ligand
 OpenBabel02271912133D
libRbt.so/2013.1/901 2013/11/27
 10 11  0  0  0  0  0  0  0  0999 V2000
   11.7387   -1.0672    9.7513 C   0  0  1  0  0  0  0  0  0  0  0  0
   11.1578   -1.7850    6.4647 C   0  0  2  0  0  0  0  0  0  0  0  0
   11.9269   -2.5503    8.2730 C   0  0  2  0  0  0  0  0  0  0  0  0
   11.7800   -0.4144   10.9184 N   0  0  0  0  0  0  0  0  0  0  0  0
   10.5952   -1.0069    5.5453 N   0  0  0  0  0  0  0  0  0  0  0  0
   11.5951   -3.0183    6.2398 N   0  0  0  0  0  0  0  0  0  0  0  0
   12.1749   -2.3076    9.5618 N   0  0  0  0  0  0  0  0  0  0  0  0
   11.2357   -0.5810    8.6017 N   0  0  0  0  0  0  0  0  0  0  0  0
   12.0526   -3.4666    7.3007 N   0  0  0  0  0  0  0  0  0  0  0  0
   11.3511   -1.4663    7.7393 N   0  0  1  0  0  0  0  0  0  0  0  0
  1  4  1  1  0  0  0
  1  8  1  0  0  0  0
  1  7  1  0  0  0  0
  2  5  1  1  0  0  0
  2  6  1  0  0  0  0
  2 10  1  0  0  0  0
  3  7  1  6  0  0  0
  3 10  1  0  0  0  0
  3  9  1  0  0  0  0
  6  9  1  0  0  0  0
 10  8  1  6  0  0  0
M  END
>  <CHROM.1>
11.55870321,-1.76481452,8.03407095,1.26515172,-1.12299739,0.98959577

>  <Name>
ligand

>  <RI>
0

>  <Rbt.Current_Directory>
/home/itssahil/PROJECTS/Mol_Feturizer/Test_systems_manuscript/rnas/2xnw

>  <Rbt.Executable>
rbdock ($Id: //depot/dev/client3/rdock/2013.1/src/exe/rbdock.cxx#4 $)

>  <Rbt.Library>
libRbt.so (2013.1, Build901 2013/11/27)

>  <Rbt.Parameter_File>
/export/apps/rDock/src/rDock_2013.1_src/data/scripts/dock_solv.prm

>  <Rbt.Receptor>
prm/pocket_docking_5.prm

>  <SCORE>
-5.79792

>  <SCORE.INTER>
-5.79792

>  <SCORE.INTER.CONST>
1

>  <SCORE.INTER.POLAR>
0

>  <SCORE.INTER.ROT>
0

>  <SCORE.INTER.SOLV>
21.7641

>  <SCORE.INTER.VDW>
-14.72

>  <SCORE.INTER.norm>
-0.579792

>  <SCORE.INTRA>
0

>  <SCORE.INTRA.DIHEDRAL>
0

>  <SCORE.INTRA.DIHEDRAL.0>
0

>  <SCORE.INTRA.POLAR>
0

>  <SCORE.INTRA.POLAR.0>
0

>  <SCORE.INTRA.REPUL>
0

>  <SCORE.INTRA.REPUL.0>
0

>  <SCORE.INTRA.SOLV>
0

>  <SCORE.INTRA.SOLV.lig_0>
-47.9788

>  <SCORE.INTRA.VDW>
0

>  <SCORE.INTRA.VDW.0>
0

>  <SCORE.INTRA.norm>
0

>  <SCORE.RESTR>
0

>  <SCORE.RESTR.CAVITY>
0

>  <SCORE.RESTR.norm>
0

>  <SCORE.SYSTEM>
0

>  <SCORE.SYSTEM.CONST>
0

>  <SCORE.SYSTEM.DIHEDRAL>
0

>  <SCORE.SYSTEM.SOLV>
0

>  <SCORE.SYSTEM.norm>
0

>  <SCORE.heavy>
10

>  <SCORE.norm>
-0.579792

>  <RMSD>
0.221

$$$$
ligand
 OpenBabel02271912133D
libRbt.so/2013.1/901 2013/11/27
 10 11  0  0  0  0  0  0  0  0999 V2000
   11.7279   -1.1309    9.7539 C   0  0  1  0  0  0  0  0  0  0  0  0
   11.1500   -1.8605    6.4694 C   0  0  2  0  0  0  0  0  0  0  0  0
   11.9225   -2.6173    8.2798 C   0  0  2  0  0  0  0  0  0  0  0  0
   11.7664   -0.4745   10.9192 N   0  0  0  0  0  0  0  0  0  0  0  0
   10.5839   -1.0875    5.5479 N   0  0  0  0  0  0  0  0  0  0  0  0
   11.5926   -3.0925    6.2481 N   0  0  0  0  0  0  0  0  0  0  0  0
   12.1696   -2.3698    9.5679 N   0  0  0  0  0  0  0  0  0  0  0  0
   11.2227   -0.6501    8.6030 N   0  0  0  0  0  0  0  0  0  0  0  0
   12.0522   -3.5358    7.3101 N   0  0  0  0  0  0  0  0  0  0  0  0
   11.3420   -1.5374    7.7431 N   0  0  1  0  0  0  0  0  0  0  0  0
  1  4  1  1  0  0  0
  1  8  1  0  0  0  0
  1  7  1  0  0  0  0
  2  5  1  1  0  0  0
  2  6  1  0  0  0  0
  2 10  1  0  0  0  0
  3  7  1  6  0  0  0
  3 10  1  0  0  0  0
  3  9  1  0  0  0  0
  6  9  1  0  0  0  0
 10  8  1  6  0  0  0
M  END
>  <CHROM.1>
11.55086433,-1.83410595,8.03873120,1.27053647,-1.11929002,0.99159426

>  <Name>
ligand

>  <RI>
0

>  <Rbt.Current_Directory>
/home/itssahil/PROJECTS/Mol_Feturizer/Test_systems_manuscript/rnas/2xnw

>  <Rbt.Executable>
rbdock ($Id: //depot/dev/client3/rdock/2013.1/src/exe/rbdock.cxx#4 $)

>  <Rbt.Library>
libRbt.so (2013.1, Build901 2013/11/27)

>  <Rbt.Parameter_File>
/export/apps/rDock/src/rDock_2013.1_src/data/scripts/dock_solv.prm

>  <Rbt.Receptor>
prm/pocket_docking_8.prm

>  <SCORE>
-5.76863

>  <SCORE.INTER>
-5.76863

>  <SCORE.INTER.CONST>
1

>  <SCORE.INTER.POLAR>
0

>  <SCORE.INTER.ROT>
0

>  <SCORE.INTER.SOLV>
21.4743

>  <SCORE.INTER.VDW>
-14.6039

>  <SCORE.INTER.norm>
-0.576863

>  <SCORE.INTRA>
0

>  <SCORE.INTRA.DIHEDRAL>
0

>  <SCORE.INTRA.DIHEDRAL.0>
0

>  <SCORE.INTRA.POLAR>
0

>  <SCORE.INTRA.POLAR.0>
0

>  <SCORE.INTRA.REPUL>
0

>  <SCORE.INTRA.REPUL.0>
0

>  <SCORE.INTRA.SOLV>
0

>  <SCORE.INTRA.SOLV.lig_0>
-47.9788

>  <SCORE.INTRA.VDW>
0

>  <SCORE.INTRA.VDW.0>
0

>  <SCORE.INTRA.norm>
0

>  <SCORE.RESTR>
0

>  <SCORE.RESTR.CAVITY>
0

>  <SCORE.RESTR.norm>
0

>  <SCORE.SYSTEM>
0

>  <SCORE.SYSTEM.CONST>
0

>  <SCORE.SYSTEM.DIHEDRAL>
0

>  <SCORE.SYSTEM.SOLV>
0

>  <SCORE.SYSTEM.norm>
0

>  <SCORE.heavy>
10

>  <SCORE.norm>
-0.576863

>  <RMSD>
0.223

$$$$
ligand
 OpenBabel02271912133D
libRbt.so/2013.1/901 2013/11/27
 10 11  0  0  0  0  0  0  0  0999 V2000
   11.7191   -1.0803    9.7473 C   0  0  1  0  0  0  0  0  0  0  0  0
   11.1325   -1.7952    6.4611 C   0  0  2  0  0  0  0  0  0  0  0  0
   11.9237   -2.5546    8.2624 C   0  0  2  0  0  0  0  0  0  0  0  0
   11.7559   -0.4313   10.9167 N   0  0  0  0  0  0  0  0  0  0  0  0
   10.5523   -1.0229    5.5478 N   0  0  0  0  0  0  0  0  0  0  0  0
   11.5887   -3.0203    6.2292 N   0  0  0  0  0  0  0  0  0  0  0  0
   12.1746   -2.3126    9.5508 N   0  0  0  0  0  0  0  0  0  0  0  0
   11.2021   -0.5981    8.6023 N   0  0  0  0  0  0  0  0  0  0  0  0
   12.0592   -3.4650    7.2859 N   0  0  0  0  0  0  0  0  0  0  0  0
   11.3274   -1.4782    7.7359 N   0  0  1  0  0  0  0  0  0  0  0  0
  1  4  1  1  0  0  0
  1  8  1  0  0  0  0
  1  7  1  0  0  0  0
  2  5  1  1  0  0  0
  2  6  1  0  0  0  0
  2 10  1  0  0  0  0
  3  7  1  6  0  0  0
  3 10  1  0  0  0  0
  3  9  1  0  0  0  0
  6  9  1  0  0  0  0
 10  8  1  6  0  0  0
M  END
>  <CHROM.1>
11.54138523,-1.77432718,8.02844373,1.27523639,-1.10636079,1.00244171

>  <Name>
ligand

>  <RI>
0

>  <Rbt.Current_Directory>
/home/itssahil/PROJECTS/Mol_Feturizer/Test_systems_manuscript/rnas/2xnw

>  <Rbt.Executable>
rbdock ($Id: //depot/dev/client3/rdock/2013.1/src/exe/rbdock.cxx#4 $)

>  <Rbt.Library>
libRbt.so (2013.1, Build901 2013/11/27)

>  <Rbt.Parameter_File>
/export/apps/rDock/src/rDock_2013.1_src/data/scripts/dock_solv.prm

>  <Rbt.Receptor>
prm/pocket_docking_3.prm

>  <SCORE>
-5.80835

>  <SCORE.INTER>
-5.80835

>  <SCORE.INTER.CONST>
1

>  <SCORE.INTER.POLAR>
0

>  <SCORE.INTER.ROT>
0

>  <SCORE.INTER.SOLV>
21.5715

>  <SCORE.INTER.VDW>
-14.6627

>  <SCORE.INTER.norm>
-0.580835

>  <SCORE.INTRA>
0

>  <SCORE.INTRA.DIHEDRAL>
0

>  <SCORE.INTRA.DIHEDRAL.0>
0

>  <SCORE.INTRA.POLAR>
0

>  <SCORE.INTRA.POLAR.0>
0

>  <SCORE.INTRA.REPUL>
0

>  <SCORE.INTRA.REPUL.0>
0

>  <SCORE.INTRA.SOLV>
0

>  <SCORE.INTRA.SOLV.lig_0>
-47.9788

>  <SCORE.INTRA.VDW>
0

>  <SCORE.INTRA.VDW.0>
0

>  <SCORE.INTRA.norm>
0

>  <SCORE.RESTR>
0

>  <SCORE.RESTR.CAVITY>
0

>  <SCORE.RESTR.norm>
0

>  <SCORE.SYSTEM>
0

>  <SCORE.SYSTEM.CONST>
0

>  <SCORE.SYSTEM.DIHEDRAL>
0

>  <SCORE.SYSTEM.SOLV>
0

>  <SCORE.SYSTEM.norm>
0

>  <SCORE.heavy>
10

>  <SCORE.norm>
-0.580835

>  <RMSD>
0.233

$$$$
ligand
 OpenBabel02271912133D
libRbt.so/2013.1/901 2013/11/27
 10 11  0  0  0  0  0  0  0  0999 V2000
   11.7375   -1.0803    9.7393 C   0  0  1  0  0  0  0  0  0  0  0  0
   11.1245   -1.7784    6.4543 C   0  0  2  0  0  0  0  0  0  0  0  0
   11.8951   -2.5606    8.2547 C   0  0  2  0  0  0  0  0  0  0  0  0
   11.7957   -0.4322   10.9084 N   0  0  0  0  0  0  0  0  0  0  0  0
   10.5665   -0.9893    5.5415 N   0  0  0  0  0  0  0  0  0  0  0  0
   11.5430   -3.0168    6.2223 N   0  0  0  0  0  0  0  0  0  0  0  0
   12.1552   -2.3259    9.5426 N   0  0  0  0  0  0  0  0  0  0  0  0
   11.2335   -0.5831    8.5949 N   0  0  0  0  0  0  0  0  0  0  0  0
   12.0015   -3.4752    7.2784 N   0  0  0  0  0  0  0  0  0  0  0  0
   11.3308   -1.4669    7.7287 N   0  0  1  0  0  0  0  0  0  0  0  0
  1  4  1  1  0  0  0
  1  8  1  0  0  0  0
  1  7  1  0  0  0  0
  2  5  1  1  0  0  0
  2  6  1  0  0  0  0
  2 10  1  0  0  0  0
  3  7  1  6  0  0  0
  3 10  1  0  0  0  0
  3  9  1  0  0  0  0
  6  9  1  0  0  0  0
 10  8  1  6  0  0  0
M  END
>  <CHROM.1>
11.53621454,-1.76928472,8.02101713,1.23396415,-1.13071216,0.96490554

>  <Name>
ligand

>  <RI>
0

>  <Rbt.Current_Directory>
/home/itssahil/PROJECTS/Mol_Feturizer/Test_systems_manuscript/rnas/2xnw

>  <Rbt.Executable>
rbdock ($Id: //depot/dev/client3/rdock/2013.1/src/exe/rbdock.cxx#4 $)

>  <Rbt.Library>
libRbt.so (2013.1, Build901 2013/11/27)

>  <Rbt.Parameter_File>
/export/apps/rDock/src/rDock_2013.1_src/data/scripts/dock_solv.prm

>  <Rbt.Receptor>
prm/blind_docking_100.prm

>  <SCORE>
-5.82172

>  <SCORE.INTER>
-5.82172

>  <SCORE.INTER.CONST>
1

>  <SCORE.INTER.POLAR>
0

>  <SCORE.INTER.ROT>
0

>  <SCORE.INTER.SOLV>
21.6859

>  <SCORE.INTER.VDW>
-14.7098

>  <SCORE.INTER.norm>
-0.582172

>  <SCORE.INTRA>
0

>  <SCORE.INTRA.DIHEDRAL>
0

>  <SCORE.INTRA.DIHEDRAL.0>
0

>  <SCORE.INTRA.POLAR>
0

>  <SCORE.INTRA.POLAR.0>
0

>  <SCORE.INTRA.REPUL>
0

>  <SCORE.INTRA.REPUL.0>
0

>  <SCORE.INTRA.SOLV>
0

>  <SCORE.INTRA.SOLV.lig_0>
-47.9788

>  <SCORE.INTRA.VDW>
0

>  <SCORE.INTRA.VDW.0>
0

>  <SCORE.INTRA.norm>
0

>  <SCORE.RESTR>
0

>  <SCORE.RESTR.CAVITY>
0

>  <SCORE.RESTR.norm>
0

>  <SCORE.SYSTEM>
0

>  <SCORE.SYSTEM.CONST>
0

>  <SCORE.SYSTEM.DIHEDRAL>
0

>  <SCORE.SYSTEM.SOLV>
0

>  <SCORE.SYSTEM.norm>
0

>  <SCORE.heavy>
10

>  <SCORE.norm>
-0.582172

>  <RMSD>
0.240

$$$$
ligand
 OpenBabel02271912133D
libRbt.so/2013.1/901 2013/11/27
 10 11  0  0  0  0  0  0  0  0999 V2000
   11.6607   -1.1491    9.5574 C   0  0  1  0  0  0  0  0  0  0  0  0
   11.2178   -1.7436    6.2250 C   0  0  2  0  0  0  0  0  0  0  0  0
   11.8621   -2.5944    8.0438 C   0  0  2  0  0  0  0  0  0  0  0  0
   11.6698   -0.5335   10.7452 N   0  0  0  0  0  0  0  0  0  0  0  0
   10.7351   -0.9152    5.3042 N   0  0  0  0  0  0  0  0  0  0  0  0
   11.6146   -2.9873    5.9830 N   0  0  0  0  0  0  0  0  0  0  0  0
   12.0544   -2.4008    9.3504 N   0  0  0  0  0  0  0  0  0  0  0  0
   11.2371   -0.6079    8.4004 N   0  0  0  0  0  0  0  0  0  0  0  0
   11.9990   -3.4861    7.0504 N   0  0  0  0  0  0  0  0  0  0  0  0
   11.3594   -1.4714    7.5170 N   0  0  1  0  0  0  0  0  0  0  0  0
  1  4  1  1  0  0  0
  1  8  1  0  0  0  0
  1  7  1  0  0  0  0
  2  5  1  1  0  0  0
  2  6  1  0  0  0  0
  2 10  1  0  0  0  0
  3  7  1  6  0  0  0
  3 10  1  0  0  0  0
  3  9  1  0  0  0  0
  6  9  1  0  0  0  0
 10  8  1  6  0  0  0
M  END
>  <CHROM.1>
11.53923746,-1.78715231,7.81211901,1.31732186,-1.18488264,1.06803250

>  <Name>
ligand

>  <RI>
0

>  <Rbt.Current_Directory>
/home/itssahil/PROJECTS/Mol_Feturizer/Test_systems_manuscript/rnas/2xnw

>  <Rbt.Executable>
rbdock ($Id: //depot/dev/client3/rdock/2013.1/src/exe/rbdock.cxx#4 $)

>  <Rbt.Library>
libRbt.so (2013.1, Build901 2013/11/27)

>  <Rbt.Parameter_File>
/export/apps/rDock/src/rDock_2013.1_src/data/scripts/dock_solv.prm

>  <Rbt.Receptor>
prm/blind_docking_60.prm

>  <SCORE>
-5.84242

>  <SCORE.INTER>
-5.84242

>  <SCORE.INTER.CONST>
1

>  <SCORE.INTER.POLAR>
0

>  <SCORE.INTER.ROT>
0

>  <SCORE.INTER.SOLV>
23.0278

>  <SCORE.INTER.VDW>
-15.1709

>  <SCORE.INTER.norm>
-0.584242

>  <SCORE.INTRA>
0

>  <SCORE.INTRA.DIHEDRAL>
0

>  <SCORE.INTRA.DIHEDRAL.0>
0

>  <SCORE.INTRA.POLAR>
0

>  <SCORE.INTRA.POLAR.0>
0

>  <SCORE.INTRA.REPUL>
0

>  <SCORE.INTRA.REPUL.0>
0

>  <SCORE.INTRA.SOLV>
0

>  <SCORE.INTRA.SOLV.lig_0>
-47.9788

>  <SCORE.INTRA.VDW>
0

>  <SCORE.INTRA.VDW.0>
0

>  <SCORE.INTRA.norm>
0

>  <SCORE.RESTR>
0

>  <SCORE.RESTR.CAVITY>
0

>  <SCORE.RESTR.norm>
0

>  <SCORE.SYSTEM>
0

>  <SCORE.SYSTEM.CONST>
0

>  <SCORE.SYSTEM.DIHEDRAL>
0

>  <SCORE.SYSTEM.SOLV>
0

>  <SCORE.SYSTEM.norm>
0

>  <SCORE.heavy>
10

>  <SCORE.norm>
-0.584242

>  <RMSD>
0.264

$$$$
ligand
 OpenBabel02271912133D
libRbt.so/2013.1/901 2013/11/27
 10 11  0  0  0  0  0  0  0  0999 V2000
   11.8638   -1.2180    9.5695 C   0  0  1  0  0  0  0  0  0  0  0  0
   11.1278   -1.7939    6.2861 C   0  0  2  0  0  0  0  0  0  0  0  0
   11.9946   -2.6300    8.0173 C   0  0  2  0  0  0  0  0  0  0  0  0
   11.9559   -0.6182   10.7619 N   0  0  0  0  0  0  0  0  0  0  0  0
   10.5113   -0.9826    5.4323 N   0  0  0  0  0  0  0  0  0  0  0  0
   11.5670   -3.0098    5.9836 N   0  0  0  0  0  0  0  0  0  0  0  0
   12.3039   -2.4425    9.3021 N   0  0  0  0  0  0  0  0  0  0  0  0
   11.2987   -0.6870    8.4697 N   0  0  0  0  0  0  0  0  0  0  0  0
   12.0819   -3.4995    6.9989 N   0  0  0  0  0  0  0  0  0  0  0  0
   11.3808   -1.5307    7.5629 N   0  0  1  0  0  0  0  0  0  0  0  0
  1  4  1  1  0  0  0
  1  8  1  0  0  0  0
  1  7  1  0  0  0  0
  2  5  1  1  0  0  0
  2  6  1  0  0  0  0
  2 10  1  0  0  0  0
  3  7  1  6  0  0  0
  3 10  1  0  0  0  0
  3  9  1  0  0  0  0
  6  9  1  0  0  0  0
 10  8  1  6  0  0  0
M  END
>  <CHROM.1>
11.60617234,-1.83946585,7.83310573,1.18891209,-1.08504899,0.96712193

>  <Name>
ligand

>  <RI>
0

>  <Rbt.Current_Directory>
/home/itssahil/PROJECTS/Mol_Feturizer/Test_systems_manuscript/rnas/2xnw

>  <Rbt.Executable>
rbdock ($Id: //depot/dev/client3/rdock/2013.1/src/exe/rbdock.cxx#4 $)

>  <Rbt.Library>
libRbt.so (2013.1, Build901 2013/11/27)

>  <Rbt.Parameter_File>
/export/apps/rDock/src/rDock_2013.1_src/data/scripts/dock_solv.prm

>  <Rbt.Receptor>
prm/pocket_docking_3.prm

>  <SCORE>
-5.83993

>  <SCORE.INTER>
-5.83993

>  <SCORE.INTER.CONST>
1

>  <SCORE.INTER.POLAR>
0

>  <SCORE.INTER.ROT>
0

>  <SCORE.INTER.SOLV>
21.385

>  <SCORE.INTER.VDW>
-14.6216

>  <SCORE.INTER.norm>
-0.583993

>  <SCORE.INTRA>
0

>  <SCORE.INTRA.DIHEDRAL>
0

>  <SCORE.INTRA.DIHEDRAL.0>
0

>  <SCORE.INTRA.POLAR>
0

>  <SCORE.INTRA.POLAR.0>
0

>  <SCORE.INTRA.REPUL>
0

>  <SCORE.INTRA.REPUL.0>
0

>  <SCORE.INTRA.SOLV>
0

>  <SCORE.INTRA.SOLV.lig_0>
-47.9788

>  <SCORE.INTRA.VDW>
0

>  <SCORE.INTRA.VDW.0>
0

>  <SCORE.INTRA.norm>
0

>  <SCORE.RESTR>
0

>  <SCORE.RESTR.CAVITY>
0

>  <SCORE.RESTR.norm>
0

>  <SCORE.SYSTEM>
0

>  <SCORE.SYSTEM.CONST>
0

>  <SCORE.SYSTEM.DIHEDRAL>
0

>  <SCORE.SYSTEM.SOLV>
0

>  <SCORE.SYSTEM.norm>
0

>  <SCORE.heavy>
10

>  <SCORE.norm>
-0.583993

>  <RMSD>
0.264

$$$$
ligand
 OpenBabel02271912133D
libRbt.so/2013.1/901 2013/11/27
 10 11  0  0  0  0  0  0  0  0999 V2000
   11.7101   -1.1523    9.5720 C   0  0  1  0  0  0  0  0  0  0  0  0
   11.1326   -1.7605    6.2627 C   0  0  2  0  0  0  0  0  0  0  0  0
   11.9280   -2.5739    8.0384 C   0  0  2  0  0  0  0  0  0  0  0  0
   11.7405   -0.5429   10.7626 N   0  0  0  0  0  0  0  0  0  0  0  0
   10.5471   -0.9625    5.3752 N   0  0  0  0  0  0  0  0  0  0  0  0
   11.5988   -2.9734    5.9902 N   0  0  0  0  0  0  0  0  0  0  0  0
   12.1756   -2.3736    9.3345 N   0  0  0  0  0  0  0  0  0  0  0  0
   11.1903   -0.6359    8.4432 N   0  0  0  0  0  0  0  0  0  0  0  0
   12.0718   -3.4498    7.0319 N   0  0  0  0  0  0  0  0  0  0  0  0
   11.3236   -1.4851    7.5477 N   0  0  1  0  0  0  0  0  0  0  0  0
  1  4  1  1  0  0  0
  1  8  1  0  0  0  0
  1  7  1  0  0  0  0
  2  5  1  1  0  0  0
  2  6  1  0  0  0  0
  2 10  1  0  0  0  0
  3  7  1  6  0  0  0
  3 10  1  0  0  0  0
  3  9  1  0  0  0  0
  6  9  1  0  0  0  0
 10  8  1  6  0  0  0
M  END
>  <CHROM.1>
11.53967710,-1.78928716,7.83041146,1.28665171,-1.10009119,1.04639391

>  <Name>
ligand

>  <RI>
0

>  <Rbt.Current_Directory>
/home/itssahil/PROJECTS/Mol_Feturizer/Test_systems_manuscript/rnas/2xnw

>  <Rbt.Executable>
rbdock ($Id: //depot/dev/client3/rdock/2013.1/src/exe/rbdock.cxx#4 $)

>  <Rbt.Library>
libRbt.so (2013.1, Build901 2013/11/27)

>  <Rbt.Parameter_File>
/export/apps/rDock/src/rDock_2013.1_src/data/scripts/dock_solv.prm

>  <Rbt.Receptor>
prm/blind_docking_100.prm

>  <SCORE>
-5.89893

>  <SCORE.INTER>
-5.89893

>  <SCORE.INTER.CONST>
1

>  <SCORE.INTER.POLAR>
0

>  <SCORE.INTER.ROT>
0

>  <SCORE.INTER.SOLV>
22.046

>  <SCORE.INTER.VDW>
-14.8813

>  <SCORE.INTER.norm>
-0.589893

>  <SCORE.INTRA>
0

>  <SCORE.INTRA.DIHEDRAL>
0

>  <SCORE.INTRA.DIHEDRAL.0>
0

>  <SCORE.INTRA.POLAR>
0

>  <SCORE.INTRA.POLAR.0>
0

>  <SCORE.INTRA.REPUL>
0

>  <SCORE.INTRA.REPUL.0>
0

>  <SCORE.INTRA.SOLV>
0

>  <SCORE.INTRA.SOLV.lig_0>
-47.9788

>  <SCORE.INTRA.VDW>
0

>  <SCORE.INTRA.VDW.0>
0

>  <SCORE.INTRA.norm>
0

>  <SCORE.RESTR>
0

>  <SCORE.RESTR.CAVITY>
0

>  <SCORE.RESTR.norm>
0

>  <SCORE.SYSTEM>
0

>  <SCORE.SYSTEM.CONST>
0

>  <SCORE.SYSTEM.DIHEDRAL>
0

>  <SCORE.SYSTEM.SOLV>
0

>  <SCORE.SYSTEM.norm>
0

>  <SCORE.heavy>
10

>  <SCORE.norm>
-0.589893

>  <RMSD>
0.267

$$$$
ligand
 OpenBabel02271912133D
libRbt.so/2013.1/901 2013/11/27
 10 11  0  0  0  0  0  0  0  0999 V2000
   11.6935   -1.1540    9.5829 C   0  0  1  0  0  0  0  0  0  0  0  0
   11.1173   -1.7591    6.2729 C   0  0  2  0  0  0  0  0  0  0  0  0
   11.9087   -2.5756    8.0490 C   0  0  2  0  0  0  0  0  0  0  0  0
   11.7246   -0.5451   10.7739 N   0  0  0  0  0  0  0  0  0  0  0  0
   10.5350   -0.9591    5.3852 N   0  0  0  0  0  0  0  0  0  0  0  0
   11.5803   -2.9733    6.0004 N   0  0  0  0  0  0  0  0  0  0  0  0
   12.1557   -2.3765    9.3454 N   0  0  0  0  0  0  0  0  0  0  0  0
   11.1763   -0.6355    8.4539 N   0  0  0  0  0  0  0  0  0  0  0  0
   12.0509   -3.4514    7.0423 N   0  0  0  0  0  0  0  0  0  0  0  0
   11.3079   -1.4848    7.5582 N   0  0  1  0  0  0  0  0  0  0  0  0
  1  4  1  1  0  0  0
  1  8  1  0  0  0  0
  1  7  1  0  0  0  0
  2  5  1  1  0  0  0
  2  6  1  0  0  0  0
  2 10  1  0  0  0  0
  3  7  1  6  0  0  0
  3 10  1  0  0  0  0
  3  9  1  0  0  0  0
  6  9  1  0  0  0  0
 10  8  1  6  0  0  0
M  END
>  <CHROM.1>
11.52287350,-1.78974257,7.84096435,1.28520685,-1.10310612,1.04551547

>  <Name>
ligand

>  <RI>
0

>  <Rbt.Current_Directory>
/home/itssahil/PROJECTS/Mol_Feturizer/Test_systems_manuscript/rnas/2xnw

>  <Rbt.Executable>
rbdock ($Id: //depot/dev/client3/rdock/2013.1/src/exe/rbdock.cxx#4 $)

>  <Rbt.Library>
libRbt.so (2013.1, Build901 2013/11/27)

>  <Rbt.Parameter_File>
/export/apps/rDock/src/rDock_2013.1_src/data/scripts/dock_solv.prm

>  <Rbt.Receptor>
prm/pocket_docking_6.prm

>  <SCORE>
-5.86631

>  <SCORE.INTER>
-5.86631

>  <SCORE.INTER.CONST>
1

>  <SCORE.INTER.POLAR>
0

>  <SCORE.INTER.ROT>
0

>  <SCORE.INTER.SOLV>
22.0087

>  <SCORE.INTER.VDW>
-14.8471

>  <SCORE.INTER.norm>
-0.586631

>  <SCORE.INTRA>
0

>  <SCORE.INTRA.DIHEDRAL>
0

>  <SCORE.INTRA.DIHEDRAL.0>
0

>  <SCORE.INTRA.POLAR>
0

>  <SCORE.INTRA.POLAR.0>
0

>  <SCORE.INTRA.REPUL>
0

>  <SCORE.INTRA.REPUL.0>
0

>  <SCORE.INTRA.SOLV>
0

>  <SCORE.INTRA.SOLV.lig_0>
-47.9788

>  <SCORE.INTRA.VDW>
0

>  <SCORE.INTRA.VDW.0>
0

>  <SCORE.INTRA.norm>
0

>  <SCORE.RESTR>
0

>  <SCORE.RESTR.CAVITY>
0

>  <SCORE.RESTR.norm>
0

>  <SCORE.SYSTEM>
0

>  <SCORE.SYSTEM.CONST>
0

>  <SCORE.SYSTEM.DIHEDRAL>
0

>  <SCORE.SYSTEM.SOLV>
0

>  <SCORE.SYSTEM.norm>
0

>  <SCORE.heavy>
10

>  <SCORE.norm>
-0.586631

>  <RMSD>
0.274

$$$$
ligand
 OpenBabel02271912133D
libRbt.so/2013.1/901 2013/11/27
 10 11  0  0  0  0  0  0  0  0999 V2000
   11.7002   -1.1588    9.5579 C   0  0  1  0  0  0  0  0  0  0  0  0
   11.1524   -1.7496    6.2404 C   0  0  2  0  0  0  0  0  0  0  0  0
   11.8817   -2.5924    8.0307 C   0  0  2  0  0  0  0  0  0  0  0  0
   11.7372   -0.5483   10.7478 N   0  0  0  0  0  0  0  0  0  0  0  0
   10.6172   -0.9291    5.3417 N   0  0  0  0  0  0  0  0  0  0  0  0
   11.5699   -2.9823    5.9780 N   0  0  0  0  0  0  0  0  0  0  0  0
   12.1161   -2.3998    9.3305 N   0  0  0  0  0  0  0  0  0  0  0  0
   11.2225   -0.6231    8.4195 N   0  0  0  0  0  0  0  0  0  0  0  0
   12.0041   -3.4762    7.0283 N   0  0  0  0  0  0  0  0  0  0  0  0
   11.3336   -1.4796    7.5280 N   0  0  1  0  0  0  0  0  0  0  0  0
  1  4  1  1  0  0  0
  1  8  1  0  0  0  0
  1  7  1  0  0  0  0
  2  5  1  1  0  0  0
  2  6  1  0  0  0  0
  2 10  1  0  0  0  0
  3  7  1  6  0  0  0
  3 10  1  0  0  0  0
  3  9  1  0  0  0  0
  6  9  1  0  0  0  0
 10  8  1  6  0  0  0
M  END
>  <CHROM.1>
11.53150008,-1.79212678,7.81479809,1.26899980,-1.14616998,1.02833652

>  <Name>
ligand

>  <RI>
0

>  <Rbt.Current_Directory>
/home/itssahil/PROJECTS/Mol_Feturizer/Test_systems_manuscript/rnas/2xnw

>  <Rbt.Executable>
rbdock ($Id: //depot/dev/client3/rdock/2013.1/src/exe/rbdock.cxx#4 $)

>  <Rbt.Library>
libRbt.so (2013.1, Build901 2013/11/27)

>  <Rbt.Parameter_File>
/export/apps/rDock/src/rDock_2013.1_src/data/scripts/dock_solv.prm

>  <Rbt.Receptor>
prm/blind_docking_20.prm

>  <SCORE>
-5.86588

>  <SCORE.INTER>
-5.86588

>  <SCORE.INTER.CONST>
1

>  <SCORE.INTER.POLAR>
0

>  <SCORE.INTER.ROT>
0

>  <SCORE.INTER.SOLV>
22.4183

>  <SCORE.INTER.VDW>
-14.9834

>  <SCORE.INTER.norm>
-0.586588

>  <SCORE.INTRA>
0

>  <SCORE.INTRA.DIHEDRAL>
0

>  <SCORE.INTRA.DIHEDRAL.0>
0

>  <SCORE.INTRA.POLAR>
0

>  <SCORE.INTRA.POLAR.0>
0

>  <SCORE.INTRA.REPUL>
0

>  <SCORE.INTRA.REPUL.0>
0

>  <SCORE.INTRA.SOLV>
0

>  <SCORE.INTRA.SOLV.lig_0>
-47.9788

>  <SCORE.INTRA.VDW>
0

>  <SCORE.INTRA.VDW.0>
0

>  <SCORE.INTRA.norm>
0

>  <SCORE.RESTR>
0

>  <SCORE.RESTR.CAVITY>
0

>  <SCORE.RESTR.norm>
0

>  <SCORE.SYSTEM>
0

>  <SCORE.SYSTEM.CONST>
0

>  <SCORE.SYSTEM.DIHEDRAL>
0

>  <SCORE.SYSTEM.SOLV>
0

>  <SCORE.SYSTEM.norm>
0

>  <SCORE.heavy>
10

>  <SCORE.norm>
-0.586588

>  <RMSD>
0.275

$$$$
ligand
 OpenBabel02271912133D
libRbt.so/2013.1/901 2013/11/27
 10 11  0  0  0  0  0  0  0  0999 V2000
   11.7020   -1.1597    9.5545 C   0  0  1  0  0  0  0  0  0  0  0  0
   11.1239   -1.7678    6.2454 C   0  0  2  0  0  0  0  0  0  0  0  0
   11.9201   -2.5811    8.0207 C   0  0  2  0  0  0  0  0  0  0  0  0
   11.7325   -0.5504   10.7452 N   0  0  0  0  0  0  0  0  0  0  0  0
   10.5378   -0.9701    5.3581 N   0  0  0  0  0  0  0  0  0  0  0  0
   11.5906   -2.9805    5.9727 N   0  0  0  0  0  0  0  0  0  0  0  0
   12.1681   -2.3808    9.3169 N   0  0  0  0  0  0  0  0  0  0  0  0
   11.1817   -0.6434    8.4259 N   0  0  0  0  0  0  0  0  0  0  0  0
   12.0641   -3.4568    7.0142 N   0  0  0  0  0  0  0  0  0  0  0  0
   11.3151   -1.4925    7.5304 N   0  0  1  0  0  0  0  0  0  0  0  0
  1  4  1  1  0  0  0
  1  8  1  0  0  0  0
  1  7  1  0  0  0  0
  2  5  1  1  0  0  0
  2  6  1  0  0  0  0
  2 10  1  0  0  0  0
  3  7  1  6  0  0  0
  3 10  1  0  0  0  0
  3  9  1  0  0  0  0
  6  9  1  0  0  0  0
 10  8  1  6  0  0  0
M  END
>  <CHROM.1>
11.53143452,-1.79661483,7.81296966,1.28661738,-1.09958419,1.04645299

>  <Name>
ligand

>  <RI>
0

>  <Rbt.Current_Directory>
/home/itssahil/PROJECTS/Mol_Feturizer/Test_systems_manuscript/rnas/2xnw

>  <Rbt.Executable>
rbdock ($Id: //depot/dev/client3/rdock/2013.1/src/exe/rbdock.cxx#4 $)

>  <Rbt.Library>
libRbt.so (2013.1, Build901 2013/11/27)

>  <Rbt.Parameter_File>
/export/apps/rDock/src/rDock_2013.1_src/data/scripts/dock_solv.prm

>  <Rbt.Receptor>
prm/blind_docking_80.prm

>  <SCORE>
-5.89044

>  <SCORE.INTER>
-5.89044

>  <SCORE.INTER.CONST>
1

>  <SCORE.INTER.POLAR>
0

>  <SCORE.INTER.ROT>
0

>  <SCORE.INTER.SOLV>
22.0605

>  <SCORE.INTER.VDW>
-14.8805

>  <SCORE.INTER.norm>
-0.589044

>  <SCORE.INTRA>
0

>  <SCORE.INTRA.DIHEDRAL>
0

>  <SCORE.INTRA.DIHEDRAL.0>
0

>  <SCORE.INTRA.POLAR>
0

>  <SCORE.INTRA.POLAR.0>
0

>  <SCORE.INTRA.REPUL>
0

>  <SCORE.INTRA.REPUL.0>
0

>  <SCORE.INTRA.SOLV>
0

>  <SCORE.INTRA.SOLV.lig_0>
-47.9788

>  <SCORE.INTRA.VDW>
0

>  <SCORE.INTRA.VDW.0>
0

>  <SCORE.INTRA.norm>
0

>  <SCORE.RESTR>
0

>  <SCORE.RESTR.CAVITY>
0

>  <SCORE.RESTR.norm>
0

>  <SCORE.SYSTEM>
0

>  <SCORE.SYSTEM.CONST>
0

>  <SCORE.SYSTEM.DIHEDRAL>
0

>  <SCORE.SYSTEM.SOLV>
0

>  <SCORE.SYSTEM.norm>
0

>  <SCORE.heavy>
10

>  <SCORE.norm>
-0.589044

>  <RMSD>
0.283

$$$$
ligand
 OpenBabel02271912133D
libRbt.so/2013.1/901 2013/11/27
 10 11  0  0  0  0  0  0  0  0999 V2000
   11.6937   -1.1422    9.5353 C   0  0  1  0  0  0  0  0  0  0  0  0
   11.1334   -1.8207    6.2368 C   0  0  2  0  0  0  0  0  0  0  0  0
   11.9142   -2.5983    8.0348 C   0  0  2  0  0  0  0  0  0  0  0  0
   11.7198   -0.5067   10.7123 N   0  0  0  0  0  0  0  0  0  0  0  0
   10.5572   -1.0399    5.3282 N   0  0  0  0  0  0  0  0  0  0  0  0
   11.5955   -3.0415    5.9940 N   0  0  0  0  0  0  0  0  0  0  0  0
   12.1549   -2.3705    9.3277 N   0  0  0  0  0  0  0  0  0  0  0  0
   11.1833   -0.6484    8.3921 N   0  0  0  0  0  0  0  0  0  0  0  0
   12.0599   -3.4969    7.0489 N   0  0  0  0  0  0  0  0  0  0  0  0
   11.3180   -1.5179    7.5165 N   0  0  1  0  0  0  0  0  0  0  0  0
  1  4  1  1  0  0  0
  1  8  1  0  0  0  0
  1  7  1  0  0  0  0
  2  5  1  1  0  0  0
  2  6  1  0  0  0  0
  2 10  1  0  0  0  0
  3  7  1  6  0  0  0
  3 10  1  0  0  0  0
  3  9  1  0  0  0  0
  6  9  1  0  0  0  0
 10  8  1  6  0  0  0
M  END
>  <CHROM.1>
11.53087597,-1.81669164,7.80717328,1.29308053,-1.10724878,1.03002740

>  <Name>
ligand

>  <RI>
0

>  <Rbt.Current_Directory>
/home/itssahil/PROJECTS/Mol_Feturizer/Test_systems_manuscript/rnas/2xnw

>  <Rbt.Executable>
rbdock ($Id: //depot/dev/client3/rdock/2013.1/src/exe/rbdock.cxx#4 $)

>  <Rbt.Library>
libRbt.so (2013.1, Build901 2013/11/27)

>  <Rbt.Parameter_File>
/export/apps/rDock/src/rDock_2013.1_src/data/scripts/dock_solv.prm

>  <Rbt.Receptor>
prm/pocket_docking_3.prm

>  <SCORE>
-5.85094

>  <SCORE.INTER>
-5.85094

>  <SCORE.INTER.CONST>
1

>  <SCORE.INTER.POLAR>
0

>  <SCORE.INTER.ROT>
0

>  <SCORE.INTER.SOLV>
22.2248

>  <SCORE.INTER.VDW>
-14.9089

>  <SCORE.INTER.norm>
-0.585094

>  <SCORE.INTRA>
0

>  <SCORE.INTRA.DIHEDRAL>
0

>  <SCORE.INTRA.DIHEDRAL.0>
0

>  <SCORE.INTRA.POLAR>
0

>  <SCORE.INTRA.POLAR.0>
0

>  <SCORE.INTRA.REPUL>
0

>  <SCORE.INTRA.REPUL.0>
0

>  <SCORE.INTRA.SOLV>
0

>  <SCORE.INTRA.SOLV.lig_0>
-47.9788

>  <SCORE.INTRA.VDW>
0

>  <SCORE.INTRA.VDW.0>
0

>  <SCORE.INTRA.norm>
0

>  <SCORE.RESTR>
0

>  <SCORE.RESTR.CAVITY>
0

>  <SCORE.RESTR.norm>
0

>  <SCORE.SYSTEM>
0

>  <SCORE.SYSTEM.CONST>
0

>  <SCORE.SYSTEM.DIHEDRAL>
0

>  <SCORE.SYSTEM.SOLV>
0

>  <SCORE.SYSTEM.norm>
0

>  <SCORE.heavy>
10

>  <SCORE.norm>
-0.585094

>  <RMSD>
0.283

$$$$
ligand
 OpenBabel02271912133D
libRbt.so/2013.1/901 2013/11/27
 10 11  0  0  0  0  0  0  0  0999 V2000
   11.7020   -1.1488    9.5751 C   0  0  1  0  0  0  0  0  0  0  0  0
   11.0995   -1.7703    6.2728 C   0  0  2  0  0  0  0  0  0  0  0  0
   11.9115   -2.5752    8.0448 C   0  0  2  0  0  0  0  0  0  0  0  0
   11.7404   -0.5350   10.7633 N   0  0  0  0  0  0  0  0  0  0  0  0
   10.5047   -0.9771    5.3872 N   0  0  0  0  0  0  0  0  0  0  0  0
   11.5669   -2.9828    6.0008 N   0  0  0  0  0  0  0  0  0  0  0  0
   12.1691   -2.3696    9.3382 N   0  0  0  0  0  0  0  0  0  0  0  0
   11.1718   -0.6378    8.4487 N   0  0  0  0  0  0  0  0  0  0  0  0
   12.0497   -3.4542    7.0403 N   0  0  0  0  0  0  0  0  0  0  0  0
   11.3002   -1.4898    7.5552 N   0  0  1  0  0  0  0  0  0  0  0  0
  1  4  1  1  0  0  0
  1  8  1  0  0  0  0
  1  7  1  0  0  0  0
  2  5  1  1  0  0  0
  2  6  1  0  0  0  0
  2 10  1  0  0  0  0
  3  7  1  6  0  0  0
  3 10  1  0  0  0  0
  3  9  1  0  0  0  0
  6  9  1  0  0  0  0
 10  8  1  6  0  0  0
M  END
>  <CHROM.1>
11.51937075,-1.79238441,7.83722547,1.27448182,-1.09361276,1.03203310

>  <Name>
ligand

>  <RI>
0

>  <Rbt.Current_Directory>
/home/itssahil/PROJECTS/Mol_Feturizer/Test_systems_manuscript/rnas/2xnw

>  <Rbt.Executable>
rbdock ($Id: //depot/dev/client3/rdock/2013.1/src/exe/rbdock.cxx#4 $)

>  <Rbt.Library>
libRbt.so (2013.1, Build901 2013/11/27)

>  <Rbt.Parameter_File>
/export/apps/rDock/src/rDock_2013.1_src/data/scripts/dock_solv.prm

>  <Rbt.Receptor>
prm/pocket_docking_7.prm

>  <SCORE>
-5.86497

>  <SCORE.INTER>
-5.86497

>  <SCORE.INTER.CONST>
1

>  <SCORE.INTER.POLAR>
0

>  <SCORE.INTER.ROT>
0

>  <SCORE.INTER.SOLV>
21.8933

>  <SCORE.INTER.VDW>
-14.8078

>  <SCORE.INTER.norm>
-0.586497

>  <SCORE.INTRA>
0

>  <SCORE.INTRA.DIHEDRAL>
0

>  <SCORE.INTRA.DIHEDRAL.0>
0

>  <SCORE.INTRA.POLAR>
0

>  <SCORE.INTRA.POLAR.0>
0

>  <SCORE.INTRA.REPUL>
0

>  <SCORE.INTRA.REPUL.0>
0

>  <SCORE.INTRA.SOLV>
0

>  <SCORE.INTRA.SOLV.lig_0>
-47.9788

>  <SCORE.INTRA.VDW>
0

>  <SCORE.INTRA.VDW.0>
0

>  <SCORE.INTRA.norm>
0

>  <SCORE.RESTR>
0

>  <SCORE.RESTR.CAVITY>
0

>  <SCORE.RESTR.norm>
0

>  <SCORE.SYSTEM>
0

>  <SCORE.SYSTEM.CONST>
0

>  <SCORE.SYSTEM.DIHEDRAL>
0

>  <SCORE.SYSTEM.SOLV>
0

>  <SCORE.SYSTEM.norm>
0

>  <SCORE.heavy>
10

>  <SCORE.norm>
-0.586497

>  <RMSD>
0.283

$$$$
ligand
 OpenBabel02271912133D
libRbt.so/2013.1/901 2013/11/27
 10 11  0  0  0  0  0  0  0  0999 V2000
   11.7047   -1.1581    9.5568 C   0  0  1  0  0  0  0  0  0  0  0  0
   11.1213   -1.7585    6.2472 C   0  0  2  0  0  0  0  0  0  0  0  0
   11.9189   -2.5765    8.0198 C   0  0  2  0  0  0  0  0  0  0  0  0
   11.7377   -0.5512   10.7488 N   0  0  0  0  0  0  0  0  0  0  0  0
   10.5350   -0.9582    5.3624 N   0  0  0  0  0  0  0  0  0  0  0  0
   11.5860   -2.9712    5.9713 N   0  0  0  0  0  0  0  0  0  0  0  0
   12.1689   -2.3792    9.3160 N   0  0  0  0  0  0  0  0  0  0  0  0
   11.1836   -0.6387    8.4300 N   0  0  0  0  0  0  0  0  0  0  0  0
   12.0604   -3.4503    7.0112 N   0  0  0  0  0  0  0  0  0  0  0  0
   11.3147   -1.4861    7.5325 N   0  0  1  0  0  0  0  0  0  0  0  0
  1  4  1  1  0  0  0
  1  8  1  0  0  0  0
  1  7  1  0  0  0  0
  2  5  1  1  0  0  0
  2  6  1  0  0  0  0
  2 10  1  0  0  0  0
  3  7  1  6  0  0  0
  3 10  1  0  0  0  0
  3  9  1  0  0  0  0
  6  9  1  0  0  0  0
 10  8  1  6  0  0  0
M  END
>  <CHROM.1>
11.53095230,-1.79109872,7.81417791,1.28257784,-1.09999801,1.04493707

>  <Name>
ligand

>  <RI>
0

>  <Rbt.Current_Directory>
/home/itssahil/PROJECTS/Mol_Feturizer/Test_systems_manuscript/rnas/2xnw

>  <Rbt.Executable>
rbdock ($Id: //depot/dev/client3/rdock/2013.1/src/exe/rbdock.cxx#4 $)

>  <Rbt.Library>
libRbt.so (2013.1, Build901 2013/11/27)

>  <Rbt.Parameter_File>
/export/apps/rDock/src/rDock_2013.1_src/data/scripts/dock_solv.prm

>  <Rbt.Receptor>
prm/pocket_docking_8.prm

>  <SCORE>
-5.89749

>  <SCORE.INTER>
-5.89749

>  <SCORE.INTER.CONST>
1

>  <SCORE.INTER.POLAR>
0

>  <SCORE.INTER.ROT>
0

>  <SCORE.INTER.SOLV>
22.0517

>  <SCORE.INTER.VDW>
-14.8822

>  <SCORE.INTER.norm>
-0.589749

>  <SCORE.INTRA>
0

>  <SCORE.INTRA.DIHEDRAL>
0

>  <SCORE.INTRA.DIHEDRAL.0>
0

>  <SCORE.INTRA.POLAR>
0

>  <SCORE.INTRA.POLAR.0>
0

>  <SCORE.INTRA.REPUL>
0

>  <SCORE.INTRA.REPUL.0>
0

>  <SCORE.INTRA.SOLV>
0

>  <SCORE.INTRA.SOLV.lig_0>
-47.9788

>  <SCORE.INTRA.VDW>
0

>  <SCORE.INTRA.VDW.0>
0

>  <SCORE.INTRA.norm>
0

>  <SCORE.RESTR>
0

>  <SCORE.RESTR.CAVITY>
0

>  <SCORE.RESTR.norm>
0

>  <SCORE.SYSTEM>
0

>  <SCORE.SYSTEM.CONST>
0

>  <SCORE.SYSTEM.DIHEDRAL>
0

>  <SCORE.SYSTEM.SOLV>
0

>  <SCORE.SYSTEM.norm>
0

>  <SCORE.heavy>
10

>  <SCORE.norm>
-0.589749

>  <RMSD>
0.284

$$$$
ligand
 OpenBabel02271912133D
libRbt.so/2013.1/901 2013/11/27
 10 11  0  0  0  0  0  0  0  0999 V2000
   11.6952   -1.1580    9.5621 C   0  0  1  0  0  0  0  0  0  0  0  0
   11.1314   -1.7528    6.2481 C   0  0  2  0  0  0  0  0  0  0  0  0
   11.8678   -2.5940    8.0361 C   0  0  2  0  0  0  0  0  0  0  0  0
   11.7385   -0.5458   10.7509 N   0  0  0  0  0  0  0  0  0  0  0  0
   10.5931   -0.9329    5.3507 N   0  0  0  0  0  0  0  0  0  0  0  0
   11.5460   -2.9864    5.9855 N   0  0  0  0  0  0  0  0  0  0  0  0
   12.1084   -2.3998    9.3346 N   0  0  0  0  0  0  0  0  0  0  0  0
   11.2130   -0.6232    8.4252 N   0  0  0  0  0  0  0  0  0  0  0  0
   11.9844   -3.4794    7.0345 N   0  0  0  0  0  0  0  0  0  0  0  0
   11.3189   -1.4812    7.5344 N   0  0  1  0  0  0  0  0  0  0  0  0
  1  4  1  1  0  0  0
  1  8  1  0  0  0  0
  1  7  1  0  0  0  0
  2  5  1  1  0  0  0
  2  6  1  0  0  0  0
  2 10  1  0  0  0  0
  3  7  1  6  0  0  0
  3 10  1  0  0  0  0
  3  9  1  0  0  0  0
  6  9  1  0  0  0  0
 10  8  1  6  0  0  0
M  END
>  <CHROM.1>
11.51764227,-1.79357997,7.82074031,1.25775438,-1.14491195,1.01665340

>  <Name>
ligand

>  <RI>
0

>  <Rbt.Current_Directory>
/home/itssahil/PROJECTS/Mol_Feturizer/Test_systems_manuscript/rnas/2xnw

>  <Rbt.Executable>
rbdock ($Id: //depot/dev/client3/rdock/2013.1/src/exe/rbdock.cxx#4 $)

>  <Rbt.Library>
libRbt.so (2013.1, Build901 2013/11/27)

>  <Rbt.Parameter_File>
/export/apps/rDock/src/rDock_2013.1_src/data/scripts/dock_solv.prm

>  <Rbt.Receptor>
prm/blind_docking_100.prm

>  <SCORE>
-5.86944

>  <SCORE.INTER>
-5.86944

>  <SCORE.INTER.CONST>
1

>  <SCORE.INTER.POLAR>
0

>  <SCORE.INTER.ROT>
0

>  <SCORE.INTER.SOLV>
22.3182

>  <SCORE.INTER.VDW>
-14.9523

>  <SCORE.INTER.norm>
-0.586944

>  <SCORE.INTRA>
0

>  <SCORE.INTRA.DIHEDRAL>
0

>  <SCORE.INTRA.DIHEDRAL.0>
0

>  <SCORE.INTRA.POLAR>
0

>  <SCORE.INTRA.POLAR.0>
0

>  <SCORE.INTRA.REPUL>
0

>  <SCORE.INTRA.REPUL.0>
0

>  <SCORE.INTRA.SOLV>
0

>  <SCORE.INTRA.SOLV.lig_0>
-47.9788

>  <SCORE.INTRA.VDW>
0

>  <SCORE.INTRA.VDW.0>
0

>  <SCORE.INTRA.norm>
0

>  <SCORE.RESTR>
0

>  <SCORE.RESTR.CAVITY>
0

>  <SCORE.RESTR.norm>
0

>  <SCORE.SYSTEM>
0

>  <SCORE.SYSTEM.CONST>
0

>  <SCORE.SYSTEM.DIHEDRAL>
0

>  <SCORE.SYSTEM.SOLV>
0

>  <SCORE.SYSTEM.norm>
0

>  <SCORE.heavy>
10

>  <SCORE.norm>
-0.586944

>  <RMSD>
0.285

$$$$
ligand
 OpenBabel02271912133D
libRbt.so/2013.1/901 2013/11/27
 10 11  0  0  0  0  0  0  0  0999 V2000
   11.7058   -1.1614    9.5565 C   0  0  1  0  0  0  0  0  0  0  0  0
   11.1213   -1.7567    6.2461 C   0  0  2  0  0  0  0  0  0  0  0  0
   11.9234   -2.5758    8.0161 C   0  0  2  0  0  0  0  0  0  0  0  0
   11.7378   -0.5570   10.7496 N   0  0  0  0  0  0  0  0  0  0  0  0
   10.5315   -0.9564    5.3636 N   0  0  0  0  0  0  0  0  0  0  0  0
   11.5899   -2.9672    5.9672 N   0  0  0  0  0  0  0  0  0  0  0  0
   12.1739   -2.3805    9.3125 N   0  0  0  0  0  0  0  0  0  0  0  0
   11.1819   -0.6414    8.4313 N   0  0  0  0  0  0  0  0  0  0  0  0
   12.0668   -3.4469    7.0055 N   0  0  0  0  0  0  0  0  0  0  0  0
   11.3149   -1.4864    7.5318 N   0  0  1  0  0  0  0  0  0  0  0  0
  1  4  1  1  0  0  0
  1  8  1  0  0  0  0
  1  7  1  0  0  0  0
  2  5  1  1  0  0  0
  2  6  1  0  0  0  0
  2 10  1  0  0  0  0
  3  7  1  6  0  0  0
  3 10  1  0  0  0  0
  3  9  1  0  0  0  0
  6  9  1  0  0  0  0
 10  8  1  6  0  0  0
M  END
>  <CHROM.1>
11.53253509,-1.79125646,7.81258590,1.28449567,-1.09660611,1.04881152

>  <Name>
ligand

>  <RI>
0

>  <Rbt.Current_Directory>
/home/itssahil/PROJECTS/Mol_Feturizer/Test_systems_manuscript/rnas/2xnw

>  <Rbt.Executable>
rbdock ($Id: //depot/dev/client3/rdock/2013.1/src/exe/rbdock.cxx#4 $)

>  <Rbt.Library>
libRbt.so (2013.1, Build901 2013/11/27)

>  <Rbt.Parameter_File>
/export/apps/rDock/src/rDock_2013.1_src/data/scripts/dock_solv.prm

>  <Rbt.Receptor>
prm/pocket_docking_4.prm

>  <SCORE>
-5.89859

>  <SCORE.INTER>
-5.89859

>  <SCORE.INTER.CONST>
1

>  <SCORE.INTER.POLAR>
0

>  <SCORE.INTER.ROT>
0

>  <SCORE.INTER.SOLV>
22.0339

>  <SCORE.INTER.VDW>
-14.877

>  <SCORE.INTER.norm>
-0.589859

>  <SCORE.INTRA>
0

>  <SCORE.INTRA.DIHEDRAL>
0

>  <SCORE.INTRA.DIHEDRAL.0>
0

>  <SCORE.INTRA.POLAR>
0

>  <SCORE.INTRA.POLAR.0>
0

>  <SCORE.INTRA.REPUL>
0

>  <SCORE.INTRA.REPUL.0>
0

>  <SCORE.INTRA.SOLV>
0

>  <SCORE.INTRA.SOLV.lig_0>
-47.9788

>  <SCORE.INTRA.VDW>
0

>  <SCORE.INTRA.VDW.0>
0

>  <SCORE.INTRA.norm>
0

>  <SCORE.RESTR>
0

>  <SCORE.RESTR.CAVITY>
0

>  <SCORE.RESTR.norm>
0

>  <SCORE.SYSTEM>
0

>  <SCORE.SYSTEM.CONST>
0

>  <SCORE.SYSTEM.DIHEDRAL>
0

>  <SCORE.SYSTEM.SOLV>
0

>  <SCORE.SYSTEM.norm>
0

>  <SCORE.heavy>
10

>  <SCORE.norm>
-0.589859

>  <RMSD>
0.285

$$$$
ligand
 OpenBabel02271912133D
libRbt.so/2013.1/901 2013/11/27
 10 11  0  0  0  0  0  0  0  0999 V2000
   11.6965   -1.1453    9.5448 C   0  0  1  0  0  0  0  0  0  0  0  0
   11.1223   -1.7782    6.2396 C   0  0  2  0  0  0  0  0  0  0  0  0
   11.9044   -2.5831    8.0250 C   0  0  2  0  0  0  0  0  0  0  0  0
   11.7297   -0.5251   10.7299 N   0  0  0  0  0  0  0  0  0  0  0  0
   10.5474   -0.9826    5.3431 N   0  0  0  0  0  0  0  0  0  0  0  0
   11.5770   -2.9982    5.9797 N   0  0  0  0  0  0  0  0  0  0  0  0
   12.1504   -2.3733    9.3200 N   0  0  0  0  0  0  0  0  0  0  0  0
   11.1852   -0.6340    8.4098 N   0  0  0  0  0  0  0  0  0  0  0  0
   12.0422   -3.4696    7.0271 N   0  0  0  0  0  0  0  0  0  0  0  0
   11.3124   -1.4929    7.5226 N   0  0  1  0  0  0  0  0  0  0  0  0
  1  4  1  1  0  0  0
  1  8  1  0  0  0  0
  1  7  1  0  0  0  0
  2  5  1  1  0  0  0
  2  6  1  0  0  0  0
  2 10  1  0  0  0  0
  3  7  1  6  0  0  0
  3 10  1  0  0  0  0
  3  9  1  0  0  0  0
  6  9  1  0  0  0  0
 10  8  1  6  0  0  0
M  END
>  <CHROM.1>
11.52462039,-1.79655903,7.80869855,1.28081258,-1.11027111,1.03193555

>  <Name>
ligand

>  <RI>
0

>  <Rbt.Current_Directory>
/home/itssahil/PROJECTS/Mol_Feturizer/Test_systems_manuscript/rnas/2xnw

>  <Rbt.Executable>
rbdock ($Id: //depot/dev/client3/rdock/2013.1/src/exe/rbdock.cxx#4 $)

>  <Rbt.Library>
libRbt.so (2013.1, Build901 2013/11/27)

>  <Rbt.Parameter_File>
/export/apps/rDock/src/rDock_2013.1_src/data/scripts/dock_solv.prm

>  <Rbt.Receptor>
prm/pocket_docking_3.prm

>  <SCORE>
-5.89794

>  <SCORE.INTER>
-5.89794

>  <SCORE.INTER.CONST>
1

>  <SCORE.INTER.POLAR>
0

>  <SCORE.INTER.ROT>
0

>  <SCORE.INTER.SOLV>
22.1687

>  <SCORE.INTER.VDW>
-14.9215

>  <SCORE.INTER.norm>
-0.589794

>  <SCORE.INTRA>
0

>  <SCORE.INTRA.DIHEDRAL>
0

>  <SCORE.INTRA.DIHEDRAL.0>
0

>  <SCORE.INTRA.POLAR>
0

>  <SCORE.INTRA.POLAR.0>
0

>  <SCORE.INTRA.REPUL>
0

>  <SCORE.INTRA.REPUL.0>
0

>  <SCORE.INTRA.SOLV>
0

>  <SCORE.INTRA.SOLV.lig_0>
-47.9788

>  <SCORE.INTRA.VDW>
0

>  <SCORE.INTRA.VDW.0>
0

>  <SCORE.INTRA.norm>
0

>  <SCORE.RESTR>
0

>  <SCORE.RESTR.CAVITY>
0

>  <SCORE.RESTR.norm>
0

>  <SCORE.SYSTEM>
0

>  <SCORE.SYSTEM.CONST>
0

>  <SCORE.SYSTEM.DIHEDRAL>
0

>  <SCORE.SYSTEM.SOLV>
0

>  <SCORE.SYSTEM.norm>
0

>  <SCORE.heavy>
10

>  <SCORE.norm>
-0.589794

>  <RMSD>
0.288

$$$$
ligand
 OpenBabel02271912133D
libRbt.so/2013.1/901 2013/11/27
 10 11  0  0  0  0  0  0  0  0999 V2000
   11.7029   -1.1579    9.5535 C   0  0  1  0  0  0  0  0  0  0  0  0
   11.1168   -1.7586    6.2444 C   0  0  2  0  0  0  0  0  0  0  0  0
   11.9188   -2.5752    8.0156 C   0  0  2  0  0  0  0  0  0  0  0  0
   11.7357   -0.5515   10.7456 N   0  0  0  0  0  0  0  0  0  0  0  0
   10.5273   -0.9594    5.3607 N   0  0  0  0  0  0  0  0  0  0  0  0
   11.5844   -2.9700    5.9674 N   0  0  0  0  0  0  0  0  0  0  0  0
   12.1699   -2.3778    9.3115 N   0  0  0  0  0  0  0  0  0  0  0  0
   11.1789   -0.6395    8.4276 N   0  0  0  0  0  0  0  0  0  0  0  0
   12.0613   -3.4482    7.0064 N   0  0  0  0  0  0  0  0  0  0  0  0
   11.3111   -1.4862    7.5295 N   0  0  1  0  0  0  0  0  0  0  0  0
  1  4  1  1  0  0  0
  1  8  1  0  0  0  0
  1  7  1  0  0  0  0
  2  5  1  1  0  0  0
  2  6  1  0  0  0  0
  2 10  1  0  0  0  0
  3  7  1  6  0  0  0
  3 10  1  0  0  0  0
  3  9  1  0  0  0  0
  6  9  1  0  0  0  0
 10  8  1  6  0  0  0
M  END
>  <CHROM.1>
11.52852904,-1.79071876,7.81078127,1.28303460,-1.09709161,1.04575387

>  <Name>
ligand

>  <RI>
0

>  <Rbt.Current_Directory>
/home/itssahil/PROJECTS/Mol_Feturizer/Test_systems_manuscript/rnas/2xnw

>  <Rbt.Executable>
rbdock ($Id: //depot/dev/client3/rdock/2013.1/src/exe/rbdock.cxx#4 $)

>  <Rbt.Library>
libRbt.so (2013.1, Build901 2013/11/27)

>  <Rbt.Parameter_File>
/export/apps/rDock/src/rDock_2013.1_src/data/scripts/dock_solv.prm

>  <Rbt.Receptor>
prm/pocket_docking_3.prm

>  <SCORE>
-5.89252

>  <SCORE.INTER>
-5.89252

>  <SCORE.INTER.CONST>
1

>  <SCORE.INTER.POLAR>
0

>  <SCORE.INTER.ROT>
0

>  <SCORE.INTER.SOLV>
22.0379

>  <SCORE.INTER.VDW>
-14.8743

>  <SCORE.INTER.norm>
-0.589252

>  <SCORE.INTRA>
0

>  <SCORE.INTRA.DIHEDRAL>
0

>  <SCORE.INTRA.DIHEDRAL.0>
0

>  <SCORE.INTRA.POLAR>
0

>  <SCORE.INTRA.POLAR.0>
0

>  <SCORE.INTRA.REPUL>
0

>  <SCORE.INTRA.REPUL.0>
0

>  <SCORE.INTRA.SOLV>
0

>  <SCORE.INTRA.SOLV.lig_0>
-47.9788

>  <SCORE.INTRA.VDW>
0

>  <SCORE.INTRA.VDW.0>
0

>  <SCORE.INTRA.norm>
0

>  <SCORE.RESTR>
0

>  <SCORE.RESTR.CAVITY>
0

>  <SCORE.RESTR.norm>
0

>  <SCORE.SYSTEM>
0

>  <SCORE.SYSTEM.CONST>
0

>  <SCORE.SYSTEM.DIHEDRAL>
0

>  <SCORE.SYSTEM.SOLV>
0

>  <SCORE.SYSTEM.norm>
0

>  <SCORE.heavy>
10

>  <SCORE.norm>
-0.589252

>  <RMSD>
0.288

$$$$
ligand
 OpenBabel02271912133D
libRbt.so/2013.1/901 2013/11/27
 10 11  0  0  0  0  0  0  0  0999 V2000
   11.6973   -1.1582    9.5582 C   0  0  1  0  0  0  0  0  0  0  0  0
   11.1164   -1.7577    6.2480 C   0  0  2  0  0  0  0  0  0  0  0  0
   11.8880   -2.5863    8.0271 C   0  0  2  0  0  0  0  0  0  0  0  0
   11.7377   -0.5479   10.7482 N   0  0  0  0  0  0  0  0  0  0  0  0
   10.5515   -0.9481    5.3577 N   0  0  0  0  0  0  0  0  0  0  0  0
   11.5562   -2.9811    5.9785 N   0  0  0  0  0  0  0  0  0  0  0  0
   12.1362   -2.3898    9.3238 N   0  0  0  0  0  0  0  0  0  0  0  0
   11.1926   -0.6317    8.4272 N   0  0  0  0  0  0  0  0  0  0  0  0
   12.0153   -3.4665    7.0222 N   0  0  0  0  0  0  0  0  0  0  0  0
   11.3096   -1.4850    7.5333 N   0  0  1  0  0  0  0  0  0  0  0  0
  1  4  1  1  0  0  0
  1  8  1  0  0  0  0
  1  7  1  0  0  0  0
  2  5  1  1  0  0  0
  2  6  1  0  0  0  0
  2 10  1  0  0  0  0
  3  7  1  6  0  0  0
  3 10  1  0  0  0  0
  3  9  1  0  0  0  0
  6  9  1  0  0  0  0
 10  8  1  6  0  0  0
M  END
>  <CHROM.1>
11.51797462,-1.79350762,7.81697756,1.26697409,-1.12085305,1.02744740

>  <Name>
ligand

>  <RI>
0

>  <Rbt.Current_Directory>
/home/itssahil/PROJECTS/Mol_Feturizer/Test_systems_manuscript/rnas/2xnw

>  <Rbt.Executable>
rbdock ($Id: //depot/dev/client3/rdock/2013.1/src/exe/rbdock.cxx#4 $)

>  <Rbt.Library>
libRbt.so (2013.1, Build901 2013/11/27)

>  <Rbt.Parameter_File>
/export/apps/rDock/src/rDock_2013.1_src/data/scripts/dock_solv.prm

>  <Rbt.Receptor>
prm/pocket_docking_3.prm

>  <SCORE>
-5.86665

>  <SCORE.INTER>
-5.86665

>  <SCORE.INTER.CONST>
1

>  <SCORE.INTER.POLAR>
0

>  <SCORE.INTER.ROT>
0

>  <SCORE.INTER.SOLV>
22.1384

>  <SCORE.INTER.VDW>
-14.8906

>  <SCORE.INTER.norm>
-0.586665

>  <SCORE.INTRA>
0

>  <SCORE.INTRA.DIHEDRAL>
0

>  <SCORE.INTRA.DIHEDRAL.0>
0

>  <SCORE.INTRA.POLAR>
0

>  <SCORE.INTRA.POLAR.0>
0

>  <SCORE.INTRA.REPUL>
0

>  <SCORE.INTRA.REPUL.0>
0

>  <SCORE.INTRA.SOLV>
0

>  <SCORE.INTRA.SOLV.lig_0>
-47.9788

>  <SCORE.INTRA.VDW>
0

>  <SCORE.INTRA.VDW.0>
0

>  <SCORE.INTRA.norm>
0

>  <SCORE.RESTR>
0

>  <SCORE.RESTR.CAVITY>
0

>  <SCORE.RESTR.norm>
0

>  <SCORE.SYSTEM>
0

>  <SCORE.SYSTEM.CONST>
0

>  <SCORE.SYSTEM.DIHEDRAL>
0

>  <SCORE.SYSTEM.SOLV>
0

>  <SCORE.SYSTEM.norm>
0

>  <SCORE.heavy>
10

>  <SCORE.norm>
-0.586665

>  <RMSD>
0.289

$$$$
ligand
 OpenBabel02271912133D
libRbt.so/2013.1/901 2013/11/27
 10 11  0  0  0  0  0  0  0  0999 V2000
   11.7320   -1.1513    9.5493 C   0  0  1  0  0  0  0  0  0  0  0  0
   11.1106   -1.7616    6.2484 C   0  0  2  0  0  0  0  0  0  0  0  0
   11.9058   -2.5837    8.0201 C   0  0  2  0  0  0  0  0  0  0  0  0
   11.7863   -0.5375   10.7368 N   0  0  0  0  0  0  0  0  0  0  0  0
   10.5334   -0.9555    5.3628 N   0  0  0  0  0  0  0  0  0  0  0  0
   11.5490   -2.9851    5.9770 N   0  0  0  0  0  0  0  0  0  0  0  0
   12.1699   -2.3830    9.3129 N   0  0  0  0  0  0  0  0  0  0  0  0
   11.2123   -0.6290    8.4231 N   0  0  0  0  0  0  0  0  0  0  0  0
   12.0219   -3.4667    7.0163 N   0  0  0  0  0  0  0  0  0  0  0  0
   11.3195   -1.4847    7.5303 N   0  0  1  0  0  0  0  0  0  0  0  0
  1  4  1  1  0  0  0
  1  8  1  0  0  0  0
  1  7  1  0  0  0  0
  2  5  1  1  0  0  0
  2  6  1  0  0  0  0
  2 10  1  0  0  0  0
  3  7  1  6  0  0  0
  3 10  1  0  0  0  0
  3  9  1  0  0  0  0
  6  9  1  0  0  0  0
 10  8  1  6  0  0  0
M  END
>  <CHROM.1>
11.53188990,-1.79208604,7.81226294,1.24457121,-1.11292147,1.00436419

>  <Name>
ligand

>  <RI>
0

>  <Rbt.Current_Directory>
/home/itssahil/PROJECTS/Mol_Feturizer/Test_systems_manuscript/rnas/2xnw

>  <Rbt.Executable>
rbdock ($Id: //depot/dev/client3/rdock/2013.1/src/exe/rbdock.cxx#4 $)

>  <Rbt.Library>
libRbt.so (2013.1, Build901 2013/11/27)

>  <Rbt.Parameter_File>
/export/apps/rDock/src/rDock_2013.1_src/data/scripts/dock_solv.prm

>  <Rbt.Receptor>
prm/pocket_docking_3.prm

>  <SCORE>
-5.91442

>  <SCORE.INTER>
-5.91442

>  <SCORE.INTER.CONST>
1

>  <SCORE.INTER.POLAR>
0

>  <SCORE.INTER.ROT>
0

>  <SCORE.INTER.SOLV>
22.0381

>  <SCORE.INTER.VDW>
-14.889

>  <SCORE.INTER.norm>
-0.591442

>  <SCORE.INTRA>
0

>  <SCORE.INTRA.DIHEDRAL>
0

>  <SCORE.INTRA.DIHEDRAL.0>
0

>  <SCORE.INTRA.POLAR>
0

>  <SCORE.INTRA.POLAR.0>
0

>  <SCORE.INTRA.REPUL>
0

>  <SCORE.INTRA.REPUL.0>
0

>  <SCORE.INTRA.SOLV>
0

>  <SCORE.INTRA.SOLV.lig_0>
-47.9788

>  <SCORE.INTRA.VDW>
0

>  <SCORE.INTRA.VDW.0>
0

>  <SCORE.INTRA.norm>
0

>  <SCORE.RESTR>
0

>  <SCORE.RESTR.CAVITY>
0

>  <SCORE.RESTR.norm>
0

>  <SCORE.SYSTEM>
0

>  <SCORE.SYSTEM.CONST>
0

>  <SCORE.SYSTEM.DIHEDRAL>
0

>  <SCORE.SYSTEM.SOLV>
0

>  <SCORE.SYSTEM.norm>
0

>  <SCORE.heavy>
10

>  <SCORE.norm>
-0.591442

>  <RMSD>
0.289

$$$$
ligand
 OpenBabel02271912133D
libRbt.so/2013.1/901 2013/11/27
 10 11  0  0  0  0  0  0  0  0999 V2000
   11.6967   -1.1887    9.5480 C   0  0  1  0  0  0  0  0  0  0  0  0
   11.1261   -1.7645    6.2318 C   0  0  2  0  0  0  0  0  0  0  0  0
   11.9328   -2.5887    7.9973 C   0  0  2  0  0  0  0  0  0  0  0  0
   11.7196   -0.5932   10.7458 N   0  0  0  0  0  0  0  0  0  0  0  0
   10.5298   -0.9637    5.3540 N   0  0  0  0  0  0  0  0  0  0  0  0
   11.6082   -2.9678    5.9446 N   0  0  0  0  0  0  0  0  0  0  0  0
   12.1783   -2.4007    9.2957 N   0  0  0  0  0  0  0  0  0  0  0  0
   11.1698   -0.6656    8.4256 N   0  0  0  0  0  0  0  0  0  0  0  0
   12.0878   -3.4504    6.9803 N   0  0  0  0  0  0  0  0  0  0  0  0
   11.3139   -1.5022    7.5199 N   0  0  1  0  0  0  0  0  0  0  0  0
  1  4  1  1  0  0  0
  1  8  1  0  0  0  0
  1  7  1  0  0  0  0
  2  5  1  1  0  0  0
  2  6  1  0  0  0  0
  2 10  1  0  0  0  0
  3  7  1  6  0  0  0
  3 10  1  0  0  0  0
  3  9  1  0  0  0  0
  6  9  1  0  0  0  0
 10  8  1  6  0  0  0
M  END
>  <CHROM.1>
11.53411861,-1.80682326,7.79888840,1.30019894,-1.08845547,1.07046957

>  <Name>
ligand

>  <RI>
0

>  <Rbt.Current_Directory>
/home/itssahil/PROJECTS/Mol_Feturizer/Test_systems_manuscript/rnas/2xnw

>  <Rbt.Executable>
rbdock ($Id: //depot/dev/client3/rdock/2013.1/src/exe/rbdock.cxx#4 $)

>  <Rbt.Library>
libRbt.so (2013.1, Build901 2013/11/27)

>  <Rbt.Parameter_File>
/export/apps/rDock/src/rDock_2013.1_src/data/scripts/dock_solv.prm

>  <Rbt.Receptor>
prm/blind_docking_60.prm

>  <SCORE>
-5.81111

>  <SCORE.INTER>
-5.81111

>  <SCORE.INTER.CONST>
1

>  <SCORE.INTER.POLAR>
0

>  <SCORE.INTER.ROT>
0

>  <SCORE.INTER.SOLV>
22.0302

>  <SCORE.INTER.VDW>
-14.8175

>  <SCORE.INTER.norm>
-0.581111

>  <SCORE.INTRA>
0

>  <SCORE.INTRA.DIHEDRAL>
0

>  <SCORE.INTRA.DIHEDRAL.0>
0

>  <SCORE.INTRA.POLAR>
0

>  <SCORE.INTRA.POLAR.0>
0

>  <SCORE.INTRA.REPUL>
0

>  <SCORE.INTRA.REPUL.0>
0

>  <SCORE.INTRA.SOLV>
0

>  <SCORE.INTRA.SOLV.lig_0>
-47.9788

>  <SCORE.INTRA.VDW>
0

>  <SCORE.INTRA.VDW.0>
0

>  <SCORE.INTRA.norm>
0

>  <SCORE.RESTR>
0

>  <SCORE.RESTR.CAVITY>
0

>  <SCORE.RESTR.norm>
0

>  <SCORE.SYSTEM>
0

>  <SCORE.SYSTEM.CONST>
0

>  <SCORE.SYSTEM.DIHEDRAL>
0

>  <SCORE.SYSTEM.SOLV>
0

>  <SCORE.SYSTEM.norm>
0

>  <SCORE.heavy>
10

>  <SCORE.norm>
-0.581111

>  <RMSD>
0.291

$$$$
ligand
 OpenBabel02271912133D
libRbt.so/2013.1/901 2013/11/27
 10 11  0  0  0  0  0  0  0  0999 V2000
   11.7262   -1.1542    9.5488 C   0  0  1  0  0  0  0  0  0  0  0  0
   11.1077   -1.7620    6.2470 C   0  0  2  0  0  0  0  0  0  0  0  0
   11.9025   -2.5850    8.0185 C   0  0  2  0  0  0  0  0  0  0  0  0
   11.7792   -0.5414   10.7370 N   0  0  0  0  0  0  0  0  0  0  0  0
   10.5303   -0.9556    5.3618 N   0  0  0  0  0  0  0  0  0  0  0  0
   11.5474   -2.9848    5.9747 N   0  0  0  0  0  0  0  0  0  0  0  0
   12.1654   -2.3852    9.3117 N   0  0  0  0  0  0  0  0  0  0  0  0
   11.2069   -0.6313    8.4228 N   0  0  0  0  0  0  0  0  0  0  0  0
   12.0201   -3.4669    7.0139 N   0  0  0  0  0  0  0  0  0  0  0  0
   11.3154   -1.4861    7.5293 N   0  0  1  0  0  0  0  0  0  0  0  0
  1  4  1  1  0  0  0
  1  8  1  0  0  0  0
  1  7  1  0  0  0  0
  2  5  1  1  0  0  0
  2  6  1  0  0  0  0
  2 10  1  0  0  0  0
  3  7  1  6  0  0  0
  3 10  1  0  0  0  0
  3  9  1  0  0  0  0
  6  9  1  0  0  0  0
 10  8  1  6  0  0  0
M  END
>  <CHROM.1>
11.52793958,-1.79351445,7.81111569,1.24705655,-1.11249900,1.00751472

>  <Name>
ligand

>  <RI>
0

>  <Rbt.Current_Directory>
/home/itssahil/PROJECTS/Mol_Feturizer/Test_systems_manuscript/rnas/2xnw

>  <Rbt.Executable>
rbdock ($Id: //depot/dev/client3/rdock/2013.1/src/exe/rbdock.cxx#4 $)

>  <Rbt.Library>
libRbt.so (2013.1, Build901 2013/11/27)

>  <Rbt.Parameter_File>
/export/apps/rDock/src/rDock_2013.1_src/data/scripts/dock_solv.prm

>  <Rbt.Receptor>
prm/blind_docking_20.prm

>  <SCORE>
-5.91396

>  <SCORE.INTER>
-5.91396

>  <SCORE.INTER.CONST>
1

>  <SCORE.INTER.POLAR>
0

>  <SCORE.INTER.ROT>
0

>  <SCORE.INTER.SOLV>
22.0305

>  <SCORE.INTER.VDW>
-14.8861

>  <SCORE.INTER.norm>
-0.591396

>  <SCORE.INTRA>
0

>  <SCORE.INTRA.DIHEDRAL>
0

>  <SCORE.INTRA.DIHEDRAL.0>
0

>  <SCORE.INTRA.POLAR>
0

>  <SCORE.INTRA.POLAR.0>
0

>  <SCORE.INTRA.REPUL>
0

>  <SCORE.INTRA.REPUL.0>
0

>  <SCORE.INTRA.SOLV>
0

>  <SCORE.INTRA.SOLV.lig_0>
-47.9788

>  <SCORE.INTRA.VDW>
0

>  <SCORE.INTRA.VDW.0>
0

>  <SCORE.INTRA.norm>
0

>  <SCORE.RESTR>
0

>  <SCORE.RESTR.CAVITY>
0

>  <SCORE.RESTR.norm>
0

>  <SCORE.SYSTEM>
0

>  <SCORE.SYSTEM.CONST>
0

>  <SCORE.SYSTEM.DIHEDRAL>
0

>  <SCORE.SYSTEM.SOLV>
0

>  <SCORE.SYSTEM.norm>
0

>  <SCORE.heavy>
10

>  <SCORE.norm>
-0.591396

>  <RMSD>
0.292

$$$$
ligand
 OpenBabel02271912133D
libRbt.so/2013.1/901 2013/11/27
 10 11  0  0  0  0  0  0  0  0999 V2000
   11.6903   -1.1575    9.5631 C   0  0  1  0  0  0  0  0  0  0  0  0
   11.1148   -1.7577    6.2520 C   0  0  2  0  0  0  0  0  0  0  0  0
   11.8622   -2.5942    8.0377 C   0  0  2  0  0  0  0  0  0  0  0  0
   11.7362   -0.5441   10.7512 N   0  0  0  0  0  0  0  0  0  0  0  0
   10.5694   -0.9408    5.3562 N   0  0  0  0  0  0  0  0  0  0  0  0
   11.5332   -2.9899    5.9888 N   0  0  0  0  0  0  0  0  0  0  0  0
   12.1075   -2.3979    9.3349 N   0  0  0  0  0  0  0  0  0  0  0  0
   11.2011   -0.6258    8.4278 N   0  0  0  0  0  0  0  0  0  0  0  0
   11.9781   -3.4801    7.0364 N   0  0  0  0  0  0  0  0  0  0  0  0
   11.3067   -1.4841    7.5373 N   0  0  1  0  0  0  0  0  0  0  0  0
  1  4  1  1  0  0  0
  1  8  1  0  0  0  0
  1  7  1  0  0  0  0
  2  5  1  1  0  0  0
  2  6  1  0  0  0  0
  2 10  1  0  0  0  0
  3  7  1  6  0  0  0
  3 10  1  0  0  0  0
  3  9  1  0  0  0  0
  6  9  1  0  0  0  0
 10  8  1  6  0  0  0
M  END
>  <CHROM.1>
11.50791480,-1.79545283,7.82307744,1.25419440,-1.13922226,1.01249262

>  <Name>
ligand

>  <RI>
0

>  <Rbt.Current_Directory>
/home/itssahil/PROJECTS/Mol_Feturizer/Test_systems_manuscript/rnas/2xnw

>  <Rbt.Executable>
rbdock ($Id: //depot/dev/client3/rdock/2013.1/src/exe/rbdock.cxx#4 $)

>  <Rbt.Library>
libRbt.so (2013.1, Build901 2013/11/27)

>  <Rbt.Parameter_File>
/export/apps/rDock/src/rDock_2013.1_src/data/scripts/dock_solv.prm

>  <Rbt.Receptor>
prm/blind_docking_80.prm

>  <SCORE>
-5.86415

>  <SCORE.INTER>
-5.86415

>  <SCORE.INTER.CONST>
1

>  <SCORE.INTER.POLAR>
0

>  <SCORE.INTER.ROT>
0

>  <SCORE.INTER.SOLV>
22.2246

>  <SCORE.INTER.VDW>
-14.9176

>  <SCORE.INTER.norm>
-0.586415

>  <SCORE.INTRA>
0

>  <SCORE.INTRA.DIHEDRAL>
0

>  <SCORE.INTRA.DIHEDRAL.0>
0

>  <SCORE.INTRA.POLAR>
0

>  <SCORE.INTRA.POLAR.0>
0

>  <SCORE.INTRA.REPUL>
0

>  <SCORE.INTRA.REPUL.0>
0

>  <SCORE.INTRA.SOLV>
0

>  <SCORE.INTRA.SOLV.lig_0>
-47.9788

>  <SCORE.INTRA.VDW>
0

>  <SCORE.INTRA.VDW.0>
0

>  <SCORE.INTRA.norm>
0

>  <SCORE.RESTR>
0

>  <SCORE.RESTR.CAVITY>
0

>  <SCORE.RESTR.norm>
0

>  <SCORE.SYSTEM>
0

>  <SCORE.SYSTEM.CONST>
0

>  <SCORE.SYSTEM.DIHEDRAL>
0

>  <SCORE.SYSTEM.SOLV>
0

>  <SCORE.SYSTEM.norm>
0

>  <SCORE.heavy>
10

>  <SCORE.norm>
-0.586415

>  <RMSD>
0.292

$$$$
ligand
 OpenBabel02271912133D
libRbt.so/2013.1/901 2013/11/27
 10 11  0  0  0  0  0  0  0  0999 V2000
   11.7458   -1.1446    9.5419 C   0  0  1  0  0  0  0  0  0  0  0  0
   11.1062   -1.7628    6.2460 C   0  0  2  0  0  0  0  0  0  0  0  0
   11.9037   -2.5836    8.0173 C   0  0  2  0  0  0  0  0  0  0  0  0
   11.8093   -0.5268   10.7269 N   0  0  0  0  0  0  0  0  0  0  0  0
   10.5304   -0.9562    5.3599 N   0  0  0  0  0  0  0  0  0  0  0  0
   11.5354   -2.9901    5.9772 N   0  0  0  0  0  0  0  0  0  0  0  0
   12.1746   -2.3799    9.3082 N   0  0  0  0  0  0  0  0  0  0  0  0
   11.2247   -0.6230    8.4160 N   0  0  0  0  0  0  0  0  0  0  0  0
   12.0097   -3.4710    7.0162 N   0  0  0  0  0  0  0  0  0  0  0  0
   11.3224   -1.4827    7.5259 N   0  0  1  0  0  0  0  0  0  0  0  0
  1  4  1  1  0  0  0
  1  8  1  0  0  0  0
  1  7  1  0  0  0  0
  2  5  1  1  0  0  0
  2  6  1  0  0  0  0
  2 10  1  0  0  0  0
  3  7  1  6  0  0  0
  3 10  1  0  0  0  0
  3  9  1  0  0  0  0
  6  9  1  0  0  0  0
 10  8  1  6  0  0  0
M  END
>  <CHROM.1>
11.53404262,-1.79036621,7.80813663,1.22831249,-1.11605466,0.98609415

>  <Name>
ligand

>  <RI>
0

>  <Rbt.Current_Directory>
/home/itssahil/PROJECTS/Mol_Feturizer/Test_systems_manuscript/rnas/2xnw

>  <Rbt.Executable>
rbdock ($Id: //depot/dev/client3/rdock/2013.1/src/exe/rbdock.cxx#4 $)

>  <Rbt.Library>
libRbt.so (2013.1, Build901 2013/11/27)

>  <Rbt.Parameter_File>
/export/apps/rDock/src/rDock_2013.1_src/data/scripts/dock_solv.prm

>  <Rbt.Receptor>
prm/pocket_docking_7.prm

>  <SCORE>
-5.90507

>  <SCORE.INTER>
-5.90507

>  <SCORE.INTER.CONST>
1

>  <SCORE.INTER.POLAR>
0

>  <SCORE.INTER.ROT>
0

>  <SCORE.INTER.SOLV>
22.0536

>  <SCORE.INTER.VDW>
-14.8879

>  <SCORE.INTER.norm>
-0.590507

>  <SCORE.INTRA>
0

>  <SCORE.INTRA.DIHEDRAL>
0

>  <SCORE.INTRA.DIHEDRAL.0>
0

>  <SCORE.INTRA.POLAR>
0

>  <SCORE.INTRA.POLAR.0>
0

>  <SCORE.INTRA.REPUL>
0

>  <SCORE.INTRA.REPUL.0>
0

>  <SCORE.INTRA.SOLV>
0

>  <SCORE.INTRA.SOLV.lig_0>
-47.9788

>  <SCORE.INTRA.VDW>
0

>  <SCORE.INTRA.VDW.0>
0

>  <SCORE.INTRA.norm>
0

>  <SCORE.RESTR>
0

>  <SCORE.RESTR.CAVITY>
0

>  <SCORE.RESTR.norm>
0

>  <SCORE.SYSTEM>
0

>  <SCORE.SYSTEM.CONST>
0

>  <SCORE.SYSTEM.DIHEDRAL>
0

>  <SCORE.SYSTEM.SOLV>
0

>  <SCORE.SYSTEM.norm>
0

>  <SCORE.heavy>
10

>  <SCORE.norm>
-0.590507

>  <RMSD>
0.293

$$$$
ligand
 OpenBabel02271912133D
libRbt.so/2013.1/901 2013/11/27
 10 11  0  0  0  0  0  0  0  0999 V2000
   11.7418   -1.1542    9.5513 C   0  0  1  0  0  0  0  0  0  0  0  0
   11.1003   -1.7458    6.2509 C   0  0  2  0  0  0  0  0  0  0  0  0
   11.9152   -2.5743    8.0107 C   0  0  2  0  0  0  0  0  0  0  0  0
   11.8004   -0.5484   10.7428 N   0  0  0  0  0  0  0  0  0  0  0  0
   10.5103   -0.9379    5.3755 N   0  0  0  0  0  0  0  0  0  0  0  0
   11.5461   -2.9639    5.9675 N   0  0  0  0  0  0  0  0  0  0  0  0
   12.1874   -2.3807    9.3029 N   0  0  0  0  0  0  0  0  0  0  0  0
   11.2097   -0.6280    8.4329 N   0  0  0  0  0  0  0  0  0  0  0  0
   12.0305   -3.4492    6.9997 N   0  0  0  0  0  0  0  0  0  0  0  0
   11.3167   -1.4764    7.5331 N   0  0  1  0  0  0  0  0  0  0  0  0
  1  4  1  1  0  0  0
  1  8  1  0  0  0  0
  1  7  1  0  0  0  0
  2  5  1  1  0  0  0
  2  6  1  0  0  0  0
  2 10  1  0  0  0  0
  3  7  1  6  0  0  0
  3 10  1  0  0  0  0
  3  9  1  0  0  0  0
  6  9  1  0  0  0  0
 10  8  1  6  0  0  0
M  END
>  <CHROM.1>
11.53358614,-1.78412864,7.81133476,1.23966951,-1.10238808,1.00711495

>  <Name>
ligand

>  <RI>
0

>  <Rbt.Current_Directory>
/home/itssahil/PROJECTS/Mol_Feturizer/Test_systems_manuscript/rnas/2xnw

>  <Rbt.Executable>
rbdock ($Id: //depot/dev/client3/rdock/2013.1/src/exe/rbdock.cxx#4 $)

>  <Rbt.Library>
libRbt.so (2013.1, Build901 2013/11/27)

>  <Rbt.Parameter_File>
/export/apps/rDock/src/rDock_2013.1_src/data/scripts/dock_solv.prm

>  <Rbt.Receptor>
prm/pocket_docking_3.prm

>  <SCORE>
-5.86532

>  <SCORE.INTER>
-5.86532

>  <SCORE.INTER.CONST>
1

>  <SCORE.INTER.POLAR>
0

>  <SCORE.INTER.ROT>
0

>  <SCORE.INTER.SOLV>
21.9292

>  <SCORE.INTER.VDW>
-14.8199

>  <SCORE.INTER.norm>
-0.586532

>  <SCORE.INTRA>
0

>  <SCORE.INTRA.DIHEDRAL>
0

>  <SCORE.INTRA.DIHEDRAL.0>
0

>  <SCORE.INTRA.POLAR>
0

>  <SCORE.INTRA.POLAR.0>
0

>  <SCORE.INTRA.REPUL>
0

>  <SCORE.INTRA.REPUL.0>
0

>  <SCORE.INTRA.SOLV>
0

>  <SCORE.INTRA.SOLV.lig_0>
-47.9788

>  <SCORE.INTRA.VDW>
0

>  <SCORE.INTRA.VDW.0>
0

>  <SCORE.INTRA.norm>
0

>  <SCORE.RESTR>
0

>  <SCORE.RESTR.CAVITY>
0

>  <SCORE.RESTR.norm>
0

>  <SCORE.SYSTEM>
0

>  <SCORE.SYSTEM.CONST>
0

>  <SCORE.SYSTEM.DIHEDRAL>
0

>  <SCORE.SYSTEM.SOLV>
0

>  <SCORE.SYSTEM.norm>
0

>  <SCORE.heavy>
10

>  <SCORE.norm>
-0.586532

>  <RMSD>
0.294

$$$$
ligand
 OpenBabel02271912133D
libRbt.so/2013.1/901 2013/11/27
 10 11  0  0  0  0  0  0  0  0999 V2000
   11.7460   -1.1564    9.5502 C   0  0  1  0  0  0  0  0  0  0  0  0
   11.1108   -1.7331    6.2459 C   0  0  2  0  0  0  0  0  0  0  0  0
   11.8949   -2.5805    8.0106 C   0  0  2  0  0  0  0  0  0  0  0  0
   11.8118   -0.5520   10.7420 N   0  0  0  0  0  0  0  0  0  0  0  0
   10.5455   -0.9115    5.3669 N   0  0  0  0  0  0  0  0  0  0  0  0
   11.5291   -2.9615    5.9652 N   0  0  0  0  0  0  0  0  0  0  0  0
   12.1637   -2.3933    9.3045 N   0  0  0  0  0  0  0  0  0  0  0  0
   11.2335   -0.6178    8.4284 N   0  0  0  0  0  0  0  0  0  0  0  0
   11.9954   -3.4581    7.0004 N   0  0  0  0  0  0  0  0  0  0  0  0
   11.3257   -1.4688    7.5294 N   0  0  1  0  0  0  0  0  0  0  0  0
  1  4  1  1  0  0  0
  1  8  1  0  0  0  0
  1  7  1  0  0  0  0
  2  5  1  1  0  0  0
  2  6  1  0  0  0  0
  2 10  1  0  0  0  0
  3  7  1  6  0  0  0
  3 10  1  0  0  0  0
  3  9  1  0  0  0  0
  6  9  1  0  0  0  0
 10  8  1  6  0  0  0
M  END
>  <CHROM.1>
11.53348455,-1.78151115,7.80893994,1.22204621,-1.12576996,0.99120755

>  <Name>
ligand

>  <RI>
0

>  <Rbt.Current_Directory>
/home/itssahil/PROJECTS/Mol_Feturizer/Test_systems_manuscript/rnas/2xnw

>  <Rbt.Executable>
rbdock ($Id: //depot/dev/client3/rdock/2013.1/src/exe/rbdock.cxx#4 $)

>  <Rbt.Library>
libRbt.so (2013.1, Build901 2013/11/27)

>  <Rbt.Parameter_File>
/export/apps/rDock/src/rDock_2013.1_src/data/scripts/dock_solv.prm

>  <Rbt.Receptor>
prm/blind_docking_60.prm

>  <SCORE>
-5.87607

>  <SCORE.INTER>
-5.87607

>  <SCORE.INTER.CONST>
1

>  <SCORE.INTER.POLAR>
0

>  <SCORE.INTER.ROT>
0

>  <SCORE.INTER.SOLV>
22.078

>  <SCORE.INTER.VDW>
-14.8767

>  <SCORE.INTER.norm>
-0.587607

>  <SCORE.INTRA>
0

>  <SCORE.INTRA.DIHEDRAL>
0

>  <SCORE.INTRA.DIHEDRAL.0>
0

>  <SCORE.INTRA.POLAR>
0

>  <SCORE.INTRA.POLAR.0>
0

>  <SCORE.INTRA.REPUL>
0

>  <SCORE.INTRA.REPUL.0>
0

>  <SCORE.INTRA.SOLV>
0

>  <SCORE.INTRA.SOLV.lig_0>
-47.9788

>  <SCORE.INTRA.VDW>
0

>  <SCORE.INTRA.VDW.0>
0

>  <SCORE.INTRA.norm>
0

>  <SCORE.RESTR>
0

>  <SCORE.RESTR.CAVITY>
0

>  <SCORE.RESTR.norm>
0

>  <SCORE.SYSTEM>
0

>  <SCORE.SYSTEM.CONST>
0

>  <SCORE.SYSTEM.DIHEDRAL>
0

>  <SCORE.SYSTEM.SOLV>
0

>  <SCORE.SYSTEM.norm>
0

>  <SCORE.heavy>
10

>  <SCORE.norm>
-0.587607

>  <RMSD>
0.295

$$$$
ligand
 OpenBabel02271912133D
libRbt.so/2013.1/901 2013/11/27
 10 11  0  0  0  0  0  0  0  0999 V2000
   11.7304   -1.1569    9.5521 C   0  0  1  0  0  0  0  0  0  0  0  0
   11.0967   -1.7520    6.2508 C   0  0  2  0  0  0  0  0  0  0  0  0
   11.8997   -2.5818    8.0154 C   0  0  2  0  0  0  0  0  0  0  0  0
   11.7888   -0.5488   10.7424 N   0  0  0  0  0  0  0  0  0  0  0  0
   10.5152   -0.9423    5.3714 N   0  0  0  0  0  0  0  0  0  0  0  0
   11.5353   -2.9737    5.9718 N   0  0  0  0  0  0  0  0  0  0  0  0
   12.1686   -2.3870    9.3082 N   0  0  0  0  0  0  0  0  0  0  0  0
   11.2058   -0.6298    8.4305 N   0  0  0  0  0  0  0  0  0  0  0  0
   12.0128   -3.4598    7.0069 N   0  0  0  0  0  0  0  0  0  0  0  0
   11.3103   -1.4811    7.5332 N   0  0  1  0  0  0  0  0  0  0  0  0
  1  4  1  1  0  0  0
  1  8  1  0  0  0  0
  1  7  1  0  0  0  0
  2  5  1  1  0  0  0
  2  6  1  0  0  0  0
  2 10  1  0  0  0  0
  3  7  1  6  0  0  0
  3 10  1  0  0  0  0
  3  9  1  0  0  0  0
  6  9  1  0  0  0  0
 10  8  1  6  0  0  0
M  END
>  <CHROM.1>
11.52415313,-1.78957293,7.81284775,1.23838655,-1.10995049,1.00361965

>  <Name>
ligand

>  <RI>
0

>  <Rbt.Current_Directory>
/home/itssahil/PROJECTS/Mol_Feturizer/Test_systems_manuscript/rnas/2xnw

>  <Rbt.Executable>
rbdock ($Id: //depot/dev/client3/rdock/2013.1/src/exe/rbdock.cxx#4 $)

>  <Rbt.Library>
libRbt.so (2013.1, Build901 2013/11/27)

>  <Rbt.Parameter_File>
/export/apps/rDock/src/rDock_2013.1_src/data/scripts/dock_solv.prm

>  <Rbt.Receptor>
prm/blind_docking_40.prm

>  <SCORE>
-5.89736

>  <SCORE.INTER>
-5.89736

>  <SCORE.INTER.CONST>
1

>  <SCORE.INTER.POLAR>
0

>  <SCORE.INTER.ROT>
0

>  <SCORE.INTER.SOLV>
21.9588

>  <SCORE.INTER.VDW>
-14.8512

>  <SCORE.INTER.norm>
-0.589736

>  <SCORE.INTRA>
0

>  <SCORE.INTRA.DIHEDRAL>
0

>  <SCORE.INTRA.DIHEDRAL.0>
0

>  <SCORE.INTRA.POLAR>
0

>  <SCORE.INTRA.POLAR.0>
0

>  <SCORE.INTRA.REPUL>
0

>  <SCORE.INTRA.REPUL.0>
0

>  <SCORE.INTRA.SOLV>
0

>  <SCORE.INTRA.SOLV.lig_0>
-47.9788

>  <SCORE.INTRA.VDW>
0

>  <SCORE.INTRA.VDW.0>
0

>  <SCORE.INTRA.norm>
0

>  <SCORE.RESTR>
0

>  <SCORE.RESTR.CAVITY>
0

>  <SCORE.RESTR.norm>
0

>  <SCORE.SYSTEM>
0

>  <SCORE.SYSTEM.CONST>
0

>  <SCORE.SYSTEM.DIHEDRAL>
0

>  <SCORE.SYSTEM.SOLV>
0

>  <SCORE.SYSTEM.norm>
0

>  <SCORE.heavy>
10

>  <SCORE.norm>
-0.589736

>  <RMSD>
0.297

$$$$
ligand
 OpenBabel02271912133D
libRbt.so/2013.1/901 2013/11/27
 10 11  0  0  0  0  0  0  0  0999 V2000
   11.6910   -1.1474    9.5506 C   0  0  1  0  0  0  0  0  0  0  0  0
   11.1063   -1.7616    6.2438 C   0  0  2  0  0  0  0  0  0  0  0  0
   11.8951   -2.5762    8.0218 C   0  0  2  0  0  0  0  0  0  0  0  0
   11.7276   -0.5341   10.7391 N   0  0  0  0  0  0  0  0  0  0  0  0
   10.5277   -0.9614    5.3538 N   0  0  0  0  0  0  0  0  0  0  0  0
   11.5612   -2.9797    5.9752 N   0  0  0  0  0  0  0  0  0  0  0  0
   12.1452   -2.3737    9.3172 N   0  0  0  0  0  0  0  0  0  0  0  0
   11.1754   -0.6301    8.4203 N   0  0  0  0  0  0  0  0  0  0  0  0
   12.0304   -3.4568    7.0183 N   0  0  0  0  0  0  0  0  0  0  0  0
   11.3005   -1.4836    7.5277 N   0  0  1  0  0  0  0  0  0  0  0  0
  1  4  1  1  0  0  0
  1  8  1  0  0  0  0
  1  7  1  0  0  0  0
  2  5  1  1  0  0  0
  2  6  1  0  0  0  0
  2 10  1  0  0  0  0
  3  7  1  6  0  0  0
  3 10  1  0  0  0  0
  3  9  1  0  0  0  0
  6  9  1  0  0  0  0
 10  8  1  6  0  0  0
M  END
>  <CHROM.1>
11.51389605,-1.78877613,7.81133370,1.27539969,-1.10776802,1.03289498

>  <Name>
ligand

>  <RI>
0

>  <Rbt.Current_Directory>
/home/itssahil/PROJECTS/Mol_Feturizer/Test_systems_manuscript/rnas/2xnw

>  <Rbt.Executable>
rbdock ($Id: //depot/dev/client3/rdock/2013.1/src/exe/rbdock.cxx#4 $)

>  <Rbt.Library>
libRbt.so (2013.1, Build901 2013/11/27)

>  <Rbt.Parameter_File>
/export/apps/rDock/src/rDock_2013.1_src/data/scripts/dock_solv.prm

>  <Rbt.Receptor>
prm/blind_docking_40.prm

>  <SCORE>
-5.90526

>  <SCORE.INTER>
-5.90526

>  <SCORE.INTER.CONST>
1

>  <SCORE.INTER.POLAR>
0

>  <SCORE.INTER.ROT>
0

>  <SCORE.INTER.SOLV>
22.1

>  <SCORE.INTER.VDW>
-14.9035

>  <SCORE.INTER.norm>
-0.590526

>  <SCORE.INTRA>
0

>  <SCORE.INTRA.DIHEDRAL>
0

>  <SCORE.INTRA.DIHEDRAL.0>
0

>  <SCORE.INTRA.POLAR>
0

>  <SCORE.INTRA.POLAR.0>
0

>  <SCORE.INTRA.REPUL>
0

>  <SCORE.INTRA.REPUL.0>
0

>  <SCORE.INTRA.SOLV>
0

>  <SCORE.INTRA.SOLV.lig_0>
-47.9788

>  <SCORE.INTRA.VDW>
0

>  <SCORE.INTRA.VDW.0>
0

>  <SCORE.INTRA.norm>
0

>  <SCORE.RESTR>
0

>  <SCORE.RESTR.CAVITY>
0

>  <SCORE.RESTR.norm>
0

>  <SCORE.SYSTEM>
0

>  <SCORE.SYSTEM.CONST>
0

>  <SCORE.SYSTEM.DIHEDRAL>
0

>  <SCORE.SYSTEM.SOLV>
0

>  <SCORE.SYSTEM.norm>
0

>  <SCORE.heavy>
10

>  <SCORE.norm>
-0.590526

>  <RMSD>
0.297

$$$$
ligand
 OpenBabel02271912133D
libRbt.so/2013.1/901 2013/11/27
 10 11  0  0  0  0  0  0  0  0999 V2000
   11.6928   -1.1491    9.5409 C   0  0  1  0  0  0  0  0  0  0  0  0
   11.1129   -1.7751    6.2354 C   0  0  2  0  0  0  0  0  0  0  0  0
   11.8961   -2.5845    8.0183 C   0  0  2  0  0  0  0  0  0  0  0  0
   11.7287   -0.5311   10.7270 N   0  0  0  0  0  0  0  0  0  0  0  0
   10.5382   -0.9769    5.3411 N   0  0  0  0  0  0  0  0  0  0  0  0
   11.5651   -2.9954    5.9727 N   0  0  0  0  0  0  0  0  0  0  0  0
   12.1442   -2.3775    9.3133 N   0  0  0  0  0  0  0  0  0  0  0  0
   11.1808   -0.6349    8.4075 N   0  0  0  0  0  0  0  0  0  0  0  0
   12.0309   -3.4696    7.0186 N   0  0  0  0  0  0  0  0  0  0  0  0
   11.3053   -1.4924    7.5186 N   0  0  1  0  0  0  0  0  0  0  0  0
  1  4  1  1  0  0  0
  1  8  1  0  0  0  0
  1  7  1  0  0  0  0
  2  5  1  1  0  0  0
  2  6  1  0  0  0  0
  2 10  1  0  0  0  0
  3  7  1  6  0  0  0
  3 10  1  0  0  0  0
  3  9  1  0  0  0  0
  6  9  1  0  0  0  0
 10  8  1  6  0  0  0
M  END
>  <CHROM.1>
11.51737680,-1.79697027,7.80387762,1.27608497,-1.11105793,1.02948012

>  <Name>
ligand

>  <RI>
0

>  <Rbt.Current_Directory>
/home/itssahil/PROJECTS/Mol_Feturizer/Test_systems_manuscript/rnas/2xnw

>  <Rbt.Executable>
rbdock ($Id: //depot/dev/client3/rdock/2013.1/src/exe/rbdock.cxx#4 $)

>  <Rbt.Library>
libRbt.so (2013.1, Build901 2013/11/27)

>  <Rbt.Parameter_File>
/export/apps/rDock/src/rDock_2013.1_src/data/scripts/dock_solv.prm

>  <Rbt.Receptor>
prm/pocket_docking_4.prm

>  <SCORE>
-5.90165

>  <SCORE.INTER>
-5.90165

>  <SCORE.INTER.CONST>
1

>  <SCORE.INTER.POLAR>
0

>  <SCORE.INTER.ROT>
0

>  <SCORE.INTER.SOLV>
22.1471

>  <SCORE.INTER.VDW>
-14.9168

>  <SCORE.INTER.norm>
-0.590165

>  <SCORE.INTRA>
0

>  <SCORE.INTRA.DIHEDRAL>
0

>  <SCORE.INTRA.DIHEDRAL.0>
0

>  <SCORE.INTRA.POLAR>
0

>  <SCORE.INTRA.POLAR.0>
0

>  <SCORE.INTRA.REPUL>
0

>  <SCORE.INTRA.REPUL.0>
0

>  <SCORE.INTRA.SOLV>
0

>  <SCORE.INTRA.SOLV.lig_0>
-47.9788

>  <SCORE.INTRA.VDW>
0

>  <SCORE.INTRA.VDW.0>
0

>  <SCORE.INTRA.norm>
0

>  <SCORE.RESTR>
0

>  <SCORE.RESTR.CAVITY>
0

>  <SCORE.RESTR.norm>
0

>  <SCORE.SYSTEM>
0

>  <SCORE.SYSTEM.CONST>
0

>  <SCORE.SYSTEM.DIHEDRAL>
0

>  <SCORE.SYSTEM.SOLV>
0

>  <SCORE.SYSTEM.norm>
0

>  <SCORE.heavy>
10

>  <SCORE.norm>
-0.590165

>  <RMSD>
0.297

$$$$
ligand
 OpenBabel02271912133D
libRbt.so/2013.1/901 2013/11/27
 10 11  0  0  0  0  0  0  0  0999 V2000
   11.7310   -1.1544    9.5396 C   0  0  1  0  0  0  0  0  0  0  0  0
   11.1031   -1.7651    6.2400 C   0  0  2  0  0  0  0  0  0  0  0  0
   11.8983   -2.5884    8.0112 C   0  0  2  0  0  0  0  0  0  0  0  0
   11.7889   -0.5399   10.7266 N   0  0  0  0  0  0  0  0  0  0  0  0
   10.5272   -0.9578    5.3547 N   0  0  0  0  0  0  0  0  0  0  0  0
   11.5374   -2.9901    5.9688 N   0  0  0  0  0  0  0  0  0  0  0  0
   12.1648   -2.3875    9.3035 N   0  0  0  0  0  0  0  0  0  0  0  0
   11.2114   -0.6313    8.4137 N   0  0  0  0  0  0  0  0  0  0  0  0
   12.0103   -3.4724    7.0078 N   0  0  0  0  0  0  0  0  0  0  0  0
   11.3147   -1.4879    7.5214 N   0  0  1  0  0  0  0  0  0  0  0  0
  1  4  1  1  0  0  0
  1  8  1  0  0  0  0
  1  7  1  0  0  0  0
  2  5  1  1  0  0  0
  2  6  1  0  0  0  0
  2 10  1  0  0  0  0
  3  7  1  6  0  0  0
  3 10  1  0  0  0  0
  3  9  1  0  0  0  0
  6  9  1  0  0  0  0
 10  8  1  6  0  0  0
M  END
>  <CHROM.1>
11.52651717,-1.79575716,7.80329135,1.23815155,-1.11477485,0.99788854

>  <Name>
ligand

>  <RI>
0

>  <Rbt.Current_Directory>
/home/itssahil/PROJECTS/Mol_Feturizer/Test_systems_manuscript/rnas/2xnw

>  <Rbt.Executable>
rbdock ($Id: //depot/dev/client3/rdock/2013.1/src/exe/rbdock.cxx#4 $)

>  <Rbt.Library>
libRbt.so (2013.1, Build901 2013/11/27)

>  <Rbt.Parameter_File>
/export/apps/rDock/src/rDock_2013.1_src/data/scripts/dock_solv.prm

>  <Rbt.Receptor>
prm/blind_docking_100.prm

>  <SCORE>
-5.90686

>  <SCORE.INTER>
-5.90686

>  <SCORE.INTER.CONST>
1

>  <SCORE.INTER.POLAR>
0

>  <SCORE.INTER.ROT>
0

>  <SCORE.INTER.SOLV>
22.0461

>  <SCORE.INTER.VDW>
-14.8866

>  <SCORE.INTER.norm>
-0.590686

>  <SCORE.INTRA>
0

>  <SCORE.INTRA.DIHEDRAL>
0

>  <SCORE.INTRA.DIHEDRAL.0>
0

>  <SCORE.INTRA.POLAR>
0

>  <SCORE.INTRA.POLAR.0>
0

>  <SCORE.INTRA.REPUL>
0

>  <SCORE.INTRA.REPUL.0>
0

>  <SCORE.INTRA.SOLV>
0

>  <SCORE.INTRA.SOLV.lig_0>
-47.9788

>  <SCORE.INTRA.VDW>
0

>  <SCORE.INTRA.VDW.0>
0

>  <SCORE.INTRA.norm>
0

>  <SCORE.RESTR>
0

>  <SCORE.RESTR.CAVITY>
0

>  <SCORE.RESTR.norm>
0

>  <SCORE.SYSTEM>
0

>  <SCORE.SYSTEM.CONST>
0

>  <SCORE.SYSTEM.DIHEDRAL>
0

>  <SCORE.SYSTEM.SOLV>
0

>  <SCORE.SYSTEM.norm>
0

>  <SCORE.heavy>
10

>  <SCORE.norm>
-0.590686

>  <RMSD>
0.299

$$$$
ligand
 OpenBabel02271912133D
libRbt.so/2013.1/901 2013/11/27
 10 11  0  0  0  0  0  0  0  0999 V2000
   11.6912   -1.1232    9.5642 C   0  0  1  0  0  0  0  0  0  0  0  0
   11.0923   -1.7400    6.2604 C   0  0  2  0  0  0  0  0  0  0  0  0
   11.8895   -2.5529    8.0354 C   0  0  2  0  0  0  0  0  0  0  0  0
   11.7327   -0.5091   10.7521 N   0  0  0  0  0  0  0  0  0  0  0  0
   10.5093   -0.9408    5.3724 N   0  0  0  0  0  0  0  0  0  0  0  0
   11.5468   -2.9580    5.9906 N   0  0  0  0  0  0  0  0  0  0  0  0
   12.1452   -2.3493    9.3295 N   0  0  0  0  0  0  0  0  0  0  0  0
   11.1704   -0.6069    8.4358 N   0  0  0  0  0  0  0  0  0  0  0  0
   12.0209   -3.4341    7.0320 N   0  0  0  0  0  0  0  0  0  0  0  0
   11.2920   -1.4610    7.5432 N   0  0  1  0  0  0  0  0  0  0  0  0
  1  4  1  1  0  0  0
  1  8  1  0  0  0  0
  1  7  1  0  0  0  0
  2  5  1  1  0  0  0
  2  6  1  0  0  0  0
  2 10  1  0  0  0  0
  3  7  1  6  0  0  0
  3 10  1  0  0  0  0
  3  9  1  0  0  0  0
  6  9  1  0  0  0  0
 10  8  1  6  0  0  0
M  END
>  <CHROM.1>
11.50686148,-1.76582478,7.82612385,1.26767417,-1.10492087,1.02531128

>  <Name>
ligand

>  <RI>
0

>  <Rbt.Current_Directory>
/home/itssahil/PROJECTS/Mol_Feturizer/Test_systems_manuscript/rnas/2xnw

>  <Rbt.Executable>
rbdock ($Id: //depot/dev/client3/rdock/2013.1/src/exe/rbdock.cxx#4 $)

>  <Rbt.Library>
libRbt.so (2013.1, Build901 2013/11/27)

>  <Rbt.Parameter_File>
/export/apps/rDock/src/rDock_2013.1_src/data/scripts/dock_solv.prm

>  <Rbt.Receptor>
prm/blind_docking_40.prm

>  <SCORE>
-5.88724

>  <SCORE.INTER>
-5.88724

>  <SCORE.INTER.CONST>
1

>  <SCORE.INTER.POLAR>
0

>  <SCORE.INTER.ROT>
0

>  <SCORE.INTER.SOLV>
22.0712

>  <SCORE.INTER.VDW>
-14.8819

>  <SCORE.INTER.norm>
-0.588724

>  <SCORE.INTRA>
0

>  <SCORE.INTRA.DIHEDRAL>
0

>  <SCORE.INTRA.DIHEDRAL.0>
0

>  <SCORE.INTRA.POLAR>
0

>  <SCORE.INTRA.POLAR.0>
0

>  <SCORE.INTRA.REPUL>
0

>  <SCORE.INTRA.REPUL.0>
0

>  <SCORE.INTRA.SOLV>
0

>  <SCORE.INTRA.SOLV.lig_0>
-47.9788

>  <SCORE.INTRA.VDW>
0

>  <SCORE.INTRA.VDW.0>
0

>  <SCORE.INTRA.norm>
0

>  <SCORE.RESTR>
0

>  <SCORE.RESTR.CAVITY>
0

>  <SCORE.RESTR.norm>
0

>  <SCORE.SYSTEM>
0

>  <SCORE.SYSTEM.CONST>
0

>  <SCORE.SYSTEM.DIHEDRAL>
0

>  <SCORE.SYSTEM.SOLV>
0

>  <SCORE.SYSTEM.norm>
0

>  <SCORE.heavy>
10

>  <SCORE.norm>
-0.588724

>  <RMSD>
0.300

$$$$
ligand
 OpenBabel02271912133D
libRbt.so/2013.1/901 2013/11/27
 10 11  0  0  0  0  0  0  0  0999 V2000
   11.6834   -1.1387    9.5692 C   0  0  1  0  0  0  0  0  0  0  0  0
   11.1014   -1.7281    6.2573 C   0  0  2  0  0  0  0  0  0  0  0  0
   11.8505   -2.5712    8.0393 C   0  0  2  0  0  0  0  0  0  0  0  0
   11.7323   -0.5288   10.7590 N   0  0  0  0  0  0  0  0  0  0  0  0
   10.5559   -0.9077    5.3648 N   0  0  0  0  0  0  0  0  0  0  0  0
   11.5175   -2.9602    5.9898 N   0  0  0  0  0  0  0  0  0  0  0  0
   12.0983   -2.3791    9.3367 N   0  0  0  0  0  0  0  0  0  0  0  0
   11.1932   -0.6028    8.4363 N   0  0  0  0  0  0  0  0  0  0  0  0
   11.9633   -3.4543    7.0352 N   0  0  0  0  0  0  0  0  0  0  0  0
   11.2959   -1.4587    7.5431 N   0  0  1  0  0  0  0  0  0  0  0  0
  1  4  1  1  0  0  0
  1  8  1  0  0  0  0
  1  7  1  0  0  0  0
  2  5  1  1  0  0  0
  2  6  1  0  0  0  0
  2 10  1  0  0  0  0
  3  7  1  6  0  0  0
  3 10  1  0  0  0  0
  3  9  1  0  0  0  0
  6  9  1  0  0  0  0
 10  8  1  6  0  0  0
M  END
>  <CHROM.1>
11.49710020,-1.77119601,7.82759352,1.24879005,-1.13969657,1.01054431

>  <Name>
ligand

>  <RI>
0

>  <Rbt.Current_Directory>
/home/itssahil/PROJECTS/Mol_Feturizer/Test_systems_manuscript/rnas/2xnw

>  <Rbt.Executable>
rbdock ($Id: //depot/dev/client3/rdock/2013.1/src/exe/rbdock.cxx#4 $)

>  <Rbt.Library>
libRbt.so (2013.1, Build901 2013/11/27)

>  <Rbt.Parameter_File>
/export/apps/rDock/src/rDock_2013.1_src/data/scripts/dock_solv.prm

>  <Rbt.Receptor>
prm/pocket_docking_6.prm

>  <SCORE>
-5.85156

>  <SCORE.INTER>
-5.85156

>  <SCORE.INTER.CONST>
1

>  <SCORE.INTER.POLAR>
0

>  <SCORE.INTER.ROT>
0

>  <SCORE.INTER.SOLV>
22.2345

>  <SCORE.INTER.VDW>
-14.9125

>  <SCORE.INTER.norm>
-0.585156

>  <SCORE.INTRA>
0

>  <SCORE.INTRA.DIHEDRAL>
0

>  <SCORE.INTRA.DIHEDRAL.0>
0

>  <SCORE.INTRA.POLAR>
0

>  <SCORE.INTRA.POLAR.0>
0

>  <SCORE.INTRA.REPUL>
0

>  <SCORE.INTRA.REPUL.0>
0

>  <SCORE.INTRA.SOLV>
0

>  <SCORE.INTRA.SOLV.lig_0>
-47.9788

>  <SCORE.INTRA.VDW>
0

>  <SCORE.INTRA.VDW.0>
0

>  <SCORE.INTRA.norm>
0

>  <SCORE.RESTR>
0

>  <SCORE.RESTR.CAVITY>
0

>  <SCORE.RESTR.norm>
0

>  <SCORE.SYSTEM>
0

>  <SCORE.SYSTEM.CONST>
0

>  <SCORE.SYSTEM.DIHEDRAL>
0

>  <SCORE.SYSTEM.SOLV>
0

>  <SCORE.SYSTEM.norm>
0

>  <SCORE.heavy>
10

>  <SCORE.norm>
-0.585156

>  <RMSD>
0.303

$$$$
ligand
 OpenBabel02271912133D
libRbt.so/2013.1/901 2013/11/27
 10 11  0  0  0  0  0  0  0  0999 V2000
   11.7555   -1.1592    9.5415 C   0  0  1  0  0  0  0  0  0  0  0  0
   11.1002   -1.7254    6.2393 C   0  0  2  0  0  0  0  0  0  0  0  0
   11.8848   -2.5822    7.9993 C   0  0  2  0  0  0  0  0  0  0  0  0
   11.8319   -0.5572   10.7339 N   0  0  0  0  0  0  0  0  0  0  0  0
   10.5382   -0.8975    5.3641 N   0  0  0  0  0  0  0  0  0  0  0  0
   11.5064   -2.9570    5.9550 N   0  0  0  0  0  0  0  0  0  0  0  0
   12.1612   -2.3993    9.2922 N   0  0  0  0  0  0  0  0  0  0  0  0
   11.2426   -0.6145    8.4229 N   0  0  0  0  0  0  0  0  0  0  0  0
   11.9731   -3.4591    6.9874 N   0  0  0  0  0  0  0  0  0  0  0  0
   11.3233   -1.4648    7.5223 N   0  0  1  0  0  0  0  0  0  0  0  0
  1  4  1  1  0  0  0
  1  8  1  0  0  0  0
  1  7  1  0  0  0  0
  2  5  1  1  0  0  0
  2  6  1  0  0  0  0
  2 10  1  0  0  0  0
  3  7  1  6  0  0  0
  3 10  1  0  0  0  0
  3  9  1  0  0  0  0
  6  9  1  0  0  0  0
 10  8  1  6  0  0  0
M  END
>  <CHROM.1>
11.52955369,-1.77980614,7.80039906,1.20183098,-1.13055365,0.97439975

>  <Name>
ligand

>  <RI>
0

>  <Rbt.Current_Directory>
/home/itssahil/PROJECTS/Mol_Feturizer/Test_systems_manuscript/rnas/2xnw

>  <Rbt.Executable>
rbdock ($Id: //depot/dev/client3/rdock/2013.1/src/exe/rbdock.cxx#4 $)

>  <Rbt.Library>
libRbt.so (2013.1, Build901 2013/11/27)

>  <Rbt.Parameter_File>
/export/apps/rDock/src/rDock_2013.1_src/data/scripts/dock_solv.prm

>  <Rbt.Receptor>
prm/pocket_docking_4.prm

>  <SCORE>
-5.86828

>  <SCORE.INTER>
-5.86828

>  <SCORE.INTER.CONST>
1

>  <SCORE.INTER.POLAR>
0

>  <SCORE.INTER.ROT>
0

>  <SCORE.INTER.SOLV>
22.0783

>  <SCORE.INTER.VDW>
-14.8716

>  <SCORE.INTER.norm>
-0.586828

>  <SCORE.INTRA>
0

>  <SCORE.INTRA.DIHEDRAL>
0

>  <SCORE.INTRA.DIHEDRAL.0>
0

>  <SCORE.INTRA.POLAR>
0

>  <SCORE.INTRA.POLAR.0>
0

>  <SCORE.INTRA.REPUL>
0

>  <SCORE.INTRA.REPUL.0>
0

>  <SCORE.INTRA.SOLV>
0

>  <SCORE.INTRA.SOLV.lig_0>
-47.9788

>  <SCORE.INTRA.VDW>
0

>  <SCORE.INTRA.VDW.0>
0

>  <SCORE.INTRA.norm>
0

>  <SCORE.RESTR>
0

>  <SCORE.RESTR.CAVITY>
0

>  <SCORE.RESTR.norm>
0

>  <SCORE.SYSTEM>
0

>  <SCORE.SYSTEM.CONST>
0

>  <SCORE.SYSTEM.DIHEDRAL>
0

>  <SCORE.SYSTEM.SOLV>
0

>  <SCORE.SYSTEM.norm>
0

>  <SCORE.heavy>
10

>  <SCORE.norm>
-0.586828

>  <RMSD>
0.307

$$$$
ligand
 OpenBabel02271912133D
libRbt.so/2013.1/901 2013/11/27
 10 11  0  0  0  0  0  0  0  0999 V2000
   11.8578   -1.3393    9.4897 C   0  0  1  0  0  0  0  0  0  0  0  0
   11.1348   -1.7904    6.1839 C   0  0  2  0  0  0  0  0  0  0  0  0
   11.8891   -2.7310    7.9141 C   0  0  2  0  0  0  0  0  0  0  0  0
   11.9816   -0.7706   10.6943 N   0  0  0  0  0  0  0  0  0  0  0  0
   10.6109   -0.9120    5.3347 N   0  0  0  0  0  0  0  0  0  0  0  0
   11.4674   -3.0360    5.8667 N   0  0  0  0  0  0  0  0  0  0  0  0
   12.1898   -2.5942    9.2073 N   0  0  0  0  0  0  0  0  0  0  0  0
   11.3642   -0.7406    8.3902 N   0  0  0  0  0  0  0  0  0  0  0  0
   11.9163   -3.5877    6.8815 N   0  0  0  0  0  0  0  0  0  0  0  0
   11.3866   -1.5729    7.4695 N   0  0  1  0  0  0  0  0  0  0  0  0
  1  4  1  1  0  0  0
  1  8  1  0  0  0  0
  1  7  1  0  0  0  0
  2  5  1  1  0  0  0
  2  6  1  0  0  0  0
  2 10  1  0  0  0  0
  3  7  1  6  0  0  0
  3 10  1  0  0  0  0
  3  9  1  0  0  0  0
  6  9  1  0  0  0  0
 10  8  1  6  0  0  0
M  END
>  <CHROM.1>
11.57774335,-1.90541648,7.73783556,1.09664470,-1.16924364,0.90138124

>  <Name>
ligand

>  <RI>
0

>  <Rbt.Current_Directory>
/home/itssahil/PROJECTS/Mol_Feturizer/Test_systems_manuscript/rnas/2xnw

>  <Rbt.Executable>
rbdock ($Id: //depot/dev/client3/rdock/2013.1/src/exe/rbdock.cxx#4 $)

>  <Rbt.Library>
libRbt.so (2013.1, Build901 2013/11/27)

>  <Rbt.Parameter_File>
/export/apps/rDock/src/rDock_2013.1_src/data/scripts/dock_solv.prm

>  <Rbt.Receptor>
prm/pocket_docking_6.prm

>  <SCORE>
-5.80969

>  <SCORE.INTER>
-5.80969

>  <SCORE.INTER.CONST>
1

>  <SCORE.INTER.POLAR>
0

>  <SCORE.INTER.ROT>
0

>  <SCORE.INTER.SOLV>
21.8684

>  <SCORE.INTER.VDW>
-14.7626

>  <SCORE.INTER.norm>
-0.580969

>  <SCORE.INTRA>
0

>  <SCORE.INTRA.DIHEDRAL>
0

>  <SCORE.INTRA.DIHEDRAL.0>
0

>  <SCORE.INTRA.POLAR>
0

>  <SCORE.INTRA.POLAR.0>
0

>  <SCORE.INTRA.REPUL>
0

>  <SCORE.INTRA.REPUL.0>
0

>  <SCORE.INTRA.SOLV>
0

>  <SCORE.INTRA.SOLV.lig_0>
-47.9788

>  <SCORE.INTRA.VDW>
0

>  <SCORE.INTRA.VDW.0>
0

>  <SCORE.INTRA.norm>
0

>  <SCORE.RESTR>
0

>  <SCORE.RESTR.CAVITY>
0

>  <SCORE.RESTR.norm>
0

>  <SCORE.SYSTEM>
0

>  <SCORE.SYSTEM.CONST>
0

>  <SCORE.SYSTEM.DIHEDRAL>
0

>  <SCORE.SYSTEM.SOLV>
0

>  <SCORE.SYSTEM.norm>
0

>  <SCORE.heavy>
10

>  <SCORE.norm>
-0.580969

>  <RMSD>
0.362

$$$$
ligand
 OpenBabel02271912133D
libRbt.so/2013.1/901 2013/11/27
 10 11  0  0  0  0  0  0  0  0999 V2000
   11.8765   -1.3226    9.4971 C   0  0  1  0  0  0  0  0  0  0  0  0
   11.1230   -1.7485    6.1948 C   0  0  2  0  0  0  0  0  0  0  0  0
   11.8739   -2.7083    7.9158 C   0  0  2  0  0  0  0  0  0  0  0  0
   12.0180   -0.7608   10.7030 N   0  0  0  0  0  0  0  0  0  0  0  0
   10.6077   -0.8582    5.3527 N   0  0  0  0  0  0  0  0  0  0  0  0
   11.4328   -2.9981    5.8703 N   0  0  0  0  0  0  0  0  0  0  0  0
   12.1859   -2.5816    9.2074 N   0  0  0  0  0  0  0  0  0  0  0  0
   11.3851   -0.7114    8.4034 N   0  0  0  0  0  0  0  0  0  0  0  0
   11.8798   -3.5611    6.8798 N   0  0  0  0  0  0  0  0  0  0  0  0
   11.3873   -1.5403    7.4794 N   0  0  1  0  0  0  0  0  0  0  0  0
  1  4  1  1  0  0  0
  1  8  1  0  0  0  0
  1  7  1  0  0  0  0
  2  5  1  1  0  0  0
  2  6  1  0  0  0  0
  2 10  1  0  0  0  0
  3  7  1  6  0  0  0
  3 10  1  0  0  0  0
  3  9  1  0  0  0  0
  6  9  1  0  0  0  0
 10  8  1  6  0  0  0
M  END
>  <CHROM.1>
11.57488104,-1.87697992,7.74506677,1.05566024,-1.17746936,0.86756372

>  <Name>
ligand

>  <RI>
0

>  <Rbt.Current_Directory>
/home/itssahil/PROJECTS/Mol_Feturizer/Test_systems_manuscript/rnas/2xnw

>  <Rbt.Executable>
rbdock ($Id: //depot/dev/client3/rdock/2013.1/src/exe/rbdock.cxx#4 $)

>  <Rbt.Library>
libRbt.so (2013.1, Build901 2013/11/27)

>  <Rbt.Parameter_File>
/export/apps/rDock/src/rDock_2013.1_src/data/scripts/dock_solv.prm

>  <Rbt.Receptor>
prm/pocket_docking_6.prm

>  <SCORE>
-5.79315

>  <SCORE.INTER>
-5.79315

>  <SCORE.INTER.CONST>
1

>  <SCORE.INTER.POLAR>
0

>  <SCORE.INTER.ROT>
0

>  <SCORE.INTER.SOLV>
21.8539

>  <SCORE.INTER.VDW>
-14.7467

>  <SCORE.INTER.norm>
-0.579315

>  <SCORE.INTRA>
0

>  <SCORE.INTRA.DIHEDRAL>
0

>  <SCORE.INTRA.DIHEDRAL.0>
0

>  <SCORE.INTRA.POLAR>
0

>  <SCORE.INTRA.POLAR.0>
0

>  <SCORE.INTRA.REPUL>
0

>  <SCORE.INTRA.REPUL.0>
0

>  <SCORE.INTRA.SOLV>
0

>  <SCORE.INTRA.SOLV.lig_0>
-47.9788

>  <SCORE.INTRA.VDW>
0

>  <SCORE.INTRA.VDW.0>
0

>  <SCORE.INTRA.norm>
0

>  <SCORE.RESTR>
0

>  <SCORE.RESTR.CAVITY>
0

>  <SCORE.RESTR.norm>
0

>  <SCORE.SYSTEM>
0

>  <SCORE.SYSTEM.CONST>
0

>  <SCORE.SYSTEM.DIHEDRAL>
0

>  <SCORE.SYSTEM.SOLV>
0

>  <SCORE.SYSTEM.norm>
0

>  <SCORE.heavy>
10

>  <SCORE.norm>
-0.579315

>  <RMSD>
0.368

$$$$
ligand
 OpenBabel02271912133D
libRbt.so/2013.1/901 2013/11/27
 10 11  0  0  0  0  0  0  0  0999 V2000
   11.6579   -1.1337    9.4710 C   0  0  1  0  0  0  0  0  0  0  0  0
   12.0592   -3.4822    7.0261 C   0  0  2  0  0  0  0  0  0  0  0  0
   11.4082   -1.5152    7.4186 C   0  0  2  0  0  0  0  0  0  0  0  0
   11.6737   -0.5319   10.6658 N   0  0  0  0  0  0  0  0  0  0  0  0
   12.5554   -4.7097    7.1455 N   0  0  0  0  0  0  0  0  0  0  0  0
   11.6295   -2.9530    5.8868 N   0  0  0  0  0  0  0  0  0  0  0  0
   11.2312   -0.5714    8.3457 N   0  0  0  0  0  0  0  0  0  0  0  0
   12.0858   -2.3849    9.2209 N   0  0  0  0  0  0  0  0  0  0  0  0
   11.2411   -1.7991    6.1177 N   0  0  0  0  0  0  0  0  0  0  0  0
   11.9348   -2.5958    8.0070 N   0  0  1  0  0  0  0  0  0  0  0  0
  1  4  1  6  0  0  0
  1  8  1  0  0  0  0
  1  7  1  0  0  0  0
  2  5  1  6  0  0  0
  2  6  1  0  0  0  0
  2 10  1  0  0  0  0
  3  7  1  1  0  0  0
  3 10  1  0  0  0  0
  3  9  1  0  0  0  0
  6  9  1  0  0  0  0
 10  8  1  1  0  0  0
M  END
>  <CHROM.1>
11.74943189,-2.17322440,7.92866520,-1.77584416,1.16624938,-2.05746875

>  <Name>
ligand

>  <RI>
0

>  <Rbt.Current_Directory>
/home/itssahil/PROJECTS/Mol_Feturizer/Test_systems_manuscript/rnas/2xnw

>  <Rbt.Executable>
rbdock ($Id: //depot/dev/client3/rdock/2013.1/src/exe/rbdock.cxx#4 $)

>  <Rbt.Library>
libRbt.so (2013.1, Build901 2013/11/27)

>  <Rbt.Parameter_File>
/export/apps/rDock/src/rDock_2013.1_src/data/scripts/dock_solv.prm

>  <Rbt.Receptor>
prm/blind_docking_20.prm

>  <SCORE>
-6.11253

>  <SCORE.INTER>
-6.11253

>  <SCORE.INTER.CONST>
1

>  <SCORE.INTER.POLAR>
0

>  <SCORE.INTER.ROT>
0

>  <SCORE.INTER.SOLV>
20.641

>  <SCORE.INTER.VDW>
-14.5554

>  <SCORE.INTER.norm>
-0.611253

>  <SCORE.INTRA>
0

>  <SCORE.INTRA.DIHEDRAL>
0

>  <SCORE.INTRA.DIHEDRAL.0>
0

>  <SCORE.INTRA.POLAR>
0

>  <SCORE.INTRA.POLAR.0>
0

>  <SCORE.INTRA.REPUL>
0

>  <SCORE.INTRA.REPUL.0>
0

>  <SCORE.INTRA.SOLV>
0

>  <SCORE.INTRA.SOLV.lig_0>
-47.9788

>  <SCORE.INTRA.VDW>
0

>  <SCORE.INTRA.VDW.0>
0

>  <SCORE.INTRA.norm>
0

>  <SCORE.RESTR>
0

>  <SCORE.RESTR.CAVITY>
0

>  <SCORE.RESTR.norm>
0

>  <SCORE.SYSTEM>
0

>  <SCORE.SYSTEM.CONST>
0

>  <SCORE.SYSTEM.DIHEDRAL>
0

>  <SCORE.SYSTEM.SOLV>
0

>  <SCORE.SYSTEM.norm>
0

>  <SCORE.heavy>
10

>  <SCORE.norm>
-0.611253

>  <RMSD>
2.050

$$$$
ligand
 OpenBabel02271912133D
libRbt.so/2013.1/901 2013/11/27
 10 11  0  0  0  0  0  0  0  0999 V2000
   11.6537   -1.1293    9.4679 C   0  0  1  0  0  0  0  0  0  0  0  0
   12.0573   -3.4833    7.0287 C   0  0  2  0  0  0  0  0  0  0  0  0
   11.3992   -1.5179    7.4175 C   0  0  2  0  0  0  0  0  0  0  0  0
   11.6707   -0.5238   10.6609 N   0  0  0  0  0  0  0  0  0  0  0  0
   12.5589   -4.7084    7.1503 N   0  0  0  0  0  0  0  0  0  0  0  0
   11.6216   -2.9593    5.8892 N   0  0  0  0  0  0  0  0  0  0  0  0
   11.2211   -0.5721    8.3423 N   0  0  0  0  0  0  0  0  0  0  0  0
   12.0861   -2.3793    9.2202 N   0  0  0  0  0  0  0  0  0  0  0  0
   11.2292   -1.8063    6.1180 N   0  0  0  0  0  0  0  0  0  0  0  0
   11.9322   -2.5945    8.0074 N   0  0  1  0  0  0  0  0  0  0  0  0
  1  4  1  6  0  0  0
  1  8  1  0  0  0  0
  1  7  1  0  0  0  0
  2  5  1  6  0  0  0
  2  6  1  0  0  0  0
  2 10  1  0  0  0  0
  3  7  1  1  0  0  0
  3 10  1  0  0  0  0
  3  9  1  0  0  0  0
  6  9  1  0  0  0  0
 10  8  1  1  0  0  0
M  END
>  <CHROM.1>
11.74477027,-2.17296293,7.92840637,-1.77379757,1.16103579,-2.06231853

>  <Name>
ligand

>  <RI>
0

>  <Rbt.Current_Directory>
/home/itssahil/PROJECTS/Mol_Feturizer/Test_systems_manuscript/rnas/2xnw

>  <Rbt.Executable>
rbdock ($Id: //depot/dev/client3/rdock/2013.1/src/exe/rbdock.cxx#4 $)

>  <Rbt.Library>
libRbt.so (2013.1, Build901 2013/11/27)

>  <Rbt.Parameter_File>
/export/apps/rDock/src/rDock_2013.1_src/data/scripts/dock_solv.prm

>  <Rbt.Receptor>
prm/pocket_docking_8.prm

>  <SCORE>
-6.10468

>  <SCORE.INTER>
-6.10468

>  <SCORE.INTER.CONST>
1

>  <SCORE.INTER.POLAR>
0

>  <SCORE.INTER.ROT>
0

>  <SCORE.INTER.SOLV>
20.6284

>  <SCORE.INTER.VDW>
-14.5459

>  <SCORE.INTER.norm>
-0.610468

>  <SCORE.INTRA>
0

>  <SCORE.INTRA.DIHEDRAL>
0

>  <SCORE.INTRA.DIHEDRAL.0>
0

>  <SCORE.INTRA.POLAR>
0

>  <SCORE.INTRA.POLAR.0>
0

>  <SCORE.INTRA.REPUL>
0

>  <SCORE.INTRA.REPUL.0>
0

>  <SCORE.INTRA.SOLV>
0

>  <SCORE.INTRA.SOLV.lig_0>
-47.9788

>  <SCORE.INTRA.VDW>
0

>  <SCORE.INTRA.VDW.0>
0

>  <SCORE.INTRA.norm>
0

>  <SCORE.RESTR>
0

>  <SCORE.RESTR.CAVITY>
0

>  <SCORE.RESTR.norm>
0

>  <SCORE.SYSTEM>
0

>  <SCORE.SYSTEM.CONST>
0

>  <SCORE.SYSTEM.DIHEDRAL>
0

>  <SCORE.SYSTEM.SOLV>
0

>  <SCORE.SYSTEM.norm>
0

>  <SCORE.heavy>
10

>  <SCORE.norm>
-0.610468

>  <RMSD>
2.051

$$$$
ligand
 OpenBabel02271912133D
libRbt.so/2013.1/901 2013/11/27
 10 11  0  0  0  0  0  0  0  0999 V2000
   11.6817   -1.1507    9.5082 C   0  0  1  0  0  0  0  0  0  0  0  0
   12.0885   -3.4977    7.0626 C   0  0  2  0  0  0  0  0  0  0  0  0
   11.4369   -1.5308    7.4549 C   0  0  2  0  0  0  0  0  0  0  0  0
   11.6948   -0.5496   10.7034 N   0  0  0  0  0  0  0  0  0  0  0  0
   12.5841   -4.7254    7.1825 N   0  0  0  0  0  0  0  0  0  0  0  0
   11.6615   -2.9677    5.9227 N   0  0  0  0  0  0  0  0  0  0  0  0
   11.2578   -0.5876    8.3822 N   0  0  0  0  0  0  0  0  0  0  0  0
   12.1100   -2.4018    9.2583 N   0  0  0  0  0  0  0  0  0  0  0  0
   11.2729   -1.8138    6.1534 N   0  0  0  0  0  0  0  0  0  0  0  0
   11.9619   -2.6119    8.0439 N   0  0  1  0  0  0  0  0  0  0  0  0
  1  4  1  6  0  0  0
  1  8  1  0  0  0  0
  1  7  1  0  0  0  0
  2  5  1  6  0  0  0
  2  6  1  0  0  0  0
  2 10  1  0  0  0  0
  3  7  1  1  0  0  0
  3 10  1  0  0  0  0
  3  9  1  0  0  0  0
  6  9  1  0  0  0  0
 10  8  1  1  0  0  0
M  END
>  <CHROM.1>
11.77677425,-2.18922145,7.96535211,-1.78100144,1.16751143,-2.05207542

>  <Name>
ligand

>  <RI>
0

>  <Rbt.Current_Directory>
/home/itssahil/PROJECTS/Mol_Feturizer/Test_systems_manuscript/rnas/2xnw

>  <Rbt.Executable>
rbdock ($Id: //depot/dev/client3/rdock/2013.1/src/exe/rbdock.cxx#4 $)

>  <Rbt.Library>
libRbt.so (2013.1, Build901 2013/11/27)

>  <Rbt.Parameter_File>
/export/apps/rDock/src/rDock_2013.1_src/data/scripts/dock_solv.prm

>  <Rbt.Receptor>
prm/blind_docking_20.prm

>  <SCORE>
-6.11035

>  <SCORE.INTER>
-6.11035

>  <SCORE.INTER.CONST>
1

>  <SCORE.INTER.POLAR>
0

>  <SCORE.INTER.ROT>
0

>  <SCORE.INTER.SOLV>
20.4287

>  <SCORE.INTER.VDW>
-14.4831

>  <SCORE.INTER.norm>
-0.611035

>  <SCORE.INTRA>
0

>  <SCORE.INTRA.DIHEDRAL>
0

>  <SCORE.INTRA.DIHEDRAL.0>
0

>  <SCORE.INTRA.POLAR>
0

>  <SCORE.INTRA.POLAR.0>
0

>  <SCORE.INTRA.REPUL>
0

>  <SCORE.INTRA.REPUL.0>
0

>  <SCORE.INTRA.SOLV>
0

>  <SCORE.INTRA.SOLV.lig_0>
-47.9788

>  <SCORE.INTRA.VDW>
0

>  <SCORE.INTRA.VDW.0>
0

>  <SCORE.INTRA.norm>
0

>  <SCORE.RESTR>
0

>  <SCORE.RESTR.CAVITY>
0

>  <SCORE.RESTR.norm>
0

>  <SCORE.SYSTEM>
0

>  <SCORE.SYSTEM.CONST>
0

>  <SCORE.SYSTEM.DIHEDRAL>
0

>  <SCORE.SYSTEM.SOLV>
0

>  <SCORE.SYSTEM.norm>
0

>  <SCORE.heavy>
10

>  <SCORE.norm>
-0.611035

>  <RMSD>
2.053

$$$$
ligand
 OpenBabel02271912133D
libRbt.so/2013.1/901 2013/11/27
 10 11  0  0  0  0  0  0  0  0999 V2000
   11.6387   -1.1215    9.5127 C   0  0  1  0  0  0  0  0  0  0  0  0
   11.9977   -3.5125    7.1025 C   0  0  2  0  0  0  0  0  0  0  0  0
   11.4477   -1.5073    7.4548 C   0  0  2  0  0  0  0  0  0  0  0  0
   11.6428   -0.5103   10.7028 N   0  0  0  0  0  0  0  0  0  0  0  0
   12.4163   -4.7655    7.2504 N   0  0  0  0  0  0  0  0  0  0  0  0
   11.6445   -2.9701    5.9433 N   0  0  0  0  0  0  0  0  0  0  0  0
   11.2899   -0.5461    8.3673 N   0  0  0  0  0  0  0  0  0  0  0  0
   12.0023   -2.3977    9.2888 N   0  0  0  0  0  0  0  0  0  0  0  0
   11.3154   -1.7934    6.1504 N   0  0  0  0  0  0  0  0  0  0  0  0
   11.8870   -2.6111    8.0714 N   0  0  1  0  0  0  0  0  0  0  0  0
  1  4  1  6  0  0  0
  1  8  1  0  0  0  0
  1  7  1  0  0  0  0
  2  5  1  6  0  0  0
  2  6  1  0  0  0  0
  2 10  1  0  0  0  0
  3  7  1  1  0  0  0
  3 10  1  0  0  0  0
  3  9  1  0  0  0  0
  6  9  1  0  0  0  0
 10  8  1  1  0  0  0
M  END
>  <CHROM.1>
11.72973118,-2.17920049,7.98270731,-1.79811825,1.23612544,-2.04504483

>  <Name>
ligand

>  <RI>
0

>  <Rbt.Current_Directory>
/home/itssahil/PROJECTS/Mol_Feturizer/Test_systems_manuscript/rnas/2xnw

>  <Rbt.Executable>
rbdock ($Id: //depot/dev/client3/rdock/2013.1/src/exe/rbdock.cxx#4 $)

>  <Rbt.Library>
libRbt.so (2013.1, Build901 2013/11/27)

>  <Rbt.Parameter_File>
/export/apps/rDock/src/rDock_2013.1_src/data/scripts/dock_solv.prm

>  <Rbt.Receptor>
prm/pocket_docking_4.prm

>  <SCORE>
-6.04995

>  <SCORE.INTER>
-6.04995

>  <SCORE.INTER.CONST>
1

>  <SCORE.INTER.POLAR>
0

>  <SCORE.INTER.ROT>
0

>  <SCORE.INTER.SOLV>
20.9905

>  <SCORE.INTER.VDW>
-14.6301

>  <SCORE.INTER.norm>
-0.604995

>  <SCORE.INTRA>
0

>  <SCORE.INTRA.DIHEDRAL>
0

>  <SCORE.INTRA.DIHEDRAL.0>
0

>  <SCORE.INTRA.POLAR>
0

>  <SCORE.INTRA.POLAR.0>
0

>  <SCORE.INTRA.REPUL>
0

>  <SCORE.INTRA.REPUL.0>
0

>  <SCORE.INTRA.SOLV>
0

>  <SCORE.INTRA.SOLV.lig_0>
-47.9788

>  <SCORE.INTRA.VDW>
0

>  <SCORE.INTRA.VDW.0>
0

>  <SCORE.INTRA.norm>
0

>  <SCORE.RESTR>
0

>  <SCORE.RESTR.CAVITY>
0

>  <SCORE.RESTR.norm>
0

>  <SCORE.SYSTEM>
0

>  <SCORE.SYSTEM.CONST>
0

>  <SCORE.SYSTEM.DIHEDRAL>
0

>  <SCORE.SYSTEM.SOLV>
0

>  <SCORE.SYSTEM.norm>
0

>  <SCORE.heavy>
10

>  <SCORE.norm>
-0.604995

>  <RMSD>
2.054

$$$$
ligand
 OpenBabel02271912133D
libRbt.so/2013.1/901 2013/11/27
 10 11  0  0  0  0  0  0  0  0999 V2000
   11.6428   -1.1144    9.5296 C   0  0  1  0  0  0  0  0  0  0  0  0
   12.0233   -3.5108    7.1282 C   0  0  2  0  0  0  0  0  0  0  0  0
   11.4412   -1.5139    7.4753 C   0  0  2  0  0  0  0  0  0  0  0  0
   11.6463   -0.4972   10.7166 N   0  0  0  0  0  0  0  0  0  0  0  0
   12.4651   -4.7556    7.2786 N   0  0  0  0  0  0  0  0  0  0  0  0
   11.6508   -2.9805    5.9694 N   0  0  0  0  0  0  0  0  0  0  0  0
   11.2743   -0.5510    8.3844 N   0  0  0  0  0  0  0  0  0  0  0  0
   12.0269   -2.3852    9.3088 N   0  0  0  0  0  0  0  0  0  0  0  0
   11.3029   -1.8088    6.1735 N   0  0  0  0  0  0  0  0  0  0  0  0
   11.9050   -2.6066    8.0935 N   0  0  1  0  0  0  0  0  0  0  0  0
  1  4  1  6  0  0  0
  1  8  1  0  0  0  0
  1  7  1  0  0  0  0
  2  5  1  6  0  0  0
  2  6  1  0  0  0  0
  2 10  1  0  0  0  0
  3  7  1  1  0  0  0
  3 10  1  0  0  0  0
  3  9  1  0  0  0  0
  6  9  1  0  0  0  0
 10  8  1  1  0  0  0
M  END
>  <CHROM.1>
11.73942423,-2.17803199,8.00406866,-1.79946771,1.21663533,-2.04874609

>  <Name>
ligand

>  <RI>
0

>  <Rbt.Current_Directory>
/home/itssahil/PROJECTS/Mol_Feturizer/Test_systems_manuscript/rnas/2xnw

>  <Rbt.Executable>
rbdock ($Id: //depot/dev/client3/rdock/2013.1/src/exe/rbdock.cxx#4 $)

>  <Rbt.Library>
libRbt.so (2013.1, Build901 2013/11/27)

>  <Rbt.Parameter_File>
/export/apps/rDock/src/rDock_2013.1_src/data/scripts/dock_solv.prm

>  <Rbt.Receptor>
prm/blind_docking_100.prm

>  <SCORE>
-6.05437

>  <SCORE.INTER>
-6.05437

>  <SCORE.INTER.CONST>
1

>  <SCORE.INTER.POLAR>
0

>  <SCORE.INTER.ROT>
0

>  <SCORE.INTER.SOLV>
20.768

>  <SCORE.INTER.VDW>
-14.5589

>  <SCORE.INTER.norm>
-0.605437

>  <SCORE.INTRA>
0

>  <SCORE.INTRA.DIHEDRAL>
0

>  <SCORE.INTRA.DIHEDRAL.0>
0

>  <SCORE.INTRA.POLAR>
0

>  <SCORE.INTRA.POLAR.0>
0

>  <SCORE.INTRA.REPUL>
0

>  <SCORE.INTRA.REPUL.0>
0

>  <SCORE.INTRA.SOLV>
0

>  <SCORE.INTRA.SOLV.lig_0>
-47.9788

>  <SCORE.INTRA.VDW>
0

>  <SCORE.INTRA.VDW.0>
0

>  <SCORE.INTRA.norm>
0

>  <SCORE.RESTR>
0

>  <SCORE.RESTR.CAVITY>
0

>  <SCORE.RESTR.norm>
0

>  <SCORE.SYSTEM>
0

>  <SCORE.SYSTEM.CONST>
0

>  <SCORE.SYSTEM.DIHEDRAL>
0

>  <SCORE.SYSTEM.SOLV>
0

>  <SCORE.SYSTEM.norm>
0

>  <SCORE.heavy>
10

>  <SCORE.norm>
-0.605437

>  <RMSD>
2.056

$$$$
ligand
 OpenBabel02271912133D
libRbt.so/2013.1/901 2013/11/27
 10 11  0  0  0  0  0  0  0  0999 V2000
   11.6337   -1.1235    9.5270 C   0  0  1  0  0  0  0  0  0  0  0  0
   12.0304   -3.5115    7.1198 C   0  0  2  0  0  0  0  0  0  0  0  0
   11.4463   -1.5157    7.4699 C   0  0  2  0  0  0  0  0  0  0  0  0
   11.6290   -0.5105   10.7162 N   0  0  0  0  0  0  0  0  0  0  0  0
   12.4708   -4.7569    7.2689 N   0  0  0  0  0  0  0  0  0  0  0  0
   11.6660   -2.9770    5.9604 N   0  0  0  0  0  0  0  0  0  0  0  0
   11.2733   -0.5560    8.3813 N   0  0  0  0  0  0  0  0  0  0  0  0
   12.0190   -2.3936    9.3044 N   0  0  0  0  0  0  0  0  0  0  0  0
   11.3170   -1.8059    6.1662 N   0  0  0  0  0  0  0  0  0  0  0  0
   11.9055   -2.6107    8.0875 N   0  0  1  0  0  0  0  0  0  0  0  0
  1  4  1  6  0  0  0
  1  8  1  0  0  0  0
  1  7  1  0  0  0  0
  2  5  1  6  0  0  0
  2  6  1  0  0  0  0
  2 10  1  0  0  0  0
  3  7  1  1  0  0  0
  3 10  1  0  0  0  0
  3  9  1  0  0  0  0
  6  9  1  0  0  0  0
 10  8  1  1  0  0  0
M  END
>  <CHROM.1>
11.74069630,-2.18175177,7.99842882,-1.81715131,1.21995589,-2.02860281

>  <Name>
ligand

>  <RI>
0

>  <Rbt.Current_Directory>
/home/itssahil/PROJECTS/Mol_Feturizer/Test_systems_manuscript/rnas/2xnw

>  <Rbt.Executable>
rbdock ($Id: //depot/dev/client3/rdock/2013.1/src/exe/rbdock.cxx#4 $)

>  <Rbt.Library>
libRbt.so (2013.1, Build901 2013/11/27)

>  <Rbt.Parameter_File>
/export/apps/rDock/src/rDock_2013.1_src/data/scripts/dock_solv.prm

>  <Rbt.Receptor>
prm/pocket_docking_4.prm

>  <SCORE>
-6.0562

>  <SCORE.INTER>
-6.0562

>  <SCORE.INTER.CONST>
1

>  <SCORE.INTER.POLAR>
0

>  <SCORE.INTER.ROT>
0

>  <SCORE.INTER.SOLV>
20.7665

>  <SCORE.INTER.VDW>
-14.5596

>  <SCORE.INTER.norm>
-0.60562

>  <SCORE.INTRA>
0

>  <SCORE.INTRA.DIHEDRAL>
0

>  <SCORE.INTRA.DIHEDRAL.0>
0

>  <SCORE.INTRA.POLAR>
0

>  <SCORE.INTRA.POLAR.0>
0

>  <SCORE.INTRA.REPUL>
0

>  <SCORE.INTRA.REPUL.0>
0

>  <SCORE.INTRA.SOLV>
0

>  <SCORE.INTRA.SOLV.lig_0>
-47.9788

>  <SCORE.INTRA.VDW>
0

>  <SCORE.INTRA.VDW.0>
0

>  <SCORE.INTRA.norm>
0

>  <SCORE.RESTR>
0

>  <SCORE.RESTR.CAVITY>
0

>  <SCORE.RESTR.norm>
0

>  <SCORE.SYSTEM>
0

>  <SCORE.SYSTEM.CONST>
0

>  <SCORE.SYSTEM.DIHEDRAL>
0

>  <SCORE.SYSTEM.SOLV>
0

>  <SCORE.SYSTEM.norm>
0

>  <SCORE.heavy>
10

>  <SCORE.norm>
-0.60562

>  <RMSD>
2.056

$$$$
ligand
 OpenBabel02271912133D
libRbt.so/2013.1/901 2013/11/27
 10 11  0  0  0  0  0  0  0  0999 V2000
   11.6803   -1.1145    9.5079 C   0  0  1  0  0  0  0  0  0  0  0  0
   12.1163   -3.4914    7.0966 C   0  0  2  0  0  0  0  0  0  0  0  0
   11.4395   -1.5276    7.4605 C   0  0  2  0  0  0  0  0  0  0  0  0
   11.6862   -0.4959   10.6942 N   0  0  0  0  0  0  0  0  0  0  0  0
   12.6278   -4.7107    7.2340 N   0  0  0  0  0  0  0  0  0  0  0  0
   11.6820   -2.9836    5.9493 N   0  0  0  0  0  0  0  0  0  0  0  0
   11.2487   -0.5734    8.3741 N   0  0  0  0  0  0  0  0  0  0  0  0
   12.1247   -2.3634    9.2760 N   0  0  0  0  0  0  0  0  0  0  0  0
   11.2785   -1.8316    6.1635 N   0  0  0  0  0  0  0  0  0  0  0  0
   11.9787   -2.5931    8.0649 N   0  0  1  0  0  0  0  0  0  0  0  0
  1  4  1  6  0  0  0
  1  8  1  0  0  0  0
  1  7  1  0  0  0  0
  2  5  1  6  0  0  0
  2  6  1  0  0  0  0
  2 10  1  0  0  0  0
  3  7  1  1  0  0  0
  3 10  1  0  0  0  0
  3  9  1  0  0  0  0
  6  9  1  0  0  0  0
 10  8  1  1  0  0  0
M  END
>  <CHROM.1>
11.78807802,-2.17405420,7.98033300,-1.79482226,1.15579663,-2.05397134

>  <Name>
ligand

>  <RI>
0

>  <Rbt.Current_Directory>
/home/itssahil/PROJECTS/Mol_Feturizer/Test_systems_manuscript/rnas/2xnw

>  <Rbt.Executable>
rbdock ($Id: //depot/dev/client3/rdock/2013.1/src/exe/rbdock.cxx#4 $)

>  <Rbt.Library>
libRbt.so (2013.1, Build901 2013/11/27)

>  <Rbt.Parameter_File>
/export/apps/rDock/src/rDock_2013.1_src/data/scripts/dock_solv.prm

>  <Rbt.Receptor>
prm/pocket_docking_6.prm

>  <SCORE>
-6.06152

>  <SCORE.INTER>
-6.06152

>  <SCORE.INTER.CONST>
1

>  <SCORE.INTER.POLAR>
0

>  <SCORE.INTER.ROT>
0

>  <SCORE.INTER.SOLV>
20.2641

>  <SCORE.INTER.VDW>
-14.3957

>  <SCORE.INTER.norm>
-0.606152

>  <SCORE.INTRA>
0

>  <SCORE.INTRA.DIHEDRAL>
0

>  <SCORE.INTRA.DIHEDRAL.0>
0

>  <SCORE.INTRA.POLAR>
0

>  <SCORE.INTRA.POLAR.0>
0

>  <SCORE.INTRA.REPUL>
0

>  <SCORE.INTRA.REPUL.0>
0

>  <SCORE.INTRA.SOLV>
0

>  <SCORE.INTRA.SOLV.lig_0>
-47.9788

>  <SCORE.INTRA.VDW>
0

>  <SCORE.INTRA.VDW.0>
0

>  <SCORE.INTRA.norm>
0

>  <SCORE.RESTR>
0

>  <SCORE.RESTR.CAVITY>
0

>  <SCORE.RESTR.norm>
0

>  <SCORE.SYSTEM>
0

>  <SCORE.SYSTEM.CONST>
0

>  <SCORE.SYSTEM.DIHEDRAL>
0

>  <SCORE.SYSTEM.SOLV>
0

>  <SCORE.SYSTEM.norm>
0

>  <SCORE.heavy>
10

>  <SCORE.norm>
-0.606152

>  <RMSD>
2.057

$$$$
ligand
 OpenBabel02271912133D
libRbt.so/2013.1/901 2013/11/27
 10 11  0  0  0  0  0  0  0  0999 V2000
   11.6819   -1.1485    9.5512 C   0  0  1  0  0  0  0  0  0  0  0  0
   12.1447   -3.4971    7.1173 C   0  0  2  0  0  0  0  0  0  0  0  0
   11.4273   -1.5521    7.5036 C   0  0  2  0  0  0  0  0  0  0  0  0
   11.6871   -0.5386   10.7421 N   0  0  0  0  0  0  0  0  0  0  0  0
   12.6855   -4.7053    7.2398 N   0  0  0  0  0  0  0  0  0  0  0  0
   11.6859   -2.9911    5.9788 N   0  0  0  0  0  0  0  0  0  0  0  0
   11.2251   -0.6092    8.4265 N   0  0  0  0  0  0  0  0  0  0  0  0
   12.1521   -2.3851    9.3050 N   0  0  0  0  0  0  0  0  0  0  0  0
   11.2586   -1.8502    6.2062 N   0  0  0  0  0  0  0  0  0  0  0  0
   11.9976   -2.6093    8.0939 N   0  0  1  0  0  0  0  0  0  0  0  0
  1  4  1  6  0  0  0
  1  8  1  0  0  0  0
  1  7  1  0  0  0  0
  2  5  1  6  0  0  0
  2  6  1  0  0  0  0
  2 10  1  0  0  0  0
  3  7  1  1  0  0  0
  3 10  1  0  0  0  0
  3  9  1  0  0  0  0
  6  9  1  0  0  0  0
 10  8  1  1  0  0  0
M  END
>  <CHROM.1>
11.79651426,-2.19411843,8.01459674,-1.79615114,1.13024017,-2.04533800

>  <Name>
ligand

>  <RI>
0

>  <Rbt.Current_Directory>
/home/itssahil/PROJECTS/Mol_Feturizer/Test_systems_manuscript/rnas/2xnw

>  <Rbt.Executable>
rbdock ($Id: //depot/dev/client3/rdock/2013.1/src/exe/rbdock.cxx#4 $)

>  <Rbt.Library>
libRbt.so (2013.1, Build901 2013/11/27)

>  <Rbt.Parameter_File>
/export/apps/rDock/src/rDock_2013.1_src/data/scripts/dock_solv.prm

>  <Rbt.Receptor>
prm/blind_docking_20.prm

>  <SCORE>
-6.07328

>  <SCORE.INTER>
-6.07328

>  <SCORE.INTER.CONST>
1

>  <SCORE.INTER.POLAR>
0

>  <SCORE.INTER.ROT>
0

>  <SCORE.INTER.SOLV>
20.0272

>  <SCORE.INTER.VDW>
-14.3246

>  <SCORE.INTER.norm>
-0.607328

>  <SCORE.INTRA>
0

>  <SCORE.INTRA.DIHEDRAL>
0

>  <SCORE.INTRA.DIHEDRAL.0>
0

>  <SCORE.INTRA.POLAR>
0

>  <SCORE.INTRA.POLAR.0>
0

>  <SCORE.INTRA.REPUL>
0

>  <SCORE.INTRA.REPUL.0>
0

>  <SCORE.INTRA.SOLV>
0

>  <SCORE.INTRA.SOLV.lig_0>
-47.9788

>  <SCORE.INTRA.VDW>
0

>  <SCORE.INTRA.VDW.0>
0

>  <SCORE.INTRA.norm>
0

>  <SCORE.RESTR>
0

>  <SCORE.RESTR.CAVITY>
0

>  <SCORE.RESTR.norm>
0

>  <SCORE.SYSTEM>
0

>  <SCORE.SYSTEM.CONST>
0

>  <SCORE.SYSTEM.DIHEDRAL>
0

>  <SCORE.SYSTEM.SOLV>
0

>  <SCORE.SYSTEM.norm>
0

>  <SCORE.heavy>
10

>  <SCORE.norm>
-0.607328

>  <RMSD>
2.058

$$$$
ligand
 OpenBabel02271912133D
libRbt.so/2013.1/901 2013/11/27
 10 11  0  0  0  0  0  0  0  0999 V2000
   11.6719   -1.1398    9.5641 C   0  0  1  0  0  0  0  0  0  0  0  0
   12.0157   -3.5356    7.1565 C   0  0  2  0  0  0  0  0  0  0  0  0
   11.4536   -1.5342    7.5105 C   0  0  2  0  0  0  0  0  0  0  0  0
   11.6885   -0.5246   10.7520 N   0  0  0  0  0  0  0  0  0  0  0  0
   12.4475   -4.7845    7.3022 N   0  0  0  0  0  0  0  0  0  0  0  0
   11.6404   -3.0002    6.0010 N   0  0  0  0  0  0  0  0  0  0  0  0
   11.3011   -0.5713    8.4222 N   0  0  0  0  0  0  0  0  0  0  0  0
   12.0434   -2.4136    9.3389 N   0  0  0  0  0  0  0  0  0  0  0  0
   11.3042   -1.8257    6.2092 N   0  0  0  0  0  0  0  0  0  0  0  0
   11.9116   -2.6320    8.1241 N   0  0  1  0  0  0  0  0  0  0  0  0
  1  4  1  6  0  0  0
  1  8  1  0  0  0  0
  1  7  1  0  0  0  0
  2  5  1  6  0  0  0
  2  6  1  0  0  0  0
  2 10  1  0  0  0  0
  3  7  1  1  0  0  0
  3 10  1  0  0  0  0
  3  9  1  0  0  0  0
  6  9  1  0  0  0  0
 10  8  1  1  0  0  0
M  END
>  <CHROM.1>
11.74931595,-2.20178067,8.03634096,-1.77083278,1.22136719,-2.07403231

>  <Name>
ligand

>  <RI>
0

>  <Rbt.Current_Directory>
/home/itssahil/PROJECTS/Mol_Feturizer/Test_systems_manuscript/rnas/2xnw

>  <Rbt.Executable>
rbdock ($Id: //depot/dev/client3/rdock/2013.1/src/exe/rbdock.cxx#4 $)

>  <Rbt.Library>
libRbt.so (2013.1, Build901 2013/11/27)

>  <Rbt.Parameter_File>
/export/apps/rDock/src/rDock_2013.1_src/data/scripts/dock_solv.prm

>  <Rbt.Receptor>
prm/pocket_docking_5.prm

>  <SCORE>
-6.0366

>  <SCORE.INTER>
-6.0366

>  <SCORE.INTER.CONST>
1

>  <SCORE.INTER.POLAR>
0

>  <SCORE.INTER.ROT>
0

>  <SCORE.INTER.SOLV>
20.7536

>  <SCORE.INTER.VDW>
-14.5423

>  <SCORE.INTER.norm>
-0.60366

>  <SCORE.INTRA>
0

>  <SCORE.INTRA.DIHEDRAL>
0

>  <SCORE.INTRA.DIHEDRAL.0>
0

>  <SCORE.INTRA.POLAR>
0

>  <SCORE.INTRA.POLAR.0>
0

>  <SCORE.INTRA.REPUL>
0

>  <SCORE.INTRA.REPUL.0>
0

>  <SCORE.INTRA.SOLV>
0

>  <SCORE.INTRA.SOLV.lig_0>
-47.9788

>  <SCORE.INTRA.VDW>
0

>  <SCORE.INTRA.VDW.0>
0

>  <SCORE.INTRA.norm>
0

>  <SCORE.RESTR>
0

>  <SCORE.RESTR.CAVITY>
0

>  <SCORE.RESTR.norm>
0

>  <SCORE.SYSTEM>
0

>  <SCORE.SYSTEM.CONST>
0

>  <SCORE.SYSTEM.DIHEDRAL>
0

>  <SCORE.SYSTEM.SOLV>
0

>  <SCORE.SYSTEM.norm>
0

>  <SCORE.heavy>
10

>  <SCORE.norm>
-0.60366

>  <RMSD>
2.059

$$$$
ligand
 OpenBabel02271912133D
libRbt.so/2013.1/901 2013/11/27
 10 11  0  0  0  0  0  0  0  0999 V2000
   11.6614   -1.1376    9.4869 C   0  0  1  0  0  0  0  0  0  0  0  0
   12.0782   -3.5142    7.0718 C   0  0  2  0  0  0  0  0  0  0  0  0
   11.4275   -1.5417    7.4369 C   0  0  2  0  0  0  0  0  0  0  0  0
   11.6686   -0.5224   10.6749 N   0  0  0  0  0  0  0  0  0  0  0  0
   12.5711   -4.7411    7.2090 N   0  0  0  0  0  0  0  0  0  0  0  0
   11.6585   -2.9971    5.9232 N   0  0  0  0  0  0  0  0  0  0  0  0
   11.2448   -0.5873    8.3519 N   0  0  0  0  0  0  0  0  0  0  0  0
   12.0890   -2.3923    9.2543 N   0  0  0  0  0  0  0  0  0  0  0  0
   11.2704   -1.8399    6.1380 N   0  0  0  0  0  0  0  0  0  0  0  0
   11.9475   -2.6166    8.0417 N   0  0  1  0  0  0  0  0  0  0  0  0
  1  4  1  6  0  0  0
  1  8  1  0  0  0  0
  1  7  1  0  0  0  0
  2  5  1  6  0  0  0
  2  6  1  0  0  0  0
  2 10  1  0  0  0  0
  3  7  1  1  0  0  0
  3 10  1  0  0  0  0
  3  9  1  0  0  0  0
  6  9  1  0  0  0  0
 10  8  1  1  0  0  0
M  END
>  <CHROM.1>
11.76345113,-2.19458688,7.95708444,-1.79196634,1.17155722,-2.05387495

>  <Name>
ligand

>  <RI>
0

>  <Rbt.Current_Directory>
/home/itssahil/PROJECTS/Mol_Feturizer/Test_systems_manuscript/rnas/2xnw

>  <Rbt.Executable>
rbdock ($Id: //depot/dev/client3/rdock/2013.1/src/exe/rbdock.cxx#4 $)

>  <Rbt.Library>
libRbt.so (2013.1, Build901 2013/11/27)

>  <Rbt.Parameter_File>
/export/apps/rDock/src/rDock_2013.1_src/data/scripts/dock_solv.prm

>  <Rbt.Receptor>
prm/pocket_docking_5.prm

>  <SCORE>
-6.09575

>  <SCORE.INTER>
-6.09575

>  <SCORE.INTER.CONST>
1

>  <SCORE.INTER.POLAR>
0

>  <SCORE.INTER.ROT>
0

>  <SCORE.INTER.SOLV>
20.4676

>  <SCORE.INTER.VDW>
-14.4864

>  <SCORE.INTER.norm>
-0.609575

>  <SCORE.INTRA>
0

>  <SCORE.INTRA.DIHEDRAL>
0

>  <SCORE.INTRA.DIHEDRAL.0>
0

>  <SCORE.INTRA.POLAR>
0

>  <SCORE.INTRA.POLAR.0>
0

>  <SCORE.INTRA.REPUL>
0

>  <SCORE.INTRA.REPUL.0>
0

>  <SCORE.INTRA.SOLV>
0

>  <SCORE.INTRA.SOLV.lig_0>
-47.9788

>  <SCORE.INTRA.VDW>
0

>  <SCORE.INTRA.VDW.0>
0

>  <SCORE.INTRA.norm>
0

>  <SCORE.RESTR>
0

>  <SCORE.RESTR.CAVITY>
0

>  <SCORE.RESTR.norm>
0

>  <SCORE.SYSTEM>
0

>  <SCORE.SYSTEM.CONST>
0

>  <SCORE.SYSTEM.DIHEDRAL>
0

>  <SCORE.SYSTEM.SOLV>
0

>  <SCORE.SYSTEM.norm>
0

>  <SCORE.heavy>
10

>  <SCORE.norm>
-0.609575

>  <RMSD>
2.059

$$$$
ligand
 OpenBabel02271912133D
libRbt.so/2013.1/901 2013/11/27
 10 11  0  0  0  0  0  0  0  0999 V2000
   11.6820   -1.1346    9.4841 C   0  0  1  0  0  0  0  0  0  0  0  0
   12.0914   -3.5190    7.0755 C   0  0  2  0  0  0  0  0  0  0  0  0
   11.4470   -1.5435    7.4353 C   0  0  2  0  0  0  0  0  0  0  0  0
   11.6912   -0.5162   10.6705 N   0  0  0  0  0  0  0  0  0  0  0  0
   12.5805   -4.7471    7.2161 N   0  0  0  0  0  0  0  0  0  0  0  0
   11.6735   -3.0037    5.9255 N   0  0  0  0  0  0  0  0  0  0  0  0
   11.2672   -0.5861    8.3476 N   0  0  0  0  0  0  0  0  0  0  0  0
   12.1058   -2.3912    9.2550 N   0  0  0  0  0  0  0  0  0  0  0  0
   11.2890   -1.8447    6.1372 N   0  0  0  0  0  0  0  0  0  0  0  0
   11.9635   -2.6184    8.0430 N   0  0  1  0  0  0  0  0  0  0  0  0
  1  4  1  6  0  0  0
  1  8  1  0  0  0  0
  1  7  1  0  0  0  0
  2  5  1  6  0  0  0
  2  6  1  0  0  0  0
  2 10  1  0  0  0  0
  3  7  1  1  0  0  0
  3 10  1  0  0  0  0
  3  9  1  0  0  0  0
  6  9  1  0  0  0  0
 10  8  1  1  0  0  0
M  END
>  <CHROM.1>
11.78085734,-2.19602595,7.95721403,-1.78829073,1.17436023,-2.05995682

>  <Name>
ligand

>  <RI>
0

>  <Rbt.Current_Directory>
/home/itssahil/PROJECTS/Mol_Feturizer/Test_systems_manuscript/rnas/2xnw

>  <Rbt.Executable>
rbdock ($Id: //depot/dev/client3/rdock/2013.1/src/exe/rbdock.cxx#4 $)

>  <Rbt.Library>
libRbt.so (2013.1, Build901 2013/11/27)

>  <Rbt.Parameter_File>
/export/apps/rDock/src/rDock_2013.1_src/data/scripts/dock_solv.prm

>  <Rbt.Receptor>
prm/blind_docking_20.prm

>  <SCORE>
-6.07619

>  <SCORE.INTER>
-6.07619

>  <SCORE.INTER.CONST>
1

>  <SCORE.INTER.POLAR>
0

>  <SCORE.INTER.ROT>
0

>  <SCORE.INTER.SOLV>
20.4092

>  <SCORE.INTER.VDW>
-14.4539

>  <SCORE.INTER.norm>
-0.607619

>  <SCORE.INTRA>
0

>  <SCORE.INTRA.DIHEDRAL>
0

>  <SCORE.INTRA.DIHEDRAL.0>
0

>  <SCORE.INTRA.POLAR>
0

>  <SCORE.INTRA.POLAR.0>
0

>  <SCORE.INTRA.REPUL>
0

>  <SCORE.INTRA.REPUL.0>
0

>  <SCORE.INTRA.SOLV>
0

>  <SCORE.INTRA.SOLV.lig_0>
-47.9788

>  <SCORE.INTRA.VDW>
0

>  <SCORE.INTRA.VDW.0>
0

>  <SCORE.INTRA.norm>
0

>  <SCORE.RESTR>
0

>  <SCORE.RESTR.CAVITY>
0

>  <SCORE.RESTR.norm>
0

>  <SCORE.SYSTEM>
0

>  <SCORE.SYSTEM.CONST>
0

>  <SCORE.SYSTEM.DIHEDRAL>
0

>  <SCORE.SYSTEM.SOLV>
0

>  <SCORE.SYSTEM.norm>
0

>  <SCORE.heavy>
10

>  <SCORE.norm>
-0.607619

>  <RMSD>
2.060

$$$$
ligand
 OpenBabel02271912133D
libRbt.so/2013.1/901 2013/11/27
 10 11  0  0  0  0  0  0  0  0999 V2000
   11.6444   -1.1392    9.5120 C   0  0  1  0  0  0  0  0  0  0  0  0
   12.1262   -3.5029    7.0964 C   0  0  2  0  0  0  0  0  0  0  0  0
   11.4135   -1.5524    7.4636 C   0  0  2  0  0  0  0  0  0  0  0  0
   11.6377   -0.5230   10.6996 N   0  0  0  0  0  0  0  0  0  0  0  0
   12.6595   -4.7130    7.2320 N   0  0  0  0  0  0  0  0  0  0  0  0
   11.6841   -3.0007    5.9497 N   0  0  0  0  0  0  0  0  0  0  0  0
   11.2044   -0.6036    8.3788 N   0  0  0  0  0  0  0  0  0  0  0  0
   12.1116   -2.3794    9.2782 N   0  0  0  0  0  0  0  0  0  0  0  0
   11.2597   -1.8566    6.1657 N   0  0  0  0  0  0  0  0  0  0  0  0
   11.9712   -2.6092    8.0664 N   0  0  1  0  0  0  0  0  0  0  0  0
  1  4  1  6  0  0  0
  1  8  1  0  0  0  0
  1  7  1  0  0  0  0
  2  5  1  6  0  0  0
  2  6  1  0  0  0  0
  2 10  1  0  0  0  0
  3  7  1  1  0  0  0
  3 10  1  0  0  0  0
  3  9  1  0  0  0  0
  6  9  1  0  0  0  0
 10  8  1  1  0  0  0
M  END
>  <CHROM.1>
11.77316280,-2.19349366,7.98246991,-1.81749079,1.14024600,-2.03126382

>  <Name>
ligand

>  <RI>
0

>  <Rbt.Current_Directory>
/home/itssahil/PROJECTS/Mol_Feturizer/Test_systems_manuscript/rnas/2xnw

>  <Rbt.Executable>
rbdock ($Id: //depot/dev/client3/rdock/2013.1/src/exe/rbdock.cxx#4 $)

>  <Rbt.Library>
libRbt.so (2013.1, Build901 2013/11/27)

>  <Rbt.Parameter_File>
/export/apps/rDock/src/rDock_2013.1_src/data/scripts/dock_solv.prm

>  <Rbt.Receptor>
prm/pocket_docking_7.prm

>  <SCORE>
-6.06138

>  <SCORE.INTER>
-6.06138

>  <SCORE.INTER.CONST>
1

>  <SCORE.INTER.POLAR>
0

>  <SCORE.INTER.ROT>
0

>  <SCORE.INTER.SOLV>
20.1715

>  <SCORE.INTER.VDW>
-14.3647

>  <SCORE.INTER.norm>
-0.606138

>  <SCORE.INTRA>
0

>  <SCORE.INTRA.DIHEDRAL>
0

>  <SCORE.INTRA.DIHEDRAL.0>
0

>  <SCORE.INTRA.POLAR>
0

>  <SCORE.INTRA.POLAR.0>
0

>  <SCORE.INTRA.REPUL>
0

>  <SCORE.INTRA.REPUL.0>
0

>  <SCORE.INTRA.SOLV>
0

>  <SCORE.INTRA.SOLV.lig_0>
-47.9788

>  <SCORE.INTRA.VDW>
0

>  <SCORE.INTRA.VDW.0>
0

>  <SCORE.INTRA.norm>
0

>  <SCORE.RESTR>
0

>  <SCORE.RESTR.CAVITY>
0

>  <SCORE.RESTR.norm>
0

>  <SCORE.SYSTEM>
0

>  <SCORE.SYSTEM.CONST>
0

>  <SCORE.SYSTEM.DIHEDRAL>
0

>  <SCORE.SYSTEM.SOLV>
0

>  <SCORE.SYSTEM.norm>
0

>  <SCORE.heavy>
10

>  <SCORE.norm>
-0.606138

>  <RMSD>
2.060

$$$$
ligand
 OpenBabel02271912133D
libRbt.so/2013.1/901 2013/11/27
 10 11  0  0  0  0  0  0  0  0999 V2000
   11.7010   -1.1494    9.5402 C   0  0  1  0  0  0  0  0  0  0  0  0
   12.1494   -3.5137    7.1188 C   0  0  2  0  0  0  0  0  0  0  0  0
   11.4491   -1.5602    7.4937 C   0  0  2  0  0  0  0  0  0  0  0  0
   11.7081   -0.5340   10.7282 N   0  0  0  0  0  0  0  0  0  0  0  0
   12.6784   -4.7264    7.2486 N   0  0  0  0  0  0  0  0  0  0  0  0
   11.6989   -3.0088    5.9765 N   0  0  0  0  0  0  0  0  0  0  0  0
   11.2529   -0.6111    8.4115 N   0  0  0  0  0  0  0  0  0  0  0  0
   12.1602   -2.3916    9.3012 N   0  0  0  0  0  0  0  0  0  0  0  0
   11.2817   -1.8629    6.1971 N   0  0  0  0  0  0  0  0  0  0  0  0
   12.0076   -2.6200    8.0907 N   0  0  1  0  0  0  0  0  0  0  0  0
  1  4  1  6  0  0  0
  1  8  1  0  0  0  0
  1  7  1  0  0  0  0
  2  5  1  6  0  0  0
  2  6  1  0  0  0  0
  2 10  1  0  0  0  0
  3  7  1  1  0  0  0
  3 10  1  0  0  0  0
  3  9  1  0  0  0  0
  6  9  1  0  0  0  0
 10  8  1  1  0  0  0
M  END
>  <CHROM.1>
11.81061705,-2.20332364,8.00885490,-1.79259248,1.14007077,-2.05325130

>  <Name>
ligand

>  <RI>
0

>  <Rbt.Current_Directory>
/home/itssahil/PROJECTS/Mol_Feturizer/Test_systems_manuscript/rnas/2xnw

>  <Rbt.Executable>
rbdock ($Id: //depot/dev/client3/rdock/2013.1/src/exe/rbdock.cxx#4 $)

>  <Rbt.Library>
libRbt.so (2013.1, Build901 2013/11/27)

>  <Rbt.Parameter_File>
/export/apps/rDock/src/rDock_2013.1_src/data/scripts/dock_solv.prm

>  <Rbt.Receptor>
prm/pocket_docking_4.prm

>  <SCORE>
-6.05686

>  <SCORE.INTER>
-6.05686

>  <SCORE.INTER.CONST>
1

>  <SCORE.INTER.POLAR>
0

>  <SCORE.INTER.ROT>
0

>  <SCORE.INTER.SOLV>
20.0056

>  <SCORE.INTER.VDW>
-14.3064

>  <SCORE.INTER.norm>
-0.605686

>  <SCORE.INTRA>
0

>  <SCORE.INTRA.DIHEDRAL>
0

>  <SCORE.INTRA.DIHEDRAL.0>
0

>  <SCORE.INTRA.POLAR>
0

>  <SCORE.INTRA.POLAR.0>
0

>  <SCORE.INTRA.REPUL>
0

>  <SCORE.INTRA.REPUL.0>
0

>  <SCORE.INTRA.SOLV>
0

>  <SCORE.INTRA.SOLV.lig_0>
-47.9788

>  <SCORE.INTRA.VDW>
0

>  <SCORE.INTRA.VDW.0>
0

>  <SCORE.INTRA.norm>
0

>  <SCORE.RESTR>
0

>  <SCORE.RESTR.CAVITY>
0

>  <SCORE.RESTR.norm>
0

>  <SCORE.SYSTEM>
0

>  <SCORE.SYSTEM.CONST>
0

>  <SCORE.SYSTEM.DIHEDRAL>
0

>  <SCORE.SYSTEM.SOLV>
0

>  <SCORE.SYSTEM.norm>
0

>  <SCORE.heavy>
10

>  <SCORE.norm>
-0.605686

>  <RMSD>
2.061

$$$$
ligand
 OpenBabel02271912133D
libRbt.so/2013.1/901 2013/11/27
 10 11  0  0  0  0  0  0  0  0999 V2000
   11.7069   -1.1472    9.5317 C   0  0  1  0  0  0  0  0  0  0  0  0
   12.1541   -3.5170    7.1154 C   0  0  2  0  0  0  0  0  0  0  0  0
   11.4367   -1.5696    7.4900 C   0  0  2  0  0  0  0  0  0  0  0  0
   11.7206   -0.5266   10.7169 N   0  0  0  0  0  0  0  0  0  0  0  0
   12.6979   -4.7232    7.2445 N   0  0  0  0  0  0  0  0  0  0  0  0
   11.6854   -3.0219    5.9761 N   0  0  0  0  0  0  0  0  0  0  0  0
   11.2403   -0.6187    8.4058 N   0  0  0  0  0  0  0  0  0  0  0  0
   12.1771   -2.3853    9.2929 N   0  0  0  0  0  0  0  0  0  0  0  0
   11.2581   -1.8798    6.1966 N   0  0  0  0  0  0  0  0  0  0  0  0
   12.0134   -2.6206    8.0851 N   0  0  1  0  0  0  0  0  0  0  0  0
  1  4  1  6  0  0  0
  1  8  1  0  0  0  0
  1  7  1  0  0  0  0
  2  5  1  6  0  0  0
  2  6  1  0  0  0  0
  2 10  1  0  0  0  0
  3  7  1  1  0  0  0
  3 10  1  0  0  0  0
  3  9  1  0  0  0  0
  6  9  1  0  0  0  0
 10  8  1  1  0  0  0
M  END
>  <CHROM.1>
11.81098529,-2.20647444,8.00371436,-1.78144624,1.12512756,-2.06764553

>  <Name>
ligand

>  <RI>
0

>  <Rbt.Current_Directory>
/home/itssahil/PROJECTS/Mol_Feturizer/Test_systems_manuscript/rnas/2xnw

>  <Rbt.Executable>
rbdock ($Id: //depot/dev/client3/rdock/2013.1/src/exe/rbdock.cxx#4 $)

>  <Rbt.Library>
libRbt.so (2013.1, Build901 2013/11/27)

>  <Rbt.Parameter_File>
/export/apps/rDock/src/rDock_2013.1_src/data/scripts/dock_solv.prm

>  <Rbt.Receptor>
prm/blind_docking_80.prm

>  <SCORE>
-6.07821

>  <SCORE.INTER>
-6.07821

>  <SCORE.INTER.CONST>
1

>  <SCORE.INTER.POLAR>
0

>  <SCORE.INTER.ROT>
0

>  <SCORE.INTER.SOLV>
19.9484

>  <SCORE.INTER.VDW>
-14.3016

>  <SCORE.INTER.norm>
-0.607821

>  <SCORE.INTRA>
0

>  <SCORE.INTRA.DIHEDRAL>
0

>  <SCORE.INTRA.DIHEDRAL.0>
0

>  <SCORE.INTRA.POLAR>
0

>  <SCORE.INTRA.POLAR.0>
0

>  <SCORE.INTRA.REPUL>
0

>  <SCORE.INTRA.REPUL.0>
0

>  <SCORE.INTRA.SOLV>
0

>  <SCORE.INTRA.SOLV.lig_0>
-47.9788

>  <SCORE.INTRA.VDW>
0

>  <SCORE.INTRA.VDW.0>
0

>  <SCORE.INTRA.norm>
0

>  <SCORE.RESTR>
0

>  <SCORE.RESTR.CAVITY>
0

>  <SCORE.RESTR.norm>
0

>  <SCORE.SYSTEM>
0

>  <SCORE.SYSTEM.CONST>
0

>  <SCORE.SYSTEM.DIHEDRAL>
0

>  <SCORE.SYSTEM.SOLV>
0

>  <SCORE.SYSTEM.norm>
0

>  <SCORE.heavy>
10

>  <SCORE.norm>
-0.607821

>  <RMSD>
2.063

$$$$
ligand
 OpenBabel02271912133D
libRbt.so/2013.1/901 2013/11/27
 10 11  0  0  0  0  0  0  0  0999 V2000
   12.2773   -2.9365    7.8041 C   0  0  1  0  0  0  0  0  0  0  0  0
   10.1057   -1.3351    5.7126 C   0  0  2  0  0  0  0  0  0  0  0  0
   11.7026   -2.7100    5.7944 C   0  0  2  0  0  0  0  0  0  0  0  0
   12.9013   -3.3403    8.9166 N   0  0  0  0  0  0  0  0  0  0  0  0
    9.1411   -0.4794    6.0356 N   0  0  0  0  0  0  0  0  0  0  0  0
   10.3832   -1.7219    4.4732 N   0  0  0  0  0  0  0  0  0  0  0  0
   12.5721   -3.3523    6.5773 N   0  0  0  0  0  0  0  0  0  0  0  0
   11.2500   -2.0685    7.7560 N   0  0  0  0  0  0  0  0  0  0  0  0
   11.3255   -2.5254    4.5199 N   0  0  0  0  0  0  0  0  0  0  0  0
   10.9199   -1.9459    6.5656 N   0  0  1  0  0  0  0  0  0  0  0  0
  1  4  1  1  0  0  0
  1  8  1  0  0  0  0
  1  7  1  0  0  0  0
  2  5  1  1  0  0  0
  2  6  1  0  0  0  0
  2 10  1  0  0  0  0
  3  7  1  6  0  0  0
  3 10  1  0  0  0  0
  3  9  1  0  0  0  0
  6  9  1  0  0  0  0
 10  8  1  6  0  0  0
M  END
>  <CHROM.1>
11.25321984,-2.23771016,6.41456793,0.68092452,-0.70431084,1.44958772

>  <Name>
ligand

>  <RI>
0

>  <Rbt.Current_Directory>
/home/itssahil/PROJECTS/Mol_Feturizer/Test_systems_manuscript/rnas/2xnw

>  <Rbt.Executable>
rbdock ($Id: //depot/dev/client3/rdock/2013.1/src/exe/rbdock.cxx#4 $)

>  <Rbt.Library>
libRbt.so (2013.1, Build901 2013/11/27)

>  <Rbt.Parameter_File>
/export/apps/rDock/src/rDock_2013.1_src/data/scripts/dock_solv.prm

>  <Rbt.Receptor>
prm/blind_docking_80.prm

>  <SCORE>
-5.21629

>  <SCORE.INTER>
-5.21629

>  <SCORE.INTER.CONST>
1

>  <SCORE.INTER.POLAR>
0

>  <SCORE.INTER.ROT>
0

>  <SCORE.INTER.SOLV>
18.8785

>  <SCORE.INTER.VDW>
-13.3704

>  <SCORE.INTER.norm>
-0.521629

>  <SCORE.INTRA>
0

>  <SCORE.INTRA.DIHEDRAL>
0

>  <SCORE.INTRA.DIHEDRAL.0>
0

>  <SCORE.INTRA.POLAR>
0

>  <SCORE.INTRA.POLAR.0>
0

>  <SCORE.INTRA.REPUL>
0

>  <SCORE.INTRA.REPUL.0>
0

>  <SCORE.INTRA.SOLV>
0

>  <SCORE.INTRA.SOLV.lig_0>
-47.9788

>  <SCORE.INTRA.VDW>
0

>  <SCORE.INTRA.VDW.0>
0

>  <SCORE.INTRA.norm>
0

>  <SCORE.RESTR>
0

>  <SCORE.RESTR.CAVITY>
0

>  <SCORE.RESTR.norm>
0

>  <SCORE.SYSTEM>
0

>  <SCORE.SYSTEM.CONST>
0

>  <SCORE.SYSTEM.DIHEDRAL>
0

>  <SCORE.SYSTEM.SOLV>
0

>  <SCORE.SYSTEM.norm>
0

>  <SCORE.heavy>
10

>  <SCORE.norm>
-0.521629

>  <RMSD>
2.491

$$$$
ligand
 OpenBabel02271912133D
libRbt.so/2013.1/901 2013/11/27
 10 11  0  0  0  0  0  0  0  0999 V2000
   12.2825   -2.9335    7.8024 C   0  0  1  0  0  0  0  0  0  0  0  0
   10.1044   -1.3323    5.7176 C   0  0  2  0  0  0  0  0  0  0  0  0
   11.7036   -2.7049    5.7942 C   0  0  2  0  0  0  0  0  0  0  0  0
   12.9092   -3.3381    8.9131 N   0  0  0  0  0  0  0  0  0  0  0  0
    9.1391   -0.4785    6.0437 N   0  0  0  0  0  0  0  0  0  0  0  0
   10.3801   -1.7168    4.4771 N   0  0  0  0  0  0  0  0  0  0  0  0
   12.5756   -3.3469    6.5745 N   0  0  0  0  0  0  0  0  0  0  0  0
   11.2538   -2.0670    7.7576 N   0  0  0  0  0  0  0  0  0  0  0  0
   11.3237   -2.5189    4.5207 N   0  0  0  0  0  0  0  0  0  0  0  0
   10.9212   -1.9431    6.5681 N   0  0  1  0  0  0  0  0  0  0  0  0
  1  4  1  1  0  0  0
  1  8  1  0  0  0  0
  1  7  1  0  0  0  0
  2  5  1  1  0  0  0
  2  6  1  0  0  0  0
  2 10  1  0  0  0  0
  3  7  1  6  0  0  0
  3 10  1  0  0  0  0
  3  9  1  0  0  0  0
  6  9  1  0  0  0  0
 10  8  1  6  0  0  0
M  END
>  <CHROM.1>
11.25465819,-2.23417954,6.41595227,0.67864430,-0.70255366,1.44963158

>  <Name>
ligand

>  <RI>
0

>  <Rbt.Current_Directory>
/home/itssahil/PROJECTS/Mol_Feturizer/Test_systems_manuscript/rnas/2xnw

>  <Rbt.Executable>
rbdock ($Id: //depot/dev/client3/rdock/2013.1/src/exe/rbdock.cxx#4 $)

>  <Rbt.Library>
libRbt.so (2013.1, Build901 2013/11/27)

>  <Rbt.Parameter_File>
/export/apps/rDock/src/rDock_2013.1_src/data/scripts/dock_solv.prm

>  <Rbt.Receptor>
prm/blind_docking_20.prm

>  <SCORE>
-5.22139

>  <SCORE.INTER>
-5.22139

>  <SCORE.INTER.CONST>
1

>  <SCORE.INTER.POLAR>
0

>  <SCORE.INTER.ROT>
0

>  <SCORE.INTER.SOLV>
18.8809

>  <SCORE.INTER.VDW>
-13.3746

>  <SCORE.INTER.norm>
-0.522139

>  <SCORE.INTRA>
0

>  <SCORE.INTRA.DIHEDRAL>
0

>  <SCORE.INTRA.DIHEDRAL.0>
0

>  <SCORE.INTRA.POLAR>
0

>  <SCORE.INTRA.POLAR.0>
0

>  <SCORE.INTRA.REPUL>
0

>  <SCORE.INTRA.REPUL.0>
0

>  <SCORE.INTRA.SOLV>
0

>  <SCORE.INTRA.SOLV.lig_0>
-47.9788

>  <SCORE.INTRA.VDW>
0

>  <SCORE.INTRA.VDW.0>
0

>  <SCORE.INTRA.norm>
0

>  <SCORE.RESTR>
0

>  <SCORE.RESTR.CAVITY>
0

>  <SCORE.RESTR.norm>
0

>  <SCORE.SYSTEM>
0

>  <SCORE.SYSTEM.CONST>
0

>  <SCORE.SYSTEM.DIHEDRAL>
0

>  <SCORE.SYSTEM.SOLV>
0

>  <SCORE.SYSTEM.norm>
0

>  <SCORE.heavy>
10

>  <SCORE.norm>
-0.522139

>  <RMSD>
2.492

$$$$
ligand
 OpenBabel02271912133D
libRbt.so/2013.1/901 2013/11/27
 10 11  0  0  0  0  0  0  0  0999 V2000
   12.2836   -2.9330    7.7588 C   0  0  1  0  0  0  0  0  0  0  0  0
   10.0893   -1.3294    5.6930 C   0  0  2  0  0  0  0  0  0  0  0  0
   11.6926   -2.6978    5.7549 C   0  0  2  0  0  0  0  0  0  0  0  0
   12.9178   -3.3403    8.8642 N   0  0  0  0  0  0  0  0  0  0  0  0
    9.1235   -0.4796    6.0281 N   0  0  0  0  0  0  0  0  0  0  0  0
   10.3589   -1.7081    4.4493 N   0  0  0  0  0  0  0  0  0  0  0  0
   12.5708   -3.3407    6.5276 N   0  0  0  0  0  0  0  0  0  0  0  0
   11.2523   -2.0692    7.7234 N   0  0  0  0  0  0  0  0  0  0  0  0
   11.3050   -2.5078    4.4843 N   0  0  0  0  0  0  0  0  0  0  0  0
   10.9126   -1.9413    6.5363 N   0  0  1  0  0  0  0  0  0  0  0  0
  1  4  1  1  0  0  0
  1  8  1  0  0  0  0
  1  7  1  0  0  0  0
  2  5  1  1  0  0  0
  2  6  1  0  0  0  0
  2 10  1  0  0  0  0
  3  7  1  6  0  0  0
  3 10  1  0  0  0  0
  3  9  1  0  0  0  0
  6  9  1  0  0  0  0
 10  8  1  6  0  0  0
M  END
>  <CHROM.1>
11.24598449,-2.23089593,6.38109214,0.67167163,-0.69914283,1.44917354

>  <Name>
ligand

>  <RI>
0

>  <Rbt.Current_Directory>
/home/itssahil/PROJECTS/Mol_Feturizer/Test_systems_manuscript/rnas/2xnw

>  <Rbt.Executable>
rbdock ($Id: //depot/dev/client3/rdock/2013.1/src/exe/rbdock.cxx#4 $)

>  <Rbt.Library>
libRbt.so (2013.1, Build901 2013/11/27)

>  <Rbt.Parameter_File>
/export/apps/rDock/src/rDock_2013.1_src/data/scripts/dock_solv.prm

>  <Rbt.Receptor>
prm/pocket_docking_7.prm

>  <SCORE>
-5.2079

>  <SCORE.INTER>
-5.2079

>  <SCORE.INTER.CONST>
1

>  <SCORE.INTER.POLAR>
0

>  <SCORE.INTER.ROT>
0

>  <SCORE.INTER.SOLV>
18.6853

>  <SCORE.INTER.VDW>
-13.3004

>  <SCORE.INTER.norm>
-0.52079

>  <SCORE.INTRA>
0

>  <SCORE.INTRA.DIHEDRAL>
0

>  <SCORE.INTRA.DIHEDRAL.0>
0

>  <SCORE.INTRA.POLAR>
0

>  <SCORE.INTRA.POLAR.0>
0

>  <SCORE.INTRA.REPUL>
0

>  <SCORE.INTRA.REPUL.0>
0

>  <SCORE.INTRA.SOLV>
0

>  <SCORE.INTRA.SOLV.lig_0>
-47.9788

>  <SCORE.INTRA.VDW>
0

>  <SCORE.INTRA.VDW.0>
0

>  <SCORE.INTRA.norm>
0

>  <SCORE.RESTR>
0

>  <SCORE.RESTR.CAVITY>
0

>  <SCORE.RESTR.norm>
0

>  <SCORE.SYSTEM>
0

>  <SCORE.SYSTEM.CONST>
0

>  <SCORE.SYSTEM.DIHEDRAL>
0

>  <SCORE.SYSTEM.SOLV>
0

>  <SCORE.SYSTEM.norm>
0

>  <SCORE.heavy>
10

>  <SCORE.norm>
-0.52079

>  <RMSD>
2.523

$$$$
ligand
 OpenBabel02271912133D
libRbt.so/2013.1/901 2013/11/27
 10 11  0  0  0  0  0  0  0  0999 V2000
   12.5105   -4.2962    7.7328 C   0  0  1  0  0  0  0  0  0  0  0  0
   11.0447   -1.3554    6.8065 C   0  0  2  0  0  0  0  0  0  0  0  0
   11.9684   -2.3784    8.4026 C   0  0  2  0  0  0  0  0  0  0  0  0
   12.9980   -5.5411    7.6819 N   0  0  0  0  0  0  0  0  0  0  0  0
   10.5500   -1.0281    5.6169 N   0  0  0  0  0  0  0  0  0  0  0  0
   11.0518   -0.5529    7.8642 N   0  0  0  0  0  0  0  0  0  0  0  0
   12.5435   -3.5135    8.8056 N   0  0  0  0  0  0  0  0  0  0  0  0
   11.9329   -3.6411    6.7090 N   0  0  0  0  0  0  0  0  0  0  0  0
   11.5891   -1.1555    8.8043 N   0  0  0  0  0  0  0  0  0  0  0  0
   11.6201   -2.5113    7.1171 N   0  0  1  0  0  0  0  0  0  0  0  0
  1  4  1  6  0  0  0
  1  8  1  0  0  0  0
  1  7  1  0  0  0  0
  2  5  1  6  0  0  0
  2  6  1  0  0  0  0
  2 10  1  0  0  0  0
  3  7  1  1  0  0  0
  3 10  1  0  0  0  0
  3  9  1  0  0  0  0
  6  9  1  0  0  0  0
 10  8  1  1  0  0  0
M  END
>  <CHROM.1>
11.77820287,-2.59379962,7.54993209,0.41759508,1.10069173,-2.23252811

>  <Name>
ligand

>  <RI>
0

>  <Rbt.Current_Directory>
/home/itssahil/PROJECTS/Mol_Feturizer/Test_systems_manuscript/rnas/2xnw

>  <Rbt.Executable>
rbdock ($Id: //depot/dev/client3/rdock/2013.1/src/exe/rbdock.cxx#4 $)

>  <Rbt.Library>
libRbt.so (2013.1, Build901 2013/11/27)

>  <Rbt.Parameter_File>
/export/apps/rDock/src/rDock_2013.1_src/data/scripts/dock_solv.prm

>  <Rbt.Receptor>
prm/pocket_docking_3.prm

>  <SCORE>
-6.58742

>  <SCORE.INTER>
-6.58742

>  <SCORE.INTER.CONST>
1

>  <SCORE.INTER.POLAR>
0

>  <SCORE.INTER.ROT>
0

>  <SCORE.INTER.SOLV>
15.9617

>  <SCORE.INTER.VDW>
-13.3122

>  <SCORE.INTER.norm>
-0.658742

>  <SCORE.INTRA>
0

>  <SCORE.INTRA.DIHEDRAL>
0

>  <SCORE.INTRA.DIHEDRAL.0>
0

>  <SCORE.INTRA.POLAR>
0

>  <SCORE.INTRA.POLAR.0>
0

>  <SCORE.INTRA.REPUL>
0

>  <SCORE.INTRA.REPUL.0>
0

>  <SCORE.INTRA.SOLV>
0

>  <SCORE.INTRA.SOLV.lig_0>
-47.9788

>  <SCORE.INTRA.VDW>
0

>  <SCORE.INTRA.VDW.0>
0

>  <SCORE.INTRA.norm>
0

>  <SCORE.RESTR>
0

>  <SCORE.RESTR.CAVITY>
0

>  <SCORE.RESTR.norm>
0

>  <SCORE.SYSTEM>
0

>  <SCORE.SYSTEM.CONST>
0

>  <SCORE.SYSTEM.DIHEDRAL>
0

>  <SCORE.SYSTEM.SOLV>
0

>  <SCORE.SYSTEM.norm>
0

>  <SCORE.heavy>
10

>  <SCORE.norm>
-0.658742

>  <RMSD>
2.925

$$$$
ligand
 OpenBabel02271912133D
libRbt.so/2013.1/901 2013/11/27
 10 11  0  0  0  0  0  0  0  0999 V2000
   12.7876   -4.2350    7.7606 C   0  0  1  0  0  0  0  0  0  0  0  0
   11.0379   -1.4235    6.9307 C   0  0  2  0  0  0  0  0  0  0  0  0
   12.0877   -2.3891    8.4840 C   0  0  2  0  0  0  0  0  0  0  0  0
   13.3858   -5.4284    7.6719 N   0  0  0  0  0  0  0  0  0  0  0  0
   10.4881   -1.1192    5.7593 N   0  0  0  0  0  0  0  0  0  0  0  0
   10.9957   -0.6452    8.0055 N   0  0  0  0  0  0  0  0  0  0  0  0
   12.7734   -3.4743    8.8496 N   0  0  0  0  0  0  0  0  0  0  0  0
   12.1291   -3.6153    6.7639 N   0  0  0  0  0  0  0  0  0  0  0  0
   11.6074   -1.2146    8.9206 N   0  0  0  0  0  0  0  0  0  0  0  0
   11.7237   -2.5275    7.2035 N   0  0  1  0  0  0  0  0  0  0  0  0
  1  4  1  6  0  0  0
  1  8  1  0  0  0  0
  1  7  1  0  0  0  0
  2  5  1  6  0  0  0
  2  6  1  0  0  0  0
  2 10  1  0  0  0  0
  3  7  1  1  0  0  0
  3 10  1  0  0  0  0
  3  9  1  0  0  0  0
  6  9  1  0  0  0  0
 10  8  1  1  0  0  0
M  END
>  <CHROM.1>
11.89853008,-2.60385214,7.63092067,0.34542660,1.01303225,-2.14840959

>  <Name>
ligand

>  <RI>
0

>  <Rbt.Current_Directory>
/home/itssahil/PROJECTS/Mol_Feturizer/Test_systems_manuscript/rnas/2xnw

>  <Rbt.Executable>
rbdock ($Id: //depot/dev/client3/rdock/2013.1/src/exe/rbdock.cxx#4 $)

>  <Rbt.Library>
libRbt.so (2013.1, Build901 2013/11/27)

>  <Rbt.Parameter_File>
/export/apps/rDock/src/rDock_2013.1_src/data/scripts/dock_solv.prm

>  <Rbt.Receptor>
prm/pocket_docking_4.prm

>  <SCORE>
-6.63282

>  <SCORE.INTER>
-6.63282

>  <SCORE.INTER.CONST>
1

>  <SCORE.INTER.POLAR>
0

>  <SCORE.INTER.ROT>
0

>  <SCORE.INTER.SOLV>
14.0312

>  <SCORE.INTER.VDW>
-12.6989

>  <SCORE.INTER.norm>
-0.663282

>  <SCORE.INTRA>
0

>  <SCORE.INTRA.DIHEDRAL>
0

>  <SCORE.INTRA.DIHEDRAL.0>
0

>  <SCORE.INTRA.POLAR>
0

>  <SCORE.INTRA.POLAR.0>
0

>  <SCORE.INTRA.REPUL>
0

>  <SCORE.INTRA.REPUL.0>
0

>  <SCORE.INTRA.SOLV>
0

>  <SCORE.INTRA.SOLV.lig_0>
-47.9788

>  <SCORE.INTRA.VDW>
0

>  <SCORE.INTRA.VDW.0>
0

>  <SCORE.INTRA.norm>
0

>  <SCORE.RESTR>
0

>  <SCORE.RESTR.CAVITY>
0

>  <SCORE.RESTR.norm>
0

>  <SCORE.SYSTEM>
0

>  <SCORE.SYSTEM.CONST>
0

>  <SCORE.SYSTEM.DIHEDRAL>
0

>  <SCORE.SYSTEM.SOLV>
0

>  <SCORE.SYSTEM.norm>
0

>  <SCORE.heavy>
10

>  <SCORE.norm>
-0.663282

>  <RMSD>
2.931

$$$$
ligand
 OpenBabel02271912133D
libRbt.so/2013.1/901 2013/11/27
 10 11  0  0  0  0  0  0  0  0999 V2000
   12.6319   -4.3027    7.7072 C   0  0  1  0  0  0  0  0  0  0  0  0
   11.0652   -1.4041    6.8141 C   0  0  2  0  0  0  0  0  0  0  0  0
   12.0374   -2.4067    8.3942 C   0  0  2  0  0  0  0  0  0  0  0  0
   13.1575   -5.5314    7.6437 N   0  0  0  0  0  0  0  0  0  0  0  0
   10.5477   -1.0856    5.6317 N   0  0  0  0  0  0  0  0  0  0  0  0
   11.0586   -0.6077    7.8764 N   0  0  0  0  0  0  0  0  0  0  0  0
   12.6520   -3.5254    8.7842 N   0  0  0  0  0  0  0  0  0  0  0  0
   12.0232   -3.6602    6.6934 N   0  0  0  0  0  0  0  0  0  0  0  0
   11.6245   -1.1985    8.8071 N   0  0  0  0  0  0  0  0  0  0  0  0
   11.6797   -2.5431    7.1117 N   0  0  1  0  0  0  0  0  0  0  0  0
  1  4  1  6  0  0  0
  1  8  1  0  0  0  0
  1  7  1  0  0  0  0
  2  5  1  6  0  0  0
  2  6  1  0  0  0  0
  2 10  1  0  0  0  0
  3  7  1  1  0  0  0
  3 10  1  0  0  0  0
  3  9  1  0  0  0  0
  6  9  1  0  0  0  0
 10  8  1  1  0  0  0
M  END
>  <CHROM.1>
11.84493385,-2.62305248,7.54224125,0.39533441,1.06934034,-2.20701119

>  <Name>
ligand

>  <RI>
0

>  <Rbt.Current_Directory>
/home/itssahil/PROJECTS/Mol_Feturizer/Test_systems_manuscript/rnas/2xnw

>  <Rbt.Executable>
rbdock ($Id: //depot/dev/client3/rdock/2013.1/src/exe/rbdock.cxx#4 $)

>  <Rbt.Library>
libRbt.so (2013.1, Build901 2013/11/27)

>  <Rbt.Parameter_File>
/export/apps/rDock/src/rDock_2013.1_src/data/scripts/dock_solv.prm

>  <Rbt.Receptor>
prm/pocket_docking_6.prm

>  <SCORE>
-6.60541

>  <SCORE.INTER>
-6.60541

>  <SCORE.INTER.CONST>
1

>  <SCORE.INTER.POLAR>
0

>  <SCORE.INTER.ROT>
0

>  <SCORE.INTER.SOLV>
15.146

>  <SCORE.INTER.VDW>
-13.0523

>  <SCORE.INTER.norm>
-0.660541

>  <SCORE.INTRA>
0

>  <SCORE.INTRA.DIHEDRAL>
0

>  <SCORE.INTRA.DIHEDRAL.0>
0

>  <SCORE.INTRA.POLAR>
0

>  <SCORE.INTRA.POLAR.0>
0

>  <SCORE.INTRA.REPUL>
0

>  <SCORE.INTRA.REPUL.0>
0

>  <SCORE.INTRA.SOLV>
0

>  <SCORE.INTRA.SOLV.lig_0>
-47.9788

>  <SCORE.INTRA.VDW>
0

>  <SCORE.INTRA.VDW.0>
0

>  <SCORE.INTRA.norm>
0

>  <SCORE.RESTR>
0

>  <SCORE.RESTR.CAVITY>
0

>  <SCORE.RESTR.norm>
0

>  <SCORE.SYSTEM>
0

>  <SCORE.SYSTEM.CONST>
0

>  <SCORE.SYSTEM.DIHEDRAL>
0

>  <SCORE.SYSTEM.SOLV>
0

>  <SCORE.SYSTEM.norm>
0

>  <SCORE.heavy>
10

>  <SCORE.norm>
-0.660541

>  <RMSD>
2.939

$$$$
ligand
 OpenBabel02271912133D
libRbt.so/2013.1/901 2013/11/27
 10 11  0  0  0  0  0  0  0  0999 V2000
   12.5038   -4.3469    7.7696 C   0  0  1  0  0  0  0  0  0  0  0  0
   10.9917   -1.4149    6.8914 C   0  0  2  0  0  0  0  0  0  0  0  0
   11.8948   -2.4648    8.4818 C   0  0  2  0  0  0  0  0  0  0  0  0
   13.0238   -5.5774    7.6949 N   0  0  0  0  0  0  0  0  0  0  0  0
   10.5231   -1.0624    5.6983 N   0  0  0  0  0  0  0  0  0  0  0  0
   10.9484   -0.6460    7.9729 N   0  0  0  0  0  0  0  0  0  0  0  0
   12.4865   -3.5977    8.8664 N   0  0  0  0  0  0  0  0  0  0  0  0
   11.9395   -3.6742    6.7498 N   0  0  0  0  0  0  0  0  0  0  0  0
   11.4735   -1.2647    8.9095 N   0  0  0  0  0  0  0  0  0  0  0  0
   11.5869   -2.5657    7.1831 N   0  0  1  0  0  0  0  0  0  0  0  0
  1  4  1  6  0  0  0
  1  8  1  0  0  0  0
  1  7  1  0  0  0  0
  2  5  1  6  0  0  0
  2  6  1  0  0  0  0
  2 10  1  0  0  0  0
  3  7  1  1  0  0  0
  3 10  1  0  0  0  0
  3  9  1  0  0  0  0
  6  9  1  0  0  0  0
 10  8  1  1  0  0  0
M  END
>  <CHROM.1>
11.73453838,-2.65786338,7.61765252,0.33416502,1.09702485,-2.12713808

>  <Name>
ligand

>  <RI>
0

>  <Rbt.Current_Directory>
/home/itssahil/PROJECTS/Mol_Feturizer/Test_systems_manuscript/rnas/2xnw

>  <Rbt.Executable>
rbdock ($Id: //depot/dev/client3/rdock/2013.1/src/exe/rbdock.cxx#4 $)

>  <Rbt.Library>
libRbt.so (2013.1, Build901 2013/11/27)

>  <Rbt.Parameter_File>
/export/apps/rDock/src/rDock_2013.1_src/data/scripts/dock_solv.prm

>  <Rbt.Receptor>
prm/pocket_docking_3.prm

>  <SCORE>
-6.62759

>  <SCORE.INTER>
-6.62759

>  <SCORE.INTER.CONST>
1

>  <SCORE.INTER.POLAR>
0

>  <SCORE.INTER.ROT>
0

>  <SCORE.INTER.SOLV>
15.6379

>  <SCORE.INTER.VDW>
-13.231

>  <SCORE.INTER.norm>
-0.662759

>  <SCORE.INTRA>
0

>  <SCORE.INTRA.DIHEDRAL>
0

>  <SCORE.INTRA.DIHEDRAL.0>
0

>  <SCORE.INTRA.POLAR>
0

>  <SCORE.INTRA.POLAR.0>
0

>  <SCORE.INTRA.REPUL>
0

>  <SCORE.INTRA.REPUL.0>
0

>  <SCORE.INTRA.SOLV>
0

>  <SCORE.INTRA.SOLV.lig_0>
-47.9788

>  <SCORE.INTRA.VDW>
0

>  <SCORE.INTRA.VDW.0>
0

>  <SCORE.INTRA.norm>
0

>  <SCORE.RESTR>
0

>  <SCORE.RESTR.CAVITY>
0

>  <SCORE.RESTR.norm>
0

>  <SCORE.SYSTEM>
0

>  <SCORE.SYSTEM.CONST>
0

>  <SCORE.SYSTEM.DIHEDRAL>
0

>  <SCORE.SYSTEM.SOLV>
0

>  <SCORE.SYSTEM.norm>
0

>  <SCORE.heavy>
10

>  <SCORE.norm>
-0.662759

>  <RMSD>
2.941

$$$$
ligand
 OpenBabel02271912133D
libRbt.so/2013.1/901 2013/11/27
 10 11  0  0  0  0  0  0  0  0999 V2000
   12.5490   -4.3734    7.7989 C   0  0  1  0  0  0  0  0  0  0  0  0
   10.9966   -1.4682    6.9023 C   0  0  2  0  0  0  0  0  0  0  0  0
   11.8611   -2.5195    8.5130 C   0  0  2  0  0  0  0  0  0  0  0  0
   13.1043   -5.5886    7.7275 N   0  0  0  0  0  0  0  0  0  0  0  0
   10.5683   -1.1090    5.6961 N   0  0  0  0  0  0  0  0  0  0  0  0
   10.8882   -0.7181    7.9924 N   0  0  0  0  0  0  0  0  0  0  0  0
   12.4665   -3.6426    8.9051 N   0  0  0  0  0  0  0  0  0  0  0  0
   12.0094   -3.6994    6.7666 N   0  0  0  0  0  0  0  0  0  0  0  0
   11.3907   -1.3377    8.9407 N   0  0  0  0  0  0  0  0  0  0  0  0
   11.6097   -2.6075    7.2014 N   0  0  1  0  0  0  0  0  0  0  0  0
  1  4  1  6  0  0  0
  1  8  1  0  0  0  0
  1  7  1  0  0  0  0
  2  5  1  6  0  0  0
  2  6  1  0  0  0  0
  2 10  1  0  0  0  0
  3  7  1  1  0  0  0
  3 10  1  0  0  0  0
  3  9  1  0  0  0  0
  6  9  1  0  0  0  0
 10  8  1  1  0  0  0
M  END
>  <CHROM.1>
11.74179214,-2.70279183,7.64021246,0.22705270,1.09377209,-2.01643082

>  <Name>
ligand

>  <RI>
0

>  <Rbt.Current_Directory>
/home/itssahil/PROJECTS/Mol_Feturizer/Test_systems_manuscript/rnas/2xnw

>  <Rbt.Executable>
rbdock ($Id: //depot/dev/client3/rdock/2013.1/src/exe/rbdock.cxx#4 $)

>  <Rbt.Library>
libRbt.so (2013.1, Build901 2013/11/27)

>  <Rbt.Parameter_File>
/export/apps/rDock/src/rDock_2013.1_src/data/scripts/dock_solv.prm

>  <Rbt.Receptor>
prm/pocket_docking_5.prm

>  <SCORE>
-6.66062

>  <SCORE.INTER>
-6.66062

>  <SCORE.INTER.CONST>
1

>  <SCORE.INTER.POLAR>
0

>  <SCORE.INTER.ROT>
0

>  <SCORE.INTER.SOLV>
15.3564

>  <SCORE.INTER.VDW>
-13.1592

>  <SCORE.INTER.norm>
-0.666062

>  <SCORE.INTRA>
0

>  <SCORE.INTRA.DIHEDRAL>
0

>  <SCORE.INTRA.DIHEDRAL.0>
0

>  <SCORE.INTRA.POLAR>
0

>  <SCORE.INTRA.POLAR.0>
0

>  <SCORE.INTRA.REPUL>
0

>  <SCORE.INTRA.REPUL.0>
0

>  <SCORE.INTRA.SOLV>
0

>  <SCORE.INTRA.SOLV.lig_0>
-47.9788

>  <SCORE.INTRA.VDW>
0

>  <SCORE.INTRA.VDW.0>
0

>  <SCORE.INTRA.norm>
0

>  <SCORE.RESTR>
0

>  <SCORE.RESTR.CAVITY>
0

>  <SCORE.RESTR.norm>
0

>  <SCORE.SYSTEM>
0

>  <SCORE.SYSTEM.CONST>
0

>  <SCORE.SYSTEM.DIHEDRAL>
0

>  <SCORE.SYSTEM.SOLV>
0

>  <SCORE.SYSTEM.norm>
0

>  <SCORE.heavy>
10

>  <SCORE.norm>
-0.666062

>  <RMSD>
2.945

$$$$
ligand
 OpenBabel02271912133D
libRbt.so/2013.1/901 2013/11/27
 10 11  0  0  0  0  0  0  0  0999 V2000
   12.4651   -4.3529    7.7182 C   0  0  1  0  0  0  0  0  0  0  0  0
   10.9819   -1.4119    6.8209 C   0  0  2  0  0  0  0  0  0  0  0  0
   11.8197   -2.4837    8.4323 C   0  0  2  0  0  0  0  0  0  0  0  0
   12.9919   -5.5807    7.6471 N   0  0  0  0  0  0  0  0  0  0  0  0
   10.5636   -1.0424    5.6143 N   0  0  0  0  0  0  0  0  0  0  0  0
   10.8897   -0.6599    7.9111 N   0  0  0  0  0  0  0  0  0  0  0  0
   12.3982   -3.6208    8.8246 N   0  0  0  0  0  0  0  0  0  0  0  0
   11.9426   -3.6661    6.6856 N   0  0  0  0  0  0  0  0  0  0  0  0
   11.3765   -1.2914    8.8598 N   0  0  0  0  0  0  0  0  0  0  0  0
   11.5680   -2.5654    7.1203 N   0  0  1  0  0  0  0  0  0  0  0  0
  1  4  1  6  0  0  0
  1  8  1  0  0  0  0
  1  7  1  0  0  0  0
  2  5  1  6  0  0  0
  2  6  1  0  0  0  0
  2 10  1  0  0  0  0
  3  7  1  1  0  0  0
  3 10  1  0  0  0  0
  3  9  1  0  0  0  0
  6  9  1  0  0  0  0
 10  8  1  1  0  0  0
M  END
>  <CHROM.1>
11.69722539,-2.66387524,7.55923431,0.24738070,1.11526691,-2.03422027

>  <Name>
ligand

>  <RI>
0

>  <Rbt.Current_Directory>
/home/itssahil/PROJECTS/Mol_Feturizer/Test_systems_manuscript/rnas/2xnw

>  <Rbt.Executable>
rbdock ($Id: //depot/dev/client3/rdock/2013.1/src/exe/rbdock.cxx#4 $)

>  <Rbt.Library>
libRbt.so (2013.1, Build901 2013/11/27)

>  <Rbt.Parameter_File>
/export/apps/rDock/src/rDock_2013.1_src/data/scripts/dock_solv.prm

>  <Rbt.Receptor>
prm/pocket_docking_3.prm

>  <SCORE>
-6.64889

>  <SCORE.INTER>
-6.64889

>  <SCORE.INTER.CONST>
1

>  <SCORE.INTER.POLAR>
0

>  <SCORE.INTER.ROT>
0

>  <SCORE.INTER.SOLV>
15.9777

>  <SCORE.INTER.VDW>
-13.3585

>  <SCORE.INTER.norm>
-0.664889

>  <SCORE.INTRA>
0

>  <SCORE.INTRA.DIHEDRAL>
0

>  <SCORE.INTRA.DIHEDRAL.0>
0

>  <SCORE.INTRA.POLAR>
0

>  <SCORE.INTRA.POLAR.0>
0

>  <SCORE.INTRA.REPUL>
0

>  <SCORE.INTRA.REPUL.0>
0

>  <SCORE.INTRA.SOLV>
0

>  <SCORE.INTRA.SOLV.lig_0>
-47.9788

>  <SCORE.INTRA.VDW>
0

>  <SCORE.INTRA.VDW.0>
0

>  <SCORE.INTRA.norm>
0

>  <SCORE.RESTR>
0

>  <SCORE.RESTR.CAVITY>
0

>  <SCORE.RESTR.norm>
0

>  <SCORE.SYSTEM>
0

>  <SCORE.SYSTEM.CONST>
0

>  <SCORE.SYSTEM.DIHEDRAL>
0

>  <SCORE.SYSTEM.SOLV>
0

>  <SCORE.SYSTEM.norm>
0

>  <SCORE.heavy>
10

>  <SCORE.norm>
-0.664889

>  <RMSD>
2.948

$$$$
ligand
 OpenBabel02271912133D
libRbt.so/2013.1/901 2013/11/27
 10 11  0  0  0  0  0  0  0  0999 V2000
   12.5450   -4.3768    7.7958 C   0  0  1  0  0  0  0  0  0  0  0  0
   10.9935   -1.4672    6.9115 C   0  0  2  0  0  0  0  0  0  0  0  0
   11.8401   -2.5338    8.5218 C   0  0  2  0  0  0  0  0  0  0  0  0
   13.1059   -5.5889    7.7180 N   0  0  0  0  0  0  0  0  0  0  0  0
   10.5803   -1.0958    5.7039 N   0  0  0  0  0  0  0  0  0  0  0  0
   10.8673   -0.7302    8.0086 N   0  0  0  0  0  0  0  0  0  0  0  0
   12.4445   -3.6591    8.9091 N   0  0  0  0  0  0  0  0  0  0  0  0
   12.0168   -3.6929    6.7641 N   0  0  0  0  0  0  0  0  0  0  0  0
   11.3592   -1.3589    8.9565 N   0  0  0  0  0  0  0  0  0  0  0  0
   11.6070   -2.6076    7.2058 N   0  0  1  0  0  0  0  0  0  0  0  0
  1  4  1  6  0  0  0
  1  8  1  0  0  0  0
  1  7  1  0  0  0  0
  2  5  1  6  0  0  0
  2  6  1  0  0  0  0
  2 10  1  0  0  0  0
  3  7  1  1  0  0  0
  3 10  1  0  0  0  0
  3  9  1  0  0  0  0
  6  9  1  0  0  0  0
 10  8  1  1  0  0  0
M  END
>  <CHROM.1>
11.73341594,-2.70747781,7.64533963,0.19645111,1.09589298,-1.97769099

>  <Name>
ligand

>  <RI>
0

>  <Rbt.Current_Directory>
/home/itssahil/PROJECTS/Mol_Feturizer/Test_systems_manuscript/rnas/2xnw

>  <Rbt.Executable>
rbdock ($Id: //depot/dev/client3/rdock/2013.1/src/exe/rbdock.cxx#4 $)

>  <Rbt.Library>
libRbt.so (2013.1, Build901 2013/11/27)

>  <Rbt.Parameter_File>
/export/apps/rDock/src/rDock_2013.1_src/data/scripts/dock_solv.prm

>  <Rbt.Receptor>
prm/pocket_docking_5.prm

>  <SCORE>
-6.65023

>  <SCORE.INTER>
-6.65023

>  <SCORE.INTER.CONST>
1

>  <SCORE.INTER.POLAR>
0

>  <SCORE.INTER.ROT>
0

>  <SCORE.INTER.SOLV>
15.3837

>  <SCORE.INTER.VDW>
-13.1614

>  <SCORE.INTER.norm>
-0.665023

>  <SCORE.INTRA>
0

>  <SCORE.INTRA.DIHEDRAL>
0

>  <SCORE.INTRA.DIHEDRAL.0>
0

>  <SCORE.INTRA.POLAR>
0

>  <SCORE.INTRA.POLAR.0>
0

>  <SCORE.INTRA.REPUL>
0

>  <SCORE.INTRA.REPUL.0>
0

>  <SCORE.INTRA.SOLV>
0

>  <SCORE.INTRA.SOLV.lig_0>
-47.9788

>  <SCORE.INTRA.VDW>
0

>  <SCORE.INTRA.VDW.0>
0

>  <SCORE.INTRA.norm>
0

>  <SCORE.RESTR>
0

>  <SCORE.RESTR.CAVITY>
0

>  <SCORE.RESTR.norm>
0

>  <SCORE.SYSTEM>
0

>  <SCORE.SYSTEM.CONST>
0

>  <SCORE.SYSTEM.DIHEDRAL>
0

>  <SCORE.SYSTEM.SOLV>
0

>  <SCORE.SYSTEM.norm>
0

>  <SCORE.heavy>
10

>  <SCORE.norm>
-0.665023

>  <RMSD>
2.948

$$$$
ligand
 OpenBabel02271912133D
libRbt.so/2013.1/901 2013/11/27
 10 11  0  0  0  0  0  0  0  0999 V2000
   12.5335   -4.3681    7.7767 C   0  0  1  0  0  0  0  0  0  0  0  0
   10.9846   -1.4556    6.8976 C   0  0  2  0  0  0  0  0  0  0  0  0
   11.8339   -2.5241    8.5052 C   0  0  2  0  0  0  0  0  0  0  0  0
   13.0921   -5.5812    7.6971 N   0  0  0  0  0  0  0  0  0  0  0  0
   10.5685   -1.0831    5.6912 N   0  0  0  0  0  0  0  0  0  0  0  0
   10.8628   -0.7186    7.9952 N   0  0  0  0  0  0  0  0  0  0  0  0
   12.4375   -3.6504    8.8905 N   0  0  0  0  0  0  0  0  0  0  0  0
   12.0035   -3.6830    6.7467 N   0  0  0  0  0  0  0  0  0  0  0  0
   11.3564   -1.3484    8.9416 N   0  0  0  0  0  0  0  0  0  0  0  0
   11.5969   -2.5972    7.1899 N   0  0  1  0  0  0  0  0  0  0  0  0
  1  4  1  6  0  0  0
  1  8  1  0  0  0  0
  1  7  1  0  0  0  0
  2  5  1  6  0  0  0
  2  6  1  0  0  0  0
  2 10  1  0  0  0  0
  3  7  1  1  0  0  0
  3 10  1  0  0  0  0
  3  9  1  0  0  0  0
  6  9  1  0  0  0  0
 10  8  1  1  0  0  0
M  END
>  <CHROM.1>
11.72442119,-2.69731093,7.62901283,0.20376406,1.09634717,-1.98397058

>  <Name>
ligand

>  <RI>
0

>  <Rbt.Current_Directory>
/home/itssahil/PROJECTS/Mol_Feturizer/Test_systems_manuscript/rnas/2xnw

>  <Rbt.Executable>
rbdock ($Id: //depot/dev/client3/rdock/2013.1/src/exe/rbdock.cxx#4 $)

>  <Rbt.Library>
libRbt.so (2013.1, Build901 2013/11/27)

>  <Rbt.Parameter_File>
/export/apps/rDock/src/rDock_2013.1_src/data/scripts/dock_solv.prm

>  <Rbt.Receptor>
prm/pocket_docking_8.prm

>  <SCORE>
-6.64521

>  <SCORE.INTER>
-6.64521

>  <SCORE.INTER.CONST>
1

>  <SCORE.INTER.POLAR>
0

>  <SCORE.INTER.ROT>
0

>  <SCORE.INTER.SOLV>
15.4473

>  <SCORE.INTER.VDW>
-13.1792

>  <SCORE.INTER.norm>
-0.664521

>  <SCORE.INTRA>
0

>  <SCORE.INTRA.DIHEDRAL>
0

>  <SCORE.INTRA.DIHEDRAL.0>
0

>  <SCORE.INTRA.POLAR>
0

>  <SCORE.INTRA.POLAR.0>
0

>  <SCORE.INTRA.REPUL>
0

>  <SCORE.INTRA.REPUL.0>
0

>  <SCORE.INTRA.SOLV>
0

>  <SCORE.INTRA.SOLV.lig_0>
-47.9788

>  <SCORE.INTRA.VDW>
0

>  <SCORE.INTRA.VDW.0>
0

>  <SCORE.INTRA.norm>
0

>  <SCORE.RESTR>
0

>  <SCORE.RESTR.CAVITY>
0

>  <SCORE.RESTR.norm>
0

>  <SCORE.SYSTEM>
0

>  <SCORE.SYSTEM.CONST>
0

>  <SCORE.SYSTEM.DIHEDRAL>
0

>  <SCORE.SYSTEM.SOLV>
0

>  <SCORE.SYSTEM.norm>
0

>  <SCORE.heavy>
10

>  <SCORE.norm>
-0.664521

>  <RMSD>
2.949

$$$$
ligand
 OpenBabel02271912133D
libRbt.so/2013.1/901 2013/11/27
 10 11  0  0  0  0  0  0  0  0999 V2000
   12.4537   -4.3565    7.7094 C   0  0  1  0  0  0  0  0  0  0  0  0
   10.9888   -1.4017    6.8276 C   0  0  2  0  0  0  0  0  0  0  0  0
   11.8154   -2.4890    8.4343 C   0  0  2  0  0  0  0  0  0  0  0  0
   12.9745   -5.5864    7.6315 N   0  0  0  0  0  0  0  0  0  0  0  0
   10.5765   -1.0217    5.6222 N   0  0  0  0  0  0  0  0  0  0  0  0
   10.8967   -0.6568    7.9227 N   0  0  0  0  0  0  0  0  0  0  0  0
   12.3868   -3.6317    8.8207 N   0  0  0  0  0  0  0  0  0  0  0  0
   11.9383   -3.6598    6.6798 N   0  0  0  0  0  0  0  0  0  0  0  0
   11.3768   -1.2975    8.8686 N   0  0  0  0  0  0  0  0  0  0  0  0
   11.5678   -2.5602    7.1209 N   0  0  1  0  0  0  0  0  0  0  0  0
  1  4  1  6  0  0  0
  1  8  1  0  0  0  0
  1  7  1  0  0  0  0
  2  5  1  6  0  0  0
  2  6  1  0  0  0  0
  2 10  1  0  0  0  0
  3  7  1  1  0  0  0
  3 10  1  0  0  0  0
  3  9  1  0  0  0  0
  6  9  1  0  0  0  0
 10  8  1  1  0  0  0
M  END
>  <CHROM.1>
11.69507422,-2.66244564,7.55961309,0.24553669,1.12139571,-2.02557089

>  <Name>
ligand

>  <RI>
0

>  <Rbt.Current_Directory>
/home/itssahil/PROJECTS/Mol_Feturizer/Test_systems_manuscript/rnas/2xnw

>  <Rbt.Executable>
rbdock ($Id: //depot/dev/client3/rdock/2013.1/src/exe/rbdock.cxx#4 $)

>  <Rbt.Library>
libRbt.so (2013.1, Build901 2013/11/27)

>  <Rbt.Parameter_File>
/export/apps/rDock/src/rDock_2013.1_src/data/scripts/dock_solv.prm

>  <Rbt.Receptor>
prm/pocket_docking_3.prm

>  <SCORE>
-6.63794

>  <SCORE.INTER>
-6.63794

>  <SCORE.INTER.CONST>
1

>  <SCORE.INTER.POLAR>
0

>  <SCORE.INTER.ROT>
0

>  <SCORE.INTER.SOLV>
16.0869

>  <SCORE.INTER.VDW>
-13.3876

>  <SCORE.INTER.norm>
-0.663794

>  <SCORE.INTRA>
0

>  <SCORE.INTRA.DIHEDRAL>
0

>  <SCORE.INTRA.DIHEDRAL.0>
0

>  <SCORE.INTRA.POLAR>
0

>  <SCORE.INTRA.POLAR.0>
0

>  <SCORE.INTRA.REPUL>
0

>  <SCORE.INTRA.REPUL.0>
0

>  <SCORE.INTRA.SOLV>
0

>  <SCORE.INTRA.SOLV.lig_0>
-47.9788

>  <SCORE.INTRA.VDW>
0

>  <SCORE.INTRA.VDW.0>
0

>  <SCORE.INTRA.norm>
0

>  <SCORE.RESTR>
0

>  <SCORE.RESTR.CAVITY>
0

>  <SCORE.RESTR.norm>
0

>  <SCORE.SYSTEM>
0

>  <SCORE.SYSTEM.CONST>
0

>  <SCORE.SYSTEM.DIHEDRAL>
0

>  <SCORE.SYSTEM.SOLV>
0

>  <SCORE.SYSTEM.norm>
0

>  <SCORE.heavy>
10

>  <SCORE.norm>
-0.663794

>  <RMSD>
2.951

$$$$
ligand
 OpenBabel02271912133D
libRbt.so/2013.1/901 2013/11/27
 10 11  0  0  0  0  0  0  0  0999 V2000
   12.4504   -4.3648    7.7159 C   0  0  1  0  0  0  0  0  0  0  0  0
   10.9832   -1.4110    6.8345 C   0  0  2  0  0  0  0  0  0  0  0  0
   11.8368   -2.4868    8.4349 C   0  0  2  0  0  0  0  0  0  0  0  0
   12.9631   -5.5982    7.6398 N   0  0  0  0  0  0  0  0  0  0  0  0
   10.5485   -1.0407    5.6340 N   0  0  0  0  0  0  0  0  0  0  0  0
   10.9173   -0.6548    7.9238 N   0  0  0  0  0  0  0  0  0  0  0  0
   12.4099   -3.6287    8.8210 N   0  0  0  0  0  0  0  0  0  0  0  0
   11.9178   -3.6756    6.6901 N   0  0  0  0  0  0  0  0  0  0  0  0
   11.4134   -1.2886    8.8661 N   0  0  0  0  0  0  0  0  0  0  0  0
   11.5621   -2.5697    7.1276 N   0  0  1  0  0  0  0  0  0  0  0  0
  1  4  1  6  0  0  0
  1  8  1  0  0  0  0
  1  7  1  0  0  0  0
  2  5  1  6  0  0  0
  2  6  1  0  0  0  0
  2 10  1  0  0  0  0
  3  7  1  1  0  0  0
  3 10  1  0  0  0  0
  3  9  1  0  0  0  0
  6  9  1  0  0  0  0
 10  8  1  1  0  0  0
M  END
>  <CHROM.1>
11.69772270,-2.66820204,7.56461569,0.29251638,1.11668893,-2.07780964

>  <Name>
ligand

>  <RI>
0

>  <Rbt.Current_Directory>
/home/itssahil/PROJECTS/Mol_Feturizer/Test_systems_manuscript/rnas/2xnw

>  <Rbt.Executable>
rbdock ($Id: //depot/dev/client3/rdock/2013.1/src/exe/rbdock.cxx#4 $)

>  <Rbt.Library>
libRbt.so (2013.1, Build901 2013/11/27)

>  <Rbt.Parameter_File>
/export/apps/rDock/src/rDock_2013.1_src/data/scripts/dock_solv.prm

>  <Rbt.Receptor>
prm/pocket_docking_3.prm

>  <SCORE>
-6.65483

>  <SCORE.INTER>
-6.65483

>  <SCORE.INTER.CONST>
1

>  <SCORE.INTER.POLAR>
0

>  <SCORE.INTER.ROT>
0

>  <SCORE.INTER.SOLV>
15.9997

>  <SCORE.INTER.VDW>
-13.3698

>  <SCORE.INTER.norm>
-0.665483

>  <SCORE.INTRA>
0

>  <SCORE.INTRA.DIHEDRAL>
0

>  <SCORE.INTRA.DIHEDRAL.0>
0

>  <SCORE.INTRA.POLAR>
0

>  <SCORE.INTRA.POLAR.0>
0

>  <SCORE.INTRA.REPUL>
0

>  <SCORE.INTRA.REPUL.0>
0

>  <SCORE.INTRA.SOLV>
0

>  <SCORE.INTRA.SOLV.lig_0>
-47.9788

>  <SCORE.INTRA.VDW>
0

>  <SCORE.INTRA.VDW.0>
0

>  <SCORE.INTRA.norm>
0

>  <SCORE.RESTR>
0

>  <SCORE.RESTR.CAVITY>
0

>  <SCORE.RESTR.norm>
0

>  <SCORE.SYSTEM>
0

>  <SCORE.SYSTEM.CONST>
0

>  <SCORE.SYSTEM.DIHEDRAL>
0

>  <SCORE.SYSTEM.SOLV>
0

>  <SCORE.SYSTEM.norm>
0

>  <SCORE.heavy>
10

>  <SCORE.norm>
-0.665483

>  <RMSD>
2.952

$$$$
ligand
 OpenBabel02271912133D
libRbt.so/2013.1/901 2013/11/27
 10 11  0  0  0  0  0  0  0  0999 V2000
   12.4571   -4.3747    7.7572 C   0  0  1  0  0  0  0  0  0  0  0  0
   10.9684   -1.4287    6.8858 C   0  0  2  0  0  0  0  0  0  0  0  0
   11.7885   -2.5217    8.4920 C   0  0  2  0  0  0  0  0  0  0  0  0
   12.9931   -5.5977    7.6740 N   0  0  0  0  0  0  0  0  0  0  0  0
   10.5661   -1.0419    5.6792 N   0  0  0  0  0  0  0  0  0  0  0  0
   10.8546   -0.6954    7.9867 N   0  0  0  0  0  0  0  0  0  0  0  0
   12.3686   -3.6614    8.8744 N   0  0  0  0  0  0  0  0  0  0  0  0
   11.9459   -3.6742    6.7281 N   0  0  0  0  0  0  0  0  0  0  0  0
   11.3309   -1.3395    8.9322 N   0  0  0  0  0  0  0  0  0  0  0  0
   11.5574   -2.5832    7.1751 N   0  0  1  0  0  0  0  0  0  0  0  0
  1  4  1  6  0  0  0
  1  8  1  0  0  0  0
  1  7  1  0  0  0  0
  2  5  1  6  0  0  0
  2  6  1  0  0  0  0
  2 10  1  0  0  0  0
  3  7  1  1  0  0  0
  3 10  1  0  0  0  0
  3  9  1  0  0  0  0
  6  9  1  0  0  0  0
 10  8  1  1  0  0  0
M  END
>  <CHROM.1>
11.68061522,-2.68811362,7.61430308,0.20954748,1.11587499,-1.98369773

>  <Name>
ligand

>  <RI>
0

>  <Rbt.Current_Directory>
/home/itssahil/PROJECTS/Mol_Feturizer/Test_systems_manuscript/rnas/2xnw

>  <Rbt.Executable>
rbdock ($Id: //depot/dev/client3/rdock/2013.1/src/exe/rbdock.cxx#4 $)

>  <Rbt.Library>
libRbt.so (2013.1, Build901 2013/11/27)

>  <Rbt.Parameter_File>
/export/apps/rDock/src/rDock_2013.1_src/data/scripts/dock_solv.prm

>  <Rbt.Receptor>
prm/pocket_docking_3.prm

>  <SCORE>
-6.65252

>  <SCORE.INTER>
-6.65252

>  <SCORE.INTER.CONST>
1

>  <SCORE.INTER.POLAR>
0

>  <SCORE.INTER.ROT>
0

>  <SCORE.INTER.SOLV>
15.9064

>  <SCORE.INTER.VDW>
-13.3371

>  <SCORE.INTER.norm>
-0.665252

>  <SCORE.INTRA>
0

>  <SCORE.INTRA.DIHEDRAL>
0

>  <SCORE.INTRA.DIHEDRAL.0>
0

>  <SCORE.INTRA.POLAR>
0

>  <SCORE.INTRA.POLAR.0>
0

>  <SCORE.INTRA.REPUL>
0

>  <SCORE.INTRA.REPUL.0>
0

>  <SCORE.INTRA.SOLV>
0

>  <SCORE.INTRA.SOLV.lig_0>
-47.9788

>  <SCORE.INTRA.VDW>
0

>  <SCORE.INTRA.VDW.0>
0

>  <SCORE.INTRA.norm>
0

>  <SCORE.RESTR>
0

>  <SCORE.RESTR.CAVITY>
0

>  <SCORE.RESTR.norm>
0

>  <SCORE.SYSTEM>
0

>  <SCORE.SYSTEM.CONST>
0

>  <SCORE.SYSTEM.DIHEDRAL>
0

>  <SCORE.SYSTEM.SOLV>
0

>  <SCORE.SYSTEM.norm>
0

>  <SCORE.heavy>
10

>  <SCORE.norm>
-0.665252

>  <RMSD>
2.952

$$$$
ligand
 OpenBabel02271912133D
libRbt.so/2013.1/901 2013/11/27
 10 11  0  0  0  0  0  0  0  0999 V2000
   12.4657   -4.3638    7.7105 C   0  0  1  0  0  0  0  0  0  0  0  0
   10.9798   -1.4241    6.8136 C   0  0  2  0  0  0  0  0  0  0  0  0
   11.8270   -2.4917    8.4229 C   0  0  2  0  0  0  0  0  0  0  0  0
   12.9908   -5.5924    7.6398 N   0  0  0  0  0  0  0  0  0  0  0  0
   10.5540   -1.0580    5.6087 N   0  0  0  0  0  0  0  0  0  0  0  0
   10.8955   -0.6685    7.9021 N   0  0  0  0  0  0  0  0  0  0  0  0
   12.4069   -3.6281    8.8150 N   0  0  0  0  0  0  0  0  0  0  0  0
   11.9372   -3.6797    6.6792 N   0  0  0  0  0  0  0  0  0  0  0  0
   11.3878   -1.2976    8.8496 N   0  0  0  0  0  0  0  0  0  0  0  0
   11.5666   -2.5772    7.1128 N   0  0  1  0  0  0  0  0  0  0  0  0
  1  4  1  6  0  0  0
  1  8  1  0  0  0  0
  1  7  1  0  0  0  0
  2  5  1  6  0  0  0
  2  6  1  0  0  0  0
  2 10  1  0  0  0  0
  3  7  1  1  0  0  0
  3 10  1  0  0  0  0
  3  9  1  0  0  0  0
  6  9  1  0  0  0  0
 10  8  1  1  0  0  0
M  END
>  <CHROM.1>
11.69860576,-2.67446089,7.55124201,0.26173909,1.11321943,-2.05025667

>  <Name>
ligand

>  <RI>
0

>  <Rbt.Current_Directory>
/home/itssahil/PROJECTS/Mol_Feturizer/Test_systems_manuscript/rnas/2xnw

>  <Rbt.Executable>
rbdock ($Id: //depot/dev/client3/rdock/2013.1/src/exe/rbdock.cxx#4 $)

>  <Rbt.Library>
libRbt.so (2013.1, Build901 2013/11/27)

>  <Rbt.Parameter_File>
/export/apps/rDock/src/rDock_2013.1_src/data/scripts/dock_solv.prm

>  <Rbt.Receptor>
prm/pocket_docking_3.prm

>  <SCORE>
-6.68316

>  <SCORE.INTER>
-6.68316

>  <SCORE.INTER.CONST>
1

>  <SCORE.INTER.POLAR>
0

>  <SCORE.INTER.ROT>
0

>  <SCORE.INTER.SOLV>
15.9189

>  <SCORE.INTER.VDW>
-13.3617

>  <SCORE.INTER.norm>
-0.668316

>  <SCORE.INTRA>
0

>  <SCORE.INTRA.DIHEDRAL>
0

>  <SCORE.INTRA.DIHEDRAL.0>
0

>  <SCORE.INTRA.POLAR>
0

>  <SCORE.INTRA.POLAR.0>
0

>  <SCORE.INTRA.REPUL>
0

>  <SCORE.INTRA.REPUL.0>
0

>  <SCORE.INTRA.SOLV>
0

>  <SCORE.INTRA.SOLV.lig_0>
-47.9788

>  <SCORE.INTRA.VDW>
0

>  <SCORE.INTRA.VDW.0>
0

>  <SCORE.INTRA.norm>
0

>  <SCORE.RESTR>
0

>  <SCORE.RESTR.CAVITY>
0

>  <SCORE.RESTR.norm>
0

>  <SCORE.SYSTEM>
0

>  <SCORE.SYSTEM.CONST>
0

>  <SCORE.SYSTEM.DIHEDRAL>
0

>  <SCORE.SYSTEM.SOLV>
0

>  <SCORE.SYSTEM.norm>
0

>  <SCORE.heavy>
10

>  <SCORE.norm>
-0.668316

>  <RMSD>
2.952

$$$$
ligand
 OpenBabel02271912133D
libRbt.so/2013.1/901 2013/11/27
 10 11  0  0  0  0  0  0  0  0999 V2000
   12.5311   -4.3909    7.7866 C   0  0  1  0  0  0  0  0  0  0  0  0
   11.0011   -1.4673    6.9112 C   0  0  2  0  0  0  0  0  0  0  0  0
   11.8717   -2.5305    8.5109 C   0  0  2  0  0  0  0  0  0  0  0  0
   13.0721   -5.6120    7.7075 N   0  0  0  0  0  0  0  0  0  0  0  0
   10.5634   -1.1017    5.7104 N   0  0  0  0  0  0  0  0  0  0  0  0
   10.9131   -0.7177    8.0035 N   0  0  0  0  0  0  0  0  0  0  0  0
   12.4690   -3.6608    8.8947 N   0  0  0  0  0  0  0  0  0  0  0  0
   11.9875   -3.7094    6.7614 N   0  0  0  0  0  0  0  0  0  0  0  0
   11.4192   -1.3442    8.9453 N   0  0  0  0  0  0  0  0  0  0  0  0
   11.6048   -2.6138    7.2020 N   0  0  1  0  0  0  0  0  0  0  0  0
  1  4  1  6  0  0  0
  1  8  1  0  0  0  0
  1  7  1  0  0  0  0
  2  5  1  6  0  0  0
  2  6  1  0  0  0  0
  2 10  1  0  0  0  0
  3  7  1  1  0  0  0
  3 10  1  0  0  0  0
  3  9  1  0  0  0  0
  6  9  1  0  0  0  0
 10  8  1  1  0  0  0
M  END
>  <CHROM.1>
11.74071387,-2.71119533,7.63920634,0.25959060,1.09873313,-2.04397874

>  <Name>
ligand

>  <RI>
0

>  <Rbt.Current_Directory>
/home/itssahil/PROJECTS/Mol_Feturizer/Test_systems_manuscript/rnas/2xnw

>  <Rbt.Executable>
rbdock ($Id: //depot/dev/client3/rdock/2013.1/src/exe/rbdock.cxx#4 $)

>  <Rbt.Library>
libRbt.so (2013.1, Build901 2013/11/27)

>  <Rbt.Parameter_File>
/export/apps/rDock/src/rDock_2013.1_src/data/scripts/dock_solv.prm

>  <Rbt.Receptor>
prm/blind_docking_80.prm

>  <SCORE>
-6.6623

>  <SCORE.INTER>
-6.6623

>  <SCORE.INTER.CONST>
1

>  <SCORE.INTER.POLAR>
0

>  <SCORE.INTER.ROT>
0

>  <SCORE.INTER.SOLV>
15.4264

>  <SCORE.INTER.VDW>
-13.1837

>  <SCORE.INTER.norm>
-0.66623

>  <SCORE.INTRA>
0

>  <SCORE.INTRA.DIHEDRAL>
0

>  <SCORE.INTRA.DIHEDRAL.0>
0

>  <SCORE.INTRA.POLAR>
0

>  <SCORE.INTRA.POLAR.0>
0

>  <SCORE.INTRA.REPUL>
0

>  <SCORE.INTRA.REPUL.0>
0

>  <SCORE.INTRA.SOLV>
0

>  <SCORE.INTRA.SOLV.lig_0>
-47.9788

>  <SCORE.INTRA.VDW>
0

>  <SCORE.INTRA.VDW.0>
0

>  <SCORE.INTRA.norm>
0

>  <SCORE.RESTR>
0

>  <SCORE.RESTR.CAVITY>
0

>  <SCORE.RESTR.norm>
0

>  <SCORE.SYSTEM>
0

>  <SCORE.SYSTEM.CONST>
0

>  <SCORE.SYSTEM.DIHEDRAL>
0

>  <SCORE.SYSTEM.SOLV>
0

>  <SCORE.SYSTEM.norm>
0

>  <SCORE.heavy>
10

>  <SCORE.norm>
-0.66623

>  <RMSD>
2.954

$$$$
ligand
 OpenBabel02271912133D
libRbt.so/2013.1/901 2013/11/27
 10 11  0  0  0  0  0  0  0  0999 V2000
   12.4594   -4.3752    7.7540 C   0  0  1  0  0  0  0  0  0  0  0  0
   10.9600   -1.4320    6.8915 C   0  0  2  0  0  0  0  0  0  0  0  0
   11.7915   -2.5236    8.4928 C   0  0  2  0  0  0  0  0  0  0  0  0
   12.9972   -5.5972    7.6675 N   0  0  0  0  0  0  0  0  0  0  0  0
   10.5499   -1.0459    5.6873 N   0  0  0  0  0  0  0  0  0  0  0  0
   10.8512   -0.6991    7.9932 N   0  0  0  0  0  0  0  0  0  0  0  0
   12.3759   -3.6622    8.8717 N   0  0  0  0  0  0  0  0  0  0  0  0
   11.9408   -3.6756    6.7280 N   0  0  0  0  0  0  0  0  0  0  0  0
   11.3342   -1.3424    8.9358 N   0  0  0  0  0  0  0  0  0  0  0  0
   11.5529   -2.5855    7.1773 N   0  0  1  0  0  0  0  0  0  0  0  0
  1  4  1  6  0  0  0
  1  8  1  0  0  0  0
  1  7  1  0  0  0  0
  2  5  1  6  0  0  0
  2  6  1  0  0  0  0
  2 10  1  0  0  0  0
  3  7  1  1  0  0  0
  3 10  1  0  0  0  0
  3  9  1  0  0  0  0
  6  9  1  0  0  0  0
 10  8  1  1  0  0  0
M  END
>  <CHROM.1>
11.67881250,-2.69017780,7.61574447,0.21986476,1.11176877,-1.99286344

>  <Name>
ligand

>  <RI>
0

>  <Rbt.Current_Directory>
/home/itssahil/PROJECTS/Mol_Feturizer/Test_systems_manuscript/rnas/2xnw

>  <Rbt.Executable>
rbdock ($Id: //depot/dev/client3/rdock/2013.1/src/exe/rbdock.cxx#4 $)

>  <Rbt.Library>
libRbt.so (2013.1, Build901 2013/11/27)

>  <Rbt.Parameter_File>
/export/apps/rDock/src/rDock_2013.1_src/data/scripts/dock_solv.prm

>  <Rbt.Receptor>
prm/pocket_docking_3.prm

>  <SCORE>
-6.6597

>  <SCORE.INTER>
-6.6597

>  <SCORE.INTER.CONST>
1

>  <SCORE.INTER.POLAR>
0

>  <SCORE.INTER.ROT>
0

>  <SCORE.INTER.SOLV>
15.8355

>  <SCORE.INTER.VDW>
-13.3183

>  <SCORE.INTER.norm>
-0.66597

>  <SCORE.INTRA>
0

>  <SCORE.INTRA.DIHEDRAL>
0

>  <SCORE.INTRA.DIHEDRAL.0>
0

>  <SCORE.INTRA.POLAR>
0

>  <SCORE.INTRA.POLAR.0>
0

>  <SCORE.INTRA.REPUL>
0

>  <SCORE.INTRA.REPUL.0>
0

>  <SCORE.INTRA.SOLV>
0

>  <SCORE.INTRA.SOLV.lig_0>
-47.9788

>  <SCORE.INTRA.VDW>
0

>  <SCORE.INTRA.VDW.0>
0

>  <SCORE.INTRA.norm>
0

>  <SCORE.RESTR>
0

>  <SCORE.RESTR.CAVITY>
0

>  <SCORE.RESTR.norm>
0

>  <SCORE.SYSTEM>
0

>  <SCORE.SYSTEM.CONST>
0

>  <SCORE.SYSTEM.DIHEDRAL>
0

>  <SCORE.SYSTEM.SOLV>
0

>  <SCORE.SYSTEM.norm>
0

>  <SCORE.heavy>
10

>  <SCORE.norm>
-0.66597

>  <RMSD>
2.954

$$$$
ligand
 OpenBabel02271912133D
libRbt.so/2013.1/901 2013/11/27
 10 11  0  0  0  0  0  0  0  0999 V2000
   12.4778   -4.3864    7.7503 C   0  0  1  0  0  0  0  0  0  0  0  0
   11.0136   -1.4290    6.8760 C   0  0  2  0  0  0  0  0  0  0  0  0
   11.8815   -2.5031    8.4698 C   0  0  2  0  0  0  0  0  0  0  0  0
   12.9840   -5.6224    7.6723 N   0  0  0  0  0  0  0  0  0  0  0  0
   10.5661   -1.0609    5.6796 N   0  0  0  0  0  0  0  0  0  0  0  0
   10.9643   -0.6687    7.9633 N   0  0  0  0  0  0  0  0  0  0  0  0
   12.4541   -3.6462    8.8531 N   0  0  0  0  0  0  0  0  0  0  0  0
   11.9360   -3.6983    6.7285 N   0  0  0  0  0  0  0  0  0  0  0  0
   11.4688   -1.3015    8.9018 N   0  0  0  0  0  0  0  0  0  0  0  0
   11.5907   -2.5893    7.1662 N   0  0  1  0  0  0  0  0  0  0  0  0
  1  4  1  6  0  0  0
  1  8  1  0  0  0  0
  1  7  1  0  0  0  0
  2  5  1  6  0  0  0
  2  6  1  0  0  0  0
  2 10  1  0  0  0  0
  3  7  1  1  0  0  0
  3 10  1  0  0  0  0
  3  9  1  0  0  0  0
  6  9  1  0  0  0  0
 10  8  1  1  0  0  0
M  END
>  <CHROM.1>
11.73112657,-2.68690167,7.60195346,0.32149770,1.11463272,-2.10739290

>  <Name>
ligand

>  <RI>
0

>  <Rbt.Current_Directory>
/home/itssahil/PROJECTS/Mol_Feturizer/Test_systems_manuscript/rnas/2xnw

>  <Rbt.Executable>
rbdock ($Id: //depot/dev/client3/rdock/2013.1/src/exe/rbdock.cxx#4 $)

>  <Rbt.Library>
libRbt.so (2013.1, Build901 2013/11/27)

>  <Rbt.Parameter_File>
/export/apps/rDock/src/rDock_2013.1_src/data/scripts/dock_solv.prm

>  <Rbt.Receptor>
prm/pocket_docking_6.prm

>  <SCORE>
-6.68439

>  <SCORE.INTER>
-6.68439

>  <SCORE.INTER.CONST>
1

>  <SCORE.INTER.POLAR>
0

>  <SCORE.INTER.ROT>
0

>  <SCORE.INTER.SOLV>
15.8401

>  <SCORE.INTER.VDW>
-13.3363

>  <SCORE.INTER.norm>
-0.668439

>  <SCORE.INTRA>
0

>  <SCORE.INTRA.DIHEDRAL>
0

>  <SCORE.INTRA.DIHEDRAL.0>
0

>  <SCORE.INTRA.POLAR>
0

>  <SCORE.INTRA.POLAR.0>
0

>  <SCORE.INTRA.REPUL>
0

>  <SCORE.INTRA.REPUL.0>
0

>  <SCORE.INTRA.SOLV>
0

>  <SCORE.INTRA.SOLV.lig_0>
-47.9788

>  <SCORE.INTRA.VDW>
0

>  <SCORE.INTRA.VDW.0>
0

>  <SCORE.INTRA.norm>
0

>  <SCORE.RESTR>
0

>  <SCORE.RESTR.CAVITY>
0

>  <SCORE.RESTR.norm>
0

>  <SCORE.SYSTEM>
0

>  <SCORE.SYSTEM.CONST>
0

>  <SCORE.SYSTEM.DIHEDRAL>
0

>  <SCORE.SYSTEM.SOLV>
0

>  <SCORE.SYSTEM.norm>
0

>  <SCORE.heavy>
10

>  <SCORE.norm>
-0.668439

>  <RMSD>
2.954

$$$$
ligand
 OpenBabel02271912133D
libRbt.so/2013.1/901 2013/11/27
 10 11  0  0  0  0  0  0  0  0999 V2000
   12.5865   -4.3718    7.7663 C   0  0  1  0  0  0  0  0  0  0  0  0
   10.9955   -1.4755    6.9093 C   0  0  2  0  0  0  0  0  0  0  0  0
   11.8747   -2.5368    8.5055 C   0  0  2  0  0  0  0  0  0  0  0  0
   13.1576   -5.5785    7.6785 N   0  0  0  0  0  0  0  0  0  0  0  0
   10.5618   -1.1059    5.7082 N   0  0  0  0  0  0  0  0  0  0  0  0
   10.8779   -0.7415    8.0094 N   0  0  0  0  0  0  0  0  0  0  0  0
   12.4950   -3.6570    8.8822 N   0  0  0  0  0  0  0  0  0  0  0  0
   12.0374   -3.6912    6.7434 N   0  0  0  0  0  0  0  0  0  0  0  0
   11.3891   -1.3671    8.9491 N   0  0  0  0  0  0  0  0  0  0  0  0
   11.6237   -2.6106    7.1929 N   0  0  1  0  0  0  0  0  0  0  0  0
  1  4  1  6  0  0  0
  1  8  1  0  0  0  0
  1  7  1  0  0  0  0
  2  5  1  6  0  0  0
  2  6  1  0  0  0  0
  2 10  1  0  0  0  0
  3  7  1  1  0  0  0
  3 10  1  0  0  0  0
  3  9  1  0  0  0  0
  6  9  1  0  0  0  0
 10  8  1  1  0  0  0
M  END
>  <CHROM.1>
11.75727182,-2.70997831,7.63034055,0.21621176,1.08162238,-1.99347664

>  <Name>
ligand

>  <RI>
0

>  <Rbt.Current_Directory>
/home/itssahil/PROJECTS/Mol_Feturizer/Test_systems_manuscript/rnas/2xnw

>  <Rbt.Executable>
rbdock ($Id: //depot/dev/client3/rdock/2013.1/src/exe/rbdock.cxx#4 $)

>  <Rbt.Library>
libRbt.so (2013.1, Build901 2013/11/27)

>  <Rbt.Parameter_File>
/export/apps/rDock/src/rDock_2013.1_src/data/scripts/dock_solv.prm

>  <Rbt.Receptor>
prm/pocket_docking_6.prm

>  <SCORE>
-6.66015

>  <SCORE.INTER>
-6.66015

>  <SCORE.INTER.CONST>
1

>  <SCORE.INTER.POLAR>
0

>  <SCORE.INTER.ROT>
0

>  <SCORE.INTER.SOLV>
15.0717

>  <SCORE.INTER.VDW>
-13.064

>  <SCORE.INTER.norm>
-0.666015

>  <SCORE.INTRA>
0

>  <SCORE.INTRA.DIHEDRAL>
0

>  <SCORE.INTRA.DIHEDRAL.0>
0

>  <SCORE.INTRA.POLAR>
0

>  <SCORE.INTRA.POLAR.0>
0

>  <SCORE.INTRA.REPUL>
0

>  <SCORE.INTRA.REPUL.0>
0

>  <SCORE.INTRA.SOLV>
0

>  <SCORE.INTRA.SOLV.lig_0>
-47.9788

>  <SCORE.INTRA.VDW>
0

>  <SCORE.INTRA.VDW.0>
0

>  <SCORE.INTRA.norm>
0

>  <SCORE.RESTR>
0

>  <SCORE.RESTR.CAVITY>
0

>  <SCORE.RESTR.norm>
0

>  <SCORE.SYSTEM>
0

>  <SCORE.SYSTEM.CONST>
0

>  <SCORE.SYSTEM.DIHEDRAL>
0

>  <SCORE.SYSTEM.SOLV>
0

>  <SCORE.SYSTEM.norm>
0

>  <SCORE.heavy>
10

>  <SCORE.norm>
-0.666015

>  <RMSD>
2.955

$$$$
ligand
 OpenBabel02271912133D
libRbt.so/2013.1/901 2013/11/27
 10 11  0  0  0  0  0  0  0  0999 V2000
   12.4731   -4.3715    7.7290 C   0  0  1  0  0  0  0  0  0  0  0  0
   10.9847   -1.4211    6.8720 C   0  0  2  0  0  0  0  0  0  0  0  0
   11.8178   -2.5163    8.4700 C   0  0  2  0  0  0  0  0  0  0  0  0
   13.0044   -5.5962    7.6405 N   0  0  0  0  0  0  0  0  0  0  0  0
   10.5713   -1.0334    5.6695 N   0  0  0  0  0  0  0  0  0  0  0  0
   10.8844   -0.6873    7.9738 N   0  0  0  0  0  0  0  0  0  0  0  0
   12.3982   -3.6577    8.8468 N   0  0  0  0  0  0  0  0  0  0  0  0
   11.9536   -3.6697    6.7050 N   0  0  0  0  0  0  0  0  0  0  0  0
   11.3684   -1.3326    8.9146 N   0  0  0  0  0  0  0  0  0  0  0  0
   11.5731   -2.5774    7.1556 N   0  0  1  0  0  0  0  0  0  0  0  0
  1  4  1  6  0  0  0
  1  8  1  0  0  0  0
  1  7  1  0  0  0  0
  2  5  1  6  0  0  0
  2  6  1  0  0  0  0
  2 10  1  0  0  0  0
  3  7  1  1  0  0  0
  3 10  1  0  0  0  0
  3  9  1  0  0  0  0
  6  9  1  0  0  0  0
 10  8  1  1  0  0  0
M  END
>  <CHROM.1>
11.70041274,-2.68258699,7.59353045,0.23365217,1.11450304,-2.00560255

>  <Name>
ligand

>  <RI>
0

>  <Rbt.Current_Directory>
/home/itssahil/PROJECTS/Mol_Feturizer/Test_systems_manuscript/rnas/2xnw

>  <Rbt.Executable>
rbdock ($Id: //depot/dev/client3/rdock/2013.1/src/exe/rbdock.cxx#4 $)

>  <Rbt.Library>
libRbt.so (2013.1, Build901 2013/11/27)

>  <Rbt.Parameter_File>
/export/apps/rDock/src/rDock_2013.1_src/data/scripts/dock_solv.prm

>  <Rbt.Receptor>
prm/pocket_docking_3.prm

>  <SCORE>
-6.64806

>  <SCORE.INTER>
-6.64817

>  <SCORE.INTER.CONST>
1

>  <SCORE.INTER.POLAR>
0

>  <SCORE.INTER.ROT>
0

>  <SCORE.INTER.SOLV>
15.8587

>  <SCORE.INTER.VDW>
-13.3183

>  <SCORE.INTER.norm>
-0.664817

>  <SCORE.INTRA>
0

>  <SCORE.INTRA.DIHEDRAL>
0

>  <SCORE.INTRA.DIHEDRAL.0>
0

>  <SCORE.INTRA.POLAR>
0

>  <SCORE.INTRA.POLAR.0>
0

>  <SCORE.INTRA.REPUL>
0

>  <SCORE.INTRA.REPUL.0>
0

>  <SCORE.INTRA.SOLV>
0

>  <SCORE.INTRA.SOLV.lig_0>
-47.9788

>  <SCORE.INTRA.VDW>
0

>  <SCORE.INTRA.VDW.0>
0

>  <SCORE.INTRA.norm>
0

>  <SCORE.RESTR>
0.000115428

>  <SCORE.RESTR.CAVITY>
0.000115428

>  <SCORE.RESTR.norm>
1.15428e-05

>  <SCORE.SYSTEM>
0

>  <SCORE.SYSTEM.CONST>
0

>  <SCORE.SYSTEM.DIHEDRAL>
0

>  <SCORE.SYSTEM.SOLV>
0

>  <SCORE.SYSTEM.norm>
0

>  <SCORE.heavy>
10

>  <SCORE.norm>
-0.664806

>  <RMSD>
2.956

$$$$
ligand
 OpenBabel02271912133D
libRbt.so/2013.1/901 2013/11/27
 10 11  0  0  0  0  0  0  0  0999 V2000
   12.4751   -4.3702    7.7254 C   0  0  1  0  0  0  0  0  0  0  0  0
   10.9833   -1.4198    6.8745 C   0  0  2  0  0  0  0  0  0  0  0  0
   11.8260   -2.5136    8.4684 C   0  0  2  0  0  0  0  0  0  0  0  0
   13.0049   -5.5954    7.6351 N   0  0  0  0  0  0  0  0  0  0  0  0
   10.5624   -1.0332    5.6743 N   0  0  0  0  0  0  0  0  0  0  0  0
   10.8908   -0.6845    7.9761 N   0  0  0  0  0  0  0  0  0  0  0  0
   12.4080   -3.6550    8.8428 N   0  0  0  0  0  0  0  0  0  0  0  0
   11.9494   -3.6693    6.7040 N   0  0  0  0  0  0  0  0  0  0  0  0
   11.3804   -1.3290    8.9145 N   0  0  0  0  0  0  0  0  0  0  0  0
   11.5727   -2.5762    7.1557 N   0  0  1  0  0  0  0  0  0  0  0  0
  1  4  1  6  0  0  0
  1  8  1  0  0  0  0
  1  7  1  0  0  0  0
  2  5  1  6  0  0  0
  2  6  1  0  0  0  0
  2 10  1  0  0  0  0
  3  7  1  1  0  0  0
  3 10  1  0  0  0  0
  3  9  1  0  0  0  0
  6  9  1  0  0  0  0
 10  8  1  1  0  0  0
M  END
>  <CHROM.1>
11.70279246,-2.68090809,7.59295663,0.24770076,1.11238350,-2.01943790

>  <Name>
ligand

>  <RI>
0

>  <Rbt.Current_Directory>
/home/itssahil/PROJECTS/Mol_Feturizer/Test_systems_manuscript/rnas/2xnw

>  <Rbt.Executable>
rbdock ($Id: //depot/dev/client3/rdock/2013.1/src/exe/rbdock.cxx#4 $)

>  <Rbt.Library>
libRbt.so (2013.1, Build901 2013/11/27)

>  <Rbt.Parameter_File>
/export/apps/rDock/src/rDock_2013.1_src/data/scripts/dock_solv.prm

>  <Rbt.Receptor>
prm/pocket_docking_3.prm

>  <SCORE>
-6.65508

>  <SCORE.INTER>
-6.65508

>  <SCORE.INTER.CONST>
1

>  <SCORE.INTER.POLAR>
0

>  <SCORE.INTER.ROT>
0

>  <SCORE.INTER.SOLV>
15.8226

>  <SCORE.INTER.VDW>
-13.3109

>  <SCORE.INTER.norm>
-0.665508

>  <SCORE.INTRA>
0

>  <SCORE.INTRA.DIHEDRAL>
0

>  <SCORE.INTRA.DIHEDRAL.0>
0

>  <SCORE.INTRA.POLAR>
0

>  <SCORE.INTRA.POLAR.0>
0

>  <SCORE.INTRA.REPUL>
0

>  <SCORE.INTRA.REPUL.0>
0

>  <SCORE.INTRA.SOLV>
0

>  <SCORE.INTRA.SOLV.lig_0>
-47.9788

>  <SCORE.INTRA.VDW>
0

>  <SCORE.INTRA.VDW.0>
0

>  <SCORE.INTRA.norm>
0

>  <SCORE.RESTR>
0

>  <SCORE.RESTR.CAVITY>
0

>  <SCORE.RESTR.norm>
0

>  <SCORE.SYSTEM>
0

>  <SCORE.SYSTEM.CONST>
0

>  <SCORE.SYSTEM.DIHEDRAL>
0

>  <SCORE.SYSTEM.SOLV>
0

>  <SCORE.SYSTEM.norm>
0

>  <SCORE.heavy>
10

>  <SCORE.norm>
-0.665508

>  <RMSD>
2.957

$$$$
ligand
 OpenBabel02271912133D
libRbt.so/2013.1/901 2013/11/27
 10 11  0  0  0  0  0  0  0  0999 V2000
   12.4681   -4.3697    7.7290 C   0  0  1  0  0  0  0  0  0  0  0  0
   10.9577   -1.4291    6.8769 C   0  0  2  0  0  0  0  0  0  0  0  0
   11.7900   -2.5247    8.4750 C   0  0  2  0  0  0  0  0  0  0  0  0
   13.0116   -5.5888    7.6379 N   0  0  0  0  0  0  0  0  0  0  0  0
   10.5491   -1.0389    5.6735 N   0  0  0  0  0  0  0  0  0  0  0  0
   10.8428   -0.7020    7.9818 N   0  0  0  0  0  0  0  0  0  0  0  0
   12.3785   -3.6625    8.8499 N   0  0  0  0  0  0  0  0  0  0  0  0
   11.9491   -3.6674    6.7050 N   0  0  0  0  0  0  0  0  0  0  0  0
   11.3263   -1.3477    8.9226 N   0  0  0  0  0  0  0  0  0  0  0  0
   11.5550   -2.5812    7.1586 N   0  0  1  0  0  0  0  0  0  0  0  0
  1  4  1  6  0  0  0
  1  8  1  0  0  0  0
  1  7  1  0  0  0  0
  2  5  1  6  0  0  0
  2  6  1  0  0  0  0
  2 10  1  0  0  0  0
  3  7  1  1  0  0  0
  3 10  1  0  0  0  0
  3  9  1  0  0  0  0
  6  9  1  0  0  0  0
 10  8  1  1  0  0  0
M  END
>  <CHROM.1>
11.68033046,-2.68750150,7.59688581,0.21042116,1.10872576,-1.97953483

>  <Name>
ligand

>  <RI>
0

>  <Rbt.Current_Directory>
/home/itssahil/PROJECTS/Mol_Feturizer/Test_systems_manuscript/rnas/2xnw

>  <Rbt.Executable>
rbdock ($Id: //depot/dev/client3/rdock/2013.1/src/exe/rbdock.cxx#4 $)

>  <Rbt.Library>
libRbt.so (2013.1, Build901 2013/11/27)

>  <Rbt.Parameter_File>
/export/apps/rDock/src/rDock_2013.1_src/data/scripts/dock_solv.prm

>  <Rbt.Receptor>
prm/pocket_docking_3.prm

>  <SCORE>
-6.64356

>  <SCORE.INTER>
-6.64356

>  <SCORE.INTER.CONST>
1

>  <SCORE.INTER.POLAR>
0

>  <SCORE.INTER.ROT>
0

>  <SCORE.INTER.SOLV>
15.7803

>  <SCORE.INTER.VDW>
-13.2892

>  <SCORE.INTER.norm>
-0.664356

>  <SCORE.INTRA>
0

>  <SCORE.INTRA.DIHEDRAL>
0

>  <SCORE.INTRA.DIHEDRAL.0>
0

>  <SCORE.INTRA.POLAR>
0

>  <SCORE.INTRA.POLAR.0>
0

>  <SCORE.INTRA.REPUL>
0

>  <SCORE.INTRA.REPUL.0>
0

>  <SCORE.INTRA.SOLV>
0

>  <SCORE.INTRA.SOLV.lig_0>
-47.9788

>  <SCORE.INTRA.VDW>
0

>  <SCORE.INTRA.VDW.0>
0

>  <SCORE.INTRA.norm>
0

>  <SCORE.RESTR>
0

>  <SCORE.RESTR.CAVITY>
0

>  <SCORE.RESTR.norm>
0

>  <SCORE.SYSTEM>
0

>  <SCORE.SYSTEM.CONST>
0

>  <SCORE.SYSTEM.DIHEDRAL>
0

>  <SCORE.SYSTEM.SOLV>
0

>  <SCORE.SYSTEM.norm>
0

>  <SCORE.heavy>
10

>  <SCORE.norm>
-0.664356

>  <RMSD>
2.957

$$$$
ligand
 OpenBabel02271912133D
libRbt.so/2013.1/901 2013/11/27
 10 11  0  0  0  0  0  0  0  0999 V2000
   12.5554   -4.3628    7.7318 C   0  0  1  0  0  0  0  0  0  0  0  0
   11.0200   -1.4289    6.9015 C   0  0  2  0  0  0  0  0  0  0  0  0
   11.9618   -2.4842    8.4657 C   0  0  2  0  0  0  0  0  0  0  0  0
   13.0746   -5.5925    7.6398 N   0  0  0  0  0  0  0  0  0  0  0  0
   10.5227   -1.0723    5.7214 N   0  0  0  0  0  0  0  0  0  0  0  0
   11.0019   -0.6643    7.9868 N   0  0  0  0  0  0  0  0  0  0  0  0
   12.5636   -3.6179    8.8316 N   0  0  0  0  0  0  0  0  0  0  0  0
   11.9662   -3.6867    6.7284 N   0  0  0  0  0  0  0  0  0  0  0  0
   11.5499   -1.2861    8.9081 N   0  0  0  0  0  0  0  0  0  0  0  0
   11.6230   -2.5802    7.1744 N   0  0  1  0  0  0  0  0  0  0  0  0
  1  4  1  6  0  0  0
  1  8  1  0  0  0  0
  1  7  1  0  0  0  0
  2  5  1  6  0  0  0
  2  6  1  0  0  0  0
  2 10  1  0  0  0  0
  3  7  1  1  0  0  0
  3 10  1  0  0  0  0
  3  9  1  0  0  0  0
  6  9  1  0  0  0  0
 10  8  1  1  0  0  0
M  END
>  <CHROM.1>
11.78115292,-2.67398038,7.60489246,0.37655474,1.08322901,-2.16081127

>  <Name>
ligand

>  <RI>
0

>  <Rbt.Current_Directory>
/home/itssahil/PROJECTS/Mol_Feturizer/Test_systems_manuscript/rnas/2xnw

>  <Rbt.Executable>
rbdock ($Id: //depot/dev/client3/rdock/2013.1/src/exe/rbdock.cxx#4 $)

>  <Rbt.Library>
libRbt.so (2013.1, Build901 2013/11/27)

>  <Rbt.Parameter_File>
/export/apps/rDock/src/rDock_2013.1_src/data/scripts/dock_solv.prm

>  <Rbt.Receptor>
prm/pocket_docking_8.prm

>  <SCORE>
-6.64764

>  <SCORE.INTER>
-6.64764

>  <SCORE.INTER.CONST>
1

>  <SCORE.INTER.POLAR>
0

>  <SCORE.INTER.ROT>
0

>  <SCORE.INTER.SOLV>
15.2954

>  <SCORE.INTER.VDW>
-13.1302

>  <SCORE.INTER.norm>
-0.664764

>  <SCORE.INTRA>
0

>  <SCORE.INTRA.DIHEDRAL>
0

>  <SCORE.INTRA.DIHEDRAL.0>
0

>  <SCORE.INTRA.POLAR>
0

>  <SCORE.INTRA.POLAR.0>
0

>  <SCORE.INTRA.REPUL>
0

>  <SCORE.INTRA.REPUL.0>
0

>  <SCORE.INTRA.SOLV>
0

>  <SCORE.INTRA.SOLV.lig_0>
-47.9788

>  <SCORE.INTRA.VDW>
0

>  <SCORE.INTRA.VDW.0>
0

>  <SCORE.INTRA.norm>
0

>  <SCORE.RESTR>
0

>  <SCORE.RESTR.CAVITY>
0

>  <SCORE.RESTR.norm>
0

>  <SCORE.SYSTEM>
0

>  <SCORE.SYSTEM.CONST>
0

>  <SCORE.SYSTEM.DIHEDRAL>
0

>  <SCORE.SYSTEM.SOLV>
0

>  <SCORE.SYSTEM.norm>
0

>  <SCORE.heavy>
10

>  <SCORE.norm>
-0.664764

>  <RMSD>
2.957

$$$$
ligand
 OpenBabel02271912133D
libRbt.so/2013.1/901 2013/11/27
 10 11  0  0  0  0  0  0  0  0999 V2000
   12.4700   -4.3729    7.7263 C   0  0  1  0  0  0  0  0  0  0  0  0
   10.9794   -1.4216    6.8763 C   0  0  2  0  0  0  0  0  0  0  0  0
   11.8276   -2.5136    8.4685 C   0  0  2  0  0  0  0  0  0  0  0  0
   12.9972   -5.5992    7.6359 N   0  0  0  0  0  0  0  0  0  0  0  0
   10.5535   -1.0368    5.6772 N   0  0  0  0  0  0  0  0  0  0  0  0
   10.8933   -0.6839    7.9768 N   0  0  0  0  0  0  0  0  0  0  0  0
   12.4094   -3.6552    8.8425 N   0  0  0  0  0  0  0  0  0  0  0  0
   11.9407   -3.6731    6.7058 N   0  0  0  0  0  0  0  0  0  0  0  0
   11.3862   -1.3274    8.9142 N   0  0  0  0  0  0  0  0  0  0  0  0
   11.5680   -2.5784    7.1571 N   0  0  1  0  0  0  0  0  0  0  0  0
  1  4  1  6  0  0  0
  1  8  1  0  0  0  0
  1  7  1  0  0  0  0
  2  5  1  6  0  0  0
  2  6  1  0  0  0  0
  2 10  1  0  0  0  0
  3  7  1  1  0  0  0
  3 10  1  0  0  0  0
  3  9  1  0  0  0  0
  6  9  1  0  0  0  0
 10  8  1  1  0  0  0
M  END
>  <CHROM.1>
11.70000281,-2.68249500,7.59392922,0.25898312,1.11189732,-2.03160854

>  <Name>
ligand

>  <RI>
0

>  <Rbt.Current_Directory>
/home/itssahil/PROJECTS/Mol_Feturizer/Test_systems_manuscript/rnas/2xnw

>  <Rbt.Executable>
rbdock ($Id: //depot/dev/client3/rdock/2013.1/src/exe/rbdock.cxx#4 $)

>  <Rbt.Library>
libRbt.so (2013.1, Build901 2013/11/27)

>  <Rbt.Parameter_File>
/export/apps/rDock/src/rDock_2013.1_src/data/scripts/dock_solv.prm

>  <Rbt.Receptor>
prm/pocket_docking_3.prm

>  <SCORE>
-6.66023

>  <SCORE.INTER>
-6.66023

>  <SCORE.INTER.CONST>
1

>  <SCORE.INTER.POLAR>
0

>  <SCORE.INTER.ROT>
0

>  <SCORE.INTER.SOLV>
15.8153

>  <SCORE.INTER.VDW>
-13.3119

>  <SCORE.INTER.norm>
-0.666023

>  <SCORE.INTRA>
0

>  <SCORE.INTRA.DIHEDRAL>
0

>  <SCORE.INTRA.DIHEDRAL.0>
0

>  <SCORE.INTRA.POLAR>
0

>  <SCORE.INTRA.POLAR.0>
0

>  <SCORE.INTRA.REPUL>
0

>  <SCORE.INTRA.REPUL.0>
0

>  <SCORE.INTRA.SOLV>
0

>  <SCORE.INTRA.SOLV.lig_0>
-47.9788

>  <SCORE.INTRA.VDW>
0

>  <SCORE.INTRA.VDW.0>
0

>  <SCORE.INTRA.norm>
0

>  <SCORE.RESTR>
0

>  <SCORE.RESTR.CAVITY>
0

>  <SCORE.RESTR.norm>
0

>  <SCORE.SYSTEM>
0

>  <SCORE.SYSTEM.CONST>
0

>  <SCORE.SYSTEM.DIHEDRAL>
0

>  <SCORE.SYSTEM.SOLV>
0

>  <SCORE.SYSTEM.norm>
0

>  <SCORE.heavy>
10

>  <SCORE.norm>
-0.666023

>  <RMSD>
2.958

$$$$
ligand
 OpenBabel02271912133D
libRbt.so/2013.1/901 2013/11/27
 10 11  0  0  0  0  0  0  0  0999 V2000
   12.5163   -4.3869    7.7664 C   0  0  1  0  0  0  0  0  0  0  0  0
   10.9863   -1.4558    6.9165 C   0  0  2  0  0  0  0  0  0  0  0  0
   11.8762   -2.5242    8.5019 C   0  0  2  0  0  0  0  0  0  0  0  0
   13.0506   -5.6103    7.6781 N   0  0  0  0  0  0  0  0  0  0  0  0
   10.5322   -1.0872    5.7227 N   0  0  0  0  0  0  0  0  0  0  0  0
   10.9182   -0.7067    8.0105 N   0  0  0  0  0  0  0  0  0  0  0  0
   12.4742   -3.6574    8.8758 N   0  0  0  0  0  0  0  0  0  0  0  0
   11.9604   -3.7021    6.7499 N   0  0  0  0  0  0  0  0  0  0  0  0
   11.4356   -1.3363    8.9441 N   0  0  0  0  0  0  0  0  0  0  0  0
   11.5893   -2.6052    7.1971 N   0  0  1  0  0  0  0  0  0  0  0  0
  1  4  1  6  0  0  0
  1  8  1  0  0  0  0
  1  7  1  0  0  0  0
  2  5  1  6  0  0  0
  2  6  1  0  0  0  0
  2 10  1  0  0  0  0
  3  7  1  1  0  0  0
  3 10  1  0  0  0  0
  3  9  1  0  0  0  0
  6  9  1  0  0  0  0
 10  8  1  1  0  0  0
M  END
>  <CHROM.1>
11.73130075,-2.70355783,7.63218393,0.29342012,1.09560266,-2.07326592

>  <Name>
ligand

>  <RI>
0

>  <Rbt.Current_Directory>
/home/itssahil/PROJECTS/Mol_Feturizer/Test_systems_manuscript/rnas/2xnw

>  <Rbt.Executable>
rbdock ($Id: //depot/dev/client3/rdock/2013.1/src/exe/rbdock.cxx#4 $)

>  <Rbt.Library>
libRbt.so (2013.1, Build901 2013/11/27)

>  <Rbt.Parameter_File>
/export/apps/rDock/src/rDock_2013.1_src/data/scripts/dock_solv.prm

>  <Rbt.Receptor>
prm/pocket_docking_4.prm

>  <SCORE>
-6.66497

>  <SCORE.INTER>
-6.66497

>  <SCORE.INTER.CONST>
1

>  <SCORE.INTER.POLAR>
0

>  <SCORE.INTER.ROT>
0

>  <SCORE.INTER.SOLV>
15.4362

>  <SCORE.INTER.VDW>
-13.1887

>  <SCORE.INTER.norm>
-0.666497

>  <SCORE.INTRA>
0

>  <SCORE.INTRA.DIHEDRAL>
0

>  <SCORE.INTRA.DIHEDRAL.0>
0

>  <SCORE.INTRA.POLAR>
0

>  <SCORE.INTRA.POLAR.0>
0

>  <SCORE.INTRA.REPUL>
0

>  <SCORE.INTRA.REPUL.0>
0

>  <SCORE.INTRA.SOLV>
0

>  <SCORE.INTRA.SOLV.lig_0>
-47.9788

>  <SCORE.INTRA.VDW>
0

>  <SCORE.INTRA.VDW.0>
0

>  <SCORE.INTRA.norm>
0

>  <SCORE.RESTR>
0

>  <SCORE.RESTR.CAVITY>
0

>  <SCORE.RESTR.norm>
0

>  <SCORE.SYSTEM>
0

>  <SCORE.SYSTEM.CONST>
0

>  <SCORE.SYSTEM.DIHEDRAL>
0

>  <SCORE.SYSTEM.SOLV>
0

>  <SCORE.SYSTEM.norm>
0

>  <SCORE.heavy>
10

>  <SCORE.norm>
-0.666497

>  <RMSD>
2.958

$$$$
ligand
 OpenBabel02271912133D
libRbt.so/2013.1/901 2013/11/27
 10 11  0  0  0  0  0  0  0  0999 V2000
   12.5852   -4.3653    7.7520 C   0  0  1  0  0  0  0  0  0  0  0  0
   10.9811   -1.4693    6.9188 C   0  0  2  0  0  0  0  0  0  0  0  0
   11.8656   -2.5395    8.5061 C   0  0  2  0  0  0  0  0  0  0  0  0
   13.1617   -5.5688    7.6543 N   0  0  0  0  0  0  0  0  0  0  0  0
   10.5453   -1.0920    5.7209 N   0  0  0  0  0  0  0  0  0  0  0  0
   10.8608   -0.7447    8.0247 N   0  0  0  0  0  0  0  0  0  0  0  0
   12.4911   -3.6598    8.8736 N   0  0  0  0  0  0  0  0  0  0  0  0
   12.0328   -3.6790    6.7348 N   0  0  0  0  0  0  0  0  0  0  0  0
   11.3751   -1.3755    8.9592 N   0  0  0  0  0  0  0  0  0  0  0  0
   11.6145   -2.6039    7.1930 N   0  0  1  0  0  0  0  0  0  0  0  0
  1  4  1  6  0  0  0
  1  8  1  0  0  0  0
  1  7  1  0  0  0  0
  2  5  1  6  0  0  0
  2  6  1  0  0  0  0
  2 10  1  0  0  0  0
  3  7  1  1  0  0  0
  3 10  1  0  0  0  0
  3  9  1  0  0  0  0
  6  9  1  0  0  0  0
 10  8  1  1  0  0  0
M  END
>  <CHROM.1>
11.74867261,-2.70613659,7.62963786,0.21312001,1.07743231,-1.98273183

>  <Name>
ligand

>  <RI>
0

>  <Rbt.Current_Directory>
/home/itssahil/PROJECTS/Mol_Feturizer/Test_systems_manuscript/rnas/2xnw

>  <Rbt.Executable>
rbdock ($Id: //depot/dev/client3/rdock/2013.1/src/exe/rbdock.cxx#4 $)

>  <Rbt.Library>
libRbt.so (2013.1, Build901 2013/11/27)

>  <Rbt.Parameter_File>
/export/apps/rDock/src/rDock_2013.1_src/data/scripts/dock_solv.prm

>  <Rbt.Receptor>
prm/pocket_docking_7.prm

>  <SCORE>
-6.66369

>  <SCORE.INTER>
-6.66369

>  <SCORE.INTER.CONST>
1

>  <SCORE.INTER.POLAR>
0

>  <SCORE.INTER.ROT>
0

>  <SCORE.INTER.SOLV>
15.021

>  <SCORE.INTER.VDW>
-13.0495

>  <SCORE.INTER.norm>
-0.666369

>  <SCORE.INTRA>
0

>  <SCORE.INTRA.DIHEDRAL>
0

>  <SCORE.INTRA.DIHEDRAL.0>
0

>  <SCORE.INTRA.POLAR>
0

>  <SCORE.INTRA.POLAR.0>
0

>  <SCORE.INTRA.REPUL>
0

>  <SCORE.INTRA.REPUL.0>
0

>  <SCORE.INTRA.SOLV>
0

>  <SCORE.INTRA.SOLV.lig_0>
-47.9788

>  <SCORE.INTRA.VDW>
0

>  <SCORE.INTRA.VDW.0>
0

>  <SCORE.INTRA.norm>
0

>  <SCORE.RESTR>
0

>  <SCORE.RESTR.CAVITY>
0

>  <SCORE.RESTR.norm>
0

>  <SCORE.SYSTEM>
0

>  <SCORE.SYSTEM.CONST>
0

>  <SCORE.SYSTEM.DIHEDRAL>
0

>  <SCORE.SYSTEM.SOLV>
0

>  <SCORE.SYSTEM.norm>
0

>  <SCORE.heavy>
10

>  <SCORE.norm>
-0.666369

>  <RMSD>
2.958

$$$$
ligand
 OpenBabel02271912133D
libRbt.so/2013.1/901 2013/11/27
 10 11  0  0  0  0  0  0  0  0999 V2000
   12.5938   -4.3653    7.7492 C   0  0  1  0  0  0  0  0  0  0  0  0
   10.9812   -1.4739    6.9163 C   0  0  2  0  0  0  0  0  0  0  0  0
   11.8641   -2.5440    8.5046 C   0  0  2  0  0  0  0  0  0  0  0  0
   13.1754   -5.5662    7.6511 N   0  0  0  0  0  0  0  0  0  0  0  0
   10.5483   -1.0958    5.7176 N   0  0  0  0  0  0  0  0  0  0  0  0
   10.8538   -0.7522    8.0234 N   0  0  0  0  0  0  0  0  0  0  0  0
   12.4927   -3.6626    8.8720 N   0  0  0  0  0  0  0  0  0  0  0  0
   12.0423   -3.6790    6.7314 N   0  0  0  0  0  0  0  0  0  0  0  0
   11.3672   -1.3830    8.9584 N   0  0  0  0  0  0  0  0  0  0  0  0
   11.6180   -2.6065    7.1904 N   0  0  1  0  0  0  0  0  0  0  0  0
  1  4  1  6  0  0  0
  1  8  1  0  0  0  0
  1  7  1  0  0  0  0
  2  5  1  6  0  0  0
  2  6  1  0  0  0  0
  2 10  1  0  0  0  0
  3  7  1  1  0  0  0
  3 10  1  0  0  0  0
  3  9  1  0  0  0  0
  6  9  1  0  0  0  0
 10  8  1  1  0  0  0
M  END
>  <CHROM.1>
11.75102885,-2.70922272,7.62733042,0.20263983,1.07521344,-1.97135254

>  <Name>
ligand

>  <RI>
0

>  <Rbt.Current_Directory>
/home/itssahil/PROJECTS/Mol_Feturizer/Test_systems_manuscript/rnas/2xnw

>  <Rbt.Executable>
rbdock ($Id: //depot/dev/client3/rdock/2013.1/src/exe/rbdock.cxx#4 $)

>  <Rbt.Library>
libRbt.so (2013.1, Build901 2013/11/27)

>  <Rbt.Parameter_File>
/export/apps/rDock/src/rDock_2013.1_src/data/scripts/dock_solv.prm

>  <Rbt.Receptor>
prm/blind_docking_40.prm

>  <SCORE>
-6.66673

>  <SCORE.INTER>
-6.66673

>  <SCORE.INTER.CONST>
1

>  <SCORE.INTER.POLAR>
0

>  <SCORE.INTER.ROT>
0

>  <SCORE.INTER.SOLV>
14.9662

>  <SCORE.INTER.VDW>
-13.0332

>  <SCORE.INTER.norm>
-0.666673

>  <SCORE.INTRA>
0

>  <SCORE.INTRA.DIHEDRAL>
0

>  <SCORE.INTRA.DIHEDRAL.0>
0

>  <SCORE.INTRA.POLAR>
0

>  <SCORE.INTRA.POLAR.0>
0

>  <SCORE.INTRA.REPUL>
0

>  <SCORE.INTRA.REPUL.0>
0

>  <SCORE.INTRA.SOLV>
0

>  <SCORE.INTRA.SOLV.lig_0>
-47.9788

>  <SCORE.INTRA.VDW>
0

>  <SCORE.INTRA.VDW.0>
0

>  <SCORE.INTRA.norm>
0

>  <SCORE.RESTR>
0

>  <SCORE.RESTR.CAVITY>
0

>  <SCORE.RESTR.norm>
0

>  <SCORE.SYSTEM>
0

>  <SCORE.SYSTEM.CONST>
0

>  <SCORE.SYSTEM.DIHEDRAL>
0

>  <SCORE.SYSTEM.SOLV>
0

>  <SCORE.SYSTEM.norm>
0

>  <SCORE.heavy>
10

>  <SCORE.norm>
-0.666673

>  <RMSD>
2.959

$$$$
ligand
 OpenBabel02271912133D
libRbt.so/2013.1/901 2013/11/27
 10 11  0  0  0  0  0  0  0  0999 V2000
   12.5072   -4.3932    7.7589 C   0  0  1  0  0  0  0  0  0  0  0  0
   10.9895   -1.4598    6.8952 C   0  0  2  0  0  0  0  0  0  0  0  0
   11.8041   -2.5563    8.5018 C   0  0  2  0  0  0  0  0  0  0  0  0
   13.0608   -5.6080    7.6714 N   0  0  0  0  0  0  0  0  0  0  0  0
   10.5972   -1.0674    5.6872 N   0  0  0  0  0  0  0  0  0  0  0  0
   10.8517   -0.7383    8.0012 N   0  0  0  0  0  0  0  0  0  0  0  0
   12.3948   -3.6915    8.8812 N   0  0  0  0  0  0  0  0  0  0  0  0
   11.9995   -3.6902    6.7297 N   0  0  0  0  0  0  0  0  0  0  0  0
   11.3249   -1.3846    8.9469 N   0  0  0  0  0  0  0  0  0  0  0  0
   11.5905   -2.6088    7.1815 N   0  0  1  0  0  0  0  0  0  0  0  0
  1  4  1  6  0  0  0
  1  8  1  0  0  0  0
  1  7  1  0  0  0  0
  2  5  1  6  0  0  0
  2  6  1  0  0  0  0
  2 10  1  0  0  0  0
  3  7  1  1  0  0  0
  3 10  1  0  0  0  0
  3  9  1  0  0  0  0
  6  9  1  0  0  0  0
 10  8  1  1  0  0  0
M  END
>  <CHROM.1>
11.70954877,-2.71608856,7.62133483,0.17133882,1.10813124,-1.94030299

>  <Name>
ligand

>  <RI>
0

>  <Rbt.Current_Directory>
/home/itssahil/PROJECTS/Mol_Feturizer/Test_systems_manuscript/rnas/2xnw

>  <Rbt.Executable>
rbdock ($Id: //depot/dev/client3/rdock/2013.1/src/exe/rbdock.cxx#4 $)

>  <Rbt.Library>
libRbt.so (2013.1, Build901 2013/11/27)

>  <Rbt.Parameter_File>
/export/apps/rDock/src/rDock_2013.1_src/data/scripts/dock_solv.prm

>  <Rbt.Receptor>
prm/blind_docking_60.prm

>  <SCORE>
-6.6555

>  <SCORE.INTER>
-6.6555

>  <SCORE.INTER.CONST>
1

>  <SCORE.INTER.POLAR>
0

>  <SCORE.INTER.ROT>
0

>  <SCORE.INTER.SOLV>
15.6219

>  <SCORE.INTER.VDW>
-13.2443

>  <SCORE.INTER.norm>
-0.66555

>  <SCORE.INTRA>
0

>  <SCORE.INTRA.DIHEDRAL>
0

>  <SCORE.INTRA.DIHEDRAL.0>
0

>  <SCORE.INTRA.POLAR>
0

>  <SCORE.INTRA.POLAR.0>
0

>  <SCORE.INTRA.REPUL>
0

>  <SCORE.INTRA.REPUL.0>
0

>  <SCORE.INTRA.SOLV>
0

>  <SCORE.INTRA.SOLV.lig_0>
-47.9788

>  <SCORE.INTRA.VDW>
0

>  <SCORE.INTRA.VDW.0>
0

>  <SCORE.INTRA.norm>
0

>  <SCORE.RESTR>
0

>  <SCORE.RESTR.CAVITY>
0

>  <SCORE.RESTR.norm>
0

>  <SCORE.SYSTEM>
0

>  <SCORE.SYSTEM.CONST>
0

>  <SCORE.SYSTEM.DIHEDRAL>
0

>  <SCORE.SYSTEM.SOLV>
0

>  <SCORE.SYSTEM.norm>
0

>  <SCORE.heavy>
10

>  <SCORE.norm>
-0.66555

>  <RMSD>
2.959

$$$$
ligand
 OpenBabel02271912133D
libRbt.so/2013.1/901 2013/11/27
 10 11  0  0  0  0  0  0  0  0999 V2000
   12.4719   -4.3735    7.7188 C   0  0  1  0  0  0  0  0  0  0  0  0
   10.9747   -1.4244    6.8728 C   0  0  2  0  0  0  0  0  0  0  0  0
   11.8303   -2.5146    8.4624 C   0  0  2  0  0  0  0  0  0  0  0  0
   13.0002   -5.5993    7.6271 N   0  0  0  0  0  0  0  0  0  0  0  0
   10.5437   -1.0408    5.6752 N   0  0  0  0  0  0  0  0  0  0  0  0
   10.8920   -0.6862    7.9733 N   0  0  0  0  0  0  0  0  0  0  0  0
   12.4147   -3.6553    8.8348 N   0  0  0  0  0  0  0  0  0  0  0  0
   11.9379   -3.6749    6.7000 N   0  0  0  0  0  0  0  0  0  0  0  0
   11.3892   -1.3286    8.9091 N   0  0  0  0  0  0  0  0  0  0  0  0
   11.5657   -2.5804    7.1520 N   0  0  1  0  0  0  0  0  0  0  0  0
  1  4  1  6  0  0  0
  1  8  1  0  0  0  0
  1  7  1  0  0  0  0
  2  5  1  6  0  0  0
  2  6  1  0  0  0  0
  2 10  1  0  0  0  0
  3  7  1  1  0  0  0
  3 10  1  0  0  0  0
  3  9  1  0  0  0  0
  6  9  1  0  0  0  0
 10  8  1  1  0  0  0
M  END
>  <CHROM.1>
11.69948739,-2.68408207,7.58845135,0.26552938,1.10915726,-2.03804473

>  <Name>
ligand

>  <RI>
0

>  <Rbt.Current_Directory>
/home/itssahil/PROJECTS/Mol_Feturizer/Test_systems_manuscript/rnas/2xnw

>  <Rbt.Executable>
rbdock ($Id: //depot/dev/client3/rdock/2013.1/src/exe/rbdock.cxx#4 $)

>  <Rbt.Library>
libRbt.so (2013.1, Build901 2013/11/27)

>  <Rbt.Parameter_File>
/export/apps/rDock/src/rDock_2013.1_src/data/scripts/dock_solv.prm

>  <Rbt.Receptor>
prm/pocket_docking_3.prm

>  <SCORE>
-6.66142

>  <SCORE.INTER>
-6.66142

>  <SCORE.INTER.CONST>
1

>  <SCORE.INTER.POLAR>
0

>  <SCORE.INTER.ROT>
0

>  <SCORE.INTER.SOLV>
15.7766

>  <SCORE.INTER.VDW>
-13.2998

>  <SCORE.INTER.norm>
-0.666142

>  <SCORE.INTRA>
0

>  <SCORE.INTRA.DIHEDRAL>
0

>  <SCORE.INTRA.DIHEDRAL.0>
0

>  <SCORE.INTRA.POLAR>
0

>  <SCORE.INTRA.POLAR.0>
0

>  <SCORE.INTRA.REPUL>
0

>  <SCORE.INTRA.REPUL.0>
0

>  <SCORE.INTRA.SOLV>
0

>  <SCORE.INTRA.SOLV.lig_0>
-47.9788

>  <SCORE.INTRA.VDW>
0

>  <SCORE.INTRA.VDW.0>
0

>  <SCORE.INTRA.norm>
0

>  <SCORE.RESTR>
0

>  <SCORE.RESTR.CAVITY>
0

>  <SCORE.RESTR.norm>
0

>  <SCORE.SYSTEM>
0

>  <SCORE.SYSTEM.CONST>
0

>  <SCORE.SYSTEM.DIHEDRAL>
0

>  <SCORE.SYSTEM.SOLV>
0

>  <SCORE.SYSTEM.norm>
0

>  <SCORE.heavy>
10

>  <SCORE.norm>
-0.666142

>  <RMSD>
2.959

$$$$
ligand
 OpenBabel02271912133D
libRbt.so/2013.1/901 2013/11/27
 10 11  0  0  0  0  0  0  0  0999 V2000
   12.4667   -4.3745    7.7027 C   0  0  1  0  0  0  0  0  0  0  0  0
   10.9780   -1.4279    6.8335 C   0  0  2  0  0  0  0  0  0  0  0  0
   11.8099   -2.5169    8.4364 C   0  0  2  0  0  0  0  0  0  0  0  0
   12.9987   -5.5993    7.6193 N   0  0  0  0  0  0  0  0  0  0  0  0
   10.5657   -1.0447    5.6292 N   0  0  0  0  0  0  0  0  0  0  0  0
   10.8762   -0.6901    7.9327 N   0  0  0  0  0  0  0  0  0  0  0  0
   12.3903   -3.6567    8.8179 N   0  0  0  0  0  0  0  0  0  0  0  0
   11.9480   -3.6766    6.6757 N   0  0  0  0  0  0  0  0  0  0  0  0
   11.3595   -1.3318    8.8763 N   0  0  0  0  0  0  0  0  0  0  0  0
   11.5665   -2.5829    7.1219 N   0  0  1  0  0  0  0  0  0  0  0  0
  1  4  1  6  0  0  0
  1  8  1  0  0  0  0
  1  7  1  0  0  0  0
  2  5  1  6  0  0  0
  2  6  1  0  0  0  0
  2 10  1  0  0  0  0
  3  7  1  1  0  0  0
  3 10  1  0  0  0  0
  3  9  1  0  0  0  0
  6  9  1  0  0  0  0
 10  8  1  1  0  0  0
M  END
>  <CHROM.1>
11.69345912,-2.68643098,7.56041031,0.23107904,1.11455165,-2.00690381

>  <Name>
ligand

>  <RI>
0

>  <Rbt.Current_Directory>
/home/itssahil/PROJECTS/Mol_Feturizer/Test_systems_manuscript/rnas/2xnw

>  <Rbt.Executable>
rbdock ($Id: //depot/dev/client3/rdock/2013.1/src/exe/rbdock.cxx#4 $)

>  <Rbt.Library>
libRbt.so (2013.1, Build901 2013/11/27)

>  <Rbt.Parameter_File>
/export/apps/rDock/src/rDock_2013.1_src/data/scripts/dock_solv.prm

>  <Rbt.Receptor>
prm/pocket_docking_3.prm

>  <SCORE>
-6.65086

>  <SCORE.INTER>
-6.65086

>  <SCORE.INTER.CONST>
1

>  <SCORE.INTER.POLAR>
0

>  <SCORE.INTER.ROT>
0

>  <SCORE.INTER.SOLV>
15.9052

>  <SCORE.INTER.VDW>
-13.3356

>  <SCORE.INTER.norm>
-0.665086

>  <SCORE.INTRA>
0

>  <SCORE.INTRA.DIHEDRAL>
0

>  <SCORE.INTRA.DIHEDRAL.0>
0

>  <SCORE.INTRA.POLAR>
0

>  <SCORE.INTRA.POLAR.0>
0

>  <SCORE.INTRA.REPUL>
0

>  <SCORE.INTRA.REPUL.0>
0

>  <SCORE.INTRA.SOLV>
0

>  <SCORE.INTRA.SOLV.lig_0>
-47.9788

>  <SCORE.INTRA.VDW>
0

>  <SCORE.INTRA.VDW.0>
0

>  <SCORE.INTRA.norm>
0

>  <SCORE.RESTR>
0

>  <SCORE.RESTR.CAVITY>
0

>  <SCORE.RESTR.norm>
0

>  <SCORE.SYSTEM>
0

>  <SCORE.SYSTEM.CONST>
0

>  <SCORE.SYSTEM.DIHEDRAL>
0

>  <SCORE.SYSTEM.SOLV>
0

>  <SCORE.SYSTEM.norm>
0

>  <SCORE.heavy>
10

>  <SCORE.norm>
-0.665086

>  <RMSD>
2.959

$$$$
ligand
 OpenBabel02271912133D
libRbt.so/2013.1/901 2013/11/27
 10 11  0  0  0  0  0  0  0  0999 V2000
   12.4819   -4.3769    7.7206 C   0  0  1  0  0  0  0  0  0  0  0  0
   10.9920   -1.4272    6.8637 C   0  0  2  0  0  0  0  0  0  0  0  0
   11.8081   -2.5298    8.4654 C   0  0  2  0  0  0  0  0  0  0  0  0
   13.0199   -5.5985    7.6310 N   0  0  0  0  0  0  0  0  0  0  0  0
   10.5934   -1.0329    5.6584 N   0  0  0  0  0  0  0  0  0  0  0  0
   10.8733   -0.7015    7.9692 N   0  0  0  0  0  0  0  0  0  0  0  0
   12.3884   -3.6712    8.8422 N   0  0  0  0  0  0  0  0  0  0  0  0
   11.9733   -3.6702    6.6945 N   0  0  0  0  0  0  0  0  0  0  0  0
   11.3473   -1.3513    8.9120 N   0  0  0  0  0  0  0  0  0  0  0  0
   11.5817   -2.5828    7.1473 N   0  0  1  0  0  0  0  0  0  0  0  0
  1  4  1  6  0  0  0
  1  8  1  0  0  0  0
  1  7  1  0  0  0  0
  2  5  1  6  0  0  0
  2  6  1  0  0  0  0
  2 10  1  0  0  0  0
  3  7  1  1  0  0  0
  3 10  1  0  0  0  0
  3  9  1  0  0  0  0
  6  9  1  0  0  0  0
 10  8  1  1  0  0  0
M  END
>  <CHROM.1>
11.70348877,-2.69048620,7.58628781,0.20097079,1.11596391,-1.96928244

>  <Name>
ligand

>  <RI>
0

>  <Rbt.Current_Directory>
/home/itssahil/PROJECTS/Mol_Feturizer/Test_systems_manuscript/rnas/2xnw

>  <Rbt.Executable>
rbdock ($Id: //depot/dev/client3/rdock/2013.1/src/exe/rbdock.cxx#4 $)

>  <Rbt.Library>
libRbt.so (2013.1, Build901 2013/11/27)

>  <Rbt.Parameter_File>
/export/apps/rDock/src/rDock_2013.1_src/data/scripts/dock_solv.prm

>  <Rbt.Receptor>
prm/pocket_docking_5.prm

>  <SCORE>
-6.64085

>  <SCORE.INTER>
-6.64085

>  <SCORE.INTER.CONST>
1

>  <SCORE.INTER.POLAR>
0

>  <SCORE.INTER.ROT>
0

>  <SCORE.INTER.SOLV>
15.8625

>  <SCORE.INTER.VDW>
-13.3147

>  <SCORE.INTER.norm>
-0.664085

>  <SCORE.INTRA>
0

>  <SCORE.INTRA.DIHEDRAL>
0

>  <SCORE.INTRA.DIHEDRAL.0>
0

>  <SCORE.INTRA.POLAR>
0

>  <SCORE.INTRA.POLAR.0>
0

>  <SCORE.INTRA.REPUL>
0

>  <SCORE.INTRA.REPUL.0>
0

>  <SCORE.INTRA.SOLV>
0

>  <SCORE.INTRA.SOLV.lig_0>
-47.9788

>  <SCORE.INTRA.VDW>
0

>  <SCORE.INTRA.VDW.0>
0

>  <SCORE.INTRA.norm>
0

>  <SCORE.RESTR>
0

>  <SCORE.RESTR.CAVITY>
0

>  <SCORE.RESTR.norm>
0

>  <SCORE.SYSTEM>
0

>  <SCORE.SYSTEM.CONST>
0

>  <SCORE.SYSTEM.DIHEDRAL>
0

>  <SCORE.SYSTEM.SOLV>
0

>  <SCORE.SYSTEM.norm>
0

>  <SCORE.heavy>
10

>  <SCORE.norm>
-0.664085

>  <RMSD>
2.959

$$$$
ligand
 OpenBabel02271912133D
libRbt.so/2013.1/901 2013/11/27
 10 11  0  0  0  0  0  0  0  0999 V2000
   12.5905   -4.3643    7.7489 C   0  0  1  0  0  0  0  0  0  0  0  0
   10.9763   -1.4730    6.9188 C   0  0  2  0  0  0  0  0  0  0  0  0
   11.8616   -2.5432    8.5056 C   0  0  2  0  0  0  0  0  0  0  0  0
   13.1721   -5.5651    7.6497 N   0  0  0  0  0  0  0  0  0  0  0  0
   10.5417   -1.0947    5.7208 N   0  0  0  0  0  0  0  0  0  0  0  0
   10.8504   -0.7515    8.0262 N   0  0  0  0  0  0  0  0  0  0  0  0
   12.4908   -3.6619    8.8719 N   0  0  0  0  0  0  0  0  0  0  0  0
   12.0375   -3.6779    6.7320 N   0  0  0  0  0  0  0  0  0  0  0  0
   11.3652   -1.3824    8.9604 N   0  0  0  0  0  0  0  0  0  0  0  0
   11.6137   -2.6056    7.1918 N   0  0  1  0  0  0  0  0  0  0  0  0
  1  4  1  6  0  0  0
  1  8  1  0  0  0  0
  1  7  1  0  0  0  0
  2  5  1  6  0  0  0
  2  6  1  0  0  0  0
  2 10  1  0  0  0  0
  3  7  1  1  0  0  0
  3 10  1  0  0  0  0
  3  9  1  0  0  0  0
  6  9  1  0  0  0  0
 10  8  1  1  0  0  0
M  END
>  <CHROM.1>
11.74733773,-2.70831402,7.62850569,0.20522335,1.07453985,-1.97343469

>  <Name>
ligand

>  <RI>
0

>  <Rbt.Current_Directory>
/home/itssahil/PROJECTS/Mol_Feturizer/Test_systems_manuscript/rnas/2xnw

>  <Rbt.Executable>
rbdock ($Id: //depot/dev/client3/rdock/2013.1/src/exe/rbdock.cxx#4 $)

>  <Rbt.Library>
libRbt.so (2013.1, Build901 2013/11/27)

>  <Rbt.Parameter_File>
/export/apps/rDock/src/rDock_2013.1_src/data/scripts/dock_solv.prm

>  <Rbt.Receptor>
prm/pocket_docking_8.prm

>  <SCORE>
-6.66618

>  <SCORE.INTER>
-6.66618

>  <SCORE.INTER.CONST>
1

>  <SCORE.INTER.POLAR>
0

>  <SCORE.INTER.ROT>
0

>  <SCORE.INTER.SOLV>
14.9654

>  <SCORE.INTER.VDW>
-13.0326

>  <SCORE.INTER.norm>
-0.666618

>  <SCORE.INTRA>
0

>  <SCORE.INTRA.DIHEDRAL>
0

>  <SCORE.INTRA.DIHEDRAL.0>
0

>  <SCORE.INTRA.POLAR>
0

>  <SCORE.INTRA.POLAR.0>
0

>  <SCORE.INTRA.REPUL>
0

>  <SCORE.INTRA.REPUL.0>
0

>  <SCORE.INTRA.SOLV>
0

>  <SCORE.INTRA.SOLV.lig_0>
-47.9788

>  <SCORE.INTRA.VDW>
0

>  <SCORE.INTRA.VDW.0>
0

>  <SCORE.INTRA.norm>
0

>  <SCORE.RESTR>
0

>  <SCORE.RESTR.CAVITY>
0

>  <SCORE.RESTR.norm>
0

>  <SCORE.SYSTEM>
0

>  <SCORE.SYSTEM.CONST>
0

>  <SCORE.SYSTEM.DIHEDRAL>
0

>  <SCORE.SYSTEM.SOLV>
0

>  <SCORE.SYSTEM.norm>
0

>  <SCORE.heavy>
10

>  <SCORE.norm>
-0.666618

>  <RMSD>
2.959

$$$$
ligand
 OpenBabel02271912133D
libRbt.so/2013.1/901 2013/11/27
 10 11  0  0  0  0  0  0  0  0999 V2000
   12.5802   -4.3747    7.7514 C   0  0  1  0  0  0  0  0  0  0  0  0
   10.9930   -1.4705    6.9142 C   0  0  2  0  0  0  0  0  0  0  0  0
   11.8750   -2.5418    8.5022 C   0  0  2  0  0  0  0  0  0  0  0  0
   13.1483   -5.5822    7.6557 N   0  0  0  0  0  0  0  0  0  0  0  0
   10.5561   -1.0939    5.7165 N   0  0  0  0  0  0  0  0  0  0  0  0
   10.8807   -0.7418    8.0184 N   0  0  0  0  0  0  0  0  0  0  0  0
   12.4941   -3.6652    8.8712 N   0  0  0  0  0  0  0  0  0  0  0  0
   12.0293   -3.6877    6.7338 N   0  0  0  0  0  0  0  0  0  0  0  0
   11.3935   -1.3732    8.9532 N   0  0  0  0  0  0  0  0  0  0  0  0
   11.6195   -2.6084    7.1900 N   0  0  1  0  0  0  0  0  0  0  0  0
  1  4  1  6  0  0  0
  1  8  1  0  0  0  0
  1  7  1  0  0  0  0
  2  5  1  6  0  0  0
  2  6  1  0  0  0  0
  2 10  1  0  0  0  0
  3  7  1  1  0  0  0
  3 10  1  0  0  0  0
  3  9  1  0  0  0  0
  6  9  1  0  0  0  0
 10  8  1  1  0  0  0
M  END
>  <CHROM.1>
11.75433667,-2.71027653,7.62654657,0.22458478,1.08232968,-1.99584094

>  <Name>
ligand

>  <RI>
0

>  <Rbt.Current_Directory>
/home/itssahil/PROJECTS/Mol_Feturizer/Test_systems_manuscript/rnas/2xnw

>  <Rbt.Executable>
rbdock ($Id: //depot/dev/client3/rdock/2013.1/src/exe/rbdock.cxx#4 $)

>  <Rbt.Library>
libRbt.so (2013.1, Build901 2013/11/27)

>  <Rbt.Parameter_File>
/export/apps/rDock/src/rDock_2013.1_src/data/scripts/dock_solv.prm

>  <Rbt.Receptor>
prm/blind_docking_40.prm

>  <SCORE>
-6.66334

>  <SCORE.INTER>
-6.66334

>  <SCORE.INTER.CONST>
1

>  <SCORE.INTER.POLAR>
0

>  <SCORE.INTER.ROT>
0

>  <SCORE.INTER.SOLV>
15.0828

>  <SCORE.INTER.VDW>
-13.0698

>  <SCORE.INTER.norm>
-0.666334

>  <SCORE.INTRA>
0

>  <SCORE.INTRA.DIHEDRAL>
0

>  <SCORE.INTRA.DIHEDRAL.0>
0

>  <SCORE.INTRA.POLAR>
0

>  <SCORE.INTRA.POLAR.0>
0

>  <SCORE.INTRA.REPUL>
0

>  <SCORE.INTRA.REPUL.0>
0

>  <SCORE.INTRA.SOLV>
0

>  <SCORE.INTRA.SOLV.lig_0>
-47.9788

>  <SCORE.INTRA.VDW>
0

>  <SCORE.INTRA.VDW.0>
0

>  <SCORE.INTRA.norm>
0

>  <SCORE.RESTR>
0

>  <SCORE.RESTR.CAVITY>
0

>  <SCORE.RESTR.norm>
0

>  <SCORE.SYSTEM>
0

>  <SCORE.SYSTEM.CONST>
0

>  <SCORE.SYSTEM.DIHEDRAL>
0

>  <SCORE.SYSTEM.SOLV>
0

>  <SCORE.SYSTEM.norm>
0

>  <SCORE.heavy>
10

>  <SCORE.norm>
-0.666334

>  <RMSD>
2.960

$$$$
ligand
 OpenBabel02271912133D
libRbt.so/2013.1/901 2013/11/27
 10 11  0  0  0  0  0  0  0  0999 V2000
   12.5829   -4.3703    7.7451 C   0  0  1  0  0  0  0  0  0  0  0  0
   10.9844   -1.4695    6.9178 C   0  0  2  0  0  0  0  0  0  0  0  0
   11.8686   -2.5438    8.5026 C   0  0  2  0  0  0  0  0  0  0  0  0
   13.1564   -5.5750    7.6450 N   0  0  0  0  0  0  0  0  0  0  0  0
   10.5478   -1.0897    5.7211 N   0  0  0  0  0  0  0  0  0  0  0  0
   10.8673   -0.7460    8.0249 N   0  0  0  0  0  0  0  0  0  0  0  0
   12.4920   -3.6661    8.8677 N   0  0  0  0  0  0  0  0  0  0  0  0
   12.0306   -3.6814    6.7295 N   0  0  0  0  0  0  0  0  0  0  0  0
   11.3814   -1.3793    8.9579 N   0  0  0  0  0  0  0  0  0  0  0  0
   11.6155   -2.6059    7.1897 N   0  0  1  0  0  0  0  0  0  0  0  0
  1  4  1  6  0  0  0
  1  8  1  0  0  0  0
  1  7  1  0  0  0  0
  2  5  1  6  0  0  0
  2  6  1  0  0  0  0
  2 10  1  0  0  0  0
  3  7  1  1  0  0  0
  3 10  1  0  0  0  0
  3  9  1  0  0  0  0
  6  9  1  0  0  0  0
 10  8  1  1  0  0  0
M  END
>  <CHROM.1>
11.75004362,-2.70904109,7.62604263,0.21776882,1.07900192,-1.98552994

>  <Name>
ligand

>  <RI>
0

>  <Rbt.Current_Directory>
/home/itssahil/PROJECTS/Mol_Feturizer/Test_systems_manuscript/rnas/2xnw

>  <Rbt.Executable>
rbdock ($Id: //depot/dev/client3/rdock/2013.1/src/exe/rbdock.cxx#4 $)

>  <Rbt.Library>
libRbt.so (2013.1, Build901 2013/11/27)

>  <Rbt.Parameter_File>
/export/apps/rDock/src/rDock_2013.1_src/data/scripts/dock_solv.prm

>  <Rbt.Receptor>
prm/blind_docking_20.prm

>  <SCORE>
-6.6644

>  <SCORE.INTER>
-6.6644

>  <SCORE.INTER.CONST>
1

>  <SCORE.INTER.POLAR>
0

>  <SCORE.INTER.ROT>
0

>  <SCORE.INTER.SOLV>
15.0365

>  <SCORE.INTER.VDW>
-13.0551

>  <SCORE.INTER.norm>
-0.66644

>  <SCORE.INTRA>
0

>  <SCORE.INTRA.DIHEDRAL>
0

>  <SCORE.INTRA.DIHEDRAL.0>
0

>  <SCORE.INTRA.POLAR>
0

>  <SCORE.INTRA.POLAR.0>
0

>  <SCORE.INTRA.REPUL>
0

>  <SCORE.INTRA.REPUL.0>
0

>  <SCORE.INTRA.SOLV>
0

>  <SCORE.INTRA.SOLV.lig_0>
-47.9788

>  <SCORE.INTRA.VDW>
0

>  <SCORE.INTRA.VDW.0>
0

>  <SCORE.INTRA.norm>
0

>  <SCORE.RESTR>
0

>  <SCORE.RESTR.CAVITY>
0

>  <SCORE.RESTR.norm>
0

>  <SCORE.SYSTEM>
0

>  <SCORE.SYSTEM.CONST>
0

>  <SCORE.SYSTEM.DIHEDRAL>
0

>  <SCORE.SYSTEM.SOLV>
0

>  <SCORE.SYSTEM.norm>
0

>  <SCORE.heavy>
10

>  <SCORE.norm>
-0.66644

>  <RMSD>
2.961

$$$$
ligand
 OpenBabel02271912133D
libRbt.so/2013.1/901 2013/11/27
 10 11  0  0  0  0  0  0  0  0999 V2000
   12.5841   -4.3738    7.7475 C   0  0  1  0  0  0  0  0  0  0  0  0
   10.9917   -1.4716    6.9133 C   0  0  2  0  0  0  0  0  0  0  0  0
   11.8724   -2.5446    8.5009 C   0  0  2  0  0  0  0  0  0  0  0  0
   13.1555   -5.5797    7.6502 N   0  0  0  0  0  0  0  0  0  0  0  0
   10.5570   -1.0932    5.7154 N   0  0  0  0  0  0  0  0  0  0  0  0
   10.8748   -0.7459    8.0189 N   0  0  0  0  0  0  0  0  0  0  0  0
   12.4933   -3.6673    8.8688 N   0  0  0  0  0  0  0  0  0  0  0  0
   12.0341   -3.6858    6.7301 N   0  0  0  0  0  0  0  0  0  0  0  0
   11.3868   -1.3784    8.9536 N   0  0  0  0  0  0  0  0  0  0  0  0
   11.6204   -2.6086    7.1879 N   0  0  1  0  0  0  0  0  0  0  0  0
  1  4  1  6  0  0  0
  1  8  1  0  0  0  0
  1  7  1  0  0  0  0
  2  5  1  6  0  0  0
  2  6  1  0  0  0  0
  2 10  1  0  0  0  0
  3  7  1  1  0  0  0
  3 10  1  0  0  0  0
  3  9  1  0  0  0  0
  6  9  1  0  0  0  0
 10  8  1  1  0  0  0
M  END
>  <CHROM.1>
11.75435923,-2.71123767,7.62455064,0.21742442,1.08106876,-1.98708442

>  <Name>
ligand

>  <RI>
0

>  <Rbt.Current_Directory>
/home/itssahil/PROJECTS/Mol_Feturizer/Test_systems_manuscript/rnas/2xnw

>  <Rbt.Executable>
rbdock ($Id: //depot/dev/client3/rdock/2013.1/src/exe/rbdock.cxx#4 $)

>  <Rbt.Library>
libRbt.so (2013.1, Build901 2013/11/27)

>  <Rbt.Parameter_File>
/export/apps/rDock/src/rDock_2013.1_src/data/scripts/dock_solv.prm

>  <Rbt.Receptor>
prm/pocket_docking_4.prm

>  <SCORE>
-6.66427

>  <SCORE.INTER>
-6.66427

>  <SCORE.INTER.CONST>
1

>  <SCORE.INTER.POLAR>
0

>  <SCORE.INTER.ROT>
0

>  <SCORE.INTER.SOLV>
15.0557

>  <SCORE.INTER.VDW>
-13.0614

>  <SCORE.INTER.norm>
-0.666427

>  <SCORE.INTRA>
0

>  <SCORE.INTRA.DIHEDRAL>
0

>  <SCORE.INTRA.DIHEDRAL.0>
0

>  <SCORE.INTRA.POLAR>
0

>  <SCORE.INTRA.POLAR.0>
0

>  <SCORE.INTRA.REPUL>
0

>  <SCORE.INTRA.REPUL.0>
0

>  <SCORE.INTRA.SOLV>
0

>  <SCORE.INTRA.SOLV.lig_0>
-47.9788

>  <SCORE.INTRA.VDW>
0

>  <SCORE.INTRA.VDW.0>
0

>  <SCORE.INTRA.norm>
0

>  <SCORE.RESTR>
0

>  <SCORE.RESTR.CAVITY>
0

>  <SCORE.RESTR.norm>
0

>  <SCORE.SYSTEM>
0

>  <SCORE.SYSTEM.CONST>
0

>  <SCORE.SYSTEM.DIHEDRAL>
0

>  <SCORE.SYSTEM.SOLV>
0

>  <SCORE.SYSTEM.norm>
0

>  <SCORE.heavy>
10

>  <SCORE.norm>
-0.666427

>  <RMSD>
2.961

$$$$
ligand
 OpenBabel02271912133D
libRbt.so/2013.1/901 2013/11/27
 10 11  0  0  0  0  0  0  0  0999 V2000
   12.4976   -4.3948    7.7482 C   0  0  1  0  0  0  0  0  0  0  0  0
   10.9687   -1.4648    6.8925 C   0  0  2  0  0  0  0  0  0  0  0  0
   11.8112   -2.5517    8.4913 C   0  0  2  0  0  0  0  0  0  0  0  0
   13.0477   -5.6111    7.6589 N   0  0  0  0  0  0  0  0  0  0  0  0
   10.5547   -1.0801    5.6893 N   0  0  0  0  0  0  0  0  0  0  0  0
   10.8526   -0.7355    7.9959 N   0  0  0  0  0  0  0  0  0  0  0  0
   12.4071   -3.6852    8.8676 N   0  0  0  0  0  0  0  0  0  0  0  0
   11.9720   -3.6981    6.7238 N   0  0  0  0  0  0  0  0  0  0  0  0
   11.3422   -1.3761    8.9371 N   0  0  0  0  0  0  0  0  0  0  0  0
   11.5731   -2.6129    7.1756 N   0  0  1  0  0  0  0  0  0  0  0  0
  1  4  1  6  0  0  0
  1  8  1  0  0  0  0
  1  7  1  0  0  0  0
  2  5  1  6  0  0  0
  2  6  1  0  0  0  0
  2 10  1  0  0  0  0
  3  7  1  1  0  0  0
  3 10  1  0  0  0  0
  3  9  1  0  0  0  0
  6  9  1  0  0  0  0
 10  8  1  1  0  0  0
M  END
>  <CHROM.1>
11.70015624,-2.71733218,7.61387948,0.21088584,1.10257096,-1.98254674

>  <Name>
ligand

>  <RI>
0

>  <Rbt.Current_Directory>
/home/itssahil/PROJECTS/Mol_Feturizer/Test_systems_manuscript/rnas/2xnw

>  <Rbt.Executable>
rbdock ($Id: //depot/dev/client3/rdock/2013.1/src/exe/rbdock.cxx#4 $)

>  <Rbt.Library>
libRbt.so (2013.1, Build901 2013/11/27)

>  <Rbt.Parameter_File>
/export/apps/rDock/src/rDock_2013.1_src/data/scripts/dock_solv.prm

>  <Rbt.Receptor>
prm/pocket_docking_4.prm

>  <SCORE>
-6.66303

>  <SCORE.INTER>
-6.66303

>  <SCORE.INTER.CONST>
1

>  <SCORE.INTER.POLAR>
0

>  <SCORE.INTER.ROT>
0

>  <SCORE.INTER.SOLV>
15.5569

>  <SCORE.INTER.VDW>
-13.2276

>  <SCORE.INTER.norm>
-0.666303

>  <SCORE.INTRA>
0

>  <SCORE.INTRA.DIHEDRAL>
0

>  <SCORE.INTRA.DIHEDRAL.0>
0

>  <SCORE.INTRA.POLAR>
0

>  <SCORE.INTRA.POLAR.0>
0

>  <SCORE.INTRA.REPUL>
0

>  <SCORE.INTRA.REPUL.0>
0

>  <SCORE.INTRA.SOLV>
0

>  <SCORE.INTRA.SOLV.lig_0>
-47.9788

>  <SCORE.INTRA.VDW>
0

>  <SCORE.INTRA.VDW.0>
0

>  <SCORE.INTRA.norm>
0

>  <SCORE.RESTR>
0

>  <SCORE.RESTR.CAVITY>
0

>  <SCORE.RESTR.norm>
0

>  <SCORE.SYSTEM>
0

>  <SCORE.SYSTEM.CONST>
0

>  <SCORE.SYSTEM.DIHEDRAL>
0

>  <SCORE.SYSTEM.SOLV>
0

>  <SCORE.SYSTEM.norm>
0

>  <SCORE.heavy>
10

>  <SCORE.norm>
-0.666303

>  <RMSD>
2.962

$$$$
ligand
 OpenBabel02271912133D
libRbt.so/2013.1/901 2013/11/27
 10 11  0  0  0  0  0  0  0  0999 V2000
   12.5800   -4.3764    7.7388 C   0  0  1  0  0  0  0  0  0  0  0  0
   10.9796   -1.4755    6.9154 C   0  0  2  0  0  0  0  0  0  0  0  0
   11.8687   -2.5493    8.4977 C   0  0  2  0  0  0  0  0  0  0  0  0
   13.1528   -5.5813    7.6374 N   0  0  0  0  0  0  0  0  0  0  0  0
   10.5392   -1.0961    5.7198 N   0  0  0  0  0  0  0  0  0  0  0  0
   10.8663   -0.7515    8.0225 N   0  0  0  0  0  0  0  0  0  0  0  0
   12.4929   -3.6716    8.8614 N   0  0  0  0  0  0  0  0  0  0  0  0
   12.0246   -3.6878    6.7247 N   0  0  0  0  0  0  0  0  0  0  0  0
   11.3833   -1.3845    8.9541 N   0  0  0  0  0  0  0  0  0  0  0  0
   11.6113   -2.6120    7.1857 N   0  0  1  0  0  0  0  0  0  0  0  0
  1  4  1  6  0  0  0
  1  8  1  0  0  0  0
  1  7  1  0  0  0  0
  2  5  1  6  0  0  0
  2  6  1  0  0  0  0
  2 10  1  0  0  0  0
  3  7  1  1  0  0  0
  3 10  1  0  0  0  0
  3  9  1  0  0  0  0
  6  9  1  0  0  0  0
 10  8  1  1  0  0  0
M  END
>  <CHROM.1>
11.74722330,-2.71496003,7.62164713,0.22436672,1.07793721,-1.99182532

>  <Name>
ligand

>  <RI>
0

>  <Rbt.Current_Directory>
/home/itssahil/PROJECTS/Mol_Feturizer/Test_systems_manuscript/rnas/2xnw

>  <Rbt.Executable>
rbdock ($Id: //depot/dev/client3/rdock/2013.1/src/exe/rbdock.cxx#4 $)

>  <Rbt.Library>
libRbt.so (2013.1, Build901 2013/11/27)

>  <Rbt.Parameter_File>
/export/apps/rDock/src/rDock_2013.1_src/data/scripts/dock_solv.prm

>  <Rbt.Receptor>
prm/blind_docking_80.prm

>  <SCORE>
-6.66755

>  <SCORE.INTER>
-6.66755

>  <SCORE.INTER.CONST>
1

>  <SCORE.INTER.POLAR>
0

>  <SCORE.INTER.ROT>
0

>  <SCORE.INTER.SOLV>
15.0097

>  <SCORE.INTER.VDW>
-13.0483

>  <SCORE.INTER.norm>
-0.666755

>  <SCORE.INTRA>
0

>  <SCORE.INTRA.DIHEDRAL>
0

>  <SCORE.INTRA.DIHEDRAL.0>
0

>  <SCORE.INTRA.POLAR>
0

>  <SCORE.INTRA.POLAR.0>
0

>  <SCORE.INTRA.REPUL>
0

>  <SCORE.INTRA.REPUL.0>
0

>  <SCORE.INTRA.SOLV>
0

>  <SCORE.INTRA.SOLV.lig_0>
-47.9788

>  <SCORE.INTRA.VDW>
0

>  <SCORE.INTRA.VDW.0>
0

>  <SCORE.INTRA.norm>
0

>  <SCORE.RESTR>
0

>  <SCORE.RESTR.CAVITY>
0

>  <SCORE.RESTR.norm>
0

>  <SCORE.SYSTEM>
0

>  <SCORE.SYSTEM.CONST>
0

>  <SCORE.SYSTEM.DIHEDRAL>
0

>  <SCORE.SYSTEM.SOLV>
0

>  <SCORE.SYSTEM.norm>
0

>  <SCORE.heavy>
10

>  <SCORE.norm>
-0.666755

>  <RMSD>
2.964

$$$$
ligand
 OpenBabel02271912133D
libRbt.so/2013.1/901 2013/11/27
 10 11  0  0  0  0  0  0  0  0999 V2000
   12.5570   -4.3878    7.7426 C   0  0  1  0  0  0  0  0  0  0  0  0
   10.9905   -1.4694    6.9159 C   0  0  2  0  0  0  0  0  0  0  0  0
   11.8806   -2.5453    8.4962 C   0  0  2  0  0  0  0  0  0  0  0  0
   13.1110   -5.6016    7.6436 N   0  0  0  0  0  0  0  0  0  0  0  0
   10.5430   -1.0918    5.7224 N   0  0  0  0  0  0  0  0  0  0  0  0
   10.8996   -0.7362    8.0190 N   0  0  0  0  0  0  0  0  0  0  0  0
   12.4922   -3.6741    8.8611 N   0  0  0  0  0  0  0  0  0  0  0  0
   12.0009   -3.6981    6.7296 N   0  0  0  0  0  0  0  0  0  0  0  0
   11.4171   -1.3703    8.9495 N   0  0  0  0  0  0  0  0  0  0  0  0
   11.6083   -2.6131    7.1875 N   0  0  1  0  0  0  0  0  0  0  0  0
  1  4  1  6  0  0  0
  1  8  1  0  0  0  0
  1  7  1  0  0  0  0
  2  5  1  6  0  0  0
  2  6  1  0  0  0  0
  2 10  1  0  0  0  0
  3  7  1  1  0  0  0
  3 10  1  0  0  0  0
  3  9  1  0  0  0  0
  6  9  1  0  0  0  0
 10  8  1  1  0  0  0
M  END
>  <CHROM.1>
11.74736447,-2.71510774,7.62266152,0.25809054,1.08670344,-2.02852454

>  <Name>
ligand

>  <RI>
0

>  <Rbt.Current_Directory>
/home/itssahil/PROJECTS/Mol_Feturizer/Test_systems_manuscript/rnas/2xnw

>  <Rbt.Executable>
rbdock ($Id: //depot/dev/client3/rdock/2013.1/src/exe/rbdock.cxx#4 $)

>  <Rbt.Library>
libRbt.so (2013.1, Build901 2013/11/27)

>  <Rbt.Parameter_File>
/export/apps/rDock/src/rDock_2013.1_src/data/scripts/dock_solv.prm

>  <Rbt.Receptor>
prm/pocket_docking_7.prm

>  <SCORE>
-6.65871

>  <SCORE.INTER>
-6.65871

>  <SCORE.INTER.CONST>
1

>  <SCORE.INTER.POLAR>
0

>  <SCORE.INTER.ROT>
0

>  <SCORE.INTER.SOLV>
15.1755

>  <SCORE.INTER.VDW>
-13.0976

>  <SCORE.INTER.norm>
-0.665871

>  <SCORE.INTRA>
0

>  <SCORE.INTRA.DIHEDRAL>
0

>  <SCORE.INTRA.DIHEDRAL.0>
0

>  <SCORE.INTRA.POLAR>
0

>  <SCORE.INTRA.POLAR.0>
0

>  <SCORE.INTRA.REPUL>
0

>  <SCORE.INTRA.REPUL.0>
0

>  <SCORE.INTRA.SOLV>
0

>  <SCORE.INTRA.SOLV.lig_0>
-47.9788

>  <SCORE.INTRA.VDW>
0

>  <SCORE.INTRA.VDW.0>
0

>  <SCORE.INTRA.norm>
0

>  <SCORE.RESTR>
0

>  <SCORE.RESTR.CAVITY>
0

>  <SCORE.RESTR.norm>
0

>  <SCORE.SYSTEM>
0

>  <SCORE.SYSTEM.CONST>
0

>  <SCORE.SYSTEM.DIHEDRAL>
0

>  <SCORE.SYSTEM.SOLV>
0

>  <SCORE.SYSTEM.norm>
0

>  <SCORE.heavy>
10

>  <SCORE.norm>
-0.665871

>  <RMSD>
2.965

$$$$
ligand
 OpenBabel02271912133D
libRbt.so/2013.1/901 2013/11/27
 10 11  0  0  0  0  0  0  0  0999 V2000
   12.5574   -4.3985    7.7369 C   0  0  1  0  0  0  0  0  0  0  0  0
   10.9913   -1.4879    6.8825 C   0  0  2  0  0  0  0  0  0  0  0  0
   11.8186   -2.5785    8.4867 C   0  0  2  0  0  0  0  0  0  0  0  0
   13.1330   -5.6028    7.6453 N   0  0  0  0  0  0  0  0  0  0  0  0
   10.5972   -1.0960    5.6749 N   0  0  0  0  0  0  0  0  0  0  0  0
   10.8361   -0.7750    7.9917 N   0  0  0  0  0  0  0  0  0  0  0  0
   12.4278   -3.7051    8.8625 N   0  0  0  0  0  0  0  0  0  0  0  0
   12.0416   -3.6991    6.7094 N   0  0  0  0  0  0  0  0  0  0  0  0
   11.3167   -1.4179    8.9359 N   0  0  0  0  0  0  0  0  0  0  0  0
   11.6115   -2.6276    7.1652 N   0  0  1  0  0  0  0  0  0  0  0  0
  1  4  1  6  0  0  0
  1  8  1  0  0  0  0
  1  7  1  0  0  0  0
  2  5  1  6  0  0  0
  2  6  1  0  0  0  0
  2 10  1  0  0  0  0
  3  7  1  1  0  0  0
  3 10  1  0  0  0  0
  3  9  1  0  0  0  0
  6  9  1  0  0  0  0
 10  8  1  1  0  0  0
M  END
>  <CHROM.1>
11.73061597,-2.73515841,7.60496654,0.14880845,1.09293727,-1.91481427

>  <Name>
ligand

>  <RI>
0

>  <Rbt.Current_Directory>
/home/itssahil/PROJECTS/Mol_Feturizer/Test_systems_manuscript/rnas/2xnw

>  <Rbt.Executable>
rbdock ($Id: //depot/dev/client3/rdock/2013.1/src/exe/rbdock.cxx#4 $)

>  <Rbt.Library>
libRbt.so (2013.1, Build901 2013/11/27)

>  <Rbt.Parameter_File>
/export/apps/rDock/src/rDock_2013.1_src/data/scripts/dock_solv.prm

>  <Rbt.Receptor>
prm/blind_docking_20.prm

>  <SCORE>
-6.64042

>  <SCORE.INTER>
-6.64042

>  <SCORE.INTER.CONST>
1

>  <SCORE.INTER.POLAR>
0

>  <SCORE.INTER.ROT>
0

>  <SCORE.INTER.SOLV>
15.2748

>  <SCORE.INTER.VDW>
-13.1185

>  <SCORE.INTER.norm>
-0.664042

>  <SCORE.INTRA>
0

>  <SCORE.INTRA.DIHEDRAL>
0

>  <SCORE.INTRA.DIHEDRAL.0>
0

>  <SCORE.INTRA.POLAR>
0

>  <SCORE.INTRA.POLAR.0>
0

>  <SCORE.INTRA.REPUL>
0

>  <SCORE.INTRA.REPUL.0>
0

>  <SCORE.INTRA.SOLV>
0

>  <SCORE.INTRA.SOLV.lig_0>
-47.9788

>  <SCORE.INTRA.VDW>
0

>  <SCORE.INTRA.VDW.0>
0

>  <SCORE.INTRA.norm>
0

>  <SCORE.RESTR>
0

>  <SCORE.RESTR.CAVITY>
0

>  <SCORE.RESTR.norm>
0

>  <SCORE.SYSTEM>
0

>  <SCORE.SYSTEM.CONST>
0

>  <SCORE.SYSTEM.DIHEDRAL>
0

>  <SCORE.SYSTEM.SOLV>
0

>  <SCORE.SYSTEM.norm>
0

>  <SCORE.heavy>
10

>  <SCORE.norm>
-0.664042

>  <RMSD>
2.966

$$$$
ligand
 OpenBabel02271912133D
libRbt.so/2013.1/901 2013/11/27
 10 11  0  0  0  0  0  0  0  0999 V2000
   12.4749   -4.4175    7.7347 C   0  0  1  0  0  0  0  0  0  0  0  0
   10.9957   -1.4674    6.8612 C   0  0  2  0  0  0  0  0  0  0  0  0
   11.8544   -2.5437    8.4585 C   0  0  2  0  0  0  0  0  0  0  0  0
   12.9924   -5.6487    7.6552 N   0  0  0  0  0  0  0  0  0  0  0  0
   10.5588   -1.0959    5.6619 N   0  0  0  0  0  0  0  0  0  0  0  0
   10.9274   -0.7141    7.9523 N   0  0  0  0  0  0  0  0  0  0  0  0
   12.4322   -3.6842    8.8415 N   0  0  0  0  0  0  0  0  0  0  0  0
   11.9390   -3.7279    6.7108 N   0  0  0  0  0  0  0  0  0  0  0  0
   11.4265   -1.3482    8.8929 N   0  0  0  0  0  0  0  0  0  0  0  0
   11.5793   -2.6245    7.1512 N   0  0  1  0  0  0  0  0  0  0  0  0
  1  4  1  6  0  0  0
  1  8  1  0  0  0  0
  1  7  1  0  0  0  0
  2  5  1  6  0  0  0
  2  6  1  0  0  0  0
  2 10  1  0  0  0  0
  3  7  1  1  0  0  0
  3 10  1  0  0  0  0
  3  9  1  0  0  0  0
  6  9  1  0  0  0  0
 10  8  1  1  0  0  0
M  END
>  <CHROM.1>
11.71551656,-2.72355041,7.58788117,0.28936492,1.11296079,-2.07257510

>  <Name>
ligand

>  <RI>
0

>  <Rbt.Current_Directory>
/home/itssahil/PROJECTS/Mol_Feturizer/Test_systems_manuscript/rnas/2xnw

>  <Rbt.Executable>
rbdock ($Id: //depot/dev/client3/rdock/2013.1/src/exe/rbdock.cxx#4 $)

>  <Rbt.Library>
libRbt.so (2013.1, Build901 2013/11/27)

>  <Rbt.Parameter_File>
/export/apps/rDock/src/rDock_2013.1_src/data/scripts/dock_solv.prm

>  <Rbt.Receptor>
prm/blind_docking_60.prm

>  <SCORE>
-6.71612

>  <SCORE.INTER>
-6.71612

>  <SCORE.INTER.CONST>
1

>  <SCORE.INTER.POLAR>
0

>  <SCORE.INTER.ROT>
0

>  <SCORE.INTER.SOLV>
15.7344

>  <SCORE.INTER.VDW>
-13.3222

>  <SCORE.INTER.norm>
-0.671612

>  <SCORE.INTRA>
0

>  <SCORE.INTRA.DIHEDRAL>
0

>  <SCORE.INTRA.DIHEDRAL.0>
0

>  <SCORE.INTRA.POLAR>
0

>  <SCORE.INTRA.POLAR.0>
0

>  <SCORE.INTRA.REPUL>
0

>  <SCORE.INTRA.REPUL.0>
0

>  <SCORE.INTRA.SOLV>
0

>  <SCORE.INTRA.SOLV.lig_0>
-47.9788

>  <SCORE.INTRA.VDW>
0

>  <SCORE.INTRA.VDW.0>
0

>  <SCORE.INTRA.norm>
0

>  <SCORE.RESTR>
0

>  <SCORE.RESTR.CAVITY>
0

>  <SCORE.RESTR.norm>
0

>  <SCORE.SYSTEM>
0

>  <SCORE.SYSTEM.CONST>
0

>  <SCORE.SYSTEM.DIHEDRAL>
0

>  <SCORE.SYSTEM.SOLV>
0

>  <SCORE.SYSTEM.norm>
0

>  <SCORE.heavy>
10

>  <SCORE.norm>
-0.671612

>  <RMSD>
2.966

$$$$
ligand
 OpenBabel02271912133D
libRbt.so/2013.1/901 2013/11/27
 10 11  0  0  0  0  0  0  0  0999 V2000
   12.4707   -4.4020    7.7210 C   0  0  1  0  0  0  0  0  0  0  0  0
   10.9568   -1.4676    6.8541 C   0  0  2  0  0  0  0  0  0  0  0  0
   11.8066   -2.5468    8.4541 C   0  0  2  0  0  0  0  0  0  0  0  0
   13.0102   -5.6235    7.6372 N   0  0  0  0  0  0  0  0  0  0  0  0
   10.5338   -1.0904    5.6516 N   0  0  0  0  0  0  0  0  0  0  0  0
   10.8576   -0.7275    7.9519 N   0  0  0  0  0  0  0  0  0  0  0  0
   12.3972   -3.6817    8.8347 N   0  0  0  0  0  0  0  0  0  0  0  0
   11.9405   -3.7103    6.6956 N   0  0  0  0  0  0  0  0  0  0  0  0
   11.3515   -1.3635    8.8939 N   0  0  0  0  0  0  0  0  0  0  0  0
   11.5548   -2.6179    7.1415 N   0  0  1  0  0  0  0  0  0  0  0  0
  1  4  1  6  0  0  0
  1  8  1  0  0  0  0
  1  7  1  0  0  0  0
  2  5  1  6  0  0  0
  2  6  1  0  0  0  0
  2 10  1  0  0  0  0
  3  7  1  1  0  0  0
  3 10  1  0  0  0  0
  3  9  1  0  0  0  0
  6  9  1  0  0  0  0
 10  8  1  1  0  0  0
M  END
>  <CHROM.1>
11.68542747,-2.71944217,7.57939390,0.23853156,1.10571257,-2.01625720

>  <Name>
ligand

>  <RI>
0

>  <Rbt.Current_Directory>
/home/itssahil/PROJECTS/Mol_Feturizer/Test_systems_manuscript/rnas/2xnw

>  <Rbt.Executable>
rbdock ($Id: //depot/dev/client3/rdock/2013.1/src/exe/rbdock.cxx#4 $)

>  <Rbt.Library>
libRbt.so (2013.1, Build901 2013/11/27)

>  <Rbt.Parameter_File>
/export/apps/rDock/src/rDock_2013.1_src/data/scripts/dock_solv.prm

>  <Rbt.Receptor>
prm/pocket_docking_7.prm

>  <SCORE>
-6.67526

>  <SCORE.INTER>
-6.67526

>  <SCORE.INTER.CONST>
1

>  <SCORE.INTER.POLAR>
0

>  <SCORE.INTER.ROT>
0

>  <SCORE.INTER.SOLV>
15.6694

>  <SCORE.INTER.VDW>
-13.2733

>  <SCORE.INTER.norm>
-0.667526

>  <SCORE.INTRA>
0

>  <SCORE.INTRA.DIHEDRAL>
0

>  <SCORE.INTRA.DIHEDRAL.0>
0

>  <SCORE.INTRA.POLAR>
0

>  <SCORE.INTRA.POLAR.0>
0

>  <SCORE.INTRA.REPUL>
0

>  <SCORE.INTRA.REPUL.0>
0

>  <SCORE.INTRA.SOLV>
0

>  <SCORE.INTRA.SOLV.lig_0>
-47.9788

>  <SCORE.INTRA.VDW>
0

>  <SCORE.INTRA.VDW.0>
0

>  <SCORE.INTRA.norm>
0

>  <SCORE.RESTR>
0

>  <SCORE.RESTR.CAVITY>
0

>  <SCORE.RESTR.norm>
0

>  <SCORE.SYSTEM>
0

>  <SCORE.SYSTEM.CONST>
0

>  <SCORE.SYSTEM.DIHEDRAL>
0

>  <SCORE.SYSTEM.SOLV>
0

>  <SCORE.SYSTEM.norm>
0

>  <SCORE.heavy>
10

>  <SCORE.norm>
-0.667526

>  <RMSD>
2.966

$$$$
ligand
 OpenBabel02271912133D
libRbt.so/2013.1/901 2013/11/27
 10 11  0  0  0  0  0  0  0  0999 V2000
   12.4776   -4.4249    7.7410 C   0  0  1  0  0  0  0  0  0  0  0  0
   11.0258   -1.4590    6.8750 C   0  0  2  0  0  0  0  0  0  0  0  0
   11.9138   -2.5311    8.4591 C   0  0  2  0  0  0  0  0  0  0  0  0
   12.9699   -5.6664    7.6617 N   0  0  0  0  0  0  0  0  0  0  0  0
   10.5589   -1.0944    5.6850 N   0  0  0  0  0  0  0  0  0  0  0  0
   11.0050   -0.6910    7.9579 N   0  0  0  0  0  0  0  0  0  0  0  0
   12.4824   -3.6773    8.8390 N   0  0  0  0  0  0  0  0  0  0  0  0
   11.9228   -3.7383    6.7252 N   0  0  0  0  0  0  0  0  0  0  0  0
   11.5213   -1.3226    8.8908 N   0  0  0  0  0  0  0  0  0  0  0  0
   11.5970   -2.6230    7.1620 N   0  0  1  0  0  0  0  0  0  0  0  0
  1  4  1  6  0  0  0
  1  8  1  0  0  0  0
  1  7  1  0  0  0  0
  2  5  1  6  0  0  0
  2  6  1  0  0  0  0
  2 10  1  0  0  0  0
  3  7  1  1  0  0  0
  3 10  1  0  0  0  0
  3  9  1  0  0  0  0
  6  9  1  0  0  0  0
 10  8  1  1  0  0  0
M  END
>  <CHROM.1>
11.74483670,-2.71913324,7.59555628,0.37045263,1.11270792,-2.15801626

>  <Name>
ligand

>  <RI>
0

>  <Rbt.Current_Directory>
/home/itssahil/PROJECTS/Mol_Feturizer/Test_systems_manuscript/rnas/2xnw

>  <Rbt.Executable>
rbdock ($Id: //depot/dev/client3/rdock/2013.1/src/exe/rbdock.cxx#4 $)

>  <Rbt.Library>
libRbt.so (2013.1, Build901 2013/11/27)

>  <Rbt.Parameter_File>
/export/apps/rDock/src/rDock_2013.1_src/data/scripts/dock_solv.prm

>  <Rbt.Receptor>
prm/pocket_docking_4.prm

>  <SCORE>
-6.67427

>  <SCORE.INTER>
-6.67427

>  <SCORE.INTER.CONST>
1

>  <SCORE.INTER.POLAR>
0

>  <SCORE.INTER.ROT>
0

>  <SCORE.INTER.SOLV>
15.7589

>  <SCORE.INTER.VDW>
-13.3025

>  <SCORE.INTER.norm>
-0.667427

>  <SCORE.INTRA>
0

>  <SCORE.INTRA.DIHEDRAL>
0

>  <SCORE.INTRA.DIHEDRAL.0>
0

>  <SCORE.INTRA.POLAR>
0

>  <SCORE.INTRA.POLAR.0>
0

>  <SCORE.INTRA.REPUL>
0

>  <SCORE.INTRA.REPUL.0>
0

>  <SCORE.INTRA.SOLV>
0

>  <SCORE.INTRA.SOLV.lig_0>
-47.9788

>  <SCORE.INTRA.VDW>
0

>  <SCORE.INTRA.VDW.0>
0

>  <SCORE.INTRA.norm>
0

>  <SCORE.RESTR>
0

>  <SCORE.RESTR.CAVITY>
0

>  <SCORE.RESTR.norm>
0

>  <SCORE.SYSTEM>
0

>  <SCORE.SYSTEM.CONST>
0

>  <SCORE.SYSTEM.DIHEDRAL>
0

>  <SCORE.SYSTEM.SOLV>
0

>  <SCORE.SYSTEM.norm>
0

>  <SCORE.heavy>
10

>  <SCORE.norm>
-0.667427

>  <RMSD>
2.967

$$$$
ligand
 OpenBabel02271912133D
libRbt.so/2013.1/901 2013/11/27
 10 11  0  0  0  0  0  0  0  0999 V2000
   12.4817   -4.4011    7.7332 C   0  0  1  0  0  0  0  0  0  0  0  0
   10.9831   -1.4489    6.9006 C   0  0  2  0  0  0  0  0  0  0  0  0
   11.8358   -2.5473    8.4860 C   0  0  2  0  0  0  0  0  0  0  0  0
   13.0119   -5.6256    7.6357 N   0  0  0  0  0  0  0  0  0  0  0  0
   10.5549   -1.0587    5.7041 N   0  0  0  0  0  0  0  0  0  0  0  0
   10.8965   -0.7173    8.0051 N   0  0  0  0  0  0  0  0  0  0  0  0
   12.4207   -3.6895    8.8532 N   0  0  0  0  0  0  0  0  0  0  0  0
   11.9496   -3.6972    6.7171 N   0  0  0  0  0  0  0  0  0  0  0  0
   11.3920   -1.3645    8.9385 N   0  0  0  0  0  0  0  0  0  0  0  0
   11.5748   -2.6058    7.1745 N   0  0  1  0  0  0  0  0  0  0  0  0
  1  4  1  6  0  0  0
  1  8  1  0  0  0  0
  1  7  1  0  0  0  0
  2  5  1  6  0  0  0
  2  6  1  0  0  0  0
  2 10  1  0  0  0  0
  3  7  1  1  0  0  0
  3 10  1  0  0  0  0
  3  9  1  0  0  0  0
  6  9  1  0  0  0  0
 10  8  1  1  0  0  0
M  END
>  <CHROM.1>
11.70755860,-2.71185130,7.61068159,0.25888870,1.10922907,-2.02621939

>  <Name>
ligand

>  <RI>
0

>  <Rbt.Current_Directory>
/home/itssahil/PROJECTS/Mol_Feturizer/Test_systems_manuscript/rnas/2xnw

>  <Rbt.Executable>
rbdock ($Id: //depot/dev/client3/rdock/2013.1/src/exe/rbdock.cxx#4 $)

>  <Rbt.Library>
libRbt.so (2013.1, Build901 2013/11/27)

>  <Rbt.Parameter_File>
/export/apps/rDock/src/rDock_2013.1_src/data/scripts/dock_solv.prm

>  <Rbt.Receptor>
prm/pocket_docking_7.prm

>  <SCORE>
-6.7062

>  <SCORE.INTER>
-6.7062

>  <SCORE.INTER.CONST>
1

>  <SCORE.INTER.POLAR>
0

>  <SCORE.INTER.ROT>
0

>  <SCORE.INTER.SOLV>
15.6721

>  <SCORE.INTER.VDW>
-13.2948

>  <SCORE.INTER.norm>
-0.67062

>  <SCORE.INTRA>
0

>  <SCORE.INTRA.DIHEDRAL>
0

>  <SCORE.INTRA.DIHEDRAL.0>
0

>  <SCORE.INTRA.POLAR>
0

>  <SCORE.INTRA.POLAR.0>
0

>  <SCORE.INTRA.REPUL>
0

>  <SCORE.INTRA.REPUL.0>
0

>  <SCORE.INTRA.SOLV>
0

>  <SCORE.INTRA.SOLV.lig_0>
-47.9788

>  <SCORE.INTRA.VDW>
0

>  <SCORE.INTRA.VDW.0>
0

>  <SCORE.INTRA.norm>
0

>  <SCORE.RESTR>
0

>  <SCORE.RESTR.CAVITY>
0

>  <SCORE.RESTR.norm>
0

>  <SCORE.SYSTEM>
0

>  <SCORE.SYSTEM.CONST>
0

>  <SCORE.SYSTEM.DIHEDRAL>
0

>  <SCORE.SYSTEM.SOLV>
0

>  <SCORE.SYSTEM.norm>
0

>  <SCORE.heavy>
10

>  <SCORE.norm>
-0.67062

>  <RMSD>
2.967

$$$$
ligand
 OpenBabel02271912133D
libRbt.so/2013.1/901 2013/11/27
 10 11  0  0  0  0  0  0  0  0999 V2000
   12.4795   -4.4101    7.7360 C   0  0  1  0  0  0  0  0  0  0  0  0
   10.9928   -1.4557    6.8902 C   0  0  2  0  0  0  0  0  0  0  0  0
   11.8464   -2.5481    8.4793 C   0  0  2  0  0  0  0  0  0  0  0  0
   13.0028   -5.6380    7.6445 N   0  0  0  0  0  0  0  0  0  0  0  0
   10.5616   -1.0712    5.6930 N   0  0  0  0  0  0  0  0  0  0  0  0
   10.9147   -0.7163    7.9902 N   0  0  0  0  0  0  0  0  0  0  0  0
   12.4269   -3.6908    8.8516 N   0  0  0  0  0  0  0  0  0  0  0  0
   11.9468   -3.7101    6.7176 N   0  0  0  0  0  0  0  0  0  0  0  0
   11.4108   -1.3600    8.9258 N   0  0  0  0  0  0  0  0  0  0  0  0
   11.5796   -2.6138    7.1693 N   0  0  1  0  0  0  0  0  0  0  0  0
  1  4  1  6  0  0  0
  1  8  1  0  0  0  0
  1  7  1  0  0  0  0
  2  5  1  6  0  0  0
  2  6  1  0  0  0  0
  2 10  1  0  0  0  0
  3  7  1  1  0  0  0
  3 10  1  0  0  0  0
  3  9  1  0  0  0  0
  6  9  1  0  0  0  0
 10  8  1  1  0  0  0
M  END
>  <CHROM.1>
11.71366494,-2.71769235,7.60562709,0.27265789,1.11202396,-2.04515679

>  <Name>
ligand

>  <RI>
0

>  <Rbt.Current_Directory>
/home/itssahil/PROJECTS/Mol_Feturizer/Test_systems_manuscript/rnas/2xnw

>  <Rbt.Executable>
rbdock ($Id: //depot/dev/client3/rdock/2013.1/src/exe/rbdock.cxx#4 $)

>  <Rbt.Library>
libRbt.so (2013.1, Build901 2013/11/27)

>  <Rbt.Parameter_File>
/export/apps/rDock/src/rDock_2013.1_src/data/scripts/dock_solv.prm

>  <Rbt.Receptor>
prm/pocket_docking_8.prm

>  <SCORE>
-6.70562

>  <SCORE.INTER>
-6.70562

>  <SCORE.INTER.CONST>
1

>  <SCORE.INTER.POLAR>
0

>  <SCORE.INTER.ROT>
0

>  <SCORE.INTER.SOLV>
15.7005

>  <SCORE.INTER.VDW>
-13.3039

>  <SCORE.INTER.norm>
-0.670562

>  <SCORE.INTRA>
0

>  <SCORE.INTRA.DIHEDRAL>
0

>  <SCORE.INTRA.DIHEDRAL.0>
0

>  <SCORE.INTRA.POLAR>
0

>  <SCORE.INTRA.POLAR.0>
0

>  <SCORE.INTRA.REPUL>
0

>  <SCORE.INTRA.REPUL.0>
0

>  <SCORE.INTRA.SOLV>
0

>  <SCORE.INTRA.SOLV.lig_0>
-47.9788

>  <SCORE.INTRA.VDW>
0

>  <SCORE.INTRA.VDW.0>
0

>  <SCORE.INTRA.norm>
0

>  <SCORE.RESTR>
0

>  <SCORE.RESTR.CAVITY>
0

>  <SCORE.RESTR.norm>
0

>  <SCORE.SYSTEM>
0

>  <SCORE.SYSTEM.CONST>
0

>  <SCORE.SYSTEM.DIHEDRAL>
0

>  <SCORE.SYSTEM.SOLV>
0

>  <SCORE.SYSTEM.norm>
0

>  <SCORE.heavy>
10

>  <SCORE.norm>
-0.670562

>  <RMSD>
2.967

$$$$
ligand
 OpenBabel02271912133D
libRbt.so/2013.1/901 2013/11/27
 10 11  0  0  0  0  0  0  0  0999 V2000
   12.4809   -4.4017    7.7336 C   0  0  1  0  0  0  0  0  0  0  0  0
   10.9728   -1.4526    6.9072 C   0  0  2  0  0  0  0  0  0  0  0  0
   11.8328   -2.5499    8.4894 C   0  0  2  0  0  0  0  0  0  0  0  0
   13.0137   -5.6249    7.6338 N   0  0  0  0  0  0  0  0  0  0  0  0
   10.5401   -1.0627    5.7123 N   0  0  0  0  0  0  0  0  0  0  0  0
   10.8877   -0.7218    8.0125 N   0  0  0  0  0  0  0  0  0  0  0  0
   12.4215   -3.6909    8.8542 N   0  0  0  0  0  0  0  0  0  0  0  0
   11.9441   -3.6984    6.7195 N   0  0  0  0  0  0  0  0  0  0  0  0
   11.3876   -1.3684    8.9440 N   0  0  0  0  0  0  0  0  0  0  0  0
   11.5681   -2.6082    7.1787 N   0  0  1  0  0  0  0  0  0  0  0  0
  1  4  1  6  0  0  0
  1  8  1  0  0  0  0
  1  7  1  0  0  0  0
  2  5  1  6  0  0  0
  2  6  1  0  0  0  0
  2 10  1  0  0  0  0
  3  7  1  1  0  0  0
  3 10  1  0  0  0  0
  3  9  1  0  0  0  0
  6  9  1  0  0  0  0
 10  8  1  1  0  0  0
M  END
>  <CHROM.1>
11.70236689,-2.71422002,7.61443720,0.26252796,1.10577345,-2.02886173

>  <Name>
ligand

>  <RI>
0

>  <Rbt.Current_Directory>
/home/itssahil/PROJECTS/Mol_Feturizer/Test_systems_manuscript/rnas/2xnw

>  <Rbt.Executable>
rbdock ($Id: //depot/dev/client3/rdock/2013.1/src/exe/rbdock.cxx#4 $)

>  <Rbt.Library>
libRbt.so (2013.1, Build901 2013/11/27)

>  <Rbt.Parameter_File>
/export/apps/rDock/src/rDock_2013.1_src/data/scripts/dock_solv.prm

>  <Rbt.Receptor>
prm/blind_docking_60.prm

>  <SCORE>
-6.70753

>  <SCORE.INTER>
-6.70753

>  <SCORE.INTER.CONST>
1

>  <SCORE.INTER.POLAR>
0

>  <SCORE.INTER.ROT>
0

>  <SCORE.INTER.SOLV>
15.6222

>  <SCORE.INTER.VDW>
-13.2791

>  <SCORE.INTER.norm>
-0.670753

>  <SCORE.INTRA>
0

>  <SCORE.INTRA.DIHEDRAL>
0

>  <SCORE.INTRA.DIHEDRAL.0>
0

>  <SCORE.INTRA.POLAR>
0

>  <SCORE.INTRA.POLAR.0>
0

>  <SCORE.INTRA.REPUL>
0

>  <SCORE.INTRA.REPUL.0>
0

>  <SCORE.INTRA.SOLV>
0

>  <SCORE.INTRA.SOLV.lig_0>
-47.9788

>  <SCORE.INTRA.VDW>
0

>  <SCORE.INTRA.VDW.0>
0

>  <SCORE.INTRA.norm>
0

>  <SCORE.RESTR>
0

>  <SCORE.RESTR.CAVITY>
0

>  <SCORE.RESTR.norm>
0

>  <SCORE.SYSTEM>
0

>  <SCORE.SYSTEM.CONST>
0

>  <SCORE.SYSTEM.DIHEDRAL>
0

>  <SCORE.SYSTEM.SOLV>
0

>  <SCORE.SYSTEM.norm>
0

>  <SCORE.heavy>
10

>  <SCORE.norm>
-0.670753

>  <RMSD>
2.968

$$$$
ligand
 OpenBabel02271912133D
libRbt.so/2013.1/901 2013/11/27
 10 11  0  0  0  0  0  0  0  0999 V2000
   12.6257   -4.3994    7.7734 C   0  0  1  0  0  0  0  0  0  0  0  0
   11.0133   -1.5053    6.9495 C   0  0  2  0  0  0  0  0  0  0  0  0
   11.8870   -2.5849    8.5364 C   0  0  2  0  0  0  0  0  0  0  0  0
   13.2104   -5.5984    7.6709 N   0  0  0  0  0  0  0  0  0  0  0  0
   10.5883   -1.1195    5.7505 N   0  0  0  0  0  0  0  0  0  0  0  0
   10.8766   -0.7917    8.0608 N   0  0  0  0  0  0  0  0  0  0  0  0
   12.5151   -3.7049    8.9004 N   0  0  0  0  0  0  0  0  0  0  0  0
   12.0802   -3.7069    6.7566 N   0  0  0  0  0  0  0  0  0  0  0  0
   11.3845   -1.4282    8.9949 N   0  0  0  0  0  0  0  0  0  0  0  0
   11.6505   -2.6386    7.2202 N   0  0  1  0  0  0  0  0  0  0  0  0
  1  4  1  6  0  0  0
  1  8  1  0  0  0  0
  1  7  1  0  0  0  0
  2  5  1  6  0  0  0
  2  6  1  0  0  0  0
  2 10  1  0  0  0  0
  3  7  1  1  0  0  0
  3 10  1  0  0  0  0
  3  9  1  0  0  0  0
  6  9  1  0  0  0  0
 10  8  1  1  0  0  0
M  END
>  <CHROM.1>
11.78051563,-2.74410299,7.65726130,0.18709319,1.07611821,-1.95054902

>  <Name>
ligand

>  <RI>
0

>  <Rbt.Current_Directory>
/home/itssahil/PROJECTS/Mol_Feturizer/Test_systems_manuscript/rnas/2xnw

>  <Rbt.Executable>
rbdock ($Id: //depot/dev/client3/rdock/2013.1/src/exe/rbdock.cxx#4 $)

>  <Rbt.Library>
libRbt.so (2013.1, Build901 2013/11/27)

>  <Rbt.Parameter_File>
/export/apps/rDock/src/rDock_2013.1_src/data/scripts/dock_solv.prm

>  <Rbt.Receptor>
prm/pocket_docking_4.prm

>  <SCORE>
-6.64516

>  <SCORE.INTER>
-6.64516

>  <SCORE.INTER.CONST>
1

>  <SCORE.INTER.POLAR>
0

>  <SCORE.INTER.ROT>
0

>  <SCORE.INTER.SOLV>
14.7994

>  <SCORE.INTER.VDW>
-12.9633

>  <SCORE.INTER.norm>
-0.664516

>  <SCORE.INTRA>
0

>  <SCORE.INTRA.DIHEDRAL>
0

>  <SCORE.INTRA.DIHEDRAL.0>
0

>  <SCORE.INTRA.POLAR>
0

>  <SCORE.INTRA.POLAR.0>
0

>  <SCORE.INTRA.REPUL>
0

>  <SCORE.INTRA.REPUL.0>
0

>  <SCORE.INTRA.SOLV>
0

>  <SCORE.INTRA.SOLV.lig_0>
-47.9788

>  <SCORE.INTRA.VDW>
0

>  <SCORE.INTRA.VDW.0>
0

>  <SCORE.INTRA.norm>
0

>  <SCORE.RESTR>
0

>  <SCORE.RESTR.CAVITY>
0

>  <SCORE.RESTR.norm>
0

>  <SCORE.SYSTEM>
0

>  <SCORE.SYSTEM.CONST>
0

>  <SCORE.SYSTEM.DIHEDRAL>
0

>  <SCORE.SYSTEM.SOLV>
0

>  <SCORE.SYSTEM.norm>
0

>  <SCORE.heavy>
10

>  <SCORE.norm>
-0.664516

>  <RMSD>
2.968

$$$$
ligand
 OpenBabel02271912133D
libRbt.so/2013.1/901 2013/11/27
 10 11  0  0  0  0  0  0  0  0999 V2000
   12.4877   -4.4112    7.7454 C   0  0  1  0  0  0  0  0  0  0  0  0
   10.9959   -1.4541    6.9176 C   0  0  2  0  0  0  0  0  0  0  0  0
   11.8875   -2.5391    8.4908 C   0  0  2  0  0  0  0  0  0  0  0  0
   13.0005   -5.6431    7.6492 N   0  0  0  0  0  0  0  0  0  0  0  0
   10.5333   -1.0765    5.7299 N   0  0  0  0  0  0  0  0  0  0  0  0
   10.9537   -0.7054    8.0132 N   0  0  0  0  0  0  0  0  0  0  0  0
   12.4712   -3.6826    8.8560 N   0  0  0  0  0  0  0  0  0  0  0  0
   11.9306   -3.7160    6.7366 N   0  0  0  0  0  0  0  0  0  0  0  0
   11.4721   -1.3447    8.9396 N   0  0  0  0  0  0  0  0  0  0  0  0
   11.5832   -2.6137    7.1896 N   0  0  1  0  0  0  0  0  0  0  0  0
  1  4  1  6  0  0  0
  1  8  1  0  0  0  0
  1  7  1  0  0  0  0
  2  5  1  6  0  0  0
  2  6  1  0  0  0  0
  2 10  1  0  0  0  0
  3  7  1  1  0  0  0
  3 10  1  0  0  0  0
  3  9  1  0  0  0  0
  6  9  1  0  0  0  0
 10  8  1  1  0  0  0
M  END
>  <CHROM.1>
11.72895935,-2.71494532,7.62271133,0.33507664,1.10381368,-2.10919805

>  <Name>
ligand

>  <RI>
0

>  <Rbt.Current_Directory>
/home/itssahil/PROJECTS/Mol_Feturizer/Test_systems_manuscript/rnas/2xnw

>  <Rbt.Executable>
rbdock ($Id: //depot/dev/client3/rdock/2013.1/src/exe/rbdock.cxx#4 $)

>  <Rbt.Library>
libRbt.so (2013.1, Build901 2013/11/27)

>  <Rbt.Parameter_File>
/export/apps/rDock/src/rDock_2013.1_src/data/scripts/dock_solv.prm

>  <Rbt.Receptor>
prm/pocket_docking_5.prm

>  <SCORE>
-6.68539

>  <SCORE.INTER>
-6.68539

>  <SCORE.INTER.CONST>
1

>  <SCORE.INTER.POLAR>
0

>  <SCORE.INTER.ROT>
0

>  <SCORE.INTER.SOLV>
15.5887

>  <SCORE.INTER.VDW>
-13.2532

>  <SCORE.INTER.norm>
-0.668539

>  <SCORE.INTRA>
0

>  <SCORE.INTRA.DIHEDRAL>
0

>  <SCORE.INTRA.DIHEDRAL.0>
0

>  <SCORE.INTRA.POLAR>
0

>  <SCORE.INTRA.POLAR.0>
0

>  <SCORE.INTRA.REPUL>
0

>  <SCORE.INTRA.REPUL.0>
0

>  <SCORE.INTRA.SOLV>
0

>  <SCORE.INTRA.SOLV.lig_0>
-47.9788

>  <SCORE.INTRA.VDW>
0

>  <SCORE.INTRA.VDW.0>
0

>  <SCORE.INTRA.norm>
0

>  <SCORE.RESTR>
0

>  <SCORE.RESTR.CAVITY>
0

>  <SCORE.RESTR.norm>
0

>  <SCORE.SYSTEM>
0

>  <SCORE.SYSTEM.CONST>
0

>  <SCORE.SYSTEM.DIHEDRAL>
0

>  <SCORE.SYSTEM.SOLV>
0

>  <SCORE.SYSTEM.norm>
0

>  <SCORE.heavy>
10

>  <SCORE.norm>
-0.668539

>  <RMSD>
2.968

$$$$
ligand
 OpenBabel02271912133D
libRbt.so/2013.1/901 2013/11/27
 10 11  0  0  0  0  0  0  0  0999 V2000
   12.5831   -4.3926    7.7352 C   0  0  1  0  0  0  0  0  0  0  0  0
   10.9865   -1.4928    6.9008 C   0  0  2  0  0  0  0  0  0  0  0  0
   11.8078   -2.5944    8.5005 C   0  0  2  0  0  0  0  0  0  0  0  0
   13.1774   -5.5870    7.6344 N   0  0  0  0  0  0  0  0  0  0  0  0
   10.6030   -1.0892    5.6936 N   0  0  0  0  0  0  0  0  0  0  0  0
   10.8059   -0.7983    8.0179 N   0  0  0  0  0  0  0  0  0  0  0  0
   12.4283   -3.7173    8.8687 N   0  0  0  0  0  0  0  0  0  0  0  0
   12.0711   -3.6859    6.7108 N   0  0  0  0  0  0  0  0  0  0  0  0
   11.2830   -1.4477    8.9593 N   0  0  0  0  0  0  0  0  0  0  0  0
   11.6193   -2.6274    7.1758 N   0  0  1  0  0  0  0  0  0  0  0  0
  1  4  1  6  0  0  0
  1  8  1  0  0  0  0
  1  7  1  0  0  0  0
  2  5  1  6  0  0  0
  2  6  1  0  0  0  0
  2 10  1  0  0  0  0
  3  7  1  1  0  0  0
  3 10  1  0  0  0  0
  3  9  1  0  0  0  0
  6  9  1  0  0  0  0
 10  8  1  1  0  0  0
M  END
>  <CHROM.1>
11.73405371,-2.73952589,7.61557057,0.11116257,1.08346547,-1.86716312

>  <Name>
ligand

>  <RI>
0

>  <Rbt.Current_Directory>
/home/itssahil/PROJECTS/Mol_Feturizer/Test_systems_manuscript/rnas/2xnw

>  <Rbt.Executable>
rbdock ($Id: //depot/dev/client3/rdock/2013.1/src/exe/rbdock.cxx#4 $)

>  <Rbt.Library>
libRbt.so (2013.1, Build901 2013/11/27)

>  <Rbt.Parameter_File>
/export/apps/rDock/src/rDock_2013.1_src/data/scripts/dock_solv.prm

>  <Rbt.Receptor>
prm/pocket_docking_6.prm

>  <SCORE>
-6.67083

>  <SCORE.INTER>
-6.67083

>  <SCORE.INTER.CONST>
1

>  <SCORE.INTER.POLAR>
0

>  <SCORE.INTER.ROT>
0

>  <SCORE.INTER.SOLV>
15.0926

>  <SCORE.INTER.VDW>
-13.0781

>  <SCORE.INTER.norm>
-0.667083

>  <SCORE.INTRA>
0

>  <SCORE.INTRA.DIHEDRAL>
0

>  <SCORE.INTRA.DIHEDRAL.0>
0

>  <SCORE.INTRA.POLAR>
0

>  <SCORE.INTRA.POLAR.0>
0

>  <SCORE.INTRA.REPUL>
0

>  <SCORE.INTRA.REPUL.0>
0

>  <SCORE.INTRA.SOLV>
0

>  <SCORE.INTRA.SOLV.lig_0>
-47.9788

>  <SCORE.INTRA.VDW>
0

>  <SCORE.INTRA.VDW.0>
0

>  <SCORE.INTRA.norm>
0

>  <SCORE.RESTR>
0

>  <SCORE.RESTR.CAVITY>
0

>  <SCORE.RESTR.norm>
0

>  <SCORE.SYSTEM>
0

>  <SCORE.SYSTEM.CONST>
0

>  <SCORE.SYSTEM.DIHEDRAL>
0

>  <SCORE.SYSTEM.SOLV>
0

>  <SCORE.SYSTEM.norm>
0

>  <SCORE.heavy>
10

>  <SCORE.norm>
-0.667083

>  <RMSD>
2.968

$$$$
ligand
 OpenBabel02271912133D
libRbt.so/2013.1/901 2013/11/27
 10 11  0  0  0  0  0  0  0  0999 V2000
   12.4762   -4.4104    7.7312 C   0  0  1  0  0  0  0  0  0  0  0  0
   11.0032   -1.4471    6.8923 C   0  0  2  0  0  0  0  0  0  0  0  0
   11.8561   -2.5453    8.4777 C   0  0  2  0  0  0  0  0  0  0  0  0
   12.9923   -5.6411    7.6370 N   0  0  0  0  0  0  0  0  0  0  0  0
   10.5701   -1.0594    5.6968 N   0  0  0  0  0  0  0  0  0  0  0  0
   10.9329   -0.7080    7.9930 N   0  0  0  0  0  0  0  0  0  0  0  0
   12.4314   -3.6915    8.8474 N   0  0  0  0  0  0  0  0  0  0  0  0
   11.9440   -3.7067    6.7150 N   0  0  0  0  0  0  0  0  0  0  0  0
   11.4286   -1.3551    8.9265 N   0  0  0  0  0  0  0  0  0  0  0  0
   11.5845   -2.6087    7.1687 N   0  0  1  0  0  0  0  0  0  0  0  0
  1  4  1  6  0  0  0
  1  8  1  0  0  0  0
  1  7  1  0  0  0  0
  2  5  1  6  0  0  0
  2  6  1  0  0  0  0
  2 10  1  0  0  0  0
  3  7  1  1  0  0  0
  3 10  1  0  0  0  0
  3  9  1  0  0  0  0
  6  9  1  0  0  0  0
 10  8  1  1  0  0  0
M  END
>  <CHROM.1>
11.71939992,-2.71360427,7.60444830,0.28532616,1.11541893,-2.05587413

>  <Name>
ligand

>  <RI>
0

>  <Rbt.Current_Directory>
/home/itssahil/PROJECTS/Mol_Feturizer/Test_systems_manuscript/rnas/2xnw

>  <Rbt.Executable>
rbdock ($Id: //depot/dev/client3/rdock/2013.1/src/exe/rbdock.cxx#4 $)

>  <Rbt.Library>
libRbt.so (2013.1, Build901 2013/11/27)

>  <Rbt.Parameter_File>
/export/apps/rDock/src/rDock_2013.1_src/data/scripts/dock_solv.prm

>  <Rbt.Receptor>
prm/pocket_docking_8.prm

>  <SCORE>
-6.70426

>  <SCORE.INTER>
-6.70426

>  <SCORE.INTER.CONST>
1

>  <SCORE.INTER.POLAR>
0

>  <SCORE.INTER.ROT>
0

>  <SCORE.INTER.SOLV>
15.7591

>  <SCORE.INTER.VDW>
-13.3225

>  <SCORE.INTER.norm>
-0.670426

>  <SCORE.INTRA>
0

>  <SCORE.INTRA.DIHEDRAL>
0

>  <SCORE.INTRA.DIHEDRAL.0>
0

>  <SCORE.INTRA.POLAR>
0

>  <SCORE.INTRA.POLAR.0>
0

>  <SCORE.INTRA.REPUL>
0

>  <SCORE.INTRA.REPUL.0>
0

>  <SCORE.INTRA.SOLV>
0

>  <SCORE.INTRA.SOLV.lig_0>
-47.9788

>  <SCORE.INTRA.VDW>
0

>  <SCORE.INTRA.VDW.0>
0

>  <SCORE.INTRA.norm>
0

>  <SCORE.RESTR>
0

>  <SCORE.RESTR.CAVITY>
0

>  <SCORE.RESTR.norm>
0

>  <SCORE.SYSTEM>
0

>  <SCORE.SYSTEM.CONST>
0

>  <SCORE.SYSTEM.DIHEDRAL>
0

>  <SCORE.SYSTEM.SOLV>
0

>  <SCORE.SYSTEM.norm>
0

>  <SCORE.heavy>
10

>  <SCORE.norm>
-0.670426

>  <RMSD>
2.968

$$$$
ligand
 OpenBabel02271912133D
libRbt.so/2013.1/901 2013/11/27
 10 11  0  0  0  0  0  0  0  0999 V2000
   12.4643   -4.4251    7.7530 C   0  0  1  0  0  0  0  0  0  0  0  0
   11.0004   -1.4632    6.8936 C   0  0  2  0  0  0  0  0  0  0  0  0
   11.8096   -2.5703    8.4957 C   0  0  2  0  0  0  0  0  0  0  0  0
   12.9906   -5.6519    7.6646 N   0  0  0  0  0  0  0  0  0  0  0  0
   10.6028   -1.0675    5.6884 N   0  0  0  0  0  0  0  0  0  0  0  0
   10.8910   -0.7342    7.9979 N   0  0  0  0  0  0  0  0  0  0  0  0
   12.3800   -3.7164    8.8734 N   0  0  0  0  0  0  0  0  0  0  0  0
   11.9600   -3.7156    6.7266 N   0  0  0  0  0  0  0  0  0  0  0  0
   11.3609   -1.3866    8.9410 N   0  0  0  0  0  0  0  0  0  0  0  0
   11.5797   -2.6237    7.1782 N   0  0  1  0  0  0  0  0  0  0  0  0
  1  4  1  6  0  0  0
  1  8  1  0  0  0  0
  1  7  1  0  0  0  0
  2  5  1  6  0  0  0
  2  6  1  0  0  0  0
  2 10  1  0  0  0  0
  3  7  1  1  0  0  0
  3 10  1  0  0  0  0
  3  9  1  0  0  0  0
  6  9  1  0  0  0  0
 10  8  1  1  0  0  0
M  END
>  <CHROM.1>
11.70150951,-2.73169819,7.61710374,0.21423382,1.12373958,-1.98317822

>  <Name>
ligand

>  <RI>
0

>  <Rbt.Current_Directory>
/home/itssahil/PROJECTS/Mol_Feturizer/Test_systems_manuscript/rnas/2xnw

>  <Rbt.Executable>
rbdock ($Id: //depot/dev/client3/rdock/2013.1/src/exe/rbdock.cxx#4 $)

>  <Rbt.Library>
libRbt.so (2013.1, Build901 2013/11/27)

>  <Rbt.Parameter_File>
/export/apps/rDock/src/rDock_2013.1_src/data/scripts/dock_solv.prm

>  <Rbt.Receptor>
prm/pocket_docking_8.prm

>  <SCORE>
-6.67711

>  <SCORE.INTER>
-6.67711

>  <SCORE.INTER.CONST>
1

>  <SCORE.INTER.POLAR>
0

>  <SCORE.INTER.ROT>
0

>  <SCORE.INTER.SOLV>
15.8618

>  <SCORE.INTER.VDW>
-13.3387

>  <SCORE.INTER.norm>
-0.667711

>  <SCORE.INTRA>
0

>  <SCORE.INTRA.DIHEDRAL>
0

>  <SCORE.INTRA.DIHEDRAL.0>
0

>  <SCORE.INTRA.POLAR>
0

>  <SCORE.INTRA.POLAR.0>
0

>  <SCORE.INTRA.REPUL>
0

>  <SCORE.INTRA.REPUL.0>
0

>  <SCORE.INTRA.SOLV>
0

>  <SCORE.INTRA.SOLV.lig_0>
-47.9788

>  <SCORE.INTRA.VDW>
0

>  <SCORE.INTRA.VDW.0>
0

>  <SCORE.INTRA.norm>
0

>  <SCORE.RESTR>
0

>  <SCORE.RESTR.CAVITY>
0

>  <SCORE.RESTR.norm>
0

>  <SCORE.SYSTEM>
0

>  <SCORE.SYSTEM.CONST>
0

>  <SCORE.SYSTEM.DIHEDRAL>
0

>  <SCORE.SYSTEM.SOLV>
0

>  <SCORE.SYSTEM.norm>
0

>  <SCORE.heavy>
10

>  <SCORE.norm>
-0.667711

>  <RMSD>
2.968

$$$$
ligand
 OpenBabel02271912133D
libRbt.so/2013.1/901 2013/11/27
 10 11  0  0  0  0  0  0  0  0999 V2000
   12.4727   -4.4204    7.7326 C   0  0  1  0  0  0  0  0  0  0  0  0
   10.9950   -1.4679    6.8644 C   0  0  2  0  0  0  0  0  0  0  0  0
   11.8423   -2.5522    8.4624 C   0  0  2  0  0  0  0  0  0  0  0  0
   12.9932   -5.6501    7.6501 N   0  0  0  0  0  0  0  0  0  0  0  0
   10.5675   -1.0901    5.6637 N   0  0  0  0  0  0  0  0  0  0  0  0
   10.9161   -0.7213    7.9594 N   0  0  0  0  0  0  0  0  0  0  0  0
   12.4192   -3.6939    8.8434 N   0  0  0  0  0  0  0  0  0  0  0  0
   11.9440   -3.7257    6.7084 N   0  0  0  0  0  0  0  0  0  0  0  0
   11.4085   -1.3602    8.9003 N   0  0  0  0  0  0  0  0  0  0  0  0
   11.5784   -2.6256    7.1523 N   0  0  1  0  0  0  0  0  0  0  0  0
  1  4  1  6  0  0  0
  1  8  1  0  0  0  0
  1  7  1  0  0  0  0
  2  5  1  6  0  0  0
  2  6  1  0  0  0  0
  2 10  1  0  0  0  0
  3  7  1  1  0  0  0
  3 10  1  0  0  0  0
  3  9  1  0  0  0  0
  6  9  1  0  0  0  0
 10  8  1  1  0  0  0
M  END
>  <CHROM.1>
11.71118802,-2.72705080,7.58956053,0.27044725,1.11522429,-2.04958719

>  <Name>
ligand

>  <RI>
0

>  <Rbt.Current_Directory>
/home/itssahil/PROJECTS/Mol_Feturizer/Test_systems_manuscript/rnas/2xnw

>  <Rbt.Executable>
rbdock ($Id: //depot/dev/client3/rdock/2013.1/src/exe/rbdock.cxx#4 $)

>  <Rbt.Library>
libRbt.so (2013.1, Build901 2013/11/27)

>  <Rbt.Parameter_File>
/export/apps/rDock/src/rDock_2013.1_src/data/scripts/dock_solv.prm

>  <Rbt.Receptor>
prm/pocket_docking_8.prm

>  <SCORE>
-6.71514

>  <SCORE.INTER>
-6.71514

>  <SCORE.INTER.CONST>
1

>  <SCORE.INTER.POLAR>
0

>  <SCORE.INTER.ROT>
0

>  <SCORE.INTER.SOLV>
15.754

>  <SCORE.INTER.VDW>
-13.3281

>  <SCORE.INTER.norm>
-0.671514

>  <SCORE.INTRA>
0

>  <SCORE.INTRA.DIHEDRAL>
0

>  <SCORE.INTRA.DIHEDRAL.0>
0

>  <SCORE.INTRA.POLAR>
0

>  <SCORE.INTRA.POLAR.0>
0

>  <SCORE.INTRA.REPUL>
0

>  <SCORE.INTRA.REPUL.0>
0

>  <SCORE.INTRA.SOLV>
0

>  <SCORE.INTRA.SOLV.lig_0>
-47.9788

>  <SCORE.INTRA.VDW>
0

>  <SCORE.INTRA.VDW.0>
0

>  <SCORE.INTRA.norm>
0

>  <SCORE.RESTR>
0

>  <SCORE.RESTR.CAVITY>
0

>  <SCORE.RESTR.norm>
0

>  <SCORE.SYSTEM>
0

>  <SCORE.SYSTEM.CONST>
0

>  <SCORE.SYSTEM.DIHEDRAL>
0

>  <SCORE.SYSTEM.SOLV>
0

>  <SCORE.SYSTEM.norm>
0

>  <SCORE.heavy>
10

>  <SCORE.norm>
-0.671514

>  <RMSD>
2.968

$$$$
ligand
 OpenBabel02271912133D
libRbt.so/2013.1/901 2013/11/27
 10 11  0  0  0  0  0  0  0  0999 V2000
   12.4803   -4.4035    7.7324 C   0  0  1  0  0  0  0  0  0  0  0  0
   10.9757   -1.4525    6.9064 C   0  0  2  0  0  0  0  0  0  0  0  0
   11.8365   -2.5502    8.4880 C   0  0  2  0  0  0  0  0  0  0  0  0
   13.0109   -5.6277    7.6327 N   0  0  0  0  0  0  0  0  0  0  0  0
   10.5417   -1.0628    5.7119 N   0  0  0  0  0  0  0  0  0  0  0  0
   10.8936   -0.7208    8.0113 N   0  0  0  0  0  0  0  0  0  0  0  0
   12.4239   -3.6919    8.8527 N   0  0  0  0  0  0  0  0  0  0  0  0
   11.9430   -3.7001    6.7187 N   0  0  0  0  0  0  0  0  0  0  0  0
   11.3939   -1.3676    8.9424 N   0  0  0  0  0  0  0  0  0  0  0  0
   11.5695   -2.6089    7.1778 N   0  0  1  0  0  0  0  0  0  0  0  0
  1  4  1  6  0  0  0
  1  8  1  0  0  0  0
  1  7  1  0  0  0  0
  2  5  1  6  0  0  0
  2  6  1  0  0  0  0
  2 10  1  0  0  0  0
  3  7  1  1  0  0  0
  3 10  1  0  0  0  0
  3  9  1  0  0  0  0
  6  9  1  0  0  0  0
 10  8  1  1  0  0  0
M  END
>  <CHROM.1>
11.70435294,-2.71488157,7.61335132,0.26737896,1.10653967,-2.03391006

>  <Name>
ligand

>  <RI>
0

>  <Rbt.Current_Directory>
/home/itssahil/PROJECTS/Mol_Feturizer/Test_systems_manuscript/rnas/2xnw

>  <Rbt.Executable>
rbdock ($Id: //depot/dev/client3/rdock/2013.1/src/exe/rbdock.cxx#4 $)

>  <Rbt.Library>
libRbt.so (2013.1, Build901 2013/11/27)

>  <Rbt.Parameter_File>
/export/apps/rDock/src/rDock_2013.1_src/data/scripts/dock_solv.prm

>  <Rbt.Receptor>
prm/blind_docking_20.prm

>  <SCORE>
-6.70853

>  <SCORE.INTER>
-6.70853

>  <SCORE.INTER.CONST>
1

>  <SCORE.INTER.POLAR>
0

>  <SCORE.INTER.ROT>
0

>  <SCORE.INTER.SOLV>
15.6311

>  <SCORE.INTER.VDW>
-13.2827

>  <SCORE.INTER.norm>
-0.670853

>  <SCORE.INTRA>
0

>  <SCORE.INTRA.DIHEDRAL>
0

>  <SCORE.INTRA.DIHEDRAL.0>
0

>  <SCORE.INTRA.POLAR>
0

>  <SCORE.INTRA.POLAR.0>
0

>  <SCORE.INTRA.REPUL>
0

>  <SCORE.INTRA.REPUL.0>
0

>  <SCORE.INTRA.SOLV>
0

>  <SCORE.INTRA.SOLV.lig_0>
-47.9788

>  <SCORE.INTRA.VDW>
0

>  <SCORE.INTRA.VDW.0>
0

>  <SCORE.INTRA.norm>
0

>  <SCORE.RESTR>
0

>  <SCORE.RESTR.CAVITY>
0

>  <SCORE.RESTR.norm>
0

>  <SCORE.SYSTEM>
0

>  <SCORE.SYSTEM.CONST>
0

>  <SCORE.SYSTEM.DIHEDRAL>
0

>  <SCORE.SYSTEM.SOLV>
0

>  <SCORE.SYSTEM.norm>
0

>  <SCORE.heavy>
10

>  <SCORE.norm>
-0.670853

>  <RMSD>
2.969

$$$$
ligand
 OpenBabel02271912133D
libRbt.so/2013.1/901 2013/11/27
 10 11  0  0  0  0  0  0  0  0999 V2000
   12.4721   -4.4229    7.7337 C   0  0  1  0  0  0  0  0  0  0  0  0
   10.9965   -1.4700    6.8636 C   0  0  2  0  0  0  0  0  0  0  0  0
   11.8338   -2.5578    8.4645 C   0  0  2  0  0  0  0  0  0  0  0  0
   12.9951   -5.6516    7.6514 N   0  0  0  0  0  0  0  0  0  0  0  0
   10.5772   -1.0891    5.6610 N   0  0  0  0  0  0  0  0  0  0  0  0
   10.9086   -0.7268    7.9603 N   0  0  0  0  0  0  0  0  0  0  0  0
   12.4096   -3.6998    8.8463 N   0  0  0  0  0  0  0  0  0  0  0  0
   11.9499   -3.7259    6.7078 N   0  0  0  0  0  0  0  0  0  0  0  0
   11.3950   -1.3677    8.9028 N   0  0  0  0  0  0  0  0  0  0  0  0
   11.5795   -2.6277    7.1523 N   0  0  1  0  0  0  0  0  0  0  0  0
  1  4  1  6  0  0  0
  1  8  1  0  0  0  0
  1  7  1  0  0  0  0
  2  5  1  6  0  0  0
  2  6  1  0  0  0  0
  2 10  1  0  0  0  0
  3  7  1  1  0  0  0
  3 10  1  0  0  0  0
  3  9  1  0  0  0  0
  6  9  1  0  0  0  0
 10  8  1  1  0  0  0
M  END
>  <CHROM.1>
11.70924895,-2.73022148,7.59020469,0.25416996,1.11722045,-2.03196519

>  <Name>
ligand

>  <RI>
0

>  <Rbt.Current_Directory>
/home/itssahil/PROJECTS/Mol_Feturizer/Test_systems_manuscript/rnas/2xnw

>  <Rbt.Executable>
rbdock ($Id: //depot/dev/client3/rdock/2013.1/src/exe/rbdock.cxx#4 $)

>  <Rbt.Library>
libRbt.so (2013.1, Build901 2013/11/27)

>  <Rbt.Parameter_File>
/export/apps/rDock/src/rDock_2013.1_src/data/scripts/dock_solv.prm

>  <Rbt.Receptor>
prm/blind_docking_20.prm

>  <SCORE>
-6.71246

>  <SCORE.INTER>
-6.71246

>  <SCORE.INTER.CONST>
1

>  <SCORE.INTER.POLAR>
0

>  <SCORE.INTER.ROT>
0

>  <SCORE.INTER.SOLV>
15.7729

>  <SCORE.INTER.VDW>
-13.3326

>  <SCORE.INTER.norm>
-0.671246

>  <SCORE.INTRA>
0

>  <SCORE.INTRA.DIHEDRAL>
0

>  <SCORE.INTRA.DIHEDRAL.0>
0

>  <SCORE.INTRA.POLAR>
0

>  <SCORE.INTRA.POLAR.0>
0

>  <SCORE.INTRA.REPUL>
0

>  <SCORE.INTRA.REPUL.0>
0

>  <SCORE.INTRA.SOLV>
0

>  <SCORE.INTRA.SOLV.lig_0>
-47.9788

>  <SCORE.INTRA.VDW>
0

>  <SCORE.INTRA.VDW.0>
0

>  <SCORE.INTRA.norm>
0

>  <SCORE.RESTR>
0

>  <SCORE.RESTR.CAVITY>
0

>  <SCORE.RESTR.norm>
0

>  <SCORE.SYSTEM>
0

>  <SCORE.SYSTEM.CONST>
0

>  <SCORE.SYSTEM.DIHEDRAL>
0

>  <SCORE.SYSTEM.SOLV>
0

>  <SCORE.SYSTEM.norm>
0

>  <SCORE.heavy>
10

>  <SCORE.norm>
-0.671246

>  <RMSD>
2.969

$$$$
ligand
 OpenBabel02271912133D
libRbt.so/2013.1/901 2013/11/27
 10 11  0  0  0  0  0  0  0  0999 V2000
   12.4837   -4.4041    7.7389 C   0  0  1  0  0  0  0  0  0  0  0  0
   11.0286   -1.4225    6.9347 C   0  0  2  0  0  0  0  0  0  0  0  0
   11.8553   -2.5525    8.5116 C   0  0  2  0  0  0  0  0  0  0  0  0
   12.9992   -5.6338    7.6291 N   0  0  0  0  0  0  0  0  0  0  0  0
   10.6145   -1.0111    5.7403 N   0  0  0  0  0  0  0  0  0  0  0  0
   10.9427   -0.7045    8.0482 N   0  0  0  0  0  0  0  0  0  0  0  0
   12.4230   -3.7067    8.8679 N   0  0  0  0  0  0  0  0  0  0  0  0
   11.9683   -3.6801    6.7284 N   0  0  0  0  0  0  0  0  0  0  0  0
   11.4229   -1.3703    8.9765 N   0  0  0  0  0  0  0  0  0  0  0  0
   11.6037   -2.5903    7.1976 N   0  0  1  0  0  0  0  0  0  0  0  0
  1  4  1  6  0  0  0
  1  8  1  0  0  0  0
  1  7  1  0  0  0  0
  2  5  1  6  0  0  0
  2  6  1  0  0  0  0
  2 10  1  0  0  0  0
  3  7  1  1  0  0  0
  3 10  1  0  0  0  0
  3  9  1  0  0  0  0
  6  9  1  0  0  0  0
 10  8  1  1  0  0  0
M  END
>  <CHROM.1>
11.73172485,-2.70379909,7.63326065,0.25566913,1.12384107,-2.00999990

>  <Name>
ligand

>  <RI>
0

>  <Rbt.Current_Directory>
/home/itssahil/PROJECTS/Mol_Feturizer/Test_systems_manuscript/rnas/2xnw

>  <Rbt.Executable>
rbdock ($Id: //depot/dev/client3/rdock/2013.1/src/exe/rbdock.cxx#4 $)

>  <Rbt.Library>
libRbt.so (2013.1, Build901 2013/11/27)

>  <Rbt.Parameter_File>
/export/apps/rDock/src/rDock_2013.1_src/data/scripts/dock_solv.prm

>  <Rbt.Receptor>
prm/pocket_docking_4.prm

>  <SCORE>
-6.66709

>  <SCORE.INTER>
-6.66709

>  <SCORE.INTER.CONST>
1

>  <SCORE.INTER.POLAR>
0

>  <SCORE.INTER.ROT>
0

>  <SCORE.INTER.SOLV>
15.8768

>  <SCORE.INTER.VDW>
-13.337

>  <SCORE.INTER.norm>
-0.666709

>  <SCORE.INTRA>
0

>  <SCORE.INTRA.DIHEDRAL>
0

>  <SCORE.INTRA.DIHEDRAL.0>
0

>  <SCORE.INTRA.POLAR>
0

>  <SCORE.INTRA.POLAR.0>
0

>  <SCORE.INTRA.REPUL>
0

>  <SCORE.INTRA.REPUL.0>
0

>  <SCORE.INTRA.SOLV>
0

>  <SCORE.INTRA.SOLV.lig_0>
-47.9788

>  <SCORE.INTRA.VDW>
0

>  <SCORE.INTRA.VDW.0>
0

>  <SCORE.INTRA.norm>
0

>  <SCORE.RESTR>
0

>  <SCORE.RESTR.CAVITY>
0

>  <SCORE.RESTR.norm>
0

>  <SCORE.SYSTEM>
0

>  <SCORE.SYSTEM.CONST>
0

>  <SCORE.SYSTEM.DIHEDRAL>
0

>  <SCORE.SYSTEM.SOLV>
0

>  <SCORE.SYSTEM.norm>
0

>  <SCORE.heavy>
10

>  <SCORE.norm>
-0.666709

>  <RMSD>
2.969

$$$$
ligand
 OpenBabel02271912133D
libRbt.so/2013.1/901 2013/11/27
 10 11  0  0  0  0  0  0  0  0999 V2000
   12.4807   -4.4095    7.7381 C   0  0  1  0  0  0  0  0  0  0  0  0
   10.9893   -1.4532    6.9069 C   0  0  2  0  0  0  0  0  0  0  0  0
   11.8393   -2.5545    8.4918 C   0  0  2  0  0  0  0  0  0  0  0  0
   13.0079   -5.6352    7.6400 N   0  0  0  0  0  0  0  0  0  0  0  0
   10.5621   -1.0614    5.7106 N   0  0  0  0  0  0  0  0  0  0  0  0
   10.9045   -0.7219    8.0118 N   0  0  0  0  0  0  0  0  0  0  0  0
   12.4214   -3.6983    8.8585 N   0  0  0  0  0  0  0  0  0  0  0  0
   11.9504   -3.7037    6.7223 N   0  0  0  0  0  0  0  0  0  0  0  0
   11.3984   -1.3709    8.9449 N   0  0  0  0  0  0  0  0  0  0  0  0
   11.5782   -2.6117    7.1803 N   0  0  1  0  0  0  0  0  0  0  0  0
  1  4  1  6  0  0  0
  1  8  1  0  0  0  0
  1  7  1  0  0  0  0
  2  5  1  6  0  0  0
  2  6  1  0  0  0  0
  2 10  1  0  0  0  0
  3  7  1  1  0  0  0
  3 10  1  0  0  0  0
  3  9  1  0  0  0  0
  6  9  1  0  0  0  0
 10  8  1  1  0  0  0
M  END
>  <CHROM.1>
11.71068880,-2.71829832,7.61644609,0.26124314,1.11143052,-2.02781141

>  <Name>
ligand

>  <RI>
0

>  <Rbt.Current_Directory>
/home/itssahil/PROJECTS/Mol_Feturizer/Test_systems_manuscript/rnas/2xnw

>  <Rbt.Executable>
rbdock ($Id: //depot/dev/client3/rdock/2013.1/src/exe/rbdock.cxx#4 $)

>  <Rbt.Library>
libRbt.so (2013.1, Build901 2013/11/27)

>  <Rbt.Parameter_File>
/export/apps/rDock/src/rDock_2013.1_src/data/scripts/dock_solv.prm

>  <Rbt.Receptor>
prm/pocket_docking_4.prm

>  <SCORE>
-6.70594

>  <SCORE.INTER>
-6.70594

>  <SCORE.INTER.CONST>
1

>  <SCORE.INTER.POLAR>
0

>  <SCORE.INTER.ROT>
0

>  <SCORE.INTER.SOLV>
15.6854

>  <SCORE.INTER.VDW>
-13.2991

>  <SCORE.INTER.norm>
-0.670594

>  <SCORE.INTRA>
0

>  <SCORE.INTRA.DIHEDRAL>
0

>  <SCORE.INTRA.DIHEDRAL.0>
0

>  <SCORE.INTRA.POLAR>
0

>  <SCORE.INTRA.POLAR.0>
0

>  <SCORE.INTRA.REPUL>
0

>  <SCORE.INTRA.REPUL.0>
0

>  <SCORE.INTRA.SOLV>
0

>  <SCORE.INTRA.SOLV.lig_0>
-47.9788

>  <SCORE.INTRA.VDW>
0

>  <SCORE.INTRA.VDW.0>
0

>  <SCORE.INTRA.norm>
0

>  <SCORE.RESTR>
0

>  <SCORE.RESTR.CAVITY>
0

>  <SCORE.RESTR.norm>
0

>  <SCORE.SYSTEM>
0

>  <SCORE.SYSTEM.CONST>
0

>  <SCORE.SYSTEM.DIHEDRAL>
0

>  <SCORE.SYSTEM.SOLV>
0

>  <SCORE.SYSTEM.norm>
0

>  <SCORE.heavy>
10

>  <SCORE.norm>
-0.670594

>  <RMSD>
2.969

$$$$
ligand
 OpenBabel02271912133D
libRbt.so/2013.1/901 2013/11/27
 10 11  0  0  0  0  0  0  0  0999 V2000
   12.4763   -4.4084    7.7317 C   0  0  1  0  0  0  0  0  0  0  0  0
   10.9837   -1.4545    6.8944 C   0  0  2  0  0  0  0  0  0  0  0  0
   11.8127   -2.5616    8.4863 C   0  0  2  0  0  0  0  0  0  0  0  0
   13.0113   -5.6308    7.6348 N   0  0  0  0  0  0  0  0  0  0  0  0
   10.5745   -1.0572    5.6936 N   0  0  0  0  0  0  0  0  0  0  0  0
   10.8766   -0.7307    8.0023 N   0  0  0  0  0  0  0  0  0  0  0  0
   12.3946   -3.7047    8.8555 N   0  0  0  0  0  0  0  0  0  0  0  0
   11.9594   -3.6988    6.7117 N   0  0  0  0  0  0  0  0  0  0  0  0
   11.3582   -1.3831    8.9395 N   0  0  0  0  0  0  0  0  0  0  0  0
   11.5739   -2.6116    7.1703 N   0  0  1  0  0  0  0  0  0  0  0  0
  1  4  1  6  0  0  0
  1  8  1  0  0  0  0
  1  7  1  0  0  0  0
  2  5  1  6  0  0  0
  2  6  1  0  0  0  0
  2 10  1  0  0  0  0
  3  7  1  1  0  0  0
  3 10  1  0  0  0  0
  3  9  1  0  0  0  0
  6  9  1  0  0  0  0
 10  8  1  1  0  0  0
M  END
>  <CHROM.1>
11.69965725,-2.72039013,7.60791871,0.22203676,1.11386345,-1.98628235

>  <Name>
ligand

>  <RI>
0

>  <Rbt.Current_Directory>
/home/itssahil/PROJECTS/Mol_Feturizer/Test_systems_manuscript/rnas/2xnw

>  <Rbt.Executable>
rbdock ($Id: //depot/dev/client3/rdock/2013.1/src/exe/rbdock.cxx#4 $)

>  <Rbt.Library>
libRbt.so (2013.1, Build901 2013/11/27)

>  <Rbt.Parameter_File>
/export/apps/rDock/src/rDock_2013.1_src/data/scripts/dock_solv.prm

>  <Rbt.Receptor>
prm/pocket_docking_4.prm

>  <SCORE>
-6.69308

>  <SCORE.INTER>
-6.69308

>  <SCORE.INTER.CONST>
1

>  <SCORE.INTER.POLAR>
0

>  <SCORE.INTER.ROT>
0

>  <SCORE.INTER.SOLV>
15.7286

>  <SCORE.INTER.VDW>
-13.3049

>  <SCORE.INTER.norm>
-0.669308

>  <SCORE.INTRA>
0

>  <SCORE.INTRA.DIHEDRAL>
0

>  <SCORE.INTRA.DIHEDRAL.0>
0

>  <SCORE.INTRA.POLAR>
0

>  <SCORE.INTRA.POLAR.0>
0

>  <SCORE.INTRA.REPUL>
0

>  <SCORE.INTRA.REPUL.0>
0

>  <SCORE.INTRA.SOLV>
0

>  <SCORE.INTRA.SOLV.lig_0>
-47.9788

>  <SCORE.INTRA.VDW>
0

>  <SCORE.INTRA.VDW.0>
0

>  <SCORE.INTRA.norm>
0

>  <SCORE.RESTR>
0

>  <SCORE.RESTR.CAVITY>
0

>  <SCORE.RESTR.norm>
0

>  <SCORE.SYSTEM>
0

>  <SCORE.SYSTEM.CONST>
0

>  <SCORE.SYSTEM.DIHEDRAL>
0

>  <SCORE.SYSTEM.SOLV>
0

>  <SCORE.SYSTEM.norm>
0

>  <SCORE.heavy>
10

>  <SCORE.norm>
-0.669308

>  <RMSD>
2.969

$$$$
ligand
 OpenBabel02271912133D
libRbt.so/2013.1/901 2013/11/27
 10 11  0  0  0  0  0  0  0  0999 V2000
   12.4466   -4.4468    7.7814 C   0  0  1  0  0  0  0  0  0  0  0  0
   10.9960   -1.4841    6.9025 C   0  0  2  0  0  0  0  0  0  0  0  0
   11.8178   -2.5768    8.5080 C   0  0  2  0  0  0  0  0  0  0  0  0
   12.9613   -5.6792    7.7023 N   0  0  0  0  0  0  0  0  0  0  0  0
   10.5852   -1.1011    5.6976 N   0  0  0  0  0  0  0  0  0  0  0  0
   10.9079   -0.7397    7.9983 N   0  0  0  0  0  0  0  0  0  0  0  0
   12.3837   -3.7226    8.8933 N   0  0  0  0  0  0  0  0  0  0  0  0
   11.9343   -3.7468    6.7526 N   0  0  0  0  0  0  0  0  0  0  0  0
   11.3852   -1.3835    8.9435 N   0  0  0  0  0  0  0  0  0  0  0  0
   11.5694   -2.6457    7.1947 N   0  0  1  0  0  0  0  0  0  0  0  0
  1  4  1  6  0  0  0
  1  8  1  0  0  0  0
  1  7  1  0  0  0  0
  2  5  1  6  0  0  0
  2  6  1  0  0  0  0
  2 10  1  0  0  0  0
  3  7  1  1  0  0  0
  3 10  1  0  0  0  0
  3  9  1  0  0  0  0
  6  9  1  0  0  0  0
 10  8  1  1  0  0  0
M  END
>  <CHROM.1>
11.69630834,-2.74891587,7.63325281,0.25126508,1.12566574,-2.02991645

>  <Name>
ligand

>  <RI>
0

>  <Rbt.Current_Directory>
/home/itssahil/PROJECTS/Mol_Feturizer/Test_systems_manuscript/rnas/2xnw

>  <Rbt.Executable>
rbdock ($Id: //depot/dev/client3/rdock/2013.1/src/exe/rbdock.cxx#4 $)

>  <Rbt.Library>
libRbt.so (2013.1, Build901 2013/11/27)

>  <Rbt.Parameter_File>
/export/apps/rDock/src/rDock_2013.1_src/data/scripts/dock_solv.prm

>  <Rbt.Receptor>
prm/pocket_docking_4.prm

>  <SCORE>
-6.68594

>  <SCORE.INTER>
-6.68594

>  <SCORE.INTER.CONST>
1

>  <SCORE.INTER.POLAR>
0

>  <SCORE.INTER.ROT>
0

>  <SCORE.INTER.SOLV>
15.8803

>  <SCORE.INTER.VDW>
-13.3507

>  <SCORE.INTER.norm>
-0.668594

>  <SCORE.INTRA>
0

>  <SCORE.INTRA.DIHEDRAL>
0

>  <SCORE.INTRA.DIHEDRAL.0>
0

>  <SCORE.INTRA.POLAR>
0

>  <SCORE.INTRA.POLAR.0>
0

>  <SCORE.INTRA.REPUL>
0

>  <SCORE.INTRA.REPUL.0>
0

>  <SCORE.INTRA.SOLV>
0

>  <SCORE.INTRA.SOLV.lig_0>
-47.9788

>  <SCORE.INTRA.VDW>
0

>  <SCORE.INTRA.VDW.0>
0

>  <SCORE.INTRA.norm>
0

>  <SCORE.RESTR>
0

>  <SCORE.RESTR.CAVITY>
0

>  <SCORE.RESTR.norm>
0

>  <SCORE.SYSTEM>
0

>  <SCORE.SYSTEM.CONST>
0

>  <SCORE.SYSTEM.DIHEDRAL>
0

>  <SCORE.SYSTEM.SOLV>
0

>  <SCORE.SYSTEM.norm>
0

>  <SCORE.heavy>
10

>  <SCORE.norm>
-0.668594

>  <RMSD>
2.969

$$$$
ligand
 OpenBabel02271912133D
libRbt.so/2013.1/901 2013/11/27
 10 11  0  0  0  0  0  0  0  0999 V2000
   12.4590   -4.4286    7.7304 C   0  0  1  0  0  0  0  0  0  0  0  0
   11.0424   -1.4439    6.8705 C   0  0  2  0  0  0  0  0  0  0  0  0
   11.8901   -2.5406    8.4598 C   0  0  2  0  0  0  0  0  0  0  0  0
   12.9461   -5.6718    7.6462 N   0  0  0  0  0  0  0  0  0  0  0  0
   10.6033   -1.0619    5.6753 N   0  0  0  0  0  0  0  0  0  0  0  0
   11.0024   -0.6893    7.9622 N   0  0  0  0  0  0  0  0  0  0  0  0
   12.4441   -3.6946    8.8375 N   0  0  0  0  0  0  0  0  0  0  0  0
   11.9301   -3.7263    6.7115 N   0  0  0  0  0  0  0  0  0  0  0  0
   11.4950   -1.3353    8.8980 N   0  0  0  0  0  0  0  0  0  0  0  0
   11.6009   -2.6146    7.1551 N   0  0  1  0  0  0  0  0  0  0  0  0
  1  4  1  6  0  0  0
  1  8  1  0  0  0  0
  1  7  1  0  0  0  0
  2  5  1  6  0  0  0
  2  6  1  0  0  0  0
  2 10  1  0  0  0  0
  3  7  1  1  0  0  0
  3 10  1  0  0  0  0
  3  9  1  0  0  0  0
  6  9  1  0  0  0  0
 10  8  1  1  0  0  0
M  END
>  <CHROM.1>
11.73884663,-2.71696922,7.59054192,0.33542347,1.12898358,-2.11403321

>  <Name>
ligand

>  <RI>
0

>  <Rbt.Current_Directory>
/home/itssahil/PROJECTS/Mol_Feturizer/Test_systems_manuscript/rnas/2xnw

>  <Rbt.Executable>
rbdock ($Id: //depot/dev/client3/rdock/2013.1/src/exe/rbdock.cxx#4 $)

>  <Rbt.Library>
libRbt.so (2013.1, Build901 2013/11/27)

>  <Rbt.Parameter_File>
/export/apps/rDock/src/rDock_2013.1_src/data/scripts/dock_solv.prm

>  <Rbt.Receptor>
prm/pocket_docking_5.prm

>  <SCORE>
-6.69208

>  <SCORE.INTER>
-6.69208

>  <SCORE.INTER.CONST>
1

>  <SCORE.INTER.POLAR>
0

>  <SCORE.INTER.ROT>
0

>  <SCORE.INTER.SOLV>
15.9911

>  <SCORE.INTER.VDW>
-13.3917

>  <SCORE.INTER.norm>
-0.669208

>  <SCORE.INTRA>
0

>  <SCORE.INTRA.DIHEDRAL>
0

>  <SCORE.INTRA.DIHEDRAL.0>
0

>  <SCORE.INTRA.POLAR>
0

>  <SCORE.INTRA.POLAR.0>
0

>  <SCORE.INTRA.REPUL>
0

>  <SCORE.INTRA.REPUL.0>
0

>  <SCORE.INTRA.SOLV>
0

>  <SCORE.INTRA.SOLV.lig_0>
-47.9788

>  <SCORE.INTRA.VDW>
0

>  <SCORE.INTRA.VDW.0>
0

>  <SCORE.INTRA.norm>
0

>  <SCORE.RESTR>
0

>  <SCORE.RESTR.CAVITY>
0

>  <SCORE.RESTR.norm>
0

>  <SCORE.SYSTEM>
0

>  <SCORE.SYSTEM.CONST>
0

>  <SCORE.SYSTEM.DIHEDRAL>
0

>  <SCORE.SYSTEM.SOLV>
0

>  <SCORE.SYSTEM.norm>
0

>  <SCORE.heavy>
10

>  <SCORE.norm>
-0.669208

>  <RMSD>
2.969

$$$$
ligand
 OpenBabel02271912133D
libRbt.so/2013.1/901 2013/11/27
 10 11  0  0  0  0  0  0  0  0999 V2000
   12.4781   -4.4045    7.7313 C   0  0  1  0  0  0  0  0  0  0  0  0
   10.9737   -1.4551    6.8990 C   0  0  2  0  0  0  0  0  0  0  0  0
   11.8404   -2.5469    8.4815 C   0  0  2  0  0  0  0  0  0  0  0  0
   13.0065   -5.6298    7.6345 N   0  0  0  0  0  0  0  0  0  0  0  0
   10.5347   -1.0702    5.7047 N   0  0  0  0  0  0  0  0  0  0  0  0
   10.8979   -0.7184    8.0009 N   0  0  0  0  0  0  0  0  0  0  0  0
   12.4279   -3.6877    8.8485 N   0  0  0  0  0  0  0  0  0  0  0  0
   11.9371   -3.7049    6.7169 N   0  0  0  0  0  0  0  0  0  0  0  0
   11.4016   -1.3617    8.9326 N   0  0  0  0  0  0  0  0  0  0  0  0
   11.5672   -2.6111    7.1728 N   0  0  1  0  0  0  0  0  0  0  0  0
  1  4  1  6  0  0  0
  1  8  1  0  0  0  0
  1  7  1  0  0  0  0
  2  5  1  6  0  0  0
  2  6  1  0  0  0  0
  2 10  1  0  0  0  0
  3  7  1  1  0  0  0
  3 10  1  0  0  0  0
  3  9  1  0  0  0  0
  6  9  1  0  0  0  0
 10  8  1  1  0  0  0
M  END
>  <CHROM.1>
11.70395802,-2.71530884,7.60818602,0.27807330,1.10566040,-2.04797550

>  <Name>
ligand

>  <RI>
0

>  <Rbt.Current_Directory>
/home/itssahil/PROJECTS/Mol_Feturizer/Test_systems_manuscript/rnas/2xnw

>  <Rbt.Executable>
rbdock ($Id: //depot/dev/client3/rdock/2013.1/src/exe/rbdock.cxx#4 $)

>  <Rbt.Library>
libRbt.so (2013.1, Build901 2013/11/27)

>  <Rbt.Parameter_File>
/export/apps/rDock/src/rDock_2013.1_src/data/scripts/dock_solv.prm

>  <Rbt.Receptor>
prm/pocket_docking_6.prm

>  <SCORE>
-6.70951

>  <SCORE.INTER>
-6.70951

>  <SCORE.INTER.CONST>
1

>  <SCORE.INTER.POLAR>
0

>  <SCORE.INTER.ROT>
0

>  <SCORE.INTER.SOLV>
15.6236

>  <SCORE.INTER.VDW>
-13.2809

>  <SCORE.INTER.norm>
-0.670951

>  <SCORE.INTRA>
0

>  <SCORE.INTRA.DIHEDRAL>
0

>  <SCORE.INTRA.DIHEDRAL.0>
0

>  <SCORE.INTRA.POLAR>
0

>  <SCORE.INTRA.POLAR.0>
0

>  <SCORE.INTRA.REPUL>
0

>  <SCORE.INTRA.REPUL.0>
0

>  <SCORE.INTRA.SOLV>
0

>  <SCORE.INTRA.SOLV.lig_0>
-47.9788

>  <SCORE.INTRA.VDW>
0

>  <SCORE.INTRA.VDW.0>
0

>  <SCORE.INTRA.norm>
0

>  <SCORE.RESTR>
0

>  <SCORE.RESTR.CAVITY>
0

>  <SCORE.RESTR.norm>
0

>  <SCORE.SYSTEM>
0

>  <SCORE.SYSTEM.CONST>
0

>  <SCORE.SYSTEM.DIHEDRAL>
0

>  <SCORE.SYSTEM.SOLV>
0

>  <SCORE.SYSTEM.norm>
0

>  <SCORE.heavy>
10

>  <SCORE.norm>
-0.670951

>  <RMSD>
2.969

$$$$
ligand
 OpenBabel02271912133D
libRbt.so/2013.1/901 2013/11/27
 10 11  0  0  0  0  0  0  0  0999 V2000
   12.6096   -4.4025    7.7572 C   0  0  1  0  0  0  0  0  0  0  0  0
   11.0176   -1.4977    6.9315 C   0  0  2  0  0  0  0  0  0  0  0  0
   11.8987   -2.5751    8.5158 C   0  0  2  0  0  0  0  0  0  0  0  0
   13.1807   -5.6082    7.6564 N   0  0  0  0  0  0  0  0  0  0  0  0
   10.5824   -1.1159    5.7348 N   0  0  0  0  0  0  0  0  0  0  0  0
   10.9013   -0.7749    8.0391 N   0  0  0  0  0  0  0  0  0  0  0  0
   12.5195   -3.6990    8.8804 N   0  0  0  0  0  0  0  0  0  0  0  0
   12.0593   -3.7116    6.7419 N   0  0  0  0  0  0  0  0  0  0  0  0
   11.4136   -1.4100    8.9718 N   0  0  0  0  0  0  0  0  0  0  0  0
   11.6461   -2.6356    7.2028 N   0  0  1  0  0  0  0  0  0  0  0  0
  1  4  1  6  0  0  0
  1  8  1  0  0  0  0
  1  7  1  0  0  0  0
  2  5  1  6  0  0  0
  2  6  1  0  0  0  0
  2 10  1  0  0  0  0
  3  7  1  1  0  0  0
  3 10  1  0  0  0  0
  3  9  1  0  0  0  0
  6  9  1  0  0  0  0
 10  8  1  1  0  0  0
M  END
>  <CHROM.1>
11.78024729,-2.73940508,7.63907041,0.21849606,1.08110892,-1.98532665

>  <Name>
ligand

>  <RI>
0

>  <Rbt.Current_Directory>
/home/itssahil/PROJECTS/Mol_Feturizer/Test_systems_manuscript/rnas/2xnw

>  <Rbt.Executable>
rbdock ($Id: //depot/dev/client3/rdock/2013.1/src/exe/rbdock.cxx#4 $)

>  <Rbt.Library>
libRbt.so (2013.1, Build901 2013/11/27)

>  <Rbt.Parameter_File>
/export/apps/rDock/src/rDock_2013.1_src/data/scripts/dock_solv.prm

>  <Rbt.Receptor>
prm/pocket_docking_6.prm

>  <SCORE>
-6.68432

>  <SCORE.INTER>
-6.68432

>  <SCORE.INTER.CONST>
1

>  <SCORE.INTER.POLAR>
0

>  <SCORE.INTER.ROT>
0

>  <SCORE.INTER.SOLV>
14.9011

>  <SCORE.INTER.VDW>
-13.0232

>  <SCORE.INTER.norm>
-0.668432

>  <SCORE.INTRA>
0

>  <SCORE.INTRA.DIHEDRAL>
0

>  <SCORE.INTRA.DIHEDRAL.0>
0

>  <SCORE.INTRA.POLAR>
0

>  <SCORE.INTRA.POLAR.0>
0

>  <SCORE.INTRA.REPUL>
0

>  <SCORE.INTRA.REPUL.0>
0

>  <SCORE.INTRA.SOLV>
0

>  <SCORE.INTRA.SOLV.lig_0>
-47.9788

>  <SCORE.INTRA.VDW>
0

>  <SCORE.INTRA.VDW.0>
0

>  <SCORE.INTRA.norm>
0

>  <SCORE.RESTR>
0

>  <SCORE.RESTR.CAVITY>
0

>  <SCORE.RESTR.norm>
0

>  <SCORE.SYSTEM>
0

>  <SCORE.SYSTEM.CONST>
0

>  <SCORE.SYSTEM.DIHEDRAL>
0

>  <SCORE.SYSTEM.SOLV>
0

>  <SCORE.SYSTEM.norm>
0

>  <SCORE.heavy>
10

>  <SCORE.norm>
-0.668432

>  <RMSD>
2.969

$$$$
ligand
 OpenBabel02271912133D
libRbt.so/2013.1/901 2013/11/27
 10 11  0  0  0  0  0  0  0  0999 V2000
   12.4766   -4.4131    7.7340 C   0  0  1  0  0  0  0  0  0  0  0  0
   10.9905   -1.4566    6.8943 C   0  0  2  0  0  0  0  0  0  0  0  0
   11.8241   -2.5611    8.4856 C   0  0  2  0  0  0  0  0  0  0  0  0
   13.0066   -5.6378    7.6385 N   0  0  0  0  0  0  0  0  0  0  0  0
   10.5763   -1.0620    5.6943 N   0  0  0  0  0  0  0  0  0  0  0  0
   10.8922   -0.7285    8.0001 N   0  0  0  0  0  0  0  0  0  0  0  0
   12.4037   -3.7051    8.8556 N   0  0  0  0  0  0  0  0  0  0  0  0
   11.9568   -3.7052    6.7143 N   0  0  0  0  0  0  0  0  0  0  0  0
   11.3765   -1.3793    8.9369 N   0  0  0  0  0  0  0  0  0  0  0  0
   11.5779   -2.6150    7.1711 N   0  0  1  0  0  0  0  0  0  0  0  0
  1  4  1  6  0  0  0
  1  8  1  0  0  0  0
  1  7  1  0  0  0  0
  2  5  1  6  0  0  0
  2  6  1  0  0  0  0
  2 10  1  0  0  0  0
  3  7  1  1  0  0  0
  3 10  1  0  0  0  0
  3  9  1  0  0  0  0
  6  9  1  0  0  0  0
 10  8  1  1  0  0  0
M  END
>  <CHROM.1>
11.70562626,-2.72262444,7.60833911,0.23682049,1.11503220,-2.00311877

>  <Name>
ligand

>  <RI>
0

>  <Rbt.Current_Directory>
/home/itssahil/PROJECTS/Mol_Feturizer/Test_systems_manuscript/rnas/2xnw

>  <Rbt.Executable>
rbdock ($Id: //depot/dev/client3/rdock/2013.1/src/exe/rbdock.cxx#4 $)

>  <Rbt.Library>
libRbt.so (2013.1, Build901 2013/11/27)

>  <Rbt.Parameter_File>
/export/apps/rDock/src/rDock_2013.1_src/data/scripts/dock_solv.prm

>  <Rbt.Receptor>
prm/blind_docking_100.prm

>  <SCORE>
-6.69794

>  <SCORE.INTER>
-6.69794

>  <SCORE.INTER.CONST>
1

>  <SCORE.INTER.POLAR>
0

>  <SCORE.INTER.ROT>
0

>  <SCORE.INTER.SOLV>
15.7329

>  <SCORE.INTER.VDW>
-13.3096

>  <SCORE.INTER.norm>
-0.669794

>  <SCORE.INTRA>
0

>  <SCORE.INTRA.DIHEDRAL>
0

>  <SCORE.INTRA.DIHEDRAL.0>
0

>  <SCORE.INTRA.POLAR>
0

>  <SCORE.INTRA.POLAR.0>
0

>  <SCORE.INTRA.REPUL>
0

>  <SCORE.INTRA.REPUL.0>
0

>  <SCORE.INTRA.SOLV>
0

>  <SCORE.INTRA.SOLV.lig_0>
-47.9788

>  <SCORE.INTRA.VDW>
0

>  <SCORE.INTRA.VDW.0>
0

>  <SCORE.INTRA.norm>
0

>  <SCORE.RESTR>
0

>  <SCORE.RESTR.CAVITY>
0

>  <SCORE.RESTR.norm>
0

>  <SCORE.SYSTEM>
0

>  <SCORE.SYSTEM.CONST>
0

>  <SCORE.SYSTEM.DIHEDRAL>
0

>  <SCORE.SYSTEM.SOLV>
0

>  <SCORE.SYSTEM.norm>
0

>  <SCORE.heavy>
10

>  <SCORE.norm>
-0.669794

>  <RMSD>
2.970

$$$$
ligand
 OpenBabel02271912133D
libRbt.so/2013.1/901 2013/11/27
 10 11  0  0  0  0  0  0  0  0999 V2000
   12.4682   -4.4279    7.7340 C   0  0  1  0  0  0  0  0  0  0  0  0
   11.0002   -1.4701    6.8675 C   0  0  2  0  0  0  0  0  0  0  0  0
   11.8336   -2.5624    8.4673 C   0  0  2  0  0  0  0  0  0  0  0  0
   12.9883   -5.6577    7.6501 N   0  0  0  0  0  0  0  0  0  0  0  0
   10.5827   -1.0863    5.6652 N   0  0  0  0  0  0  0  0  0  0  0  0
   10.9131   -0.7285    7.9653 N   0  0  0  0  0  0  0  0  0  0  0  0
   12.4064   -3.7064    8.8477 N   0  0  0  0  0  0  0  0  0  0  0  0
   11.9484   -3.7280    6.7088 N   0  0  0  0  0  0  0  0  0  0  0  0
   11.3973   -1.3721    8.9072 N   0  0  0  0  0  0  0  0  0  0  0  0
   11.5802   -2.6296    7.1548 N   0  0  1  0  0  0  0  0  0  0  0  0
  1  4  1  6  0  0  0
  1  8  1  0  0  0  0
  1  7  1  0  0  0  0
  2  5  1  6  0  0  0
  2  6  1  0  0  0  0
  2 10  1  0  0  0  0
  3  7  1  1  0  0  0
  3 10  1  0  0  0  0
  3  9  1  0  0  0  0
  6  9  1  0  0  0  0
 10  8  1  1  0  0  0
M  END
>  <CHROM.1>
11.70937488,-2.73318076,7.59264461,0.25490201,1.11968004,-2.03099234

>  <Name>
ligand

>  <RI>
0

>  <Rbt.Current_Directory>
/home/itssahil/PROJECTS/Mol_Feturizer/Test_systems_manuscript/rnas/2xnw

>  <Rbt.Executable>
rbdock ($Id: //depot/dev/client3/rdock/2013.1/src/exe/rbdock.cxx#4 $)

>  <Rbt.Library>
libRbt.so (2013.1, Build901 2013/11/27)

>  <Rbt.Parameter_File>
/export/apps/rDock/src/rDock_2013.1_src/data/scripts/dock_solv.prm

>  <Rbt.Receptor>
prm/blind_docking_20.prm

>  <SCORE>
-6.71129

>  <SCORE.INTER>
-6.71129

>  <SCORE.INTER.CONST>
1

>  <SCORE.INTER.POLAR>
0

>  <SCORE.INTER.ROT>
0

>  <SCORE.INTER.SOLV>
15.8013

>  <SCORE.INTER.VDW>
-13.3413

>  <SCORE.INTER.norm>
-0.671129

>  <SCORE.INTRA>
0

>  <SCORE.INTRA.DIHEDRAL>
0

>  <SCORE.INTRA.DIHEDRAL.0>
0

>  <SCORE.INTRA.POLAR>
0

>  <SCORE.INTRA.POLAR.0>
0

>  <SCORE.INTRA.REPUL>
0

>  <SCORE.INTRA.REPUL.0>
0

>  <SCORE.INTRA.SOLV>
0

>  <SCORE.INTRA.SOLV.lig_0>
-47.9788

>  <SCORE.INTRA.VDW>
0

>  <SCORE.INTRA.VDW.0>
0

>  <SCORE.INTRA.norm>
0

>  <SCORE.RESTR>
0

>  <SCORE.RESTR.CAVITY>
0

>  <SCORE.RESTR.norm>
0

>  <SCORE.SYSTEM>
0

>  <SCORE.SYSTEM.CONST>
0

>  <SCORE.SYSTEM.DIHEDRAL>
0

>  <SCORE.SYSTEM.SOLV>
0

>  <SCORE.SYSTEM.norm>
0

>  <SCORE.heavy>
10

>  <SCORE.norm>
-0.671129

>  <RMSD>
2.970

$$$$
ligand
 OpenBabel02271912133D
libRbt.so/2013.1/901 2013/11/27
 10 11  0  0  0  0  0  0  0  0999 V2000
   12.4816   -4.4063    7.7366 C   0  0  1  0  0  0  0  0  0  0  0  0
   10.9779   -1.4539    6.9140 C   0  0  2  0  0  0  0  0  0  0  0  0
   11.8385   -2.5536    8.4943 C   0  0  2  0  0  0  0  0  0  0  0  0
   13.0116   -5.6306    7.6354 N   0  0  0  0  0  0  0  0  0  0  0  0
   10.5439   -1.0627    5.7199 N   0  0  0  0  0  0  0  0  0  0  0  0
   10.8963   -0.7234    8.0196 N   0  0  0  0  0  0  0  0  0  0  0  0
   12.4256   -3.6959    8.8576 N   0  0  0  0  0  0  0  0  0  0  0  0
   11.9444   -3.7016    6.7237 N   0  0  0  0  0  0  0  0  0  0  0  0
   11.3965   -1.3713    8.9500 N   0  0  0  0  0  0  0  0  0  0  0  0
   11.5714   -2.6108    7.1840 N   0  0  1  0  0  0  0  0  0  0  0  0
  1  4  1  6  0  0  0
  1  8  1  0  0  0  0
  1  7  1  0  0  0  0
  2  5  1  6  0  0  0
  2  6  1  0  0  0  0
  2 10  1  0  0  0  0
  3  7  1  1  0  0  0
  3 10  1  0  0  0  0
  3  9  1  0  0  0  0
  6  9  1  0  0  0  0
 10  8  1  1  0  0  0
M  END
>  <CHROM.1>
11.70621316,-2.71726632,7.61944959,0.26804233,1.10681248,-2.03342242

>  <Name>
ligand

>  <RI>
0

>  <Rbt.Current_Directory>
/home/itssahil/PROJECTS/Mol_Feturizer/Test_systems_manuscript/rnas/2xnw

>  <Rbt.Executable>
rbdock ($Id: //depot/dev/client3/rdock/2013.1/src/exe/rbdock.cxx#4 $)

>  <Rbt.Library>
libRbt.so (2013.1, Build901 2013/11/27)

>  <Rbt.Parameter_File>
/export/apps/rDock/src/rDock_2013.1_src/data/scripts/dock_solv.prm

>  <Rbt.Receptor>
prm/blind_docking_40.prm

>  <SCORE>
-6.70933

>  <SCORE.INTER>
-6.70933

>  <SCORE.INTER.CONST>
1

>  <SCORE.INTER.POLAR>
0

>  <SCORE.INTER.ROT>
0

>  <SCORE.INTER.SOLV>
15.6254

>  <SCORE.INTER.VDW>
-13.2814

>  <SCORE.INTER.norm>
-0.670933

>  <SCORE.INTRA>
0

>  <SCORE.INTRA.DIHEDRAL>
0

>  <SCORE.INTRA.DIHEDRAL.0>
0

>  <SCORE.INTRA.POLAR>
0

>  <SCORE.INTRA.POLAR.0>
0

>  <SCORE.INTRA.REPUL>
0

>  <SCORE.INTRA.REPUL.0>
0

>  <SCORE.INTRA.SOLV>
0

>  <SCORE.INTRA.SOLV.lig_0>
-47.9788

>  <SCORE.INTRA.VDW>
0

>  <SCORE.INTRA.VDW.0>
0

>  <SCORE.INTRA.norm>
0

>  <SCORE.RESTR>
0

>  <SCORE.RESTR.CAVITY>
0

>  <SCORE.RESTR.norm>
0

>  <SCORE.SYSTEM>
0

>  <SCORE.SYSTEM.CONST>
0

>  <SCORE.SYSTEM.DIHEDRAL>
0

>  <SCORE.SYSTEM.SOLV>
0

>  <SCORE.SYSTEM.norm>
0

>  <SCORE.heavy>
10

>  <SCORE.norm>
-0.670933

>  <RMSD>
2.970

$$$$
ligand
 OpenBabel02271912133D
libRbt.so/2013.1/901 2013/11/27
 10 11  0  0  0  0  0  0  0  0999 V2000
   12.4785   -4.4090    7.7332 C   0  0  1  0  0  0  0  0  0  0  0  0
   10.9800   -1.4554    6.9058 C   0  0  2  0  0  0  0  0  0  0  0  0
   11.8424   -2.5523    8.4870 C   0  0  2  0  0  0  0  0  0  0  0  0
   13.0052   -5.6349    7.6343 N   0  0  0  0  0  0  0  0  0  0  0  0
   10.5434   -1.0668    5.7118 N   0  0  0  0  0  0  0  0  0  0  0  0
   10.9034   -0.7212    8.0094 N   0  0  0  0  0  0  0  0  0  0  0  0
   12.4276   -3.6949    8.8522 N   0  0  0  0  0  0  0  0  0  0  0  0
   11.9402   -3.7061    6.7197 N   0  0  0  0  0  0  0  0  0  0  0  0
   11.4047   -1.3675    8.9403 N   0  0  0  0  0  0  0  0  0  0  0  0
   11.5712   -2.6129    7.1777 N   0  0  1  0  0  0  0  0  0  0  0  0
  1  4  1  6  0  0  0
  1  8  1  0  0  0  0
  1  7  1  0  0  0  0
  2  5  1  6  0  0  0
  2  6  1  0  0  0  0
  2 10  1  0  0  0  0
  3  7  1  1  0  0  0
  3 10  1  0  0  0  0
  3  9  1  0  0  0  0
  6  9  1  0  0  0  0
 10  8  1  1  0  0  0
M  END
>  <CHROM.1>
11.70709882,-2.71838907,7.61305749,0.27645534,1.10776052,-2.04407436

>  <Name>
ligand

>  <RI>
0

>  <Rbt.Current_Directory>
/home/itssahil/PROJECTS/Mol_Feturizer/Test_systems_manuscript/rnas/2xnw

>  <Rbt.Executable>
rbdock ($Id: //depot/dev/client3/rdock/2013.1/src/exe/rbdock.cxx#4 $)

>  <Rbt.Library>
libRbt.so (2013.1, Build901 2013/11/27)

>  <Rbt.Parameter_File>
/export/apps/rDock/src/rDock_2013.1_src/data/scripts/dock_solv.prm

>  <Rbt.Receptor>
prm/blind_docking_80.prm

>  <SCORE>
-6.70943

>  <SCORE.INTER>
-6.70943

>  <SCORE.INTER.CONST>
1

>  <SCORE.INTER.POLAR>
0

>  <SCORE.INTER.ROT>
0

>  <SCORE.INTER.SOLV>
15.6414

>  <SCORE.INTER.VDW>
-13.2868

>  <SCORE.INTER.norm>
-0.670943

>  <SCORE.INTRA>
0

>  <SCORE.INTRA.DIHEDRAL>
0

>  <SCORE.INTRA.DIHEDRAL.0>
0

>  <SCORE.INTRA.POLAR>
0

>  <SCORE.INTRA.POLAR.0>
0

>  <SCORE.INTRA.REPUL>
0

>  <SCORE.INTRA.REPUL.0>
0

>  <SCORE.INTRA.SOLV>
0

>  <SCORE.INTRA.SOLV.lig_0>
-47.9788

>  <SCORE.INTRA.VDW>
0

>  <SCORE.INTRA.VDW.0>
0

>  <SCORE.INTRA.norm>
0

>  <SCORE.RESTR>
0

>  <SCORE.RESTR.CAVITY>
0

>  <SCORE.RESTR.norm>
0

>  <SCORE.SYSTEM>
0

>  <SCORE.SYSTEM.CONST>
0

>  <SCORE.SYSTEM.DIHEDRAL>
0

>  <SCORE.SYSTEM.SOLV>
0

>  <SCORE.SYSTEM.norm>
0

>  <SCORE.heavy>
10

>  <SCORE.norm>
-0.670943

>  <RMSD>
2.970

$$$$
ligand
 OpenBabel02271912133D
libRbt.so/2013.1/901 2013/11/27
 10 11  0  0  0  0  0  0  0  0999 V2000
   12.4804   -4.4078    7.7353 C   0  0  1  0  0  0  0  0  0  0  0  0
   10.9804   -1.4550    6.9074 C   0  0  2  0  0  0  0  0  0  0  0  0
   11.8332   -2.5558    8.4911 C   0  0  2  0  0  0  0  0  0  0  0  0
   13.0113   -5.6319    7.6359 N   0  0  0  0  0  0  0  0  0  0  0  0
   10.5524   -1.0630    5.7114 N   0  0  0  0  0  0  0  0  0  0  0  0
   10.8930   -0.7254    8.0131 N   0  0  0  0  0  0  0  0  0  0  0  0
   12.4186   -3.6982    8.8566 N   0  0  0  0  0  0  0  0  0  0  0  0
   11.9483   -3.7024    6.7203 N   0  0  0  0  0  0  0  0  0  0  0  0
   11.3886   -1.3740    8.9456 N   0  0  0  0  0  0  0  0  0  0  0  0
   11.5727   -2.6120    7.1795 N   0  0  1  0  0  0  0  0  0  0  0  0
  1  4  1  6  0  0  0
  1  8  1  0  0  0  0
  1  7  1  0  0  0  0
  2  5  1  6  0  0  0
  2  6  1  0  0  0  0
  2 10  1  0  0  0  0
  3  7  1  1  0  0  0
  3 10  1  0  0  0  0
  3  9  1  0  0  0  0
  6  9  1  0  0  0  0
 10  8  1  1  0  0  0
M  END
>  <CHROM.1>
11.70535118,-2.71879342,7.61551736,0.25761795,1.10888063,-2.02330806

>  <Name>
ligand

>  <RI>
0

>  <Rbt.Current_Directory>
/home/itssahil/PROJECTS/Mol_Feturizer/Test_systems_manuscript/rnas/2xnw

>  <Rbt.Executable>
rbdock ($Id: //depot/dev/client3/rdock/2013.1/src/exe/rbdock.cxx#4 $)

>  <Rbt.Library>
libRbt.so (2013.1, Build901 2013/11/27)

>  <Rbt.Parameter_File>
/export/apps/rDock/src/rDock_2013.1_src/data/scripts/dock_solv.prm

>  <Rbt.Receptor>
prm/pocket_docking_4.prm

>  <SCORE>
-6.70608

>  <SCORE.INTER>
-6.70608

>  <SCORE.INTER.CONST>
1

>  <SCORE.INTER.POLAR>
0

>  <SCORE.INTER.ROT>
0

>  <SCORE.INTER.SOLV>
15.6517

>  <SCORE.INTER.VDW>
-13.2879

>  <SCORE.INTER.norm>
-0.670608

>  <SCORE.INTRA>
0

>  <SCORE.INTRA.DIHEDRAL>
0

>  <SCORE.INTRA.DIHEDRAL.0>
0

>  <SCORE.INTRA.POLAR>
0

>  <SCORE.INTRA.POLAR.0>
0

>  <SCORE.INTRA.REPUL>
0

>  <SCORE.INTRA.REPUL.0>
0

>  <SCORE.INTRA.SOLV>
0

>  <SCORE.INTRA.SOLV.lig_0>
-47.9788

>  <SCORE.INTRA.VDW>
0

>  <SCORE.INTRA.VDW.0>
0

>  <SCORE.INTRA.norm>
0

>  <SCORE.RESTR>
0

>  <SCORE.RESTR.CAVITY>
0

>  <SCORE.RESTR.norm>
0

>  <SCORE.SYSTEM>
0

>  <SCORE.SYSTEM.CONST>
0

>  <SCORE.SYSTEM.DIHEDRAL>
0

>  <SCORE.SYSTEM.SOLV>
0

>  <SCORE.SYSTEM.norm>
0

>  <SCORE.heavy>
10

>  <SCORE.norm>
-0.670608

>  <RMSD>
2.970

$$$$
ligand
 OpenBabel02271912133D
libRbt.so/2013.1/901 2013/11/27
 10 11  0  0  0  0  0  0  0  0999 V2000
   12.4725   -4.4104    7.7268 C   0  0  1  0  0  0  0  0  0  0  0  0
   10.9893   -1.4514    6.8909 C   0  0  2  0  0  0  0  0  0  0  0  0
   11.8513   -2.5460    8.4740 C   0  0  2  0  0  0  0  0  0  0  0  0
   12.9910   -5.6401    7.6319 N   0  0  0  0  0  0  0  0  0  0  0  0
   10.5503   -1.0660    5.6968 N   0  0  0  0  0  0  0  0  0  0  0  0
   10.9219   -0.7113    7.9911 N   0  0  0  0  0  0  0  0  0  0  0  0
   12.4307   -3.6905    8.8425 N   0  0  0  0  0  0  0  0  0  0  0  0
   11.9344   -3.7091    6.7121 N   0  0  0  0  0  0  0  0  0  0  0  0
   11.4229   -1.3562    8.9233 N   0  0  0  0  0  0  0  0  0  0  0  0
   11.5743   -2.6114    7.1662 N   0  0  1  0  0  0  0  0  0  0  0  0
  1  4  1  6  0  0  0
  1  8  1  0  0  0  0
  1  7  1  0  0  0  0
  2  5  1  6  0  0  0
  2  6  1  0  0  0  0
  2 10  1  0  0  0  0
  3  7  1  1  0  0  0
  3 10  1  0  0  0  0
  3  9  1  0  0  0  0
  6  9  1  0  0  0  0
 10  8  1  1  0  0  0
M  END
>  <CHROM.1>
11.71131778,-2.71551188,7.60146282,0.29122965,1.11145851,-2.06224799

>  <Name>
ligand

>  <RI>
0

>  <Rbt.Current_Directory>
/home/itssahil/PROJECTS/Mol_Feturizer/Test_systems_manuscript/rnas/2xnw

>  <Rbt.Executable>
rbdock ($Id: //depot/dev/client3/rdock/2013.1/src/exe/rbdock.cxx#4 $)

>  <Rbt.Library>
libRbt.so (2013.1, Build901 2013/11/27)

>  <Rbt.Parameter_File>
/export/apps/rDock/src/rDock_2013.1_src/data/scripts/dock_solv.prm

>  <Rbt.Receptor>
prm/pocket_docking_5.prm

>  <SCORE>
-6.70548

>  <SCORE.INTER>
-6.70548

>  <SCORE.INTER.CONST>
1

>  <SCORE.INTER.POLAR>
0

>  <SCORE.INTER.ROT>
0

>  <SCORE.INTER.SOLV>
15.7119

>  <SCORE.INTER.VDW>
-13.3076

>  <SCORE.INTER.norm>
-0.670548

>  <SCORE.INTRA>
0

>  <SCORE.INTRA.DIHEDRAL>
0

>  <SCORE.INTRA.DIHEDRAL.0>
0

>  <SCORE.INTRA.POLAR>
0

>  <SCORE.INTRA.POLAR.0>
0

>  <SCORE.INTRA.REPUL>
0

>  <SCORE.INTRA.REPUL.0>
0

>  <SCORE.INTRA.SOLV>
0

>  <SCORE.INTRA.SOLV.lig_0>
-47.9788

>  <SCORE.INTRA.VDW>
0

>  <SCORE.INTRA.VDW.0>
0

>  <SCORE.INTRA.norm>
0

>  <SCORE.RESTR>
0

>  <SCORE.RESTR.CAVITY>
0

>  <SCORE.RESTR.norm>
0

>  <SCORE.SYSTEM>
0

>  <SCORE.SYSTEM.CONST>
0

>  <SCORE.SYSTEM.DIHEDRAL>
0

>  <SCORE.SYSTEM.SOLV>
0

>  <SCORE.SYSTEM.norm>
0

>  <SCORE.heavy>
10

>  <SCORE.norm>
-0.670548

>  <RMSD>
2.970

$$$$
ligand
 OpenBabel02271912133D
libRbt.so/2013.1/901 2013/11/27
 10 11  0  0  0  0  0  0  0  0999 V2000
   12.6125   -4.4050    7.7606 C   0  0  1  0  0  0  0  0  0  0  0  0
   11.0174   -1.5015    6.9359 C   0  0  2  0  0  0  0  0  0  0  0  0
   11.9009   -2.5779    8.5196 C   0  0  2  0  0  0  0  0  0  0  0  0
   13.1843   -5.6103    7.6596 N   0  0  0  0  0  0  0  0  0  0  0  0
   10.5807   -1.1204    5.7396 N   0  0  0  0  0  0  0  0  0  0  0  0
   10.9017   -0.7786    8.0435 N   0  0  0  0  0  0  0  0  0  0  0  0
   12.5230   -3.7013    8.8838 N   0  0  0  0  0  0  0  0  0  0  0  0
   12.0606   -3.7147    6.7458 N   0  0  0  0  0  0  0  0  0  0  0  0
   11.4154   -1.4131    8.9758 N   0  0  0  0  0  0  0  0  0  0  0  0
   11.6471   -2.6389    7.2068 N   0  0  1  0  0  0  0  0  0  0  0  0
  1  4  1  6  0  0  0
  1  8  1  0  0  0  0
  1  7  1  0  0  0  0
  2  5  1  6  0  0  0
  2  6  1  0  0  0  0
  2 10  1  0  0  0  0
  3  7  1  1  0  0  0
  3 10  1  0  0  0  0
  3  9  1  0  0  0  0
  6  9  1  0  0  0  0
 10  8  1  1  0  0  0
M  END
>  <CHROM.1>
11.78173665,-2.74250841,7.64301552,0.21982816,1.08001900,-1.98673881

>  <Name>
ligand

>  <RI>
0

>  <Rbt.Current_Directory>
/home/itssahil/PROJECTS/Mol_Feturizer/Test_systems_manuscript/rnas/2xnw

>  <Rbt.Executable>
rbdock ($Id: //depot/dev/client3/rdock/2013.1/src/exe/rbdock.cxx#4 $)

>  <Rbt.Library>
libRbt.so (2013.1, Build901 2013/11/27)

>  <Rbt.Parameter_File>
/export/apps/rDock/src/rDock_2013.1_src/data/scripts/dock_solv.prm

>  <Rbt.Receptor>
prm/pocket_docking_6.prm

>  <SCORE>
-6.68566

>  <SCORE.INTER>
-6.68566

>  <SCORE.INTER.CONST>
1

>  <SCORE.INTER.POLAR>
0

>  <SCORE.INTER.ROT>
0

>  <SCORE.INTER.SOLV>
14.8727

>  <SCORE.INTER.VDW>
-13.0147

>  <SCORE.INTER.norm>
-0.668566

>  <SCORE.INTRA>
0

>  <SCORE.INTRA.DIHEDRAL>
0

>  <SCORE.INTRA.DIHEDRAL.0>
0

>  <SCORE.INTRA.POLAR>
0

>  <SCORE.INTRA.POLAR.0>
0

>  <SCORE.INTRA.REPUL>
0

>  <SCORE.INTRA.REPUL.0>
0

>  <SCORE.INTRA.SOLV>
0

>  <SCORE.INTRA.SOLV.lig_0>
-47.9788

>  <SCORE.INTRA.VDW>
0

>  <SCORE.INTRA.VDW.0>
0

>  <SCORE.INTRA.norm>
0

>  <SCORE.RESTR>
0

>  <SCORE.RESTR.CAVITY>
0

>  <SCORE.RESTR.norm>
0

>  <SCORE.SYSTEM>
0

>  <SCORE.SYSTEM.CONST>
0

>  <SCORE.SYSTEM.DIHEDRAL>
0

>  <SCORE.SYSTEM.SOLV>
0

>  <SCORE.SYSTEM.norm>
0

>  <SCORE.heavy>
10

>  <SCORE.norm>
-0.668566

>  <RMSD>
2.970

$$$$
ligand
 OpenBabel02271912133D
libRbt.so/2013.1/901 2013/11/27
 10 11  0  0  0  0  0  0  0  0999 V2000
   12.6124   -4.4020    7.7599 C   0  0  1  0  0  0  0  0  0  0  0  0
   11.0150   -1.4992    6.9375 C   0  0  2  0  0  0  0  0  0  0  0  0
   11.8991   -2.5763    8.5203 C   0  0  2  0  0  0  0  0  0  0  0  0
   13.1854   -5.6068    7.6579 N   0  0  0  0  0  0  0  0  0  0  0  0
   10.5783   -1.1174    5.7413 N   0  0  0  0  0  0  0  0  0  0  0  0
   10.8985   -0.7774    8.0456 N   0  0  0  0  0  0  0  0  0  0  0  0
   12.5221   -3.6994    8.8837 N   0  0  0  0  0  0  0  0  0  0  0  0
   12.0602   -3.7113    6.7455 N   0  0  0  0  0  0  0  0  0  0  0  0
   11.4126   -1.4123    8.9775 N   0  0  0  0  0  0  0  0  0  0  0  0
   11.6457   -2.6363    7.2075 N   0  0  1  0  0  0  0  0  0  0  0  0
  1  4  1  6  0  0  0
  1  8  1  0  0  0  0
  1  7  1  0  0  0  0
  2  5  1  6  0  0  0
  2  6  1  0  0  0  0
  2 10  1  0  0  0  0
  3  7  1  1  0  0  0
  3 10  1  0  0  0  0
  3  9  1  0  0  0  0
  6  9  1  0  0  0  0
 10  8  1  1  0  0  0
M  END
>  <CHROM.1>
11.78028338,-2.74018857,7.64359070,0.21866533,1.07931951,-1.98481944

>  <Name>
ligand

>  <RI>
0

>  <Rbt.Current_Directory>
/home/itssahil/PROJECTS/Mol_Feturizer/Test_systems_manuscript/rnas/2xnw

>  <Rbt.Executable>
rbdock ($Id: //depot/dev/client3/rdock/2013.1/src/exe/rbdock.cxx#4 $)

>  <Rbt.Library>
libRbt.so (2013.1, Build901 2013/11/27)

>  <Rbt.Parameter_File>
/export/apps/rDock/src/rDock_2013.1_src/data/scripts/dock_solv.prm

>  <Rbt.Receptor>
prm/pocket_docking_6.prm

>  <SCORE>
-6.68594

>  <SCORE.INTER>
-6.68594

>  <SCORE.INTER.CONST>
1

>  <SCORE.INTER.POLAR>
0

>  <SCORE.INTER.ROT>
0

>  <SCORE.INTER.SOLV>
14.8706

>  <SCORE.INTER.VDW>
-13.0141

>  <SCORE.INTER.norm>
-0.668594

>  <SCORE.INTRA>
0

>  <SCORE.INTRA.DIHEDRAL>
0

>  <SCORE.INTRA.DIHEDRAL.0>
0

>  <SCORE.INTRA.POLAR>
0

>  <SCORE.INTRA.POLAR.0>
0

>  <SCORE.INTRA.REPUL>
0

>  <SCORE.INTRA.REPUL.0>
0

>  <SCORE.INTRA.SOLV>
0

>  <SCORE.INTRA.SOLV.lig_0>
-47.9788

>  <SCORE.INTRA.VDW>
0

>  <SCORE.INTRA.VDW.0>
0

>  <SCORE.INTRA.norm>
0

>  <SCORE.RESTR>
0

>  <SCORE.RESTR.CAVITY>
0

>  <SCORE.RESTR.norm>
0

>  <SCORE.SYSTEM>
0

>  <SCORE.SYSTEM.CONST>
0

>  <SCORE.SYSTEM.DIHEDRAL>
0

>  <SCORE.SYSTEM.SOLV>
0

>  <SCORE.SYSTEM.norm>
0

>  <SCORE.heavy>
10

>  <SCORE.norm>
-0.668594

>  <RMSD>
2.970

$$$$
ligand
 OpenBabel02271912133D
libRbt.so/2013.1/901 2013/11/27
 10 11  0  0  0  0  0  0  0  0999 V2000
   12.4746   -4.4174    7.7340 C   0  0  1  0  0  0  0  0  0  0  0  0
   10.9911   -1.4573    6.9028 C   0  0  2  0  0  0  0  0  0  0  0  0
   11.8544   -2.5537    8.4838 C   0  0  2  0  0  0  0  0  0  0  0  0
   12.9928   -5.6471    7.6372 N   0  0  0  0  0  0  0  0  0  0  0  0
   10.5510   -1.0704    5.7095 N   0  0  0  0  0  0  0  0  0  0  0  0
   10.9250   -0.7184    8.0039 N   0  0  0  0  0  0  0  0  0  0  0  0
   12.4341   -3.6987    8.8504 N   0  0  0  0  0  0  0  0  0  0  0  0
   11.9357   -3.7149    6.7205 N   0  0  0  0  0  0  0  0  0  0  0  0
   11.4268   -1.3644    8.9348 N   0  0  0  0  0  0  0  0  0  0  0  0
   11.5762   -2.6176    7.1761 N   0  0  1  0  0  0  0  0  0  0  0  0
  1  4  1  6  0  0  0
  1  8  1  0  0  0  0
  1  7  1  0  0  0  0
  2  5  1  6  0  0  0
  2  6  1  0  0  0  0
  2 10  1  0  0  0  0
  3  7  1  1  0  0  0
  3 10  1  0  0  0  0
  3  9  1  0  0  0  0
  6  9  1  0  0  0  0
 10  8  1  1  0  0  0
M  END
>  <CHROM.1>
11.71362357,-2.72226915,7.61119373,0.29335136,1.11115990,-2.06304854

>  <Name>
ligand

>  <RI>
0

>  <Rbt.Current_Directory>
/home/itssahil/PROJECTS/Mol_Feturizer/Test_systems_manuscript/rnas/2xnw

>  <Rbt.Executable>
rbdock ($Id: //depot/dev/client3/rdock/2013.1/src/exe/rbdock.cxx#4 $)

>  <Rbt.Library>
libRbt.so (2013.1, Build901 2013/11/27)

>  <Rbt.Parameter_File>
/export/apps/rDock/src/rDock_2013.1_src/data/scripts/dock_solv.prm

>  <Rbt.Receptor>
prm/blind_docking_20.prm

>  <SCORE>
-6.70819

>  <SCORE.INTER>
-6.70819

>  <SCORE.INTER.CONST>
1

>  <SCORE.INTER.POLAR>
0

>  <SCORE.INTER.ROT>
0

>  <SCORE.INTER.SOLV>
15.685

>  <SCORE.INTER.VDW>
-13.3005

>  <SCORE.INTER.norm>
-0.670819

>  <SCORE.INTRA>
0

>  <SCORE.INTRA.DIHEDRAL>
0

>  <SCORE.INTRA.DIHEDRAL.0>
0

>  <SCORE.INTRA.POLAR>
0

>  <SCORE.INTRA.POLAR.0>
0

>  <SCORE.INTRA.REPUL>
0

>  <SCORE.INTRA.REPUL.0>
0

>  <SCORE.INTRA.SOLV>
0

>  <SCORE.INTRA.SOLV.lig_0>
-47.9788

>  <SCORE.INTRA.VDW>
0

>  <SCORE.INTRA.VDW.0>
0

>  <SCORE.INTRA.norm>
0

>  <SCORE.RESTR>
0

>  <SCORE.RESTR.CAVITY>
0

>  <SCORE.RESTR.norm>
0

>  <SCORE.SYSTEM>
0

>  <SCORE.SYSTEM.CONST>
0

>  <SCORE.SYSTEM.DIHEDRAL>
0

>  <SCORE.SYSTEM.SOLV>
0

>  <SCORE.SYSTEM.norm>
0

>  <SCORE.heavy>
10

>  <SCORE.norm>
-0.670819

>  <RMSD>
2.971

$$$$
ligand
 OpenBabel02271912133D
libRbt.so/2013.1/901 2013/11/27
 10 11  0  0  0  0  0  0  0  0999 V2000
   12.4734   -4.4068    7.7263 C   0  0  1  0  0  0  0  0  0  0  0  0
   10.9752   -1.4519    6.9029 C   0  0  2  0  0  0  0  0  0  0  0  0
   11.8456   -2.5475    8.4806 C   0  0  2  0  0  0  0  0  0  0  0  0
   12.9971   -5.6339    7.6264 N   0  0  0  0  0  0  0  0  0  0  0  0
   10.5318   -1.0648    5.7110 N   0  0  0  0  0  0  0  0  0  0  0  0
   10.9071   -0.7155    8.0056 N   0  0  0  0  0  0  0  0  0  0  0  0
   12.4310   -3.6905    8.8443 N   0  0  0  0  0  0  0  0  0  0  0  0
   11.9299   -3.7048    6.7150 N   0  0  0  0  0  0  0  0  0  0  0  0
   11.4131   -1.3610    8.9345 N   0  0  0  0  0  0  0  0  0  0  0  0
   11.5660   -2.6101    7.1732 N   0  0  1  0  0  0  0  0  0  0  0  0
  1  4  1  6  0  0  0
  1  8  1  0  0  0  0
  1  7  1  0  0  0  0
  2  5  1  6  0  0  0
  2  6  1  0  0  0  0
  2 10  1  0  0  0  0
  3  7  1  1  0  0  0
  3 10  1  0  0  0  0
  3  9  1  0  0  0  0
  6  9  1  0  0  0  0
 10  8  1  1  0  0  0
M  END
>  <CHROM.1>
11.70445660,-2.71495603,7.60792118,0.29109495,1.10647419,-2.05905908

>  <Name>
ligand

>  <RI>
0

>  <Rbt.Current_Directory>
/home/itssahil/PROJECTS/Mol_Feturizer/Test_systems_manuscript/rnas/2xnw

>  <Rbt.Executable>
rbdock ($Id: //depot/dev/client3/rdock/2013.1/src/exe/rbdock.cxx#4 $)

>  <Rbt.Library>
libRbt.so (2013.1, Build901 2013/11/27)

>  <Rbt.Parameter_File>
/export/apps/rDock/src/rDock_2013.1_src/data/scripts/dock_solv.prm

>  <Rbt.Receptor>
prm/blind_docking_20.prm

>  <SCORE>
-6.70747

>  <SCORE.INTER>
-6.70747

>  <SCORE.INTER.CONST>
1

>  <SCORE.INTER.POLAR>
0

>  <SCORE.INTER.ROT>
0

>  <SCORE.INTER.SOLV>
15.6482

>  <SCORE.INTER.VDW>
-13.2877

>  <SCORE.INTER.norm>
-0.670747

>  <SCORE.INTRA>
0

>  <SCORE.INTRA.DIHEDRAL>
0

>  <SCORE.INTRA.DIHEDRAL.0>
0

>  <SCORE.INTRA.POLAR>
0

>  <SCORE.INTRA.POLAR.0>
0

>  <SCORE.INTRA.REPUL>
0

>  <SCORE.INTRA.REPUL.0>
0

>  <SCORE.INTRA.SOLV>
0

>  <SCORE.INTRA.SOLV.lig_0>
-47.9788

>  <SCORE.INTRA.VDW>
0

>  <SCORE.INTRA.VDW.0>
0

>  <SCORE.INTRA.norm>
0

>  <SCORE.RESTR>
0

>  <SCORE.RESTR.CAVITY>
0

>  <SCORE.RESTR.norm>
0

>  <SCORE.SYSTEM>
0

>  <SCORE.SYSTEM.CONST>
0

>  <SCORE.SYSTEM.DIHEDRAL>
0

>  <SCORE.SYSTEM.SOLV>
0

>  <SCORE.SYSTEM.norm>
0

>  <SCORE.heavy>
10

>  <SCORE.norm>
-0.670747

>  <RMSD>
2.971

$$$$
ligand
 OpenBabel02271912133D
libRbt.so/2013.1/901 2013/11/27
 10 11  0  0  0  0  0  0  0  0999 V2000
   12.5750   -4.4046    7.7232 C   0  0  1  0  0  0  0  0  0  0  0  0
   11.0270   -1.4787    6.8881 C   0  0  2  0  0  0  0  0  0  0  0  0
   11.9338   -2.5449    8.4655 C   0  0  2  0  0  0  0  0  0  0  0  0
   13.1131   -5.6259    7.6296 N   0  0  0  0  0  0  0  0  0  0  0  0
   10.5618   -1.1109    5.6984 N   0  0  0  0  0  0  0  0  0  0  0  0
   10.9649   -0.7307    7.9833 N   0  0  0  0  0  0  0  0  0  0  0  0
   12.5391   -3.6762    8.8335 N   0  0  0  0  0  0  0  0  0  0  0  0
   12.0082   -3.7212    6.7119 N   0  0  0  0  0  0  0  0  0  0  0  0
   11.4923   -1.3590    8.9121 N   0  0  0  0  0  0  0  0  0  0  0  0
   11.6366   -2.6261    7.1630 N   0  0  1  0  0  0  0  0  0  0  0  0
  1  4  1  6  0  0  0
  1  8  1  0  0  0  0
  1  7  1  0  0  0  0
  2  5  1  6  0  0  0
  2  6  1  0  0  0  0
  2 10  1  0  0  0  0
  3  7  1  1  0  0  0
  3 10  1  0  0  0  0
  3  9  1  0  0  0  0
  6  9  1  0  0  0  0
 10  8  1  1  0  0  0
M  END
>  <CHROM.1>
11.78249435,-2.72418477,7.59678137,0.30484512,1.08834971,-2.08261970

>  <Name>
ligand

>  <RI>
0

>  <Rbt.Current_Directory>
/home/itssahil/PROJECTS/Mol_Feturizer/Test_systems_manuscript/rnas/2xnw

>  <Rbt.Executable>
rbdock ($Id: //depot/dev/client3/rdock/2013.1/src/exe/rbdock.cxx#4 $)

>  <Rbt.Library>
libRbt.so (2013.1, Build901 2013/11/27)

>  <Rbt.Parameter_File>
/export/apps/rDock/src/rDock_2013.1_src/data/scripts/dock_solv.prm

>  <Rbt.Receptor>
prm/blind_docking_40.prm

>  <SCORE>
-6.66279

>  <SCORE.INTER>
-6.66279

>  <SCORE.INTER.CONST>
1

>  <SCORE.INTER.POLAR>
0

>  <SCORE.INTER.ROT>
0

>  <SCORE.INTER.SOLV>
15.1392

>  <SCORE.INTER.VDW>
-13.0883

>  <SCORE.INTER.norm>
-0.666279

>  <SCORE.INTRA>
0

>  <SCORE.INTRA.DIHEDRAL>
0

>  <SCORE.INTRA.DIHEDRAL.0>
0

>  <SCORE.INTRA.POLAR>
0

>  <SCORE.INTRA.POLAR.0>
0

>  <SCORE.INTRA.REPUL>
0

>  <SCORE.INTRA.REPUL.0>
0

>  <SCORE.INTRA.SOLV>
0

>  <SCORE.INTRA.SOLV.lig_0>
-47.9788

>  <SCORE.INTRA.VDW>
0

>  <SCORE.INTRA.VDW.0>
0

>  <SCORE.INTRA.norm>
0

>  <SCORE.RESTR>
0

>  <SCORE.RESTR.CAVITY>
0

>  <SCORE.RESTR.norm>
0

>  <SCORE.SYSTEM>
0

>  <SCORE.SYSTEM.CONST>
0

>  <SCORE.SYSTEM.DIHEDRAL>
0

>  <SCORE.SYSTEM.SOLV>
0

>  <SCORE.SYSTEM.norm>
0

>  <SCORE.heavy>
10

>  <SCORE.norm>
-0.666279

>  <RMSD>
2.971

$$$$
ligand
 OpenBabel02271912133D
libRbt.so/2013.1/901 2013/11/27
 10 11  0  0  0  0  0  0  0  0999 V2000
   12.4690   -4.4294    7.7333 C   0  0  1  0  0  0  0  0  0  0  0  0
   11.0059   -1.4680    6.8711 C   0  0  2  0  0  0  0  0  0  0  0  0
   11.8436   -2.5614    8.4680 C   0  0  2  0  0  0  0  0  0  0  0  0
   12.9850   -5.6609    7.6481 N   0  0  0  0  0  0  0  0  0  0  0  0
   10.5839   -1.0840    5.6704 N   0  0  0  0  0  0  0  0  0  0  0  0
   10.9263   -0.7251    7.9687 N   0  0  0  0  0  0  0  0  0  0  0  0
   12.4147   -3.7068    8.8467 N   0  0  0  0  0  0  0  0  0  0  0  0
   11.9465   -3.7289    6.7100 N   0  0  0  0  0  0  0  0  0  0  0  0
   11.4130   -1.3693    8.9088 N   0  0  0  0  0  0  0  0  0  0  0  0
   11.5838   -2.6290    7.1567 N   0  0  1  0  0  0  0  0  0  0  0  0
  1  4  1  6  0  0  0
  1  8  1  0  0  0  0
  1  7  1  0  0  0  0
  2  5  1  6  0  0  0
  2  6  1  0  0  0  0
  2 10  1  0  0  0  0
  3  7  1  1  0  0  0
  3 10  1  0  0  0  0
  3  9  1  0  0  0  0
  6  9  1  0  0  0  0
 10  8  1  1  0  0  0
M  END
>  <CHROM.1>
11.71470811,-2.73256173,7.59403957,0.26779506,1.12024962,-2.04351483

>  <Name>
ligand

>  <RI>
0

>  <Rbt.Current_Directory>
/home/itssahil/PROJECTS/Mol_Feturizer/Test_systems_manuscript/rnas/2xnw

>  <Rbt.Executable>
rbdock ($Id: //depot/dev/client3/rdock/2013.1/src/exe/rbdock.cxx#4 $)

>  <Rbt.Library>
libRbt.so (2013.1, Build901 2013/11/27)

>  <Rbt.Parameter_File>
/export/apps/rDock/src/rDock_2013.1_src/data/scripts/dock_solv.prm

>  <Rbt.Receptor>
prm/pocket_docking_4.prm

>  <SCORE>
-6.71513

>  <SCORE.INTER>
-6.71513

>  <SCORE.INTER.CONST>
1

>  <SCORE.INTER.POLAR>
0

>  <SCORE.INTER.ROT>
0

>  <SCORE.INTER.SOLV>
15.8028

>  <SCORE.INTER.VDW>
-13.3443

>  <SCORE.INTER.norm>
-0.671513

>  <SCORE.INTRA>
0

>  <SCORE.INTRA.DIHEDRAL>
0

>  <SCORE.INTRA.DIHEDRAL.0>
0

>  <SCORE.INTRA.POLAR>
0

>  <SCORE.INTRA.POLAR.0>
0

>  <SCORE.INTRA.REPUL>
0

>  <SCORE.INTRA.REPUL.0>
0

>  <SCORE.INTRA.SOLV>
0

>  <SCORE.INTRA.SOLV.lig_0>
-47.9788

>  <SCORE.INTRA.VDW>
0

>  <SCORE.INTRA.VDW.0>
0

>  <SCORE.INTRA.norm>
0

>  <SCORE.RESTR>
0

>  <SCORE.RESTR.CAVITY>
0

>  <SCORE.RESTR.norm>
0

>  <SCORE.SYSTEM>
0

>  <SCORE.SYSTEM.CONST>
0

>  <SCORE.SYSTEM.DIHEDRAL>
0

>  <SCORE.SYSTEM.SOLV>
0

>  <SCORE.SYSTEM.norm>
0

>  <SCORE.heavy>
10

>  <SCORE.norm>
-0.671513

>  <RMSD>
2.971

$$$$
ligand
 OpenBabel02271912133D
libRbt.so/2013.1/901 2013/11/27
 10 11  0  0  0  0  0  0  0  0999 V2000
   12.4749   -4.4210    7.7355 C   0  0  1  0  0  0  0  0  0  0  0  0
   10.9966   -1.4623    6.8897 C   0  0  2  0  0  0  0  0  0  0  0  0
   11.8184   -2.5697    8.4852 C   0  0  2  0  0  0  0  0  0  0  0  0
   13.0046   -5.6460    7.6420 N   0  0  0  0  0  0  0  0  0  0  0  0
   10.5909   -1.0658    5.6874 N   0  0  0  0  0  0  0  0  0  0  0  0
   10.8910   -0.7357    7.9959 N   0  0  0  0  0  0  0  0  0  0  0  0
   12.3946   -3.7146    8.8576 N   0  0  0  0  0  0  0  0  0  0  0  0
   11.9626   -3.7114    6.7132 N   0  0  0  0  0  0  0  0  0  0  0  0
   11.3684   -1.3882    8.9351 N   0  0  0  0  0  0  0  0  0  0  0  0
   11.5813   -2.6215    7.1689 N   0  0  1  0  0  0  0  0  0  0  0  0
  1  4  1  6  0  0  0
  1  8  1  0  0  0  0
  1  7  1  0  0  0  0
  2  5  1  6  0  0  0
  2  6  1  0  0  0  0
  2 10  1  0  0  0  0
  3  7  1  1  0  0  0
  3 10  1  0  0  0  0
  3  9  1  0  0  0  0
  6  9  1  0  0  0  0
 10  8  1  1  0  0  0
M  END
>  <CHROM.1>
11.70586671,-2.72986008,7.60691680,0.22301829,1.11850526,-1.98930815

>  <Name>
ligand

>  <RI>
0

>  <Rbt.Current_Directory>
/home/itssahil/PROJECTS/Mol_Feturizer/Test_systems_manuscript/rnas/2xnw

>  <Rbt.Executable>
rbdock ($Id: //depot/dev/client3/rdock/2013.1/src/exe/rbdock.cxx#4 $)

>  <Rbt.Library>
libRbt.so (2013.1, Build901 2013/11/27)

>  <Rbt.Parameter_File>
/export/apps/rDock/src/rDock_2013.1_src/data/scripts/dock_solv.prm

>  <Rbt.Receptor>
prm/pocket_docking_5.prm

>  <SCORE>
-6.69329

>  <SCORE.INTER>
-6.69329

>  <SCORE.INTER.CONST>
1

>  <SCORE.INTER.POLAR>
0

>  <SCORE.INTER.ROT>
0

>  <SCORE.INTER.SOLV>
15.7647

>  <SCORE.INTER.VDW>
-13.3171

>  <SCORE.INTER.norm>
-0.669329

>  <SCORE.INTRA>
0

>  <SCORE.INTRA.DIHEDRAL>
0

>  <SCORE.INTRA.DIHEDRAL.0>
0

>  <SCORE.INTRA.POLAR>
0

>  <SCORE.INTRA.POLAR.0>
0

>  <SCORE.INTRA.REPUL>
0

>  <SCORE.INTRA.REPUL.0>
0

>  <SCORE.INTRA.SOLV>
0

>  <SCORE.INTRA.SOLV.lig_0>
-47.9788

>  <SCORE.INTRA.VDW>
0

>  <SCORE.INTRA.VDW.0>
0

>  <SCORE.INTRA.norm>
0

>  <SCORE.RESTR>
0

>  <SCORE.RESTR.CAVITY>
0

>  <SCORE.RESTR.norm>
0

>  <SCORE.SYSTEM>
0

>  <SCORE.SYSTEM.CONST>
0

>  <SCORE.SYSTEM.DIHEDRAL>
0

>  <SCORE.SYSTEM.SOLV>
0

>  <SCORE.SYSTEM.norm>
0

>  <SCORE.heavy>
10

>  <SCORE.norm>
-0.669329

>  <RMSD>
2.971

$$$$
ligand
 OpenBabel02271912133D
libRbt.so/2013.1/901 2013/11/27
 10 11  0  0  0  0  0  0  0  0999 V2000
   12.4784   -4.4207    7.7398 C   0  0  1  0  0  0  0  0  0  0  0  0
   10.9975   -1.4599    6.9062 C   0  0  2  0  0  0  0  0  0  0  0  0
   11.8503   -2.5600    8.4904 C   0  0  2  0  0  0  0  0  0  0  0  0
   12.9988   -5.6495    7.6432 N   0  0  0  0  0  0  0  0  0  0  0  0
   10.5659   -1.0701    5.7108 N   0  0  0  0  0  0  0  0  0  0  0  0
   10.9222   -0.7244    8.0089 N   0  0  0  0  0  0  0  0  0  0  0  0
   12.4286   -3.7054    8.8580 N   0  0  0  0  0  0  0  0  0  0  0  0
   11.9462   -3.7159    6.7244 N   0  0  0  0  0  0  0  0  0  0  0  0
   11.4178   -1.3725    8.9417 N   0  0  0  0  0  0  0  0  0  0  0  0
   11.5820   -2.6204    7.1805 N   0  0  1  0  0  0  0  0  0  0  0  0
  1  4  1  6  0  0  0
  1  8  1  0  0  0  0
  1  7  1  0  0  0  0
  2  5  1  6  0  0  0
  2  6  1  0  0  0  0
  2 10  1  0  0  0  0
  3  7  1  1  0  0  0
  3 10  1  0  0  0  0
  3  9  1  0  0  0  0
  6  9  1  0  0  0  0
 10  8  1  1  0  0  0
M  END
>  <CHROM.1>
11.71621782,-2.72613348,7.61629692,0.27709732,1.11355699,-2.04553064

>  <Name>
ligand

>  <RI>
0

>  <Rbt.Current_Directory>
/home/itssahil/PROJECTS/Mol_Feturizer/Test_systems_manuscript/rnas/2xnw

>  <Rbt.Executable>
rbdock ($Id: //depot/dev/client3/rdock/2013.1/src/exe/rbdock.cxx#4 $)

>  <Rbt.Library>
libRbt.so (2013.1, Build901 2013/11/27)

>  <Rbt.Parameter_File>
/export/apps/rDock/src/rDock_2013.1_src/data/scripts/dock_solv.prm

>  <Rbt.Receptor>
prm/pocket_docking_5.prm

>  <SCORE>
-6.70726

>  <SCORE.INTER>
-6.70726

>  <SCORE.INTER.CONST>
1

>  <SCORE.INTER.POLAR>
0

>  <SCORE.INTER.ROT>
0

>  <SCORE.INTER.SOLV>
15.6959

>  <SCORE.INTER.VDW>
-13.3035

>  <SCORE.INTER.norm>
-0.670726

>  <SCORE.INTRA>
0

>  <SCORE.INTRA.DIHEDRAL>
0

>  <SCORE.INTRA.DIHEDRAL.0>
0

>  <SCORE.INTRA.POLAR>
0

>  <SCORE.INTRA.POLAR.0>
0

>  <SCORE.INTRA.REPUL>
0

>  <SCORE.INTRA.REPUL.0>
0

>  <SCORE.INTRA.SOLV>
0

>  <SCORE.INTRA.SOLV.lig_0>
-47.9788

>  <SCORE.INTRA.VDW>
0

>  <SCORE.INTRA.VDW.0>
0

>  <SCORE.INTRA.norm>
0

>  <SCORE.RESTR>
0

>  <SCORE.RESTR.CAVITY>
0

>  <SCORE.RESTR.norm>
0

>  <SCORE.SYSTEM>
0

>  <SCORE.SYSTEM.CONST>
0

>  <SCORE.SYSTEM.DIHEDRAL>
0

>  <SCORE.SYSTEM.SOLV>
0

>  <SCORE.SYSTEM.norm>
0

>  <SCORE.heavy>
10

>  <SCORE.norm>
-0.670726

>  <RMSD>
2.971

$$$$
ligand
 OpenBabel02271912133D
libRbt.so/2013.1/901 2013/11/27
 10 11  0  0  0  0  0  0  0  0999 V2000
   12.4786   -4.4149    7.7365 C   0  0  1  0  0  0  0  0  0  0  0  0
   10.9813   -1.4623    6.9028 C   0  0  2  0  0  0  0  0  0  0  0  0
   11.8431   -2.5563    8.4863 C   0  0  2  0  0  0  0  0  0  0  0  0
   13.0048   -5.6412    7.6402 N   0  0  0  0  0  0  0  0  0  0  0  0
   10.5451   -1.0761    5.7079 N   0  0  0  0  0  0  0  0  0  0  0  0
   10.9049   -0.7258    8.0048 N   0  0  0  0  0  0  0  0  0  0  0  0
   12.4278   -3.6984    8.8540 N   0  0  0  0  0  0  0  0  0  0  0  0
   11.9406   -3.7138    6.7215 N   0  0  0  0  0  0  0  0  0  0  0  0
   11.4058   -1.3704    8.9372 N   0  0  0  0  0  0  0  0  0  0  0  0
   11.5721   -2.6196    7.1772 N   0  0  1  0  0  0  0  0  0  0  0  0
  1  4  1  6  0  0  0
  1  8  1  0  0  0  0
  1  7  1  0  0  0  0
  2  5  1  6  0  0  0
  2  6  1  0  0  0  0
  2 10  1  0  0  0  0
  3  7  1  1  0  0  0
  3 10  1  0  0  0  0
  3  9  1  0  0  0  0
  6  9  1  0  0  0  0
 10  8  1  1  0  0  0
M  END
>  <CHROM.1>
11.70784319,-2.72416727,7.61274517,0.27660055,1.10816520,-2.04627344

>  <Name>
ligand

>  <RI>
0

>  <Rbt.Current_Directory>
/home/itssahil/PROJECTS/Mol_Feturizer/Test_systems_manuscript/rnas/2xnw

>  <Rbt.Executable>
rbdock ($Id: //depot/dev/client3/rdock/2013.1/src/exe/rbdock.cxx#4 $)

>  <Rbt.Library>
libRbt.so (2013.1, Build901 2013/11/27)

>  <Rbt.Parameter_File>
/export/apps/rDock/src/rDock_2013.1_src/data/scripts/dock_solv.prm

>  <Rbt.Receptor>
prm/pocket_docking_5.prm

>  <SCORE>
-6.70965

>  <SCORE.INTER>
-6.70965

>  <SCORE.INTER.CONST>
1

>  <SCORE.INTER.POLAR>
0

>  <SCORE.INTER.ROT>
0

>  <SCORE.INTER.SOLV>
15.6313

>  <SCORE.INTER.VDW>
-13.2835

>  <SCORE.INTER.norm>
-0.670965

>  <SCORE.INTRA>
0

>  <SCORE.INTRA.DIHEDRAL>
0

>  <SCORE.INTRA.DIHEDRAL.0>
0

>  <SCORE.INTRA.POLAR>
0

>  <SCORE.INTRA.POLAR.0>
0

>  <SCORE.INTRA.REPUL>
0

>  <SCORE.INTRA.REPUL.0>
0

>  <SCORE.INTRA.SOLV>
0

>  <SCORE.INTRA.SOLV.lig_0>
-47.9788

>  <SCORE.INTRA.VDW>
0

>  <SCORE.INTRA.VDW.0>
0

>  <SCORE.INTRA.norm>
0

>  <SCORE.RESTR>
0

>  <SCORE.RESTR.CAVITY>
0

>  <SCORE.RESTR.norm>
0

>  <SCORE.SYSTEM>
0

>  <SCORE.SYSTEM.CONST>
0

>  <SCORE.SYSTEM.DIHEDRAL>
0

>  <SCORE.SYSTEM.SOLV>
0

>  <SCORE.SYSTEM.norm>
0

>  <SCORE.heavy>
10

>  <SCORE.norm>
-0.670965

>  <RMSD>
2.971

$$$$
ligand
 OpenBabel02271912133D
libRbt.so/2013.1/901 2013/11/27
 10 11  0  0  0  0  0  0  0  0999 V2000
   12.4757   -4.4227    7.7376 C   0  0  1  0  0  0  0  0  0  0  0  0
   10.9997   -1.4621    6.8943 C   0  0  2  0  0  0  0  0  0  0  0  0
   11.8254   -2.5694    8.4879 C   0  0  2  0  0  0  0  0  0  0  0  0
   13.0028   -5.6488    7.6434 N   0  0  0  0  0  0  0  0  0  0  0  0
   10.5904   -1.0660    5.6932 N   0  0  0  0  0  0  0  0  0  0  0  0
   10.8997   -0.7342    8.0002 N   0  0  0  0  0  0  0  0  0  0  0  0
   12.4009   -3.7150    8.8593 N   0  0  0  0  0  0  0  0  0  0  0  0
   11.9609   -3.7131    6.7166 N   0  0  0  0  0  0  0  0  0  0  0  0
   11.3793   -1.3867    8.9383 N   0  0  0  0  0  0  0  0  0  0  0  0
   11.5833   -2.6221    7.1726 N   0  0  1  0  0  0  0  0  0  0  0  0
  1  4  1  6  0  0  0
  1  8  1  0  0  0  0
  1  7  1  0  0  0  0
  2  5  1  6  0  0  0
  2  6  1  0  0  0  0
  2 10  1  0  0  0  0
  3  7  1  1  0  0  0
  3 10  1  0  0  0  0
  3  9  1  0  0  0  0
  6  9  1  0  0  0  0
 10  8  1  1  0  0  0
M  END
>  <CHROM.1>
11.70934666,-2.73025948,7.61020737,0.23255206,1.11867639,-1.99889567

>  <Name>
ligand

>  <RI>
0

>  <Rbt.Current_Directory>
/home/itssahil/PROJECTS/Mol_Feturizer/Test_systems_manuscript/rnas/2xnw

>  <Rbt.Executable>
rbdock ($Id: //depot/dev/client3/rdock/2013.1/src/exe/rbdock.cxx#4 $)

>  <Rbt.Library>
libRbt.so (2013.1, Build901 2013/11/27)

>  <Rbt.Parameter_File>
/export/apps/rDock/src/rDock_2013.1_src/data/scripts/dock_solv.prm

>  <Rbt.Receptor>
prm/pocket_docking_5.prm

>  <SCORE>
-6.69595

>  <SCORE.INTER>
-6.69595

>  <SCORE.INTER.CONST>
1

>  <SCORE.INTER.POLAR>
0

>  <SCORE.INTER.ROT>
0

>  <SCORE.INTER.SOLV>
15.7613

>  <SCORE.INTER.VDW>
-13.3177

>  <SCORE.INTER.norm>
-0.669595

>  <SCORE.INTRA>
0

>  <SCORE.INTRA.DIHEDRAL>
0

>  <SCORE.INTRA.DIHEDRAL.0>
0

>  <SCORE.INTRA.POLAR>
0

>  <SCORE.INTRA.POLAR.0>
0

>  <SCORE.INTRA.REPUL>
0

>  <SCORE.INTRA.REPUL.0>
0

>  <SCORE.INTRA.SOLV>
0

>  <SCORE.INTRA.SOLV.lig_0>
-47.9788

>  <SCORE.INTRA.VDW>
0

>  <SCORE.INTRA.VDW.0>
0

>  <SCORE.INTRA.norm>
0

>  <SCORE.RESTR>
0

>  <SCORE.RESTR.CAVITY>
0

>  <SCORE.RESTR.norm>
0

>  <SCORE.SYSTEM>
0

>  <SCORE.SYSTEM.CONST>
0

>  <SCORE.SYSTEM.DIHEDRAL>
0

>  <SCORE.SYSTEM.SOLV>
0

>  <SCORE.SYSTEM.norm>
0

>  <SCORE.heavy>
10

>  <SCORE.norm>
-0.669595

>  <RMSD>
2.971

$$$$
ligand
 OpenBabel02271912133D
libRbt.so/2013.1/901 2013/11/27
 10 11  0  0  0  0  0  0  0  0999 V2000
   12.4803   -4.4107    7.7365 C   0  0  1  0  0  0  0  0  0  0  0  0
   10.9827   -1.4549    6.9149 C   0  0  2  0  0  0  0  0  0  0  0  0
   11.8394   -2.5576    8.4951 C   0  0  2  0  0  0  0  0  0  0  0  0
   13.0084   -5.6357    7.6348 N   0  0  0  0  0  0  0  0  0  0  0  0
   10.5508   -1.0619    5.7206 N   0  0  0  0  0  0  0  0  0  0  0  0
   10.9009   -0.7253    8.0211 N   0  0  0  0  0  0  0  0  0  0  0  0
   12.4241   -3.7012    8.8581 N   0  0  0  0  0  0  0  0  0  0  0  0
   11.9456   -3.7041    6.7236 N   0  0  0  0  0  0  0  0  0  0  0  0
   11.3988   -1.3751    8.9515 N   0  0  0  0  0  0  0  0  0  0  0  0
   11.5738   -2.6131    7.1845 N   0  0  1  0  0  0  0  0  0  0  0  0
  1  4  1  6  0  0  0
  1  8  1  0  0  0  0
  1  7  1  0  0  0  0
  2  5  1  6  0  0  0
  2  6  1  0  0  0  0
  2 10  1  0  0  0  0
  3  7  1  1  0  0  0
  3 10  1  0  0  0  0
  3  9  1  0  0  0  0
  6  9  1  0  0  0  0
 10  8  1  1  0  0  0
M  END
>  <CHROM.1>
11.70793052,-2.72022487,7.61998627,0.26719684,1.10887945,-2.03169562

>  <Name>
ligand

>  <RI>
0

>  <Rbt.Current_Directory>
/home/itssahil/PROJECTS/Mol_Feturizer/Test_systems_manuscript/rnas/2xnw

>  <Rbt.Executable>
rbdock ($Id: //depot/dev/client3/rdock/2013.1/src/exe/rbdock.cxx#4 $)

>  <Rbt.Library>
libRbt.so (2013.1, Build901 2013/11/27)

>  <Rbt.Parameter_File>
/export/apps/rDock/src/rDock_2013.1_src/data/scripts/dock_solv.prm

>  <Rbt.Receptor>
prm/pocket_docking_6.prm

>  <SCORE>
-6.70824

>  <SCORE.INTER>
-6.70824

>  <SCORE.INTER.CONST>
1

>  <SCORE.INTER.POLAR>
0

>  <SCORE.INTER.ROT>
0

>  <SCORE.INTER.SOLV>
15.6468

>  <SCORE.INTER.VDW>
-13.2878

>  <SCORE.INTER.norm>
-0.670824

>  <SCORE.INTRA>
0

>  <SCORE.INTRA.DIHEDRAL>
0

>  <SCORE.INTRA.DIHEDRAL.0>
0

>  <SCORE.INTRA.POLAR>
0

>  <SCORE.INTRA.POLAR.0>
0

>  <SCORE.INTRA.REPUL>
0

>  <SCORE.INTRA.REPUL.0>
0

>  <SCORE.INTRA.SOLV>
0

>  <SCORE.INTRA.SOLV.lig_0>
-47.9788

>  <SCORE.INTRA.VDW>
0

>  <SCORE.INTRA.VDW.0>
0

>  <SCORE.INTRA.norm>
0

>  <SCORE.RESTR>
0

>  <SCORE.RESTR.CAVITY>
0

>  <SCORE.RESTR.norm>
0

>  <SCORE.SYSTEM>
0

>  <SCORE.SYSTEM.CONST>
0

>  <SCORE.SYSTEM.DIHEDRAL>
0

>  <SCORE.SYSTEM.SOLV>
0

>  <SCORE.SYSTEM.norm>
0

>  <SCORE.heavy>
10

>  <SCORE.norm>
-0.670824

>  <RMSD>
2.971

$$$$
ligand
 OpenBabel02271912133D
libRbt.so/2013.1/901 2013/11/27
 10 11  0  0  0  0  0  0  0  0999 V2000
   12.5308   -4.3961    7.7076 C   0  0  1  0  0  0  0  0  0  0  0  0
   11.0286   -1.4379    6.9033 C   0  0  2  0  0  0  0  0  0  0  0  0
   11.9804   -2.5081    8.4512 C   0  0  2  0  0  0  0  0  0  0  0  0
   13.0285   -5.6339    7.6070 N   0  0  0  0  0  0  0  0  0  0  0  0
   10.5167   -1.0733    5.7319 N   0  0  0  0  0  0  0  0  0  0  0  0
   11.0416   -0.6731    7.9884 N   0  0  0  0  0  0  0  0  0  0  0  0
   12.5701   -3.6514    8.8069 N   0  0  0  0  0  0  0  0  0  0  0  0
   11.9352   -3.7105    6.7145 N   0  0  0  0  0  0  0  0  0  0  0  0
   11.5955   -1.3036    8.9003 N   0  0  0  0  0  0  0  0  0  0  0  0
   11.6177   -2.5987    7.1660 N   0  0  1  0  0  0  0  0  0  0  0  0
  1  4  1  6  0  0  0
  1  8  1  0  0  0  0
  1  7  1  0  0  0  0
  2  5  1  6  0  0  0
  2  6  1  0  0  0  0
  2 10  1  0  0  0  0
  3  7  1  1  0  0  0
  3 10  1  0  0  0  0
  3  9  1  0  0  0  0
  6  9  1  0  0  0  0
 10  8  1  1  0  0  0
M  END
>  <CHROM.1>
11.78174521,-2.69499887,7.59369864,0.42673007,1.08642090,-2.20532600

>  <Name>
ligand

>  <RI>
0

>  <Rbt.Current_Directory>
/home/itssahil/PROJECTS/Mol_Feturizer/Test_systems_manuscript/rnas/2xnw

>  <Rbt.Executable>
rbdock ($Id: //depot/dev/client3/rdock/2013.1/src/exe/rbdock.cxx#4 $)

>  <Rbt.Library>
libRbt.so (2013.1, Build901 2013/11/27)

>  <Rbt.Parameter_File>
/export/apps/rDock/src/rDock_2013.1_src/data/scripts/dock_solv.prm

>  <Rbt.Receptor>
prm/pocket_docking_6.prm

>  <SCORE>
-6.64544

>  <SCORE.INTER>
-6.64544

>  <SCORE.INTER.CONST>
1

>  <SCORE.INTER.POLAR>
0

>  <SCORE.INTER.ROT>
0

>  <SCORE.INTER.SOLV>
15.4041

>  <SCORE.INTER.VDW>
-13.165

>  <SCORE.INTER.norm>
-0.664544

>  <SCORE.INTRA>
0

>  <SCORE.INTRA.DIHEDRAL>
0

>  <SCORE.INTRA.DIHEDRAL.0>
0

>  <SCORE.INTRA.POLAR>
0

>  <SCORE.INTRA.POLAR.0>
0

>  <SCORE.INTRA.REPUL>
0

>  <SCORE.INTRA.REPUL.0>
0

>  <SCORE.INTRA.SOLV>
0

>  <SCORE.INTRA.SOLV.lig_0>
-47.9788

>  <SCORE.INTRA.VDW>
0

>  <SCORE.INTRA.VDW.0>
0

>  <SCORE.INTRA.norm>
0

>  <SCORE.RESTR>
0

>  <SCORE.RESTR.CAVITY>
0

>  <SCORE.RESTR.norm>
0

>  <SCORE.SYSTEM>
0

>  <SCORE.SYSTEM.CONST>
0

>  <SCORE.SYSTEM.DIHEDRAL>
0

>  <SCORE.SYSTEM.SOLV>
0

>  <SCORE.SYSTEM.norm>
0

>  <SCORE.heavy>
10

>  <SCORE.norm>
-0.664544

>  <RMSD>
2.971

$$$$
ligand
 OpenBabel02271912133D
libRbt.so/2013.1/901 2013/11/27
 10 11  0  0  0  0  0  0  0  0999 V2000
   12.4784   -4.4070    7.7326 C   0  0  1  0  0  0  0  0  0  0  0  0
   10.9609   -1.4623    6.9076 C   0  0  2  0  0  0  0  0  0  0  0  0
   11.8361   -2.5525    8.4865 C   0  0  2  0  0  0  0  0  0  0  0  0
   13.0109   -5.6304    7.6331 N   0  0  0  0  0  0  0  0  0  0  0  0
   10.5170   -1.0778    5.7151 N   0  0  0  0  0  0  0  0  0  0  0  0
   10.8856   -0.7269    8.0105 N   0  0  0  0  0  0  0  0  0  0  0  0
   12.4289   -3.6915    8.8507 N   0  0  0  0  0  0  0  0  0  0  0  0
   11.9318   -3.7084    6.7205 N   0  0  0  0  0  0  0  0  0  0  0  0
   11.3944   -1.3693    8.9401 N   0  0  0  0  0  0  0  0  0  0  0  0
   11.5594   -2.6165    7.1786 N   0  0  1  0  0  0  0  0  0  0  0  0
  1  4  1  6  0  0  0
  1  8  1  0  0  0  0
  1  7  1  0  0  0  0
  2  5  1  6  0  0  0
  2  6  1  0  0  0  0
  2 10  1  0  0  0  0
  3  7  1  1  0  0  0
  3 10  1  0  0  0  0
  3  9  1  0  0  0  0
  6  9  1  0  0  0  0
 10  8  1  1  0  0  0
M  END
>  <CHROM.1>
11.69775289,-2.72054661,7.61345671,0.28018820,1.10112198,-2.04888569

>  <Name>
ligand

>  <RI>
0

>  <Rbt.Current_Directory>
/home/itssahil/PROJECTS/Mol_Feturizer/Test_systems_manuscript/rnas/2xnw

>  <Rbt.Executable>
rbdock ($Id: //depot/dev/client3/rdock/2013.1/src/exe/rbdock.cxx#4 $)

>  <Rbt.Library>
libRbt.so (2013.1, Build901 2013/11/27)

>  <Rbt.Parameter_File>
/export/apps/rDock/src/rDock_2013.1_src/data/scripts/dock_solv.prm

>  <Rbt.Receptor>
prm/pocket_docking_7.prm

>  <SCORE>
-6.70747

>  <SCORE.INTER>
-6.70747

>  <SCORE.INTER.CONST>
1

>  <SCORE.INTER.POLAR>
0

>  <SCORE.INTER.ROT>
0

>  <SCORE.INTER.SOLV>
15.5563

>  <SCORE.INTER.VDW>
-13.2571

>  <SCORE.INTER.norm>
-0.670747

>  <SCORE.INTRA>
0

>  <SCORE.INTRA.DIHEDRAL>
0

>  <SCORE.INTRA.DIHEDRAL.0>
0

>  <SCORE.INTRA.POLAR>
0

>  <SCORE.INTRA.POLAR.0>
0

>  <SCORE.INTRA.REPUL>
0

>  <SCORE.INTRA.REPUL.0>
0

>  <SCORE.INTRA.SOLV>
0

>  <SCORE.INTRA.SOLV.lig_0>
-47.9788

>  <SCORE.INTRA.VDW>
0

>  <SCORE.INTRA.VDW.0>
0

>  <SCORE.INTRA.norm>
0

>  <SCORE.RESTR>
0

>  <SCORE.RESTR.CAVITY>
0

>  <SCORE.RESTR.norm>
0

>  <SCORE.SYSTEM>
0

>  <SCORE.SYSTEM.CONST>
0

>  <SCORE.SYSTEM.DIHEDRAL>
0

>  <SCORE.SYSTEM.SOLV>
0

>  <SCORE.SYSTEM.norm>
0

>  <SCORE.heavy>
10

>  <SCORE.norm>
-0.670747

>  <RMSD>
2.971

$$$$
ligand
 OpenBabel02271912133D
libRbt.so/2013.1/901 2013/11/27
 10 11  0  0  0  0  0  0  0  0999 V2000
   12.6130   -4.4091    7.7595 C   0  0  1  0  0  0  0  0  0  0  0  0
   11.0229   -1.5041    6.9308 C   0  0  2  0  0  0  0  0  0  0  0  0
   11.9052   -2.5795    8.5158 C   0  0  2  0  0  0  0  0  0  0  0  0
   13.1826   -5.6156    7.6602 N   0  0  0  0  0  0  0  0  0  0  0  0
   10.5864   -1.1241    5.7340 N   0  0  0  0  0  0  0  0  0  0  0  0
   10.9091   -0.7791    8.0372 N   0  0  0  0  0  0  0  0  0  0  0  0
   12.5253   -3.7034    8.8815 N   0  0  0  0  0  0  0  0  0  0  0  0
   12.0620   -3.7194    6.7437 N   0  0  0  0  0  0  0  0  0  0  0  0
   11.4220   -1.4130    8.9703 N   0  0  0  0  0  0  0  0  0  0  0  0
   11.6506   -2.6421    7.2032 N   0  0  1  0  0  0  0  0  0  0  0  0
  1  4  1  6  0  0  0
  1  8  1  0  0  0  0
  1  7  1  0  0  0  0
  2  5  1  6  0  0  0
  2  6  1  0  0  0  0
  2 10  1  0  0  0  0
  3  7  1  1  0  0  0
  3 10  1  0  0  0  0
  3  9  1  0  0  0  0
  6  9  1  0  0  0  0
 10  8  1  1  0  0  0
M  END
>  <CHROM.1>
11.78527144,-2.74528115,7.63952152,0.22226982,1.08151815,-1.99052395

>  <Name>
ligand

>  <RI>
0

>  <Rbt.Current_Directory>
/home/itssahil/PROJECTS/Mol_Feturizer/Test_systems_manuscript/rnas/2xnw

>  <Rbt.Executable>
rbdock ($Id: //depot/dev/client3/rdock/2013.1/src/exe/rbdock.cxx#4 $)

>  <Rbt.Library>
libRbt.so (2013.1, Build901 2013/11/27)

>  <Rbt.Parameter_File>
/export/apps/rDock/src/rDock_2013.1_src/data/scripts/dock_solv.prm

>  <Rbt.Receptor>
prm/pocket_docking_8.prm

>  <SCORE>
-6.68599

>  <SCORE.INTER>
-6.68599

>  <SCORE.INTER.CONST>
1

>  <SCORE.INTER.POLAR>
0

>  <SCORE.INTER.ROT>
0

>  <SCORE.INTER.SOLV>
14.8803

>  <SCORE.INTER.VDW>
-13.0174

>  <SCORE.INTER.norm>
-0.668599

>  <SCORE.INTRA>
0

>  <SCORE.INTRA.DIHEDRAL>
0

>  <SCORE.INTRA.DIHEDRAL.0>
0

>  <SCORE.INTRA.POLAR>
0

>  <SCORE.INTRA.POLAR.0>
0

>  <SCORE.INTRA.REPUL>
0

>  <SCORE.INTRA.REPUL.0>
0

>  <SCORE.INTRA.SOLV>
0

>  <SCORE.INTRA.SOLV.lig_0>
-47.9788

>  <SCORE.INTRA.VDW>
0

>  <SCORE.INTRA.VDW.0>
0

>  <SCORE.INTRA.norm>
0

>  <SCORE.RESTR>
0

>  <SCORE.RESTR.CAVITY>
0

>  <SCORE.RESTR.norm>
0

>  <SCORE.SYSTEM>
0

>  <SCORE.SYSTEM.CONST>
0

>  <SCORE.SYSTEM.DIHEDRAL>
0

>  <SCORE.SYSTEM.SOLV>
0

>  <SCORE.SYSTEM.norm>
0

>  <SCORE.heavy>
10

>  <SCORE.norm>
-0.668599

>  <RMSD>
2.971

$$$$
ligand
 OpenBabel02271912133D
libRbt.so/2013.1/901 2013/11/27
 10 11  0  0  0  0  0  0  0  0999 V2000
   12.4777   -4.4186    7.7377 C   0  0  1  0  0  0  0  0  0  0  0  0
   10.9828   -1.4647    6.9042 C   0  0  2  0  0  0  0  0  0  0  0  0
   11.8368   -2.5626    8.4893 C   0  0  2  0  0  0  0  0  0  0  0  0
   13.0053   -5.6442    7.6408 N   0  0  0  0  0  0  0  0  0  0  0  0
   10.5528   -1.0754    5.7081 N   0  0  0  0  0  0  0  0  0  0  0  0
   10.9000   -0.7314    8.0079 N   0  0  0  0  0  0  0  0  0  0  0  0
   12.4204   -3.7053    8.8569 N   0  0  0  0  0  0  0  0  0  0  0  0
   11.9447   -3.7150    6.7218 N   0  0  0  0  0  0  0  0  0  0  0  0
   11.3963   -1.3783    8.9412 N   0  0  0  0  0  0  0  0  0  0  0  0
   11.5729   -2.6223    7.1785 N   0  0  1  0  0  0  0  0  0  0  0  0
  1  4  1  6  0  0  0
  1  8  1  0  0  0  0
  1  7  1  0  0  0  0
  2  5  1  6  0  0  0
  2  6  1  0  0  0  0
  2 10  1  0  0  0  0
  3  7  1  1  0  0  0
  3 10  1  0  0  0  0
  3  9  1  0  0  0  0
  6  9  1  0  0  0  0
 10  8  1  1  0  0  0
M  END
>  <CHROM.1>
11.70643573,-2.72805175,7.61456060,0.26506588,1.10997779,-2.03312530

>  <Name>
ligand

>  <RI>
0

>  <Rbt.Current_Directory>
/home/itssahil/PROJECTS/Mol_Feturizer/Test_systems_manuscript/rnas/2xnw

>  <Rbt.Executable>
rbdock ($Id: //depot/dev/client3/rdock/2013.1/src/exe/rbdock.cxx#4 $)

>  <Rbt.Library>
libRbt.so (2013.1, Build901 2013/11/27)

>  <Rbt.Parameter_File>
/export/apps/rDock/src/rDock_2013.1_src/data/scripts/dock_solv.prm

>  <Rbt.Receptor>
prm/blind_docking_20.prm

>  <SCORE>
-6.7064

>  <SCORE.INTER>
-6.7064

>  <SCORE.INTER.CONST>
1

>  <SCORE.INTER.POLAR>
0

>  <SCORE.INTER.ROT>
0

>  <SCORE.INTER.SOLV>
15.6466

>  <SCORE.INTER.VDW>
-13.2865

>  <SCORE.INTER.norm>
-0.67064

>  <SCORE.INTRA>
0

>  <SCORE.INTRA.DIHEDRAL>
0

>  <SCORE.INTRA.DIHEDRAL.0>
0

>  <SCORE.INTRA.POLAR>
0

>  <SCORE.INTRA.POLAR.0>
0

>  <SCORE.INTRA.REPUL>
0

>  <SCORE.INTRA.REPUL.0>
0

>  <SCORE.INTRA.SOLV>
0

>  <SCORE.INTRA.SOLV.lig_0>
-47.9788

>  <SCORE.INTRA.VDW>
0

>  <SCORE.INTRA.VDW.0>
0

>  <SCORE.INTRA.norm>
0

>  <SCORE.RESTR>
0

>  <SCORE.RESTR.CAVITY>
0

>  <SCORE.RESTR.norm>
0

>  <SCORE.SYSTEM>
0

>  <SCORE.SYSTEM.CONST>
0

>  <SCORE.SYSTEM.DIHEDRAL>
0

>  <SCORE.SYSTEM.SOLV>
0

>  <SCORE.SYSTEM.norm>
0

>  <SCORE.heavy>
10

>  <SCORE.norm>
-0.67064

>  <RMSD>
2.972

$$$$
ligand
 OpenBabel02271912133D
libRbt.so/2013.1/901 2013/11/27
 10 11  0  0  0  0  0  0  0  0999 V2000
   12.4807   -4.4128    7.7383 C   0  0  1  0  0  0  0  0  0  0  0  0
   10.9752   -1.4594    6.9227 C   0  0  2  0  0  0  0  0  0  0  0  0
   11.8398   -2.5608    8.4996 C   0  0  2  0  0  0  0  0  0  0  0  0
   13.0104   -5.6370    7.6345 N   0  0  0  0  0  0  0  0  0  0  0  0
   10.5382   -1.0669    5.7302 N   0  0  0  0  0  0  0  0  0  0  0  0
   10.8966   -0.7300    8.0293 N   0  0  0  0  0  0  0  0  0  0  0  0
   12.4277   -3.7035    8.8602 N   0  0  0  0  0  0  0  0  0  0  0  0
   11.9410   -3.7070    6.7276 N   0  0  0  0  0  0  0  0  0  0  0  0
   11.3991   -1.3790    8.9577 N   0  0  0  0  0  0  0  0  0  0  0  0
   11.5693   -2.6166    7.1900 N   0  0  1  0  0  0  0  0  0  0  0  0
  1  4  1  6  0  0  0
  1  8  1  0  0  0  0
  1  7  1  0  0  0  0
  2  5  1  6  0  0  0
  2  6  1  0  0  0  0
  2 10  1  0  0  0  0
  3  7  1  1  0  0  0
  3 10  1  0  0  0  0
  3  9  1  0  0  0  0
  6  9  1  0  0  0  0
 10  8  1  1  0  0  0
M  END
>  <CHROM.1>
11.70523121,-2.72357272,7.62492818,0.27332828,1.10573751,-2.03710506

>  <Name>
ligand

>  <RI>
0

>  <Rbt.Current_Directory>
/home/itssahil/PROJECTS/Mol_Feturizer/Test_systems_manuscript/rnas/2xnw

>  <Rbt.Executable>
rbdock ($Id: //depot/dev/client3/rdock/2013.1/src/exe/rbdock.cxx#4 $)

>  <Rbt.Library>
libRbt.so (2013.1, Build901 2013/11/27)

>  <Rbt.Parameter_File>
/export/apps/rDock/src/rDock_2013.1_src/data/scripts/dock_solv.prm

>  <Rbt.Receptor>
prm/blind_docking_60.prm

>  <SCORE>
-6.71107

>  <SCORE.INTER>
-6.71107

>  <SCORE.INTER.CONST>
1

>  <SCORE.INTER.POLAR>
0

>  <SCORE.INTER.ROT>
0

>  <SCORE.INTER.SOLV>
15.5947

>  <SCORE.INTER.VDW>
-13.2723

>  <SCORE.INTER.norm>
-0.671107

>  <SCORE.INTRA>
0

>  <SCORE.INTRA.DIHEDRAL>
0

>  <SCORE.INTRA.DIHEDRAL.0>
0

>  <SCORE.INTRA.POLAR>
0

>  <SCORE.INTRA.POLAR.0>
0

>  <SCORE.INTRA.REPUL>
0

>  <SCORE.INTRA.REPUL.0>
0

>  <SCORE.INTRA.SOLV>
0

>  <SCORE.INTRA.SOLV.lig_0>
-47.9788

>  <SCORE.INTRA.VDW>
0

>  <SCORE.INTRA.VDW.0>
0

>  <SCORE.INTRA.norm>
0

>  <SCORE.RESTR>
0

>  <SCORE.RESTR.CAVITY>
0

>  <SCORE.RESTR.norm>
0

>  <SCORE.SYSTEM>
0

>  <SCORE.SYSTEM.CONST>
0

>  <SCORE.SYSTEM.DIHEDRAL>
0

>  <SCORE.SYSTEM.SOLV>
0

>  <SCORE.SYSTEM.norm>
0

>  <SCORE.heavy>
10

>  <SCORE.norm>
-0.671107

>  <RMSD>
2.972

$$$$
ligand
 OpenBabel02271912133D
libRbt.so/2013.1/901 2013/11/27
 10 11  0  0  0  0  0  0  0  0999 V2000
   12.4761   -4.4304    7.7427 C   0  0  1  0  0  0  0  0  0  0  0  0
   11.0125   -1.4657    6.8925 C   0  0  2  0  0  0  0  0  0  0  0  0
   11.8381   -2.5707    8.4877 C   0  0  2  0  0  0  0  0  0  0  0  0
   12.9966   -5.6595    7.6516 N   0  0  0  0  0  0  0  0  0  0  0  0
   10.6009   -1.0724    5.6912 N   0  0  0  0  0  0  0  0  0  0  0  0
   10.9202   -0.7328    7.9957 N   0  0  0  0  0  0  0  0  0  0  0  0
   12.4090   -3.7177    8.8618 N   0  0  0  0  0  0  0  0  0  0  0  0
   11.9614   -3.7224    6.7206 N   0  0  0  0  0  0  0  0  0  0  0  0
   11.3997   -1.3839    8.9348 N   0  0  0  0  0  0  0  0  0  0  0  0
   11.5911   -2.6275    7.1734 N   0  0  1  0  0  0  0  0  0  0  0  0
  1  4  1  6  0  0  0
  1  8  1  0  0  0  0
  1  7  1  0  0  0  0
  2  5  1  6  0  0  0
  2  6  1  0  0  0  0
  2 10  1  0  0  0  0
  3  7  1  1  0  0  0
  3 10  1  0  0  0  0
  3  9  1  0  0  0  0
  6  9  1  0  0  0  0
 10  8  1  1  0  0  0
M  END
>  <CHROM.1>
11.71811503,-2.73455137,7.61107506,0.24492445,1.12186363,-2.01411961

>  <Name>
ligand

>  <RI>
0

>  <Rbt.Current_Directory>
/home/itssahil/PROJECTS/Mol_Feturizer/Test_systems_manuscript/rnas/2xnw

>  <Rbt.Executable>
rbdock ($Id: //depot/dev/client3/rdock/2013.1/src/exe/rbdock.cxx#4 $)

>  <Rbt.Library>
libRbt.so (2013.1, Build901 2013/11/27)

>  <Rbt.Parameter_File>
/export/apps/rDock/src/rDock_2013.1_src/data/scripts/dock_solv.prm

>  <Rbt.Receptor>
prm/pocket_docking_4.prm

>  <SCORE>
-6.69754

>  <SCORE.INTER>
-6.69754

>  <SCORE.INTER.CONST>
1

>  <SCORE.INTER.POLAR>
0

>  <SCORE.INTER.ROT>
0

>  <SCORE.INTER.SOLV>
15.7856

>  <SCORE.INTER.VDW>
-13.3269

>  <SCORE.INTER.norm>
-0.669754

>  <SCORE.INTRA>
0

>  <SCORE.INTRA.DIHEDRAL>
0

>  <SCORE.INTRA.DIHEDRAL.0>
0

>  <SCORE.INTRA.POLAR>
0

>  <SCORE.INTRA.POLAR.0>
0

>  <SCORE.INTRA.REPUL>
0

>  <SCORE.INTRA.REPUL.0>
0

>  <SCORE.INTRA.SOLV>
0

>  <SCORE.INTRA.SOLV.lig_0>
-47.9788

>  <SCORE.INTRA.VDW>
0

>  <SCORE.INTRA.VDW.0>
0

>  <SCORE.INTRA.norm>
0

>  <SCORE.RESTR>
0

>  <SCORE.RESTR.CAVITY>
0

>  <SCORE.RESTR.norm>
0

>  <SCORE.SYSTEM>
0

>  <SCORE.SYSTEM.CONST>
0

>  <SCORE.SYSTEM.DIHEDRAL>
0

>  <SCORE.SYSTEM.SOLV>
0

>  <SCORE.SYSTEM.norm>
0

>  <SCORE.heavy>
10

>  <SCORE.norm>
-0.669754

>  <RMSD>
2.972

$$$$
ligand
 OpenBabel02271912133D
libRbt.so/2013.1/901 2013/11/27
 10 11  0  0  0  0  0  0  0  0999 V2000
   12.6049   -4.4046    7.7520 C   0  0  1  0  0  0  0  0  0  0  0  0
   11.0128   -1.4967    6.9370 C   0  0  2  0  0  0  0  0  0  0  0  0
   11.9020   -2.5761    8.5155 C   0  0  2  0  0  0  0  0  0  0  0  0
   13.1731   -5.6113    7.6473 N   0  0  0  0  0  0  0  0  0  0  0  0
   10.5708   -1.1139    5.7432 N   0  0  0  0  0  0  0  0  0  0  0  0
   10.9049   -0.7740    8.0455 N   0  0  0  0  0  0  0  0  0  0  0  0
   12.5231   -3.7012    8.8759 N   0  0  0  0  0  0  0  0  0  0  0  0
   12.0494   -3.7124    6.7403 N   0  0  0  0  0  0  0  0  0  0  0  0
   11.4219   -1.4103    8.9748 N   0  0  0  0  0  0  0  0  0  0  0  0
   11.6411   -2.6358    7.2041 N   0  0  1  0  0  0  0  0  0  0  0  0
  1  4  1  6  0  0  0
  1  8  1  0  0  0  0
  1  7  1  0  0  0  0
  2  5  1  6  0  0  0
  2  6  1  0  0  0  0
  2 10  1  0  0  0  0
  3  7  1  1  0  0  0
  3 10  1  0  0  0  0
  3  9  1  0  0  0  0
  6  9  1  0  0  0  0
 10  8  1  1  0  0  0
M  END
>  <CHROM.1>
11.77774534,-2.73998161,7.63948580,0.23231415,1.08016852,-1.99728947

>  <Name>
ligand

>  <RI>
0

>  <Rbt.Current_Directory>
/home/itssahil/PROJECTS/Mol_Feturizer/Test_systems_manuscript/rnas/2xnw

>  <Rbt.Executable>
rbdock ($Id: //depot/dev/client3/rdock/2013.1/src/exe/rbdock.cxx#4 $)

>  <Rbt.Library>
libRbt.so (2013.1, Build901 2013/11/27)

>  <Rbt.Parameter_File>
/export/apps/rDock/src/rDock_2013.1_src/data/scripts/dock_solv.prm

>  <Rbt.Receptor>
prm/pocket_docking_5.prm

>  <SCORE>
-6.68602

>  <SCORE.INTER>
-6.68602

>  <SCORE.INTER.CONST>
1

>  <SCORE.INTER.POLAR>
0

>  <SCORE.INTER.ROT>
0

>  <SCORE.INTER.SOLV>
14.8969

>  <SCORE.INTER.VDW>
-13.023

>  <SCORE.INTER.norm>
-0.668602

>  <SCORE.INTRA>
0

>  <SCORE.INTRA.DIHEDRAL>
0

>  <SCORE.INTRA.DIHEDRAL.0>
0

>  <SCORE.INTRA.POLAR>
0

>  <SCORE.INTRA.POLAR.0>
0

>  <SCORE.INTRA.REPUL>
0

>  <SCORE.INTRA.REPUL.0>
0

>  <SCORE.INTRA.SOLV>
0

>  <SCORE.INTRA.SOLV.lig_0>
-47.9788

>  <SCORE.INTRA.VDW>
0

>  <SCORE.INTRA.VDW.0>
0

>  <SCORE.INTRA.norm>
0

>  <SCORE.RESTR>
0

>  <SCORE.RESTR.CAVITY>
0

>  <SCORE.RESTR.norm>
0

>  <SCORE.SYSTEM>
0

>  <SCORE.SYSTEM.CONST>
0

>  <SCORE.SYSTEM.DIHEDRAL>
0

>  <SCORE.SYSTEM.SOLV>
0

>  <SCORE.SYSTEM.norm>
0

>  <SCORE.heavy>
10

>  <SCORE.norm>
-0.668602

>  <RMSD>
2.972

$$$$
ligand
 OpenBabel02271912133D
libRbt.so/2013.1/901 2013/11/27
 10 11  0  0  0  0  0  0  0  0999 V2000
   12.5766   -4.4059    7.7263 C   0  0  1  0  0  0  0  0  0  0  0  0
   10.9984   -1.4965    6.8903 C   0  0  2  0  0  0  0  0  0  0  0  0
   11.8663   -2.5763    8.4802 C   0  0  2  0  0  0  0  0  0  0  0  0
   13.1447   -5.6133    7.6293 N   0  0  0  0  0  0  0  0  0  0  0  0
   10.5719   -1.1136    5.6908 N   0  0  0  0  0  0  0  0  0  0  0  0
   10.8773   -0.7732    7.9971 N   0  0  0  0  0  0  0  0  0  0  0  0
   12.4815   -3.7020    8.8489 N   0  0  0  0  0  0  0  0  0  0  0  0
   12.0347   -3.7135    6.7075 N   0  0  0  0  0  0  0  0  0  0  0  0
   11.3818   -1.4097    8.9331 N   0  0  0  0  0  0  0  0  0  0  0  0
   11.6219   -2.6362    7.1657 N   0  0  1  0  0  0  0  0  0  0  0  0
  1  4  1  6  0  0  0
  1  8  1  0  0  0  0
  1  7  1  0  0  0  0
  2  5  1  6  0  0  0
  2  6  1  0  0  0  0
  2 10  1  0  0  0  0
  3  7  1  1  0  0  0
  3 10  1  0  0  0  0
  3  9  1  0  0  0  0
  6  9  1  0  0  0  0
 10  8  1  1  0  0  0
M  END
>  <CHROM.1>
11.75289361,-2.74033342,7.60281487,0.20865224,1.08635080,-1.97675685

>  <Name>
ligand

>  <RI>
0

>  <Rbt.Current_Directory>
/home/itssahil/PROJECTS/Mol_Feturizer/Test_systems_manuscript/rnas/2xnw

>  <Rbt.Executable>
rbdock ($Id: //depot/dev/client3/rdock/2013.1/src/exe/rbdock.cxx#4 $)

>  <Rbt.Library>
libRbt.so (2013.1, Build901 2013/11/27)

>  <Rbt.Parameter_File>
/export/apps/rDock/src/rDock_2013.1_src/data/scripts/dock_solv.prm

>  <Rbt.Receptor>
prm/pocket_docking_6.prm

>  <SCORE>
-6.6726

>  <SCORE.INTER>
-6.6726

>  <SCORE.INTER.CONST>
1

>  <SCORE.INTER.POLAR>
0

>  <SCORE.INTER.ROT>
0

>  <SCORE.INTER.SOLV>
15.0815

>  <SCORE.INTER.VDW>
-13.0756

>  <SCORE.INTER.norm>
-0.66726

>  <SCORE.INTRA>
0

>  <SCORE.INTRA.DIHEDRAL>
0

>  <SCORE.INTRA.DIHEDRAL.0>
0

>  <SCORE.INTRA.POLAR>
0

>  <SCORE.INTRA.POLAR.0>
0

>  <SCORE.INTRA.REPUL>
0

>  <SCORE.INTRA.REPUL.0>
0

>  <SCORE.INTRA.SOLV>
0

>  <SCORE.INTRA.SOLV.lig_0>
-47.9788

>  <SCORE.INTRA.VDW>
0

>  <SCORE.INTRA.VDW.0>
0

>  <SCORE.INTRA.norm>
0

>  <SCORE.RESTR>
0

>  <SCORE.RESTR.CAVITY>
0

>  <SCORE.RESTR.norm>
0

>  <SCORE.SYSTEM>
0

>  <SCORE.SYSTEM.CONST>
0

>  <SCORE.SYSTEM.DIHEDRAL>
0

>  <SCORE.SYSTEM.SOLV>
0

>  <SCORE.SYSTEM.norm>
0

>  <SCORE.heavy>
10

>  <SCORE.norm>
-0.66726

>  <RMSD>
2.972

$$$$
ligand
 OpenBabel02271912133D
libRbt.so/2013.1/901 2013/11/27
 10 11  0  0  0  0  0  0  0  0999 V2000
   12.4659   -4.4280    7.7296 C   0  0  1  0  0  0  0  0  0  0  0  0
   11.0051   -1.4625    6.8774 C   0  0  2  0  0  0  0  0  0  0  0  0
   11.8578   -2.5553    8.4667 C   0  0  2  0  0  0  0  0  0  0  0  0
   12.9753   -5.6620    7.6413 N   0  0  0  0  0  0  0  0  0  0  0  0
   10.5699   -1.0799    5.6810 N   0  0  0  0  0  0  0  0  0  0  0  0
   10.9424   -0.7163    7.9738 N   0  0  0  0  0  0  0  0  0  0  0  0
   12.4286   -3.7021    8.8415 N   0  0  0  0  0  0  0  0  0  0  0  0
   11.9337   -3.7279    6.7109 N   0  0  0  0  0  0  0  0  0  0  0  0
   11.4379   -1.3601    8.9096 N   0  0  0  0  0  0  0  0  0  0  0  0
   11.5814   -2.6253    7.1590 N   0  0  1  0  0  0  0  0  0  0  0  0
  1  4  1  6  0  0  0
  1  8  1  0  0  0  0
  1  7  1  0  0  0  0
  2  5  1  6  0  0  0
  2  6  1  0  0  0  0
  2 10  1  0  0  0  0
  3  7  1  1  0  0  0
  3 10  1  0  0  0  0
  3  9  1  0  0  0  0
  6  9  1  0  0  0  0
 10  8  1  1  0  0  0
M  END
>  <CHROM.1>
11.71728380,-2.72822334,7.59495869,0.29768574,1.11830899,-2.07314809

>  <Name>
ligand

>  <RI>
0

>  <Rbt.Current_Directory>
/home/itssahil/PROJECTS/Mol_Feturizer/Test_systems_manuscript/rnas/2xnw

>  <Rbt.Executable>
rbdock ($Id: //depot/dev/client3/rdock/2013.1/src/exe/rbdock.cxx#4 $)

>  <Rbt.Library>
libRbt.so (2013.1, Build901 2013/11/27)

>  <Rbt.Parameter_File>
/export/apps/rDock/src/rDock_2013.1_src/data/scripts/dock_solv.prm

>  <Rbt.Receptor>
prm/pocket_docking_7.prm

>  <SCORE>
-6.71868

>  <SCORE.INTER>
-6.71868

>  <SCORE.INTER.CONST>
1

>  <SCORE.INTER.POLAR>
0

>  <SCORE.INTER.ROT>
0

>  <SCORE.INTER.SOLV>
15.7935

>  <SCORE.INTER.VDW>
-13.3436

>  <SCORE.INTER.norm>
-0.671868

>  <SCORE.INTRA>
0

>  <SCORE.INTRA.DIHEDRAL>
0

>  <SCORE.INTRA.DIHEDRAL.0>
0

>  <SCORE.INTRA.POLAR>
0

>  <SCORE.INTRA.POLAR.0>
0

>  <SCORE.INTRA.REPUL>
0

>  <SCORE.INTRA.REPUL.0>
0

>  <SCORE.INTRA.SOLV>
0

>  <SCORE.INTRA.SOLV.lig_0>
-47.9788

>  <SCORE.INTRA.VDW>
0

>  <SCORE.INTRA.VDW.0>
0

>  <SCORE.INTRA.norm>
0

>  <SCORE.RESTR>
0

>  <SCORE.RESTR.CAVITY>
0

>  <SCORE.RESTR.norm>
0

>  <SCORE.SYSTEM>
0

>  <SCORE.SYSTEM.CONST>
0

>  <SCORE.SYSTEM.DIHEDRAL>
0

>  <SCORE.SYSTEM.SOLV>
0

>  <SCORE.SYSTEM.norm>
0

>  <SCORE.heavy>
10

>  <SCORE.norm>
-0.671868

>  <RMSD>
2.972

$$$$
ligand
 OpenBabel02271912133D
libRbt.so/2013.1/901 2013/11/27
 10 11  0  0  0  0  0  0  0  0999 V2000
   12.6160   -4.4086    7.7634 C   0  0  1  0  0  0  0  0  0  0  0  0
   11.0157   -1.5050    6.9495 C   0  0  2  0  0  0  0  0  0  0  0  0
   11.8961   -2.5882    8.5303 C   0  0  2  0  0  0  0  0  0  0  0  0
   13.1919   -5.6116    7.6575 N   0  0  0  0  0  0  0  0  0  0  0  0
   10.5827   -1.1180    5.7537 N   0  0  0  0  0  0  0  0  0  0  0  0
   10.8935   -0.7890    8.0609 N   0  0  0  0  0  0  0  0  0  0  0  0
   12.5200   -3.7119    8.8903 N   0  0  0  0  0  0  0  0  0  0  0  0
   12.0662   -3.7139    6.7504 N   0  0  0  0  0  0  0  0  0  0  0  0
   11.4053   -1.4275    8.9915 N   0  0  0  0  0  0  0  0  0  0  0  0
   11.6477   -2.6421    7.2162 N   0  0  1  0  0  0  0  0  0  0  0  0
  1  4  1  6  0  0  0
  1  8  1  0  0  0  0
  1  7  1  0  0  0  0
  2  5  1  6  0  0  0
  2  6  1  0  0  0  0
  2 10  1  0  0  0  0
  3  7  1  1  0  0  0
  3 10  1  0  0  0  0
  3  9  1  0  0  0  0
  6  9  1  0  0  0  0
 10  8  1  1  0  0  0
M  END
>  <CHROM.1>
11.78085510,-2.74790791,7.65229478,0.20955856,1.07890399,-1.97174256

>  <Name>
ligand

>  <RI>
0

>  <Rbt.Current_Directory>
/home/itssahil/PROJECTS/Mol_Feturizer/Test_systems_manuscript/rnas/2xnw

>  <Rbt.Executable>
rbdock ($Id: //depot/dev/client3/rdock/2013.1/src/exe/rbdock.cxx#4 $)

>  <Rbt.Library>
libRbt.so (2013.1, Build901 2013/11/27)

>  <Rbt.Parameter_File>
/export/apps/rDock/src/rDock_2013.1_src/data/scripts/dock_solv.prm

>  <Rbt.Receptor>
prm/pocket_docking_8.prm

>  <SCORE>
-6.68255

>  <SCORE.INTER>
-6.68255

>  <SCORE.INTER.CONST>
1

>  <SCORE.INTER.POLAR>
0

>  <SCORE.INTER.ROT>
0

>  <SCORE.INTER.SOLV>
14.8382

>  <SCORE.INTER.VDW>
-13.0011

>  <SCORE.INTER.norm>
-0.668255

>  <SCORE.INTRA>
0

>  <SCORE.INTRA.DIHEDRAL>
0

>  <SCORE.INTRA.DIHEDRAL.0>
0

>  <SCORE.INTRA.POLAR>
0

>  <SCORE.INTRA.POLAR.0>
0

>  <SCORE.INTRA.REPUL>
0

>  <SCORE.INTRA.REPUL.0>
0

>  <SCORE.INTRA.SOLV>
0

>  <SCORE.INTRA.SOLV.lig_0>
-47.9788

>  <SCORE.INTRA.VDW>
0

>  <SCORE.INTRA.VDW.0>
0

>  <SCORE.INTRA.norm>
0

>  <SCORE.RESTR>
0

>  <SCORE.RESTR.CAVITY>
0

>  <SCORE.RESTR.norm>
0

>  <SCORE.SYSTEM>
0

>  <SCORE.SYSTEM.CONST>
0

>  <SCORE.SYSTEM.DIHEDRAL>
0

>  <SCORE.SYSTEM.SOLV>
0

>  <SCORE.SYSTEM.norm>
0

>  <SCORE.heavy>
10

>  <SCORE.norm>
-0.668255

>  <RMSD>
2.972

$$$$
ligand
 OpenBabel02271912133D
libRbt.so/2013.1/901 2013/11/27
 10 11  0  0  0  0  0  0  0  0999 V2000
   12.4671   -4.4244    7.7282 C   0  0  1  0  0  0  0  0  0  0  0  0
   10.9870   -1.4693    6.8731 C   0  0  2  0  0  0  0  0  0  0  0  0
   11.8381   -2.5587    8.4656 C   0  0  2  0  0  0  0  0  0  0  0  0
   12.9876   -5.6538    7.6405 N   0  0  0  0  0  0  0  0  0  0  0  0
   10.5566   -1.0876    5.6746 N   0  0  0  0  0  0  0  0  0  0  0  0
   10.9105   -0.7263    7.9708 N   0  0  0  0  0  0  0  0  0  0  0  0
   12.4161   -3.7015    8.8415 N   0  0  0  0  0  0  0  0  0  0  0  0
   11.9359   -3.7264    6.7075 N   0  0  0  0  0  0  0  0  0  0  0  0
   11.4051   -1.3682    8.9084 N   0  0  0  0  0  0  0  0  0  0  0  0
   11.5712   -2.6279    7.1559 N   0  0  1  0  0  0  0  0  0  0  0  0
  1  4  1  6  0  0  0
  1  8  1  0  0  0  0
  1  7  1  0  0  0  0
  2  5  1  6  0  0  0
  2  6  1  0  0  0  0
  2 10  1  0  0  0  0
  3  7  1  1  0  0  0
  3 10  1  0  0  0  0
  3  9  1  0  0  0  0
  6  9  1  0  0  0  0
 10  8  1  1  0  0  0
M  END
>  <CHROM.1>
11.70499572,-2.73070582,7.59248907,0.27493515,1.11401957,-2.05033608

>  <Name>
ligand

>  <RI>
0

>  <Rbt.Current_Directory>
/home/itssahil/PROJECTS/Mol_Feturizer/Test_systems_manuscript/rnas/2xnw

>  <Rbt.Executable>
rbdock ($Id: //depot/dev/client3/rdock/2013.1/src/exe/rbdock.cxx#4 $)

>  <Rbt.Library>
libRbt.so (2013.1, Build901 2013/11/27)

>  <Rbt.Parameter_File>
/export/apps/rDock/src/rDock_2013.1_src/data/scripts/dock_solv.prm

>  <Rbt.Receptor>
prm/pocket_docking_8.prm

>  <SCORE>
-6.71532

>  <SCORE.INTER>
-6.71532

>  <SCORE.INTER.CONST>
1

>  <SCORE.INTER.POLAR>
0

>  <SCORE.INTER.ROT>
0

>  <SCORE.INTER.SOLV>
15.7361

>  <SCORE.INTER.VDW>
-13.3222

>  <SCORE.INTER.norm>
-0.671532

>  <SCORE.INTRA>
0

>  <SCORE.INTRA.DIHEDRAL>
0

>  <SCORE.INTRA.DIHEDRAL.0>
0

>  <SCORE.INTRA.POLAR>
0

>  <SCORE.INTRA.POLAR.0>
0

>  <SCORE.INTRA.REPUL>
0

>  <SCORE.INTRA.REPUL.0>
0

>  <SCORE.INTRA.SOLV>
0

>  <SCORE.INTRA.SOLV.lig_0>
-47.9788

>  <SCORE.INTRA.VDW>
0

>  <SCORE.INTRA.VDW.0>
0

>  <SCORE.INTRA.norm>
0

>  <SCORE.RESTR>
0

>  <SCORE.RESTR.CAVITY>
0

>  <SCORE.RESTR.norm>
0

>  <SCORE.SYSTEM>
0

>  <SCORE.SYSTEM.CONST>
0

>  <SCORE.SYSTEM.DIHEDRAL>
0

>  <SCORE.SYSTEM.SOLV>
0

>  <SCORE.SYSTEM.norm>
0

>  <SCORE.heavy>
10

>  <SCORE.norm>
-0.671532

>  <RMSD>
2.972

$$$$
ligand
 OpenBabel02271912133D
libRbt.so/2013.1/901 2013/11/27
 10 11  0  0  0  0  0  0  0  0999 V2000
   12.4734   -4.4218    7.7342 C   0  0  1  0  0  0  0  0  0  0  0  0
   10.9921   -1.4634    6.8929 C   0  0  2  0  0  0  0  0  0  0  0  0
   11.8116   -2.5738    8.4874 C   0  0  2  0  0  0  0  0  0  0  0  0
   13.0056   -5.6455    7.6386 N   0  0  0  0  0  0  0  0  0  0  0  0
   10.5889   -1.0641    5.6907 N   0  0  0  0  0  0  0  0  0  0  0  0
   10.8823   -0.7401    8.0009 N   0  0  0  0  0  0  0  0  0  0  0  0
   12.3888   -3.7187    8.8582 N   0  0  0  0  0  0  0  0  0  0  0  0
   11.9626   -3.7102    6.7126 N   0  0  0  0  0  0  0  0  0  0  0  0
   11.3583   -1.3944    8.9395 N   0  0  0  0  0  0  0  0  0  0  0  0
   11.5781   -2.6223    7.1704 N   0  0  1  0  0  0  0  0  0  0  0  0
  1  4  1  6  0  0  0
  1  8  1  0  0  0  0
  1  7  1  0  0  0  0
  2  5  1  6  0  0  0
  2  6  1  0  0  0  0
  2 10  1  0  0  0  0
  3  7  1  1  0  0  0
  3 10  1  0  0  0  0
  3  9  1  0  0  0  0
  6  9  1  0  0  0  0
 10  8  1  1  0  0  0
M  END
>  <CHROM.1>
11.70171507,-2.73165957,7.60841955,0.21578489,1.11793672,-1.97995215

>  <Name>
ligand

>  <RI>
0

>  <Rbt.Current_Directory>
/home/itssahil/PROJECTS/Mol_Feturizer/Test_systems_manuscript/rnas/2xnw

>  <Rbt.Executable>
rbdock ($Id: //depot/dev/client3/rdock/2013.1/src/exe/rbdock.cxx#4 $)

>  <Rbt.Library>
libRbt.so (2013.1, Build901 2013/11/27)

>  <Rbt.Parameter_File>
/export/apps/rDock/src/rDock_2013.1_src/data/scripts/dock_solv.prm

>  <Rbt.Receptor>
prm/pocket_docking_8.prm

>  <SCORE>
-6.68996

>  <SCORE.INTER>
-6.68996

>  <SCORE.INTER.CONST>
1

>  <SCORE.INTER.POLAR>
0

>  <SCORE.INTER.ROT>
0

>  <SCORE.INTER.SOLV>
15.7579

>  <SCORE.INTER.VDW>
-13.3126

>  <SCORE.INTER.norm>
-0.668996

>  <SCORE.INTRA>
0

>  <SCORE.INTRA.DIHEDRAL>
0

>  <SCORE.INTRA.DIHEDRAL.0>
0

>  <SCORE.INTRA.POLAR>
0

>  <SCORE.INTRA.POLAR.0>
0

>  <SCORE.INTRA.REPUL>
0

>  <SCORE.INTRA.REPUL.0>
0

>  <SCORE.INTRA.SOLV>
0

>  <SCORE.INTRA.SOLV.lig_0>
-47.9788

>  <SCORE.INTRA.VDW>
0

>  <SCORE.INTRA.VDW.0>
0

>  <SCORE.INTRA.norm>
0

>  <SCORE.RESTR>
0

>  <SCORE.RESTR.CAVITY>
0

>  <SCORE.RESTR.norm>
0

>  <SCORE.SYSTEM>
0

>  <SCORE.SYSTEM.CONST>
0

>  <SCORE.SYSTEM.DIHEDRAL>
0

>  <SCORE.SYSTEM.SOLV>
0

>  <SCORE.SYSTEM.norm>
0

>  <SCORE.heavy>
10

>  <SCORE.norm>
-0.668996

>  <RMSD>
2.972

$$$$
ligand
 OpenBabel02271912133D
libRbt.so/2013.1/901 2013/11/27
 10 11  0  0  0  0  0  0  0  0999 V2000
   12.6157   -4.4121    7.7623 C   0  0  1  0  0  0  0  0  0  0  0  0
   11.0174   -1.5084    6.9447 C   0  0  2  0  0  0  0  0  0  0  0  0
   11.8989   -2.5893    8.5264 C   0  0  2  0  0  0  0  0  0  0  0  0
   13.1900   -5.6160    7.6580 N   0  0  0  0  0  0  0  0  0  0  0  0
   10.5831   -1.1234    5.7488 N   0  0  0  0  0  0  0  0  0  0  0  0
   10.8976   -0.7899    8.0548 N   0  0  0  0  0  0  0  0  0  0  0  0
   12.5221   -3.7129    8.8879 N   0  0  0  0  0  0  0  0  0  0  0  0
   12.0651   -3.7189    6.7487 N   0  0  0  0  0  0  0  0  0  0  0  0
   11.4101   -1.4271    8.9860 N   0  0  0  0  0  0  0  0  0  0  0  0
   11.6485   -2.6457    7.2128 N   0  0  1  0  0  0  0  0  0  0  0  0
  1  4  1  6  0  0  0
  1  8  1  0  0  0  0
  1  7  1  0  0  0  0
  2  5  1  6  0  0  0
  2  6  1  0  0  0  0
  2 10  1  0  0  0  0
  3  7  1  1  0  0  0
  3 10  1  0  0  0  0
  3  9  1  0  0  0  0
  6  9  1  0  0  0  0
 10  8  1  1  0  0  0
M  END
>  <CHROM.1>
11.78221030,-2.75069385,7.64894606,0.21335948,1.07936516,-1.97716948

>  <Name>
ligand

>  <RI>
0

>  <Rbt.Current_Directory>
/home/itssahil/PROJECTS/Mol_Feturizer/Test_systems_manuscript/rnas/2xnw

>  <Rbt.Executable>
rbdock ($Id: //depot/dev/client3/rdock/2013.1/src/exe/rbdock.cxx#4 $)

>  <Rbt.Library>
libRbt.so (2013.1, Build901 2013/11/27)

>  <Rbt.Parameter_File>
/export/apps/rDock/src/rDock_2013.1_src/data/scripts/dock_solv.prm

>  <Rbt.Receptor>
prm/blind_docking_100.prm

>  <SCORE>
-6.68327

>  <SCORE.INTER>
-6.68327

>  <SCORE.INTER.CONST>
1

>  <SCORE.INTER.POLAR>
0

>  <SCORE.INTER.ROT>
0

>  <SCORE.INTER.SOLV>
14.8367

>  <SCORE.INTER.VDW>
-13.0011

>  <SCORE.INTER.norm>
-0.668327

>  <SCORE.INTRA>
0

>  <SCORE.INTRA.DIHEDRAL>
0

>  <SCORE.INTRA.DIHEDRAL.0>
0

>  <SCORE.INTRA.POLAR>
0

>  <SCORE.INTRA.POLAR.0>
0

>  <SCORE.INTRA.REPUL>
0

>  <SCORE.INTRA.REPUL.0>
0

>  <SCORE.INTRA.SOLV>
0

>  <SCORE.INTRA.SOLV.lig_0>
-47.9788

>  <SCORE.INTRA.VDW>
0

>  <SCORE.INTRA.VDW.0>
0

>  <SCORE.INTRA.norm>
0

>  <SCORE.RESTR>
0

>  <SCORE.RESTR.CAVITY>
0

>  <SCORE.RESTR.norm>
0

>  <SCORE.SYSTEM>
0

>  <SCORE.SYSTEM.CONST>
0

>  <SCORE.SYSTEM.DIHEDRAL>
0

>  <SCORE.SYSTEM.SOLV>
0

>  <SCORE.SYSTEM.norm>
0

>  <SCORE.heavy>
10

>  <SCORE.norm>
-0.668327

>  <RMSD>
2.973

$$$$
ligand
 OpenBabel02271912133D
libRbt.so/2013.1/901 2013/11/27
 10 11  0  0  0  0  0  0  0  0999 V2000
   12.4643   -4.4222    7.7241 C   0  0  1  0  0  0  0  0  0  0  0  0
   10.9675   -1.4707    6.8859 C   0  0  2  0  0  0  0  0  0  0  0  0
   11.8600   -2.5490    8.4631 C   0  0  2  0  0  0  0  0  0  0  0  0
   12.9796   -5.6535    7.6321 N   0  0  0  0  0  0  0  0  0  0  0  0
   10.5051   -1.0977    5.6966 N   0  0  0  0  0  0  0  0  0  0  0  0
   10.9230   -0.7186    7.9791 N   0  0  0  0  0  0  0  0  0  0  0  0
   12.4457   -3.6902    8.8324 N   0  0  0  0  0  0  0  0  0  0  0  0
   11.9067   -3.7313    6.7127 N   0  0  0  0  0  0  0  0  0  0  0  0
   11.4420   -1.3539    8.9079 N   0  0  0  0  0  0  0  0  0  0  0  0
   11.5568   -2.6283    7.1619 N   0  0  1  0  0  0  0  0  0  0  0  0
  1  4  1  6  0  0  0
  1  8  1  0  0  0  0
  1  7  1  0  0  0  0
  2  5  1  6  0  0  0
  2  6  1  0  0  0  0
  2 10  1  0  0  0  0
  3  7  1  1  0  0  0
  3 10  1  0  0  0  0
  3  9  1  0  0  0  0
  6  9  1  0  0  0  0
 10  8  1  1  0  0  0
M  END
>  <CHROM.1>
11.70243439,-2.72787127,7.59549981,0.33148519,1.10253842,-2.10914520

>  <Name>
ligand

>  <RI>
0

>  <Rbt.Current_Directory>
/home/itssahil/PROJECTS/Mol_Feturizer/Test_systems_manuscript/rnas/2xnw

>  <Rbt.Executable>
rbdock ($Id: //depot/dev/client3/rdock/2013.1/src/exe/rbdock.cxx#4 $)

>  <Rbt.Library>
libRbt.so (2013.1, Build901 2013/11/27)

>  <Rbt.Parameter_File>
/export/apps/rDock/src/rDock_2013.1_src/data/scripts/dock_solv.prm

>  <Rbt.Receptor>
prm/blind_docking_20.prm

>  <SCORE>
-6.68176

>  <SCORE.INTER>
-6.68176

>  <SCORE.INTER.CONST>
1

>  <SCORE.INTER.POLAR>
0

>  <SCORE.INTER.ROT>
0

>  <SCORE.INTER.SOLV>
15.6219

>  <SCORE.INTER.VDW>
-13.2618

>  <SCORE.INTER.norm>
-0.668176

>  <SCORE.INTRA>
0

>  <SCORE.INTRA.DIHEDRAL>
0

>  <SCORE.INTRA.DIHEDRAL.0>
0

>  <SCORE.INTRA.POLAR>
0

>  <SCORE.INTRA.POLAR.0>
0

>  <SCORE.INTRA.REPUL>
0

>  <SCORE.INTRA.REPUL.0>
0

>  <SCORE.INTRA.SOLV>
0

>  <SCORE.INTRA.SOLV.lig_0>
-47.9788

>  <SCORE.INTRA.VDW>
0

>  <SCORE.INTRA.VDW.0>
0

>  <SCORE.INTRA.norm>
0

>  <SCORE.RESTR>
0

>  <SCORE.RESTR.CAVITY>
0

>  <SCORE.RESTR.norm>
0

>  <SCORE.SYSTEM>
0

>  <SCORE.SYSTEM.CONST>
0

>  <SCORE.SYSTEM.DIHEDRAL>
0

>  <SCORE.SYSTEM.SOLV>
0

>  <SCORE.SYSTEM.norm>
0

>  <SCORE.heavy>
10

>  <SCORE.norm>
-0.668176

>  <RMSD>
2.973

$$$$
ligand
 OpenBabel02271912133D
libRbt.so/2013.1/901 2013/11/27
 10 11  0  0  0  0  0  0  0  0999 V2000
   12.6095   -4.3977    7.7578 C   0  0  1  0  0  0  0  0  0  0  0  0
   11.0006   -1.4913    6.9711 C   0  0  2  0  0  0  0  0  0  0  0  0
   11.8763   -2.5905    8.5433 C   0  0  2  0  0  0  0  0  0  0  0  0
   13.1916   -5.5966    7.6402 N   0  0  0  0  0  0  0  0  0  0  0  0
   10.5732   -1.0911    5.7776 N   0  0  0  0  0  0  0  0  0  0  0  0
   10.8682   -0.7901    8.0907 N   0  0  0  0  0  0  0  0  0  0  0  0
   12.5032   -3.7158    8.8929 N   0  0  0  0  0  0  0  0  0  0  0  0
   12.0627   -3.6926    6.7504 N   0  0  0  0  0  0  0  0  0  0  0  0
   11.3773   -1.4381    9.0162 N   0  0  0  0  0  0  0  0  0  0  0  0
   11.6363   -2.6288    7.2272 N   0  0  1  0  0  0  0  0  0  0  0  0
  1  4  1  6  0  0  0
  1  8  1  0  0  0  0
  1  7  1  0  0  0  0
  2  5  1  6  0  0  0
  2  6  1  0  0  0  0
  2 10  1  0  0  0  0
  3  7  1  1  0  0  0
  3 10  1  0  0  0  0
  3  9  1  0  0  0  0
  6  9  1  0  0  0  0
 10  8  1  1  0  0  0
M  END
>  <CHROM.1>
11.76725524,-2.73955175,7.66269478,0.19371340,1.07694389,-1.94504054

>  <Name>
ligand

>  <RI>
0

>  <Rbt.Current_Directory>
/home/itssahil/PROJECTS/Mol_Feturizer/Test_systems_manuscript/rnas/2xnw

>  <Rbt.Executable>
rbdock ($Id: //depot/dev/client3/rdock/2013.1/src/exe/rbdock.cxx#4 $)

>  <Rbt.Library>
libRbt.so (2013.1, Build901 2013/11/27)

>  <Rbt.Parameter_File>
/export/apps/rDock/src/rDock_2013.1_src/data/scripts/dock_solv.prm

>  <Rbt.Receptor>
prm/blind_docking_20.prm

>  <SCORE>
-6.63767

>  <SCORE.INTER>
-6.63767

>  <SCORE.INTER.CONST>
1

>  <SCORE.INTER.POLAR>
0

>  <SCORE.INTER.ROT>
0

>  <SCORE.INTER.SOLV>
14.8542

>  <SCORE.INTER.VDW>
-12.9765

>  <SCORE.INTER.norm>
-0.663767

>  <SCORE.INTRA>
0

>  <SCORE.INTRA.DIHEDRAL>
0

>  <SCORE.INTRA.DIHEDRAL.0>
0

>  <SCORE.INTRA.POLAR>
0

>  <SCORE.INTRA.POLAR.0>
0

>  <SCORE.INTRA.REPUL>
0

>  <SCORE.INTRA.REPUL.0>
0

>  <SCORE.INTRA.SOLV>
0

>  <SCORE.INTRA.SOLV.lig_0>
-47.9788

>  <SCORE.INTRA.VDW>
0

>  <SCORE.INTRA.VDW.0>
0

>  <SCORE.INTRA.norm>
0

>  <SCORE.RESTR>
0

>  <SCORE.RESTR.CAVITY>
0

>  <SCORE.RESTR.norm>
0

>  <SCORE.SYSTEM>
0

>  <SCORE.SYSTEM.CONST>
0

>  <SCORE.SYSTEM.DIHEDRAL>
0

>  <SCORE.SYSTEM.SOLV>
0

>  <SCORE.SYSTEM.norm>
0

>  <SCORE.heavy>
10

>  <SCORE.norm>
-0.663767

>  <RMSD>
2.973

$$$$
ligand
 OpenBabel02271912133D
libRbt.so/2013.1/901 2013/11/27
 10 11  0  0  0  0  0  0  0  0999 V2000
   12.4652   -4.4342    7.7317 C   0  0  1  0  0  0  0  0  0  0  0  0
   11.0040   -1.4700    6.8756 C   0  0  2  0  0  0  0  0  0  0  0  0
   11.8357   -2.5695    8.4714 C   0  0  2  0  0  0  0  0  0  0  0  0
   12.9822   -5.6650    7.6436 N   0  0  0  0  0  0  0  0  0  0  0  0
   10.5868   -1.0814    5.6747 N   0  0  0  0  0  0  0  0  0  0  0  0
   10.9194   -0.7317    7.9758 N   0  0  0  0  0  0  0  0  0  0  0  0
   12.4059   -3.7162    8.8478 N   0  0  0  0  0  0  0  0  0  0  0  0
   11.9466   -3.7298    6.7091 N   0  0  0  0  0  0  0  0  0  0  0  0
   11.4026   -1.3795    8.9153 N   0  0  0  0  0  0  0  0  0  0  0  0
   11.5813   -2.6319    7.1588 N   0  0  1  0  0  0  0  0  0  0  0  0
  1  4  1  6  0  0  0
  1  8  1  0  0  0  0
  1  7  1  0  0  0  0
  2  5  1  6  0  0  0
  2  6  1  0  0  0  0
  2 10  1  0  0  0  0
  3  7  1  1  0  0  0
  3 10  1  0  0  0  0
  3  9  1  0  0  0  0
  6  9  1  0  0  0  0
 10  8  1  1  0  0  0
M  END
>  <CHROM.1>
11.71050827,-2.73719397,7.59623521,0.25870302,1.12162253,-2.03123385

>  <Name>
ligand

>  <RI>
0

>  <Rbt.Current_Directory>
/home/itssahil/PROJECTS/Mol_Feturizer/Test_systems_manuscript/rnas/2xnw

>  <Rbt.Executable>
rbdock ($Id: //depot/dev/client3/rdock/2013.1/src/exe/rbdock.cxx#4 $)

>  <Rbt.Library>
libRbt.so (2013.1, Build901 2013/11/27)

>  <Rbt.Parameter_File>
/export/apps/rDock/src/rDock_2013.1_src/data/scripts/dock_solv.prm

>  <Rbt.Receptor>
prm/pocket_docking_4.prm

>  <SCORE>
-6.71327

>  <SCORE.INTER>
-6.71327

>  <SCORE.INTER.CONST>
1

>  <SCORE.INTER.POLAR>
0

>  <SCORE.INTER.ROT>
0

>  <SCORE.INTER.SOLV>
15.8129

>  <SCORE.INTER.VDW>
-13.3465

>  <SCORE.INTER.norm>
-0.671327

>  <SCORE.INTRA>
0

>  <SCORE.INTRA.DIHEDRAL>
0

>  <SCORE.INTRA.DIHEDRAL.0>
0

>  <SCORE.INTRA.POLAR>
0

>  <SCORE.INTRA.POLAR.0>
0

>  <SCORE.INTRA.REPUL>
0

>  <SCORE.INTRA.REPUL.0>
0

>  <SCORE.INTRA.SOLV>
0

>  <SCORE.INTRA.SOLV.lig_0>
-47.9788

>  <SCORE.INTRA.VDW>
0

>  <SCORE.INTRA.VDW.0>
0

>  <SCORE.INTRA.norm>
0

>  <SCORE.RESTR>
0

>  <SCORE.RESTR.CAVITY>
0

>  <SCORE.RESTR.norm>
0

>  <SCORE.SYSTEM>
0

>  <SCORE.SYSTEM.CONST>
0

>  <SCORE.SYSTEM.DIHEDRAL>
0

>  <SCORE.SYSTEM.SOLV>
0

>  <SCORE.SYSTEM.norm>
0

>  <SCORE.heavy>
10

>  <SCORE.norm>
-0.671327

>  <RMSD>
2.973

$$$$
ligand
 OpenBabel02271912133D
libRbt.so/2013.1/901 2013/11/27
 10 11  0  0  0  0  0  0  0  0999 V2000
   12.5991   -4.4035    7.7476 C   0  0  1  0  0  0  0  0  0  0  0  0
   11.0086   -1.4930    6.9391 C   0  0  2  0  0  0  0  0  0  0  0  0
   11.9002   -2.5749    8.5145 C   0  0  2  0  0  0  0  0  0  0  0  0
   13.1656   -5.6108    7.6405 N   0  0  0  0  0  0  0  0  0  0  0  0
   10.5643   -1.1085    5.7467 N   0  0  0  0  0  0  0  0  0  0  0  0
   10.9041   -0.7711    8.0485 N   0  0  0  0  0  0  0  0  0  0  0  0
   12.5208   -3.7011    8.8724 N   0  0  0  0  0  0  0  0  0  0  0  0
   12.0421   -3.7097    6.7379 N   0  0  0  0  0  0  0  0  0  0  0  0
   11.4226   -1.4089    8.9760 N   0  0  0  0  0  0  0  0  0  0  0  0
   11.6361   -2.6331    7.2036 N   0  0  1  0  0  0  0  0  0  0  0  0
  1  4  1  6  0  0  0
  1  8  1  0  0  0  0
  1  7  1  0  0  0  0
  2  5  1  6  0  0  0
  2  6  1  0  0  0  0
  2 10  1  0  0  0  0
  3  7  1  1  0  0  0
  3 10  1  0  0  0  0
  3  9  1  0  0  0  0
  6  9  1  0  0  0  0
 10  8  1  1  0  0  0
M  END
>  <CHROM.1>
11.77367880,-2.73778118,7.63861635,0.23787879,1.08029416,-2.00125941

>  <Name>
ligand

>  <RI>
0

>  <Rbt.Current_Directory>
/home/itssahil/PROJECTS/Mol_Feturizer/Test_systems_manuscript/rnas/2xnw

>  <Rbt.Executable>
rbdock ($Id: //depot/dev/client3/rdock/2013.1/src/exe/rbdock.cxx#4 $)

>  <Rbt.Library>
libRbt.so (2013.1, Build901 2013/11/27)

>  <Rbt.Parameter_File>
/export/apps/rDock/src/rDock_2013.1_src/data/scripts/dock_solv.prm

>  <Rbt.Receptor>
prm/pocket_docking_5.prm

>  <SCORE>
-6.68498

>  <SCORE.INTER>
-6.68498

>  <SCORE.INTER.CONST>
1

>  <SCORE.INTER.POLAR>
0

>  <SCORE.INTER.ROT>
0

>  <SCORE.INTER.SOLV>
14.9177

>  <SCORE.INTER.VDW>
-13.0292

>  <SCORE.INTER.norm>
-0.668498

>  <SCORE.INTRA>
0

>  <SCORE.INTRA.DIHEDRAL>
0

>  <SCORE.INTRA.DIHEDRAL.0>
0

>  <SCORE.INTRA.POLAR>
0

>  <SCORE.INTRA.POLAR.0>
0

>  <SCORE.INTRA.REPUL>
0

>  <SCORE.INTRA.REPUL.0>
0

>  <SCORE.INTRA.SOLV>
0

>  <SCORE.INTRA.SOLV.lig_0>
-47.9788

>  <SCORE.INTRA.VDW>
0

>  <SCORE.INTRA.VDW.0>
0

>  <SCORE.INTRA.norm>
0

>  <SCORE.RESTR>
0

>  <SCORE.RESTR.CAVITY>
0

>  <SCORE.RESTR.norm>
0

>  <SCORE.SYSTEM>
0

>  <SCORE.SYSTEM.CONST>
0

>  <SCORE.SYSTEM.DIHEDRAL>
0

>  <SCORE.SYSTEM.SOLV>
0

>  <SCORE.SYSTEM.norm>
0

>  <SCORE.heavy>
10

>  <SCORE.norm>
-0.668498

>  <RMSD>
2.973

$$$$
ligand
 OpenBabel02271912133D
libRbt.so/2013.1/901 2013/11/27
 10 11  0  0  0  0  0  0  0  0999 V2000
   12.4647   -4.4301    7.7306 C   0  0  1  0  0  0  0  0  0  0  0  0
   10.9809   -1.4784    6.8705 C   0  0  2  0  0  0  0  0  0  0  0  0
   11.8003   -2.5785    8.4723 C   0  0  2  0  0  0  0  0  0  0  0  0
   12.9983   -5.6539    7.6427 N   0  0  0  0  0  0  0  0  0  0  0  0
   10.5783   -1.0867    5.6656 N   0  0  0  0  0  0  0  0  0  0  0  0
   10.8694   -0.7487    7.9741 N   0  0  0  0  0  0  0  0  0  0  0  0
   12.3784   -3.7205    8.8502 N   0  0  0  0  0  0  0  0  0  0  0  0
   11.9540   -3.7251    6.7044 N   0  0  0  0  0  0  0  0  0  0  0  0
   11.3453   -1.3969    8.9170 N   0  0  0  0  0  0  0  0  0  0  0  0
   11.5679   -2.6350    7.1554 N   0  0  1  0  0  0  0  0  0  0  0  0
  1  4  1  6  0  0  0
  1  8  1  0  0  0  0
  1  7  1  0  0  0  0
  2  5  1  6  0  0  0
  2  6  1  0  0  0  0
  2 10  1  0  0  0  0
  3  7  1  1  0  0  0
  3 10  1  0  0  0  0
  3  9  1  0  0  0  0
  6  9  1  0  0  0  0
 10  8  1  1  0  0  0
M  END
>  <CHROM.1>
11.69130028,-2.74164332,7.59412961,0.21307244,1.11728803,-1.98342989

>  <Name>
ligand

>  <RI>
0

>  <Rbt.Current_Directory>
/home/itssahil/PROJECTS/Mol_Feturizer/Test_systems_manuscript/rnas/2xnw

>  <Rbt.Executable>
rbdock ($Id: //depot/dev/client3/rdock/2013.1/src/exe/rbdock.cxx#4 $)

>  <Rbt.Library>
libRbt.so (2013.1, Build901 2013/11/27)

>  <Rbt.Parameter_File>
/export/apps/rDock/src/rDock_2013.1_src/data/scripts/dock_solv.prm

>  <Rbt.Receptor>
prm/pocket_docking_5.prm

>  <SCORE>
-6.69797

>  <SCORE.INTER>
-6.69797

>  <SCORE.INTER.CONST>
1

>  <SCORE.INTER.POLAR>
0

>  <SCORE.INTER.ROT>
0

>  <SCORE.INTER.SOLV>
15.7657

>  <SCORE.INTER.VDW>
-13.3206

>  <SCORE.INTER.norm>
-0.669797

>  <SCORE.INTRA>
0

>  <SCORE.INTRA.DIHEDRAL>
0

>  <SCORE.INTRA.DIHEDRAL.0>
0

>  <SCORE.INTRA.POLAR>
0

>  <SCORE.INTRA.POLAR.0>
0

>  <SCORE.INTRA.REPUL>
0

>  <SCORE.INTRA.REPUL.0>
0

>  <SCORE.INTRA.SOLV>
0

>  <SCORE.INTRA.SOLV.lig_0>
-47.9788

>  <SCORE.INTRA.VDW>
0

>  <SCORE.INTRA.VDW.0>
0

>  <SCORE.INTRA.norm>
0

>  <SCORE.RESTR>
0

>  <SCORE.RESTR.CAVITY>
0

>  <SCORE.RESTR.norm>
0

>  <SCORE.SYSTEM>
0

>  <SCORE.SYSTEM.CONST>
0

>  <SCORE.SYSTEM.DIHEDRAL>
0

>  <SCORE.SYSTEM.SOLV>
0

>  <SCORE.SYSTEM.norm>
0

>  <SCORE.heavy>
10

>  <SCORE.norm>
-0.669797

>  <RMSD>
2.973

$$$$
ligand
 OpenBabel02271912133D
libRbt.so/2013.1/901 2013/11/27
 10 11  0  0  0  0  0  0  0  0999 V2000
   12.4670   -4.4346    7.7353 C   0  0  1  0  0  0  0  0  0  0  0  0
   10.9901   -1.4787    6.8775 C   0  0  2  0  0  0  0  0  0  0  0  0
   11.8374   -2.5687    8.4716 C   0  0  2  0  0  0  0  0  0  0  0  0
   12.9872   -5.6642    7.6485 N   0  0  0  0  0  0  0  0  0  0  0  0
   10.5624   -1.0966    5.6782 N   0  0  0  0  0  0  0  0  0  0  0  0
   10.9117   -0.7359    7.9751 N   0  0  0  0  0  0  0  0  0  0  0  0
   12.4140   -3.7118    8.8486 N   0  0  0  0  0  0  0  0  0  0  0  0
   11.9384   -3.7362    6.7136 N   0  0  0  0  0  0  0  0  0  0  0  0
   11.4040   -1.3781    8.9137 N   0  0  0  0  0  0  0  0  0  0  0  0
   11.5732   -2.6376    7.1613 N   0  0  1  0  0  0  0  0  0  0  0  0
  1  4  1  6  0  0  0
  1  8  1  0  0  0  0
  1  7  1  0  0  0  0
  2  5  1  6  0  0  0
  2  6  1  0  0  0  0
  2 10  1  0  0  0  0
  3  7  1  1  0  0  0
  3 10  1  0  0  0  0
  3  9  1  0  0  0  0
  6  9  1  0  0  0  0
 10  8  1  1  0  0  0
M  END
>  <CHROM.1>
11.70603562,-2.74053069,7.59822304,0.27118799,1.11539165,-2.04683748

>  <Name>
ligand

>  <RI>
0

>  <Rbt.Current_Directory>
/home/itssahil/PROJECTS/Mol_Feturizer/Test_systems_manuscript/rnas/2xnw

>  <Rbt.Executable>
rbdock ($Id: //depot/dev/client3/rdock/2013.1/src/exe/rbdock.cxx#4 $)

>  <Rbt.Library>
libRbt.so (2013.1, Build901 2013/11/27)

>  <Rbt.Parameter_File>
/export/apps/rDock/src/rDock_2013.1_src/data/scripts/dock_solv.prm

>  <Rbt.Receptor>
prm/pocket_docking_6.prm

>  <SCORE>
-6.71334

>  <SCORE.INTER>
-6.71334

>  <SCORE.INTER.CONST>
1

>  <SCORE.INTER.POLAR>
0

>  <SCORE.INTER.ROT>
0

>  <SCORE.INTER.SOLV>
15.728

>  <SCORE.INTER.VDW>
-13.3182

>  <SCORE.INTER.norm>
-0.671334

>  <SCORE.INTRA>
0

>  <SCORE.INTRA.DIHEDRAL>
0

>  <SCORE.INTRA.DIHEDRAL.0>
0

>  <SCORE.INTRA.POLAR>
0

>  <SCORE.INTRA.POLAR.0>
0

>  <SCORE.INTRA.REPUL>
0

>  <SCORE.INTRA.REPUL.0>
0

>  <SCORE.INTRA.SOLV>
0

>  <SCORE.INTRA.SOLV.lig_0>
-47.9788

>  <SCORE.INTRA.VDW>
0

>  <SCORE.INTRA.VDW.0>
0

>  <SCORE.INTRA.norm>
0

>  <SCORE.RESTR>
0

>  <SCORE.RESTR.CAVITY>
0

>  <SCORE.RESTR.norm>
0

>  <SCORE.SYSTEM>
0

>  <SCORE.SYSTEM.CONST>
0

>  <SCORE.SYSTEM.DIHEDRAL>
0

>  <SCORE.SYSTEM.SOLV>
0

>  <SCORE.SYSTEM.norm>
0

>  <SCORE.heavy>
10

>  <SCORE.norm>
-0.671334

>  <RMSD>
2.973

$$$$
ligand
 OpenBabel02271912133D
libRbt.so/2013.1/901 2013/11/27
 10 11  0  0  0  0  0  0  0  0999 V2000
   12.4667   -4.4316    7.7323 C   0  0  1  0  0  0  0  0  0  0  0  0
   10.9862   -1.4788    6.8700 C   0  0  2  0  0  0  0  0  0  0  0  0
   11.8064   -2.5777    8.4722 C   0  0  2  0  0  0  0  0  0  0  0  0
   12.9982   -5.6564    7.6454 N   0  0  0  0  0  0  0  0  0  0  0  0
   10.5824   -1.0884    5.6652 N   0  0  0  0  0  0  0  0  0  0  0  0
   10.8777   -0.7473    7.9727 N   0  0  0  0  0  0  0  0  0  0  0  0
   12.3834   -3.7202    8.8510 N   0  0  0  0  0  0  0  0  0  0  0  0
   11.9555   -3.7274    6.7058 N   0  0  0  0  0  0  0  0  0  0  0  0
   11.3541   -1.3948    8.9158 N   0  0  0  0  0  0  0  0  0  0  0  0
   11.5719   -2.6360    7.1557 N   0  0  1  0  0  0  0  0  0  0  0  0
  1  4  1  6  0  0  0
  1  8  1  0  0  0  0
  1  7  1  0  0  0  0
  2  5  1  6  0  0  0
  2  6  1  0  0  0  0
  2 10  1  0  0  0  0
  3  7  1  1  0  0  0
  3 10  1  0  0  0  0
  3  9  1  0  0  0  0
  6  9  1  0  0  0  0
 10  8  1  1  0  0  0
M  END
>  <CHROM.1>
11.69581214,-2.74212332,7.59447528,0.21790227,1.11809563,-1.98932358

>  <Name>
ligand

>  <RI>
0

>  <Rbt.Current_Directory>
/home/itssahil/PROJECTS/Mol_Feturizer/Test_systems_manuscript/rnas/2xnw

>  <Rbt.Executable>
rbdock ($Id: //depot/dev/client3/rdock/2013.1/src/exe/rbdock.cxx#4 $)

>  <Rbt.Library>
libRbt.so (2013.1, Build901 2013/11/27)

>  <Rbt.Parameter_File>
/export/apps/rDock/src/rDock_2013.1_src/data/scripts/dock_solv.prm

>  <Rbt.Receptor>
prm/pocket_docking_7.prm

>  <SCORE>
-6.70147

>  <SCORE.INTER>
-6.70147

>  <SCORE.INTER.CONST>
1

>  <SCORE.INTER.POLAR>
0

>  <SCORE.INTER.ROT>
0

>  <SCORE.INTER.SOLV>
15.7683

>  <SCORE.INTER.VDW>
-13.3238

>  <SCORE.INTER.norm>
-0.670147

>  <SCORE.INTRA>
0

>  <SCORE.INTRA.DIHEDRAL>
0

>  <SCORE.INTRA.DIHEDRAL.0>
0

>  <SCORE.INTRA.POLAR>
0

>  <SCORE.INTRA.POLAR.0>
0

>  <SCORE.INTRA.REPUL>
0

>  <SCORE.INTRA.REPUL.0>
0

>  <SCORE.INTRA.SOLV>
0

>  <SCORE.INTRA.SOLV.lig_0>
-47.9788

>  <SCORE.INTRA.VDW>
0

>  <SCORE.INTRA.VDW.0>
0

>  <SCORE.INTRA.norm>
0

>  <SCORE.RESTR>
0

>  <SCORE.RESTR.CAVITY>
0

>  <SCORE.RESTR.norm>
0

>  <SCORE.SYSTEM>
0

>  <SCORE.SYSTEM.CONST>
0

>  <SCORE.SYSTEM.DIHEDRAL>
0

>  <SCORE.SYSTEM.SOLV>
0

>  <SCORE.SYSTEM.norm>
0

>  <SCORE.heavy>
10

>  <SCORE.norm>
-0.670147

>  <RMSD>
2.973

$$$$
ligand
 OpenBabel02271912133D
libRbt.so/2013.1/901 2013/11/27
 10 11  0  0  0  0  0  0  0  0999 V2000
   12.4287   -4.4445    7.7648 C   0  0  1  0  0  0  0  0  0  0  0  0
   10.9878   -1.4690    6.9134 C   0  0  2  0  0  0  0  0  0  0  0  0
   11.8053   -2.5795    8.5089 C   0  0  2  0  0  0  0  0  0  0  0  0
   12.9397   -5.6777    7.6742 N   0  0  0  0  0  0  0  0  0  0  0  0
   10.5790   -1.0732    5.7120 N   0  0  0  0  0  0  0  0  0  0  0  0
   10.9014   -0.7348    8.0163 N   0  0  0  0  0  0  0  0  0  0  0  0
   12.3674   -3.7307    8.8835 N   0  0  0  0  0  0  0  0  0  0  0  0
   11.9192   -3.7330    6.7424 N   0  0  0  0  0  0  0  0  0  0  0  0
   11.3762   -1.3891    8.9555 N   0  0  0  0  0  0  0  0  0  0  0  0
   11.5575   -2.6351    7.1948 N   0  0  1  0  0  0  0  0  0  0  0  0
  1  4  1  6  0  0  0
  1  8  1  0  0  0  0
  1  7  1  0  0  0  0
  2  5  1  6  0  0  0
  2  6  1  0  0  0  0
  2 10  1  0  0  0  0
  3  7  1  1  0  0  0
  3 10  1  0  0  0  0
  3  9  1  0  0  0  0
  6  9  1  0  0  0  0
 10  8  1  1  0  0  0
M  END
>  <CHROM.1>
11.68379721,-2.74290157,7.63245981,0.25326530,1.12870694,-2.02216513

>  <Name>
ligand

>  <RI>
0

>  <Rbt.Current_Directory>
/home/itssahil/PROJECTS/Mol_Feturizer/Test_systems_manuscript/rnas/2xnw

>  <Rbt.Executable>
rbdock ($Id: //depot/dev/client3/rdock/2013.1/src/exe/rbdock.cxx#4 $)

>  <Rbt.Library>
libRbt.so (2013.1, Build901 2013/11/27)

>  <Rbt.Parameter_File>
/export/apps/rDock/src/rDock_2013.1_src/data/scripts/dock_solv.prm

>  <Rbt.Receptor>
prm/pocket_docking_7.prm

>  <SCORE>
-6.67781

>  <SCORE.INTER>
-6.67781

>  <SCORE.INTER.CONST>
1

>  <SCORE.INTER.POLAR>
0

>  <SCORE.INTER.ROT>
0

>  <SCORE.INTER.SOLV>
15.9676

>  <SCORE.INTER.VDW>
-13.3744

>  <SCORE.INTER.norm>
-0.667781

>  <SCORE.INTRA>
0

>  <SCORE.INTRA.DIHEDRAL>
0

>  <SCORE.INTRA.DIHEDRAL.0>
0

>  <SCORE.INTRA.POLAR>
0

>  <SCORE.INTRA.POLAR.0>
0

>  <SCORE.INTRA.REPUL>
0

>  <SCORE.INTRA.REPUL.0>
0

>  <SCORE.INTRA.SOLV>
0

>  <SCORE.INTRA.SOLV.lig_0>
-47.9788

>  <SCORE.INTRA.VDW>
0

>  <SCORE.INTRA.VDW.0>
0

>  <SCORE.INTRA.norm>
0

>  <SCORE.RESTR>
0

>  <SCORE.RESTR.CAVITY>
0

>  <SCORE.RESTR.norm>
0

>  <SCORE.SYSTEM>
0

>  <SCORE.SYSTEM.CONST>
0

>  <SCORE.SYSTEM.DIHEDRAL>
0

>  <SCORE.SYSTEM.SOLV>
0

>  <SCORE.SYSTEM.norm>
0

>  <SCORE.heavy>
10

>  <SCORE.norm>
-0.667781

>  <RMSD>
2.973

$$$$
ligand
 OpenBabel02271912133D
libRbt.so/2013.1/901 2013/11/27
 10 11  0  0  0  0  0  0  0  0999 V2000
   12.4789   -4.4222    7.7415 C   0  0  1  0  0  0  0  0  0  0  0  0
   10.9879   -1.4635    6.9184 C   0  0  2  0  0  0  0  0  0  0  0  0
   11.8389   -2.5687    8.5000 C   0  0  2  0  0  0  0  0  0  0  0  0
   13.0054   -5.6480    7.6401 N   0  0  0  0  0  0  0  0  0  0  0  0
   10.5597   -1.0688    5.7234 N   0  0  0  0  0  0  0  0  0  0  0  0
   10.9044   -0.7347    8.0250 N   0  0  0  0  0  0  0  0  0  0  0  0
   12.4209   -3.7136    8.8635 N   0  0  0  0  0  0  0  0  0  0  0  0
   11.9479   -3.7140    6.7278 N   0  0  0  0  0  0  0  0  0  0  0  0
   11.3989   -1.3859    8.9562 N   0  0  0  0  0  0  0  0  0  0  0  0
   11.5766   -2.6228    7.1887 N   0  0  1  0  0  0  0  0  0  0  0  0
  1  4  1  6  0  0  0
  1  8  1  0  0  0  0
  1  7  1  0  0  0  0
  2  5  1  6  0  0  0
  2  6  1  0  0  0  0
  2 10  1  0  0  0  0
  3  7  1  1  0  0  0
  3 10  1  0  0  0  0
  3  9  1  0  0  0  0
  6  9  1  0  0  0  0
 10  8  1  1  0  0  0
M  END
>  <CHROM.1>
11.70940495,-2.73046556,7.62438788,0.26355612,1.11139009,-2.02761599

>  <Name>
ligand

>  <RI>
0

>  <Rbt.Current_Directory>
/home/itssahil/PROJECTS/Mol_Feturizer/Test_systems_manuscript/rnas/2xnw

>  <Rbt.Executable>
rbdock ($Id: //depot/dev/client3/rdock/2013.1/src/exe/rbdock.cxx#4 $)

>  <Rbt.Library>
libRbt.so (2013.1, Build901 2013/11/27)

>  <Rbt.Parameter_File>
/export/apps/rDock/src/rDock_2013.1_src/data/scripts/dock_solv.prm

>  <Rbt.Receptor>
prm/pocket_docking_7.prm

>  <SCORE>
-6.70615

>  <SCORE.INTER>
-6.70615

>  <SCORE.INTER.CONST>
1

>  <SCORE.INTER.POLAR>
0

>  <SCORE.INTER.ROT>
0

>  <SCORE.INTER.SOLV>
15.6544

>  <SCORE.INTER.VDW>
-13.2889

>  <SCORE.INTER.norm>
-0.670615

>  <SCORE.INTRA>
0

>  <SCORE.INTRA.DIHEDRAL>
0

>  <SCORE.INTRA.DIHEDRAL.0>
0

>  <SCORE.INTRA.POLAR>
0

>  <SCORE.INTRA.POLAR.0>
0

>  <SCORE.INTRA.REPUL>
0

>  <SCORE.INTRA.REPUL.0>
0

>  <SCORE.INTRA.SOLV>
0

>  <SCORE.INTRA.SOLV.lig_0>
-47.9788

>  <SCORE.INTRA.VDW>
0

>  <SCORE.INTRA.VDW.0>
0

>  <SCORE.INTRA.norm>
0

>  <SCORE.RESTR>
0

>  <SCORE.RESTR.CAVITY>
0

>  <SCORE.RESTR.norm>
0

>  <SCORE.SYSTEM>
0

>  <SCORE.SYSTEM.CONST>
0

>  <SCORE.SYSTEM.DIHEDRAL>
0

>  <SCORE.SYSTEM.SOLV>
0

>  <SCORE.SYSTEM.norm>
0

>  <SCORE.heavy>
10

>  <SCORE.norm>
-0.670615

>  <RMSD>
2.973

$$$$
ligand
 OpenBabel02271912133D
libRbt.so/2013.1/901 2013/11/27
 10 11  0  0  0  0  0  0  0  0999 V2000
   12.4694   -4.4148    7.7261 C   0  0  1  0  0  0  0  0  0  0  0  0
   10.9861   -1.4500    6.9109 C   0  0  2  0  0  0  0  0  0  0  0  0
   11.8595   -2.5507    8.4835 C   0  0  2  0  0  0  0  0  0  0  0  0
   12.9839   -5.6455    7.6235 N   0  0  0  0  0  0  0  0  0  0  0  0
   10.5375   -1.0605    5.7217 N   0  0  0  0  0  0  0  0  0  0  0  0
   10.9304   -0.7125    8.0135 N   0  0  0  0  0  0  0  0  0  0  0  0
   12.4393   -3.6976    8.8439 N   0  0  0  0  0  0  0  0  0  0  0  0
   11.9241   -3.7096    6.7180 N   0  0  0  0  0  0  0  0  0  0  0  0
   11.4381   -1.3610    8.9395 N   0  0  0  0  0  0  0  0  0  0  0  0
   11.5707   -2.6121    7.1780 N   0  0  1  0  0  0  0  0  0  0  0  0
  1  4  1  6  0  0  0
  1  8  1  0  0  0  0
  1  7  1  0  0  0  0
  2  5  1  6  0  0  0
  2  6  1  0  0  0  0
  2 10  1  0  0  0  0
  3  7  1  1  0  0  0
  3 10  1  0  0  0  0
  3  9  1  0  0  0  0
  6  9  1  0  0  0  0
 10  8  1  1  0  0  0
M  END
>  <CHROM.1>
11.71133403,-2.71768994,7.61178412,0.31150314,1.10937754,-2.07789592

>  <Name>
ligand

>  <RI>
0

>  <Rbt.Current_Directory>
/home/itssahil/PROJECTS/Mol_Feturizer/Test_systems_manuscript/rnas/2xnw

>  <Rbt.Executable>
rbdock ($Id: //depot/dev/client3/rdock/2013.1/src/exe/rbdock.cxx#4 $)

>  <Rbt.Library>
libRbt.so (2013.1, Build901 2013/11/27)

>  <Rbt.Parameter_File>
/export/apps/rDock/src/rDock_2013.1_src/data/scripts/dock_solv.prm

>  <Rbt.Receptor>
prm/pocket_docking_7.prm

>  <SCORE>
-6.7066

>  <SCORE.INTER>
-6.7066

>  <SCORE.INTER.CONST>
1

>  <SCORE.INTER.POLAR>
0

>  <SCORE.INTER.ROT>
0

>  <SCORE.INTER.SOLV>
15.6905

>  <SCORE.INTER.VDW>
-13.3012

>  <SCORE.INTER.norm>
-0.67066

>  <SCORE.INTRA>
0

>  <SCORE.INTRA.DIHEDRAL>
0

>  <SCORE.INTRA.DIHEDRAL.0>
0

>  <SCORE.INTRA.POLAR>
0

>  <SCORE.INTRA.POLAR.0>
0

>  <SCORE.INTRA.REPUL>
0

>  <SCORE.INTRA.REPUL.0>
0

>  <SCORE.INTRA.SOLV>
0

>  <SCORE.INTRA.SOLV.lig_0>
-47.9788

>  <SCORE.INTRA.VDW>
0

>  <SCORE.INTRA.VDW.0>
0

>  <SCORE.INTRA.norm>
0

>  <SCORE.RESTR>
0

>  <SCORE.RESTR.CAVITY>
0

>  <SCORE.RESTR.norm>
0

>  <SCORE.SYSTEM>
0

>  <SCORE.SYSTEM.CONST>
0

>  <SCORE.SYSTEM.DIHEDRAL>
0

>  <SCORE.SYSTEM.SOLV>
0

>  <SCORE.SYSTEM.norm>
0

>  <SCORE.heavy>
10

>  <SCORE.norm>
-0.67066

>  <RMSD>
2.973

$$$$
ligand
 OpenBabel02271912133D
libRbt.so/2013.1/901 2013/11/27
 10 11  0  0  0  0  0  0  0  0999 V2000
   12.4761   -4.4332    7.7442 C   0  0  1  0  0  0  0  0  0  0  0  0
   11.0062   -1.4702    6.8988 C   0  0  2  0  0  0  0  0  0  0  0  0
   11.8424   -2.5725    8.4903 C   0  0  2  0  0  0  0  0  0  0  0  0
   12.9963   -5.6623    7.6516 N   0  0  0  0  0  0  0  0  0  0  0  0
   10.5868   -1.0789    5.6996 N   0  0  0  0  0  0  0  0  0  0  0  0
   10.9207   -0.7356    8.0015 N   0  0  0  0  0  0  0  0  0  0  0  0
   12.4159   -3.7188    8.8625 N   0  0  0  0  0  0  0  0  0  0  0  0
   11.9546   -3.7269    6.7243 N   0  0  0  0  0  0  0  0  0  0  0  0
   11.4065   -1.3851    8.9384 N   0  0  0  0  0  0  0  0  0  0  0  0
   11.5869   -2.6315    7.1778 N   0  0  1  0  0  0  0  0  0  0  0  0
  1  4  1  6  0  0  0
  1  8  1  0  0  0  0
  1  7  1  0  0  0  0
  2  5  1  6  0  0  0
  2  6  1  0  0  0  0
  2 10  1  0  0  0  0
  3  7  1  1  0  0  0
  3 10  1  0  0  0  0
  3  9  1  0  0  0  0
  6  9  1  0  0  0  0
 10  8  1  1  0  0  0
M  END
>  <CHROM.1>
11.71675313,-2.73775695,7.61479137,0.25798773,1.11880964,-2.02742418

>  <Name>
ligand

>  <RI>
0

>  <Rbt.Current_Directory>
/home/itssahil/PROJECTS/Mol_Feturizer/Test_systems_manuscript/rnas/2xnw

>  <Rbt.Executable>
rbdock ($Id: //depot/dev/client3/rdock/2013.1/src/exe/rbdock.cxx#4 $)

>  <Rbt.Library>
libRbt.so (2013.1, Build901 2013/11/27)

>  <Rbt.Parameter_File>
/export/apps/rDock/src/rDock_2013.1_src/data/scripts/dock_solv.prm

>  <Rbt.Receptor>
prm/pocket_docking_8.prm

>  <SCORE>
-6.70067

>  <SCORE.INTER>
-6.70067

>  <SCORE.INTER.CONST>
1

>  <SCORE.INTER.POLAR>
0

>  <SCORE.INTER.ROT>
0

>  <SCORE.INTER.SOLV>
15.7369

>  <SCORE.INTER.VDW>
-13.3128

>  <SCORE.INTER.norm>
-0.670067

>  <SCORE.INTRA>
0

>  <SCORE.INTRA.DIHEDRAL>
0

>  <SCORE.INTRA.DIHEDRAL.0>
0

>  <SCORE.INTRA.POLAR>
0

>  <SCORE.INTRA.POLAR.0>
0

>  <SCORE.INTRA.REPUL>
0

>  <SCORE.INTRA.REPUL.0>
0

>  <SCORE.INTRA.SOLV>
0

>  <SCORE.INTRA.SOLV.lig_0>
-47.9788

>  <SCORE.INTRA.VDW>
0

>  <SCORE.INTRA.VDW.0>
0

>  <SCORE.INTRA.norm>
0

>  <SCORE.RESTR>
0

>  <SCORE.RESTR.CAVITY>
0

>  <SCORE.RESTR.norm>
0

>  <SCORE.SYSTEM>
0

>  <SCORE.SYSTEM.CONST>
0

>  <SCORE.SYSTEM.DIHEDRAL>
0

>  <SCORE.SYSTEM.SOLV>
0

>  <SCORE.SYSTEM.norm>
0

>  <SCORE.heavy>
10

>  <SCORE.norm>
-0.670067

>  <RMSD>
2.973

$$$$
ligand
 OpenBabel02271912133D
libRbt.so/2013.1/901 2013/11/27
 10 11  0  0  0  0  0  0  0  0999 V2000
   12.6144   -4.4114    7.7603 C   0  0  1  0  0  0  0  0  0  0  0  0
   11.0124   -1.5089    6.9458 C   0  0  2  0  0  0  0  0  0  0  0  0
   11.8846   -2.5956    8.5288 C   0  0  2  0  0  0  0  0  0  0  0  0
   13.1939   -5.6126    7.6541 N   0  0  0  0  0  0  0  0  0  0  0  0
   10.5867   -1.1187    5.7485 N   0  0  0  0  0  0  0  0  0  0  0  0
   10.8808   -0.7972    8.0589 N   0  0  0  0  0  0  0  0  0  0  0  0
   12.5088   -3.7190    8.8891 N   0  0  0  0  0  0  0  0  0  0  0  0
   12.0698   -3.7145    6.7461 N   0  0  0  0  0  0  0  0  0  0  0  0
   11.3878   -1.4378    8.9907 N   0  0  0  0  0  0  0  0  0  0  0  0
   11.6454   -2.6454    7.2128 N   0  0  1  0  0  0  0  0  0  0  0  0
  1  4  1  6  0  0  0
  1  8  1  0  0  0  0
  1  7  1  0  0  0  0
  2  5  1  6  0  0  0
  2  6  1  0  0  0  0
  2 10  1  0  0  0  0
  3  7  1  1  0  0  0
  3 10  1  0  0  0  0
  3  9  1  0  0  0  0
  6  9  1  0  0  0  0
 10  8  1  1  0  0  0
M  END
>  <CHROM.1>
11.77582600,-2.75241293,7.64942141,0.19403266,1.07925641,-1.95446656

>  <Name>
ligand

>  <RI>
0

>  <Rbt.Current_Directory>
/home/itssahil/PROJECTS/Mol_Feturizer/Test_systems_manuscript/rnas/2xnw

>  <Rbt.Executable>
rbdock ($Id: //depot/dev/client3/rdock/2013.1/src/exe/rbdock.cxx#4 $)

>  <Rbt.Library>
libRbt.so (2013.1, Build901 2013/11/27)

>  <Rbt.Parameter_File>
/export/apps/rDock/src/rDock_2013.1_src/data/scripts/dock_solv.prm

>  <Rbt.Receptor>
prm/blind_docking_20.prm

>  <SCORE>
-6.67547

>  <SCORE.INTER>
-6.67547

>  <SCORE.INTER.CONST>
1

>  <SCORE.INTER.POLAR>
0

>  <SCORE.INTER.ROT>
0

>  <SCORE.INTER.SOLV>
14.8401

>  <SCORE.INTER.VDW>
-12.997

>  <SCORE.INTER.norm>
-0.667547

>  <SCORE.INTRA>
0

>  <SCORE.INTRA.DIHEDRAL>
0

>  <SCORE.INTRA.DIHEDRAL.0>
0

>  <SCORE.INTRA.POLAR>
0

>  <SCORE.INTRA.POLAR.0>
0

>  <SCORE.INTRA.REPUL>
0

>  <SCORE.INTRA.REPUL.0>
0

>  <SCORE.INTRA.SOLV>
0

>  <SCORE.INTRA.SOLV.lig_0>
-47.9788

>  <SCORE.INTRA.VDW>
0

>  <SCORE.INTRA.VDW.0>
0

>  <SCORE.INTRA.norm>
0

>  <SCORE.RESTR>
0

>  <SCORE.RESTR.CAVITY>
0

>  <SCORE.RESTR.norm>
0

>  <SCORE.SYSTEM>
0

>  <SCORE.SYSTEM.CONST>
0

>  <SCORE.SYSTEM.DIHEDRAL>
0

>  <SCORE.SYSTEM.SOLV>
0

>  <SCORE.SYSTEM.norm>
0

>  <SCORE.heavy>
10

>  <SCORE.norm>
-0.667547

>  <RMSD>
2.974

$$$$
ligand
 OpenBabel02271912133D
libRbt.so/2013.1/901 2013/11/27
 10 11  0  0  0  0  0  0  0  0999 V2000
   12.4635   -4.4298    7.7274 C   0  0  1  0  0  0  0  0  0  0  0  0
   10.9881   -1.4728    6.8709 C   0  0  2  0  0  0  0  0  0  0  0  0
   11.7965   -2.5805    8.4729 C   0  0  2  0  0  0  0  0  0  0  0  0
   12.9964   -5.6537    7.6376 N   0  0  0  0  0  0  0  0  0  0  0  0
   10.5933   -1.0755    5.6652 N   0  0  0  0  0  0  0  0  0  0  0  0
   10.8706   -0.7477    7.9768 N   0  0  0  0  0  0  0  0  0  0  0  0
   12.3712   -3.7248    8.8495 N   0  0  0  0  0  0  0  0  0  0  0  0
   11.9598   -3.7199    6.7011 N   0  0  0  0  0  0  0  0  0  0  0  0
   11.3400   -1.4004    8.9199 N   0  0  0  0  0  0  0  0  0  0  0  0
   11.5722   -2.6312    7.1544 N   0  0  1  0  0  0  0  0  0  0  0  0
  1  4  1  6  0  0  0
  1  8  1  0  0  0  0
  1  7  1  0  0  0  0
  2  5  1  6  0  0  0
  2  6  1  0  0  0  0
  2 10  1  0  0  0  0
  3  7  1  1  0  0  0
  3 10  1  0  0  0  0
  3  9  1  0  0  0  0
  6  9  1  0  0  0  0
 10  8  1  1  0  0  0
M  END
>  <CHROM.1>
11.69272227,-2.73987985,7.59342324,0.20113383,1.12065766,-1.96843514

>  <Name>
ligand

>  <RI>
0

>  <Rbt.Current_Directory>
/home/itssahil/PROJECTS/Mol_Feturizer/Test_systems_manuscript/rnas/2xnw

>  <Rbt.Executable>
rbdock ($Id: //depot/dev/client3/rdock/2013.1/src/exe/rbdock.cxx#4 $)

>  <Rbt.Library>
libRbt.so (2013.1, Build901 2013/11/27)

>  <Rbt.Parameter_File>
/export/apps/rDock/src/rDock_2013.1_src/data/scripts/dock_solv.prm

>  <Rbt.Receptor>
prm/blind_docking_20.prm

>  <SCORE>
-6.69428

>  <SCORE.INTER>
-6.69428

>  <SCORE.INTER.CONST>
1

>  <SCORE.INTER.POLAR>
0

>  <SCORE.INTER.ROT>
0

>  <SCORE.INTER.SOLV>
15.8201

>  <SCORE.INTER.VDW>
-13.3362

>  <SCORE.INTER.norm>
-0.669428

>  <SCORE.INTRA>
0

>  <SCORE.INTRA.DIHEDRAL>
0

>  <SCORE.INTRA.DIHEDRAL.0>
0

>  <SCORE.INTRA.POLAR>
0

>  <SCORE.INTRA.POLAR.0>
0

>  <SCORE.INTRA.REPUL>
0

>  <SCORE.INTRA.REPUL.0>
0

>  <SCORE.INTRA.SOLV>
0

>  <SCORE.INTRA.SOLV.lig_0>
-47.9788

>  <SCORE.INTRA.VDW>
0

>  <SCORE.INTRA.VDW.0>
0

>  <SCORE.INTRA.norm>
0

>  <SCORE.RESTR>
0

>  <SCORE.RESTR.CAVITY>
0

>  <SCORE.RESTR.norm>
0

>  <SCORE.SYSTEM>
0

>  <SCORE.SYSTEM.CONST>
0

>  <SCORE.SYSTEM.DIHEDRAL>
0

>  <SCORE.SYSTEM.SOLV>
0

>  <SCORE.SYSTEM.norm>
0

>  <SCORE.heavy>
10

>  <SCORE.norm>
-0.669428

>  <RMSD>
2.974

$$$$
ligand
 OpenBabel02271912133D
libRbt.so/2013.1/901 2013/11/27
 10 11  0  0  0  0  0  0  0  0999 V2000
   12.4649   -4.4344    7.7319 C   0  0  1  0  0  0  0  0  0  0  0  0
   11.0040   -1.4690    6.8795 C   0  0  2  0  0  0  0  0  0  0  0  0
   11.8461   -2.5661    8.4715 C   0  0  2  0  0  0  0  0  0  0  0  0
   12.9781   -5.6667    7.6429 N   0  0  0  0  0  0  0  0  0  0  0  0
   10.5779   -1.0826    5.6811 N   0  0  0  0  0  0  0  0  0  0  0  0
   10.9303   -0.7274    7.9784 N   0  0  0  0  0  0  0  0  0  0  0  0
   12.4165   -3.7131    8.8463 N   0  0  0  0  0  0  0  0  0  0  0  0
   11.9396   -3.7315    6.7116 N   0  0  0  0  0  0  0  0  0  0  0  0
   11.4196   -1.3738    8.9156 N   0  0  0  0  0  0  0  0  0  0  0  0
   11.5808   -2.6315    7.1612 N   0  0  1  0  0  0  0  0  0  0  0  0
  1  4  1  6  0  0  0
  1  8  1  0  0  0  0
  1  7  1  0  0  0  0
  2  5  1  6  0  0  0
  2  6  1  0  0  0  0
  2 10  1  0  0  0  0
  3  7  1  1  0  0  0
  3 10  1  0  0  0  0
  3  9  1  0  0  0  0
  6  9  1  0  0  0  0
 10  8  1  1  0  0  0
M  END
>  <CHROM.1>
11.71329909,-2.73588226,7.59787928,0.27815674,1.12010777,-2.05151552

>  <Name>
ligand

>  <RI>
0

>  <Rbt.Current_Directory>
/home/itssahil/PROJECTS/Mol_Feturizer/Test_systems_manuscript/rnas/2xnw

>  <Rbt.Executable>
rbdock ($Id: //depot/dev/client3/rdock/2013.1/src/exe/rbdock.cxx#4 $)

>  <Rbt.Library>
libRbt.so (2013.1, Build901 2013/11/27)

>  <Rbt.Parameter_File>
/export/apps/rDock/src/rDock_2013.1_src/data/scripts/dock_solv.prm

>  <Rbt.Receptor>
prm/blind_docking_40.prm

>  <SCORE>
-6.71651

>  <SCORE.INTER>
-6.71651

>  <SCORE.INTER.CONST>
1

>  <SCORE.INTER.POLAR>
0

>  <SCORE.INTER.ROT>
0

>  <SCORE.INTER.SOLV>
15.7958

>  <SCORE.INTER.VDW>
-13.3429

>  <SCORE.INTER.norm>
-0.671651

>  <SCORE.INTRA>
0

>  <SCORE.INTRA.DIHEDRAL>
0

>  <SCORE.INTRA.DIHEDRAL.0>
0

>  <SCORE.INTRA.POLAR>
0

>  <SCORE.INTRA.POLAR.0>
0

>  <SCORE.INTRA.REPUL>
0

>  <SCORE.INTRA.REPUL.0>
0

>  <SCORE.INTRA.SOLV>
0

>  <SCORE.INTRA.SOLV.lig_0>
-47.9788

>  <SCORE.INTRA.VDW>
0

>  <SCORE.INTRA.VDW.0>
0

>  <SCORE.INTRA.norm>
0

>  <SCORE.RESTR>
0

>  <SCORE.RESTR.CAVITY>
0

>  <SCORE.RESTR.norm>
0

>  <SCORE.SYSTEM>
0

>  <SCORE.SYSTEM.CONST>
0

>  <SCORE.SYSTEM.DIHEDRAL>
0

>  <SCORE.SYSTEM.SOLV>
0

>  <SCORE.SYSTEM.norm>
0

>  <SCORE.heavy>
10

>  <SCORE.norm>
-0.671651

>  <RMSD>
2.974

$$$$
ligand
 OpenBabel02271912133D
libRbt.so/2013.1/901 2013/11/27
 10 11  0  0  0  0  0  0  0  0999 V2000
   12.4603   -4.4340    7.7278 C   0  0  1  0  0  0  0  0  0  0  0  0
   11.0108   -1.4614    6.8809 C   0  0  2  0  0  0  0  0  0  0  0  0
   11.8464   -2.5657    8.4714 C   0  0  2  0  0  0  0  0  0  0  0  0
   12.9697   -5.6678    7.6364 N   0  0  0  0  0  0  0  0  0  0  0  0
   10.5882   -1.0704    5.6828 N   0  0  0  0  0  0  0  0  0  0  0  0
   10.9376   -0.7227    7.9817 N   0  0  0  0  0  0  0  0  0  0  0  0
   12.4123   -3.7156    8.8442 N   0  0  0  0  0  0  0  0  0  0  0  0
   11.9393   -3.7266    6.7085 N   0  0  0  0  0  0  0  0  0  0  0  0
   11.4230   -1.3732    8.9181 N   0  0  0  0  0  0  0  0  0  0  0  0
   11.5833   -2.6267    7.1605 N   0  0  1  0  0  0  0  0  0  0  0  0
  1  4  1  6  0  0  0
  1  8  1  0  0  0  0
  1  7  1  0  0  0  0
  2  5  1  6  0  0  0
  2  6  1  0  0  0  0
  2 10  1  0  0  0  0
  3  7  1  1  0  0  0
  3 10  1  0  0  0  0
  3  9  1  0  0  0  0
  6  9  1  0  0  0  0
 10  8  1  1  0  0  0
M  END
>  <CHROM.1>
11.71459953,-2.73266172,7.59711678,0.27787349,1.12388614,-2.04852644

>  <Name>
ligand

>  <RI>
0

>  <Rbt.Current_Directory>
/home/itssahil/PROJECTS/Mol_Feturizer/Test_systems_manuscript/rnas/2xnw

>  <Rbt.Executable>
rbdock ($Id: //depot/dev/client3/rdock/2013.1/src/exe/rbdock.cxx#4 $)

>  <Rbt.Library>
libRbt.so (2013.1, Build901 2013/11/27)

>  <Rbt.Parameter_File>
/export/apps/rDock/src/rDock_2013.1_src/data/scripts/dock_solv.prm

>  <Rbt.Receptor>
prm/pocket_docking_4.prm

>  <SCORE>
-6.71589

>  <SCORE.INTER>
-6.71589

>  <SCORE.INTER.CONST>
1

>  <SCORE.INTER.POLAR>
0

>  <SCORE.INTER.ROT>
0

>  <SCORE.INTER.SOLV>
15.855

>  <SCORE.INTER.VDW>
-13.3623

>  <SCORE.INTER.norm>
-0.671589

>  <SCORE.INTRA>
0

>  <SCORE.INTRA.DIHEDRAL>
0

>  <SCORE.INTRA.DIHEDRAL.0>
0

>  <SCORE.INTRA.POLAR>
0

>  <SCORE.INTRA.POLAR.0>
0

>  <SCORE.INTRA.REPUL>
0

>  <SCORE.INTRA.REPUL.0>
0

>  <SCORE.INTRA.SOLV>
0

>  <SCORE.INTRA.SOLV.lig_0>
-47.9788

>  <SCORE.INTRA.VDW>
0

>  <SCORE.INTRA.VDW.0>
0

>  <SCORE.INTRA.norm>
0

>  <SCORE.RESTR>
0

>  <SCORE.RESTR.CAVITY>
0

>  <SCORE.RESTR.norm>
0

>  <SCORE.SYSTEM>
0

>  <SCORE.SYSTEM.CONST>
0

>  <SCORE.SYSTEM.DIHEDRAL>
0

>  <SCORE.SYSTEM.SOLV>
0

>  <SCORE.SYSTEM.norm>
0

>  <SCORE.heavy>
10

>  <SCORE.norm>
-0.671589

>  <RMSD>
2.974

$$$$
ligand
 OpenBabel02271912133D
libRbt.so/2013.1/901 2013/11/27
 10 11  0  0  0  0  0  0  0  0999 V2000
   12.5668   -4.4107    7.7176 C   0  0  1  0  0  0  0  0  0  0  0  0
   11.0269   -1.4774    6.8938 C   0  0  2  0  0  0  0  0  0  0  0  0
   11.9379   -2.5490    8.4651 C   0  0  2  0  0  0  0  0  0  0  0  0
   13.0991   -5.6343    7.6200 N   0  0  0  0  0  0  0  0  0  0  0  0
   10.5566   -1.1065    5.7070 N   0  0  0  0  0  0  0  0  0  0  0  0
   10.9742   -0.7301    7.9900 N   0  0  0  0  0  0  0  0  0  0  0  0
   12.5403   -3.6831    8.8288 N   0  0  0  0  0  0  0  0  0  0  0  0
   11.9973   -3.7239    6.7101 N   0  0  0  0  0  0  0  0  0  0  0  0
   11.5041   -1.3616    8.9153 N   0  0  0  0  0  0  0  0  0  0  0  0
   11.6330   -2.6276    7.1642 N   0  0  1  0  0  0  0  0  0  0  0  0
  1  4  1  6  0  0  0
  1  8  1  0  0  0  0
  1  7  1  0  0  0  0
  2  5  1  6  0  0  0
  2  6  1  0  0  0  0
  2 10  1  0  0  0  0
  3  7  1  1  0  0  0
  3 10  1  0  0  0  0
  3  9  1  0  0  0  0
  6  9  1  0  0  0  0
 10  8  1  1  0  0  0
M  END
>  <CHROM.1>
11.78090020,-2.72676307,7.59712813,0.32000187,1.08933546,-2.09516704

>  <Name>
ligand

>  <RI>
0

>  <Rbt.Current_Directory>
/home/itssahil/PROJECTS/Mol_Feturizer/Test_systems_manuscript/rnas/2xnw

>  <Rbt.Executable>
rbdock ($Id: //depot/dev/client3/rdock/2013.1/src/exe/rbdock.cxx#4 $)

>  <Rbt.Library>
libRbt.so (2013.1, Build901 2013/11/27)

>  <Rbt.Parameter_File>
/export/apps/rDock/src/rDock_2013.1_src/data/scripts/dock_solv.prm

>  <Rbt.Receptor>
prm/pocket_docking_4.prm

>  <SCORE>
-6.65799

>  <SCORE.INTER>
-6.65799

>  <SCORE.INTER.CONST>
1

>  <SCORE.INTER.POLAR>
0

>  <SCORE.INTER.ROT>
0

>  <SCORE.INTER.SOLV>
15.17

>  <SCORE.INTER.VDW>
-13.0953

>  <SCORE.INTER.norm>
-0.665799

>  <SCORE.INTRA>
0

>  <SCORE.INTRA.DIHEDRAL>
0

>  <SCORE.INTRA.DIHEDRAL.0>
0

>  <SCORE.INTRA.POLAR>
0

>  <SCORE.INTRA.POLAR.0>
0

>  <SCORE.INTRA.REPUL>
0

>  <SCORE.INTRA.REPUL.0>
0

>  <SCORE.INTRA.SOLV>
0

>  <SCORE.INTRA.SOLV.lig_0>
-47.9788

>  <SCORE.INTRA.VDW>
0

>  <SCORE.INTRA.VDW.0>
0

>  <SCORE.INTRA.norm>
0

>  <SCORE.RESTR>
0

>  <SCORE.RESTR.CAVITY>
0

>  <SCORE.RESTR.norm>
0

>  <SCORE.SYSTEM>
0

>  <SCORE.SYSTEM.CONST>
0

>  <SCORE.SYSTEM.DIHEDRAL>
0

>  <SCORE.SYSTEM.SOLV>
0

>  <SCORE.SYSTEM.norm>
0

>  <SCORE.heavy>
10

>  <SCORE.norm>
-0.665799

>  <RMSD>
2.974

$$$$
ligand
 OpenBabel02271912133D
libRbt.so/2013.1/901 2013/11/27
 10 11  0  0  0  0  0  0  0  0999 V2000
   12.5642   -4.4021    7.7137 C   0  0  1  0  0  0  0  0  0  0  0  0
   11.0106   -1.4718    6.9052 C   0  0  2  0  0  0  0  0  0  0  0  0
   11.9281   -2.5466    8.4705 C   0  0  2  0  0  0  0  0  0  0  0  0
   13.1017   -5.6229    7.6098 N   0  0  0  0  0  0  0  0  0  0  0  0
   10.5373   -1.0975    5.7206 N   0  0  0  0  0  0  0  0  0  0  0  0
   10.9559   -0.7298    8.0048 N   0  0  0  0  0  0  0  0  0  0  0  0
   12.5358   -3.6798    8.8282 N   0  0  0  0  0  0  0  0  0  0  0  0
   11.9906   -3.7132    6.7100 N   0  0  0  0  0  0  0  0  0  0  0  0
   11.4896   -1.3632    8.9266 N   0  0  0  0  0  0  0  0  0  0  0  0
   11.6220   -2.6206    7.1696 N   0  0  1  0  0  0  0  0  0  0  0  0
  1  4  1  6  0  0  0
  1  8  1  0  0  0  0
  1  7  1  0  0  0  0
  2  5  1  6  0  0  0
  2  6  1  0  0  0  0
  2 10  1  0  0  0  0
  3  7  1  1  0  0  0
  3 10  1  0  0  0  0
  3  9  1  0  0  0  0
  6  9  1  0  0  0  0
 10  8  1  1  0  0  0
M  END
>  <CHROM.1>
11.77086317,-2.72108351,7.60186104,0.31747338,1.08497425,-2.08830886

>  <Name>
ligand

>  <RI>
0

>  <Rbt.Current_Directory>
/home/itssahil/PROJECTS/Mol_Feturizer/Test_systems_manuscript/rnas/2xnw

>  <Rbt.Executable>
rbdock ($Id: //depot/dev/client3/rdock/2013.1/src/exe/rbdock.cxx#4 $)

>  <Rbt.Library>
libRbt.so (2013.1, Build901 2013/11/27)

>  <Rbt.Parameter_File>
/export/apps/rDock/src/rDock_2013.1_src/data/scripts/dock_solv.prm

>  <Rbt.Receptor>
prm/pocket_docking_4.prm

>  <SCORE>
-6.66492

>  <SCORE.INTER>
-6.66492

>  <SCORE.INTER.CONST>
1

>  <SCORE.INTER.POLAR>
0

>  <SCORE.INTER.ROT>
0

>  <SCORE.INTER.SOLV>
15.1328

>  <SCORE.INTER.VDW>
-13.0875

>  <SCORE.INTER.norm>
-0.666492

>  <SCORE.INTRA>
0

>  <SCORE.INTRA.DIHEDRAL>
0

>  <SCORE.INTRA.DIHEDRAL.0>
0

>  <SCORE.INTRA.POLAR>
0

>  <SCORE.INTRA.POLAR.0>
0

>  <SCORE.INTRA.REPUL>
0

>  <SCORE.INTRA.REPUL.0>
0

>  <SCORE.INTRA.SOLV>
0

>  <SCORE.INTRA.SOLV.lig_0>
-47.9788

>  <SCORE.INTRA.VDW>
0

>  <SCORE.INTRA.VDW.0>
0

>  <SCORE.INTRA.norm>
0

>  <SCORE.RESTR>
0

>  <SCORE.RESTR.CAVITY>
0

>  <SCORE.RESTR.norm>
0

>  <SCORE.SYSTEM>
0

>  <SCORE.SYSTEM.CONST>
0

>  <SCORE.SYSTEM.DIHEDRAL>
0

>  <SCORE.SYSTEM.SOLV>
0

>  <SCORE.SYSTEM.norm>
0

>  <SCORE.heavy>
10

>  <SCORE.norm>
-0.666492

>  <RMSD>
2.974

$$$$
ligand
 OpenBabel02271912133D
libRbt.so/2013.1/901 2013/11/27
 10 11  0  0  0  0  0  0  0  0999 V2000
   12.4624   -4.4307    7.7266 C   0  0  1  0  0  0  0  0  0  0  0  0
   10.9861   -1.4726    6.8752 C   0  0  2  0  0  0  0  0  0  0  0  0
   11.8128   -2.5750    8.4716 C   0  0  2  0  0  0  0  0  0  0  0  0
   12.9893   -5.6571    7.6358 N   0  0  0  0  0  0  0  0  0  0  0  0
   10.5759   -1.0802    5.6732 N   0  0  0  0  0  0  0  0  0  0  0  0
   10.8869   -0.7413    7.9789 N   0  0  0  0  0  0  0  0  0  0  0  0
   12.3885   -3.7195    8.8462 N   0  0  0  0  0  0  0  0  0  0  0  0
   11.9469   -3.7243    6.7037 N   0  0  0  0  0  0  0  0  0  0  0  0
   11.3672   -1.3909    8.9186 N   0  0  0  0  0  0  0  0  0  0  0  0
   11.5698   -2.6318    7.1566 N   0  0  1  0  0  0  0  0  0  0  0  0
  1  4  1  6  0  0  0
  1  8  1  0  0  0  0
  1  7  1  0  0  0  0
  2  5  1  6  0  0  0
  2  6  1  0  0  0  0
  2 10  1  0  0  0  0
  3  7  1  1  0  0  0
  3 10  1  0  0  0  0
  3  9  1  0  0  0  0
  6  9  1  0  0  0  0
 10  8  1  1  0  0  0
M  END
>  <CHROM.1>
11.69613251,-2.73860183,7.59450744,0.23416171,1.11845383,-2.00343877

>  <Name>
ligand

>  <RI>
0

>  <Rbt.Current_Directory>
/home/itssahil/PROJECTS/Mol_Feturizer/Test_systems_manuscript/rnas/2xnw

>  <Rbt.Executable>
rbdock ($Id: //depot/dev/client3/rdock/2013.1/src/exe/rbdock.cxx#4 $)

>  <Rbt.Library>
libRbt.so (2013.1, Build901 2013/11/27)

>  <Rbt.Parameter_File>
/export/apps/rDock/src/rDock_2013.1_src/data/scripts/dock_solv.prm

>  <Rbt.Receptor>
prm/pocket_docking_4.prm

>  <SCORE>
-6.7061

>  <SCORE.INTER>
-6.7061

>  <SCORE.INTER.CONST>
1

>  <SCORE.INTER.POLAR>
0

>  <SCORE.INTER.ROT>
0

>  <SCORE.INTER.SOLV>
15.7813

>  <SCORE.INTER.VDW>
-13.3312

>  <SCORE.INTER.norm>
-0.67061

>  <SCORE.INTRA>
0

>  <SCORE.INTRA.DIHEDRAL>
0

>  <SCORE.INTRA.DIHEDRAL.0>
0

>  <SCORE.INTRA.POLAR>
0

>  <SCORE.INTRA.POLAR.0>
0

>  <SCORE.INTRA.REPUL>
0

>  <SCORE.INTRA.REPUL.0>
0

>  <SCORE.INTRA.SOLV>
0

>  <SCORE.INTRA.SOLV.lig_0>
-47.9788

>  <SCORE.INTRA.VDW>
0

>  <SCORE.INTRA.VDW.0>
0

>  <SCORE.INTRA.norm>
0

>  <SCORE.RESTR>
0

>  <SCORE.RESTR.CAVITY>
0

>  <SCORE.RESTR.norm>
0

>  <SCORE.SYSTEM>
0

>  <SCORE.SYSTEM.CONST>
0

>  <SCORE.SYSTEM.DIHEDRAL>
0

>  <SCORE.SYSTEM.SOLV>
0

>  <SCORE.SYSTEM.norm>
0

>  <SCORE.heavy>
10

>  <SCORE.norm>
-0.67061

>  <RMSD>
2.974

$$$$
ligand
 OpenBabel02271912133D
libRbt.so/2013.1/901 2013/11/27
 10 11  0  0  0  0  0  0  0  0999 V2000
   12.6050   -4.4091    7.7517 C   0  0  1  0  0  0  0  0  0  0  0  0
   11.0130   -1.4996    6.9427 C   0  0  2  0  0  0  0  0  0  0  0  0
   11.9025   -2.5820    8.5188 C   0  0  2  0  0  0  0  0  0  0  0  0
   13.1732   -5.6157    7.6446 N   0  0  0  0  0  0  0  0  0  0  0  0
   10.5707   -1.1145    5.7497 N   0  0  0  0  0  0  0  0  0  0  0  0
   10.9053   -0.7790    8.0526 N   0  0  0  0  0  0  0  0  0  0  0  0
   12.5236   -3.7079    8.8770 N   0  0  0  0  0  0  0  0  0  0  0  0
   12.0493   -3.7150    6.7415 N   0  0  0  0  0  0  0  0  0  0  0  0
   11.4226   -1.4170    8.9805 N   0  0  0  0  0  0  0  0  0  0  0  0
   11.6412   -2.6393    7.2074 N   0  0  1  0  0  0  0  0  0  0  0  0
  1  4  1  6  0  0  0
  1  8  1  0  0  0  0
  1  7  1  0  0  0  0
  2  5  1  6  0  0  0
  2  6  1  0  0  0  0
  2 10  1  0  0  0  0
  3  7  1  1  0  0  0
  3 10  1  0  0  0  0
  3  9  1  0  0  0  0
  6  9  1  0  0  0  0
 10  8  1  1  0  0  0
M  END
>  <CHROM.1>
11.77797874,-2.74423532,7.64258448,0.23283461,1.08013391,-1.99586031

>  <Name>
ligand

>  <RI>
0

>  <Rbt.Current_Directory>
/home/itssahil/PROJECTS/Mol_Feturizer/Test_systems_manuscript/rnas/2xnw

>  <Rbt.Executable>
rbdock ($Id: //depot/dev/client3/rdock/2013.1/src/exe/rbdock.cxx#4 $)

>  <Rbt.Library>
libRbt.so (2013.1, Build901 2013/11/27)

>  <Rbt.Parameter_File>
/export/apps/rDock/src/rDock_2013.1_src/data/scripts/dock_solv.prm

>  <Rbt.Receptor>
prm/pocket_docking_5.prm

>  <SCORE>
-6.68549

>  <SCORE.INTER>
-6.68549

>  <SCORE.INTER.CONST>
1

>  <SCORE.INTER.POLAR>
0

>  <SCORE.INTER.ROT>
0

>  <SCORE.INTER.SOLV>
14.8846

>  <SCORE.INTER.VDW>
-13.0185

>  <SCORE.INTER.norm>
-0.668549

>  <SCORE.INTRA>
0

>  <SCORE.INTRA.DIHEDRAL>
0

>  <SCORE.INTRA.DIHEDRAL.0>
0

>  <SCORE.INTRA.POLAR>
0

>  <SCORE.INTRA.POLAR.0>
0

>  <SCORE.INTRA.REPUL>
0

>  <SCORE.INTRA.REPUL.0>
0

>  <SCORE.INTRA.SOLV>
0

>  <SCORE.INTRA.SOLV.lig_0>
-47.9788

>  <SCORE.INTRA.VDW>
0

>  <SCORE.INTRA.VDW.0>
0

>  <SCORE.INTRA.norm>
0

>  <SCORE.RESTR>
0

>  <SCORE.RESTR.CAVITY>
0

>  <SCORE.RESTR.norm>
0

>  <SCORE.SYSTEM>
0

>  <SCORE.SYSTEM.CONST>
0

>  <SCORE.SYSTEM.DIHEDRAL>
0

>  <SCORE.SYSTEM.SOLV>
0

>  <SCORE.SYSTEM.norm>
0

>  <SCORE.heavy>
10

>  <SCORE.norm>
-0.668549

>  <RMSD>
2.974

$$$$
ligand
 OpenBabel02271912133D
libRbt.so/2013.1/901 2013/11/27
 10 11  0  0  0  0  0  0  0  0999 V2000
   12.5453   -4.4101    7.7284 C   0  0  1  0  0  0  0  0  0  0  0  0
   10.9883   -1.4858    6.9046 C   0  0  2  0  0  0  0  0  0  0  0  0
   11.8355   -2.5846    8.4926 C   0  0  2  0  0  0  0  0  0  0  0  0
   13.1090   -5.6190    7.6255 N   0  0  0  0  0  0  0  0  0  0  0  0
   10.5755   -1.0896    5.7046 N   0  0  0  0  0  0  0  0  0  0  0  0
   10.8593   -0.7725    8.0170 N   0  0  0  0  0  0  0  0  0  0  0  0
   12.4421   -3.7165    8.8566 N   0  0  0  0  0  0  0  0  0  0  0  0
   12.0167   -3.7056    6.7109 N   0  0  0  0  0  0  0  0  0  0  0  0
   11.3517   -1.4202    8.9518 N   0  0  0  0  0  0  0  0  0  0  0  0
   11.6040   -2.6309    7.1752 N   0  0  1  0  0  0  0  0  0  0  0  0
  1  4  1  6  0  0  0
  1  8  1  0  0  0  0
  1  7  1  0  0  0  0
  2  5  1  6  0  0  0
  2  6  1  0  0  0  0
  2 10  1  0  0  0  0
  3  7  1  1  0  0  0
  3 10  1  0  0  0  0
  3  9  1  0  0  0  0
  6  9  1  0  0  0  0
 10  8  1  1  0  0  0
M  END
>  <CHROM.1>
11.73019199,-2.73974763,7.61260817,0.19245113,1.09426413,-1.95285038

>  <Name>
ligand

>  <RI>
0

>  <Rbt.Current_Directory>
/home/itssahil/PROJECTS/Mol_Feturizer/Test_systems_manuscript/rnas/2xnw

>  <Rbt.Executable>
rbdock ($Id: //depot/dev/client3/rdock/2013.1/src/exe/rbdock.cxx#4 $)

>  <Rbt.Library>
libRbt.so (2013.1, Build901 2013/11/27)

>  <Rbt.Parameter_File>
/export/apps/rDock/src/rDock_2013.1_src/data/scripts/dock_solv.prm

>  <Rbt.Receptor>
prm/pocket_docking_5.prm

>  <SCORE>
-6.65852

>  <SCORE.INTER>
-6.65852

>  <SCORE.INTER.CONST>
1

>  <SCORE.INTER.POLAR>
0

>  <SCORE.INTER.ROT>
0

>  <SCORE.INTER.SOLV>
15.2632

>  <SCORE.INTER.VDW>
-13.1268

>  <SCORE.INTER.norm>
-0.665852

>  <SCORE.INTRA>
0

>  <SCORE.INTRA.DIHEDRAL>
0

>  <SCORE.INTRA.DIHEDRAL.0>
0

>  <SCORE.INTRA.POLAR>
0

>  <SCORE.INTRA.POLAR.0>
0

>  <SCORE.INTRA.REPUL>
0

>  <SCORE.INTRA.REPUL.0>
0

>  <SCORE.INTRA.SOLV>
0

>  <SCORE.INTRA.SOLV.lig_0>
-47.9788

>  <SCORE.INTRA.VDW>
0

>  <SCORE.INTRA.VDW.0>
0

>  <SCORE.INTRA.norm>
0

>  <SCORE.RESTR>
0

>  <SCORE.RESTR.CAVITY>
0

>  <SCORE.RESTR.norm>
0

>  <SCORE.SYSTEM>
0

>  <SCORE.SYSTEM.CONST>
0

>  <SCORE.SYSTEM.DIHEDRAL>
0

>  <SCORE.SYSTEM.SOLV>
0

>  <SCORE.SYSTEM.norm>
0

>  <SCORE.heavy>
10

>  <SCORE.norm>
-0.665852

>  <RMSD>
2.974

$$$$
ligand
 OpenBabel02271912133D
libRbt.so/2013.1/901 2013/11/27
 10 11  0  0  0  0  0  0  0  0999 V2000
   12.4619   -4.4309    7.7273 C   0  0  1  0  0  0  0  0  0  0  0  0
   10.9955   -1.4682    6.8752 C   0  0  2  0  0  0  0  0  0  0  0  0
   11.8197   -2.5724    8.4716 C   0  0  2  0  0  0  0  0  0  0  0  0
   12.9844   -5.6593    7.6368 N   0  0  0  0  0  0  0  0  0  0  0  0
   10.5856   -1.0751    5.6732 N   0  0  0  0  0  0  0  0  0  0  0  0
   10.8999   -0.7357    7.9784 N   0  0  0  0  0  0  0  0  0  0  0  0
   12.3916   -3.7187    8.8464 N   0  0  0  0  0  0  0  0  0  0  0  0
   11.9481   -3.7233    6.7044 N   0  0  0  0  0  0  0  0  0  0  0  0
   11.3787   -1.3864    8.9182 N   0  0  0  0  0  0  0  0  0  0  0  0
   11.5753   -2.6292    7.1569 N   0  0  1  0  0  0  0  0  0  0  0  0
  1  4  1  6  0  0  0
  1  8  1  0  0  0  0
  1  7  1  0  0  0  0
  2  5  1  6  0  0  0
  2  6  1  0  0  0  0
  2 10  1  0  0  0  0
  3  7  1  1  0  0  0
  3 10  1  0  0  0  0
  3  9  1  0  0  0  0
  6  9  1  0  0  0  0
 10  8  1  1  0  0  0
M  END
>  <CHROM.1>
11.70162800,-2.73617711,7.59471637,0.23948917,1.12132357,-2.00891275

>  <Name>
ligand

>  <RI>
0

>  <Rbt.Current_Directory>
/home/itssahil/PROJECTS/Mol_Feturizer/Test_systems_manuscript/rnas/2xnw

>  <Rbt.Executable>
rbdock ($Id: //depot/dev/client3/rdock/2013.1/src/exe/rbdock.cxx#4 $)

>  <Rbt.Library>
libRbt.so (2013.1, Build901 2013/11/27)

>  <Rbt.Parameter_File>
/export/apps/rDock/src/rDock_2013.1_src/data/scripts/dock_solv.prm

>  <Rbt.Receptor>
prm/pocket_docking_6.prm

>  <SCORE>
-6.70887

>  <SCORE.INTER>
-6.70887

>  <SCORE.INTER.CONST>
1

>  <SCORE.INTER.POLAR>
0

>  <SCORE.INTER.ROT>
0

>  <SCORE.INTER.SOLV>
15.8208

>  <SCORE.INTER.VDW>
-13.3462

>  <SCORE.INTER.norm>
-0.670887

>  <SCORE.INTRA>
0

>  <SCORE.INTRA.DIHEDRAL>
0

>  <SCORE.INTRA.DIHEDRAL.0>
0

>  <SCORE.INTRA.POLAR>
0

>  <SCORE.INTRA.POLAR.0>
0

>  <SCORE.INTRA.REPUL>
0

>  <SCORE.INTRA.REPUL.0>
0

>  <SCORE.INTRA.SOLV>
0

>  <SCORE.INTRA.SOLV.lig_0>
-47.9788

>  <SCORE.INTRA.VDW>
0

>  <SCORE.INTRA.VDW.0>
0

>  <SCORE.INTRA.norm>
0

>  <SCORE.RESTR>
0

>  <SCORE.RESTR.CAVITY>
0

>  <SCORE.RESTR.norm>
0

>  <SCORE.SYSTEM>
0

>  <SCORE.SYSTEM.CONST>
0

>  <SCORE.SYSTEM.DIHEDRAL>
0

>  <SCORE.SYSTEM.SOLV>
0

>  <SCORE.SYSTEM.norm>
0

>  <SCORE.heavy>
10

>  <SCORE.norm>
-0.670887

>  <RMSD>
2.974

$$$$
ligand
 OpenBabel02271912133D
libRbt.so/2013.1/901 2013/11/27
 10 11  0  0  0  0  0  0  0  0999 V2000
   12.4658   -4.4314    7.7310 C   0  0  1  0  0  0  0  0  0  0  0  0
   10.9780   -1.4789    6.8802 C   0  0  2  0  0  0  0  0  0  0  0  0
   11.8340   -2.5675    8.4706 C   0  0  2  0  0  0  0  0  0  0  0  0
   12.9889   -5.6595    7.6417 N   0  0  0  0  0  0  0  0  0  0  0  0
   10.5450   -1.0973    5.6826 N   0  0  0  0  0  0  0  0  0  0  0  0
   10.9016   -0.7368    7.9785 N   0  0  0  0  0  0  0  0  0  0  0  0
   12.4150   -3.7093    8.8449 N   0  0  0  0  0  0  0  0  0  0  0  0
   11.9316   -3.7338    6.7116 N   0  0  0  0  0  0  0  0  0  0  0  0
   11.3991   -1.3782    8.9149 N   0  0  0  0  0  0  0  0  0  0  0  0
   11.5652   -2.6364    7.1613 N   0  0  1  0  0  0  0  0  0  0  0  0
  1  4  1  6  0  0  0
  1  8  1  0  0  0  0
  1  7  1  0  0  0  0
  2  5  1  6  0  0  0
  2  6  1  0  0  0  0
  2 10  1  0  0  0  0
  3  7  1  1  0  0  0
  3 10  1  0  0  0  0
  3  9  1  0  0  0  0
  6  9  1  0  0  0  0
 10  8  1  1  0  0  0
M  END
>  <CHROM.1>
11.69986241,-2.73922035,7.59760092,0.27576954,1.11137985,-2.05041063

>  <Name>
ligand

>  <RI>
0

>  <Rbt.Current_Directory>
/home/itssahil/PROJECTS/Mol_Feturizer/Test_systems_manuscript/rnas/2xnw

>  <Rbt.Executable>
rbdock ($Id: //depot/dev/client3/rdock/2013.1/src/exe/rbdock.cxx#4 $)

>  <Rbt.Library>
libRbt.so (2013.1, Build901 2013/11/27)

>  <Rbt.Parameter_File>
/export/apps/rDock/src/rDock_2013.1_src/data/scripts/dock_solv.prm

>  <Rbt.Receptor>
prm/pocket_docking_8.prm

>  <SCORE>
-6.71382

>  <SCORE.INTER>
-6.71382

>  <SCORE.INTER.CONST>
1

>  <SCORE.INTER.POLAR>
0

>  <SCORE.INTER.ROT>
0

>  <SCORE.INTER.SOLV>
15.6825

>  <SCORE.INTER.VDW>
-13.3034

>  <SCORE.INTER.norm>
-0.671382

>  <SCORE.INTRA>
0

>  <SCORE.INTRA.DIHEDRAL>
0

>  <SCORE.INTRA.DIHEDRAL.0>
0

>  <SCORE.INTRA.POLAR>
0

>  <SCORE.INTRA.POLAR.0>
0

>  <SCORE.INTRA.REPUL>
0

>  <SCORE.INTRA.REPUL.0>
0

>  <SCORE.INTRA.SOLV>
0

>  <SCORE.INTRA.SOLV.lig_0>
-47.9788

>  <SCORE.INTRA.VDW>
0

>  <SCORE.INTRA.VDW.0>
0

>  <SCORE.INTRA.norm>
0

>  <SCORE.RESTR>
0

>  <SCORE.RESTR.CAVITY>
0

>  <SCORE.RESTR.norm>
0

>  <SCORE.SYSTEM>
0

>  <SCORE.SYSTEM.CONST>
0

>  <SCORE.SYSTEM.DIHEDRAL>
0

>  <SCORE.SYSTEM.SOLV>
0

>  <SCORE.SYSTEM.norm>
0

>  <SCORE.heavy>
10

>  <SCORE.norm>
-0.671382

>  <RMSD>
2.974

$$$$
ligand
 OpenBabel02271912133D
libRbt.so/2013.1/901 2013/11/27
 10 11  0  0  0  0  0  0  0  0999 V2000
   12.5452   -4.4243    7.7322 C   0  0  1  0  0  0  0  0  0  0  0  0
   11.0022   -1.4977    6.8903 C   0  0  2  0  0  0  0  0  0  0  0  0
   11.8365   -2.5944    8.4867 C   0  0  2  0  0  0  0  0  0  0  0  0
   13.1058   -5.6353    7.6362 N   0  0  0  0  0  0  0  0  0  0  0  0
   10.5979   -1.1039    5.6867 N   0  0  0  0  0  0  0  0  0  0  0  0
   10.8687   -0.7808    7.9998 N   0  0  0  0  0  0  0  0  0  0  0  0
   12.4373   -3.7271    8.8577 N   0  0  0  0  0  0  0  0  0  0  0  0
   12.0249   -3.7212    6.7094 N   0  0  0  0  0  0  0  0  0  0  0  0
   11.3534   -1.4272    8.9395 N   0  0  0  0  0  0  0  0  0  0  0  0
   11.6127   -2.6439    7.1681 N   0  0  1  0  0  0  0  0  0  0  0  0
  1  4  1  6  0  0  0
  1  8  1  0  0  0  0
  1  7  1  0  0  0  0
  2  5  1  6  0  0  0
  2  6  1  0  0  0  0
  2 10  1  0  0  0  0
  3  7  1  1  0  0  0
  3 10  1  0  0  0  0
  3  9  1  0  0  0  0
  6  9  1  0  0  0  0
 10  8  1  1  0  0  0
M  END
>  <CHROM.1>
11.73594572,-2.75186648,7.60653422,0.18265156,1.09936100,-1.94709686

>  <Name>
ligand

>  <RI>
0

>  <Rbt.Current_Directory>
/home/itssahil/PROJECTS/Mol_Feturizer/Test_systems_manuscript/rnas/2xnw

>  <Rbt.Executable>
rbdock ($Id: //depot/dev/client3/rdock/2013.1/src/exe/rbdock.cxx#4 $)

>  <Rbt.Library>
libRbt.so (2013.1, Build901 2013/11/27)

>  <Rbt.Parameter_File>
/export/apps/rDock/src/rDock_2013.1_src/data/scripts/dock_solv.prm

>  <Rbt.Receptor>
prm/blind_docking_20.prm

>  <SCORE>
-6.67684

>  <SCORE.INTER>
-6.67684

>  <SCORE.INTER.CONST>
1

>  <SCORE.INTER.POLAR>
0

>  <SCORE.INTER.ROT>
0

>  <SCORE.INTER.SOLV>
15.3067

>  <SCORE.INTER.VDW>
-13.1535

>  <SCORE.INTER.norm>
-0.667684

>  <SCORE.INTRA>
0

>  <SCORE.INTRA.DIHEDRAL>
0

>  <SCORE.INTRA.DIHEDRAL.0>
0

>  <SCORE.INTRA.POLAR>
0

>  <SCORE.INTRA.POLAR.0>
0

>  <SCORE.INTRA.REPUL>
0

>  <SCORE.INTRA.REPUL.0>
0

>  <SCORE.INTRA.SOLV>
0

>  <SCORE.INTRA.SOLV.lig_0>
-47.9788

>  <SCORE.INTRA.VDW>
0

>  <SCORE.INTRA.VDW.0>
0

>  <SCORE.INTRA.norm>
0

>  <SCORE.RESTR>
0

>  <SCORE.RESTR.CAVITY>
0

>  <SCORE.RESTR.norm>
0

>  <SCORE.SYSTEM>
0

>  <SCORE.SYSTEM.CONST>
0

>  <SCORE.SYSTEM.DIHEDRAL>
0

>  <SCORE.SYSTEM.SOLV>
0

>  <SCORE.SYSTEM.norm>
0

>  <SCORE.heavy>
10

>  <SCORE.norm>
-0.667684

>  <RMSD>
2.975

$$$$
ligand
 OpenBabel02271912133D
libRbt.so/2013.1/901 2013/11/27
 10 11  0  0  0  0  0  0  0  0999 V2000
   12.4729   -4.4176    7.7385 C   0  0  1  0  0  0  0  0  0  0  0  0
   10.9594   -1.4664    6.9295 C   0  0  2  0  0  0  0  0  0  0  0  0
   11.8060   -2.5785    8.5087 C   0  0  2  0  0  0  0  0  0  0  0  0
   13.0132   -5.6368    7.6305 N   0  0  0  0  0  0  0  0  0  0  0  0
   10.5392   -1.0643    5.7341 N   0  0  0  0  0  0  0  0  0  0  0  0
   10.8572   -0.7496    8.0423 N   0  0  0  0  0  0  0  0  0  0  0  0
   12.3962   -3.7208    8.8668 N   0  0  0  0  0  0  0  0  0  0  0  0
   11.9447   -3.7049    6.7265 N   0  0  0  0  0  0  0  0  0  0  0  0
   11.3491   -1.4049    8.9720 N   0  0  0  0  0  0  0  0  0  0  0  0
   11.5574   -2.6222    7.1942 N   0  0  1  0  0  0  0  0  0  0  0  0
  1  4  1  6  0  0  0
  1  8  1  0  0  0  0
  1  7  1  0  0  0  0
  2  5  1  6  0  0  0
  2  6  1  0  0  0  0
  2 10  1  0  0  0  0
  3  7  1  1  0  0  0
  3 10  1  0  0  0  0
  3  9  1  0  0  0  0
  6  9  1  0  0  0  0
 10  8  1  1  0  0  0
M  END
>  <CHROM.1>
11.68699960,-2.73283837,7.63022058,0.23306769,1.10626822,-1.99043449

>  <Name>
ligand

>  <RI>
0

>  <Rbt.Current_Directory>
/home/itssahil/PROJECTS/Mol_Feturizer/Test_systems_manuscript/rnas/2xnw

>  <Rbt.Executable>
rbdock ($Id: //depot/dev/client3/rdock/2013.1/src/exe/rbdock.cxx#4 $)

>  <Rbt.Library>
libRbt.so (2013.1, Build901 2013/11/27)

>  <Rbt.Parameter_File>
/export/apps/rDock/src/rDock_2013.1_src/data/scripts/dock_solv.prm

>  <Rbt.Receptor>
prm/blind_docking_20.prm

>  <SCORE>
-6.68879

>  <SCORE.INTER>
-6.68879

>  <SCORE.INTER.CONST>
1

>  <SCORE.INTER.POLAR>
0

>  <SCORE.INTER.ROT>
0

>  <SCORE.INTER.SOLV>
15.5996

>  <SCORE.INTER.VDW>
-13.2591

>  <SCORE.INTER.norm>
-0.668879

>  <SCORE.INTRA>
0

>  <SCORE.INTRA.DIHEDRAL>
0

>  <SCORE.INTRA.DIHEDRAL.0>
0

>  <SCORE.INTRA.POLAR>
0

>  <SCORE.INTRA.POLAR.0>
0

>  <SCORE.INTRA.REPUL>
0

>  <SCORE.INTRA.REPUL.0>
0

>  <SCORE.INTRA.SOLV>
0

>  <SCORE.INTRA.SOLV.lig_0>
-47.9788

>  <SCORE.INTRA.VDW>
0

>  <SCORE.INTRA.VDW.0>
0

>  <SCORE.INTRA.norm>
0

>  <SCORE.RESTR>
0

>  <SCORE.RESTR.CAVITY>
0

>  <SCORE.RESTR.norm>
0

>  <SCORE.SYSTEM>
0

>  <SCORE.SYSTEM.CONST>
0

>  <SCORE.SYSTEM.DIHEDRAL>
0

>  <SCORE.SYSTEM.SOLV>
0

>  <SCORE.SYSTEM.norm>
0

>  <SCORE.heavy>
10

>  <SCORE.norm>
-0.668879

>  <RMSD>
2.975

$$$$
ligand
 OpenBabel02271912133D
libRbt.so/2013.1/901 2013/11/27
 10 11  0  0  0  0  0  0  0  0999 V2000
   12.4618   -4.4353    7.7286 C   0  0  1  0  0  0  0  0  0  0  0  0
   11.0009   -1.4693    6.8783 C   0  0  2  0  0  0  0  0  0  0  0  0
   11.8281   -2.5739    8.4729 C   0  0  2  0  0  0  0  0  0  0  0  0
   12.9803   -5.6653    7.6377 N   0  0  0  0  0  0  0  0  0  0  0  0
   10.5875   -1.0766    5.6774 N   0  0  0  0  0  0  0  0  0  0  0  0
   10.9119   -0.7351    7.9809 N   0  0  0  0  0  0  0  0  0  0  0  0
   12.3980   -3.7214    8.8471 N   0  0  0  0  0  0  0  0  0  0  0  0
   11.9461   -3.7275    6.7068 N   0  0  0  0  0  0  0  0  0  0  0  0
   11.3923   -1.3859    8.9197 N   0  0  0  0  0  0  0  0  0  0  0  0
   11.5783   -2.6317    7.1593 N   0  0  1  0  0  0  0  0  0  0  0  0
  1  4  1  6  0  0  0
  1  8  1  0  0  0  0
  1  7  1  0  0  0  0
  2  5  1  6  0  0  0
  2  6  1  0  0  0  0
  2 10  1  0  0  0  0
  3  7  1  1  0  0  0
  3 10  1  0  0  0  0
  3  9  1  0  0  0  0
  6  9  1  0  0  0  0
 10  8  1  1  0  0  0
M  END
>  <CHROM.1>
11.70606061,-2.73843886,7.59673942,0.25056167,1.12234882,-2.02021208

>  <Name>
ligand

>  <RI>
0

>  <Rbt.Current_Directory>
/home/itssahil/PROJECTS/Mol_Feturizer/Test_systems_manuscript/rnas/2xnw

>  <Rbt.Executable>
rbdock ($Id: //depot/dev/client3/rdock/2013.1/src/exe/rbdock.cxx#4 $)

>  <Rbt.Library>
libRbt.so (2013.1, Build901 2013/11/27)

>  <Rbt.Parameter_File>
/export/apps/rDock/src/rDock_2013.1_src/data/scripts/dock_solv.prm

>  <Rbt.Receptor>
prm/blind_docking_60.prm

>  <SCORE>
-6.71159

>  <SCORE.INTER>
-6.71159

>  <SCORE.INTER.CONST>
1

>  <SCORE.INTER.POLAR>
0

>  <SCORE.INTER.ROT>
0

>  <SCORE.INTER.SOLV>
15.8235

>  <SCORE.INTER.VDW>
-13.3489

>  <SCORE.INTER.norm>
-0.671159

>  <SCORE.INTRA>
0

>  <SCORE.INTRA.DIHEDRAL>
0

>  <SCORE.INTRA.DIHEDRAL.0>
0

>  <SCORE.INTRA.POLAR>
0

>  <SCORE.INTRA.POLAR.0>
0

>  <SCORE.INTRA.REPUL>
0

>  <SCORE.INTRA.REPUL.0>
0

>  <SCORE.INTRA.SOLV>
0

>  <SCORE.INTRA.SOLV.lig_0>
-47.9788

>  <SCORE.INTRA.VDW>
0

>  <SCORE.INTRA.VDW.0>
0

>  <SCORE.INTRA.norm>
0

>  <SCORE.RESTR>
0

>  <SCORE.RESTR.CAVITY>
0

>  <SCORE.RESTR.norm>
0

>  <SCORE.SYSTEM>
0

>  <SCORE.SYSTEM.CONST>
0

>  <SCORE.SYSTEM.DIHEDRAL>
0

>  <SCORE.SYSTEM.SOLV>
0

>  <SCORE.SYSTEM.norm>
0

>  <SCORE.heavy>
10

>  <SCORE.norm>
-0.671159

>  <RMSD>
2.975

$$$$
ligand
 OpenBabel02271912133D
libRbt.so/2013.1/901 2013/11/27
 10 11  0  0  0  0  0  0  0  0999 V2000
   12.4580   -4.4313    7.7229 C   0  0  1  0  0  0  0  0  0  0  0  0
   11.0032   -1.4591    6.8837 C   0  0  2  0  0  0  0  0  0  0  0  0
   11.8458   -2.5639    8.4701 C   0  0  2  0  0  0  0  0  0  0  0  0
   12.9678   -5.6647    7.6286 N   0  0  0  0  0  0  0  0  0  0  0  0
   10.5756   -1.0675    5.6875 N   0  0  0  0  0  0  0  0  0  0  0  0
   10.9338   -0.7211    7.9852 N   0  0  0  0  0  0  0  0  0  0  0  0
   12.4139   -3.7137    8.8399 N   0  0  0  0  0  0  0  0  0  0  0  0
   11.9324   -3.7235    6.7061 N   0  0  0  0  0  0  0  0  0  0  0  0
   11.4234   -1.3720    8.9193 N   0  0  0  0  0  0  0  0  0  0  0  0
   11.5775   -2.6241    7.1602 N   0  0  1  0  0  0  0  0  0  0  0  0
  1  4  1  6  0  0  0
  1  8  1  0  0  0  0
  1  7  1  0  0  0  0
  2  5  1  6  0  0  0
  2  6  1  0  0  0  0
  2 10  1  0  0  0  0
  3  7  1  1  0  0  0
  3 10  1  0  0  0  0
  3  9  1  0  0  0  0
  6  9  1  0  0  0  0
 10  8  1  1  0  0  0
M  END
>  <CHROM.1>
11.71064216,-2.73033133,7.59624337,0.28528609,1.12147573,-2.05452815

>  <Name>
ligand

>  <RI>
0

>  <Rbt.Current_Directory>
/home/itssahil/PROJECTS/Mol_Feturizer/Test_systems_manuscript/rnas/2xnw

>  <Rbt.Executable>
rbdock ($Id: //depot/dev/client3/rdock/2013.1/src/exe/rbdock.cxx#4 $)

>  <Rbt.Library>
libRbt.so (2013.1, Build901 2013/11/27)

>  <Rbt.Parameter_File>
/export/apps/rDock/src/rDock_2013.1_src/data/scripts/dock_solv.prm

>  <Rbt.Receptor>
prm/pocket_docking_4.prm

>  <SCORE>
-6.71753

>  <SCORE.INTER>
-6.71753

>  <SCORE.INTER.CONST>
1

>  <SCORE.INTER.POLAR>
0

>  <SCORE.INTER.ROT>
0

>  <SCORE.INTER.SOLV>
15.8343

>  <SCORE.INTER.VDW>
-13.3564

>  <SCORE.INTER.norm>
-0.671753

>  <SCORE.INTRA>
0

>  <SCORE.INTRA.DIHEDRAL>
0

>  <SCORE.INTRA.DIHEDRAL.0>
0

>  <SCORE.INTRA.POLAR>
0

>  <SCORE.INTRA.POLAR.0>
0

>  <SCORE.INTRA.REPUL>
0

>  <SCORE.INTRA.REPUL.0>
0

>  <SCORE.INTRA.SOLV>
0

>  <SCORE.INTRA.SOLV.lig_0>
-47.9788

>  <SCORE.INTRA.VDW>
0

>  <SCORE.INTRA.VDW.0>
0

>  <SCORE.INTRA.norm>
0

>  <SCORE.RESTR>
0

>  <SCORE.RESTR.CAVITY>
0

>  <SCORE.RESTR.norm>
0

>  <SCORE.SYSTEM>
0

>  <SCORE.SYSTEM.CONST>
0

>  <SCORE.SYSTEM.DIHEDRAL>
0

>  <SCORE.SYSTEM.SOLV>
0

>  <SCORE.SYSTEM.norm>
0

>  <SCORE.heavy>
10

>  <SCORE.norm>
-0.671753

>  <RMSD>
2.975

$$$$
ligand
 OpenBabel02271912133D
libRbt.so/2013.1/901 2013/11/27
 10 11  0  0  0  0  0  0  0  0999 V2000
   12.4634   -4.4242    7.7240 C   0  0  1  0  0  0  0  0  0  0  0  0
   10.9910   -1.4557    6.9028 C   0  0  2  0  0  0  0  0  0  0  0  0
   11.8718   -2.5516    8.4746 C   0  0  2  0  0  0  0  0  0  0  0  0
   12.9695   -5.6588    7.6248 N   0  0  0  0  0  0  0  0  0  0  0  0
   10.5340   -1.0712    5.7152 N   0  0  0  0  0  0  0  0  0  0  0  0
   10.9498   -0.7108    8.0010 N   0  0  0  0  0  0  0  0  0  0  0  0
   12.4479   -3.6996    8.8372 N   0  0  0  0  0  0  0  0  0  0  0  0
   11.9133   -3.7222    6.7162 N   0  0  0  0  0  0  0  0  0  0  0  0
   11.4619   -1.3564    8.9266 N   0  0  0  0  0  0  0  0  0  0  0  0
   11.5709   -2.6197    7.1722 N   0  0  1  0  0  0  0  0  0  0  0  0
  1  4  1  6  0  0  0
  1  8  1  0  0  0  0
  1  7  1  0  0  0  0
  2  5  1  6  0  0  0
  2  6  1  0  0  0  0
  2 10  1  0  0  0  0
  3  7  1  1  0  0  0
  3 10  1  0  0  0  0
  3  9  1  0  0  0  0
  6  9  1  0  0  0  0
 10  8  1  1  0  0  0
M  END
>  <CHROM.1>
11.71477589,-2.72329621,7.60538319,0.33604844,1.11019018,-2.10640041

>  <Name>
ligand

>  <RI>
0

>  <Rbt.Current_Directory>
/home/itssahil/PROJECTS/Mol_Feturizer/Test_systems_manuscript/rnas/2xnw

>  <Rbt.Executable>
rbdock ($Id: //depot/dev/client3/rdock/2013.1/src/exe/rbdock.cxx#4 $)

>  <Rbt.Library>
libRbt.so (2013.1, Build901 2013/11/27)

>  <Rbt.Parameter_File>
/export/apps/rDock/src/rDock_2013.1_src/data/scripts/dock_solv.prm

>  <Rbt.Receptor>
prm/pocket_docking_4.prm

>  <SCORE>
-6.70432

>  <SCORE.INTER>
-6.70432

>  <SCORE.INTER.CONST>
1

>  <SCORE.INTER.POLAR>
0

>  <SCORE.INTER.ROT>
0

>  <SCORE.INTER.SOLV>
15.7033

>  <SCORE.INTER.VDW>
-13.304

>  <SCORE.INTER.norm>
-0.670432

>  <SCORE.INTRA>
0

>  <SCORE.INTRA.DIHEDRAL>
0

>  <SCORE.INTRA.DIHEDRAL.0>
0

>  <SCORE.INTRA.POLAR>
0

>  <SCORE.INTRA.POLAR.0>
0

>  <SCORE.INTRA.REPUL>
0

>  <SCORE.INTRA.REPUL.0>
0

>  <SCORE.INTRA.SOLV>
0

>  <SCORE.INTRA.SOLV.lig_0>
-47.9788

>  <SCORE.INTRA.VDW>
0

>  <SCORE.INTRA.VDW.0>
0

>  <SCORE.INTRA.norm>
0

>  <SCORE.RESTR>
0

>  <SCORE.RESTR.CAVITY>
0

>  <SCORE.RESTR.norm>
0

>  <SCORE.SYSTEM>
0

>  <SCORE.SYSTEM.CONST>
0

>  <SCORE.SYSTEM.DIHEDRAL>
0

>  <SCORE.SYSTEM.SOLV>
0

>  <SCORE.SYSTEM.norm>
0

>  <SCORE.heavy>
10

>  <SCORE.norm>
-0.670432

>  <RMSD>
2.975

$$$$
ligand
 OpenBabel02271912133D
libRbt.so/2013.1/901 2013/11/27
 10 11  0  0  0  0  0  0  0  0999 V2000
   12.4607   -4.4286    7.7230 C   0  0  1  0  0  0  0  0  0  0  0  0
   10.9799   -1.4709    6.8781 C   0  0  2  0  0  0  0  0  0  0  0  0
   11.8124   -2.5737    8.4711 C   0  0  2  0  0  0  0  0  0  0  0  0
   12.9881   -5.6546    7.6297 N   0  0  0  0  0  0  0  0  0  0  0  0
   10.5656   -1.0780    5.6776 N   0  0  0  0  0  0  0  0  0  0  0  0
   10.8838   -0.7402    7.9825 N   0  0  0  0  0  0  0  0  0  0  0  0
   12.3899   -3.7181    8.8432 N   0  0  0  0  0  0  0  0  0  0  0  0
   11.9415   -3.7218    6.7022 N   0  0  0  0  0  0  0  0  0  0  0  0
   11.3675   -1.3901    8.9203 N   0  0  0  0  0  0  0  0  0  0  0  0
   11.5652   -2.6299    7.1569 N   0  0  1  0  0  0  0  0  0  0  0  0
  1  4  1  6  0  0  0
  1  8  1  0  0  0  0
  1  7  1  0  0  0  0
  2  5  1  6  0  0  0
  2  6  1  0  0  0  0
  2 10  1  0  0  0  0
  3  7  1  1  0  0  0
  3 10  1  0  0  0  0
  3  9  1  0  0  0  0
  6  9  1  0  0  0  0
 10  8  1  1  0  0  0
M  END
>  <CHROM.1>
11.69297550,-2.73684219,7.59433225,0.24026041,1.11654995,-2.00831931

>  <Name>
ligand

>  <RI>
0

>  <Rbt.Current_Directory>
/home/itssahil/PROJECTS/Mol_Feturizer/Test_systems_manuscript/rnas/2xnw

>  <Rbt.Executable>
rbdock ($Id: //depot/dev/client3/rdock/2013.1/src/exe/rbdock.cxx#4 $)

>  <Rbt.Library>
libRbt.so (2013.1, Build901 2013/11/27)

>  <Rbt.Parameter_File>
/export/apps/rDock/src/rDock_2013.1_src/data/scripts/dock_solv.prm

>  <Rbt.Receptor>
prm/pocket_docking_5.prm

>  <SCORE>
-6.7071

>  <SCORE.INTER>
-6.7071

>  <SCORE.INTER.CONST>
1

>  <SCORE.INTER.POLAR>
0

>  <SCORE.INTER.ROT>
0

>  <SCORE.INTER.SOLV>
15.7623

>  <SCORE.INTER.VDW>
-13.3255

>  <SCORE.INTER.norm>
-0.67071

>  <SCORE.INTRA>
0

>  <SCORE.INTRA.DIHEDRAL>
0

>  <SCORE.INTRA.DIHEDRAL.0>
0

>  <SCORE.INTRA.POLAR>
0

>  <SCORE.INTRA.POLAR.0>
0

>  <SCORE.INTRA.REPUL>
0

>  <SCORE.INTRA.REPUL.0>
0

>  <SCORE.INTRA.SOLV>
0

>  <SCORE.INTRA.SOLV.lig_0>
-47.9788

>  <SCORE.INTRA.VDW>
0

>  <SCORE.INTRA.VDW.0>
0

>  <SCORE.INTRA.norm>
0

>  <SCORE.RESTR>
0

>  <SCORE.RESTR.CAVITY>
0

>  <SCORE.RESTR.norm>
0

>  <SCORE.SYSTEM>
0

>  <SCORE.SYSTEM.CONST>
0

>  <SCORE.SYSTEM.DIHEDRAL>
0

>  <SCORE.SYSTEM.SOLV>
0

>  <SCORE.SYSTEM.norm>
0

>  <SCORE.heavy>
10

>  <SCORE.norm>
-0.67071

>  <RMSD>
2.975

$$$$
ligand
 OpenBabel02271912133D
libRbt.so/2013.1/901 2013/11/27
 10 11  0  0  0  0  0  0  0  0999 V2000
   12.4609   -4.4309    7.7248 C   0  0  1  0  0  0  0  0  0  0  0  0
   10.9913   -1.4646    6.8905 C   0  0  2  0  0  0  0  0  0  0  0  0
   11.8664   -2.5563    8.4683 C   0  0  2  0  0  0  0  0  0  0  0  0
   12.9674   -5.6656    7.6306 N   0  0  0  0  0  0  0  0  0  0  0  0
   10.5387   -1.0831    5.7002 N   0  0  0  0  0  0  0  0  0  0  0  0
   10.9461   -0.7168    7.9867 N   0  0  0  0  0  0  0  0  0  0  0  0
   12.4413   -3.7034    8.8361 N   0  0  0  0  0  0  0  0  0  0  0  0
   11.9144   -3.7315    6.7132 N   0  0  0  0  0  0  0  0  0  0  0  0
   11.4548   -1.3600    8.9158 N   0  0  0  0  0  0  0  0  0  0  0  0
   11.5703   -2.6278    7.1650 N   0  0  1  0  0  0  0  0  0  0  0  0
  1  4  1  6  0  0  0
  1  8  1  0  0  0  0
  1  7  1  0  0  0  0
  2  5  1  6  0  0  0
  2  6  1  0  0  0  0
  2 10  1  0  0  0  0
  3  7  1  1  0  0  0
  3 10  1  0  0  0  0
  3  9  1  0  0  0  0
  6  9  1  0  0  0  0
 10  8  1  1  0  0  0
M  END
>  <CHROM.1>
11.71258187,-2.73030101,7.59903148,0.32883260,1.11201848,-2.10250325

>  <Name>
ligand

>  <RI>
0

>  <Rbt.Current_Directory>
/home/itssahil/PROJECTS/Mol_Feturizer/Test_systems_manuscript/rnas/2xnw

>  <Rbt.Executable>
rbdock ($Id: //depot/dev/client3/rdock/2013.1/src/exe/rbdock.cxx#4 $)

>  <Rbt.Library>
libRbt.so (2013.1, Build901 2013/11/27)

>  <Rbt.Parameter_File>
/export/apps/rDock/src/rDock_2013.1_src/data/scripts/dock_solv.prm

>  <Rbt.Receptor>
prm/pocket_docking_5.prm

>  <SCORE>
-6.72318

>  <SCORE.INTER>
-6.72318

>  <SCORE.INTER.CONST>
1

>  <SCORE.INTER.POLAR>
0

>  <SCORE.INTER.ROT>
0

>  <SCORE.INTER.SOLV>
15.719

>  <SCORE.INTER.VDW>
-13.3218

>  <SCORE.INTER.norm>
-0.672318

>  <SCORE.INTRA>
0

>  <SCORE.INTRA.DIHEDRAL>
0

>  <SCORE.INTRA.DIHEDRAL.0>
0

>  <SCORE.INTRA.POLAR>
0

>  <SCORE.INTRA.POLAR.0>
0

>  <SCORE.INTRA.REPUL>
0

>  <SCORE.INTRA.REPUL.0>
0

>  <SCORE.INTRA.SOLV>
0

>  <SCORE.INTRA.SOLV.lig_0>
-47.9788

>  <SCORE.INTRA.VDW>
0

>  <SCORE.INTRA.VDW.0>
0

>  <SCORE.INTRA.norm>
0

>  <SCORE.RESTR>
0

>  <SCORE.RESTR.CAVITY>
0

>  <SCORE.RESTR.norm>
0

>  <SCORE.SYSTEM>
0

>  <SCORE.SYSTEM.CONST>
0

>  <SCORE.SYSTEM.DIHEDRAL>
0

>  <SCORE.SYSTEM.SOLV>
0

>  <SCORE.SYSTEM.norm>
0

>  <SCORE.heavy>
10

>  <SCORE.norm>
-0.672318

>  <RMSD>
2.975

$$$$
ligand
 OpenBabel02271912133D
libRbt.so/2013.1/901 2013/11/27
 10 11  0  0  0  0  0  0  0  0999 V2000
   12.4617   -4.4387    7.7308 C   0  0  1  0  0  0  0  0  0  0  0  0
   11.0119   -1.4661    6.8844 C   0  0  2  0  0  0  0  0  0  0  0  0
   11.8491   -2.5699    8.4743 C   0  0  2  0  0  0  0  0  0  0  0  0
   12.9706   -5.6726    7.6393 N   0  0  0  0  0  0  0  0  0  0  0  0
   10.5879   -1.0755    5.6865 N   0  0  0  0  0  0  0  0  0  0  0  0
   10.9401   -0.7269    7.9848 N   0  0  0  0  0  0  0  0  0  0  0  0
   12.4152   -3.7198    8.8469 N   0  0  0  0  0  0  0  0  0  0  0  0
   11.9395   -3.7316    6.7118 N   0  0  0  0  0  0  0  0  0  0  0  0
   11.4265   -1.3772    8.9209 N   0  0  0  0  0  0  0  0  0  0  0  0
   11.5844   -2.6314    7.1637 N   0  0  1  0  0  0  0  0  0  0  0  0
  1  4  1  6  0  0  0
  1  8  1  0  0  0  0
  1  7  1  0  0  0  0
  2  5  1  6  0  0  0
  2  6  1  0  0  0  0
  2 10  1  0  0  0  0
  3  7  1  1  0  0  0
  3 10  1  0  0  0  0
  3  9  1  0  0  0  0
  6  9  1  0  0  0  0
 10  8  1  1  0  0  0
M  END
>  <CHROM.1>
11.71620494,-2.73722487,7.60022779,0.28067379,1.12353659,-2.05149284

>  <Name>
ligand

>  <RI>
0

>  <Rbt.Current_Directory>
/home/itssahil/PROJECTS/Mol_Feturizer/Test_systems_manuscript/rnas/2xnw

>  <Rbt.Executable>
rbdock ($Id: //depot/dev/client3/rdock/2013.1/src/exe/rbdock.cxx#4 $)

>  <Rbt.Library>
libRbt.so (2013.1, Build901 2013/11/27)

>  <Rbt.Parameter_File>
/export/apps/rDock/src/rDock_2013.1_src/data/scripts/dock_solv.prm

>  <Rbt.Receptor>
prm/pocket_docking_6.prm

>  <SCORE>
-6.71694

>  <SCORE.INTER>
-6.71694

>  <SCORE.INTER.CONST>
1

>  <SCORE.INTER.POLAR>
0

>  <SCORE.INTER.ROT>
0

>  <SCORE.INTER.SOLV>
15.8349

>  <SCORE.INTER.VDW>
-13.3563

>  <SCORE.INTER.norm>
-0.671694

>  <SCORE.INTRA>
0

>  <SCORE.INTRA.DIHEDRAL>
0

>  <SCORE.INTRA.DIHEDRAL.0>
0

>  <SCORE.INTRA.POLAR>
0

>  <SCORE.INTRA.POLAR.0>
0

>  <SCORE.INTRA.REPUL>
0

>  <SCORE.INTRA.REPUL.0>
0

>  <SCORE.INTRA.SOLV>
0

>  <SCORE.INTRA.SOLV.lig_0>
-47.9788

>  <SCORE.INTRA.VDW>
0

>  <SCORE.INTRA.VDW.0>
0

>  <SCORE.INTRA.norm>
0

>  <SCORE.RESTR>
0

>  <SCORE.RESTR.CAVITY>
0

>  <SCORE.RESTR.norm>
0

>  <SCORE.SYSTEM>
0

>  <SCORE.SYSTEM.CONST>
0

>  <SCORE.SYSTEM.DIHEDRAL>
0

>  <SCORE.SYSTEM.SOLV>
0

>  <SCORE.SYSTEM.norm>
0

>  <SCORE.heavy>
10

>  <SCORE.norm>
-0.671694

>  <RMSD>
2.975

$$$$
ligand
 OpenBabel02271912133D
libRbt.so/2013.1/901 2013/11/27
 10 11  0  0  0  0  0  0  0  0999 V2000
   12.4632   -4.4315    7.7281 C   0  0  1  0  0  0  0  0  0  0  0  0
   10.9822   -1.4773    6.8717 C   0  0  2  0  0  0  0  0  0  0  0  0
   11.7881   -2.5856    8.4746 C   0  0  2  0  0  0  0  0  0  0  0  0
   12.9999   -5.6537    7.6379 N   0  0  0  0  0  0  0  0  0  0  0  0
   10.5905   -1.0790    5.6653 N   0  0  0  0  0  0  0  0  0  0  0  0
   10.8587   -0.7545    7.9785 N   0  0  0  0  0  0  0  0  0  0  0  0
   12.3648   -3.7289    8.8512 N   0  0  0  0  0  0  0  0  0  0  0  0
   11.9610   -3.7212    6.7013 N   0  0  0  0  0  0  0  0  0  0  0  0
   11.3266   -1.4076    8.9220 N   0  0  0  0  0  0  0  0  0  0  0  0
   11.5686   -2.6345    7.1551 N   0  0  1  0  0  0  0  0  0  0  0  0
  1  4  1  6  0  0  0
  1  8  1  0  0  0  0
  1  7  1  0  0  0  0
  2  5  1  6  0  0  0
  2  6  1  0  0  0  0
  2 10  1  0  0  0  0
  3  7  1  1  0  0  0
  3 10  1  0  0  0  0
  3  9  1  0  0  0  0
  6  9  1  0  0  0  0
 10  8  1  1  0  0  0
M  END
>  <CHROM.1>
11.68793876,-2.74364976,7.59442067,0.19103673,1.11934183,-1.95753124

>  <Name>
ligand

>  <RI>
0

>  <Rbt.Current_Directory>
/home/itssahil/PROJECTS/Mol_Feturizer/Test_systems_manuscript/rnas/2xnw

>  <Rbt.Executable>
rbdock ($Id: //depot/dev/client3/rdock/2013.1/src/exe/rbdock.cxx#4 $)

>  <Rbt.Library>
libRbt.so (2013.1, Build901 2013/11/27)

>  <Rbt.Parameter_File>
/export/apps/rDock/src/rDock_2013.1_src/data/scripts/dock_solv.prm

>  <Rbt.Receptor>
prm/pocket_docking_6.prm

>  <SCORE>
-6.68934

>  <SCORE.INTER>
-6.68934

>  <SCORE.INTER.CONST>
1

>  <SCORE.INTER.POLAR>
0

>  <SCORE.INTER.ROT>
0

>  <SCORE.INTER.SOLV>
15.7974

>  <SCORE.INTER.VDW>
-13.3253

>  <SCORE.INTER.norm>
-0.668934

>  <SCORE.INTRA>
0

>  <SCORE.INTRA.DIHEDRAL>
0

>  <SCORE.INTRA.DIHEDRAL.0>
0

>  <SCORE.INTRA.POLAR>
0

>  <SCORE.INTRA.POLAR.0>
0

>  <SCORE.INTRA.REPUL>
0

>  <SCORE.INTRA.REPUL.0>
0

>  <SCORE.INTRA.SOLV>
0

>  <SCORE.INTRA.SOLV.lig_0>
-47.9788

>  <SCORE.INTRA.VDW>
0

>  <SCORE.INTRA.VDW.0>
0

>  <SCORE.INTRA.norm>
0

>  <SCORE.RESTR>
0

>  <SCORE.RESTR.CAVITY>
0

>  <SCORE.RESTR.norm>
0

>  <SCORE.SYSTEM>
0

>  <SCORE.SYSTEM.CONST>
0

>  <SCORE.SYSTEM.DIHEDRAL>
0

>  <SCORE.SYSTEM.SOLV>
0

>  <SCORE.SYSTEM.norm>
0

>  <SCORE.heavy>
10

>  <SCORE.norm>
-0.668934

>  <RMSD>
2.975

$$$$
ligand
 OpenBabel02271912133D
libRbt.so/2013.1/901 2013/11/27
 10 11  0  0  0  0  0  0  0  0999 V2000
   12.4672   -4.4317    7.7325 C   0  0  1  0  0  0  0  0  0  0  0  0
   10.9922   -1.4706    6.8896 C   0  0  2  0  0  0  0  0  0  0  0  0
   11.7942   -2.5886    8.4877 C   0  0  2  0  0  0  0  0  0  0  0  0
   13.0020   -5.6543    7.6366 N   0  0  0  0  0  0  0  0  0  0  0  0
   10.6028   -1.0653    5.6849 N   0  0  0  0  0  0  0  0  0  0  0  0
   10.8684   -0.7535    8.0001 N   0  0  0  0  0  0  0  0  0  0  0  0
   12.3685   -3.7348    8.8591 N   0  0  0  0  0  0  0  0  0  0  0  0
   11.9676   -3.7152    6.7087 N   0  0  0  0  0  0  0  0  0  0  0  0
   11.3341   -1.4123    8.9407 N   0  0  0  0  0  0  0  0  0  0  0  0
   11.5764   -2.6303    7.1678 N   0  0  1  0  0  0  0  0  0  0  0  0
  1  4  1  6  0  0  0
  1  8  1  0  0  0  0
  1  7  1  0  0  0  0
  2  5  1  6  0  0  0
  2  6  1  0  0  0  0
  2 10  1  0  0  0  0
  3  7  1  1  0  0  0
  3 10  1  0  0  0  0
  3  9  1  0  0  0  0
  6  9  1  0  0  0  0
 10  8  1  1  0  0  0
M  END
>  <CHROM.1>
11.69493739,-2.74188230,7.60664048,0.18962726,1.12136578,-1.95100996

>  <Name>
ligand

>  <RI>
0

>  <Rbt.Current_Directory>
/home/itssahil/PROJECTS/Mol_Feturizer/Test_systems_manuscript/rnas/2xnw

>  <Rbt.Executable>
rbdock ($Id: //depot/dev/client3/rdock/2013.1/src/exe/rbdock.cxx#4 $)

>  <Rbt.Library>
libRbt.so (2013.1, Build901 2013/11/27)

>  <Rbt.Parameter_File>
/export/apps/rDock/src/rDock_2013.1_src/data/scripts/dock_solv.prm

>  <Rbt.Receptor>
prm/pocket_docking_6.prm

>  <SCORE>
-6.67269

>  <SCORE.INTER>
-6.67269

>  <SCORE.INTER.CONST>
1

>  <SCORE.INTER.POLAR>
0

>  <SCORE.INTER.ROT>
0

>  <SCORE.INTER.SOLV>
15.8035

>  <SCORE.INTER.VDW>
-13.3163

>  <SCORE.INTER.norm>
-0.667269

>  <SCORE.INTRA>
0

>  <SCORE.INTRA.DIHEDRAL>
0

>  <SCORE.INTRA.DIHEDRAL.0>
0

>  <SCORE.INTRA.POLAR>
0

>  <SCORE.INTRA.POLAR.0>
0

>  <SCORE.INTRA.REPUL>
0

>  <SCORE.INTRA.REPUL.0>
0

>  <SCORE.INTRA.SOLV>
0

>  <SCORE.INTRA.SOLV.lig_0>
-47.9788

>  <SCORE.INTRA.VDW>
0

>  <SCORE.INTRA.VDW.0>
0

>  <SCORE.INTRA.norm>
0

>  <SCORE.RESTR>
0

>  <SCORE.RESTR.CAVITY>
0

>  <SCORE.RESTR.norm>
0

>  <SCORE.SYSTEM>
0

>  <SCORE.SYSTEM.CONST>
0

>  <SCORE.SYSTEM.DIHEDRAL>
0

>  <SCORE.SYSTEM.SOLV>
0

>  <SCORE.SYSTEM.norm>
0

>  <SCORE.heavy>
10

>  <SCORE.norm>
-0.667269

>  <RMSD>
2.975

$$$$
ligand
 OpenBabel02271912133D
libRbt.so/2013.1/901 2013/11/27
 10 11  0  0  0  0  0  0  0  0999 V2000
   12.4600   -4.4257    7.7212 C   0  0  1  0  0  0  0  0  0  0  0  0
   10.9861   -1.4614    6.8875 C   0  0  2  0  0  0  0  0  0  0  0  0
   11.8606   -2.5531    8.4657 C   0  0  2  0  0  0  0  0  0  0  0  0
   12.9691   -5.6593    7.6266 N   0  0  0  0  0  0  0  0  0  0  0  0
   10.5347   -1.0796    5.6968 N   0  0  0  0  0  0  0  0  0  0  0  0
   10.9374   -0.7149    7.9844 N   0  0  0  0  0  0  0  0  0  0  0  0
   12.4370   -3.6994    8.8333 N   0  0  0  0  0  0  0  0  0  0  0  0
   11.9139   -3.7263    6.7094 N   0  0  0  0  0  0  0  0  0  0  0  0
   11.4458   -1.3580    8.9137 N   0  0  0  0  0  0  0  0  0  0  0  0
   11.5668   -2.6237    7.1618 N   0  0  1  0  0  0  0  0  0  0  0  0
  1  4  1  6  0  0  0
  1  8  1  0  0  0  0
  1  7  1  0  0  0  0
  2  5  1  6  0  0  0
  2  6  1  0  0  0  0
  2 10  1  0  0  0  0
  3  7  1  1  0  0  0
  3 10  1  0  0  0  0
  3  9  1  0  0  0  0
  6  9  1  0  0  0  0
 10  8  1  1  0  0  0
M  END
>  <CHROM.1>
11.70857309,-2.72642544,7.59597638,0.32322633,1.11118977,-2.09644068

>  <Name>
ligand

>  <RI>
0

>  <Rbt.Current_Directory>
/home/itssahil/PROJECTS/Mol_Feturizer/Test_systems_manuscript/rnas/2xnw

>  <Rbt.Executable>
rbdock ($Id: //depot/dev/client3/rdock/2013.1/src/exe/rbdock.cxx#4 $)

>  <Rbt.Library>
libRbt.so (2013.1, Build901 2013/11/27)

>  <Rbt.Parameter_File>
/export/apps/rDock/src/rDock_2013.1_src/data/scripts/dock_solv.prm

>  <Rbt.Receptor>
prm/pocket_docking_7.prm

>  <SCORE>
-6.72235

>  <SCORE.INTER>
-6.72235

>  <SCORE.INTER.CONST>
1

>  <SCORE.INTER.POLAR>
0

>  <SCORE.INTER.ROT>
0

>  <SCORE.INTER.SOLV>
15.7202

>  <SCORE.INTER.VDW>
-13.3216

>  <SCORE.INTER.norm>
-0.672235

>  <SCORE.INTRA>
0

>  <SCORE.INTRA.DIHEDRAL>
0

>  <SCORE.INTRA.DIHEDRAL.0>
0

>  <SCORE.INTRA.POLAR>
0

>  <SCORE.INTRA.POLAR.0>
0

>  <SCORE.INTRA.REPUL>
0

>  <SCORE.INTRA.REPUL.0>
0

>  <SCORE.INTRA.SOLV>
0

>  <SCORE.INTRA.SOLV.lig_0>
-47.9788

>  <SCORE.INTRA.VDW>
0

>  <SCORE.INTRA.VDW.0>
0

>  <SCORE.INTRA.norm>
0

>  <SCORE.RESTR>
0

>  <SCORE.RESTR.CAVITY>
0

>  <SCORE.RESTR.norm>
0

>  <SCORE.SYSTEM>
0

>  <SCORE.SYSTEM.CONST>
0

>  <SCORE.SYSTEM.DIHEDRAL>
0

>  <SCORE.SYSTEM.SOLV>
0

>  <SCORE.SYSTEM.norm>
0

>  <SCORE.heavy>
10

>  <SCORE.norm>
-0.672235

>  <RMSD>
2.975

$$$$
ligand
 OpenBabel02271912133D
libRbt.so/2013.1/901 2013/11/27
 10 11  0  0  0  0  0  0  0  0999 V2000
   12.6005   -4.4076    7.7477 C   0  0  1  0  0  0  0  0  0  0  0  0
   11.0094   -1.4958    6.9449 C   0  0  2  0  0  0  0  0  0  0  0  0
   11.9041   -2.5793    8.5174 C   0  0  2  0  0  0  0  0  0  0  0  0
   13.1663   -5.6151    7.6384 N   0  0  0  0  0  0  0  0  0  0  0  0
   10.5625   -1.1103    5.7537 N   0  0  0  0  0  0  0  0  0  0  0  0
   10.9077   -0.7748    8.0551 N   0  0  0  0  0  0  0  0  0  0  0  0
   12.5250   -3.7060    8.8731 N   0  0  0  0  0  0  0  0  0  0  0  0
   12.0414   -3.7129    6.7398 N   0  0  0  0  0  0  0  0  0  0  0  0
   11.4280   -1.4134    8.9809 N   0  0  0  0  0  0  0  0  0  0  0  0
   11.6370   -2.6364    7.2072 N   0  0  1  0  0  0  0  0  0  0  0  0
  1  4  1  6  0  0  0
  1  8  1  0  0  0  0
  1  7  1  0  0  0  0
  2  5  1  6  0  0  0
  2  6  1  0  0  0  0
  2 10  1  0  0  0  0
  3  7  1  1  0  0  0
  3 10  1  0  0  0  0
  3  9  1  0  0  0  0
  6  9  1  0  0  0  0
 10  8  1  1  0  0  0
M  END
>  <CHROM.1>
11.77550984,-2.74147295,7.64176253,0.24261672,1.07971347,-2.00472758

>  <Name>
ligand

>  <RI>
0

>  <Rbt.Current_Directory>
/home/itssahil/PROJECTS/Mol_Feturizer/Test_systems_manuscript/rnas/2xnw

>  <Rbt.Executable>
rbdock ($Id: //depot/dev/client3/rdock/2013.1/src/exe/rbdock.cxx#4 $)

>  <Rbt.Library>
libRbt.so (2013.1, Build901 2013/11/27)

>  <Rbt.Parameter_File>
/export/apps/rDock/src/rDock_2013.1_src/data/scripts/dock_solv.prm

>  <Rbt.Receptor>
prm/pocket_docking_7.prm

>  <SCORE>
-6.68651

>  <SCORE.INTER>
-6.68651

>  <SCORE.INTER.CONST>
1

>  <SCORE.INTER.POLAR>
0

>  <SCORE.INTER.ROT>
0

>  <SCORE.INTER.SOLV>
14.8965

>  <SCORE.INTER.VDW>
-13.0232

>  <SCORE.INTER.norm>
-0.668651

>  <SCORE.INTRA>
0

>  <SCORE.INTRA.DIHEDRAL>
0

>  <SCORE.INTRA.DIHEDRAL.0>
0

>  <SCORE.INTRA.POLAR>
0

>  <SCORE.INTRA.POLAR.0>
0

>  <SCORE.INTRA.REPUL>
0

>  <SCORE.INTRA.REPUL.0>
0

>  <SCORE.INTRA.SOLV>
0

>  <SCORE.INTRA.SOLV.lig_0>
-47.9788

>  <SCORE.INTRA.VDW>
0

>  <SCORE.INTRA.VDW.0>
0

>  <SCORE.INTRA.norm>
0

>  <SCORE.RESTR>
0

>  <SCORE.RESTR.CAVITY>
0

>  <SCORE.RESTR.norm>
0

>  <SCORE.SYSTEM>
0

>  <SCORE.SYSTEM.CONST>
0

>  <SCORE.SYSTEM.DIHEDRAL>
0

>  <SCORE.SYSTEM.SOLV>
0

>  <SCORE.SYSTEM.norm>
0

>  <SCORE.heavy>
10

>  <SCORE.norm>
-0.668651

>  <RMSD>
2.975

$$$$
ligand
 OpenBabel02271912133D
libRbt.so/2013.1/901 2013/11/27
 10 11  0  0  0  0  0  0  0  0999 V2000
   12.4644   -4.4367    7.7329 C   0  0  1  0  0  0  0  0  0  0  0  0
   10.9886   -1.4798    6.8768 C   0  0  2  0  0  0  0  0  0  0  0  0
   11.8110   -2.5816    8.4758 C   0  0  2  0  0  0  0  0  0  0  0  0
   12.9927   -5.6627    7.6437 N   0  0  0  0  0  0  0  0  0  0  0  0
   10.5820   -1.0877    5.6734 N   0  0  0  0  0  0  0  0  0  0  0  0
   10.8852   -0.7486    7.9801 N   0  0  0  0  0  0  0  0  0  0  0  0
   12.3863   -3.7257    8.8522 N   0  0  0  0  0  0  0  0  0  0  0  0
   11.9518   -3.7307    6.7083 N   0  0  0  0  0  0  0  0  0  0  0  0
   11.3629   -1.3978    8.9214 N   0  0  0  0  0  0  0  0  0  0  0  0
   11.5723   -2.6385    7.1600 N   0  0  1  0  0  0  0  0  0  0  0  0
  1  4  1  6  0  0  0
  1  8  1  0  0  0  0
  1  7  1  0  0  0  0
  2  5  1  6  0  0  0
  2  6  1  0  0  0  0
  2 10  1  0  0  0  0
  3  7  1  1  0  0  0
  3 10  1  0  0  0  0
  3  9  1  0  0  0  0
  6  9  1  0  0  0  0
 10  8  1  1  0  0  0
M  END
>  <CHROM.1>
11.69726617,-2.74525697,7.59832602,0.22662372,1.11908630,-1.99661587

>  <Name>
ligand

>  <RI>
0

>  <Rbt.Current_Directory>
/home/itssahil/PROJECTS/Mol_Feturizer/Test_systems_manuscript/rnas/2xnw

>  <Rbt.Executable>
rbdock ($Id: //depot/dev/client3/rdock/2013.1/src/exe/rbdock.cxx#4 $)

>  <Rbt.Library>
libRbt.so (2013.1, Build901 2013/11/27)

>  <Rbt.Parameter_File>
/export/apps/rDock/src/rDock_2013.1_src/data/scripts/dock_solv.prm

>  <Rbt.Receptor>
prm/pocket_docking_7.prm

>  <SCORE>
-6.70381

>  <SCORE.INTER>
-6.70381

>  <SCORE.INTER.CONST>
1

>  <SCORE.INTER.POLAR>
0

>  <SCORE.INTER.ROT>
0

>  <SCORE.INTER.SOLV>
15.7703

>  <SCORE.INTER.VDW>
-13.326

>  <SCORE.INTER.norm>
-0.670381

>  <SCORE.INTRA>
0

>  <SCORE.INTRA.DIHEDRAL>
0

>  <SCORE.INTRA.DIHEDRAL.0>
0

>  <SCORE.INTRA.POLAR>
0

>  <SCORE.INTRA.POLAR.0>
0

>  <SCORE.INTRA.REPUL>
0

>  <SCORE.INTRA.REPUL.0>
0

>  <SCORE.INTRA.SOLV>
0

>  <SCORE.INTRA.SOLV.lig_0>
-47.9788

>  <SCORE.INTRA.VDW>
0

>  <SCORE.INTRA.VDW.0>
0

>  <SCORE.INTRA.norm>
0

>  <SCORE.RESTR>
0

>  <SCORE.RESTR.CAVITY>
0

>  <SCORE.RESTR.norm>
0

>  <SCORE.SYSTEM>
0

>  <SCORE.SYSTEM.CONST>
0

>  <SCORE.SYSTEM.DIHEDRAL>
0

>  <SCORE.SYSTEM.SOLV>
0

>  <SCORE.SYSTEM.norm>
0

>  <SCORE.heavy>
10

>  <SCORE.norm>
-0.670381

>  <RMSD>
2.975

$$$$
ligand
 OpenBabel02271912133D
libRbt.so/2013.1/901 2013/11/27
 10 11  0  0  0  0  0  0  0  0999 V2000
   12.6015   -4.4080    7.7481 C   0  0  1  0  0  0  0  0  0  0  0  0
   11.0092   -1.4972    6.9441 C   0  0  2  0  0  0  0  0  0  0  0  0
   11.9029   -2.5803    8.5174 C   0  0  2  0  0  0  0  0  0  0  0  0
   13.1684   -5.6150    7.6392 N   0  0  0  0  0  0  0  0  0  0  0  0
   10.5634   -1.1118    5.7525 N   0  0  0  0  0  0  0  0  0  0  0  0
   10.9057   -0.7764    8.0543 N   0  0  0  0  0  0  0  0  0  0  0  0
   12.5243   -3.7066    8.8736 N   0  0  0  0  0  0  0  0  0  0  0  0
   12.0431   -3.7134    6.7397 N   0  0  0  0  0  0  0  0  0  0  0  0
   11.4254   -1.4149    8.9806 N   0  0  0  0  0  0  0  0  0  0  0  0
   11.6374   -2.6373    7.2068 N   0  0  1  0  0  0  0  0  0  0  0  0
  1  4  1  6  0  0  0
  1  8  1  0  0  0  0
  1  7  1  0  0  0  0
  2  5  1  6  0  0  0
  2  6  1  0  0  0  0
  2 10  1  0  0  0  0
  3  7  1  1  0  0  0
  3 10  1  0  0  0  0
  3  9  1  0  0  0  0
  6  9  1  0  0  0  0
 10  8  1  1  0  0  0
M  END
>  <CHROM.1>
11.77547497,-2.74240906,7.64158305,0.23978896,1.07951460,-2.00201594

>  <Name>
ligand

>  <RI>
0

>  <Rbt.Current_Directory>
/home/itssahil/PROJECTS/Mol_Feturizer/Test_systems_manuscript/rnas/2xnw

>  <Rbt.Executable>
rbdock ($Id: //depot/dev/client3/rdock/2013.1/src/exe/rbdock.cxx#4 $)

>  <Rbt.Library>
libRbt.so (2013.1, Build901 2013/11/27)

>  <Rbt.Parameter_File>
/export/apps/rDock/src/rDock_2013.1_src/data/scripts/dock_solv.prm

>  <Rbt.Receptor>
prm/pocket_docking_8.prm

>  <SCORE>
-6.68625

>  <SCORE.INTER>
-6.68625

>  <SCORE.INTER.CONST>
1

>  <SCORE.INTER.POLAR>
0

>  <SCORE.INTER.ROT>
0

>  <SCORE.INTER.SOLV>
14.8894

>  <SCORE.INTER.VDW>
-13.0206

>  <SCORE.INTER.norm>
-0.668625

>  <SCORE.INTRA>
0

>  <SCORE.INTRA.DIHEDRAL>
0

>  <SCORE.INTRA.DIHEDRAL.0>
0

>  <SCORE.INTRA.POLAR>
0

>  <SCORE.INTRA.POLAR.0>
0

>  <SCORE.INTRA.REPUL>
0

>  <SCORE.INTRA.REPUL.0>
0

>  <SCORE.INTRA.SOLV>
0

>  <SCORE.INTRA.SOLV.lig_0>
-47.9788

>  <SCORE.INTRA.VDW>
0

>  <SCORE.INTRA.VDW.0>
0

>  <SCORE.INTRA.norm>
0

>  <SCORE.RESTR>
0

>  <SCORE.RESTR.CAVITY>
0

>  <SCORE.RESTR.norm>
0

>  <SCORE.SYSTEM>
0

>  <SCORE.SYSTEM.CONST>
0

>  <SCORE.SYSTEM.DIHEDRAL>
0

>  <SCORE.SYSTEM.SOLV>
0

>  <SCORE.SYSTEM.norm>
0

>  <SCORE.heavy>
10

>  <SCORE.norm>
-0.668625

>  <RMSD>
2.975

$$$$
ligand
 OpenBabel02271912133D
libRbt.so/2013.1/901 2013/11/27
 10 11  0  0  0  0  0  0  0  0999 V2000
   12.4762   -4.4249    7.7393 C   0  0  1  0  0  0  0  0  0  0  0  0
   10.9774   -1.4693    6.9192 C   0  0  2  0  0  0  0  0  0  0  0  0
   11.8493   -2.5660    8.4954 C   0  0  2  0  0  0  0  0  0  0  0  0
   12.9997   -5.6520    7.6382 N   0  0  0  0  0  0  0  0  0  0  0  0
   10.5329   -1.0814    5.7280 N   0  0  0  0  0  0  0  0  0  0  0  0
   10.9104   -0.7336    8.0224 N   0  0  0  0  0  0  0  0  0  0  0  0
   12.4349   -3.7093    8.8577 N   0  0  0  0  0  0  0  0  0  0  0  0
   11.9318   -3.7222    6.7290 N   0  0  0  0  0  0  0  0  0  0  0  0
   11.4173   -1.3798    8.9505 N   0  0  0  0  0  0  0  0  0  0  0  0
   11.5684   -2.6277    7.1882 N   0  0  1  0  0  0  0  0  0  0  0  0
  1  4  1  6  0  0  0
  1  8  1  0  0  0  0
  1  7  1  0  0  0  0
  2  5  1  6  0  0  0
  2  6  1  0  0  0  0
  2 10  1  0  0  0  0
  3  7  1  1  0  0  0
  3 10  1  0  0  0  0
  3  9  1  0  0  0  0
  6  9  1  0  0  0  0
 10  8  1  1  0  0  0
M  END
>  <CHROM.1>
11.70723802,-2.73290377,7.62271459,0.29308449,1.10609626,-2.06021238

>  <Name>
ligand

>  <RI>
0

>  <Rbt.Current_Directory>
/home/itssahil/PROJECTS/Mol_Feturizer/Test_systems_manuscript/rnas/2xnw

>  <Rbt.Executable>
rbdock ($Id: //depot/dev/client3/rdock/2013.1/src/exe/rbdock.cxx#4 $)

>  <Rbt.Library>
libRbt.so (2013.1, Build901 2013/11/27)

>  <Rbt.Parameter_File>
/export/apps/rDock/src/rDock_2013.1_src/data/scripts/dock_solv.prm

>  <Rbt.Receptor>
prm/pocket_docking_8.prm

>  <SCORE>
-6.71228

>  <SCORE.INTER>
-6.71228

>  <SCORE.INTER.CONST>
1

>  <SCORE.INTER.POLAR>
0

>  <SCORE.INTER.ROT>
0

>  <SCORE.INTER.SOLV>
15.5845

>  <SCORE.INTER.VDW>
-13.2697

>  <SCORE.INTER.norm>
-0.671228

>  <SCORE.INTRA>
0

>  <SCORE.INTRA.DIHEDRAL>
0

>  <SCORE.INTRA.DIHEDRAL.0>
0

>  <SCORE.INTRA.POLAR>
0

>  <SCORE.INTRA.POLAR.0>
0

>  <SCORE.INTRA.REPUL>
0

>  <SCORE.INTRA.REPUL.0>
0

>  <SCORE.INTRA.SOLV>
0

>  <SCORE.INTRA.SOLV.lig_0>
-47.9788

>  <SCORE.INTRA.VDW>
0

>  <SCORE.INTRA.VDW.0>
0

>  <SCORE.INTRA.norm>
0

>  <SCORE.RESTR>
0

>  <SCORE.RESTR.CAVITY>
0

>  <SCORE.RESTR.norm>
0

>  <SCORE.SYSTEM>
0

>  <SCORE.SYSTEM.CONST>
0

>  <SCORE.SYSTEM.DIHEDRAL>
0

>  <SCORE.SYSTEM.SOLV>
0

>  <SCORE.SYSTEM.norm>
0

>  <SCORE.heavy>
10

>  <SCORE.norm>
-0.671228

>  <RMSD>
2.975

$$$$
ligand
 OpenBabel02271912133D
libRbt.so/2013.1/901 2013/11/27
 10 11  0  0  0  0  0  0  0  0999 V2000
   12.4607   -4.4333    7.7257 C   0  0  1  0  0  0  0  0  0  0  0  0
   11.0113   -1.4585    6.8867 C   0  0  2  0  0  0  0  0  0  0  0  0
   11.8717   -2.5566    8.4682 C   0  0  2  0  0  0  0  0  0  0  0  0
   12.9614   -5.6705    7.6329 N   0  0  0  0  0  0  0  0  0  0  0  0
   10.5674   -1.0732    5.6943 N   0  0  0  0  0  0  0  0  0  0  0  0
   10.9637   -0.7118    7.9835 N   0  0  0  0  0  0  0  0  0  0  0  0
   12.4385   -3.7071    8.8378 N   0  0  0  0  0  0  0  0  0  0  0  0
   11.9237   -3.7299    6.7119 N   0  0  0  0  0  0  0  0  0  0  0  0
   11.4637   -1.3587    8.9147 N   0  0  0  0  0  0  0  0  0  0  0  0
   11.5826   -2.6250    7.1631 N   0  0  1  0  0  0  0  0  0  0  0  0
  1  4  1  6  0  0  0
  1  8  1  0  0  0  0
  1  7  1  0  0  0  0
  2  5  1  6  0  0  0
  2  6  1  0  0  0  0
  2 10  1  0  0  0  0
  3  7  1  1  0  0  0
  3 10  1  0  0  0  0
  3  9  1  0  0  0  0
  6  9  1  0  0  0  0
 10  8  1  1  0  0  0
M  END
>  <CHROM.1>
11.72193199,-2.72872230,7.59779305,0.32357431,1.11935410,-2.09657728

>  <Name>
ligand

>  <RI>
0

>  <Rbt.Current_Directory>
/home/itssahil/PROJECTS/Mol_Feturizer/Test_systems_manuscript/rnas/2xnw

>  <Rbt.Executable>
rbdock ($Id: //depot/dev/client3/rdock/2013.1/src/exe/rbdock.cxx#4 $)

>  <Rbt.Library>
libRbt.so (2013.1, Build901 2013/11/27)

>  <Rbt.Parameter_File>
/export/apps/rDock/src/rDock_2013.1_src/data/scripts/dock_solv.prm

>  <Rbt.Receptor>
prm/pocket_docking_8.prm

>  <SCORE>
-6.7204

>  <SCORE.INTER>
-6.7204

>  <SCORE.INTER.CONST>
1

>  <SCORE.INTER.POLAR>
0

>  <SCORE.INTER.ROT>
0

>  <SCORE.INTER.SOLV>
15.8116

>  <SCORE.INTER.VDW>
-13.3508

>  <SCORE.INTER.norm>
-0.67204

>  <SCORE.INTRA>
0

>  <SCORE.INTRA.DIHEDRAL>
0

>  <SCORE.INTRA.DIHEDRAL.0>
0

>  <SCORE.INTRA.POLAR>
0

>  <SCORE.INTRA.POLAR.0>
0

>  <SCORE.INTRA.REPUL>
0

>  <SCORE.INTRA.REPUL.0>
0

>  <SCORE.INTRA.SOLV>
0

>  <SCORE.INTRA.SOLV.lig_0>
-47.9788

>  <SCORE.INTRA.VDW>
0

>  <SCORE.INTRA.VDW.0>
0

>  <SCORE.INTRA.norm>
0

>  <SCORE.RESTR>
0

>  <SCORE.RESTR.CAVITY>
0

>  <SCORE.RESTR.norm>
0

>  <SCORE.SYSTEM>
0

>  <SCORE.SYSTEM.CONST>
0

>  <SCORE.SYSTEM.DIHEDRAL>
0

>  <SCORE.SYSTEM.SOLV>
0

>  <SCORE.SYSTEM.norm>
0

>  <SCORE.heavy>
10

>  <SCORE.norm>
-0.67204

>  <RMSD>
2.975

$$$$
ligand
 OpenBabel02271912133D
libRbt.so/2013.1/901 2013/11/27
 10 11  0  0  0  0  0  0  0  0999 V2000
   12.6020   -4.4111    7.7485 C   0  0  1  0  0  0  0  0  0  0  0  0
   11.0116   -1.4992    6.9449 C   0  0  2  0  0  0  0  0  0  0  0  0
   11.9049   -2.5829    8.5180 C   0  0  2  0  0  0  0  0  0  0  0  0
   13.1680   -5.6186    7.6395 N   0  0  0  0  0  0  0  0  0  0  0  0
   10.5658   -1.1135    5.7534 N   0  0  0  0  0  0  0  0  0  0  0  0
   10.9090   -0.7784    8.0551 N   0  0  0  0  0  0  0  0  0  0  0  0
   12.5256   -3.7097    8.8740 N   0  0  0  0  0  0  0  0  0  0  0  0
   12.0439   -3.7162    6.7402 N   0  0  0  0  0  0  0  0  0  0  0  0
   11.4284   -1.4172    8.9813 N   0  0  0  0  0  0  0  0  0  0  0  0
   11.6390   -2.6398    7.2075 N   0  0  1  0  0  0  0  0  0  0  0  0
  1  4  1  6  0  0  0
  1  8  1  0  0  0  0
  1  7  1  0  0  0  0
  2  5  1  6  0  0  0
  2  6  1  0  0  0  0
  2 10  1  0  0  0  0
  3  7  1  1  0  0  0
  3 10  1  0  0  0  0
  3  9  1  0  0  0  0
  6  9  1  0  0  0  0
 10  8  1  1  0  0  0
M  END
>  <CHROM.1>
11.77716008,-2.74498013,7.64218707,0.24087759,1.08007688,-2.00300087

>  <Name>
ligand

>  <RI>
0

>  <Rbt.Current_Directory>
/home/itssahil/PROJECTS/Mol_Feturizer/Test_systems_manuscript/rnas/2xnw

>  <Rbt.Executable>
rbdock ($Id: //depot/dev/client3/rdock/2013.1/src/exe/rbdock.cxx#4 $)

>  <Rbt.Library>
libRbt.so (2013.1, Build901 2013/11/27)

>  <Rbt.Parameter_File>
/export/apps/rDock/src/rDock_2013.1_src/data/scripts/dock_solv.prm

>  <Rbt.Receptor>
prm/blind_docking_20.prm

>  <SCORE>
-6.68603

>  <SCORE.INTER>
-6.68603

>  <SCORE.INTER.CONST>
1

>  <SCORE.INTER.POLAR>
0

>  <SCORE.INTER.ROT>
0

>  <SCORE.INTER.SOLV>
14.888

>  <SCORE.INTER.VDW>
-13.02

>  <SCORE.INTER.norm>
-0.668603

>  <SCORE.INTRA>
0

>  <SCORE.INTRA.DIHEDRAL>
0

>  <SCORE.INTRA.DIHEDRAL.0>
0

>  <SCORE.INTRA.POLAR>
0

>  <SCORE.INTRA.POLAR.0>
0

>  <SCORE.INTRA.REPUL>
0

>  <SCORE.INTRA.REPUL.0>
0

>  <SCORE.INTRA.SOLV>
0

>  <SCORE.INTRA.SOLV.lig_0>
-47.9788

>  <SCORE.INTRA.VDW>
0

>  <SCORE.INTRA.VDW.0>
0

>  <SCORE.INTRA.norm>
0

>  <SCORE.RESTR>
0

>  <SCORE.RESTR.CAVITY>
0

>  <SCORE.RESTR.norm>
0

>  <SCORE.SYSTEM>
0

>  <SCORE.SYSTEM.CONST>
0

>  <SCORE.SYSTEM.DIHEDRAL>
0

>  <SCORE.SYSTEM.SOLV>
0

>  <SCORE.SYSTEM.norm>
0

>  <SCORE.heavy>
10

>  <SCORE.norm>
-0.668603

>  <RMSD>
2.976

$$$$
ligand
 OpenBabel02271912133D
libRbt.so/2013.1/901 2013/11/27
 10 11  0  0  0  0  0  0  0  0999 V2000
   12.6144   -4.4073    7.7606 C   0  0  1  0  0  0  0  0  0  0  0  0
   10.9832   -1.5154    6.9667 C   0  0  2  0  0  0  0  0  0  0  0  0
   11.8928   -2.5912    8.5359 C   0  0  2  0  0  0  0  0  0  0  0  0
   13.1969   -5.6065    7.6476 N   0  0  0  0  0  0  0  0  0  0  0  0
   10.5309   -1.1325    5.7767 N   0  0  0  0  0  0  0  0  0  0  0  0
   10.8716   -0.7992    8.0791 N   0  0  0  0  0  0  0  0  0  0  0  0
   12.5293   -3.7103    8.8882 N   0  0  0  0  0  0  0  0  0  0  0  0
   12.0458   -3.7173    6.7548 N   0  0  0  0  0  0  0  0  0  0  0  0
   11.4007   -1.4334    9.0030 N   0  0  0  0  0  0  0  0  0  0  0  0
   11.6265   -2.6480    7.2255 N   0  0  1  0  0  0  0  0  0  0  0  0
  1  4  1  6  0  0  0
  1  8  1  0  0  0  0
  1  7  1  0  0  0  0
  2  5  1  6  0  0  0
  2  6  1  0  0  0  0
  2 10  1  0  0  0  0
  3  7  1  1  0  0  0
  3 10  1  0  0  0  0
  3  9  1  0  0  0  0
  6  9  1  0  0  0  0
 10  8  1  1  0  0  0
M  END
>  <CHROM.1>
11.76650789,-2.75246264,7.65976501,0.23063546,1.06710732,-1.99112633

>  <Name>
ligand

>  <RI>
0

>  <Rbt.Current_Directory>
/home/itssahil/PROJECTS/Mol_Feturizer/Test_systems_manuscript/rnas/2xnw

>  <Rbt.Executable>
rbdock ($Id: //depot/dev/client3/rdock/2013.1/src/exe/rbdock.cxx#4 $)

>  <Rbt.Library>
libRbt.so (2013.1, Build901 2013/11/27)

>  <Rbt.Parameter_File>
/export/apps/rDock/src/rDock_2013.1_src/data/scripts/dock_solv.prm

>  <Rbt.Receptor>
prm/blind_docking_60.prm

>  <SCORE>
-6.67997

>  <SCORE.INTER>
-6.67997

>  <SCORE.INTER.CONST>
1

>  <SCORE.INTER.POLAR>
0

>  <SCORE.INTER.ROT>
0

>  <SCORE.INTER.SOLV>
14.687

>  <SCORE.INTER.VDW>
-12.949

>  <SCORE.INTER.norm>
-0.667997

>  <SCORE.INTRA>
0

>  <SCORE.INTRA.DIHEDRAL>
0

>  <SCORE.INTRA.DIHEDRAL.0>
0

>  <SCORE.INTRA.POLAR>
0

>  <SCORE.INTRA.POLAR.0>
0

>  <SCORE.INTRA.REPUL>
0

>  <SCORE.INTRA.REPUL.0>
0

>  <SCORE.INTRA.SOLV>
0

>  <SCORE.INTRA.SOLV.lig_0>
-47.9788

>  <SCORE.INTRA.VDW>
0

>  <SCORE.INTRA.VDW.0>
0

>  <SCORE.INTRA.norm>
0

>  <SCORE.RESTR>
0

>  <SCORE.RESTR.CAVITY>
0

>  <SCORE.RESTR.norm>
0

>  <SCORE.SYSTEM>
0

>  <SCORE.SYSTEM.CONST>
0

>  <SCORE.SYSTEM.DIHEDRAL>
0

>  <SCORE.SYSTEM.SOLV>
0

>  <SCORE.SYSTEM.norm>
0

>  <SCORE.heavy>
10

>  <SCORE.norm>
-0.667997

>  <RMSD>
2.976

$$$$
ligand
 OpenBabel02271912133D
libRbt.so/2013.1/901 2013/11/27
 10 11  0  0  0  0  0  0  0  0999 V2000
   12.4743   -4.4357    7.7436 C   0  0  1  0  0  0  0  0  0  0  0  0
   10.9947   -1.4742    6.9100 C   0  0  2  0  0  0  0  0  0  0  0  0
   11.8373   -2.5788    8.4965 C   0  0  2  0  0  0  0  0  0  0  0  0
   12.9975   -5.6632    7.6463 N   0  0  0  0  0  0  0  0  0  0  0  0
   10.5715   -1.0805    5.7129 N   0  0  0  0  0  0  0  0  0  0  0  0
   10.9097   -0.7430    8.0150 N   0  0  0  0  0  0  0  0  0  0  0  0
   12.4148   -3.7247    8.8641 N   0  0  0  0  0  0  0  0  0  0  0  0
   11.9486   -3.7278    6.7269 N   0  0  0  0  0  0  0  0  0  0  0  0
   11.3994   -1.3939    8.9490 N   0  0  0  0  0  0  0  0  0  0  0  0
   11.5791   -2.6347    7.1844 N   0  0  1  0  0  0  0  0  0  0  0  0
  1  4  1  6  0  0  0
  1  8  1  0  0  0  0
  1  7  1  0  0  0  0
  2  5  1  6  0  0  0
  2  6  1  0  0  0  0
  2 10  1  0  0  0  0
  3  7  1  1  0  0  0
  3 10  1  0  0  0  0
  3  9  1  0  0  0  0
  6  9  1  0  0  0  0
 10  8  1  1  0  0  0
M  END
>  <CHROM.1>
11.71018570,-2.74188706,7.62075491,0.25994640,1.11544148,-2.02631589

>  <Name>
ligand

>  <RI>
0

>  <Rbt.Current_Directory>
/home/itssahil/PROJECTS/Mol_Feturizer/Test_systems_manuscript/rnas/2xnw

>  <Rbt.Executable>
rbdock ($Id: //depot/dev/client3/rdock/2013.1/src/exe/rbdock.cxx#4 $)

>  <Rbt.Library>
libRbt.so (2013.1, Build901 2013/11/27)

>  <Rbt.Parameter_File>
/export/apps/rDock/src/rDock_2013.1_src/data/scripts/dock_solv.prm

>  <Rbt.Receptor>
prm/pocket_docking_4.prm

>  <SCORE>
-6.70083

>  <SCORE.INTER>
-6.70083

>  <SCORE.INTER.CONST>
1

>  <SCORE.INTER.POLAR>
0

>  <SCORE.INTER.ROT>
0

>  <SCORE.INTER.SOLV>
15.6861

>  <SCORE.INTER.VDW>
-13.2959

>  <SCORE.INTER.norm>
-0.670083

>  <SCORE.INTRA>
0

>  <SCORE.INTRA.DIHEDRAL>
0

>  <SCORE.INTRA.DIHEDRAL.0>
0

>  <SCORE.INTRA.POLAR>
0

>  <SCORE.INTRA.POLAR.0>
0

>  <SCORE.INTRA.REPUL>
0

>  <SCORE.INTRA.REPUL.0>
0

>  <SCORE.INTRA.SOLV>
0

>  <SCORE.INTRA.SOLV.lig_0>
-47.9788

>  <SCORE.INTRA.VDW>
0

>  <SCORE.INTRA.VDW.0>
0

>  <SCORE.INTRA.norm>
0

>  <SCORE.RESTR>
0

>  <SCORE.RESTR.CAVITY>
0

>  <SCORE.RESTR.norm>
0

>  <SCORE.SYSTEM>
0

>  <SCORE.SYSTEM.CONST>
0

>  <SCORE.SYSTEM.DIHEDRAL>
0

>  <SCORE.SYSTEM.SOLV>
0

>  <SCORE.SYSTEM.norm>
0

>  <SCORE.heavy>
10

>  <SCORE.norm>
-0.670083

>  <RMSD>
2.976

$$$$
ligand
 OpenBabel02271912133D
libRbt.so/2013.1/901 2013/11/27
 10 11  0  0  0  0  0  0  0  0999 V2000
   12.4605   -4.4338    7.7266 C   0  0  1  0  0  0  0  0  0  0  0  0
   10.9970   -1.4645    6.8924 C   0  0  2  0  0  0  0  0  0  0  0  0
   11.8761   -2.5554    8.4686 C   0  0  2  0  0  0  0  0  0  0  0  0
   12.9624   -5.6705    7.6329 N   0  0  0  0  0  0  0  0  0  0  0  0
   10.5398   -1.0844    5.7034 N   0  0  0  0  0  0  0  0  0  0  0  0
   10.9597   -0.7140    7.9870 N   0  0  0  0  0  0  0  0  0  0  0  0
   12.4489   -3.7036    8.8362 N   0  0  0  0  0  0  0  0  0  0  0  0
   11.9115   -3.7350    6.7160 N   0  0  0  0  0  0  0  0  0  0  0  0
   11.4708   -1.3566    8.9151 N   0  0  0  0  0  0  0  0  0  0  0  0
   11.5733   -2.6290    7.1669 N   0  0  1  0  0  0  0  0  0  0  0  0
  1  4  1  6  0  0  0
  1  8  1  0  0  0  0
  1  7  1  0  0  0  0
  2  5  1  6  0  0  0
  2  6  1  0  0  0  0
  2 10  1  0  0  0  0
  3  7  1  1  0  0  0
  3 10  1  0  0  0  0
  3  9  1  0  0  0  0
  6  9  1  0  0  0  0
 10  8  1  1  0  0  0
M  END
>  <CHROM.1>
11.71740146,-2.73095650,7.60043663,0.34233907,1.11240835,-2.11703120

>  <Name>
ligand

>  <RI>
0

>  <Rbt.Current_Directory>
/home/itssahil/PROJECTS/Mol_Feturizer/Test_systems_manuscript/rnas/2xnw

>  <Rbt.Executable>
rbdock ($Id: //depot/dev/client3/rdock/2013.1/src/exe/rbdock.cxx#4 $)

>  <Rbt.Library>
libRbt.so (2013.1, Build901 2013/11/27)

>  <Rbt.Parameter_File>
/export/apps/rDock/src/rDock_2013.1_src/data/scripts/dock_solv.prm

>  <Rbt.Receptor>
prm/pocket_docking_4.prm

>  <SCORE>
-6.72267

>  <SCORE.INTER>
-6.72267

>  <SCORE.INTER.CONST>
1

>  <SCORE.INTER.POLAR>
0

>  <SCORE.INTER.ROT>
0

>  <SCORE.INTER.SOLV>
15.7268

>  <SCORE.INTER.VDW>
-13.3241

>  <SCORE.INTER.norm>
-0.672267

>  <SCORE.INTRA>
0

>  <SCORE.INTRA.DIHEDRAL>
0

>  <SCORE.INTRA.DIHEDRAL.0>
0

>  <SCORE.INTRA.POLAR>
0

>  <SCORE.INTRA.POLAR.0>
0

>  <SCORE.INTRA.REPUL>
0

>  <SCORE.INTRA.REPUL.0>
0

>  <SCORE.INTRA.SOLV>
0

>  <SCORE.INTRA.SOLV.lig_0>
-47.9788

>  <SCORE.INTRA.VDW>
0

>  <SCORE.INTRA.VDW.0>
0

>  <SCORE.INTRA.norm>
0

>  <SCORE.RESTR>
0

>  <SCORE.RESTR.CAVITY>
0

>  <SCORE.RESTR.norm>
0

>  <SCORE.SYSTEM>
0

>  <SCORE.SYSTEM.CONST>
0

>  <SCORE.SYSTEM.DIHEDRAL>
0

>  <SCORE.SYSTEM.SOLV>
0

>  <SCORE.SYSTEM.norm>
0

>  <SCORE.heavy>
10

>  <SCORE.norm>
-0.672267

>  <RMSD>
2.976

$$$$
ligand
 OpenBabel02271912133D
libRbt.so/2013.1/901 2013/11/27
 10 11  0  0  0  0  0  0  0  0999 V2000
   12.5651   -4.4057    7.7162 C   0  0  1  0  0  0  0  0  0  0  0  0
   10.9720   -1.4997    6.8966 C   0  0  2  0  0  0  0  0  0  0  0  0
   11.8317   -2.5907    8.4833 C   0  0  2  0  0  0  0  0  0  0  0  0
   13.1442   -5.6072    7.6115 N   0  0  0  0  0  0  0  0  0  0  0  0
   10.5553   -1.1065    5.6971 N   0  0  0  0  0  0  0  0  0  0  0  0
   10.8331   -0.7903    8.0102 N   0  0  0  0  0  0  0  0  0  0  0  0
   12.4522   -3.7156    8.8457 N   0  0  0  0  0  0  0  0  0  0  0  0
   12.0285   -3.7059    6.6996 N   0  0  0  0  0  0  0  0  0  0  0  0
   11.3328   -1.4334    8.9443 N   0  0  0  0  0  0  0  0  0  0  0  0
   11.6019   -2.6374    7.1656 N   0  0  1  0  0  0  0  0  0  0  0  0
  1  4  1  6  0  0  0
  1  8  1  0  0  0  0
  1  7  1  0  0  0  0
  2  5  1  6  0  0  0
  2  6  1  0  0  0  0
  2 10  1  0  0  0  0
  3  7  1  1  0  0  0
  3 10  1  0  0  0  0
  3  9  1  0  0  0  0
  6  9  1  0  0  0  0
 10  8  1  1  0  0  0
M  END
>  <CHROM.1>
11.72908508,-2.74554667,7.60292061,0.18070030,1.08283101,-1.94053175

>  <Name>
ligand

>  <RI>
0

>  <Rbt.Current_Directory>
/home/itssahil/PROJECTS/Mol_Feturizer/Test_systems_manuscript/rnas/2xnw

>  <Rbt.Executable>
rbdock ($Id: //depot/dev/client3/rdock/2013.1/src/exe/rbdock.cxx#4 $)

>  <Rbt.Library>
libRbt.so (2013.1, Build901 2013/11/27)

>  <Rbt.Parameter_File>
/export/apps/rDock/src/rDock_2013.1_src/data/scripts/dock_solv.prm

>  <Rbt.Receptor>
prm/pocket_docking_5.prm

>  <SCORE>
-6.68025

>  <SCORE.INTER>
-6.68025

>  <SCORE.INTER.CONST>
1

>  <SCORE.INTER.POLAR>
0

>  <SCORE.INTER.ROT>
0

>  <SCORE.INTER.SOLV>
15.0764

>  <SCORE.INTER.VDW>
-13.079

>  <SCORE.INTER.norm>
-0.668025

>  <SCORE.INTRA>
0

>  <SCORE.INTRA.DIHEDRAL>
0

>  <SCORE.INTRA.DIHEDRAL.0>
0

>  <SCORE.INTRA.POLAR>
0

>  <SCORE.INTRA.POLAR.0>
0

>  <SCORE.INTRA.REPUL>
0

>  <SCORE.INTRA.REPUL.0>
0

>  <SCORE.INTRA.SOLV>
0

>  <SCORE.INTRA.SOLV.lig_0>
-47.9788

>  <SCORE.INTRA.VDW>
0

>  <SCORE.INTRA.VDW.0>
0

>  <SCORE.INTRA.norm>
0

>  <SCORE.RESTR>
0

>  <SCORE.RESTR.CAVITY>
0

>  <SCORE.RESTR.norm>
0

>  <SCORE.SYSTEM>
0

>  <SCORE.SYSTEM.CONST>
0

>  <SCORE.SYSTEM.DIHEDRAL>
0

>  <SCORE.SYSTEM.SOLV>
0

>  <SCORE.SYSTEM.norm>
0

>  <SCORE.heavy>
10

>  <SCORE.norm>
-0.668025

>  <RMSD>
2.976

$$$$
ligand
 OpenBabel02271912133D
libRbt.so/2013.1/901 2013/11/27
 10 11  0  0  0  0  0  0  0  0999 V2000
   12.5620   -4.4112    7.7150 C   0  0  1  0  0  0  0  0  0  0  0  0
   10.9843   -1.4997    6.8854 C   0  0  2  0  0  0  0  0  0  0  0  0
   11.8412   -2.5884    8.4752 C   0  0  2  0  0  0  0  0  0  0  0  0
   13.1337   -5.6167    7.6145 N   0  0  0  0  0  0  0  0  0  0  0  0
   10.5671   -1.1096    5.6850 N   0  0  0  0  0  0  0  0  0  0  0  0
   10.8522   -0.7843    7.9960 N   0  0  0  0  0  0  0  0  0  0  0  0
   12.4559   -3.7152    8.8414 N   0  0  0  0  0  0  0  0  0  0  0  0
   12.0272   -3.7131    6.6963 N   0  0  0  0  0  0  0  0  0  0  0  0
   11.3503   -1.4260    8.9319 N   0  0  0  0  0  0  0  0  0  0  0  0
   11.6080   -2.6399    7.1583 N   0  0  1  0  0  0  0  0  0  0  0  0
  1  4  1  6  0  0  0
  1  8  1  0  0  0  0
  1  7  1  0  0  0  0
  2  5  1  6  0  0  0
  2  6  1  0  0  0  0
  2 10  1  0  0  0  0
  3  7  1  1  0  0  0
  3 10  1  0  0  0  0
  3  9  1  0  0  0  0
  6  9  1  0  0  0  0
 10  8  1  1  0  0  0
M  END
>  <CHROM.1>
11.73561320,-2.74671405,7.59578815,0.19004449,1.08750001,-1.95349318

>  <Name>
ligand

>  <RI>
0

>  <Rbt.Current_Directory>
/home/itssahil/PROJECTS/Mol_Feturizer/Test_systems_manuscript/rnas/2xnw

>  <Rbt.Executable>
rbdock ($Id: //depot/dev/client3/rdock/2013.1/src/exe/rbdock.cxx#4 $)

>  <Rbt.Library>
libRbt.so (2013.1, Build901 2013/11/27)

>  <Rbt.Parameter_File>
/export/apps/rDock/src/rDock_2013.1_src/data/scripts/dock_solv.prm

>  <Rbt.Receptor>
prm/pocket_docking_6.prm

>  <SCORE>
-6.68231

>  <SCORE.INTER>
-6.68231

>  <SCORE.INTER.CONST>
1

>  <SCORE.INTER.POLAR>
0

>  <SCORE.INTER.ROT>
0

>  <SCORE.INTER.SOLV>
15.1386

>  <SCORE.INTER.VDW>
-13.1011

>  <SCORE.INTER.norm>
-0.668231

>  <SCORE.INTRA>
0

>  <SCORE.INTRA.DIHEDRAL>
0

>  <SCORE.INTRA.DIHEDRAL.0>
0

>  <SCORE.INTRA.POLAR>
0

>  <SCORE.INTRA.POLAR.0>
0

>  <SCORE.INTRA.REPUL>
0

>  <SCORE.INTRA.REPUL.0>
0

>  <SCORE.INTRA.SOLV>
0

>  <SCORE.INTRA.SOLV.lig_0>
-47.9788

>  <SCORE.INTRA.VDW>
0

>  <SCORE.INTRA.VDW.0>
0

>  <SCORE.INTRA.norm>
0

>  <SCORE.RESTR>
0

>  <SCORE.RESTR.CAVITY>
0

>  <SCORE.RESTR.norm>
0

>  <SCORE.SYSTEM>
0

>  <SCORE.SYSTEM.CONST>
0

>  <SCORE.SYSTEM.DIHEDRAL>
0

>  <SCORE.SYSTEM.SOLV>
0

>  <SCORE.SYSTEM.norm>
0

>  <SCORE.heavy>
10

>  <SCORE.norm>
-0.668231

>  <RMSD>
2.976

$$$$
ligand
 OpenBabel02271912133D
libRbt.so/2013.1/901 2013/11/27
 10 11  0  0  0  0  0  0  0  0999 V2000
   12.4683   -4.4459    7.7419 C   0  0  1  0  0  0  0  0  0  0  0  0
   10.9999   -1.4861    6.8828 C   0  0  2  0  0  0  0  0  0  0  0  0
   11.8369   -2.5809    8.4791 C   0  0  2  0  0  0  0  0  0  0  0  0
   12.9874   -5.6759    7.6552 N   0  0  0  0  0  0  0  0  0  0  0  0
   10.5795   -1.1007    5.6821 N   0  0  0  0  0  0  0  0  0  0  0  0
   10.9163   -0.7457    7.9817 N   0  0  0  0  0  0  0  0  0  0  0  0
   12.4100   -3.7257    8.8566 N   0  0  0  0  0  0  0  0  0  0  0  0
   11.9463   -3.7445    6.7190 N   0  0  0  0  0  0  0  0  0  0  0  0
   11.4025   -1.3908    8.9215 N   0  0  0  0  0  0  0  0  0  0  0  0
   11.5800   -2.6464    7.1672 N   0  0  1  0  0  0  0  0  0  0  0  0
  1  4  1  6  0  0  0
  1  8  1  0  0  0  0
  1  7  1  0  0  0  0
  2  5  1  6  0  0  0
  2  6  1  0  0  0  0
  2 10  1  0  0  0  0
  3  7  1  1  0  0  0
  3 10  1  0  0  0  0
  3  9  1  0  0  0  0
  6  9  1  0  0  0  0
 10  8  1  1  0  0  0
M  END
>  <CHROM.1>
11.71021132,-2.75053169,7.60458979,0.26106965,1.11906137,-2.03538057

>  <Name>
ligand

>  <RI>
0

>  <Rbt.Current_Directory>
/home/itssahil/PROJECTS/Mol_Feturizer/Test_systems_manuscript/rnas/2xnw

>  <Rbt.Executable>
rbdock ($Id: //depot/dev/client3/rdock/2013.1/src/exe/rbdock.cxx#4 $)

>  <Rbt.Library>
libRbt.so (2013.1, Build901 2013/11/27)

>  <Rbt.Parameter_File>
/export/apps/rDock/src/rDock_2013.1_src/data/scripts/dock_solv.prm

>  <Rbt.Receptor>
prm/pocket_docking_6.prm

>  <SCORE>
-6.71204

>  <SCORE.INTER>
-6.71204

>  <SCORE.INTER.CONST>
1

>  <SCORE.INTER.POLAR>
0

>  <SCORE.INTER.ROT>
0

>  <SCORE.INTER.SOLV>
15.7409

>  <SCORE.INTER.VDW>
-13.3217

>  <SCORE.INTER.norm>
-0.671204

>  <SCORE.INTRA>
0

>  <SCORE.INTRA.DIHEDRAL>
0

>  <SCORE.INTRA.DIHEDRAL.0>
0

>  <SCORE.INTRA.POLAR>
0

>  <SCORE.INTRA.POLAR.0>
0

>  <SCORE.INTRA.REPUL>
0

>  <SCORE.INTRA.REPUL.0>
0

>  <SCORE.INTRA.SOLV>
0

>  <SCORE.INTRA.SOLV.lig_0>
-47.9788

>  <SCORE.INTRA.VDW>
0

>  <SCORE.INTRA.VDW.0>
0

>  <SCORE.INTRA.norm>
0

>  <SCORE.RESTR>
0

>  <SCORE.RESTR.CAVITY>
0

>  <SCORE.RESTR.norm>
0

>  <SCORE.SYSTEM>
0

>  <SCORE.SYSTEM.CONST>
0

>  <SCORE.SYSTEM.DIHEDRAL>
0

>  <SCORE.SYSTEM.SOLV>
0

>  <SCORE.SYSTEM.norm>
0

>  <SCORE.heavy>
10

>  <SCORE.norm>
-0.671204

>  <RMSD>
2.976

$$$$
ligand
 OpenBabel02271912133D
libRbt.so/2013.1/901 2013/11/27
 10 11  0  0  0  0  0  0  0  0999 V2000
   12.4695   -4.4416    7.7418 C   0  0  1  0  0  0  0  0  0  0  0  0
   11.0104   -1.4705    6.9066 C   0  0  2  0  0  0  0  0  0  0  0  0
   11.8725   -2.5686    8.4871 C   0  0  2  0  0  0  0  0  0  0  0  0
   12.9749   -5.6768    7.6473 N   0  0  0  0  0  0  0  0  0  0  0  0
   10.5669   -1.0845    5.7143 N   0  0  0  0  0  0  0  0  0  0  0  0
   10.9584   -0.7262    8.0047 N   0  0  0  0  0  0  0  0  0  0  0  0
   12.4430   -3.7177    8.8553 N   0  0  0  0  0  0  0  0  0  0  0  0
   11.9314   -3.7382    6.7286 N   0  0  0  0  0  0  0  0  0  0  0  0
   11.4595   -1.3731    8.9354 N   0  0  0  0  0  0  0  0  0  0  0  0
   11.5857   -2.6354    7.1815 N   0  0  1  0  0  0  0  0  0  0  0  0
  1  4  1  6  0  0  0
  1  8  1  0  0  0  0
  1  7  1  0  0  0  0
  2  5  1  6  0  0  0
  2  6  1  0  0  0  0
  2 10  1  0  0  0  0
  3  7  1  1  0  0  0
  3 10  1  0  0  0  0
  3  9  1  0  0  0  0
  6  9  1  0  0  0  0
 10  8  1  1  0  0  0
M  END
>  <CHROM.1>
11.72468463,-2.73951416,7.61615488,0.31643098,1.11690849,-2.08815889

>  <Name>
ligand

>  <RI>
0

>  <Rbt.Current_Directory>
/home/itssahil/PROJECTS/Mol_Feturizer/Test_systems_manuscript/rnas/2xnw

>  <Rbt.Executable>
rbdock ($Id: //depot/dev/client3/rdock/2013.1/src/exe/rbdock.cxx#4 $)

>  <Rbt.Library>
libRbt.so (2013.1, Build901 2013/11/27)

>  <Rbt.Parameter_File>
/export/apps/rDock/src/rDock_2013.1_src/data/scripts/dock_solv.prm

>  <Rbt.Receptor>
prm/pocket_docking_6.prm

>  <SCORE>
-6.70242

>  <SCORE.INTER>
-6.70242

>  <SCORE.INTER.CONST>
1

>  <SCORE.INTER.POLAR>
0

>  <SCORE.INTER.ROT>
0

>  <SCORE.INTER.SOLV>
15.7259

>  <SCORE.INTER.VDW>
-13.3103

>  <SCORE.INTER.norm>
-0.670242

>  <SCORE.INTRA>
0

>  <SCORE.INTRA.DIHEDRAL>
0

>  <SCORE.INTRA.DIHEDRAL.0>
0

>  <SCORE.INTRA.POLAR>
0

>  <SCORE.INTRA.POLAR.0>
0

>  <SCORE.INTRA.REPUL>
0

>  <SCORE.INTRA.REPUL.0>
0

>  <SCORE.INTRA.SOLV>
0

>  <SCORE.INTRA.SOLV.lig_0>
-47.9788

>  <SCORE.INTRA.VDW>
0

>  <SCORE.INTRA.VDW.0>
0

>  <SCORE.INTRA.norm>
0

>  <SCORE.RESTR>
0

>  <SCORE.RESTR.CAVITY>
0

>  <SCORE.RESTR.norm>
0

>  <SCORE.SYSTEM>
0

>  <SCORE.SYSTEM.CONST>
0

>  <SCORE.SYSTEM.DIHEDRAL>
0

>  <SCORE.SYSTEM.SOLV>
0

>  <SCORE.SYSTEM.norm>
0

>  <SCORE.heavy>
10

>  <SCORE.norm>
-0.670242

>  <RMSD>
2.976

$$$$
ligand
 OpenBabel02271912133D
libRbt.so/2013.1/901 2013/11/27
 10 11  0  0  0  0  0  0  0  0999 V2000
   12.4687   -4.4179    7.7308 C   0  0  1  0  0  0  0  0  0  0  0  0
   10.9425   -1.4755    6.9138 C   0  0  2  0  0  0  0  0  0  0  0  0
   11.7842   -2.5840    8.4981 C   0  0  2  0  0  0  0  0  0  0  0  0
   13.0175   -5.6335    7.6254 N   0  0  0  0  0  0  0  0  0  0  0  0
   10.5288   -1.0746    5.7158 N   0  0  0  0  0  0  0  0  0  0  0  0
   10.8273   -0.7606    8.0266 N   0  0  0  0  0  0  0  0  0  0  0  0
   12.3790   -3.7230    8.8593 N   0  0  0  0  0  0  0  0  0  0  0  0
   11.9436   -3.7073    6.7157 N   0  0  0  0  0  0  0  0  0  0  0  0
   11.3164   -1.4139    8.9593 N   0  0  0  0  0  0  0  0  0  0  0  0
   11.5459   -2.6278    7.1817 N   0  0  1  0  0  0  0  0  0  0  0  0
  1  4  1  6  0  0  0
  1  8  1  0  0  0  0
  1  7  1  0  0  0  0
  2  5  1  6  0  0  0
  2  6  1  0  0  0  0
  2 10  1  0  0  0  0
  3  7  1  1  0  0  0
  3 10  1  0  0  0  0
  3  9  1  0  0  0  0
  6  9  1  0  0  0  0
 10  8  1  1  0  0  0
M  END
>  <CHROM.1>
11.67288231,-2.73806893,7.61855585,0.21207264,1.10341650,-1.97049915

>  <Name>
ligand

>  <RI>
0

>  <Rbt.Current_Directory>
/home/itssahil/PROJECTS/Mol_Feturizer/Test_systems_manuscript/rnas/2xnw

>  <Rbt.Executable>
rbdock ($Id: //depot/dev/client3/rdock/2013.1/src/exe/rbdock.cxx#4 $)

>  <Rbt.Library>
libRbt.so (2013.1, Build901 2013/11/27)

>  <Rbt.Parameter_File>
/export/apps/rDock/src/rDock_2013.1_src/data/scripts/dock_solv.prm

>  <Rbt.Receptor>
prm/pocket_docking_7.prm

>  <SCORE>
-6.66981

>  <SCORE.INTER>
-6.66981

>  <SCORE.INTER.CONST>
1

>  <SCORE.INTER.POLAR>
0

>  <SCORE.INTER.ROT>
0

>  <SCORE.INTER.SOLV>
15.568

>  <SCORE.INTER.VDW>
-13.2359

>  <SCORE.INTER.norm>
-0.666981

>  <SCORE.INTRA>
0

>  <SCORE.INTRA.DIHEDRAL>
0

>  <SCORE.INTRA.DIHEDRAL.0>
0

>  <SCORE.INTRA.POLAR>
0

>  <SCORE.INTRA.POLAR.0>
0

>  <SCORE.INTRA.REPUL>
0

>  <SCORE.INTRA.REPUL.0>
0

>  <SCORE.INTRA.SOLV>
0

>  <SCORE.INTRA.SOLV.lig_0>
-47.9788

>  <SCORE.INTRA.VDW>
0

>  <SCORE.INTRA.VDW.0>
0

>  <SCORE.INTRA.norm>
0

>  <SCORE.RESTR>
0

>  <SCORE.RESTR.CAVITY>
0

>  <SCORE.RESTR.norm>
0

>  <SCORE.SYSTEM>
0

>  <SCORE.SYSTEM.CONST>
0

>  <SCORE.SYSTEM.DIHEDRAL>
0

>  <SCORE.SYSTEM.SOLV>
0

>  <SCORE.SYSTEM.norm>
0

>  <SCORE.heavy>
10

>  <SCORE.norm>
-0.666981

>  <RMSD>
2.976

$$$$
ligand
 OpenBabel02271912133D
libRbt.so/2013.1/901 2013/11/27
 10 11  0  0  0  0  0  0  0  0999 V2000
   12.4637   -4.4442    7.7366 C   0  0  1  0  0  0  0  0  0  0  0  0
   11.0082   -1.4771    6.8809 C   0  0  2  0  0  0  0  0  0  0  0  0
   11.8296   -2.5820    8.4784 C   0  0  2  0  0  0  0  0  0  0  0  0
   12.9812   -5.6748    7.6477 N   0  0  0  0  0  0  0  0  0  0  0  0
   10.5987   -1.0845    5.6787 N   0  0  0  0  0  0  0  0  0  0  0  0
   10.9167   -0.7424    7.9830 N   0  0  0  0  0  0  0  0  0  0  0  0
   12.3973   -3.7299    8.8546 N   0  0  0  0  0  0  0  0  0  0  0  0
   11.9516   -3.7364    6.7130 N   0  0  0  0  0  0  0  0  0  0  0  0
   11.3938   -1.3934    8.9234 N   0  0  0  0  0  0  0  0  0  0  0  0
   11.5836   -2.6400    7.1640 N   0  0  1  0  0  0  0  0  0  0  0  0
  1  4  1  6  0  0  0
  1  8  1  0  0  0  0
  1  7  1  0  0  0  0
  2  5  1  6  0  0  0
  2  6  1  0  0  0  0
  2 10  1  0  0  0  0
  3  7  1  1  0  0  0
  3 10  1  0  0  0  0
  3  9  1  0  0  0  0
  6  9  1  0  0  0  0
 10  8  1  1  0  0  0
M  END
>  <CHROM.1>
11.71000459,-2.74672448,7.60189721,0.24553847,1.12448994,-2.01608864

>  <Name>
ligand

>  <RI>
0

>  <Rbt.Current_Directory>
/home/itssahil/PROJECTS/Mol_Feturizer/Test_systems_manuscript/rnas/2xnw

>  <Rbt.Executable>
rbdock ($Id: //depot/dev/client3/rdock/2013.1/src/exe/rbdock.cxx#4 $)

>  <Rbt.Library>
libRbt.so (2013.1, Build901 2013/11/27)

>  <Rbt.Parameter_File>
/export/apps/rDock/src/rDock_2013.1_src/data/scripts/dock_solv.prm

>  <Rbt.Receptor>
prm/pocket_docking_7.prm

>  <SCORE>
-6.70992

>  <SCORE.INTER>
-6.70992

>  <SCORE.INTER.CONST>
1

>  <SCORE.INTER.POLAR>
0

>  <SCORE.INTER.ROT>
0

>  <SCORE.INTER.SOLV>
15.8248

>  <SCORE.INTER.VDW>
-13.3482

>  <SCORE.INTER.norm>
-0.670992

>  <SCORE.INTRA>
0

>  <SCORE.INTRA.DIHEDRAL>
0

>  <SCORE.INTRA.DIHEDRAL.0>
0

>  <SCORE.INTRA.POLAR>
0

>  <SCORE.INTRA.POLAR.0>
0

>  <SCORE.INTRA.REPUL>
0

>  <SCORE.INTRA.REPUL.0>
0

>  <SCORE.INTRA.SOLV>
0

>  <SCORE.INTRA.SOLV.lig_0>
-47.9788

>  <SCORE.INTRA.VDW>
0

>  <SCORE.INTRA.VDW.0>
0

>  <SCORE.INTRA.norm>
0

>  <SCORE.RESTR>
0

>  <SCORE.RESTR.CAVITY>
0

>  <SCORE.RESTR.norm>
0

>  <SCORE.SYSTEM>
0

>  <SCORE.SYSTEM.CONST>
0

>  <SCORE.SYSTEM.DIHEDRAL>
0

>  <SCORE.SYSTEM.SOLV>
0

>  <SCORE.SYSTEM.norm>
0

>  <SCORE.heavy>
10

>  <SCORE.norm>
-0.670992

>  <RMSD>
2.976

$$$$
ligand
 OpenBabel02271912133D
libRbt.so/2013.1/901 2013/11/27
 10 11  0  0  0  0  0  0  0  0999 V2000
   12.4634   -4.4417    7.7341 C   0  0  1  0  0  0  0  0  0  0  0  0
   10.9979   -1.4780    6.8838 C   0  0  2  0  0  0  0  0  0  0  0  0
   11.8312   -2.5794    8.4774 C   0  0  2  0  0  0  0  0  0  0  0  0
   12.9821   -5.6716    7.6435 N   0  0  0  0  0  0  0  0  0  0  0  0
   10.5800   -1.0876    5.6837 N   0  0  0  0  0  0  0  0  0  0  0  0
   10.9123   -0.7419    7.9855 N   0  0  0  0  0  0  0  0  0  0  0  0
   12.4031   -3.7260    8.8515 N   0  0  0  0  0  0  0  0  0  0  0  0
   11.9437   -3.7360    6.7129 N   0  0  0  0  0  0  0  0  0  0  0  0
   11.3965   -1.3909    8.9237 N   0  0  0  0  0  0  0  0  0  0  0  0
   11.5769   -2.6396    7.1647 N   0  0  1  0  0  0  0  0  0  0  0  0
  1  4  1  6  0  0  0
  1  8  1  0  0  0  0
  1  7  1  0  0  0  0
  2  5  1  6  0  0  0
  2  6  1  0  0  0  0
  2 10  1  0  0  0  0
  3  7  1  1  0  0  0
  3 10  1  0  0  0  0
  3  9  1  0  0  0  0
  6  9  1  0  0  0  0
 10  8  1  1  0  0  0
M  END
>  <CHROM.1>
11.70623004,-2.74553731,7.60196107,0.25735639,1.12031974,-2.02805852

>  <Name>
ligand

>  <RI>
0

>  <Rbt.Current_Directory>
/home/itssahil/PROJECTS/Mol_Feturizer/Test_systems_manuscript/rnas/2xnw

>  <Rbt.Executable>
rbdock ($Id: //depot/dev/client3/rdock/2013.1/src/exe/rbdock.cxx#4 $)

>  <Rbt.Library>
libRbt.so (2013.1, Build901 2013/11/27)

>  <Rbt.Parameter_File>
/export/apps/rDock/src/rDock_2013.1_src/data/scripts/dock_solv.prm

>  <Rbt.Receptor>
prm/pocket_docking_7.prm

>  <SCORE>
-6.71218

>  <SCORE.INTER>
-6.71218

>  <SCORE.INTER.CONST>
1

>  <SCORE.INTER.POLAR>
0

>  <SCORE.INTER.ROT>
0

>  <SCORE.INTER.SOLV>
15.7763

>  <SCORE.INTER.VDW>
-13.3335

>  <SCORE.INTER.norm>
-0.671218

>  <SCORE.INTRA>
0

>  <SCORE.INTRA.DIHEDRAL>
0

>  <SCORE.INTRA.DIHEDRAL.0>
0

>  <SCORE.INTRA.POLAR>
0

>  <SCORE.INTRA.POLAR.0>
0

>  <SCORE.INTRA.REPUL>
0

>  <SCORE.INTRA.REPUL.0>
0

>  <SCORE.INTRA.SOLV>
0

>  <SCORE.INTRA.SOLV.lig_0>
-47.9788

>  <SCORE.INTRA.VDW>
0

>  <SCORE.INTRA.VDW.0>
0

>  <SCORE.INTRA.norm>
0

>  <SCORE.RESTR>
0

>  <SCORE.RESTR.CAVITY>
0

>  <SCORE.RESTR.norm>
0

>  <SCORE.SYSTEM>
0

>  <SCORE.SYSTEM.CONST>
0

>  <SCORE.SYSTEM.DIHEDRAL>
0

>  <SCORE.SYSTEM.SOLV>
0

>  <SCORE.SYSTEM.norm>
0

>  <SCORE.heavy>
10

>  <SCORE.norm>
-0.671218

>  <RMSD>
2.976

$$$$
ligand
 OpenBabel02271912133D
libRbt.so/2013.1/901 2013/11/27
 10 11  0  0  0  0  0  0  0  0999 V2000
   12.4680   -4.4265    7.7307 C   0  0  1  0  0  0  0  0  0  0  0  0
   10.9815   -1.4637    6.9143 C   0  0  2  0  0  0  0  0  0  0  0  0
   11.8623   -2.5602    8.4857 C   0  0  2  0  0  0  0  0  0  0  0  0
   12.9818   -5.6577    7.6290 N   0  0  0  0  0  0  0  0  0  0  0  0
   10.5271   -1.0774    5.7262 N   0  0  0  0  0  0  0  0  0  0  0  0
   10.9314   -0.7231    8.0151 N   0  0  0  0  0  0  0  0  0  0  0  0
   12.4436   -3.7062    8.8465 N   0  0  0  0  0  0  0  0  0  0  0  0
   11.9179   -3.7240    6.7232 N   0  0  0  0  0  0  0  0  0  0  0  0
   11.4434   -1.3691    8.9404 N   0  0  0  0  0  0  0  0  0  0  0  0
   11.5671   -2.6252    7.1818 N   0  0  1  0  0  0  0  0  0  0  0  0
  1  4  1  6  0  0  0
  1  8  1  0  0  0  0
  1  7  1  0  0  0  0
  2  5  1  6  0  0  0
  2  6  1  0  0  0  0
  2 10  1  0  0  0  0
  3  7  1  1  0  0  0
  3 10  1  0  0  0  0
  3  9  1  0  0  0  0
  6  9  1  0  0  0  0
 10  8  1  1  0  0  0
M  END
>  <CHROM.1>
11.70982671,-2.72959015,7.61525340,0.32133406,1.10717686,-2.08952075

>  <Name>
ligand

>  <RI>
0

>  <Rbt.Current_Directory>
/home/itssahil/PROJECTS/Mol_Feturizer/Test_systems_manuscript/rnas/2xnw

>  <Rbt.Executable>
rbdock ($Id: //depot/dev/client3/rdock/2013.1/src/exe/rbdock.cxx#4 $)

>  <Rbt.Library>
libRbt.so (2013.1, Build901 2013/11/27)

>  <Rbt.Parameter_File>
/export/apps/rDock/src/rDock_2013.1_src/data/scripts/dock_solv.prm

>  <Rbt.Receptor>
prm/pocket_docking_7.prm

>  <SCORE>
-6.70914

>  <SCORE.INTER>
-6.70914

>  <SCORE.INTER.CONST>
1

>  <SCORE.INTER.POLAR>
0

>  <SCORE.INTER.ROT>
0

>  <SCORE.INTER.SOLV>
15.6326

>  <SCORE.INTER.VDW>
-13.2836

>  <SCORE.INTER.norm>
-0.670914

>  <SCORE.INTRA>
0

>  <SCORE.INTRA.DIHEDRAL>
0

>  <SCORE.INTRA.DIHEDRAL.0>
0

>  <SCORE.INTRA.POLAR>
0

>  <SCORE.INTRA.POLAR.0>
0

>  <SCORE.INTRA.REPUL>
0

>  <SCORE.INTRA.REPUL.0>
0

>  <SCORE.INTRA.SOLV>
0

>  <SCORE.INTRA.SOLV.lig_0>
-47.9788

>  <SCORE.INTRA.VDW>
0

>  <SCORE.INTRA.VDW.0>
0

>  <SCORE.INTRA.norm>
0

>  <SCORE.RESTR>
0

>  <SCORE.RESTR.CAVITY>
0

>  <SCORE.RESTR.norm>
0

>  <SCORE.SYSTEM>
0

>  <SCORE.SYSTEM.CONST>
0

>  <SCORE.SYSTEM.DIHEDRAL>
0

>  <SCORE.SYSTEM.SOLV>
0

>  <SCORE.SYSTEM.norm>
0

>  <SCORE.heavy>
10

>  <SCORE.norm>
-0.670914

>  <RMSD>
2.976

$$$$
ligand
 OpenBabel02271912133D
libRbt.so/2013.1/901 2013/11/27
 10 11  0  0  0  0  0  0  0  0999 V2000
   12.4588   -4.4334    7.7238 C   0  0  1  0  0  0  0  0  0  0  0  0
   10.9996   -1.4642    6.8818 C   0  0  2  0  0  0  0  0  0  0  0  0
   11.8271   -2.5733    8.4731 C   0  0  2  0  0  0  0  0  0  0  0  0
   12.9761   -5.6636    7.6296 N   0  0  0  0  0  0  0  0  0  0  0  0
   10.5855   -1.0683    5.6822 N   0  0  0  0  0  0  0  0  0  0  0  0
   10.9120   -0.7326    7.9863 N   0  0  0  0  0  0  0  0  0  0  0  0
   12.3964   -3.7222    8.8440 N   0  0  0  0  0  0  0  0  0  0  0  0
   11.9428   -3.7228    6.7041 N   0  0  0  0  0  0  0  0  0  0  0  0
   11.3928   -1.3861    8.9231 N   0  0  0  0  0  0  0  0  0  0  0  0
   11.5763   -2.6278    7.1595 N   0  0  1  0  0  0  0  0  0  0  0  0
  1  4  1  6  0  0  0
  1  8  1  0  0  0  0
  1  7  1  0  0  0  0
  2  5  1  6  0  0  0
  2  6  1  0  0  0  0
  2 10  1  0  0  0  0
  3  7  1  1  0  0  0
  3 10  1  0  0  0  0
  3  9  1  0  0  0  0
  6  9  1  0  0  0  0
 10  8  1  1  0  0  0
M  END
>  <CHROM.1>
11.70427310,-2.73566246,7.59662433,0.25313880,1.12271738,-2.02015110

>  <Name>
ligand

>  <RI>
0

>  <Rbt.Current_Directory>
/home/itssahil/PROJECTS/Mol_Feturizer/Test_systems_manuscript/rnas/2xnw

>  <Rbt.Executable>
rbdock ($Id: //depot/dev/client3/rdock/2013.1/src/exe/rbdock.cxx#4 $)

>  <Rbt.Library>
libRbt.so (2013.1, Build901 2013/11/27)

>  <Rbt.Parameter_File>
/export/apps/rDock/src/rDock_2013.1_src/data/scripts/dock_solv.prm

>  <Rbt.Receptor>
prm/pocket_docking_7.prm

>  <SCORE>
-6.71309

>  <SCORE.INTER>
-6.71309

>  <SCORE.INTER.CONST>
1

>  <SCORE.INTER.POLAR>
0

>  <SCORE.INTER.ROT>
0

>  <SCORE.INTER.SOLV>
15.8363

>  <SCORE.INTER.VDW>
-13.3542

>  <SCORE.INTER.norm>
-0.671309

>  <SCORE.INTRA>
0

>  <SCORE.INTRA.DIHEDRAL>
0

>  <SCORE.INTRA.DIHEDRAL.0>
0

>  <SCORE.INTRA.POLAR>
0

>  <SCORE.INTRA.POLAR.0>
0

>  <SCORE.INTRA.REPUL>
0

>  <SCORE.INTRA.REPUL.0>
0

>  <SCORE.INTRA.SOLV>
0

>  <SCORE.INTRA.SOLV.lig_0>
-47.9788

>  <SCORE.INTRA.VDW>
0

>  <SCORE.INTRA.VDW.0>
0

>  <SCORE.INTRA.norm>
0

>  <SCORE.RESTR>
0

>  <SCORE.RESTR.CAVITY>
0

>  <SCORE.RESTR.norm>
0

>  <SCORE.SYSTEM>
0

>  <SCORE.SYSTEM.CONST>
0

>  <SCORE.SYSTEM.DIHEDRAL>
0

>  <SCORE.SYSTEM.SOLV>
0

>  <SCORE.SYSTEM.norm>
0

>  <SCORE.heavy>
10

>  <SCORE.norm>
-0.671309

>  <RMSD>
2.976

$$$$
ligand
 OpenBabel02271912133D
libRbt.so/2013.1/901 2013/11/27
 10 11  0  0  0  0  0  0  0  0999 V2000
   12.4822   -4.4287    7.7183 C   0  0  1  0  0  0  0  0  0  0  0  0
   10.9824   -1.4815    6.8703 C   0  0  2  0  0  0  0  0  0  0  0  0
   11.8353   -2.5714    8.4615 C   0  0  2  0  0  0  0  0  0  0  0  0
   13.0128   -5.6535    7.6273 N   0  0  0  0  0  0  0  0  0  0  0  0
   10.5542   -1.0977    5.6718 N   0  0  0  0  0  0  0  0  0  0  0  0
   10.8953   -0.7442    7.9710 N   0  0  0  0  0  0  0  0  0  0  0  0
   12.4207   -3.7114    8.8347 N   0  0  0  0  0  0  0  0  0  0  0  0
   11.9499   -3.7302    6.6985 N   0  0  0  0  0  0  0  0  0  0  0  0
   11.3910   -1.3864    8.9078 N   0  0  0  0  0  0  0  0  0  0  0  0
   11.5746   -2.6367    7.1503 N   0  0  1  0  0  0  0  0  0  0  0  0
  1  4  1  6  0  0  0
  1  8  1  0  0  0  0
  1  7  1  0  0  0  0
  2  5  1  6  0  0  0
  2  6  1  0  0  0  0
  2 10  1  0  0  0  0
  3  7  1  1  0  0  0
  3 10  1  0  0  0  0
  3  9  1  0  0  0  0
  6  9  1  0  0  0  0
 10  8  1  1  0  0  0
M  END
>  <CHROM.1>
11.70729942,-2.74045746,7.58703370,0.25815925,1.10892542,-2.03070478

>  <Name>
ligand

>  <RI>
0

>  <Rbt.Current_Directory>
/home/itssahil/PROJECTS/Mol_Feturizer/Test_systems_manuscript/rnas/2xnw

>  <Rbt.Executable>
rbdock ($Id: //depot/dev/client3/rdock/2013.1/src/exe/rbdock.cxx#4 $)

>  <Rbt.Library>
libRbt.so (2013.1, Build901 2013/11/27)

>  <Rbt.Parameter_File>
/export/apps/rDock/src/rDock_2013.1_src/data/scripts/dock_solv.prm

>  <Rbt.Receptor>
prm/pocket_docking_7.prm

>  <SCORE>
-6.68233

>  <SCORE.INTER>
-6.68233

>  <SCORE.INTER.CONST>
1

>  <SCORE.INTER.POLAR>
0

>  <SCORE.INTER.ROT>
0

>  <SCORE.INTER.SOLV>
15.6093

>  <SCORE.INTER.VDW>
-13.258

>  <SCORE.INTER.norm>
-0.668233

>  <SCORE.INTRA>
0

>  <SCORE.INTRA.DIHEDRAL>
0

>  <SCORE.INTRA.DIHEDRAL.0>
0

>  <SCORE.INTRA.POLAR>
0

>  <SCORE.INTRA.POLAR.0>
0

>  <SCORE.INTRA.REPUL>
0

>  <SCORE.INTRA.REPUL.0>
0

>  <SCORE.INTRA.SOLV>
0

>  <SCORE.INTRA.SOLV.lig_0>
-47.9788

>  <SCORE.INTRA.VDW>
0

>  <SCORE.INTRA.VDW.0>
0

>  <SCORE.INTRA.norm>
0

>  <SCORE.RESTR>
0

>  <SCORE.RESTR.CAVITY>
0

>  <SCORE.RESTR.norm>
0

>  <SCORE.SYSTEM>
0

>  <SCORE.SYSTEM.CONST>
0

>  <SCORE.SYSTEM.DIHEDRAL>
0

>  <SCORE.SYSTEM.SOLV>
0

>  <SCORE.SYSTEM.norm>
0

>  <SCORE.heavy>
10

>  <SCORE.norm>
-0.668233

>  <RMSD>
2.976

$$$$
ligand
 OpenBabel02271912133D
libRbt.so/2013.1/901 2013/11/27
 10 11  0  0  0  0  0  0  0  0999 V2000
   12.4586   -4.4294    7.7212 C   0  0  1  0  0  0  0  0  0  0  0  0
   10.9839   -1.4674    6.8808 C   0  0  2  0  0  0  0  0  0  0  0  0
   11.8191   -2.5722    8.4711 C   0  0  2  0  0  0  0  0  0  0  0  0
   12.9818   -5.6571    7.6264 N   0  0  0  0  0  0  0  0  0  0  0  0
   10.5661   -1.0737    5.6818 N   0  0  0  0  0  0  0  0  0  0  0  0
   10.8944   -0.7360    7.9853 N   0  0  0  0  0  0  0  0  0  0  0  0
   12.3945   -3.7182    8.8414 N   0  0  0  0  0  0  0  0  0  0  0  0
   11.9377   -3.7214    6.7021 N   0  0  0  0  0  0  0  0  0  0  0  0
   11.3797   -1.3870    8.9215 N   0  0  0  0  0  0  0  0  0  0  0  0
   11.5666   -2.6281    7.1579 N   0  0  1  0  0  0  0  0  0  0  0  0
  1  4  1  6  0  0  0
  1  8  1  0  0  0  0
  1  7  1  0  0  0  0
  2  5  1  6  0  0  0
  2  6  1  0  0  0  0
  2 10  1  0  0  0  0
  3  7  1  1  0  0  0
  3 10  1  0  0  0  0
  3  9  1  0  0  0  0
  6  9  1  0  0  0  0
 10  8  1  1  0  0  0
M  END
>  <CHROM.1>
11.69576852,-2.73530352,7.59482614,0.25135518,1.11771920,-2.01871740

>  <Name>
ligand

>  <RI>
0

>  <Rbt.Current_Directory>
/home/itssahil/PROJECTS/Mol_Feturizer/Test_systems_manuscript/rnas/2xnw

>  <Rbt.Executable>
rbdock ($Id: //depot/dev/client3/rdock/2013.1/src/exe/rbdock.cxx#4 $)

>  <Rbt.Library>
libRbt.so (2013.1, Build901 2013/11/27)

>  <Rbt.Parameter_File>
/export/apps/rDock/src/rDock_2013.1_src/data/scripts/dock_solv.prm

>  <Rbt.Receptor>
prm/pocket_docking_8.prm

>  <SCORE>
-6.71049

>  <SCORE.INTER>
-6.71049

>  <SCORE.INTER.CONST>
1

>  <SCORE.INTER.POLAR>
0

>  <SCORE.INTER.ROT>
0

>  <SCORE.INTER.SOLV>
15.7799

>  <SCORE.INTER.VDW>
-13.3336

>  <SCORE.INTER.norm>
-0.671049

>  <SCORE.INTRA>
0

>  <SCORE.INTRA.DIHEDRAL>
0

>  <SCORE.INTRA.DIHEDRAL.0>
0

>  <SCORE.INTRA.POLAR>
0

>  <SCORE.INTRA.POLAR.0>
0

>  <SCORE.INTRA.REPUL>
0

>  <SCORE.INTRA.REPUL.0>
0

>  <SCORE.INTRA.SOLV>
0

>  <SCORE.INTRA.SOLV.lig_0>
-47.9788

>  <SCORE.INTRA.VDW>
0

>  <SCORE.INTRA.VDW.0>
0

>  <SCORE.INTRA.norm>
0

>  <SCORE.RESTR>
0

>  <SCORE.RESTR.CAVITY>
0

>  <SCORE.RESTR.norm>
0

>  <SCORE.SYSTEM>
0

>  <SCORE.SYSTEM.CONST>
0

>  <SCORE.SYSTEM.DIHEDRAL>
0

>  <SCORE.SYSTEM.SOLV>
0

>  <SCORE.SYSTEM.norm>
0

>  <SCORE.heavy>
10

>  <SCORE.norm>
-0.671049

>  <RMSD>
2.976

$$$$
ligand
 OpenBabel02271912133D
libRbt.so/2013.1/901 2013/11/27
 10 11  0  0  0  0  0  0  0  0999 V2000
   12.5509   -4.4218    7.7264 C   0  0  1  0  0  0  0  0  0  0  0  0
   11.0115   -1.4914    6.8913 C   0  0  2  0  0  0  0  0  0  0  0  0
   11.8518   -2.5893    8.4837 C   0  0  2  0  0  0  0  0  0  0  0  0
   13.1075   -5.6345    7.6281 N   0  0  0  0  0  0  0  0  0  0  0  0
   10.6015   -1.0972    5.6898 N   0  0  0  0  0  0  0  0  0  0  0  0
   10.8865   -0.7733    8.0010 N   0  0  0  0  0  0  0  0  0  0  0  0
   12.4515   -3.7234    8.8520 N   0  0  0  0  0  0  0  0  0  0  0  0
   12.0268   -3.7179    6.7062 N   0  0  0  0  0  0  0  0  0  0  0  0
   11.3747   -1.4204    8.9384 N   0  0  0  0  0  0  0  0  0  0  0  0
   11.6204   -2.6391    7.1664 N   0  0  1  0  0  0  0  0  0  0  0  0
  1  4  1  6  0  0  0
  1  8  1  0  0  0  0
  1  7  1  0  0  0  0
  2  5  1  6  0  0  0
  2  6  1  0  0  0  0
  2 10  1  0  0  0  0
  3  7  1  1  0  0  0
  3 10  1  0  0  0  0
  3  9  1  0  0  0  0
  6  9  1  0  0  0  0
 10  8  1  1  0  0  0
M  END
>  <CHROM.1>
11.74578008,-2.74710634,7.60421922,0.19672242,1.09988835,-1.96034139

>  <Name>
ligand

>  <RI>
0

>  <Rbt.Current_Directory>
/home/itssahil/PROJECTS/Mol_Feturizer/Test_systems_manuscript/rnas/2xnw

>  <Rbt.Executable>
rbdock ($Id: //depot/dev/client3/rdock/2013.1/src/exe/rbdock.cxx#4 $)

>  <Rbt.Library>
libRbt.so (2013.1, Build901 2013/11/27)

>  <Rbt.Parameter_File>
/export/apps/rDock/src/rDock_2013.1_src/data/scripts/dock_solv.prm

>  <Rbt.Receptor>
prm/pocket_docking_8.prm

>  <SCORE>
-6.68758

>  <SCORE.INTER>
-6.68758

>  <SCORE.INTER.CONST>
1

>  <SCORE.INTER.POLAR>
0

>  <SCORE.INTER.ROT>
0

>  <SCORE.INTER.SOLV>
15.2988

>  <SCORE.INTER.VDW>
-13.158

>  <SCORE.INTER.norm>
-0.668758

>  <SCORE.INTRA>
0

>  <SCORE.INTRA.DIHEDRAL>
0

>  <SCORE.INTRA.DIHEDRAL.0>
0

>  <SCORE.INTRA.POLAR>
0

>  <SCORE.INTRA.POLAR.0>
0

>  <SCORE.INTRA.REPUL>
0

>  <SCORE.INTRA.REPUL.0>
0

>  <SCORE.INTRA.SOLV>
0

>  <SCORE.INTRA.SOLV.lig_0>
-47.9788

>  <SCORE.INTRA.VDW>
0

>  <SCORE.INTRA.VDW.0>
0

>  <SCORE.INTRA.norm>
0

>  <SCORE.RESTR>
0

>  <SCORE.RESTR.CAVITY>
0

>  <SCORE.RESTR.norm>
0

>  <SCORE.SYSTEM>
0

>  <SCORE.SYSTEM.CONST>
0

>  <SCORE.SYSTEM.DIHEDRAL>
0

>  <SCORE.SYSTEM.SOLV>
0

>  <SCORE.SYSTEM.norm>
0

>  <SCORE.heavy>
10

>  <SCORE.norm>
-0.668758

>  <RMSD>
2.976

$$$$
ligand
 OpenBabel02271912133D
libRbt.so/2013.1/901 2013/11/27
 10 11  0  0  0  0  0  0  0  0999 V2000
   12.4642   -4.4452    7.7375 C   0  0  1  0  0  0  0  0  0  0  0  0
   11.0036   -1.4782    6.8902 C   0  0  2  0  0  0  0  0  0  0  0  0
   11.8577   -2.5730    8.4774 C   0  0  2  0  0  0  0  0  0  0  0  0
   12.9731   -5.6792    7.6473 N   0  0  0  0  0  0  0  0  0  0  0  0
   10.5672   -1.0941    5.6947 N   0  0  0  0  0  0  0  0  0  0  0  0
   10.9424   -0.7332    7.9875 N   0  0  0  0  0  0  0  0  0  0  0  0
   12.4284   -3.7205    8.8502 N   0  0  0  0  0  0  0  0  0  0  0  0
   11.9312   -3.7438    6.7201 N   0  0  0  0  0  0  0  0  0  0  0  0
   11.4387   -1.3782    8.9220 N   0  0  0  0  0  0  0  0  0  0  0  0
   11.5798   -2.6415    7.1699 N   0  0  1  0  0  0  0  0  0  0  0  0
  1  4  1  6  0  0  0
  1  8  1  0  0  0  0
  1  7  1  0  0  0  0
  2  5  1  6  0  0  0
  2  6  1  0  0  0  0
  2 10  1  0  0  0  0
  3  7  1  1  0  0  0
  3 10  1  0  0  0  0
  3  9  1  0  0  0  0
  6  9  1  0  0  0  0
 10  8  1  1  0  0  0
M  END
>  <CHROM.1>
11.71611759,-2.74497991,7.60555384,0.30028757,1.11810497,-2.07437519

>  <Name>
ligand

>  <RI>
0

>  <Rbt.Current_Directory>
/home/itssahil/PROJECTS/Mol_Feturizer/Test_systems_manuscript/rnas/2xnw

>  <Rbt.Executable>
rbdock ($Id: //depot/dev/client3/rdock/2013.1/src/exe/rbdock.cxx#4 $)

>  <Rbt.Library>
libRbt.so (2013.1, Build901 2013/11/27)

>  <Rbt.Parameter_File>
/export/apps/rDock/src/rDock_2013.1_src/data/scripts/dock_solv.prm

>  <Rbt.Receptor>
prm/blind_docking_100.prm

>  <SCORE>
-6.71826

>  <SCORE.INTER>
-6.71826

>  <SCORE.INTER.CONST>
1

>  <SCORE.INTER.POLAR>
0

>  <SCORE.INTER.ROT>
0

>  <SCORE.INTER.SOLV>
15.7468

>  <SCORE.INTER.VDW>
-13.3278

>  <SCORE.INTER.norm>
-0.671826

>  <SCORE.INTRA>
0

>  <SCORE.INTRA.DIHEDRAL>
0

>  <SCORE.INTRA.DIHEDRAL.0>
0

>  <SCORE.INTRA.POLAR>
0

>  <SCORE.INTRA.POLAR.0>
0

>  <SCORE.INTRA.REPUL>
0

>  <SCORE.INTRA.REPUL.0>
0

>  <SCORE.INTRA.SOLV>
0

>  <SCORE.INTRA.SOLV.lig_0>
-47.9788

>  <SCORE.INTRA.VDW>
0

>  <SCORE.INTRA.VDW.0>
0

>  <SCORE.INTRA.norm>
0

>  <SCORE.RESTR>
0

>  <SCORE.RESTR.CAVITY>
0

>  <SCORE.RESTR.norm>
0

>  <SCORE.SYSTEM>
0

>  <SCORE.SYSTEM.CONST>
0

>  <SCORE.SYSTEM.DIHEDRAL>
0

>  <SCORE.SYSTEM.SOLV>
0

>  <SCORE.SYSTEM.norm>
0

>  <SCORE.heavy>
10

>  <SCORE.norm>
-0.671826

>  <RMSD>
2.977

$$$$
ligand
 OpenBabel02271912133D
libRbt.so/2013.1/901 2013/11/27
 10 11  0  0  0  0  0  0  0  0999 V2000
   12.5483   -4.4207    7.7229 C   0  0  1  0  0  0  0  0  0  0  0  0
   11.0021   -1.4919    6.8950 C   0  0  2  0  0  0  0  0  0  0  0  0
   11.8509   -2.5889    8.4835 C   0  0  2  0  0  0  0  0  0  0  0  0
   13.1057   -5.6329    7.6221 N   0  0  0  0  0  0  0  0  0  0  0  0
   10.5860   -1.0981    5.6955 N   0  0  0  0  0  0  0  0  0  0  0  0
   10.8815   -0.7739    8.0053 N   0  0  0  0  0  0  0  0  0  0  0  0
   12.4535   -3.7224    8.8490 N   0  0  0  0  0  0  0  0  0  0  0  0
   12.0187   -3.7174    6.7052 N   0  0  0  0  0  0  0  0  0  0  0  0
   11.3748   -1.4205    8.9404 N   0  0  0  0  0  0  0  0  0  0  0  0
   11.6133   -2.6390    7.1673 N   0  0  1  0  0  0  0  0  0  0  0  0
  1  4  1  6  0  0  0
  1  8  1  0  0  0  0
  1  7  1  0  0  0  0
  2  5  1  6  0  0  0
  2  6  1  0  0  0  0
  2 10  1  0  0  0  0
  3  7  1  1  0  0  0
  3 10  1  0  0  0  0
  3  9  1  0  0  0  0
  6  9  1  0  0  0  0
 10  8  1  1  0  0  0
M  END
>  <CHROM.1>
11.74094775,-2.74686251,7.60450797,0.20542743,1.09714599,-1.96811381

>  <Name>
ligand

>  <RI>
0

>  <Rbt.Current_Directory>
/home/itssahil/PROJECTS/Mol_Feturizer/Test_systems_manuscript/rnas/2xnw

>  <Rbt.Executable>
rbdock ($Id: //depot/dev/client3/rdock/2013.1/src/exe/rbdock.cxx#4 $)

>  <Rbt.Library>
libRbt.so (2013.1, Build901 2013/11/27)

>  <Rbt.Parameter_File>
/export/apps/rDock/src/rDock_2013.1_src/data/scripts/dock_solv.prm

>  <Rbt.Receptor>
prm/blind_docking_100.prm

>  <SCORE>
-6.68795

>  <SCORE.INTER>
-6.68795

>  <SCORE.INTER.CONST>
1

>  <SCORE.INTER.POLAR>
0

>  <SCORE.INTER.ROT>
0

>  <SCORE.INTER.SOLV>
15.271

>  <SCORE.INTER.VDW>
-13.149

>  <SCORE.INTER.norm>
-0.668795

>  <SCORE.INTRA>
0

>  <SCORE.INTRA.DIHEDRAL>
0

>  <SCORE.INTRA.DIHEDRAL.0>
0

>  <SCORE.INTRA.POLAR>
0

>  <SCORE.INTRA.POLAR.0>
0

>  <SCORE.INTRA.REPUL>
0

>  <SCORE.INTRA.REPUL.0>
0

>  <SCORE.INTRA.SOLV>
0

>  <SCORE.INTRA.SOLV.lig_0>
-47.9788

>  <SCORE.INTRA.VDW>
0

>  <SCORE.INTRA.VDW.0>
0

>  <SCORE.INTRA.norm>
0

>  <SCORE.RESTR>
0

>  <SCORE.RESTR.CAVITY>
0

>  <SCORE.RESTR.norm>
0

>  <SCORE.SYSTEM>
0

>  <SCORE.SYSTEM.CONST>
0

>  <SCORE.SYSTEM.DIHEDRAL>
0

>  <SCORE.SYSTEM.SOLV>
0

>  <SCORE.SYSTEM.norm>
0

>  <SCORE.heavy>
10

>  <SCORE.norm>
-0.668795

>  <RMSD>
2.977

$$$$
ligand
 OpenBabel02271912133D
libRbt.so/2013.1/901 2013/11/27
 10 11  0  0  0  0  0  0  0  0999 V2000
   12.5630   -4.4173    7.7214 C   0  0  1  0  0  0  0  0  0  0  0  0
   10.9892   -1.5038    6.8913 C   0  0  2  0  0  0  0  0  0  0  0  0
   11.8412   -2.5950    8.4821 C   0  0  2  0  0  0  0  0  0  0  0  0
   13.1342   -5.6230    7.6210 N   0  0  0  0  0  0  0  0  0  0  0  0
   10.5755   -1.1119    5.6903 N   0  0  0  0  0  0  0  0  0  0  0  0
   10.8546   -0.7897    8.0025 N   0  0  0  0  0  0  0  0  0  0  0  0
   12.4542   -3.7226    8.8484 N   0  0  0  0  0  0  0  0  0  0  0  0
   12.0313   -3.7175    6.7022 N   0  0  0  0  0  0  0  0  0  0  0  0
   11.3498   -1.4329    8.9389 N   0  0  0  0  0  0  0  0  0  0  0  0
   11.6116   -2.6447    7.1644 N   0  0  1  0  0  0  0  0  0  0  0  0
  1  4  1  6  0  0  0
  1  8  1  0  0  0  0
  1  7  1  0  0  0  0
  2  5  1  6  0  0  0
  2  6  1  0  0  0  0
  2 10  1  0  0  0  0
  3  7  1  1  0  0  0
  3 10  1  0  0  0  0
  3  9  1  0  0  0  0
  6  9  1  0  0  0  0
 10  8  1  1  0  0  0
M  END
>  <CHROM.1>
11.73790438,-2.75212539,7.60212745,0.18516109,1.08906147,-1.94788379

>  <Name>
ligand

>  <RI>
0

>  <Rbt.Current_Directory>
/home/itssahil/PROJECTS/Mol_Feturizer/Test_systems_manuscript/rnas/2xnw

>  <Rbt.Executable>
rbdock ($Id: //depot/dev/client3/rdock/2013.1/src/exe/rbdock.cxx#4 $)

>  <Rbt.Library>
libRbt.so (2013.1, Build901 2013/11/27)

>  <Rbt.Parameter_File>
/export/apps/rDock/src/rDock_2013.1_src/data/scripts/dock_solv.prm

>  <Rbt.Receptor>
prm/blind_docking_20.prm

>  <SCORE>
-6.68506

>  <SCORE.INTER>
-6.68506

>  <SCORE.INTER.CONST>
1

>  <SCORE.INTER.POLAR>
0

>  <SCORE.INTER.ROT>
0

>  <SCORE.INTER.SOLV>
15.1349

>  <SCORE.INTER.VDW>
-13.1017

>  <SCORE.INTER.norm>
-0.668506

>  <SCORE.INTRA>
0

>  <SCORE.INTRA.DIHEDRAL>
0

>  <SCORE.INTRA.DIHEDRAL.0>
0

>  <SCORE.INTRA.POLAR>
0

>  <SCORE.INTRA.POLAR.0>
0

>  <SCORE.INTRA.REPUL>
0

>  <SCORE.INTRA.REPUL.0>
0

>  <SCORE.INTRA.SOLV>
0

>  <SCORE.INTRA.SOLV.lig_0>
-47.9788

>  <SCORE.INTRA.VDW>
0

>  <SCORE.INTRA.VDW.0>
0

>  <SCORE.INTRA.norm>
0

>  <SCORE.RESTR>
0

>  <SCORE.RESTR.CAVITY>
0

>  <SCORE.RESTR.norm>
0

>  <SCORE.SYSTEM>
0

>  <SCORE.SYSTEM.CONST>
0

>  <SCORE.SYSTEM.DIHEDRAL>
0

>  <SCORE.SYSTEM.SOLV>
0

>  <SCORE.SYSTEM.norm>
0

>  <SCORE.heavy>
10

>  <SCORE.norm>
-0.668506

>  <RMSD>
2.977

$$$$
ligand
 OpenBabel02271912133D
libRbt.so/2013.1/901 2013/11/27
 10 11  0  0  0  0  0  0  0  0999 V2000
   12.4786   -4.4241    7.7452 C   0  0  1  0  0  0  0  0  0  0  0  0
   11.0493   -1.4221    6.9706 C   0  0  2  0  0  0  0  0  0  0  0  0
   11.8744   -2.5714    8.5344 C   0  0  2  0  0  0  0  0  0  0  0  0
   12.9805   -5.6583    7.6237 N   0  0  0  0  0  0  0  0  0  0  0  0
   10.6319   -0.9983    5.7817 N   0  0  0  0  0  0  0  0  0  0  0  0
   10.9781   -0.7110    8.0894 N   0  0  0  0  0  0  0  0  0  0  0  0
   12.4324   -3.7339    8.8792 N   0  0  0  0  0  0  0  0  0  0  0  0
   11.9642   -3.6879    6.7429 N   0  0  0  0  0  0  0  0  0  0  0  0
   11.4573   -1.3880    9.0101 N   0  0  0  0  0  0  0  0  0  0  0  0
   11.6139   -2.5976    7.2218 N   0  0  1  0  0  0  0  0  0  0  0  0
  1  4  1  6  0  0  0
  1  8  1  0  0  0  0
  1  7  1  0  0  0  0
  2  5  1  6  0  0  0
  2  6  1  0  0  0  0
  2 10  1  0  0  0  0
  3  7  1  1  0  0  0
  3 10  1  0  0  0  0
  3  9  1  0  0  0  0
  6  9  1  0  0  0  0
 10  8  1  1  0  0  0
M  END
>  <CHROM.1>
11.74362087,-2.71538858,7.65587958,0.27971553,1.13040169,-2.02491400

>  <Name>
ligand

>  <RI>
0

>  <Rbt.Current_Directory>
/home/itssahil/PROJECTS/Mol_Feturizer/Test_systems_manuscript/rnas/2xnw

>  <Rbt.Executable>
rbdock ($Id: //depot/dev/client3/rdock/2013.1/src/exe/rbdock.cxx#4 $)

>  <Rbt.Library>
libRbt.so (2013.1, Build901 2013/11/27)

>  <Rbt.Parameter_File>
/export/apps/rDock/src/rDock_2013.1_src/data/scripts/dock_solv.prm

>  <Rbt.Receptor>
prm/blind_docking_20.prm

>  <SCORE>
-6.65358

>  <SCORE.INTER>
-6.65358

>  <SCORE.INTER.CONST>
1

>  <SCORE.INTER.POLAR>
0

>  <SCORE.INTER.ROT>
0

>  <SCORE.INTER.SOLV>
15.9512

>  <SCORE.INTER.VDW>
-13.3528

>  <SCORE.INTER.norm>
-0.665358

>  <SCORE.INTRA>
0

>  <SCORE.INTRA.DIHEDRAL>
0

>  <SCORE.INTRA.DIHEDRAL.0>
0

>  <SCORE.INTRA.POLAR>
0

>  <SCORE.INTRA.POLAR.0>
0

>  <SCORE.INTRA.REPUL>
0

>  <SCORE.INTRA.REPUL.0>
0

>  <SCORE.INTRA.SOLV>
0

>  <SCORE.INTRA.SOLV.lig_0>
-47.9788

>  <SCORE.INTRA.VDW>
0

>  <SCORE.INTRA.VDW.0>
0

>  <SCORE.INTRA.norm>
0

>  <SCORE.RESTR>
0

>  <SCORE.RESTR.CAVITY>
0

>  <SCORE.RESTR.norm>
0

>  <SCORE.SYSTEM>
0

>  <SCORE.SYSTEM.CONST>
0

>  <SCORE.SYSTEM.DIHEDRAL>
0

>  <SCORE.SYSTEM.SOLV>
0

>  <SCORE.SYSTEM.norm>
0

>  <SCORE.heavy>
10

>  <SCORE.norm>
-0.665358

>  <RMSD>
2.977

$$$$
ligand
 OpenBabel02271912133D
libRbt.so/2013.1/901 2013/11/27
 10 11  0  0  0  0  0  0  0  0999 V2000
   12.4591   -4.4376    7.7263 C   0  0  1  0  0  0  0  0  0  0  0  0
   10.9918   -1.4720    6.8858 C   0  0  2  0  0  0  0  0  0  0  0  0
   11.8245   -2.5788    8.4761 C   0  0  2  0  0  0  0  0  0  0  0  0
   12.9791   -5.6667    7.6315 N   0  0  0  0  0  0  0  0  0  0  0  0
   10.5748   -1.0774    5.6868 N   0  0  0  0  0  0  0  0  0  0  0  0
   10.9044   -0.7402    7.9902 N   0  0  0  0  0  0  0  0  0  0  0  0
   12.3970   -3.7262    8.8464 N   0  0  0  0  0  0  0  0  0  0  0  0
   11.9398   -3.7285    6.7072 N   0  0  0  0  0  0  0  0  0  0  0  0
   11.3882   -1.3923    8.9264 N   0  0  0  0  0  0  0  0  0  0  0  0
   11.5716   -2.6342    7.1629 N   0  0  1  0  0  0  0  0  0  0  0  0
  1  4  1  6  0  0  0
  1  8  1  0  0  0  0
  1  7  1  0  0  0  0
  2  5  1  6  0  0  0
  2  6  1  0  0  0  0
  2 10  1  0  0  0  0
  3  7  1  1  0  0  0
  3 10  1  0  0  0  0
  3  9  1  0  0  0  0
  6  9  1  0  0  0  0
 10  8  1  1  0  0  0
M  END
>  <CHROM.1>
11.70055364,-2.74163762,7.59985484,0.25433318,1.11995285,-2.02152248

>  <Name>
ligand

>  <RI>
0

>  <Rbt.Current_Directory>
/home/itssahil/PROJECTS/Mol_Feturizer/Test_systems_manuscript/rnas/2xnw

>  <Rbt.Executable>
rbdock ($Id: //depot/dev/client3/rdock/2013.1/src/exe/rbdock.cxx#4 $)

>  <Rbt.Library>
libRbt.so (2013.1, Build901 2013/11/27)

>  <Rbt.Parameter_File>
/export/apps/rDock/src/rDock_2013.1_src/data/scripts/dock_solv.prm

>  <Rbt.Receptor>
prm/blind_docking_40.prm

>  <SCORE>
-6.71209

>  <SCORE.INTER>
-6.71209

>  <SCORE.INTER.CONST>
1

>  <SCORE.INTER.POLAR>
0

>  <SCORE.INTER.ROT>
0

>  <SCORE.INTER.SOLV>
15.7869

>  <SCORE.INTER.VDW>
-13.337

>  <SCORE.INTER.norm>
-0.671209

>  <SCORE.INTRA>
0

>  <SCORE.INTRA.DIHEDRAL>
0

>  <SCORE.INTRA.DIHEDRAL.0>
0

>  <SCORE.INTRA.POLAR>
0

>  <SCORE.INTRA.POLAR.0>
0

>  <SCORE.INTRA.REPUL>
0

>  <SCORE.INTRA.REPUL.0>
0

>  <SCORE.INTRA.SOLV>
0

>  <SCORE.INTRA.SOLV.lig_0>
-47.9788

>  <SCORE.INTRA.VDW>
0

>  <SCORE.INTRA.VDW.0>
0

>  <SCORE.INTRA.norm>
0

>  <SCORE.RESTR>
0

>  <SCORE.RESTR.CAVITY>
0

>  <SCORE.RESTR.norm>
0

>  <SCORE.SYSTEM>
0

>  <SCORE.SYSTEM.CONST>
0

>  <SCORE.SYSTEM.DIHEDRAL>
0

>  <SCORE.SYSTEM.SOLV>
0

>  <SCORE.SYSTEM.norm>
0

>  <SCORE.heavy>
10

>  <SCORE.norm>
-0.671209

>  <RMSD>
2.977

$$$$
ligand
 OpenBabel02271912133D
libRbt.so/2013.1/901 2013/11/27
 10 11  0  0  0  0  0  0  0  0999 V2000
   12.4638   -4.4423    7.7345 C   0  0  1  0  0  0  0  0  0  0  0  0
   10.9920   -1.4831    6.8793 C   0  0  2  0  0  0  0  0  0  0  0  0
   11.8068   -2.5892    8.4792 C   0  0  2  0  0  0  0  0  0  0  0  0
   12.9925   -5.6680    7.6445 N   0  0  0  0  0  0  0  0  0  0  0  0
   10.5911   -1.0877    5.6750 N   0  0  0  0  0  0  0  0  0  0  0  0
   10.8834   -0.7548    7.9841 N   0  0  0  0  0  0  0  0  0  0  0  0
   12.3804   -3.7342    8.8553 N   0  0  0  0  0  0  0  0  0  0  0  0
   11.9560   -3.7335    6.7094 N   0  0  0  0  0  0  0  0  0  0  0  0
   11.3566   -1.4066    8.9259 N   0  0  0  0  0  0  0  0  0  0  0  0
   11.5744   -2.6425    7.1622 N   0  0  1  0  0  0  0  0  0  0  0  0
  1  4  1  6  0  0  0
  1  8  1  0  0  0  0
  1  7  1  0  0  0  0
  2  5  1  6  0  0  0
  2  6  1  0  0  0  0
  2 10  1  0  0  0  0
  3  7  1  1  0  0  0
  3 10  1  0  0  0  0
  3  9  1  0  0  0  0
  6  9  1  0  0  0  0
 10  8  1  1  0  0  0
M  END
>  <CHROM.1>
11.69727205,-2.75043431,7.60080228,0.21662208,1.12101274,-1.98493566

>  <Name>
ligand

>  <RI>
0

>  <Rbt.Current_Directory>
/home/itssahil/PROJECTS/Mol_Feturizer/Test_systems_manuscript/rnas/2xnw

>  <Rbt.Executable>
rbdock ($Id: //depot/dev/client3/rdock/2013.1/src/exe/rbdock.cxx#4 $)

>  <Rbt.Library>
libRbt.so (2013.1, Build901 2013/11/27)

>  <Rbt.Parameter_File>
/export/apps/rDock/src/rDock_2013.1_src/data/scripts/dock_solv.prm

>  <Rbt.Receptor>
prm/blind_docking_40.prm

>  <SCORE>
-6.70089

>  <SCORE.INTER>
-6.70089

>  <SCORE.INTER.CONST>
1

>  <SCORE.INTER.POLAR>
0

>  <SCORE.INTER.ROT>
0

>  <SCORE.INTER.SOLV>
15.782

>  <SCORE.INTER.VDW>
-13.3279

>  <SCORE.INTER.norm>
-0.670089

>  <SCORE.INTRA>
0

>  <SCORE.INTRA.DIHEDRAL>
0

>  <SCORE.INTRA.DIHEDRAL.0>
0

>  <SCORE.INTRA.POLAR>
0

>  <SCORE.INTRA.POLAR.0>
0

>  <SCORE.INTRA.REPUL>
0

>  <SCORE.INTRA.REPUL.0>
0

>  <SCORE.INTRA.SOLV>
0

>  <SCORE.INTRA.SOLV.lig_0>
-47.9788

>  <SCORE.INTRA.VDW>
0

>  <SCORE.INTRA.VDW.0>
0

>  <SCORE.INTRA.norm>
0

>  <SCORE.RESTR>
0

>  <SCORE.RESTR.CAVITY>
0

>  <SCORE.RESTR.norm>
0

>  <SCORE.SYSTEM>
0

>  <SCORE.SYSTEM.CONST>
0

>  <SCORE.SYSTEM.DIHEDRAL>
0

>  <SCORE.SYSTEM.SOLV>
0

>  <SCORE.SYSTEM.norm>
0

>  <SCORE.heavy>
10

>  <SCORE.norm>
-0.670089

>  <RMSD>
2.977

$$$$
ligand
 OpenBabel02271912133D
libRbt.so/2013.1/901 2013/11/27
 10 11  0  0  0  0  0  0  0  0999 V2000
   12.5614   -4.4207    7.7236 C   0  0  1  0  0  0  0  0  0  0  0  0
   10.9955   -1.5042    6.8890 C   0  0  2  0  0  0  0  0  0  0  0  0
   11.8445   -2.5953    8.4814 C   0  0  2  0  0  0  0  0  0  0  0  0
   13.1293   -5.6281    7.6250 N   0  0  0  0  0  0  0  0  0  0  0  0
   10.5829   -1.1131    5.6873 N   0  0  0  0  0  0  0  0  0  0  0  0
   10.8628   -0.7880    7.9990 N   0  0  0  0  0  0  0  0  0  0  0  0
   12.4544   -3.7240    8.8496 N   0  0  0  0  0  0  0  0  0  0  0  0
   12.0316   -3.7211    6.7033 N   0  0  0  0  0  0  0  0  0  0  0  0
   11.3562   -1.4311    8.9364 N   0  0  0  0  0  0  0  0  0  0  0  0
   11.6147   -2.6464    7.1639 N   0  0  1  0  0  0  0  0  0  0  0  0
  1  4  1  6  0  0  0
  1  8  1  0  0  0  0
  1  7  1  0  0  0  0
  2  5  1  6  0  0  0
  2  6  1  0  0  0  0
  2 10  1  0  0  0  0
  3  7  1  1  0  0  0
  3 10  1  0  0  0  0
  3  9  1  0  0  0  0
  6  9  1  0  0  0  0
 10  8  1  1  0  0  0
M  END
>  <CHROM.1>
11.74077985,-2.75349042,7.60174301,0.18727437,1.09159188,-1.95130182

>  <Name>
ligand

>  <RI>
0

>  <Rbt.Current_Directory>
/home/itssahil/PROJECTS/Mol_Feturizer/Test_systems_manuscript/rnas/2xnw

>  <Rbt.Executable>
rbdock ($Id: //depot/dev/client3/rdock/2013.1/src/exe/rbdock.cxx#4 $)

>  <Rbt.Library>
libRbt.so (2013.1, Build901 2013/11/27)

>  <Rbt.Parameter_File>
/export/apps/rDock/src/rDock_2013.1_src/data/scripts/dock_solv.prm

>  <Rbt.Receptor>
prm/blind_docking_40.prm

>  <SCORE>
-6.6861

>  <SCORE.INTER>
-6.6861

>  <SCORE.INTER.CONST>
1

>  <SCORE.INTER.POLAR>
0

>  <SCORE.INTER.ROT>
0

>  <SCORE.INTER.SOLV>
15.1641

>  <SCORE.INTER.VDW>
-13.1121

>  <SCORE.INTER.norm>
-0.66861

>  <SCORE.INTRA>
0

>  <SCORE.INTRA.DIHEDRAL>
0

>  <SCORE.INTRA.DIHEDRAL.0>
0

>  <SCORE.INTRA.POLAR>
0

>  <SCORE.INTRA.POLAR.0>
0

>  <SCORE.INTRA.REPUL>
0

>  <SCORE.INTRA.REPUL.0>
0

>  <SCORE.INTRA.SOLV>
0

>  <SCORE.INTRA.SOLV.lig_0>
-47.9788

>  <SCORE.INTRA.VDW>
0

>  <SCORE.INTRA.VDW.0>
0

>  <SCORE.INTRA.norm>
0

>  <SCORE.RESTR>
0

>  <SCORE.RESTR.CAVITY>
0

>  <SCORE.RESTR.norm>
0

>  <SCORE.SYSTEM>
0

>  <SCORE.SYSTEM.CONST>
0

>  <SCORE.SYSTEM.DIHEDRAL>
0

>  <SCORE.SYSTEM.SOLV>
0

>  <SCORE.SYSTEM.norm>
0

>  <SCORE.heavy>
10

>  <SCORE.norm>
-0.66861

>  <RMSD>
2.977

$$$$
ligand
 OpenBabel02271912133D
libRbt.so/2013.1/901 2013/11/27
 10 11  0  0  0  0  0  0  0  0999 V2000
   12.5059   -4.4322    7.7263 C   0  0  1  0  0  0  0  0  0  0  0  0
   11.0324   -1.4649    6.9030 C   0  0  2  0  0  0  0  0  0  0  0  0
   11.9235   -2.5551    8.4728 C   0  0  2  0  0  0  0  0  0  0  0  0
   13.0090   -5.6681    7.6287 N   0  0  0  0  0  0  0  0  0  0  0  0
   10.5667   -1.0849    5.7172 N   0  0  0  0  0  0  0  0  0  0  0  0
   11.0011   -0.7149    7.9981 N   0  0  0  0  0  0  0  0  0  0  0  0
   12.5004   -3.7025    8.8363 N   0  0  0  0  0  0  0  0  0  0  0  0
   11.9492   -3.7339    6.7196 N   0  0  0  0  0  0  0  0  0  0  0  0
   11.5193   -1.3571    8.9226 N   0  0  0  0  0  0  0  0  0  0  0  0
   11.6123   -2.6286    7.1732 N   0  0  1  0  0  0  0  0  0  0  0  0
  1  4  1  6  0  0  0
  1  8  1  0  0  0  0
  1  7  1  0  0  0  0
  2  5  1  6  0  0  0
  2  6  1  0  0  0  0
  2 10  1  0  0  0  0
  3  7  1  1  0  0  0
  3 10  1  0  0  0  0
  3  9  1  0  0  0  0
  6  9  1  0  0  0  0
 10  8  1  1  0  0  0
M  END
>  <CHROM.1>
11.75936927,-2.73051441,7.60571531,0.35314111,1.10765506,-2.12628399

>  <Name>
ligand

>  <RI>
0

>  <Rbt.Current_Directory>
/home/itssahil/PROJECTS/Mol_Feturizer/Test_systems_manuscript/rnas/2xnw

>  <Rbt.Executable>
rbdock ($Id: //depot/dev/client3/rdock/2013.1/src/exe/rbdock.cxx#4 $)

>  <Rbt.Library>
libRbt.so (2013.1, Build901 2013/11/27)

>  <Rbt.Parameter_File>
/export/apps/rDock/src/rDock_2013.1_src/data/scripts/dock_solv.prm

>  <Rbt.Receptor>
prm/blind_docking_60.prm

>  <SCORE>
-6.67931

>  <SCORE.INTER>
-6.67931

>  <SCORE.INTER.CONST>
1

>  <SCORE.INTER.POLAR>
0

>  <SCORE.INTER.ROT>
0

>  <SCORE.INTER.SOLV>
15.5535

>  <SCORE.INTER.VDW>
-13.2374

>  <SCORE.INTER.norm>
-0.667931

>  <SCORE.INTRA>
0

>  <SCORE.INTRA.DIHEDRAL>
0

>  <SCORE.INTRA.DIHEDRAL.0>
0

>  <SCORE.INTRA.POLAR>
0

>  <SCORE.INTRA.POLAR.0>
0

>  <SCORE.INTRA.REPUL>
0

>  <SCORE.INTRA.REPUL.0>
0

>  <SCORE.INTRA.SOLV>
0

>  <SCORE.INTRA.SOLV.lig_0>
-47.9788

>  <SCORE.INTRA.VDW>
0

>  <SCORE.INTRA.VDW.0>
0

>  <SCORE.INTRA.norm>
0

>  <SCORE.RESTR>
0

>  <SCORE.RESTR.CAVITY>
0

>  <SCORE.RESTR.norm>
0

>  <SCORE.SYSTEM>
0

>  <SCORE.SYSTEM.CONST>
0

>  <SCORE.SYSTEM.DIHEDRAL>
0

>  <SCORE.SYSTEM.SOLV>
0

>  <SCORE.SYSTEM.norm>
0

>  <SCORE.heavy>
10

>  <SCORE.norm>
-0.667931

>  <RMSD>
2.977

$$$$
ligand
 OpenBabel02271912133D
libRbt.so/2013.1/901 2013/11/27
 10 11  0  0  0  0  0  0  0  0999 V2000
   12.5987   -4.4138    7.7451 C   0  0  1  0  0  0  0  0  0  0  0  0
   11.0119   -1.4985    6.9468 C   0  0  2  0  0  0  0  0  0  0  0  0
   11.9073   -2.5845    8.5171 C   0  0  2  0  0  0  0  0  0  0  0  0
   13.1619   -5.6223    7.6342 N   0  0  0  0  0  0  0  0  0  0  0  0
   10.5637   -1.1114    5.7566 N   0  0  0  0  0  0  0  0  0  0  0  0
   10.9137   -0.7778    8.0575 N   0  0  0  0  0  0  0  0  0  0  0  0
   12.5267   -3.7126    8.8711 N   0  0  0  0  0  0  0  0  0  0  0  0
   12.0392   -3.7174    6.7386 N   0  0  0  0  0  0  0  0  0  0  0  0
   11.4344   -1.4179    8.9821 N   0  0  0  0  0  0  0  0  0  0  0  0
   11.6378   -2.6404    7.2073 N   0  0  1  0  0  0  0  0  0  0  0  0
  1  4  1  6  0  0  0
  1  8  1  0  0  0  0
  1  7  1  0  0  0  0
  2  5  1  6  0  0  0
  2  6  1  0  0  0  0
  2 10  1  0  0  0  0
  3  7  1  1  0  0  0
  3 10  1  0  0  0  0
  3  9  1  0  0  0  0
  6  9  1  0  0  0  0
 10  8  1  1  0  0  0
M  END
>  <CHROM.1>
11.77685659,-2.74597622,7.64158704,0.24787810,1.08075016,-2.00883915

>  <Name>
ligand

>  <RI>
0

>  <Rbt.Current_Directory>
/home/itssahil/PROJECTS/Mol_Feturizer/Test_systems_manuscript/rnas/2xnw

>  <Rbt.Executable>
rbdock ($Id: //depot/dev/client3/rdock/2013.1/src/exe/rbdock.cxx#4 $)

>  <Rbt.Library>
libRbt.so (2013.1, Build901 2013/11/27)

>  <Rbt.Parameter_File>
/export/apps/rDock/src/rDock_2013.1_src/data/scripts/dock_solv.prm

>  <Rbt.Receptor>
prm/blind_docking_60.prm

>  <SCORE>
-6.68592

>  <SCORE.INTER>
-6.68592

>  <SCORE.INTER.CONST>
1

>  <SCORE.INTER.POLAR>
0

>  <SCORE.INTER.ROT>
0

>  <SCORE.INTER.SOLV>
14.9002

>  <SCORE.INTER.VDW>
-13.024

>  <SCORE.INTER.norm>
-0.668592

>  <SCORE.INTRA>
0

>  <SCORE.INTRA.DIHEDRAL>
0

>  <SCORE.INTRA.DIHEDRAL.0>
0

>  <SCORE.INTRA.POLAR>
0

>  <SCORE.INTRA.POLAR.0>
0

>  <SCORE.INTRA.REPUL>
0

>  <SCORE.INTRA.REPUL.0>
0

>  <SCORE.INTRA.SOLV>
0

>  <SCORE.INTRA.SOLV.lig_0>
-47.9788

>  <SCORE.INTRA.VDW>
0

>  <SCORE.INTRA.VDW.0>
0

>  <SCORE.INTRA.norm>
0

>  <SCORE.RESTR>
0

>  <SCORE.RESTR.CAVITY>
0

>  <SCORE.RESTR.norm>
0

>  <SCORE.SYSTEM>
0

>  <SCORE.SYSTEM.CONST>
0

>  <SCORE.SYSTEM.DIHEDRAL>
0

>  <SCORE.SYSTEM.SOLV>
0

>  <SCORE.SYSTEM.norm>
0

>  <SCORE.heavy>
10

>  <SCORE.norm>
-0.668592

>  <RMSD>
2.977

$$$$
ligand
 OpenBabel02271912133D
libRbt.so/2013.1/901 2013/11/27
 10 11  0  0  0  0  0  0  0  0999 V2000
   12.5572   -4.4224    7.7217 C   0  0  1  0  0  0  0  0  0  0  0  0
   11.0074   -1.4967    6.8895 C   0  0  2  0  0  0  0  0  0  0  0  0
   11.8521   -2.5930    8.4807 C   0  0  2  0  0  0  0  0  0  0  0  0
   13.1180   -5.6331    7.6222 N   0  0  0  0  0  0  0  0  0  0  0  0
   10.5954   -1.1030    5.6885 N   0  0  0  0  0  0  0  0  0  0  0  0
   10.8803   -0.7799    7.9998 N   0  0  0  0  0  0  0  0  0  0  0  0
   12.4559   -3.7253    8.8479 N   0  0  0  0  0  0  0  0  0  0  0  0
   12.0302   -3.7196    6.7022 N   0  0  0  0  0  0  0  0  0  0  0  0
   11.3712   -1.4260    8.9365 N   0  0  0  0  0  0  0  0  0  0  0  0
   11.6203   -2.6425    7.1634 N   0  0  1  0  0  0  0  0  0  0  0  0
  1  4  1  6  0  0  0
  1  8  1  0  0  0  0
  1  7  1  0  0  0  0
  2  5  1  6  0  0  0
  2  6  1  0  0  0  0
  2 10  1  0  0  0  0
  3  7  1  1  0  0  0
  3 10  1  0  0  0  0
  3  9  1  0  0  0  0
  6  9  1  0  0  0  0
 10  8  1  1  0  0  0
M  END
>  <CHROM.1>
11.74626489,-2.75043479,7.60113359,0.19472592,1.09651273,-1.95779584

>  <Name>
ligand

>  <RI>
0

>  <Rbt.Current_Directory>
/home/itssahil/PROJECTS/Mol_Feturizer/Test_systems_manuscript/rnas/2xnw

>  <Rbt.Executable>
rbdock ($Id: //depot/dev/client3/rdock/2013.1/src/exe/rbdock.cxx#4 $)

>  <Rbt.Library>
libRbt.so (2013.1, Build901 2013/11/27)

>  <Rbt.Parameter_File>
/export/apps/rDock/src/rDock_2013.1_src/data/scripts/dock_solv.prm

>  <Rbt.Receptor>
prm/blind_docking_80.prm

>  <SCORE>
-6.68722

>  <SCORE.INTER>
-6.68722

>  <SCORE.INTER.CONST>
1

>  <SCORE.INTER.POLAR>
0

>  <SCORE.INTER.ROT>
0

>  <SCORE.INTER.SOLV>
15.2379

>  <SCORE.INTER.VDW>
-13.1374

>  <SCORE.INTER.norm>
-0.668722

>  <SCORE.INTRA>
0

>  <SCORE.INTRA.DIHEDRAL>
0

>  <SCORE.INTRA.DIHEDRAL.0>
0

>  <SCORE.INTRA.POLAR>
0

>  <SCORE.INTRA.POLAR.0>
0

>  <SCORE.INTRA.REPUL>
0

>  <SCORE.INTRA.REPUL.0>
0

>  <SCORE.INTRA.SOLV>
0

>  <SCORE.INTRA.SOLV.lig_0>
-47.9788

>  <SCORE.INTRA.VDW>
0

>  <SCORE.INTRA.VDW.0>
0

>  <SCORE.INTRA.norm>
0

>  <SCORE.RESTR>
0

>  <SCORE.RESTR.CAVITY>
0

>  <SCORE.RESTR.norm>
0

>  <SCORE.SYSTEM>
0

>  <SCORE.SYSTEM.CONST>
0

>  <SCORE.SYSTEM.DIHEDRAL>
0

>  <SCORE.SYSTEM.SOLV>
0

>  <SCORE.SYSTEM.norm>
0

>  <SCORE.heavy>
10

>  <SCORE.norm>
-0.668722

>  <RMSD>
2.977

$$$$
ligand
 OpenBabel02271912133D
libRbt.so/2013.1/901 2013/11/27
 10 11  0  0  0  0  0  0  0  0999 V2000
   12.4580   -4.4301    7.7210 C   0  0  1  0  0  0  0  0  0  0  0  0
   10.9864   -1.4627    6.8943 C   0  0  2  0  0  0  0  0  0  0  0  0
   11.8682   -2.5553    8.4678 C   0  0  2  0  0  0  0  0  0  0  0  0
   12.9633   -5.6651    7.6241 N   0  0  0  0  0  0  0  0  0  0  0  0
   10.5285   -1.0806    5.7062 N   0  0  0  0  0  0  0  0  0  0  0  0
   10.9468   -0.7151    7.9908 N   0  0  0  0  0  0  0  0  0  0  0  0
   12.4440   -3.7029    8.8325 N   0  0  0  0  0  0  0  0  0  0  0  0
   11.9073   -3.7301    6.7121 N   0  0  0  0  0  0  0  0  0  0  0  0
   11.4594   -1.3589    8.9174 N   0  0  0  0  0  0  0  0  0  0  0  0
   11.5659   -2.6263    7.1658 N   0  0  1  0  0  0  0  0  0  0  0  0
  1  4  1  6  0  0  0
  1  8  1  0  0  0  0
  1  7  1  0  0  0  0
  2  5  1  6  0  0  0
  2  6  1  0  0  0  0
  2 10  1  0  0  0  0
  3  7  1  1  0  0  0
  3 10  1  0  0  0  0
  3  9  1  0  0  0  0
  6  9  1  0  0  0  0
 10  8  1  1  0  0  0
M  END
>  <CHROM.1>
11.71019590,-2.72898458,7.59914930,0.33860790,1.11017384,-2.11102122

>  <Name>
ligand

>  <RI>
0

>  <Rbt.Current_Directory>
/home/itssahil/PROJECTS/Mol_Feturizer/Test_systems_manuscript/rnas/2xnw

>  <Rbt.Executable>
rbdock ($Id: //depot/dev/client3/rdock/2013.1/src/exe/rbdock.cxx#4 $)

>  <Rbt.Library>
libRbt.so (2013.1, Build901 2013/11/27)

>  <Rbt.Parameter_File>
/export/apps/rDock/src/rDock_2013.1_src/data/scripts/dock_solv.prm

>  <Rbt.Receptor>
prm/blind_docking_80.prm

>  <SCORE>
-6.72433

>  <SCORE.INTER>
-6.72433

>  <SCORE.INTER.CONST>
1

>  <SCORE.INTER.POLAR>
0

>  <SCORE.INTER.ROT>
0

>  <SCORE.INTER.SOLV>
15.7046

>  <SCORE.INTER.VDW>
-13.3177

>  <SCORE.INTER.norm>
-0.672433

>  <SCORE.INTRA>
0

>  <SCORE.INTRA.DIHEDRAL>
0

>  <SCORE.INTRA.DIHEDRAL.0>
0

>  <SCORE.INTRA.POLAR>
0

>  <SCORE.INTRA.POLAR.0>
0

>  <SCORE.INTRA.REPUL>
0

>  <SCORE.INTRA.REPUL.0>
0

>  <SCORE.INTRA.SOLV>
0

>  <SCORE.INTRA.SOLV.lig_0>
-47.9788

>  <SCORE.INTRA.VDW>
0

>  <SCORE.INTRA.VDW.0>
0

>  <SCORE.INTRA.norm>
0

>  <SCORE.RESTR>
0

>  <SCORE.RESTR.CAVITY>
0

>  <SCORE.RESTR.norm>
0

>  <SCORE.SYSTEM>
0

>  <SCORE.SYSTEM.CONST>
0

>  <SCORE.SYSTEM.DIHEDRAL>
0

>  <SCORE.SYSTEM.SOLV>
0

>  <SCORE.SYSTEM.norm>
0

>  <SCORE.heavy>
10

>  <SCORE.norm>
-0.672433

>  <RMSD>
2.977

$$$$
ligand
 OpenBabel02271912133D
libRbt.so/2013.1/901 2013/11/27
 10 11  0  0  0  0  0  0  0  0999 V2000
   12.5453   -4.4151    7.7182 C   0  0  1  0  0  0  0  0  0  0  0  0
   10.9917   -1.4888    6.8953 C   0  0  2  0  0  0  0  0  0  0  0  0
   11.8485   -2.5839    8.4808 C   0  0  2  0  0  0  0  0  0  0  0  0
   13.1039   -5.6265    7.6156 N   0  0  0  0  0  0  0  0  0  0  0  0
   10.5702   -1.0961    5.6973 N   0  0  0  0  0  0  0  0  0  0  0  0
   10.8747   -0.7705    8.0058 N   0  0  0  0  0  0  0  0  0  0  0  0
   12.4541   -3.7165    8.8443 N   0  0  0  0  0  0  0  0  0  0  0  0
   12.0106   -3.7130    6.7023 N   0  0  0  0  0  0  0  0  0  0  0  0
   11.3726   -1.4159    8.9391 N   0  0  0  0  0  0  0  0  0  0  0  0
   11.6056   -2.6349    7.1656 N   0  0  1  0  0  0  0  0  0  0  0  0
  1  4  1  6  0  0  0
  1  8  1  0  0  0  0
  1  7  1  0  0  0  0
  2  5  1  6  0  0  0
  2  6  1  0  0  0  0
  2 10  1  0  0  0  0
  3  7  1  1  0  0  0
  3 10  1  0  0  0  0
  3  9  1  0  0  0  0
  6  9  1  0  0  0  0
 10  8  1  1  0  0  0
M  END
>  <CHROM.1>
11.73516341,-2.74240760,7.60233802,0.21243349,1.09429316,-1.97479192

>  <Name>
ligand

>  <RI>
0

>  <Rbt.Current_Directory>
/home/itssahil/PROJECTS/Mol_Feturizer/Test_systems_manuscript/rnas/2xnw

>  <Rbt.Executable>
rbdock ($Id: //depot/dev/client3/rdock/2013.1/src/exe/rbdock.cxx#4 $)

>  <Rbt.Library>
libRbt.so (2013.1, Build901 2013/11/27)

>  <Rbt.Parameter_File>
/export/apps/rDock/src/rDock_2013.1_src/data/scripts/dock_solv.prm

>  <Rbt.Receptor>
prm/pocket_docking_5.prm

>  <SCORE>
-6.68636

>  <SCORE.INTER>
-6.68636

>  <SCORE.INTER.CONST>
1

>  <SCORE.INTER.POLAR>
0

>  <SCORE.INTER.ROT>
0

>  <SCORE.INTER.SOLV>
15.258

>  <SCORE.INTER.VDW>
-13.1436

>  <SCORE.INTER.norm>
-0.668636

>  <SCORE.INTRA>
0

>  <SCORE.INTRA.DIHEDRAL>
0

>  <SCORE.INTRA.DIHEDRAL.0>
0

>  <SCORE.INTRA.POLAR>
0

>  <SCORE.INTRA.POLAR.0>
0

>  <SCORE.INTRA.REPUL>
0

>  <SCORE.INTRA.REPUL.0>
0

>  <SCORE.INTRA.SOLV>
0

>  <SCORE.INTRA.SOLV.lig_0>
-47.9788

>  <SCORE.INTRA.VDW>
0

>  <SCORE.INTRA.VDW.0>
0

>  <SCORE.INTRA.norm>
0

>  <SCORE.RESTR>
0

>  <SCORE.RESTR.CAVITY>
0

>  <SCORE.RESTR.norm>
0

>  <SCORE.SYSTEM>
0

>  <SCORE.SYSTEM.CONST>
0

>  <SCORE.SYSTEM.DIHEDRAL>
0

>  <SCORE.SYSTEM.SOLV>
0

>  <SCORE.SYSTEM.norm>
0

>  <SCORE.heavy>
10

>  <SCORE.norm>
-0.668636

>  <RMSD>
2.977

$$$$
ligand
 OpenBabel02271912133D
libRbt.so/2013.1/901 2013/11/27
 10 11  0  0  0  0  0  0  0  0999 V2000
   12.4649   -4.4438    7.7368 C   0  0  1  0  0  0  0  0  0  0  0  0
   10.9885   -1.4863    6.8833 C   0  0  2  0  0  0  0  0  0  0  0  0
   11.8246   -2.5836    8.4784 C   0  0  2  0  0  0  0  0  0  0  0  0
   12.9887   -5.6716    7.6474 N   0  0  0  0  0  0  0  0  0  0  0  0
   10.5704   -1.0983    5.6825 N   0  0  0  0  0  0  0  0  0  0  0  0
   10.8989   -0.7500    7.9844 N   0  0  0  0  0  0  0  0  0  0  0  0
   12.4006   -3.7276    8.8537 N   0  0  0  0  0  0  0  0  0  0  0  0
   11.9435   -3.7407    6.7146 N   0  0  0  0  0  0  0  0  0  0  0  0
   11.3846   -1.3965    8.9235 N   0  0  0  0  0  0  0  0  0  0  0  0
   11.5719   -2.6455    7.1655 N   0  0  1  0  0  0  0  0  0  0  0  0
  1  4  1  6  0  0  0
  1  8  1  0  0  0  0
  1  7  1  0  0  0  0
  2  5  1  6  0  0  0
  2  6  1  0  0  0  0
  2 10  1  0  0  0  0
  3  7  1  1  0  0  0
  3 10  1  0  0  0  0
  3  9  1  0  0  0  0
  6  9  1  0  0  0  0
 10  8  1  1  0  0  0
M  END
>  <CHROM.1>
11.70114978,-2.75067271,7.60288110,0.25115605,1.11721092,-2.02304539

>  <Name>
ligand

>  <RI>
0

>  <Rbt.Current_Directory>
/home/itssahil/PROJECTS/Mol_Feturizer/Test_systems_manuscript/rnas/2xnw

>  <Rbt.Executable>
rbdock ($Id: //depot/dev/client3/rdock/2013.1/src/exe/rbdock.cxx#4 $)

>  <Rbt.Library>
libRbt.so (2013.1, Build901 2013/11/27)

>  <Rbt.Parameter_File>
/export/apps/rDock/src/rDock_2013.1_src/data/scripts/dock_solv.prm

>  <Rbt.Receptor>
prm/pocket_docking_6.prm

>  <SCORE>
-6.70821

>  <SCORE.INTER>
-6.70821

>  <SCORE.INTER.CONST>
1

>  <SCORE.INTER.POLAR>
0

>  <SCORE.INTER.ROT>
0

>  <SCORE.INTER.SOLV>
15.7261

>  <SCORE.INTER.VDW>
-13.3142

>  <SCORE.INTER.norm>
-0.670821

>  <SCORE.INTRA>
0

>  <SCORE.INTRA.DIHEDRAL>
0

>  <SCORE.INTRA.DIHEDRAL.0>
0

>  <SCORE.INTRA.POLAR>
0

>  <SCORE.INTRA.POLAR.0>
0

>  <SCORE.INTRA.REPUL>
0

>  <SCORE.INTRA.REPUL.0>
0

>  <SCORE.INTRA.SOLV>
0

>  <SCORE.INTRA.SOLV.lig_0>
-47.9788

>  <SCORE.INTRA.VDW>
0

>  <SCORE.INTRA.VDW.0>
0

>  <SCORE.INTRA.norm>
0

>  <SCORE.RESTR>
0

>  <SCORE.RESTR.CAVITY>
0

>  <SCORE.RESTR.norm>
0

>  <SCORE.SYSTEM>
0

>  <SCORE.SYSTEM.CONST>
0

>  <SCORE.SYSTEM.DIHEDRAL>
0

>  <SCORE.SYSTEM.SOLV>
0

>  <SCORE.SYSTEM.norm>
0

>  <SCORE.heavy>
10

>  <SCORE.norm>
-0.670821

>  <RMSD>
2.977

$$$$
ligand
 OpenBabel02271912133D
libRbt.so/2013.1/901 2013/11/27
 10 11  0  0  0  0  0  0  0  0999 V2000
   12.5956   -4.4157    7.7436 C   0  0  1  0  0  0  0  0  0  0  0  0
   11.0172   -1.4969    6.9415 C   0  0  2  0  0  0  0  0  0  0  0  0
   11.9118   -2.5824    8.5127 C   0  0  2  0  0  0  0  0  0  0  0  0
   13.1546   -5.6264    7.6344 N   0  0  0  0  0  0  0  0  0  0  0  0
   10.5681   -1.1110    5.7512 N   0  0  0  0  0  0  0  0  0  0  0  0
   10.9234   -0.7734    8.0507 N   0  0  0  0  0  0  0  0  0  0  0  0
   12.5280   -3.7118    8.8680 N   0  0  0  0  0  0  0  0  0  0  0  0
   12.0367   -3.7197    6.7365 N   0  0  0  0  0  0  0  0  0  0  0  0
   11.4436   -1.4132    8.9758 N   0  0  0  0  0  0  0  0  0  0  0  0
   11.6397   -2.6403    7.2034 N   0  0  1  0  0  0  0  0  0  0  0  0
  1  4  1  6  0  0  0
  1  8  1  0  0  0  0
  1  7  1  0  0  0  0
  2  5  1  6  0  0  0
  2  6  1  0  0  0  0
  2 10  1  0  0  0  0
  3  7  1  1  0  0  0
  3 10  1  0  0  0  0
  3  9  1  0  0  0  0
  6  9  1  0  0  0  0
 10  8  1  1  0  0  0
M  END
>  <CHROM.1>
11.77921642,-2.74540197,7.63772571,0.25434496,1.08301548,-2.01678613

>  <Name>
ligand

>  <RI>
0

>  <Rbt.Current_Directory>
/home/itssahil/PROJECTS/Mol_Feturizer/Test_systems_manuscript/rnas/2xnw

>  <Rbt.Executable>
rbdock ($Id: //depot/dev/client3/rdock/2013.1/src/exe/rbdock.cxx#4 $)

>  <Rbt.Library>
libRbt.so (2013.1, Build901 2013/11/27)

>  <Rbt.Parameter_File>
/export/apps/rDock/src/rDock_2013.1_src/data/scripts/dock_solv.prm

>  <Rbt.Receptor>
prm/pocket_docking_6.prm

>  <SCORE>
-6.68474

>  <SCORE.INTER>
-6.68474

>  <SCORE.INTER.CONST>
1

>  <SCORE.INTER.POLAR>
0

>  <SCORE.INTER.ROT>
0

>  <SCORE.INTER.SOLV>
14.9358

>  <SCORE.INTER.VDW>
-13.0351

>  <SCORE.INTER.norm>
-0.668474

>  <SCORE.INTRA>
0

>  <SCORE.INTRA.DIHEDRAL>
0

>  <SCORE.INTRA.DIHEDRAL.0>
0

>  <SCORE.INTRA.POLAR>
0

>  <SCORE.INTRA.POLAR.0>
0

>  <SCORE.INTRA.REPUL>
0

>  <SCORE.INTRA.REPUL.0>
0

>  <SCORE.INTRA.SOLV>
0

>  <SCORE.INTRA.SOLV.lig_0>
-47.9788

>  <SCORE.INTRA.VDW>
0

>  <SCORE.INTRA.VDW.0>
0

>  <SCORE.INTRA.norm>
0

>  <SCORE.RESTR>
0

>  <SCORE.RESTR.CAVITY>
0

>  <SCORE.RESTR.norm>
0

>  <SCORE.SYSTEM>
0

>  <SCORE.SYSTEM.CONST>
0

>  <SCORE.SYSTEM.DIHEDRAL>
0

>  <SCORE.SYSTEM.SOLV>
0

>  <SCORE.SYSTEM.norm>
0

>  <SCORE.heavy>
10

>  <SCORE.norm>
-0.668474

>  <RMSD>
2.977

$$$$
ligand
 OpenBabel02271912133D
libRbt.so/2013.1/901 2013/11/27
 10 11  0  0  0  0  0  0  0  0999 V2000
   12.5061   -4.4305    7.7237 C   0  0  1  0  0  0  0  0  0  0  0  0
   11.0278   -1.4642    6.9051 C   0  0  2  0  0  0  0  0  0  0  0  0
   11.9154   -2.5577    8.4747 C   0  0  2  0  0  0  0  0  0  0  0  0
   13.0131   -5.6647    7.6238 N   0  0  0  0  0  0  0  0  0  0  0  0
   10.5662   -1.0812    5.7188 N   0  0  0  0  0  0  0  0  0  0  0  0
   10.9899   -0.7183    8.0028 N   0  0  0  0  0  0  0  0  0  0  0  0
   12.4939   -3.7049    8.8364 N   0  0  0  0  0  0  0  0  0  0  0  0
   11.9517   -3.7300    6.7173 N   0  0  0  0  0  0  0  0  0  0  0  0
   11.5060   -1.3626    8.9271 N   0  0  0  0  0  0  0  0  0  0  0  0
   11.6098   -2.6273    7.1735 N   0  0  1  0  0  0  0  0  0  0  0  0
  1  4  1  6  0  0  0
  1  8  1  0  0  0  0
  1  7  1  0  0  0  0
  2  5  1  6  0  0  0
  2  6  1  0  0  0  0
  2 10  1  0  0  0  0
  3  7  1  1  0  0  0
  3 10  1  0  0  0  0
  3  9  1  0  0  0  0
  6  9  1  0  0  0  0
 10  8  1  1  0  0  0
M  END
>  <CHROM.1>
11.75538101,-2.73042523,7.60627070,0.34187110,1.10750552,-2.11253514

>  <Name>
ligand

>  <RI>
0

>  <Rbt.Current_Directory>
/home/itssahil/PROJECTS/Mol_Feturizer/Test_systems_manuscript/rnas/2xnw

>  <Rbt.Executable>
rbdock ($Id: //depot/dev/client3/rdock/2013.1/src/exe/rbdock.cxx#4 $)

>  <Rbt.Library>
libRbt.so (2013.1, Build901 2013/11/27)

>  <Rbt.Parameter_File>
/export/apps/rDock/src/rDock_2013.1_src/data/scripts/dock_solv.prm

>  <Rbt.Receptor>
prm/pocket_docking_6.prm

>  <SCORE>
-6.68214

>  <SCORE.INTER>
-6.68214

>  <SCORE.INTER.CONST>
1

>  <SCORE.INTER.POLAR>
0

>  <SCORE.INTER.ROT>
0

>  <SCORE.INTER.SOLV>
15.5443

>  <SCORE.INTER.VDW>
-13.2362

>  <SCORE.INTER.norm>
-0.668214

>  <SCORE.INTRA>
0

>  <SCORE.INTRA.DIHEDRAL>
0

>  <SCORE.INTRA.DIHEDRAL.0>
0

>  <SCORE.INTRA.POLAR>
0

>  <SCORE.INTRA.POLAR.0>
0

>  <SCORE.INTRA.REPUL>
0

>  <SCORE.INTRA.REPUL.0>
0

>  <SCORE.INTRA.SOLV>
0

>  <SCORE.INTRA.SOLV.lig_0>
-47.9788

>  <SCORE.INTRA.VDW>
0

>  <SCORE.INTRA.VDW.0>
0

>  <SCORE.INTRA.norm>
0

>  <SCORE.RESTR>
0

>  <SCORE.RESTR.CAVITY>
0

>  <SCORE.RESTR.norm>
0

>  <SCORE.SYSTEM>
0

>  <SCORE.SYSTEM.CONST>
0

>  <SCORE.SYSTEM.DIHEDRAL>
0

>  <SCORE.SYSTEM.SOLV>
0

>  <SCORE.SYSTEM.norm>
0

>  <SCORE.heavy>
10

>  <SCORE.norm>
-0.668214

>  <RMSD>
2.977

$$$$
ligand
 OpenBabel02271912133D
libRbt.so/2013.1/901 2013/11/27
 10 11  0  0  0  0  0  0  0  0999 V2000
   12.4636   -4.4475    7.7376 C   0  0  1  0  0  0  0  0  0  0  0  0
   11.0073   -1.4796    6.8862 C   0  0  2  0  0  0  0  0  0  0  0  0
   11.8361   -2.5834    8.4805 C   0  0  2  0  0  0  0  0  0  0  0  0
   12.9790   -5.6788    7.6474 N   0  0  0  0  0  0  0  0  0  0  0  0
   10.5916   -1.0879    5.6858 N   0  0  0  0  0  0  0  0  0  0  0  0
   10.9228   -0.7433    7.9878 N   0  0  0  0  0  0  0  0  0  0  0  0
   12.4044   -3.7316    8.8551 N   0  0  0  0  0  0  0  0  0  0  0  0
   11.9468   -3.7403    6.7160 N   0  0  0  0  0  0  0  0  0  0  0  0
   11.4043   -1.3937    8.9264 N   0  0  0  0  0  0  0  0  0  0  0  0
   11.5828   -2.6428    7.1676 N   0  0  1  0  0  0  0  0  0  0  0  0
  1  4  1  6  0  0  0
  1  8  1  0  0  0  0
  1  7  1  0  0  0  0
  2  5  1  6  0  0  0
  2  6  1  0  0  0  0
  2 10  1  0  0  0  0
  3  7  1  1  0  0  0
  3 10  1  0  0  0  0
  3  9  1  0  0  0  0
  6  9  1  0  0  0  0
 10  8  1  1  0  0  0
M  END
>  <CHROM.1>
11.71141430,-2.74914409,7.60491904,0.25841916,1.12324561,-2.02898008

>  <Name>
ligand

>  <RI>
0

>  <Rbt.Current_Directory>
/home/itssahil/PROJECTS/Mol_Feturizer/Test_systems_manuscript/rnas/2xnw

>  <Rbt.Executable>
rbdock ($Id: //depot/dev/client3/rdock/2013.1/src/exe/rbdock.cxx#4 $)

>  <Rbt.Library>
libRbt.so (2013.1, Build901 2013/11/27)

>  <Rbt.Parameter_File>
/export/apps/rDock/src/rDock_2013.1_src/data/scripts/dock_solv.prm

>  <Rbt.Receptor>
prm/pocket_docking_7.prm

>  <SCORE>
-6.71242

>  <SCORE.INTER>
-6.71242

>  <SCORE.INTER.CONST>
1

>  <SCORE.INTER.POLAR>
0

>  <SCORE.INTER.ROT>
0

>  <SCORE.INTER.SOLV>
15.7993

>  <SCORE.INTER.VDW>
-13.3414

>  <SCORE.INTER.norm>
-0.671242

>  <SCORE.INTRA>
0

>  <SCORE.INTRA.DIHEDRAL>
0

>  <SCORE.INTRA.DIHEDRAL.0>
0

>  <SCORE.INTRA.POLAR>
0

>  <SCORE.INTRA.POLAR.0>
0

>  <SCORE.INTRA.REPUL>
0

>  <SCORE.INTRA.REPUL.0>
0

>  <SCORE.INTRA.SOLV>
0

>  <SCORE.INTRA.SOLV.lig_0>
-47.9788

>  <SCORE.INTRA.VDW>
0

>  <SCORE.INTRA.VDW.0>
0

>  <SCORE.INTRA.norm>
0

>  <SCORE.RESTR>
0

>  <SCORE.RESTR.CAVITY>
0

>  <SCORE.RESTR.norm>
0

>  <SCORE.SYSTEM>
0

>  <SCORE.SYSTEM.CONST>
0

>  <SCORE.SYSTEM.DIHEDRAL>
0

>  <SCORE.SYSTEM.SOLV>
0

>  <SCORE.SYSTEM.norm>
0

>  <SCORE.heavy>
10

>  <SCORE.norm>
-0.671242

>  <RMSD>
2.977

$$$$
ligand
 OpenBabel02271912133D
libRbt.so/2013.1/901 2013/11/27
 10 11  0  0  0  0  0  0  0  0999 V2000
   12.4706   -4.4325    7.7370 C   0  0  1  0  0  0  0  0  0  0  0  0
   10.9886   -1.4685    6.9169 C   0  0  2  0  0  0  0  0  0  0  0  0
   11.8621   -2.5667    8.4911 C   0  0  2  0  0  0  0  0  0  0  0  0
   12.9844   -5.6637    7.6364 N   0  0  0  0  0  0  0  0  0  0  0  0
   10.5396   -1.0809    5.7272 N   0  0  0  0  0  0  0  0  0  0  0  0
   10.9339   -0.7289    8.0181 N   0  0  0  0  0  0  0  0  0  0  0  0
   12.4415   -3.7132    8.8534 N   0  0  0  0  0  0  0  0  0  0  0  0
   11.9252   -3.7289    6.7278 N   0  0  0  0  0  0  0  0  0  0  0  0
   11.4416   -1.3759    8.9451 N   0  0  0  0  0  0  0  0  0  0  0  0
   11.5727   -2.6304    7.1859 N   0  0  1  0  0  0  0  0  0  0  0  0
  1  4  1  6  0  0  0
  1  8  1  0  0  0  0
  1  7  1  0  0  0  0
  2  5  1  6  0  0  0
  2  6  1  0  0  0  0
  2 10  1  0  0  0  0
  3  7  1  1  0  0  0
  3 10  1  0  0  0  0
  3  9  1  0  0  0  0
  6  9  1  0  0  0  0
 10  8  1  1  0  0  0
M  END
>  <CHROM.1>
11.71342940,-2.73523016,7.61981631,0.31306189,1.10962929,-2.08116719

>  <Name>
ligand

>  <RI>
0

>  <Rbt.Current_Directory>
/home/itssahil/PROJECTS/Mol_Feturizer/Test_systems_manuscript/rnas/2xnw

>  <Rbt.Executable>
rbdock ($Id: //depot/dev/client3/rdock/2013.1/src/exe/rbdock.cxx#4 $)

>  <Rbt.Library>
libRbt.so (2013.1, Build901 2013/11/27)

>  <Rbt.Parameter_File>
/export/apps/rDock/src/rDock_2013.1_src/data/scripts/dock_solv.prm

>  <Rbt.Receptor>
prm/pocket_docking_8.prm

>  <SCORE>
-6.70945

>  <SCORE.INTER>
-6.70945

>  <SCORE.INTER.CONST>
1

>  <SCORE.INTER.POLAR>
0

>  <SCORE.INTER.ROT>
0

>  <SCORE.INTER.SOLV>
15.6398

>  <SCORE.INTER.VDW>
-13.2862

>  <SCORE.INTER.norm>
-0.670945

>  <SCORE.INTRA>
0

>  <SCORE.INTRA.DIHEDRAL>
0

>  <SCORE.INTRA.DIHEDRAL.0>
0

>  <SCORE.INTRA.POLAR>
0

>  <SCORE.INTRA.POLAR.0>
0

>  <SCORE.INTRA.REPUL>
0

>  <SCORE.INTRA.REPUL.0>
0

>  <SCORE.INTRA.SOLV>
0

>  <SCORE.INTRA.SOLV.lig_0>
-47.9788

>  <SCORE.INTRA.VDW>
0

>  <SCORE.INTRA.VDW.0>
0

>  <SCORE.INTRA.norm>
0

>  <SCORE.RESTR>
0

>  <SCORE.RESTR.CAVITY>
0

>  <SCORE.RESTR.norm>
0

>  <SCORE.SYSTEM>
0

>  <SCORE.SYSTEM.CONST>
0

>  <SCORE.SYSTEM.DIHEDRAL>
0

>  <SCORE.SYSTEM.SOLV>
0

>  <SCORE.SYSTEM.norm>
0

>  <SCORE.heavy>
10

>  <SCORE.norm>
-0.670945

>  <RMSD>
2.977

$$$$
ligand
 OpenBabel02271912133D
libRbt.so/2013.1/901 2013/11/27
 10 11  0  0  0  0  0  0  0  0999 V2000
   12.5422   -4.4260    7.7220 C   0  0  1  0  0  0  0  0  0  0  0  0
   10.9986   -1.4961    6.8927 C   0  0  2  0  0  0  0  0  0  0  0  0
   11.8550   -2.5892    8.4798 C   0  0  2  0  0  0  0  0  0  0  0  0
   13.0954   -5.6401    7.6222 N   0  0  0  0  0  0  0  0  0  0  0  0
   10.5755   -1.1060    5.6944 N   0  0  0  0  0  0  0  0  0  0  0  0
   10.8875   -0.7734    8.0009 N   0  0  0  0  0  0  0  0  0  0  0  0
   12.4569   -3.7229    8.8458 N   0  0  0  0  0  0  0  0  0  0  0  0
   12.0077   -3.7253    6.7050 N   0  0  0  0  0  0  0  0  0  0  0  0
   11.3853   -1.4176    8.9352 N   0  0  0  0  0  0  0  0  0  0  0  0
   11.6084   -2.6439    7.1654 N   0  0  1  0  0  0  0  0  0  0  0  0
  1  4  1  6  0  0  0
  1  8  1  0  0  0  0
  1  7  1  0  0  0  0
  2  5  1  6  0  0  0
  2  6  1  0  0  0  0
  2 10  1  0  0  0  0
  3  7  1  1  0  0  0
  3 10  1  0  0  0  0
  3  9  1  0  0  0  0
  6  9  1  0  0  0  0
 10  8  1  1  0  0  0
M  END
>  <CHROM.1>
11.73868458,-2.75033823,7.60224825,0.22145711,1.09705784,-1.98639038

>  <Name>
ligand

>  <RI>
0

>  <Rbt.Current_Directory>
/home/itssahil/PROJECTS/Mol_Feturizer/Test_systems_manuscript/rnas/2xnw

>  <Rbt.Executable>
rbdock ($Id: //depot/dev/client3/rdock/2013.1/src/exe/rbdock.cxx#4 $)

>  <Rbt.Library>
libRbt.so (2013.1, Build901 2013/11/27)

>  <Rbt.Parameter_File>
/export/apps/rDock/src/rDock_2013.1_src/data/scripts/dock_solv.prm

>  <Rbt.Receptor>
prm/blind_docking_100.prm

>  <SCORE>
-6.68706

>  <SCORE.INTER>
-6.68706

>  <SCORE.INTER.CONST>
1

>  <SCORE.INTER.POLAR>
0

>  <SCORE.INTER.ROT>
0

>  <SCORE.INTER.SOLV>
15.2734

>  <SCORE.INTER.VDW>
-13.1492

>  <SCORE.INTER.norm>
-0.668706

>  <SCORE.INTRA>
0

>  <SCORE.INTRA.DIHEDRAL>
0

>  <SCORE.INTRA.DIHEDRAL.0>
0

>  <SCORE.INTRA.POLAR>
0

>  <SCORE.INTRA.POLAR.0>
0

>  <SCORE.INTRA.REPUL>
0

>  <SCORE.INTRA.REPUL.0>
0

>  <SCORE.INTRA.SOLV>
0

>  <SCORE.INTRA.SOLV.lig_0>
-47.9788

>  <SCORE.INTRA.VDW>
0

>  <SCORE.INTRA.VDW.0>
0

>  <SCORE.INTRA.norm>
0

>  <SCORE.RESTR>
0

>  <SCORE.RESTR.CAVITY>
0

>  <SCORE.RESTR.norm>
0

>  <SCORE.SYSTEM>
0

>  <SCORE.SYSTEM.CONST>
0

>  <SCORE.SYSTEM.DIHEDRAL>
0

>  <SCORE.SYSTEM.SOLV>
0

>  <SCORE.SYSTEM.norm>
0

>  <SCORE.heavy>
10

>  <SCORE.norm>
-0.668706

>  <RMSD>
2.978

$$$$
ligand
 OpenBabel02271912133D
libRbt.so/2013.1/901 2013/11/27
 10 11  0  0  0  0  0  0  0  0999 V2000
   12.4582   -4.4357    7.7241 C   0  0  1  0  0  0  0  0  0  0  0  0
   10.9832   -1.4699    6.8976 C   0  0  2  0  0  0  0  0  0  0  0  0
   11.8653   -2.5621    8.4713 C   0  0  2  0  0  0  0  0  0  0  0  0
   12.9652   -5.6700    7.6270 N   0  0  0  0  0  0  0  0  0  0  0  0
   10.5256   -1.0880    5.7094 N   0  0  0  0  0  0  0  0  0  0  0  0
   10.9418   -0.7229    7.9944 N   0  0  0  0  0  0  0  0  0  0  0  0
   12.4424   -3.7090    8.8359 N   0  0  0  0  0  0  0  0  0  0  0  0
   11.9072   -3.7361    6.7151 N   0  0  0  0  0  0  0  0  0  0  0  0
   11.4546   -1.3664    8.9211 N   0  0  0  0  0  0  0  0  0  0  0  0
   11.5641   -2.6329    7.1691 N   0  0  1  0  0  0  0  0  0  0  0  0
  1  4  1  6  0  0  0
  1  8  1  0  0  0  0
  1  7  1  0  0  0  0
  2  5  1  6  0  0  0
  2  6  1  0  0  0  0
  2 10  1  0  0  0  0
  3  7  1  1  0  0  0
  3 10  1  0  0  0  0
  3  9  1  0  0  0  0
  6  9  1  0  0  0  0
 10  8  1  1  0  0  0
M  END
>  <CHROM.1>
11.70815778,-2.73557477,7.60243514,0.33569386,1.10939568,-2.10798382

>  <Name>
ligand

>  <RI>
0

>  <Rbt.Current_Directory>
/home/itssahil/PROJECTS/Mol_Feturizer/Test_systems_manuscript/rnas/2xnw

>  <Rbt.Executable>
rbdock ($Id: //depot/dev/client3/rdock/2013.1/src/exe/rbdock.cxx#4 $)

>  <Rbt.Library>
libRbt.so (2013.1, Build901 2013/11/27)

>  <Rbt.Parameter_File>
/export/apps/rDock/src/rDock_2013.1_src/data/scripts/dock_solv.prm

>  <Rbt.Receptor>
prm/blind_docking_20.prm

>  <SCORE>
-6.72397

>  <SCORE.INTER>
-6.72397

>  <SCORE.INTER.CONST>
1

>  <SCORE.INTER.POLAR>
0

>  <SCORE.INTER.ROT>
0

>  <SCORE.INTER.SOLV>
15.6762

>  <SCORE.INTER.VDW>
-13.3081

>  <SCORE.INTER.norm>
-0.672397

>  <SCORE.INTRA>
0

>  <SCORE.INTRA.DIHEDRAL>
0

>  <SCORE.INTRA.DIHEDRAL.0>
0

>  <SCORE.INTRA.POLAR>
0

>  <SCORE.INTRA.POLAR.0>
0

>  <SCORE.INTRA.REPUL>
0

>  <SCORE.INTRA.REPUL.0>
0

>  <SCORE.INTRA.SOLV>
0

>  <SCORE.INTRA.SOLV.lig_0>
-47.9788

>  <SCORE.INTRA.VDW>
0

>  <SCORE.INTRA.VDW.0>
0

>  <SCORE.INTRA.norm>
0

>  <SCORE.RESTR>
0

>  <SCORE.RESTR.CAVITY>
0

>  <SCORE.RESTR.norm>
0

>  <SCORE.SYSTEM>
0

>  <SCORE.SYSTEM.CONST>
0

>  <SCORE.SYSTEM.DIHEDRAL>
0

>  <SCORE.SYSTEM.SOLV>
0

>  <SCORE.SYSTEM.norm>
0

>  <SCORE.heavy>
10

>  <SCORE.norm>
-0.672397

>  <RMSD>
2.978

$$$$
ligand
 OpenBabel02271912133D
libRbt.so/2013.1/901 2013/11/27
 10 11  0  0  0  0  0  0  0  0999 V2000
   12.6089   -4.3799    7.6879 C   0  0  1  0  0  0  0  0  0  0  0  0
   10.9768   -1.4840    6.9102 C   0  0  2  0  0  0  0  0  0  0  0  0
   11.8329   -2.5956    8.4845 C   0  0  2  0  0  0  0  0  0  0  0  0
   13.2103   -5.5686    7.5648 N   0  0  0  0  0  0  0  0  0  0  0  0
   10.5703   -1.0710    5.7138 N   0  0  0  0  0  0  0  0  0  0  0  0
   10.8097   -0.8024    8.0372 N   0  0  0  0  0  0  0  0  0  0  0  0
   12.4678   -3.7175    8.8307 N   0  0  0  0  0  0  0  0  0  0  0  0
   12.0746   -3.6667    6.6794 N   0  0  0  0  0  0  0  0  0  0  0  0
   11.3072   -1.4578    8.9639 N   0  0  0  0  0  0  0  0  0  0  0  0
   11.6227   -2.6165    7.1629 N   0  0  1  0  0  0  0  0  0  0  0  0
  1  4  1  6  0  0  0
  1  8  1  0  0  0  0
  1  7  1  0  0  0  0
  2  5  1  6  0  0  0
  2  6  1  0  0  0  0
  2 10  1  0  0  0  0
  3  7  1  1  0  0  0
  3 10  1  0  0  0  0
  3  9  1  0  0  0  0
  6  9  1  0  0  0  0
 10  8  1  1  0  0  0
M  END
>  <CHROM.1>
11.74551627,-2.73226248,7.59947877,0.13979177,1.07126075,-1.88203739

>  <Name>
ligand

>  <RI>
0

>  <Rbt.Current_Directory>
/home/itssahil/PROJECTS/Mol_Feturizer/Test_systems_manuscript/rnas/2xnw

>  <Rbt.Executable>
rbdock ($Id: //depot/dev/client3/rdock/2013.1/src/exe/rbdock.cxx#4 $)

>  <Rbt.Library>
libRbt.so (2013.1, Build901 2013/11/27)

>  <Rbt.Parameter_File>
/export/apps/rDock/src/rDock_2013.1_src/data/scripts/dock_solv.prm

>  <Rbt.Receptor>
prm/blind_docking_20.prm

>  <SCORE>
-6.64155

>  <SCORE.INTER>
-6.64155

>  <SCORE.INTER.CONST>
1

>  <SCORE.INTER.POLAR>
0

>  <SCORE.INTER.ROT>
0

>  <SCORE.INTER.SOLV>
14.9012

>  <SCORE.INTER.VDW>
-12.9948

>  <SCORE.INTER.norm>
-0.664155

>  <SCORE.INTRA>
0

>  <SCORE.INTRA.DIHEDRAL>
0

>  <SCORE.INTRA.DIHEDRAL.0>
0

>  <SCORE.INTRA.POLAR>
0

>  <SCORE.INTRA.POLAR.0>
0

>  <SCORE.INTRA.REPUL>
0

>  <SCORE.INTRA.REPUL.0>
0

>  <SCORE.INTRA.SOLV>
0

>  <SCORE.INTRA.SOLV.lig_0>
-47.9788

>  <SCORE.INTRA.VDW>
0

>  <SCORE.INTRA.VDW.0>
0

>  <SCORE.INTRA.norm>
0

>  <SCORE.RESTR>
0

>  <SCORE.RESTR.CAVITY>
0

>  <SCORE.RESTR.norm>
0

>  <SCORE.SYSTEM>
0

>  <SCORE.SYSTEM.CONST>
0

>  <SCORE.SYSTEM.DIHEDRAL>
0

>  <SCORE.SYSTEM.SOLV>
0

>  <SCORE.SYSTEM.norm>
0

>  <SCORE.heavy>
10

>  <SCORE.norm>
-0.664155

>  <RMSD>
2.978

$$$$
ligand
 OpenBabel02271912133D
libRbt.so/2013.1/901 2013/11/27
 10 11  0  0  0  0  0  0  0  0999 V2000
   12.5598   -4.4222    7.7208 C   0  0  1  0  0  0  0  0  0  0  0  0
   11.0065   -1.4982    6.8890 C   0  0  2  0  0  0  0  0  0  0  0  0
   11.8514   -2.5942    8.4803 C   0  0  2  0  0  0  0  0  0  0  0  0
   13.1223   -5.6320    7.6212 N   0  0  0  0  0  0  0  0  0  0  0  0
   10.5951   -1.1043    5.6878 N   0  0  0  0  0  0  0  0  0  0  0  0
   10.8775   -0.7822    7.9996 N   0  0  0  0  0  0  0  0  0  0  0  0
   12.4564   -3.7258    8.8474 N   0  0  0  0  0  0  0  0  0  0  0  0
   12.0327   -3.7195    6.7013 N   0  0  0  0  0  0  0  0  0  0  0  0
   11.3684   -1.4282    8.9363 N   0  0  0  0  0  0  0  0  0  0  0  0
   11.6208   -2.6433    7.1628 N   0  0  1  0  0  0  0  0  0  0  0  0
  1  4  1  6  0  0  0
  1  8  1  0  0  0  0
  1  7  1  0  0  0  0
  2  5  1  6  0  0  0
  2  6  1  0  0  0  0
  2 10  1  0  0  0  0
  3  7  1  1  0  0  0
  3 10  1  0  0  0  0
  3  9  1  0  0  0  0
  6  9  1  0  0  0  0
 10  8  1  1  0  0  0
M  END
>  <CHROM.1>
11.74655553,-2.75125862,7.60054139,0.19171010,1.09555095,-1.95451880

>  <Name>
ligand

>  <RI>
0

>  <Rbt.Current_Directory>
/home/itssahil/PROJECTS/Mol_Feturizer/Test_systems_manuscript/rnas/2xnw

>  <Rbt.Executable>
rbdock ($Id: //depot/dev/client3/rdock/2013.1/src/exe/rbdock.cxx#4 $)

>  <Rbt.Library>
libRbt.so (2013.1, Build901 2013/11/27)

>  <Rbt.Parameter_File>
/export/apps/rDock/src/rDock_2013.1_src/data/scripts/dock_solv.prm

>  <Rbt.Receptor>
prm/pocket_docking_5.prm

>  <SCORE>
-6.68688

>  <SCORE.INTER>
-6.68688

>  <SCORE.INTER.CONST>
1

>  <SCORE.INTER.POLAR>
0

>  <SCORE.INTER.ROT>
0

>  <SCORE.INTER.SOLV>
15.2198

>  <SCORE.INTER.VDW>
-13.1312

>  <SCORE.INTER.norm>
-0.668688

>  <SCORE.INTRA>
0

>  <SCORE.INTRA.DIHEDRAL>
0

>  <SCORE.INTRA.DIHEDRAL.0>
0

>  <SCORE.INTRA.POLAR>
0

>  <SCORE.INTRA.POLAR.0>
0

>  <SCORE.INTRA.REPUL>
0

>  <SCORE.INTRA.REPUL.0>
0

>  <SCORE.INTRA.SOLV>
0

>  <SCORE.INTRA.SOLV.lig_0>
-47.9788

>  <SCORE.INTRA.VDW>
0

>  <SCORE.INTRA.VDW.0>
0

>  <SCORE.INTRA.norm>
0

>  <SCORE.RESTR>
0

>  <SCORE.RESTR.CAVITY>
0

>  <SCORE.RESTR.norm>
0

>  <SCORE.SYSTEM>
0

>  <SCORE.SYSTEM.CONST>
0

>  <SCORE.SYSTEM.DIHEDRAL>
0

>  <SCORE.SYSTEM.SOLV>
0

>  <SCORE.SYSTEM.norm>
0

>  <SCORE.heavy>
10

>  <SCORE.norm>
-0.668688

>  <RMSD>
2.978

$$$$
ligand
 OpenBabel02271912133D
libRbt.so/2013.1/901 2013/11/27
 10 11  0  0  0  0  0  0  0  0999 V2000
   12.4568   -4.4379    7.7240 C   0  0  1  0  0  0  0  0  0  0  0  0
   10.9975   -1.4654    6.8940 C   0  0  2  0  0  0  0  0  0  0  0  0
   11.8564   -2.5676    8.4735 C   0  0  2  0  0  0  0  0  0  0  0  0
   12.9633   -5.6725    7.6271 N   0  0  0  0  0  0  0  0  0  0  0  0
   10.5568   -1.0762    5.7018 N   0  0  0  0  0  0  0  0  0  0  0  0
   10.9421   -0.7244    7.9943 N   0  0  0  0  0  0  0  0  0  0  0  0
   12.4268   -3.7174    8.8396 N   0  0  0  0  0  0  0  0  0  0  0  0
   11.9207   -3.7319    6.7115 N   0  0  0  0  0  0  0  0  0  0  0  0
   11.4413   -1.3738    8.9243 N   0  0  0  0  0  0  0  0  0  0  0  0
   11.5729   -2.6307    7.1669 N   0  0  1  0  0  0  0  0  0  0  0  0
  1  4  1  6  0  0  0
  1  8  1  0  0  0  0
  1  7  1  0  0  0  0
  2  5  1  6  0  0  0
  2  6  1  0  0  0  0
  2 10  1  0  0  0  0
  3  7  1  1  0  0  0
  3 10  1  0  0  0  0
  3  9  1  0  0  0  0
  6  9  1  0  0  0  0
 10  8  1  1  0  0  0
M  END
>  <CHROM.1>
11.71091686,-2.73602405,7.60161575,0.31044434,1.11750008,-2.07976909

>  <Name>
ligand

>  <RI>
0

>  <Rbt.Current_Directory>
/home/itssahil/PROJECTS/Mol_Feturizer/Test_systems_manuscript/rnas/2xnw

>  <Rbt.Executable>
rbdock ($Id: //depot/dev/client3/rdock/2013.1/src/exe/rbdock.cxx#4 $)

>  <Rbt.Library>
libRbt.so (2013.1, Build901 2013/11/27)

>  <Rbt.Parameter_File>
/export/apps/rDock/src/rDock_2013.1_src/data/scripts/dock_solv.prm

>  <Rbt.Receptor>
prm/pocket_docking_5.prm

>  <SCORE>
-6.72125

>  <SCORE.INTER>
-6.72125

>  <SCORE.INTER.CONST>
1

>  <SCORE.INTER.POLAR>
0

>  <SCORE.INTER.ROT>
0

>  <SCORE.INTER.SOLV>
15.7716

>  <SCORE.INTER.VDW>
-13.338

>  <SCORE.INTER.norm>
-0.672125

>  <SCORE.INTRA>
0

>  <SCORE.INTRA.DIHEDRAL>
0

>  <SCORE.INTRA.DIHEDRAL.0>
0

>  <SCORE.INTRA.POLAR>
0

>  <SCORE.INTRA.POLAR.0>
0

>  <SCORE.INTRA.REPUL>
0

>  <SCORE.INTRA.REPUL.0>
0

>  <SCORE.INTRA.SOLV>
0

>  <SCORE.INTRA.SOLV.lig_0>
-47.9788

>  <SCORE.INTRA.VDW>
0

>  <SCORE.INTRA.VDW.0>
0

>  <SCORE.INTRA.norm>
0

>  <SCORE.RESTR>
0

>  <SCORE.RESTR.CAVITY>
0

>  <SCORE.RESTR.norm>
0

>  <SCORE.SYSTEM>
0

>  <SCORE.SYSTEM.CONST>
0

>  <SCORE.SYSTEM.DIHEDRAL>
0

>  <SCORE.SYSTEM.SOLV>
0

>  <SCORE.SYSTEM.norm>
0

>  <SCORE.heavy>
10

>  <SCORE.norm>
-0.672125

>  <RMSD>
2.978

$$$$
ligand
 OpenBabel02271912133D
libRbt.so/2013.1/901 2013/11/27
 10 11  0  0  0  0  0  0  0  0999 V2000
   12.5460   -4.4222    7.7187 C   0  0  1  0  0  0  0  0  0  0  0  0
   11.0017   -1.4917    6.8931 C   0  0  2  0  0  0  0  0  0  0  0  0
   11.8562   -2.5875    8.4793 C   0  0  2  0  0  0  0  0  0  0  0  0
   13.1003   -5.6356    7.6173 N   0  0  0  0  0  0  0  0  0  0  0  0
   10.5803   -1.0993    5.6949 N   0  0  0  0  0  0  0  0  0  0  0  0
   10.8883   -0.7713    8.0026 N   0  0  0  0  0  0  0  0  0  0  0  0
   12.4583   -3.7216    8.8439 N   0  0  0  0  0  0  0  0  0  0  0  0
   12.0127   -3.7196    6.7022 N   0  0  0  0  0  0  0  0  0  0  0  0
   11.3849   -1.4172    8.9364 N   0  0  0  0  0  0  0  0  0  0  0  0
   11.6119   -2.6395    7.1643 N   0  0  1  0  0  0  0  0  0  0  0  0
  1  4  1  6  0  0  0
  1  8  1  0  0  0  0
  1  7  1  0  0  0  0
  2  5  1  6  0  0  0
  2  6  1  0  0  0  0
  2 10  1  0  0  0  0
  3  7  1  1  0  0  0
  3 10  1  0  0  0  0
  3  9  1  0  0  0  0
  6  9  1  0  0  0  0
 10  8  1  1  0  0  0
M  END
>  <CHROM.1>
11.74149827,-2.74683536,7.60115159,0.21740838,1.09708856,-1.98065508

>  <Name>
ligand

>  <RI>
0

>  <Rbt.Current_Directory>
/home/itssahil/PROJECTS/Mol_Feturizer/Test_systems_manuscript/rnas/2xnw

>  <Rbt.Executable>
rbdock ($Id: //depot/dev/client3/rdock/2013.1/src/exe/rbdock.cxx#4 $)

>  <Rbt.Library>
libRbt.so (2013.1, Build901 2013/11/27)

>  <Rbt.Parameter_File>
/export/apps/rDock/src/rDock_2013.1_src/data/scripts/dock_solv.prm

>  <Rbt.Receptor>
prm/pocket_docking_5.prm

>  <SCORE>
-6.68778

>  <SCORE.INTER>
-6.68778

>  <SCORE.INTER.CONST>
1

>  <SCORE.INTER.POLAR>
0

>  <SCORE.INTER.ROT>
0

>  <SCORE.INTER.SOLV>
15.2755

>  <SCORE.INTER.VDW>
-13.1504

>  <SCORE.INTER.norm>
-0.668778

>  <SCORE.INTRA>
0

>  <SCORE.INTRA.DIHEDRAL>
0

>  <SCORE.INTRA.DIHEDRAL.0>
0

>  <SCORE.INTRA.POLAR>
0

>  <SCORE.INTRA.POLAR.0>
0

>  <SCORE.INTRA.REPUL>
0

>  <SCORE.INTRA.REPUL.0>
0

>  <SCORE.INTRA.SOLV>
0

>  <SCORE.INTRA.SOLV.lig_0>
-47.9788

>  <SCORE.INTRA.VDW>
0

>  <SCORE.INTRA.VDW.0>
0

>  <SCORE.INTRA.norm>
0

>  <SCORE.RESTR>
0

>  <SCORE.RESTR.CAVITY>
0

>  <SCORE.RESTR.norm>
0

>  <SCORE.SYSTEM>
0

>  <SCORE.SYSTEM.CONST>
0

>  <SCORE.SYSTEM.DIHEDRAL>
0

>  <SCORE.SYSTEM.SOLV>
0

>  <SCORE.SYSTEM.norm>
0

>  <SCORE.heavy>
10

>  <SCORE.norm>
-0.668778

>  <RMSD>
2.978

$$$$
ligand
 OpenBabel02271912133D
libRbt.so/2013.1/901 2013/11/27
 10 11  0  0  0  0  0  0  0  0999 V2000
   12.5509   -4.4219    7.7165 C   0  0  1  0  0  0  0  0  0  0  0  0
   11.0109   -1.4887    6.8926 C   0  0  2  0  0  0  0  0  0  0  0  0
   11.8600   -2.5885    8.4790 C   0  0  2  0  0  0  0  0  0  0  0  0
   13.1047   -5.6355    7.6142 N   0  0  0  0  0  0  0  0  0  0  0  0
   10.5934   -1.0934    5.6939 N   0  0  0  0  0  0  0  0  0  0  0  0
   10.8945   -0.7707    8.0033 N   0  0  0  0  0  0  0  0  0  0  0  0
   12.4602   -3.7237    8.8430 N   0  0  0  0  0  0  0  0  0  0  0  0
   12.0211   -3.7169    6.7000 N   0  0  0  0  0  0  0  0  0  0  0  0
   11.3879   -1.4188    8.9372 N   0  0  0  0  0  0  0  0  0  0  0  0
   11.6196   -2.6375    7.1632 N   0  0  1  0  0  0  0  0  0  0  0  0
  1  4  1  6  0  0  0
  1  8  1  0  0  0  0
  1  7  1  0  0  0  0
  2  5  1  6  0  0  0
  2  6  1  0  0  0  0
  2 10  1  0  0  0  0
  3  7  1  1  0  0  0
  3 10  1  0  0  0  0
  3  9  1  0  0  0  0
  6  9  1  0  0  0  0
 10  8  1  1  0  0  0
M  END
>  <CHROM.1>
11.74777938,-2.74582982,7.60019707,0.21181312,1.09886269,-1.97351876

>  <Name>
ligand

>  <RI>
0

>  <Rbt.Current_Directory>
/home/itssahil/PROJECTS/Mol_Feturizer/Test_systems_manuscript/rnas/2xnw

>  <Rbt.Executable>
rbdock ($Id: //depot/dev/client3/rdock/2013.1/src/exe/rbdock.cxx#4 $)

>  <Rbt.Library>
libRbt.so (2013.1, Build901 2013/11/27)

>  <Rbt.Parameter_File>
/export/apps/rDock/src/rDock_2013.1_src/data/scripts/dock_solv.prm

>  <Rbt.Receptor>
prm/pocket_docking_5.prm

>  <SCORE>
-6.6877

>  <SCORE.INTER>
-6.6877

>  <SCORE.INTER.CONST>
1

>  <SCORE.INTER.POLAR>
0

>  <SCORE.INTER.ROT>
0

>  <SCORE.INTER.SOLV>
15.2891

>  <SCORE.INTER.VDW>
-13.1548

>  <SCORE.INTER.norm>
-0.66877

>  <SCORE.INTRA>
0

>  <SCORE.INTRA.DIHEDRAL>
0

>  <SCORE.INTRA.DIHEDRAL.0>
0

>  <SCORE.INTRA.POLAR>
0

>  <SCORE.INTRA.POLAR.0>
0

>  <SCORE.INTRA.REPUL>
0

>  <SCORE.INTRA.REPUL.0>
0

>  <SCORE.INTRA.SOLV>
0

>  <SCORE.INTRA.SOLV.lig_0>
-47.9788

>  <SCORE.INTRA.VDW>
0

>  <SCORE.INTRA.VDW.0>
0

>  <SCORE.INTRA.norm>
0

>  <SCORE.RESTR>
0

>  <SCORE.RESTR.CAVITY>
0

>  <SCORE.RESTR.norm>
0

>  <SCORE.SYSTEM>
0

>  <SCORE.SYSTEM.CONST>
0

>  <SCORE.SYSTEM.DIHEDRAL>
0

>  <SCORE.SYSTEM.SOLV>
0

>  <SCORE.SYSTEM.norm>
0

>  <SCORE.heavy>
10

>  <SCORE.norm>
-0.66877

>  <RMSD>
2.978

$$$$
ligand
 OpenBabel02271912133D
libRbt.so/2013.1/901 2013/11/27
 10 11  0  0  0  0  0  0  0  0999 V2000
   12.5476   -4.4242    7.7213 C   0  0  1  0  0  0  0  0  0  0  0  0
   11.0078   -1.4921    6.8929 C   0  0  2  0  0  0  0  0  0  0  0  0
   11.8566   -2.5896    8.4810 C   0  0  2  0  0  0  0  0  0  0  0  0
   13.1015   -5.6379    7.6209 N   0  0  0  0  0  0  0  0  0  0  0  0
   10.5906   -1.0986    5.6936 N   0  0  0  0  0  0  0  0  0  0  0  0
   10.8913   -0.7725    8.0025 N   0  0  0  0  0  0  0  0  0  0  0  0
   12.4568   -3.7243    8.8467 N   0  0  0  0  0  0  0  0  0  0  0  0
   12.0180   -3.7206    6.7037 N   0  0  0  0  0  0  0  0  0  0  0  0
   11.3845   -1.4193    8.9375 N   0  0  0  0  0  0  0  0  0  0  0  0
   11.6165   -2.6405    7.1653 N   0  0  1  0  0  0  0  0  0  0  0  0
  1  4  1  6  0  0  0
  1  8  1  0  0  0  0
  1  7  1  0  0  0  0
  2  5  1  6  0  0  0
  2  6  1  0  0  0  0
  2 10  1  0  0  0  0
  3  7  1  1  0  0  0
  3 10  1  0  0  0  0
  3  9  1  0  0  0  0
  6  9  1  0  0  0  0
 10  8  1  1  0  0  0
M  END
>  <CHROM.1>
11.74458025,-2.74822126,7.60244485,0.21148917,1.09893718,-1.97467546

>  <Name>
ligand

>  <RI>
0

>  <Rbt.Current_Directory>
/home/itssahil/PROJECTS/Mol_Feturizer/Test_systems_manuscript/rnas/2xnw

>  <Rbt.Executable>
rbdock ($Id: //depot/dev/client3/rdock/2013.1/src/exe/rbdock.cxx#4 $)

>  <Rbt.Library>
libRbt.so (2013.1, Build901 2013/11/27)

>  <Rbt.Parameter_File>
/export/apps/rDock/src/rDock_2013.1_src/data/scripts/dock_solv.prm

>  <Rbt.Receptor>
prm/pocket_docking_5.prm

>  <SCORE>
-6.68803

>  <SCORE.INTER>
-6.68803

>  <SCORE.INTER.CONST>
1

>  <SCORE.INTER.POLAR>
0

>  <SCORE.INTER.ROT>
0

>  <SCORE.INTER.SOLV>
15.2894

>  <SCORE.INTER.VDW>
-13.1551

>  <SCORE.INTER.norm>
-0.668803

>  <SCORE.INTRA>
0

>  <SCORE.INTRA.DIHEDRAL>
0

>  <SCORE.INTRA.DIHEDRAL.0>
0

>  <SCORE.INTRA.POLAR>
0

>  <SCORE.INTRA.POLAR.0>
0

>  <SCORE.INTRA.REPUL>
0

>  <SCORE.INTRA.REPUL.0>
0

>  <SCORE.INTRA.SOLV>
0

>  <SCORE.INTRA.SOLV.lig_0>
-47.9788

>  <SCORE.INTRA.VDW>
0

>  <SCORE.INTRA.VDW.0>
0

>  <SCORE.INTRA.norm>
0

>  <SCORE.RESTR>
0

>  <SCORE.RESTR.CAVITY>
0

>  <SCORE.RESTR.norm>
0

>  <SCORE.SYSTEM>
0

>  <SCORE.SYSTEM.CONST>
0

>  <SCORE.SYSTEM.DIHEDRAL>
0

>  <SCORE.SYSTEM.SOLV>
0

>  <SCORE.SYSTEM.norm>
0

>  <SCORE.heavy>
10

>  <SCORE.norm>
-0.668803

>  <RMSD>
2.978

$$$$
ligand
 OpenBabel02271912133D
libRbt.so/2013.1/901 2013/11/27
 10 11  0  0  0  0  0  0  0  0999 V2000
   12.4566   -4.4384    7.7247 C   0  0  1  0  0  0  0  0  0  0  0  0
   10.9916   -1.4706    6.8876 C   0  0  2  0  0  0  0  0  0  0  0  0
   11.8262   -2.5787    8.4760 C   0  0  2  0  0  0  0  0  0  0  0  0
   12.9747   -5.6682    7.6287 N   0  0  0  0  0  0  0  0  0  0  0  0
   10.5725   -1.0754    5.6895 N   0  0  0  0  0  0  0  0  0  0  0  0
   10.9076   -0.7389    7.9922 N   0  0  0  0  0  0  0  0  0  0  0  0
   12.3979   -3.7269    8.8450 N   0  0  0  0  0  0  0  0  0  0  0  0
   11.9361   -3.7284    6.7068 N   0  0  0  0  0  0  0  0  0  0  0  0
   11.3924   -1.3917    8.9274 N   0  0  0  0  0  0  0  0  0  0  0  0
   11.5703   -2.6336    7.1634 N   0  0  1  0  0  0  0  0  0  0  0  0
  1  4  1  6  0  0  0
  1  8  1  0  0  0  0
  1  7  1  0  0  0  0
  2  5  1  6  0  0  0
  2  6  1  0  0  0  0
  2 10  1  0  0  0  0
  3  7  1  1  0  0  0
  3 10  1  0  0  0  0
  3  9  1  0  0  0  0
  6  9  1  0  0  0  0
 10  8  1  1  0  0  0
M  END
>  <CHROM.1>
11.70009342,-2.74132064,7.60002032,0.26012472,1.12025139,-2.02665515

>  <Name>
ligand

>  <RI>
0

>  <Rbt.Current_Directory>
/home/itssahil/PROJECTS/Mol_Feturizer/Test_systems_manuscript/rnas/2xnw

>  <Rbt.Executable>
rbdock ($Id: //depot/dev/client3/rdock/2013.1/src/exe/rbdock.cxx#4 $)

>  <Rbt.Library>
libRbt.so (2013.1, Build901 2013/11/27)

>  <Rbt.Parameter_File>
/export/apps/rDock/src/rDock_2013.1_src/data/scripts/dock_solv.prm

>  <Rbt.Receptor>
prm/pocket_docking_6.prm

>  <SCORE>
-6.71234

>  <SCORE.INTER>
-6.71234

>  <SCORE.INTER.CONST>
1

>  <SCORE.INTER.POLAR>
0

>  <SCORE.INTER.ROT>
0

>  <SCORE.INTER.SOLV>
15.7946

>  <SCORE.INTER.VDW>
-13.3398

>  <SCORE.INTER.norm>
-0.671234

>  <SCORE.INTRA>
0

>  <SCORE.INTRA.DIHEDRAL>
0

>  <SCORE.INTRA.DIHEDRAL.0>
0

>  <SCORE.INTRA.POLAR>
0

>  <SCORE.INTRA.POLAR.0>
0

>  <SCORE.INTRA.REPUL>
0

>  <SCORE.INTRA.REPUL.0>
0

>  <SCORE.INTRA.SOLV>
0

>  <SCORE.INTRA.SOLV.lig_0>
-47.9788

>  <SCORE.INTRA.VDW>
0

>  <SCORE.INTRA.VDW.0>
0

>  <SCORE.INTRA.norm>
0

>  <SCORE.RESTR>
0

>  <SCORE.RESTR.CAVITY>
0

>  <SCORE.RESTR.norm>
0

>  <SCORE.SYSTEM>
0

>  <SCORE.SYSTEM.CONST>
0

>  <SCORE.SYSTEM.DIHEDRAL>
0

>  <SCORE.SYSTEM.SOLV>
0

>  <SCORE.SYSTEM.norm>
0

>  <SCORE.heavy>
10

>  <SCORE.norm>
-0.671234

>  <RMSD>
2.978

$$$$
ligand
 OpenBabel02271912133D
libRbt.so/2013.1/901 2013/11/27
 10 11  0  0  0  0  0  0  0  0999 V2000
   12.4578   -4.4391    7.7257 C   0  0  1  0  0  0  0  0  0  0  0  0
   10.9982   -1.4664    6.8969 C   0  0  2  0  0  0  0  0  0  0  0  0
   11.8657   -2.5656    8.4738 C   0  0  2  0  0  0  0  0  0  0  0  0
   12.9615   -5.6748    7.6290 N   0  0  0  0  0  0  0  0  0  0  0  0
   10.5503   -1.0797    5.7065 N   0  0  0  0  0  0  0  0  0  0  0  0
   10.9514   -0.7222    7.9955 N   0  0  0  0  0  0  0  0  0  0  0  0
   12.4365   -3.7153    8.8394 N   0  0  0  0  0  0  0  0  0  0  0  0
   11.9162   -3.7350    6.7148 N   0  0  0  0  0  0  0  0  0  0  0  0
   11.4556   -1.3698    8.9240 N   0  0  0  0  0  0  0  0  0  0  0  0
   11.5734   -2.6319    7.1693 N   0  0  1  0  0  0  0  0  0  0  0  0
  1  4  1  6  0  0  0
  1  8  1  0  0  0  0
  1  7  1  0  0  0  0
  2  5  1  6  0  0  0
  2  6  1  0  0  0  0
  2 10  1  0  0  0  0
  3  7  1  1  0  0  0
  3 10  1  0  0  0  0
  3  9  1  0  0  0  0
  6  9  1  0  0  0  0
 10  8  1  1  0  0  0
M  END
>  <CHROM.1>
11.71411282,-2.73623655,7.60342305,0.32558678,1.11574903,-2.09621657

>  <Name>
ligand

>  <RI>
0

>  <Rbt.Current_Directory>
/home/itssahil/PROJECTS/Mol_Feturizer/Test_systems_manuscript/rnas/2xnw

>  <Rbt.Executable>
rbdock ($Id: //depot/dev/client3/rdock/2013.1/src/exe/rbdock.cxx#4 $)

>  <Rbt.Library>
libRbt.so (2013.1, Build901 2013/11/27)

>  <Rbt.Parameter_File>
/export/apps/rDock/src/rDock_2013.1_src/data/scripts/dock_solv.prm

>  <Rbt.Receptor>
prm/pocket_docking_6.prm

>  <SCORE>
-6.72313

>  <SCORE.INTER>
-6.72313

>  <SCORE.INTER.CONST>
1

>  <SCORE.INTER.POLAR>
0

>  <SCORE.INTER.ROT>
0

>  <SCORE.INTER.SOLV>
15.7495

>  <SCORE.INTER.VDW>
-13.3319

>  <SCORE.INTER.norm>
-0.672313

>  <SCORE.INTRA>
0

>  <SCORE.INTRA.DIHEDRAL>
0

>  <SCORE.INTRA.DIHEDRAL.0>
0

>  <SCORE.INTRA.POLAR>
0

>  <SCORE.INTRA.POLAR.0>
0

>  <SCORE.INTRA.REPUL>
0

>  <SCORE.INTRA.REPUL.0>
0

>  <SCORE.INTRA.SOLV>
0

>  <SCORE.INTRA.SOLV.lig_0>
-47.9788

>  <SCORE.INTRA.VDW>
0

>  <SCORE.INTRA.VDW.0>
0

>  <SCORE.INTRA.norm>
0

>  <SCORE.RESTR>
0

>  <SCORE.RESTR.CAVITY>
0

>  <SCORE.RESTR.norm>
0

>  <SCORE.SYSTEM>
0

>  <SCORE.SYSTEM.CONST>
0

>  <SCORE.SYSTEM.DIHEDRAL>
0

>  <SCORE.SYSTEM.SOLV>
0

>  <SCORE.SYSTEM.norm>
0

>  <SCORE.heavy>
10

>  <SCORE.norm>
-0.672313

>  <RMSD>
2.978

$$$$
ligand
 OpenBabel02271912133D
libRbt.so/2013.1/901 2013/11/27
 10 11  0  0  0  0  0  0  0  0999 V2000
   12.5508   -4.4234    7.7194 C   0  0  1  0  0  0  0  0  0  0  0  0
   11.0053   -1.4943    6.8912 C   0  0  2  0  0  0  0  0  0  0  0  0
   11.8565   -2.5901    8.4792 C   0  0  2  0  0  0  0  0  0  0  0  0
   13.1069   -5.6361    7.6189 N   0  0  0  0  0  0  0  0  0  0  0  0
   10.5870   -1.1016    5.6920 N   0  0  0  0  0  0  0  0  0  0  0  0
   10.8877   -0.7748    8.0008 N   0  0  0  0  0  0  0  0  0  0  0  0
   12.4589   -3.7237    8.8448 N   0  0  0  0  0  0  0  0  0  0  0  0
   12.0196   -3.7209    6.7019 N   0  0  0  0  0  0  0  0  0  0  0  0
   11.3824   -1.4207    8.9357 N   0  0  0  0  0  0  0  0  0  0  0  0
   11.6161   -2.6415    7.1635 N   0  0  1  0  0  0  0  0  0  0  0  0
  1  4  1  6  0  0  0
  1  8  1  0  0  0  0
  1  7  1  0  0  0  0
  2  5  1  6  0  0  0
  2  6  1  0  0  0  0
  2 10  1  0  0  0  0
  3  7  1  1  0  0  0
  3 10  1  0  0  0  0
  3  9  1  0  0  0  0
  6  9  1  0  0  0  0
 10  8  1  1  0  0  0
M  END
>  <CHROM.1>
11.74457483,-2.74899865,7.60063522,0.21041761,1.09711210,-1.97378145

>  <Name>
ligand

>  <RI>
0

>  <Rbt.Current_Directory>
/home/itssahil/PROJECTS/Mol_Feturizer/Test_systems_manuscript/rnas/2xnw

>  <Rbt.Executable>
rbdock ($Id: //depot/dev/client3/rdock/2013.1/src/exe/rbdock.cxx#4 $)

>  <Rbt.Library>
libRbt.so (2013.1, Build901 2013/11/27)

>  <Rbt.Parameter_File>
/export/apps/rDock/src/rDock_2013.1_src/data/scripts/dock_solv.prm

>  <Rbt.Receptor>
prm/pocket_docking_6.prm

>  <SCORE>
-6.68803

>  <SCORE.INTER>
-6.68803

>  <SCORE.INTER.CONST>
1

>  <SCORE.INTER.POLAR>
0

>  <SCORE.INTER.ROT>
0

>  <SCORE.INTER.SOLV>
15.2599

>  <SCORE.INTER.VDW>
-13.1453

>  <SCORE.INTER.norm>
-0.668803

>  <SCORE.INTRA>
0

>  <SCORE.INTRA.DIHEDRAL>
0

>  <SCORE.INTRA.DIHEDRAL.0>
0

>  <SCORE.INTRA.POLAR>
0

>  <SCORE.INTRA.POLAR.0>
0

>  <SCORE.INTRA.REPUL>
0

>  <SCORE.INTRA.REPUL.0>
0

>  <SCORE.INTRA.SOLV>
0

>  <SCORE.INTRA.SOLV.lig_0>
-47.9788

>  <SCORE.INTRA.VDW>
0

>  <SCORE.INTRA.VDW.0>
0

>  <SCORE.INTRA.norm>
0

>  <SCORE.RESTR>
0

>  <SCORE.RESTR.CAVITY>
0

>  <SCORE.RESTR.norm>
0

>  <SCORE.SYSTEM>
0

>  <SCORE.SYSTEM.CONST>
0

>  <SCORE.SYSTEM.DIHEDRAL>
0

>  <SCORE.SYSTEM.SOLV>
0

>  <SCORE.SYSTEM.norm>
0

>  <SCORE.heavy>
10

>  <SCORE.norm>
-0.668803

>  <RMSD>
2.978

$$$$
ligand
 OpenBabel02271912133D
libRbt.so/2013.1/901 2013/11/27
 10 11  0  0  0  0  0  0  0  0999 V2000
   12.4931   -4.4344    7.7209 C   0  0  1  0  0  0  0  0  0  0  0  0
   11.0199   -1.4690    6.8897 C   0  0  2  0  0  0  0  0  0  0  0  0
   11.8592   -2.5772    8.4755 C   0  0  2  0  0  0  0  0  0  0  0  0
   13.0140   -5.6628    7.6226 N   0  0  0  0  0  0  0  0  0  0  0  0
   10.5984   -1.0731    5.6927 N   0  0  0  0  0  0  0  0  0  0  0  0
   10.9356   -0.7389    7.9955 N   0  0  0  0  0  0  0  0  0  0  0  0
   12.4341   -3.7246    8.8422 N   0  0  0  0  0  0  0  0  0  0  0  0
   11.9696   -3.7243    6.7046 N   0  0  0  0  0  0  0  0  0  0  0  0
   11.4232   -1.3919    8.9291 N   0  0  0  0  0  0  0  0  0  0  0  0
   11.6018   -2.6310    7.1631 N   0  0  1  0  0  0  0  0  0  0  0  0
  1  4  1  6  0  0  0
  1  8  1  0  0  0  0
  1  7  1  0  0  0  0
  2  5  1  6  0  0  0
  2  6  1  0  0  0  0
  2 10  1  0  0  0  0
  3  7  1  1  0  0  0
  3 10  1  0  0  0  0
  3  9  1  0  0  0  0
  6  9  1  0  0  0  0
 10  8  1  1  0  0  0
M  END
>  <CHROM.1>
11.73239501,-2.73896224,7.59948622,0.26035317,1.11753541,-2.02549550

>  <Name>
ligand

>  <RI>
0

>  <Rbt.Current_Directory>
/home/itssahil/PROJECTS/Mol_Feturizer/Test_systems_manuscript/rnas/2xnw

>  <Rbt.Executable>
rbdock ($Id: //depot/dev/client3/rdock/2013.1/src/exe/rbdock.cxx#4 $)

>  <Rbt.Library>
libRbt.so (2013.1, Build901 2013/11/27)

>  <Rbt.Parameter_File>
/export/apps/rDock/src/rDock_2013.1_src/data/scripts/dock_solv.prm

>  <Rbt.Receptor>
prm/pocket_docking_6.prm

>  <SCORE>
-6.69964

>  <SCORE.INTER>
-6.69964

>  <SCORE.INTER.CONST>
1

>  <SCORE.INTER.POLAR>
0

>  <SCORE.INTER.ROT>
0

>  <SCORE.INTER.SOLV>
15.6686

>  <SCORE.INTER.VDW>
-13.2893

>  <SCORE.INTER.norm>
-0.669964

>  <SCORE.INTRA>
0

>  <SCORE.INTRA.DIHEDRAL>
0

>  <SCORE.INTRA.DIHEDRAL.0>
0

>  <SCORE.INTRA.POLAR>
0

>  <SCORE.INTRA.POLAR.0>
0

>  <SCORE.INTRA.REPUL>
0

>  <SCORE.INTRA.REPUL.0>
0

>  <SCORE.INTRA.SOLV>
0

>  <SCORE.INTRA.SOLV.lig_0>
-47.9788

>  <SCORE.INTRA.VDW>
0

>  <SCORE.INTRA.VDW.0>
0

>  <SCORE.INTRA.norm>
0

>  <SCORE.RESTR>
0

>  <SCORE.RESTR.CAVITY>
0

>  <SCORE.RESTR.norm>
0

>  <SCORE.SYSTEM>
0

>  <SCORE.SYSTEM.CONST>
0

>  <SCORE.SYSTEM.DIHEDRAL>
0

>  <SCORE.SYSTEM.SOLV>
0

>  <SCORE.SYSTEM.norm>
0

>  <SCORE.heavy>
10

>  <SCORE.norm>
-0.669964

>  <RMSD>
2.978

$$$$
ligand
 OpenBabel02271912133D
libRbt.so/2013.1/901 2013/11/27
 10 11  0  0  0  0  0  0  0  0999 V2000
   12.4611   -4.4457    7.7339 C   0  0  1  0  0  0  0  0  0  0  0  0
   10.9926   -1.4831    6.8850 C   0  0  2  0  0  0  0  0  0  0  0  0
   11.8118   -2.5910    8.4814 C   0  0  2  0  0  0  0  0  0  0  0  0
   12.9864   -5.6727    7.6418 N   0  0  0  0  0  0  0  0  0  0  0  0
   10.5873   -1.0869    5.6825 N   0  0  0  0  0  0  0  0  0  0  0  0
   10.8906   -0.7545    7.9902 N   0  0  0  0  0  0  0  0  0  0  0  0
   12.3843   -3.7373    8.8551 N   0  0  0  0  0  0  0  0  0  0  0  0
   11.9504   -3.7358    6.7111 N   0  0  0  0  0  0  0  0  0  0  0  0
   11.3665   -1.4072    8.9300 N   0  0  0  0  0  0  0  0  0  0  0  0
   11.5734   -2.6439    7.1655 N   0  0  1  0  0  0  0  0  0  0  0  0
  1  4  1  6  0  0  0
  1  8  1  0  0  0  0
  1  7  1  0  0  0  0
  2  5  1  6  0  0  0
  2  6  1  0  0  0  0
  2 10  1  0  0  0  0
  3  7  1  1  0  0  0
  3 10  1  0  0  0  0
  3  9  1  0  0  0  0
  6  9  1  0  0  0  0
 10  8  1  1  0  0  0
M  END
>  <CHROM.1>
11.69798914,-2.75206246,7.60350983,0.22824189,1.12138121,-1.99550573

>  <Name>
ligand

>  <RI>
0

>  <Rbt.Current_Directory>
/home/itssahil/PROJECTS/Mol_Feturizer/Test_systems_manuscript/rnas/2xnw

>  <Rbt.Executable>
rbdock ($Id: //depot/dev/client3/rdock/2013.1/src/exe/rbdock.cxx#4 $)

>  <Rbt.Library>
libRbt.so (2013.1, Build901 2013/11/27)

>  <Rbt.Parameter_File>
/export/apps/rDock/src/rDock_2013.1_src/data/scripts/dock_solv.prm

>  <Rbt.Receptor>
prm/pocket_docking_7.prm

>  <SCORE>
-6.70334

>  <SCORE.INTER>
-6.70334

>  <SCORE.INTER.CONST>
1

>  <SCORE.INTER.POLAR>
0

>  <SCORE.INTER.ROT>
0

>  <SCORE.INTER.SOLV>
15.7811

>  <SCORE.INTER.VDW>
-13.3293

>  <SCORE.INTER.norm>
-0.670334

>  <SCORE.INTRA>
0

>  <SCORE.INTRA.DIHEDRAL>
0

>  <SCORE.INTRA.DIHEDRAL.0>
0

>  <SCORE.INTRA.POLAR>
0

>  <SCORE.INTRA.POLAR.0>
0

>  <SCORE.INTRA.REPUL>
0

>  <SCORE.INTRA.REPUL.0>
0

>  <SCORE.INTRA.SOLV>
0

>  <SCORE.INTRA.SOLV.lig_0>
-47.9788

>  <SCORE.INTRA.VDW>
0

>  <SCORE.INTRA.VDW.0>
0

>  <SCORE.INTRA.norm>
0

>  <SCORE.RESTR>
0

>  <SCORE.RESTR.CAVITY>
0

>  <SCORE.RESTR.norm>
0

>  <SCORE.SYSTEM>
0

>  <SCORE.SYSTEM.CONST>
0

>  <SCORE.SYSTEM.DIHEDRAL>
0

>  <SCORE.SYSTEM.SOLV>
0

>  <SCORE.SYSTEM.norm>
0

>  <SCORE.heavy>
10

>  <SCORE.norm>
-0.670334

>  <RMSD>
2.978

$$$$
ligand
 OpenBabel02271912133D
libRbt.so/2013.1/901 2013/11/27
 10 11  0  0  0  0  0  0  0  0999 V2000
   12.4579   -4.4392    7.7277 C   0  0  1  0  0  0  0  0  0  0  0  0
   10.9857   -1.4738    6.8950 C   0  0  2  0  0  0  0  0  0  0  0  0
   11.8533   -2.5692    8.4744 C   0  0  2  0  0  0  0  0  0  0  0  0
   12.9685   -5.6722    7.6322 N   0  0  0  0  0  0  0  0  0  0  0  0
   10.5399   -1.0891    5.7032 N   0  0  0  0  0  0  0  0  0  0  0  0
   10.9311   -0.7304    7.9937 N   0  0  0  0  0  0  0  0  0  0  0  0
   12.4289   -3.7161    8.8416 N   0  0  0  0  0  0  0  0  0  0  0  0
   11.9163   -3.7375    6.7152 N   0  0  0  0  0  0  0  0  0  0  0  0
   11.4354   -1.3757    8.9237 N   0  0  0  0  0  0  0  0  0  0  0  0
   11.5661   -2.6365    7.1689 N   0  0  1  0  0  0  0  0  0  0  0  0
  1  4  1  6  0  0  0
  1  8  1  0  0  0  0
  1  7  1  0  0  0  0
  2  5  1  6  0  0  0
  2  6  1  0  0  0  0
  2 10  1  0  0  0  0
  3  7  1  1  0  0  0
  3 10  1  0  0  0  0
  3  9  1  0  0  0  0
  6  9  1  0  0  0  0
 10  8  1  1  0  0  0
M  END
>  <CHROM.1>
11.70574583,-2.74024259,7.60346091,0.31266327,1.11293033,-2.08417934

>  <Name>
ligand

>  <RI>
0

>  <Rbt.Current_Directory>
/home/itssahil/PROJECTS/Mol_Feturizer/Test_systems_manuscript/rnas/2xnw

>  <Rbt.Executable>
rbdock ($Id: //depot/dev/client3/rdock/2013.1/src/exe/rbdock.cxx#4 $)

>  <Rbt.Library>
libRbt.so (2013.1, Build901 2013/11/27)

>  <Rbt.Parameter_File>
/export/apps/rDock/src/rDock_2013.1_src/data/scripts/dock_solv.prm

>  <Rbt.Receptor>
prm/pocket_docking_7.prm

>  <SCORE>
-6.71984

>  <SCORE.INTER>
-6.71984

>  <SCORE.INTER.CONST>
1

>  <SCORE.INTER.POLAR>
0

>  <SCORE.INTER.ROT>
0

>  <SCORE.INTER.SOLV>
15.7063

>  <SCORE.INTER.VDW>
-13.3153

>  <SCORE.INTER.norm>
-0.671984

>  <SCORE.INTRA>
0

>  <SCORE.INTRA.DIHEDRAL>
0

>  <SCORE.INTRA.DIHEDRAL.0>
0

>  <SCORE.INTRA.POLAR>
0

>  <SCORE.INTRA.POLAR.0>
0

>  <SCORE.INTRA.REPUL>
0

>  <SCORE.INTRA.REPUL.0>
0

>  <SCORE.INTRA.SOLV>
0

>  <SCORE.INTRA.SOLV.lig_0>
-47.9788

>  <SCORE.INTRA.VDW>
0

>  <SCORE.INTRA.VDW.0>
0

>  <SCORE.INTRA.norm>
0

>  <SCORE.RESTR>
0

>  <SCORE.RESTR.CAVITY>
0

>  <SCORE.RESTR.norm>
0

>  <SCORE.SYSTEM>
0

>  <SCORE.SYSTEM.CONST>
0

>  <SCORE.SYSTEM.DIHEDRAL>
0

>  <SCORE.SYSTEM.SOLV>
0

>  <SCORE.SYSTEM.norm>
0

>  <SCORE.heavy>
10

>  <SCORE.norm>
-0.671984

>  <RMSD>
2.978

$$$$
ligand
 OpenBabel02271912133D
libRbt.so/2013.1/901 2013/11/27
 10 11  0  0  0  0  0  0  0  0999 V2000
   12.4597   -4.4387    7.7281 C   0  0  1  0  0  0  0  0  0  0  0  0
   10.9820   -1.4784    6.8870 C   0  0  2  0  0  0  0  0  0  0  0  0
   11.8227   -2.5801    8.4765 C   0  0  2  0  0  0  0  0  0  0  0  0
   12.9826   -5.6666    7.6338 N   0  0  0  0  0  0  0  0  0  0  0  0
   10.5601   -1.0871    5.6887 N   0  0  0  0  0  0  0  0  0  0  0  0
   10.8963   -0.7449    7.9904 N   0  0  0  0  0  0  0  0  0  0  0  0
   12.3994   -3.7254    8.8471 N   0  0  0  0  0  0  0  0  0  0  0  0
   11.9353   -3.7328    6.7094 N   0  0  0  0  0  0  0  0  0  0  0  0
   11.3848   -1.3941    8.9262 N   0  0  0  0  0  0  0  0  0  0  0  0
   11.5657   -2.6386    7.1643 N   0  0  1  0  0  0  0  0  0  0  0  0
  1  4  1  6  0  0  0
  1  8  1  0  0  0  0
  1  7  1  0  0  0  0
  2  5  1  6  0  0  0
  2  6  1  0  0  0  0
  2 10  1  0  0  0  0
  3  7  1  1  0  0  0
  3 10  1  0  0  0  0
  3  9  1  0  0  0  0
  6  9  1  0  0  0  0
 10  8  1  1  0  0  0
M  END
>  <CHROM.1>
11.69634912,-2.74494119,7.60104149,0.25840447,1.11619817,-2.02699058

>  <Name>
ligand

>  <RI>
0

>  <Rbt.Current_Directory>
/home/itssahil/PROJECTS/Mol_Feturizer/Test_systems_manuscript/rnas/2xnw

>  <Rbt.Executable>
rbdock ($Id: //depot/dev/client3/rdock/2013.1/src/exe/rbdock.cxx#4 $)

>  <Rbt.Library>
libRbt.so (2013.1, Build901 2013/11/27)

>  <Rbt.Parameter_File>
/export/apps/rDock/src/rDock_2013.1_src/data/scripts/dock_solv.prm

>  <Rbt.Receptor>
prm/pocket_docking_7.prm

>  <SCORE>
-6.71026

>  <SCORE.INTER>
-6.71026

>  <SCORE.INTER.CONST>
1

>  <SCORE.INTER.POLAR>
0

>  <SCORE.INTER.ROT>
0

>  <SCORE.INTER.SOLV>
15.7334

>  <SCORE.INTER.VDW>
-13.318

>  <SCORE.INTER.norm>
-0.671026

>  <SCORE.INTRA>
0

>  <SCORE.INTRA.DIHEDRAL>
0

>  <SCORE.INTRA.DIHEDRAL.0>
0

>  <SCORE.INTRA.POLAR>
0

>  <SCORE.INTRA.POLAR.0>
0

>  <SCORE.INTRA.REPUL>
0

>  <SCORE.INTRA.REPUL.0>
0

>  <SCORE.INTRA.SOLV>
0

>  <SCORE.INTRA.SOLV.lig_0>
-47.9788

>  <SCORE.INTRA.VDW>
0

>  <SCORE.INTRA.VDW.0>
0

>  <SCORE.INTRA.norm>
0

>  <SCORE.RESTR>
0

>  <SCORE.RESTR.CAVITY>
0

>  <SCORE.RESTR.norm>
0

>  <SCORE.SYSTEM>
0

>  <SCORE.SYSTEM.CONST>
0

>  <SCORE.SYSTEM.DIHEDRAL>
0

>  <SCORE.SYSTEM.SOLV>
0

>  <SCORE.SYSTEM.norm>
0

>  <SCORE.heavy>
10

>  <SCORE.norm>
-0.671026

>  <RMSD>
2.978

$$$$
ligand
 OpenBabel02271912133D
libRbt.so/2013.1/901 2013/11/27
 10 11  0  0  0  0  0  0  0  0999 V2000
   12.5647   -4.4192    7.7158 C   0  0  1  0  0  0  0  0  0  0  0  0
   10.9935   -1.5037    6.8874 C   0  0  2  0  0  0  0  0  0  0  0  0
   11.8484   -2.5948    8.4767 C   0  0  2  0  0  0  0  0  0  0  0  0
   13.1335   -5.6259    7.6149 N   0  0  0  0  0  0  0  0  0  0  0  0
   10.5768   -1.1124    5.6872 N   0  0  0  0  0  0  0  0  0  0  0  0
   10.8634   -0.7883    7.9982 N   0  0  0  0  0  0  0  0  0  0  0  0
   12.4605   -3.7231    8.8424 N   0  0  0  0  0  0  0  0  0  0  0  0
   12.0312   -3.7195    6.6975 N   0  0  0  0  0  0  0  0  0  0  0  0
   11.3603   -1.4314    8.9338 N   0  0  0  0  0  0  0  0  0  0  0  0
   11.6147   -2.6455    7.1598 N   0  0  1  0  0  0  0  0  0  0  0  0
  1  4  1  6  0  0  0
  1  8  1  0  0  0  0
  1  7  1  0  0  0  0
  2  5  1  6  0  0  0
  2  6  1  0  0  0  0
  2 10  1  0  0  0  0
  3  7  1  1  0  0  0
  3 10  1  0  0  0  0
  3  9  1  0  0  0  0
  6  9  1  0  0  0  0
 10  8  1  1  0  0  0
M  END
>  <CHROM.1>
11.74212561,-2.75267859,7.59725483,0.19257477,1.08955564,-1.95549105

>  <Name>
ligand

>  <RI>
0

>  <Rbt.Current_Directory>
/home/itssahil/PROJECTS/Mol_Feturizer/Test_systems_manuscript/rnas/2xnw

>  <Rbt.Executable>
rbdock ($Id: //depot/dev/client3/rdock/2013.1/src/exe/rbdock.cxx#4 $)

>  <Rbt.Library>
libRbt.so (2013.1, Build901 2013/11/27)

>  <Rbt.Parameter_File>
/export/apps/rDock/src/rDock_2013.1_src/data/scripts/dock_solv.prm

>  <Rbt.Receptor>
prm/pocket_docking_8.prm

>  <SCORE>
-6.68562

>  <SCORE.INTER>
-6.68562

>  <SCORE.INTER.CONST>
1

>  <SCORE.INTER.POLAR>
0

>  <SCORE.INTER.ROT>
0

>  <SCORE.INTER.SOLV>
15.136

>  <SCORE.INTER.VDW>
-13.1024

>  <SCORE.INTER.norm>
-0.668562

>  <SCORE.INTRA>
0

>  <SCORE.INTRA.DIHEDRAL>
0

>  <SCORE.INTRA.DIHEDRAL.0>
0

>  <SCORE.INTRA.POLAR>
0

>  <SCORE.INTRA.POLAR.0>
0

>  <SCORE.INTRA.REPUL>
0

>  <SCORE.INTRA.REPUL.0>
0

>  <SCORE.INTRA.SOLV>
0

>  <SCORE.INTRA.SOLV.lig_0>
-47.9788

>  <SCORE.INTRA.VDW>
0

>  <SCORE.INTRA.VDW.0>
0

>  <SCORE.INTRA.norm>
0

>  <SCORE.RESTR>
0

>  <SCORE.RESTR.CAVITY>
0

>  <SCORE.RESTR.norm>
0

>  <SCORE.SYSTEM>
0

>  <SCORE.SYSTEM.CONST>
0

>  <SCORE.SYSTEM.DIHEDRAL>
0

>  <SCORE.SYSTEM.SOLV>
0

>  <SCORE.SYSTEM.norm>
0

>  <SCORE.heavy>
10

>  <SCORE.norm>
-0.668562

>  <RMSD>
2.978

$$$$
ligand
 OpenBabel02271912133D
libRbt.so/2013.1/901 2013/11/27
 10 11  0  0  0  0  0  0  0  0999 V2000
   12.5006   -4.4209    7.7032 C   0  0  1  0  0  0  0  0  0  0  0  0
   10.9993   -1.4646    6.8902 C   0  0  2  0  0  0  0  0  0  0  0  0
   11.8524   -2.5730    8.4684 C   0  0  2  0  0  0  0  0  0  0  0  0
   13.0320   -5.6442    7.5976 N   0  0  0  0  0  0  0  0  0  0  0  0
   10.5713   -1.0667    5.6962 N   0  0  0  0  0  0  0  0  0  0  0  0
   10.9115   -0.7406    7.9996 N   0  0  0  0  0  0  0  0  0  0  0  0
   12.4383   -3.7170    8.8281 N   0  0  0  0  0  0  0  0  0  0  0  0
   11.9682   -3.7106    6.6917 N   0  0  0  0  0  0  0  0  0  0  0  0
   11.4073   -1.3937    8.9288 N   0  0  0  0  0  0  0  0  0  0  0  0
   11.5921   -2.6227    7.1565 N   0  0  1  0  0  0  0  0  0  0  0  0
  1  4  1  6  0  0  0
  1  8  1  0  0  0  0
  1  7  1  0  0  0  0
  2  5  1  6  0  0  0
  2  6  1  0  0  0  0
  2 10  1  0  0  0  0
  3  7  1  1  0  0  0
  3 10  1  0  0  0  0
  3  9  1  0  0  0  0
  6  9  1  0  0  0  0
 10  8  1  1  0  0  0
M  END
>  <CHROM.1>
11.72477334,-2.73164573,7.59196433,0.25698326,1.10852413,-2.01765936

>  <Name>
ligand

>  <RI>
0

>  <Rbt.Current_Directory>
/home/itssahil/PROJECTS/Mol_Feturizer/Test_systems_manuscript/rnas/2xnw

>  <Rbt.Executable>
rbdock ($Id: //depot/dev/client3/rdock/2013.1/src/exe/rbdock.cxx#4 $)

>  <Rbt.Library>
libRbt.so (2013.1, Build901 2013/11/27)

>  <Rbt.Parameter_File>
/export/apps/rDock/src/rDock_2013.1_src/data/scripts/dock_solv.prm

>  <Rbt.Receptor>
prm/blind_docking_100.prm

>  <SCORE>
-6.67176

>  <SCORE.INTER>
-6.67176

>  <SCORE.INTER.CONST>
1

>  <SCORE.INTER.POLAR>
0

>  <SCORE.INTER.ROT>
0

>  <SCORE.INTER.SOLV>
15.5759

>  <SCORE.INTER.VDW>
-13.2398

>  <SCORE.INTER.norm>
-0.667176

>  <SCORE.INTRA>
0

>  <SCORE.INTRA.DIHEDRAL>
0

>  <SCORE.INTRA.DIHEDRAL.0>
0

>  <SCORE.INTRA.POLAR>
0

>  <SCORE.INTRA.POLAR.0>
0

>  <SCORE.INTRA.REPUL>
0

>  <SCORE.INTRA.REPUL.0>
0

>  <SCORE.INTRA.SOLV>
0

>  <SCORE.INTRA.SOLV.lig_0>
-47.9788

>  <SCORE.INTRA.VDW>
0

>  <SCORE.INTRA.VDW.0>
0

>  <SCORE.INTRA.norm>
0

>  <SCORE.RESTR>
0

>  <SCORE.RESTR.CAVITY>
0

>  <SCORE.RESTR.norm>
0

>  <SCORE.SYSTEM>
0

>  <SCORE.SYSTEM.CONST>
0

>  <SCORE.SYSTEM.DIHEDRAL>
0

>  <SCORE.SYSTEM.SOLV>
0

>  <SCORE.SYSTEM.norm>
0

>  <SCORE.heavy>
10

>  <SCORE.norm>
-0.667176

>  <RMSD>
2.979

$$$$
ligand
 OpenBabel02271912133D
libRbt.so/2013.1/901 2013/11/27
 10 11  0  0  0  0  0  0  0  0999 V2000
   12.4557   -4.4397    7.7235 C   0  0  1  0  0  0  0  0  0  0  0  0
   10.9960   -1.4692    6.8868 C   0  0  2  0  0  0  0  0  0  0  0  0
   11.8168   -2.5840    8.4776 C   0  0  2  0  0  0  0  0  0  0  0  0
   12.9756   -5.6686    7.6265 N   0  0  0  0  0  0  0  0  0  0  0  0
   10.5877   -1.0687    5.6868 N   0  0  0  0  0  0  0  0  0  0  0  0
   10.9012   -0.7427    7.9940 N   0  0  0  0  0  0  0  0  0  0  0  0
   12.3861   -3.7335    8.8465 N   0  0  0  0  0  0  0  0  0  0  0  0
   11.9440   -3.7254    6.7042 N   0  0  0  0  0  0  0  0  0  0  0  0
   11.3780   -1.3995    8.9305 N   0  0  0  0  0  0  0  0  0  0  0  0
   11.5731   -2.6330    7.1624 N   0  0  1  0  0  0  0  0  0  0  0  0
  1  4  1  6  0  0  0
  1  8  1  0  0  0  0
  1  7  1  0  0  0  0
  2  5  1  6  0  0  0
  2  6  1  0  0  0  0
  2 10  1  0  0  0  0
  3  7  1  1  0  0  0
  3 10  1  0  0  0  0
  3  9  1  0  0  0  0
  6  9  1  0  0  0  0
 10  8  1  1  0  0  0
M  END
>  <CHROM.1>
11.69898025,-2.74267430,7.59976273,0.24020042,1.12348398,-2.00404254

>  <Name>
ligand

>  <RI>
0

>  <Rbt.Current_Directory>
/home/itssahil/PROJECTS/Mol_Feturizer/Test_systems_manuscript/rnas/2xnw

>  <Rbt.Executable>
rbdock ($Id: //depot/dev/client3/rdock/2013.1/src/exe/rbdock.cxx#4 $)

>  <Rbt.Library>
libRbt.so (2013.1, Build901 2013/11/27)

>  <Rbt.Parameter_File>
/export/apps/rDock/src/rDock_2013.1_src/data/scripts/dock_solv.prm

>  <Rbt.Receptor>
prm/blind_docking_40.prm

>  <SCORE>
-6.7092

>  <SCORE.INTER>
-6.7092

>  <SCORE.INTER.CONST>
1

>  <SCORE.INTER.POLAR>
0

>  <SCORE.INTER.ROT>
0

>  <SCORE.INTER.SOLV>
15.8325

>  <SCORE.INTER.VDW>
-13.3503

>  <SCORE.INTER.norm>
-0.67092

>  <SCORE.INTRA>
0

>  <SCORE.INTRA.DIHEDRAL>
0

>  <SCORE.INTRA.DIHEDRAL.0>
0

>  <SCORE.INTRA.POLAR>
0

>  <SCORE.INTRA.POLAR.0>
0

>  <SCORE.INTRA.REPUL>
0

>  <SCORE.INTRA.REPUL.0>
0

>  <SCORE.INTRA.SOLV>
0

>  <SCORE.INTRA.SOLV.lig_0>
-47.9788

>  <SCORE.INTRA.VDW>
0

>  <SCORE.INTRA.VDW.0>
0

>  <SCORE.INTRA.norm>
0

>  <SCORE.RESTR>
0

>  <SCORE.RESTR.CAVITY>
0

>  <SCORE.RESTR.norm>
0

>  <SCORE.SYSTEM>
0

>  <SCORE.SYSTEM.CONST>
0

>  <SCORE.SYSTEM.DIHEDRAL>
0

>  <SCORE.SYSTEM.SOLV>
0

>  <SCORE.SYSTEM.norm>
0

>  <SCORE.heavy>
10

>  <SCORE.norm>
-0.67092

>  <RMSD>
2.979

$$$$
ligand
 OpenBabel02271912133D
libRbt.so/2013.1/901 2013/11/27
 10 11  0  0  0  0  0  0  0  0999 V2000
   12.4583   -4.4516    7.7354 C   0  0  1  0  0  0  0  0  0  0  0  0
   11.0202   -1.4725    6.8920 C   0  0  2  0  0  0  0  0  0  0  0  0
   11.8506   -2.5823    8.4814 C   0  0  2  0  0  0  0  0  0  0  0  0
   12.9632   -5.6871    7.6424 N   0  0  0  0  0  0  0  0  0  0  0  0
   10.5998   -1.0781    5.6941 N   0  0  0  0  0  0  0  0  0  0  0  0
   10.9489   -0.7351    7.9938 N   0  0  0  0  0  0  0  0  0  0  0  0
   12.4121   -3.7348    8.8528 N   0  0  0  0  0  0  0  0  0  0  0  0
   11.9405   -3.7407    6.7167 N   0  0  0  0  0  0  0  0  0  0  0  0
   11.4313   -1.3889    8.9295 N   0  0  0  0  0  0  0  0  0  0  0  0
   11.5882   -2.6402    7.1702 N   0  0  1  0  0  0  0  0  0  0  0  0
  1  4  1  6  0  0  0
  1  8  1  0  0  0  0
  1  7  1  0  0  0  0
  2  5  1  6  0  0  0
  2  6  1  0  0  0  0
  2 10  1  0  0  0  0
  3  7  1  1  0  0  0
  3 10  1  0  0  0  0
  3  9  1  0  0  0  0
  6  9  1  0  0  0  0
 10  8  1  1  0  0  0
M  END
>  <CHROM.1>
11.71884514,-2.74737829,7.60671568,0.28035044,1.12743150,-2.04923660

>  <Name>
ligand

>  <RI>
0

>  <Rbt.Current_Directory>
/home/itssahil/PROJECTS/Mol_Feturizer/Test_systems_manuscript/rnas/2xnw

>  <Rbt.Executable>
rbdock ($Id: //depot/dev/client3/rdock/2013.1/src/exe/rbdock.cxx#4 $)

>  <Rbt.Library>
libRbt.so (2013.1, Build901 2013/11/27)

>  <Rbt.Parameter_File>
/export/apps/rDock/src/rDock_2013.1_src/data/scripts/dock_solv.prm

>  <Rbt.Receptor>
prm/blind_docking_40.prm

>  <SCORE>
-6.71438

>  <SCORE.INTER>
-6.71438

>  <SCORE.INTER.CONST>
1

>  <SCORE.INTER.POLAR>
0

>  <SCORE.INTER.ROT>
0

>  <SCORE.INTER.SOLV>
15.8576

>  <SCORE.INTER.VDW>
-13.3621

>  <SCORE.INTER.norm>
-0.671438

>  <SCORE.INTRA>
0

>  <SCORE.INTRA.DIHEDRAL>
0

>  <SCORE.INTRA.DIHEDRAL.0>
0

>  <SCORE.INTRA.POLAR>
0

>  <SCORE.INTRA.POLAR.0>
0

>  <SCORE.INTRA.REPUL>
0

>  <SCORE.INTRA.REPUL.0>
0

>  <SCORE.INTRA.SOLV>
0

>  <SCORE.INTRA.SOLV.lig_0>
-47.9788

>  <SCORE.INTRA.VDW>
0

>  <SCORE.INTRA.VDW.0>
0

>  <SCORE.INTRA.norm>
0

>  <SCORE.RESTR>
0

>  <SCORE.RESTR.CAVITY>
0

>  <SCORE.RESTR.norm>
0

>  <SCORE.SYSTEM>
0

>  <SCORE.SYSTEM.CONST>
0

>  <SCORE.SYSTEM.DIHEDRAL>
0

>  <SCORE.SYSTEM.SOLV>
0

>  <SCORE.SYSTEM.norm>
0

>  <SCORE.heavy>
10

>  <SCORE.norm>
-0.671438

>  <RMSD>
2.979

$$$$
ligand
 OpenBabel02271912133D
libRbt.so/2013.1/901 2013/11/27
 10 11  0  0  0  0  0  0  0  0999 V2000
   12.4850   -4.4281    7.7154 C   0  0  1  0  0  0  0  0  0  0  0  0
   10.9733   -1.4810    6.8884 C   0  0  2  0  0  0  0  0  0  0  0  0
   11.8341   -2.5772    8.4710 C   0  0  2  0  0  0  0  0  0  0  0  0
   13.0194   -5.6505    7.6159 N   0  0  0  0  0  0  0  0  0  0  0  0
   10.5406   -1.0917    5.6932 N   0  0  0  0  0  0  0  0  0  0  0  0
   10.8867   -0.7503    7.9936 N   0  0  0  0  0  0  0  0  0  0  0  0
   12.4242   -3.7174    8.8361 N   0  0  0  0  0  0  0  0  0  0  0  0
   11.9477   -3.7255    6.7011 N   0  0  0  0  0  0  0  0  0  0  0  0
   11.3870   -1.3963    8.9253 N   0  0  0  0  0  0  0  0  0  0  0  0
   11.5700   -2.6358    7.1602 N   0  0  1  0  0  0  0  0  0  0  0  0
  1  4  1  6  0  0  0
  1  8  1  0  0  0  0
  1  7  1  0  0  0  0
  2  5  1  6  0  0  0
  2  6  1  0  0  0  0
  2 10  1  0  0  0  0
  3  7  1  1  0  0  0
  3 10  1  0  0  0  0
  3  9  1  0  0  0  0
  6  9  1  0  0  0  0
 10  8  1  1  0  0  0
M  END
>  <CHROM.1>
11.70424865,-2.74166288,7.59592740,0.26027386,1.10477475,-2.02683836

>  <Name>
ligand

>  <RI>
0

>  <Rbt.Current_Directory>
/home/itssahil/PROJECTS/Mol_Feturizer/Test_systems_manuscript/rnas/2xnw

>  <Rbt.Executable>
rbdock ($Id: //depot/dev/client3/rdock/2013.1/src/exe/rbdock.cxx#4 $)

>  <Rbt.Library>
libRbt.so (2013.1, Build901 2013/11/27)

>  <Rbt.Parameter_File>
/export/apps/rDock/src/rDock_2013.1_src/data/scripts/dock_solv.prm

>  <Rbt.Receptor>
prm/blind_docking_40.prm

>  <SCORE>
-6.68842

>  <SCORE.INTER>
-6.68842

>  <SCORE.INTER.CONST>
1

>  <SCORE.INTER.POLAR>
0

>  <SCORE.INTER.ROT>
0

>  <SCORE.INTER.SOLV>
15.5401

>  <SCORE.INTER.VDW>
-13.239

>  <SCORE.INTER.norm>
-0.668842

>  <SCORE.INTRA>
0

>  <SCORE.INTRA.DIHEDRAL>
0

>  <SCORE.INTRA.DIHEDRAL.0>
0

>  <SCORE.INTRA.POLAR>
0

>  <SCORE.INTRA.POLAR.0>
0

>  <SCORE.INTRA.REPUL>
0

>  <SCORE.INTRA.REPUL.0>
0

>  <SCORE.INTRA.SOLV>
0

>  <SCORE.INTRA.SOLV.lig_0>
-47.9788

>  <SCORE.INTRA.VDW>
0

>  <SCORE.INTRA.VDW.0>
0

>  <SCORE.INTRA.norm>
0

>  <SCORE.RESTR>
0

>  <SCORE.RESTR.CAVITY>
0

>  <SCORE.RESTR.norm>
0

>  <SCORE.SYSTEM>
0

>  <SCORE.SYSTEM.CONST>
0

>  <SCORE.SYSTEM.DIHEDRAL>
0

>  <SCORE.SYSTEM.SOLV>
0

>  <SCORE.SYSTEM.norm>
0

>  <SCORE.heavy>
10

>  <SCORE.norm>
-0.668842

>  <RMSD>
2.979

$$$$
ligand
 OpenBabel02271912133D
libRbt.so/2013.1/901 2013/11/27
 10 11  0  0  0  0  0  0  0  0999 V2000
   12.5397   -4.4424    7.7401 C   0  0  1  0  0  0  0  0  0  0  0  0
   11.0287   -1.4965    6.9076 C   0  0  2  0  0  0  0  0  0  0  0  0
   11.8981   -2.5860    8.4901 C   0  0  2  0  0  0  0  0  0  0  0  0
   13.0707   -5.6666    7.6435 N   0  0  0  0  0  0  0  0  0  0  0  0
   10.5885   -1.1128    5.7133 N   0  0  0  0  0  0  0  0  0  0  0  0
   10.9515   -0.7597    8.0093 N   0  0  0  0  0  0  0  0  0  0  0  0
   12.4883   -3.7255    8.8572 N   0  0  0  0  0  0  0  0  0  0  0  0
   11.9969   -3.7442    6.7258 N   0  0  0  0  0  0  0  0  0  0  0  0
   11.4569   -1.4016    8.9411 N   0  0  0  0  0  0  0  0  0  0  0  0
   11.6248   -2.6512    7.1815 N   0  0  1  0  0  0  0  0  0  0  0  0
  1  4  1  6  0  0  0
  1  8  1  0  0  0  0
  1  7  1  0  0  0  0
  2  5  1  6  0  0  0
  2  6  1  0  0  0  0
  2 10  1  0  0  0  0
  3  7  1  1  0  0  0
  3 10  1  0  0  0  0
  3  9  1  0  0  0  0
  6  9  1  0  0  0  0
 10  8  1  1  0  0  0
M  END
>  <CHROM.1>
11.76182970,-2.75493937,7.61685343,0.27641117,1.10360262,-2.04673014

>  <Name>
ligand

>  <RI>
0

>  <Rbt.Current_Directory>
/home/itssahil/PROJECTS/Mol_Feturizer/Test_systems_manuscript/rnas/2xnw

>  <Rbt.Executable>
rbdock ($Id: //depot/dev/client3/rdock/2013.1/src/exe/rbdock.cxx#4 $)

>  <Rbt.Library>
libRbt.so (2013.1, Build901 2013/11/27)

>  <Rbt.Parameter_File>
/export/apps/rDock/src/rDock_2013.1_src/data/scripts/dock_solv.prm

>  <Rbt.Receptor>
prm/blind_docking_60.prm

>  <SCORE>
-6.66163

>  <SCORE.INTER>
-6.66163

>  <SCORE.INTER.CONST>
1

>  <SCORE.INTER.POLAR>
0

>  <SCORE.INTER.ROT>
0

>  <SCORE.INTER.SOLV>
15.3289

>  <SCORE.INTER.VDW>
-13.1507

>  <SCORE.INTER.norm>
-0.666163

>  <SCORE.INTRA>
0

>  <SCORE.INTRA.DIHEDRAL>
0

>  <SCORE.INTRA.DIHEDRAL.0>
0

>  <SCORE.INTRA.POLAR>
0

>  <SCORE.INTRA.POLAR.0>
0

>  <SCORE.INTRA.REPUL>
0

>  <SCORE.INTRA.REPUL.0>
0

>  <SCORE.INTRA.SOLV>
0

>  <SCORE.INTRA.SOLV.lig_0>
-47.9788

>  <SCORE.INTRA.VDW>
0

>  <SCORE.INTRA.VDW.0>
0

>  <SCORE.INTRA.norm>
0

>  <SCORE.RESTR>
0

>  <SCORE.RESTR.CAVITY>
0

>  <SCORE.RESTR.norm>
0

>  <SCORE.SYSTEM>
0

>  <SCORE.SYSTEM.CONST>
0

>  <SCORE.SYSTEM.DIHEDRAL>
0

>  <SCORE.SYSTEM.SOLV>
0

>  <SCORE.SYSTEM.norm>
0

>  <SCORE.heavy>
10

>  <SCORE.norm>
-0.666163

>  <RMSD>
2.979

$$$$
ligand
 OpenBabel02271912133D
libRbt.so/2013.1/901 2013/11/27
 10 11  0  0  0  0  0  0  0  0999 V2000
   12.4567   -4.4340    7.7216 C   0  0  1  0  0  0  0  0  0  0  0  0
   10.9651   -1.4792    6.8857 C   0  0  2  0  0  0  0  0  0  0  0  0
   11.8027   -2.5834    8.4751 C   0  0  2  0  0  0  0  0  0  0  0  0
   12.9883   -5.6580    7.6246 N   0  0  0  0  0  0  0  0  0  0  0  0
   10.5484   -1.0846    5.6866 N   0  0  0  0  0  0  0  0  0  0  0  0
   10.8674   -0.7518    7.9921 N   0  0  0  0  0  0  0  0  0  0  0  0
   12.3845   -3.7267    8.8437 N   0  0  0  0  0  0  0  0  0  0  0  0
   11.9343   -3.7264    6.7031 N   0  0  0  0  0  0  0  0  0  0  0  0
   11.3541   -1.4025    8.9278 N   0  0  0  0  0  0  0  0  0  0  0  0
   11.5546   -2.6369    7.1610 N   0  0  1  0  0  0  0  0  0  0  0  0
  1  4  1  6  0  0  0
  1  8  1  0  0  0  0
  1  7  1  0  0  0  0
  2  5  1  6  0  0  0
  2  6  1  0  0  0  0
  2 10  1  0  0  0  0
  3  7  1  1  0  0  0
  3 10  1  0  0  0  0
  3  9  1  0  0  0  0
  6  9  1  0  0  0  0
 10  8  1  1  0  0  0
M  END
>  <CHROM.1>
11.68311818,-2.74461261,7.59802900,0.23868779,1.11307992,-2.00429106

>  <Name>
ligand

>  <RI>
0

>  <Rbt.Current_Directory>
/home/itssahil/PROJECTS/Mol_Feturizer/Test_systems_manuscript/rnas/2xnw

>  <Rbt.Executable>
rbdock ($Id: //depot/dev/client3/rdock/2013.1/src/exe/rbdock.cxx#4 $)

>  <Rbt.Library>
libRbt.so (2013.1, Build901 2013/11/27)

>  <Rbt.Parameter_File>
/export/apps/rDock/src/rDock_2013.1_src/data/scripts/dock_solv.prm

>  <Rbt.Receptor>
prm/blind_docking_80.prm

>  <SCORE>
-6.70018

>  <SCORE.INTER>
-6.70018

>  <SCORE.INTER.CONST>
1

>  <SCORE.INTER.POLAR>
0

>  <SCORE.INTER.ROT>
0

>  <SCORE.INTER.SOLV>
15.7054

>  <SCORE.INTER.VDW>
-13.3019

>  <SCORE.INTER.norm>
-0.670018

>  <SCORE.INTRA>
0

>  <SCORE.INTRA.DIHEDRAL>
0

>  <SCORE.INTRA.DIHEDRAL.0>
0

>  <SCORE.INTRA.POLAR>
0

>  <SCORE.INTRA.POLAR.0>
0

>  <SCORE.INTRA.REPUL>
0

>  <SCORE.INTRA.REPUL.0>
0

>  <SCORE.INTRA.SOLV>
0

>  <SCORE.INTRA.SOLV.lig_0>
-47.9788

>  <SCORE.INTRA.VDW>
0

>  <SCORE.INTRA.VDW.0>
0

>  <SCORE.INTRA.norm>
0

>  <SCORE.RESTR>
0

>  <SCORE.RESTR.CAVITY>
0

>  <SCORE.RESTR.norm>
0

>  <SCORE.SYSTEM>
0

>  <SCORE.SYSTEM.CONST>
0

>  <SCORE.SYSTEM.DIHEDRAL>
0

>  <SCORE.SYSTEM.SOLV>
0

>  <SCORE.SYSTEM.norm>
0

>  <SCORE.heavy>
10

>  <SCORE.norm>
-0.670018

>  <RMSD>
2.979

$$$$
ligand
 OpenBabel02271912133D
libRbt.so/2013.1/901 2013/11/27
 10 11  0  0  0  0  0  0  0  0999 V2000
   12.4583   -4.4473    7.7313 C   0  0  1  0  0  0  0  0  0  0  0  0
   11.0032   -1.4747    6.8945 C   0  0  2  0  0  0  0  0  0  0  0  0
   11.8469   -2.5802    8.4798 C   0  0  2  0  0  0  0  0  0  0  0  0
   12.9679   -5.6808    7.6361 N   0  0  0  0  0  0  0  0  0  0  0  0
   10.5747   -1.0826    5.6987 N   0  0  0  0  0  0  0  0  0  0  0  0
   10.9348   -0.7371    7.9963 N   0  0  0  0  0  0  0  0  0  0  0  0
   12.4152   -3.7302    8.8486 N   0  0  0  0  0  0  0  0  0  0  0  0
   11.9320   -3.7391    6.7152 N   0  0  0  0  0  0  0  0  0  0  0  0
   11.4250   -1.3884    8.9297 N   0  0  0  0  0  0  0  0  0  0  0  0
   11.5776   -2.6399    7.1701 N   0  0  1  0  0  0  0  0  0  0  0  0
  1  4  1  6  0  0  0
  1  8  1  0  0  0  0
  1  7  1  0  0  0  0
  2  5  1  6  0  0  0
  2  6  1  0  0  0  0
  2 10  1  0  0  0  0
  3  7  1  1  0  0  0
  3 10  1  0  0  0  0
  3  9  1  0  0  0  0
  6  9  1  0  0  0  0
 10  8  1  1  0  0  0
M  END
>  <CHROM.1>
11.71106892,-2.74626025,7.60592357,0.28707241,1.12121349,-2.05576297

>  <Name>
ligand

>  <RI>
0

>  <Rbt.Current_Directory>
/home/itssahil/PROJECTS/Mol_Feturizer/Test_systems_manuscript/rnas/2xnw

>  <Rbt.Executable>
rbdock ($Id: //depot/dev/client3/rdock/2013.1/src/exe/rbdock.cxx#4 $)

>  <Rbt.Library>
libRbt.so (2013.1, Build901 2013/11/27)

>  <Rbt.Parameter_File>
/export/apps/rDock/src/rDock_2013.1_src/data/scripts/dock_solv.prm

>  <Rbt.Receptor>
prm/pocket_docking_6.prm

>  <SCORE>
-6.71717

>  <SCORE.INTER>
-6.71717

>  <SCORE.INTER.CONST>
1

>  <SCORE.INTER.POLAR>
0

>  <SCORE.INTER.ROT>
0

>  <SCORE.INTER.SOLV>
15.786

>  <SCORE.INTER.VDW>
-13.3401

>  <SCORE.INTER.norm>
-0.671717

>  <SCORE.INTRA>
0

>  <SCORE.INTRA.DIHEDRAL>
0

>  <SCORE.INTRA.DIHEDRAL.0>
0

>  <SCORE.INTRA.POLAR>
0

>  <SCORE.INTRA.POLAR.0>
0

>  <SCORE.INTRA.REPUL>
0

>  <SCORE.INTRA.REPUL.0>
0

>  <SCORE.INTRA.SOLV>
0

>  <SCORE.INTRA.SOLV.lig_0>
-47.9788

>  <SCORE.INTRA.VDW>
0

>  <SCORE.INTRA.VDW.0>
0

>  <SCORE.INTRA.norm>
0

>  <SCORE.RESTR>
0

>  <SCORE.RESTR.CAVITY>
0

>  <SCORE.RESTR.norm>
0

>  <SCORE.SYSTEM>
0

>  <SCORE.SYSTEM.CONST>
0

>  <SCORE.SYSTEM.DIHEDRAL>
0

>  <SCORE.SYSTEM.SOLV>
0

>  <SCORE.SYSTEM.norm>
0

>  <SCORE.heavy>
10

>  <SCORE.norm>
-0.671717

>  <RMSD>
2.979

$$$$
ligand
 OpenBabel02271912133D
libRbt.so/2013.1/901 2013/11/27
 10 11  0  0  0  0  0  0  0  0999 V2000
   12.4593   -4.4468    7.7328 C   0  0  1  0  0  0  0  0  0  0  0  0
   10.9998   -1.4754    6.8991 C   0  0  2  0  0  0  0  0  0  0  0  0
   11.8653   -2.5728    8.4782 C   0  0  2  0  0  0  0  0  0  0  0  0
   12.9637   -5.6823    7.6379 N   0  0  0  0  0  0  0  0  0  0  0  0
   10.5535   -1.0900    5.7076 N   0  0  0  0  0  0  0  0  0  0  0  0
   10.9511   -0.7302    7.9968 N   0  0  0  0  0  0  0  0  0  0  0  0
   12.4361   -3.7220    8.8458 N   0  0  0  0  0  0  0  0  0  0  0  0
   11.9190   -3.7438    6.7204 N   0  0  0  0  0  0  0  0  0  0  0  0
   11.4541   -1.3767    8.9267 N   0  0  0  0  0  0  0  0  0  0  0  0
   11.5751   -2.6404    7.1734 N   0  0  1  0  0  0  0  0  0  0  0  0
  1  4  1  6  0  0  0
  1  8  1  0  0  0  0
  1  7  1  0  0  0  0
  2  5  1  6  0  0  0
  2  6  1  0  0  0  0
  2 10  1  0  0  0  0
  3  7  1  1  0  0  0
  3 10  1  0  0  0  0
  3  9  1  0  0  0  0
  6  9  1  0  0  0  0
 10  8  1  1  0  0  0
M  END
>  <CHROM.1>
11.71514892,-2.74430579,7.60777233,0.32214642,1.11615041,-2.09403657

>  <Name>
ligand

>  <RI>
0

>  <Rbt.Current_Directory>
/home/itssahil/PROJECTS/Mol_Feturizer/Test_systems_manuscript/rnas/2xnw

>  <Rbt.Executable>
rbdock ($Id: //depot/dev/client3/rdock/2013.1/src/exe/rbdock.cxx#4 $)

>  <Rbt.Library>
libRbt.so (2013.1, Build901 2013/11/27)

>  <Rbt.Parameter_File>
/export/apps/rDock/src/rDock_2013.1_src/data/scripts/dock_solv.prm

>  <Rbt.Receptor>
prm/pocket_docking_6.prm

>  <SCORE>
-6.72118

>  <SCORE.INTER>
-6.72118

>  <SCORE.INTER.CONST>
1

>  <SCORE.INTER.POLAR>
0

>  <SCORE.INTER.ROT>
0

>  <SCORE.INTER.SOLV>
15.7312

>  <SCORE.INTER.VDW>
-13.3245

>  <SCORE.INTER.norm>
-0.672118

>  <SCORE.INTRA>
0

>  <SCORE.INTRA.DIHEDRAL>
0

>  <SCORE.INTRA.DIHEDRAL.0>
0

>  <SCORE.INTRA.POLAR>
0

>  <SCORE.INTRA.POLAR.0>
0

>  <SCORE.INTRA.REPUL>
0

>  <SCORE.INTRA.REPUL.0>
0

>  <SCORE.INTRA.SOLV>
0

>  <SCORE.INTRA.SOLV.lig_0>
-47.9788

>  <SCORE.INTRA.VDW>
0

>  <SCORE.INTRA.VDW.0>
0

>  <SCORE.INTRA.norm>
0

>  <SCORE.RESTR>
0

>  <SCORE.RESTR.CAVITY>
0

>  <SCORE.RESTR.norm>
0

>  <SCORE.SYSTEM>
0

>  <SCORE.SYSTEM.CONST>
0

>  <SCORE.SYSTEM.DIHEDRAL>
0

>  <SCORE.SYSTEM.SOLV>
0

>  <SCORE.SYSTEM.norm>
0

>  <SCORE.heavy>
10

>  <SCORE.norm>
-0.672118

>  <RMSD>
2.979

$$$$
ligand
 OpenBabel02271912133D
libRbt.so/2013.1/901 2013/11/27
 10 11  0  0  0  0  0  0  0  0999 V2000
   12.5374   -4.4238    7.7158 C   0  0  1  0  0  0  0  0  0  0  0  0
   11.0020   -1.4864    6.8980 C   0  0  2  0  0  0  0  0  0  0  0  0
   11.8624   -2.5848    8.4793 C   0  0  2  0  0  0  0  0  0  0  0  0
   13.0848   -5.6401    7.6118 N   0  0  0  0  0  0  0  0  0  0  0  0
   10.5740   -1.0932    5.7024 N   0  0  0  0  0  0  0  0  0  0  0  0
   10.9001   -0.7643    8.0075 N   0  0  0  0  0  0  0  0  0  0  0  0
   12.4613   -3.7215    8.8408 N   0  0  0  0  0  0  0  0  0  0  0  0
   12.0004   -3.7197    6.7024 N   0  0  0  0  0  0  0  0  0  0  0  0
   11.4002   -1.4117    8.9384 N   0  0  0  0  0  0  0  0  0  0  0  0
   11.6084   -2.6370    7.1662 N   0  0  1  0  0  0  0  0  0  0  0  0
  1  4  1  6  0  0  0
  1  8  1  0  0  0  0
  1  7  1  0  0  0  0
  2  5  1  6  0  0  0
  2  6  1  0  0  0  0
  2 10  1  0  0  0  0
  3  7  1  1  0  0  0
  3 10  1  0  0  0  0
  3  9  1  0  0  0  0
  6  9  1  0  0  0  0
 10  8  1  1  0  0  0
M  END
>  <CHROM.1>
11.74053600,-2.74453612,7.60217298,0.23630201,1.09877205,-1.99857638

>  <Name>
ligand

>  <RI>
0

>  <Rbt.Current_Directory>
/home/itssahil/PROJECTS/Mol_Feturizer/Test_systems_manuscript/rnas/2xnw

>  <Rbt.Executable>
rbdock ($Id: //depot/dev/client3/rdock/2013.1/src/exe/rbdock.cxx#4 $)

>  <Rbt.Library>
libRbt.so (2013.1, Build901 2013/11/27)

>  <Rbt.Parameter_File>
/export/apps/rDock/src/rDock_2013.1_src/data/scripts/dock_solv.prm

>  <Rbt.Receptor>
prm/pocket_docking_6.prm

>  <SCORE>
-6.68786

>  <SCORE.INTER>
-6.68786

>  <SCORE.INTER.CONST>
1

>  <SCORE.INTER.POLAR>
0

>  <SCORE.INTER.ROT>
0

>  <SCORE.INTER.SOLV>
15.3181

>  <SCORE.INTER.VDW>
-13.1646

>  <SCORE.INTER.norm>
-0.668786

>  <SCORE.INTRA>
0

>  <SCORE.INTRA.DIHEDRAL>
0

>  <SCORE.INTRA.DIHEDRAL.0>
0

>  <SCORE.INTRA.POLAR>
0

>  <SCORE.INTRA.POLAR.0>
0

>  <SCORE.INTRA.REPUL>
0

>  <SCORE.INTRA.REPUL.0>
0

>  <SCORE.INTRA.SOLV>
0

>  <SCORE.INTRA.SOLV.lig_0>
-47.9788

>  <SCORE.INTRA.VDW>
0

>  <SCORE.INTRA.VDW.0>
0

>  <SCORE.INTRA.norm>
0

>  <SCORE.RESTR>
0

>  <SCORE.RESTR.CAVITY>
0

>  <SCORE.RESTR.norm>
0

>  <SCORE.SYSTEM>
0

>  <SCORE.SYSTEM.CONST>
0

>  <SCORE.SYSTEM.DIHEDRAL>
0

>  <SCORE.SYSTEM.SOLV>
0

>  <SCORE.SYSTEM.norm>
0

>  <SCORE.heavy>
10

>  <SCORE.norm>
-0.668786

>  <RMSD>
2.979

$$$$
ligand
 OpenBabel02271912133D
libRbt.so/2013.1/901 2013/11/27
 10 11  0  0  0  0  0  0  0  0999 V2000
   12.4603   -4.4474    7.7337 C   0  0  1  0  0  0  0  0  0  0  0  0
   10.9967   -1.4781    6.8997 C   0  0  2  0  0  0  0  0  0  0  0  0
   11.8646   -2.5738    8.4788 C   0  0  2  0  0  0  0  0  0  0  0  0
   12.9661   -5.6824    7.6390 N   0  0  0  0  0  0  0  0  0  0  0  0
   10.5490   -1.0939    5.7085 N   0  0  0  0  0  0  0  0  0  0  0  0
   10.9478   -0.7325    7.9972 N   0  0  0  0  0  0  0  0  0  0  0  0
   12.4370   -3.7222    8.8464 N   0  0  0  0  0  0  0  0  0  0  0  0
   11.9185   -3.7455    6.7214 N   0  0  0  0  0  0  0  0  0  0  0  0
   11.4523   -1.3781    8.9270 N   0  0  0  0  0  0  0  0  0  0  0  0
   11.5735   -2.6424    7.1742 N   0  0  1  0  0  0  0  0  0  0  0  0
  1  4  1  6  0  0  0
  1  8  1  0  0  0  0
  1  7  1  0  0  0  0
  2  5  1  6  0  0  0
  2  6  1  0  0  0  0
  2 10  1  0  0  0  0
  3  7  1  1  0  0  0
  3 10  1  0  0  0  0
  3  9  1  0  0  0  0
  6  9  1  0  0  0  0
 10  8  1  1  0  0  0
M  END
>  <CHROM.1>
11.71403493,-2.74589756,7.60851164,0.32218965,1.11475021,-2.09452789

>  <Name>
ligand

>  <RI>
0

>  <Rbt.Current_Directory>
/home/itssahil/PROJECTS/Mol_Feturizer/Test_systems_manuscript/rnas/2xnw

>  <Rbt.Executable>
rbdock ($Id: //depot/dev/client3/rdock/2013.1/src/exe/rbdock.cxx#4 $)

>  <Rbt.Library>
libRbt.so (2013.1, Build901 2013/11/27)

>  <Rbt.Parameter_File>
/export/apps/rDock/src/rDock_2013.1_src/data/scripts/dock_solv.prm

>  <Rbt.Receptor>
prm/pocket_docking_6.prm

>  <SCORE>
-6.72151

>  <SCORE.INTER>
-6.72151

>  <SCORE.INTER.CONST>
1

>  <SCORE.INTER.POLAR>
0

>  <SCORE.INTER.ROT>
0

>  <SCORE.INTER.SOLV>
15.708

>  <SCORE.INTER.VDW>
-13.317

>  <SCORE.INTER.norm>
-0.672151

>  <SCORE.INTRA>
0

>  <SCORE.INTRA.DIHEDRAL>
0

>  <SCORE.INTRA.DIHEDRAL.0>
0

>  <SCORE.INTRA.POLAR>
0

>  <SCORE.INTRA.POLAR.0>
0

>  <SCORE.INTRA.REPUL>
0

>  <SCORE.INTRA.REPUL.0>
0

>  <SCORE.INTRA.SOLV>
0

>  <SCORE.INTRA.SOLV.lig_0>
-47.9788

>  <SCORE.INTRA.VDW>
0

>  <SCORE.INTRA.VDW.0>
0

>  <SCORE.INTRA.norm>
0

>  <SCORE.RESTR>
0

>  <SCORE.RESTR.CAVITY>
0

>  <SCORE.RESTR.norm>
0

>  <SCORE.SYSTEM>
0

>  <SCORE.SYSTEM.CONST>
0

>  <SCORE.SYSTEM.DIHEDRAL>
0

>  <SCORE.SYSTEM.SOLV>
0

>  <SCORE.SYSTEM.norm>
0

>  <SCORE.heavy>
10

>  <SCORE.norm>
-0.672151

>  <RMSD>
2.979

$$$$
ligand
 OpenBabel02271912133D
libRbt.so/2013.1/901 2013/11/27
 10 11  0  0  0  0  0  0  0  0999 V2000
   12.5849   -4.4217    7.7319 C   0  0  1  0  0  0  0  0  0  0  0  0
   10.9946   -1.5124    6.9187 C   0  0  2  0  0  0  0  0  0  0  0  0
   11.8339   -2.6173    8.5067 C   0  0  2  0  0  0  0  0  0  0  0  0
   13.1695   -5.6202    7.6234 N   0  0  0  0  0  0  0  0  0  0  0  0
   10.5947   -1.1079    5.7171 N   0  0  0  0  0  0  0  0  0  0  0  0
   10.8365   -0.8152    8.0374 N   0  0  0  0  0  0  0  0  0  0  0  0
   12.4526   -3.7438    8.8666 N   0  0  0  0  0  0  0  0  0  0  0  0
   12.0613   -3.7130    6.7146 N   0  0  0  0  0  0  0  0  0  0  0  0
   11.3241   -1.4665    8.9721 N   0  0  0  0  0  0  0  0  0  0  0  0
   11.6241   -2.6509    7.1853 N   0  0  1  0  0  0  0  0  0  0  0  0
  1  4  1  6  0  0  0
  1  8  1  0  0  0  0
  1  7  1  0  0  0  0
  2  5  1  6  0  0  0
  2  6  1  0  0  0  0
  2 10  1  0  0  0  0
  3  7  1  1  0  0  0
  3 10  1  0  0  0  0
  3  9  1  0  0  0  0
  6  9  1  0  0  0  0
 10  8  1  1  0  0  0
M  END
>  <CHROM.1>
11.74507299,-2.76314902,7.62329622,0.14794316,1.08493168,-1.90110322

>  <Name>
ligand

>  <RI>
0

>  <Rbt.Current_Directory>
/home/itssahil/PROJECTS/Mol_Feturizer/Test_systems_manuscript/rnas/2xnw

>  <Rbt.Executable>
rbdock ($Id: //depot/dev/client3/rdock/2013.1/src/exe/rbdock.cxx#4 $)

>  <Rbt.Library>
libRbt.so (2013.1, Build901 2013/11/27)

>  <Rbt.Parameter_File>
/export/apps/rDock/src/rDock_2013.1_src/data/scripts/dock_solv.prm

>  <Rbt.Receptor>
prm/blind_docking_40.prm

>  <SCORE>
-6.65648

>  <SCORE.INTER>
-6.65648

>  <SCORE.INTER.CONST>
1

>  <SCORE.INTER.POLAR>
0

>  <SCORE.INTER.ROT>
0

>  <SCORE.INTER.SOLV>
14.996

>  <SCORE.INTER.VDW>
-13.0363

>  <SCORE.INTER.norm>
-0.665648

>  <SCORE.INTRA>
0

>  <SCORE.INTRA.DIHEDRAL>
0

>  <SCORE.INTRA.DIHEDRAL.0>
0

>  <SCORE.INTRA.POLAR>
0

>  <SCORE.INTRA.POLAR.0>
0

>  <SCORE.INTRA.REPUL>
0

>  <SCORE.INTRA.REPUL.0>
0

>  <SCORE.INTRA.SOLV>
0

>  <SCORE.INTRA.SOLV.lig_0>
-47.9788

>  <SCORE.INTRA.VDW>
0

>  <SCORE.INTRA.VDW.0>
0

>  <SCORE.INTRA.norm>
0

>  <SCORE.RESTR>
0

>  <SCORE.RESTR.CAVITY>
0

>  <SCORE.RESTR.norm>
0

>  <SCORE.SYSTEM>
0

>  <SCORE.SYSTEM.CONST>
0

>  <SCORE.SYSTEM.DIHEDRAL>
0

>  <SCORE.SYSTEM.SOLV>
0

>  <SCORE.SYSTEM.norm>
0

>  <SCORE.heavy>
10

>  <SCORE.norm>
-0.665648

>  <RMSD>
2.980

$$$$
ligand
 OpenBabel02271912133D
libRbt.so/2013.1/901 2013/11/27
 10 11  0  0  0  0  0  0  0  0999 V2000
   12.4541   -4.4386    7.7212 C   0  0  1  0  0  0  0  0  0  0  0  0
   10.9820   -1.4698    6.9005 C   0  0  2  0  0  0  0  0  0  0  0  0
   11.8523   -2.5704    8.4748 C   0  0  2  0  0  0  0  0  0  0  0  0
   12.9636   -5.6716    7.6209 N   0  0  0  0  0  0  0  0  0  0  0  0
   10.5338   -1.0812    5.7108 N   0  0  0  0  0  0  0  0  0  0  0  0
   10.9303   -0.7296    8.0015 N   0  0  0  0  0  0  0  0  0  0  0  0
   12.4279   -3.7187    8.8373 N   0  0  0  0  0  0  0  0  0  0  0  0
   11.9107   -3.7335    6.7119 N   0  0  0  0  0  0  0  0  0  0  0  0
   11.4362   -1.3780    8.9285 N   0  0  0  0  0  0  0  0  0  0  0  0
   11.5622   -2.6336    7.1697 N   0  0  1  0  0  0  0  0  0  0  0  0
  1  4  1  6  0  0  0
  1  8  1  0  0  0  0
  1  7  1  0  0  0  0
  2  5  1  6  0  0  0
  2  6  1  0  0  0  0
  2 10  1  0  0  0  0
  3  7  1  1  0  0  0
  3 10  1  0  0  0  0
  3  9  1  0  0  0  0
  6  9  1  0  0  0  0
 10  8  1  1  0  0  0
M  END
>  <CHROM.1>
11.70273923,-2.73876231,7.60362392,0.31770517,1.11242727,-2.08573065

>  <Name>
ligand

>  <RI>
0

>  <Rbt.Current_Directory>
/home/itssahil/PROJECTS/Mol_Feturizer/Test_systems_manuscript/rnas/2xnw

>  <Rbt.Executable>
rbdock ($Id: //depot/dev/client3/rdock/2013.1/src/exe/rbdock.cxx#4 $)

>  <Rbt.Library>
libRbt.so (2013.1, Build901 2013/11/27)

>  <Rbt.Parameter_File>
/export/apps/rDock/src/rDock_2013.1_src/data/scripts/dock_solv.prm

>  <Rbt.Receptor>
prm/blind_docking_60.prm

>  <SCORE>
-6.72174

>  <SCORE.INTER>
-6.72174

>  <SCORE.INTER.CONST>
1

>  <SCORE.INTER.POLAR>
0

>  <SCORE.INTER.ROT>
0

>  <SCORE.INTER.SOLV>
15.7064

>  <SCORE.INTER.VDW>
-13.3166

>  <SCORE.INTER.norm>
-0.672174

>  <SCORE.INTRA>
0

>  <SCORE.INTRA.DIHEDRAL>
0

>  <SCORE.INTRA.DIHEDRAL.0>
0

>  <SCORE.INTRA.POLAR>
0

>  <SCORE.INTRA.POLAR.0>
0

>  <SCORE.INTRA.REPUL>
0

>  <SCORE.INTRA.REPUL.0>
0

>  <SCORE.INTRA.SOLV>
0

>  <SCORE.INTRA.SOLV.lig_0>
-47.9788

>  <SCORE.INTRA.VDW>
0

>  <SCORE.INTRA.VDW.0>
0

>  <SCORE.INTRA.norm>
0

>  <SCORE.RESTR>
0

>  <SCORE.RESTR.CAVITY>
0

>  <SCORE.RESTR.norm>
0

>  <SCORE.SYSTEM>
0

>  <SCORE.SYSTEM.CONST>
0

>  <SCORE.SYSTEM.DIHEDRAL>
0

>  <SCORE.SYSTEM.SOLV>
0

>  <SCORE.SYSTEM.norm>
0

>  <SCORE.heavy>
10

>  <SCORE.norm>
-0.672174

>  <RMSD>
2.980

$$$$
ligand
 OpenBabel02271912133D
libRbt.so/2013.1/901 2013/11/27
 10 11  0  0  0  0  0  0  0  0999 V2000
   12.4774   -4.4408    7.7498 C   0  0  1  0  0  0  0  0  0  0  0  0
   11.0155   -1.4601    6.9542 C   0  0  2  0  0  0  0  0  0  0  0  0
   11.8651   -2.5842    8.5233 C   0  0  2  0  0  0  0  0  0  0  0  0
   12.9886   -5.6721    7.6378 N   0  0  0  0  0  0  0  0  0  0  0  0
   10.5832   -1.0537    5.7646 N   0  0  0  0  0  0  0  0  0  0  0  0
   10.9489   -0.7365    8.0654 N   0  0  0  0  0  0  0  0  0  0  0  0
   12.4361   -3.7378    8.8762 N   0  0  0  0  0  0  0  0  0  0  0  0
   11.9473   -3.7207    6.7441 N   0  0  0  0  0  0  0  0  0  0  0  0
   11.4425   -1.3988    8.9892 N   0  0  0  0  0  0  0  0  0  0  0  0
   11.5924   -2.6278    7.2136 N   0  0  1  0  0  0  0  0  0  0  0  0
  1  4  1  6  0  0  0
  1  8  1  0  0  0  0
  1  7  1  0  0  0  0
  2  5  1  6  0  0  0
  2  6  1  0  0  0  0
  2 10  1  0  0  0  0
  3  7  1  1  0  0  0
  3 10  1  0  0  0  0
  3  9  1  0  0  0  0
  6  9  1  0  0  0  0
 10  8  1  1  0  0  0
M  END
>  <CHROM.1>
11.72717987,-2.73944613,7.64776476,0.29076599,1.11861563,-2.04651479

>  <Name>
ligand

>  <RI>
0

>  <Rbt.Current_Directory>
/home/itssahil/PROJECTS/Mol_Feturizer/Test_systems_manuscript/rnas/2xnw

>  <Rbt.Executable>
rbdock ($Id: //depot/dev/client3/rdock/2013.1/src/exe/rbdock.cxx#4 $)

>  <Rbt.Library>
libRbt.so (2013.1, Build901 2013/11/27)

>  <Rbt.Parameter_File>
/export/apps/rDock/src/rDock_2013.1_src/data/scripts/dock_solv.prm

>  <Rbt.Receptor>
prm/pocket_docking_4.prm

>  <SCORE>
-6.67288

>  <SCORE.INTER>
-6.67288

>  <SCORE.INTER.CONST>
1

>  <SCORE.INTER.POLAR>
0

>  <SCORE.INTER.ROT>
0

>  <SCORE.INTER.SOLV>
15.7176

>  <SCORE.INTER.VDW>
-13.2878

>  <SCORE.INTER.norm>
-0.667288

>  <SCORE.INTRA>
0

>  <SCORE.INTRA.DIHEDRAL>
0

>  <SCORE.INTRA.DIHEDRAL.0>
0

>  <SCORE.INTRA.POLAR>
0

>  <SCORE.INTRA.POLAR.0>
0

>  <SCORE.INTRA.REPUL>
0

>  <SCORE.INTRA.REPUL.0>
0

>  <SCORE.INTRA.SOLV>
0

>  <SCORE.INTRA.SOLV.lig_0>
-47.9788

>  <SCORE.INTRA.VDW>
0

>  <SCORE.INTRA.VDW.0>
0

>  <SCORE.INTRA.norm>
0

>  <SCORE.RESTR>
0

>  <SCORE.RESTR.CAVITY>
0

>  <SCORE.RESTR.norm>
0

>  <SCORE.SYSTEM>
0

>  <SCORE.SYSTEM.CONST>
0

>  <SCORE.SYSTEM.DIHEDRAL>
0

>  <SCORE.SYSTEM.SOLV>
0

>  <SCORE.SYSTEM.norm>
0

>  <SCORE.heavy>
10

>  <SCORE.norm>
-0.667288

>  <RMSD>
2.980

$$$$
ligand
 OpenBabel02271912133D
libRbt.so/2013.1/901 2013/11/27
 10 11  0  0  0  0  0  0  0  0999 V2000
   12.5331   -4.4302    7.7188 C   0  0  1  0  0  0  0  0  0  0  0  0
   11.0029   -1.4919    6.8948 C   0  0  2  0  0  0  0  0  0  0  0  0
   11.8642   -2.5871    8.4777 C   0  0  2  0  0  0  0  0  0  0  0  0
   13.0774   -5.6482    7.6176 N   0  0  0  0  0  0  0  0  0  0  0  0
   10.5732   -1.1016    5.6989 N   0  0  0  0  0  0  0  0  0  0  0  0
   10.9053   -0.7659    8.0021 N   0  0  0  0  0  0  0  0  0  0  0  0
   12.4613   -3.7241    8.8417 N   0  0  0  0  0  0  0  0  0  0  0  0
   11.9955   -3.7282    6.7044 N   0  0  0  0  0  0  0  0  0  0  0  0
   11.4059   -1.4113    8.9340 N   0  0  0  0  0  0  0  0  0  0  0  0
   11.6071   -2.6431    7.1654 N   0  0  1  0  0  0  0  0  0  0  0  0
  1  4  1  6  0  0  0
  1  8  1  0  0  0  0
  1  7  1  0  0  0  0
  2  5  1  6  0  0  0
  2  6  1  0  0  0  0
  2 10  1  0  0  0  0
  3  7  1  1  0  0  0
  3 10  1  0  0  0  0
  3  9  1  0  0  0  0
  6  9  1  0  0  0  0
 10  8  1  1  0  0  0
M  END
>  <CHROM.1>
11.74002168,-2.74945052,7.60144893,0.24304624,1.10000412,-2.00790266

>  <Name>
ligand

>  <RI>
0

>  <Rbt.Current_Directory>
/home/itssahil/PROJECTS/Mol_Feturizer/Test_systems_manuscript/rnas/2xnw

>  <Rbt.Executable>
rbdock ($Id: //depot/dev/client3/rdock/2013.1/src/exe/rbdock.cxx#4 $)

>  <Rbt.Library>
libRbt.so (2013.1, Build901 2013/11/27)

>  <Rbt.Parameter_File>
/export/apps/rDock/src/rDock_2013.1_src/data/scripts/dock_solv.prm

>  <Rbt.Receptor>
prm/pocket_docking_5.prm

>  <SCORE>
-6.68592

>  <SCORE.INTER>
-6.68592

>  <SCORE.INTER.CONST>
1

>  <SCORE.INTER.POLAR>
0

>  <SCORE.INTER.ROT>
0

>  <SCORE.INTER.SOLV>
15.33

>  <SCORE.INTER.VDW>
-13.1673

>  <SCORE.INTER.norm>
-0.668592

>  <SCORE.INTRA>
0

>  <SCORE.INTRA.DIHEDRAL>
0

>  <SCORE.INTRA.DIHEDRAL.0>
0

>  <SCORE.INTRA.POLAR>
0

>  <SCORE.INTRA.POLAR.0>
0

>  <SCORE.INTRA.REPUL>
0

>  <SCORE.INTRA.REPUL.0>
0

>  <SCORE.INTRA.SOLV>
0

>  <SCORE.INTRA.SOLV.lig_0>
-47.9788

>  <SCORE.INTRA.VDW>
0

>  <SCORE.INTRA.VDW.0>
0

>  <SCORE.INTRA.norm>
0

>  <SCORE.RESTR>
0

>  <SCORE.RESTR.CAVITY>
0

>  <SCORE.RESTR.norm>
0

>  <SCORE.SYSTEM>
0

>  <SCORE.SYSTEM.CONST>
0

>  <SCORE.SYSTEM.DIHEDRAL>
0

>  <SCORE.SYSTEM.SOLV>
0

>  <SCORE.SYSTEM.norm>
0

>  <SCORE.heavy>
10

>  <SCORE.norm>
-0.668592

>  <RMSD>
2.980

$$$$
ligand
 OpenBabel02271912133D
libRbt.so/2013.1/901 2013/11/27
 10 11  0  0  0  0  0  0  0  0999 V2000
   12.4999   -4.4298    7.7124 C   0  0  1  0  0  0  0  0  0  0  0  0
   10.9941   -1.4741    6.9055 C   0  0  2  0  0  0  0  0  0  0  0  0
   11.8730   -2.5738    8.4757 C   0  0  2  0  0  0  0  0  0  0  0  0
   13.0248   -5.6558    7.6060 N   0  0  0  0  0  0  0  0  0  0  0  0
   10.5450   -1.0836    5.7168 N   0  0  0  0  0  0  0  0  0  0  0  0
   10.9299   -0.7415    8.0109 N   0  0  0  0  0  0  0  0  0  0  0  0
   12.4615   -3.7173    8.8329 N   0  0  0  0  0  0  0  0  0  0  0  0
   11.9511   -3.7251    6.7058 N   0  0  0  0  0  0  0  0  0  0  0  0
   11.4408   -1.3895    8.9355 N   0  0  0  0  0  0  0  0  0  0  0  0
   11.5877   -2.6324    7.1693 N   0  0  1  0  0  0  0  0  0  0  0  0
  1  4  1  6  0  0  0
  1  8  1  0  0  0  0
  1  7  1  0  0  0  0
  2  5  1  6  0  0  0
  2  6  1  0  0  0  0
  2 10  1  0  0  0  0
  3  7  1  1  0  0  0
  3 10  1  0  0  0  0
  3  9  1  0  0  0  0
  6  9  1  0  0  0  0
 10  8  1  1  0  0  0
M  END
>  <CHROM.1>
11.72817338,-2.73854946,7.60301433,0.29829834,1.10322215,-2.06212613

>  <Name>
ligand

>  <RI>
0

>  <Rbt.Current_Directory>
/home/itssahil/PROJECTS/Mol_Feturizer/Test_systems_manuscript/rnas/2xnw

>  <Rbt.Executable>
rbdock ($Id: //depot/dev/client3/rdock/2013.1/src/exe/rbdock.cxx#4 $)

>  <Rbt.Library>
libRbt.so (2013.1, Build901 2013/11/27)

>  <Rbt.Parameter_File>
/export/apps/rDock/src/rDock_2013.1_src/data/scripts/dock_solv.prm

>  <Rbt.Receptor>
prm/blind_docking_100.prm

>  <SCORE>
-6.71164

>  <SCORE.INTER>
-6.71164

>  <SCORE.INTER.CONST>
1

>  <SCORE.INTER.POLAR>
0

>  <SCORE.INTER.ROT>
0

>  <SCORE.INTER.SOLV>
15.4819

>  <SCORE.INTER.VDW>
-13.2351

>  <SCORE.INTER.norm>
-0.671164

>  <SCORE.INTRA>
0

>  <SCORE.INTRA.DIHEDRAL>
0

>  <SCORE.INTRA.DIHEDRAL.0>
0

>  <SCORE.INTRA.POLAR>
0

>  <SCORE.INTRA.POLAR.0>
0

>  <SCORE.INTRA.REPUL>
0

>  <SCORE.INTRA.REPUL.0>
0

>  <SCORE.INTRA.SOLV>
0

>  <SCORE.INTRA.SOLV.lig_0>
-47.9788

>  <SCORE.INTRA.VDW>
0

>  <SCORE.INTRA.VDW.0>
0

>  <SCORE.INTRA.norm>
0

>  <SCORE.RESTR>
0

>  <SCORE.RESTR.CAVITY>
0

>  <SCORE.RESTR.norm>
0

>  <SCORE.SYSTEM>
0

>  <SCORE.SYSTEM.CONST>
0

>  <SCORE.SYSTEM.DIHEDRAL>
0

>  <SCORE.SYSTEM.SOLV>
0

>  <SCORE.SYSTEM.norm>
0

>  <SCORE.heavy>
10

>  <SCORE.norm>
-0.671164

>  <RMSD>
2.981

$$$$
ligand
 OpenBabel02271912133D
libRbt.so/2013.1/901 2013/11/27
 10 11  0  0  0  0  0  0  0  0999 V2000
   12.5225   -4.4270    7.7031 C   0  0  1  0  0  0  0  0  0  0  0  0
   11.0278   -1.4646    6.9003 C   0  0  2  0  0  0  0  0  0  0  0  0
   11.9427   -2.5525    8.4581 C   0  0  2  0  0  0  0  0  0  0  0  0
   13.0289   -5.6610    7.5984 N   0  0  0  0  0  0  0  0  0  0  0  0
   10.5460   -1.0857    5.7207 N   0  0  0  0  0  0  0  0  0  0  0  0
   11.0076   -0.7154    7.9962 N   0  0  0  0  0  0  0  0  0  0  0  0
   12.5283   -3.6980    8.8135 N   0  0  0  0  0  0  0  0  0  0  0  0
   11.9506   -3.7301    6.7040 N   0  0  0  0  0  0  0  0  0  0  0  0
   11.5397   -1.3563    8.9137 N   0  0  0  0  0  0  0  0  0  0  0  0
   11.6154   -2.6264    7.1624 N   0  0  1  0  0  0  0  0  0  0  0  0
  1  4  1  6  0  0  0
  1  8  1  0  0  0  0
  1  7  1  0  0  0  0
  2  5  1  6  0  0  0
  2  6  1  0  0  0  0
  2 10  1  0  0  0  0
  3  7  1  1  0  0  0
  3 10  1  0  0  0  0
  3  9  1  0  0  0  0
  6  9  1  0  0  0  0
 10  8  1  1  0  0  0
M  END
>  <CHROM.1>
11.76825556,-2.72799184,7.59302161,0.37233445,1.09783384,-2.14278132

>  <Name>
ligand

>  <RI>
0

>  <Rbt.Current_Directory>
/home/itssahil/PROJECTS/Mol_Feturizer/Test_systems_manuscript/rnas/2xnw

>  <Rbt.Executable>
rbdock ($Id: //depot/dev/client3/rdock/2013.1/src/exe/rbdock.cxx#4 $)

>  <Rbt.Library>
libRbt.so (2013.1, Build901 2013/11/27)

>  <Rbt.Parameter_File>
/export/apps/rDock/src/rDock_2013.1_src/data/scripts/dock_solv.prm

>  <Rbt.Receptor>
prm/blind_docking_20.prm

>  <SCORE>
-6.65833

>  <SCORE.INTER>
-6.65833

>  <SCORE.INTER.CONST>
1

>  <SCORE.INTER.POLAR>
0

>  <SCORE.INTER.ROT>
0

>  <SCORE.INTER.SOLV>
15.4186

>  <SCORE.INTER.VDW>
-13.1784

>  <SCORE.INTER.norm>
-0.665833

>  <SCORE.INTRA>
0

>  <SCORE.INTRA.DIHEDRAL>
0

>  <SCORE.INTRA.DIHEDRAL.0>
0

>  <SCORE.INTRA.POLAR>
0

>  <SCORE.INTRA.POLAR.0>
0

>  <SCORE.INTRA.REPUL>
0

>  <SCORE.INTRA.REPUL.0>
0

>  <SCORE.INTRA.SOLV>
0

>  <SCORE.INTRA.SOLV.lig_0>
-47.9788

>  <SCORE.INTRA.VDW>
0

>  <SCORE.INTRA.VDW.0>
0

>  <SCORE.INTRA.norm>
0

>  <SCORE.RESTR>
0

>  <SCORE.RESTR.CAVITY>
0

>  <SCORE.RESTR.norm>
0

>  <SCORE.SYSTEM>
0

>  <SCORE.SYSTEM.CONST>
0

>  <SCORE.SYSTEM.DIHEDRAL>
0

>  <SCORE.SYSTEM.SOLV>
0

>  <SCORE.SYSTEM.norm>
0

>  <SCORE.heavy>
10

>  <SCORE.norm>
-0.665833

>  <RMSD>
2.981

$$$$
ligand
 OpenBabel02271912133D
libRbt.so/2013.1/901 2013/11/27
 10 11  0  0  0  0  0  0  0  0999 V2000
   12.4929   -4.4391    7.7228 C   0  0  1  0  0  0  0  0  0  0  0  0
   11.0058   -1.4776    6.9028 C   0  0  2  0  0  0  0  0  0  0  0  0
   11.8662   -2.5809    8.4807 C   0  0  2  0  0  0  0  0  0  0  0  0
   13.0140   -5.6672    7.6210 N   0  0  0  0  0  0  0  0  0  0  0  0
   10.5689   -1.0851    5.7102 N   0  0  0  0  0  0  0  0  0  0  0  0
   10.9344   -0.7449    8.0077 N   0  0  0  0  0  0  0  0  0  0  0  0
   12.4470   -3.7267    8.8430 N   0  0  0  0  0  0  0  0  0  0  0  0
   11.9558   -3.7322    6.7114 N   0  0  0  0  0  0  0  0  0  0  0  0
   11.4345   -1.3949    8.9367 N   0  0  0  0  0  0  0  0  0  0  0  0
   11.5925   -2.6382    7.1718 N   0  0  1  0  0  0  0  0  0  0  0  0
  1  4  1  6  0  0  0
  1  8  1  0  0  0  0
  1  7  1  0  0  0  0
  2  5  1  6  0  0  0
  2  6  1  0  0  0  0
  2 10  1  0  0  0  0
  3  7  1  1  0  0  0
  3 10  1  0  0  0  0
  3  9  1  0  0  0  0
  6  9  1  0  0  0  0
 10  8  1  1  0  0  0
M  END
>  <CHROM.1>
11.72866032,-2.74493396,7.60671061,0.28444835,1.11084872,-2.04959122

>  <Name>
ligand

>  <RI>
0

>  <Rbt.Current_Directory>
/home/itssahil/PROJECTS/Mol_Feturizer/Test_systems_manuscript/rnas/2xnw

>  <Rbt.Executable>
rbdock ($Id: //depot/dev/client3/rdock/2013.1/src/exe/rbdock.cxx#4 $)

>  <Rbt.Library>
libRbt.so (2013.1, Build901 2013/11/27)

>  <Rbt.Parameter_File>
/export/apps/rDock/src/rDock_2013.1_src/data/scripts/dock_solv.prm

>  <Rbt.Receptor>
prm/blind_docking_60.prm

>  <SCORE>
-6.70703

>  <SCORE.INTER>
-6.70703

>  <SCORE.INTER.CONST>
1

>  <SCORE.INTER.POLAR>
0

>  <SCORE.INTER.ROT>
0

>  <SCORE.INTER.SOLV>
15.5674

>  <SCORE.INTER.VDW>
-13.2605

>  <SCORE.INTER.norm>
-0.670703

>  <SCORE.INTRA>
0

>  <SCORE.INTRA.DIHEDRAL>
0

>  <SCORE.INTRA.DIHEDRAL.0>
0

>  <SCORE.INTRA.POLAR>
0

>  <SCORE.INTRA.POLAR.0>
0

>  <SCORE.INTRA.REPUL>
0

>  <SCORE.INTRA.REPUL.0>
0

>  <SCORE.INTRA.SOLV>
0

>  <SCORE.INTRA.SOLV.lig_0>
-47.9788

>  <SCORE.INTRA.VDW>
0

>  <SCORE.INTRA.VDW.0>
0

>  <SCORE.INTRA.norm>
0

>  <SCORE.RESTR>
0

>  <SCORE.RESTR.CAVITY>
0

>  <SCORE.RESTR.norm>
0

>  <SCORE.SYSTEM>
0

>  <SCORE.SYSTEM.CONST>
0

>  <SCORE.SYSTEM.DIHEDRAL>
0

>  <SCORE.SYSTEM.SOLV>
0

>  <SCORE.SYSTEM.norm>
0

>  <SCORE.heavy>
10

>  <SCORE.norm>
-0.670703

>  <RMSD>
2.981

$$$$
ligand
 OpenBabel02271912133D
libRbt.so/2013.1/901 2013/11/27
 10 11  0  0  0  0  0  0  0  0999 V2000
   12.5077   -4.4015    7.6810 C   0  0  1  0  0  0  0  0  0  0  0  0
   10.9676   -1.4589    6.8915 C   0  0  2  0  0  0  0  0  0  0  0  0
   11.8338   -2.5692    8.4612 C   0  0  2  0  0  0  0  0  0  0  0  0
   13.0557   -5.6166    7.5656 N   0  0  0  0  0  0  0  0  0  0  0  0
   10.5355   -1.0565    5.7004 N   0  0  0  0  0  0  0  0  0  0  0  0
   10.8687   -0.7457    8.0070 N   0  0  0  0  0  0  0  0  0  0  0  0
   12.4347   -3.7083    8.8118 N   0  0  0  0  0  0  0  0  0  0  0  0
   11.9670   -3.6898    6.6750 N   0  0  0  0  0  0  0  0  0  0  0  0
   11.3723   -1.4001    8.9312 N   0  0  0  0  0  0  0  0  0  0  0  0
   11.5756   -2.6112    7.1486 N   0  0  1  0  0  0  0  0  0  0  0  0
  1  4  1  6  0  0  0
  1  8  1  0  0  0  0
  1  7  1  0  0  0  0
  2  5  1  6  0  0  0
  2  6  1  0  0  0  0
  2 10  1  0  0  0  0
  3  7  1  1  0  0  0
  3 10  1  0  0  0  0
  3  9  1  0  0  0  0
  6  9  1  0  0  0  0
 10  8  1  1  0  0  0
M  END
>  <CHROM.1>
11.70928698,-2.72203000,7.58328745,0.24199005,1.09678059,-1.99568698

>  <Name>
ligand

>  <RI>
0

>  <Rbt.Current_Directory>
/home/itssahil/PROJECTS/Mol_Feturizer/Test_systems_manuscript/rnas/2xnw

>  <Rbt.Executable>
rbdock ($Id: //depot/dev/client3/rdock/2013.1/src/exe/rbdock.cxx#4 $)

>  <Rbt.Library>
libRbt.so (2013.1, Build901 2013/11/27)

>  <Rbt.Parameter_File>
/export/apps/rDock/src/rDock_2013.1_src/data/scripts/dock_solv.prm

>  <Rbt.Receptor>
prm/blind_docking_80.prm

>  <SCORE>
-6.66089

>  <SCORE.INTER>
-6.66089

>  <SCORE.INTER.CONST>
1

>  <SCORE.INTER.POLAR>
0

>  <SCORE.INTER.ROT>
0

>  <SCORE.INTER.SOLV>
15.4592

>  <SCORE.INTER.VDW>
-13.1936

>  <SCORE.INTER.norm>
-0.666089

>  <SCORE.INTRA>
0

>  <SCORE.INTRA.DIHEDRAL>
0

>  <SCORE.INTRA.DIHEDRAL.0>
0

>  <SCORE.INTRA.POLAR>
0

>  <SCORE.INTRA.POLAR.0>
0

>  <SCORE.INTRA.REPUL>
0

>  <SCORE.INTRA.REPUL.0>
0

>  <SCORE.INTRA.SOLV>
0

>  <SCORE.INTRA.SOLV.lig_0>
-47.9788

>  <SCORE.INTRA.VDW>
0

>  <SCORE.INTRA.VDW.0>
0

>  <SCORE.INTRA.norm>
0

>  <SCORE.RESTR>
0

>  <SCORE.RESTR.CAVITY>
0

>  <SCORE.RESTR.norm>
0

>  <SCORE.SYSTEM>
0

>  <SCORE.SYSTEM.CONST>
0

>  <SCORE.SYSTEM.DIHEDRAL>
0

>  <SCORE.SYSTEM.SOLV>
0

>  <SCORE.SYSTEM.norm>
0

>  <SCORE.heavy>
10

>  <SCORE.norm>
-0.666089

>  <RMSD>
2.981

$$$$
ligand
 OpenBabel02271912133D
libRbt.so/2013.1/901 2013/11/27
 10 11  0  0  0  0  0  0  0  0999 V2000
   12.4964   -4.4352    7.7191 C   0  0  1  0  0  0  0  0  0  0  0  0
   11.0000   -1.4764    6.9062 C   0  0  2  0  0  0  0  0  0  0  0  0
   11.8771   -2.5749    8.4782 C   0  0  2  0  0  0  0  0  0  0  0  0
   13.0168   -5.6634    7.6154 N   0  0  0  0  0  0  0  0  0  0  0  0
   10.5505   -1.0876    5.7170 N   0  0  0  0  0  0  0  0  0  0  0  0
   10.9399   -0.7406    8.0096 N   0  0  0  0  0  0  0  0  0  0  0  0
   12.4620   -3.7195    8.8377 N   0  0  0  0  0  0  0  0  0  0  0  0
   11.9486   -3.7313    6.7114 N   0  0  0  0  0  0  0  0  0  0  0  0
   11.4498   -1.3878    8.9353 N   0  0  0  0  0  0  0  0  0  0  0  0
   11.5898   -2.6361    7.1724 N   0  0  1  0  0  0  0  0  0  0  0  0
  1  4  1  6  0  0  0
  1  8  1  0  0  0  0
  1  7  1  0  0  0  0
  2  5  1  6  0  0  0
  2  6  1  0  0  0  0
  2 10  1  0  0  0  0
  3  7  1  1  0  0  0
  3 10  1  0  0  0  0
  3  9  1  0  0  0  0
  6  9  1  0  0  0  0
 10  8  1  1  0  0  0
M  END
>  <CHROM.1>
11.73049808,-2.74154417,7.60615469,0.30475734,1.10567778,-2.07065911

>  <Name>
ligand

>  <RI>
0

>  <Rbt.Current_Directory>
/home/itssahil/PROJECTS/Mol_Feturizer/Test_systems_manuscript/rnas/2xnw

>  <Rbt.Executable>
rbdock ($Id: //depot/dev/client3/rdock/2013.1/src/exe/rbdock.cxx#4 $)

>  <Rbt.Library>
libRbt.so (2013.1, Build901 2013/11/27)

>  <Rbt.Parameter_File>
/export/apps/rDock/src/rDock_2013.1_src/data/scripts/dock_solv.prm

>  <Rbt.Receptor>
prm/pocket_docking_4.prm

>  <SCORE>
-6.71236

>  <SCORE.INTER>
-6.71236

>  <SCORE.INTER.CONST>
1

>  <SCORE.INTER.POLAR>
0

>  <SCORE.INTER.ROT>
0

>  <SCORE.INTER.SOLV>
15.5075

>  <SCORE.INTER.VDW>
-13.2441

>  <SCORE.INTER.norm>
-0.671236

>  <SCORE.INTRA>
0

>  <SCORE.INTRA.DIHEDRAL>
0

>  <SCORE.INTRA.DIHEDRAL.0>
0

>  <SCORE.INTRA.POLAR>
0

>  <SCORE.INTRA.POLAR.0>
0

>  <SCORE.INTRA.REPUL>
0

>  <SCORE.INTRA.REPUL.0>
0

>  <SCORE.INTRA.SOLV>
0

>  <SCORE.INTRA.SOLV.lig_0>
-47.9788

>  <SCORE.INTRA.VDW>
0

>  <SCORE.INTRA.VDW.0>
0

>  <SCORE.INTRA.norm>
0

>  <SCORE.RESTR>
0

>  <SCORE.RESTR.CAVITY>
0

>  <SCORE.RESTR.norm>
0

>  <SCORE.SYSTEM>
0

>  <SCORE.SYSTEM.CONST>
0

>  <SCORE.SYSTEM.DIHEDRAL>
0

>  <SCORE.SYSTEM.SOLV>
0

>  <SCORE.SYSTEM.norm>
0

>  <SCORE.heavy>
10

>  <SCORE.norm>
-0.671236

>  <RMSD>
2.981

$$$$
ligand
 OpenBabel02271912133D
libRbt.so/2013.1/901 2013/11/27
 10 11  0  0  0  0  0  0  0  0999 V2000
   12.4986   -4.4310    7.7144 C   0  0  1  0  0  0  0  0  0  0  0  0
   10.9937   -1.4748    6.9077 C   0  0  2  0  0  0  0  0  0  0  0  0
   11.8726   -2.5747    8.4777 C   0  0  2  0  0  0  0  0  0  0  0  0
   13.0230   -5.6573    7.6080 N   0  0  0  0  0  0  0  0  0  0  0  0
   10.5444   -1.0842    5.7191 N   0  0  0  0  0  0  0  0  0  0  0  0
   10.9301   -0.7421    8.0130 N   0  0  0  0  0  0  0  0  0  0  0  0
   12.4607   -3.7184    8.8348 N   0  0  0  0  0  0  0  0  0  0  0  0
   11.9497   -3.7262    6.7079 N   0  0  0  0  0  0  0  0  0  0  0  0
   11.4410   -1.3902    8.9375 N   0  0  0  0  0  0  0  0  0  0  0  0
   11.5869   -2.6333    7.1714 N   0  0  1  0  0  0  0  0  0  0  0  0
  1  4  1  6  0  0  0
  1  8  1  0  0  0  0
  1  7  1  0  0  0  0
  2  5  1  6  0  0  0
  2  6  1  0  0  0  0
  2 10  1  0  0  0  0
  3  7  1  1  0  0  0
  3 10  1  0  0  0  0
  3  9  1  0  0  0  0
  6  9  1  0  0  0  0
 10  8  1  1  0  0  0
M  END
>  <CHROM.1>
11.72747590,-2.73948931,7.60508436,0.29926476,1.10343664,-2.06306931

>  <Name>
ligand

>  <RI>
0

>  <Rbt.Current_Directory>
/home/itssahil/PROJECTS/Mol_Feturizer/Test_systems_manuscript/rnas/2xnw

>  <Rbt.Executable>
rbdock ($Id: //depot/dev/client3/rdock/2013.1/src/exe/rbdock.cxx#4 $)

>  <Rbt.Library>
libRbt.so (2013.1, Build901 2013/11/27)

>  <Rbt.Parameter_File>
/export/apps/rDock/src/rDock_2013.1_src/data/scripts/dock_solv.prm

>  <Rbt.Receptor>
prm/pocket_docking_5.prm

>  <SCORE>
-6.7119

>  <SCORE.INTER>
-6.7119

>  <SCORE.INTER.CONST>
1

>  <SCORE.INTER.POLAR>
0

>  <SCORE.INTER.ROT>
0

>  <SCORE.INTER.SOLV>
15.4839

>  <SCORE.INTER.VDW>
-13.2359

>  <SCORE.INTER.norm>
-0.67119

>  <SCORE.INTRA>
0

>  <SCORE.INTRA.DIHEDRAL>
0

>  <SCORE.INTRA.DIHEDRAL.0>
0

>  <SCORE.INTRA.POLAR>
0

>  <SCORE.INTRA.POLAR.0>
0

>  <SCORE.INTRA.REPUL>
0

>  <SCORE.INTRA.REPUL.0>
0

>  <SCORE.INTRA.SOLV>
0

>  <SCORE.INTRA.SOLV.lig_0>
-47.9788

>  <SCORE.INTRA.VDW>
0

>  <SCORE.INTRA.VDW.0>
0

>  <SCORE.INTRA.norm>
0

>  <SCORE.RESTR>
0

>  <SCORE.RESTR.CAVITY>
0

>  <SCORE.RESTR.norm>
0

>  <SCORE.SYSTEM>
0

>  <SCORE.SYSTEM.CONST>
0

>  <SCORE.SYSTEM.DIHEDRAL>
0

>  <SCORE.SYSTEM.SOLV>
0

>  <SCORE.SYSTEM.norm>
0

>  <SCORE.heavy>
10

>  <SCORE.norm>
-0.67119

>  <RMSD>
2.981

$$$$
ligand
 OpenBabel02271912133D
libRbt.so/2013.1/901 2013/11/27
 10 11  0  0  0  0  0  0  0  0999 V2000
   12.5015   -4.4266    7.7116 C   0  0  1  0  0  0  0  0  0  0  0  0
   10.9993   -1.4680    6.9088 C   0  0  2  0  0  0  0  0  0  0  0  0
   11.8701   -2.5739    8.4791 C   0  0  2  0  0  0  0  0  0  0  0  0
   13.0272   -5.6521    7.6031 N   0  0  0  0  0  0  0  0  0  0  0  0
   10.5563   -1.0728    5.7193 N   0  0  0  0  0  0  0  0  0  0  0  0
   10.9291   -0.7399    8.0168 N   0  0  0  0  0  0  0  0  0  0  0  0
   12.4569   -3.7187    8.8348 N   0  0  0  0  0  0  0  0  0  0  0  0
   11.9578   -3.7180    6.7050 N   0  0  0  0  0  0  0  0  0  0  0  0
   11.4352   -1.3915    8.9414 N   0  0  0  0  0  0  0  0  0  0  0  0
   11.5917   -2.6273    7.1710 N   0  0  1  0  0  0  0  0  0  0  0  0
  1  4  1  6  0  0  0
  1  8  1  0  0  0  0
  1  7  1  0  0  0  0
  2  5  1  6  0  0  0
  2  6  1  0  0  0  0
  2 10  1  0  0  0  0
  3  7  1  1  0  0  0
  3 10  1  0  0  0  0
  3  9  1  0  0  0  0
  6  9  1  0  0  0  0
 10  8  1  1  0  0  0
M  END
>  <CHROM.1>
11.72992180,-2.73513711,7.60502579,0.28768784,1.10549381,-2.04859593

>  <Name>
ligand

>  <RI>
0

>  <Rbt.Current_Directory>
/home/itssahil/PROJECTS/Mol_Feturizer/Test_systems_manuscript/rnas/2xnw

>  <Rbt.Executable>
rbdock ($Id: //depot/dev/client3/rdock/2013.1/src/exe/rbdock.cxx#4 $)

>  <Rbt.Library>
libRbt.so (2013.1, Build901 2013/11/27)

>  <Rbt.Parameter_File>
/export/apps/rDock/src/rDock_2013.1_src/data/scripts/dock_solv.prm

>  <Rbt.Receptor>
prm/pocket_docking_6.prm

>  <SCORE>
-6.70876

>  <SCORE.INTER>
-6.70876

>  <SCORE.INTER.CONST>
1

>  <SCORE.INTER.POLAR>
0

>  <SCORE.INTER.ROT>
0

>  <SCORE.INTER.SOLV>
15.5188

>  <SCORE.INTER.VDW>
-13.2454

>  <SCORE.INTER.norm>
-0.670876

>  <SCORE.INTRA>
0

>  <SCORE.INTRA.DIHEDRAL>
0

>  <SCORE.INTRA.DIHEDRAL.0>
0

>  <SCORE.INTRA.POLAR>
0

>  <SCORE.INTRA.POLAR.0>
0

>  <SCORE.INTRA.REPUL>
0

>  <SCORE.INTRA.REPUL.0>
0

>  <SCORE.INTRA.SOLV>
0

>  <SCORE.INTRA.SOLV.lig_0>
-47.9788

>  <SCORE.INTRA.VDW>
0

>  <SCORE.INTRA.VDW.0>
0

>  <SCORE.INTRA.norm>
0

>  <SCORE.RESTR>
0

>  <SCORE.RESTR.CAVITY>
0

>  <SCORE.RESTR.norm>
0

>  <SCORE.SYSTEM>
0

>  <SCORE.SYSTEM.CONST>
0

>  <SCORE.SYSTEM.DIHEDRAL>
0

>  <SCORE.SYSTEM.SOLV>
0

>  <SCORE.SYSTEM.norm>
0

>  <SCORE.heavy>
10

>  <SCORE.norm>
-0.670876

>  <RMSD>
2.981

$$$$
ligand
 OpenBabel02271912133D
libRbt.so/2013.1/901 2013/11/27
 10 11  0  0  0  0  0  0  0  0999 V2000
   12.5036   -4.4329    7.7093 C   0  0  1  0  0  0  0  0  0  0  0  0
   11.0015   -1.4755    6.9020 C   0  0  2  0  0  0  0  0  0  0  0  0
   11.8817   -2.5749    8.4717 C   0  0  2  0  0  0  0  0  0  0  0  0
   13.0261   -5.6600    7.6033 N   0  0  0  0  0  0  0  0  0  0  0  0
   10.5505   -1.0855    5.7138 N   0  0  0  0  0  0  0  0  0  0  0  0
   10.9410   -0.7414    8.0066 N   0  0  0  0  0  0  0  0  0  0  0  0
   12.4688   -3.7190    8.8290 N   0  0  0  0  0  0  0  0  0  0  0  0
   11.9539   -3.7284    6.7030 N   0  0  0  0  0  0  0  0  0  0  0  0
   11.4527   -1.3892    8.9309 N   0  0  0  0  0  0  0  0  0  0  0  0
   11.5935   -2.6345    7.1660 N   0  0  1  0  0  0  0  0  0  0  0  0
  1  4  1  6  0  0  0
  1  8  1  0  0  0  0
  1  7  1  0  0  0  0
  2  5  1  6  0  0  0
  2  6  1  0  0  0  0
  2 10  1  0  0  0  0
  3  7  1  1  0  0  0
  3 10  1  0  0  0  0
  3  9  1  0  0  0  0
  6  9  1  0  0  0  0
 10  8  1  1  0  0  0
M  END
>  <CHROM.1>
11.73472403,-2.74040296,7.59951236,0.30437427,1.10382706,-2.06877084

>  <Name>
ligand

>  <RI>
0

>  <Rbt.Current_Directory>
/home/itssahil/PROJECTS/Mol_Feturizer/Test_systems_manuscript/rnas/2xnw

>  <Rbt.Executable>
rbdock ($Id: //depot/dev/client3/rdock/2013.1/src/exe/rbdock.cxx#4 $)

>  <Rbt.Library>
libRbt.so (2013.1, Build901 2013/11/27)

>  <Rbt.Parameter_File>
/export/apps/rDock/src/rDock_2013.1_src/data/scripts/dock_solv.prm

>  <Rbt.Receptor>
prm/pocket_docking_4.prm

>  <SCORE>
-6.71224

>  <SCORE.INTER>
-6.71224

>  <SCORE.INTER.CONST>
1

>  <SCORE.INTER.POLAR>
0

>  <SCORE.INTER.ROT>
0

>  <SCORE.INTER.SOLV>
15.4767

>  <SCORE.INTER.VDW>
-13.2337

>  <SCORE.INTER.norm>
-0.671224

>  <SCORE.INTRA>
0

>  <SCORE.INTRA.DIHEDRAL>
0

>  <SCORE.INTRA.DIHEDRAL.0>
0

>  <SCORE.INTRA.POLAR>
0

>  <SCORE.INTRA.POLAR.0>
0

>  <SCORE.INTRA.REPUL>
0

>  <SCORE.INTRA.REPUL.0>
0

>  <SCORE.INTRA.SOLV>
0

>  <SCORE.INTRA.SOLV.lig_0>
-47.9788

>  <SCORE.INTRA.VDW>
0

>  <SCORE.INTRA.VDW.0>
0

>  <SCORE.INTRA.norm>
0

>  <SCORE.RESTR>
0

>  <SCORE.RESTR.CAVITY>
0

>  <SCORE.RESTR.norm>
0

>  <SCORE.SYSTEM>
0

>  <SCORE.SYSTEM.CONST>
0

>  <SCORE.SYSTEM.DIHEDRAL>
0

>  <SCORE.SYSTEM.SOLV>
0

>  <SCORE.SYSTEM.norm>
0

>  <SCORE.heavy>
10

>  <SCORE.norm>
-0.671224

>  <RMSD>
2.982

$$$$
ligand
 OpenBabel02271912133D
libRbt.so/2013.1/901 2013/11/27
 10 11  0  0  0  0  0  0  0  0999 V2000
   12.5776   -4.4239    7.7232 C   0  0  1  0  0  0  0  0  0  0  0  0
   10.9936   -1.5101    6.9139 C   0  0  2  0  0  0  0  0  0  0  0  0
   11.8316   -2.6184    8.5003 C   0  0  2  0  0  0  0  0  0  0  0  0
   13.1593   -5.6237    7.6132 N   0  0  0  0  0  0  0  0  0  0  0  0
   10.5936   -1.1036    5.7131 N   0  0  0  0  0  0  0  0  0  0  0  0
   10.8381   -0.8135    8.0334 N   0  0  0  0  0  0  0  0  0  0  0  0
   12.4479   -3.7467    8.8587 N   0  0  0  0  0  0  0  0  0  0  0  0
   12.0549   -3.7131    6.7071 N   0  0  0  0  0  0  0  0  0  0  0  0
   11.3250   -1.4668    8.9672 N   0  0  0  0  0  0  0  0  0  0  0  0
   11.6206   -2.6503    7.1790 N   0  0  1  0  0  0  0  0  0  0  0  0
  1  4  1  6  0  0  0
  1  8  1  0  0  0  0
  1  7  1  0  0  0  0
  2  5  1  6  0  0  0
  2  6  1  0  0  0  0
  2 10  1  0  0  0  0
  3  7  1  1  0  0  0
  3 10  1  0  0  0  0
  3  9  1  0  0  0  0
  6  9  1  0  0  0  0
 10  8  1  1  0  0  0
M  END
>  <CHROM.1>
11.74169094,-2.76326324,7.61682243,0.15134229,1.08691825,-1.90323713

>  <Name>
ligand

>  <RI>
0

>  <Rbt.Current_Directory>
/home/itssahil/PROJECTS/Mol_Feturizer/Test_systems_manuscript/rnas/2xnw

>  <Rbt.Executable>
rbdock ($Id: //depot/dev/client3/rdock/2013.1/src/exe/rbdock.cxx#4 $)

>  <Rbt.Library>
libRbt.so (2013.1, Build901 2013/11/27)

>  <Rbt.Parameter_File>
/export/apps/rDock/src/rDock_2013.1_src/data/scripts/dock_solv.prm

>  <Rbt.Receptor>
prm/pocket_docking_5.prm

>  <SCORE>
-6.67528

>  <SCORE.INTER>
-6.67528

>  <SCORE.INTER.CONST>
1

>  <SCORE.INTER.POLAR>
0

>  <SCORE.INTER.ROT>
0

>  <SCORE.INTER.SOLV>
15.0456

>  <SCORE.INTER.VDW>
-13.0654

>  <SCORE.INTER.norm>
-0.667528

>  <SCORE.INTRA>
0

>  <SCORE.INTRA.DIHEDRAL>
0

>  <SCORE.INTRA.DIHEDRAL.0>
0

>  <SCORE.INTRA.POLAR>
0

>  <SCORE.INTRA.POLAR.0>
0

>  <SCORE.INTRA.REPUL>
0

>  <SCORE.INTRA.REPUL.0>
0

>  <SCORE.INTRA.SOLV>
0

>  <SCORE.INTRA.SOLV.lig_0>
-47.9788

>  <SCORE.INTRA.VDW>
0

>  <SCORE.INTRA.VDW.0>
0

>  <SCORE.INTRA.norm>
0

>  <SCORE.RESTR>
0

>  <SCORE.RESTR.CAVITY>
0

>  <SCORE.RESTR.norm>
0

>  <SCORE.SYSTEM>
0

>  <SCORE.SYSTEM.CONST>
0

>  <SCORE.SYSTEM.DIHEDRAL>
0

>  <SCORE.SYSTEM.SOLV>
0

>  <SCORE.SYSTEM.norm>
0

>  <SCORE.heavy>
10

>  <SCORE.norm>
-0.667528

>  <RMSD>
2.982

$$$$
ligand
 OpenBabel02271912133D
libRbt.so/2013.1/901 2013/11/27
 10 11  0  0  0  0  0  0  0  0999 V2000
   12.4575   -4.4554    7.7349 C   0  0  1  0  0  0  0  0  0  0  0  0
   10.9849   -1.4939    6.8893 C   0  0  2  0  0  0  0  0  0  0  0  0
   11.7775   -2.6148    8.4900 C   0  0  2  0  0  0  0  0  0  0  0  0
   12.9943   -5.6772    7.6397 N   0  0  0  0  0  0  0  0  0  0  0  0
   10.6030   -1.0862    5.6830 N   0  0  0  0  0  0  0  0  0  0  0  0
   10.8530   -0.7795    8.0006 N   0  0  0  0  0  0  0  0  0  0  0  0
   12.3506   -3.7613    8.8625 N   0  0  0  0  0  0  0  0  0  0  0  0
   11.9639   -3.7370    6.7096 N   0  0  0  0  0  0  0  0  0  0  0  0
   11.3131   -1.4400    8.9428 N   0  0  0  0  0  0  0  0  0  0  0  0
   11.5685   -2.6536    7.1686 N   0  0  1  0  0  0  0  0  0  0  0  0
  1  4  1  6  0  0  0
  1  8  1  0  0  0  0
  1  7  1  0  0  0  0
  2  5  1  6  0  0  0
  2  6  1  0  0  0  0
  2 10  1  0  0  0  0
  3  7  1  1  0  0  0
  3 10  1  0  0  0  0
  3  9  1  0  0  0  0
  6  9  1  0  0  0  0
 10  8  1  1  0  0  0
M  END
>  <CHROM.1>
11.68426039,-2.76610058,7.60795240,0.17455178,1.12274921,-1.93506717

>  <Name>
ligand

>  <RI>
0

>  <Rbt.Current_Directory>
/home/itssahil/PROJECTS/Mol_Feturizer/Test_systems_manuscript/rnas/2xnw

>  <Rbt.Executable>
rbdock ($Id: //depot/dev/client3/rdock/2013.1/src/exe/rbdock.cxx#4 $)

>  <Rbt.Library>
libRbt.so (2013.1, Build901 2013/11/27)

>  <Rbt.Parameter_File>
/export/apps/rDock/src/rDock_2013.1_src/data/scripts/dock_solv.prm

>  <Rbt.Receptor>
prm/pocket_docking_6.prm

>  <SCORE>
-6.67544

>  <SCORE.INTER>
-6.67544

>  <SCORE.INTER.CONST>
1

>  <SCORE.INTER.POLAR>
0

>  <SCORE.INTER.ROT>
0

>  <SCORE.INTER.SOLV>
15.7861

>  <SCORE.INTER.VDW>
-13.3123

>  <SCORE.INTER.norm>
-0.667544

>  <SCORE.INTRA>
0

>  <SCORE.INTRA.DIHEDRAL>
0

>  <SCORE.INTRA.DIHEDRAL.0>
0

>  <SCORE.INTRA.POLAR>
0

>  <SCORE.INTRA.POLAR.0>
0

>  <SCORE.INTRA.REPUL>
0

>  <SCORE.INTRA.REPUL.0>
0

>  <SCORE.INTRA.SOLV>
0

>  <SCORE.INTRA.SOLV.lig_0>
-47.9788

>  <SCORE.INTRA.VDW>
0

>  <SCORE.INTRA.VDW.0>
0

>  <SCORE.INTRA.norm>
0

>  <SCORE.RESTR>
0

>  <SCORE.RESTR.CAVITY>
0

>  <SCORE.RESTR.norm>
0

>  <SCORE.SYSTEM>
0

>  <SCORE.SYSTEM.CONST>
0

>  <SCORE.SYSTEM.DIHEDRAL>
0

>  <SCORE.SYSTEM.SOLV>
0

>  <SCORE.SYSTEM.norm>
0

>  <SCORE.heavy>
10

>  <SCORE.norm>
-0.667544

>  <RMSD>
2.982

$$$$
ligand
 OpenBabel02271912133D
libRbt.so/2013.1/901 2013/11/27
 10 11  0  0  0  0  0  0  0  0999 V2000
   12.5514   -4.4133    7.7006 C   0  0  1  0  0  0  0  0  0  0  0  0
   10.9834   -1.4870    6.9052 C   0  0  2  0  0  0  0  0  0  0  0  0
   11.8566   -2.5875    8.4779 C   0  0  2  0  0  0  0  0  0  0  0  0
   13.1121   -5.6227    7.5874 N   0  0  0  0  0  0  0  0  0  0  0  0
   10.5506   -1.0897    5.7127 N   0  0  0  0  0  0  0  0  0  0  0  0
   10.8742   -0.7743    8.0200 N   0  0  0  0  0  0  0  0  0  0  0  0
   12.4682   -3.7202    8.8308 N   0  0  0  0  0  0  0  0  0  0  0  0
   12.0062   -3.7077    6.6927 N   0  0  0  0  0  0  0  0  0  0  0  0
   11.3818   -1.4229    8.9459 N   0  0  0  0  0  0  0  0  0  0  0  0
   11.6025   -2.6328    7.1646 N   0  0  1  0  0  0  0  0  0  0  0  0
  1  4  1  6  0  0  0
  1  8  1  0  0  0  0
  1  7  1  0  0  0  0
  2  5  1  6  0  0  0
  2  6  1  0  0  0  0
  2 10  1  0  0  0  0
  3  7  1  1  0  0  0
  3 10  1  0  0  0  0
  3  9  1  0  0  0  0
  6  9  1  0  0  0  0
 10  8  1  1  0  0  0
M  END
>  <CHROM.1>
11.73609239,-2.74209481,7.59974572,0.22740692,1.08855125,-1.98329587

>  <Name>
ligand

>  <RI>
0

>  <Rbt.Current_Directory>
/home/itssahil/PROJECTS/Mol_Feturizer/Test_systems_manuscript/rnas/2xnw

>  <Rbt.Executable>
rbdock ($Id: //depot/dev/client3/rdock/2013.1/src/exe/rbdock.cxx#4 $)

>  <Rbt.Library>
libRbt.so (2013.1, Build901 2013/11/27)

>  <Rbt.Parameter_File>
/export/apps/rDock/src/rDock_2013.1_src/data/scripts/dock_solv.prm

>  <Rbt.Receptor>
prm/pocket_docking_8.prm

>  <SCORE>
-6.66346

>  <SCORE.INTER>
-6.66346

>  <SCORE.INTER.CONST>
1

>  <SCORE.INTER.POLAR>
0

>  <SCORE.INTER.ROT>
0

>  <SCORE.INTER.SOLV>
15.1718

>  <SCORE.INTER.VDW>
-13.0996

>  <SCORE.INTER.norm>
-0.666346

>  <SCORE.INTRA>
0

>  <SCORE.INTRA.DIHEDRAL>
0

>  <SCORE.INTRA.DIHEDRAL.0>
0

>  <SCORE.INTRA.POLAR>
0

>  <SCORE.INTRA.POLAR.0>
0

>  <SCORE.INTRA.REPUL>
0

>  <SCORE.INTRA.REPUL.0>
0

>  <SCORE.INTRA.SOLV>
0

>  <SCORE.INTRA.SOLV.lig_0>
-47.9788

>  <SCORE.INTRA.VDW>
0

>  <SCORE.INTRA.VDW.0>
0

>  <SCORE.INTRA.norm>
0

>  <SCORE.RESTR>
0

>  <SCORE.RESTR.CAVITY>
0

>  <SCORE.RESTR.norm>
0

>  <SCORE.SYSTEM>
0

>  <SCORE.SYSTEM.CONST>
0

>  <SCORE.SYSTEM.DIHEDRAL>
0

>  <SCORE.SYSTEM.SOLV>
0

>  <SCORE.SYSTEM.norm>
0

>  <SCORE.heavy>
10

>  <SCORE.norm>
-0.666346

>  <RMSD>
2.982

$$$$
ligand
 OpenBabel02271912133D
libRbt.so/2013.1/901 2013/11/27
 10 11  0  0  0  0  0  0  0  0999 V2000
   12.5005   -4.4384    7.7099 C   0  0  1  0  0  0  0  0  0  0  0  0
   11.0130   -1.4753    6.8963 C   0  0  2  0  0  0  0  0  0  0  0  0
   11.8671   -2.5847    8.4733 C   0  0  2  0  0  0  0  0  0  0  0  0
   13.0240   -5.6651    7.6049 N   0  0  0  0  0  0  0  0  0  0  0  0
   10.5815   -1.0780    5.7034 N   0  0  0  0  0  0  0  0  0  0  0  0
   10.9349   -0.7479    8.0043 N   0  0  0  0  0  0  0  0  0  0  0  0
   12.4479   -3.7313    8.8332 N   0  0  0  0  0  0  0  0  0  0  0  0
   11.9675   -3.7275    6.6991 N   0  0  0  0  0  0  0  0  0  0  0  0
   11.4313   -1.4016    8.9327 N   0  0  0  0  0  0  0  0  0  0  0  0
   11.6001   -2.6363    7.1628 N   0  0  1  0  0  0  0  0  0  0  0  0
  1  4  1  6  0  0  0
  1  8  1  0  0  0  0
  1  7  1  0  0  0  0
  2  5  1  6  0  0  0
  2  6  1  0  0  0  0
  2 10  1  0  0  0  0
  3  7  1  1  0  0  0
  3 10  1  0  0  0  0
  3  9  1  0  0  0  0
  6  9  1  0  0  0  0
 10  8  1  1  0  0  0
M  END
>  <CHROM.1>
11.73423513,-2.74484676,7.59791642,0.27275420,1.11175354,-2.03441670

>  <Name>
ligand

>  <RI>
0

>  <Rbt.Current_Directory>
/home/itssahil/PROJECTS/Mol_Feturizer/Test_systems_manuscript/rnas/2xnw

>  <Rbt.Executable>
rbdock ($Id: //depot/dev/client3/rdock/2013.1/src/exe/rbdock.cxx#4 $)

>  <Rbt.Library>
libRbt.so (2013.1, Build901 2013/11/27)

>  <Rbt.Parameter_File>
/export/apps/rDock/src/rDock_2013.1_src/data/scripts/dock_solv.prm

>  <Rbt.Receptor>
prm/blind_docking_40.prm

>  <SCORE>
-6.70238

>  <SCORE.INTER>
-6.70238

>  <SCORE.INTER.CONST>
1

>  <SCORE.INTER.POLAR>
0

>  <SCORE.INTER.ROT>
0

>  <SCORE.INTER.SOLV>
15.5697

>  <SCORE.INTER.VDW>
-13.2582

>  <SCORE.INTER.norm>
-0.670238

>  <SCORE.INTRA>
0

>  <SCORE.INTRA.DIHEDRAL>
0

>  <SCORE.INTRA.DIHEDRAL.0>
0

>  <SCORE.INTRA.POLAR>
0

>  <SCORE.INTRA.POLAR.0>
0

>  <SCORE.INTRA.REPUL>
0

>  <SCORE.INTRA.REPUL.0>
0

>  <SCORE.INTRA.SOLV>
0

>  <SCORE.INTRA.SOLV.lig_0>
-47.9788

>  <SCORE.INTRA.VDW>
0

>  <SCORE.INTRA.VDW.0>
0

>  <SCORE.INTRA.norm>
0

>  <SCORE.RESTR>
0

>  <SCORE.RESTR.CAVITY>
0

>  <SCORE.RESTR.norm>
0

>  <SCORE.SYSTEM>
0

>  <SCORE.SYSTEM.CONST>
0

>  <SCORE.SYSTEM.DIHEDRAL>
0

>  <SCORE.SYSTEM.SOLV>
0

>  <SCORE.SYSTEM.norm>
0

>  <SCORE.heavy>
10

>  <SCORE.norm>
-0.670238

>  <RMSD>
2.983

$$$$
ligand
 OpenBabel02271912133D
libRbt.so/2013.1/901 2013/11/27
 10 11  0  0  0  0  0  0  0  0999 V2000
   12.4998   -4.4343    7.7133 C   0  0  1  0  0  0  0  0  0  0  0  0
   10.9957   -1.4773    6.9082 C   0  0  2  0  0  0  0  0  0  0  0  0
   11.8766   -2.5772    8.4771 C   0  0  2  0  0  0  0  0  0  0  0  0
   13.0231   -5.6610    7.6065 N   0  0  0  0  0  0  0  0  0  0  0  0
   10.5444   -1.0869    5.7203 N   0  0  0  0  0  0  0  0  0  0  0  0
   10.9347   -0.7441    8.0134 N   0  0  0  0  0  0  0  0  0  0  0  0
   12.4646   -3.7212    8.8336 N   0  0  0  0  0  0  0  0  0  0  0  0
   11.9496   -3.7295    6.7076 N   0  0  0  0  0  0  0  0  0  0  0  0
   11.4468   -1.3922    8.9372 N   0  0  0  0  0  0  0  0  0  0  0  0
   11.5885   -2.6362    7.1714 N   0  0  1  0  0  0  0  0  0  0  0  0
  1  4  1  6  0  0  0
  1  8  1  0  0  0  0
  1  7  1  0  0  0  0
  2  5  1  6  0  0  0
  2  6  1  0  0  0  0
  2 10  1  0  0  0  0
  3  7  1  1  0  0  0
  3 10  1  0  0  0  0
  3  9  1  0  0  0  0
  6  9  1  0  0  0  0
 10  8  1  1  0  0  0
M  END
>  <CHROM.1>
11.72978438,-2.74225951,7.60480977,0.30370888,1.10320690,-2.06745336

>  <Name>
ligand

>  <RI>
0

>  <Rbt.Current_Directory>
/home/itssahil/PROJECTS/Mol_Feturizer/Test_systems_manuscript/rnas/2xnw

>  <Rbt.Executable>
rbdock ($Id: //depot/dev/client3/rdock/2013.1/src/exe/rbdock.cxx#4 $)

>  <Rbt.Library>
libRbt.so (2013.1, Build901 2013/11/27)

>  <Rbt.Parameter_File>
/export/apps/rDock/src/rDock_2013.1_src/data/scripts/dock_solv.prm

>  <Rbt.Receptor>
prm/pocket_docking_6.prm

>  <SCORE>
-6.71287

>  <SCORE.INTER>
-6.71287

>  <SCORE.INTER.CONST>
1

>  <SCORE.INTER.POLAR>
0

>  <SCORE.INTER.ROT>
0

>  <SCORE.INTER.SOLV>
15.4704

>  <SCORE.INTER.VDW>
-13.2321

>  <SCORE.INTER.norm>
-0.671287

>  <SCORE.INTRA>
0

>  <SCORE.INTRA.DIHEDRAL>
0

>  <SCORE.INTRA.DIHEDRAL.0>
0

>  <SCORE.INTRA.POLAR>
0

>  <SCORE.INTRA.POLAR.0>
0

>  <SCORE.INTRA.REPUL>
0

>  <SCORE.INTRA.REPUL.0>
0

>  <SCORE.INTRA.SOLV>
0

>  <SCORE.INTRA.SOLV.lig_0>
-47.9788

>  <SCORE.INTRA.VDW>
0

>  <SCORE.INTRA.VDW.0>
0

>  <SCORE.INTRA.norm>
0

>  <SCORE.RESTR>
0

>  <SCORE.RESTR.CAVITY>
0

>  <SCORE.RESTR.norm>
0

>  <SCORE.SYSTEM>
0

>  <SCORE.SYSTEM.CONST>
0

>  <SCORE.SYSTEM.DIHEDRAL>
0

>  <SCORE.SYSTEM.SOLV>
0

>  <SCORE.SYSTEM.norm>
0

>  <SCORE.heavy>
10

>  <SCORE.norm>
-0.671287

>  <RMSD>
2.983

$$$$
ligand
 OpenBabel02271912133D
libRbt.so/2013.1/901 2013/11/27
 10 11  0  0  0  0  0  0  0  0999 V2000
   12.4850   -4.4380    7.7163 C   0  0  1  0  0  0  0  0  0  0  0  0
   10.9836   -1.4822    6.9018 C   0  0  2  0  0  0  0  0  0  0  0  0
   11.8201   -2.5973    8.4843 C   0  0  2  0  0  0  0  0  0  0  0  0
   13.0223   -5.6587    7.6102 N   0  0  0  0  0  0  0  0  0  0  0  0
   10.5698   -1.0785    5.7048 N   0  0  0  0  0  0  0  0  0  0  0  0
   10.8786   -0.7654    8.0144 N   0  0  0  0  0  0  0  0  0  0  0  0
   12.4054   -3.7414    8.8446 N   0  0  0  0  0  0  0  0  0  0  0  0
   11.9633   -3.7234    6.7023 N   0  0  0  0  0  0  0  0  0  0  0  0
   11.3646   -1.4225    8.9460 N   0  0  0  0  0  0  0  0  0  0  0  0
   11.5771   -2.6398    7.1688 N   0  0  1  0  0  0  0  0  0  0  0  0
  1  4  1  6  0  0  0
  1  8  1  0  0  0  0
  1  7  1  0  0  0  0
  2  5  1  6  0  0  0
  2  6  1  0  0  0  0
  2 10  1  0  0  0  0
  3  7  1  1  0  0  0
  3 10  1  0  0  0  0
  3  9  1  0  0  0  0
  6  9  1  0  0  0  0
 10  8  1  1  0  0  0
M  END
>  <CHROM.1>
11.70448909,-2.75096131,7.60527200,0.22679202,1.11067548,-1.98446416

>  <Name>
ligand

>  <RI>
0

>  <Rbt.Current_Directory>
/home/itssahil/PROJECTS/Mol_Feturizer/Test_systems_manuscript/rnas/2xnw

>  <Rbt.Executable>
rbdock ($Id: //depot/dev/client3/rdock/2013.1/src/exe/rbdock.cxx#4 $)

>  <Rbt.Library>
libRbt.so (2013.1, Build901 2013/11/27)

>  <Rbt.Parameter_File>
/export/apps/rDock/src/rDock_2013.1_src/data/scripts/dock_solv.prm

>  <Rbt.Receptor>
prm/pocket_docking_6.prm

>  <SCORE>
-6.68372

>  <SCORE.INTER>
-6.68372

>  <SCORE.INTER.CONST>
1

>  <SCORE.INTER.POLAR>
0

>  <SCORE.INTER.ROT>
0

>  <SCORE.INTER.SOLV>
15.5841

>  <SCORE.INTER.VDW>
-13.2505

>  <SCORE.INTER.norm>
-0.668372

>  <SCORE.INTRA>
0

>  <SCORE.INTRA.DIHEDRAL>
0

>  <SCORE.INTRA.DIHEDRAL.0>
0

>  <SCORE.INTRA.POLAR>
0

>  <SCORE.INTRA.POLAR.0>
0

>  <SCORE.INTRA.REPUL>
0

>  <SCORE.INTRA.REPUL.0>
0

>  <SCORE.INTRA.SOLV>
0

>  <SCORE.INTRA.SOLV.lig_0>
-47.9788

>  <SCORE.INTRA.VDW>
0

>  <SCORE.INTRA.VDW.0>
0

>  <SCORE.INTRA.norm>
0

>  <SCORE.RESTR>
0

>  <SCORE.RESTR.CAVITY>
0

>  <SCORE.RESTR.norm>
0

>  <SCORE.SYSTEM>
0

>  <SCORE.SYSTEM.CONST>
0

>  <SCORE.SYSTEM.DIHEDRAL>
0

>  <SCORE.SYSTEM.SOLV>
0

>  <SCORE.SYSTEM.norm>
0

>  <SCORE.heavy>
10

>  <SCORE.norm>
-0.668372

>  <RMSD>
2.983

$$$$
ligand
 OpenBabel02271912133D
libRbt.so/2013.1/901 2013/11/27
 10 11  0  0  0  0  0  0  0  0999 V2000
   12.5040   -4.4310    7.7066 C   0  0  1  0  0  0  0  0  0  0  0  0
   10.9986   -1.4725    6.9097 C   0  0  2  0  0  0  0  0  0  0  0  0
   11.8702   -2.5807    8.4779 C   0  0  2  0  0  0  0  0  0  0  0  0
   13.0312   -5.6557    7.5955 N   0  0  0  0  0  0  0  0  0  0  0  0
   10.5555   -1.0751    5.7210 N   0  0  0  0  0  0  0  0  0  0  0  0
   10.9272   -0.7468    8.0192 N   0  0  0  0  0  0  0  0  0  0  0  0
   12.4583   -3.7256    8.8312 N   0  0  0  0  0  0  0  0  0  0  0  0
   11.9598   -3.7209    6.7013 N   0  0  0  0  0  0  0  0  0  0  0  0
   11.4339   -1.3998    8.9426 N   0  0  0  0  0  0  0  0  0  0  0  0
   11.5923   -2.6316    7.1696 N   0  0  1  0  0  0  0  0  0  0  0  0
  1  4  1  6  0  0  0
  1  8  1  0  0  0  0
  1  7  1  0  0  0  0
  2  5  1  6  0  0  0
  2  6  1  0  0  0  0
  2 10  1  0  0  0  0
  3  7  1  1  0  0  0
  3 10  1  0  0  0  0
  3  9  1  0  0  0  0
  6  9  1  0  0  0  0
 10  8  1  1  0  0  0
M  END
>  <CHROM.1>
11.73052778,-2.74021570,7.60340958,0.28594645,1.10459963,-2.04488812

>  <Name>
ligand

>  <RI>
0

>  <Rbt.Current_Directory>
/home/itssahil/PROJECTS/Mol_Feturizer/Test_systems_manuscript/rnas/2xnw

>  <Rbt.Executable>
rbdock ($Id: //depot/dev/client3/rdock/2013.1/src/exe/rbdock.cxx#4 $)

>  <Rbt.Library>
libRbt.so (2013.1, Build901 2013/11/27)

>  <Rbt.Parameter_File>
/export/apps/rDock/src/rDock_2013.1_src/data/scripts/dock_solv.prm

>  <Rbt.Receptor>
prm/pocket_docking_4.prm

>  <SCORE>
-6.70823

>  <SCORE.INTER>
-6.70823

>  <SCORE.INTER.CONST>
1

>  <SCORE.INTER.POLAR>
0

>  <SCORE.INTER.ROT>
0

>  <SCORE.INTER.SOLV>
15.4898

>  <SCORE.INTER.VDW>
-13.2354

>  <SCORE.INTER.norm>
-0.670823

>  <SCORE.INTRA>
0

>  <SCORE.INTRA.DIHEDRAL>
0

>  <SCORE.INTRA.DIHEDRAL.0>
0

>  <SCORE.INTRA.POLAR>
0

>  <SCORE.INTRA.POLAR.0>
0

>  <SCORE.INTRA.REPUL>
0

>  <SCORE.INTRA.REPUL.0>
0

>  <SCORE.INTRA.SOLV>
0

>  <SCORE.INTRA.SOLV.lig_0>
-47.9788

>  <SCORE.INTRA.VDW>
0

>  <SCORE.INTRA.VDW.0>
0

>  <SCORE.INTRA.norm>
0

>  <SCORE.RESTR>
0

>  <SCORE.RESTR.CAVITY>
0

>  <SCORE.RESTR.norm>
0

>  <SCORE.SYSTEM>
0

>  <SCORE.SYSTEM.CONST>
0

>  <SCORE.SYSTEM.DIHEDRAL>
0

>  <SCORE.SYSTEM.SOLV>
0

>  <SCORE.SYSTEM.norm>
0

>  <SCORE.heavy>
10

>  <SCORE.norm>
-0.670823

>  <RMSD>
2.984

$$$$
ligand
 OpenBabel02271912133D
libRbt.so/2013.1/901 2013/11/27
 10 11  0  0  0  0  0  0  0  0999 V2000
   12.4919   -4.4404    7.7097 C   0  0  1  0  0  0  0  0  0  0  0  0
   10.9972   -1.4828    6.8892 C   0  0  2  0  0  0  0  0  0  0  0  0
   11.8396   -2.5928    8.4721 C   0  0  2  0  0  0  0  0  0  0  0  0
   13.0234   -5.6638    7.6066 N   0  0  0  0  0  0  0  0  0  0  0  0
   10.5770   -1.0838    5.6928 N   0  0  0  0  0  0  0  0  0  0  0  0
   10.9025   -0.7596    7.9987 N   0  0  0  0  0  0  0  0  0  0  0  0
   12.4227   -3.7373    8.8347 N   0  0  0  0  0  0  0  0  0  0  0  0
   11.9664   -3.7290    6.6954 N   0  0  0  0  0  0  0  0  0  0  0  0
   11.3920   -1.4137    8.9305 N   0  0  0  0  0  0  0  0  0  0  0  0
   11.5877   -2.6414    7.1585 N   0  0  1  0  0  0  0  0  0  0  0  0
  1  4  1  6  0  0  0
  1  8  1  0  0  0  0
  1  7  1  0  0  0  0
  2  5  1  6  0  0  0
  2  6  1  0  0  0  0
  2 10  1  0  0  0  0
  3  7  1  1  0  0  0
  3 10  1  0  0  0  0
  3  9  1  0  0  0  0
  6  9  1  0  0  0  0
 10  8  1  1  0  0  0
M  END
>  <CHROM.1>
11.71752389,-2.75069910,7.59473186,0.24431220,1.11166763,-2.00555530

>  <Name>
ligand

>  <RI>
0

>  <Rbt.Current_Directory>
/home/itssahil/PROJECTS/Mol_Feturizer/Test_systems_manuscript/rnas/2xnw

>  <Rbt.Executable>
rbdock ($Id: //depot/dev/client3/rdock/2013.1/src/exe/rbdock.cxx#4 $)

>  <Rbt.Library>
libRbt.so (2013.1, Build901 2013/11/27)

>  <Rbt.Parameter_File>
/export/apps/rDock/src/rDock_2013.1_src/data/scripts/dock_solv.prm

>  <Rbt.Receptor>
prm/pocket_docking_6.prm

>  <SCORE>
-6.68955

>  <SCORE.INTER>
-6.68955

>  <SCORE.INTER.CONST>
1

>  <SCORE.INTER.POLAR>
0

>  <SCORE.INTER.ROT>
0

>  <SCORE.INTER.SOLV>
15.5829

>  <SCORE.INTER.VDW>
-13.254

>  <SCORE.INTER.norm>
-0.668955

>  <SCORE.INTRA>
0

>  <SCORE.INTRA.DIHEDRAL>
0

>  <SCORE.INTRA.DIHEDRAL.0>
0

>  <SCORE.INTRA.POLAR>
0

>  <SCORE.INTRA.POLAR.0>
0

>  <SCORE.INTRA.REPUL>
0

>  <SCORE.INTRA.REPUL.0>
0

>  <SCORE.INTRA.SOLV>
0

>  <SCORE.INTRA.SOLV.lig_0>
-47.9788

>  <SCORE.INTRA.VDW>
0

>  <SCORE.INTRA.VDW.0>
0

>  <SCORE.INTRA.norm>
0

>  <SCORE.RESTR>
0

>  <SCORE.RESTR.CAVITY>
0

>  <SCORE.RESTR.norm>
0

>  <SCORE.SYSTEM>
0

>  <SCORE.SYSTEM.CONST>
0

>  <SCORE.SYSTEM.DIHEDRAL>
0

>  <SCORE.SYSTEM.SOLV>
0

>  <SCORE.SYSTEM.norm>
0

>  <SCORE.heavy>
10

>  <SCORE.norm>
-0.668955

>  <RMSD>
2.984

$$$$
ligand
 OpenBabel02271912133D
libRbt.so/2013.1/901 2013/11/27
 10 11  0  0  0  0  0  0  0  0999 V2000
   12.4997   -4.4351    7.7101 C   0  0  1  0  0  0  0  0  0  0  0  0
   10.9886   -1.4809    6.9079 C   0  0  2  0  0  0  0  0  0  0  0  0
   11.8796   -2.5770    8.4737 C   0  0  2  0  0  0  0  0  0  0  0  0
   13.0233   -5.6616    7.6026 N   0  0  0  0  0  0  0  0  0  0  0  0
   10.5300   -1.0932    5.7219 N   0  0  0  0  0  0  0  0  0  0  0  0
   10.9335   -0.7455    8.0119 N   0  0  0  0  0  0  0  0  0  0  0  0
   12.4706   -3.7198    8.8291 N   0  0  0  0  0  0  0  0  0  0  0  0
   11.9430   -3.7327    6.7062 N   0  0  0  0  0  0  0  0  0  0  0  0
   11.4516   -1.3913    8.9340 N   0  0  0  0  0  0  0  0  0  0  0  0
   11.5838   -2.6388    7.1698 N   0  0  1  0  0  0  0  0  0  0  0  0
  1  4  1  6  0  0  0
  1  8  1  0  0  0  0
  1  7  1  0  0  0  0
  2  5  1  6  0  0  0
  2  6  1  0  0  0  0
  2 10  1  0  0  0  0
  3  7  1  1  0  0  0
  3 10  1  0  0  0  0
  3  9  1  0  0  0  0
  6  9  1  0  0  0  0
 10  8  1  1  0  0  0
M  END
>  <CHROM.1>
11.72774229,-2.74386231,7.60266876,0.31430182,1.09969281,-2.07892546

>  <Name>
ligand

>  <RI>
0

>  <Rbt.Current_Directory>
/home/itssahil/PROJECTS/Mol_Feturizer/Test_systems_manuscript/rnas/2xnw

>  <Rbt.Executable>
rbdock ($Id: //depot/dev/client3/rdock/2013.1/src/exe/rbdock.cxx#4 $)

>  <Rbt.Library>
libRbt.so (2013.1, Build901 2013/11/27)

>  <Rbt.Parameter_File>
/export/apps/rDock/src/rDock_2013.1_src/data/scripts/dock_solv.prm

>  <Rbt.Receptor>
prm/pocket_docking_8.prm

>  <SCORE>
-6.71434

>  <SCORE.INTER>
-6.71434

>  <SCORE.INTER.CONST>
1

>  <SCORE.INTER.POLAR>
0

>  <SCORE.INTER.ROT>
0

>  <SCORE.INTER.SOLV>
15.4241

>  <SCORE.INTER.VDW>
-13.2176

>  <SCORE.INTER.norm>
-0.671434

>  <SCORE.INTRA>
0

>  <SCORE.INTRA.DIHEDRAL>
0

>  <SCORE.INTRA.DIHEDRAL.0>
0

>  <SCORE.INTRA.POLAR>
0

>  <SCORE.INTRA.POLAR.0>
0

>  <SCORE.INTRA.REPUL>
0

>  <SCORE.INTRA.REPUL.0>
0

>  <SCORE.INTRA.SOLV>
0

>  <SCORE.INTRA.SOLV.lig_0>
-47.9788

>  <SCORE.INTRA.VDW>
0

>  <SCORE.INTRA.VDW.0>
0

>  <SCORE.INTRA.norm>
0

>  <SCORE.RESTR>
0

>  <SCORE.RESTR.CAVITY>
0

>  <SCORE.RESTR.norm>
0

>  <SCORE.SYSTEM>
0

>  <SCORE.SYSTEM.CONST>
0

>  <SCORE.SYSTEM.DIHEDRAL>
0

>  <SCORE.SYSTEM.SOLV>
0

>  <SCORE.SYSTEM.norm>
0

>  <SCORE.heavy>
10

>  <SCORE.norm>
-0.671434

>  <RMSD>
2.984

$$$$
ligand
 OpenBabel02271912133D
libRbt.so/2013.1/901 2013/11/27
 10 11  0  0  0  0  0  0  0  0999 V2000
   12.4523   -4.4501    7.7253 C   0  0  1  0  0  0  0  0  0  0  0  0
   10.9615   -1.4940    6.8926 C   0  0  2  0  0  0  0  0  0  0  0  0
   11.7554   -2.6196    8.4895 C   0  0  2  0  0  0  0  0  0  0  0  0
   12.9985   -5.6672    7.6244 N   0  0  0  0  0  0  0  0  0  0  0  0
   10.5819   -1.0812    5.6873 N   0  0  0  0  0  0  0  0  0  0  0  0
   10.8195   -0.7879    8.0080 N   0  0  0  0  0  0  0  0  0  0  0  0
   12.3353   -3.7642    8.8569 N   0  0  0  0  0  0  0  0  0  0  0  0
   11.9579   -3.7286    6.7025 N   0  0  0  0  0  0  0  0  0  0  0  0
   11.2804   -1.4512    8.9478 N   0  0  0  0  0  0  0  0  0  0  0  0
   11.5524   -2.6512    7.1669 N   0  0  1  0  0  0  0  0  0  0  0  0
  1  4  1  6  0  0  0
  1  8  1  0  0  0  0
  1  7  1  0  0  0  0
  2  5  1  6  0  0  0
  2  6  1  0  0  0  0
  2 10  1  0  0  0  0
  3  7  1  1  0  0  0
  3 10  1  0  0  0  0
  3  9  1  0  0  0  0
  6  9  1  0  0  0  0
 10  8  1  1  0  0  0
M  END
>  <CHROM.1>
11.66713448,-2.76570904,7.60600068,0.15924543,1.11735153,-1.91472832

>  <Name>
ligand

>  <RI>
0

>  <Rbt.Current_Directory>
/home/itssahil/PROJECTS/Mol_Feturizer/Test_systems_manuscript/rnas/2xnw

>  <Rbt.Executable>
rbdock ($Id: //depot/dev/client3/rdock/2013.1/src/exe/rbdock.cxx#4 $)

>  <Rbt.Library>
libRbt.so (2013.1, Build901 2013/11/27)

>  <Rbt.Parameter_File>
/export/apps/rDock/src/rDock_2013.1_src/data/scripts/dock_solv.prm

>  <Rbt.Receptor>
prm/blind_docking_40.prm

>  <SCORE>
-6.68767

>  <SCORE.INTER>
-6.68767

>  <SCORE.INTER.CONST>
1

>  <SCORE.INTER.POLAR>
0

>  <SCORE.INTER.ROT>
0

>  <SCORE.INTER.SOLV>
15.7399

>  <SCORE.INTER.VDW>
-13.3051

>  <SCORE.INTER.norm>
-0.668767

>  <SCORE.INTRA>
0

>  <SCORE.INTRA.DIHEDRAL>
0

>  <SCORE.INTRA.DIHEDRAL.0>
0

>  <SCORE.INTRA.POLAR>
0

>  <SCORE.INTRA.POLAR.0>
0

>  <SCORE.INTRA.REPUL>
0

>  <SCORE.INTRA.REPUL.0>
0

>  <SCORE.INTRA.SOLV>
0

>  <SCORE.INTRA.SOLV.lig_0>
-47.9788

>  <SCORE.INTRA.VDW>
0

>  <SCORE.INTRA.VDW.0>
0

>  <SCORE.INTRA.norm>
0

>  <SCORE.RESTR>
0

>  <SCORE.RESTR.CAVITY>
0

>  <SCORE.RESTR.norm>
0

>  <SCORE.SYSTEM>
0

>  <SCORE.SYSTEM.CONST>
0

>  <SCORE.SYSTEM.DIHEDRAL>
0

>  <SCORE.SYSTEM.SOLV>
0

>  <SCORE.SYSTEM.norm>
0

>  <SCORE.heavy>
10

>  <SCORE.norm>
-0.668767

>  <RMSD>
2.985

$$$$
ligand
 OpenBabel02271912133D
libRbt.so/2013.1/901 2013/11/27
 10 11  0  0  0  0  0  0  0  0999 V2000
   12.5014   -4.4247    7.6994 C   0  0  1  0  0  0  0  0  0  0  0  0
   10.9767   -1.4733    6.9127 C   0  0  2  0  0  0  0  0  0  0  0  0
   11.8439   -2.5865    8.4798 C   0  0  2  0  0  0  0  0  0  0  0  0
   13.0407   -5.6436    7.5833 N   0  0  0  0  0  0  0  0  0  0  0  0
   10.5409   -1.0702    5.7232 N   0  0  0  0  0  0  0  0  0  0  0  0
   10.8885   -0.7575    8.0274 N   0  0  0  0  0  0  0  0  0  0  0  0
   12.4391   -3.7289    8.8293 N   0  0  0  0  0  0  0  0  0  0  0  0
   11.9600   -3.7112    6.6949 N   0  0  0  0  0  0  0  0  0  0  0  0
   11.3926   -1.4135    8.9500 N   0  0  0  0  0  0  0  0  0  0  0  0
   11.5784   -2.6291    7.1686 N   0  0  1  0  0  0  0  0  0  0  0  0
  1  4  1  6  0  0  0
  1  8  1  0  0  0  0
  1  7  1  0  0  0  0
  2  5  1  6  0  0  0
  2  6  1  0  0  0  0
  2 10  1  0  0  0  0
  3  7  1  1  0  0  0
  3 10  1  0  0  0  0
  3  9  1  0  0  0  0
  6  9  1  0  0  0  0
 10  8  1  1  0  0  0
M  END
>  <CHROM.1>
11.71364807,-2.74009765,7.60280801,0.25876276,1.10057419,-2.01245367

>  <Name>
ligand

>  <RI>
0

>  <Rbt.Current_Directory>
/home/itssahil/PROJECTS/Mol_Feturizer/Test_systems_manuscript/rnas/2xnw

>  <Rbt.Executable>
rbdock ($Id: //depot/dev/client3/rdock/2013.1/src/exe/rbdock.cxx#4 $)

>  <Rbt.Library>
libRbt.so (2013.1, Build901 2013/11/27)

>  <Rbt.Parameter_File>
/export/apps/rDock/src/rDock_2013.1_src/data/scripts/dock_solv.prm

>  <Rbt.Receptor>
prm/pocket_docking_4.prm

>  <SCORE>
-6.67233

>  <SCORE.INTER>
-6.67233

>  <SCORE.INTER.CONST>
1

>  <SCORE.INTER.POLAR>
0

>  <SCORE.INTER.ROT>
0

>  <SCORE.INTER.SOLV>
15.4546

>  <SCORE.INTER.VDW>
-13.1998

>  <SCORE.INTER.norm>
-0.667233

>  <SCORE.INTRA>
0

>  <SCORE.INTRA.DIHEDRAL>
0

>  <SCORE.INTRA.DIHEDRAL.0>
0

>  <SCORE.INTRA.POLAR>
0

>  <SCORE.INTRA.POLAR.0>
0

>  <SCORE.INTRA.REPUL>
0

>  <SCORE.INTRA.REPUL.0>
0

>  <SCORE.INTRA.SOLV>
0

>  <SCORE.INTRA.SOLV.lig_0>
-47.9788

>  <SCORE.INTRA.VDW>
0

>  <SCORE.INTRA.VDW.0>
0

>  <SCORE.INTRA.norm>
0

>  <SCORE.RESTR>
0

>  <SCORE.RESTR.CAVITY>
0

>  <SCORE.RESTR.norm>
0

>  <SCORE.SYSTEM>
0

>  <SCORE.SYSTEM.CONST>
0

>  <SCORE.SYSTEM.DIHEDRAL>
0

>  <SCORE.SYSTEM.SOLV>
0

>  <SCORE.SYSTEM.norm>
0

>  <SCORE.heavy>
10

>  <SCORE.norm>
-0.667233

>  <RMSD>
2.985

$$$$
ligand
 OpenBabel02271912133D
libRbt.so/2013.1/901 2013/11/27
 10 11  0  0  0  0  0  0  0  0999 V2000
   12.5155   -4.4112    7.6746 C   0  0  1  0  0  0  0  0  0  0  0  0
   10.9727   -1.4671    6.8961 C   0  0  2  0  0  0  0  0  0  0  0  0
   11.8548   -2.5756    8.4583 C   0  0  2  0  0  0  0  0  0  0  0  0
   13.0595   -5.6278    7.5557 N   0  0  0  0  0  0  0  0  0  0  0  0
   10.5277   -1.0666    5.7092 N   0  0  0  0  0  0  0  0  0  0  0  0
   10.8885   -0.7511    8.0110 N   0  0  0  0  0  0  0  0  0  0  0  0
   12.4572   -3.7152    8.8045 N   0  0  0  0  0  0  0  0  0  0  0  0
   11.9646   -3.7007    6.6733 N   0  0  0  0  0  0  0  0  0  0  0  0
   11.4013   -1.4043    8.9308 N   0  0  0  0  0  0  0  0  0  0  0  0
   11.5812   -2.6201    7.1488 N   0  0  1  0  0  0  0  0  0  0  0  0
  1  4  1  6  0  0  0
  1  8  1  0  0  0  0
  1  7  1  0  0  0  0
  2  5  1  6  0  0  0
  2  6  1  0  0  0  0
  2 10  1  0  0  0  0
  3  7  1  1  0  0  0
  3 10  1  0  0  0  0
  3  9  1  0  0  0  0
  6  9  1  0  0  0  0
 10  8  1  1  0  0  0
M  END
>  <CHROM.1>
11.71967434,-2.73020090,7.58219259,0.26706980,1.09384400,-2.02035956

>  <Name>
ligand

>  <RI>
0

>  <Rbt.Current_Directory>
/home/itssahil/PROJECTS/Mol_Feturizer/Test_systems_manuscript/rnas/2xnw

>  <Rbt.Executable>
rbdock ($Id: //depot/dev/client3/rdock/2013.1/src/exe/rbdock.cxx#4 $)

>  <Rbt.Library>
libRbt.so (2013.1, Build901 2013/11/27)

>  <Rbt.Parameter_File>
/export/apps/rDock/src/rDock_2013.1_src/data/scripts/dock_solv.prm

>  <Rbt.Receptor>
prm/pocket_docking_5.prm

>  <SCORE>
-6.67064

>  <SCORE.INTER>
-6.67064

>  <SCORE.INTER.CONST>
1

>  <SCORE.INTER.POLAR>
0

>  <SCORE.INTER.ROT>
0

>  <SCORE.INTER.SOLV>
15.3781

>  <SCORE.INTER.VDW>
-13.1731

>  <SCORE.INTER.norm>
-0.667064

>  <SCORE.INTRA>
0

>  <SCORE.INTRA.DIHEDRAL>
0

>  <SCORE.INTRA.DIHEDRAL.0>
0

>  <SCORE.INTRA.POLAR>
0

>  <SCORE.INTRA.POLAR.0>
0

>  <SCORE.INTRA.REPUL>
0

>  <SCORE.INTRA.REPUL.0>
0

>  <SCORE.INTRA.SOLV>
0

>  <SCORE.INTRA.SOLV.lig_0>
-47.9788

>  <SCORE.INTRA.VDW>
0

>  <SCORE.INTRA.VDW.0>
0

>  <SCORE.INTRA.norm>
0

>  <SCORE.RESTR>
0

>  <SCORE.RESTR.CAVITY>
0

>  <SCORE.RESTR.norm>
0

>  <SCORE.SYSTEM>
0

>  <SCORE.SYSTEM.CONST>
0

>  <SCORE.SYSTEM.DIHEDRAL>
0

>  <SCORE.SYSTEM.SOLV>
0

>  <SCORE.SYSTEM.norm>
0

>  <SCORE.heavy>
10

>  <SCORE.norm>
-0.667064

>  <RMSD>
2.985

$$$$
ligand
 OpenBabel02271912133D
libRbt.so/2013.1/901 2013/11/27
 10 11  0  0  0  0  0  0  0  0999 V2000
   12.4954   -4.4379    7.7097 C   0  0  1  0  0  0  0  0  0  0  0  0
   10.9891   -1.4815    6.9067 C   0  0  2  0  0  0  0  0  0  0  0  0
   11.8486   -2.5918    8.4801 C   0  0  2  0  0  0  0  0  0  0  0  0
   13.0274   -5.6607    7.6002 N   0  0  0  0  0  0  0  0  0  0  0  0
   10.5565   -1.0820    5.7149 N   0  0  0  0  0  0  0  0  0  0  0  0
   10.9047   -0.7593    8.0176 N   0  0  0  0  0  0  0  0  0  0  0  0
   12.4367   -3.7359    8.8359 N   0  0  0  0  0  0  0  0  0  0  0  0
   11.9590   -3.7264    6.7012 N   0  0  0  0  0  0  0  0  0  0  0  0
   11.4043   -1.4136    8.9440 N   0  0  0  0  0  0  0  0  0  0  0  0
   11.5837   -2.6396    7.1690 N   0  0  1  0  0  0  0  0  0  0  0  0
  1  4  1  6  0  0  0
  1  8  1  0  0  0  0
  1  7  1  0  0  0  0
  2  5  1  6  0  0  0
  2  6  1  0  0  0  0
  2 10  1  0  0  0  0
  3  7  1  1  0  0  0
  3 10  1  0  0  0  0
  3  9  1  0  0  0  0
  6  9  1  0  0  0  0
 10  8  1  1  0  0  0
M  END
>  <CHROM.1>
11.71797372,-2.74911443,7.60387253,0.26346020,1.10630221,-2.02185973

>  <Name>
ligand

>  <RI>
0

>  <Rbt.Current_Directory>
/home/itssahil/PROJECTS/Mol_Feturizer/Test_systems_manuscript/rnas/2xnw

>  <Rbt.Executable>
rbdock ($Id: //depot/dev/client3/rdock/2013.1/src/exe/rbdock.cxx#4 $)

>  <Rbt.Library>
libRbt.so (2013.1, Build901 2013/11/27)

>  <Rbt.Parameter_File>
/export/apps/rDock/src/rDock_2013.1_src/data/scripts/dock_solv.prm

>  <Rbt.Receptor>
prm/pocket_docking_8.prm

>  <SCORE>
-6.69977

>  <SCORE.INTER>
-6.69977

>  <SCORE.INTER.CONST>
1

>  <SCORE.INTER.POLAR>
0

>  <SCORE.INTER.ROT>
0

>  <SCORE.INTER.SOLV>
15.505

>  <SCORE.INTER.VDW>
-13.2349

>  <SCORE.INTER.norm>
-0.669977

>  <SCORE.INTRA>
0

>  <SCORE.INTRA.DIHEDRAL>
0

>  <SCORE.INTRA.DIHEDRAL.0>
0

>  <SCORE.INTRA.POLAR>
0

>  <SCORE.INTRA.POLAR.0>
0

>  <SCORE.INTRA.REPUL>
0

>  <SCORE.INTRA.REPUL.0>
0

>  <SCORE.INTRA.SOLV>
0

>  <SCORE.INTRA.SOLV.lig_0>
-47.9788

>  <SCORE.INTRA.VDW>
0

>  <SCORE.INTRA.VDW.0>
0

>  <SCORE.INTRA.norm>
0

>  <SCORE.RESTR>
0

>  <SCORE.RESTR.CAVITY>
0

>  <SCORE.RESTR.norm>
0

>  <SCORE.SYSTEM>
0

>  <SCORE.SYSTEM.CONST>
0

>  <SCORE.SYSTEM.DIHEDRAL>
0

>  <SCORE.SYSTEM.SOLV>
0

>  <SCORE.SYSTEM.norm>
0

>  <SCORE.heavy>
10

>  <SCORE.norm>
-0.669977

>  <RMSD>
2.985

$$$$
ligand
 OpenBabel02271912133D
libRbt.so/2013.1/901 2013/11/27
 10 11  0  0  0  0  0  0  0  0999 V2000
   12.5073   -4.4304    7.7015 C   0  0  1  0  0  0  0  0  0  0  0  0
   10.9947   -1.4739    6.9104 C   0  0  2  0  0  0  0  0  0  0  0  0
   11.8824   -2.5772    8.4731 C   0  0  2  0  0  0  0  0  0  0  0  0
   13.0328   -5.6556    7.5891 N   0  0  0  0  0  0  0  0  0  0  0  0
   10.5392   -1.0805    5.7251 N   0  0  0  0  0  0  0  0  0  0  0  0
   10.9353   -0.7445    8.0181 N   0  0  0  0  0  0  0  0  0  0  0  0
   12.4737   -3.7211    8.8241 N   0  0  0  0  0  0  0  0  0  0  0  0
   11.9527   -3.7234    6.6996 N   0  0  0  0  0  0  0  0  0  0  0  0
   11.4514   -1.3946    8.9383 N   0  0  0  0  0  0  0  0  0  0  0  0
   11.5906   -2.6324    7.1680 N   0  0  1  0  0  0  0  0  0  0  0  0
  1  4  1  6  0  0  0
  1  8  1  0  0  0  0
  1  7  1  0  0  0  0
  2  5  1  6  0  0  0
  2  6  1  0  0  0  0
  2 10  1  0  0  0  0
  3  7  1  1  0  0  0
  3 10  1  0  0  0  0
  3  9  1  0  0  0  0
  6  9  1  0  0  0  0
 10  8  1  1  0  0  0
M  END
>  <CHROM.1>
11.73339750,-2.73960583,7.60069465,0.30699773,1.10002527,-2.06708345

>  <Name>
ligand

>  <RI>
0

>  <Rbt.Current_Directory>
/home/itssahil/PROJECTS/Mol_Feturizer/Test_systems_manuscript/rnas/2xnw

>  <Rbt.Executable>
rbdock ($Id: //depot/dev/client3/rdock/2013.1/src/exe/rbdock.cxx#4 $)

>  <Rbt.Library>
libRbt.so (2013.1, Build901 2013/11/27)

>  <Rbt.Parameter_File>
/export/apps/rDock/src/rDock_2013.1_src/data/scripts/dock_solv.prm

>  <Rbt.Receptor>
prm/pocket_docking_8.prm

>  <SCORE>
-6.71291

>  <SCORE.INTER>
-6.71291

>  <SCORE.INTER.CONST>
1

>  <SCORE.INTER.POLAR>
0

>  <SCORE.INTER.ROT>
0

>  <SCORE.INTER.SOLV>
15.4294

>  <SCORE.INTER.VDW>
-13.2184

>  <SCORE.INTER.norm>
-0.671291

>  <SCORE.INTRA>
0

>  <SCORE.INTRA.DIHEDRAL>
0

>  <SCORE.INTRA.DIHEDRAL.0>
0

>  <SCORE.INTRA.POLAR>
0

>  <SCORE.INTRA.POLAR.0>
0

>  <SCORE.INTRA.REPUL>
0

>  <SCORE.INTRA.REPUL.0>
0

>  <SCORE.INTRA.SOLV>
0

>  <SCORE.INTRA.SOLV.lig_0>
-47.9788

>  <SCORE.INTRA.VDW>
0

>  <SCORE.INTRA.VDW.0>
0

>  <SCORE.INTRA.norm>
0

>  <SCORE.RESTR>
0

>  <SCORE.RESTR.CAVITY>
0

>  <SCORE.RESTR.norm>
0

>  <SCORE.SYSTEM>
0

>  <SCORE.SYSTEM.CONST>
0

>  <SCORE.SYSTEM.DIHEDRAL>
0

>  <SCORE.SYSTEM.SOLV>
0

>  <SCORE.SYSTEM.norm>
0

>  <SCORE.heavy>
10

>  <SCORE.norm>
-0.671291

>  <RMSD>
2.985

$$$$
ligand
 OpenBabel02271912133D
libRbt.so/2013.1/901 2013/11/27
 10 11  0  0  0  0  0  0  0  0999 V2000
   12.6286   -4.3908    7.6537 C   0  0  1  0  0  0  0  0  0  0  0  0
   10.9969   -1.4944    6.8777 C   0  0  2  0  0  0  0  0  0  0  0  0
   11.8420   -2.6126    8.4533 C   0  0  2  0  0  0  0  0  0  0  0  0
   13.2337   -5.5776    7.5293 N   0  0  0  0  0  0  0  0  0  0  0  0
   10.5996   -1.0758    5.6801 N   0  0  0  0  0  0  0  0  0  0  0  0
   10.8187   -0.8192    8.0069 N   0  0  0  0  0  0  0  0  0  0  0  0
   12.4764   -3.7349    8.7987 N   0  0  0  0  0  0  0  0  0  0  0  0
   12.1013   -3.6734    6.6446 N   0  0  0  0  0  0  0  0  0  0  0  0
   11.3098   -1.4785    8.9342 N   0  0  0  0  0  0  0  0  0  0  0  0
   11.6431   -2.6268    7.1298 N   0  0  1  0  0  0  0  0  0  0  0  0
  1  4  1  6  0  0  0
  1  8  1  0  0  0  0
  1  7  1  0  0  0  0
  2  5  1  6  0  0  0
  2  6  1  0  0  0  0
  2 10  1  0  0  0  0
  3  7  1  1  0  0  0
  3 10  1  0  0  0  0
  3  9  1  0  0  0  0
  6  9  1  0  0  0  0
 10  8  1  1  0  0  0
M  END
>  <CHROM.1>
11.76245755,-2.74464644,7.56677225,0.12157225,1.07168902,-1.86068588

>  <Name>
ligand

>  <RI>
0

>  <Rbt.Current_Directory>
/home/itssahil/PROJECTS/Mol_Feturizer/Test_systems_manuscript/rnas/2xnw

>  <Rbt.Executable>
rbdock ($Id: //depot/dev/client3/rdock/2013.1/src/exe/rbdock.cxx#4 $)

>  <Rbt.Library>
libRbt.so (2013.1, Build901 2013/11/27)

>  <Rbt.Parameter_File>
/export/apps/rDock/src/rDock_2013.1_src/data/scripts/dock_solv.prm

>  <Rbt.Receptor>
prm/blind_docking_80.prm

>  <SCORE>
-6.68302

>  <SCORE.INTER>
-6.68302

>  <SCORE.INTER.CONST>
1

>  <SCORE.INTER.POLAR>
0

>  <SCORE.INTER.ROT>
0

>  <SCORE.INTER.SOLV>
14.8625

>  <SCORE.INTER.VDW>
-13.0095

>  <SCORE.INTER.norm>
-0.668302

>  <SCORE.INTRA>
0

>  <SCORE.INTRA.DIHEDRAL>
0

>  <SCORE.INTRA.DIHEDRAL.0>
0

>  <SCORE.INTRA.POLAR>
0

>  <SCORE.INTRA.POLAR.0>
0

>  <SCORE.INTRA.REPUL>
0

>  <SCORE.INTRA.REPUL.0>
0

>  <SCORE.INTRA.SOLV>
0

>  <SCORE.INTRA.SOLV.lig_0>
-47.9788

>  <SCORE.INTRA.VDW>
0

>  <SCORE.INTRA.VDW.0>
0

>  <SCORE.INTRA.norm>
0

>  <SCORE.RESTR>
0

>  <SCORE.RESTR.CAVITY>
0

>  <SCORE.RESTR.norm>
0

>  <SCORE.SYSTEM>
0

>  <SCORE.SYSTEM.CONST>
0

>  <SCORE.SYSTEM.DIHEDRAL>
0

>  <SCORE.SYSTEM.SOLV>
0

>  <SCORE.SYSTEM.norm>
0

>  <SCORE.heavy>
10

>  <SCORE.norm>
-0.668302

>  <RMSD>
2.986

$$$$
ligand
 OpenBabel02271912133D
libRbt.so/2013.1/901 2013/11/27
 10 11  0  0  0  0  0  0  0  0999 V2000
   12.4856   -4.4560    7.7162 C   0  0  1  0  0  0  0  0  0  0  0  0
   11.0109   -1.4894    6.8919 C   0  0  2  0  0  0  0  0  0  0  0  0
   11.8243   -2.6125    8.4807 C   0  0  2  0  0  0  0  0  0  0  0  0
   13.0163   -5.6798    7.6133 N   0  0  0  0  0  0  0  0  0  0  0  0
   10.6118   -1.0810    5.6915 N   0  0  0  0  0  0  0  0  0  0  0  0
   10.8991   -0.7740    8.0047 N   0  0  0  0  0  0  0  0  0  0  0  0
   12.3989   -3.7609    8.8449 N   0  0  0  0  0  0  0  0  0  0  0  0
   11.9787   -3.7363    6.6983 N   0  0  0  0  0  0  0  0  0  0  0  0
   11.3715   -1.4357    8.9400 N   0  0  0  0  0  0  0  0  0  0  0  0
   11.5945   -2.6512    7.1628 N   0  0  1  0  0  0  0  0  0  0  0  0
  1  4  1  6  0  0  0
  1  8  1  0  0  0  0
  1  7  1  0  0  0  0
  2  5  1  6  0  0  0
  2  6  1  0  0  0  0
  2 10  1  0  0  0  0
  3  7  1  1  0  0  0
  3 10  1  0  0  0  0
  3  9  1  0  0  0  0
  6  9  1  0  0  0  0
 10  8  1  1  0  0  0
M  END
>  <CHROM.1>
11.71673592,-2.76388914,7.60032194,0.21117975,1.12038405,-1.96863044

>  <Name>
ligand

>  <RI>
0

>  <Rbt.Current_Directory>
/home/itssahil/PROJECTS/Mol_Feturizer/Test_systems_manuscript/rnas/2xnw

>  <Rbt.Executable>
rbdock ($Id: //depot/dev/client3/rdock/2013.1/src/exe/rbdock.cxx#4 $)

>  <Rbt.Library>
libRbt.so (2013.1, Build901 2013/11/27)

>  <Rbt.Parameter_File>
/export/apps/rDock/src/rDock_2013.1_src/data/scripts/dock_solv.prm

>  <Rbt.Receptor>
prm/pocket_docking_4.prm

>  <SCORE>
-6.67884

>  <SCORE.INTER>
-6.67884

>  <SCORE.INTER.CONST>
1

>  <SCORE.INTER.POLAR>
0

>  <SCORE.INTER.ROT>
0

>  <SCORE.INTER.SOLV>
15.667

>  <SCORE.INTER.VDW>
-13.2749

>  <SCORE.INTER.norm>
-0.667884

>  <SCORE.INTRA>
0

>  <SCORE.INTRA.DIHEDRAL>
0

>  <SCORE.INTRA.DIHEDRAL.0>
0

>  <SCORE.INTRA.POLAR>
0

>  <SCORE.INTRA.POLAR.0>
0

>  <SCORE.INTRA.REPUL>
0

>  <SCORE.INTRA.REPUL.0>
0

>  <SCORE.INTRA.SOLV>
0

>  <SCORE.INTRA.SOLV.lig_0>
-47.9788

>  <SCORE.INTRA.VDW>
0

>  <SCORE.INTRA.VDW.0>
0

>  <SCORE.INTRA.norm>
0

>  <SCORE.RESTR>
0

>  <SCORE.RESTR.CAVITY>
0

>  <SCORE.RESTR.norm>
0

>  <SCORE.SYSTEM>
0

>  <SCORE.SYSTEM.CONST>
0

>  <SCORE.SYSTEM.DIHEDRAL>
0

>  <SCORE.SYSTEM.SOLV>
0

>  <SCORE.SYSTEM.norm>
0

>  <SCORE.heavy>
10

>  <SCORE.norm>
-0.667884

>  <RMSD>
2.987

$$$$
ligand
 OpenBabel02271912133D
libRbt.so/2013.1/901 2013/11/27
 10 11  0  0  0  0  0  0  0  0999 V2000
   12.5012   -4.4344    7.7008 C   0  0  1  0  0  0  0  0  0  0  0  0
   10.9759   -1.4845    6.9100 C   0  0  2  0  0  0  0  0  0  0  0  0
   11.8579   -2.5887    8.4752 C   0  0  2  0  0  0  0  0  0  0  0  0
   13.0357   -5.6557    7.5874 N   0  0  0  0  0  0  0  0  0  0  0  0
   10.5276   -1.0888    5.7226 N   0  0  0  0  0  0  0  0  0  0  0  0
   10.9025   -0.7603    8.0203 N   0  0  0  0  0  0  0  0  0  0  0  0
   12.4538   -3.7303    8.8262 N   0  0  0  0  0  0  0  0  0  0  0  0
   11.9504   -3.7267    6.6974 N   0  0  0  0  0  0  0  0  0  0  0  0
   11.4153   -1.4110    8.9420 N   0  0  0  0  0  0  0  0  0  0  0  0
   11.5773   -2.6401    7.1675 N   0  0  1  0  0  0  0  0  0  0  0  0
  1  4  1  6  0  0  0
  1  8  1  0  0  0  0
  1  7  1  0  0  0  0
  2  5  1  6  0  0  0
  2  6  1  0  0  0  0
  2 10  1  0  0  0  0
  3  7  1  1  0  0  0
  3 10  1  0  0  0  0
  3  9  1  0  0  0  0
  6  9  1  0  0  0  0
 10  8  1  1  0  0  0
M  END
>  <CHROM.1>
11.71713700,-2.74830410,7.60090267,0.28421213,1.09808059,-2.04243799

>  <Name>
ligand

>  <RI>
0

>  <Rbt.Current_Directory>
/home/itssahil/PROJECTS/Mol_Feturizer/Test_systems_manuscript/rnas/2xnw

>  <Rbt.Executable>
rbdock ($Id: //depot/dev/client3/rdock/2013.1/src/exe/rbdock.cxx#4 $)

>  <Rbt.Library>
libRbt.so (2013.1, Build901 2013/11/27)

>  <Rbt.Parameter_File>
/export/apps/rDock/src/rDock_2013.1_src/data/scripts/dock_solv.prm

>  <Rbt.Receptor>
prm/pocket_docking_6.prm

>  <SCORE>
-6.70602

>  <SCORE.INTER>
-6.70602

>  <SCORE.INTER.CONST>
1

>  <SCORE.INTER.POLAR>
0

>  <SCORE.INTER.ROT>
0

>  <SCORE.INTER.SOLV>
15.3927

>  <SCORE.INTER.VDW>
-13.2016

>  <SCORE.INTER.norm>
-0.670602

>  <SCORE.INTRA>
0

>  <SCORE.INTRA.DIHEDRAL>
0

>  <SCORE.INTRA.DIHEDRAL.0>
0

>  <SCORE.INTRA.POLAR>
0

>  <SCORE.INTRA.POLAR.0>
0

>  <SCORE.INTRA.REPUL>
0

>  <SCORE.INTRA.REPUL.0>
0

>  <SCORE.INTRA.SOLV>
0

>  <SCORE.INTRA.SOLV.lig_0>
-47.9788

>  <SCORE.INTRA.VDW>
0

>  <SCORE.INTRA.VDW.0>
0

>  <SCORE.INTRA.norm>
0

>  <SCORE.RESTR>
0

>  <SCORE.RESTR.CAVITY>
0

>  <SCORE.RESTR.norm>
0

>  <SCORE.SYSTEM>
0

>  <SCORE.SYSTEM.CONST>
0

>  <SCORE.SYSTEM.DIHEDRAL>
0

>  <SCORE.SYSTEM.SOLV>
0

>  <SCORE.SYSTEM.norm>
0

>  <SCORE.heavy>
10

>  <SCORE.norm>
-0.670602

>  <RMSD>
2.987

$$$$
ligand
 OpenBabel02271912133D
libRbt.so/2013.1/901 2013/11/27
 10 11  0  0  0  0  0  0  0  0999 V2000
   12.4973   -4.4449    7.7058 C   0  0  1  0  0  0  0  0  0  0  0  0
   10.9957   -1.4867    6.9001 C   0  0  2  0  0  0  0  0  0  0  0  0
   11.8514   -2.5979    8.4750 C   0  0  2  0  0  0  0  0  0  0  0  0
   13.0279   -5.6683    7.5973 N   0  0  0  0  0  0  0  0  0  0  0  0
   10.5655   -1.0868    5.7075 N   0  0  0  0  0  0  0  0  0  0  0  0
   10.9103   -0.7644    8.0108 N   0  0  0  0  0  0  0  0  0  0  0  0
   12.4375   -3.7427    8.8318 N   0  0  0  0  0  0  0  0  0  0  0  0
   11.9632   -3.7328    6.6964 N   0  0  0  0  0  0  0  0  0  0  0  0
   11.4076   -1.4191    8.9380 N   0  0  0  0  0  0  0  0  0  0  0  0
   11.5885   -2.6455    7.1635 N   0  0  1  0  0  0  0  0  0  0  0  0
  1  4  1  6  0  0  0
  1  8  1  0  0  0  0
  1  7  1  0  0  0  0
  2  5  1  6  0  0  0
  2  6  1  0  0  0  0
  2 10  1  0  0  0  0
  3  7  1  1  0  0  0
  3 10  1  0  0  0  0
  3  9  1  0  0  0  0
  6  9  1  0  0  0  0
 10  8  1  1  0  0  0
M  END
>  <CHROM.1>
11.72194220,-2.75515654,7.59856574,0.26134203,1.10805776,-2.02005563

>  <Name>
ligand

>  <RI>
0

>  <Rbt.Current_Directory>
/home/itssahil/PROJECTS/Mol_Feturizer/Test_systems_manuscript/rnas/2xnw

>  <Rbt.Executable>
rbdock ($Id: //depot/dev/client3/rdock/2013.1/src/exe/rbdock.cxx#4 $)

>  <Rbt.Library>
libRbt.so (2013.1, Build901 2013/11/27)

>  <Rbt.Parameter_File>
/export/apps/rDock/src/rDock_2013.1_src/data/scripts/dock_solv.prm

>  <Rbt.Receptor>
prm/pocket_docking_8.prm

>  <SCORE>
-6.69732

>  <SCORE.INTER>
-6.69732

>  <SCORE.INTER.CONST>
1

>  <SCORE.INTER.POLAR>
0

>  <SCORE.INTER.ROT>
0

>  <SCORE.INTER.SOLV>
15.5068

>  <SCORE.INTER.VDW>
-13.2338

>  <SCORE.INTER.norm>
-0.669732

>  <SCORE.INTRA>
0

>  <SCORE.INTRA.DIHEDRAL>
0

>  <SCORE.INTRA.DIHEDRAL.0>
0

>  <SCORE.INTRA.POLAR>
0

>  <SCORE.INTRA.POLAR.0>
0

>  <SCORE.INTRA.REPUL>
0

>  <SCORE.INTRA.REPUL.0>
0

>  <SCORE.INTRA.SOLV>
0

>  <SCORE.INTRA.SOLV.lig_0>
-47.9788

>  <SCORE.INTRA.VDW>
0

>  <SCORE.INTRA.VDW.0>
0

>  <SCORE.INTRA.norm>
0

>  <SCORE.RESTR>
0

>  <SCORE.RESTR.CAVITY>
0

>  <SCORE.RESTR.norm>
0

>  <SCORE.SYSTEM>
0

>  <SCORE.SYSTEM.CONST>
0

>  <SCORE.SYSTEM.DIHEDRAL>
0

>  <SCORE.SYSTEM.SOLV>
0

>  <SCORE.SYSTEM.norm>
0

>  <SCORE.heavy>
10

>  <SCORE.norm>
-0.669732

>  <RMSD>
2.987

$$$$
ligand
 OpenBabel02271912133D
libRbt.so/2013.1/901 2013/11/27
 10 11  0  0  0  0  0  0  0  0999 V2000
   12.6476   -4.4074    7.7021 C   0  0  1  0  0  0  0  0  0  0  0  0
   10.9999   -1.5142    6.9480 C   0  0  2  0  0  0  0  0  0  0  0  0
   11.8882   -2.6203    8.5083 C   0  0  2  0  0  0  0  0  0  0  0  0
   13.2464   -5.5966    7.5709 N   0  0  0  0  0  0  0  0  0  0  0  0
   10.5689   -1.1054    5.7587 N   0  0  0  0  0  0  0  0  0  0  0  0
   10.8560   -0.8286    8.0758 N   0  0  0  0  0  0  0  0  0  0  0  0
   12.5301   -3.7410    8.8452 N   0  0  0  0  0  0  0  0  0  0  0  0
   12.0927   -3.6978    6.7024 N   0  0  0  0  0  0  0  0  0  0  0  0
   11.3725   -1.4808    8.9943 N   0  0  0  0  0  0  0  0  0  0  0  0
   11.6508   -2.6458    7.1913 N   0  0  1  0  0  0  0  0  0  0  0  0
  1  4  1  6  0  0  0
  1  8  1  0  0  0  0
  1  7  1  0  0  0  0
  2  5  1  6  0  0  0
  2  6  1  0  0  0  0
  2 10  1  0  0  0  0
  3  7  1  1  0  0  0
  3 10  1  0  0  0  0
  3  9  1  0  0  0  0
  6  9  1  0  0  0  0
 10  8  1  1  0  0  0
M  END
>  <CHROM.1>
11.78265261,-2.76006841,7.62567844,0.18023630,1.06460697,-1.92101731

>  <Name>
ligand

>  <RI>
0

>  <Rbt.Current_Directory>
/home/itssahil/PROJECTS/Mol_Feturizer/Test_systems_manuscript/rnas/2xnw

>  <Rbt.Executable>
rbdock ($Id: //depot/dev/client3/rdock/2013.1/src/exe/rbdock.cxx#4 $)

>  <Rbt.Library>
libRbt.so (2013.1, Build901 2013/11/27)

>  <Rbt.Parameter_File>
/export/apps/rDock/src/rDock_2013.1_src/data/scripts/dock_solv.prm

>  <Rbt.Receptor>
prm/pocket_docking_6.prm

>  <SCORE>
-6.68625

>  <SCORE.INTER>
-6.68625

>  <SCORE.INTER.CONST>
1

>  <SCORE.INTER.POLAR>
0

>  <SCORE.INTER.ROT>
0

>  <SCORE.INTER.SOLV>
14.5776

>  <SCORE.INTER.VDW>
-12.9167

>  <SCORE.INTER.norm>
-0.668625

>  <SCORE.INTRA>
0

>  <SCORE.INTRA.DIHEDRAL>
0

>  <SCORE.INTRA.DIHEDRAL.0>
0

>  <SCORE.INTRA.POLAR>
0

>  <SCORE.INTRA.POLAR.0>
0

>  <SCORE.INTRA.REPUL>
0

>  <SCORE.INTRA.REPUL.0>
0

>  <SCORE.INTRA.SOLV>
0

>  <SCORE.INTRA.SOLV.lig_0>
-47.9788

>  <SCORE.INTRA.VDW>
0

>  <SCORE.INTRA.VDW.0>
0

>  <SCORE.INTRA.norm>
0

>  <SCORE.RESTR>
0

>  <SCORE.RESTR.CAVITY>
0

>  <SCORE.RESTR.norm>
0

>  <SCORE.SYSTEM>
0

>  <SCORE.SYSTEM.CONST>
0

>  <SCORE.SYSTEM.DIHEDRAL>
0

>  <SCORE.SYSTEM.SOLV>
0

>  <SCORE.SYSTEM.norm>
0

>  <SCORE.heavy>
10

>  <SCORE.norm>
-0.668625

>  <RMSD>
2.988

$$$$
ligand
 OpenBabel02271912133D
libRbt.so/2013.1/901 2013/11/27
 10 11  0  0  0  0  0  0  0  0999 V2000
   12.6465   -4.3686    7.6218 C   0  0  1  0  0  0  0  0  0  0  0  0
   10.9895   -1.4801    6.8699 C   0  0  2  0  0  0  0  0  0  0  0  0
   11.8349   -2.6090    8.4377 C   0  0  2  0  0  0  0  0  0  0  0  0
   13.2652   -5.5472    7.4872 N   0  0  0  0  0  0  0  0  0  0  0  0
   10.5967   -1.0507    5.6747 N   0  0  0  0  0  0  0  0  0  0  0  0
   10.7958   -0.8211    8.0061 N   0  0  0  0  0  0  0  0  0  0  0  0
   12.4788   -3.7289    8.7738 N   0  0  0  0  0  0  0  0  0  0  0  0
   12.1190   -3.6441    6.6178 N   0  0  0  0  0  0  0  0  0  0  0  0
   11.2871   -1.4868    8.9288 N   0  0  0  0  0  0  0  0  0  0  0  0
   11.6460   -2.6087    7.1126 N   0  0  1  0  0  0  0  0  0  0  0  0
  1  4  1  6  0  0  0
  1  8  1  0  0  0  0
  1  7  1  0  0  0  0
  2  5  1  6  0  0  0
  2  6  1  0  0  0  0
  2 10  1  0  0  0  0
  3  7  1  1  0  0  0
  3 10  1  0  0  0  0
  3  9  1  0  0  0  0
  6  9  1  0  0  0  0
 10  8  1  1  0  0  0
M  END
>  <CHROM.1>
11.76336849,-2.73073850,7.54901968,0.10062036,1.06343782,-1.82974561

>  <Name>
ligand

>  <RI>
0

>  <Rbt.Current_Directory>
/home/itssahil/PROJECTS/Mol_Feturizer/Test_systems_manuscript/rnas/2xnw

>  <Rbt.Executable>
rbdock ($Id: //depot/dev/client3/rdock/2013.1/src/exe/rbdock.cxx#4 $)

>  <Rbt.Library>
libRbt.so (2013.1, Build901 2013/11/27)

>  <Rbt.Parameter_File>
/export/apps/rDock/src/rDock_2013.1_src/data/scripts/dock_solv.prm

>  <Rbt.Receptor>
prm/pocket_docking_7.prm

>  <SCORE>
-6.73461

>  <SCORE.INTER>
-6.73461

>  <SCORE.INTER.CONST>
1

>  <SCORE.INTER.POLAR>
0

>  <SCORE.INTER.ROT>
0

>  <SCORE.INTER.SOLV>
14.8318

>  <SCORE.INTER.VDW>
-13.0337

>  <SCORE.INTER.norm>
-0.673461

>  <SCORE.INTRA>
0

>  <SCORE.INTRA.DIHEDRAL>
0

>  <SCORE.INTRA.DIHEDRAL.0>
0

>  <SCORE.INTRA.POLAR>
0

>  <SCORE.INTRA.POLAR.0>
0

>  <SCORE.INTRA.REPUL>
0

>  <SCORE.INTRA.REPUL.0>
0

>  <SCORE.INTRA.SOLV>
0

>  <SCORE.INTRA.SOLV.lig_0>
-47.9788

>  <SCORE.INTRA.VDW>
0

>  <SCORE.INTRA.VDW.0>
0

>  <SCORE.INTRA.norm>
0

>  <SCORE.RESTR>
0

>  <SCORE.RESTR.CAVITY>
0

>  <SCORE.RESTR.norm>
0

>  <SCORE.SYSTEM>
0

>  <SCORE.SYSTEM.CONST>
0

>  <SCORE.SYSTEM.DIHEDRAL>
0

>  <SCORE.SYSTEM.SOLV>
0

>  <SCORE.SYSTEM.norm>
0

>  <SCORE.heavy>
10

>  <SCORE.norm>
-0.673461

>  <RMSD>
2.988

$$$$
ligand
 OpenBabel02271912133D
libRbt.so/2013.1/901 2013/11/27
 10 11  0  0  0  0  0  0  0  0999 V2000
   12.5061   -4.4323    7.6856 C   0  0  1  0  0  0  0  0  0  0  0  0
   10.9874   -1.4771    6.9016 C   0  0  2  0  0  0  0  0  0  0  0  0
   11.8340   -2.6018    8.4718 C   0  0  2  0  0  0  0  0  0  0  0  0
   13.0493   -5.6492    7.5672 N   0  0  0  0  0  0  0  0  0  0  0  0
   10.5680   -1.0649    5.7094 N   0  0  0  0  0  0  0  0  0  0  0  0
   10.8819   -0.7707    8.0209 N   0  0  0  0  0  0  0  0  0  0  0  0
   12.4263   -3.7461    8.8203 N   0  0  0  0  0  0  0  0  0  0  0  0
   11.9779   -3.7114    6.6795 N   0  0  0  0  0  0  0  0  0  0  0  0
   11.3739   -1.4335    8.9452 N   0  0  0  0  0  0  0  0  0  0  0  0
   11.5875   -2.6339    7.1566 N   0  0  1  0  0  0  0  0  0  0  0  0
  1  4  1  6  0  0  0
  1  8  1  0  0  0  0
  1  7  1  0  0  0  0
  2  5  1  6  0  0  0
  2  6  1  0  0  0  0
  2 10  1  0  0  0  0
  3  7  1  1  0  0  0
  3 10  1  0  0  0  0
  3  9  1  0  0  0  0
  6  9  1  0  0  0  0
 10  8  1  1  0  0  0
M  END
>  <CHROM.1>
11.71669759,-2.74827848,7.59177262,0.22815238,1.10484852,-1.97682203

>  <Name>
ligand

>  <RI>
0

>  <Rbt.Current_Directory>
/home/itssahil/PROJECTS/Mol_Feturizer/Test_systems_manuscript/rnas/2xnw

>  <Rbt.Executable>
rbdock ($Id: //depot/dev/client3/rdock/2013.1/src/exe/rbdock.cxx#4 $)

>  <Rbt.Library>
libRbt.so (2013.1, Build901 2013/11/27)

>  <Rbt.Parameter_File>
/export/apps/rDock/src/rDock_2013.1_src/data/scripts/dock_solv.prm

>  <Rbt.Receptor>
prm/pocket_docking_4.prm

>  <SCORE>
-6.65764

>  <SCORE.INTER>
-6.65764

>  <SCORE.INTER.CONST>
1

>  <SCORE.INTER.POLAR>
0

>  <SCORE.INTER.ROT>
0

>  <SCORE.INTER.SOLV>
15.4891

>  <SCORE.INTER.VDW>
-13.2015

>  <SCORE.INTER.norm>
-0.665764

>  <SCORE.INTRA>
0

>  <SCORE.INTRA.DIHEDRAL>
0

>  <SCORE.INTRA.DIHEDRAL.0>
0

>  <SCORE.INTRA.POLAR>
0

>  <SCORE.INTRA.POLAR.0>
0

>  <SCORE.INTRA.REPUL>
0

>  <SCORE.INTRA.REPUL.0>
0

>  <SCORE.INTRA.SOLV>
0

>  <SCORE.INTRA.SOLV.lig_0>
-47.9788

>  <SCORE.INTRA.VDW>
0

>  <SCORE.INTRA.VDW.0>
0

>  <SCORE.INTRA.norm>
0

>  <SCORE.RESTR>
0

>  <SCORE.RESTR.CAVITY>
0

>  <SCORE.RESTR.norm>
0

>  <SCORE.SYSTEM>
0

>  <SCORE.SYSTEM.CONST>
0

>  <SCORE.SYSTEM.DIHEDRAL>
0

>  <SCORE.SYSTEM.SOLV>
0

>  <SCORE.SYSTEM.norm>
0

>  <SCORE.heavy>
10

>  <SCORE.norm>
-0.665764

>  <RMSD>
2.989

$$$$
ligand
 OpenBabel02271912133D
libRbt.so/2013.1/901 2013/11/27
 10 11  0  0  0  0  0  0  0  0999 V2000
   12.5828   -4.4499    7.7354 C   0  0  1  0  0  0  0  0  0  0  0  0
   11.0129   -1.5269    6.9316 C   0  0  2  0  0  0  0  0  0  0  0  0
   11.8561   -2.6371    8.5139 C   0  0  2  0  0  0  0  0  0  0  0  0
   13.1550   -5.6541    7.6237 N   0  0  0  0  0  0  0  0  0  0  0  0
   10.6059   -1.1207    5.7331 N   0  0  0  0  0  0  0  0  0  0  0  0
   10.8717   -0.8263    8.0505 N   0  0  0  0  0  0  0  0  0  0  0  0
   12.4673   -3.7689    8.8701 N   0  0  0  0  0  0  0  0  0  0  0  0
   12.0568   -3.7380    6.7217 N   0  0  0  0  0  0  0  0  0  0  0  0
   11.3616   -1.4807    8.9819 N   0  0  0  0  0  0  0  0  0  0  0  0
   11.6340   -2.6709    7.1944 N   0  0  1  0  0  0  0  0  0  0  0  0
  1  4  1  6  0  0  0
  1  8  1  0  0  0  0
  1  7  1  0  0  0  0
  2  5  1  6  0  0  0
  2  6  1  0  0  0  0
  2 10  1  0  0  0  0
  3  7  1  1  0  0  0
  3 10  1  0  0  0  0
  3  9  1  0  0  0  0
  6  9  1  0  0  0  0
 10  8  1  1  0  0  0
M  END
>  <CHROM.1>
11.75786326,-2.78358795,7.63154979,0.17337851,1.09083674,-1.92535054

>  <Name>
ligand

>  <RI>
0

>  <Rbt.Current_Directory>
/home/itssahil/PROJECTS/Mol_Feturizer/Test_systems_manuscript/rnas/2xnw

>  <Rbt.Executable>
rbdock ($Id: //depot/dev/client3/rdock/2013.1/src/exe/rbdock.cxx#4 $)

>  <Rbt.Library>
libRbt.so (2013.1, Build901 2013/11/27)

>  <Rbt.Parameter_File>
/export/apps/rDock/src/rDock_2013.1_src/data/scripts/dock_solv.prm

>  <Rbt.Receptor>
prm/pocket_docking_7.prm

>  <SCORE>
-6.69823

>  <SCORE.INTER>
-6.69823

>  <SCORE.INTER.CONST>
1

>  <SCORE.INTER.POLAR>
0

>  <SCORE.INTER.ROT>
0

>  <SCORE.INTER.SOLV>
14.9863

>  <SCORE.INTER.VDW>
-13.0609

>  <SCORE.INTER.norm>
-0.669823

>  <SCORE.INTRA>
0

>  <SCORE.INTRA.DIHEDRAL>
0

>  <SCORE.INTRA.DIHEDRAL.0>
0

>  <SCORE.INTRA.POLAR>
0

>  <SCORE.INTRA.POLAR.0>
0

>  <SCORE.INTRA.REPUL>
0

>  <SCORE.INTRA.REPUL.0>
0

>  <SCORE.INTRA.SOLV>
0

>  <SCORE.INTRA.SOLV.lig_0>
-47.9788

>  <SCORE.INTRA.VDW>
0

>  <SCORE.INTRA.VDW.0>
0

>  <SCORE.INTRA.norm>
0

>  <SCORE.RESTR>
0

>  <SCORE.RESTR.CAVITY>
0

>  <SCORE.RESTR.norm>
0

>  <SCORE.SYSTEM>
0

>  <SCORE.SYSTEM.CONST>
0

>  <SCORE.SYSTEM.DIHEDRAL>
0

>  <SCORE.SYSTEM.SOLV>
0

>  <SCORE.SYSTEM.norm>
0

>  <SCORE.heavy>
10

>  <SCORE.norm>
-0.669823

>  <RMSD>
2.989

$$$$
ligand
 OpenBabel02271912133D
libRbt.so/2013.1/901 2013/11/27
 10 11  0  0  0  0  0  0  0  0999 V2000
   12.6081   -4.4325    7.7123 C   0  0  1  0  0  0  0  0  0  0  0  0
   11.0328   -1.5032    6.9428 C   0  0  2  0  0  0  0  0  0  0  0  0
   11.8625   -2.6379    8.5148 C   0  0  2  0  0  0  0  0  0  0  0  0
   13.1879   -5.6316    7.5857 N   0  0  0  0  0  0  0  0  0  0  0  0
   10.6384   -1.0771    5.7469 N   0  0  0  0  0  0  0  0  0  0  0  0
   10.8743   -0.8239    8.0725 N   0  0  0  0  0  0  0  0  0  0  0  0
   12.4753   -3.7730    8.8578 N   0  0  0  0  0  0  0  0  0  0  0  0
   12.0908   -3.7048    6.7054 N   0  0  0  0  0  0  0  0  0  0  0  0
   11.3563   -1.4928    8.9977 N   0  0  0  0  0  0  0  0  0  0  0  0
   11.6567   -2.6487    7.1923 N   0  0  1  0  0  0  0  0  0  0  0  0
  1  4  1  6  0  0  0
  1  8  1  0  0  0  0
  1  7  1  0  0  0  0
  2  5  1  6  0  0  0
  2  6  1  0  0  0  0
  2 10  1  0  0  0  0
  3  7  1  1  0  0  0
  3 10  1  0  0  0  0
  3  9  1  0  0  0  0
  6  9  1  0  0  0  0
 10  8  1  1  0  0  0
M  END
>  <CHROM.1>
11.77579846,-2.76873571,7.62877246,0.14470730,1.08999352,-1.88163646

>  <Name>
ligand

>  <RI>
0

>  <Rbt.Current_Directory>
/home/itssahil/PROJECTS/Mol_Feturizer/Test_systems_manuscript/rnas/2xnw

>  <Rbt.Executable>
rbdock ($Id: //depot/dev/client3/rdock/2013.1/src/exe/rbdock.cxx#4 $)

>  <Rbt.Library>
libRbt.so (2013.1, Build901 2013/11/27)

>  <Rbt.Parameter_File>
/export/apps/rDock/src/rDock_2013.1_src/data/scripts/dock_solv.prm

>  <Rbt.Receptor>
prm/pocket_docking_4.prm

>  <SCORE>
-6.6383

>  <SCORE.INTER>
-6.6383

>  <SCORE.INTER.CONST>
1

>  <SCORE.INTER.POLAR>
0

>  <SCORE.INTER.ROT>
0

>  <SCORE.INTER.SOLV>
14.9994

>  <SCORE.INTER.VDW>
-13.0253

>  <SCORE.INTER.norm>
-0.66383

>  <SCORE.INTRA>
0

>  <SCORE.INTRA.DIHEDRAL>
0

>  <SCORE.INTRA.DIHEDRAL.0>
0

>  <SCORE.INTRA.POLAR>
0

>  <SCORE.INTRA.POLAR.0>
0

>  <SCORE.INTRA.REPUL>
0

>  <SCORE.INTRA.REPUL.0>
0

>  <SCORE.INTRA.SOLV>
0

>  <SCORE.INTRA.SOLV.lig_0>
-47.9788

>  <SCORE.INTRA.VDW>
0

>  <SCORE.INTRA.VDW.0>
0

>  <SCORE.INTRA.norm>
0

>  <SCORE.RESTR>
0

>  <SCORE.RESTR.CAVITY>
0

>  <SCORE.RESTR.norm>
0

>  <SCORE.SYSTEM>
0

>  <SCORE.SYSTEM.CONST>
0

>  <SCORE.SYSTEM.DIHEDRAL>
0

>  <SCORE.SYSTEM.SOLV>
0

>  <SCORE.SYSTEM.norm>
0

>  <SCORE.heavy>
10

>  <SCORE.norm>
-0.66383

>  <RMSD>
2.991

$$$$
ligand
 OpenBabel02271912133D
libRbt.so/2013.1/901 2013/11/27
 10 11  0  0  0  0  0  0  0  0999 V2000
   12.4857   -4.4537    7.7159 C   0  0  1  0  0  0  0  0  0  0  0  0
   11.0003   -1.4798    6.9390 C   0  0  2  0  0  0  0  0  0  0  0  0
   11.8960   -2.5907    8.4916 C   0  0  2  0  0  0  0  0  0  0  0  0
   12.9937   -5.6859    7.5991 N   0  0  0  0  0  0  0  0  0  0  0  0
   10.5330   -1.0833    5.7593 N   0  0  0  0  0  0  0  0  0  0  0  0
   10.9662   -0.7470    8.0456 N   0  0  0  0  0  0  0  0  0  0  0  0
   12.4775   -3.7414    8.8371 N   0  0  0  0  0  0  0  0  0  0  0  0
   11.9260   -3.7420    6.7203 N   0  0  0  0  0  0  0  0  0  0  0  0
   11.4871   -1.4015    8.9599 N   0  0  0  0  0  0  0  0  0  0  0  0
   11.5848   -2.6452    7.1910 N   0  0  1  0  0  0  0  0  0  0  0  0
  1  4  1  6  0  0  0
  1  8  1  0  0  0  0
  1  7  1  0  0  0  0
  2  5  1  6  0  0  0
  2  6  1  0  0  0  0
  2 10  1  0  0  0  0
  3  7  1  1  0  0  0
  3 10  1  0  0  0  0
  3  9  1  0  0  0  0
  6  9  1  0  0  0  0
 10  8  1  1  0  0  0
M  END
>  <CHROM.1>
11.73238875,-2.75327809,7.62187685,0.34876922,1.10420434,-2.10683225

>  <Name>
ligand

>  <RI>
0

>  <Rbt.Current_Directory>
/home/itssahil/PROJECTS/Mol_Feturizer/Test_systems_manuscript/rnas/2xnw

>  <Rbt.Executable>
rbdock ($Id: //depot/dev/client3/rdock/2013.1/src/exe/rbdock.cxx#4 $)

>  <Rbt.Library>
libRbt.so (2013.1, Build901 2013/11/27)

>  <Rbt.Parameter_File>
/export/apps/rDock/src/rDock_2013.1_src/data/scripts/dock_solv.prm

>  <Rbt.Receptor>
prm/pocket_docking_5.prm

>  <SCORE>
-6.71011

>  <SCORE.INTER>
-6.71011

>  <SCORE.INTER.CONST>
1

>  <SCORE.INTER.POLAR>
0

>  <SCORE.INTER.ROT>
0

>  <SCORE.INTER.SOLV>
15.4946

>  <SCORE.INTER.VDW>
-13.2383

>  <SCORE.INTER.norm>
-0.671011

>  <SCORE.INTRA>
0

>  <SCORE.INTRA.DIHEDRAL>
0

>  <SCORE.INTRA.DIHEDRAL.0>
0

>  <SCORE.INTRA.POLAR>
0

>  <SCORE.INTRA.POLAR.0>
0

>  <SCORE.INTRA.REPUL>
0

>  <SCORE.INTRA.REPUL.0>
0

>  <SCORE.INTRA.SOLV>
0

>  <SCORE.INTRA.SOLV.lig_0>
-47.9788

>  <SCORE.INTRA.VDW>
0

>  <SCORE.INTRA.VDW.0>
0

>  <SCORE.INTRA.norm>
0

>  <SCORE.RESTR>
0

>  <SCORE.RESTR.CAVITY>
0

>  <SCORE.RESTR.norm>
0

>  <SCORE.SYSTEM>
0

>  <SCORE.SYSTEM.CONST>
0

>  <SCORE.SYSTEM.DIHEDRAL>
0

>  <SCORE.SYSTEM.SOLV>
0

>  <SCORE.SYSTEM.norm>
0

>  <SCORE.heavy>
10

>  <SCORE.norm>
-0.671011

>  <RMSD>
2.991

$$$$
ligand
 OpenBabel02271912133D
libRbt.so/2013.1/901 2013/11/27
 10 11  0  0  0  0  0  0  0  0999 V2000
   12.6249   -4.3852    7.6252 C   0  0  1  0  0  0  0  0  0  0  0  0
   10.9900   -1.4841    6.8733 C   0  0  2  0  0  0  0  0  0  0  0  0
   11.8380   -2.6137    8.4393 C   0  0  2  0  0  0  0  0  0  0  0  0
   13.2307   -5.5706    7.4911 N   0  0  0  0  0  0  0  0  0  0  0  0
   10.5909   -1.0568    5.6794 N   0  0  0  0  0  0  0  0  0  0  0  0
   10.8128   -0.8177    8.0078 N   0  0  0  0  0  0  0  0  0  0  0  0
   12.4737   -3.7381    8.7754 N   0  0  0  0  0  0  0  0  0  0  0  0
   12.0958   -3.6606    6.6222 N   0  0  0  0  0  0  0  0  0  0  0  0
   11.3056   -1.4836    8.9295 N   0  0  0  0  0  0  0  0  0  0  0  0
   11.6374   -2.6180    7.1160 N   0  0  1  0  0  0  0  0  0  0  0  0
  1  4  1  6  0  0  0
  1  8  1  0  0  0  0
  1  7  1  0  0  0  0
  2  5  1  6  0  0  0
  2  6  1  0  0  0  0
  2 10  1  0  0  0  0
  3  7  1  1  0  0  0
  3 10  1  0  0  0  0
  3  9  1  0  0  0  0
  6  9  1  0  0  0  0
 10  8  1  1  0  0  0
M  END
>  <CHROM.1>
11.75740693,-2.73904989,7.55189110,0.12369524,1.07062558,-1.85496765

>  <Name>
ligand

>  <RI>
0

>  <Rbt.Current_Directory>
/home/itssahil/PROJECTS/Mol_Feturizer/Test_systems_manuscript/rnas/2xnw

>  <Rbt.Executable>
rbdock ($Id: //depot/dev/client3/rdock/2013.1/src/exe/rbdock.cxx#4 $)

>  <Rbt.Library>
libRbt.so (2013.1, Build901 2013/11/27)

>  <Rbt.Parameter_File>
/export/apps/rDock/src/rDock_2013.1_src/data/scripts/dock_solv.prm

>  <Rbt.Receptor>
prm/pocket_docking_6.prm

>  <SCORE>
-6.71816

>  <SCORE.INTER>
-6.71816

>  <SCORE.INTER.CONST>
1

>  <SCORE.INTER.POLAR>
0

>  <SCORE.INTER.ROT>
0

>  <SCORE.INTER.SOLV>
14.8935

>  <SCORE.INTER.VDW>
-13.0433

>  <SCORE.INTER.norm>
-0.671816

>  <SCORE.INTRA>
0

>  <SCORE.INTRA.DIHEDRAL>
0

>  <SCORE.INTRA.DIHEDRAL.0>
0

>  <SCORE.INTRA.POLAR>
0

>  <SCORE.INTRA.POLAR.0>
0

>  <SCORE.INTRA.REPUL>
0

>  <SCORE.INTRA.REPUL.0>
0

>  <SCORE.INTRA.SOLV>
0

>  <SCORE.INTRA.SOLV.lig_0>
-47.9788

>  <SCORE.INTRA.VDW>
0

>  <SCORE.INTRA.VDW.0>
0

>  <SCORE.INTRA.norm>
0

>  <SCORE.RESTR>
0

>  <SCORE.RESTR.CAVITY>
0

>  <SCORE.RESTR.norm>
0

>  <SCORE.SYSTEM>
0

>  <SCORE.SYSTEM.CONST>
0

>  <SCORE.SYSTEM.DIHEDRAL>
0

>  <SCORE.SYSTEM.SOLV>
0

>  <SCORE.SYSTEM.norm>
0

>  <SCORE.heavy>
10

>  <SCORE.norm>
-0.671816

>  <RMSD>
2.991

$$$$
ligand
 OpenBabel02271912133D
libRbt.so/2013.1/901 2013/11/27
 10 11  0  0  0  0  0  0  0  0999 V2000
   12.5714   -4.4445    7.7285 C   0  0  1  0  0  0  0  0  0  0  0  0
   11.0040   -1.5109    6.9593 C   0  0  2  0  0  0  0  0  0  0  0  0
   11.8593   -2.6342    8.5258 C   0  0  2  0  0  0  0  0  0  0  0  0
   13.1380   -5.6501    7.6033 N   0  0  0  0  0  0  0  0  0  0  0  0
   10.5862   -1.0956    5.7675 N   0  0  0  0  0  0  0  0  0  0  0  0
   10.8768   -0.8170    8.0840 N   0  0  0  0  0  0  0  0  0  0  0  0
   12.4700   -3.7704    8.8686 N   0  0  0  0  0  0  0  0  0  0  0  0
   12.0376   -3.7243    6.7248 N   0  0  0  0  0  0  0  0  0  0  0  0
   11.3738   -1.4790    9.0061 N   0  0  0  0  0  0  0  0  0  0  0  0
   11.6236   -2.6588    7.2085 N   0  0  1  0  0  0  0  0  0  0  0  0
  1  4  1  6  0  0  0
  1  8  1  0  0  0  0
  1  7  1  0  0  0  0
  2  5  1  6  0  0  0
  2  6  1  0  0  0  0
  2 10  1  0  0  0  0
  3  7  1  1  0  0  0
  3 10  1  0  0  0  0
  3  9  1  0  0  0  0
  6  9  1  0  0  0  0
 10  8  1  1  0  0  0
M  END
>  <CHROM.1>
11.75149585,-2.77470245,7.64359727,0.19685885,1.09059466,-1.93984241

>  <Name>
ligand

>  <RI>
0

>  <Rbt.Current_Directory>
/home/itssahil/PROJECTS/Mol_Feturizer/Test_systems_manuscript/rnas/2xnw

>  <Rbt.Executable>
rbdock ($Id: //depot/dev/client3/rdock/2013.1/src/exe/rbdock.cxx#4 $)

>  <Rbt.Library>
libRbt.so (2013.1, Build901 2013/11/27)

>  <Rbt.Parameter_File>
/export/apps/rDock/src/rDock_2013.1_src/data/scripts/dock_solv.prm

>  <Rbt.Receptor>
prm/blind_docking_20.prm

>  <SCORE>
-6.63589

>  <SCORE.INTER>
-6.63589

>  <SCORE.INTER.CONST>
1

>  <SCORE.INTER.POLAR>
0

>  <SCORE.INTER.ROT>
0

>  <SCORE.INTER.SOLV>
15.0372

>  <SCORE.INTER.VDW>
-13.0363

>  <SCORE.INTER.norm>
-0.663589

>  <SCORE.INTRA>
0

>  <SCORE.INTRA.DIHEDRAL>
0

>  <SCORE.INTRA.DIHEDRAL.0>
0

>  <SCORE.INTRA.POLAR>
0

>  <SCORE.INTRA.POLAR.0>
0

>  <SCORE.INTRA.REPUL>
0

>  <SCORE.INTRA.REPUL.0>
0

>  <SCORE.INTRA.SOLV>
0

>  <SCORE.INTRA.SOLV.lig_0>
-47.9788

>  <SCORE.INTRA.VDW>
0

>  <SCORE.INTRA.VDW.0>
0

>  <SCORE.INTRA.norm>
0

>  <SCORE.RESTR>
0

>  <SCORE.RESTR.CAVITY>
0

>  <SCORE.RESTR.norm>
0

>  <SCORE.SYSTEM>
0

>  <SCORE.SYSTEM.CONST>
0

>  <SCORE.SYSTEM.DIHEDRAL>
0

>  <SCORE.SYSTEM.SOLV>
0

>  <SCORE.SYSTEM.norm>
0

>  <SCORE.heavy>
10

>  <SCORE.norm>
-0.663589

>  <RMSD>
2.992

$$$$
ligand
 OpenBabel02271912133D
libRbt.so/2013.1/901 2013/11/27
 10 11  0  0  0  0  0  0  0  0999 V2000
   12.6413   -4.3738    7.6223 C   0  0  1  0  0  0  0  0  0  0  0  0
   10.9766   -1.4843    6.8914 C   0  0  2  0  0  0  0  0  0  0  0  0
   11.8712   -2.5979    8.4429 C   0  0  2  0  0  0  0  0  0  0  0  0
   13.2471   -5.5583    7.4815 N   0  0  0  0  0  0  0  0  0  0  0  0
   10.5433   -1.0684    5.7055 N   0  0  0  0  0  0  0  0  0  0  0  0
   10.8285   -0.8088    8.0248 N   0  0  0  0  0  0  0  0  0  0  0  0
   12.5197   -3.7174    8.7708 N   0  0  0  0  0  0  0  0  0  0  0  0
   12.0823   -3.6593    6.6283 N   0  0  0  0  0  0  0  0  0  0  0  0
   11.3487   -1.4654    8.9381 N   0  0  0  0  0  0  0  0  0  0  0  0
   11.6342   -2.6140    7.1257 N   0  0  1  0  0  0  0  0  0  0  0  0
  1  4  1  6  0  0  0
  1  8  1  0  0  0  0
  1  7  1  0  0  0  0
  2  5  1  6  0  0  0
  2  6  1  0  0  0  0
  2 10  1  0  0  0  0
  3  7  1  1  0  0  0
  3 10  1  0  0  0  0
  3  9  1  0  0  0  0
  6  9  1  0  0  0  0
 10  8  1  1  0  0  0
M  END
>  <CHROM.1>
11.76658421,-2.73101434,7.55914327,0.17580204,1.05909085,-1.90898864

>  <Name>
ligand

>  <RI>
0

>  <Rbt.Current_Directory>
/home/itssahil/PROJECTS/Mol_Feturizer/Test_systems_manuscript/rnas/2xnw

>  <Rbt.Executable>
rbdock ($Id: //depot/dev/client3/rdock/2013.1/src/exe/rbdock.cxx#4 $)

>  <Rbt.Library>
libRbt.so (2013.1, Build901 2013/11/27)

>  <Rbt.Parameter_File>
/export/apps/rDock/src/rDock_2013.1_src/data/scripts/dock_solv.prm

>  <Rbt.Receptor>
prm/pocket_docking_8.prm

>  <SCORE>
-6.65803

>  <SCORE.INTER>
-6.65803

>  <SCORE.INTER.CONST>
1

>  <SCORE.INTER.POLAR>
0

>  <SCORE.INTER.ROT>
0

>  <SCORE.INTER.SOLV>
14.6896

>  <SCORE.INTER.VDW>
-12.9352

>  <SCORE.INTER.norm>
-0.665803

>  <SCORE.INTRA>
0

>  <SCORE.INTRA.DIHEDRAL>
0

>  <SCORE.INTRA.DIHEDRAL.0>
0

>  <SCORE.INTRA.POLAR>
0

>  <SCORE.INTRA.POLAR.0>
0

>  <SCORE.INTRA.REPUL>
0

>  <SCORE.INTRA.REPUL.0>
0

>  <SCORE.INTRA.SOLV>
0

>  <SCORE.INTRA.SOLV.lig_0>
-47.9788

>  <SCORE.INTRA.VDW>
0

>  <SCORE.INTRA.VDW.0>
0

>  <SCORE.INTRA.norm>
0

>  <SCORE.RESTR>
0

>  <SCORE.RESTR.CAVITY>
0

>  <SCORE.RESTR.norm>
0

>  <SCORE.SYSTEM>
0

>  <SCORE.SYSTEM.CONST>
0

>  <SCORE.SYSTEM.DIHEDRAL>
0

>  <SCORE.SYSTEM.SOLV>
0

>  <SCORE.SYSTEM.norm>
0

>  <SCORE.heavy>
10

>  <SCORE.norm>
-0.665803

>  <RMSD>
2.992

$$$$
ligand
 OpenBabel02271912133D
libRbt.so/2013.1/901 2013/11/27
 10 11  0  0  0  0  0  0  0  0999 V2000
   12.6202   -4.3847    7.6261 C   0  0  1  0  0  0  0  0  0  0  0  0
   10.9756   -1.4859    6.8869 C   0  0  2  0  0  0  0  0  0  0  0  0
   11.8425   -2.6115    8.4453 C   0  0  2  0  0  0  0  0  0  0  0  0
   13.2247   -5.5702    7.4876 N   0  0  0  0  0  0  0  0  0  0  0  0
   10.5622   -1.0615    5.6969 N   0  0  0  0  0  0  0  0  0  0  0  0
   10.8117   -0.8168    8.0219 N   0  0  0  0  0  0  0  0  0  0  0  0
   12.4825   -3.7350    8.7765 N   0  0  0  0  0  0  0  0  0  0  0  0
   12.0790   -3.6626    6.6278 N   0  0  0  0  0  0  0  0  0  0  0  0
   11.3157   -1.4804    8.9392 N   0  0  0  0  0  0  0  0  0  0  0  0
   11.6261   -2.6190    7.1245 N   0  0  1  0  0  0  0  0  0  0  0  0
  1  4  1  6  0  0  0
  1  8  1  0  0  0  0
  1  7  1  0  0  0  0
  2  5  1  6  0  0  0
  2  6  1  0  0  0  0
  2 10  1  0  0  0  0
  3  7  1  1  0  0  0
  3 10  1  0  0  0  0
  3  9  1  0  0  0  0
  6  9  1  0  0  0  0
 10  8  1  1  0  0  0
M  END
>  <CHROM.1>
11.75140737,-2.73897982,7.55928633,0.14717775,1.06687659,-1.87790053

>  <Name>
ligand

>  <RI>
0

>  <Rbt.Current_Directory>
/home/itssahil/PROJECTS/Mol_Feturizer/Test_systems_manuscript/rnas/2xnw

>  <Rbt.Executable>
rbdock ($Id: //depot/dev/client3/rdock/2013.1/src/exe/rbdock.cxx#4 $)

>  <Rbt.Library>
libRbt.so (2013.1, Build901 2013/11/27)

>  <Rbt.Parameter_File>
/export/apps/rDock/src/rDock_2013.1_src/data/scripts/dock_solv.prm

>  <Rbt.Receptor>
prm/blind_docking_20.prm

>  <SCORE>
-6.73406

>  <SCORE.INTER>
-6.73406

>  <SCORE.INTER.CONST>
1

>  <SCORE.INTER.POLAR>
0

>  <SCORE.INTER.ROT>
0

>  <SCORE.INTER.SOLV>
14.8288

>  <SCORE.INTER.VDW>
-13.0323

>  <SCORE.INTER.norm>
-0.673406

>  <SCORE.INTRA>
0

>  <SCORE.INTRA.DIHEDRAL>
0

>  <SCORE.INTRA.DIHEDRAL.0>
0

>  <SCORE.INTRA.POLAR>
0

>  <SCORE.INTRA.POLAR.0>
0

>  <SCORE.INTRA.REPUL>
0

>  <SCORE.INTRA.REPUL.0>
0

>  <SCORE.INTRA.SOLV>
0

>  <SCORE.INTRA.SOLV.lig_0>
-47.9788

>  <SCORE.INTRA.VDW>
0

>  <SCORE.INTRA.VDW.0>
0

>  <SCORE.INTRA.norm>
0

>  <SCORE.RESTR>
0

>  <SCORE.RESTR.CAVITY>
0

>  <SCORE.RESTR.norm>
0

>  <SCORE.SYSTEM>
0

>  <SCORE.SYSTEM.CONST>
0

>  <SCORE.SYSTEM.DIHEDRAL>
0

>  <SCORE.SYSTEM.SOLV>
0

>  <SCORE.SYSTEM.norm>
0

>  <SCORE.heavy>
10

>  <SCORE.norm>
-0.673406

>  <RMSD>
2.993

$$$$
ligand
 OpenBabel02271912133D
libRbt.so/2013.1/901 2013/11/27
 10 11  0  0  0  0  0  0  0  0999 V2000
   12.5990   -4.3940    7.6263 C   0  0  1  0  0  0  0  0  0  0  0  0
   10.9749   -1.4842    6.8850 C   0  0  2  0  0  0  0  0  0  0  0  0
   11.8340   -2.6146    8.4442 C   0  0  2  0  0  0  0  0  0  0  0  0
   13.1951   -5.5838    7.4887 N   0  0  0  0  0  0  0  0  0  0  0  0
   10.5643   -1.0578    5.6947 N   0  0  0  0  0  0  0  0  0  0  0  0
   10.8158   -0.8131    8.0195 N   0  0  0  0  0  0  0  0  0  0  0  0
   12.4661   -3.7423    8.7762 N   0  0  0  0  0  0  0  0  0  0  0  0
   12.0627   -3.6688    6.6275 N   0  0  0  0  0  0  0  0  0  0  0  0
   11.3152   -1.4795    8.9372 N   0  0  0  0  0  0  0  0  0  0  0  0
   11.6174   -2.6217    7.1234 N   0  0  1  0  0  0  0  0  0  0  0  0
  1  4  1  6  0  0  0
  1  8  1  0  0  0  0
  1  7  1  0  0  0  0
  2  5  1  6  0  0  0
  2  6  1  0  0  0  0
  2 10  1  0  0  0  0
  3  7  1  1  0  0  0
  3 10  1  0  0  0  0
  3  9  1  0  0  0  0
  6  9  1  0  0  0  0
 10  8  1  1  0  0  0
M  END
>  <CHROM.1>
11.74185676,-2.74219072,7.55826992,0.15194427,1.07356638,-1.88289343

>  <Name>
ligand

>  <RI>
0

>  <Rbt.Current_Directory>
/home/itssahil/PROJECTS/Mol_Feturizer/Test_systems_manuscript/rnas/2xnw

>  <Rbt.Executable>
rbdock ($Id: //depot/dev/client3/rdock/2013.1/src/exe/rbdock.cxx#4 $)

>  <Rbt.Library>
libRbt.so (2013.1, Build901 2013/11/27)

>  <Rbt.Parameter_File>
/export/apps/rDock/src/rDock_2013.1_src/data/scripts/dock_solv.prm

>  <Rbt.Receptor>
prm/blind_docking_40.prm

>  <SCORE>
-6.7214

>  <SCORE.INTER>
-6.7214

>  <SCORE.INTER.CONST>
1

>  <SCORE.INTER.POLAR>
0

>  <SCORE.INTER.ROT>
0

>  <SCORE.INTER.SOLV>
14.9581

>  <SCORE.INTER.VDW>
-13.067

>  <SCORE.INTER.norm>
-0.67214

>  <SCORE.INTRA>
0

>  <SCORE.INTRA.DIHEDRAL>
0

>  <SCORE.INTRA.DIHEDRAL.0>
0

>  <SCORE.INTRA.POLAR>
0

>  <SCORE.INTRA.POLAR.0>
0

>  <SCORE.INTRA.REPUL>
0

>  <SCORE.INTRA.REPUL.0>
0

>  <SCORE.INTRA.SOLV>
0

>  <SCORE.INTRA.SOLV.lig_0>
-47.9788

>  <SCORE.INTRA.VDW>
0

>  <SCORE.INTRA.VDW.0>
0

>  <SCORE.INTRA.norm>
0

>  <SCORE.RESTR>
0

>  <SCORE.RESTR.CAVITY>
0

>  <SCORE.RESTR.norm>
0

>  <SCORE.SYSTEM>
0

>  <SCORE.SYSTEM.CONST>
0

>  <SCORE.SYSTEM.DIHEDRAL>
0

>  <SCORE.SYSTEM.SOLV>
0

>  <SCORE.SYSTEM.norm>
0

>  <SCORE.heavy>
10

>  <SCORE.norm>
-0.67214

>  <RMSD>
2.994

$$$$
ligand
 OpenBabel02271912133D
libRbt.so/2013.1/901 2013/11/27
 10 11  0  0  0  0  0  0  0  0999 V2000
   12.5683   -4.4503    7.7099 C   0  0  1  0  0  0  0  0  0  0  0  0
   11.0086   -1.5147    6.9329 C   0  0  2  0  0  0  0  0  0  0  0  0
   11.8801   -2.6268    8.4983 C   0  0  2  0  0  0  0  0  0  0  0  0
   13.1250   -5.6609    7.5892 N   0  0  0  0  0  0  0  0  0  0  0  0
   10.5756   -1.1094    5.7432 N   0  0  0  0  0  0  0  0  0  0  0  0
   10.9029   -0.8080    8.0518 N   0  0  0  0  0  0  0  0  0  0  0  0
   12.4885   -3.7634    8.8441 N   0  0  0  0  0  0  0  0  0  0  0  0
   12.0241   -3.7373    6.7067 N   0  0  0  0  0  0  0  0  0  0  0  0
   11.4096   -1.4634    8.9735 N   0  0  0  0  0  0  0  0  0  0  0  0
   11.6244   -2.6639    7.1851 N   0  0  1  0  0  0  0  0  0  0  0  0
  1  4  1  6  0  0  0
  1  8  1  0  0  0  0
  1  7  1  0  0  0  0
  2  5  1  6  0  0  0
  2  6  1  0  0  0  0
  2 10  1  0  0  0  0
  3  7  1  1  0  0  0
  3 10  1  0  0  0  0
  3  9  1  0  0  0  0
  6  9  1  0  0  0  0
 10  8  1  1  0  0  0
M  END
>  <CHROM.1>
11.75810699,-2.77606396,7.61942483,0.23251574,1.09095821,-1.98218662

>  <Name>
ligand

>  <RI>
0

>  <Rbt.Current_Directory>
/home/itssahil/PROJECTS/Mol_Feturizer/Test_systems_manuscript/rnas/2xnw

>  <Rbt.Executable>
rbdock ($Id: //depot/dev/client3/rdock/2013.1/src/exe/rbdock.cxx#4 $)

>  <Rbt.Library>
libRbt.so (2013.1, Build901 2013/11/27)

>  <Rbt.Parameter_File>
/export/apps/rDock/src/rDock_2013.1_src/data/scripts/dock_solv.prm

>  <Rbt.Receptor>
prm/blind_docking_60.prm

>  <SCORE>
-6.69543

>  <SCORE.INTER>
-6.69543

>  <SCORE.INTER.CONST>
1

>  <SCORE.INTER.POLAR>
0

>  <SCORE.INTER.ROT>
0

>  <SCORE.INTER.SOLV>
15.0421

>  <SCORE.INTER.VDW>
-13.0777

>  <SCORE.INTER.norm>
-0.669543

>  <SCORE.INTRA>
0

>  <SCORE.INTRA.DIHEDRAL>
0

>  <SCORE.INTRA.DIHEDRAL.0>
0

>  <SCORE.INTRA.POLAR>
0

>  <SCORE.INTRA.POLAR.0>
0

>  <SCORE.INTRA.REPUL>
0

>  <SCORE.INTRA.REPUL.0>
0

>  <SCORE.INTRA.SOLV>
0

>  <SCORE.INTRA.SOLV.lig_0>
-47.9788

>  <SCORE.INTRA.VDW>
0

>  <SCORE.INTRA.VDW.0>
0

>  <SCORE.INTRA.norm>
0

>  <SCORE.RESTR>
0

>  <SCORE.RESTR.CAVITY>
0

>  <SCORE.RESTR.norm>
0

>  <SCORE.SYSTEM>
0

>  <SCORE.SYSTEM.CONST>
0

>  <SCORE.SYSTEM.DIHEDRAL>
0

>  <SCORE.SYSTEM.SOLV>
0

>  <SCORE.SYSTEM.norm>
0

>  <SCORE.heavy>
10

>  <SCORE.norm>
-0.669543

>  <RMSD>
2.994

$$$$
ligand
 OpenBabel02271912133D
libRbt.so/2013.1/901 2013/11/27
 10 11  0  0  0  0  0  0  0  0999 V2000
   12.6178   -4.3844    7.6243 C   0  0  1  0  0  0  0  0  0  0  0  0
   10.9544   -1.4949    6.8902 C   0  0  2  0  0  0  0  0  0  0  0  0
   11.8352   -2.6142    8.4454 C   0  0  2  0  0  0  0  0  0  0  0  0
   13.2277   -5.5669    7.4840 N   0  0  0  0  0  0  0  0  0  0  0  0
   10.5327   -1.0741    5.7019 N   0  0  0  0  0  0  0  0  0  0  0  0
   10.7929   -0.8254    8.0253 N   0  0  0  0  0  0  0  0  0  0  0  0
   12.4827   -3.7340    8.7746 N   0  0  0  0  0  0  0  0  0  0  0  0
   12.0677   -3.6662    6.6280 N   0  0  0  0  0  0  0  0  0  0  0  0
   11.3051   -1.4853    8.9407 N   0  0  0  0  0  0  0  0  0  0  0  0
   11.6120   -2.6244    7.1258 N   0  0  1  0  0  0  0  0  0  0  0  0
  1  4  1  6  0  0  0
  1  8  1  0  0  0  0
  1  7  1  0  0  0  0
  2  5  1  6  0  0  0
  2  6  1  0  0  0  0
  2 10  1  0  0  0  0
  3  7  1  1  0  0  0
  3 10  1  0  0  0  0
  3  9  1  0  0  0  0
  6  9  1  0  0  0  0
 10  8  1  1  0  0  0
M  END
>  <CHROM.1>
11.74015552,-2.74319410,7.56002976,0.15407877,1.06036643,-1.88510660

>  <Name>
ligand

>  <RI>
0

>  <Rbt.Current_Directory>
/home/itssahil/PROJECTS/Mol_Feturizer/Test_systems_manuscript/rnas/2xnw

>  <Rbt.Executable>
rbdock ($Id: //depot/dev/client3/rdock/2013.1/src/exe/rbdock.cxx#4 $)

>  <Rbt.Library>
libRbt.so (2013.1, Build901 2013/11/27)

>  <Rbt.Parameter_File>
/export/apps/rDock/src/rDock_2013.1_src/data/scripts/dock_solv.prm

>  <Rbt.Receptor>
prm/pocket_docking_5.prm

>  <SCORE>
-6.7273

>  <SCORE.INTER>
-6.7273

>  <SCORE.INTER.CONST>
1

>  <SCORE.INTER.POLAR>
0

>  <SCORE.INTER.ROT>
0

>  <SCORE.INTER.SOLV>
14.7416

>  <SCORE.INTER.VDW>
-12.9987

>  <SCORE.INTER.norm>
-0.67273

>  <SCORE.INTRA>
0

>  <SCORE.INTRA.DIHEDRAL>
0

>  <SCORE.INTRA.DIHEDRAL.0>
0

>  <SCORE.INTRA.POLAR>
0

>  <SCORE.INTRA.POLAR.0>
0

>  <SCORE.INTRA.REPUL>
0

>  <SCORE.INTRA.REPUL.0>
0

>  <SCORE.INTRA.SOLV>
0

>  <SCORE.INTRA.SOLV.lig_0>
-47.9788

>  <SCORE.INTRA.VDW>
0

>  <SCORE.INTRA.VDW.0>
0

>  <SCORE.INTRA.norm>
0

>  <SCORE.RESTR>
0

>  <SCORE.RESTR.CAVITY>
0

>  <SCORE.RESTR.norm>
0

>  <SCORE.SYSTEM>
0

>  <SCORE.SYSTEM.CONST>
0

>  <SCORE.SYSTEM.DIHEDRAL>
0

>  <SCORE.SYSTEM.SOLV>
0

>  <SCORE.SYSTEM.norm>
0

>  <SCORE.heavy>
10

>  <SCORE.norm>
-0.67273

>  <RMSD>
2.994

$$$$
ligand
 OpenBabel02271912133D
libRbt.so/2013.1/901 2013/11/27
 10 11  0  0  0  0  0  0  0  0999 V2000
   12.5191   -4.4297    7.6692 C   0  0  1  0  0  0  0  0  0  0  0  0
   10.9732   -1.4818    6.9111 C   0  0  2  0  0  0  0  0  0  0  0  0
   11.8553   -2.6007    8.4658 C   0  0  2  0  0  0  0  0  0  0  0  0
   13.0648   -5.6446    7.5417 N   0  0  0  0  0  0  0  0  0  0  0  0
   10.5287   -1.0731    5.7268 N   0  0  0  0  0  0  0  0  0  0  0  0
   10.8870   -0.7742    8.0312 N   0  0  0  0  0  0  0  0  0  0  0  0
   12.4589   -3.7421    8.8042 N   0  0  0  0  0  0  0  0  0  0  0  0
   11.9682   -3.7124    6.6727 N   0  0  0  0  0  0  0  0  0  0  0  0
   11.3999   -1.4336    8.9466 N   0  0  0  0  0  0  0  0  0  0  0  0
   11.5830   -2.6359    7.1559 N   0  0  1  0  0  0  0  0  0  0  0  0
  1  4  1  6  0  0  0
  1  8  1  0  0  0  0
  1  7  1  0  0  0  0
  2  5  1  6  0  0  0
  2  6  1  0  0  0  0
  2 10  1  0  0  0  0
  3  7  1  1  0  0  0
  3 10  1  0  0  0  0
  3  9  1  0  0  0  0
  6  9  1  0  0  0  0
 10  8  1  1  0  0  0
M  END
>  <CHROM.1>
11.72119410,-2.74903056,7.58851481,0.26414418,1.09304854,-2.01035262

>  <Name>
ligand

>  <RI>
0

>  <Rbt.Current_Directory>
/home/itssahil/PROJECTS/Mol_Feturizer/Test_systems_manuscript/rnas/2xnw

>  <Rbt.Executable>
rbdock ($Id: //depot/dev/client3/rdock/2013.1/src/exe/rbdock.cxx#4 $)

>  <Rbt.Library>
libRbt.so (2013.1, Build901 2013/11/27)

>  <Rbt.Parameter_File>
/export/apps/rDock/src/rDock_2013.1_src/data/scripts/dock_solv.prm

>  <Rbt.Receptor>
prm/pocket_docking_7.prm

>  <SCORE>
-6.69819

>  <SCORE.INTER>
-6.69819

>  <SCORE.INTER.CONST>
1

>  <SCORE.INTER.POLAR>
0

>  <SCORE.INTER.ROT>
0

>  <SCORE.INTER.SOLV>
15.3069

>  <SCORE.INTER.VDW>
-13.1678

>  <SCORE.INTER.norm>
-0.669819

>  <SCORE.INTRA>
0

>  <SCORE.INTRA.DIHEDRAL>
0

>  <SCORE.INTRA.DIHEDRAL.0>
0

>  <SCORE.INTRA.POLAR>
0

>  <SCORE.INTRA.POLAR.0>
0

>  <SCORE.INTRA.REPUL>
0

>  <SCORE.INTRA.REPUL.0>
0

>  <SCORE.INTRA.SOLV>
0

>  <SCORE.INTRA.SOLV.lig_0>
-47.9788

>  <SCORE.INTRA.VDW>
0

>  <SCORE.INTRA.VDW.0>
0

>  <SCORE.INTRA.norm>
0

>  <SCORE.RESTR>
0

>  <SCORE.RESTR.CAVITY>
0

>  <SCORE.RESTR.norm>
0

>  <SCORE.SYSTEM>
0

>  <SCORE.SYSTEM.CONST>
0

>  <SCORE.SYSTEM.DIHEDRAL>
0

>  <SCORE.SYSTEM.SOLV>
0

>  <SCORE.SYSTEM.norm>
0

>  <SCORE.heavy>
10

>  <SCORE.norm>
-0.669819

>  <RMSD>
2.994

$$$$
ligand
 OpenBabel02271912133D
libRbt.so/2013.1/901 2013/11/27
 10 11  0  0  0  0  0  0  0  0999 V2000
   12.5110   -4.4419    7.6661 C   0  0  1  0  0  0  0  0  0  0  0  0
   10.9847   -1.4938    6.8700 C   0  0  2  0  0  0  0  0  0  0  0  0
   11.8451   -2.6049    8.4423 C   0  0  2  0  0  0  0  0  0  0  0  0
   13.0534   -5.6597    7.5534 N   0  0  0  0  0  0  0  0  0  0  0  0
   10.5550   -1.0919    5.6779 N   0  0  0  0  0  0  0  0  0  0  0  0
   10.8886   -0.7780    7.9840 N   0  0  0  0  0  0  0  0  0  0  0  0
   12.4406   -3.7460    8.7955 N   0  0  0  0  0  0  0  0  0  0  0  0
   11.9739   -3.7297    6.6584 N   0  0  0  0  0  0  0  0  0  0  0  0
   11.3887   -1.4327    8.9097 N   0  0  0  0  0  0  0  0  0  0  0  0
   11.5873   -2.6483    7.1297 N   0  0  1  0  0  0  0  0  0  0  0  0
  1  4  1  6  0  0  0
  1  8  1  0  0  0  0
  1  7  1  0  0  0  0
  2  5  1  6  0  0  0
  2  6  1  0  0  0  0
  2 10  1  0  0  0  0
  3  7  1  1  0  0  0
  3 10  1  0  0  0  0
  3  9  1  0  0  0  0
  6  9  1  0  0  0  0
 10  8  1  1  0  0  0
M  END
>  <CHROM.1>
11.72027273,-2.75893524,7.56463282,0.24524612,1.10114697,-2.00060550

>  <Name>
ligand

>  <RI>
0

>  <Rbt.Current_Directory>
/home/itssahil/PROJECTS/Mol_Feturizer/Test_systems_manuscript/rnas/2xnw

>  <Rbt.Executable>
rbdock ($Id: //depot/dev/client3/rdock/2013.1/src/exe/rbdock.cxx#4 $)

>  <Rbt.Library>
libRbt.so (2013.1, Build901 2013/11/27)

>  <Rbt.Parameter_File>
/export/apps/rDock/src/rDock_2013.1_src/data/scripts/dock_solv.prm

>  <Rbt.Receptor>
prm/pocket_docking_7.prm

>  <SCORE>
-6.66876

>  <SCORE.INTER>
-6.66876

>  <SCORE.INTER.CONST>
1

>  <SCORE.INTER.POLAR>
0

>  <SCORE.INTER.ROT>
0

>  <SCORE.INTER.SOLV>
15.4196

>  <SCORE.INTER.VDW>
-13.1857

>  <SCORE.INTER.norm>
-0.666876

>  <SCORE.INTRA>
0

>  <SCORE.INTRA.DIHEDRAL>
0

>  <SCORE.INTRA.DIHEDRAL.0>
0

>  <SCORE.INTRA.POLAR>
0

>  <SCORE.INTRA.POLAR.0>
0

>  <SCORE.INTRA.REPUL>
0

>  <SCORE.INTRA.REPUL.0>
0

>  <SCORE.INTRA.SOLV>
0

>  <SCORE.INTRA.SOLV.lig_0>
-47.9788

>  <SCORE.INTRA.VDW>
0

>  <SCORE.INTRA.VDW.0>
0

>  <SCORE.INTRA.norm>
0

>  <SCORE.RESTR>
0

>  <SCORE.RESTR.CAVITY>
0

>  <SCORE.RESTR.norm>
0

>  <SCORE.SYSTEM>
0

>  <SCORE.SYSTEM.CONST>
0

>  <SCORE.SYSTEM.DIHEDRAL>
0

>  <SCORE.SYSTEM.SOLV>
0

>  <SCORE.SYSTEM.norm>
0

>  <SCORE.heavy>
10

>  <SCORE.norm>
-0.666876

>  <RMSD>
2.994

$$$$
ligand
 OpenBabel02271912133D
libRbt.so/2013.1/901 2013/11/27
 10 11  0  0  0  0  0  0  0  0999 V2000
   12.5750   -4.4530    7.7182 C   0  0  1  0  0  0  0  0  0  0  0  0
   11.0105   -1.5210    6.9374 C   0  0  2  0  0  0  0  0  0  0  0  0
   11.8723   -2.6352    8.5068 C   0  0  2  0  0  0  0  0  0  0  0  0
   13.1378   -5.6609    7.5983 N   0  0  0  0  0  0  0  0  0  0  0  0
   10.5866   -1.1131    5.7452 N   0  0  0  0  0  0  0  0  0  0  0  0
   10.8918   -0.8187    8.0578 N   0  0  0  0  0  0  0  0  0  0  0  0
   12.4822   -3.7705    8.8540 N   0  0  0  0  0  0  0  0  0  0  0  0
   12.0371   -3.7387    6.7126 N   0  0  0  0  0  0  0  0  0  0  0  0
   11.3927   -1.4754    8.9817 N   0  0  0  0  0  0  0  0  0  0  0  0
   11.6286   -2.6686    7.1911 N   0  0  1  0  0  0  0  0  0  0  0  0
  1  4  1  6  0  0  0
  1  8  1  0  0  0  0
  1  7  1  0  0  0  0
  2  5  1  6  0  0  0
  2  6  1  0  0  0  0
  2 10  1  0  0  0  0
  3  7  1  1  0  0  0
  3 10  1  0  0  0  0
  3  9  1  0  0  0  0
  6  9  1  0  0  0  0
 10  8  1  1  0  0  0
M  END
>  <CHROM.1>
11.75888418,-2.78173568,7.62626924,0.21096653,1.09075037,-1.95951107

>  <Name>
ligand

>  <RI>
0

>  <Rbt.Current_Directory>
/home/itssahil/PROJECTS/Mol_Feturizer/Test_systems_manuscript/rnas/2xnw

>  <Rbt.Executable>
rbdock ($Id: //depot/dev/client3/rdock/2013.1/src/exe/rbdock.cxx#4 $)

>  <Rbt.Library>
libRbt.so (2013.1, Build901 2013/11/27)

>  <Rbt.Parameter_File>
/export/apps/rDock/src/rDock_2013.1_src/data/scripts/dock_solv.prm

>  <Rbt.Receptor>
prm/pocket_docking_8.prm

>  <SCORE>
-6.69467

>  <SCORE.INTER>
-6.69467

>  <SCORE.INTER.CONST>
1

>  <SCORE.INTER.POLAR>
0

>  <SCORE.INTER.ROT>
0

>  <SCORE.INTER.SOLV>
15.0054

>  <SCORE.INTER.VDW>
-13.0649

>  <SCORE.INTER.norm>
-0.669467

>  <SCORE.INTRA>
0

>  <SCORE.INTRA.DIHEDRAL>
0

>  <SCORE.INTRA.DIHEDRAL.0>
0

>  <SCORE.INTRA.POLAR>
0

>  <SCORE.INTRA.POLAR.0>
0

>  <SCORE.INTRA.REPUL>
0

>  <SCORE.INTRA.REPUL.0>
0

>  <SCORE.INTRA.SOLV>
0

>  <SCORE.INTRA.SOLV.lig_0>
-47.9788

>  <SCORE.INTRA.VDW>
0

>  <SCORE.INTRA.VDW.0>
0

>  <SCORE.INTRA.norm>
0

>  <SCORE.RESTR>
0

>  <SCORE.RESTR.CAVITY>
0

>  <SCORE.RESTR.norm>
0

>  <SCORE.SYSTEM>
0

>  <SCORE.SYSTEM.CONST>
0

>  <SCORE.SYSTEM.DIHEDRAL>
0

>  <SCORE.SYSTEM.SOLV>
0

>  <SCORE.SYSTEM.norm>
0

>  <SCORE.heavy>
10

>  <SCORE.norm>
-0.669467

>  <RMSD>
2.994

$$$$
ligand
 OpenBabel02271912133D
libRbt.so/2013.1/901 2013/11/27
 10 11  0  0  0  0  0  0  0  0999 V2000
   12.5117   -4.4335    7.6688 C   0  0  1  0  0  0  0  0  0  0  0  0
   10.9665   -1.4876    6.9017 C   0  0  2  0  0  0  0  0  0  0  0  0
   11.8326   -2.6092    8.4634 C   0  0  2  0  0  0  0  0  0  0  0  0
   13.0625   -5.6463    7.5440 N   0  0  0  0  0  0  0  0  0  0  0  0
   10.5355   -1.0761    5.7133 N   0  0  0  0  0  0  0  0  0  0  0  0
   10.8643   -0.7841    8.0230 N   0  0  0  0  0  0  0  0  0  0  0  0
   12.4354   -3.7499    8.8053 N   0  0  0  0  0  0  0  0  0  0  0  0
   11.9710   -3.7144    6.6680 N   0  0  0  0  0  0  0  0  0  0  0  0
   11.3678   -1.4451    8.9424 N   0  0  0  0  0  0  0  0  0  0  0  0
   11.5766   -2.6407    7.1500 N   0  0  1  0  0  0  0  0  0  0  0  0
  1  4  1  6  0  0  0
  1  8  1  0  0  0  0
  1  7  1  0  0  0  0
  2  5  1  6  0  0  0
  2  6  1  0  0  0  0
  2 10  1  0  0  0  0
  3  7  1  1  0  0  0
  3 10  1  0  0  0  0
  3  9  1  0  0  0  0
  6  9  1  0  0  0  0
 10  8  1  1  0  0  0
M  END
>  <CHROM.1>
11.70982189,-2.75491505,7.58396250,0.23687176,1.09545695,-1.98270626

>  <Name>
ligand

>  <RI>
0

>  <Rbt.Current_Directory>
/home/itssahil/PROJECTS/Mol_Feturizer/Test_systems_manuscript/rnas/2xnw

>  <Rbt.Executable>
rbdock ($Id: //depot/dev/client3/rdock/2013.1/src/exe/rbdock.cxx#4 $)

>  <Rbt.Library>
libRbt.so (2013.1, Build901 2013/11/27)

>  <Rbt.Parameter_File>
/export/apps/rDock/src/rDock_2013.1_src/data/scripts/dock_solv.prm

>  <Rbt.Receptor>
prm/blind_docking_40.prm

>  <SCORE>
-6.68172

>  <SCORE.INTER>
-6.68172

>  <SCORE.INTER.CONST>
1

>  <SCORE.INTER.POLAR>
0

>  <SCORE.INTER.ROT>
0

>  <SCORE.INTER.SOLV>
15.3436

>  <SCORE.INTER.VDW>
-13.169

>  <SCORE.INTER.norm>
-0.668172

>  <SCORE.INTRA>
0

>  <SCORE.INTRA.DIHEDRAL>
0

>  <SCORE.INTRA.DIHEDRAL.0>
0

>  <SCORE.INTRA.POLAR>
0

>  <SCORE.INTRA.POLAR.0>
0

>  <SCORE.INTRA.REPUL>
0

>  <SCORE.INTRA.REPUL.0>
0

>  <SCORE.INTRA.SOLV>
0

>  <SCORE.INTRA.SOLV.lig_0>
-47.9788

>  <SCORE.INTRA.VDW>
0

>  <SCORE.INTRA.VDW.0>
0

>  <SCORE.INTRA.norm>
0

>  <SCORE.RESTR>
0

>  <SCORE.RESTR.CAVITY>
0

>  <SCORE.RESTR.norm>
0

>  <SCORE.SYSTEM>
0

>  <SCORE.SYSTEM.CONST>
0

>  <SCORE.SYSTEM.DIHEDRAL>
0

>  <SCORE.SYSTEM.SOLV>
0

>  <SCORE.SYSTEM.norm>
0

>  <SCORE.heavy>
10

>  <SCORE.norm>
-0.668172

>  <RMSD>
2.995

$$$$
ligand
 OpenBabel02271912133D
libRbt.so/2013.1/901 2013/11/27
 10 11  0  0  0  0  0  0  0  0999 V2000
   12.5718   -4.4481    7.7143 C   0  0  1  0  0  0  0  0  0  0  0  0
   10.9944   -1.5185    6.9506 C   0  0  2  0  0  0  0  0  0  0  0  0
   11.8634   -2.6369    8.5131 C   0  0  2  0  0  0  0  0  0  0  0  0
   13.1391   -5.6532    7.5875 N   0  0  0  0  0  0  0  0  0  0  0  0
   10.5668   -1.1065    5.7613 N   0  0  0  0  0  0  0  0  0  0  0  0
   10.8749   -0.8221    8.0747 N   0  0  0  0  0  0  0  0  0  0  0  0
   12.4784   -3.7715    8.8537 N   0  0  0  0  0  0  0  0  0  0  0  0
   12.0292   -3.7310    6.7132 N   0  0  0  0  0  0  0  0  0  0  0  0
   11.3801   -1.4813    8.9945 N   0  0  0  0  0  0  0  0  0  0  0  0
   11.6175   -2.6649    7.1977 N   0  0  1  0  0  0  0  0  0  0  0  0
  1  4  1  6  0  0  0
  1  8  1  0  0  0  0
  1  7  1  0  0  0  0
  2  5  1  6  0  0  0
  2  6  1  0  0  0  0
  2 10  1  0  0  0  0
  3  7  1  1  0  0  0
  3 10  1  0  0  0  0
  3  9  1  0  0  0  0
  6  9  1  0  0  0  0
 10  8  1  1  0  0  0
M  END
>  <CHROM.1>
11.74895816,-2.77962445,7.63204404,0.21133048,1.08643517,-1.95495917

>  <Name>
ligand

>  <RI>
0

>  <Rbt.Current_Directory>
/home/itssahil/PROJECTS/Mol_Feturizer/Test_systems_manuscript/rnas/2xnw

>  <Rbt.Executable>
rbdock ($Id: //depot/dev/client3/rdock/2013.1/src/exe/rbdock.cxx#4 $)

>  <Rbt.Library>
libRbt.so (2013.1, Build901 2013/11/27)

>  <Rbt.Parameter_File>
/export/apps/rDock/src/rDock_2013.1_src/data/scripts/dock_solv.prm

>  <Rbt.Receptor>
prm/pocket_docking_5.prm

>  <SCORE>
-6.72388

>  <SCORE.INTER>
-6.72388

>  <SCORE.INTER.CONST>
1

>  <SCORE.INTER.POLAR>
0

>  <SCORE.INTER.ROT>
0

>  <SCORE.INTER.SOLV>
14.9771

>  <SCORE.INTER.VDW>
-13.075

>  <SCORE.INTER.norm>
-0.672388

>  <SCORE.INTRA>
0

>  <SCORE.INTRA.DIHEDRAL>
0

>  <SCORE.INTRA.DIHEDRAL.0>
0

>  <SCORE.INTRA.POLAR>
0

>  <SCORE.INTRA.POLAR.0>
0

>  <SCORE.INTRA.REPUL>
0

>  <SCORE.INTRA.REPUL.0>
0

>  <SCORE.INTRA.SOLV>
0

>  <SCORE.INTRA.SOLV.lig_0>
-47.9788

>  <SCORE.INTRA.VDW>
0

>  <SCORE.INTRA.VDW.0>
0

>  <SCORE.INTRA.norm>
0

>  <SCORE.RESTR>
0

>  <SCORE.RESTR.CAVITY>
0

>  <SCORE.RESTR.norm>
0

>  <SCORE.SYSTEM>
0

>  <SCORE.SYSTEM.CONST>
0

>  <SCORE.SYSTEM.DIHEDRAL>
0

>  <SCORE.SYSTEM.SOLV>
0

>  <SCORE.SYSTEM.norm>
0

>  <SCORE.heavy>
10

>  <SCORE.norm>
-0.672388

>  <RMSD>
2.995

$$$$
ligand
 OpenBabel02271912133D
libRbt.so/2013.1/901 2013/11/27
 10 11  0  0  0  0  0  0  0  0999 V2000
   12.5558   -4.4524    7.7111 C   0  0  1  0  0  0  0  0  0  0  0  0
   11.0075   -1.5098    6.9377 C   0  0  2  0  0  0  0  0  0  0  0  0
   11.8739   -2.6276    8.5020 C   0  0  2  0  0  0  0  0  0  0  0  0
   13.1082   -5.6648    7.5889 N   0  0  0  0  0  0  0  0  0  0  0  0
   10.5768   -1.1010    5.7483 N   0  0  0  0  0  0  0  0  0  0  0  0
   10.9037   -0.8044    8.0577 N   0  0  0  0  0  0  0  0  0  0  0  0
   12.4778   -3.7670    8.8464 N   0  0  0  0  0  0  0  0  0  0  0  0
   12.0150   -3.7358    6.7086 N   0  0  0  0  0  0  0  0  0  0  0  0
   11.4073   -1.4632    8.9786 N   0  0  0  0  0  0  0  0  0  0  0  0
   11.6189   -2.6617    7.1885 N   0  0  1  0  0  0  0  0  0  0  0  0
  1  4  1  6  0  0  0
  1  8  1  0  0  0  0
  1  7  1  0  0  0  0
  2  5  1  6  0  0  0
  2  6  1  0  0  0  0
  2 10  1  0  0  0  0
  3  7  1  1  0  0  0
  3 10  1  0  0  0  0
  3  9  1  0  0  0  0
  6  9  1  0  0  0  0
 10  8  1  1  0  0  0
M  END
>  <CHROM.1>
11.75190502,-2.77501688,7.62275818,0.23436216,1.09462702,-1.98223993

>  <Name>
ligand

>  <RI>
0

>  <Rbt.Current_Directory>
/home/itssahil/PROJECTS/Mol_Feturizer/Test_systems_manuscript/rnas/2xnw

>  <Rbt.Executable>
rbdock ($Id: //depot/dev/client3/rdock/2013.1/src/exe/rbdock.cxx#4 $)

>  <Rbt.Library>
libRbt.so (2013.1, Build901 2013/11/27)

>  <Rbt.Parameter_File>
/export/apps/rDock/src/rDock_2013.1_src/data/scripts/dock_solv.prm

>  <Rbt.Receptor>
prm/pocket_docking_5.prm

>  <SCORE>
-6.6875

>  <SCORE.INTER>
-6.6875

>  <SCORE.INTER.CONST>
1

>  <SCORE.INTER.POLAR>
0

>  <SCORE.INTER.ROT>
0

>  <SCORE.INTER.SOLV>
15.1256

>  <SCORE.INTER.VDW>
-13.1002

>  <SCORE.INTER.norm>
-0.66875

>  <SCORE.INTRA>
0

>  <SCORE.INTRA.DIHEDRAL>
0

>  <SCORE.INTRA.DIHEDRAL.0>
0

>  <SCORE.INTRA.POLAR>
0

>  <SCORE.INTRA.POLAR.0>
0

>  <SCORE.INTRA.REPUL>
0

>  <SCORE.INTRA.REPUL.0>
0

>  <SCORE.INTRA.SOLV>
0

>  <SCORE.INTRA.SOLV.lig_0>
-47.9788

>  <SCORE.INTRA.VDW>
0

>  <SCORE.INTRA.VDW.0>
0

>  <SCORE.INTRA.norm>
0

>  <SCORE.RESTR>
0

>  <SCORE.RESTR.CAVITY>
0

>  <SCORE.RESTR.norm>
0

>  <SCORE.SYSTEM>
0

>  <SCORE.SYSTEM.CONST>
0

>  <SCORE.SYSTEM.DIHEDRAL>
0

>  <SCORE.SYSTEM.SOLV>
0

>  <SCORE.SYSTEM.norm>
0

>  <SCORE.heavy>
10

>  <SCORE.norm>
-0.66875

>  <RMSD>
2.995

$$$$
ligand
 OpenBabel02271912133D
libRbt.so/2013.1/901 2013/11/27
 10 11  0  0  0  0  0  0  0  0999 V2000
   12.6040   -4.3911    7.6277 C   0  0  1  0  0  0  0  0  0  0  0  0
   10.9560   -1.4923    6.8961 C   0  0  2  0  0  0  0  0  0  0  0  0
   11.8353   -2.6152    8.4495 C   0  0  2  0  0  0  0  0  0  0  0  0
   13.2061   -5.5776    7.4867 N   0  0  0  0  0  0  0  0  0  0  0  0
   10.5328   -1.0702    5.7087 N   0  0  0  0  0  0  0  0  0  0  0  0
   10.8027   -0.8204    8.0310 N   0  0  0  0  0  0  0  0  0  0  0  0
   12.4769   -3.7386    8.7778 N   0  0  0  0  0  0  0  0  0  0  0  0
   12.0549   -3.6707    6.6325 N   0  0  0  0  0  0  0  0  0  0  0  0
   11.3139   -1.4825    8.9454 N   0  0  0  0  0  0  0  0  0  0  0  0
   11.6074   -2.6255    7.1307 N   0  0  1  0  0  0  0  0  0  0  0  0
  1  4  1  6  0  0  0
  1  8  1  0  0  0  0
  1  7  1  0  0  0  0
  2  5  1  6  0  0  0
  2  6  1  0  0  0  0
  2 10  1  0  0  0  0
  3  7  1  1  0  0  0
  3 10  1  0  0  0  0
  3  9  1  0  0  0  0
  6  9  1  0  0  0  0
 10  8  1  1  0  0  0
M  END
>  <CHROM.1>
11.73633737,-2.74462907,7.56461567,0.16486824,1.06516398,-1.89566887

>  <Name>
ligand

>  <RI>
0

>  <Rbt.Current_Directory>
/home/itssahil/PROJECTS/Mol_Feturizer/Test_systems_manuscript/rnas/2xnw

>  <Rbt.Executable>
rbdock ($Id: //depot/dev/client3/rdock/2013.1/src/exe/rbdock.cxx#4 $)

>  <Rbt.Library>
libRbt.so (2013.1, Build901 2013/11/27)

>  <Rbt.Parameter_File>
/export/apps/rDock/src/rDock_2013.1_src/data/scripts/dock_solv.prm

>  <Rbt.Receptor>
prm/pocket_docking_6.prm

>  <SCORE>
-6.69697

>  <SCORE.INTER>
-6.69697

>  <SCORE.INTER.CONST>
1

>  <SCORE.INTER.POLAR>
0

>  <SCORE.INTER.ROT>
0

>  <SCORE.INTER.SOLV>
14.8176

>  <SCORE.INTER.VDW>
-13.0038

>  <SCORE.INTER.norm>
-0.669697

>  <SCORE.INTRA>
0

>  <SCORE.INTRA.DIHEDRAL>
0

>  <SCORE.INTRA.DIHEDRAL.0>
0

>  <SCORE.INTRA.POLAR>
0

>  <SCORE.INTRA.POLAR.0>
0

>  <SCORE.INTRA.REPUL>
0

>  <SCORE.INTRA.REPUL.0>
0

>  <SCORE.INTRA.SOLV>
0

>  <SCORE.INTRA.SOLV.lig_0>
-47.9788

>  <SCORE.INTRA.VDW>
0

>  <SCORE.INTRA.VDW.0>
0

>  <SCORE.INTRA.norm>
0

>  <SCORE.RESTR>
0

>  <SCORE.RESTR.CAVITY>
0

>  <SCORE.RESTR.norm>
0

>  <SCORE.SYSTEM>
0

>  <SCORE.SYSTEM.CONST>
0

>  <SCORE.SYSTEM.DIHEDRAL>
0

>  <SCORE.SYSTEM.SOLV>
0

>  <SCORE.SYSTEM.norm>
0

>  <SCORE.heavy>
10

>  <SCORE.norm>
-0.669697

>  <RMSD>
2.995

$$$$
ligand
 OpenBabel02271912133D
libRbt.so/2013.1/901 2013/11/27
 10 11  0  0  0  0  0  0  0  0999 V2000
   12.5682   -4.4553    7.7156 C   0  0  1  0  0  0  0  0  0  0  0  0
   11.0025   -1.5238    6.9348 C   0  0  2  0  0  0  0  0  0  0  0  0
   11.8566   -2.6416    8.5059 C   0  0  2  0  0  0  0  0  0  0  0  0
   13.1342   -5.6616    7.5952 N   0  0  0  0  0  0  0  0  0  0  0  0
   10.5855   -1.1127    5.7414 N   0  0  0  0  0  0  0  0  0  0  0  0
   10.8752   -0.8256    8.0569 N   0  0  0  0  0  0  0  0  0  0  0  0
   12.4666   -3.7768    8.8532 N   0  0  0  0  0  0  0  0  0  0  0  0
   12.0351   -3.7386    6.7090 N   0  0  0  0  0  0  0  0  0  0  0  0
   11.3716   -1.4844    8.9817 N   0  0  0  0  0  0  0  0  0  0  0  0
   11.6214   -2.6710    7.1886 N   0  0  1  0  0  0  0  0  0  0  0  0
  1  4  1  6  0  0  0
  1  8  1  0  0  0  0
  1  7  1  0  0  0  0
  2  5  1  6  0  0  0
  2  6  1  0  0  0  0
  2 10  1  0  0  0  0
  3  7  1  1  0  0  0
  3 10  1  0  0  0  0
  3  9  1  0  0  0  0
  6  9  1  0  0  0  0
 10  8  1  1  0  0  0
M  END
>  <CHROM.1>
11.74913021,-2.78535843,7.62417922,0.19640856,1.09120640,-1.94317934

>  <Name>
ligand

>  <RI>
0

>  <Rbt.Current_Directory>
/home/itssahil/PROJECTS/Mol_Feturizer/Test_systems_manuscript/rnas/2xnw

>  <Rbt.Executable>
rbdock ($Id: //depot/dev/client3/rdock/2013.1/src/exe/rbdock.cxx#4 $)

>  <Rbt.Library>
libRbt.so (2013.1, Build901 2013/11/27)

>  <Rbt.Parameter_File>
/export/apps/rDock/src/rDock_2013.1_src/data/scripts/dock_solv.prm

>  <Rbt.Receptor>
prm/pocket_docking_6.prm

>  <SCORE>
-6.71694

>  <SCORE.INTER>
-6.71694

>  <SCORE.INTER.CONST>
1

>  <SCORE.INTER.POLAR>
0

>  <SCORE.INTER.ROT>
0

>  <SCORE.INTER.SOLV>
15.0285

>  <SCORE.INTER.VDW>
-13.0875

>  <SCORE.INTER.norm>
-0.671694

>  <SCORE.INTRA>
0

>  <SCORE.INTRA.DIHEDRAL>
0

>  <SCORE.INTRA.DIHEDRAL.0>
0

>  <SCORE.INTRA.POLAR>
0

>  <SCORE.INTRA.POLAR.0>
0

>  <SCORE.INTRA.REPUL>
0

>  <SCORE.INTRA.REPUL.0>
0

>  <SCORE.INTRA.SOLV>
0

>  <SCORE.INTRA.SOLV.lig_0>
-47.9788

>  <SCORE.INTRA.VDW>
0

>  <SCORE.INTRA.VDW.0>
0

>  <SCORE.INTRA.norm>
0

>  <SCORE.RESTR>
0

>  <SCORE.RESTR.CAVITY>
0

>  <SCORE.RESTR.norm>
0

>  <SCORE.SYSTEM>
0

>  <SCORE.SYSTEM.CONST>
0

>  <SCORE.SYSTEM.DIHEDRAL>
0

>  <SCORE.SYSTEM.SOLV>
0

>  <SCORE.SYSTEM.norm>
0

>  <SCORE.heavy>
10

>  <SCORE.norm>
-0.671694

>  <RMSD>
2.995

$$$$
ligand
 OpenBabel02271912133D
libRbt.so/2013.1/901 2013/11/27
 10 11  0  0  0  0  0  0  0  0999 V2000
   12.5980   -4.3967    7.6246 C   0  0  1  0  0  0  0  0  0  0  0  0
   10.9665   -1.4931    6.8750 C   0  0  2  0  0  0  0  0  0  0  0  0
   11.8241   -2.6191    8.4382 C   0  0  2  0  0  0  0  0  0  0  0  0
   13.1986   -5.5846    7.4901 N   0  0  0  0  0  0  0  0  0  0  0  0
   10.5585   -1.0693    5.6829 N   0  0  0  0  0  0  0  0  0  0  0  0
   10.8013   -0.8214    8.0083 N   0  0  0  0  0  0  0  0  0  0  0  0
   12.4589   -3.7444    8.7734 N   0  0  0  0  0  0  0  0  0  0  0  0
   12.0627   -3.6743    6.6233 N   0  0  0  0  0  0  0  0  0  0  0  0
   11.2998   -1.4853    8.9284 N   0  0  0  0  0  0  0  0  0  0  0  0
   11.6120   -2.6281    7.1167 N   0  0  1  0  0  0  0  0  0  0  0  0
  1  4  1  6  0  0  0
  1  8  1  0  0  0  0
  1  7  1  0  0  0  0
  2  5  1  6  0  0  0
  2  6  1  0  0  0  0
  2 10  1  0  0  0  0
  3  7  1  1  0  0  0
  3 10  1  0  0  0  0
  3  9  1  0  0  0  0
  6  9  1  0  0  0  0
 10  8  1  1  0  0  0
M  END
>  <CHROM.1>
11.73544164,-2.74784929,7.55206602,0.14298096,1.07135750,-1.87595724

>  <Name>
ligand

>  <RI>
0

>  <Rbt.Current_Directory>
/home/itssahil/PROJECTS/Mol_Feturizer/Test_systems_manuscript/rnas/2xnw

>  <Rbt.Executable>
rbdock ($Id: //depot/dev/client3/rdock/2013.1/src/exe/rbdock.cxx#4 $)

>  <Rbt.Library>
libRbt.so (2013.1, Build901 2013/11/27)

>  <Rbt.Parameter_File>
/export/apps/rDock/src/rDock_2013.1_src/data/scripts/dock_solv.prm

>  <Rbt.Receptor>
prm/pocket_docking_7.prm

>  <SCORE>
-6.70542

>  <SCORE.INTER>
-6.70542

>  <SCORE.INTER.CONST>
1

>  <SCORE.INTER.POLAR>
0

>  <SCORE.INTER.ROT>
0

>  <SCORE.INTER.SOLV>
14.9334

>  <SCORE.INTER.VDW>
-13.0481

>  <SCORE.INTER.norm>
-0.670542

>  <SCORE.INTRA>
0

>  <SCORE.INTRA.DIHEDRAL>
0

>  <SCORE.INTRA.DIHEDRAL.0>
0

>  <SCORE.INTRA.POLAR>
0

>  <SCORE.INTRA.POLAR.0>
0

>  <SCORE.INTRA.REPUL>
0

>  <SCORE.INTRA.REPUL.0>
0

>  <SCORE.INTRA.SOLV>
0

>  <SCORE.INTRA.SOLV.lig_0>
-47.9788

>  <SCORE.INTRA.VDW>
0

>  <SCORE.INTRA.VDW.0>
0

>  <SCORE.INTRA.norm>
0

>  <SCORE.RESTR>
0

>  <SCORE.RESTR.CAVITY>
0

>  <SCORE.RESTR.norm>
0

>  <SCORE.SYSTEM>
0

>  <SCORE.SYSTEM.CONST>
0

>  <SCORE.SYSTEM.DIHEDRAL>
0

>  <SCORE.SYSTEM.SOLV>
0

>  <SCORE.SYSTEM.norm>
0

>  <SCORE.heavy>
10

>  <SCORE.norm>
-0.670542

>  <RMSD>
2.995

$$$$
ligand
 OpenBabel02271912133D
libRbt.so/2013.1/901 2013/11/27
 10 11  0  0  0  0  0  0  0  0999 V2000
   12.5640   -4.4502    7.7108 C   0  0  1  0  0  0  0  0  0  0  0  0
   11.0039   -1.5120    6.9440 C   0  0  2  0  0  0  0  0  0  0  0  0
   11.8789   -2.6280    8.5049 C   0  0  2  0  0  0  0  0  0  0  0  0
   13.1198   -5.6608    7.5861 N   0  0  0  0  0  0  0  0  0  0  0  0
   10.5681   -1.1039    5.7563 N   0  0  0  0  0  0  0  0  0  0  0  0
   10.9015   -0.8076    8.0647 N   0  0  0  0  0  0  0  0  0  0  0  0
   12.4876   -3.7656    8.8467 N   0  0  0  0  0  0  0  0  0  0  0  0
   12.0176   -3.7347    6.7105 N   0  0  0  0  0  0  0  0  0  0  0  0
   11.4102   -1.4653    8.9837 N   0  0  0  0  0  0  0  0  0  0  0  0
   11.6198   -2.6621    7.1922 N   0  0  1  0  0  0  0  0  0  0  0  0
  1  4  1  6  0  0  0
  1  8  1  0  0  0  0
  1  7  1  0  0  0  0
  2  5  1  6  0  0  0
  2  6  1  0  0  0  0
  2 10  1  0  0  0  0
  3  7  1  1  0  0  0
  3 10  1  0  0  0  0
  3  9  1  0  0  0  0
  6  9  1  0  0  0  0
 10  8  1  1  0  0  0
M  END
>  <CHROM.1>
11.75453883,-2.77525917,7.62598334,0.23806664,1.09043602,-1.98498588

>  <Name>
ligand

>  <RI>
0

>  <Rbt.Current_Directory>
/home/itssahil/PROJECTS/Mol_Feturizer/Test_systems_manuscript/rnas/2xnw

>  <Rbt.Executable>
rbdock ($Id: //depot/dev/client3/rdock/2013.1/src/exe/rbdock.cxx#4 $)

>  <Rbt.Library>
libRbt.so (2013.1, Build901 2013/11/27)

>  <Rbt.Parameter_File>
/export/apps/rDock/src/rDock_2013.1_src/data/scripts/dock_solv.prm

>  <Rbt.Receptor>
prm/pocket_docking_7.prm

>  <SCORE>
-6.69419

>  <SCORE.INTER>
-6.69419

>  <SCORE.INTER.CONST>
1

>  <SCORE.INTER.POLAR>
0

>  <SCORE.INTER.ROT>
0

>  <SCORE.INTER.SOLV>
15.0515

>  <SCORE.INTER.VDW>
-13.08

>  <SCORE.INTER.norm>
-0.669419

>  <SCORE.INTRA>
0

>  <SCORE.INTRA.DIHEDRAL>
0

>  <SCORE.INTRA.DIHEDRAL.0>
0

>  <SCORE.INTRA.POLAR>
0

>  <SCORE.INTRA.POLAR.0>
0

>  <SCORE.INTRA.REPUL>
0

>  <SCORE.INTRA.REPUL.0>
0

>  <SCORE.INTRA.SOLV>
0

>  <SCORE.INTRA.SOLV.lig_0>
-47.9788

>  <SCORE.INTRA.VDW>
0

>  <SCORE.INTRA.VDW.0>
0

>  <SCORE.INTRA.norm>
0

>  <SCORE.RESTR>
0

>  <SCORE.RESTR.CAVITY>
0

>  <SCORE.RESTR.norm>
0

>  <SCORE.SYSTEM>
0

>  <SCORE.SYSTEM.CONST>
0

>  <SCORE.SYSTEM.DIHEDRAL>
0

>  <SCORE.SYSTEM.SOLV>
0

>  <SCORE.SYSTEM.norm>
0

>  <SCORE.heavy>
10

>  <SCORE.norm>
-0.669419

>  <RMSD>
2.995

$$$$
ligand
 OpenBabel02271912133D
libRbt.so/2013.1/901 2013/11/27
 10 11  0  0  0  0  0  0  0  0999 V2000
   12.5951   -4.4364    7.6989 C   0  0  1  0  0  0  0  0  0  0  0  0
   10.9937   -1.5173    6.9447 C   0  0  2  0  0  0  0  0  0  0  0  0
   11.8690   -2.6351    8.5041 C   0  0  2  0  0  0  0  0  0  0  0  0
   13.1732   -5.6359    7.5681 N   0  0  0  0  0  0  0  0  0  0  0  0
   10.5653   -1.1038    5.7561 N   0  0  0  0  0  0  0  0  0  0  0  0
   10.8656   -0.8270    8.0716 N   0  0  0  0  0  0  0  0  0  0  0  0
   12.4931   -3.7658    8.8411 N   0  0  0  0  0  0  0  0  0  0  0  0
   12.0485   -3.7196    6.6997 N   0  0  0  0  0  0  0  0  0  0  0  0
   11.3745   -1.4859    8.9896 N   0  0  0  0  0  0  0  0  0  0  0  0
   11.6263   -2.6593    7.1880 N   0  0  1  0  0  0  0  0  0  0  0  0
  1  4  1  6  0  0  0
  1  8  1  0  0  0  0
  1  7  1  0  0  0  0
  2  5  1  6  0  0  0
  2  6  1  0  0  0  0
  2 10  1  0  0  0  0
  3  7  1  1  0  0  0
  3 10  1  0  0  0  0
  3  9  1  0  0  0  0
  6  9  1  0  0  0  0
 10  8  1  1  0  0  0
M  END
>  <CHROM.1>
11.75780475,-2.77483890,7.62217785,0.19991440,1.07914267,-1.94040243

>  <Name>
ligand

>  <RI>
0

>  <Rbt.Current_Directory>
/home/itssahil/PROJECTS/Mol_Feturizer/Test_systems_manuscript/rnas/2xnw

>  <Rbt.Executable>
rbdock ($Id: //depot/dev/client3/rdock/2013.1/src/exe/rbdock.cxx#4 $)

>  <Rbt.Library>
libRbt.so (2013.1, Build901 2013/11/27)

>  <Rbt.Parameter_File>
/export/apps/rDock/src/rDock_2013.1_src/data/scripts/dock_solv.prm

>  <Rbt.Receptor>
prm/blind_docking_60.prm

>  <SCORE>
-6.68936

>  <SCORE.INTER>
-6.68936

>  <SCORE.INTER.CONST>
1

>  <SCORE.INTER.POLAR>
0

>  <SCORE.INTER.ROT>
0

>  <SCORE.INTER.SOLV>
14.852

>  <SCORE.INTER.VDW>
-13.0102

>  <SCORE.INTER.norm>
-0.668936

>  <SCORE.INTRA>
0

>  <SCORE.INTRA.DIHEDRAL>
0

>  <SCORE.INTRA.DIHEDRAL.0>
0

>  <SCORE.INTRA.POLAR>
0

>  <SCORE.INTRA.POLAR.0>
0

>  <SCORE.INTRA.REPUL>
0

>  <SCORE.INTRA.REPUL.0>
0

>  <SCORE.INTRA.SOLV>
0

>  <SCORE.INTRA.SOLV.lig_0>
-47.9788

>  <SCORE.INTRA.VDW>
0

>  <SCORE.INTRA.VDW.0>
0

>  <SCORE.INTRA.norm>
0

>  <SCORE.RESTR>
0

>  <SCORE.RESTR.CAVITY>
0

>  <SCORE.RESTR.norm>
0

>  <SCORE.SYSTEM>
0

>  <SCORE.SYSTEM.CONST>
0

>  <SCORE.SYSTEM.DIHEDRAL>
0

>  <SCORE.SYSTEM.SOLV>
0

>  <SCORE.SYSTEM.norm>
0

>  <SCORE.heavy>
10

>  <SCORE.norm>
-0.668936

>  <RMSD>
2.996

$$$$
ligand
 OpenBabel02271912133D
libRbt.so/2013.1/901 2013/11/27
 10 11  0  0  0  0  0  0  0  0999 V2000
   12.6127   -4.4440    7.6991 C   0  0  1  0  0  0  0  0  0  0  0  0
   11.0104   -1.5283    6.9338 C   0  0  2  0  0  0  0  0  0  0  0  0
   11.8749   -2.6454    8.4996 C   0  0  2  0  0  0  0  0  0  0  0  0
   13.1951   -5.6418    7.5720 N   0  0  0  0  0  0  0  0  0  0  0  0
   10.5913   -1.1147    5.7419 N   0  0  0  0  0  0  0  0  0  0  0  0
   10.8706   -0.8396    8.0602 N   0  0  0  0  0  0  0  0  0  0  0  0
   12.4989   -3.7749    8.8409 N   0  0  0  0  0  0  0  0  0  0  0  0
   12.0731   -3.7276    6.6958 N   0  0  0  0  0  0  0  0  0  0  0  0
   11.3731   -1.4981    8.9819 N   0  0  0  0  0  0  0  0  0  0  0  0
   11.6438   -2.6689    7.1815 N   0  0  1  0  0  0  0  0  0  0  0  0
  1  4  1  6  0  0  0
  1  8  1  0  0  0  0
  1  7  1  0  0  0  0
  2  5  1  6  0  0  0
  2  6  1  0  0  0  0
  2 10  1  0  0  0  0
  3  7  1  1  0  0  0
  3 10  1  0  0  0  0
  3  9  1  0  0  0  0
  6  9  1  0  0  0  0
 10  8  1  1  0  0  0
M  END
>  <CHROM.1>
11.77179889,-2.78457680,7.61666279,0.18050873,1.07978065,-1.92224703

>  <Name>
ligand

>  <RI>
0

>  <Rbt.Current_Directory>
/home/itssahil/PROJECTS/Mol_Feturizer/Test_systems_manuscript/rnas/2xnw

>  <Rbt.Executable>
rbdock ($Id: //depot/dev/client3/rdock/2013.1/src/exe/rbdock.cxx#4 $)

>  <Rbt.Library>
libRbt.so (2013.1, Build901 2013/11/27)

>  <Rbt.Parameter_File>
/export/apps/rDock/src/rDock_2013.1_src/data/scripts/dock_solv.prm

>  <Rbt.Receptor>
prm/pocket_docking_5.prm

>  <SCORE>
-6.65521

>  <SCORE.INTER>
-6.65521

>  <SCORE.INTER.CONST>
1

>  <SCORE.INTER.POLAR>
0

>  <SCORE.INTER.ROT>
0

>  <SCORE.INTER.SOLV>
14.7883

>  <SCORE.INTER.VDW>
-12.9662

>  <SCORE.INTER.norm>
-0.665521

>  <SCORE.INTRA>
0

>  <SCORE.INTRA.DIHEDRAL>
0

>  <SCORE.INTRA.DIHEDRAL.0>
0

>  <SCORE.INTRA.POLAR>
0

>  <SCORE.INTRA.POLAR.0>
0

>  <SCORE.INTRA.REPUL>
0

>  <SCORE.INTRA.REPUL.0>
0

>  <SCORE.INTRA.SOLV>
0

>  <SCORE.INTRA.SOLV.lig_0>
-47.9788

>  <SCORE.INTRA.VDW>
0

>  <SCORE.INTRA.VDW.0>
0

>  <SCORE.INTRA.norm>
0

>  <SCORE.RESTR>
0

>  <SCORE.RESTR.CAVITY>
0

>  <SCORE.RESTR.norm>
0

>  <SCORE.SYSTEM>
0

>  <SCORE.SYSTEM.CONST>
0

>  <SCORE.SYSTEM.DIHEDRAL>
0

>  <SCORE.SYSTEM.SOLV>
0

>  <SCORE.SYSTEM.norm>
0

>  <SCORE.heavy>
10

>  <SCORE.norm>
-0.665521

>  <RMSD>
2.997

$$$$
ligand
 OpenBabel02271912133D
libRbt.so/2013.1/901 2013/11/27
 10 11  0  0  0  0  0  0  0  0999 V2000
   12.5847   -4.4664    7.7251 C   0  0  1  0  0  0  0  0  0  0  0  0
   11.0181   -1.5352    6.9451 C   0  0  2  0  0  0  0  0  0  0  0  0
   11.8769   -2.6510    8.5150 C   0  0  2  0  0  0  0  0  0  0  0  0
   13.1496   -5.6732    7.6046 N   0  0  0  0  0  0  0  0  0  0  0  0
   10.5972   -1.1257    5.7525 N   0  0  0  0  0  0  0  0  0  0  0  0
   10.8950   -0.8351    8.0665 N   0  0  0  0  0  0  0  0  0  0  0  0
   12.4874   -3.7861    8.8620 N   0  0  0  0  0  0  0  0  0  0  0  0
   12.0486   -3.7509    6.7192 N   0  0  0  0  0  0  0  0  0  0  0  0
   11.3942   -1.4928    8.9907 N   0  0  0  0  0  0  0  0  0  0  0  0
   11.6372   -2.6823    7.1986 N   0  0  1  0  0  0  0  0  0  0  0  0
  1  4  1  6  0  0  0
  1  8  1  0  0  0  0
  1  7  1  0  0  0  0
  2  5  1  6  0  0  0
  2  6  1  0  0  0  0
  2 10  1  0  0  0  0
  3  7  1  1  0  0  0
  3 10  1  0  0  0  0
  3  9  1  0  0  0  0
  6  9  1  0  0  0  0
 10  8  1  1  0  0  0
M  END
>  <CHROM.1>
11.76633153,-2.79608907,7.63390279,0.20377508,1.09050150,-1.95126625

>  <Name>
ligand

>  <RI>
0

>  <Rbt.Current_Directory>
/home/itssahil/PROJECTS/Mol_Feturizer/Test_systems_manuscript/rnas/2xnw

>  <Rbt.Executable>
rbdock ($Id: //depot/dev/client3/rdock/2013.1/src/exe/rbdock.cxx#4 $)

>  <Rbt.Library>
libRbt.so (2013.1, Build901 2013/11/27)

>  <Rbt.Parameter_File>
/export/apps/rDock/src/rDock_2013.1_src/data/scripts/dock_solv.prm

>  <Rbt.Receptor>
prm/blind_docking_100.prm

>  <SCORE>
-6.69421

>  <SCORE.INTER>
-6.69421

>  <SCORE.INTER.CONST>
1

>  <SCORE.INTER.POLAR>
0

>  <SCORE.INTER.ROT>
0

>  <SCORE.INTER.SOLV>
14.9352

>  <SCORE.INTER.VDW>
-13.0412

>  <SCORE.INTER.norm>
-0.669421

>  <SCORE.INTRA>
0

>  <SCORE.INTRA.DIHEDRAL>
0

>  <SCORE.INTRA.DIHEDRAL.0>
0

>  <SCORE.INTRA.POLAR>
0

>  <SCORE.INTRA.POLAR.0>
0

>  <SCORE.INTRA.REPUL>
0

>  <SCORE.INTRA.REPUL.0>
0

>  <SCORE.INTRA.SOLV>
0

>  <SCORE.INTRA.SOLV.lig_0>
-47.9788

>  <SCORE.INTRA.VDW>
0

>  <SCORE.INTRA.VDW.0>
0

>  <SCORE.INTRA.norm>
0

>  <SCORE.RESTR>
0

>  <SCORE.RESTR.CAVITY>
0

>  <SCORE.RESTR.norm>
0

>  <SCORE.SYSTEM>
0

>  <SCORE.SYSTEM.CONST>
0

>  <SCORE.SYSTEM.DIHEDRAL>
0

>  <SCORE.SYSTEM.SOLV>
0

>  <SCORE.SYSTEM.norm>
0

>  <SCORE.heavy>
10

>  <SCORE.norm>
-0.669421

>  <RMSD>
2.998

$$$$
ligand
 OpenBabel02271912133D
libRbt.so/2013.1/901 2013/11/27
 10 11  0  0  0  0  0  0  0  0999 V2000
   12.6130   -4.4620    7.7197 C   0  0  1  0  0  0  0  0  0  0  0  0
   11.0270   -1.5428    6.9339 C   0  0  2  0  0  0  0  0  0  0  0  0
   11.8751   -2.6588    8.5096 C   0  0  2  0  0  0  0  0  0  0  0  0
   13.1922   -5.6622    7.6005 N   0  0  0  0  0  0  0  0  0  0  0  0
   10.6189   -1.1309    5.7377 N   0  0  0  0  0  0  0  0  0  0  0  0
   10.8806   -0.8506    8.0574 N   0  0  0  0  0  0  0  0  0  0  0  0
   12.4924   -3.7894    8.8588 N   0  0  0  0  0  0  0  0  0  0  0  0
   12.0839   -3.7464    6.7103 N   0  0  0  0  0  0  0  0  0  0  0  0
   11.3734   -1.5084    8.9848 N   0  0  0  0  0  0  0  0  0  0  0  0
   11.6545   -2.6850    7.1897 N   0  0  1  0  0  0  0  0  0  0  0  0
  1  4  1  6  0  0  0
  1  8  1  0  0  0  0
  1  7  1  0  0  0  0
  2  5  1  6  0  0  0
  2  6  1  0  0  0  0
  2 10  1  0  0  0  0
  3  7  1  1  0  0  0
  3 10  1  0  0  0  0
  3  9  1  0  0  0  0
  6  9  1  0  0  0  0
 10  8  1  1  0  0  0
M  END
>  <CHROM.1>
11.77855897,-2.79988410,7.62617122,0.16699694,1.08577174,-1.91296244

>  <Name>
ligand

>  <RI>
0

>  <Rbt.Current_Directory>
/home/itssahil/PROJECTS/Mol_Feturizer/Test_systems_manuscript/rnas/2xnw

>  <Rbt.Executable>
rbdock ($Id: //depot/dev/client3/rdock/2013.1/src/exe/rbdock.cxx#4 $)

>  <Rbt.Library>
libRbt.so (2013.1, Build901 2013/11/27)

>  <Rbt.Parameter_File>
/export/apps/rDock/src/rDock_2013.1_src/data/scripts/dock_solv.prm

>  <Rbt.Receptor>
prm/blind_docking_20.prm

>  <SCORE>
-6.65631

>  <SCORE.INTER>
-6.65631

>  <SCORE.INTER.CONST>
1

>  <SCORE.INTER.POLAR>
0

>  <SCORE.INTER.ROT>
0

>  <SCORE.INTER.SOLV>
14.8037

>  <SCORE.INTER.VDW>
-12.9721

>  <SCORE.INTER.norm>
-0.665631

>  <SCORE.INTRA>
0

>  <SCORE.INTRA.DIHEDRAL>
0

>  <SCORE.INTRA.DIHEDRAL.0>
0

>  <SCORE.INTRA.POLAR>
0

>  <SCORE.INTRA.POLAR.0>
0

>  <SCORE.INTRA.REPUL>
0

>  <SCORE.INTRA.REPUL.0>
0

>  <SCORE.INTRA.SOLV>
0

>  <SCORE.INTRA.SOLV.lig_0>
-47.9788

>  <SCORE.INTRA.VDW>
0

>  <SCORE.INTRA.VDW.0>
0

>  <SCORE.INTRA.norm>
0

>  <SCORE.RESTR>
0

>  <SCORE.RESTR.CAVITY>
0

>  <SCORE.RESTR.norm>
0

>  <SCORE.SYSTEM>
0

>  <SCORE.SYSTEM.CONST>
0

>  <SCORE.SYSTEM.DIHEDRAL>
0

>  <SCORE.SYSTEM.SOLV>
0

>  <SCORE.SYSTEM.norm>
0

>  <SCORE.heavy>
10

>  <SCORE.norm>
-0.665631

>  <RMSD>
2.998

$$$$
ligand
 OpenBabel02271912133D
libRbt.so/2013.1/901 2013/11/27
 10 11  0  0  0  0  0  0  0  0999 V2000
   12.6436   -4.4736    7.6711 C   0  0  1  0  0  0  0  0  0  0  0  0
   11.0429   -1.5299    7.0179 C   0  0  2  0  0  0  0  0  0  0  0  0
   11.9178   -2.7010    8.5379 C   0  0  2  0  0  0  0  0  0  0  0  0
   13.2215   -5.6679    7.4990 N   0  0  0  0  0  0  0  0  0  0  0  0
   10.6146   -1.0755    5.8444 N   0  0  0  0  0  0  0  0  0  0  0  0
   10.9148   -0.8789    8.1680 N   0  0  0  0  0  0  0  0  0  0  0  0
   12.5417   -3.8427    8.8357 N   0  0  0  0  0  0  0  0  0  0  0  0
   12.0973   -3.7226    6.6972 N   0  0  0  0  0  0  0  0  0  0  0  0
   11.4235   -1.5692    9.0627 N   0  0  0  0  0  0  0  0  0  0  0  0
   11.6753   -2.6797    7.2218 N   0  0  1  0  0  0  0  0  0  0  0  0
  1  4  1  6  0  0  0
  1  8  1  0  0  0  0
  1  7  1  0  0  0  0
  2  5  1  6  0  0  0
  2  6  1  0  0  0  0
  2 10  1  0  0  0  0
  3  7  1  1  0  0  0
  3 10  1  0  0  0  0
  3  9  1  0  0  0  0
  6  9  1  0  0  0  0
 10  8  1  1  0  0  0
M  END
>  <CHROM.1>
11.80668823,-2.81018405,7.65169039,0.19989008,1.07934501,-1.90586051

>  <Name>
ligand

>  <RI>
0

>  <Rbt.Current_Directory>
/home/itssahil/PROJECTS/Mol_Feturizer/Test_systems_manuscript/rnas/2xnw

>  <Rbt.Executable>
rbdock ($Id: //depot/dev/client3/rdock/2013.1/src/exe/rbdock.cxx#4 $)

>  <Rbt.Library>
libRbt.so (2013.1, Build901 2013/11/27)

>  <Rbt.Parameter_File>
/export/apps/rDock/src/rDock_2013.1_src/data/scripts/dock_solv.prm

>  <Rbt.Receptor>
prm/pocket_docking_6.prm

>  <SCORE>
-6.63892

>  <SCORE.INTER>
-6.63892

>  <SCORE.INTER.CONST>
1

>  <SCORE.INTER.POLAR>
0

>  <SCORE.INTER.ROT>
0

>  <SCORE.INTER.SOLV>
14.6724

>  <SCORE.INTER.VDW>
-12.9167

>  <SCORE.INTER.norm>
-0.663892

>  <SCORE.INTRA>
0

>  <SCORE.INTRA.DIHEDRAL>
0

>  <SCORE.INTRA.DIHEDRAL.0>
0

>  <SCORE.INTRA.POLAR>
0

>  <SCORE.INTRA.POLAR.0>
0

>  <SCORE.INTRA.REPUL>
0

>  <SCORE.INTRA.REPUL.0>
0

>  <SCORE.INTRA.SOLV>
0

>  <SCORE.INTRA.SOLV.lig_0>
-47.9788

>  <SCORE.INTRA.VDW>
0

>  <SCORE.INTRA.VDW.0>
0

>  <SCORE.INTRA.norm>
0

>  <SCORE.RESTR>
0

>  <SCORE.RESTR.CAVITY>
0

>  <SCORE.RESTR.norm>
0

>  <SCORE.SYSTEM>
0

>  <SCORE.SYSTEM.CONST>
0

>  <SCORE.SYSTEM.DIHEDRAL>
0

>  <SCORE.SYSTEM.SOLV>
0

>  <SCORE.SYSTEM.norm>
0

>  <SCORE.heavy>
10

>  <SCORE.norm>
-0.663892

>  <RMSD>
3.024

$$$$
ligand
 OpenBabel02271912133D
libRbt.so/2013.1/901 2013/11/27
 10 11  0  0  0  0  0  0  0  0999 V2000
   12.4355   -4.2269    7.6307 C   0  0  1  0  0  0  0  0  0  0  0  0
   11.4619   -1.1007    8.5969 C   0  0  2  0  0  0  0  0  0  0  0  0
   11.7758   -2.3568    6.9323 C   0  0  2  0  0  0  0  0  0  0  0  0
   12.8481   -5.4986    7.6813 N   0  0  0  0  0  0  0  0  0  0  0  0
   11.3588   -0.6225    9.8330 N   0  0  0  0  0  0  0  0  0  0  0  0
   11.1845   -0.4092    7.4980 N   0  0  0  0  0  0  0  0  0  0  0  0
   12.1547   -3.5660    6.5131 N   0  0  0  0  0  0  0  0  0  0  0  0
   12.2237   -3.4315    8.6953 N   0  0  0  0  0  0  0  0  0  0  0  0
   11.3745   -1.1448    6.5189 N   0  0  0  0  0  0  0  0  0  0  0  0
   11.8332   -2.3329    8.2693 N   0  0  1  0  0  0  0  0  0  0  0  0
  1  4  1  1  0  0  0
  1  8  1  0  0  0  0
  1  7  1  0  0  0  0
  2  5  1  1  0  0  0
  2  6  1  0  0  0  0
  2 10  1  0  0  0  0
  3  7  1  6  0  0  0
  3 10  1  0  0  0  0
  3  9  1  0  0  0  0
  6  9  1  0  0  0  0
 10  8  1  6  0  0  0
M  END
>  <CHROM.1>
11.86390051,-2.46485020,7.82119069,-0.33120706,-1.25259345,1.42263610

>  <Name>
ligand

>  <RI>
0

>  <Rbt.Current_Directory>
/home/itssahil/PROJECTS/Mol_Feturizer/Test_systems_manuscript/rnas/2xnw

>  <Rbt.Executable>
rbdock ($Id: //depot/dev/client3/rdock/2013.1/src/exe/rbdock.cxx#4 $)

>  <Rbt.Library>
libRbt.so (2013.1, Build901 2013/11/27)

>  <Rbt.Parameter_File>
/export/apps/rDock/src/rDock_2013.1_src/data/scripts/dock_solv.prm

>  <Rbt.Receptor>
prm/blind_docking_80.prm

>  <SCORE>
-5.83482

>  <SCORE.INTER>
-5.83482

>  <SCORE.INTER.CONST>
1

>  <SCORE.INTER.POLAR>
0

>  <SCORE.INTER.ROT>
0

>  <SCORE.INTER.SOLV>
18.6189

>  <SCORE.INTER.VDW>
-13.6962

>  <SCORE.INTER.norm>
-0.583482

>  <SCORE.INTRA>
0

>  <SCORE.INTRA.DIHEDRAL>
0

>  <SCORE.INTRA.DIHEDRAL.0>
0

>  <SCORE.INTRA.POLAR>
0

>  <SCORE.INTRA.POLAR.0>
0

>  <SCORE.INTRA.REPUL>
0

>  <SCORE.INTRA.REPUL.0>
0

>  <SCORE.INTRA.SOLV>
0

>  <SCORE.INTRA.SOLV.lig_0>
-47.9788

>  <SCORE.INTRA.VDW>
0

>  <SCORE.INTRA.VDW.0>
0

>  <SCORE.INTRA.norm>
0

>  <SCORE.RESTR>
0

>  <SCORE.RESTR.CAVITY>
0

>  <SCORE.RESTR.norm>
0

>  <SCORE.SYSTEM>
0

>  <SCORE.SYSTEM.CONST>
0

>  <SCORE.SYSTEM.DIHEDRAL>
0

>  <SCORE.SYSTEM.SOLV>
0

>  <SCORE.SYSTEM.norm>
0

>  <SCORE.heavy>
10

>  <SCORE.norm>
-0.583482

>  <RMSD>
3.353

$$$$
ligand
 OpenBabel02271912133D
libRbt.so/2013.1/901 2013/11/27
 10 11  0  0  0  0  0  0  0  0999 V2000
   12.4481   -4.1657    7.5748 C   0  0  1  0  0  0  0  0  0  0  0  0
   11.4545   -1.0571    8.5769 C   0  0  2  0  0  0  0  0  0  0  0  0
   11.7427   -2.3035    6.9003 C   0  0  2  0  0  0  0  0  0  0  0  0
   12.8806   -5.4312    7.6102 N   0  0  0  0  0  0  0  0  0  0  0  0
   11.3771   -0.5841    9.8168 N   0  0  0  0  0  0  0  0  0  0  0  0
   11.1379   -0.3666    7.4880 N   0  0  0  0  0  0  0  0  0  0  0  0
   12.1281   -3.5057    6.4672 N   0  0  0  0  0  0  0  0  0  0  0  0
   12.2530   -3.3766    8.6473 N   0  0  0  0  0  0  0  0  0  0  0  0
   11.3127   -1.0964    6.5018 N   0  0  0  0  0  0  0  0  0  0  0  0
   11.8352   -2.2827    8.2354 N   0  0  1  0  0  0  0  0  0  0  0  0
  1  4  1  1  0  0  0
  1  8  1  0  0  0  0
  1  7  1  0  0  0  0
  2  5  1  1  0  0  0
  2  6  1  0  0  0  0
  2 10  1  0  0  0  0
  3  7  1  6  0  0  0
  3 10  1  0  0  0  0
  3  9  1  0  0  0  0
  6  9  1  0  0  0  0
 10  8  1  6  0  0  0
M  END
>  <CHROM.1>
11.85588961,-2.41285294,7.78623583,-0.40385655,-1.23326144,1.35699538

>  <Name>
ligand

>  <RI>
0

>  <Rbt.Current_Directory>
/home/itssahil/PROJECTS/Mol_Feturizer/Test_systems_manuscript/rnas/2xnw

>  <Rbt.Executable>
rbdock ($Id: //depot/dev/client3/rdock/2013.1/src/exe/rbdock.cxx#4 $)

>  <Rbt.Library>
libRbt.so (2013.1, Build901 2013/11/27)

>  <Rbt.Parameter_File>
/export/apps/rDock/src/rDock_2013.1_src/data/scripts/dock_solv.prm

>  <Rbt.Receptor>
prm/pocket_docking_8.prm

>  <SCORE>
-5.81065

>  <SCORE.INTER>
-5.81065

>  <SCORE.INTER.CONST>
1

>  <SCORE.INTER.POLAR>
0

>  <SCORE.INTER.ROT>
0

>  <SCORE.INTER.SOLV>
18.4924

>  <SCORE.INTER.VDW>
-13.6379

>  <SCORE.INTER.norm>
-0.581065

>  <SCORE.INTRA>
0

>  <SCORE.INTRA.DIHEDRAL>
0

>  <SCORE.INTRA.DIHEDRAL.0>
0

>  <SCORE.INTRA.POLAR>
0

>  <SCORE.INTRA.POLAR.0>
0

>  <SCORE.INTRA.REPUL>
0

>  <SCORE.INTRA.REPUL.0>
0

>  <SCORE.INTRA.SOLV>
0

>  <SCORE.INTRA.SOLV.lig_0>
-47.9788

>  <SCORE.INTRA.VDW>
0

>  <SCORE.INTRA.VDW.0>
0

>  <SCORE.INTRA.norm>
0

>  <SCORE.RESTR>
0

>  <SCORE.RESTR.CAVITY>
0

>  <SCORE.RESTR.norm>
0

>  <SCORE.SYSTEM>
0

>  <SCORE.SYSTEM.CONST>
0

>  <SCORE.SYSTEM.DIHEDRAL>
0

>  <SCORE.SYSTEM.SOLV>
0

>  <SCORE.SYSTEM.norm>
0

>  <SCORE.heavy>
10

>  <SCORE.norm>
-0.581065

>  <RMSD>
3.355

$$$$
ligand
 OpenBabel02271912133D
libRbt.so/2013.1/901 2013/11/27
 10 11  0  0  0  0  0  0  0  0999 V2000
   12.5326   -4.1908    7.6157 C   0  0  1  0  0  0  0  0  0  0  0  0
   11.4822   -1.0981    8.6088 C   0  0  2  0  0  0  0  0  0  0  0  0
   11.8090   -2.3380    6.9346 C   0  0  2  0  0  0  0  0  0  0  0  0
   12.9827   -5.4501    7.6551 N   0  0  0  0  0  0  0  0  0  0  0  0
   11.3827   -0.6279    9.8482 N   0  0  0  0  0  0  0  0  0  0  0  0
   11.1693   -0.4107    7.5169 N   0  0  0  0  0  0  0  0  0  0  0  0
   12.2170   -3.5341    6.5050 N   0  0  0  0  0  0  0  0  0  0  0  0
   12.3129   -3.4060    8.6866 N   0  0  0  0  0  0  0  0  0  0  0  0
   11.3667   -1.1367    6.5321 N   0  0  0  0  0  0  0  0  0  0  0  0
   11.8846   -2.3177    8.2708 N   0  0  1  0  0  0  0  0  0  0  0  0
  1  4  1  1  0  0  0
  1  8  1  0  0  0  0
  1  7  1  0  0  0  0
  2  5  1  1  0  0  0
  2  6  1  0  0  0  0
  2 10  1  0  0  0  0
  3  7  1  6  0  0  0
  3 10  1  0  0  0  0
  3  9  1  0  0  0  0
  6  9  1  0  0  0  0
 10  8  1  6  0  0  0
M  END
>  <CHROM.1>
11.91274504,-2.44694039,7.82176257,-0.35947299,-1.22158113,1.39998797

>  <Name>
ligand

>  <RI>
0

>  <Rbt.Current_Directory>
/home/itssahil/PROJECTS/Mol_Feturizer/Test_systems_manuscript/rnas/2xnw

>  <Rbt.Executable>
rbdock ($Id: //depot/dev/client3/rdock/2013.1/src/exe/rbdock.cxx#4 $)

>  <Rbt.Library>
libRbt.so (2013.1, Build901 2013/11/27)

>  <Rbt.Parameter_File>
/export/apps/rDock/src/rDock_2013.1_src/data/scripts/dock_solv.prm

>  <Rbt.Receptor>
prm/blind_docking_40.prm

>  <SCORE>
-5.82399

>  <SCORE.INTER>
-5.82399

>  <SCORE.INTER.CONST>
1

>  <SCORE.INTER.POLAR>
0

>  <SCORE.INTER.ROT>
0

>  <SCORE.INTER.SOLV>
18.1338

>  <SCORE.INTER.VDW>
-13.5273

>  <SCORE.INTER.norm>
-0.582399

>  <SCORE.INTRA>
0

>  <SCORE.INTRA.DIHEDRAL>
0

>  <SCORE.INTRA.DIHEDRAL.0>
0

>  <SCORE.INTRA.POLAR>
0

>  <SCORE.INTRA.POLAR.0>
0

>  <SCORE.INTRA.REPUL>
0

>  <SCORE.INTRA.REPUL.0>
0

>  <SCORE.INTRA.SOLV>
0

>  <SCORE.INTRA.SOLV.lig_0>
-47.9788

>  <SCORE.INTRA.VDW>
0

>  <SCORE.INTRA.VDW.0>
0

>  <SCORE.INTRA.norm>
0

>  <SCORE.RESTR>
0

>  <SCORE.RESTR.CAVITY>
0

>  <SCORE.RESTR.norm>
0

>  <SCORE.SYSTEM>
0

>  <SCORE.SYSTEM.CONST>
0

>  <SCORE.SYSTEM.DIHEDRAL>
0

>  <SCORE.SYSTEM.SOLV>
0

>  <SCORE.SYSTEM.norm>
0

>  <SCORE.heavy>
10

>  <SCORE.norm>
-0.582399

>  <RMSD>
3.356

$$$$
ligand
 OpenBabel02271912133D
libRbt.so/2013.1/901 2013/11/27
 10 11  0  0  0  0  0  0  0  0999 V2000
   12.4105   -4.2173    7.6235 C   0  0  1  0  0  0  0  0  0  0  0  0
   11.4875   -1.0812    8.6071 C   0  0  2  0  0  0  0  0  0  0  0  0
   11.8471   -2.3129    6.9335 C   0  0  2  0  0  0  0  0  0  0  0  0
   12.7796   -5.5026    7.6672 N   0  0  0  0  0  0  0  0  0  0  0  0
   11.3360   -0.6250    9.8465 N   0  0  0  0  0  0  0  0  0  0  0  0
   11.2891   -0.3589    7.5109 N   0  0  0  0  0  0  0  0  0  0  0  0
   12.2087   -3.5251    6.5078 N   0  0  0  0  0  0  0  0  0  0  0  0
   12.1694   -3.4371    8.6931 N   0  0  0  0  0  0  0  0  0  0  0  0
   11.5060   -1.0804    6.5269 N   0  0  0  0  0  0  0  0  0  0  0  0
   11.8362   -2.3180    8.2719 N   0  0  1  0  0  0  0  0  0  0  0  0
  1  4  1  6  0  0  0
  1  8  1  0  0  0  0
  1  7  1  0  0  0  0
  2  5  1  6  0  0  0
  2  6  1  0  0  0  0
  2 10  1  0  0  0  0
  3  7  1  1  0  0  0
  3 10  1  0  0  0  0
  3  9  1  0  0  0  0
  6  9  1  0  0  0  0
 10  8  1  1  0  0  0
M  END
>  <CHROM.1>
11.88576039,-2.44179445,7.82318404,-0.16455707,-1.28775453,1.60294229

>  <Name>
ligand

>  <RI>
0

>  <Rbt.Current_Directory>
/home/itssahil/PROJECTS/Mol_Feturizer/Test_systems_manuscript/rnas/2xnw

>  <Rbt.Executable>
rbdock ($Id: //depot/dev/client3/rdock/2013.1/src/exe/rbdock.cxx#4 $)

>  <Rbt.Library>
libRbt.so (2013.1, Build901 2013/11/27)

>  <Rbt.Parameter_File>
/export/apps/rDock/src/rDock_2013.1_src/data/scripts/dock_solv.prm

>  <Rbt.Receptor>
prm/blind_docking_60.prm

>  <SCORE>
-5.77624

>  <SCORE.INTER>
-5.77624

>  <SCORE.INTER.CONST>
1

>  <SCORE.INTER.POLAR>
0

>  <SCORE.INTER.ROT>
0

>  <SCORE.INTER.SOLV>
18.9003

>  <SCORE.INTER.VDW>
-13.7509

>  <SCORE.INTER.norm>
-0.577624

>  <SCORE.INTRA>
0

>  <SCORE.INTRA.DIHEDRAL>
0

>  <SCORE.INTRA.DIHEDRAL.0>
0

>  <SCORE.INTRA.POLAR>
0

>  <SCORE.INTRA.POLAR.0>
0

>  <SCORE.INTRA.REPUL>
0

>  <SCORE.INTRA.REPUL.0>
0

>  <SCORE.INTRA.SOLV>
0

>  <SCORE.INTRA.SOLV.lig_0>
-47.9788

>  <SCORE.INTRA.VDW>
0

>  <SCORE.INTRA.VDW.0>
0

>  <SCORE.INTRA.norm>
0

>  <SCORE.RESTR>
0

>  <SCORE.RESTR.CAVITY>
0

>  <SCORE.RESTR.norm>
0

>  <SCORE.SYSTEM>
0

>  <SCORE.SYSTEM.CONST>
0

>  <SCORE.SYSTEM.DIHEDRAL>
0

>  <SCORE.SYSTEM.SOLV>
0

>  <SCORE.SYSTEM.norm>
0

>  <SCORE.heavy>
10

>  <SCORE.norm>
-0.577624

>  <RMSD>
3.356

$$$$
ligand
 OpenBabel02271912133D
libRbt.so/2013.1/901 2013/11/27
 10 11  0  0  0  0  0  0  0  0999 V2000
   12.3873   -4.2281    7.5880 C   0  0  1  0  0  0  0  0  0  0  0  0
   11.4229   -1.1006    8.5591 C   0  0  2  0  0  0  0  0  0  0  0  0
   11.7272   -2.3569    6.8929 C   0  0  2  0  0  0  0  0  0  0  0  0
   12.7982   -5.5004    7.6365 N   0  0  0  0  0  0  0  0  0  0  0  0
   11.3263   -0.6223    9.7957 N   0  0  0  0  0  0  0  0  0  0  0  0
   11.1414   -0.4085    7.4616 N   0  0  0  0  0  0  0  0  0  0  0  0
   12.1023   -3.5666    6.4718 N   0  0  0  0  0  0  0  0  0  0  0  0
   12.1817   -3.4325    8.6538 N   0  0  0  0  0  0  0  0  0  0  0  0
   11.3257   -1.1443    6.4816 N   0  0  0  0  0  0  0  0  0  0  0  0
   11.7909   -2.3333    8.2296 N   0  0  1  0  0  0  0  0  0  0  0  0
  1  4  1  1  0  0  0
  1  8  1  0  0  0  0
  1  7  1  0  0  0  0
  2  5  1  1  0  0  0
  2  6  1  0  0  0  0
  2 10  1  0  0  0  0
  3  7  1  6  0  0  0
  3 10  1  0  0  0  0
  3  9  1  0  0  0  0
  6  9  1  0  0  0  0
 10  8  1  6  0  0  0
M  END
>  <CHROM.1>
11.81924890,-2.46522347,7.78142127,-0.34673048,-1.25334540,1.40800360

>  <Name>
ligand

>  <RI>
0

>  <Rbt.Current_Directory>
/home/itssahil/PROJECTS/Mol_Feturizer/Test_systems_manuscript/rnas/2xnw

>  <Rbt.Executable>
rbdock ($Id: //depot/dev/client3/rdock/2013.1/src/exe/rbdock.cxx#4 $)

>  <Rbt.Library>
libRbt.so (2013.1, Build901 2013/11/27)

>  <Rbt.Parameter_File>
/export/apps/rDock/src/rDock_2013.1_src/data/scripts/dock_solv.prm

>  <Rbt.Receptor>
prm/pocket_docking_7.prm

>  <SCORE>
-5.73918

>  <SCORE.INTER>
-5.73918

>  <SCORE.INTER.CONST>
1

>  <SCORE.INTER.POLAR>
0

>  <SCORE.INTER.ROT>
0

>  <SCORE.INTER.SOLV>
18.7039

>  <SCORE.INTER.VDW>
-13.6607

>  <SCORE.INTER.norm>
-0.573918

>  <SCORE.INTRA>
0

>  <SCORE.INTRA.DIHEDRAL>
0

>  <SCORE.INTRA.DIHEDRAL.0>
0

>  <SCORE.INTRA.POLAR>
0

>  <SCORE.INTRA.POLAR.0>
0

>  <SCORE.INTRA.REPUL>
0

>  <SCORE.INTRA.REPUL.0>
0

>  <SCORE.INTRA.SOLV>
0

>  <SCORE.INTRA.SOLV.lig_0>
-47.9788

>  <SCORE.INTRA.VDW>
0

>  <SCORE.INTRA.VDW.0>
0

>  <SCORE.INTRA.norm>
0

>  <SCORE.RESTR>
0

>  <SCORE.RESTR.CAVITY>
0

>  <SCORE.RESTR.norm>
0

>  <SCORE.SYSTEM>
0

>  <SCORE.SYSTEM.CONST>
0

>  <SCORE.SYSTEM.DIHEDRAL>
0

>  <SCORE.SYSTEM.SOLV>
0

>  <SCORE.SYSTEM.norm>
0

>  <SCORE.heavy>
10

>  <SCORE.norm>
-0.573918

>  <RMSD>
3.356

$$$$
ligand
 OpenBabel02271912133D
libRbt.so/2013.1/901 2013/11/27
 10 11  0  0  0  0  0  0  0  0999 V2000
   12.4984   -4.1449    7.5564 C   0  0  1  0  0  0  0  0  0  0  0  0
   11.4322   -1.0671    8.5787 C   0  0  2  0  0  0  0  0  0  0  0  0
   11.7818   -2.2834    6.8918 C   0  0  2  0  0  0  0  0  0  0  0  0
   12.9493   -5.4042    7.5841 N   0  0  0  0  0  0  0  0  0  0  0  0
   11.3162   -0.6142    9.8232 N   0  0  0  0  0  0  0  0  0  0  0  0
   11.1327   -0.3649    7.4925 N   0  0  0  0  0  0  0  0  0  0  0  0
   12.1965   -3.4730    6.4509 N   0  0  0  0  0  0  0  0  0  0  0  0
   12.2641   -3.3752    8.6352 N   0  0  0  0  0  0  0  0  0  0  0  0
   11.3436   -1.0769    6.5004 N   0  0  0  0  0  0  0  0  0  0  0  0
   11.8401   -2.2815    8.2290 N   0  0  1  0  0  0  0  0  0  0  0  0
  1  4  1  1  0  0  0
  1  8  1  0  0  0  0
  1  7  1  0  0  0  0
  2  5  1  1  0  0  0
  2  6  1  0  0  0  0
  2 10  1  0  0  0  0
  3  7  1  6  0  0  0
  3 10  1  0  0  0  0
  3  9  1  0  0  0  0
  6  9  1  0  0  0  0
 10  8  1  6  0  0  0
M  END
>  <CHROM.1>
11.87422482,-2.40451896,7.77863186,-0.32171617,-1.22256147,1.44937588

>  <Name>
ligand

>  <RI>
0

>  <Rbt.Current_Directory>
/home/itssahil/PROJECTS/Mol_Feturizer/Test_systems_manuscript/rnas/2xnw

>  <Rbt.Executable>
rbdock ($Id: //depot/dev/client3/rdock/2013.1/src/exe/rbdock.cxx#4 $)

>  <Rbt.Library>
libRbt.so (2013.1, Build901 2013/11/27)

>  <Rbt.Parameter_File>
/export/apps/rDock/src/rDock_2013.1_src/data/scripts/dock_solv.prm

>  <Rbt.Receptor>
prm/pocket_docking_3.prm

>  <SCORE>
-5.83727

>  <SCORE.INTER>
-5.83727

>  <SCORE.INTER.CONST>
1

>  <SCORE.INTER.POLAR>
0

>  <SCORE.INTER.ROT>
0

>  <SCORE.INTER.SOLV>
18.2261

>  <SCORE.INTER.VDW>
-13.5669

>  <SCORE.INTER.norm>
-0.583727

>  <SCORE.INTRA>
0

>  <SCORE.INTRA.DIHEDRAL>
0

>  <SCORE.INTRA.DIHEDRAL.0>
0

>  <SCORE.INTRA.POLAR>
0

>  <SCORE.INTRA.POLAR.0>
0

>  <SCORE.INTRA.REPUL>
0

>  <SCORE.INTRA.REPUL.0>
0

>  <SCORE.INTRA.SOLV>
0

>  <SCORE.INTRA.SOLV.lig_0>
-47.9788

>  <SCORE.INTRA.VDW>
0

>  <SCORE.INTRA.VDW.0>
0

>  <SCORE.INTRA.norm>
0

>  <SCORE.RESTR>
0

>  <SCORE.RESTR.CAVITY>
0

>  <SCORE.RESTR.norm>
0

>  <SCORE.SYSTEM>
0

>  <SCORE.SYSTEM.CONST>
0

>  <SCORE.SYSTEM.DIHEDRAL>
0

>  <SCORE.SYSTEM.SOLV>
0

>  <SCORE.SYSTEM.norm>
0

>  <SCORE.heavy>
10

>  <SCORE.norm>
-0.583727

>  <RMSD>
3.358

$$$$
ligand
 OpenBabel02271912133D
libRbt.so/2013.1/901 2013/11/27
 10 11  0  0  0  0  0  0  0  0999 V2000
   12.4064   -4.2579    7.6364 C   0  0  1  0  0  0  0  0  0  0  0  0
   11.4676   -1.1216    8.6042 C   0  0  2  0  0  0  0  0  0  0  0  0
   11.7691   -2.3797    6.9389 C   0  0  2  0  0  0  0  0  0  0  0  0
   12.8043   -5.5343    7.6864 N   0  0  0  0  0  0  0  0  0  0  0  0
   11.3685   -0.6432    9.8406 N   0  0  0  0  0  0  0  0  0  0  0  0
   11.1994   -0.4260    7.5056 N   0  0  0  0  0  0  0  0  0  0  0  0
   12.1346   -3.5928    6.5191 N   0  0  0  0  0  0  0  0  0  0  0  0
   12.2025   -3.4610    8.7015 N   0  0  0  0  0  0  0  0  0  0  0  0
   11.3821   -1.1629    6.5262 N   0  0  0  0  0  0  0  0  0  0  0  0
   11.8251   -2.3577    8.2760 N   0  0  1  0  0  0  0  0  0  0  0  0
  1  4  1  1  0  0  0
  1  8  1  0  0  0  0
  1  7  1  0  0  0  0
  2  5  1  1  0  0  0
  2  6  1  0  0  0  0
  2 10  1  0  0  0  0
  3  7  1  6  0  0  0
  3 10  1  0  0  0  0
  3  9  1  0  0  0  0
  6  9  1  0  0  0  0
 10  8  1  6  0  0  0
M  END
>  <CHROM.1>
11.85483609,-2.48955183,7.82782837,-0.33287938,-1.26410923,1.42191537

>  <Name>
ligand

>  <RI>
0

>  <Rbt.Current_Directory>
/home/itssahil/PROJECTS/Mol_Feturizer/Test_systems_manuscript/rnas/2xnw

>  <Rbt.Executable>
rbdock ($Id: //depot/dev/client3/rdock/2013.1/src/exe/rbdock.cxx#4 $)

>  <Rbt.Library>
libRbt.so (2013.1, Build901 2013/11/27)

>  <Rbt.Parameter_File>
/export/apps/rDock/src/rDock_2013.1_src/data/scripts/dock_solv.prm

>  <Rbt.Receptor>
prm/blind_docking_80.prm

>  <SCORE>
-5.84742

>  <SCORE.INTER>
-5.84742

>  <SCORE.INTER.CONST>
1

>  <SCORE.INTER.POLAR>
0

>  <SCORE.INTER.ROT>
0

>  <SCORE.INTER.SOLV>
18.7466

>  <SCORE.INTER.VDW>
-13.7471

>  <SCORE.INTER.norm>
-0.584742

>  <SCORE.INTRA>
0

>  <SCORE.INTRA.DIHEDRAL>
0

>  <SCORE.INTRA.DIHEDRAL.0>
0

>  <SCORE.INTRA.POLAR>
0

>  <SCORE.INTRA.POLAR.0>
0

>  <SCORE.INTRA.REPUL>
0

>  <SCORE.INTRA.REPUL.0>
0

>  <SCORE.INTRA.SOLV>
0

>  <SCORE.INTRA.SOLV.lig_0>
-47.9788

>  <SCORE.INTRA.VDW>
0

>  <SCORE.INTRA.VDW.0>
0

>  <SCORE.INTRA.norm>
0

>  <SCORE.RESTR>
0

>  <SCORE.RESTR.CAVITY>
0

>  <SCORE.RESTR.norm>
0

>  <SCORE.SYSTEM>
0

>  <SCORE.SYSTEM.CONST>
0

>  <SCORE.SYSTEM.DIHEDRAL>
0

>  <SCORE.SYSTEM.SOLV>
0

>  <SCORE.SYSTEM.norm>
0

>  <SCORE.heavy>
10

>  <SCORE.norm>
-0.584742

>  <RMSD>
3.359

$$$$
ligand
 OpenBabel02271912133D
libRbt.so/2013.1/901 2013/11/27
 10 11  0  0  0  0  0  0  0  0999 V2000
   12.5241   -4.1883    7.5896 C   0  0  1  0  0  0  0  0  0  0  0  0
   11.4836   -1.0962    8.5947 C   0  0  2  0  0  0  0  0  0  0  0  0
   11.8057   -2.3309    6.9158 C   0  0  2  0  0  0  0  0  0  0  0  0
   12.9704   -5.4491    7.6241 N   0  0  0  0  0  0  0  0  0  0  0  0
   11.3862   -0.6302    9.8359 N   0  0  0  0  0  0  0  0  0  0  0  0
   11.1721   -0.4038    7.5055 N   0  0  0  0  0  0  0  0  0  0  0  0
   12.2098   -3.5266    6.4815 N   0  0  0  0  0  0  0  0  0  0  0  0
   12.3073   -3.4068    8.6635 N   0  0  0  0  0  0  0  0  0  0  0  0
   11.3668   -1.1268    6.5179 N   0  0  0  0  0  0  0  0  0  0  0  0
   11.8821   -2.3157    8.2519 N   0  0  1  0  0  0  0  0  0  0  0  0
  1  4  1  1  0  0  0
  1  8  1  0  0  0  0
  1  7  1  0  0  0  0
  2  5  1  1  0  0  0
  2  6  1  0  0  0  0
  2 10  1  0  0  0  0
  3  7  1  6  0  0  0
  3 10  1  0  0  0  0
  3  9  1  0  0  0  0
  6  9  1  0  0  0  0
 10  8  1  6  0  0  0
M  END
>  <CHROM.1>
11.90959619,-2.44337352,7.80242720,-0.36263583,-1.22445525,1.40068908

>  <Name>
ligand

>  <RI>
0

>  <Rbt.Current_Directory>
/home/itssahil/PROJECTS/Mol_Feturizer/Test_systems_manuscript/rnas/2xnw

>  <Rbt.Executable>
rbdock ($Id: //depot/dev/client3/rdock/2013.1/src/exe/rbdock.cxx#4 $)

>  <Rbt.Library>
libRbt.so (2013.1, Build901 2013/11/27)

>  <Rbt.Parameter_File>
/export/apps/rDock/src/rDock_2013.1_src/data/scripts/dock_solv.prm

>  <Rbt.Receptor>
prm/blind_docking_100.prm

>  <SCORE>
-5.80811

>  <SCORE.INTER>
-5.80811

>  <SCORE.INTER.CONST>
1

>  <SCORE.INTER.POLAR>
0

>  <SCORE.INTER.ROT>
0

>  <SCORE.INTER.SOLV>
18.1403

>  <SCORE.INTER.VDW>
-13.5189

>  <SCORE.INTER.norm>
-0.580811

>  <SCORE.INTRA>
0

>  <SCORE.INTRA.DIHEDRAL>
0

>  <SCORE.INTRA.DIHEDRAL.0>
0

>  <SCORE.INTRA.POLAR>
0

>  <SCORE.INTRA.POLAR.0>
0

>  <SCORE.INTRA.REPUL>
0

>  <SCORE.INTRA.REPUL.0>
0

>  <SCORE.INTRA.SOLV>
0

>  <SCORE.INTRA.SOLV.lig_0>
-47.9788

>  <SCORE.INTRA.VDW>
0

>  <SCORE.INTRA.VDW.0>
0

>  <SCORE.INTRA.norm>
0

>  <SCORE.RESTR>
0

>  <SCORE.RESTR.CAVITY>
0

>  <SCORE.RESTR.norm>
0

>  <SCORE.SYSTEM>
0

>  <SCORE.SYSTEM.CONST>
0

>  <SCORE.SYSTEM.DIHEDRAL>
0

>  <SCORE.SYSTEM.SOLV>
0

>  <SCORE.SYSTEM.norm>
0

>  <SCORE.heavy>
10

>  <SCORE.norm>
-0.580811

>  <RMSD>
3.361

$$$$
ligand
 OpenBabel02271912133D
libRbt.so/2013.1/901 2013/11/27
 10 11  0  0  0  0  0  0  0  0999 V2000
   12.4356   -4.2243    7.5988 C   0  0  1  0  0  0  0  0  0  0  0  0
   11.4635   -1.1055    8.5901 C   0  0  2  0  0  0  0  0  0  0  0  0
   11.7725   -2.3497    6.9157 C   0  0  2  0  0  0  0  0  0  0  0  0
   12.8491   -5.4961    7.6392 N   0  0  0  0  0  0  0  0  0  0  0  0
   11.3642   -0.6359    9.8298 N   0  0  0  0  0  0  0  0  0  0  0  0
   11.1820   -0.4065    7.4970 N   0  0  0  0  0  0  0  0  0  0  0  0
   12.1507   -3.5558    6.4868 N   0  0  0  0  0  0  0  0  0  0  0  0
   12.2270   -3.4364    8.6697 N   0  0  0  0  0  0  0  0  0  0  0  0
   11.3691   -1.1352    6.5122 N   0  0  0  0  0  0  0  0  0  0  0  0
   11.8344   -2.3352    8.2526 N   0  0  1  0  0  0  0  0  0  0  0  0
  1  4  1  1  0  0  0
  1  8  1  0  0  0  0
  1  7  1  0  0  0  0
  2  5  1  1  0  0  0
  2  6  1  0  0  0  0
  2 10  1  0  0  0  0
  3  7  1  6  0  0  0
  3 10  1  0  0  0  0
  3  9  1  0  0  0  0
  6  9  1  0  0  0  0
 10  8  1  6  0  0  0
M  END
>  <CHROM.1>
11.86366285,-2.46396223,7.80355859,-0.34149073,-1.25151054,1.41983561

>  <Name>
ligand

>  <RI>
0

>  <Rbt.Current_Directory>
/home/itssahil/PROJECTS/Mol_Feturizer/Test_systems_manuscript/rnas/2xnw

>  <Rbt.Executable>
rbdock ($Id: //depot/dev/client3/rdock/2013.1/src/exe/rbdock.cxx#4 $)

>  <Rbt.Library>
libRbt.so (2013.1, Build901 2013/11/27)

>  <Rbt.Parameter_File>
/export/apps/rDock/src/rDock_2013.1_src/data/scripts/dock_solv.prm

>  <Rbt.Receptor>
prm/blind_docking_20.prm

>  <SCORE>
-5.84782

>  <SCORE.INTER>
-5.84782

>  <SCORE.INTER.CONST>
1

>  <SCORE.INTER.POLAR>
0

>  <SCORE.INTER.ROT>
0

>  <SCORE.INTER.SOLV>
18.5456

>  <SCORE.INTER.VDW>
-13.6804

>  <SCORE.INTER.norm>
-0.584782

>  <SCORE.INTRA>
0

>  <SCORE.INTRA.DIHEDRAL>
0

>  <SCORE.INTRA.DIHEDRAL.0>
0

>  <SCORE.INTRA.POLAR>
0

>  <SCORE.INTRA.POLAR.0>
0

>  <SCORE.INTRA.REPUL>
0

>  <SCORE.INTRA.REPUL.0>
0

>  <SCORE.INTRA.SOLV>
0

>  <SCORE.INTRA.SOLV.lig_0>
-47.9788

>  <SCORE.INTRA.VDW>
0

>  <SCORE.INTRA.VDW.0>
0

>  <SCORE.INTRA.norm>
0

>  <SCORE.RESTR>
0

>  <SCORE.RESTR.CAVITY>
0

>  <SCORE.RESTR.norm>
0

>  <SCORE.SYSTEM>
0

>  <SCORE.SYSTEM.CONST>
0

>  <SCORE.SYSTEM.DIHEDRAL>
0

>  <SCORE.SYSTEM.SOLV>
0

>  <SCORE.SYSTEM.norm>
0

>  <SCORE.heavy>
10

>  <SCORE.norm>
-0.584782

>  <RMSD>
3.361

$$$$
ligand
 OpenBabel02271912133D
libRbt.so/2013.1/901 2013/11/27
 10 11  0  0  0  0  0  0  0  0999 V2000
   12.5495   -4.1192    7.5418 C   0  0  1  0  0  0  0  0  0  0  0  0
   11.4424   -1.0641    8.5883 C   0  0  2  0  0  0  0  0  0  0  0  0
   11.7743   -2.2753    6.8942 C   0  0  2  0  0  0  0  0  0  0  0  0
   13.0288   -5.3682    7.5590 N   0  0  0  0  0  0  0  0  0  0  0  0
   11.3493   -0.6117    9.8349 N   0  0  0  0  0  0  0  0  0  0  0  0
   11.0988   -0.3707    7.5096 N   0  0  0  0  0  0  0  0  0  0  0  0
   12.2035   -3.4562    6.4439 N   0  0  0  0  0  0  0  0  0  0  0  0
   12.3267   -3.3531    8.6255 N   0  0  0  0  0  0  0  0  0  0  0  0
   11.2991   -1.0796    6.5131 N   0  0  0  0  0  0  0  0  0  0  0  0
   11.8679   -2.2698    8.2293 N   0  0  1  0  0  0  0  0  0  0  0  0
  1  4  1  1  0  0  0
  1  8  1  0  0  0  0
  1  7  1  0  0  0  0
  2  5  1  1  0  0  0
  2  6  1  0  0  0  0
  2 10  1  0  0  0  0
  3  7  1  6  0  0  0
  3 10  1  0  0  0  0
  3  9  1  0  0  0  0
  6  9  1  0  0  0  0
 10  8  1  6  0  0  0
M  END
>  <CHROM.1>
11.89277151,-2.39281086,7.77839141,-0.38619385,-1.19655364,1.38756294

>  <Name>
ligand

>  <RI>
0

>  <Rbt.Current_Directory>
/home/itssahil/PROJECTS/Mol_Feturizer/Test_systems_manuscript/rnas/2xnw

>  <Rbt.Executable>
rbdock ($Id: //depot/dev/client3/rdock/2013.1/src/exe/rbdock.cxx#4 $)

>  <Rbt.Library>
libRbt.so (2013.1, Build901 2013/11/27)

>  <Rbt.Parameter_File>
/export/apps/rDock/src/rDock_2013.1_src/data/scripts/dock_solv.prm

>  <Rbt.Receptor>
prm/blind_docking_60.prm

>  <SCORE>
-5.83407

>  <SCORE.INTER>
-5.83407

>  <SCORE.INTER.CONST>
1

>  <SCORE.INTER.POLAR>
0

>  <SCORE.INTER.ROT>
0

>  <SCORE.INTER.SOLV>
17.9846

>  <SCORE.INTER.VDW>
-13.4842

>  <SCORE.INTER.norm>
-0.583407

>  <SCORE.INTRA>
0

>  <SCORE.INTRA.DIHEDRAL>
0

>  <SCORE.INTRA.DIHEDRAL.0>
0

>  <SCORE.INTRA.POLAR>
0

>  <SCORE.INTRA.POLAR.0>
0

>  <SCORE.INTRA.REPUL>
0

>  <SCORE.INTRA.REPUL.0>
0

>  <SCORE.INTRA.SOLV>
0

>  <SCORE.INTRA.SOLV.lig_0>
-47.9788

>  <SCORE.INTRA.VDW>
0

>  <SCORE.INTRA.VDW.0>
0

>  <SCORE.INTRA.norm>
0

>  <SCORE.RESTR>
0

>  <SCORE.RESTR.CAVITY>
0

>  <SCORE.RESTR.norm>
0

>  <SCORE.SYSTEM>
0

>  <SCORE.SYSTEM.CONST>
0

>  <SCORE.SYSTEM.DIHEDRAL>
0

>  <SCORE.SYSTEM.SOLV>
0

>  <SCORE.SYSTEM.norm>
0

>  <SCORE.heavy>
10

>  <SCORE.norm>
-0.583407

>  <RMSD>
3.362

$$$$
ligand
 OpenBabel02271912133D
libRbt.so/2013.1/901 2013/11/27
 10 11  0  0  0  0  0  0  0  0999 V2000
   12.4340   -4.2252    7.6001 C   0  0  1  0  0  0  0  0  0  0  0  0
   11.4707   -1.1036    8.5912 C   0  0  2  0  0  0  0  0  0  0  0  0
   11.7664   -2.3521    6.9175 C   0  0  2  0  0  0  0  0  0  0  0  0
   12.8474   -5.4971    7.6404 N   0  0  0  0  0  0  0  0  0  0  0  0
   11.3813   -0.6310    9.8305 N   0  0  0  0  0  0  0  0  0  0  0  0
   11.1810   -0.4072    7.4986 N   0  0  0  0  0  0  0  0  0  0  0  0
   12.1407   -3.5594    6.4887 N   0  0  0  0  0  0  0  0  0  0  0  0
   12.2340   -3.4346    8.6707 N   0  0  0  0  0  0  0  0  0  0  0  0
   11.3602   -1.1384    6.5142 N   0  0  0  0  0  0  0  0  0  0  0  0
   11.8386   -2.3343    8.2539 N   0  0  1  0  0  0  0  0  0  0  0  0
  1  4  1  1  0  0  0
  1  8  1  0  0  0  0
  1  7  1  0  0  0  0
  2  5  1  1  0  0  0
  2  6  1  0  0  0  0
  2 10  1  0  0  0  0
  3  7  1  6  0  0  0
  3 10  1  0  0  0  0
  3  9  1  0  0  0  0
  6  9  1  0  0  0  0
 10  8  1  6  0  0  0
M  END
>  <CHROM.1>
11.86433227,-2.46417922,7.80493867,-0.36607172,-1.25061103,1.39403289

>  <Name>
ligand

>  <RI>
0

>  <Rbt.Current_Directory>
/home/itssahil/PROJECTS/Mol_Feturizer/Test_systems_manuscript/rnas/2xnw

>  <Rbt.Executable>
rbdock ($Id: //depot/dev/client3/rdock/2013.1/src/exe/rbdock.cxx#4 $)

>  <Rbt.Library>
libRbt.so (2013.1, Build901 2013/11/27)

>  <Rbt.Parameter_File>
/export/apps/rDock/src/rDock_2013.1_src/data/scripts/dock_solv.prm

>  <Rbt.Receptor>
prm/pocket_docking_7.prm

>  <SCORE>
-5.84764

>  <SCORE.INTER>
-5.84764

>  <SCORE.INTER.CONST>
1

>  <SCORE.INTER.POLAR>
0

>  <SCORE.INTER.ROT>
0

>  <SCORE.INTER.SOLV>
18.5537

>  <SCORE.INTER.VDW>
-13.683

>  <SCORE.INTER.norm>
-0.584764

>  <SCORE.INTRA>
0

>  <SCORE.INTRA.DIHEDRAL>
0

>  <SCORE.INTRA.DIHEDRAL.0>
0

>  <SCORE.INTRA.POLAR>
0

>  <SCORE.INTRA.POLAR.0>
0

>  <SCORE.INTRA.REPUL>
0

>  <SCORE.INTRA.REPUL.0>
0

>  <SCORE.INTRA.SOLV>
0

>  <SCORE.INTRA.SOLV.lig_0>
-47.9788

>  <SCORE.INTRA.VDW>
0

>  <SCORE.INTRA.VDW.0>
0

>  <SCORE.INTRA.norm>
0

>  <SCORE.RESTR>
0

>  <SCORE.RESTR.CAVITY>
0

>  <SCORE.RESTR.norm>
0

>  <SCORE.SYSTEM>
0

>  <SCORE.SYSTEM.CONST>
0

>  <SCORE.SYSTEM.DIHEDRAL>
0

>  <SCORE.SYSTEM.SOLV>
0

>  <SCORE.SYSTEM.norm>
0

>  <SCORE.heavy>
10

>  <SCORE.norm>
-0.584764

>  <RMSD>
3.362

$$$$
ligand
 OpenBabel02271912133D
libRbt.so/2013.1/901 2013/11/27
 10 11  0  0  0  0  0  0  0  0999 V2000
   12.4968   -4.1499    7.5567 C   0  0  1  0  0  0  0  0  0  0  0  0
   11.4609   -1.0667    8.5934 C   0  0  2  0  0  0  0  0  0  0  0  0
   11.7957   -2.2794    6.9010 C   0  0  2  0  0  0  0  0  0  0  0  0
   12.9363   -5.4134    7.5785 N   0  0  0  0  0  0  0  0  0  0  0  0
   11.3519   -0.6176    9.8399 N   0  0  0  0  0  0  0  0  0  0  0  0
   11.1654   -0.3575    7.5106 N   0  0  0  0  0  0  0  0  0  0  0  0
   12.1986   -3.4710    6.4546 N   0  0  0  0  0  0  0  0  0  0  0  0
   12.2719   -3.3824    8.6390 N   0  0  0  0  0  0  0  0  0  0  0  0
   11.3676   -1.0676    6.5153 N   0  0  0  0  0  0  0  0  0  0  0  0
   11.8570   -2.2834    8.2380 N   0  0  1  0  0  0  0  0  0  0  0  0
  1  4  1  1  0  0  0
  1  8  1  0  0  0  0
  1  7  1  0  0  0  0
  2  5  1  1  0  0  0
  2  6  1  0  0  0  0
  2 10  1  0  0  0  0
  3  7  1  6  0  0  0
  3 10  1  0  0  0  0
  3  9  1  0  0  0  0
  6  9  1  0  0  0  0
 10  8  1  6  0  0  0
M  END
>  <CHROM.1>
11.88897755,-2.40488528,7.78713417,-0.33168234,-1.23130301,1.44388237

>  <Name>
ligand

>  <RI>
0

>  <Rbt.Current_Directory>
/home/itssahil/PROJECTS/Mol_Feturizer/Test_systems_manuscript/rnas/2xnw

>  <Rbt.Executable>
rbdock ($Id: //depot/dev/client3/rdock/2013.1/src/exe/rbdock.cxx#4 $)

>  <Rbt.Library>
libRbt.so (2013.1, Build901 2013/11/27)

>  <Rbt.Parameter_File>
/export/apps/rDock/src/rDock_2013.1_src/data/scripts/dock_solv.prm

>  <Rbt.Receptor>
prm/blind_docking_60.prm

>  <SCORE>
-5.82568

>  <SCORE.INTER>
-5.82568

>  <SCORE.INTER.CONST>
1

>  <SCORE.INTER.POLAR>
0

>  <SCORE.INTER.ROT>
0

>  <SCORE.INTER.SOLV>
18.286

>  <SCORE.INTER.VDW>
-13.5791

>  <SCORE.INTER.norm>
-0.582568

>  <SCORE.INTRA>
0

>  <SCORE.INTRA.DIHEDRAL>
0

>  <SCORE.INTRA.DIHEDRAL.0>
0

>  <SCORE.INTRA.POLAR>
0

>  <SCORE.INTRA.POLAR.0>
0

>  <SCORE.INTRA.REPUL>
0

>  <SCORE.INTRA.REPUL.0>
0

>  <SCORE.INTRA.SOLV>
0

>  <SCORE.INTRA.SOLV.lig_0>
-47.9788

>  <SCORE.INTRA.VDW>
0

>  <SCORE.INTRA.VDW.0>
0

>  <SCORE.INTRA.norm>
0

>  <SCORE.RESTR>
0

>  <SCORE.RESTR.CAVITY>
0

>  <SCORE.RESTR.norm>
0

>  <SCORE.SYSTEM>
0

>  <SCORE.SYSTEM.CONST>
0

>  <SCORE.SYSTEM.DIHEDRAL>
0

>  <SCORE.SYSTEM.SOLV>
0

>  <SCORE.SYSTEM.norm>
0

>  <SCORE.heavy>
10

>  <SCORE.norm>
-0.582568

>  <RMSD>
3.364

$$$$
ligand
 OpenBabel02271912133D
libRbt.so/2013.1/901 2013/11/27
 10 11  0  0  0  0  0  0  0  0999 V2000
   12.4417   -4.2191    7.6050 C   0  0  1  0  0  0  0  0  0  0  0  0
   11.4718   -1.1038    8.6092 C   0  0  2  0  0  0  0  0  0  0  0  0
   11.7547   -2.3497    6.9315 C   0  0  2  0  0  0  0  0  0  0  0  0
   12.8630   -5.4885    7.6396 N   0  0  0  0  0  0  0  0  0  0  0  0
   11.3944   -0.6322    9.8497 N   0  0  0  0  0  0  0  0  0  0  0  0
   11.1648   -0.4086    7.5205 N   0  0  0  0  0  0  0  0  0  0  0  0
   12.1311   -3.5545    6.4976 N   0  0  0  0  0  0  0  0  0  0  0  0
   12.2498   -3.4302    8.6783 N   0  0  0  0  0  0  0  0  0  0  0  0
   11.3365   -1.1382    6.5337 N   0  0  0  0  0  0  0  0  0  0  0  0
   11.8429   -2.3320    8.2669 N   0  0  1  0  0  0  0  0  0  0  0  0
  1  4  1  1  0  0  0
  1  8  1  0  0  0  0
  1  7  1  0  0  0  0
  2  5  1  1  0  0  0
  2  6  1  0  0  0  0
  2 10  1  0  0  0  0
  3  7  1  6  0  0  0
  3 10  1  0  0  0  0
  3  9  1  0  0  0  0
  6  9  1  0  0  0  0
 10  8  1  6  0  0  0
M  END
>  <CHROM.1>
11.86398330,-2.46159380,7.81757474,-0.39954359,-1.24246219,1.36279596

>  <Name>
ligand

>  <RI>
0

>  <Rbt.Current_Directory>
/home/itssahil/PROJECTS/Mol_Feturizer/Test_systems_manuscript/rnas/2xnw

>  <Rbt.Executable>
rbdock ($Id: //depot/dev/client3/rdock/2013.1/src/exe/rbdock.cxx#4 $)

>  <Rbt.Library>
libRbt.so (2013.1, Build901 2013/11/27)

>  <Rbt.Parameter_File>
/export/apps/rDock/src/rDock_2013.1_src/data/scripts/dock_solv.prm

>  <Rbt.Receptor>
prm/blind_docking_40.prm

>  <SCORE>
-5.85556

>  <SCORE.INTER>
-5.85556

>  <SCORE.INTER.CONST>
1

>  <SCORE.INTER.POLAR>
0

>  <SCORE.INTER.ROT>
0

>  <SCORE.INTER.SOLV>
18.5234

>  <SCORE.INTER.VDW>
-13.6782

>  <SCORE.INTER.norm>
-0.585556

>  <SCORE.INTRA>
0

>  <SCORE.INTRA.DIHEDRAL>
0

>  <SCORE.INTRA.DIHEDRAL.0>
0

>  <SCORE.INTRA.POLAR>
0

>  <SCORE.INTRA.POLAR.0>
0

>  <SCORE.INTRA.REPUL>
0

>  <SCORE.INTRA.REPUL.0>
0

>  <SCORE.INTRA.SOLV>
0

>  <SCORE.INTRA.SOLV.lig_0>
-47.9788

>  <SCORE.INTRA.VDW>
0

>  <SCORE.INTRA.VDW.0>
0

>  <SCORE.INTRA.norm>
0

>  <SCORE.RESTR>
0

>  <SCORE.RESTR.CAVITY>
0

>  <SCORE.RESTR.norm>
0

>  <SCORE.SYSTEM>
0

>  <SCORE.SYSTEM.CONST>
0

>  <SCORE.SYSTEM.DIHEDRAL>
0

>  <SCORE.SYSTEM.SOLV>
0

>  <SCORE.SYSTEM.norm>
0

>  <SCORE.heavy>
10

>  <SCORE.norm>
-0.585556

>  <RMSD>
3.365

$$$$
ligand
 OpenBabel02271912133D
libRbt.so/2013.1/901 2013/11/27
 10 11  0  0  0  0  0  0  0  0999 V2000
   12.5655   -4.1511    7.5482 C   0  0  1  0  0  0  0  0  0  0  0  0
   11.4367   -1.1013    8.5871 C   0  0  2  0  0  0  0  0  0  0  0  0
   11.7709   -2.3169    6.8965 C   0  0  2  0  0  0  0  0  0  0  0  0
   13.0558   -5.3957    7.5684 N   0  0  0  0  0  0  0  0  0  0  0  0
   11.3458   -0.6443    9.8321 N   0  0  0  0  0  0  0  0  0  0  0  0
   11.0816   -0.4156    7.5070 N   0  0  0  0  0  0  0  0  0  0  0  0
   12.2083   -3.4959    6.4492 N   0  0  0  0  0  0  0  0  0  0  0  0
   12.3413   -3.3822    8.6297 N   0  0  0  0  0  0  0  0  0  0  0  0
   11.2833   -1.1271    6.5126 N   0  0  0  0  0  0  0  0  0  0  0  0
   11.8710   -2.3048    8.2312 N   0  0  1  0  0  0  0  0  0  0  0  0
  1  4  1  1  0  0  0
  1  8  1  0  0  0  0
  1  7  1  0  0  0  0
  2  5  1  1  0  0  0
  2  6  1  0  0  0  0
  2 10  1  0  0  0  0
  3  7  1  6  0  0  0
  3 10  1  0  0  0  0
  3  9  1  0  0  0  0
  6  9  1  0  0  0  0
 10  8  1  6  0  0  0
M  END
>  <CHROM.1>
11.89474720,-2.42948442,7.78061425,-0.39488949,-1.18697376,1.37515717

>  <Name>
ligand

>  <RI>
0

>  <Rbt.Current_Directory>
/home/itssahil/PROJECTS/Mol_Feturizer/Test_systems_manuscript/rnas/2xnw

>  <Rbt.Executable>
rbdock ($Id: //depot/dev/client3/rdock/2013.1/src/exe/rbdock.cxx#4 $)

>  <Rbt.Library>
libRbt.so (2013.1, Build901 2013/11/27)

>  <Rbt.Parameter_File>
/export/apps/rDock/src/rDock_2013.1_src/data/scripts/dock_solv.prm

>  <Rbt.Receptor>
prm/blind_docking_40.prm

>  <SCORE>
-5.84398

>  <SCORE.INTER>
-5.84398

>  <SCORE.INTER.CONST>
1

>  <SCORE.INTER.POLAR>
0

>  <SCORE.INTER.ROT>
0

>  <SCORE.INTER.SOLV>
17.8235

>  <SCORE.INTER.VDW>
-13.4372

>  <SCORE.INTER.norm>
-0.584398

>  <SCORE.INTRA>
0

>  <SCORE.INTRA.DIHEDRAL>
0

>  <SCORE.INTRA.DIHEDRAL.0>
0

>  <SCORE.INTRA.POLAR>
0

>  <SCORE.INTRA.POLAR.0>
0

>  <SCORE.INTRA.REPUL>
0

>  <SCORE.INTRA.REPUL.0>
0

>  <SCORE.INTRA.SOLV>
0

>  <SCORE.INTRA.SOLV.lig_0>
-47.9788

>  <SCORE.INTRA.VDW>
0

>  <SCORE.INTRA.VDW.0>
0

>  <SCORE.INTRA.norm>
0

>  <SCORE.RESTR>
0

>  <SCORE.RESTR.CAVITY>
0

>  <SCORE.RESTR.norm>
0

>  <SCORE.SYSTEM>
0

>  <SCORE.SYSTEM.CONST>
0

>  <SCORE.SYSTEM.DIHEDRAL>
0

>  <SCORE.SYSTEM.SOLV>
0

>  <SCORE.SYSTEM.norm>
0

>  <SCORE.heavy>
10

>  <SCORE.norm>
-0.584398

>  <RMSD>
3.365

$$$$
ligand
 OpenBabel02271912133D
libRbt.so/2013.1/901 2013/11/27
 10 11  0  0  0  0  0  0  0  0999 V2000
   12.4030   -4.2333    7.6026 C   0  0  1  0  0  0  0  0  0  0  0  0
   11.4629   -1.1068    8.6005 C   0  0  2  0  0  0  0  0  0  0  0  0
   11.7661   -2.3484    6.9231 C   0  0  2  0  0  0  0  0  0  0  0  0
   12.8010   -5.5101    7.6404 N   0  0  0  0  0  0  0  0  0  0  0  0
   11.3626   -0.6407    9.8414 N   0  0  0  0  0  0  0  0  0  0  0  0
   11.1957   -0.4005    7.5085 N   0  0  0  0  0  0  0  0  0  0  0  0
   12.1321   -3.5573    6.4917 N   0  0  0  0  0  0  0  0  0  0  0  0
   12.1980   -3.4470    8.6754 N   0  0  0  0  0  0  0  0  0  0  0  0
   11.3793   -1.1276    6.5220 N   0  0  0  0  0  0  0  0  0  0  0  0
   11.8209   -2.3396    8.2603 N   0  0  1  0  0  0  0  0  0  0  0  0
  1  4  1  1  0  0  0
  1  8  1  0  0  0  0
  1  7  1  0  0  0  0
  2  5  1  1  0  0  0
  2  6  1  0  0  0  0
  2 10  1  0  0  0  0
  3  7  1  6  0  0  0
  3 10  1  0  0  0  0
  3  9  1  0  0  0  0
  6  9  1  0  0  0  0
 10  8  1  6  0  0  0
M  END
>  <CHROM.1>
11.85103828,-2.46705547,7.81095777,-0.32984911,-1.26412510,1.43466275

>  <Name>
ligand

>  <RI>
0

>  <Rbt.Current_Directory>
/home/itssahil/PROJECTS/Mol_Feturizer/Test_systems_manuscript/rnas/2xnw

>  <Rbt.Executable>
rbdock ($Id: //depot/dev/client3/rdock/2013.1/src/exe/rbdock.cxx#4 $)

>  <Rbt.Library>
libRbt.so (2013.1, Build901 2013/11/27)

>  <Rbt.Parameter_File>
/export/apps/rDock/src/rDock_2013.1_src/data/scripts/dock_solv.prm

>  <Rbt.Receptor>
prm/blind_docking_80.prm

>  <SCORE>
-5.78795

>  <SCORE.INTER>
-5.78795

>  <SCORE.INTER.CONST>
1

>  <SCORE.INTER.POLAR>
0

>  <SCORE.INTER.ROT>
0

>  <SCORE.INTER.SOLV>
18.7249

>  <SCORE.INTER.VDW>
-13.7003

>  <SCORE.INTER.norm>
-0.578795

>  <SCORE.INTRA>
0

>  <SCORE.INTRA.DIHEDRAL>
0

>  <SCORE.INTRA.DIHEDRAL.0>
0

>  <SCORE.INTRA.POLAR>
0

>  <SCORE.INTRA.POLAR.0>
0

>  <SCORE.INTRA.REPUL>
0

>  <SCORE.INTRA.REPUL.0>
0

>  <SCORE.INTRA.SOLV>
0

>  <SCORE.INTRA.SOLV.lig_0>
-47.9788

>  <SCORE.INTRA.VDW>
0

>  <SCORE.INTRA.VDW.0>
0

>  <SCORE.INTRA.norm>
0

>  <SCORE.RESTR>
0

>  <SCORE.RESTR.CAVITY>
0

>  <SCORE.RESTR.norm>
0

>  <SCORE.SYSTEM>
0

>  <SCORE.SYSTEM.CONST>
0

>  <SCORE.SYSTEM.DIHEDRAL>
0

>  <SCORE.SYSTEM.SOLV>
0

>  <SCORE.SYSTEM.norm>
0

>  <SCORE.heavy>
10

>  <SCORE.norm>
-0.578795

>  <RMSD>
3.365

$$$$
ligand
 OpenBabel02271912133D
libRbt.so/2013.1/901 2013/11/27
 10 11  0  0  0  0  0  0  0  0999 V2000
   12.5309   -4.1656    7.5561 C   0  0  1  0  0  0  0  0  0  0  0  0
   11.4750   -1.0872    8.5872 C   0  0  2  0  0  0  0  0  0  0  0  0
   11.7930   -2.3099    6.8987 C   0  0  2  0  0  0  0  0  0  0  0  0
   12.9871   -5.4231    7.5798 N   0  0  0  0  0  0  0  0  0  0  0  0
   11.3841   -0.6290    9.8318 N   0  0  0  0  0  0  0  0  0  0  0  0
   11.1496   -0.3911    7.5045 N   0  0  0  0  0  0  0  0  0  0  0  0
   12.2027   -3.4999    6.4544 N   0  0  0  0  0  0  0  0  0  0  0  0
   12.3169   -3.3918    8.6362 N   0  0  0  0  0  0  0  0  0  0  0  0
   11.3418   -1.1069    6.5113 N   0  0  0  0  0  0  0  0  0  0  0  0
   11.8801   -2.3017    8.2343 N   0  0  1  0  0  0  0  0  0  0  0  0
  1  4  1  1  0  0  0
  1  8  1  0  0  0  0
  1  7  1  0  0  0  0
  2  5  1  1  0  0  0
  2  6  1  0  0  0  0
  2 10  1  0  0  0  0
  3  7  1  6  0  0  0
  3 10  1  0  0  0  0
  3  9  1  0  0  0  0
  6  9  1  0  0  0  0
 10  8  1  6  0  0  0
M  END
>  <CHROM.1>
11.90492328,-2.42657796,7.78385220,-0.38174783,-1.21554664,1.38844637

>  <Name>
ligand

>  <RI>
0

>  <Rbt.Current_Directory>
/home/itssahil/PROJECTS/Mol_Feturizer/Test_systems_manuscript/rnas/2xnw

>  <Rbt.Executable>
rbdock ($Id: //depot/dev/client3/rdock/2013.1/src/exe/rbdock.cxx#4 $)

>  <Rbt.Library>
libRbt.so (2013.1, Build901 2013/11/27)

>  <Rbt.Parameter_File>
/export/apps/rDock/src/rDock_2013.1_src/data/scripts/dock_solv.prm

>  <Rbt.Receptor>
prm/blind_docking_100.prm

>  <SCORE>
-5.86947

>  <SCORE.INTER>
-5.86947

>  <SCORE.INTER.CONST>
1

>  <SCORE.INTER.POLAR>
0

>  <SCORE.INTER.ROT>
0

>  <SCORE.INTER.SOLV>
18.0574

>  <SCORE.INTER.VDW>
-13.5321

>  <SCORE.INTER.norm>
-0.586947

>  <SCORE.INTRA>
0

>  <SCORE.INTRA.DIHEDRAL>
0

>  <SCORE.INTRA.DIHEDRAL.0>
0

>  <SCORE.INTRA.POLAR>
0

>  <SCORE.INTRA.POLAR.0>
0

>  <SCORE.INTRA.REPUL>
0

>  <SCORE.INTRA.REPUL.0>
0

>  <SCORE.INTRA.SOLV>
0

>  <SCORE.INTRA.SOLV.lig_0>
-47.9788

>  <SCORE.INTRA.VDW>
0

>  <SCORE.INTRA.VDW.0>
0

>  <SCORE.INTRA.norm>
0

>  <SCORE.RESTR>
0

>  <SCORE.RESTR.CAVITY>
0

>  <SCORE.RESTR.norm>
0

>  <SCORE.SYSTEM>
0

>  <SCORE.SYSTEM.CONST>
0

>  <SCORE.SYSTEM.DIHEDRAL>
0

>  <SCORE.SYSTEM.SOLV>
0

>  <SCORE.SYSTEM.norm>
0

>  <SCORE.heavy>
10

>  <SCORE.norm>
-0.586947

>  <RMSD>
3.366

$$$$
ligand
 OpenBabel02271912133D
libRbt.so/2013.1/901 2013/11/27
 10 11  0  0  0  0  0  0  0  0999 V2000
   12.5310   -4.1558    7.5563 C   0  0  1  0  0  0  0  0  0  0  0  0
   11.4703   -1.0819    8.5958 C   0  0  2  0  0  0  0  0  0  0  0  0
   11.7862   -2.3010    6.9042 C   0  0  2  0  0  0  0  0  0  0  0  0
   12.9905   -5.4122    7.5764 N   0  0  0  0  0  0  0  0  0  0  0  0
   11.3821   -0.6260    9.8414 N   0  0  0  0  0  0  0  0  0  0  0  0
   11.1396   -0.3849    7.5153 N   0  0  0  0  0  0  0  0  0  0  0  0
   12.1976   -3.4892    6.4567 N   0  0  0  0  0  0  0  0  0  0  0  0
   12.3183   -3.3844    8.6383 N   0  0  0  0  0  0  0  0  0  0  0  0
   11.3306   -1.0985    6.5203 N   0  0  0  0  0  0  0  0  0  0  0  0
   11.8774   -2.2947    8.2396 N   0  0  1  0  0  0  0  0  0  0  0  0
  1  4  1  1  0  0  0
  1  8  1  0  0  0  0
  1  7  1  0  0  0  0
  2  5  1  1  0  0  0
  2  6  1  0  0  0  0
  2 10  1  0  0  0  0
  3  7  1  6  0  0  0
  3 10  1  0  0  0  0
  3  9  1  0  0  0  0
  6  9  1  0  0  0  0
 10  8  1  6  0  0  0
M  END
>  <CHROM.1>
11.90117465,-2.41885118,7.78884447,-0.38924064,-1.21239437,1.38308733

>  <Name>
ligand

>  <RI>
0

>  <Rbt.Current_Directory>
/home/itssahil/PROJECTS/Mol_Feturizer/Test_systems_manuscript/rnas/2xnw

>  <Rbt.Executable>
rbdock ($Id: //depot/dev/client3/rdock/2013.1/src/exe/rbdock.cxx#4 $)

>  <Rbt.Library>
libRbt.so (2013.1, Build901 2013/11/27)

>  <Rbt.Parameter_File>
/export/apps/rDock/src/rDock_2013.1_src/data/scripts/dock_solv.prm

>  <Rbt.Receptor>
prm/blind_docking_20.prm

>  <SCORE>
-5.84349

>  <SCORE.INTER>
-5.84349

>  <SCORE.INTER.CONST>
1

>  <SCORE.INTER.POLAR>
0

>  <SCORE.INTER.ROT>
0

>  <SCORE.INTER.SOLV>
18.0626

>  <SCORE.INTER.VDW>
-13.5165

>  <SCORE.INTER.norm>
-0.584349

>  <SCORE.INTRA>
0

>  <SCORE.INTRA.DIHEDRAL>
0

>  <SCORE.INTRA.DIHEDRAL.0>
0

>  <SCORE.INTRA.POLAR>
0

>  <SCORE.INTRA.POLAR.0>
0

>  <SCORE.INTRA.REPUL>
0

>  <SCORE.INTRA.REPUL.0>
0

>  <SCORE.INTRA.SOLV>
0

>  <SCORE.INTRA.SOLV.lig_0>
-47.9788

>  <SCORE.INTRA.VDW>
0

>  <SCORE.INTRA.VDW.0>
0

>  <SCORE.INTRA.norm>
0

>  <SCORE.RESTR>
0

>  <SCORE.RESTR.CAVITY>
0

>  <SCORE.RESTR.norm>
0

>  <SCORE.SYSTEM>
0

>  <SCORE.SYSTEM.CONST>
0

>  <SCORE.SYSTEM.DIHEDRAL>
0

>  <SCORE.SYSTEM.SOLV>
0

>  <SCORE.SYSTEM.norm>
0

>  <SCORE.heavy>
10

>  <SCORE.norm>
-0.584349

>  <RMSD>
3.366

$$$$
ligand
 OpenBabel02271912133D
libRbt.so/2013.1/901 2013/11/27
 10 11  0  0  0  0  0  0  0  0999 V2000
   12.4114   -4.2429    7.6070 C   0  0  1  0  0  0  0  0  0  0  0  0
   11.4730   -1.1162    8.6058 C   0  0  2  0  0  0  0  0  0  0  0  0
   11.7521   -2.3649    6.9295 C   0  0  2  0  0  0  0  0  0  0  0  0
   12.8169   -5.5173    7.6440 N   0  0  0  0  0  0  0  0  0  0  0  0
   11.3929   -0.6442    9.8459 N   0  0  0  0  0  0  0  0  0  0  0  0
   11.1821   -0.4169    7.5153 N   0  0  0  0  0  0  0  0  0  0  0  0
   12.1167   -3.5741    6.4977 N   0  0  0  0  0  0  0  0  0  0  0  0
   12.2219   -3.4521    8.6792 N   0  0  0  0  0  0  0  0  0  0  0  0
   11.3516   -1.1483    6.5293 N   0  0  0  0  0  0  0  0  0  0  0  0
   11.8313   -2.3488    8.2655 N   0  0  1  0  0  0  0  0  0  0  0  0
  1  4  1  1  0  0  0
  1  8  1  0  0  0  0
  1  7  1  0  0  0  0
  2  5  1  1  0  0  0
  2  6  1  0  0  0  0
  2 10  1  0  0  0  0
  3  7  1  6  0  0  0
  3 10  1  0  0  0  0
  3  9  1  0  0  0  0
  6  9  1  0  0  0  0
 10  8  1  6  0  0  0
M  END
>  <CHROM.1>
11.85392866,-2.47844598,7.81628767,-0.38589260,-1.25588628,1.37613609

>  <Name>
ligand

>  <RI>
0

>  <Rbt.Current_Directory>
/home/itssahil/PROJECTS/Mol_Feturizer/Test_systems_manuscript/rnas/2xnw

>  <Rbt.Executable>
rbdock ($Id: //depot/dev/client3/rdock/2013.1/src/exe/rbdock.cxx#4 $)

>  <Rbt.Library>
libRbt.so (2013.1, Build901 2013/11/27)

>  <Rbt.Parameter_File>
/export/apps/rDock/src/rDock_2013.1_src/data/scripts/dock_solv.prm

>  <Rbt.Receptor>
prm/blind_docking_60.prm

>  <SCORE>
-5.88352

>  <SCORE.INTER>
-5.88352

>  <SCORE.INTER.CONST>
1

>  <SCORE.INTER.POLAR>
0

>  <SCORE.INTER.ROT>
0

>  <SCORE.INTER.SOLV>
18.6514

>  <SCORE.INTER.VDW>
-13.7395

>  <SCORE.INTER.norm>
-0.588352

>  <SCORE.INTRA>
0

>  <SCORE.INTRA.DIHEDRAL>
0

>  <SCORE.INTRA.DIHEDRAL.0>
0

>  <SCORE.INTRA.POLAR>
0

>  <SCORE.INTRA.POLAR.0>
0

>  <SCORE.INTRA.REPUL>
0

>  <SCORE.INTRA.REPUL.0>
0

>  <SCORE.INTRA.SOLV>
0

>  <SCORE.INTRA.SOLV.lig_0>
-47.9788

>  <SCORE.INTRA.VDW>
0

>  <SCORE.INTRA.VDW.0>
0

>  <SCORE.INTRA.norm>
0

>  <SCORE.RESTR>
0

>  <SCORE.RESTR.CAVITY>
0

>  <SCORE.RESTR.norm>
0

>  <SCORE.SYSTEM>
0

>  <SCORE.SYSTEM.CONST>
0

>  <SCORE.SYSTEM.DIHEDRAL>
0

>  <SCORE.SYSTEM.SOLV>
0

>  <SCORE.SYSTEM.norm>
0

>  <SCORE.heavy>
10

>  <SCORE.norm>
-0.588352

>  <RMSD>
3.367

$$$$
ligand
 OpenBabel02271912133D
libRbt.so/2013.1/901 2013/11/27
 10 11  0  0  0  0  0  0  0  0999 V2000
   12.5260   -4.1723    7.5529 C   0  0  1  0  0  0  0  0  0  0  0  0
   11.4727   -1.0928    8.5831 C   0  0  2  0  0  0  0  0  0  0  0  0
   11.8019   -2.3117    6.8940 C   0  0  2  0  0  0  0  0  0  0  0  0
   12.9768   -5.4318    7.5771 N   0  0  0  0  0  0  0  0  0  0  0  0
   11.3716   -0.6380    9.8281 N   0  0  0  0  0  0  0  0  0  0  0  0
   11.1604   -0.3921    7.4994 N   0  0  0  0  0  0  0  0  0  0  0  0
   12.2110   -3.5021    6.4500 N   0  0  0  0  0  0  0  0  0  0  0  0
   12.3047   -3.4010    8.6332 N   0  0  0  0  0  0  0  0  0  0  0  0
   11.3593   -1.1058    6.5060 N   0  0  0  0  0  0  0  0  0  0  0  0
   11.8761   -2.3078    8.2304 N   0  0  1  0  0  0  0  0  0  0  0  0
  1  4  1  1  0  0  0
  1  8  1  0  0  0  0
  1  7  1  0  0  0  0
  2  5  1  1  0  0  0
  2  6  1  0  0  0  0
  2 10  1  0  0  0  0
  3  7  1  6  0  0  0
  3 10  1  0  0  0  0
  3  9  1  0  0  0  0
  6  9  1  0  0  0  0
 10  8  1  6  0  0  0
M  END
>  <CHROM.1>
11.90482726,-2.43152039,7.77982959,-0.35626455,-1.22115620,1.41537705

>  <Name>
ligand

>  <RI>
0

>  <Rbt.Current_Directory>
/home/itssahil/PROJECTS/Mol_Feturizer/Test_systems_manuscript/rnas/2xnw

>  <Rbt.Executable>
rbdock ($Id: //depot/dev/client3/rdock/2013.1/src/exe/rbdock.cxx#4 $)

>  <Rbt.Library>
libRbt.so (2013.1, Build901 2013/11/27)

>  <Rbt.Parameter_File>
/export/apps/rDock/src/rDock_2013.1_src/data/scripts/dock_solv.prm

>  <Rbt.Receptor>
prm/pocket_docking_7.prm

>  <SCORE>
-5.8699

>  <SCORE.INTER>
-5.8699

>  <SCORE.INTER.CONST>
1

>  <SCORE.INTER.POLAR>
0

>  <SCORE.INTER.ROT>
0

>  <SCORE.INTER.SOLV>
18.0803

>  <SCORE.INTER.VDW>
-13.54

>  <SCORE.INTER.norm>
-0.58699

>  <SCORE.INTRA>
0

>  <SCORE.INTRA.DIHEDRAL>
0

>  <SCORE.INTRA.DIHEDRAL.0>
0

>  <SCORE.INTRA.POLAR>
0

>  <SCORE.INTRA.POLAR.0>
0

>  <SCORE.INTRA.REPUL>
0

>  <SCORE.INTRA.REPUL.0>
0

>  <SCORE.INTRA.SOLV>
0

>  <SCORE.INTRA.SOLV.lig_0>
-47.9788

>  <SCORE.INTRA.VDW>
0

>  <SCORE.INTRA.VDW.0>
0

>  <SCORE.INTRA.norm>
0

>  <SCORE.RESTR>
0

>  <SCORE.RESTR.CAVITY>
0

>  <SCORE.RESTR.norm>
0

>  <SCORE.SYSTEM>
0

>  <SCORE.SYSTEM.CONST>
0

>  <SCORE.SYSTEM.DIHEDRAL>
0

>  <SCORE.SYSTEM.SOLV>
0

>  <SCORE.SYSTEM.norm>
0

>  <SCORE.heavy>
10

>  <SCORE.norm>
-0.58699

>  <RMSD>
3.367

$$$$
ligand
 OpenBabel02271912133D
libRbt.so/2013.1/901 2013/11/27
 10 11  0  0  0  0  0  0  0  0999 V2000
   12.4220   -4.2196    7.6363 C   0  0  1  0  0  0  0  0  0  0  0  0
   11.4552   -1.1096    8.6598 C   0  0  2  0  0  0  0  0  0  0  0  0
   11.8186   -2.3187    6.9707 C   0  0  2  0  0  0  0  0  0  0  0  0
   12.8137   -5.4986    7.6637 N   0  0  0  0  0  0  0  0  0  0  0  0
   11.3087   -0.6679    9.9050 N   0  0  0  0  0  0  0  0  0  0  0  0
   11.2329   -0.3804    7.5728 N   0  0  0  0  0  0  0  0  0  0  0  0
   12.1967   -3.5204    6.5295 N   0  0  0  0  0  0  0  0  0  0  0  0
   12.1786   -3.4539    8.7159 N   0  0  0  0  0  0  0  0  0  0  0  0
   11.4520   -1.0885    6.5796 N   0  0  0  0  0  0  0  0  0  0  0  0
   11.8217   -2.3368    8.3090 N   0  0  1  0  0  0  0  0  0  0  0  0
  1  4  1  1  0  0  0
  1  8  1  0  0  0  0
  1  7  1  0  0  0  0
  2  5  1  1  0  0  0
  2  6  1  0  0  0  0
  2 10  1  0  0  0  0
  3  7  1  1  0  0  0
  3 10  1  0  0  0  0
  3  9  1  0  0  0  0
  6  9  1  0  0  0  0
 10  8  1  1  0  0  0
M  END
>  <CHROM.1>
11.86873951,-2.45541632,7.85863323,-0.20164391,-1.27059893,1.57706910

>  <Name>
ligand

>  <RI>
0

>  <Rbt.Current_Directory>
/home/itssahil/PROJECTS/Mol_Feturizer/Test_systems_manuscript/rnas/2xnw

>  <Rbt.Executable>
rbdock ($Id: //depot/dev/client3/rdock/2013.1/src/exe/rbdock.cxx#4 $)

>  <Rbt.Library>
libRbt.so (2013.1, Build901 2013/11/27)

>  <Rbt.Parameter_File>
/export/apps/rDock/src/rDock_2013.1_src/data/scripts/dock_solv.prm

>  <Rbt.Receptor>
prm/pocket_docking_7.prm

>  <SCORE>
-5.76461

>  <SCORE.INTER>
-5.76461

>  <SCORE.INTER.CONST>
1

>  <SCORE.INTER.POLAR>
0

>  <SCORE.INTER.ROT>
0

>  <SCORE.INTER.SOLV>
18.7753

>  <SCORE.INTER.VDW>
-13.7015

>  <SCORE.INTER.norm>
-0.576461

>  <SCORE.INTRA>
0

>  <SCORE.INTRA.DIHEDRAL>
0

>  <SCORE.INTRA.DIHEDRAL.0>
0

>  <SCORE.INTRA.POLAR>
0

>  <SCORE.INTRA.POLAR.0>
0

>  <SCORE.INTRA.REPUL>
0

>  <SCORE.INTRA.REPUL.0>
0

>  <SCORE.INTRA.SOLV>
0

>  <SCORE.INTRA.SOLV.lig_0>
-47.9788

>  <SCORE.INTRA.VDW>
0

>  <SCORE.INTRA.VDW.0>
0

>  <SCORE.INTRA.norm>
0

>  <SCORE.RESTR>
0

>  <SCORE.RESTR.CAVITY>
0

>  <SCORE.RESTR.norm>
0

>  <SCORE.SYSTEM>
0

>  <SCORE.SYSTEM.CONST>
0

>  <SCORE.SYSTEM.DIHEDRAL>
0

>  <SCORE.SYSTEM.SOLV>
0

>  <SCORE.SYSTEM.norm>
0

>  <SCORE.heavy>
10

>  <SCORE.norm>
-0.576461

>  <RMSD>
3.367

$$$$
ligand
 OpenBabel02271912133D
libRbt.so/2013.1/901 2013/11/27
 10 11  0  0  0  0  0  0  0  0999 V2000
   12.5420   -4.1699    7.5477 C   0  0  1  0  0  0  0  0  0  0  0  0
   11.4809   -1.0951    8.5839 C   0  0  2  0  0  0  0  0  0  0  0  0
   11.8040   -2.3132    6.8931 C   0  0  2  0  0  0  0  0  0  0  0  0
   12.9993   -5.4271    7.5693 N   0  0  0  0  0  0  0  0  0  0  0  0
   11.3866   -0.6401    9.8295 N   0  0  0  0  0  0  0  0  0  0  0  0
   11.1574   -0.3966    7.5022 N   0  0  0  0  0  0  0  0  0  0  0  0
   12.2158   -3.5018    6.4468 N   0  0  0  0  0  0  0  0  0  0  0  0
   12.3247   -3.3991    8.6292 N   0  0  0  0  0  0  0  0  0  0  0  0
   11.3526   -1.1097    6.5077 N   0  0  0  0  0  0  0  0  0  0  0  0
   11.8879   -2.3083    8.2289 N   0  0  1  0  0  0  0  0  0  0  0  0
  1  4  1  1  0  0  0
  1  8  1  0  0  0  0
  1  7  1  0  0  0  0
  2  5  1  1  0  0  0
  2  6  1  0  0  0  0
  2 10  1  0  0  0  0
  3  7  1  6  0  0  0
  3 10  1  0  0  0  0
  3  9  1  0  0  0  0
  6  9  1  0  0  0  0
 10  8  1  6  0  0  0
M  END
>  <CHROM.1>
11.91390803,-2.43207021,7.77824481,-0.37456897,-1.21507828,1.39768788

>  <Name>
ligand

>  <RI>
0

>  <Rbt.Current_Directory>
/home/itssahil/PROJECTS/Mol_Feturizer/Test_systems_manuscript/rnas/2xnw

>  <Rbt.Executable>
rbdock ($Id: //depot/dev/client3/rdock/2013.1/src/exe/rbdock.cxx#4 $)

>  <Rbt.Library>
libRbt.so (2013.1, Build901 2013/11/27)

>  <Rbt.Parameter_File>
/export/apps/rDock/src/rDock_2013.1_src/data/scripts/dock_solv.prm

>  <Rbt.Receptor>
prm/pocket_docking_7.prm

>  <SCORE>
-5.86651

>  <SCORE.INTER>
-5.86651

>  <SCORE.INTER.CONST>
1

>  <SCORE.INTER.POLAR>
0

>  <SCORE.INTER.ROT>
0

>  <SCORE.INTER.SOLV>
17.9884

>  <SCORE.INTER.VDW>
-13.5071

>  <SCORE.INTER.norm>
-0.586651

>  <SCORE.INTRA>
0

>  <SCORE.INTRA.DIHEDRAL>
0

>  <SCORE.INTRA.DIHEDRAL.0>
0

>  <SCORE.INTRA.POLAR>
0

>  <SCORE.INTRA.POLAR.0>
0

>  <SCORE.INTRA.REPUL>
0

>  <SCORE.INTRA.REPUL.0>
0

>  <SCORE.INTRA.SOLV>
0

>  <SCORE.INTRA.SOLV.lig_0>
-47.9788

>  <SCORE.INTRA.VDW>
0

>  <SCORE.INTRA.VDW.0>
0

>  <SCORE.INTRA.norm>
0

>  <SCORE.RESTR>
0

>  <SCORE.RESTR.CAVITY>
0

>  <SCORE.RESTR.norm>
0

>  <SCORE.SYSTEM>
0

>  <SCORE.SYSTEM.CONST>
0

>  <SCORE.SYSTEM.DIHEDRAL>
0

>  <SCORE.SYSTEM.SOLV>
0

>  <SCORE.SYSTEM.norm>
0

>  <SCORE.heavy>
10

>  <SCORE.norm>
-0.586651

>  <RMSD>
3.369

$$$$
ligand
 OpenBabel02271912133D
libRbt.so/2013.1/901 2013/11/27
 10 11  0  0  0  0  0  0  0  0999 V2000
   12.5276   -4.1743    7.5515 C   0  0  1  0  0  0  0  0  0  0  0  0
   11.4667   -1.1001    8.5897 C   0  0  2  0  0  0  0  0  0  0  0  0
   11.7971   -2.3144    6.8976 C   0  0  2  0  0  0  0  0  0  0  0  0
   12.9822   -5.4325    7.5724 N   0  0  0  0  0  0  0  0  0  0  0  0
   11.3660   -0.6482    9.8358 N   0  0  0  0  0  0  0  0  0  0  0  0
   11.1508   -0.3981    7.5080 N   0  0  0  0  0  0  0  0  0  0  0  0
   12.2091   -3.5027    6.4505 N   0  0  0  0  0  0  0  0  0  0  0  0
   12.3056   -3.4059    8.6337 N   0  0  0  0  0  0  0  0  0  0  0  0
   11.3504   -1.1090    6.5127 N   0  0  0  0  0  0  0  0  0  0  0  0
   11.8732   -2.3132    8.2338 N   0  0  1  0  0  0  0  0  0  0  0  0
  1  4  1  1  0  0  0
  1  8  1  0  0  0  0
  1  7  1  0  0  0  0
  2  5  1  1  0  0  0
  2  6  1  0  0  0  0
  2 10  1  0  0  0  0
  3  7  1  6  0  0  0
  3 10  1  0  0  0  0
  3  9  1  0  0  0  0
  6  9  1  0  0  0  0
 10  8  1  6  0  0  0
M  END
>  <CHROM.1>
11.90164860,-2.43583606,7.78299374,-0.35899131,-1.21801866,1.41493675

>  <Name>
ligand

>  <RI>
0

>  <Rbt.Current_Directory>
/home/itssahil/PROJECTS/Mol_Feturizer/Test_systems_manuscript/rnas/2xnw

>  <Rbt.Executable>
rbdock ($Id: //depot/dev/client3/rdock/2013.1/src/exe/rbdock.cxx#4 $)

>  <Rbt.Library>
libRbt.so (2013.1, Build901 2013/11/27)

>  <Rbt.Parameter_File>
/export/apps/rDock/src/rDock_2013.1_src/data/scripts/dock_solv.prm

>  <Rbt.Receptor>
prm/pocket_docking_8.prm

>  <SCORE>
-5.8644

>  <SCORE.INTER>
-5.8644

>  <SCORE.INTER.CONST>
1

>  <SCORE.INTER.POLAR>
0

>  <SCORE.INTER.ROT>
0

>  <SCORE.INTER.SOLV>
18.0542

>  <SCORE.INTER.VDW>
-13.5277

>  <SCORE.INTER.norm>
-0.58644

>  <SCORE.INTRA>
0

>  <SCORE.INTRA.DIHEDRAL>
0

>  <SCORE.INTRA.DIHEDRAL.0>
0

>  <SCORE.INTRA.POLAR>
0

>  <SCORE.INTRA.POLAR.0>
0

>  <SCORE.INTRA.REPUL>
0

>  <SCORE.INTRA.REPUL.0>
0

>  <SCORE.INTRA.SOLV>
0

>  <SCORE.INTRA.SOLV.lig_0>
-47.9788

>  <SCORE.INTRA.VDW>
0

>  <SCORE.INTRA.VDW.0>
0

>  <SCORE.INTRA.norm>
0

>  <SCORE.RESTR>
0

>  <SCORE.RESTR.CAVITY>
0

>  <SCORE.RESTR.norm>
0

>  <SCORE.SYSTEM>
0

>  <SCORE.SYSTEM.CONST>
0

>  <SCORE.SYSTEM.DIHEDRAL>
0

>  <SCORE.SYSTEM.SOLV>
0

>  <SCORE.SYSTEM.norm>
0

>  <SCORE.heavy>
10

>  <SCORE.norm>
-0.58644

>  <RMSD>
3.369

$$$$
ligand
 OpenBabel02271912133D
libRbt.so/2013.1/901 2013/11/27
 10 11  0  0  0  0  0  0  0  0999 V2000
   12.5154   -4.1460    7.5578 C   0  0  1  0  0  0  0  0  0  0  0  0
   11.4520   -1.0809    8.6201 C   0  0  2  0  0  0  0  0  0  0  0  0
   11.7500   -2.2942    6.9212 C   0  0  2  0  0  0  0  0  0  0  0  0
   12.9827   -5.3997    7.5682 N   0  0  0  0  0  0  0  0  0  0  0  0
   11.3795   -0.6284    9.8680 N   0  0  0  0  0  0  0  0  0  0  0  0
   11.1012   -0.3834    7.5462 N   0  0  0  0  0  0  0  0  0  0  0  0
   12.1618   -3.4789    6.4648 N   0  0  0  0  0  0  0  0  0  0  0  0
   12.3142   -3.3784    8.6447 N   0  0  0  0  0  0  0  0  0  0  0  0
   11.2817   -1.0937    6.5469 N   0  0  0  0  0  0  0  0  0  0  0  0
   11.8609   -2.2905    8.2550 N   0  0  1  0  0  0  0  0  0  0  0  0
  1  4  1  1  0  0  0
  1  8  1  0  0  0  0
  1  7  1  0  0  0  0
  2  5  1  1  0  0  0
  2  6  1  0  0  0  0
  2 10  1  0  0  0  0
  3  7  1  6  0  0  0
  3 10  1  0  0  0  0
  3  9  1  0  0  0  0
  6  9  1  0  0  0  0
 10  8  1  6  0  0  0
M  END
>  <CHROM.1>
11.87877617,-2.41339653,7.80374624,-0.42660183,-1.20355500,1.35047337

>  <Name>
ligand

>  <RI>
0

>  <Rbt.Current_Directory>
/home/itssahil/PROJECTS/Mol_Feturizer/Test_systems_manuscript/rnas/2xnw

>  <Rbt.Executable>
rbdock ($Id: //depot/dev/client3/rdock/2013.1/src/exe/rbdock.cxx#4 $)

>  <Rbt.Library>
libRbt.so (2013.1, Build901 2013/11/27)

>  <Rbt.Parameter_File>
/export/apps/rDock/src/rDock_2013.1_src/data/scripts/dock_solv.prm

>  <Rbt.Receptor>
prm/blind_docking_80.prm

>  <SCORE>
-5.84595

>  <SCORE.INTER>
-5.84595

>  <SCORE.INTER.CONST>
1

>  <SCORE.INTER.POLAR>
0

>  <SCORE.INTER.ROT>
0

>  <SCORE.INTER.SOLV>
18.1245

>  <SCORE.INTER.VDW>
-13.5388

>  <SCORE.INTER.norm>
-0.584595

>  <SCORE.INTRA>
0

>  <SCORE.INTRA.DIHEDRAL>
0

>  <SCORE.INTRA.DIHEDRAL.0>
0

>  <SCORE.INTRA.POLAR>
0

>  <SCORE.INTRA.POLAR.0>
0

>  <SCORE.INTRA.REPUL>
0

>  <SCORE.INTRA.REPUL.0>
0

>  <SCORE.INTRA.SOLV>
0

>  <SCORE.INTRA.SOLV.lig_0>
-47.9788

>  <SCORE.INTRA.VDW>
0

>  <SCORE.INTRA.VDW.0>
0

>  <SCORE.INTRA.norm>
0

>  <SCORE.RESTR>
0

>  <SCORE.RESTR.CAVITY>
0

>  <SCORE.RESTR.norm>
0

>  <SCORE.SYSTEM>
0

>  <SCORE.SYSTEM.CONST>
0

>  <SCORE.SYSTEM.DIHEDRAL>
0

>  <SCORE.SYSTEM.SOLV>
0

>  <SCORE.SYSTEM.norm>
0

>  <SCORE.heavy>
10

>  <SCORE.norm>
-0.584595

>  <RMSD>
3.370

$$$$
ligand
 OpenBabel02271912133D
libRbt.so/2013.1/901 2013/11/27
 10 11  0  0  0  0  0  0  0  0999 V2000
   12.5319   -4.1726    7.5547 C   0  0  1  0  0  0  0  0  0  0  0  0
   11.4556   -1.1055    8.5982 C   0  0  2  0  0  0  0  0  0  0  0  0
   11.7390   -2.3356    6.9089 C   0  0  2  0  0  0  0  0  0  0  0  0
   13.0114   -5.4215    7.5722 N   0  0  0  0  0  0  0  0  0  0  0  0
   11.3981   -0.6392    9.8418 N   0  0  0  0  0  0  0  0  0  0  0  0
   11.0815   -0.4239    7.5220 N   0  0  0  0  0  0  0  0  0  0  0  0
   12.1550   -3.5216    6.4598 N   0  0  0  0  0  0  0  0  0  0  0  0
   12.3402   -3.3943    8.6357 N   0  0  0  0  0  0  0  0  0  0  0  0
   11.2533   -1.1440    6.5282 N   0  0  0  0  0  0  0  0  0  0  0  0
   11.8705   -2.3153    8.2407 N   0  0  1  0  0  0  0  0  0  0  0  0
  1  4  1  1  0  0  0
  1  8  1  0  0  0  0
  1  7  1  0  0  0  0
  2  5  1  1  0  0  0
  2  6  1  0  0  0  0
  2 10  1  0  0  0  0
  3  7  1  6  0  0  0
  3 10  1  0  0  0  0
  3  9  1  0  0  0  0
  6  9  1  0  0  0  0
 10  8  1  6  0  0  0
M  END
>  <CHROM.1>
11.88251341,-2.44329696,7.79065737,-0.46166813,-1.19054390,1.30625820

>  <Name>
ligand

>  <RI>
0

>  <Rbt.Current_Directory>
/home/itssahil/PROJECTS/Mol_Feturizer/Test_systems_manuscript/rnas/2xnw

>  <Rbt.Executable>
rbdock ($Id: //depot/dev/client3/rdock/2013.1/src/exe/rbdock.cxx#4 $)

>  <Rbt.Library>
libRbt.so (2013.1, Build901 2013/11/27)

>  <Rbt.Parameter_File>
/export/apps/rDock/src/rDock_2013.1_src/data/scripts/dock_solv.prm

>  <Rbt.Receptor>
prm/pocket_docking_3.prm

>  <SCORE>
-5.85126

>  <SCORE.INTER>
-5.85126

>  <SCORE.INTER.CONST>
1

>  <SCORE.INTER.POLAR>
0

>  <SCORE.INTER.ROT>
0

>  <SCORE.INTER.SOLV>
17.9585

>  <SCORE.INTER.VDW>
-13.487

>  <SCORE.INTER.norm>
-0.585126

>  <SCORE.INTRA>
0

>  <SCORE.INTRA.DIHEDRAL>
0

>  <SCORE.INTRA.DIHEDRAL.0>
0

>  <SCORE.INTRA.POLAR>
0

>  <SCORE.INTRA.POLAR.0>
0

>  <SCORE.INTRA.REPUL>
0

>  <SCORE.INTRA.REPUL.0>
0

>  <SCORE.INTRA.SOLV>
0

>  <SCORE.INTRA.SOLV.lig_0>
-47.9788

>  <SCORE.INTRA.VDW>
0

>  <SCORE.INTRA.VDW.0>
0

>  <SCORE.INTRA.norm>
0

>  <SCORE.RESTR>
0

>  <SCORE.RESTR.CAVITY>
0

>  <SCORE.RESTR.norm>
0

>  <SCORE.SYSTEM>
0

>  <SCORE.SYSTEM.CONST>
0

>  <SCORE.SYSTEM.DIHEDRAL>
0

>  <SCORE.SYSTEM.SOLV>
0

>  <SCORE.SYSTEM.norm>
0

>  <SCORE.heavy>
10

>  <SCORE.norm>
-0.585126

>  <RMSD>
3.370

$$$$
ligand
 OpenBabel02271912133D
libRbt.so/2013.1/901 2013/11/27
 10 11  0  0  0  0  0  0  0  0999 V2000
   12.5160   -4.1534    7.5491 C   0  0  1  0  0  0  0  0  0  0  0  0
   11.4677   -1.0810    8.6055 C   0  0  2  0  0  0  0  0  0  0  0  0
   11.7666   -2.2965    6.9083 C   0  0  2  0  0  0  0  0  0  0  0  0
   12.9747   -5.4102    7.5621 N   0  0  0  0  0  0  0  0  0  0  0  0
   11.3916   -0.6279    9.8529 N   0  0  0  0  0  0  0  0  0  0  0  0
   11.1274   -0.3813    7.5297 N   0  0  0  0  0  0  0  0  0  0  0  0
   12.1728   -3.4841    6.4542 N   0  0  0  0  0  0  0  0  0  0  0  0
   12.3142   -3.3843    8.6348 N   0  0  0  0  0  0  0  0  0  0  0  0
   11.3084   -1.0929    6.5314 N   0  0  0  0  0  0  0  0  0  0  0  0
   11.8704   -2.2934    8.2427 N   0  0  1  0  0  0  0  0  0  0  0  0
  1  4  1  1  0  0  0
  1  8  1  0  0  0  0
  1  7  1  0  0  0  0
  2  5  1  1  0  0  0
  2  6  1  0  0  0  0
  2 10  1  0  0  0  0
  3  7  1  6  0  0  0
  3 10  1  0  0  0  0
  3  9  1  0  0  0  0
  6  9  1  0  0  0  0
 10  8  1  6  0  0  0
M  END
>  <CHROM.1>
11.88983379,-2.41648396,7.79152892,-0.41603648,-1.21129557,1.36023350

>  <Name>
ligand

>  <RI>
0

>  <Rbt.Current_Directory>
/home/itssahil/PROJECTS/Mol_Feturizer/Test_systems_manuscript/rnas/2xnw

>  <Rbt.Executable>
rbdock ($Id: //depot/dev/client3/rdock/2013.1/src/exe/rbdock.cxx#4 $)

>  <Rbt.Library>
libRbt.so (2013.1, Build901 2013/11/27)

>  <Rbt.Parameter_File>
/export/apps/rDock/src/rDock_2013.1_src/data/scripts/dock_solv.prm

>  <Rbt.Receptor>
prm/pocket_docking_5.prm

>  <SCORE>
-5.87206

>  <SCORE.INTER>
-5.87206

>  <SCORE.INTER.CONST>
1

>  <SCORE.INTER.POLAR>
0

>  <SCORE.INTER.ROT>
0

>  <SCORE.INTER.SOLV>
18.1207

>  <SCORE.INTER.VDW>
-13.5549

>  <SCORE.INTER.norm>
-0.587206

>  <SCORE.INTRA>
0

>  <SCORE.INTRA.DIHEDRAL>
0

>  <SCORE.INTRA.DIHEDRAL.0>
0

>  <SCORE.INTRA.POLAR>
0

>  <SCORE.INTRA.POLAR.0>
0

>  <SCORE.INTRA.REPUL>
0

>  <SCORE.INTRA.REPUL.0>
0

>  <SCORE.INTRA.SOLV>
0

>  <SCORE.INTRA.SOLV.lig_0>
-47.9788

>  <SCORE.INTRA.VDW>
0

>  <SCORE.INTRA.VDW.0>
0

>  <SCORE.INTRA.norm>
0

>  <SCORE.RESTR>
0

>  <SCORE.RESTR.CAVITY>
0

>  <SCORE.RESTR.norm>
0

>  <SCORE.SYSTEM>
0

>  <SCORE.SYSTEM.CONST>
0

>  <SCORE.SYSTEM.DIHEDRAL>
0

>  <SCORE.SYSTEM.SOLV>
0

>  <SCORE.SYSTEM.norm>
0

>  <SCORE.heavy>
10

>  <SCORE.norm>
-0.587206

>  <RMSD>
3.371

$$$$
ligand
 OpenBabel02271912133D
libRbt.so/2013.1/901 2013/11/27
 10 11  0  0  0  0  0  0  0  0999 V2000
   12.5308   -4.1718    7.5494 C   0  0  1  0  0  0  0  0  0  0  0  0
   11.4831   -1.0942    8.5908 C   0  0  2  0  0  0  0  0  0  0  0  0
   11.7947   -2.3132    6.8984 C   0  0  2  0  0  0  0  0  0  0  0  0
   12.9847   -5.4303    7.5688 N   0  0  0  0  0  0  0  0  0  0  0  0
   11.3960   -0.6390    9.8367 N   0  0  0  0  0  0  0  0  0  0  0  0
   11.1562   -0.3948    7.5106 N   0  0  0  0  0  0  0  0  0  0  0  0
   12.2011   -3.5028    6.4501 N   0  0  0  0  0  0  0  0  0  0  0  0
   12.3208   -3.4005    8.6319 N   0  0  0  0  0  0  0  0  0  0  0  0
   11.3448   -1.1084    6.5152 N   0  0  0  0  0  0  0  0  0  0  0  0
   11.8850   -2.3085    8.2338 N   0  0  1  0  0  0  0  0  0  0  0  0
  1  4  1  1  0  0  0
  1  8  1  0  0  0  0
  1  7  1  0  0  0  0
  2  5  1  1  0  0  0
  2  6  1  0  0  0  0
  2 10  1  0  0  0  0
  3  7  1  6  0  0  0
  3 10  1  0  0  0  0
  3  9  1  0  0  0  0
  6  9  1  0  0  0  0
 10  8  1  6  0  0  0
M  END
>  <CHROM.1>
11.90854193,-2.43231165,7.78298393,-0.38957039,-1.21688883,1.38363633

>  <Name>
ligand

>  <RI>
0

>  <Rbt.Current_Directory>
/home/itssahil/PROJECTS/Mol_Feturizer/Test_systems_manuscript/rnas/2xnw

>  <Rbt.Executable>
rbdock ($Id: //depot/dev/client3/rdock/2013.1/src/exe/rbdock.cxx#4 $)

>  <Rbt.Library>
libRbt.so (2013.1, Build901 2013/11/27)

>  <Rbt.Parameter_File>
/export/apps/rDock/src/rDock_2013.1_src/data/scripts/dock_solv.prm

>  <Rbt.Receptor>
prm/pocket_docking_7.prm

>  <SCORE>
-5.86768

>  <SCORE.INTER>
-5.86768

>  <SCORE.INTER.CONST>
1

>  <SCORE.INTER.POLAR>
0

>  <SCORE.INTER.ROT>
0

>  <SCORE.INTER.SOLV>
18.0479

>  <SCORE.INTER.VDW>
-13.5278

>  <SCORE.INTER.norm>
-0.586768

>  <SCORE.INTRA>
0

>  <SCORE.INTRA.DIHEDRAL>
0

>  <SCORE.INTRA.DIHEDRAL.0>
0

>  <SCORE.INTRA.POLAR>
0

>  <SCORE.INTRA.POLAR.0>
0

>  <SCORE.INTRA.REPUL>
0

>  <SCORE.INTRA.REPUL.0>
0

>  <SCORE.INTRA.SOLV>
0

>  <SCORE.INTRA.SOLV.lig_0>
-47.9788

>  <SCORE.INTRA.VDW>
0

>  <SCORE.INTRA.VDW.0>
0

>  <SCORE.INTRA.norm>
0

>  <SCORE.RESTR>
0

>  <SCORE.RESTR.CAVITY>
0

>  <SCORE.RESTR.norm>
0

>  <SCORE.SYSTEM>
0

>  <SCORE.SYSTEM.CONST>
0

>  <SCORE.SYSTEM.DIHEDRAL>
0

>  <SCORE.SYSTEM.SOLV>
0

>  <SCORE.SYSTEM.norm>
0

>  <SCORE.heavy>
10

>  <SCORE.norm>
-0.586768

>  <RMSD>
3.371

$$$$
ligand
 OpenBabel02271912133D
libRbt.so/2013.1/901 2013/11/27
 10 11  0  0  0  0  0  0  0  0999 V2000
   12.5560   -4.1332    7.5385 C   0  0  1  0  0  0  0  0  0  0  0  0
   11.4673   -1.0786    8.6058 C   0  0  2  0  0  0  0  0  0  0  0  0
   11.7622   -2.2918    6.9062 C   0  0  2  0  0  0  0  0  0  0  0  0
   13.0381   -5.3812    7.5465 N   0  0  0  0  0  0  0  0  0  0  0  0
   11.4024   -0.6244    9.8534 N   0  0  0  0  0  0  0  0  0  0  0  0
   11.0973   -0.3876    7.5342 N   0  0  0  0  0  0  0  0  0  0  0  0
   12.1832   -3.4726    6.4479 N   0  0  0  0  0  0  0  0  0  0  0  0
   12.3569   -3.3657    8.6259 N   0  0  0  0  0  0  0  0  0  0  0  0
   11.2758   -1.0977    6.5344 N   0  0  0  0  0  0  0  0  0  0  0  0
   11.8868   -2.2840    8.2388 N   0  0  1  0  0  0  0  0  0  0  0  0
  1  4  1  1  0  0  0
  1  8  1  0  0  0  0
  1  7  1  0  0  0  0
  2  5  1  1  0  0  0
  2  6  1  0  0  0  0
  2 10  1  0  0  0  0
  3  7  1  6  0  0  0
  3 10  1  0  0  0  0
  3  9  1  0  0  0  0
  6  9  1  0  0  0  0
 10  8  1  6  0  0  0
M  END
>  <CHROM.1>
11.90143464,-2.40768212,7.78762612,-0.44672852,-1.18968177,1.32971647

>  <Name>
ligand

>  <RI>
0

>  <Rbt.Current_Directory>
/home/itssahil/PROJECTS/Mol_Feturizer/Test_systems_manuscript/rnas/2xnw

>  <Rbt.Executable>
rbdock ($Id: //depot/dev/client3/rdock/2013.1/src/exe/rbdock.cxx#4 $)

>  <Rbt.Library>
libRbt.so (2013.1, Build901 2013/11/27)

>  <Rbt.Parameter_File>
/export/apps/rDock/src/rDock_2013.1_src/data/scripts/dock_solv.prm

>  <Rbt.Receptor>
prm/pocket_docking_4.prm

>  <SCORE>
-5.86781

>  <SCORE.INTER>
-5.86781

>  <SCORE.INTER.CONST>
1

>  <SCORE.INTER.POLAR>
0

>  <SCORE.INTER.ROT>
0

>  <SCORE.INTER.SOLV>
17.9317

>  <SCORE.INTER.VDW>
-13.4891

>  <SCORE.INTER.norm>
-0.586781

>  <SCORE.INTRA>
0

>  <SCORE.INTRA.DIHEDRAL>
0

>  <SCORE.INTRA.DIHEDRAL.0>
0

>  <SCORE.INTRA.POLAR>
0

>  <SCORE.INTRA.POLAR.0>
0

>  <SCORE.INTRA.REPUL>
0

>  <SCORE.INTRA.REPUL.0>
0

>  <SCORE.INTRA.SOLV>
0

>  <SCORE.INTRA.SOLV.lig_0>
-47.9788

>  <SCORE.INTRA.VDW>
0

>  <SCORE.INTRA.VDW.0>
0

>  <SCORE.INTRA.norm>
0

>  <SCORE.RESTR>
0

>  <SCORE.RESTR.CAVITY>
0

>  <SCORE.RESTR.norm>
0

>  <SCORE.SYSTEM>
0

>  <SCORE.SYSTEM.CONST>
0

>  <SCORE.SYSTEM.DIHEDRAL>
0

>  <SCORE.SYSTEM.SOLV>
0

>  <SCORE.SYSTEM.norm>
0

>  <SCORE.heavy>
10

>  <SCORE.norm>
-0.586781

>  <RMSD>
3.372

$$$$
ligand
 OpenBabel02271912133D
libRbt.so/2013.1/901 2013/11/27
 10 11  0  0  0  0  0  0  0  0999 V2000
   12.5497   -4.1711    7.5532 C   0  0  1  0  0  0  0  0  0  0  0  0
   11.4862   -1.1005    8.5995 C   0  0  2  0  0  0  0  0  0  0  0  0
   11.7838   -2.3229    6.9070 C   0  0  2  0  0  0  0  0  0  0  0  0
   13.0171   -5.4246    7.5702 N   0  0  0  0  0  0  0  0  0  0  0  0
   11.4141   -0.6413    9.8449 N   0  0  0  0  0  0  0  0  0  0  0  0
   11.1350   -0.4088    7.5220 N   0  0  0  0  0  0  0  0  0  0  0  0
   12.1956   -3.5100    6.4568 N   0  0  0  0  0  0  0  0  0  0  0  0
   12.3487   -3.3977    8.6360 N   0  0  0  0  0  0  0  0  0  0  0  0
   11.3152   -1.1244    6.5264 N   0  0  0  0  0  0  0  0  0  0  0  0
   11.8952   -2.3120    8.2407 N   0  0  1  0  0  0  0  0  0  0  0  0
  1  4  1  1  0  0  0
  1  8  1  0  0  0  0
  1  7  1  0  0  0  0
  2  5  1  1  0  0  0
  2  6  1  0  0  0  0
  2 10  1  0  0  0  0
  3  7  1  6  0  0  0
  3 10  1  0  0  0  0
  3  9  1  0  0  0  0
  6  9  1  0  0  0  0
 10  8  1  6  0  0  0
M  END
>  <CHROM.1>
11.91290305,-2.43731641,7.79009554,-0.42747197,-1.20334619,1.34430129

>  <Name>
ligand

>  <RI>
0

>  <Rbt.Current_Directory>
/home/itssahil/PROJECTS/Mol_Feturizer/Test_systems_manuscript/rnas/2xnw

>  <Rbt.Executable>
rbdock ($Id: //depot/dev/client3/rdock/2013.1/src/exe/rbdock.cxx#4 $)

>  <Rbt.Library>
libRbt.so (2013.1, Build901 2013/11/27)

>  <Rbt.Parameter_File>
/export/apps/rDock/src/rDock_2013.1_src/data/scripts/dock_solv.prm

>  <Rbt.Receptor>
prm/pocket_docking_8.prm

>  <SCORE>
-5.85669

>  <SCORE.INTER>
-5.85669

>  <SCORE.INTER.CONST>
1

>  <SCORE.INTER.POLAR>
0

>  <SCORE.INTER.ROT>
0

>  <SCORE.INTER.SOLV>
17.9291

>  <SCORE.INTER.VDW>
-13.4808

>  <SCORE.INTER.norm>
-0.585669

>  <SCORE.INTRA>
0

>  <SCORE.INTRA.DIHEDRAL>
0

>  <SCORE.INTRA.DIHEDRAL.0>
0

>  <SCORE.INTRA.POLAR>
0

>  <SCORE.INTRA.POLAR.0>
0

>  <SCORE.INTRA.REPUL>
0

>  <SCORE.INTRA.REPUL.0>
0

>  <SCORE.INTRA.SOLV>
0

>  <SCORE.INTRA.SOLV.lig_0>
-47.9788

>  <SCORE.INTRA.VDW>
0

>  <SCORE.INTRA.VDW.0>
0

>  <SCORE.INTRA.norm>
0

>  <SCORE.RESTR>
0

>  <SCORE.RESTR.CAVITY>
0

>  <SCORE.RESTR.norm>
0

>  <SCORE.SYSTEM>
0

>  <SCORE.SYSTEM.CONST>
0

>  <SCORE.SYSTEM.DIHEDRAL>
0

>  <SCORE.SYSTEM.SOLV>
0

>  <SCORE.SYSTEM.norm>
0

>  <SCORE.heavy>
10

>  <SCORE.norm>
-0.585669

>  <RMSD>
3.372

$$$$
ligand
 OpenBabel02271912133D
libRbt.so/2013.1/901 2013/11/27
 10 11  0  0  0  0  0  0  0  0999 V2000
   12.5484   -4.1707    7.5506 C   0  0  1  0  0  0  0  0  0  0  0  0
   11.4895   -1.0987    8.5975 C   0  0  2  0  0  0  0  0  0  0  0  0
   11.7947   -2.3175    6.9038 C   0  0  2  0  0  0  0  0  0  0  0  0
   13.0106   -5.4261    7.5675 N   0  0  0  0  0  0  0  0  0  0  0  0
   11.4099   -0.6426    9.8436 N   0  0  0  0  0  0  0  0  0  0  0  0
   11.1490   -0.4026    7.5194 N   0  0  0  0  0  0  0  0  0  0  0  0
   12.2051   -3.5051    6.4534 N   0  0  0  0  0  0  0  0  0  0  0  0
   12.3425   -3.3994    8.6340 N   0  0  0  0  0  0  0  0  0  0  0  0
   11.3338   -1.1162    6.5231 N   0  0  0  0  0  0  0  0  0  0  0  0
   11.8962   -2.3108    8.2384 N   0  0  1  0  0  0  0  0  0  0  0  0
  1  4  1  1  0  0  0
  1  8  1  0  0  0  0
  1  7  1  0  0  0  0
  2  5  1  1  0  0  0
  2  6  1  0  0  0  0
  2 10  1  0  0  0  0
  3  7  1  6  0  0  0
  3 10  1  0  0  0  0
  3  9  1  0  0  0  0
  6  9  1  0  0  0  0
 10  8  1  6  0  0  0
M  END
>  <CHROM.1>
11.91678851,-2.43495142,7.78756776,-0.40958168,-1.20887439,1.36378563

>  <Name>
ligand

>  <RI>
0

>  <Rbt.Current_Directory>
/home/itssahil/PROJECTS/Mol_Feturizer/Test_systems_manuscript/rnas/2xnw

>  <Rbt.Executable>
rbdock ($Id: //depot/dev/client3/rdock/2013.1/src/exe/rbdock.cxx#4 $)

>  <Rbt.Library>
libRbt.so (2013.1, Build901 2013/11/27)

>  <Rbt.Parameter_File>
/export/apps/rDock/src/rDock_2013.1_src/data/scripts/dock_solv.prm

>  <Rbt.Receptor>
prm/pocket_docking_8.prm

>  <SCORE>
-5.86407

>  <SCORE.INTER>
-5.86407

>  <SCORE.INTER.CONST>
1

>  <SCORE.INTER.POLAR>
0

>  <SCORE.INTER.ROT>
0

>  <SCORE.INTER.SOLV>
17.9512

>  <SCORE.INTER.VDW>
-13.4931

>  <SCORE.INTER.norm>
-0.586407

>  <SCORE.INTRA>
0

>  <SCORE.INTRA.DIHEDRAL>
0

>  <SCORE.INTRA.DIHEDRAL.0>
0

>  <SCORE.INTRA.POLAR>
0

>  <SCORE.INTRA.POLAR.0>
0

>  <SCORE.INTRA.REPUL>
0

>  <SCORE.INTRA.REPUL.0>
0

>  <SCORE.INTRA.SOLV>
0

>  <SCORE.INTRA.SOLV.lig_0>
-47.9788

>  <SCORE.INTRA.VDW>
0

>  <SCORE.INTRA.VDW.0>
0

>  <SCORE.INTRA.norm>
0

>  <SCORE.RESTR>
0

>  <SCORE.RESTR.CAVITY>
0

>  <SCORE.RESTR.norm>
0

>  <SCORE.SYSTEM>
0

>  <SCORE.SYSTEM.CONST>
0

>  <SCORE.SYSTEM.DIHEDRAL>
0

>  <SCORE.SYSTEM.SOLV>
0

>  <SCORE.SYSTEM.norm>
0

>  <SCORE.heavy>
10

>  <SCORE.norm>
-0.586407

>  <RMSD>
3.373

$$$$
ligand
 OpenBabel02271912133D
libRbt.so/2013.1/901 2013/11/27
 10 11  0  0  0  0  0  0  0  0999 V2000
   12.3943   -4.2425    7.5933 C   0  0  1  0  0  0  0  0  0  0  0  0
   11.4889   -1.1134    8.6148 C   0  0  2  0  0  0  0  0  0  0  0  0
   11.7377   -2.3582    6.9309 C   0  0  2  0  0  0  0  0  0  0  0  0
   12.7923   -5.5195    7.6207 N   0  0  0  0  0  0  0  0  0  0  0  0
   11.4284   -0.6450    9.8574 N   0  0  0  0  0  0  0  0  0  0  0  0
   11.1877   -0.4087    7.5306 N   0  0  0  0  0  0  0  0  0  0  0  0
   12.0888   -3.5682    6.4903 N   0  0  0  0  0  0  0  0  0  0  0  0
   12.2241   -3.4541    8.6706 N   0  0  0  0  0  0  0  0  0  0  0  0
   11.3394   -1.1378    6.5400 N   0  0  0  0  0  0  0  0  0  0  0  0
   11.8349   -2.3470    8.2657 N   0  0  1  0  0  0  0  0  0  0  0  0
  1  4  1  1  0  0  0
  1  8  1  0  0  0  0
  1  7  1  0  0  0  0
  2  5  1  1  0  0  0
  2  6  1  0  0  0  0
  2 10  1  0  0  0  0
  3  7  1  6  0  0  0
  3 10  1  0  0  0  0
  3  9  1  0  0  0  0
  6  9  1  0  0  0  0
 10  8  1  6  0  0  0
M  END
>  <CHROM.1>
11.85066565,-2.47533909,7.81581715,-0.43291222,-1.25907676,1.33466991

>  <Name>
ligand

>  <RI>
0

>  <Rbt.Current_Directory>
/home/itssahil/PROJECTS/Mol_Feturizer/Test_systems_manuscript/rnas/2xnw

>  <Rbt.Executable>
rbdock ($Id: //depot/dev/client3/rdock/2013.1/src/exe/rbdock.cxx#4 $)

>  <Rbt.Library>
libRbt.so (2013.1, Build901 2013/11/27)

>  <Rbt.Parameter_File>
/export/apps/rDock/src/rDock_2013.1_src/data/scripts/dock_solv.prm

>  <Rbt.Receptor>
prm/blind_docking_40.prm

>  <SCORE>
-5.79202

>  <SCORE.INTER>
-5.79202

>  <SCORE.INTER.CONST>
1

>  <SCORE.INTER.POLAR>
0

>  <SCORE.INTER.ROT>
0

>  <SCORE.INTER.SOLV>
18.7389

>  <SCORE.INTER.VDW>
-13.7077

>  <SCORE.INTER.norm>
-0.579202

>  <SCORE.INTRA>
0

>  <SCORE.INTRA.DIHEDRAL>
0

>  <SCORE.INTRA.DIHEDRAL.0>
0

>  <SCORE.INTRA.POLAR>
0

>  <SCORE.INTRA.POLAR.0>
0

>  <SCORE.INTRA.REPUL>
0

>  <SCORE.INTRA.REPUL.0>
0

>  <SCORE.INTRA.SOLV>
0

>  <SCORE.INTRA.SOLV.lig_0>
-47.9788

>  <SCORE.INTRA.VDW>
0

>  <SCORE.INTRA.VDW.0>
0

>  <SCORE.INTRA.norm>
0

>  <SCORE.RESTR>
0

>  <SCORE.RESTR.CAVITY>
0

>  <SCORE.RESTR.norm>
0

>  <SCORE.SYSTEM>
0

>  <SCORE.SYSTEM.CONST>
0

>  <SCORE.SYSTEM.DIHEDRAL>
0

>  <SCORE.SYSTEM.SOLV>
0

>  <SCORE.SYSTEM.norm>
0

>  <SCORE.heavy>
10

>  <SCORE.norm>
-0.579202

>  <RMSD>
3.375

$$$$
ligand
 OpenBabel02271912133D
libRbt.so/2013.1/901 2013/11/27
 10 11  0  0  0  0  0  0  0  0999 V2000
   12.5340   -4.1845    7.5545 C   0  0  1  0  0  0  0  0  0  0  0  0
   11.4991   -1.1056    8.6050 C   0  0  2  0  0  0  0  0  0  0  0  0
   11.7910   -2.3262    6.9103 C   0  0  2  0  0  0  0  0  0  0  0  0
   12.9878   -5.4430    7.5699 N   0  0  0  0  0  0  0  0  0  0  0  0
   11.4263   -0.6492    9.8514 N   0  0  0  0  0  0  0  0  0  0  0  0
   11.1601   -0.4071    7.5280 N   0  0  0  0  0  0  0  0  0  0  0  0
   12.1920   -3.5164    6.4585 N   0  0  0  0  0  0  0  0  0  0  0  0
   12.3366   -3.4121    8.6387 N   0  0  0  0  0  0  0  0  0  0  0  0
   11.3371   -1.1217    6.5311 N   0  0  0  0  0  0  0  0  0  0  0  0
   11.8966   -2.3203    8.2446 N   0  0  1  0  0  0  0  0  0  0  0  0
  1  4  1  1  0  0  0
  1  8  1  0  0  0  0
  1  7  1  0  0  0  0
  2  5  1  1  0  0  0
  2  6  1  0  0  0  0
  2 10  1  0  0  0  0
  3  7  1  6  0  0  0
  3 10  1  0  0  0  0
  3  9  1  0  0  0  0
  6  9  1  0  0  0  0
 10  8  1  6  0  0  0
M  END
>  <CHROM.1>
11.91491988,-2.44458079,7.79364510,-0.42193165,-1.21486104,1.35236664

>  <Name>
ligand

>  <RI>
0

>  <Rbt.Current_Directory>
/home/itssahil/PROJECTS/Mol_Feturizer/Test_systems_manuscript/rnas/2xnw

>  <Rbt.Executable>
rbdock ($Id: //depot/dev/client3/rdock/2013.1/src/exe/rbdock.cxx#4 $)

>  <Rbt.Library>
libRbt.so (2013.1, Build901 2013/11/27)

>  <Rbt.Parameter_File>
/export/apps/rDock/src/rDock_2013.1_src/data/scripts/dock_solv.prm

>  <Rbt.Receptor>
prm/pocket_docking_5.prm

>  <SCORE>
-5.83811

>  <SCORE.INTER>
-5.83811

>  <SCORE.INTER.CONST>
1

>  <SCORE.INTER.POLAR>
0

>  <SCORE.INTER.ROT>
0

>  <SCORE.INTER.SOLV>
18.0259

>  <SCORE.INTER.VDW>
-13.5007

>  <SCORE.INTER.norm>
-0.583811

>  <SCORE.INTRA>
0

>  <SCORE.INTRA.DIHEDRAL>
0

>  <SCORE.INTRA.DIHEDRAL.0>
0

>  <SCORE.INTRA.POLAR>
0

>  <SCORE.INTRA.POLAR.0>
0

>  <SCORE.INTRA.REPUL>
0

>  <SCORE.INTRA.REPUL.0>
0

>  <SCORE.INTRA.SOLV>
0

>  <SCORE.INTRA.SOLV.lig_0>
-47.9788

>  <SCORE.INTRA.VDW>
0

>  <SCORE.INTRA.VDW.0>
0

>  <SCORE.INTRA.norm>
0

>  <SCORE.RESTR>
0

>  <SCORE.RESTR.CAVITY>
0

>  <SCORE.RESTR.norm>
0

>  <SCORE.SYSTEM>
0

>  <SCORE.SYSTEM.CONST>
0

>  <SCORE.SYSTEM.DIHEDRAL>
0

>  <SCORE.SYSTEM.SOLV>
0

>  <SCORE.SYSTEM.norm>
0

>  <SCORE.heavy>
10

>  <SCORE.norm>
-0.583811

>  <RMSD>
3.376

$$$$
ligand
 OpenBabel02271912133D
libRbt.so/2013.1/901 2013/11/27
 10 11  0  0  0  0  0  0  0  0999 V2000
   12.5525   -4.1358    7.5082 C   0  0  1  0  0  0  0  0  0  0  0  0
   11.4703   -1.0870    8.5984 C   0  0  2  0  0  0  0  0  0  0  0  0
   11.7577   -2.2900    6.8903 C   0  0  2  0  0  0  0  0  0  0  0  0
   13.0337   -5.3841    7.5068 N   0  0  0  0  0  0  0  0  0  0  0  0
   11.4105   -0.6404    9.8490 N   0  0  0  0  0  0  0  0  0  0  0  0
   11.0967   -0.3891    7.5325 N   0  0  0  0  0  0  0  0  0  0  0  0
   12.1761   -3.4682    6.4232 N   0  0  0  0  0  0  0  0  0  0  0  0
   12.3582   -3.3748    8.6011 N   0  0  0  0  0  0  0  0  0  0  0  0
   11.2709   -1.0932    6.5277 N   0  0  0  0  0  0  0  0  0  0  0  0
   11.8874   -2.2904    8.2225 N   0  0  1  0  0  0  0  0  0  0  0  0
  1  4  1  1  0  0  0
  1  8  1  0  0  0  0
  1  7  1  0  0  0  0
  2  5  1  1  0  0  0
  2  6  1  0  0  0  0
  2 10  1  0  0  0  0
  3  7  1  6  0  0  0
  3 10  1  0  0  0  0
  3  9  1  0  0  0  0
  6  9  1  0  0  0  0
 10  8  1  6  0  0  0
M  END
>  <CHROM.1>
11.90026397,-2.41132735,7.77045179,-0.45724245,-1.18949789,1.32608264

>  <Name>
ligand

>  <RI>
0

>  <Rbt.Current_Directory>
/home/itssahil/PROJECTS/Mol_Feturizer/Test_systems_manuscript/rnas/2xnw

>  <Rbt.Executable>
rbdock ($Id: //depot/dev/client3/rdock/2013.1/src/exe/rbdock.cxx#4 $)

>  <Rbt.Library>
libRbt.so (2013.1, Build901 2013/11/27)

>  <Rbt.Parameter_File>
/export/apps/rDock/src/rDock_2013.1_src/data/scripts/dock_solv.prm

>  <Rbt.Receptor>
prm/pocket_docking_5.prm

>  <SCORE>
-5.85234

>  <SCORE.INTER>
-5.85234

>  <SCORE.INTER.CONST>
1

>  <SCORE.INTER.POLAR>
0

>  <SCORE.INTER.ROT>
0

>  <SCORE.INTER.SOLV>
17.9064

>  <SCORE.INTER.VDW>
-13.4704

>  <SCORE.INTER.norm>
-0.585234

>  <SCORE.INTRA>
0

>  <SCORE.INTRA.DIHEDRAL>
0

>  <SCORE.INTRA.DIHEDRAL.0>
0

>  <SCORE.INTRA.POLAR>
0

>  <SCORE.INTRA.POLAR.0>
0

>  <SCORE.INTRA.REPUL>
0

>  <SCORE.INTRA.REPUL.0>
0

>  <SCORE.INTRA.SOLV>
0

>  <SCORE.INTRA.SOLV.lig_0>
-47.9788

>  <SCORE.INTRA.VDW>
0

>  <SCORE.INTRA.VDW.0>
0

>  <SCORE.INTRA.norm>
0

>  <SCORE.RESTR>
0

>  <SCORE.RESTR.CAVITY>
0

>  <SCORE.RESTR.norm>
0

>  <SCORE.SYSTEM>
0

>  <SCORE.SYSTEM.CONST>
0

>  <SCORE.SYSTEM.DIHEDRAL>
0

>  <SCORE.SYSTEM.SOLV>
0

>  <SCORE.SYSTEM.norm>
0

>  <SCORE.heavy>
10

>  <SCORE.norm>
-0.585234

>  <RMSD>
3.381

$$$$
ligand
 OpenBabel02271912133D
libRbt.so/2013.1/901 2013/11/27
 10 11  0  0  0  0  0  0  0  0999 V2000
   12.6330   -4.0773    7.4498 C   0  0  1  0  0  0  0  0  0  0  0  0
   11.4611   -1.0767    8.5800 C   0  0  2  0  0  0  0  0  0  0  0  0
   11.8011   -2.2405    6.8545 C   0  0  2  0  0  0  0  0  0  0  0  0
   13.1450   -5.3133    7.4323 N   0  0  0  0  0  0  0  0  0  0  0  0
   11.3735   -0.6549    9.8376 N   0  0  0  0  0  0  0  0  0  0  0  0
   11.0846   -0.3686    7.5219 N   0  0  0  0  0  0  0  0  0  0  0  0
   12.2548   -3.3993    6.3719 N   0  0  0  0  0  0  0  0  0  0  0  0
   12.4053   -3.3417    8.5534 N   0  0  0  0  0  0  0  0  0  0  0  0
   11.2897   -1.0495    6.5070 N   0  0  0  0  0  0  0  0  0  0  0  0
   11.9130   -2.2624    8.1881 N   0  0  1  0  0  0  0  0  0  0  0  0
  1  4  1  1  0  0  0
  1  8  1  0  0  0  0
  1  7  1  0  0  0  0
  2  5  1  1  0  0  0
  2  6  1  0  0  0  0
  2 10  1  0  0  0  0
  3  7  1  6  0  0  0
  3 10  1  0  0  0  0
  3  9  1  0  0  0  0
  6  9  1  0  0  0  0
 10  8  1  6  0  0  0
M  END
>  <CHROM.1>
11.93482425,-2.37455489,7.73417274,-0.40868909,-1.16827034,1.38929124

>  <Name>
ligand

>  <RI>
0

>  <Rbt.Current_Directory>
/home/itssahil/PROJECTS/Mol_Feturizer/Test_systems_manuscript/rnas/2xnw

>  <Rbt.Executable>
rbdock ($Id: //depot/dev/client3/rdock/2013.1/src/exe/rbdock.cxx#4 $)

>  <Rbt.Library>
libRbt.so (2013.1, Build901 2013/11/27)

>  <Rbt.Parameter_File>
/export/apps/rDock/src/rDock_2013.1_src/data/scripts/dock_solv.prm

>  <Rbt.Receptor>
prm/blind_docking_60.prm

>  <SCORE>
-5.82734

>  <SCORE.INTER>
-5.82734

>  <SCORE.INTER.CONST>
1

>  <SCORE.INTER.POLAR>
0

>  <SCORE.INTER.ROT>
0

>  <SCORE.INTER.SOLV>
17.5582

>  <SCORE.INTER.VDW>
-13.3376

>  <SCORE.INTER.norm>
-0.582734

>  <SCORE.INTRA>
0

>  <SCORE.INTRA.DIHEDRAL>
0

>  <SCORE.INTRA.DIHEDRAL.0>
0

>  <SCORE.INTRA.POLAR>
0

>  <SCORE.INTRA.POLAR.0>
0

>  <SCORE.INTRA.REPUL>
0

>  <SCORE.INTRA.REPUL.0>
0

>  <SCORE.INTRA.SOLV>
0

>  <SCORE.INTRA.SOLV.lig_0>
-47.9788

>  <SCORE.INTRA.VDW>
0

>  <SCORE.INTRA.VDW.0>
0

>  <SCORE.INTRA.norm>
0

>  <SCORE.RESTR>
0

>  <SCORE.RESTR.CAVITY>
0

>  <SCORE.RESTR.norm>
0

>  <SCORE.SYSTEM>
0

>  <SCORE.SYSTEM.CONST>
0

>  <SCORE.SYSTEM.DIHEDRAL>
0

>  <SCORE.SYSTEM.SOLV>
0

>  <SCORE.SYSTEM.norm>
0

>  <SCORE.heavy>
10

>  <SCORE.norm>
-0.582734

>  <RMSD>
3.386

$$$$
ligand
 OpenBabel02271912133D
libRbt.so/2013.1/901 2013/11/27
 10 11  0  0  0  0  0  0  0  0999 V2000
   12.3775   -4.2227    7.5824 C   0  0  1  0  0  0  0  0  0  0  0  0
   11.4871   -1.1096    8.6642 C   0  0  2  0  0  0  0  0  0  0  0  0
   11.7948   -2.3032    6.9531 C   0  0  2  0  0  0  0  0  0  0  0  0
   12.7468   -5.5087    7.5858 N   0  0  0  0  0  0  0  0  0  0  0  0
   11.3736   -0.6815    9.9176 N   0  0  0  0  0  0  0  0  0  0  0  0
   11.2560   -0.3627    7.5912 N   0  0  0  0  0  0  0  0  0  0  0  0
   12.1424   -3.5055    6.4893 N   0  0  0  0  0  0  0  0  0  0  0  0
   12.1695   -3.4669    8.6762 N   0  0  0  0  0  0  0  0  0  0  0  0
   11.4424   -1.0617    6.5850 N   0  0  0  0  0  0  0  0  0  0  0  0
   11.8245   -2.3385    8.2907 N   0  0  1  0  0  0  0  0  0  0  0  0
  1  4  1  1  0  0  0
  1  8  1  0  0  0  0
  1  7  1  0  0  0  0
  2  5  1  1  0  0  0
  2  6  1  0  0  0  0
  2 10  1  0  0  0  0
  3  7  1  6  0  0  0
  3 10  1  0  0  0  0
  3  9  1  0  0  0  0
  6  9  1  0  0  0  0
 10  8  1  6  0  0  0
M  END
>  <CHROM.1>
11.86033738,-2.45213366,7.83802000,-0.27331808,-1.28787722,1.52112420

>  <Name>
ligand

>  <RI>
0

>  <Rbt.Current_Directory>
/home/itssahil/PROJECTS/Mol_Feturizer/Test_systems_manuscript/rnas/2xnw

>  <Rbt.Executable>
rbdock ($Id: //depot/dev/client3/rdock/2013.1/src/exe/rbdock.cxx#4 $)

>  <Rbt.Library>
libRbt.so (2013.1, Build901 2013/11/27)

>  <Rbt.Parameter_File>
/export/apps/rDock/src/rDock_2013.1_src/data/scripts/dock_solv.prm

>  <Rbt.Receptor>
prm/blind_docking_20.prm

>  <SCORE>
-5.79816

>  <SCORE.INTER>
-5.79816

>  <SCORE.INTER.CONST>
1

>  <SCORE.INTER.POLAR>
0

>  <SCORE.INTER.ROT>
0

>  <SCORE.INTER.SOLV>
19.0115

>  <SCORE.INTER.VDW>
-13.8026

>  <SCORE.INTER.norm>
-0.579816

>  <SCORE.INTRA>
0

>  <SCORE.INTRA.DIHEDRAL>
0

>  <SCORE.INTRA.DIHEDRAL.0>
0

>  <SCORE.INTRA.POLAR>
0

>  <SCORE.INTRA.POLAR.0>
0

>  <SCORE.INTRA.REPUL>
0

>  <SCORE.INTRA.REPUL.0>
0

>  <SCORE.INTRA.SOLV>
0

>  <SCORE.INTRA.SOLV.lig_0>
-47.9788

>  <SCORE.INTRA.VDW>
0

>  <SCORE.INTRA.VDW.0>
0

>  <SCORE.INTRA.norm>
0

>  <SCORE.RESTR>
0

>  <SCORE.RESTR.CAVITY>
0

>  <SCORE.RESTR.norm>
0

>  <SCORE.SYSTEM>
0

>  <SCORE.SYSTEM.CONST>
0

>  <SCORE.SYSTEM.DIHEDRAL>
0

>  <SCORE.SYSTEM.SOLV>
0

>  <SCORE.SYSTEM.norm>
0

>  <SCORE.heavy>
10

>  <SCORE.norm>
-0.579816

>  <RMSD>
3.388

$$$$
ligand
 OpenBabel02271912133D
libRbt.so/2013.1/901 2013/11/27
 10 11  0  0  0  0  0  0  0  0999 V2000
   12.3884   -4.2288    7.5900 C   0  0  1  0  0  0  0  0  0  0  0  0
   11.5339   -1.1053    8.6708 C   0  0  2  0  0  0  0  0  0  0  0  0
   11.7584   -2.3232    6.9639 C   0  0  2  0  0  0  0  0  0  0  0  0
   12.7670   -5.5120    7.5931 N   0  0  0  0  0  0  0  0  0  0  0  0
   11.4844   -0.6586    9.9219 N   0  0  0  0  0  0  0  0  0  0  0  0
   11.2400   -0.3767    7.6005 N   0  0  0  0  0  0  0  0  0  0  0  0
   12.0897   -3.5302    6.5004 N   0  0  0  0  0  0  0  0  0  0  0  0
   12.2336   -3.4575    8.6819 N   0  0  0  0  0  0  0  0  0  0  0  0
   11.3775   -1.0900    6.5965 N   0  0  0  0  0  0  0  0  0  0  0  0
   11.8600   -2.3376    8.2984 N   0  0  1  0  0  0  0  0  0  0  0  0
  1  4  1  1  0  0  0
  1  8  1  0  0  0  0
  1  7  1  0  0  0  0
  2  5  1  1  0  0  0
  2  6  1  0  0  0  0
  2 10  1  0  0  0  0
  3  7  1  6  0  0  0
  3 10  1  0  0  0  0
  3  9  1  0  0  0  0
  6  9  1  0  0  0  0
 10  8  1  6  0  0  0
M  END
>  <CHROM.1>
11.87239345,-2.45796157,7.84621995,-0.45547079,-1.27303377,1.33120099

>  <Name>
ligand

>  <RI>
0

>  <Rbt.Current_Directory>
/home/itssahil/PROJECTS/Mol_Feturizer/Test_systems_manuscript/rnas/2xnw

>  <Rbt.Executable>
rbdock ($Id: //depot/dev/client3/rdock/2013.1/src/exe/rbdock.cxx#4 $)

>  <Rbt.Library>
libRbt.so (2013.1, Build901 2013/11/27)

>  <Rbt.Parameter_File>
/export/apps/rDock/src/rDock_2013.1_src/data/scripts/dock_solv.prm

>  <Rbt.Receptor>
prm/blind_docking_20.prm

>  <SCORE>
-5.74288

>  <SCORE.INTER>
-5.74288

>  <SCORE.INTER.CONST>
1

>  <SCORE.INTER.POLAR>
0

>  <SCORE.INTER.ROT>
0

>  <SCORE.INTER.SOLV>
18.8953

>  <SCORE.INTER.VDW>
-13.727

>  <SCORE.INTER.norm>
-0.574288

>  <SCORE.INTRA>
0

>  <SCORE.INTRA.DIHEDRAL>
0

>  <SCORE.INTRA.DIHEDRAL.0>
0

>  <SCORE.INTRA.POLAR>
0

>  <SCORE.INTRA.POLAR.0>
0

>  <SCORE.INTRA.REPUL>
0

>  <SCORE.INTRA.REPUL.0>
0

>  <SCORE.INTRA.SOLV>
0

>  <SCORE.INTRA.SOLV.lig_0>
-47.9788

>  <SCORE.INTRA.VDW>
0

>  <SCORE.INTRA.VDW.0>
0

>  <SCORE.INTRA.norm>
0

>  <SCORE.RESTR>
0

>  <SCORE.RESTR.CAVITY>
0

>  <SCORE.RESTR.norm>
0

>  <SCORE.SYSTEM>
0

>  <SCORE.SYSTEM.CONST>
0

>  <SCORE.SYSTEM.DIHEDRAL>
0

>  <SCORE.SYSTEM.SOLV>
0

>  <SCORE.SYSTEM.norm>
0

>  <SCORE.heavy>
10

>  <SCORE.norm>
-0.574288

>  <RMSD>
3.392

$$$$
ligand
 OpenBabel02271912133D
libRbt.so/2013.1/901 2013/11/27
 10 11  0  0  0  0  0  0  0  0999 V2000
   11.2477   -1.6476    5.7697 C   0  0  1  0  0  0  0  0  0  0  0  0
   11.8982   -2.5222    9.0049 C   0  0  2  0  0  0  0  0  0  0  0  0
   11.7882   -3.2441    7.0265 C   0  0  2  0  0  0  0  0  0  0  0  0
   10.9407   -0.9187    4.6906 N   0  0  0  0  0  0  0  0  0  0  0  0
   11.8886   -1.7409   10.0803 N   0  0  0  0  0  0  0  0  0  0  0  0
   12.1805   -3.8195    9.0209 N   0  0  0  0  0  0  0  0  0  0  0  0
   11.5369   -2.9440    5.7504 N   0  0  0  0  0  0  0  0  0  0  0  0
   11.3296   -1.1816    7.0295 N   0  0  0  0  0  0  0  0  0  0  0  0
   12.1102   -4.2457    7.8594 N   0  0  0  0  0  0  0  0  0  0  0  0
   11.6510   -2.1327    7.7596 N   0  0  1  0  0  0  0  0  0  0  0  0
  1  4  1  6  0  0  0
  1  8  1  0  0  0  0
  1  7  1  0  0  0  0
  2  5  1  6  0  0  0
  2  6  1  0  0  0  0
  2 10  1  0  0  0  0
  3  7  1  1  0  0  0
  3 10  1  0  0  0  0
  3  9  1  0  0  0  0
  6  9  1  0  0  0  0
 10  8  1  1  0  0  0
M  END
>  <CHROM.1>
11.65771897,-2.43829882,7.40507458,2.52721584,1.31728891,-2.15012091

>  <Name>
ligand

>  <RI>
0

>  <Rbt.Current_Directory>
/home/itssahil/PROJECTS/Mol_Feturizer/Test_systems_manuscript/rnas/2xnw

>  <Rbt.Executable>
rbdock ($Id: //depot/dev/client3/rdock/2013.1/src/exe/rbdock.cxx#4 $)

>  <Rbt.Library>
libRbt.so (2013.1, Build901 2013/11/27)

>  <Rbt.Parameter_File>
/export/apps/rDock/src/rDock_2013.1_src/data/scripts/dock_solv.prm

>  <Rbt.Receptor>
prm/blind_docking_100.prm

>  <SCORE>
-5.57379

>  <SCORE.INTER>
-5.57379

>  <SCORE.INTER.CONST>
1

>  <SCORE.INTER.POLAR>
0

>  <SCORE.INTER.ROT>
0

>  <SCORE.INTER.SOLV>
23.2251

>  <SCORE.INTER.VDW>
-15.0576

>  <SCORE.INTER.norm>
-0.557379

>  <SCORE.INTRA>
0

>  <SCORE.INTRA.DIHEDRAL>
0

>  <SCORE.INTRA.DIHEDRAL.0>
0

>  <SCORE.INTRA.POLAR>
0

>  <SCORE.INTRA.POLAR.0>
0

>  <SCORE.INTRA.REPUL>
0

>  <SCORE.INTRA.REPUL.0>
0

>  <SCORE.INTRA.SOLV>
0

>  <SCORE.INTRA.SOLV.lig_0>
-47.9788

>  <SCORE.INTRA.VDW>
0

>  <SCORE.INTRA.VDW.0>
0

>  <SCORE.INTRA.norm>
0

>  <SCORE.RESTR>
0

>  <SCORE.RESTR.CAVITY>
0

>  <SCORE.RESTR.norm>
0

>  <SCORE.SYSTEM>
0

>  <SCORE.SYSTEM.CONST>
0

>  <SCORE.SYSTEM.DIHEDRAL>
0

>  <SCORE.SYSTEM.SOLV>
0

>  <SCORE.SYSTEM.norm>
0

>  <SCORE.heavy>
10

>  <SCORE.norm>
-0.557379

>  <RMSD>
3.407

$$$$
ligand
 OpenBabel02271912133D
libRbt.so/2013.1/901 2013/11/27
 10 11  0  0  0  0  0  0  0  0999 V2000
   11.2502   -1.6622    5.7456 C   0  0  1  0  0  0  0  0  0  0  0  0
   12.0119   -2.4327    8.9830 C   0  0  2  0  0  0  0  0  0  0  0  0
   11.7685   -3.2307    7.0462 C   0  0  2  0  0  0  0  0  0  0  0  0
   10.9288   -0.9643    4.6504 N   0  0  0  0  0  0  0  0  0  0  0  0
   12.0951   -1.6072   10.0217 N   0  0  0  0  0  0  0  0  0  0  0  0
   12.2275   -3.7414    9.0440 N   0  0  0  0  0  0  0  0  0  0  0  0
   11.4710   -2.9719    5.7711 N   0  0  0  0  0  0  0  0  0  0  0  0
   11.4173   -1.1484    6.9781 N   0  0  0  0  0  0  0  0  0  0  0  0
   12.0788   -4.2120    7.9073 N   0  0  0  0  0  0  0  0  0  0  0  0
   11.7246   -2.0836    7.7344 N   0  0  1  0  0  0  0  0  0  0  0  0
  1  4  1  6  0  0  0
  1  8  1  0  0  0  0
  1  7  1  0  0  0  0
  2  5  1  6  0  0  0
  2  6  1  0  0  0  0
  2 10  1  0  0  0  0
  3  7  1  1  0  0  0
  3 10  1  0  0  0  0
  3  9  1  0  0  0  0
  6  9  1  0  0  0  0
 10  8  1  1  0  0  0
M  END
>  <CHROM.1>
11.69827871,-2.40382494,7.39397537,2.81357523,1.32400314,-2.47132401

>  <Name>
ligand

>  <RI>
0

>  <Rbt.Current_Directory>
/home/itssahil/PROJECTS/Mol_Feturizer/Test_systems_manuscript/rnas/2xnw

>  <Rbt.Executable>
rbdock ($Id: //depot/dev/client3/rdock/2013.1/src/exe/rbdock.cxx#4 $)

>  <Rbt.Library>
libRbt.so (2013.1, Build901 2013/11/27)

>  <Rbt.Parameter_File>
/export/apps/rDock/src/rDock_2013.1_src/data/scripts/dock_solv.prm

>  <Rbt.Receptor>
prm/pocket_docking_3.prm

>  <SCORE>
-5.43927

>  <SCORE.INTER>
-5.43927

>  <SCORE.INTER.CONST>
1

>  <SCORE.INTER.POLAR>
0

>  <SCORE.INTER.ROT>
0

>  <SCORE.INTER.SOLV>
22.7243

>  <SCORE.INTER.VDW>
-14.8009

>  <SCORE.INTER.norm>
-0.543927

>  <SCORE.INTRA>
0

>  <SCORE.INTRA.DIHEDRAL>
0

>  <SCORE.INTRA.DIHEDRAL.0>
0

>  <SCORE.INTRA.POLAR>
0

>  <SCORE.INTRA.POLAR.0>
0

>  <SCORE.INTRA.REPUL>
0

>  <SCORE.INTRA.REPUL.0>
0

>  <SCORE.INTRA.SOLV>
0

>  <SCORE.INTRA.SOLV.lig_0>
-47.9788

>  <SCORE.INTRA.VDW>
0

>  <SCORE.INTRA.VDW.0>
0

>  <SCORE.INTRA.norm>
0

>  <SCORE.RESTR>
0

>  <SCORE.RESTR.CAVITY>
0

>  <SCORE.RESTR.norm>
0

>  <SCORE.SYSTEM>
0

>  <SCORE.SYSTEM.CONST>
0

>  <SCORE.SYSTEM.DIHEDRAL>
0

>  <SCORE.SYSTEM.SOLV>
0

>  <SCORE.SYSTEM.norm>
0

>  <SCORE.heavy>
10

>  <SCORE.norm>
-0.543927

>  <RMSD>
3.413

$$$$
ligand
 OpenBabel02271912133D
libRbt.so/2013.1/901 2013/11/27
 10 11  0  0  0  0  0  0  0  0999 V2000
   11.2670   -1.6360    5.6243 C   0  0  1  0  0  0  0  0  0  0  0  0
   12.0679   -2.3833    8.8577 C   0  0  2  0  0  0  0  0  0  0  0  0
   11.8382   -3.1883    6.9221 C   0  0  2  0  0  0  0  0  0  0  0  0
   10.9194   -0.9481    4.5307 N   0  0  0  0  0  0  0  0  0  0  0  0
   12.1318   -1.5555    9.8959 N   0  0  0  0  0  0  0  0  0  0  0  0
   12.3224   -3.6849    8.9176 N   0  0  0  0  0  0  0  0  0  0  0  0
   11.5267   -2.9386    5.6485 N   0  0  0  0  0  0  0  0  0  0  0  0
   11.4252   -1.1173    6.8560 N   0  0  0  0  0  0  0  0  0  0  0  0
   12.1819   -4.1599    7.7816 N   0  0  0  0  0  0  0  0  0  0  0  0
   11.7639   -2.0429    7.6105 N   0  0  1  0  0  0  0  0  0  0  0  0
  1  4  1  6  0  0  0
  1  8  1  0  0  0  0
  1  7  1  0  0  0  0
  2  5  1  6  0  0  0
  2  6  1  0  0  0  0
  2 10  1  0  0  0  0
  3  7  1  1  0  0  0
  3 10  1  0  0  0  0
  3  9  1  0  0  0  0
  6  9  1  0  0  0  0
 10  8  1  1  0  0  0
M  END
>  <CHROM.1>
11.74534063,-2.36383190,7.27029849,2.73830859,1.30083148,-2.39858792

>  <Name>
ligand

>  <RI>
0

>  <Rbt.Current_Directory>
/home/itssahil/PROJECTS/Mol_Feturizer/Test_systems_manuscript/rnas/2xnw

>  <Rbt.Executable>
rbdock ($Id: //depot/dev/client3/rdock/2013.1/src/exe/rbdock.cxx#4 $)

>  <Rbt.Library>
libRbt.so (2013.1, Build901 2013/11/27)

>  <Rbt.Parameter_File>
/export/apps/rDock/src/rDock_2013.1_src/data/scripts/dock_solv.prm

>  <Rbt.Receptor>
prm/pocket_docking_8.prm

>  <SCORE>
-5.6288

>  <SCORE.INTER>
-5.6288

>  <SCORE.INTER.CONST>
1

>  <SCORE.INTER.POLAR>
0

>  <SCORE.INTER.ROT>
0

>  <SCORE.INTER.SOLV>
22.6584

>  <SCORE.INTER.VDW>
-14.9053

>  <SCORE.INTER.norm>
-0.56288

>  <SCORE.INTRA>
0

>  <SCORE.INTRA.DIHEDRAL>
0

>  <SCORE.INTRA.DIHEDRAL.0>
0

>  <SCORE.INTRA.POLAR>
0

>  <SCORE.INTRA.POLAR.0>
0

>  <SCORE.INTRA.REPUL>
0

>  <SCORE.INTRA.REPUL.0>
0

>  <SCORE.INTRA.SOLV>
0

>  <SCORE.INTRA.SOLV.lig_0>
-47.9788

>  <SCORE.INTRA.VDW>
0

>  <SCORE.INTRA.VDW.0>
0

>  <SCORE.INTRA.norm>
0

>  <SCORE.RESTR>
0

>  <SCORE.RESTR.CAVITY>
0

>  <SCORE.RESTR.norm>
0

>  <SCORE.SYSTEM>
0

>  <SCORE.SYSTEM.CONST>
0

>  <SCORE.SYSTEM.DIHEDRAL>
0

>  <SCORE.SYSTEM.SOLV>
0

>  <SCORE.SYSTEM.norm>
0

>  <SCORE.heavy>
10

>  <SCORE.norm>
-0.56288

>  <RMSD>
3.430

$$$$
ligand
 OpenBabel02271912133D
libRbt.so/2013.1/901 2013/11/27
 10 11  0  0  0  0  0  0  0  0999 V2000
   11.1971   -1.6964    5.6291 C   0  0  1  0  0  0  0  0  0  0  0  0
   11.6379   -1.7775    9.0134 C   0  0  2  0  0  0  0  0  0  0  0  0
   11.6934   -2.9367    7.2526 C   0  0  2  0  0  0  0  0  0  0  0  0
   10.9470   -1.2484    4.3935 N   0  0  0  0  0  0  0  0  0  0  0  0
   11.5267   -0.7724    9.8763 N   0  0  0  0  0  0  0  0  0  0  0  0
   11.9575   -3.0223    9.3468 N   0  0  0  0  0  0  0  0  0  0  0  0
   11.5262   -2.9481    5.9284 N   0  0  0  0  0  0  0  0  0  0  0  0
   11.1733   -0.9516    6.7497 N   0  0  0  0  0  0  0  0  0  0  0  0
   11.9845   -3.7055    8.3132 N   0  0  0  0  0  0  0  0  0  0  0  0
   11.4698   -1.6947    7.6987 N   0  0  1  0  0  0  0  0  0  0  0  0
  1  4  1  6  0  0  0
  1  8  1  0  0  0  0
  1  7  1  0  0  0  0
  2  5  1  6  0  0  0
  2  6  1  0  0  0  0
  2 10  1  0  0  0  0
  3  7  1  1  0  0  0
  3 10  1  0  0  0  0
  3  9  1  0  0  0  0
  6  9  1  0  0  0  0
 10  8  1  1  0  0  0
M  END
>  <CHROM.1>
11.51140863,-2.07260853,7.42560790,2.21121810,1.31959720,-2.07626188

>  <Name>
ligand

>  <RI>
0

>  <Rbt.Current_Directory>
/home/itssahil/PROJECTS/Mol_Feturizer/Test_systems_manuscript/rnas/2xnw

>  <Rbt.Executable>
rbdock ($Id: //depot/dev/client3/rdock/2013.1/src/exe/rbdock.cxx#4 $)

>  <Rbt.Library>
libRbt.so (2013.1, Build901 2013/11/27)

>  <Rbt.Parameter_File>
/export/apps/rDock/src/rDock_2013.1_src/data/scripts/dock_solv.prm

>  <Rbt.Receptor>
prm/blind_docking_40.prm

>  <SCORE>
-5.30474

>  <SCORE.INTER>
-5.30474

>  <SCORE.INTER.CONST>
1

>  <SCORE.INTER.POLAR>
0

>  <SCORE.INTER.ROT>
0

>  <SCORE.INTER.SOLV>
25.3875

>  <SCORE.INTER.VDW>
-15.599

>  <SCORE.INTER.norm>
-0.530474

>  <SCORE.INTRA>
0

>  <SCORE.INTRA.DIHEDRAL>
0

>  <SCORE.INTRA.DIHEDRAL.0>
0

>  <SCORE.INTRA.POLAR>
0

>  <SCORE.INTRA.POLAR.0>
0

>  <SCORE.INTRA.REPUL>
0

>  <SCORE.INTRA.REPUL.0>
0

>  <SCORE.INTRA.SOLV>
0

>  <SCORE.INTRA.SOLV.lig_0>
-47.9788

>  <SCORE.INTRA.VDW>
0

>  <SCORE.INTRA.VDW.0>
0

>  <SCORE.INTRA.norm>
0

>  <SCORE.RESTR>
0

>  <SCORE.RESTR.CAVITY>
0

>  <SCORE.RESTR.norm>
0

>  <SCORE.SYSTEM>
0

>  <SCORE.SYSTEM.CONST>
0

>  <SCORE.SYSTEM.DIHEDRAL>
0

>  <SCORE.SYSTEM.SOLV>
0

>  <SCORE.SYSTEM.norm>
0

>  <SCORE.heavy>
10

>  <SCORE.norm>
-0.530474

>  <RMSD>
3.432

$$$$
ligand
 OpenBabel02271912133D
libRbt.so/2013.1/901 2013/11/27
 10 11  0  0  0  0  0  0  0  0999 V2000
   11.2638   -1.6567    5.6184 C   0  0  1  0  0  0  0  0  0  0  0  0
   12.0687   -2.4751    8.8335 C   0  0  2  0  0  0  0  0  0  0  0  0
   11.7839   -3.2468    6.8917 C   0  0  2  0  0  0  0  0  0  0  0  0
   10.9331   -0.9419    4.5369 N   0  0  0  0  0  0  0  0  0  0  0  0
   12.1789   -1.6632    9.8803 N   0  0  0  0  0  0  0  0  0  0  0  0
   12.2692   -3.7869    8.8755 N   0  0  0  0  0  0  0  0  0  0  0  0
   11.4689   -2.9692    5.6248 N   0  0  0  0  0  0  0  0  0  0  0  0
   11.4573   -1.1597    6.8540 N   0  0  0  0  0  0  0  0  0  0  0  0
   12.0962   -4.2421    7.7360 N   0  0  0  0  0  0  0  0  0  0  0  0
   11.7654   -2.1076    7.5939 N   0  0  1  0  0  0  0  0  0  0  0  0
  1  4  1  6  0  0  0
  1  8  1  0  0  0  0
  1  7  1  0  0  0  0
  2  5  1  6  0  0  0
  2  6  1  0  0  0  0
  2 10  1  0  0  0  0
  3  7  1  1  0  0  0
  3 10  1  0  0  0  0
  3  9  1  0  0  0  0
  6  9  1  0  0  0  0
 10  8  1  1  0  0  0
M  END
>  <CHROM.1>
11.72958547,-2.42336124,7.25030346,2.89269437,1.31808379,-2.53611287

>  <Name>
ligand

>  <RI>
0

>  <Rbt.Current_Directory>
/home/itssahil/PROJECTS/Mol_Feturizer/Test_systems_manuscript/rnas/2xnw

>  <Rbt.Executable>
rbdock ($Id: //depot/dev/client3/rdock/2013.1/src/exe/rbdock.cxx#4 $)

>  <Rbt.Library>
libRbt.so (2013.1, Build901 2013/11/27)

>  <Rbt.Parameter_File>
/export/apps/rDock/src/rDock_2013.1_src/data/scripts/dock_solv.prm

>  <Rbt.Receptor>
prm/blind_docking_40.prm

>  <SCORE>
-5.68802

>  <SCORE.INTER>
-5.68802

>  <SCORE.INTER.CONST>
1

>  <SCORE.INTER.POLAR>
0

>  <SCORE.INTER.ROT>
0

>  <SCORE.INTER.SOLV>
22.571

>  <SCORE.INTER.VDW>
-14.9157

>  <SCORE.INTER.norm>
-0.568802

>  <SCORE.INTRA>
0

>  <SCORE.INTRA.DIHEDRAL>
0

>  <SCORE.INTRA.DIHEDRAL.0>
0

>  <SCORE.INTRA.POLAR>
0

>  <SCORE.INTRA.POLAR.0>
0

>  <SCORE.INTRA.REPUL>
0

>  <SCORE.INTRA.REPUL.0>
0

>  <SCORE.INTRA.SOLV>
0

>  <SCORE.INTRA.SOLV.lig_0>
-47.9788

>  <SCORE.INTRA.VDW>
0

>  <SCORE.INTRA.VDW.0>
0

>  <SCORE.INTRA.norm>
0

>  <SCORE.RESTR>
0

>  <SCORE.RESTR.CAVITY>
0

>  <SCORE.RESTR.norm>
0

>  <SCORE.SYSTEM>
0

>  <SCORE.SYSTEM.CONST>
0

>  <SCORE.SYSTEM.DIHEDRAL>
0

>  <SCORE.SYSTEM.SOLV>
0

>  <SCORE.SYSTEM.norm>
0

>  <SCORE.heavy>
10

>  <SCORE.norm>
-0.568802

>  <RMSD>
3.439

$$$$
ligand
 OpenBabel02271912133D
libRbt.so/2013.1/901 2013/11/27
 10 11  0  0  0  0  0  0  0  0999 V2000
   11.2553   -1.6590    5.6169 C   0  0  1  0  0  0  0  0  0  0  0  0
   12.0625   -2.4730    8.8325 C   0  0  2  0  0  0  0  0  0  0  0  0
   11.7908   -3.2450    6.8889 C   0  0  2  0  0  0  0  0  0  0  0  0
   10.9190   -0.9463    4.5357 N   0  0  0  0  0  0  0  0  0  0  0  0
   12.1611   -1.6615    9.8808 N   0  0  0  0  0  0  0  0  0  0  0  0
   12.2778   -3.7825    8.8730 N   0  0  0  0  0  0  0  0  0  0  0  0
   11.4754   -2.9690    5.6217 N   0  0  0  0  0  0  0  0  0  0  0  0
   11.4405   -1.1617    6.8536 N   0  0  0  0  0  0  0  0  0  0  0  0
   12.1124   -4.2379    7.7324 N   0  0  0  0  0  0  0  0  0  0  0  0
   11.7577   -2.1071    7.5928 N   0  0  1  0  0  0  0  0  0  0  0  0
  1  4  1  6  0  0  0
  1  8  1  0  0  0  0
  1  7  1  0  0  0  0
  2  5  1  6  0  0  0
  2  6  1  0  0  0  0
  2 10  1  0  0  0  0
  3  7  1  1  0  0  0
  3 10  1  0  0  0  0
  3  9  1  0  0  0  0
  6  9  1  0  0  0  0
 10  8  1  1  0  0  0
M  END
>  <CHROM.1>
11.72624656,-2.42274483,7.24864969,2.85100725,1.31319410,-2.49426228

>  <Name>
ligand

>  <RI>
0

>  <Rbt.Current_Directory>
/home/itssahil/PROJECTS/Mol_Feturizer/Test_systems_manuscript/rnas/2xnw

>  <Rbt.Executable>
rbdock ($Id: //depot/dev/client3/rdock/2013.1/src/exe/rbdock.cxx#4 $)

>  <Rbt.Library>
libRbt.so (2013.1, Build901 2013/11/27)

>  <Rbt.Parameter_File>
/export/apps/rDock/src/rDock_2013.1_src/data/scripts/dock_solv.prm

>  <Rbt.Receptor>
prm/blind_docking_60.prm

>  <SCORE>
-5.67832

>  <SCORE.INTER>
-5.67832

>  <SCORE.INTER.CONST>
1

>  <SCORE.INTER.POLAR>
0

>  <SCORE.INTER.ROT>
0

>  <SCORE.INTER.SOLV>
22.5569

>  <SCORE.INTER.VDW>
-14.9045

>  <SCORE.INTER.norm>
-0.567832

>  <SCORE.INTRA>
0

>  <SCORE.INTRA.DIHEDRAL>
0

>  <SCORE.INTRA.DIHEDRAL.0>
0

>  <SCORE.INTRA.POLAR>
0

>  <SCORE.INTRA.POLAR.0>
0

>  <SCORE.INTRA.REPUL>
0

>  <SCORE.INTRA.REPUL.0>
0

>  <SCORE.INTRA.SOLV>
0

>  <SCORE.INTRA.SOLV.lig_0>
-47.9788

>  <SCORE.INTRA.VDW>
0

>  <SCORE.INTRA.VDW.0>
0

>  <SCORE.INTRA.norm>
0

>  <SCORE.RESTR>
0

>  <SCORE.RESTR.CAVITY>
0

>  <SCORE.RESTR.norm>
0

>  <SCORE.SYSTEM>
0

>  <SCORE.SYSTEM.CONST>
0

>  <SCORE.SYSTEM.DIHEDRAL>
0

>  <SCORE.SYSTEM.SOLV>
0

>  <SCORE.SYSTEM.norm>
0

>  <SCORE.heavy>
10

>  <SCORE.norm>
-0.567832

>  <RMSD>
3.439

$$$$
ligand
 OpenBabel02271912133D
libRbt.so/2013.1/901 2013/11/27
 10 11  0  0  0  0  0  0  0  0999 V2000
   11.2570   -1.6660    5.6114 C   0  0  1  0  0  0  0  0  0  0  0  0
   12.0683   -2.4726    8.8279 C   0  0  2  0  0  0  0  0  0  0  0  0
   11.7937   -3.2491    6.8865 C   0  0  2  0  0  0  0  0  0  0  0  0
   10.9194   -0.9558    4.5289 N   0  0  0  0  0  0  0  0  0  0  0  0
   12.1686   -1.6585    9.8740 N   0  0  0  0  0  0  0  0  0  0  0  0
   12.2832   -3.7820    8.8712 N   0  0  0  0  0  0  0  0  0  0  0  0
   11.4767   -2.9761    5.6191 N   0  0  0  0  0  0  0  0  0  0  0  0
   11.4441   -1.1658    6.8467 N   0  0  0  0  0  0  0  0  0  0  0  0
   12.1162   -4.2401    7.7319 N   0  0  0  0  0  0  0  0  0  0  0  0
   11.7620   -2.1095    7.5877 N   0  0  1  0  0  0  0  0  0  0  0  0
  1  4  1  6  0  0  0
  1  8  1  0  0  0  0
  1  7  1  0  0  0  0
  2  5  1  6  0  0  0
  2  6  1  0  0  0  0
  2 10  1  0  0  0  0
  3  7  1  1  0  0  0
  3 10  1  0  0  0  0
  3  9  1  0  0  0  0
  6  9  1  0  0  0  0
 10  8  1  1  0  0  0
M  END
>  <CHROM.1>
11.72992061,-2.42598923,7.24434664,2.85524213,1.31231257,-2.50075904

>  <Name>
ligand

>  <RI>
0

>  <Rbt.Current_Directory>
/home/itssahil/PROJECTS/Mol_Feturizer/Test_systems_manuscript/rnas/2xnw

>  <Rbt.Executable>
rbdock ($Id: //depot/dev/client3/rdock/2013.1/src/exe/rbdock.cxx#4 $)

>  <Rbt.Library>
libRbt.so (2013.1, Build901 2013/11/27)

>  <Rbt.Parameter_File>
/export/apps/rDock/src/rDock_2013.1_src/data/scripts/dock_solv.prm

>  <Rbt.Receptor>
prm/blind_docking_80.prm

>  <SCORE>
-5.71417

>  <SCORE.INTER>
-5.71417

>  <SCORE.INTER.CONST>
1

>  <SCORE.INTER.POLAR>
0

>  <SCORE.INTER.ROT>
0

>  <SCORE.INTER.SOLV>
22.5407

>  <SCORE.INTER.VDW>
-14.923

>  <SCORE.INTER.norm>
-0.571417

>  <SCORE.INTRA>
0

>  <SCORE.INTRA.DIHEDRAL>
0

>  <SCORE.INTRA.DIHEDRAL.0>
0

>  <SCORE.INTRA.POLAR>
0

>  <SCORE.INTRA.POLAR.0>
0

>  <SCORE.INTRA.REPUL>
0

>  <SCORE.INTRA.REPUL.0>
0

>  <SCORE.INTRA.SOLV>
0

>  <SCORE.INTRA.SOLV.lig_0>
-47.9788

>  <SCORE.INTRA.VDW>
0

>  <SCORE.INTRA.VDW.0>
0

>  <SCORE.INTRA.norm>
0

>  <SCORE.RESTR>
0

>  <SCORE.RESTR.CAVITY>
0

>  <SCORE.RESTR.norm>
0

>  <SCORE.SYSTEM>
0

>  <SCORE.SYSTEM.CONST>
0

>  <SCORE.SYSTEM.DIHEDRAL>
0

>  <SCORE.SYSTEM.SOLV>
0

>  <SCORE.SYSTEM.norm>
0

>  <SCORE.heavy>
10

>  <SCORE.norm>
-0.571417

>  <RMSD>
3.441

$$$$
ligand
 OpenBabel02271912133D
libRbt.so/2013.1/901 2013/11/27
 10 11  0  0  0  0  0  0  0  0999 V2000
   11.2583   -1.6654    5.6114 C   0  0  1  0  0  0  0  0  0  0  0  0
   12.0757   -2.4758    8.8254 C   0  0  2  0  0  0  0  0  0  0  0  0
   11.7994   -3.2497    6.8832 C   0  0  2  0  0  0  0  0  0  0  0  0
   10.9180   -0.9540    4.5306 N   0  0  0  0  0  0  0  0  0  0  0  0
   12.1763   -1.6633    9.8727 N   0  0  0  0  0  0  0  0  0  0  0  0
   12.2927   -3.7850    8.8664 N   0  0  0  0  0  0  0  0  0  0  0  0
   11.4800   -2.9751    5.6167 N   0  0  0  0  0  0  0  0  0  0  0  0
   11.4464   -1.1669    6.8472 N   0  0  0  0  0  0  0  0  0  0  0  0
   12.1248   -4.2415    7.7266 N   0  0  0  0  0  0  0  0  0  0  0  0
   11.7669   -2.1113    7.5863 N   0  0  1  0  0  0  0  0  0  0  0  0
  1  4  1  6  0  0  0
  1  8  1  0  0  0  0
  1  7  1  0  0  0  0
  2  5  1  6  0  0  0
  2  6  1  0  0  0  0
  2 10  1  0  0  0  0
  3  7  1  1  0  0  0
  3 10  1  0  0  0  0
  3  9  1  0  0  0  0
  6  9  1  0  0  0  0
 10  8  1  1  0  0  0
M  END
>  <CHROM.1>
11.73486250,-2.42726215,7.24247136,2.85373586,1.31014957,-2.49770706

>  <Name>
ligand

>  <RI>
0

>  <Rbt.Current_Directory>
/home/itssahil/PROJECTS/Mol_Feturizer/Test_systems_manuscript/rnas/2xnw

>  <Rbt.Executable>
rbdock ($Id: //depot/dev/client3/rdock/2013.1/src/exe/rbdock.cxx#4 $)

>  <Rbt.Library>
libRbt.so (2013.1, Build901 2013/11/27)

>  <Rbt.Parameter_File>
/export/apps/rDock/src/rDock_2013.1_src/data/scripts/dock_solv.prm

>  <Rbt.Receptor>
prm/blind_docking_80.prm

>  <SCORE>
-5.71098

>  <SCORE.INTER>
-5.71098

>  <SCORE.INTER.CONST>
1

>  <SCORE.INTER.POLAR>
0

>  <SCORE.INTER.ROT>
0

>  <SCORE.INTER.SOLV>
22.5235

>  <SCORE.INTER.VDW>
-14.9151

>  <SCORE.INTER.norm>
-0.571098

>  <SCORE.INTRA>
0

>  <SCORE.INTRA.DIHEDRAL>
0

>  <SCORE.INTRA.DIHEDRAL.0>
0

>  <SCORE.INTRA.POLAR>
0

>  <SCORE.INTRA.POLAR.0>
0

>  <SCORE.INTRA.REPUL>
0

>  <SCORE.INTRA.REPUL.0>
0

>  <SCORE.INTRA.SOLV>
0

>  <SCORE.INTRA.SOLV.lig_0>
-47.9788

>  <SCORE.INTRA.VDW>
0

>  <SCORE.INTRA.VDW.0>
0

>  <SCORE.INTRA.norm>
0

>  <SCORE.RESTR>
0

>  <SCORE.RESTR.CAVITY>
0

>  <SCORE.RESTR.norm>
0

>  <SCORE.SYSTEM>
0

>  <SCORE.SYSTEM.CONST>
0

>  <SCORE.SYSTEM.DIHEDRAL>
0

>  <SCORE.SYSTEM.SOLV>
0

>  <SCORE.SYSTEM.norm>
0

>  <SCORE.heavy>
10

>  <SCORE.norm>
-0.571098

>  <RMSD>
3.441

$$$$
ligand
 OpenBabel02271912133D
libRbt.so/2013.1/901 2013/11/27
 10 11  0  0  0  0  0  0  0  0999 V2000
   11.2652   -1.6767    5.5955 C   0  0  1  0  0  0  0  0  0  0  0  0
   12.1011   -2.4547    8.8127 C   0  0  2  0  0  0  0  0  0  0  0  0
   11.7936   -3.2514    6.8845 C   0  0  2  0  0  0  0  0  0  0  0  0
   10.9256   -0.9753    4.5080 N   0  0  0  0  0  0  0  0  0  0  0  0
   12.2247   -1.6292    9.8474 N   0  0  0  0  0  0  0  0  0  0  0  0
   12.2978   -3.7665    8.8703 N   0  0  0  0  0  0  0  0  0  0  0  0
   11.4663   -2.9896    5.6173 N   0  0  0  0  0  0  0  0  0  0  0  0
   11.4732   -1.1639    6.8222 N   0  0  0  0  0  0  0  0  0  0  0  0
   12.1115   -4.2363    7.7388 N   0  0  0  0  0  0  0  0  0  0  0  0
   11.7860   -2.1028    7.5716 N   0  0  1  0  0  0  0  0  0  0  0  0
  1  4  1  6  0  0  0
  1  8  1  0  0  0  0
  1  7  1  0  0  0  0
  2  5  1  6  0  0  0
  2  6  1  0  0  0  0
  2 10  1  0  0  0  0
  3  7  1  1  0  0  0
  3 10  1  0  0  0  0
  3  9  1  0  0  0  0
  6  9  1  0  0  0  0
 10  8  1  1  0  0  0
M  END
>  <CHROM.1>
11.74560469,-2.42303146,7.23261480,2.92580200,1.31116179,-2.58151321

>  <Name>
ligand

>  <RI>
0

>  <Rbt.Current_Directory>
/home/itssahil/PROJECTS/Mol_Feturizer/Test_systems_manuscript/rnas/2xnw

>  <Rbt.Executable>
rbdock ($Id: //depot/dev/client3/rdock/2013.1/src/exe/rbdock.cxx#4 $)

>  <Rbt.Library>
libRbt.so (2013.1, Build901 2013/11/27)

>  <Rbt.Parameter_File>
/export/apps/rDock/src/rDock_2013.1_src/data/scripts/dock_solv.prm

>  <Rbt.Receptor>
prm/blind_docking_100.prm

>  <SCORE>
-5.6672

>  <SCORE.INTER>
-5.6672

>  <SCORE.INTER.CONST>
1

>  <SCORE.INTER.POLAR>
0

>  <SCORE.INTER.ROT>
0

>  <SCORE.INTER.SOLV>
22.4519

>  <SCORE.INTER.VDW>
-14.8621

>  <SCORE.INTER.norm>
-0.56672

>  <SCORE.INTRA>
0

>  <SCORE.INTRA.DIHEDRAL>
0

>  <SCORE.INTRA.DIHEDRAL.0>
0

>  <SCORE.INTRA.POLAR>
0

>  <SCORE.INTRA.POLAR.0>
0

>  <SCORE.INTRA.REPUL>
0

>  <SCORE.INTRA.REPUL.0>
0

>  <SCORE.INTRA.SOLV>
0

>  <SCORE.INTRA.SOLV.lig_0>
-47.9788

>  <SCORE.INTRA.VDW>
0

>  <SCORE.INTRA.VDW.0>
0

>  <SCORE.INTRA.norm>
0

>  <SCORE.RESTR>
0

>  <SCORE.RESTR.CAVITY>
0

>  <SCORE.RESTR.norm>
0

>  <SCORE.SYSTEM>
0

>  <SCORE.SYSTEM.CONST>
0

>  <SCORE.SYSTEM.DIHEDRAL>
0

>  <SCORE.SYSTEM.SOLV>
0

>  <SCORE.SYSTEM.norm>
0

>  <SCORE.heavy>
10

>  <SCORE.norm>
-0.56672

>  <RMSD>
3.446

$$$$
ligand
 OpenBabel02271912133D
libRbt.so/2013.1/901 2013/11/27
 10 11  0  0  0  0  0  0  0  0999 V2000
   10.9784   -1.6804    6.2462 C   0  0  1  0  0  0  0  0  0  0  0  0
   12.8622   -3.9282    7.9935 C   0  0  2  0  0  0  0  0  0  0  0  0
   11.7429   -2.1476    8.1482 C   0  0  2  0  0  0  0  0  0  0  0  0
   10.3315   -1.0774    5.2423 N   0  0  0  0  0  0  0  0  0  0  0  0
   13.4465   -5.0326    7.5395 N   0  0  0  0  0  0  0  0  0  0  0  0
   12.9173   -3.5123    9.2532 N   0  0  0  0  0  0  0  0  0  0  0  0
   11.0046   -1.2438    7.5005 N   0  0  0  0  0  0  0  0  0  0  0  0
   11.6815   -2.8236    6.1474 N   0  0  0  0  0  0  0  0  0  0  0  0
   12.2647   -2.4627    9.3437 N   0  0  0  0  0  0  0  0  0  0  0  0
   12.1248   -3.0885    7.2762 N   0  0  1  0  0  0  0  0  0  0  0  0
  1  4  1  1  0  0  0
  1  8  1  0  0  0  0
  1  7  1  0  0  0  0
  2  5  1  1  0  0  0
  2  6  1  0  0  0  0
  2 10  1  0  0  0  0
  3  7  1  6  0  0  0
  3 10  1  0  0  0  0
  3  9  1  0  0  0  0
  6  9  1  0  0  0  0
 10  8  1  6  0  0  0
M  END
>  <CHROM.1>
11.93874060,-2.70482427,7.46934333,-2.80947090,-0.96681002,1.19329537

>  <Name>
ligand

>  <RI>
0

>  <Rbt.Current_Directory>
/home/itssahil/PROJECTS/Mol_Feturizer/Test_systems_manuscript/rnas/2xnw

>  <Rbt.Executable>
rbdock ($Id: //depot/dev/client3/rdock/2013.1/src/exe/rbdock.cxx#4 $)

>  <Rbt.Library>
libRbt.so (2013.1, Build901 2013/11/27)

>  <Rbt.Parameter_File>
/export/apps/rDock/src/rDock_2013.1_src/data/scripts/dock_solv.prm

>  <Rbt.Receptor>
prm/blind_docking_100.prm

>  <SCORE>
-5.86575

>  <SCORE.INTER>
-5.86575

>  <SCORE.INTER.CONST>
1

>  <SCORE.INTER.POLAR>
0

>  <SCORE.INTER.ROT>
0

>  <SCORE.INTER.SOLV>
15.4945

>  <SCORE.INTER.VDW>
-12.6753

>  <SCORE.INTER.norm>
-0.586575

>  <SCORE.INTRA>
0

>  <SCORE.INTRA.DIHEDRAL>
0

>  <SCORE.INTRA.DIHEDRAL.0>
0

>  <SCORE.INTRA.POLAR>
0

>  <SCORE.INTRA.POLAR.0>
0

>  <SCORE.INTRA.REPUL>
0

>  <SCORE.INTRA.REPUL.0>
0

>  <SCORE.INTRA.SOLV>
0

>  <SCORE.INTRA.SOLV.lig_0>
-47.9788

>  <SCORE.INTRA.VDW>
0

>  <SCORE.INTRA.VDW.0>
0

>  <SCORE.INTRA.norm>
0

>  <SCORE.RESTR>
0

>  <SCORE.RESTR.CAVITY>
0

>  <SCORE.RESTR.norm>
0

>  <SCORE.SYSTEM>
0

>  <SCORE.SYSTEM.CONST>
0

>  <SCORE.SYSTEM.DIHEDRAL>
0

>  <SCORE.SYSTEM.SOLV>
0

>  <SCORE.SYSTEM.norm>
0

>  <SCORE.heavy>
10

>  <SCORE.norm>
-0.586575

>  <RMSD>
3.486

$$$$
ligand
 OpenBabel02271912133D
libRbt.so/2013.1/901 2013/11/27
 10 11  0  0  0  0  0  0  0  0999 V2000
   11.0066   -1.7241    6.1984 C   0  0  1  0  0  0  0  0  0  0  0  0
   12.9622   -3.9178    7.9355 C   0  0  2  0  0  0  0  0  0  0  0  0
   11.7440   -2.2050    8.1076 C   0  0  2  0  0  0  0  0  0  0  0  0
   10.3549   -1.1275    5.1937 N   0  0  0  0  0  0  0  0  0  0  0  0
   13.6177   -4.9755    7.4677 N   0  0  0  0  0  0  0  0  0  0  0  0
   12.9609   -3.5365    9.2072 N   0  0  0  0  0  0  0  0  0  0  0  0
   10.9753   -1.3235    7.4646 N   0  0  0  0  0  0  0  0  0  0  0  0
   11.7732   -2.8246    6.0879 N   0  0  0  0  0  0  0  0  0  0  0  0
   12.2500   -2.5265    9.3082 N   0  0  0  0  0  0  0  0  0  0  0  0
   12.1998   -3.0982    7.2210 N   0  0  1  0  0  0  0  0  0  0  0  0
  1  4  1  1  0  0  0
  1  8  1  0  0  0  0
  1  7  1  0  0  0  0
  2  5  1  1  0  0  0
  2  6  1  0  0  0  0
  2 10  1  0  0  0  0
  3  7  1  6  0  0  0
  3 10  1  0  0  0  0
  3  9  1  0  0  0  0
  6  9  1  0  0  0  0
 10  8  1  6  0  0  0
M  END
>  <CHROM.1>
11.98803831,-2.73084577,7.41942719,-2.73470062,-0.92475185,1.28245639

>  <Name>
ligand

>  <RI>
0

>  <Rbt.Current_Directory>
/home/itssahil/PROJECTS/Mol_Feturizer/Test_systems_manuscript/rnas/2xnw

>  <Rbt.Executable>
rbdock ($Id: //depot/dev/client3/rdock/2013.1/src/exe/rbdock.cxx#4 $)

>  <Rbt.Library>
libRbt.so (2013.1, Build901 2013/11/27)

>  <Rbt.Parameter_File>
/export/apps/rDock/src/rDock_2013.1_src/data/scripts/dock_solv.prm

>  <Rbt.Receptor>
prm/pocket_docking_4.prm

>  <SCORE>
-5.84718

>  <SCORE.INTER>
-5.84718

>  <SCORE.INTER.CONST>
1

>  <SCORE.INTER.POLAR>
0

>  <SCORE.INTER.ROT>
0

>  <SCORE.INTER.SOLV>
15.4634

>  <SCORE.INTER.VDW>
-12.6526

>  <SCORE.INTER.norm>
-0.584718

>  <SCORE.INTRA>
0

>  <SCORE.INTRA.DIHEDRAL>
0

>  <SCORE.INTRA.DIHEDRAL.0>
0

>  <SCORE.INTRA.POLAR>
0

>  <SCORE.INTRA.POLAR.0>
0

>  <SCORE.INTRA.REPUL>
0

>  <SCORE.INTRA.REPUL.0>
0

>  <SCORE.INTRA.SOLV>
0

>  <SCORE.INTRA.SOLV.lig_0>
-47.9788

>  <SCORE.INTRA.VDW>
0

>  <SCORE.INTRA.VDW.0>
0

>  <SCORE.INTRA.norm>
0

>  <SCORE.RESTR>
0

>  <SCORE.RESTR.CAVITY>
0

>  <SCORE.RESTR.norm>
0

>  <SCORE.SYSTEM>
0

>  <SCORE.SYSTEM.CONST>
0

>  <SCORE.SYSTEM.DIHEDRAL>
0

>  <SCORE.SYSTEM.SOLV>
0

>  <SCORE.SYSTEM.norm>
0

>  <SCORE.heavy>
10

>  <SCORE.norm>
-0.584718

>  <RMSD>
3.502

$$$$
ligand
 OpenBabel02271912133D
libRbt.so/2013.1/901 2013/11/27
 10 11  0  0  0  0  0  0  0  0999 V2000
   11.0186   -1.7332    6.2029 C   0  0  1  0  0  0  0  0  0  0  0  0
   12.9161   -3.9803    7.9363 C   0  0  2  0  0  0  0  0  0  0  0  0
   11.8170   -2.1875    8.0941 C   0  0  2  0  0  0  0  0  0  0  0  0
   10.3571   -1.1347    5.2058 N   0  0  0  0  0  0  0  0  0  0  0  0
   13.4807   -5.0950    7.4825 N   0  0  0  0  0  0  0  0  0  0  0  0
   13.0006   -3.5515    9.1900 N   0  0  0  0  0  0  0  0  0  0  0  0
   11.0742   -1.2835    7.4517 N   0  0  0  0  0  0  0  0  0  0  0  0
   11.7087   -2.8841    6.1024 N   0  0  0  0  0  0  0  0  0  0  0  0
   12.3599   -2.4948    9.2822 N   0  0  0  0  0  0  0  0  0  0  0  0
   12.1722   -3.1412    7.2248 N   0  0  1  0  0  0  0  0  0  0  0  0
  1  4  1  1  0  0  0
  1  8  1  0  0  0  0
  1  7  1  0  0  0  0
  2  5  1  1  0  0  0
  2  6  1  0  0  0  0
  2 10  1  0  0  0  0
  3  7  1  6  0  0  0
  3 10  1  0  0  0  0
  3  9  1  0  0  0  0
  6  9  1  0  0  0  0
 10  8  1  6  0  0  0
M  END
>  <CHROM.1>
11.99379541,-2.75370071,7.41753483,-2.84877438,-0.96773615,1.15018232

>  <Name>
ligand

>  <RI>
0

>  <Rbt.Current_Directory>
/home/itssahil/PROJECTS/Mol_Feturizer/Test_systems_manuscript/rnas/2xnw

>  <Rbt.Executable>
rbdock ($Id: //depot/dev/client3/rdock/2013.1/src/exe/rbdock.cxx#4 $)

>  <Rbt.Library>
libRbt.so (2013.1, Build901 2013/11/27)

>  <Rbt.Parameter_File>
/export/apps/rDock/src/rDock_2013.1_src/data/scripts/dock_solv.prm

>  <Rbt.Receptor>
prm/blind_docking_60.prm

>  <SCORE>
-5.91077

>  <SCORE.INTER>
-5.91077

>  <SCORE.INTER.CONST>
1

>  <SCORE.INTER.POLAR>
0

>  <SCORE.INTER.ROT>
0

>  <SCORE.INTER.SOLV>
15.5932

>  <SCORE.INTER.VDW>
-12.7383

>  <SCORE.INTER.norm>
-0.591077

>  <SCORE.INTRA>
0

>  <SCORE.INTRA.DIHEDRAL>
0

>  <SCORE.INTRA.DIHEDRAL.0>
0

>  <SCORE.INTRA.POLAR>
0

>  <SCORE.INTRA.POLAR.0>
0

>  <SCORE.INTRA.REPUL>
0

>  <SCORE.INTRA.REPUL.0>
0

>  <SCORE.INTRA.SOLV>
0

>  <SCORE.INTRA.SOLV.lig_0>
-47.9788

>  <SCORE.INTRA.VDW>
0

>  <SCORE.INTRA.VDW.0>
0

>  <SCORE.INTRA.norm>
0

>  <SCORE.RESTR>
0

>  <SCORE.RESTR.CAVITY>
0

>  <SCORE.RESTR.norm>
0

>  <SCORE.SYSTEM>
0

>  <SCORE.SYSTEM.CONST>
0

>  <SCORE.SYSTEM.DIHEDRAL>
0

>  <SCORE.SYSTEM.SOLV>
0

>  <SCORE.SYSTEM.norm>
0

>  <SCORE.heavy>
10

>  <SCORE.norm>
-0.591077

>  <RMSD>
3.507

$$$$
ligand
 OpenBabel02271912133D
libRbt.so/2013.1/901 2013/11/27
 10 11  0  0  0  0  0  0  0  0999 V2000
   11.0377   -1.7346    6.2092 C   0  0  1  0  0  0  0  0  0  0  0  0
   12.9362   -3.9789    7.9449 C   0  0  2  0  0  0  0  0  0  0  0  0
   11.8540   -2.1753    8.0959 C   0  0  2  0  0  0  0  0  0  0  0  0
   10.3698   -1.1412    5.2132 N   0  0  0  0  0  0  0  0  0  0  0  0
   13.4862   -5.1032    7.4969 N   0  0  0  0  0  0  0  0  0  0  0  0
   13.0388   -3.5375    9.1928 N   0  0  0  0  0  0  0  0  0  0  0  0
   11.1115   -1.2720    7.4522 N   0  0  0  0  0  0  0  0  0  0  0  0
   11.7170   -2.8923    6.1132 N   0  0  0  0  0  0  0  0  0  0  0  0
   12.4080   -2.4744    9.2809 N   0  0  0  0  0  0  0  0  0  0  0  0
   12.1913   -3.1412    7.2330 N   0  0  1  0  0  0  0  0  0  0  0  0
  1  4  1  1  0  0  0
  1  8  1  0  0  0  0
  1  7  1  0  0  0  0
  2  5  1  1  0  0  0
  2  6  1  0  0  0  0
  2 10  1  0  0  0  0
  3  7  1  6  0  0  0
  3 10  1  0  0  0  0
  3  9  1  0  0  0  0
  6  9  1  0  0  0  0
 10  8  1  6  0  0  0
M  END
>  <CHROM.1>
12.01830034,-2.75022359,7.42351462,-2.87347620,-0.97051732,1.11902339

>  <Name>
ligand

>  <RI>
0

>  <Rbt.Current_Directory>
/home/itssahil/PROJECTS/Mol_Feturizer/Test_systems_manuscript/rnas/2xnw

>  <Rbt.Executable>
rbdock ($Id: //depot/dev/client3/rdock/2013.1/src/exe/rbdock.cxx#4 $)

>  <Rbt.Library>
libRbt.so (2013.1, Build901 2013/11/27)

>  <Rbt.Parameter_File>
/export/apps/rDock/src/rDock_2013.1_src/data/scripts/dock_solv.prm

>  <Rbt.Receptor>
prm/pocket_docking_8.prm

>  <SCORE>
-5.85117

>  <SCORE.INTER>
-5.85117

>  <SCORE.INTER.CONST>
1

>  <SCORE.INTER.POLAR>
0

>  <SCORE.INTER.ROT>
0

>  <SCORE.INTER.SOLV>
15.5573

>  <SCORE.INTER.VDW>
-12.6865

>  <SCORE.INTER.norm>
-0.585117

>  <SCORE.INTRA>
0

>  <SCORE.INTRA.DIHEDRAL>
0

>  <SCORE.INTRA.DIHEDRAL.0>
0

>  <SCORE.INTRA.POLAR>
0

>  <SCORE.INTRA.POLAR.0>
0

>  <SCORE.INTRA.REPUL>
0

>  <SCORE.INTRA.REPUL.0>
0

>  <SCORE.INTRA.SOLV>
0

>  <SCORE.INTRA.SOLV.lig_0>
-47.9788

>  <SCORE.INTRA.VDW>
0

>  <SCORE.INTRA.VDW.0>
0

>  <SCORE.INTRA.norm>
0

>  <SCORE.RESTR>
0

>  <SCORE.RESTR.CAVITY>
0

>  <SCORE.RESTR.norm>
0

>  <SCORE.SYSTEM>
0

>  <SCORE.SYSTEM.CONST>
0

>  <SCORE.SYSTEM.DIHEDRAL>
0

>  <SCORE.SYSTEM.SOLV>
0

>  <SCORE.SYSTEM.norm>
0

>  <SCORE.heavy>
10

>  <SCORE.norm>
-0.585117

>  <RMSD>
3.509

$$$$
ligand
 OpenBabel02271912133D
libRbt.so/2013.1/901 2013/11/27
 10 11  0  0  0  0  0  0  0  0999 V2000
   11.0664   -1.7559    6.1649 C   0  0  1  0  0  0  0  0  0  0  0  0
   13.0213   -3.9668    7.8808 C   0  0  2  0  0  0  0  0  0  0  0  0
   11.8495   -2.2227    8.0594 C   0  0  2  0  0  0  0  0  0  0  0  0
   10.3990   -1.1606    5.1698 N   0  0  0  0  0  0  0  0  0  0  0  0
   13.6373   -5.0476    7.4122 N   0  0  0  0  0  0  0  0  0  0  0  0
   13.0672   -3.5646    9.1453 N   0  0  0  0  0  0  0  0  0  0  0  0
   11.0827   -1.3337    7.4243 N   0  0  0  0  0  0  0  0  0  0  0  0
   11.8032   -2.8762    6.0507 N   0  0  0  0  0  0  0  0  0  0  0  0
   12.3836   -2.5362    9.2499 N   0  0  0  0  0  0  0  0  0  0  0  0
   12.2572   -3.1411    7.1753 N   0  0  1  0  0  0  0  0  0  0  0  0
  1  4  1  1  0  0  0
  1  8  1  0  0  0  0
  1  7  1  0  0  0  0
  2  5  1  1  0  0  0
  2  6  1  0  0  0  0
  2 10  1  0  0  0  0
  3  7  1  6  0  0  0
  3 10  1  0  0  0  0
  3  9  1  0  0  0  0
  6  9  1  0  0  0  0
 10  8  1  6  0  0  0
M  END
>  <CHROM.1>
12.06020967,-2.76555277,7.37349003,-2.79486342,-0.93790733,1.21720392

>  <Name>
ligand

>  <RI>
0

>  <Rbt.Current_Directory>
/home/itssahil/PROJECTS/Mol_Feturizer/Test_systems_manuscript/rnas/2xnw

>  <Rbt.Executable>
rbdock ($Id: //depot/dev/client3/rdock/2013.1/src/exe/rbdock.cxx#4 $)

>  <Rbt.Library>
libRbt.so (2013.1, Build901 2013/11/27)

>  <Rbt.Parameter_File>
/export/apps/rDock/src/rDock_2013.1_src/data/scripts/dock_solv.prm

>  <Rbt.Receptor>
prm/blind_docking_20.prm

>  <SCORE>
-5.80237

>  <SCORE.INTER>
-5.80237

>  <SCORE.INTER.CONST>
1

>  <SCORE.INTER.POLAR>
0

>  <SCORE.INTER.ROT>
0

>  <SCORE.INTER.SOLV>
15.5794

>  <SCORE.INTER.VDW>
-12.6614

>  <SCORE.INTER.norm>
-0.580237

>  <SCORE.INTRA>
0

>  <SCORE.INTRA.DIHEDRAL>
0

>  <SCORE.INTRA.DIHEDRAL.0>
0

>  <SCORE.INTRA.POLAR>
0

>  <SCORE.INTRA.POLAR.0>
0

>  <SCORE.INTRA.REPUL>
0

>  <SCORE.INTRA.REPUL.0>
0

>  <SCORE.INTRA.SOLV>
0

>  <SCORE.INTRA.SOLV.lig_0>
-47.9788

>  <SCORE.INTRA.VDW>
0

>  <SCORE.INTRA.VDW.0>
0

>  <SCORE.INTRA.norm>
0

>  <SCORE.RESTR>
0

>  <SCORE.RESTR.CAVITY>
0

>  <SCORE.RESTR.norm>
0

>  <SCORE.SYSTEM>
0

>  <SCORE.SYSTEM.CONST>
0

>  <SCORE.SYSTEM.DIHEDRAL>
0

>  <SCORE.SYSTEM.SOLV>
0

>  <SCORE.SYSTEM.norm>
0

>  <SCORE.heavy>
10

>  <SCORE.norm>
-0.580237

>  <RMSD>
3.520

$$$$
ligand
 OpenBabel02271912133D
libRbt.so/2013.1/901 2013/11/27
 10 11  0  0  0  0  0  0  0  0999 V2000
   11.2084   -1.5982    5.9044 C   0  0  1  0  0  0  0  0  0  0  0  0
   12.3156   -4.1034    7.9421 C   0  0  2  0  0  0  0  0  0  0  0  0
   11.3264   -2.2414    7.9026 C   0  0  2  0  0  0  0  0  0  0  0  0
   10.9390   -0.8824    4.8066 N   0  0  0  0  0  0  0  0  0  0  0  0
   12.9333   -5.2277    7.5933 N   0  0  0  0  0  0  0  0  0  0  0  0
   12.0145   -3.7677    9.1909 N   0  0  0  0  0  0  0  0  0  0  0  0
   10.8827   -1.2389    7.1412 N   0  0  0  0  0  0  0  0  0  0  0  0
   11.8286   -2.7923    5.9256 N   0  0  0  0  0  0  0  0  0  0  0  0
   11.4384   -2.6707    9.1690 N   0  0  0  0  0  0  0  0  0  0  0  0
   11.8896   -3.1607    7.1094 N   0  0  1  0  0  0  0  0  0  0  0  0
  1  4  1  6  0  0  0
  1  8  1  0  0  0  0
  1  7  1  0  0  0  0
  2  5  1  6  0  0  0
  2  6  1  0  0  0  0
  2 10  1  0  0  0  0
  3  7  1  1  0  0  0
  3 10  1  0  0  0  0
  3  9  1  0  0  0  0
  6  9  1  0  0  0  0
 10  8  1  1  0  0  0
M  END
>  <CHROM.1>
11.68036854,-2.77370994,7.26935918,-2.23386637,-1.07971690,1.76102570

>  <Name>
ligand

>  <RI>
0

>  <Rbt.Current_Directory>
/home/itssahil/PROJECTS/Mol_Feturizer/Test_systems_manuscript/rnas/2xnw

>  <Rbt.Executable>
rbdock ($Id: //depot/dev/client3/rdock/2013.1/src/exe/rbdock.cxx#4 $)

>  <Rbt.Library>
libRbt.so (2013.1, Build901 2013/11/27)

>  <Rbt.Parameter_File>
/export/apps/rDock/src/rDock_2013.1_src/data/scripts/dock_solv.prm

>  <Rbt.Receptor>
prm/pocket_docking_3.prm

>  <SCORE>
-6.17831

>  <SCORE.INTER>
-6.17831

>  <SCORE.INTER.CONST>
1

>  <SCORE.INTER.POLAR>
0

>  <SCORE.INTER.ROT>
0

>  <SCORE.INTER.SOLV>
20.249

>  <SCORE.INTER.VDW>
-14.4686

>  <SCORE.INTER.norm>
-0.617831

>  <SCORE.INTRA>
0

>  <SCORE.INTRA.DIHEDRAL>
0

>  <SCORE.INTRA.DIHEDRAL.0>
0

>  <SCORE.INTRA.POLAR>
0

>  <SCORE.INTRA.POLAR.0>
0

>  <SCORE.INTRA.REPUL>
0

>  <SCORE.INTRA.REPUL.0>
0

>  <SCORE.INTRA.SOLV>
0

>  <SCORE.INTRA.SOLV.lig_0>
-47.9788

>  <SCORE.INTRA.VDW>
0

>  <SCORE.INTRA.VDW.0>
0

>  <SCORE.INTRA.norm>
0

>  <SCORE.RESTR>
0

>  <SCORE.RESTR.CAVITY>
0

>  <SCORE.RESTR.norm>
0

>  <SCORE.SYSTEM>
0

>  <SCORE.SYSTEM.CONST>
0

>  <SCORE.SYSTEM.DIHEDRAL>
0

>  <SCORE.SYSTEM.SOLV>
0

>  <SCORE.SYSTEM.norm>
0

>  <SCORE.heavy>
10

>  <SCORE.norm>
-0.617831

>  <RMSD>
3.578

$$$$
ligand
 OpenBabel02271912133D
libRbt.so/2013.1/901 2013/11/27
 10 11  0  0  0  0  0  0  0  0999 V2000
   12.7248   -4.3086    7.6910 C   0  0  1  0  0  0  0  0  0  0  0  0
   11.8656   -1.3771    9.2151 C   0  0  2  0  0  0  0  0  0  0  0  0
   11.6673   -2.5080    7.4462 C   0  0  2  0  0  0  0  0  0  0  0  0
   13.2537   -5.5187    7.4768 N   0  0  0  0  0  0  0  0  0  0  0  0
   12.1790   -0.9712   10.4415 N   0  0  0  0  0  0  0  0  0  0  0  0
   11.1327   -0.6782    8.3565 N   0  0  0  0  0  0  0  0  0  0  0  0
   11.9850   -3.6396    6.8137 N   0  0  0  0  0  0  0  0  0  0  0  0
   12.8423   -3.5945    8.8257 N   0  0  0  0  0  0  0  0  0  0  0  0
   11.0207   -1.3395    7.3145 N   0  0  0  0  0  0  0  0  0  0  0  0
   12.2125   -2.5365    8.6682 N   0  0  1  0  0  0  0  0  0  0  0  0
  1  4  1  1  0  0  0
  1  8  1  0  0  0  0
  1  7  1  0  0  0  0
  2  5  1  1  0  0  0
  2  6  1  0  0  0  0
  2 10  1  0  0  0  0
  3  7  1  6  0  0  0
  3 10  1  0  0  0  0
  3  9  1  0  0  0  0
  6  9  1  0  0  0  0
 10  8  1  6  0  0  0
M  END
>  <CHROM.1>
12.08845651,-2.64344160,8.22971559,-1.00858861,-0.97666304,0.87340990

>  <Name>
ligand

>  <RI>
0

>  <Rbt.Current_Directory>
/home/itssahil/PROJECTS/Mol_Feturizer/Test_systems_manuscript/rnas/2xnw

>  <Rbt.Executable>
rbdock ($Id: //depot/dev/client3/rdock/2013.1/src/exe/rbdock.cxx#4 $)

>  <Rbt.Library>
libRbt.so (2013.1, Build901 2013/11/27)

>  <Rbt.Parameter_File>
/export/apps/rDock/src/rDock_2013.1_src/data/scripts/dock_solv.prm

>  <Rbt.Receptor>
prm/pocket_docking_5.prm

>  <SCORE>
-5.6914

>  <SCORE.INTER>
-5.6914

>  <SCORE.INTER.CONST>
1

>  <SCORE.INTER.POLAR>
0

>  <SCORE.INTER.ROT>
0

>  <SCORE.INTER.SOLV>
16.3887

>  <SCORE.INTER.VDW>
-12.8572

>  <SCORE.INTER.norm>
-0.56914

>  <SCORE.INTRA>
0

>  <SCORE.INTRA.DIHEDRAL>
0

>  <SCORE.INTRA.DIHEDRAL.0>
0

>  <SCORE.INTRA.POLAR>
0

>  <SCORE.INTRA.POLAR.0>
0

>  <SCORE.INTRA.REPUL>
0

>  <SCORE.INTRA.REPUL.0>
0

>  <SCORE.INTRA.SOLV>
0

>  <SCORE.INTRA.SOLV.lig_0>
-47.9788

>  <SCORE.INTRA.VDW>
0

>  <SCORE.INTRA.VDW.0>
0

>  <SCORE.INTRA.norm>
0

>  <SCORE.RESTR>
0

>  <SCORE.RESTR.CAVITY>
0

>  <SCORE.RESTR.norm>
0

>  <SCORE.SYSTEM>
0

>  <SCORE.SYSTEM.CONST>
0

>  <SCORE.SYSTEM.DIHEDRAL>
0

>  <SCORE.SYSTEM.SOLV>
0

>  <SCORE.SYSTEM.norm>
0

>  <SCORE.heavy>
10

>  <SCORE.norm>
-0.56914

>  <RMSD>
3.578

$$$$
ligand
 OpenBabel02271912133D
libRbt.so/2013.1/901 2013/11/27
 10 11  0  0  0  0  0  0  0  0999 V2000
   11.2052   -1.5944    5.8961 C   0  0  1  0  0  0  0  0  0  0  0  0
   12.3086   -4.0958    7.9405 C   0  0  2  0  0  0  0  0  0  0  0  0
   11.3314   -2.2275    7.8970 C   0  0  2  0  0  0  0  0  0  0  0  0
   10.9337   -0.8828    4.7961 N   0  0  0  0  0  0  0  0  0  0  0  0
   12.9166   -5.2261    7.5940 N   0  0  0  0  0  0  0  0  0  0  0  0
   12.0175   -3.7514    9.1892 N   0  0  0  0  0  0  0  0  0  0  0  0
   10.8896   -1.2263    7.1329 N   0  0  0  0  0  0  0  0  0  0  0  0
   11.8176   -2.7924    5.9200 N   0  0  0  0  0  0  0  0  0  0  0  0
   11.4485   -2.6507    9.1650 N   0  0  0  0  0  0  0  0  0  0  0  0
   11.8835   -3.1549    7.1053 N   0  0  1  0  0  0  0  0  0  0  0  0
  1  4  1  6  0  0  0
  1  8  1  0  0  0  0
  1  7  1  0  0  0  0
  2  5  1  6  0  0  0
  2  6  1  0  0  0  0
  2 10  1  0  0  0  0
  3  7  1  1  0  0  0
  3 10  1  0  0  0  0
  3  9  1  0  0  0  0
  6  9  1  0  0  0  0
 10  8  1  1  0  0  0
M  END
>  <CHROM.1>
11.67790487,-2.76563994,7.26446992,-2.24438495,-1.08736651,1.74631575

>  <Name>
ligand

>  <RI>
0

>  <Rbt.Current_Directory>
/home/itssahil/PROJECTS/Mol_Feturizer/Test_systems_manuscript/rnas/2xnw

>  <Rbt.Executable>
rbdock ($Id: //depot/dev/client3/rdock/2013.1/src/exe/rbdock.cxx#4 $)

>  <Rbt.Library>
libRbt.so (2013.1, Build901 2013/11/27)

>  <Rbt.Parameter_File>
/export/apps/rDock/src/rDock_2013.1_src/data/scripts/dock_solv.prm

>  <Rbt.Receptor>
prm/pocket_docking_5.prm

>  <SCORE>
-6.18963

>  <SCORE.INTER>
-6.18963

>  <SCORE.INTER.CONST>
1

>  <SCORE.INTER.POLAR>
0

>  <SCORE.INTER.ROT>
0

>  <SCORE.INTER.SOLV>
20.3079

>  <SCORE.INTER.VDW>
-14.4957

>  <SCORE.INTER.norm>
-0.618963

>  <SCORE.INTRA>
0

>  <SCORE.INTRA.DIHEDRAL>
0

>  <SCORE.INTRA.DIHEDRAL.0>
0

>  <SCORE.INTRA.POLAR>
0

>  <SCORE.INTRA.POLAR.0>
0

>  <SCORE.INTRA.REPUL>
0

>  <SCORE.INTRA.REPUL.0>
0

>  <SCORE.INTRA.SOLV>
0

>  <SCORE.INTRA.SOLV.lig_0>
-47.9788

>  <SCORE.INTRA.VDW>
0

>  <SCORE.INTRA.VDW.0>
0

>  <SCORE.INTRA.norm>
0

>  <SCORE.RESTR>
0

>  <SCORE.RESTR.CAVITY>
0

>  <SCORE.RESTR.norm>
0

>  <SCORE.SYSTEM>
0

>  <SCORE.SYSTEM.CONST>
0

>  <SCORE.SYSTEM.DIHEDRAL>
0

>  <SCORE.SYSTEM.SOLV>
0

>  <SCORE.SYSTEM.norm>
0

>  <SCORE.heavy>
10

>  <SCORE.norm>
-0.618963

>  <RMSD>
3.579

$$$$
ligand
 OpenBabel02271912133D
libRbt.so/2013.1/901 2013/11/27
 10 11  0  0  0  0  0  0  0  0999 V2000
   11.1944   -1.6026    5.8981 C   0  0  1  0  0  0  0  0  0  0  0  0
   12.3109   -4.0922    7.9498 C   0  0  2  0  0  0  0  0  0  0  0  0
   11.3408   -2.2203    7.9024 C   0  0  2  0  0  0  0  0  0  0  0  0
   10.9134   -0.8986    4.7956 N   0  0  0  0  0  0  0  0  0  0  0  0
   12.9104   -5.2277    7.6056 N   0  0  0  0  0  0  0  0  0  0  0  0
   12.0353   -3.7367    9.1990 N   0  0  0  0  0  0  0  0  0  0  0  0
   10.8944   -1.2234    7.1354 N   0  0  0  0  0  0  0  0  0  0  0  0
   11.8023   -2.8029    5.9246 N   0  0  0  0  0  0  0  0  0  0  0  0
   11.4706   -2.6339    9.1724 N   0  0  0  0  0  0  0  0  0  0  0  0
   11.8802   -3.1562    7.1120 N   0  0  1  0  0  0  0  0  0  0  0  0
  1  4  1  6  0  0  0
  1  8  1  0  0  0  0
  1  7  1  0  0  0  0
  2  5  1  6  0  0  0
  2  6  1  0  0  0  0
  2 10  1  0  0  0  0
  3  7  1  1  0  0  0
  3 10  1  0  0  0  0
  3  9  1  0  0  0  0
  6  9  1  0  0  0  0
 10  8  1  1  0  0  0
M  END
>  <CHROM.1>
11.67794265,-2.76485778,7.27036321,-2.26715926,-1.09320508,1.71813348

>  <Name>
ligand

>  <RI>
0

>  <Rbt.Current_Directory>
/home/itssahil/PROJECTS/Mol_Feturizer/Test_systems_manuscript/rnas/2xnw

>  <Rbt.Executable>
rbdock ($Id: //depot/dev/client3/rdock/2013.1/src/exe/rbdock.cxx#4 $)

>  <Rbt.Library>
libRbt.so (2013.1, Build901 2013/11/27)

>  <Rbt.Parameter_File>
/export/apps/rDock/src/rDock_2013.1_src/data/scripts/dock_solv.prm

>  <Rbt.Receptor>
prm/pocket_docking_6.prm

>  <SCORE>
-6.19092

>  <SCORE.INTER>
-6.19092

>  <SCORE.INTER.CONST>
1

>  <SCORE.INTER.POLAR>
0

>  <SCORE.INTER.ROT>
0

>  <SCORE.INTER.SOLV>
20.2423

>  <SCORE.INTER.VDW>
-14.4747

>  <SCORE.INTER.norm>
-0.619092

>  <SCORE.INTRA>
0

>  <SCORE.INTRA.DIHEDRAL>
0

>  <SCORE.INTRA.DIHEDRAL.0>
0

>  <SCORE.INTRA.POLAR>
0

>  <SCORE.INTRA.POLAR.0>
0

>  <SCORE.INTRA.REPUL>
0

>  <SCORE.INTRA.REPUL.0>
0

>  <SCORE.INTRA.SOLV>
0

>  <SCORE.INTRA.SOLV.lig_0>
-47.9788

>  <SCORE.INTRA.VDW>
0

>  <SCORE.INTRA.VDW.0>
0

>  <SCORE.INTRA.norm>
0

>  <SCORE.RESTR>
0

>  <SCORE.RESTR.CAVITY>
0

>  <SCORE.RESTR.norm>
0

>  <SCORE.SYSTEM>
0

>  <SCORE.SYSTEM.CONST>
0

>  <SCORE.SYSTEM.DIHEDRAL>
0

>  <SCORE.SYSTEM.SOLV>
0

>  <SCORE.SYSTEM.norm>
0

>  <SCORE.heavy>
10

>  <SCORE.norm>
-0.619092

>  <RMSD>
3.581

$$$$
ligand
 OpenBabel02271912133D
libRbt.so/2013.1/901 2013/11/27
 10 11  0  0  0  0  0  0  0  0999 V2000
   11.1972   -1.6052    5.8939 C   0  0  1  0  0  0  0  0  0  0  0  0
   12.3145   -4.0927    7.9479 C   0  0  2  0  0  0  0  0  0  0  0  0
   11.3384   -2.2240    7.8983 C   0  0  2  0  0  0  0  0  0  0  0  0
   10.9179   -0.9014    4.7909 N   0  0  0  0  0  0  0  0  0  0  0  0
   12.9190   -5.2258    7.6050 N   0  0  0  0  0  0  0  0  0  0  0  0
   12.0331   -3.7390    9.1963 N   0  0  0  0  0  0  0  0  0  0  0  0
   10.8914   -1.2280    7.1304 N   0  0  0  0  0  0  0  0  0  0  0  0
   11.8090   -2.8036    5.9218 N   0  0  0  0  0  0  0  0  0  0  0  0
   11.4648   -2.6381    9.1685 N   0  0  0  0  0  0  0  0  0  0  0  0
   11.8837   -3.1575    7.1092 N   0  0  1  0  0  0  0  0  0  0  0  0
  1  4  1  6  0  0  0
  1  8  1  0  0  0  0
  1  7  1  0  0  0  0
  2  5  1  6  0  0  0
  2  6  1  0  0  0  0
  2 10  1  0  0  0  0
  3  7  1  1  0  0  0
  3 10  1  0  0  0  0
  3  9  1  0  0  0  0
  6  9  1  0  0  0  0
 10  8  1  1  0  0  0
M  END
>  <CHROM.1>
11.67959466,-2.76691420,7.26709127,-2.26036544,-1.08934097,1.72490888

>  <Name>
ligand

>  <RI>
0

>  <Rbt.Current_Directory>
/home/itssahil/PROJECTS/Mol_Feturizer/Test_systems_manuscript/rnas/2xnw

>  <Rbt.Executable>
rbdock ($Id: //depot/dev/client3/rdock/2013.1/src/exe/rbdock.cxx#4 $)

>  <Rbt.Library>
libRbt.so (2013.1, Build901 2013/11/27)

>  <Rbt.Parameter_File>
/export/apps/rDock/src/rDock_2013.1_src/data/scripts/dock_solv.prm

>  <Rbt.Receptor>
prm/blind_docking_40.prm

>  <SCORE>
-6.19343

>  <SCORE.INTER>
-6.19343

>  <SCORE.INTER.CONST>
1

>  <SCORE.INTER.POLAR>
0

>  <SCORE.INTER.ROT>
0

>  <SCORE.INTER.SOLV>
20.2371

>  <SCORE.INTER.VDW>
-14.4746

>  <SCORE.INTER.norm>
-0.619343

>  <SCORE.INTRA>
0

>  <SCORE.INTRA.DIHEDRAL>
0

>  <SCORE.INTRA.DIHEDRAL.0>
0

>  <SCORE.INTRA.POLAR>
0

>  <SCORE.INTRA.POLAR.0>
0

>  <SCORE.INTRA.REPUL>
0

>  <SCORE.INTRA.REPUL.0>
0

>  <SCORE.INTRA.SOLV>
0

>  <SCORE.INTRA.SOLV.lig_0>
-47.9788

>  <SCORE.INTRA.VDW>
0

>  <SCORE.INTRA.VDW.0>
0

>  <SCORE.INTRA.norm>
0

>  <SCORE.RESTR>
0

>  <SCORE.RESTR.CAVITY>
0

>  <SCORE.RESTR.norm>
0

>  <SCORE.SYSTEM>
0

>  <SCORE.SYSTEM.CONST>
0

>  <SCORE.SYSTEM.DIHEDRAL>
0

>  <SCORE.SYSTEM.SOLV>
0

>  <SCORE.SYSTEM.norm>
0

>  <SCORE.heavy>
10

>  <SCORE.norm>
-0.619343

>  <RMSD>
3.583

$$$$
ligand
 OpenBabel02271912133D
libRbt.so/2013.1/901 2013/11/27
 10 11  0  0  0  0  0  0  0  0999 V2000
   11.1931   -1.6063    5.8920 C   0  0  1  0  0  0  0  0  0  0  0  0
   12.3188   -4.0950    7.9399 C   0  0  2  0  0  0  0  0  0  0  0  0
   11.3204   -2.2380    7.8933 C   0  0  2  0  0  0  0  0  0  0  0  0
   10.9169   -0.8978    4.7912 N   0  0  0  0  0  0  0  0  0  0  0  0
   12.9409   -5.2181    7.5953 N   0  0  0  0  0  0  0  0  0  0  0  0
   12.0199   -3.7539    9.1877 N   0  0  0  0  0  0  0  0  0  0  0  0
   10.8695   -1.2419    7.1278 N   0  0  0  0  0  0  0  0  0  0  0  0
   11.8192   -2.7972    5.9178 N   0  0  0  0  0  0  0  0  0  0  0  0
   11.4384   -2.6599    9.1617 N   0  0  0  0  0  0  0  0  0  0  0  0
   11.8856   -3.1589    7.1034 N   0  0  1  0  0  0  0  0  0  0  0  0
  1  4  1  6  0  0  0
  1  8  1  0  0  0  0
  1  7  1  0  0  0  0
  2  5  1  6  0  0  0
  2  6  1  0  0  0  0
  2 10  1  0  0  0  0
  3  7  1  1  0  0  0
  3 10  1  0  0  0  0
  3  9  1  0  0  0  0
  6  9  1  0  0  0  0
 10  8  1  1  0  0  0
M  END
>  <CHROM.1>
11.67504772,-2.77208859,7.26187733,-2.24213454,-1.07549114,1.74830738

>  <Name>
ligand

>  <RI>
0

>  <Rbt.Current_Directory>
/home/itssahil/PROJECTS/Mol_Feturizer/Test_systems_manuscript/rnas/2xnw

>  <Rbt.Executable>
rbdock ($Id: //depot/dev/client3/rdock/2013.1/src/exe/rbdock.cxx#4 $)

>  <Rbt.Library>
libRbt.so (2013.1, Build901 2013/11/27)

>  <Rbt.Parameter_File>
/export/apps/rDock/src/rDock_2013.1_src/data/scripts/dock_solv.prm

>  <Rbt.Receptor>
prm/pocket_docking_5.prm

>  <SCORE>
-6.18864

>  <SCORE.INTER>
-6.18864

>  <SCORE.INTER.CONST>
1

>  <SCORE.INTER.POLAR>
0

>  <SCORE.INTER.ROT>
0

>  <SCORE.INTER.SOLV>
20.1916

>  <SCORE.INTER.VDW>
-14.4563

>  <SCORE.INTER.norm>
-0.618864

>  <SCORE.INTRA>
0

>  <SCORE.INTRA.DIHEDRAL>
0

>  <SCORE.INTRA.DIHEDRAL.0>
0

>  <SCORE.INTRA.POLAR>
0

>  <SCORE.INTRA.POLAR.0>
0

>  <SCORE.INTRA.REPUL>
0

>  <SCORE.INTRA.REPUL.0>
0

>  <SCORE.INTRA.SOLV>
0

>  <SCORE.INTRA.SOLV.lig_0>
-47.9788

>  <SCORE.INTRA.VDW>
0

>  <SCORE.INTRA.VDW.0>
0

>  <SCORE.INTRA.norm>
0

>  <SCORE.RESTR>
0

>  <SCORE.RESTR.CAVITY>
0

>  <SCORE.RESTR.norm>
0

>  <SCORE.SYSTEM>
0

>  <SCORE.SYSTEM.CONST>
0

>  <SCORE.SYSTEM.DIHEDRAL>
0

>  <SCORE.SYSTEM.SOLV>
0

>  <SCORE.SYSTEM.norm>
0

>  <SCORE.heavy>
10

>  <SCORE.norm>
-0.618864

>  <RMSD>
3.583

$$$$
ligand
 OpenBabel02271912133D
libRbt.so/2013.1/901 2013/11/27
 10 11  0  0  0  0  0  0  0  0999 V2000
   11.1931   -1.6139    5.8925 C   0  0  1  0  0  0  0  0  0  0  0  0
   12.2771   -4.1180    7.9440 C   0  0  2  0  0  0  0  0  0  0  0  0
   11.3449   -2.2270    7.8978 C   0  0  2  0  0  0  0  0  0  0  0  0
   10.9165   -0.9086    4.7897 N   0  0  0  0  0  0  0  0  0  0  0  0
   12.8504   -5.2667    7.5989 N   0  0  0  0  0  0  0  0  0  0  0  0
   12.0201   -3.7522    9.1942 N   0  0  0  0  0  0  0  0  0  0  0  0
   10.9120   -1.2241    7.1308 N   0  0  0  0  0  0  0  0  0  0  0  0
   11.7766   -2.8263    5.9183 N   0  0  0  0  0  0  0  0  0  0  0  0
   11.4776   -2.6383    9.1682 N   0  0  0  0  0  0  0  0  0  0  0  0
   11.8580   -3.1766    7.1064 N   0  0  1  0  0  0  0  0  0  0  0  0
  1  4  1  6  0  0  0
  1  8  1  0  0  0  0
  1  7  1  0  0  0  0
  2  5  1  6  0  0  0
  2  6  1  0  0  0  0
  2 10  1  0  0  0  0
  3  7  1  1  0  0  0
  3 10  1  0  0  0  0
  3  9  1  0  0  0  0
  6  9  1  0  0  0  0
 10  8  1  1  0  0  0
M  END
>  <CHROM.1>
11.66520559,-2.78061897,7.26496401,-2.28054631,-1.11457235,1.70230693

>  <Name>
ligand

>  <RI>
0

>  <Rbt.Current_Directory>
/home/itssahil/PROJECTS/Mol_Feturizer/Test_systems_manuscript/rnas/2xnw

>  <Rbt.Executable>
rbdock ($Id: //depot/dev/client3/rdock/2013.1/src/exe/rbdock.cxx#4 $)

>  <Rbt.Library>
libRbt.so (2013.1, Build901 2013/11/27)

>  <Rbt.Parameter_File>
/export/apps/rDock/src/rDock_2013.1_src/data/scripts/dock_solv.prm

>  <Rbt.Receptor>
prm/blind_docking_60.prm

>  <SCORE>
-6.16572

>  <SCORE.INTER>
-6.16572

>  <SCORE.INTER.CONST>
1

>  <SCORE.INTER.POLAR>
0

>  <SCORE.INTER.ROT>
0

>  <SCORE.INTER.SOLV>
20.4482

>  <SCORE.INTER.VDW>
-14.5266

>  <SCORE.INTER.norm>
-0.616572

>  <SCORE.INTRA>
0

>  <SCORE.INTRA.DIHEDRAL>
0

>  <SCORE.INTRA.DIHEDRAL.0>
0

>  <SCORE.INTRA.POLAR>
0

>  <SCORE.INTRA.POLAR.0>
0

>  <SCORE.INTRA.REPUL>
0

>  <SCORE.INTRA.REPUL.0>
0

>  <SCORE.INTRA.SOLV>
0

>  <SCORE.INTRA.SOLV.lig_0>
-47.9788

>  <SCORE.INTRA.VDW>
0

>  <SCORE.INTRA.VDW.0>
0

>  <SCORE.INTRA.norm>
0

>  <SCORE.RESTR>
0

>  <SCORE.RESTR.CAVITY>
0

>  <SCORE.RESTR.norm>
0

>  <SCORE.SYSTEM>
0

>  <SCORE.SYSTEM.CONST>
0

>  <SCORE.SYSTEM.DIHEDRAL>
0

>  <SCORE.SYSTEM.SOLV>
0

>  <SCORE.SYSTEM.norm>
0

>  <SCORE.heavy>
10

>  <SCORE.norm>
-0.616572

>  <RMSD>
3.586

$$$$
ligand
 OpenBabel02271912133D
libRbt.so/2013.1/901 2013/11/27
 10 11  0  0  0  0  0  0  0  0999 V2000
   11.1940   -1.6153    5.8927 C   0  0  1  0  0  0  0  0  0  0  0  0
   12.2790   -4.1189    7.9443 C   0  0  2  0  0  0  0  0  0  0  0  0
   11.3409   -2.2308    7.8977 C   0  0  2  0  0  0  0  0  0  0  0  0
   10.9189   -0.9092    4.7901 N   0  0  0  0  0  0  0  0  0  0  0  0
   12.8571   -5.2652    7.5995 N   0  0  0  0  0  0  0  0  0  0  0  0
   12.0165   -3.7557    9.1941 N   0  0  0  0  0  0  0  0  0  0  0  0
   10.9074   -1.2281    7.1307 N   0  0  0  0  0  0  0  0  0  0  0  0
   11.7814   -2.8258    5.9188 N   0  0  0  0  0  0  0  0  0  0  0  0
   11.4706   -2.6435    9.1679 N   0  0  0  0  0  0  0  0  0  0  0  0
   11.8598   -3.1776    7.1066 N   0  0  1  0  0  0  0  0  0  0  0  0
  1  4  1  6  0  0  0
  1  8  1  0  0  0  0
  1  7  1  0  0  0  0
  2  5  1  6  0  0  0
  2  6  1  0  0  0  0
  2 10  1  0  0  0  0
  3  7  1  1  0  0  0
  3 10  1  0  0  0  0
  3  9  1  0  0  0  0
  6  9  1  0  0  0  0
 10  8  1  1  0  0  0
M  END
>  <CHROM.1>
11.66514576,-2.78245250,7.26508825,-2.27382641,-1.11092709,1.70981178

>  <Name>
ligand

>  <RI>
0

>  <Rbt.Current_Directory>
/home/itssahil/PROJECTS/Mol_Feturizer/Test_systems_manuscript/rnas/2xnw

>  <Rbt.Executable>
rbdock ($Id: //depot/dev/client3/rdock/2013.1/src/exe/rbdock.cxx#4 $)

>  <Rbt.Library>
libRbt.so (2013.1, Build901 2013/11/27)

>  <Rbt.Parameter_File>
/export/apps/rDock/src/rDock_2013.1_src/data/scripts/dock_solv.prm

>  <Rbt.Receptor>
prm/pocket_docking_5.prm

>  <SCORE>
-6.16532

>  <SCORE.INTER>
-6.16532

>  <SCORE.INTER.CONST>
1

>  <SCORE.INTER.POLAR>
0

>  <SCORE.INTER.ROT>
0

>  <SCORE.INTER.SOLV>
20.4351

>  <SCORE.INTER.VDW>
-14.5219

>  <SCORE.INTER.norm>
-0.616532

>  <SCORE.INTRA>
0

>  <SCORE.INTRA.DIHEDRAL>
0

>  <SCORE.INTRA.DIHEDRAL.0>
0

>  <SCORE.INTRA.POLAR>
0

>  <SCORE.INTRA.POLAR.0>
0

>  <SCORE.INTRA.REPUL>
0

>  <SCORE.INTRA.REPUL.0>
0

>  <SCORE.INTRA.SOLV>
0

>  <SCORE.INTRA.SOLV.lig_0>
-47.9788

>  <SCORE.INTRA.VDW>
0

>  <SCORE.INTRA.VDW.0>
0

>  <SCORE.INTRA.norm>
0

>  <SCORE.RESTR>
0

>  <SCORE.RESTR.CAVITY>
0

>  <SCORE.RESTR.norm>
0

>  <SCORE.SYSTEM>
0

>  <SCORE.SYSTEM.CONST>
0

>  <SCORE.SYSTEM.DIHEDRAL>
0

>  <SCORE.SYSTEM.SOLV>
0

>  <SCORE.SYSTEM.norm>
0

>  <SCORE.heavy>
10

>  <SCORE.norm>
-0.616532

>  <RMSD>
3.586

$$$$
ligand
 OpenBabel02271912133D
libRbt.so/2013.1/901 2013/11/27
 10 11  0  0  0  0  0  0  0  0999 V2000
   11.1895   -1.5909    5.8711 C   0  0  1  0  0  0  0  0  0  0  0  0
   12.2729   -4.0815    7.9393 C   0  0  2  0  0  0  0  0  0  0  0  0
   11.3319   -2.1952    7.8798 C   0  0  2  0  0  0  0  0  0  0  0  0
   10.9163   -0.8914    4.7638 N   0  0  0  0  0  0  0  0  0  0  0  0
   12.8538   -5.2288    7.6023 N   0  0  0  0  0  0  0  0  0  0  0  0
   12.0065   -3.7120    9.1864 N   0  0  0  0  0  0  0  0  0  0  0  0
   10.8989   -1.1975    7.1061 N   0  0  0  0  0  0  0  0  0  0  0  0
   11.7787   -2.8004    5.9054 N   0  0  0  0  0  0  0  0  0  0  0  0
   11.4588   -2.6008    9.1526 N   0  0  0  0  0  0  0  0  0  0  0  0
   11.8545   -3.1455    7.0953 N   0  0  1  0  0  0  0  0  0  0  0  0
  1  4  1  6  0  0  0
  1  8  1  0  0  0  0
  1  7  1  0  0  0  0
  2  5  1  6  0  0  0
  2  6  1  0  0  0  0
  2 10  1  0  0  0  0
  3  7  1  1  0  0  0
  3 10  1  0  0  0  0
  3  9  1  0  0  0  0
  6  9  1  0  0  0  0
 10  8  1  1  0  0  0
M  END
>  <CHROM.1>
11.65876842,-2.74984344,7.25111624,-2.26830157,-1.10897728,1.70928176

>  <Name>
ligand

>  <RI>
0

>  <Rbt.Current_Directory>
/home/itssahil/PROJECTS/Mol_Feturizer/Test_systems_manuscript/rnas/2xnw

>  <Rbt.Executable>
rbdock ($Id: //depot/dev/client3/rdock/2013.1/src/exe/rbdock.cxx#4 $)

>  <Rbt.Library>
libRbt.so (2013.1, Build901 2013/11/27)

>  <Rbt.Parameter_File>
/export/apps/rDock/src/rDock_2013.1_src/data/scripts/dock_solv.prm

>  <Rbt.Receptor>
prm/pocket_docking_5.prm

>  <SCORE>
-6.18333

>  <SCORE.INTER>
-6.18333

>  <SCORE.INTER.CONST>
1

>  <SCORE.INTER.POLAR>
0

>  <SCORE.INTER.ROT>
0

>  <SCORE.INTER.SOLV>
20.5289

>  <SCORE.INTER.VDW>
-14.5652

>  <SCORE.INTER.norm>
-0.618333

>  <SCORE.INTRA>
0

>  <SCORE.INTRA.DIHEDRAL>
0

>  <SCORE.INTRA.DIHEDRAL.0>
0

>  <SCORE.INTRA.POLAR>
0

>  <SCORE.INTRA.POLAR.0>
0

>  <SCORE.INTRA.REPUL>
0

>  <SCORE.INTRA.REPUL.0>
0

>  <SCORE.INTRA.SOLV>
0

>  <SCORE.INTRA.SOLV.lig_0>
-47.9788

>  <SCORE.INTRA.VDW>
0

>  <SCORE.INTRA.VDW.0>
0

>  <SCORE.INTRA.norm>
0

>  <SCORE.RESTR>
0

>  <SCORE.RESTR.CAVITY>
0

>  <SCORE.RESTR.norm>
0

>  <SCORE.SYSTEM>
0

>  <SCORE.SYSTEM.CONST>
0

>  <SCORE.SYSTEM.DIHEDRAL>
0

>  <SCORE.SYSTEM.SOLV>
0

>  <SCORE.SYSTEM.norm>
0

>  <SCORE.heavy>
10

>  <SCORE.norm>
-0.618333

>  <RMSD>
3.587

$$$$
ligand
 OpenBabel02271912133D
libRbt.so/2013.1/901 2013/11/27
 10 11  0  0  0  0  0  0  0  0999 V2000
   11.1904   -1.6159    5.8877 C   0  0  1  0  0  0  0  0  0  0  0  0
   12.2964   -4.1080    7.9421 C   0  0  2  0  0  0  0  0  0  0  0  0
   11.3372   -2.2306    7.8930 C   0  0  2  0  0  0  0  0  0  0  0  0
   10.9112   -0.9125    4.7844 N   0  0  0  0  0  0  0  0  0  0  0  0
   12.8887   -5.2476    7.5989 N   0  0  0  0  0  0  0  0  0  0  0  0
   12.0254   -3.7484    9.1911 N   0  0  0  0  0  0  0  0  0  0  0  0
   10.8950   -1.2326    7.1248 N   0  0  0  0  0  0  0  0  0  0  0  0
   11.7913   -2.8197    5.9154 N   0  0  0  0  0  0  0  0  0  0  0  0
   11.4670   -2.6425    9.1635 N   0  0  0  0  0  0  0  0  0  0  0  0
   11.8695   -3.1711    7.1034 N   0  0  1  0  0  0  0  0  0  0  0  0
  1  4  1  6  0  0  0
  1  8  1  0  0  0  0
  1  7  1  0  0  0  0
  2  5  1  6  0  0  0
  2  6  1  0  0  0  0
  2 10  1  0  0  0  0
  3  7  1  1  0  0  0
  3 10  1  0  0  0  0
  3  9  1  0  0  0  0
  6  9  1  0  0  0  0
 10  8  1  1  0  0  0
M  END
>  <CHROM.1>
11.66985477,-2.77833200,7.26130920,-2.26957414,-1.09921003,1.71403899

>  <Name>
ligand

>  <RI>
0

>  <Rbt.Current_Directory>
/home/itssahil/PROJECTS/Mol_Feturizer/Test_systems_manuscript/rnas/2xnw

>  <Rbt.Executable>
rbdock ($Id: //depot/dev/client3/rdock/2013.1/src/exe/rbdock.cxx#4 $)

>  <Rbt.Library>
libRbt.so (2013.1, Build901 2013/11/27)

>  <Rbt.Parameter_File>
/export/apps/rDock/src/rDock_2013.1_src/data/scripts/dock_solv.prm

>  <Rbt.Receptor>
prm/blind_docking_20.prm

>  <SCORE>
-6.16643

>  <SCORE.INTER>
-6.16643

>  <SCORE.INTER.CONST>
1

>  <SCORE.INTER.POLAR>
0

>  <SCORE.INTER.ROT>
0

>  <SCORE.INTER.SOLV>
20.3316

>  <SCORE.INTER.VDW>
-14.4881

>  <SCORE.INTER.norm>
-0.616643

>  <SCORE.INTRA>
0

>  <SCORE.INTRA.DIHEDRAL>
0

>  <SCORE.INTRA.DIHEDRAL.0>
0

>  <SCORE.INTRA.POLAR>
0

>  <SCORE.INTRA.POLAR.0>
0

>  <SCORE.INTRA.REPUL>
0

>  <SCORE.INTRA.REPUL.0>
0

>  <SCORE.INTRA.SOLV>
0

>  <SCORE.INTRA.SOLV.lig_0>
-47.9788

>  <SCORE.INTRA.VDW>
0

>  <SCORE.INTRA.VDW.0>
0

>  <SCORE.INTRA.norm>
0

>  <SCORE.RESTR>
0

>  <SCORE.RESTR.CAVITY>
0

>  <SCORE.RESTR.norm>
0

>  <SCORE.SYSTEM>
0

>  <SCORE.SYSTEM.CONST>
0

>  <SCORE.SYSTEM.DIHEDRAL>
0

>  <SCORE.SYSTEM.SOLV>
0

>  <SCORE.SYSTEM.norm>
0

>  <SCORE.heavy>
10

>  <SCORE.norm>
-0.616643

>  <RMSD>
3.588

$$$$
ligand
 OpenBabel02271912133D
libRbt.so/2013.1/901 2013/11/27
 10 11  0  0  0  0  0  0  0  0999 V2000
   11.1857   -1.6172    5.8864 C   0  0  1  0  0  0  0  0  0  0  0  0
   12.2973   -4.1063    7.9414 C   0  0  2  0  0  0  0  0  0  0  0  0
   11.3340   -2.2310    7.8918 C   0  0  2  0  0  0  0  0  0  0  0  0
   10.9050   -0.9147    4.7829 N   0  0  0  0  0  0  0  0  0  0  0  0
   12.8919   -5.2447    7.5984 N   0  0  0  0  0  0  0  0  0  0  0  0
   12.0256   -3.7470    9.1904 N   0  0  0  0  0  0  0  0  0  0  0  0
   10.8897   -1.2342    7.1235 N   0  0  0  0  0  0  0  0  0  0  0  0
   11.7892   -2.8197    5.9144 N   0  0  0  0  0  0  0  0  0  0  0  0
   11.4649   -2.6422    9.1625 N   0  0  0  0  0  0  0  0  0  0  0  0
   11.8683   -3.1706    7.1024 N   0  0  1  0  0  0  0  0  0  0  0  0
  1  4  1  6  0  0  0
  1  8  1  0  0  0  0
  1  7  1  0  0  0  0
  2  5  1  6  0  0  0
  2  6  1  0  0  0  0
  2 10  1  0  0  0  0
  3  7  1  1  0  0  0
  3 10  1  0  0  0  0
  3  9  1  0  0  0  0
  6  9  1  0  0  0  0
 10  8  1  1  0  0  0
M  END
>  <CHROM.1>
11.66781051,-2.77817131,7.26028637,-2.27046137,-1.09712275,1.71296831

>  <Name>
ligand

>  <RI>
0

>  <Rbt.Current_Directory>
/home/itssahil/PROJECTS/Mol_Feturizer/Test_systems_manuscript/rnas/2xnw

>  <Rbt.Executable>
rbdock ($Id: //depot/dev/client3/rdock/2013.1/src/exe/rbdock.cxx#4 $)

>  <Rbt.Library>
libRbt.so (2013.1, Build901 2013/11/27)

>  <Rbt.Parameter_File>
/export/apps/rDock/src/rDock_2013.1_src/data/scripts/dock_solv.prm

>  <Rbt.Receptor>
prm/pocket_docking_3.prm

>  <SCORE>
-6.16547

>  <SCORE.INTER>
-6.16547

>  <SCORE.INTER.CONST>
1

>  <SCORE.INTER.POLAR>
0

>  <SCORE.INTER.ROT>
0

>  <SCORE.INTER.SOLV>
20.3116

>  <SCORE.INTER.VDW>
-14.4809

>  <SCORE.INTER.norm>
-0.616547

>  <SCORE.INTRA>
0

>  <SCORE.INTRA.DIHEDRAL>
0

>  <SCORE.INTRA.DIHEDRAL.0>
0

>  <SCORE.INTRA.POLAR>
0

>  <SCORE.INTRA.POLAR.0>
0

>  <SCORE.INTRA.REPUL>
0

>  <SCORE.INTRA.REPUL.0>
0

>  <SCORE.INTRA.SOLV>
0

>  <SCORE.INTRA.SOLV.lig_0>
-47.9788

>  <SCORE.INTRA.VDW>
0

>  <SCORE.INTRA.VDW.0>
0

>  <SCORE.INTRA.norm>
0

>  <SCORE.RESTR>
0

>  <SCORE.RESTR.CAVITY>
0

>  <SCORE.RESTR.norm>
0

>  <SCORE.SYSTEM>
0

>  <SCORE.SYSTEM.CONST>
0

>  <SCORE.SYSTEM.DIHEDRAL>
0

>  <SCORE.SYSTEM.SOLV>
0

>  <SCORE.SYSTEM.norm>
0

>  <SCORE.heavy>
10

>  <SCORE.norm>
-0.616547

>  <RMSD>
3.588

$$$$
ligand
 OpenBabel02271912133D
libRbt.so/2013.1/901 2013/11/27
 10 11  0  0  0  0  0  0  0  0999 V2000
   11.1909   -1.5976    5.8787 C   0  0  1  0  0  0  0  0  0  0  0  0
   12.2635   -4.0674    7.9772 C   0  0  2  0  0  0  0  0  0  0  0  0
   11.3099   -2.1884    7.8929 C   0  0  2  0  0  0  0  0  0  0  0  0
   10.9279   -0.9069    4.7634 N   0  0  0  0  0  0  0  0  0  0  0  0
   12.8572   -5.2125    7.6555 N   0  0  0  0  0  0  0  0  0  0  0  0
   11.9772   -3.6921    9.2182 N   0  0  0  0  0  0  0  0  0  0  0  0
   10.8804   -1.1986    7.1071 N   0  0  0  0  0  0  0  0  0  0  0  0
   11.7882   -2.8024    5.9287 N   0  0  0  0  0  0  0  0  0  0  0  0
   11.4221   -2.5852    9.1699 N   0  0  0  0  0  0  0  0  0  0  0  0
   11.8500   -3.1397    7.1217 N   0  0  1  0  0  0  0  0  0  0  0  0
  1  4  1  6  0  0  0
  1  8  1  0  0  0  0
  1  7  1  0  0  0  0
  2  5  1  6  0  0  0
  2  6  1  0  0  0  0
  2 10  1  0  0  0  0
  3  7  1  1  0  0  0
  3 10  1  0  0  0  0
  3  9  1  0  0  0  0
  6  9  1  0  0  0  0
 10  8  1  1  0  0  0
M  END
>  <CHROM.1>
11.64934795,-2.74449269,7.27231267,-2.24032067,-1.09976976,1.72804601

>  <Name>
ligand

>  <RI>
0

>  <Rbt.Current_Directory>
/home/itssahil/PROJECTS/Mol_Feturizer/Test_systems_manuscript/rnas/2xnw

>  <Rbt.Executable>
rbdock ($Id: //depot/dev/client3/rdock/2013.1/src/exe/rbdock.cxx#4 $)

>  <Rbt.Library>
libRbt.so (2013.1, Build901 2013/11/27)

>  <Rbt.Parameter_File>
/export/apps/rDock/src/rDock_2013.1_src/data/scripts/dock_solv.prm

>  <Rbt.Receptor>
prm/pocket_docking_3.prm

>  <SCORE>
-6.17651

>  <SCORE.INTER>
-6.17651

>  <SCORE.INTER.CONST>
1

>  <SCORE.INTER.POLAR>
0

>  <SCORE.INTER.ROT>
0

>  <SCORE.INTER.SOLV>
20.5373

>  <SCORE.INTER.VDW>
-14.5635

>  <SCORE.INTER.norm>
-0.617651

>  <SCORE.INTRA>
0

>  <SCORE.INTRA.DIHEDRAL>
0

>  <SCORE.INTRA.DIHEDRAL.0>
0

>  <SCORE.INTRA.POLAR>
0

>  <SCORE.INTRA.POLAR.0>
0

>  <SCORE.INTRA.REPUL>
0

>  <SCORE.INTRA.REPUL.0>
0

>  <SCORE.INTRA.SOLV>
0

>  <SCORE.INTRA.SOLV.lig_0>
-47.9788

>  <SCORE.INTRA.VDW>
0

>  <SCORE.INTRA.VDW.0>
0

>  <SCORE.INTRA.norm>
0

>  <SCORE.RESTR>
0

>  <SCORE.RESTR.CAVITY>
0

>  <SCORE.RESTR.norm>
0

>  <SCORE.SYSTEM>
0

>  <SCORE.SYSTEM.CONST>
0

>  <SCORE.SYSTEM.DIHEDRAL>
0

>  <SCORE.SYSTEM.SOLV>
0

>  <SCORE.SYSTEM.norm>
0

>  <SCORE.heavy>
10

>  <SCORE.norm>
-0.617651

>  <RMSD>
3.591

$$$$
ligand
 OpenBabel02271912133D
libRbt.so/2013.1/901 2013/11/27
 10 11  0  0  0  0  0  0  0  0999 V2000
   11.2058   -1.6306    5.8633 C   0  0  1  0  0  0  0  0  0  0  0  0
   12.2775   -4.1575    7.8932 C   0  0  2  0  0  0  0  0  0  0  0  0
   11.3813   -2.2488    7.8652 C   0  0  2  0  0  0  0  0  0  0  0  0
   10.9233   -0.9187    4.7663 N   0  0  0  0  0  0  0  0  0  0  0  0
   12.8223   -5.3166    7.5370 N   0  0  0  0  0  0  0  0  0  0  0  0
   12.0498   -3.7883    9.1481 N   0  0  0  0  0  0  0  0  0  0  0  0
   10.9542   -1.2368    7.1068 N   0  0  0  0  0  0  0  0  0  0  0  0
   11.7662   -2.8540    5.8778 N   0  0  0  0  0  0  0  0  0  0  0  0
   11.5285   -2.6641    9.1327 N   0  0  0  0  0  0  0  0  0  0  0  0
   11.8619   -3.2072    7.0640 N   0  0  1  0  0  0  0  0  0  0  0  0
  1  4  1  6  0  0  0
  1  8  1  0  0  0  0
  1  7  1  0  0  0  0
  2  5  1  6  0  0  0
  2  6  1  0  0  0  0
  2 10  1  0  0  0  0
  3  7  1  1  0  0  0
  3 10  1  0  0  0  0
  3  9  1  0  0  0  0
  6  9  1  0  0  0  0
 10  8  1  1  0  0  0
M  END
>  <CHROM.1>
11.67956288,-2.80774536,7.22625715,-2.31624845,-1.13577381,1.67110519

>  <Name>
ligand

>  <RI>
0

>  <Rbt.Current_Directory>
/home/itssahil/PROJECTS/Mol_Feturizer/Test_systems_manuscript/rnas/2xnw

>  <Rbt.Executable>
rbdock ($Id: //depot/dev/client3/rdock/2013.1/src/exe/rbdock.cxx#4 $)

>  <Rbt.Library>
libRbt.so (2013.1, Build901 2013/11/27)

>  <Rbt.Parameter_File>
/export/apps/rDock/src/rDock_2013.1_src/data/scripts/dock_solv.prm

>  <Rbt.Receptor>
prm/pocket_docking_7.prm

>  <SCORE>
-6.18642

>  <SCORE.INTER>
-6.18642

>  <SCORE.INTER.CONST>
1

>  <SCORE.INTER.POLAR>
0

>  <SCORE.INTER.ROT>
0

>  <SCORE.INTER.SOLV>
20.5906

>  <SCORE.INTER.VDW>
-14.5878

>  <SCORE.INTER.norm>
-0.618642

>  <SCORE.INTRA>
0

>  <SCORE.INTRA.DIHEDRAL>
0

>  <SCORE.INTRA.DIHEDRAL.0>
0

>  <SCORE.INTRA.POLAR>
0

>  <SCORE.INTRA.POLAR.0>
0

>  <SCORE.INTRA.REPUL>
0

>  <SCORE.INTRA.REPUL.0>
0

>  <SCORE.INTRA.SOLV>
0

>  <SCORE.INTRA.SOLV.lig_0>
-47.9788

>  <SCORE.INTRA.VDW>
0

>  <SCORE.INTRA.VDW.0>
0

>  <SCORE.INTRA.norm>
0

>  <SCORE.RESTR>
0

>  <SCORE.RESTR.CAVITY>
0

>  <SCORE.RESTR.norm>
0

>  <SCORE.SYSTEM>
0

>  <SCORE.SYSTEM.CONST>
0

>  <SCORE.SYSTEM.DIHEDRAL>
0

>  <SCORE.SYSTEM.SOLV>
0

>  <SCORE.SYSTEM.norm>
0

>  <SCORE.heavy>
10

>  <SCORE.norm>
-0.618642

>  <RMSD>
3.594

$$$$
ligand
 OpenBabel02271912133D
libRbt.so/2013.1/901 2013/11/27
 10 11  0  0  0  0  0  0  0  0999 V2000
   11.2053   -1.6347    5.8594 C   0  0  1  0  0  0  0  0  0  0  0  0
   12.2776   -4.1614    7.8894 C   0  0  2  0  0  0  0  0  0  0  0  0
   11.3946   -2.2465    7.8620 C   0  0  2  0  0  0  0  0  0  0  0  0
   10.9180   -0.9251    4.7622 N   0  0  0  0  0  0  0  0  0  0  0  0
   12.8110   -5.3256    7.5327 N   0  0  0  0  0  0  0  0  0  0  0  0
   12.0639   -3.7858    9.1447 N   0  0  0  0  0  0  0  0  0  0  0  0
   10.9678   -1.2345    7.1036 N   0  0  0  0  0  0  0  0  0  0  0  0
   11.7573   -2.8620    5.8736 N   0  0  0  0  0  0  0  0  0  0  0  0
   11.5504   -2.6580    9.1297 N   0  0  0  0  0  0  0  0  0  0  0  0
   11.8612   -3.2113    7.0602 N   0  0  1  0  0  0  0  0  0  0  0  0
  1  4  1  6  0  0  0
  1  8  1  0  0  0  0
  1  7  1  0  0  0  0
  2  5  1  6  0  0  0
  2  6  1  0  0  0  0
  2 10  1  0  0  0  0
  3  7  1  1  0  0  0
  3 10  1  0  0  0  0
  3  9  1  0  0  0  0
  6  9  1  0  0  0  0
 10  8  1  1  0  0  0
M  END
>  <CHROM.1>
11.68316212,-2.80999421,7.22257080,-2.33626240,-1.14357329,1.64908412

>  <Name>
ligand

>  <RI>
0

>  <Rbt.Current_Directory>
/home/itssahil/PROJECTS/Mol_Feturizer/Test_systems_manuscript/rnas/2xnw

>  <Rbt.Executable>
rbdock ($Id: //depot/dev/client3/rdock/2013.1/src/exe/rbdock.cxx#4 $)

>  <Rbt.Library>
libRbt.so (2013.1, Build901 2013/11/27)

>  <Rbt.Parameter_File>
/export/apps/rDock/src/rDock_2013.1_src/data/scripts/dock_solv.prm

>  <Rbt.Receptor>
prm/pocket_docking_7.prm

>  <SCORE>
-6.18187

>  <SCORE.INTER>
-6.18187

>  <SCORE.INTER.CONST>
1

>  <SCORE.INTER.POLAR>
0

>  <SCORE.INTER.ROT>
0

>  <SCORE.INTER.SOLV>
20.6081

>  <SCORE.INTER.VDW>
-14.5906

>  <SCORE.INTER.norm>
-0.618187

>  <SCORE.INTRA>
0

>  <SCORE.INTRA.DIHEDRAL>
0

>  <SCORE.INTRA.DIHEDRAL.0>
0

>  <SCORE.INTRA.POLAR>
0

>  <SCORE.INTRA.POLAR.0>
0

>  <SCORE.INTRA.REPUL>
0

>  <SCORE.INTRA.REPUL.0>
0

>  <SCORE.INTRA.SOLV>
0

>  <SCORE.INTRA.SOLV.lig_0>
-47.9788

>  <SCORE.INTRA.VDW>
0

>  <SCORE.INTRA.VDW.0>
0

>  <SCORE.INTRA.norm>
0

>  <SCORE.RESTR>
0

>  <SCORE.RESTR.CAVITY>
0

>  <SCORE.RESTR.norm>
0

>  <SCORE.SYSTEM>
0

>  <SCORE.SYSTEM.CONST>
0

>  <SCORE.SYSTEM.DIHEDRAL>
0

>  <SCORE.SYSTEM.SOLV>
0

>  <SCORE.SYSTEM.norm>
0

>  <SCORE.heavy>
10

>  <SCORE.norm>
-0.618187

>  <RMSD>
3.595

$$$$
ligand
 OpenBabel02271912133D
libRbt.so/2013.1/901 2013/11/27
 10 11  0  0  0  0  0  0  0  0999 V2000
   11.2187   -1.6262    5.8539 C   0  0  1  0  0  0  0  0  0  0  0  0
   12.3176   -4.0909    7.9448 C   0  0  2  0  0  0  0  0  0  0  0  0
   11.3425   -2.2228    7.8661 C   0  0  2  0  0  0  0  0  0  0  0  0
   10.9490   -0.9346    4.7408 N   0  0  0  0  0  0  0  0  0  0  0  0
   12.9249   -5.2279    7.6197 N   0  0  0  0  0  0  0  0  0  0  0  0
   12.0257   -3.7234    9.1868 N   0  0  0  0  0  0  0  0  0  0  0  0
   10.9024   -1.2353    7.0834 N   0  0  0  0  0  0  0  0  0  0  0  0
   11.8299   -2.8243    5.9003 N   0  0  0  0  0  0  0  0  0  0  0  0
   11.4579   -2.6228    9.1418 N   0  0  0  0  0  0  0  0  0  0  0  0
   11.8944   -3.1650    7.0922 N   0  0  1  0  0  0  0  0  0  0  0  0
  1  4  1  6  0  0  0
  1  8  1  0  0  0  0
  1  7  1  0  0  0  0
  2  5  1  6  0  0  0
  2  6  1  0  0  0  0
  2 10  1  0  0  0  0
  3  7  1  1  0  0  0
  3 10  1  0  0  0  0
  3  9  1  0  0  0  0
  6  9  1  0  0  0  0
 10  8  1  1  0  0  0
M  END
>  <CHROM.1>
11.68898605,-2.77270294,7.24393737,-2.24199089,-1.08820022,1.73011003

>  <Name>
ligand

>  <RI>
0

>  <Rbt.Current_Directory>
/home/itssahil/PROJECTS/Mol_Feturizer/Test_systems_manuscript/rnas/2xnw

>  <Rbt.Executable>
rbdock ($Id: //depot/dev/client3/rdock/2013.1/src/exe/rbdock.cxx#4 $)

>  <Rbt.Library>
libRbt.so (2013.1, Build901 2013/11/27)

>  <Rbt.Parameter_File>
/export/apps/rDock/src/rDock_2013.1_src/data/scripts/dock_solv.prm

>  <Rbt.Receptor>
prm/pocket_docking_4.prm

>  <SCORE>
-6.17945

>  <SCORE.INTER>
-6.17945

>  <SCORE.INTER.CONST>
1

>  <SCORE.INTER.POLAR>
0

>  <SCORE.INTER.ROT>
0

>  <SCORE.INTER.SOLV>
20.373

>  <SCORE.INTER.VDW>
-14.5106

>  <SCORE.INTER.norm>
-0.617945

>  <SCORE.INTRA>
0

>  <SCORE.INTRA.DIHEDRAL>
0

>  <SCORE.INTRA.DIHEDRAL.0>
0

>  <SCORE.INTRA.POLAR>
0

>  <SCORE.INTRA.POLAR.0>
0

>  <SCORE.INTRA.REPUL>
0

>  <SCORE.INTRA.REPUL.0>
0

>  <SCORE.INTRA.SOLV>
0

>  <SCORE.INTRA.SOLV.lig_0>
-47.9788

>  <SCORE.INTRA.VDW>
0

>  <SCORE.INTRA.VDW.0>
0

>  <SCORE.INTRA.norm>
0

>  <SCORE.RESTR>
0

>  <SCORE.RESTR.CAVITY>
0

>  <SCORE.RESTR.norm>
0

>  <SCORE.SYSTEM>
0

>  <SCORE.SYSTEM.CONST>
0

>  <SCORE.SYSTEM.DIHEDRAL>
0

>  <SCORE.SYSTEM.SOLV>
0

>  <SCORE.SYSTEM.norm>
0

>  <SCORE.heavy>
10

>  <SCORE.norm>
-0.617945

>  <RMSD>
3.601

$$$$
ligand
 OpenBabel02271912133D
libRbt.so/2013.1/901 2013/11/27
 10 11  0  0  0  0  0  0  0  0999 V2000
   11.2141   -1.6167    5.8540 C   0  0  1  0  0  0  0  0  0  0  0  0
   12.2845   -4.0768    7.9650 C   0  0  2  0  0  0  0  0  0  0  0  0
   11.3326   -2.1974    7.8712 C   0  0  2  0  0  0  0  0  0  0  0  0
   10.9519   -0.9314    4.7352 N   0  0  0  0  0  0  0  0  0  0  0  0
   12.8771   -5.2241    7.6491 N   0  0  0  0  0  0  0  0  0  0  0  0
   11.9985   -3.6950    9.2040 N   0  0  0  0  0  0  0  0  0  0  0  0
   10.9040   -1.2112    7.0804 N   0  0  0  0  0  0  0  0  0  0  0  0
   11.8104   -2.8218    5.9101 N   0  0  0  0  0  0  0  0  0  0  0  0
   11.4444   -2.5878    9.1502 N   0  0  0  0  0  0  0  0  0  0  0  0
   11.8719   -3.1531    7.1048 N   0  0  1  0  0  0  0  0  0  0  0  0
  1  4  1  6  0  0  0
  1  8  1  0  0  0  0
  1  7  1  0  0  0  0
  2  5  1  6  0  0  0
  2  6  1  0  0  0  0
  2 10  1  0  0  0  0
  3  7  1  1  0  0  0
  3 10  1  0  0  0  0
  3  9  1  0  0  0  0
  6  9  1  0  0  0  0
 10  8  1  1  0  0  0
M  END
>  <CHROM.1>
11.67156904,-2.75693529,7.25338372,-2.23999247,-1.10068493,1.72326843

>  <Name>
ligand

>  <RI>
0

>  <Rbt.Current_Directory>
/home/itssahil/PROJECTS/Mol_Feturizer/Test_systems_manuscript/rnas/2xnw

>  <Rbt.Executable>
rbdock ($Id: //depot/dev/client3/rdock/2013.1/src/exe/rbdock.cxx#4 $)

>  <Rbt.Library>
libRbt.so (2013.1, Build901 2013/11/27)

>  <Rbt.Parameter_File>
/export/apps/rDock/src/rDock_2013.1_src/data/scripts/dock_solv.prm

>  <Rbt.Receptor>
prm/pocket_docking_4.prm

>  <SCORE>
-6.1709

>  <SCORE.INTER>
-6.1709

>  <SCORE.INTER.CONST>
1

>  <SCORE.INTER.POLAR>
0

>  <SCORE.INTER.ROT>
0

>  <SCORE.INTER.SOLV>
20.547

>  <SCORE.INTER.VDW>
-14.5629

>  <SCORE.INTER.norm>
-0.61709

>  <SCORE.INTRA>
0

>  <SCORE.INTRA.DIHEDRAL>
0

>  <SCORE.INTRA.DIHEDRAL.0>
0

>  <SCORE.INTRA.POLAR>
0

>  <SCORE.INTRA.POLAR.0>
0

>  <SCORE.INTRA.REPUL>
0

>  <SCORE.INTRA.REPUL.0>
0

>  <SCORE.INTRA.SOLV>
0

>  <SCORE.INTRA.SOLV.lig_0>
-47.9788

>  <SCORE.INTRA.VDW>
0

>  <SCORE.INTRA.VDW.0>
0

>  <SCORE.INTRA.norm>
0

>  <SCORE.RESTR>
0

>  <SCORE.RESTR.CAVITY>
0

>  <SCORE.RESTR.norm>
0

>  <SCORE.SYSTEM>
0

>  <SCORE.SYSTEM.CONST>
0

>  <SCORE.SYSTEM.DIHEDRAL>
0

>  <SCORE.SYSTEM.SOLV>
0

>  <SCORE.SYSTEM.norm>
0

>  <SCORE.heavy>
10

>  <SCORE.norm>
-0.61709

>  <RMSD>
3.602

$$$$
ligand
 OpenBabel02271912133D
libRbt.so/2013.1/901 2013/11/27
 10 11  0  0  0  0  0  0  0  0999 V2000
   11.2071   -1.6456    5.8621 C   0  0  1  0  0  0  0  0  0  0  0  0
   12.2909   -4.1240    7.9448 C   0  0  2  0  0  0  0  0  0  0  0  0
   11.3475   -2.2393    7.8741 C   0  0  2  0  0  0  0  0  0  0  0  0
   10.9345   -0.9521    4.7509 N   0  0  0  0  0  0  0  0  0  0  0  0
   12.8738   -5.2722    7.6145 N   0  0  0  0  0  0  0  0  0  0  0  0
   12.0222   -3.7483    9.1895 N   0  0  0  0  0  0  0  0  0  0  0  0
   10.9142   -1.2462    7.0947 N   0  0  0  0  0  0  0  0  0  0  0  0
   11.7979   -2.8540    5.9035 N   0  0  0  0  0  0  0  0  0  0  0  0
   11.4731   -2.6381    9.1493 N   0  0  0  0  0  0  0  0  0  0  0  0
   11.8724   -3.1929    7.0954 N   0  0  1  0  0  0  0  0  0  0  0  0
  1  4  1  6  0  0  0
  1  8  1  0  0  0  0
  1  7  1  0  0  0  0
  2  5  1  6  0  0  0
  2  6  1  0  0  0  0
  2 10  1  0  0  0  0
  3  7  1  1  0  0  0
  3 10  1  0  0  0  0
  3  9  1  0  0  0  0
  6  9  1  0  0  0  0
 10  8  1  1  0  0  0
M  END
>  <CHROM.1>
11.67596180,-2.79670189,7.24882293,-2.26560141,-1.10744105,1.70651700

>  <Name>
ligand

>  <RI>
0

>  <Rbt.Current_Directory>
/home/itssahil/PROJECTS/Mol_Feturizer/Test_systems_manuscript/rnas/2xnw

>  <Rbt.Executable>
rbdock ($Id: //depot/dev/client3/rdock/2013.1/src/exe/rbdock.cxx#4 $)

>  <Rbt.Library>
libRbt.so (2013.1, Build901 2013/11/27)

>  <Rbt.Parameter_File>
/export/apps/rDock/src/rDock_2013.1_src/data/scripts/dock_solv.prm

>  <Rbt.Receptor>
prm/pocket_docking_8.prm

>  <SCORE>
-6.17664

>  <SCORE.INTER>
-6.17664

>  <SCORE.INTER.CONST>
1

>  <SCORE.INTER.POLAR>
0

>  <SCORE.INTER.ROT>
0

>  <SCORE.INTER.SOLV>
20.4657

>  <SCORE.INTER.VDW>
-14.5397

>  <SCORE.INTER.norm>
-0.617664

>  <SCORE.INTRA>
0

>  <SCORE.INTRA.DIHEDRAL>
0

>  <SCORE.INTRA.DIHEDRAL.0>
0

>  <SCORE.INTRA.POLAR>
0

>  <SCORE.INTRA.POLAR.0>
0

>  <SCORE.INTRA.REPUL>
0

>  <SCORE.INTRA.REPUL.0>
0

>  <SCORE.INTRA.SOLV>
0

>  <SCORE.INTRA.SOLV.lig_0>
-47.9788

>  <SCORE.INTRA.VDW>
0

>  <SCORE.INTRA.VDW.0>
0

>  <SCORE.INTRA.norm>
0

>  <SCORE.RESTR>
0

>  <SCORE.RESTR.CAVITY>
0

>  <SCORE.RESTR.norm>
0

>  <SCORE.SYSTEM>
0

>  <SCORE.SYSTEM.CONST>
0

>  <SCORE.SYSTEM.DIHEDRAL>
0

>  <SCORE.SYSTEM.SOLV>
0

>  <SCORE.SYSTEM.norm>
0

>  <SCORE.heavy>
10

>  <SCORE.norm>
-0.617664

>  <RMSD>
3.604

$$$$
ligand
 OpenBabel02271912133D
libRbt.so/2013.1/901 2013/11/27
 10 11  0  0  0  0  0  0  0  0999 V2000
   11.2123   -1.6426    5.8395 C   0  0  1  0  0  0  0  0  0  0  0  0
   12.2900   -4.1068    7.9421 C   0  0  2  0  0  0  0  0  0  0  0  0
   11.3398   -2.2262    7.8553 C   0  0  2  0  0  0  0  0  0  0  0  0
   10.9454   -0.9555    4.7230 N   0  0  0  0  0  0  0  0  0  0  0  0
   12.8798   -5.2543    7.6217 N   0  0  0  0  0  0  0  0  0  0  0  0
   12.0104   -3.7263    9.1829 N   0  0  0  0  0  0  0  0  0  0  0  0
   10.9085   -1.2385    7.0679 N   0  0  0  0  0  0  0  0  0  0  0  0
   11.8074   -2.8485    5.8911 N   0  0  0  0  0  0  0  0  0  0  0  0
   11.4573   -2.6185    9.1332 N   0  0  0  0  0  0  0  0  0  0  0  0
   11.8743   -3.1814    7.0851 N   0  0  1  0  0  0  0  0  0  0  0  0
  1  4  1  6  0  0  0
  1  8  1  0  0  0  0
  1  7  1  0  0  0  0
  2  5  1  6  0  0  0
  2  6  1  0  0  0  0
  2 10  1  0  0  0  0
  3  7  1  1  0  0  0
  3 10  1  0  0  0  0
  3  9  1  0  0  0  0
  6  9  1  0  0  0  0
 10  8  1  1  0  0  0
M  END
>  <CHROM.1>
11.67512746,-2.78527932,7.23517586,-2.25013259,-1.10252317,1.71558368

>  <Name>
ligand

>  <RI>
0

>  <Rbt.Current_Directory>
/home/itssahil/PROJECTS/Mol_Feturizer/Test_systems_manuscript/rnas/2xnw

>  <Rbt.Executable>
rbdock ($Id: //depot/dev/client3/rdock/2013.1/src/exe/rbdock.cxx#4 $)

>  <Rbt.Library>
libRbt.so (2013.1, Build901 2013/11/27)

>  <Rbt.Parameter_File>
/export/apps/rDock/src/rDock_2013.1_src/data/scripts/dock_solv.prm

>  <Rbt.Receptor>
prm/blind_docking_20.prm

>  <SCORE>
-6.19018

>  <SCORE.INTER>
-6.19018

>  <SCORE.INTER.CONST>
1

>  <SCORE.INTER.POLAR>
0

>  <SCORE.INTER.ROT>
0

>  <SCORE.INTER.SOLV>
20.5419

>  <SCORE.INTER.VDW>
-14.5741

>  <SCORE.INTER.norm>
-0.619018

>  <SCORE.INTRA>
0

>  <SCORE.INTRA.DIHEDRAL>
0

>  <SCORE.INTRA.DIHEDRAL.0>
0

>  <SCORE.INTRA.POLAR>
0

>  <SCORE.INTRA.POLAR.0>
0

>  <SCORE.INTRA.REPUL>
0

>  <SCORE.INTRA.REPUL.0>
0

>  <SCORE.INTRA.SOLV>
0

>  <SCORE.INTRA.SOLV.lig_0>
-47.9788

>  <SCORE.INTRA.VDW>
0

>  <SCORE.INTRA.VDW.0>
0

>  <SCORE.INTRA.norm>
0

>  <SCORE.RESTR>
0

>  <SCORE.RESTR.CAVITY>
0

>  <SCORE.RESTR.norm>
0

>  <SCORE.SYSTEM>
0

>  <SCORE.SYSTEM.CONST>
0

>  <SCORE.SYSTEM.DIHEDRAL>
0

>  <SCORE.SYSTEM.SOLV>
0

>  <SCORE.SYSTEM.norm>
0

>  <SCORE.heavy>
10

>  <SCORE.norm>
-0.619018

>  <RMSD>
3.610

$$$$
ligand
 OpenBabel02271912133D
libRbt.so/2013.1/901 2013/11/27
 10 11  0  0  0  0  0  0  0  0999 V2000
   11.2176   -1.6405    5.8382 C   0  0  1  0  0  0  0  0  0  0  0  0
   12.3238   -4.0841    7.9499 C   0  0  2  0  0  0  0  0  0  0  0  0
   11.3511   -2.2154    7.8561 C   0  0  2  0  0  0  0  0  0  0  0  0
   10.9430   -0.9606    4.7191 N   0  0  0  0  0  0  0  0  0  0  0  0
   12.9276   -5.2255    7.6338 N   0  0  0  0  0  0  0  0  0  0  0  0
   12.0391   -3.7027    9.1893 N   0  0  0  0  0  0  0  0  0  0  0  0
   10.9084   -1.2357    7.0650 N   0  0  0  0  0  0  0  0  0  0  0  0
   11.8272   -2.8389    5.8943 N   0  0  0  0  0  0  0  0  0  0  0  0
   11.4728   -2.6017    9.1354 N   0  0  0  0  0  0  0  0  0  0  0  0
   11.8974   -3.1668    7.0895 N   0  0  1  0  0  0  0  0  0  0  0  0
  1  4  1  6  0  0  0
  1  8  1  0  0  0  0
  1  7  1  0  0  0  0
  2  5  1  6  0  0  0
  2  6  1  0  0  0  0
  2 10  1  0  0  0  0
  3  7  1  1  0  0  0
  3 10  1  0  0  0  0
  3  9  1  0  0  0  0
  6  9  1  0  0  0  0
 10  8  1  1  0  0  0
M  END
>  <CHROM.1>
11.69347646,-2.77257817,7.23805927,-2.25288651,-1.09053750,1.70960419

>  <Name>
ligand

>  <RI>
0

>  <Rbt.Current_Directory>
/home/itssahil/PROJECTS/Mol_Feturizer/Test_systems_manuscript/rnas/2xnw

>  <Rbt.Executable>
rbdock ($Id: //depot/dev/client3/rdock/2013.1/src/exe/rbdock.cxx#4 $)

>  <Rbt.Library>
libRbt.so (2013.1, Build901 2013/11/27)

>  <Rbt.Parameter_File>
/export/apps/rDock/src/rDock_2013.1_src/data/scripts/dock_solv.prm

>  <Rbt.Receptor>
prm/blind_docking_80.prm

>  <SCORE>
-6.21739

>  <SCORE.INTER>
-6.21739

>  <SCORE.INTER.CONST>
1

>  <SCORE.INTER.POLAR>
0

>  <SCORE.INTER.ROT>
0

>  <SCORE.INTER.SOLV>
20.3698

>  <SCORE.INTER.VDW>
-14.5349

>  <SCORE.INTER.norm>
-0.621739

>  <SCORE.INTRA>
0

>  <SCORE.INTRA.DIHEDRAL>
0

>  <SCORE.INTRA.DIHEDRAL.0>
0

>  <SCORE.INTRA.POLAR>
0

>  <SCORE.INTRA.POLAR.0>
0

>  <SCORE.INTRA.REPUL>
0

>  <SCORE.INTRA.REPUL.0>
0

>  <SCORE.INTRA.SOLV>
0

>  <SCORE.INTRA.SOLV.lig_0>
-47.9788

>  <SCORE.INTRA.VDW>
0

>  <SCORE.INTRA.VDW.0>
0

>  <SCORE.INTRA.norm>
0

>  <SCORE.RESTR>
0

>  <SCORE.RESTR.CAVITY>
0

>  <SCORE.RESTR.norm>
0

>  <SCORE.SYSTEM>
0

>  <SCORE.SYSTEM.CONST>
0

>  <SCORE.SYSTEM.DIHEDRAL>
0

>  <SCORE.SYSTEM.SOLV>
0

>  <SCORE.SYSTEM.norm>
0

>  <SCORE.heavy>
10

>  <SCORE.norm>
-0.621739

>  <RMSD>
3.610

$$$$
ligand
 OpenBabel02271912133D
libRbt.so/2013.1/901 2013/11/27
 10 11  0  0  0  0  0  0  0  0999 V2000
   11.2110   -1.6583    5.8542 C   0  0  1  0  0  0  0  0  0  0  0  0
   12.2803   -4.1343    7.9472 C   0  0  2  0  0  0  0  0  0  0  0  0
   11.3591   -2.2389    7.8695 C   0  0  2  0  0  0  0  0  0  0  0  0
   10.9386   -0.9698    4.7398 N   0  0  0  0  0  0  0  0  0  0  0  0
   12.8469   -5.2918    7.6213 N   0  0  0  0  0  0  0  0  0  0  0  0
   12.0253   -3.7463    9.1911 N   0  0  0  0  0  0  0  0  0  0  0  0
   10.9320   -1.2464    7.0859 N   0  0  0  0  0  0  0  0  0  0  0  0
   11.7875   -2.8734    5.9002 N   0  0  0  0  0  0  0  0  0  0  0  0
   11.4892   -2.6298    9.1465 N   0  0  0  0  0  0  0  0  0  0  0  0
   11.8668   -3.2044    7.0940 N   0  0  1  0  0  0  0  0  0  0  0  0
  1  4  1  6  0  0  0
  1  8  1  0  0  0  0
  1  7  1  0  0  0  0
  2  5  1  6  0  0  0
  2  6  1  0  0  0  0
  2 10  1  0  0  0  0
  3  7  1  1  0  0  0
  3 10  1  0  0  0  0
  3  9  1  0  0  0  0
  6  9  1  0  0  0  0
 10  8  1  1  0  0  0
M  END
>  <CHROM.1>
11.67621572,-2.80480169,7.24592215,-2.27855504,-1.12028378,1.68752170

>  <Name>
ligand

>  <RI>
0

>  <Rbt.Current_Directory>
/home/itssahil/PROJECTS/Mol_Feturizer/Test_systems_manuscript/rnas/2xnw

>  <Rbt.Executable>
rbdock ($Id: //depot/dev/client3/rdock/2013.1/src/exe/rbdock.cxx#4 $)

>  <Rbt.Library>
libRbt.so (2013.1, Build901 2013/11/27)

>  <Rbt.Parameter_File>
/export/apps/rDock/src/rDock_2013.1_src/data/scripts/dock_solv.prm

>  <Rbt.Receptor>
prm/pocket_docking_3.prm

>  <SCORE>
-6.21119

>  <SCORE.INTER>
-6.21119

>  <SCORE.INTER.CONST>
1

>  <SCORE.INTER.POLAR>
0

>  <SCORE.INTER.ROT>
0

>  <SCORE.INTER.SOLV>
20.5569

>  <SCORE.INTER.VDW>
-14.5931

>  <SCORE.INTER.norm>
-0.621119

>  <SCORE.INTRA>
0

>  <SCORE.INTRA.DIHEDRAL>
0

>  <SCORE.INTRA.DIHEDRAL.0>
0

>  <SCORE.INTRA.POLAR>
0

>  <SCORE.INTRA.POLAR.0>
0

>  <SCORE.INTRA.REPUL>
0

>  <SCORE.INTRA.REPUL.0>
0

>  <SCORE.INTRA.SOLV>
0

>  <SCORE.INTRA.SOLV.lig_0>
-47.9788

>  <SCORE.INTRA.VDW>
0

>  <SCORE.INTRA.VDW.0>
0

>  <SCORE.INTRA.norm>
0

>  <SCORE.RESTR>
0

>  <SCORE.RESTR.CAVITY>
0

>  <SCORE.RESTR.norm>
0

>  <SCORE.SYSTEM>
0

>  <SCORE.SYSTEM.CONST>
0

>  <SCORE.SYSTEM.DIHEDRAL>
0

>  <SCORE.SYSTEM.SOLV>
0

>  <SCORE.SYSTEM.norm>
0

>  <SCORE.heavy>
10

>  <SCORE.norm>
-0.621119

>  <RMSD>
3.610

$$$$
ligand
 OpenBabel02271912133D
libRbt.so/2013.1/901 2013/11/27
 10 11  0  0  0  0  0  0  0  0999 V2000
   11.2073   -1.6426    5.8374 C   0  0  1  0  0  0  0  0  0  0  0  0
   12.2778   -4.1065    7.9440 C   0  0  2  0  0  0  0  0  0  0  0  0
   11.3415   -2.2190    7.8548 C   0  0  2  0  0  0  0  0  0  0  0  0
   10.9394   -0.9580    4.7196 N   0  0  0  0  0  0  0  0  0  0  0  0
   12.8570   -5.2598    7.6251 N   0  0  0  0  0  0  0  0  0  0  0  0
   12.0080   -3.7189    9.1848 N   0  0  0  0  0  0  0  0  0  0  0  0
   10.9135   -1.2312    7.0658 N   0  0  0  0  0  0  0  0  0  0  0  0
   11.7934   -2.8529    5.8906 N   0  0  0  0  0  0  0  0  0  0  0  0
   11.4632   -2.6070    9.1337 N   0  0  0  0  0  0  0  0  0  0  0  0
   11.8644   -3.1814    7.0856 N   0  0  1  0  0  0  0  0  0  0  0  0
  1  4  1  6  0  0  0
  1  8  1  0  0  0  0
  1  7  1  0  0  0  0
  2  5  1  6  0  0  0
  2  6  1  0  0  0  0
  2 10  1  0  0  0  0
  3  7  1  1  0  0  0
  3 10  1  0  0  0  0
  3  9  1  0  0  0  0
  6  9  1  0  0  0  0
 10  8  1  1  0  0  0
M  END
>  <CHROM.1>
11.66912003,-2.78318412,7.23512596,-2.26008758,-1.11088597,1.70261726

>  <Name>
ligand

>  <RI>
0

>  <Rbt.Current_Directory>
/home/itssahil/PROJECTS/Mol_Feturizer/Test_systems_manuscript/rnas/2xnw

>  <Rbt.Executable>
rbdock ($Id: //depot/dev/client3/rdock/2013.1/src/exe/rbdock.cxx#4 $)

>  <Rbt.Library>
libRbt.so (2013.1, Build901 2013/11/27)

>  <Rbt.Parameter_File>
/export/apps/rDock/src/rDock_2013.1_src/data/scripts/dock_solv.prm

>  <Rbt.Receptor>
prm/blind_docking_20.prm

>  <SCORE>
-6.19193

>  <SCORE.INTER>
-6.19193

>  <SCORE.INTER.CONST>
1

>  <SCORE.INTER.POLAR>
0

>  <SCORE.INTER.ROT>
0

>  <SCORE.INTER.SOLV>
20.6062

>  <SCORE.INTER.VDW>
-14.5967

>  <SCORE.INTER.norm>
-0.619193

>  <SCORE.INTRA>
0

>  <SCORE.INTRA.DIHEDRAL>
0

>  <SCORE.INTRA.DIHEDRAL.0>
0

>  <SCORE.INTRA.POLAR>
0

>  <SCORE.INTRA.POLAR.0>
0

>  <SCORE.INTRA.REPUL>
0

>  <SCORE.INTRA.REPUL.0>
0

>  <SCORE.INTRA.SOLV>
0

>  <SCORE.INTRA.SOLV.lig_0>
-47.9788

>  <SCORE.INTRA.VDW>
0

>  <SCORE.INTRA.VDW.0>
0

>  <SCORE.INTRA.norm>
0

>  <SCORE.RESTR>
0

>  <SCORE.RESTR.CAVITY>
0

>  <SCORE.RESTR.norm>
0

>  <SCORE.SYSTEM>
0

>  <SCORE.SYSTEM.CONST>
0

>  <SCORE.SYSTEM.DIHEDRAL>
0

>  <SCORE.SYSTEM.SOLV>
0

>  <SCORE.SYSTEM.norm>
0

>  <SCORE.heavy>
10

>  <SCORE.norm>
-0.619193

>  <RMSD>
3.611

$$$$
ligand
 OpenBabel02271912133D
libRbt.so/2013.1/901 2013/11/27
 10 11  0  0  0  0  0  0  0  0999 V2000
   11.2029   -1.6468    5.8394 C   0  0  1  0  0  0  0  0  0  0  0  0
   12.2813   -4.1095    7.9433 C   0  0  2  0  0  0  0  0  0  0  0  0
   11.3417   -2.2236    7.8564 C   0  0  2  0  0  0  0  0  0  0  0  0
   10.9319   -0.9623    4.7222 N   0  0  0  0  0  0  0  0  0  0  0  0
   12.8619   -5.2617    7.6230 N   0  0  0  0  0  0  0  0  0  0  0  0
   12.0130   -3.7227    9.1847 N   0  0  0  0  0  0  0  0  0  0  0  0
   10.9106   -1.2363    7.0684 N   0  0  0  0  0  0  0  0  0  0  0  0
   11.7912   -2.8560    5.8912 N   0  0  0  0  0  0  0  0  0  0  0  0
   11.4662   -2.6118    9.1349 N   0  0  0  0  0  0  0  0  0  0  0  0
   11.8648   -3.1849    7.0859 N   0  0  1  0  0  0  0  0  0  0  0  0
  1  4  1  6  0  0  0
  1  8  1  0  0  0  0
  1  7  1  0  0  0  0
  2  5  1  6  0  0  0
  2  6  1  0  0  0  0
  2 10  1  0  0  0  0
  3  7  1  1  0  0  0
  3 10  1  0  0  0  0
  3  9  1  0  0  0  0
  6  9  1  0  0  0  0
 10  8  1  1  0  0  0
M  END
>  <CHROM.1>
11.66914207,-2.78698144,7.23590930,-2.26448019,-1.10941537,1.69900147

>  <Name>
ligand

>  <RI>
0

>  <Rbt.Current_Directory>
/home/itssahil/PROJECTS/Mol_Feturizer/Test_systems_manuscript/rnas/2xnw

>  <Rbt.Executable>
rbdock ($Id: //depot/dev/client3/rdock/2013.1/src/exe/rbdock.cxx#4 $)

>  <Rbt.Library>
libRbt.so (2013.1, Build901 2013/11/27)

>  <Rbt.Parameter_File>
/export/apps/rDock/src/rDock_2013.1_src/data/scripts/dock_solv.prm

>  <Rbt.Receptor>
prm/pocket_docking_4.prm

>  <SCORE>
-6.19277

>  <SCORE.INTER>
-6.19277

>  <SCORE.INTER.CONST>
1

>  <SCORE.INTER.POLAR>
0

>  <SCORE.INTER.ROT>
0

>  <SCORE.INTER.SOLV>
20.5646

>  <SCORE.INTER.VDW>
-14.5834

>  <SCORE.INTER.norm>
-0.619277

>  <SCORE.INTRA>
0

>  <SCORE.INTRA.DIHEDRAL>
0

>  <SCORE.INTRA.DIHEDRAL.0>
0

>  <SCORE.INTRA.POLAR>
0

>  <SCORE.INTRA.POLAR.0>
0

>  <SCORE.INTRA.REPUL>
0

>  <SCORE.INTRA.REPUL.0>
0

>  <SCORE.INTRA.SOLV>
0

>  <SCORE.INTRA.SOLV.lig_0>
-47.9788

>  <SCORE.INTRA.VDW>
0

>  <SCORE.INTRA.VDW.0>
0

>  <SCORE.INTRA.norm>
0

>  <SCORE.RESTR>
0

>  <SCORE.RESTR.CAVITY>
0

>  <SCORE.RESTR.norm>
0

>  <SCORE.SYSTEM>
0

>  <SCORE.SYSTEM.CONST>
0

>  <SCORE.SYSTEM.DIHEDRAL>
0

>  <SCORE.SYSTEM.SOLV>
0

>  <SCORE.SYSTEM.norm>
0

>  <SCORE.heavy>
10

>  <SCORE.norm>
-0.619277

>  <RMSD>
3.611

$$$$
ligand
 OpenBabel02271912133D
libRbt.so/2013.1/901 2013/11/27
 10 11  0  0  0  0  0  0  0  0999 V2000
   11.2020   -1.6518    5.8447 C   0  0  1  0  0  0  0  0  0  0  0  0
   12.2763   -4.1189    7.9457 C   0  0  2  0  0  0  0  0  0  0  0  0
   11.3613   -2.2207    7.8625 C   0  0  2  0  0  0  0  0  0  0  0  0
   10.9248   -0.9691    4.7280 N   0  0  0  0  0  0  0  0  0  0  0  0
   12.8366   -5.2804    7.6231 N   0  0  0  0  0  0  0  0  0  0  0  0
   12.0308   -3.7225    9.1888 N   0  0  0  0  0  0  0  0  0  0  0  0
   10.9326   -1.2314    7.0757 N   0  0  0  0  0  0  0  0  0  0  0  0
   11.7745   -2.8687    5.8944 N   0  0  0  0  0  0  0  0  0  0  0  0
   11.4985   -2.6044    9.1410 N   0  0  0  0  0  0  0  0  0  0  0  0
   11.8604   -3.1928    7.0896 N   0  0  1  0  0  0  0  0  0  0  0  0
  1  4  1  6  0  0  0
  1  8  1  0  0  0  0
  1  7  1  0  0  0  0
  2  5  1  6  0  0  0
  2  6  1  0  0  0  0
  2 10  1  0  0  0  0
  3  7  1  1  0  0  0
  3 10  1  0  0  0  0
  3  9  1  0  0  0  0
  6  9  1  0  0  0  0
 10  8  1  1  0  0  0
M  END
>  <CHROM.1>
11.67231205,-2.79154211,7.24032821,-2.29276662,-1.12456727,1.66864067

>  <Name>
ligand

>  <RI>
0

>  <Rbt.Current_Directory>
/home/itssahil/PROJECTS/Mol_Feturizer/Test_systems_manuscript/rnas/2xnw

>  <Rbt.Executable>
rbdock ($Id: //depot/dev/client3/rdock/2013.1/src/exe/rbdock.cxx#4 $)

>  <Rbt.Library>
libRbt.so (2013.1, Build901 2013/11/27)

>  <Rbt.Parameter_File>
/export/apps/rDock/src/rDock_2013.1_src/data/scripts/dock_solv.prm

>  <Rbt.Receptor>
prm/pocket_docking_7.prm

>  <SCORE>
-6.18901

>  <SCORE.INTER>
-6.18901

>  <SCORE.INTER.CONST>
1

>  <SCORE.INTER.POLAR>
0

>  <SCORE.INTER.ROT>
0

>  <SCORE.INTER.SOLV>
20.5905

>  <SCORE.INTER.VDW>
-14.5895

>  <SCORE.INTER.norm>
-0.618901

>  <SCORE.INTRA>
0

>  <SCORE.INTRA.DIHEDRAL>
0

>  <SCORE.INTRA.DIHEDRAL.0>
0

>  <SCORE.INTRA.POLAR>
0

>  <SCORE.INTRA.POLAR.0>
0

>  <SCORE.INTRA.REPUL>
0

>  <SCORE.INTRA.REPUL.0>
0

>  <SCORE.INTRA.SOLV>
0

>  <SCORE.INTRA.SOLV.lig_0>
-47.9788

>  <SCORE.INTRA.VDW>
0

>  <SCORE.INTRA.VDW.0>
0

>  <SCORE.INTRA.norm>
0

>  <SCORE.RESTR>
0

>  <SCORE.RESTR.CAVITY>
0

>  <SCORE.RESTR.norm>
0

>  <SCORE.SYSTEM>
0

>  <SCORE.SYSTEM.CONST>
0

>  <SCORE.SYSTEM.DIHEDRAL>
0

>  <SCORE.SYSTEM.SOLV>
0

>  <SCORE.SYSTEM.norm>
0

>  <SCORE.heavy>
10

>  <SCORE.norm>
-0.618901

>  <RMSD>
3.611

$$$$
ligand
 OpenBabel02271912133D
libRbt.so/2013.1/901 2013/11/27
 10 11  0  0  0  0  0  0  0  0999 V2000
   11.2094   -1.6483    5.8389 C   0  0  1  0  0  0  0  0  0  0  0  0
   12.2906   -4.1094    7.9434 C   0  0  2  0  0  0  0  0  0  0  0  0
   11.3498   -2.2240    7.8562 C   0  0  2  0  0  0  0  0  0  0  0  0
   10.9374   -0.9645    4.7216 N   0  0  0  0  0  0  0  0  0  0  0  0
   12.8716   -5.2614    7.6233 N   0  0  0  0  0  0  0  0  0  0  0  0
   12.0229   -3.7222    9.1848 N   0  0  0  0  0  0  0  0  0  0  0  0
   10.9177   -1.2373    7.0680 N   0  0  0  0  0  0  0  0  0  0  0  0
   11.7985   -2.8572    5.8910 N   0  0  0  0  0  0  0  0  0  0  0  0
   11.4754   -2.6115    9.1348 N   0  0  0  0  0  0  0  0  0  0  0  0
   11.8730   -3.1854    7.0858 N   0  0  1  0  0  0  0  0  0  0  0  0
  1  4  1  6  0  0  0
  1  8  1  0  0  0  0
  1  7  1  0  0  0  0
  2  5  1  6  0  0  0
  2  6  1  0  0  0  0
  2 10  1  0  0  0  0
  3  7  1  1  0  0  0
  3 10  1  0  0  0  0
  3  9  1  0  0  0  0
  6  9  1  0  0  0  0
 10  8  1  1  0  0  0
M  END
>  <CHROM.1>
11.67722474,-2.78755497,7.23576462,-2.26606512,-1.10894125,1.69708478

>  <Name>
ligand

>  <RI>
0

>  <Rbt.Current_Directory>
/home/itssahil/PROJECTS/Mol_Feturizer/Test_systems_manuscript/rnas/2xnw

>  <Rbt.Executable>
rbdock ($Id: //depot/dev/client3/rdock/2013.1/src/exe/rbdock.cxx#4 $)

>  <Rbt.Library>
libRbt.so (2013.1, Build901 2013/11/27)

>  <Rbt.Parameter_File>
/export/apps/rDock/src/rDock_2013.1_src/data/scripts/dock_solv.prm

>  <Rbt.Receptor>
prm/blind_docking_20.prm

>  <SCORE>
-6.1929

>  <SCORE.INTER>
-6.1929

>  <SCORE.INTER.CONST>
1

>  <SCORE.INTER.POLAR>
0

>  <SCORE.INTER.ROT>
0

>  <SCORE.INTER.SOLV>
20.536

>  <SCORE.INTER.VDW>
-14.5739

>  <SCORE.INTER.norm>
-0.61929

>  <SCORE.INTRA>
0

>  <SCORE.INTRA.DIHEDRAL>
0

>  <SCORE.INTRA.DIHEDRAL.0>
0

>  <SCORE.INTRA.POLAR>
0

>  <SCORE.INTRA.POLAR.0>
0

>  <SCORE.INTRA.REPUL>
0

>  <SCORE.INTRA.REPUL.0>
0

>  <SCORE.INTRA.SOLV>
0

>  <SCORE.INTRA.SOLV.lig_0>
-47.9788

>  <SCORE.INTRA.VDW>
0

>  <SCORE.INTRA.VDW.0>
0

>  <SCORE.INTRA.norm>
0

>  <SCORE.RESTR>
0

>  <SCORE.RESTR.CAVITY>
0

>  <SCORE.RESTR.norm>
0

>  <SCORE.SYSTEM>
0

>  <SCORE.SYSTEM.CONST>
0

>  <SCORE.SYSTEM.DIHEDRAL>
0

>  <SCORE.SYSTEM.SOLV>
0

>  <SCORE.SYSTEM.norm>
0

>  <SCORE.heavy>
10

>  <SCORE.norm>
-0.61929

>  <RMSD>
3.612

$$$$
ligand
 OpenBabel02271912133D
libRbt.so/2013.1/901 2013/11/27
 10 11  0  0  0  0  0  0  0  0999 V2000
   11.2092   -1.6475    5.8385 C   0  0  1  0  0  0  0  0  0  0  0  0
   12.2805   -4.1118    7.9442 C   0  0  2  0  0  0  0  0  0  0  0  0
   11.3466   -2.2231    7.8560 C   0  0  2  0  0  0  0  0  0  0  0  0
   10.9402   -0.9631    4.7209 N   0  0  0  0  0  0  0  0  0  0  0  0
   12.8577   -5.2660    7.6248 N   0  0  0  0  0  0  0  0  0  0  0  0
   12.0137   -3.7232    9.1854 N   0  0  0  0  0  0  0  0  0  0  0  0
   10.9183   -1.2351    7.0673 N   0  0  0  0  0  0  0  0  0  0  0  0
   11.7939   -2.8585    5.8912 N   0  0  0  0  0  0  0  0  0  0  0  0
   11.4702   -2.6107    9.1348 N   0  0  0  0  0  0  0  0  0  0  0  0
   11.8667   -3.1866    7.0862 N   0  0  1  0  0  0  0  0  0  0  0  0
  1  4  1  6  0  0  0
  1  8  1  0  0  0  0
  1  7  1  0  0  0  0
  2  5  1  6  0  0  0
  2  6  1  0  0  0  0
  2 10  1  0  0  0  0
  3  7  1  1  0  0  0
  3 10  1  0  0  0  0
  3  9  1  0  0  0  0
  6  9  1  0  0  0  0
 10  8  1  1  0  0  0
M  END
>  <CHROM.1>
11.67226775,-2.78799366,7.23591259,-2.26396041,-1.11241291,1.69866215

>  <Name>
ligand

>  <RI>
0

>  <Rbt.Current_Directory>
/home/itssahil/PROJECTS/Mol_Feturizer/Test_systems_manuscript/rnas/2xnw

>  <Rbt.Executable>
rbdock ($Id: //depot/dev/client3/rdock/2013.1/src/exe/rbdock.cxx#4 $)

>  <Rbt.Library>
libRbt.so (2013.1, Build901 2013/11/27)

>  <Rbt.Parameter_File>
/export/apps/rDock/src/rDock_2013.1_src/data/scripts/dock_solv.prm

>  <Rbt.Receptor>
prm/blind_docking_80.prm

>  <SCORE>
-6.19267

>  <SCORE.INTER>
-6.19267

>  <SCORE.INTER.CONST>
1

>  <SCORE.INTER.POLAR>
0

>  <SCORE.INTER.ROT>
0

>  <SCORE.INTER.SOLV>
20.5922

>  <SCORE.INTER.VDW>
-14.5925

>  <SCORE.INTER.norm>
-0.619267

>  <SCORE.INTRA>
0

>  <SCORE.INTRA.DIHEDRAL>
0

>  <SCORE.INTRA.DIHEDRAL.0>
0

>  <SCORE.INTRA.POLAR>
0

>  <SCORE.INTRA.POLAR.0>
0

>  <SCORE.INTRA.REPUL>
0

>  <SCORE.INTRA.REPUL.0>
0

>  <SCORE.INTRA.SOLV>
0

>  <SCORE.INTRA.SOLV.lig_0>
-47.9788

>  <SCORE.INTRA.VDW>
0

>  <SCORE.INTRA.VDW.0>
0

>  <SCORE.INTRA.norm>
0

>  <SCORE.RESTR>
0

>  <SCORE.RESTR.CAVITY>
0

>  <SCORE.RESTR.norm>
0

>  <SCORE.SYSTEM>
0

>  <SCORE.SYSTEM.CONST>
0

>  <SCORE.SYSTEM.DIHEDRAL>
0

>  <SCORE.SYSTEM.SOLV>
0

>  <SCORE.SYSTEM.norm>
0

>  <SCORE.heavy>
10

>  <SCORE.norm>
-0.619267

>  <RMSD>
3.612

$$$$
ligand
 OpenBabel02271912133D
libRbt.so/2013.1/901 2013/11/27
 10 11  0  0  0  0  0  0  0  0999 V2000
   11.2113   -1.6476    5.8333 C   0  0  1  0  0  0  0  0  0  0  0  0
   12.2734   -4.1116    7.9440 C   0  0  2  0  0  0  0  0  0  0  0  0
   11.3473   -2.2192    7.8520 C   0  0  2  0  0  0  0  0  0  0  0  0
   10.9445   -0.9646    4.7142 N   0  0  0  0  0  0  0  0  0  0  0  0
   12.8455   -5.2689    7.6269 N   0  0  0  0  0  0  0  0  0  0  0  0
   12.0088   -3.7191    9.1844 N   0  0  0  0  0  0  0  0  0  0  0  0
   10.9228   -1.2312    7.0613 N   0  0  0  0  0  0  0  0  0  0  0  0
   11.7909   -2.8608    5.8884 N   0  0  0  0  0  0  0  0  0  0  0  0
   11.4700   -2.6044    9.1316 N   0  0  0  0  0  0  0  0  0  0  0  0
   11.8630   -3.1866    7.0841 N   0  0  1  0  0  0  0  0  0  0  0  0
  1  4  1  6  0  0  0
  1  8  1  0  0  0  0
  1  7  1  0  0  0  0
  2  5  1  6  0  0  0
  2  6  1  0  0  0  0
  2 10  1  0  0  0  0
  3  7  1  1  0  0  0
  3 10  1  0  0  0  0
  3  9  1  0  0  0  0
  6  9  1  0  0  0  0
 10  8  1  1  0  0  0
M  END
>  <CHROM.1>
11.67030263,-2.78683084,7.23300366,-2.26395161,-1.11663796,1.69641276

>  <Name>
ligand

>  <RI>
0

>  <Rbt.Current_Directory>
/home/itssahil/PROJECTS/Mol_Feturizer/Test_systems_manuscript/rnas/2xnw

>  <Rbt.Executable>
rbdock ($Id: //depot/dev/client3/rdock/2013.1/src/exe/rbdock.cxx#4 $)

>  <Rbt.Library>
libRbt.so (2013.1, Build901 2013/11/27)

>  <Rbt.Parameter_File>
/export/apps/rDock/src/rDock_2013.1_src/data/scripts/dock_solv.prm

>  <Rbt.Receptor>
prm/blind_docking_80.prm

>  <SCORE>
-6.19266

>  <SCORE.INTER>
-6.19266

>  <SCORE.INTER.CONST>
1

>  <SCORE.INTER.POLAR>
0

>  <SCORE.INTER.ROT>
0

>  <SCORE.INTER.SOLV>
20.655

>  <SCORE.INTER.VDW>
-14.6134

>  <SCORE.INTER.norm>
-0.619266

>  <SCORE.INTRA>
0

>  <SCORE.INTRA.DIHEDRAL>
0

>  <SCORE.INTRA.DIHEDRAL.0>
0

>  <SCORE.INTRA.POLAR>
0

>  <SCORE.INTRA.POLAR.0>
0

>  <SCORE.INTRA.REPUL>
0

>  <SCORE.INTRA.REPUL.0>
0

>  <SCORE.INTRA.SOLV>
0

>  <SCORE.INTRA.SOLV.lig_0>
-47.9788

>  <SCORE.INTRA.VDW>
0

>  <SCORE.INTRA.VDW.0>
0

>  <SCORE.INTRA.norm>
0

>  <SCORE.RESTR>
0

>  <SCORE.RESTR.CAVITY>
0

>  <SCORE.RESTR.norm>
0

>  <SCORE.SYSTEM>
0

>  <SCORE.SYSTEM.CONST>
0

>  <SCORE.SYSTEM.DIHEDRAL>
0

>  <SCORE.SYSTEM.SOLV>
0

>  <SCORE.SYSTEM.norm>
0

>  <SCORE.heavy>
10

>  <SCORE.norm>
-0.619266

>  <RMSD>
3.614

$$$$
ligand
 OpenBabel02271912133D
libRbt.so/2013.1/901 2013/11/27
 10 11  0  0  0  0  0  0  0  0999 V2000
   11.2219   -1.6662    5.8453 C   0  0  1  0  0  0  0  0  0  0  0  0
   12.2829   -4.1369    7.9488 C   0  0  2  0  0  0  0  0  0  0  0  0
   11.3525   -2.2464    7.8619 C   0  0  2  0  0  0  0  0  0  0  0  0
   10.9572   -0.9789    4.7283 N   0  0  0  0  0  0  0  0  0  0  0  0
   12.8589   -5.2914    7.6285 N   0  0  0  0  0  0  0  0  0  0  0  0
   12.0131   -3.7505    9.1900 N   0  0  0  0  0  0  0  0  0  0  0  0
   10.9282   -1.2560    7.0741 N   0  0  0  0  0  0  0  0  0  0  0  0
   11.8043   -2.8783    5.8971 N   0  0  0  0  0  0  0  0  0  0  0  0
   11.4717   -2.6369    9.1402 N   0  0  0  0  0  0  0  0  0  0  0  0
   11.8731   -3.2091    7.0915 N   0  0  1  0  0  0  0  0  0  0  0  0
  1  4  1  6  0  0  0
  1  8  1  0  0  0  0
  1  7  1  0  0  0  0
  2  5  1  6  0  0  0
  2  6  1  0  0  0  0
  2 10  1  0  0  0  0
  3  7  1  1  0  0  0
  3 10  1  0  0  0  0
  3  9  1  0  0  0  0
  6  9  1  0  0  0  0
 10  8  1  1  0  0  0
M  END
>  <CHROM.1>
11.67895143,-2.81049125,7.24153233,-2.25702905,-1.11378127,1.70702141

>  <Name>
ligand

>  <RI>
0

>  <Rbt.Current_Directory>
/home/itssahil/PROJECTS/Mol_Feturizer/Test_systems_manuscript/rnas/2xnw

>  <Rbt.Executable>
rbdock ($Id: //depot/dev/client3/rdock/2013.1/src/exe/rbdock.cxx#4 $)

>  <Rbt.Library>
libRbt.so (2013.1, Build901 2013/11/27)

>  <Rbt.Parameter_File>
/export/apps/rDock/src/rDock_2013.1_src/data/scripts/dock_solv.prm

>  <Rbt.Receptor>
prm/pocket_docking_8.prm

>  <SCORE>
-6.20618

>  <SCORE.INTER>
-6.20618

>  <SCORE.INTER.CONST>
1

>  <SCORE.INTER.POLAR>
0

>  <SCORE.INTER.ROT>
0

>  <SCORE.INTER.SOLV>
20.5843

>  <SCORE.INTER.VDW>
-14.5989

>  <SCORE.INTER.norm>
-0.620618

>  <SCORE.INTRA>
0

>  <SCORE.INTRA.DIHEDRAL>
0

>  <SCORE.INTRA.DIHEDRAL.0>
0

>  <SCORE.INTRA.POLAR>
0

>  <SCORE.INTRA.POLAR.0>
0

>  <SCORE.INTRA.REPUL>
0

>  <SCORE.INTRA.REPUL.0>
0

>  <SCORE.INTRA.SOLV>
0

>  <SCORE.INTRA.SOLV.lig_0>
-47.9788

>  <SCORE.INTRA.VDW>
0

>  <SCORE.INTRA.VDW.0>
0

>  <SCORE.INTRA.norm>
0

>  <SCORE.RESTR>
0

>  <SCORE.RESTR.CAVITY>
0

>  <SCORE.RESTR.norm>
0

>  <SCORE.SYSTEM>
0

>  <SCORE.SYSTEM.CONST>
0

>  <SCORE.SYSTEM.DIHEDRAL>
0

>  <SCORE.SYSTEM.SOLV>
0

>  <SCORE.SYSTEM.norm>
0

>  <SCORE.heavy>
10

>  <SCORE.norm>
-0.620618

>  <RMSD>
3.616

$$$$
ligand
 OpenBabel02271912133D
libRbt.so/2013.1/901 2013/11/27
 10 11  0  0  0  0  0  0  0  0999 V2000
   11.1990   -1.6489    5.8294 C   0  0  1  0  0  0  0  0  0  0  0  0
   12.2316   -4.1167    7.9502 C   0  0  2  0  0  0  0  0  0  0  0  0
   11.2874   -2.2339    7.8469 C   0  0  2  0  0  0  0  0  0  0  0  0
   10.9546   -0.9605    4.7085 N   0  0  0  0  0  0  0  0  0  0  0  0
   12.8248   -5.2653    7.6402 N   0  0  0  0  0  0  0  0  0  0  0  0
   11.9297   -3.7364    9.1859 N   0  0  0  0  0  0  0  0  0  0  0  0
   10.8732   -1.2448    7.0522 N   0  0  0  0  0  0  0  0  0  0  0  0
   11.7904   -2.8561    5.8914 N   0  0  0  0  0  0  0  0  0  0  0  0
   11.3801   -2.6272    9.1265 N   0  0  0  0  0  0  0  0  0  0  0  0
   11.8341   -3.1899    7.0862 N   0  0  1  0  0  0  0  0  0  0  0  0
  1  4  1  6  0  0  0
  1  8  1  0  0  0  0
  1  7  1  0  0  0  0
  2  5  1  6  0  0  0
  2  6  1  0  0  0  0
  2 10  1  0  0  0  0
  3  7  1  1  0  0  0
  3 10  1  0  0  0  0
  3  9  1  0  0  0  0
  6  9  1  0  0  0  0
 10  8  1  1  0  0  0
M  END
>  <CHROM.1>
11.63306351,-2.79338928,7.23275657,-2.20843183,-1.10164842,1.75340466

>  <Name>
ligand

>  <RI>
0

>  <Rbt.Current_Directory>
/home/itssahil/PROJECTS/Mol_Feturizer/Test_systems_manuscript/rnas/2xnw

>  <Rbt.Executable>
rbdock ($Id: //depot/dev/client3/rdock/2013.1/src/exe/rbdock.cxx#4 $)

>  <Rbt.Library>
libRbt.so (2013.1, Build901 2013/11/27)

>  <Rbt.Parameter_File>
/export/apps/rDock/src/rDock_2013.1_src/data/scripts/dock_solv.prm

>  <Rbt.Receptor>
prm/pocket_docking_7.prm

>  <SCORE>
-6.19056

>  <SCORE.INTER>
-6.19056

>  <SCORE.INTER.CONST>
1

>  <SCORE.INTER.POLAR>
0

>  <SCORE.INTER.ROT>
0

>  <SCORE.INTER.SOLV>
20.8133

>  <SCORE.INTER.VDW>
-14.6648

>  <SCORE.INTER.norm>
-0.619056

>  <SCORE.INTRA>
0

>  <SCORE.INTRA.DIHEDRAL>
0

>  <SCORE.INTRA.DIHEDRAL.0>
0

>  <SCORE.INTRA.POLAR>
0

>  <SCORE.INTRA.POLAR.0>
0

>  <SCORE.INTRA.REPUL>
0

>  <SCORE.INTRA.REPUL.0>
0

>  <SCORE.INTRA.SOLV>
0

>  <SCORE.INTRA.SOLV.lig_0>
-47.9788

>  <SCORE.INTRA.VDW>
0

>  <SCORE.INTRA.VDW.0>
0

>  <SCORE.INTRA.norm>
0

>  <SCORE.RESTR>
0

>  <SCORE.RESTR.CAVITY>
0

>  <SCORE.RESTR.norm>
0

>  <SCORE.SYSTEM>
0

>  <SCORE.SYSTEM.CONST>
0

>  <SCORE.SYSTEM.DIHEDRAL>
0

>  <SCORE.SYSTEM.SOLV>
0

>  <SCORE.SYSTEM.norm>
0

>  <SCORE.heavy>
10

>  <SCORE.norm>
-0.619056

>  <RMSD>
3.618

$$$$
ligand
 OpenBabel02271912133D
libRbt.so/2013.1/901 2013/11/27
 10 11  0  0  0  0  0  0  0  0999 V2000
   12.7063   -4.4701    7.5778 C   0  0  1  0  0  0  0  0  0  0  0  0
   12.0286   -1.5436    9.1997 C   0  0  2  0  0  0  0  0  0  0  0  0
   11.7110   -2.6251    7.4174 C   0  0  2  0  0  0  0  0  0  0  0  0
   13.1776   -5.6944    7.3151 N   0  0  0  0  0  0  0  0  0  0  0  0
   12.4096   -1.1782   10.4198 N   0  0  0  0  0  0  0  0  0  0  0  0
   11.2879   -0.7975    8.3888 N   0  0  0  0  0  0  0  0  0  0  0  0
   11.9567   -3.7533    6.7478 N   0  0  0  0  0  0  0  0  0  0  0  0
   12.8999   -3.7873    8.7212 N   0  0  0  0  0  0  0  0  0  0  0  0
   11.1058   -1.4300    7.3388 N   0  0  0  0  0  0  0  0  0  0  0  0
   12.3061   -2.7026    8.6138 N   0  0  1  0  0  0  0  0  0  0  0  0
  1  4  1  1  0  0  0
  1  8  1  0  0  0  0
  1  7  1  0  0  0  0
  2  5  1  1  0  0  0
  2  6  1  0  0  0  0
  2 10  1  0  0  0  0
  3  7  1  6  0  0  0
  3 10  1  0  0  0  0
  3  9  1  0  0  0  0
  6  9  1  0  0  0  0
 10  8  1  6  0  0  0
M  END
>  <CHROM.1>
12.15940329,-2.79457812,8.17889160,-1.11218547,-0.97699529,0.80965680

>  <Name>
ligand

>  <RI>
0

>  <Rbt.Current_Directory>
/home/itssahil/PROJECTS/Mol_Feturizer/Test_systems_manuscript/rnas/2xnw

>  <Rbt.Executable>
rbdock ($Id: //depot/dev/client3/rdock/2013.1/src/exe/rbdock.cxx#4 $)

>  <Rbt.Library>
libRbt.so (2013.1, Build901 2013/11/27)

>  <Rbt.Parameter_File>
/export/apps/rDock/src/rDock_2013.1_src/data/scripts/dock_solv.prm

>  <Rbt.Receptor>
prm/blind_docking_40.prm

>  <SCORE>
-5.66881

>  <SCORE.INTER>
-5.66881

>  <SCORE.INTER.CONST>
1

>  <SCORE.INTER.POLAR>
0

>  <SCORE.INTER.ROT>
0

>  <SCORE.INTER.SOLV>
15.9252

>  <SCORE.INTER.VDW>
-12.6876

>  <SCORE.INTER.norm>
-0.566881

>  <SCORE.INTRA>
0

>  <SCORE.INTRA.DIHEDRAL>
0

>  <SCORE.INTRA.DIHEDRAL.0>
0

>  <SCORE.INTRA.POLAR>
0

>  <SCORE.INTRA.POLAR.0>
0

>  <SCORE.INTRA.REPUL>
0

>  <SCORE.INTRA.REPUL.0>
0

>  <SCORE.INTRA.SOLV>
0

>  <SCORE.INTRA.SOLV.lig_0>
-47.9788

>  <SCORE.INTRA.VDW>
0

>  <SCORE.INTRA.VDW.0>
0

>  <SCORE.INTRA.norm>
0

>  <SCORE.RESTR>
0

>  <SCORE.RESTR.CAVITY>
0

>  <SCORE.RESTR.norm>
0

>  <SCORE.SYSTEM>
0

>  <SCORE.SYSTEM.CONST>
0

>  <SCORE.SYSTEM.DIHEDRAL>
0

>  <SCORE.SYSTEM.SOLV>
0

>  <SCORE.SYSTEM.norm>
0

>  <SCORE.heavy>
10

>  <SCORE.norm>
-0.566881

>  <RMSD>
3.658

$$$$
ligand
 OpenBabel02271912133D
libRbt.so/2013.1/901 2013/11/27
 10 11  0  0  0  0  0  0  0  0999 V2000
   12.6861   -4.4681    7.5757 C   0  0  1  0  0  0  0  0  0  0  0  0
   12.0309   -1.5401    9.2043 C   0  0  2  0  0  0  0  0  0  0  0  0
   11.7055   -2.6148    7.4193 C   0  0  2  0  0  0  0  0  0  0  0  0
   13.1478   -5.6954    7.3102 N   0  0  0  0  0  0  0  0  0  0  0  0
   12.4143   -1.1808   10.4254 N   0  0  0  0  0  0  0  0  0  0  0  0
   11.2966   -0.7863    8.3949 N   0  0  0  0  0  0  0  0  0  0  0  0
   11.9426   -3.7433    6.7470 N   0  0  0  0  0  0  0  0  0  0  0  0
   12.8846   -3.7896    8.7208 N   0  0  0  0  0  0  0  0  0  0  0  0
   11.1099   -1.4148    7.3433 N   0  0  0  0  0  0  0  0  0  0  0  0
   12.2994   -2.6999    8.6157 N   0  0  1  0  0  0  0  0  0  0  0  0
  1  4  1  1  0  0  0
  1  8  1  0  0  0  0
  1  7  1  0  0  0  0
  2  5  1  1  0  0  0
  2  6  1  0  0  0  0
  2 10  1  0  0  0  0
  3  7  1  6  0  0  0
  3 10  1  0  0  0  0
  3  9  1  0  0  0  0
  6  9  1  0  0  0  0
 10  8  1  6  0  0  0
M  END
>  <CHROM.1>
12.15225856,-2.78967463,8.18052584,-1.12146755,-0.98305850,0.80435915

>  <Name>
ligand

>  <RI>
0

>  <Rbt.Current_Directory>
/home/itssahil/PROJECTS/Mol_Feturizer/Test_systems_manuscript/rnas/2xnw

>  <Rbt.Executable>
rbdock ($Id: //depot/dev/client3/rdock/2013.1/src/exe/rbdock.cxx#4 $)

>  <Rbt.Library>
libRbt.so (2013.1, Build901 2013/11/27)

>  <Rbt.Parameter_File>
/export/apps/rDock/src/rDock_2013.1_src/data/scripts/dock_solv.prm

>  <Rbt.Receptor>
prm/pocket_docking_6.prm

>  <SCORE>
-5.66444

>  <SCORE.INTER>
-5.66444

>  <SCORE.INTER.CONST>
1

>  <SCORE.INTER.POLAR>
0

>  <SCORE.INTER.ROT>
0

>  <SCORE.INTER.SOLV>
16.0242

>  <SCORE.INTER.VDW>
-12.7177

>  <SCORE.INTER.norm>
-0.566444

>  <SCORE.INTRA>
0

>  <SCORE.INTRA.DIHEDRAL>
0

>  <SCORE.INTRA.DIHEDRAL.0>
0

>  <SCORE.INTRA.POLAR>
0

>  <SCORE.INTRA.POLAR.0>
0

>  <SCORE.INTRA.REPUL>
0

>  <SCORE.INTRA.REPUL.0>
0

>  <SCORE.INTRA.SOLV>
0

>  <SCORE.INTRA.SOLV.lig_0>
-47.9788

>  <SCORE.INTRA.VDW>
0

>  <SCORE.INTRA.VDW.0>
0

>  <SCORE.INTRA.norm>
0

>  <SCORE.RESTR>
0

>  <SCORE.RESTR.CAVITY>
0

>  <SCORE.RESTR.norm>
0

>  <SCORE.SYSTEM>
0

>  <SCORE.SYSTEM.CONST>
0

>  <SCORE.SYSTEM.DIHEDRAL>
0

>  <SCORE.SYSTEM.SOLV>
0

>  <SCORE.SYSTEM.norm>
0

>  <SCORE.heavy>
10

>  <SCORE.norm>
-0.566444

>  <RMSD>
3.659

$$$$
ligand
 OpenBabel02271912133D
libRbt.so/2013.1/901 2013/11/27
 10 11  0  0  0  0  0  0  0  0999 V2000
   11.0969   -1.5561    5.5283 C   0  0  1  0  0  0  0  0  0  0  0  0
   12.3055   -2.7823    8.4762 C   0  0  2  0  0  0  0  0  0  0  0  0
   11.2934   -1.1615    7.5840 C   0  0  2  0  0  0  0  0  0  0  0  0
   10.7803   -1.4536    4.2324 N   0  0  0  0  0  0  0  0  0  0  0  0
   12.9238   -3.9400    8.6875 N   0  0  0  0  0  0  0  0  0  0  0  0
   12.0449   -1.8862    9.4206 N   0  0  0  0  0  0  0  0  0  0  0  0
   10.8111   -0.6450    6.4518 N   0  0  0  0  0  0  0  0  0  0  0  0
   11.7317   -2.5974    6.0973 N   0  0  0  0  0  0  0  0  0  0  0  0
   11.4553   -0.9307    8.8960 N   0  0  0  0  0  0  0  0  0  0  0  0
   11.8390   -2.3525    7.3095 N   0  0  1  0  0  0  0  0  0  0  0  0
  1  4  1  1  0  0  0
  1  8  1  0  0  0  0
  1  7  1  0  0  0  0
  2  5  1  1  0  0  0
  2  6  1  0  0  0  0
  2 10  1  0  0  0  0
  3  7  1  6  0  0  0
  3 10  1  0  0  0  0
  3  9  1  0  0  0  0
  6  9  1  0  0  0  0
 10  8  1  6  0  0  0
M  END
>  <CHROM.1>
11.63100779,-1.93485756,7.27157743,-2.31165906,-1.07343085,1.19153684

>  <Name>
ligand

>  <RI>
0

>  <Rbt.Current_Directory>
/home/itssahil/PROJECTS/Mol_Feturizer/Test_systems_manuscript/rnas/2xnw

>  <Rbt.Executable>
rbdock ($Id: //depot/dev/client3/rdock/2013.1/src/exe/rbdock.cxx#4 $)

>  <Rbt.Library>
libRbt.so (2013.1, Build901 2013/11/27)

>  <Rbt.Parameter_File>
/export/apps/rDock/src/rDock_2013.1_src/data/scripts/dock_solv.prm

>  <Rbt.Receptor>
prm/pocket_docking_8.prm

>  <SCORE>
-6.39291

>  <SCORE.INTER>
-6.39291

>  <SCORE.INTER.CONST>
1

>  <SCORE.INTER.POLAR>
0

>  <SCORE.INTER.ROT>
0

>  <SCORE.INTER.SOLV>
21.9797

>  <SCORE.INTER.VDW>
-15.1885

>  <SCORE.INTER.norm>
-0.639291

>  <SCORE.INTRA>
0

>  <SCORE.INTRA.DIHEDRAL>
0

>  <SCORE.INTRA.DIHEDRAL.0>
0

>  <SCORE.INTRA.POLAR>
0

>  <SCORE.INTRA.POLAR.0>
0

>  <SCORE.INTRA.REPUL>
0

>  <SCORE.INTRA.REPUL.0>
0

>  <SCORE.INTRA.SOLV>
0

>  <SCORE.INTRA.SOLV.lig_0>
-47.9788

>  <SCORE.INTRA.VDW>
0

>  <SCORE.INTRA.VDW.0>
0

>  <SCORE.INTRA.norm>
0

>  <SCORE.RESTR>
0

>  <SCORE.RESTR.CAVITY>
0

>  <SCORE.RESTR.norm>
0

>  <SCORE.SYSTEM>
0

>  <SCORE.SYSTEM.CONST>
0

>  <SCORE.SYSTEM.DIHEDRAL>
0

>  <SCORE.SYSTEM.SOLV>
0

>  <SCORE.SYSTEM.norm>
0

>  <SCORE.heavy>
10

>  <SCORE.norm>
-0.639291

>  <RMSD>
3.805

$$$$
ligand
 OpenBabel02271912133D
libRbt.so/2013.1/901 2013/11/27
 10 11  0  0  0  0  0  0  0  0999 V2000
   11.1287   -1.5583    5.5100 C   0  0  1  0  0  0  0  0  0  0  0  0
   12.3147   -2.7936    8.4633 C   0  0  2  0  0  0  0  0  0  0  0  0
   11.2903   -1.1802    7.5718 C   0  0  2  0  0  0  0  0  0  0  0  0
   10.8286   -1.4486    4.2108 N   0  0  0  0  0  0  0  0  0  0  0  0
   12.9477   -3.9437    8.6726 N   0  0  0  0  0  0  0  0  0  0  0  0
   12.0271   -1.9105    9.4120 N   0  0  0  0  0  0  0  0  0  0  0  0
   10.8160   -0.6604    6.4377 N   0  0  0  0  0  0  0  0  0  0  0  0
   11.7714   -2.5951    6.0783 N   0  0  0  0  0  0  0  0  0  0  0  0
   11.4304   -0.9592    8.8880 N   0  0  0  0  0  0  0  0  0  0  0  0
   11.8580   -2.3600    7.2941 N   0  0  1  0  0  0  0  0  0  0  0  0
  1  4  1  1  0  0  0
  1  8  1  0  0  0  0
  1  7  1  0  0  0  0
  2  5  1  1  0  0  0
  2  6  1  0  0  0  0
  2 10  1  0  0  0  0
  3  7  1  6  0  0  0
  3 10  1  0  0  0  0
  3  9  1  0  0  0  0
  6  9  1  0  0  0  0
 10  8  1  6  0  0  0
M  END
>  <CHROM.1>
11.64411253,-1.94530340,7.25708181,-2.27318076,-1.06400803,1.23454975

>  <Name>
ligand

>  <RI>
0

>  <Rbt.Current_Directory>
/home/itssahil/PROJECTS/Mol_Feturizer/Test_systems_manuscript/rnas/2xnw

>  <Rbt.Executable>
rbdock ($Id: //depot/dev/client3/rdock/2013.1/src/exe/rbdock.cxx#4 $)

>  <Rbt.Library>
libRbt.so (2013.1, Build901 2013/11/27)

>  <Rbt.Parameter_File>
/export/apps/rDock/src/rDock_2013.1_src/data/scripts/dock_solv.prm

>  <Rbt.Receptor>
prm/pocket_docking_3.prm

>  <SCORE>
-6.39524

>  <SCORE.INTER>
-6.39524

>  <SCORE.INTER.CONST>
1

>  <SCORE.INTER.POLAR>
0

>  <SCORE.INTER.ROT>
0

>  <SCORE.INTER.SOLV>
22.0188

>  <SCORE.INTER.VDW>
-15.2031

>  <SCORE.INTER.norm>
-0.639524

>  <SCORE.INTRA>
0

>  <SCORE.INTRA.DIHEDRAL>
0

>  <SCORE.INTRA.DIHEDRAL.0>
0

>  <SCORE.INTRA.POLAR>
0

>  <SCORE.INTRA.POLAR.0>
0

>  <SCORE.INTRA.REPUL>
0

>  <SCORE.INTRA.REPUL.0>
0

>  <SCORE.INTRA.SOLV>
0

>  <SCORE.INTRA.SOLV.lig_0>
-47.9788

>  <SCORE.INTRA.VDW>
0

>  <SCORE.INTRA.VDW.0>
0

>  <SCORE.INTRA.norm>
0

>  <SCORE.RESTR>
0

>  <SCORE.RESTR.CAVITY>
0

>  <SCORE.RESTR.norm>
0

>  <SCORE.SYSTEM>
0

>  <SCORE.SYSTEM.CONST>
0

>  <SCORE.SYSTEM.DIHEDRAL>
0

>  <SCORE.SYSTEM.SOLV>
0

>  <SCORE.SYSTEM.norm>
0

>  <SCORE.heavy>
10

>  <SCORE.norm>
-0.639524

>  <RMSD>
3.807

$$$$
ligand
 OpenBabel02271912133D
libRbt.so/2013.1/901 2013/11/27
 10 11  0  0  0  0  0  0  0  0999 V2000
   11.1071   -1.5639    5.5204 C   0  0  1  0  0  0  0  0  0  0  0  0
   12.3221   -2.7827    8.4687 C   0  0  2  0  0  0  0  0  0  0  0  0
   11.2926   -1.1723    7.5777 C   0  0  2  0  0  0  0  0  0  0  0  0
   10.7930   -1.4620    4.2238 N   0  0  0  0  0  0  0  0  0  0  0  0
   12.9541   -3.9332    8.6789 N   0  0  0  0  0  0  0  0  0  0  0  0
   12.0476   -1.8924    9.4146 N   0  0  0  0  0  0  0  0  0  0  0  0
   10.8072   -0.6588    6.4453 N   0  0  0  0  0  0  0  0  0  0  0  0
   11.7530   -2.5987    6.0886 N   0  0  0  0  0  0  0  0  0  0  0  0
   11.4478   -0.9429    8.8907 N   0  0  0  0  0  0  0  0  0  0  0  0
   11.8537   -2.3557    7.3017 N   0  0  1  0  0  0  0  0  0  0  0  0
  1  4  1  1  0  0  0
  1  8  1  0  0  0  0
  1  7  1  0  0  0  0
  2  5  1  1  0  0  0
  2  6  1  0  0  0  0
  2 10  1  0  0  0  0
  3  7  1  6  0  0  0
  3 10  1  0  0  0  0
  3  9  1  0  0  0  0
  6  9  1  0  0  0  0
 10  8  1  6  0  0  0
M  END
>  <CHROM.1>
11.64067535,-1.94057459,7.26428127,-2.29659312,-1.06296479,1.20730961

>  <Name>
ligand

>  <RI>
0

>  <Rbt.Current_Directory>
/home/itssahil/PROJECTS/Mol_Feturizer/Test_systems_manuscript/rnas/2xnw

>  <Rbt.Executable>
rbdock ($Id: //depot/dev/client3/rdock/2013.1/src/exe/rbdock.cxx#4 $)

>  <Rbt.Library>
libRbt.so (2013.1, Build901 2013/11/27)

>  <Rbt.Parameter_File>
/export/apps/rDock/src/rDock_2013.1_src/data/scripts/dock_solv.prm

>  <Rbt.Receptor>
prm/pocket_docking_3.prm

>  <SCORE>
-6.4127

>  <SCORE.INTER>
-6.4127

>  <SCORE.INTER.CONST>
1

>  <SCORE.INTER.POLAR>
0

>  <SCORE.INTER.ROT>
0

>  <SCORE.INTER.SOLV>
21.9311

>  <SCORE.INTER.VDW>
-15.1855

>  <SCORE.INTER.norm>
-0.64127

>  <SCORE.INTRA>
0

>  <SCORE.INTRA.DIHEDRAL>
0

>  <SCORE.INTRA.DIHEDRAL.0>
0

>  <SCORE.INTRA.POLAR>
0

>  <SCORE.INTRA.POLAR.0>
0

>  <SCORE.INTRA.REPUL>
0

>  <SCORE.INTRA.REPUL.0>
0

>  <SCORE.INTRA.SOLV>
0

>  <SCORE.INTRA.SOLV.lig_0>
-47.9788

>  <SCORE.INTRA.VDW>
0

>  <SCORE.INTRA.VDW.0>
0

>  <SCORE.INTRA.norm>
0

>  <SCORE.RESTR>
0

>  <SCORE.RESTR.CAVITY>
0

>  <SCORE.RESTR.norm>
0

>  <SCORE.SYSTEM>
0

>  <SCORE.SYSTEM.CONST>
0

>  <SCORE.SYSTEM.DIHEDRAL>
0

>  <SCORE.SYSTEM.SOLV>
0

>  <SCORE.SYSTEM.norm>
0

>  <SCORE.heavy>
10

>  <SCORE.norm>
-0.64127

>  <RMSD>
3.807

$$$$
ligand
 OpenBabel02271912133D
libRbt.so/2013.1/901 2013/11/27
 10 11  0  0  0  0  0  0  0  0999 V2000
   11.1278   -1.5647    5.5160 C   0  0  1  0  0  0  0  0  0  0  0  0
   12.3106   -2.7873    8.4759 C   0  0  2  0  0  0  0  0  0  0  0  0
   11.2867   -1.1780    7.5765 C   0  0  2  0  0  0  0  0  0  0  0  0
   10.8295   -1.4604    4.2160 N   0  0  0  0  0  0  0  0  0  0  0  0
   12.9438   -3.9362    8.6908 N   0  0  0  0  0  0  0  0  0  0  0  0
   12.0214   -1.9004    9.4206 N   0  0  0  0  0  0  0  0  0  0  0  0
   10.8136   -0.6631    6.4396 N   0  0  0  0  0  0  0  0  0  0  0  0
   11.7702   -2.5989    6.0894 N   0  0  0  0  0  0  0  0  0  0  0  0
   11.4249   -0.9515    8.8919 N   0  0  0  0  0  0  0  0  0  0  0  0
   11.8551   -2.3587    7.3043 N   0  0  1  0  0  0  0  0  0  0  0  0
  1  4  1  1  0  0  0
  1  8  1  0  0  0  0
  1  7  1  0  0  0  0
  2  5  1  1  0  0  0
  2  6  1  0  0  0  0
  2 10  1  0  0  0  0
  3  7  1  6  0  0  0
  3 10  1  0  0  0  0
  3  9  1  0  0  0  0
  6  9  1  0  0  0  0
 10  8  1  6  0  0  0
M  END
>  <CHROM.1>
11.64118077,-1.94424063,7.26534725,-2.27037750,-1.06404713,1.23287534

>  <Name>
ligand

>  <RI>
0

>  <Rbt.Current_Directory>
/home/itssahil/PROJECTS/Mol_Feturizer/Test_systems_manuscript/rnas/2xnw

>  <Rbt.Executable>
rbdock ($Id: //depot/dev/client3/rdock/2013.1/src/exe/rbdock.cxx#4 $)

>  <Rbt.Library>
libRbt.so (2013.1, Build901 2013/11/27)

>  <Rbt.Parameter_File>
/export/apps/rDock/src/rDock_2013.1_src/data/scripts/dock_solv.prm

>  <Rbt.Receptor>
prm/blind_docking_100.prm

>  <SCORE>
-6.40116

>  <SCORE.INTER>
-6.40116

>  <SCORE.INTER.CONST>
1

>  <SCORE.INTER.POLAR>
0

>  <SCORE.INTER.ROT>
0

>  <SCORE.INTER.SOLV>
22.063

>  <SCORE.INTER.VDW>
-15.2218

>  <SCORE.INTER.norm>
-0.640116

>  <SCORE.INTRA>
0

>  <SCORE.INTRA.DIHEDRAL>
0

>  <SCORE.INTRA.DIHEDRAL.0>
0

>  <SCORE.INTRA.POLAR>
0

>  <SCORE.INTRA.POLAR.0>
0

>  <SCORE.INTRA.REPUL>
0

>  <SCORE.INTRA.REPUL.0>
0

>  <SCORE.INTRA.SOLV>
0

>  <SCORE.INTRA.SOLV.lig_0>
-47.9788

>  <SCORE.INTRA.VDW>
0

>  <SCORE.INTRA.VDW.0>
0

>  <SCORE.INTRA.norm>
0

>  <SCORE.RESTR>
0

>  <SCORE.RESTR.CAVITY>
0

>  <SCORE.RESTR.norm>
0

>  <SCORE.SYSTEM>
0

>  <SCORE.SYSTEM.CONST>
0

>  <SCORE.SYSTEM.DIHEDRAL>
0

>  <SCORE.SYSTEM.SOLV>
0

>  <SCORE.SYSTEM.norm>
0

>  <SCORE.heavy>
10

>  <SCORE.norm>
-0.640116

>  <RMSD>
3.808

$$$$
ligand
 OpenBabel02271912133D
libRbt.so/2013.1/901 2013/11/27
 10 11  0  0  0  0  0  0  0  0999 V2000
   11.1308   -1.5623    5.5112 C   0  0  1  0  0  0  0  0  0  0  0  0
   12.3203   -2.7841    8.4686 C   0  0  2  0  0  0  0  0  0  0  0  0
   11.2814   -1.1821    7.5735 C   0  0  2  0  0  0  0  0  0  0  0  0
   10.8339   -1.4560    4.2109 N   0  0  0  0  0  0  0  0  0  0  0  0
   12.9651   -3.9272    8.6803 N   0  0  0  0  0  0  0  0  0  0  0  0
   12.0199   -1.9041    9.4163 N   0  0  0  0  0  0  0  0  0  0  0  0
   10.8052   -0.6677    6.4376 N   0  0  0  0  0  0  0  0  0  0  0  0
   11.7828   -2.5919    6.0818 N   0  0  0  0  0  0  0  0  0  0  0  0
   11.4146   -0.9594    8.8901 N   0  0  0  0  0  0  0  0  0  0  0  0
   11.8628   -2.3557    7.2978 N   0  0  1  0  0  0  0  0  0  0  0  0
  1  4  1  1  0  0  0
  1  8  1  0  0  0  0
  1  7  1  0  0  0  0
  2  5  1  1  0  0  0
  2  6  1  0  0  0  0
  2 10  1  0  0  0  0
  3  7  1  6  0  0  0
  3 10  1  0  0  0  0
  3  9  1  0  0  0  0
  6  9  1  0  0  0  0
 10  8  1  6  0  0  0
M  END
>  <CHROM.1>
11.64454560,-1.94335658,7.26003567,-2.25948505,-1.05478592,1.24633557

>  <Name>
ligand

>  <RI>
0

>  <Rbt.Current_Directory>
/home/itssahil/PROJECTS/Mol_Feturizer/Test_systems_manuscript/rnas/2xnw

>  <Rbt.Executable>
rbdock ($Id: //depot/dev/client3/rdock/2013.1/src/exe/rbdock.cxx#4 $)

>  <Rbt.Library>
libRbt.so (2013.1, Build901 2013/11/27)

>  <Rbt.Parameter_File>
/export/apps/rDock/src/rDock_2013.1_src/data/scripts/dock_solv.prm

>  <Rbt.Receptor>
prm/blind_docking_20.prm

>  <SCORE>
-6.4029

>  <SCORE.INTER>
-6.4029

>  <SCORE.INTER.CONST>
1

>  <SCORE.INTER.POLAR>
0

>  <SCORE.INTER.ROT>
0

>  <SCORE.INTER.SOLV>
21.9979

>  <SCORE.INTER.VDW>
-15.2012

>  <SCORE.INTER.norm>
-0.64029

>  <SCORE.INTRA>
0

>  <SCORE.INTRA.DIHEDRAL>
0

>  <SCORE.INTRA.DIHEDRAL.0>
0

>  <SCORE.INTRA.POLAR>
0

>  <SCORE.INTRA.POLAR.0>
0

>  <SCORE.INTRA.REPUL>
0

>  <SCORE.INTRA.REPUL.0>
0

>  <SCORE.INTRA.SOLV>
0

>  <SCORE.INTRA.SOLV.lig_0>
-47.9788

>  <SCORE.INTRA.VDW>
0

>  <SCORE.INTRA.VDW.0>
0

>  <SCORE.INTRA.norm>
0

>  <SCORE.RESTR>
0

>  <SCORE.RESTR.CAVITY>
0

>  <SCORE.RESTR.norm>
0

>  <SCORE.SYSTEM>
0

>  <SCORE.SYSTEM.CONST>
0

>  <SCORE.SYSTEM.DIHEDRAL>
0

>  <SCORE.SYSTEM.SOLV>
0

>  <SCORE.SYSTEM.norm>
0

>  <SCORE.heavy>
10

>  <SCORE.norm>
-0.64029

>  <RMSD>
3.808

$$$$
ligand
 OpenBabel02271912133D
libRbt.so/2013.1/901 2013/11/27
 10 11  0  0  0  0  0  0  0  0999 V2000
   11.1322   -1.5566    5.5124 C   0  0  1  0  0  0  0  0  0  0  0  0
   12.3222   -2.7828    8.4679 C   0  0  2  0  0  0  0  0  0  0  0  0
   11.2895   -1.1760    7.5741 C   0  0  2  0  0  0  0  0  0  0  0  0
   10.8330   -1.4495    4.2128 N   0  0  0  0  0  0  0  0  0  0  0  0
   12.9616   -3.9290    8.6789 N   0  0  0  0  0  0  0  0  0  0  0  0
   12.0285   -1.9007    9.4157 N   0  0  0  0  0  0  0  0  0  0  0  0
   10.8133   -0.6598    6.4391 N   0  0  0  0  0  0  0  0  0  0  0  0
   11.7803   -2.5892    6.0822 N   0  0  0  0  0  0  0  0  0  0  0  0
   11.4268   -0.9532    8.8903 N   0  0  0  0  0  0  0  0  0  0  0  0
   11.8642   -2.3527    7.2979 N   0  0  1  0  0  0  0  0  0  0  0  0
  1  4  1  1  0  0  0
  1  8  1  0  0  0  0
  1  7  1  0  0  0  0
  2  5  1  1  0  0  0
  2  6  1  0  0  0  0
  2 10  1  0  0  0  0
  3  7  1  6  0  0  0
  3 10  1  0  0  0  0
  3  9  1  0  0  0  0
  6  9  1  0  0  0  0
 10  8  1  6  0  0  0
M  END
>  <CHROM.1>
11.64801016,-1.93926453,7.26037099,-2.26717697,-1.05889886,1.23903517

>  <Name>
ligand

>  <RI>
0

>  <Rbt.Current_Directory>
/home/itssahil/PROJECTS/Mol_Feturizer/Test_systems_manuscript/rnas/2xnw

>  <Rbt.Executable>
rbdock ($Id: //depot/dev/client3/rdock/2013.1/src/exe/rbdock.cxx#4 $)

>  <Rbt.Library>
libRbt.so (2013.1, Build901 2013/11/27)

>  <Rbt.Parameter_File>
/export/apps/rDock/src/rDock_2013.1_src/data/scripts/dock_solv.prm

>  <Rbt.Receptor>
prm/pocket_docking_3.prm

>  <SCORE>
-6.40045

>  <SCORE.INTER>
-6.40045

>  <SCORE.INTER.CONST>
1

>  <SCORE.INTER.POLAR>
0

>  <SCORE.INTER.ROT>
0

>  <SCORE.INTER.SOLV>
21.9968

>  <SCORE.INTER.VDW>
-15.1992

>  <SCORE.INTER.norm>
-0.640045

>  <SCORE.INTRA>
0

>  <SCORE.INTRA.DIHEDRAL>
0

>  <SCORE.INTRA.DIHEDRAL.0>
0

>  <SCORE.INTRA.POLAR>
0

>  <SCORE.INTRA.POLAR.0>
0

>  <SCORE.INTRA.REPUL>
0

>  <SCORE.INTRA.REPUL.0>
0

>  <SCORE.INTRA.SOLV>
0

>  <SCORE.INTRA.SOLV.lig_0>
-47.9788

>  <SCORE.INTRA.VDW>
0

>  <SCORE.INTRA.VDW.0>
0

>  <SCORE.INTRA.norm>
0

>  <SCORE.RESTR>
0

>  <SCORE.RESTR.CAVITY>
0

>  <SCORE.RESTR.norm>
0

>  <SCORE.SYSTEM>
0

>  <SCORE.SYSTEM.CONST>
0

>  <SCORE.SYSTEM.DIHEDRAL>
0

>  <SCORE.SYSTEM.SOLV>
0

>  <SCORE.SYSTEM.norm>
0

>  <SCORE.heavy>
10

>  <SCORE.norm>
-0.640045

>  <RMSD>
3.808

$$$$
ligand
 OpenBabel02271912133D
libRbt.so/2013.1/901 2013/11/27
 10 11  0  0  0  0  0  0  0  0999 V2000
   11.1099   -1.5846    5.5316 C   0  0  1  0  0  0  0  0  0  0  0  0
   12.3098   -2.7903    8.4915 C   0  0  2  0  0  0  0  0  0  0  0  0
   11.3099   -1.1709    7.5833 C   0  0  2  0  0  0  0  0  0  0  0  0
   10.7938   -1.4928    4.2349 N   0  0  0  0  0  0  0  0  0  0  0  0
   12.9194   -3.9505    8.7144 N   0  0  0  0  0  0  0  0  0  0  0  0
   12.0562   -1.8828    9.4269 N   0  0  0  0  0  0  0  0  0  0  0  0
   10.8312   -0.6621    6.4460 N   0  0  0  0  0  0  0  0  0  0  0  0
   11.7369   -2.6249    6.1110 N   0  0  0  0  0  0  0  0  0  0  0  0
   11.4739   -0.9281    8.8928 N   0  0  0  0  0  0  0  0  0  0  0  0
   11.8463   -2.3687    7.3206 N   0  0  1  0  0  0  0  0  0  0  0  0
  1  4  1  1  0  0  0
  1  8  1  0  0  0  0
  1  7  1  0  0  0  0
  2  5  1  1  0  0  0
  2  6  1  0  0  0  0
  2 10  1  0  0  0  0
  3  7  1  6  0  0  0
  3 10  1  0  0  0  0
  3  9  1  0  0  0  0
  6  9  1  0  0  0  0
 10  8  1  6  0  0  0
M  END
>  <CHROM.1>
11.64150907,-1.94989558,7.27856230,-2.31809116,-1.08041220,1.17581348

>  <Name>
ligand

>  <RI>
0

>  <Rbt.Current_Directory>
/home/itssahil/PROJECTS/Mol_Feturizer/Test_systems_manuscript/rnas/2xnw

>  <Rbt.Executable>
rbdock ($Id: //depot/dev/client3/rdock/2013.1/src/exe/rbdock.cxx#4 $)

>  <Rbt.Library>
libRbt.so (2013.1, Build901 2013/11/27)

>  <Rbt.Parameter_File>
/export/apps/rDock/src/rDock_2013.1_src/data/scripts/dock_solv.prm

>  <Rbt.Receptor>
prm/pocket_docking_3.prm

>  <SCORE>
-6.35585

>  <SCORE.INTER>
-6.35585

>  <SCORE.INTER.CONST>
1

>  <SCORE.INTER.POLAR>
0

>  <SCORE.INTER.ROT>
0

>  <SCORE.INTER.SOLV>
22.1308

>  <SCORE.INTER.VDW>
-15.2142

>  <SCORE.INTER.norm>
-0.635585

>  <SCORE.INTRA>
0

>  <SCORE.INTRA.DIHEDRAL>
0

>  <SCORE.INTRA.DIHEDRAL.0>
0

>  <SCORE.INTRA.POLAR>
0

>  <SCORE.INTRA.POLAR.0>
0

>  <SCORE.INTRA.REPUL>
0

>  <SCORE.INTRA.REPUL.0>
0

>  <SCORE.INTRA.SOLV>
0

>  <SCORE.INTRA.SOLV.lig_0>
-47.9788

>  <SCORE.INTRA.VDW>
0

>  <SCORE.INTRA.VDW.0>
0

>  <SCORE.INTRA.norm>
0

>  <SCORE.RESTR>
0

>  <SCORE.RESTR.CAVITY>
0

>  <SCORE.RESTR.norm>
0

>  <SCORE.SYSTEM>
0

>  <SCORE.SYSTEM.CONST>
0

>  <SCORE.SYSTEM.DIHEDRAL>
0

>  <SCORE.SYSTEM.SOLV>
0

>  <SCORE.SYSTEM.norm>
0

>  <SCORE.heavy>
10

>  <SCORE.norm>
-0.635585

>  <RMSD>
3.808

$$$$
ligand
 OpenBabel02271912133D
libRbt.so/2013.1/901 2013/11/27
 10 11  0  0  0  0  0  0  0  0999 V2000
   11.1171   -1.5821    5.5374 C   0  0  1  0  0  0  0  0  0  0  0  0
   12.3287   -2.7709    8.4994 C   0  0  2  0  0  0  0  0  0  0  0  0
   11.3074   -1.1659    7.5895 C   0  0  2  0  0  0  0  0  0  0  0  0
   10.8021   -1.4947    4.2401 N   0  0  0  0  0  0  0  0  0  0  0  0
   12.9544   -3.9223    8.7232 N   0  0  0  0  0  0  0  0  0  0  0  0
   12.0605   -1.8673    9.4344 N   0  0  0  0  0  0  0  0  0  0  0  0
   10.8236   -0.6639    6.4513 N   0  0  0  0  0  0  0  0  0  0  0  0
   11.7579   -2.6135    6.1178 N   0  0  0  0  0  0  0  0  0  0  0  0
   11.4655   -0.9210    8.8993 N   0  0  0  0  0  0  0  0  0  0  0  0
   11.8614   -2.3559    7.3277 N   0  0  1  0  0  0  0  0  0  0  0  0
  1  4  1  1  0  0  0
  1  8  1  0  0  0  0
  1  7  1  0  0  0  0
  2  5  1  1  0  0  0
  2  6  1  0  0  0  0
  2 10  1  0  0  0  0
  3  7  1  6  0  0  0
  3 10  1  0  0  0  0
  3  9  1  0  0  0  0
  6  9  1  0  0  0  0
 10  8  1  6  0  0  0
M  END
>  <CHROM.1>
11.65067353,-1.94004903,7.28527357,-2.30314586,-1.06785655,1.18908200

>  <Name>
ligand

>  <RI>
0

>  <Rbt.Current_Directory>
/home/itssahil/PROJECTS/Mol_Feturizer/Test_systems_manuscript/rnas/2xnw

>  <Rbt.Executable>
rbdock ($Id: //depot/dev/client3/rdock/2013.1/src/exe/rbdock.cxx#4 $)

>  <Rbt.Library>
libRbt.so (2013.1, Build901 2013/11/27)

>  <Rbt.Parameter_File>
/export/apps/rDock/src/rDock_2013.1_src/data/scripts/dock_solv.prm

>  <Rbt.Receptor>
prm/pocket_docking_8.prm

>  <SCORE>
-6.39612

>  <SCORE.INTER>
-6.39612

>  <SCORE.INTER.CONST>
1

>  <SCORE.INTER.POLAR>
0

>  <SCORE.INTER.ROT>
0

>  <SCORE.INTER.SOLV>
22.064

>  <SCORE.INTER.VDW>
-15.2188

>  <SCORE.INTER.norm>
-0.639612

>  <SCORE.INTRA>
0

>  <SCORE.INTRA.DIHEDRAL>
0

>  <SCORE.INTRA.DIHEDRAL.0>
0

>  <SCORE.INTRA.POLAR>
0

>  <SCORE.INTRA.POLAR.0>
0

>  <SCORE.INTRA.REPUL>
0

>  <SCORE.INTRA.REPUL.0>
0

>  <SCORE.INTRA.SOLV>
0

>  <SCORE.INTRA.SOLV.lig_0>
-47.9788

>  <SCORE.INTRA.VDW>
0

>  <SCORE.INTRA.VDW.0>
0

>  <SCORE.INTRA.norm>
0

>  <SCORE.RESTR>
0

>  <SCORE.RESTR.CAVITY>
0

>  <SCORE.RESTR.norm>
0

>  <SCORE.SYSTEM>
0

>  <SCORE.SYSTEM.CONST>
0

>  <SCORE.SYSTEM.DIHEDRAL>
0

>  <SCORE.SYSTEM.SOLV>
0

>  <SCORE.SYSTEM.norm>
0

>  <SCORE.heavy>
10

>  <SCORE.norm>
-0.639612

>  <RMSD>
3.808

$$$$
ligand
 OpenBabel02271912133D
libRbt.so/2013.1/901 2013/11/27
 10 11  0  0  0  0  0  0  0  0999 V2000
   11.1074   -1.5660    5.5123 C   0  0  1  0  0  0  0  0  0  0  0  0
   12.3193   -2.7773    8.4651 C   0  0  2  0  0  0  0  0  0  0  0  0
   11.2951   -1.1668    7.5680 C   0  0  2  0  0  0  0  0  0  0  0  0
   10.7931   -1.4683    4.2155 N   0  0  0  0  0  0  0  0  0  0  0  0
   12.9472   -3.9291    8.6796 N   0  0  0  0  0  0  0  0  0  0  0  0
   12.0483   -1.8822    9.4075 N   0  0  0  0  0  0  0  0  0  0  0  0
   10.8111   -0.6562    6.4338 N   0  0  0  0  0  0  0  0  0  0  0  0
   11.7499   -2.6009    6.0845 N   0  0  0  0  0  0  0  0  0  0  0  0
   11.4517   -0.9327    8.8800 N   0  0  0  0  0  0  0  0  0  0  0  0
   11.8519   -2.3533    7.2966 N   0  0  1  0  0  0  0  0  0  0  0  0
  1  4  1  1  0  0  0
  1  8  1  0  0  0  0
  1  7  1  0  0  0  0
  2  5  1  1  0  0  0
  2  6  1  0  0  0  0
  2 10  1  0  0  0  0
  3  7  1  6  0  0  0
  3 10  1  0  0  0  0
  3  9  1  0  0  0  0
  6  9  1  0  0  0  0
 10  8  1  6  0  0  0
M  END
>  <CHROM.1>
11.64033648,-1.93758155,7.25753723,-2.29999028,-1.06613782,1.20031904

>  <Name>
ligand

>  <RI>
0

>  <Rbt.Current_Directory>
/home/itssahil/PROJECTS/Mol_Feturizer/Test_systems_manuscript/rnas/2xnw

>  <Rbt.Executable>
rbdock ($Id: //depot/dev/client3/rdock/2013.1/src/exe/rbdock.cxx#4 $)

>  <Rbt.Library>
libRbt.so (2013.1, Build901 2013/11/27)

>  <Rbt.Parameter_File>
/export/apps/rDock/src/rDock_2013.1_src/data/scripts/dock_solv.prm

>  <Rbt.Receptor>
prm/pocket_docking_7.prm

>  <SCORE>
-6.38056

>  <SCORE.INTER>
-6.38056

>  <SCORE.INTER.CONST>
1

>  <SCORE.INTER.POLAR>
0

>  <SCORE.INTER.ROT>
0

>  <SCORE.INTER.SOLV>
21.964

>  <SCORE.INTER.VDW>
-15.175

>  <SCORE.INTER.norm>
-0.638056

>  <SCORE.INTRA>
0

>  <SCORE.INTRA.DIHEDRAL>
0

>  <SCORE.INTRA.DIHEDRAL.0>
0

>  <SCORE.INTRA.POLAR>
0

>  <SCORE.INTRA.POLAR.0>
0

>  <SCORE.INTRA.REPUL>
0

>  <SCORE.INTRA.REPUL.0>
0

>  <SCORE.INTRA.SOLV>
0

>  <SCORE.INTRA.SOLV.lig_0>
-47.9788

>  <SCORE.INTRA.VDW>
0

>  <SCORE.INTRA.VDW.0>
0

>  <SCORE.INTRA.norm>
0

>  <SCORE.RESTR>
0

>  <SCORE.RESTR.CAVITY>
0

>  <SCORE.RESTR.norm>
0

>  <SCORE.SYSTEM>
0

>  <SCORE.SYSTEM.CONST>
0

>  <SCORE.SYSTEM.DIHEDRAL>
0

>  <SCORE.SYSTEM.SOLV>
0

>  <SCORE.SYSTEM.norm>
0

>  <SCORE.heavy>
10

>  <SCORE.norm>
-0.638056

>  <RMSD>
3.810

$$$$
ligand
 OpenBabel02271912133D
libRbt.so/2013.1/901 2013/11/27
 10 11  0  0  0  0  0  0  0  0999 V2000
   11.1119   -1.5606    5.5120 C   0  0  1  0  0  0  0  0  0  0  0  0
   12.3022   -2.7692    8.4745 C   0  0  2  0  0  0  0  0  0  0  0  0
   11.2713   -1.1666    7.5710 C   0  0  2  0  0  0  0  0  0  0  0  0
   10.8118   -1.4616    4.2119 N   0  0  0  0  0  0  0  0  0  0  0  0
   12.9400   -3.9150    8.6925 N   0  0  0  0  0  0  0  0  0  0  0  0
   12.0106   -1.8804    9.4168 N   0  0  0  0  0  0  0  0  0  0  0  0
   10.7951   -0.6572    6.4330 N   0  0  0  0  0  0  0  0  0  0  0  0
   11.7588   -2.5904    6.0881 N   0  0  0  0  0  0  0  0  0  0  0  0
   11.4100   -0.9355    8.8856 N   0  0  0  0  0  0  0  0  0  0  0  0
   11.8440   -2.3461    7.3021 N   0  0  1  0  0  0  0  0  0  0  0  0
  1  4  1  1  0  0  0
  1  8  1  0  0  0  0
  1  7  1  0  0  0  0
  2  5  1  1  0  0  0
  2  6  1  0  0  0  0
  2 10  1  0  0  0  0
  3  7  1  6  0  0  0
  3 10  1  0  0  0  0
  3  9  1  0  0  0  0
  6  9  1  0  0  0  0
 10  8  1  6  0  0  0
M  END
>  <CHROM.1>
11.62839259,-1.93254706,7.26200513,-2.26972028,-1.06011386,1.23025500

>  <Name>
ligand

>  <RI>
0

>  <Rbt.Current_Directory>
/home/itssahil/PROJECTS/Mol_Feturizer/Test_systems_manuscript/rnas/2xnw

>  <Rbt.Executable>
rbdock ($Id: //depot/dev/client3/rdock/2013.1/src/exe/rbdock.cxx#4 $)

>  <Rbt.Library>
libRbt.so (2013.1, Build901 2013/11/27)

>  <Rbt.Parameter_File>
/export/apps/rDock/src/rDock_2013.1_src/data/scripts/dock_solv.prm

>  <Rbt.Receptor>
prm/blind_docking_20.prm

>  <SCORE>
-6.38038

>  <SCORE.INTER>
-6.38038

>  <SCORE.INTER.CONST>
1

>  <SCORE.INTER.POLAR>
0

>  <SCORE.INTER.ROT>
0

>  <SCORE.INTER.SOLV>
22.0194

>  <SCORE.INTER.VDW>
-15.1934

>  <SCORE.INTER.norm>
-0.638038

>  <SCORE.INTRA>
0

>  <SCORE.INTRA.DIHEDRAL>
0

>  <SCORE.INTRA.DIHEDRAL.0>
0

>  <SCORE.INTRA.POLAR>
0

>  <SCORE.INTRA.POLAR.0>
0

>  <SCORE.INTRA.REPUL>
0

>  <SCORE.INTRA.REPUL.0>
0

>  <SCORE.INTRA.SOLV>
0

>  <SCORE.INTRA.SOLV.lig_0>
-47.9788

>  <SCORE.INTRA.VDW>
0

>  <SCORE.INTRA.VDW.0>
0

>  <SCORE.INTRA.norm>
0

>  <SCORE.RESTR>
0

>  <SCORE.RESTR.CAVITY>
0

>  <SCORE.RESTR.norm>
0

>  <SCORE.SYSTEM>
0

>  <SCORE.SYSTEM.CONST>
0

>  <SCORE.SYSTEM.DIHEDRAL>
0

>  <SCORE.SYSTEM.SOLV>
0

>  <SCORE.SYSTEM.norm>
0

>  <SCORE.heavy>
10

>  <SCORE.norm>
-0.638038

>  <RMSD>
3.811

$$$$
ligand
 OpenBabel02271912133D
libRbt.so/2013.1/901 2013/11/27
 10 11  0  0  0  0  0  0  0  0999 V2000
   11.1238   -1.5692    5.5201 C   0  0  1  0  0  0  0  0  0  0  0  0
   12.2828   -2.7706    8.4979 C   0  0  2  0  0  0  0  0  0  0  0  0
   11.2898   -1.1555    7.5747 C   0  0  2  0  0  0  0  0  0  0  0  0
   10.8276   -1.4783    4.2185 N   0  0  0  0  0  0  0  0  0  0  0  0
   12.8941   -3.9281    8.7299 N   0  0  0  0  0  0  0  0  0  0  0  0
   12.0105   -1.8647    9.4295 N   0  0  0  0  0  0  0  0  0  0  0  0
   10.8266   -0.6484    6.4302 N   0  0  0  0  0  0  0  0  0  0  0  0
   11.7464   -2.6069    6.1088 N   0  0  0  0  0  0  0  0  0  0  0  0
   11.4322   -0.9125    8.8867 N   0  0  0  0  0  0  0  0  0  0  0  0
   11.8357   -2.3507    7.3201 N   0  0  1  0  0  0  0  0  0  0  0  0
  1  4  1  1  0  0  0
  1  8  1  0  0  0  0
  1  7  1  0  0  0  0
  2  5  1  1  0  0  0
  2  6  1  0  0  0  0
  2 10  1  0  0  0  0
  3  7  1  6  0  0  0
  3 10  1  0  0  0  0
  3  9  1  0  0  0  0
  6  9  1  0  0  0  0
 10  8  1  6  0  0  0
M  END
>  <CHROM.1>
11.62970436,-1.93282875,7.27495038,-2.28363634,-1.08196789,1.20659241

>  <Name>
ligand

>  <RI>
0

>  <Rbt.Current_Directory>
/home/itssahil/PROJECTS/Mol_Feturizer/Test_systems_manuscript/rnas/2xnw

>  <Rbt.Executable>
rbdock ($Id: //depot/dev/client3/rdock/2013.1/src/exe/rbdock.cxx#4 $)

>  <Rbt.Library>
libRbt.so (2013.1, Build901 2013/11/27)

>  <Rbt.Parameter_File>
/export/apps/rDock/src/rDock_2013.1_src/data/scripts/dock_solv.prm

>  <Rbt.Receptor>
prm/pocket_docking_4.prm

>  <SCORE>
-6.38347

>  <SCORE.INTER>
-6.38347

>  <SCORE.INTER.CONST>
1

>  <SCORE.INTER.POLAR>
0

>  <SCORE.INTER.ROT>
0

>  <SCORE.INTER.SOLV>
22.2672

>  <SCORE.INTER.VDW>
-15.2781

>  <SCORE.INTER.norm>
-0.638347

>  <SCORE.INTRA>
0

>  <SCORE.INTRA.DIHEDRAL>
0

>  <SCORE.INTRA.DIHEDRAL.0>
0

>  <SCORE.INTRA.POLAR>
0

>  <SCORE.INTRA.POLAR.0>
0

>  <SCORE.INTRA.REPUL>
0

>  <SCORE.INTRA.REPUL.0>
0

>  <SCORE.INTRA.SOLV>
0

>  <SCORE.INTRA.SOLV.lig_0>
-47.9788

>  <SCORE.INTRA.VDW>
0

>  <SCORE.INTRA.VDW.0>
0

>  <SCORE.INTRA.norm>
0

>  <SCORE.RESTR>
0

>  <SCORE.RESTR.CAVITY>
0

>  <SCORE.RESTR.norm>
0

>  <SCORE.SYSTEM>
0

>  <SCORE.SYSTEM.CONST>
0

>  <SCORE.SYSTEM.DIHEDRAL>
0

>  <SCORE.SYSTEM.SOLV>
0

>  <SCORE.SYSTEM.norm>
0

>  <SCORE.heavy>
10

>  <SCORE.norm>
-0.638347

>  <RMSD>
3.813

$$$$
ligand
 OpenBabel02271912133D
libRbt.so/2013.1/901 2013/11/27
 10 11  0  0  0  0  0  0  0  0999 V2000
   11.1142   -1.5695    5.5003 C   0  0  1  0  0  0  0  0  0  0  0  0
   12.3130   -2.7705    8.4626 C   0  0  2  0  0  0  0  0  0  0  0  0
   11.2887   -1.1654    7.5562 C   0  0  2  0  0  0  0  0  0  0  0  0
   10.8072   -1.4755    4.2015 N   0  0  0  0  0  0  0  0  0  0  0  0
   12.9437   -3.9198    8.6832 N   0  0  0  0  0  0  0  0  0  0  0  0
   12.0336   -1.8744    9.4015 N   0  0  0  0  0  0  0  0  0  0  0  0
   10.8095   -0.6588    6.4181 N   0  0  0  0  0  0  0  0  0  0  0  0
   11.7569   -2.6009    6.0784 N   0  0  0  0  0  0  0  0  0  0  0  0
   11.4368   -0.9280    8.8686 N   0  0  0  0  0  0  0  0  0  0  0  0
   11.8511   -2.3505    7.2905 N   0  0  1  0  0  0  0  0  0  0  0  0
  1  4  1  1  0  0  0
  1  8  1  0  0  0  0
  1  7  1  0  0  0  0
  2  5  1  1  0  0  0
  2  6  1  0  0  0  0
  2 10  1  0  0  0  0
  3  7  1  6  0  0  0
  3 10  1  0  0  0  0
  3  9  1  0  0  0  0
  6  9  1  0  0  0  0
 10  8  1  6  0  0  0
M  END
>  <CHROM.1>
11.63829363,-1.93561733,7.24936005,-2.28627293,-1.06502956,1.21023797

>  <Name>
ligand

>  <RI>
0

>  <Rbt.Current_Directory>
/home/itssahil/PROJECTS/Mol_Feturizer/Test_systems_manuscript/rnas/2xnw

>  <Rbt.Executable>
rbdock ($Id: //depot/dev/client3/rdock/2013.1/src/exe/rbdock.cxx#4 $)

>  <Rbt.Library>
libRbt.so (2013.1, Build901 2013/11/27)

>  <Rbt.Parameter_File>
/export/apps/rDock/src/rDock_2013.1_src/data/scripts/dock_solv.prm

>  <Rbt.Receptor>
prm/pocket_docking_3.prm

>  <SCORE>
-6.38702

>  <SCORE.INTER>
-6.38702

>  <SCORE.INTER.CONST>
1

>  <SCORE.INTER.POLAR>
0

>  <SCORE.INTER.ROT>
0

>  <SCORE.INTER.SOLV>
22.0246

>  <SCORE.INTER.VDW>
-15.1995

>  <SCORE.INTER.norm>
-0.638702

>  <SCORE.INTRA>
0

>  <SCORE.INTRA.DIHEDRAL>
0

>  <SCORE.INTRA.DIHEDRAL.0>
0

>  <SCORE.INTRA.POLAR>
0

>  <SCORE.INTRA.POLAR.0>
0

>  <SCORE.INTRA.REPUL>
0

>  <SCORE.INTRA.REPUL.0>
0

>  <SCORE.INTRA.SOLV>
0

>  <SCORE.INTRA.SOLV.lig_0>
-47.9788

>  <SCORE.INTRA.VDW>
0

>  <SCORE.INTRA.VDW.0>
0

>  <SCORE.INTRA.norm>
0

>  <SCORE.RESTR>
0

>  <SCORE.RESTR.CAVITY>
0

>  <SCORE.RESTR.norm>
0

>  <SCORE.SYSTEM>
0

>  <SCORE.SYSTEM.CONST>
0

>  <SCORE.SYSTEM.DIHEDRAL>
0

>  <SCORE.SYSTEM.SOLV>
0

>  <SCORE.SYSTEM.norm>
0

>  <SCORE.heavy>
10

>  <SCORE.norm>
-0.638702

>  <RMSD>
3.814

$$$$
ligand
 OpenBabel02271912133D
libRbt.so/2013.1/901 2013/11/27
 10 11  0  0  0  0  0  0  0  0999 V2000
   11.1158   -1.5777    5.5010 C   0  0  1  0  0  0  0  0  0  0  0  0
   12.3147   -2.7744    8.4649 C   0  0  2  0  0  0  0  0  0  0  0  0
   11.2799   -1.1762    7.5582 C   0  0  2  0  0  0  0  0  0  0  0  0
   10.8124   -1.4837    4.2013 N   0  0  0  0  0  0  0  0  0  0  0  0
   12.9542   -3.9188    8.6854 N   0  0  0  0  0  0  0  0  0  0  0  0
   12.0245   -1.8826    9.4047 N   0  0  0  0  0  0  0  0  0  0  0  0
   10.8004   -0.6714    6.4195 N   0  0  0  0  0  0  0  0  0  0  0  0
   11.7652   -2.6048    6.0792 N   0  0  0  0  0  0  0  0  0  0  0  0
   11.4216   -0.9402    8.8716 N   0  0  0  0  0  0  0  0  0  0  0  0
   11.8531   -2.3561    7.2921 N   0  0  1  0  0  0  0  0  0  0  0  0
  1  4  1  1  0  0  0
  1  8  1  0  0  0  0
  1  7  1  0  0  0  0
  2  5  1  1  0  0  0
  2  6  1  0  0  0  0
  2 10  1  0  0  0  0
  3  7  1  6  0  0  0
  3 10  1  0  0  0  0
  3  9  1  0  0  0  0
  6  9  1  0  0  0  0
 10  8  1  6  0  0  0
M  END
>  <CHROM.1>
11.63704341,-1.94286733,7.25106182,-2.27374316,-1.05831789,1.22315163

>  <Name>
ligand

>  <RI>
0

>  <Rbt.Current_Directory>
/home/itssahil/PROJECTS/Mol_Feturizer/Test_systems_manuscript/rnas/2xnw

>  <Rbt.Executable>
rbdock ($Id: //depot/dev/client3/rdock/2013.1/src/exe/rbdock.cxx#4 $)

>  <Rbt.Library>
libRbt.so (2013.1, Build901 2013/11/27)

>  <Rbt.Parameter_File>
/export/apps/rDock/src/rDock_2013.1_src/data/scripts/dock_solv.prm

>  <Rbt.Receptor>
prm/pocket_docking_5.prm

>  <SCORE>
-6.38901

>  <SCORE.INTER>
-6.38901

>  <SCORE.INTER.CONST>
1

>  <SCORE.INTER.POLAR>
0

>  <SCORE.INTER.ROT>
0

>  <SCORE.INTER.SOLV>
22.0215

>  <SCORE.INTER.VDW>
-15.1998

>  <SCORE.INTER.norm>
-0.638901

>  <SCORE.INTRA>
0

>  <SCORE.INTRA.DIHEDRAL>
0

>  <SCORE.INTRA.DIHEDRAL.0>
0

>  <SCORE.INTRA.POLAR>
0

>  <SCORE.INTRA.POLAR.0>
0

>  <SCORE.INTRA.REPUL>
0

>  <SCORE.INTRA.REPUL.0>
0

>  <SCORE.INTRA.SOLV>
0

>  <SCORE.INTRA.SOLV.lig_0>
-47.9788

>  <SCORE.INTRA.VDW>
0

>  <SCORE.INTRA.VDW.0>
0

>  <SCORE.INTRA.norm>
0

>  <SCORE.RESTR>
0

>  <SCORE.RESTR.CAVITY>
0

>  <SCORE.RESTR.norm>
0

>  <SCORE.SYSTEM>
0

>  <SCORE.SYSTEM.CONST>
0

>  <SCORE.SYSTEM.DIHEDRAL>
0

>  <SCORE.SYSTEM.SOLV>
0

>  <SCORE.SYSTEM.norm>
0

>  <SCORE.heavy>
10

>  <SCORE.norm>
-0.638901

>  <RMSD>
3.814

$$$$
ligand
 OpenBabel02271912133D
libRbt.so/2013.1/901 2013/11/27
 10 11  0  0  0  0  0  0  0  0999 V2000
   11.1107   -1.5574    5.5052 C   0  0  1  0  0  0  0  0  0  0  0  0
   12.3193   -2.7336    8.4734 C   0  0  2  0  0  0  0  0  0  0  0  0
   11.2898   -1.1373    7.5574 C   0  0  2  0  0  0  0  0  0  0  0  0
   10.8002   -1.4739    4.2065 N   0  0  0  0  0  0  0  0  0  0  0  0
   12.9526   -3.8800    8.7011 N   0  0  0  0  0  0  0  0  0  0  0  0
   12.0407   -1.8308    9.4062 N   0  0  0  0  0  0  0  0  0  0  0  0
   10.8068   -0.6402    6.4167 N   0  0  0  0  0  0  0  0  0  0  0  0
   11.7567   -2.5833    6.0894 N   0  0  0  0  0  0  0  0  0  0  0  0
   11.4408   -0.8896    8.8676 N   0  0  0  0  0  0  0  0  0  0  0  0
   11.8536   -2.3234    7.2993 N   0  0  1  0  0  0  0  0  0  0  0  0
  1  4  1  1  0  0  0
  1  8  1  0  0  0  0
  1  7  1  0  0  0  0
  2  5  1  1  0  0  0
  2  6  1  0  0  0  0
  2 10  1  0  0  0  0
  3  7  1  6  0  0  0
  3 10  1  0  0  0  0
  3  9  1  0  0  0  0
  6  9  1  0  0  0  0
 10  8  1  6  0  0  0
M  END
>  <CHROM.1>
11.63997149,-1.90920826,7.25556805,-2.28994655,-1.06245227,1.19937788

>  <Name>
ligand

>  <RI>
0

>  <Rbt.Current_Directory>
/home/itssahil/PROJECTS/Mol_Feturizer/Test_systems_manuscript/rnas/2xnw

>  <Rbt.Executable>
rbdock ($Id: //depot/dev/client3/rdock/2013.1/src/exe/rbdock.cxx#4 $)

>  <Rbt.Library>
libRbt.so (2013.1, Build901 2013/11/27)

>  <Rbt.Parameter_File>
/export/apps/rDock/src/rDock_2013.1_src/data/scripts/dock_solv.prm

>  <Rbt.Receptor>
prm/pocket_docking_4.prm

>  <SCORE>
-6.3778

>  <SCORE.INTER>
-6.3778

>  <SCORE.INTER.CONST>
1

>  <SCORE.INTER.POLAR>
0

>  <SCORE.INTER.ROT>
0

>  <SCORE.INTER.SOLV>
22.0129

>  <SCORE.INTER.VDW>
-15.1895

>  <SCORE.INTER.norm>
-0.63778

>  <SCORE.INTRA>
0

>  <SCORE.INTRA.DIHEDRAL>
0

>  <SCORE.INTRA.DIHEDRAL.0>
0

>  <SCORE.INTRA.POLAR>
0

>  <SCORE.INTRA.POLAR.0>
0

>  <SCORE.INTRA.REPUL>
0

>  <SCORE.INTRA.REPUL.0>
0

>  <SCORE.INTRA.SOLV>
0

>  <SCORE.INTRA.SOLV.lig_0>
-47.9788

>  <SCORE.INTRA.VDW>
0

>  <SCORE.INTRA.VDW.0>
0

>  <SCORE.INTRA.norm>
0

>  <SCORE.RESTR>
0

>  <SCORE.RESTR.CAVITY>
0

>  <SCORE.RESTR.norm>
0

>  <SCORE.SYSTEM>
0

>  <SCORE.SYSTEM.CONST>
0

>  <SCORE.SYSTEM.DIHEDRAL>
0

>  <SCORE.SYSTEM.SOLV>
0

>  <SCORE.SYSTEM.norm>
0

>  <SCORE.heavy>
10

>  <SCORE.norm>
-0.63778

>  <RMSD>
3.815

$$$$
ligand
 OpenBabel02271912133D
libRbt.so/2013.1/901 2013/11/27
 10 11  0  0  0  0  0  0  0  0999 V2000
   11.1119   -1.5647    5.5045 C   0  0  1  0  0  0  0  0  0  0  0  0
   12.3096   -2.7441    8.4758 C   0  0  2  0  0  0  0  0  0  0  0  0
   11.2793   -1.1490    7.5586 C   0  0  2  0  0  0  0  0  0  0  0  0
   10.8076   -1.4789    4.2045 N   0  0  0  0  0  0  0  0  0  0  0  0
   12.9456   -3.8890    8.7039 N   0  0  0  0  0  0  0  0  0  0  0  0
   12.0233   -1.8446    9.4094 N   0  0  0  0  0  0  0  0  0  0  0  0
   10.8004   -0.6507    6.4168 N   0  0  0  0  0  0  0  0  0  0  0  0
   11.7584   -2.5898    6.0894 N   0  0  0  0  0  0  0  0  0  0  0  0
   11.4230   -0.9041    8.8702 N   0  0  0  0  0  0  0  0  0  0  0  0
   11.8484   -2.3326    7.3004 N   0  0  1  0  0  0  0  0  0  0  0  0
  1  4  1  1  0  0  0
  1  8  1  0  0  0  0
  1  7  1  0  0  0  0
  2  5  1  1  0  0  0
  2  6  1  0  0  0  0
  2 10  1  0  0  0  0
  3  7  1  6  0  0  0
  3 10  1  0  0  0  0
  3  9  1  0  0  0  0
  6  9  1  0  0  0  0
 10  8  1  6  0  0  0
M  END
>  <CHROM.1>
11.63360304,-1.91902715,7.25663170,-2.27793519,-1.06110975,1.21234309

>  <Name>
ligand

>  <RI>
0

>  <Rbt.Current_Directory>
/home/itssahil/PROJECTS/Mol_Feturizer/Test_systems_manuscript/rnas/2xnw

>  <Rbt.Executable>
rbdock ($Id: //depot/dev/client3/rdock/2013.1/src/exe/rbdock.cxx#4 $)

>  <Rbt.Library>
libRbt.so (2013.1, Build901 2013/11/27)

>  <Rbt.Parameter_File>
/export/apps/rDock/src/rDock_2013.1_src/data/scripts/dock_solv.prm

>  <Rbt.Receptor>
prm/blind_docking_40.prm

>  <SCORE>
-6.37698

>  <SCORE.INTER>
-6.37698

>  <SCORE.INTER.CONST>
1

>  <SCORE.INTER.POLAR>
0

>  <SCORE.INTER.ROT>
0

>  <SCORE.INTER.SOLV>
22.0536

>  <SCORE.INTER.VDW>
-15.2025

>  <SCORE.INTER.norm>
-0.637698

>  <SCORE.INTRA>
0

>  <SCORE.INTRA.DIHEDRAL>
0

>  <SCORE.INTRA.DIHEDRAL.0>
0

>  <SCORE.INTRA.POLAR>
0

>  <SCORE.INTRA.POLAR.0>
0

>  <SCORE.INTRA.REPUL>
0

>  <SCORE.INTRA.REPUL.0>
0

>  <SCORE.INTRA.SOLV>
0

>  <SCORE.INTRA.SOLV.lig_0>
-47.9788

>  <SCORE.INTRA.VDW>
0

>  <SCORE.INTRA.VDW.0>
0

>  <SCORE.INTRA.norm>
0

>  <SCORE.RESTR>
0

>  <SCORE.RESTR.CAVITY>
0

>  <SCORE.RESTR.norm>
0

>  <SCORE.SYSTEM>
0

>  <SCORE.SYSTEM.CONST>
0

>  <SCORE.SYSTEM.DIHEDRAL>
0

>  <SCORE.SYSTEM.SOLV>
0

>  <SCORE.SYSTEM.norm>
0

>  <SCORE.heavy>
10

>  <SCORE.norm>
-0.637698

>  <RMSD>
3.816

$$$$
ligand
 OpenBabel02271912133D
libRbt.so/2013.1/901 2013/11/27
 10 11  0  0  0  0  0  0  0  0999 V2000
   11.1132   -1.5652    5.5016 C   0  0  1  0  0  0  0  0  0  0  0  0
   12.3040   -2.7482    8.4743 C   0  0  2  0  0  0  0  0  0  0  0  0
   11.2834   -1.1480    7.5551 C   0  0  2  0  0  0  0  0  0  0  0  0
   10.8092   -1.4794    4.2015 N   0  0  0  0  0  0  0  0  0  0  0  0
   12.9328   -3.8967    8.7038 N   0  0  0  0  0  0  0  0  0  0  0  0
   12.0233   -1.8457    9.4067 N   0  0  0  0  0  0  0  0  0  0  0  0
   10.8074   -0.6482    6.4127 N   0  0  0  0  0  0  0  0  0  0  0  0
   11.7534   -2.5936    6.0877 N   0  0  0  0  0  0  0  0  0  0  0  0
   11.4288   -0.9022    8.8663 N   0  0  0  0  0  0  0  0  0  0  0  0
   11.8451   -2.3354    7.2984 N   0  0  1  0  0  0  0  0  0  0  0  0
  1  4  1  1  0  0  0
  1  8  1  0  0  0  0
  1  7  1  0  0  0  0
  2  5  1  1  0  0  0
  2  6  1  0  0  0  0
  2 10  1  0  0  0  0
  3  7  1  6  0  0  0
  3 10  1  0  0  0  0
  3  9  1  0  0  0  0
  6  9  1  0  0  0  0
 10  8  1  6  0  0  0
M  END
>  <CHROM.1>
11.63288761,-1.92053725,7.25410678,-2.28268676,-1.06685680,1.20687152

>  <Name>
ligand

>  <RI>
0

>  <Rbt.Current_Directory>
/home/itssahil/PROJECTS/Mol_Feturizer/Test_systems_manuscript/rnas/2xnw

>  <Rbt.Executable>
rbdock ($Id: //depot/dev/client3/rdock/2013.1/src/exe/rbdock.cxx#4 $)

>  <Rbt.Library>
libRbt.so (2013.1, Build901 2013/11/27)

>  <Rbt.Parameter_File>
/export/apps/rDock/src/rDock_2013.1_src/data/scripts/dock_solv.prm

>  <Rbt.Receptor>
prm/blind_docking_60.prm

>  <SCORE>
-6.37672

>  <SCORE.INTER>
-6.37672

>  <SCORE.INTER.CONST>
1

>  <SCORE.INTER.POLAR>
0

>  <SCORE.INTER.ROT>
0

>  <SCORE.INTER.SOLV>
22.0869

>  <SCORE.INTER.VDW>
-15.2135

>  <SCORE.INTER.norm>
-0.637672

>  <SCORE.INTRA>
0

>  <SCORE.INTRA.DIHEDRAL>
0

>  <SCORE.INTRA.DIHEDRAL.0>
0

>  <SCORE.INTRA.POLAR>
0

>  <SCORE.INTRA.POLAR.0>
0

>  <SCORE.INTRA.REPUL>
0

>  <SCORE.INTRA.REPUL.0>
0

>  <SCORE.INTRA.SOLV>
0

>  <SCORE.INTRA.SOLV.lig_0>
-47.9788

>  <SCORE.INTRA.VDW>
0

>  <SCORE.INTRA.VDW.0>
0

>  <SCORE.INTRA.norm>
0

>  <SCORE.RESTR>
0

>  <SCORE.RESTR.CAVITY>
0

>  <SCORE.RESTR.norm>
0

>  <SCORE.SYSTEM>
0

>  <SCORE.SYSTEM.CONST>
0

>  <SCORE.SYSTEM.DIHEDRAL>
0

>  <SCORE.SYSTEM.SOLV>
0

>  <SCORE.SYSTEM.norm>
0

>  <SCORE.heavy>
10

>  <SCORE.norm>
-0.637672

>  <RMSD>
3.816

$$$$
ligand
 OpenBabel02271912133D
libRbt.so/2013.1/901 2013/11/27
 10 11  0  0  0  0  0  0  0  0999 V2000
   11.1261   -1.5740    5.5086 C   0  0  1  0  0  0  0  0  0  0  0  0
   12.3353   -2.7449    8.4787 C   0  0  2  0  0  0  0  0  0  0  0  0
   11.3108   -1.1475    7.5590 C   0  0  2  0  0  0  0  0  0  0  0  0
   10.8134   -1.4937    4.2102 N   0  0  0  0  0  0  0  0  0  0  0  0
   12.9641   -3.8932    8.7093 N   0  0  0  0  0  0  0  0  0  0  0  0
   12.0623   -1.8377    9.4088 N   0  0  0  0  0  0  0  0  0  0  0  0
   10.8278   -0.6524    6.4175 N   0  0  0  0  0  0  0  0  0  0  0  0
   11.7688   -2.6006    6.0952 N   0  0  0  0  0  0  0  0  0  0  0  0
   11.4654   -0.8958    8.8681 N   0  0  0  0  0  0  0  0  0  0  0  0
   11.8691   -2.3369    7.3041 N   0  0  1  0  0  0  0  0  0  0  0  0
  1  4  1  1  0  0  0
  1  8  1  0  0  0  0
  1  7  1  0  0  0  0
  2  5  1  1  0  0  0
  2  6  1  0  0  0  0
  2 10  1  0  0  0  0
  3  7  1  6  0  0  0
  3 10  1  0  0  0  0
  3  9  1  0  0  0  0
  6  9  1  0  0  0  0
 10  8  1  6  0  0  0
M  END
>  <CHROM.1>
11.65715506,-1.92195128,7.25925141,-2.29678577,-1.06570282,1.18989121

>  <Name>
ligand

>  <RI>
0

>  <Rbt.Current_Directory>
/home/itssahil/PROJECTS/Mol_Feturizer/Test_systems_manuscript/rnas/2xnw

>  <Rbt.Executable>
rbdock ($Id: //depot/dev/client3/rdock/2013.1/src/exe/rbdock.cxx#4 $)

>  <Rbt.Library>
libRbt.so (2013.1, Build901 2013/11/27)

>  <Rbt.Parameter_File>
/export/apps/rDock/src/rDock_2013.1_src/data/scripts/dock_solv.prm

>  <Rbt.Receptor>
prm/pocket_docking_3.prm

>  <SCORE>
-6.37381

>  <SCORE.INTER>
-6.37381

>  <SCORE.INTER.CONST>
1

>  <SCORE.INTER.POLAR>
0

>  <SCORE.INTER.ROT>
0

>  <SCORE.INTER.SOLV>
22.0691

>  <SCORE.INTER.VDW>
-15.2056

>  <SCORE.INTER.norm>
-0.637381

>  <SCORE.INTRA>
0

>  <SCORE.INTRA.DIHEDRAL>
0

>  <SCORE.INTRA.DIHEDRAL.0>
0

>  <SCORE.INTRA.POLAR>
0

>  <SCORE.INTRA.POLAR.0>
0

>  <SCORE.INTRA.REPUL>
0

>  <SCORE.INTRA.REPUL.0>
0

>  <SCORE.INTRA.SOLV>
0

>  <SCORE.INTRA.SOLV.lig_0>
-47.9788

>  <SCORE.INTRA.VDW>
0

>  <SCORE.INTRA.VDW.0>
0

>  <SCORE.INTRA.norm>
0

>  <SCORE.RESTR>
0

>  <SCORE.RESTR.CAVITY>
0

>  <SCORE.RESTR.norm>
0

>  <SCORE.SYSTEM>
0

>  <SCORE.SYSTEM.CONST>
0

>  <SCORE.SYSTEM.DIHEDRAL>
0

>  <SCORE.SYSTEM.SOLV>
0

>  <SCORE.SYSTEM.norm>
0

>  <SCORE.heavy>
10

>  <SCORE.norm>
-0.637381

>  <RMSD>
3.816

$$$$
ligand
 OpenBabel02271912133D
libRbt.so/2013.1/901 2013/11/27
 10 11  0  0  0  0  0  0  0  0999 V2000
   11.1211   -1.5780    5.5012 C   0  0  1  0  0  0  0  0  0  0  0  0
   12.2983   -2.7693    8.4760 C   0  0  2  0  0  0  0  0  0  0  0  0
   11.2579   -1.1795    7.5610 C   0  0  2  0  0  0  0  0  0  0  0  0
   10.8315   -1.4842    4.1984 N   0  0  0  0  0  0  0  0  0  0  0  0
   12.9468   -3.9077    8.7013 N   0  0  0  0  0  0  0  0  0  0  0  0
   11.9886   -1.8825    9.4143 N   0  0  0  0  0  0  0  0  0  0  0  0
   10.7862   -0.6770    6.4180 N   0  0  0  0  0  0  0  0  0  0  0  0
   11.7742   -2.5999    6.0845 N   0  0  0  0  0  0  0  0  0  0  0  0
   11.3823   -0.9450    8.8764 N   0  0  0  0  0  0  0  0  0  0  0  0
   11.8459   -2.3530    7.2989 N   0  0  1  0  0  0  0  0  0  0  0  0
  1  4  1  1  0  0  0
  1  8  1  0  0  0  0
  1  7  1  0  0  0  0
  2  5  1  1  0  0  0
  2  6  1  0  0  0  0
  2 10  1  0  0  0  0
  3  7  1  6  0  0  0
  3 10  1  0  0  0  0
  3  9  1  0  0  0  0
  6  9  1  0  0  0  0
 10  8  1  6  0  0  0
M  END
>  <CHROM.1>
11.62613317,-1.94187560,7.25628247,-2.24541384,-1.05256813,1.24997842

>  <Name>
ligand

>  <RI>
0

>  <Rbt.Current_Directory>
/home/itssahil/PROJECTS/Mol_Feturizer/Test_systems_manuscript/rnas/2xnw

>  <Rbt.Executable>
rbdock ($Id: //depot/dev/client3/rdock/2013.1/src/exe/rbdock.cxx#4 $)

>  <Rbt.Library>
libRbt.so (2013.1, Build901 2013/11/27)

>  <Rbt.Parameter_File>
/export/apps/rDock/src/rDock_2013.1_src/data/scripts/dock_solv.prm

>  <Rbt.Receptor>
prm/pocket_docking_3.prm

>  <SCORE>
-6.37788

>  <SCORE.INTER>
-6.37788

>  <SCORE.INTER.CONST>
1

>  <SCORE.INTER.POLAR>
0

>  <SCORE.INTER.ROT>
0

>  <SCORE.INTER.SOLV>
22.1027

>  <SCORE.INTER.VDW>
-15.2195

>  <SCORE.INTER.norm>
-0.637788

>  <SCORE.INTRA>
0

>  <SCORE.INTRA.DIHEDRAL>
0

>  <SCORE.INTRA.DIHEDRAL.0>
0

>  <SCORE.INTRA.POLAR>
0

>  <SCORE.INTRA.POLAR.0>
0

>  <SCORE.INTRA.REPUL>
0

>  <SCORE.INTRA.REPUL.0>
0

>  <SCORE.INTRA.SOLV>
0

>  <SCORE.INTRA.SOLV.lig_0>
-47.9788

>  <SCORE.INTRA.VDW>
0

>  <SCORE.INTRA.VDW.0>
0

>  <SCORE.INTRA.norm>
0

>  <SCORE.RESTR>
0

>  <SCORE.RESTR.CAVITY>
0

>  <SCORE.RESTR.norm>
0

>  <SCORE.SYSTEM>
0

>  <SCORE.SYSTEM.CONST>
0

>  <SCORE.SYSTEM.DIHEDRAL>
0

>  <SCORE.SYSTEM.SOLV>
0

>  <SCORE.SYSTEM.norm>
0

>  <SCORE.heavy>
10

>  <SCORE.norm>
-0.637788

>  <RMSD>
3.816

$$$$
ligand
 OpenBabel02271912133D
libRbt.so/2013.1/901 2013/11/27
 10 11  0  0  0  0  0  0  0  0999 V2000
   11.1169   -1.5720    5.5069 C   0  0  1  0  0  0  0  0  0  0  0  0
   12.3113   -2.7491    8.4805 C   0  0  2  0  0  0  0  0  0  0  0  0
   11.2895   -1.1507    7.5595 C   0  0  2  0  0  0  0  0  0  0  0  0
   10.8115   -1.4886    4.2070 N   0  0  0  0  0  0  0  0  0  0  0  0
   12.9405   -3.8971    8.7115 N   0  0  0  0  0  0  0  0  0  0  0  0
   12.0317   -1.8448    9.4115 N   0  0  0  0  0  0  0  0  0  0  0  0
   10.8122   -0.6532    6.4166 N   0  0  0  0  0  0  0  0  0  0  0  0
   11.7579   -2.5991    6.0943 N   0  0  0  0  0  0  0  0  0  0  0  0
   11.4365   -0.9024    8.8700 N   0  0  0  0  0  0  0  0  0  0  0  0
   11.8510   -2.3386    7.3044 N   0  0  1  0  0  0  0  0  0  0  0  0
  1  4  1  1  0  0  0
  1  8  1  0  0  0  0
  1  7  1  0  0  0  0
  2  5  1  1  0  0  0
  2  6  1  0  0  0  0
  2 10  1  0  0  0  0
  3  7  1  6  0  0  0
  3 10  1  0  0  0  0
  3  9  1  0  0  0  0
  6  9  1  0  0  0  0
 10  8  1  6  0  0  0
M  END
>  <CHROM.1>
11.63872371,-1.92382624,7.25951635,-2.28489040,-1.06637575,1.20300790

>  <Name>
ligand

>  <RI>
0

>  <Rbt.Current_Directory>
/home/itssahil/PROJECTS/Mol_Feturizer/Test_systems_manuscript/rnas/2xnw

>  <Rbt.Executable>
rbdock ($Id: //depot/dev/client3/rdock/2013.1/src/exe/rbdock.cxx#4 $)

>  <Rbt.Library>
libRbt.so (2013.1, Build901 2013/11/27)

>  <Rbt.Parameter_File>
/export/apps/rDock/src/rDock_2013.1_src/data/scripts/dock_solv.prm

>  <Rbt.Receptor>
prm/pocket_docking_4.prm

>  <SCORE>
-6.37595

>  <SCORE.INTER>
-6.37595

>  <SCORE.INTER.CONST>
1

>  <SCORE.INTER.POLAR>
0

>  <SCORE.INTER.ROT>
0

>  <SCORE.INTER.SOLV>
22.1025

>  <SCORE.INTER.VDW>
-15.2181

>  <SCORE.INTER.norm>
-0.637595

>  <SCORE.INTRA>
0

>  <SCORE.INTRA.DIHEDRAL>
0

>  <SCORE.INTRA.DIHEDRAL.0>
0

>  <SCORE.INTRA.POLAR>
0

>  <SCORE.INTRA.POLAR.0>
0

>  <SCORE.INTRA.REPUL>
0

>  <SCORE.INTRA.REPUL.0>
0

>  <SCORE.INTRA.SOLV>
0

>  <SCORE.INTRA.SOLV.lig_0>
-47.9788

>  <SCORE.INTRA.VDW>
0

>  <SCORE.INTRA.VDW.0>
0

>  <SCORE.INTRA.norm>
0

>  <SCORE.RESTR>
0

>  <SCORE.RESTR.CAVITY>
0

>  <SCORE.RESTR.norm>
0

>  <SCORE.SYSTEM>
0

>  <SCORE.SYSTEM.CONST>
0

>  <SCORE.SYSTEM.DIHEDRAL>
0

>  <SCORE.SYSTEM.SOLV>
0

>  <SCORE.SYSTEM.norm>
0

>  <SCORE.heavy>
10

>  <SCORE.norm>
-0.637595

>  <RMSD>
3.816

$$$$
ligand
 OpenBabel02271912133D
libRbt.so/2013.1/901 2013/11/27
 10 11  0  0  0  0  0  0  0  0999 V2000
   11.1169   -1.5760    5.4969 C   0  0  1  0  0  0  0  0  0  0  0  0
   12.3083   -2.7676    8.4659 C   0  0  2  0  0  0  0  0  0  0  0  0
   11.2730   -1.1724    7.5543 C   0  0  2  0  0  0  0  0  0  0  0  0
   10.8177   -1.4837    4.1961 N   0  0  0  0  0  0  0  0  0  0  0  0
   12.9496   -3.9104    8.6895 N   0  0  0  0  0  0  0  0  0  0  0  0
   12.0129   -1.8756    9.4039 N   0  0  0  0  0  0  0  0  0  0  0  0
   10.7963   -0.6696    6.4136 N   0  0  0  0  0  0  0  0  0  0  0  0
   11.7666   -2.6012    6.0781 N   0  0  0  0  0  0  0  0  0  0  0  0
   11.4097   -0.9350    8.8680 N   0  0  0  0  0  0  0  0  0  0  0  0
   11.8498   -2.3512    7.2912 N   0  0  1  0  0  0  0  0  0  0  0  0
  1  4  1  1  0  0  0
  1  8  1  0  0  0  0
  1  7  1  0  0  0  0
  2  5  1  1  0  0  0
  2  6  1  0  0  0  0
  2 10  1  0  0  0  0
  3  7  1  6  0  0  0
  3 10  1  0  0  0  0
  3  9  1  0  0  0  0
  6  9  1  0  0  0  0
 10  8  1  6  0  0  0
M  END
>  <CHROM.1>
11.63293231,-1.93852586,7.24903239,-2.26567791,-1.05738713,1.22935004

>  <Name>
ligand

>  <RI>
0

>  <Rbt.Current_Directory>
/home/itssahil/PROJECTS/Mol_Feturizer/Test_systems_manuscript/rnas/2xnw

>  <Rbt.Executable>
rbdock ($Id: //depot/dev/client3/rdock/2013.1/src/exe/rbdock.cxx#4 $)

>  <Rbt.Library>
libRbt.so (2013.1, Build901 2013/11/27)

>  <Rbt.Parameter_File>
/export/apps/rDock/src/rDock_2013.1_src/data/scripts/dock_solv.prm

>  <Rbt.Receptor>
prm/pocket_docking_4.prm

>  <SCORE>
-6.38886

>  <SCORE.INTER>
-6.38886

>  <SCORE.INTER.CONST>
1

>  <SCORE.INTER.POLAR>
0

>  <SCORE.INTER.ROT>
0

>  <SCORE.INTER.SOLV>
22.0515

>  <SCORE.INTER.VDW>
-15.2097

>  <SCORE.INTER.norm>
-0.638886

>  <SCORE.INTRA>
0

>  <SCORE.INTRA.DIHEDRAL>
0

>  <SCORE.INTRA.DIHEDRAL.0>
0

>  <SCORE.INTRA.POLAR>
0

>  <SCORE.INTRA.POLAR.0>
0

>  <SCORE.INTRA.REPUL>
0

>  <SCORE.INTRA.REPUL.0>
0

>  <SCORE.INTRA.SOLV>
0

>  <SCORE.INTRA.SOLV.lig_0>
-47.9788

>  <SCORE.INTRA.VDW>
0

>  <SCORE.INTRA.VDW.0>
0

>  <SCORE.INTRA.norm>
0

>  <SCORE.RESTR>
0

>  <SCORE.RESTR.CAVITY>
0

>  <SCORE.RESTR.norm>
0

>  <SCORE.SYSTEM>
0

>  <SCORE.SYSTEM.CONST>
0

>  <SCORE.SYSTEM.DIHEDRAL>
0

>  <SCORE.SYSTEM.SOLV>
0

>  <SCORE.SYSTEM.norm>
0

>  <SCORE.heavy>
10

>  <SCORE.norm>
-0.638886

>  <RMSD>
3.816

$$$$
ligand
 OpenBabel02271912133D
libRbt.so/2013.1/901 2013/11/27
 10 11  0  0  0  0  0  0  0  0999 V2000
   11.1120   -1.5653    5.5089 C   0  0  1  0  0  0  0  0  0  0  0  0
   12.3044   -2.7418    8.4835 C   0  0  2  0  0  0  0  0  0  0  0  0
   11.2827   -1.1438    7.5615 C   0  0  2  0  0  0  0  0  0  0  0  0
   10.8075   -1.4822    4.2087 N   0  0  0  0  0  0  0  0  0  0  0  0
   12.9339   -3.8895    8.7151 N   0  0  0  0  0  0  0  0  0  0  0  0
   12.0237   -1.8375    9.4143 N   0  0  0  0  0  0  0  0  0  0  0  0
   10.8061   -0.6466    6.4183 N   0  0  0  0  0  0  0  0  0  0  0  0
   11.7529   -2.5922    6.0969 N   0  0  0  0  0  0  0  0  0  0  0  0
   11.4285   -0.8954    8.8722 N   0  0  0  0  0  0  0  0  0  0  0  0
   11.8449   -2.3315    7.3070 N   0  0  1  0  0  0  0  0  0  0  0  0
  1  4  1  1  0  0  0
  1  8  1  0  0  0  0
  1  7  1  0  0  0  0
  2  5  1  1  0  0  0
  2  6  1  0  0  0  0
  2 10  1  0  0  0  0
  3  7  1  6  0  0  0
  3 10  1  0  0  0  0
  3  9  1  0  0  0  0
  6  9  1  0  0  0  0
 10  8  1  6  0  0  0
M  END
>  <CHROM.1>
11.63249620,-1.91685321,7.26194293,-2.28303055,-1.06628344,1.20455853

>  <Name>
ligand

>  <RI>
0

>  <Rbt.Current_Directory>
/home/itssahil/PROJECTS/Mol_Feturizer/Test_systems_manuscript/rnas/2xnw

>  <Rbt.Executable>
rbdock ($Id: //depot/dev/client3/rdock/2013.1/src/exe/rbdock.cxx#4 $)

>  <Rbt.Library>
libRbt.so (2013.1, Build901 2013/11/27)

>  <Rbt.Parameter_File>
/export/apps/rDock/src/rDock_2013.1_src/data/scripts/dock_solv.prm

>  <Rbt.Receptor>
prm/pocket_docking_4.prm

>  <SCORE>
-6.37579

>  <SCORE.INTER>
-6.37579

>  <SCORE.INTER.CONST>
1

>  <SCORE.INTER.POLAR>
0

>  <SCORE.INTER.ROT>
0

>  <SCORE.INTER.SOLV>
22.1001

>  <SCORE.INTER.VDW>
-15.2172

>  <SCORE.INTER.norm>
-0.637579

>  <SCORE.INTRA>
0

>  <SCORE.INTRA.DIHEDRAL>
0

>  <SCORE.INTRA.DIHEDRAL.0>
0

>  <SCORE.INTRA.POLAR>
0

>  <SCORE.INTRA.POLAR.0>
0

>  <SCORE.INTRA.REPUL>
0

>  <SCORE.INTRA.REPUL.0>
0

>  <SCORE.INTRA.SOLV>
0

>  <SCORE.INTRA.SOLV.lig_0>
-47.9788

>  <SCORE.INTRA.VDW>
0

>  <SCORE.INTRA.VDW.0>
0

>  <SCORE.INTRA.norm>
0

>  <SCORE.RESTR>
0

>  <SCORE.RESTR.CAVITY>
0

>  <SCORE.RESTR.norm>
0

>  <SCORE.SYSTEM>
0

>  <SCORE.SYSTEM.CONST>
0

>  <SCORE.SYSTEM.DIHEDRAL>
0

>  <SCORE.SYSTEM.SOLV>
0

>  <SCORE.SYSTEM.norm>
0

>  <SCORE.heavy>
10

>  <SCORE.norm>
-0.637579

>  <RMSD>
3.816

$$$$
ligand
 OpenBabel02271912133D
libRbt.so/2013.1/901 2013/11/27
 10 11  0  0  0  0  0  0  0  0999 V2000
   11.1214   -1.5747    5.5030 C   0  0  1  0  0  0  0  0  0  0  0  0
   12.2906   -2.7644    8.4816 C   0  0  2  0  0  0  0  0  0  0  0  0
   11.2653   -1.1681    7.5608 C   0  0  2  0  0  0  0  0  0  0  0  0
   10.8308   -1.4839    4.2002 N   0  0  0  0  0  0  0  0  0  0  0  0
   12.9276   -3.9083    8.7113 N   0  0  0  0  0  0  0  0  0  0  0  0
   11.9914   -1.8701    9.4162 N   0  0  0  0  0  0  0  0  0  0  0  0
   10.7971   -0.6660    6.4161 N   0  0  0  0  0  0  0  0  0  0  0  0
   11.7647   -2.6006    6.0902 N   0  0  0  0  0  0  0  0  0  0  0  0
   11.3941   -0.9289    8.8749 N   0  0  0  0  0  0  0  0  0  0  0  0
   11.8408   -2.3488    7.3033 N   0  0  1  0  0  0  0  0  0  0  0  0
  1  4  1  1  0  0  0
  1  8  1  0  0  0  0
  1  7  1  0  0  0  0
  2  5  1  1  0  0  0
  2  6  1  0  0  0  0
  2 10  1  0  0  0  0
  3  7  1  6  0  0  0
  3 10  1  0  0  0  0
  3  9  1  0  0  0  0
  6  9  1  0  0  0  0
 10  8  1  6  0  0  0
M  END
>  <CHROM.1>
11.62520238,-1.93563377,7.25906744,-2.25495399,-1.06188420,1.23704595

>  <Name>
ligand

>  <RI>
0

>  <Rbt.Current_Directory>
/home/itssahil/PROJECTS/Mol_Feturizer/Test_systems_manuscript/rnas/2xnw

>  <Rbt.Executable>
rbdock ($Id: //depot/dev/client3/rdock/2013.1/src/exe/rbdock.cxx#4 $)

>  <Rbt.Library>
libRbt.so (2013.1, Build901 2013/11/27)

>  <Rbt.Parameter_File>
/export/apps/rDock/src/rDock_2013.1_src/data/scripts/dock_solv.prm

>  <Rbt.Receptor>
prm/pocket_docking_7.prm

>  <SCORE>
-6.40608

>  <SCORE.INTER>
-6.40608

>  <SCORE.INTER.CONST>
1

>  <SCORE.INTER.POLAR>
0

>  <SCORE.INTER.ROT>
0

>  <SCORE.INTER.SOLV>
22.1592

>  <SCORE.INTER.VDW>
-15.2571

>  <SCORE.INTER.norm>
-0.640608

>  <SCORE.INTRA>
0

>  <SCORE.INTRA.DIHEDRAL>
0

>  <SCORE.INTRA.DIHEDRAL.0>
0

>  <SCORE.INTRA.POLAR>
0

>  <SCORE.INTRA.POLAR.0>
0

>  <SCORE.INTRA.REPUL>
0

>  <SCORE.INTRA.REPUL.0>
0

>  <SCORE.INTRA.SOLV>
0

>  <SCORE.INTRA.SOLV.lig_0>
-47.9788

>  <SCORE.INTRA.VDW>
0

>  <SCORE.INTRA.VDW.0>
0

>  <SCORE.INTRA.norm>
0

>  <SCORE.RESTR>
0

>  <SCORE.RESTR.CAVITY>
0

>  <SCORE.RESTR.norm>
0

>  <SCORE.SYSTEM>
0

>  <SCORE.SYSTEM.CONST>
0

>  <SCORE.SYSTEM.DIHEDRAL>
0

>  <SCORE.SYSTEM.SOLV>
0

>  <SCORE.SYSTEM.norm>
0

>  <SCORE.heavy>
10

>  <SCORE.norm>
-0.640608

>  <RMSD>
3.816

$$$$
ligand
 OpenBabel02271912133D
libRbt.so/2013.1/901 2013/11/27
 10 11  0  0  0  0  0  0  0  0999 V2000
   11.1091   -1.5613    5.5101 C   0  0  1  0  0  0  0  0  0  0  0  0
   12.3104   -2.7337    8.4827 C   0  0  2  0  0  0  0  0  0  0  0  0
   11.2850   -1.1375    7.5619 C   0  0  2  0  0  0  0  0  0  0  0  0
   10.8011   -1.4797    4.2106 N   0  0  0  0  0  0  0  0  0  0  0  0
   12.9414   -3.8807    8.7138 N   0  0  0  0  0  0  0  0  0  0  0  0
   12.0314   -1.8287    9.4133 N   0  0  0  0  0  0  0  0  0  0  0  0
   10.8049   -0.6419    6.4193 N   0  0  0  0  0  0  0  0  0  0  0  0
   11.7524   -2.5870    6.0974 N   0  0  0  0  0  0  0  0  0  0  0  0
   11.4340   -0.8876    8.8718 N   0  0  0  0  0  0  0  0  0  0  0  0
   11.8474   -2.3250    7.3071 N   0  0  1  0  0  0  0  0  0  0  0  0
  1  4  1  1  0  0  0
  1  8  1  0  0  0  0
  1  7  1  0  0  0  0
  2  5  1  1  0  0  0
  2  6  1  0  0  0  0
  2 10  1  0  0  0  0
  3  7  1  6  0  0  0
  3 10  1  0  0  0  0
  3  9  1  0  0  0  0
  6  9  1  0  0  0  0
 10  8  1  6  0  0  0
M  END
>  <CHROM.1>
11.63456611,-1.91056688,7.26210709,-2.28755427,-1.06456545,1.19958342

>  <Name>
ligand

>  <RI>
0

>  <Rbt.Current_Directory>
/home/itssahil/PROJECTS/Mol_Feturizer/Test_systems_manuscript/rnas/2xnw

>  <Rbt.Executable>
rbdock ($Id: //depot/dev/client3/rdock/2013.1/src/exe/rbdock.cxx#4 $)

>  <Rbt.Library>
libRbt.so (2013.1, Build901 2013/11/27)

>  <Rbt.Parameter_File>
/export/apps/rDock/src/rDock_2013.1_src/data/scripts/dock_solv.prm

>  <Rbt.Receptor>
prm/pocket_docking_7.prm

>  <SCORE>
-6.37709

>  <SCORE.INTER>
-6.37709

>  <SCORE.INTER.CONST>
1

>  <SCORE.INTER.POLAR>
0

>  <SCORE.INTER.ROT>
0

>  <SCORE.INTER.SOLV>
22.0638

>  <SCORE.INTER.VDW>
-15.206

>  <SCORE.INTER.norm>
-0.637709

>  <SCORE.INTRA>
0

>  <SCORE.INTRA.DIHEDRAL>
0

>  <SCORE.INTRA.DIHEDRAL.0>
0

>  <SCORE.INTRA.POLAR>
0

>  <SCORE.INTRA.POLAR.0>
0

>  <SCORE.INTRA.REPUL>
0

>  <SCORE.INTRA.REPUL.0>
0

>  <SCORE.INTRA.SOLV>
0

>  <SCORE.INTRA.SOLV.lig_0>
-47.9788

>  <SCORE.INTRA.VDW>
0

>  <SCORE.INTRA.VDW.0>
0

>  <SCORE.INTRA.norm>
0

>  <SCORE.RESTR>
0

>  <SCORE.RESTR.CAVITY>
0

>  <SCORE.RESTR.norm>
0

>  <SCORE.SYSTEM>
0

>  <SCORE.SYSTEM.CONST>
0

>  <SCORE.SYSTEM.DIHEDRAL>
0

>  <SCORE.SYSTEM.SOLV>
0

>  <SCORE.SYSTEM.norm>
0

>  <SCORE.heavy>
10

>  <SCORE.norm>
-0.637709

>  <RMSD>
3.816

$$$$
ligand
 OpenBabel02271912133D
libRbt.so/2013.1/901 2013/11/27
 10 11  0  0  0  0  0  0  0  0999 V2000
   11.1317   -1.5820    5.4943 C   0  0  1  0  0  0  0  0  0  0  0  0
   12.3240   -2.7781    8.4612 C   0  0  2  0  0  0  0  0  0  0  0  0
   11.3126   -1.1688    7.5479 C   0  0  2  0  0  0  0  0  0  0  0  0
   10.8237   -1.4920    4.1955 N   0  0  0  0  0  0  0  0  0  0  0  0
   12.9448   -3.9318    8.6869 N   0  0  0  0  0  0  0  0  0  0  0  0
   12.0538   -1.8748    9.3958 N   0  0  0  0  0  0  0  0  0  0  0  0
   10.8363   -0.6639    6.4078 N   0  0  0  0  0  0  0  0  0  0  0  0
   11.7661   -2.6161    6.0769 N   0  0  0  0  0  0  0  0  0  0  0  0
   11.4646   -0.9259    8.8588 N   0  0  0  0  0  0  0  0  0  0  0  0
   11.8641   -2.3602    7.2876 N   0  0  1  0  0  0  0  0  0  0  0  0
  1  4  1  1  0  0  0
  1  8  1  0  0  0  0
  1  7  1  0  0  0  0
  2  5  1  1  0  0  0
  2  6  1  0  0  0  0
  2 10  1  0  0  0  0
  3  7  1  6  0  0  0
  3 10  1  0  0  0  0
  3  9  1  0  0  0  0
  6  9  1  0  0  0  0
 10  8  1  6  0  0  0
M  END
>  <CHROM.1>
11.65498485,-1.94366981,7.24454387,-2.29549502,-1.07276243,1.19696671

>  <Name>
ligand

>  <RI>
0

>  <Rbt.Current_Directory>
/home/itssahil/PROJECTS/Mol_Feturizer/Test_systems_manuscript/rnas/2xnw

>  <Rbt.Executable>
rbdock ($Id: //depot/dev/client3/rdock/2013.1/src/exe/rbdock.cxx#4 $)

>  <Rbt.Library>
libRbt.so (2013.1, Build901 2013/11/27)

>  <Rbt.Parameter_File>
/export/apps/rDock/src/rDock_2013.1_src/data/scripts/dock_solv.prm

>  <Rbt.Receptor>
prm/pocket_docking_8.prm

>  <SCORE>
-6.37783

>  <SCORE.INTER>
-6.37783

>  <SCORE.INTER.CONST>
1

>  <SCORE.INTER.POLAR>
0

>  <SCORE.INTER.ROT>
0

>  <SCORE.INTER.SOLV>
22.1114

>  <SCORE.INTER.VDW>
-15.2224

>  <SCORE.INTER.norm>
-0.637783

>  <SCORE.INTRA>
0

>  <SCORE.INTRA.DIHEDRAL>
0

>  <SCORE.INTRA.DIHEDRAL.0>
0

>  <SCORE.INTRA.POLAR>
0

>  <SCORE.INTRA.POLAR.0>
0

>  <SCORE.INTRA.REPUL>
0

>  <SCORE.INTRA.REPUL.0>
0

>  <SCORE.INTRA.SOLV>
0

>  <SCORE.INTRA.SOLV.lig_0>
-47.9788

>  <SCORE.INTRA.VDW>
0

>  <SCORE.INTRA.VDW.0>
0

>  <SCORE.INTRA.norm>
0

>  <SCORE.RESTR>
0

>  <SCORE.RESTR.CAVITY>
0

>  <SCORE.RESTR.norm>
0

>  <SCORE.SYSTEM>
0

>  <SCORE.SYSTEM.CONST>
0

>  <SCORE.SYSTEM.DIHEDRAL>
0

>  <SCORE.SYSTEM.SOLV>
0

>  <SCORE.SYSTEM.norm>
0

>  <SCORE.heavy>
10

>  <SCORE.norm>
-0.637783

>  <RMSD>
3.816

$$$$
ligand
 OpenBabel02271912133D
libRbt.so/2013.1/901 2013/11/27
 10 11  0  0  0  0  0  0  0  0999 V2000
   11.1125   -1.5590    5.5066 C   0  0  1  0  0  0  0  0  0  0  0  0
   12.3248   -2.7250    8.4773 C   0  0  2  0  0  0  0  0  0  0  0  0
   11.2873   -1.1355    7.5585 C   0  0  2  0  0  0  0  0  0  0  0  0
   10.8027   -1.4787    4.2075 N   0  0  0  0  0  0  0  0  0  0  0  0
   12.9641   -3.8677    8.7070 N   0  0  0  0  0  0  0  0  0  0  0  0
   12.0403   -1.8227    9.4088 N   0  0  0  0  0  0  0  0  0  0  0  0
   10.8026   -0.6424    6.4168 N   0  0  0  0  0  0  0  0  0  0  0  0
   11.7636   -2.5806    6.0926 N   0  0  0  0  0  0  0  0  0  0  0  0
   11.4358   -0.8855    8.8686 N   0  0  0  0  0  0  0  0  0  0  0  0
   11.8579   -2.3188    7.3024 N   0  0  1  0  0  0  0  0  0  0  0  0
  1  4  1  1  0  0  0
  1  8  1  0  0  0  0
  1  7  1  0  0  0  0
  2  5  1  1  0  0  0
  2  6  1  0  0  0  0
  2 10  1  0  0  0  0
  3  7  1  6  0  0  0
  3 10  1  0  0  0  0
  3  9  1  0  0  0  0
  6  9  1  0  0  0  0
 10  8  1  6  0  0  0
M  END
>  <CHROM.1>
11.64202357,-1.90583693,7.25790888,-2.28411880,-1.05765897,1.20330332

>  <Name>
ligand

>  <RI>
0

>  <Rbt.Current_Directory>
/home/itssahil/PROJECTS/Mol_Feturizer/Test_systems_manuscript/rnas/2xnw

>  <Rbt.Executable>
rbdock ($Id: //depot/dev/client3/rdock/2013.1/src/exe/rbdock.cxx#4 $)

>  <Rbt.Library>
libRbt.so (2013.1, Build901 2013/11/27)

>  <Rbt.Parameter_File>
/export/apps/rDock/src/rDock_2013.1_src/data/scripts/dock_solv.prm

>  <Rbt.Receptor>
prm/pocket_docking_8.prm

>  <SCORE>
-6.37832

>  <SCORE.INTER>
-6.37832

>  <SCORE.INTER.CONST>
1

>  <SCORE.INTER.POLAR>
0

>  <SCORE.INTER.ROT>
0

>  <SCORE.INTER.SOLV>
22.0133

>  <SCORE.INTER.VDW>
-15.19

>  <SCORE.INTER.norm>
-0.637832

>  <SCORE.INTRA>
0

>  <SCORE.INTRA.DIHEDRAL>
0

>  <SCORE.INTRA.DIHEDRAL.0>
0

>  <SCORE.INTRA.POLAR>
0

>  <SCORE.INTRA.POLAR.0>
0

>  <SCORE.INTRA.REPUL>
0

>  <SCORE.INTRA.REPUL.0>
0

>  <SCORE.INTRA.SOLV>
0

>  <SCORE.INTRA.SOLV.lig_0>
-47.9788

>  <SCORE.INTRA.VDW>
0

>  <SCORE.INTRA.VDW.0>
0

>  <SCORE.INTRA.norm>
0

>  <SCORE.RESTR>
0

>  <SCORE.RESTR.CAVITY>
0

>  <SCORE.RESTR.norm>
0

>  <SCORE.SYSTEM>
0

>  <SCORE.SYSTEM.CONST>
0

>  <SCORE.SYSTEM.DIHEDRAL>
0

>  <SCORE.SYSTEM.SOLV>
0

>  <SCORE.SYSTEM.norm>
0

>  <SCORE.heavy>
10

>  <SCORE.norm>
-0.637832

>  <RMSD>
3.816

$$$$
ligand
 OpenBabel02271912133D
libRbt.so/2013.1/901 2013/11/27
 10 11  0  0  0  0  0  0  0  0999 V2000
   11.1117   -1.5578    5.4996 C   0  0  1  0  0  0  0  0  0  0  0  0
   12.3142   -2.7321    8.4710 C   0  0  2  0  0  0  0  0  0  0  0  0
   11.2771   -1.1415    7.5537 C   0  0  2  0  0  0  0  0  0  0  0  0
   10.8072   -1.4734    4.1995 N   0  0  0  0  0  0  0  0  0  0  0  0
   12.9550   -3.8743    8.6992 N   0  0  0  0  0  0  0  0  0  0  0  0
   12.0239   -1.8338    9.4046 N   0  0  0  0  0  0  0  0  0  0  0  0
   10.7962   -0.6452    6.4118 N   0  0  0  0  0  0  0  0  0  0  0  0
   11.7626   -2.5802    6.0846 N   0  0  0  0  0  0  0  0  0  0  0  0
   11.4196   -0.8959    8.8653 N   0  0  0  0  0  0  0  0  0  0  0  0
   11.8513   -2.3226    7.2956 N   0  0  1  0  0  0  0  0  0  0  0  0
  1  4  1  1  0  0  0
  1  8  1  0  0  0  0
  1  7  1  0  0  0  0
  2  5  1  1  0  0  0
  2  6  1  0  0  0  0
  2 10  1  0  0  0  0
  3  7  1  6  0  0  0
  3 10  1  0  0  0  0
  3  9  1  0  0  0  0
  6  9  1  0  0  0  0
 10  8  1  6  0  0  0
M  END
>  <CHROM.1>
11.63474097,-1.90994403,7.25177457,-2.27464204,-1.05713514,1.21519927

>  <Name>
ligand

>  <RI>
0

>  <Rbt.Current_Directory>
/home/itssahil/PROJECTS/Mol_Feturizer/Test_systems_manuscript/rnas/2xnw

>  <Rbt.Executable>
rbdock ($Id: //depot/dev/client3/rdock/2013.1/src/exe/rbdock.cxx#4 $)

>  <Rbt.Library>
libRbt.so (2013.1, Build901 2013/11/27)

>  <Rbt.Parameter_File>
/export/apps/rDock/src/rDock_2013.1_src/data/scripts/dock_solv.prm

>  <Rbt.Receptor>
prm/blind_docking_100.prm

>  <SCORE>
-6.37808

>  <SCORE.INTER>
-6.37808

>  <SCORE.INTER.CONST>
1

>  <SCORE.INTER.POLAR>
0

>  <SCORE.INTER.ROT>
0

>  <SCORE.INTER.SOLV>
22.0205

>  <SCORE.INTER.VDW>
-15.1922

>  <SCORE.INTER.norm>
-0.637808

>  <SCORE.INTRA>
0

>  <SCORE.INTRA.DIHEDRAL>
0

>  <SCORE.INTRA.DIHEDRAL.0>
0

>  <SCORE.INTRA.POLAR>
0

>  <SCORE.INTRA.POLAR.0>
0

>  <SCORE.INTRA.REPUL>
0

>  <SCORE.INTRA.REPUL.0>
0

>  <SCORE.INTRA.SOLV>
0

>  <SCORE.INTRA.SOLV.lig_0>
-47.9788

>  <SCORE.INTRA.VDW>
0

>  <SCORE.INTRA.VDW.0>
0

>  <SCORE.INTRA.norm>
0

>  <SCORE.RESTR>
0

>  <SCORE.RESTR.CAVITY>
0

>  <SCORE.RESTR.norm>
0

>  <SCORE.SYSTEM>
0

>  <SCORE.SYSTEM.CONST>
0

>  <SCORE.SYSTEM.DIHEDRAL>
0

>  <SCORE.SYSTEM.SOLV>
0

>  <SCORE.SYSTEM.norm>
0

>  <SCORE.heavy>
10

>  <SCORE.norm>
-0.637808

>  <RMSD>
3.817

$$$$
ligand
 OpenBabel02271912133D
libRbt.so/2013.1/901 2013/11/27
 10 11  0  0  0  0  0  0  0  0999 V2000
   11.1258   -1.5857    5.4954 C   0  0  1  0  0  0  0  0  0  0  0  0
   12.3096   -2.7720    8.4696 C   0  0  2  0  0  0  0  0  0  0  0  0
   11.2764   -1.1787    7.5526 C   0  0  2  0  0  0  0  0  0  0  0  0
   10.8301   -1.4957    4.1937 N   0  0  0  0  0  0  0  0  0  0  0  0
   12.9507   -3.9142    8.6968 N   0  0  0  0  0  0  0  0  0  0  0  0
   12.0115   -1.8785    9.4053 N   0  0  0  0  0  0  0  0  0  0  0  0
   10.8025   -0.6779    6.4097 N   0  0  0  0  0  0  0  0  0  0  0  0
   11.7742   -2.6097    6.0801 N   0  0  0  0  0  0  0  0  0  0  0  0
   11.4095   -0.9390    8.8662 N   0  0  0  0  0  0  0  0  0  0  0  0
   11.8542   -2.3577    7.2929 N   0  0  1  0  0  0  0  0  0  0  0  0
  1  4  1  1  0  0  0
  1  8  1  0  0  0  0
  1  7  1  0  0  0  0
  2  5  1  1  0  0  0
  2  6  1  0  0  0  0
  2 10  1  0  0  0  0
  3  7  1  6  0  0  0
  3 10  1  0  0  0  0
  3  9  1  0  0  0  0
  6  9  1  0  0  0  0
 10  8  1  6  0  0  0
M  END
>  <CHROM.1>
11.63729237,-1.94518373,7.24952429,-2.26036543,-1.05797494,1.23231151

>  <Name>
ligand

>  <RI>
0

>  <Rbt.Current_Directory>
/home/itssahil/PROJECTS/Mol_Feturizer/Test_systems_manuscript/rnas/2xnw

>  <Rbt.Executable>
rbdock ($Id: //depot/dev/client3/rdock/2013.1/src/exe/rbdock.cxx#4 $)

>  <Rbt.Library>
libRbt.so (2013.1, Build901 2013/11/27)

>  <Rbt.Parameter_File>
/export/apps/rDock/src/rDock_2013.1_src/data/scripts/dock_solv.prm

>  <Rbt.Receptor>
prm/blind_docking_40.prm

>  <SCORE>
-6.38355

>  <SCORE.INTER>
-6.38355

>  <SCORE.INTER.CONST>
1

>  <SCORE.INTER.POLAR>
0

>  <SCORE.INTER.ROT>
0

>  <SCORE.INTER.SOLV>
22.1106

>  <SCORE.INTER.VDW>
-15.2259

>  <SCORE.INTER.norm>
-0.638355

>  <SCORE.INTRA>
0

>  <SCORE.INTRA.DIHEDRAL>
0

>  <SCORE.INTRA.DIHEDRAL.0>
0

>  <SCORE.INTRA.POLAR>
0

>  <SCORE.INTRA.POLAR.0>
0

>  <SCORE.INTRA.REPUL>
0

>  <SCORE.INTRA.REPUL.0>
0

>  <SCORE.INTRA.SOLV>
0

>  <SCORE.INTRA.SOLV.lig_0>
-47.9788

>  <SCORE.INTRA.VDW>
0

>  <SCORE.INTRA.VDW.0>
0

>  <SCORE.INTRA.norm>
0

>  <SCORE.RESTR>
0

>  <SCORE.RESTR.CAVITY>
0

>  <SCORE.RESTR.norm>
0

>  <SCORE.SYSTEM>
0

>  <SCORE.SYSTEM.CONST>
0

>  <SCORE.SYSTEM.DIHEDRAL>
0

>  <SCORE.SYSTEM.SOLV>
0

>  <SCORE.SYSTEM.norm>
0

>  <SCORE.heavy>
10

>  <SCORE.norm>
-0.638355

>  <RMSD>
3.817

$$$$
ligand
 OpenBabel02271912133D
libRbt.so/2013.1/901 2013/11/27
 10 11  0  0  0  0  0  0  0  0999 V2000
   11.1162   -1.5630    5.5034 C   0  0  1  0  0  0  0  0  0  0  0  0
   12.3194   -2.7288    8.4779 C   0  0  2  0  0  0  0  0  0  0  0  0
   11.2867   -1.1383    7.5555 C   0  0  2  0  0  0  0  0  0  0  0  0
   10.8097   -1.4831    4.2035 N   0  0  0  0  0  0  0  0  0  0  0  0
   12.9563   -3.8724    8.7100 N   0  0  0  0  0  0  0  0  0  0  0  0
   12.0341   -1.8254    9.4080 N   0  0  0  0  0  0  0  0  0  0  0  0
   10.8056   -0.6453    6.4122 N   0  0  0  0  0  0  0  0  0  0  0  0
   11.7642   -2.5852    6.0918 N   0  0  0  0  0  0  0  0  0  0  0  0
   11.4324   -0.8875    8.8657 N   0  0  0  0  0  0  0  0  0  0  0  0
   11.8560   -2.3227    7.3015 N   0  0  1  0  0  0  0  0  0  0  0  0
  1  4  1  1  0  0  0
  1  8  1  0  0  0  0
  1  7  1  0  0  0  0
  2  5  1  1  0  0  0
  2  6  1  0  0  0  0
  2 10  1  0  0  0  0
  3  7  1  6  0  0  0
  3 10  1  0  0  0  0
  3  9  1  0  0  0  0
  6  9  1  0  0  0  0
 10  8  1  6  0  0  0
M  END
>  <CHROM.1>
11.64089523,-1.90940709,7.25625772,-2.28065526,-1.06002039,1.20559799

>  <Name>
ligand

>  <RI>
0

>  <Rbt.Current_Directory>
/home/itssahil/PROJECTS/Mol_Feturizer/Test_systems_manuscript/rnas/2xnw

>  <Rbt.Executable>
rbdock ($Id: //depot/dev/client3/rdock/2013.1/src/exe/rbdock.cxx#4 $)

>  <Rbt.Library>
libRbt.so (2013.1, Build901 2013/11/27)

>  <Rbt.Parameter_File>
/export/apps/rDock/src/rDock_2013.1_src/data/scripts/dock_solv.prm

>  <Rbt.Receptor>
prm/blind_docking_60.prm

>  <SCORE>
-6.37907

>  <SCORE.INTER>
-6.37907

>  <SCORE.INTER.CONST>
1

>  <SCORE.INTER.POLAR>
0

>  <SCORE.INTER.ROT>
0

>  <SCORE.INTER.SOLV>
22.0581

>  <SCORE.INTER.VDW>
-15.2054

>  <SCORE.INTER.norm>
-0.637907

>  <SCORE.INTRA>
0

>  <SCORE.INTRA.DIHEDRAL>
0

>  <SCORE.INTRA.DIHEDRAL.0>
0

>  <SCORE.INTRA.POLAR>
0

>  <SCORE.INTRA.POLAR.0>
0

>  <SCORE.INTRA.REPUL>
0

>  <SCORE.INTRA.REPUL.0>
0

>  <SCORE.INTRA.SOLV>
0

>  <SCORE.INTRA.SOLV.lig_0>
-47.9788

>  <SCORE.INTRA.VDW>
0

>  <SCORE.INTRA.VDW.0>
0

>  <SCORE.INTRA.norm>
0

>  <SCORE.RESTR>
0

>  <SCORE.RESTR.CAVITY>
0

>  <SCORE.RESTR.norm>
0

>  <SCORE.SYSTEM>
0

>  <SCORE.SYSTEM.CONST>
0

>  <SCORE.SYSTEM.DIHEDRAL>
0

>  <SCORE.SYSTEM.SOLV>
0

>  <SCORE.SYSTEM.norm>
0

>  <SCORE.heavy>
10

>  <SCORE.norm>
-0.637907

>  <RMSD>
3.817

$$$$
ligand
 OpenBabel02271912133D
libRbt.so/2013.1/901 2013/11/27
 10 11  0  0  0  0  0  0  0  0999 V2000
   11.1091   -1.5555    5.5046 C   0  0  1  0  0  0  0  0  0  0  0  0
   12.3187   -2.7194    8.4772 C   0  0  2  0  0  0  0  0  0  0  0  0
   11.2772   -1.1332    7.5573 C   0  0  2  0  0  0  0  0  0  0  0  0
   10.8021   -1.4752    4.2048 N   0  0  0  0  0  0  0  0  0  0  0  0
   12.9620   -3.8598    8.7074 N   0  0  0  0  0  0  0  0  0  0  0  0
   12.0284   -1.8191    9.4088 N   0  0  0  0  0  0  0  0  0  0  0  0
   10.7934   -0.6410    6.4149 N   0  0  0  0  0  0  0  0  0  0  0  0
   11.7628   -2.5751    6.0913 N   0  0  0  0  0  0  0  0  0  0  0  0
   11.4215   -0.8837    8.8679 N   0  0  0  0  0  0  0  0  0  0  0  0
   11.8531   -2.3140    7.3015 N   0  0  1  0  0  0  0  0  0  0  0  0
  1  4  1  1  0  0  0
  1  8  1  0  0  0  0
  1  7  1  0  0  0  0
  2  5  1  1  0  0  0
  2  6  1  0  0  0  0
  2 10  1  0  0  0  0
  3  7  1  6  0  0  0
  3 10  1  0  0  0  0
  3  9  1  0  0  0  0
  6  9  1  0  0  0  0
 10  8  1  6  0  0  0
M  END
>  <CHROM.1>
11.63570706,-1.90183078,7.25685728,-2.27662582,-1.05484023,1.21071381

>  <Name>
ligand

>  <RI>
0

>  <Rbt.Current_Directory>
/home/itssahil/PROJECTS/Mol_Feturizer/Test_systems_manuscript/rnas/2xnw

>  <Rbt.Executable>
rbdock ($Id: //depot/dev/client3/rdock/2013.1/src/exe/rbdock.cxx#4 $)

>  <Rbt.Library>
libRbt.so (2013.1, Build901 2013/11/27)

>  <Rbt.Parameter_File>
/export/apps/rDock/src/rDock_2013.1_src/data/scripts/dock_solv.prm

>  <Rbt.Receptor>
prm/blind_docking_80.prm

>  <SCORE>
-6.37915

>  <SCORE.INTER>
-6.37915

>  <SCORE.INTER.CONST>
1

>  <SCORE.INTER.POLAR>
0

>  <SCORE.INTER.ROT>
0

>  <SCORE.INTER.SOLV>
22.0083

>  <SCORE.INTER.VDW>
-15.1889

>  <SCORE.INTER.norm>
-0.637915

>  <SCORE.INTRA>
0

>  <SCORE.INTRA.DIHEDRAL>
0

>  <SCORE.INTRA.DIHEDRAL.0>
0

>  <SCORE.INTRA.POLAR>
0

>  <SCORE.INTRA.POLAR.0>
0

>  <SCORE.INTRA.REPUL>
0

>  <SCORE.INTRA.REPUL.0>
0

>  <SCORE.INTRA.SOLV>
0

>  <SCORE.INTRA.SOLV.lig_0>
-47.9788

>  <SCORE.INTRA.VDW>
0

>  <SCORE.INTRA.VDW.0>
0

>  <SCORE.INTRA.norm>
0

>  <SCORE.RESTR>
0

>  <SCORE.RESTR.CAVITY>
0

>  <SCORE.RESTR.norm>
0

>  <SCORE.SYSTEM>
0

>  <SCORE.SYSTEM.CONST>
0

>  <SCORE.SYSTEM.DIHEDRAL>
0

>  <SCORE.SYSTEM.SOLV>
0

>  <SCORE.SYSTEM.norm>
0

>  <SCORE.heavy>
10

>  <SCORE.norm>
-0.637915

>  <RMSD>
3.817

$$$$
ligand
 OpenBabel02271912133D
libRbt.so/2013.1/901 2013/11/27
 10 11  0  0  0  0  0  0  0  0999 V2000
   11.1274   -1.5834    5.4969 C   0  0  1  0  0  0  0  0  0  0  0  0
   12.3070   -2.7716    8.4719 C   0  0  2  0  0  0  0  0  0  0  0  0
   11.2654   -1.1830    7.5562 C   0  0  2  0  0  0  0  0  0  0  0  0
   10.8369   -1.4908    4.1941 N   0  0  0  0  0  0  0  0  0  0  0  0
   12.9561   -3.9095    8.6978 N   0  0  0  0  0  0  0  0  0  0  0  0
   11.9976   -1.8840    9.4096 N   0  0  0  0  0  0  0  0  0  0  0  0
   10.7927   -0.6816    6.4131 N   0  0  0  0  0  0  0  0  0  0  0  0
   11.7812   -2.6045    6.0807 N   0  0  0  0  0  0  0  0  0  0  0  0
   11.3906   -0.9473    8.8713 N   0  0  0  0  0  0  0  0  0  0  0  0
   11.8537   -2.3564    7.2948 N   0  0  1  0  0  0  0  0  0  0  0  0
  1  4  1  1  0  0  0
  1  8  1  0  0  0  0
  1  7  1  0  0  0  0
  2  5  1  1  0  0  0
  2  6  1  0  0  0  0
  2 10  1  0  0  0  0
  3  7  1  6  0  0  0
  3 10  1  0  0  0  0
  3  9  1  0  0  0  0
  6  9  1  0  0  0  0
 10  8  1  6  0  0  0
M  END
>  <CHROM.1>
11.63372342,-1.94545397,7.25192839,-2.24642007,-1.05197600,1.24821503

>  <Name>
ligand

>  <RI>
0

>  <Rbt.Current_Directory>
/home/itssahil/PROJECTS/Mol_Feturizer/Test_systems_manuscript/rnas/2xnw

>  <Rbt.Executable>
rbdock ($Id: //depot/dev/client3/rdock/2013.1/src/exe/rbdock.cxx#4 $)

>  <Rbt.Library>
libRbt.so (2013.1, Build901 2013/11/27)

>  <Rbt.Parameter_File>
/export/apps/rDock/src/rDock_2013.1_src/data/scripts/dock_solv.prm

>  <Rbt.Receptor>
prm/pocket_docking_3.prm

>  <SCORE>
-6.37699

>  <SCORE.INTER>
-6.37699

>  <SCORE.INTER.CONST>
1

>  <SCORE.INTER.POLAR>
0

>  <SCORE.INTER.ROT>
0

>  <SCORE.INTER.SOLV>
22.1049

>  <SCORE.INTER.VDW>
-15.2196

>  <SCORE.INTER.norm>
-0.637699

>  <SCORE.INTRA>
0

>  <SCORE.INTRA.DIHEDRAL>
0

>  <SCORE.INTRA.DIHEDRAL.0>
0

>  <SCORE.INTRA.POLAR>
0

>  <SCORE.INTRA.POLAR.0>
0

>  <SCORE.INTRA.REPUL>
0

>  <SCORE.INTRA.REPUL.0>
0

>  <SCORE.INTRA.SOLV>
0

>  <SCORE.INTRA.SOLV.lig_0>
-47.9788

>  <SCORE.INTRA.VDW>
0

>  <SCORE.INTRA.VDW.0>
0

>  <SCORE.INTRA.norm>
0

>  <SCORE.RESTR>
0

>  <SCORE.RESTR.CAVITY>
0

>  <SCORE.RESTR.norm>
0

>  <SCORE.SYSTEM>
0

>  <SCORE.SYSTEM.CONST>
0

>  <SCORE.SYSTEM.DIHEDRAL>
0

>  <SCORE.SYSTEM.SOLV>
0

>  <SCORE.SYSTEM.norm>
0

>  <SCORE.heavy>
10

>  <SCORE.norm>
-0.637699

>  <RMSD>
3.817

$$$$
ligand
 OpenBabel02271912133D
libRbt.so/2013.1/901 2013/11/27
 10 11  0  0  0  0  0  0  0  0999 V2000
   11.1128   -1.5614    5.5004 C   0  0  1  0  0  0  0  0  0  0  0  0
   12.3160   -2.7367    8.4711 C   0  0  2  0  0  0  0  0  0  0  0  0
   11.2816   -1.1442    7.5542 C   0  0  2  0  0  0  0  0  0  0  0  0
   10.8069   -1.4770    4.2007 N   0  0  0  0  0  0  0  0  0  0  0  0
   12.9544   -3.8803    8.6992 N   0  0  0  0  0  0  0  0  0  0  0  0
   12.0290   -1.8372    9.4045 N   0  0  0  0  0  0  0  0  0  0  0  0
   10.8005   -0.6475    6.4125 N   0  0  0  0  0  0  0  0  0  0  0  0
   11.7619   -2.5849    6.0853 N   0  0  0  0  0  0  0  0  0  0  0  0
   11.4263   -0.8981    8.8654 N   0  0  0  0  0  0  0  0  0  0  0  0
   11.8527   -2.3268    7.2961 N   0  0  1  0  0  0  0  0  0  0  0  0
  1  4  1  1  0  0  0
  1  8  1  0  0  0  0
  1  7  1  0  0  0  0
  2  5  1  1  0  0  0
  2  6  1  0  0  0  0
  2 10  1  0  0  0  0
  3  7  1  6  0  0  0
  3 10  1  0  0  0  0
  3  9  1  0  0  0  0
  6  9  1  0  0  0  0
 10  8  1  6  0  0  0
M  END
>  <CHROM.1>
11.63707219,-1.91366200,7.25222767,-2.27862467,-1.05891515,1.21113933

>  <Name>
ligand

>  <RI>
0

>  <Rbt.Current_Directory>
/home/itssahil/PROJECTS/Mol_Feturizer/Test_systems_manuscript/rnas/2xnw

>  <Rbt.Executable>
rbdock ($Id: //depot/dev/client3/rdock/2013.1/src/exe/rbdock.cxx#4 $)

>  <Rbt.Library>
libRbt.so (2013.1, Build901 2013/11/27)

>  <Rbt.Parameter_File>
/export/apps/rDock/src/rDock_2013.1_src/data/scripts/dock_solv.prm

>  <Rbt.Receptor>
prm/pocket_docking_3.prm

>  <SCORE>
-6.37873

>  <SCORE.INTER>
-6.37873

>  <SCORE.INTER.CONST>
1

>  <SCORE.INTER.POLAR>
0

>  <SCORE.INTER.ROT>
0

>  <SCORE.INTER.SOLV>
22.0269

>  <SCORE.INTER.VDW>
-15.1948

>  <SCORE.INTER.norm>
-0.637873

>  <SCORE.INTRA>
0

>  <SCORE.INTRA.DIHEDRAL>
0

>  <SCORE.INTRA.DIHEDRAL.0>
0

>  <SCORE.INTRA.POLAR>
0

>  <SCORE.INTRA.POLAR.0>
0

>  <SCORE.INTRA.REPUL>
0

>  <SCORE.INTRA.REPUL.0>
0

>  <SCORE.INTRA.SOLV>
0

>  <SCORE.INTRA.SOLV.lig_0>
-47.9788

>  <SCORE.INTRA.VDW>
0

>  <SCORE.INTRA.VDW.0>
0

>  <SCORE.INTRA.norm>
0

>  <SCORE.RESTR>
0

>  <SCORE.RESTR.CAVITY>
0

>  <SCORE.RESTR.norm>
0

>  <SCORE.SYSTEM>
0

>  <SCORE.SYSTEM.CONST>
0

>  <SCORE.SYSTEM.DIHEDRAL>
0

>  <SCORE.SYSTEM.SOLV>
0

>  <SCORE.SYSTEM.norm>
0

>  <SCORE.heavy>
10

>  <SCORE.norm>
-0.637873

>  <RMSD>
3.817

$$$$
ligand
 OpenBabel02271912133D
libRbt.so/2013.1/901 2013/11/27
 10 11  0  0  0  0  0  0  0  0999 V2000
   11.1143   -1.5637    5.5077 C   0  0  1  0  0  0  0  0  0  0  0  0
   12.3171   -2.7264    8.4836 C   0  0  2  0  0  0  0  0  0  0  0  0
   11.2833   -1.1375    7.5596 C   0  0  2  0  0  0  0  0  0  0  0  0
   10.8084   -1.4849    4.2076 N   0  0  0  0  0  0  0  0  0  0  0  0
   12.9550   -3.8692    8.7167 N   0  0  0  0  0  0  0  0  0  0  0  0
   12.0304   -1.8226    9.4130 N   0  0  0  0  0  0  0  0  0  0  0  0
   10.8024   -0.6456    6.4158 N   0  0  0  0  0  0  0  0  0  0  0  0
   11.7630   -2.5849    6.0971 N   0  0  0  0  0  0  0  0  0  0  0  0
   11.4281   -0.8857    8.8697 N   0  0  0  0  0  0  0  0  0  0  0  0
   11.8539   -2.3215    7.3067 N   0  0  1  0  0  0  0  0  0  0  0  0
  1  4  1  1  0  0  0
  1  8  1  0  0  0  0
  1  7  1  0  0  0  0
  2  5  1  1  0  0  0
  2  6  1  0  0  0  0
  2 10  1  0  0  0  0
  3  7  1  6  0  0  0
  3 10  1  0  0  0  0
  3  9  1  0  0  0  0
  6  9  1  0  0  0  0
 10  8  1  6  0  0  0
M  END
>  <CHROM.1>
11.63844288,-1.90843603,7.26106258,-2.27896865,-1.05931879,1.20640992

>  <Name>
ligand

>  <RI>
0

>  <Rbt.Current_Directory>
/home/itssahil/PROJECTS/Mol_Feturizer/Test_systems_manuscript/rnas/2xnw

>  <Rbt.Executable>
rbdock ($Id: //depot/dev/client3/rdock/2013.1/src/exe/rbdock.cxx#4 $)

>  <Rbt.Library>
libRbt.so (2013.1, Build901 2013/11/27)

>  <Rbt.Parameter_File>
/export/apps/rDock/src/rDock_2013.1_src/data/scripts/dock_solv.prm

>  <Rbt.Receptor>
prm/pocket_docking_3.prm

>  <SCORE>
-6.37875

>  <SCORE.INTER>
-6.37875

>  <SCORE.INTER.CONST>
1

>  <SCORE.INTER.POLAR>
0

>  <SCORE.INTER.ROT>
0

>  <SCORE.INTER.SOLV>
22.0683

>  <SCORE.INTER.VDW>
-15.2086

>  <SCORE.INTER.norm>
-0.637875

>  <SCORE.INTRA>
0

>  <SCORE.INTRA.DIHEDRAL>
0

>  <SCORE.INTRA.DIHEDRAL.0>
0

>  <SCORE.INTRA.POLAR>
0

>  <SCORE.INTRA.POLAR.0>
0

>  <SCORE.INTRA.REPUL>
0

>  <SCORE.INTRA.REPUL.0>
0

>  <SCORE.INTRA.SOLV>
0

>  <SCORE.INTRA.SOLV.lig_0>
-47.9788

>  <SCORE.INTRA.VDW>
0

>  <SCORE.INTRA.VDW.0>
0

>  <SCORE.INTRA.norm>
0

>  <SCORE.RESTR>
0

>  <SCORE.RESTR.CAVITY>
0

>  <SCORE.RESTR.norm>
0

>  <SCORE.SYSTEM>
0

>  <SCORE.SYSTEM.CONST>
0

>  <SCORE.SYSTEM.DIHEDRAL>
0

>  <SCORE.SYSTEM.SOLV>
0

>  <SCORE.SYSTEM.norm>
0

>  <SCORE.heavy>
10

>  <SCORE.norm>
-0.637875

>  <RMSD>
3.817

$$$$
ligand
 OpenBabel02271912133D
libRbt.so/2013.1/901 2013/11/27
 10 11  0  0  0  0  0  0  0  0999 V2000
   11.1181   -1.5676    5.5062 C   0  0  1  0  0  0  0  0  0  0  0  0
   12.3177   -2.7342    8.4819 C   0  0  2  0  0  0  0  0  0  0  0  0
   11.2850   -1.1440    7.5588 C   0  0  2  0  0  0  0  0  0  0  0  0
   10.8136   -1.4872    4.2059 N   0  0  0  0  0  0  0  0  0  0  0  0
   12.9553   -3.8773    8.7142 N   0  0  0  0  0  0  0  0  0  0  0  0
   12.0302   -1.8316    9.4121 N   0  0  0  0  0  0  0  0  0  0  0  0
   10.8053   -0.6507    6.4151 N   0  0  0  0  0  0  0  0  0  0  0  0
   11.7662   -2.5896    6.0950 N   0  0  0  0  0  0  0  0  0  0  0  0
   11.4285   -0.8940    8.8694 N   0  0  0  0  0  0  0  0  0  0  0  0
   11.8558   -2.3278    7.3050 N   0  0  1  0  0  0  0  0  0  0  0  0
  1  4  1  1  0  0  0
  1  8  1  0  0  0  0
  1  7  1  0  0  0  0
  2  5  1  1  0  0  0
  2  6  1  0  0  0  0
  2 10  1  0  0  0  0
  3  7  1  6  0  0  0
  3 10  1  0  0  0  0
  3  9  1  0  0  0  0
  6  9  1  0  0  0  0
 10  8  1  6  0  0  0
M  END
>  <CHROM.1>
11.64043384,-1.91466421,7.25966242,-2.27700220,-1.05975016,1.20939629

>  <Name>
ligand

>  <RI>
0

>  <Rbt.Current_Directory>
/home/itssahil/PROJECTS/Mol_Feturizer/Test_systems_manuscript/rnas/2xnw

>  <Rbt.Executable>
rbdock ($Id: //depot/dev/client3/rdock/2013.1/src/exe/rbdock.cxx#4 $)

>  <Rbt.Library>
libRbt.so (2013.1, Build901 2013/11/27)

>  <Rbt.Parameter_File>
/export/apps/rDock/src/rDock_2013.1_src/data/scripts/dock_solv.prm

>  <Rbt.Receptor>
prm/pocket_docking_3.prm

>  <SCORE>
-6.37737

>  <SCORE.INTER>
-6.37737

>  <SCORE.INTER.CONST>
1

>  <SCORE.INTER.POLAR>
0

>  <SCORE.INTER.ROT>
0

>  <SCORE.INTER.SOLV>
22.0805

>  <SCORE.INTER.VDW>
-15.2117

>  <SCORE.INTER.norm>
-0.637737

>  <SCORE.INTRA>
0

>  <SCORE.INTRA.DIHEDRAL>
0

>  <SCORE.INTRA.DIHEDRAL.0>
0

>  <SCORE.INTRA.POLAR>
0

>  <SCORE.INTRA.POLAR.0>
0

>  <SCORE.INTRA.REPUL>
0

>  <SCORE.INTRA.REPUL.0>
0

>  <SCORE.INTRA.SOLV>
0

>  <SCORE.INTRA.SOLV.lig_0>
-47.9788

>  <SCORE.INTRA.VDW>
0

>  <SCORE.INTRA.VDW.0>
0

>  <SCORE.INTRA.norm>
0

>  <SCORE.RESTR>
0

>  <SCORE.RESTR.CAVITY>
0

>  <SCORE.RESTR.norm>
0

>  <SCORE.SYSTEM>
0

>  <SCORE.SYSTEM.CONST>
0

>  <SCORE.SYSTEM.DIHEDRAL>
0

>  <SCORE.SYSTEM.SOLV>
0

>  <SCORE.SYSTEM.norm>
0

>  <SCORE.heavy>
10

>  <SCORE.norm>
-0.637737

>  <RMSD>
3.817

$$$$
ligand
 OpenBabel02271912133D
libRbt.so/2013.1/901 2013/11/27
 10 11  0  0  0  0  0  0  0  0999 V2000
   11.1098   -1.5592    5.5041 C   0  0  1  0  0  0  0  0  0  0  0  0
   12.3133   -2.7294    8.4767 C   0  0  2  0  0  0  0  0  0  0  0  0
   11.2781   -1.1388    7.5572 C   0  0  2  0  0  0  0  0  0  0  0  0
   10.8040   -1.4770    4.2042 N   0  0  0  0  0  0  0  0  0  0  0  0
   12.9524   -3.8722    8.7066 N   0  0  0  0  0  0  0  0  0  0  0  0
   12.0256   -1.8286    9.4087 N   0  0  0  0  0  0  0  0  0  0  0  0
   10.7968   -0.6442    6.4147 N   0  0  0  0  0  0  0  0  0  0  0  0
   11.7595   -2.5815    6.0905 N   0  0  0  0  0  0  0  0  0  0  0  0
   11.4224   -0.8907    8.8680 N   0  0  0  0  0  0  0  0  0  0  0  0
   11.8499   -2.3215    7.3009 N   0  0  1  0  0  0  0  0  0  0  0  0
  1  4  1  1  0  0  0
  1  8  1  0  0  0  0
  1  7  1  0  0  0  0
  2  5  1  1  0  0  0
  2  6  1  0  0  0  0
  2 10  1  0  0  0  0
  3  7  1  6  0  0  0
  3 10  1  0  0  0  0
  3  9  1  0  0  0  0
  6  9  1  0  0  0  0
 10  8  1  6  0  0  0
M  END
>  <CHROM.1>
11.63405185,-1.90856648,7.25646108,-2.27793713,-1.05841561,1.21022965

>  <Name>
ligand

>  <RI>
0

>  <Rbt.Current_Directory>
/home/itssahil/PROJECTS/Mol_Feturizer/Test_systems_manuscript/rnas/2xnw

>  <Rbt.Executable>
rbdock ($Id: //depot/dev/client3/rdock/2013.1/src/exe/rbdock.cxx#4 $)

>  <Rbt.Library>
libRbt.so (2013.1, Build901 2013/11/27)

>  <Rbt.Parameter_File>
/export/apps/rDock/src/rDock_2013.1_src/data/scripts/dock_solv.prm

>  <Rbt.Receptor>
prm/pocket_docking_3.prm

>  <SCORE>
-6.37867

>  <SCORE.INTER>
-6.37867

>  <SCORE.INTER.CONST>
1

>  <SCORE.INTER.POLAR>
0

>  <SCORE.INTER.ROT>
0

>  <SCORE.INTER.SOLV>
22.034

>  <SCORE.INTER.VDW>
-15.1971

>  <SCORE.INTER.norm>
-0.637867

>  <SCORE.INTRA>
0

>  <SCORE.INTRA.DIHEDRAL>
0

>  <SCORE.INTRA.DIHEDRAL.0>
0

>  <SCORE.INTRA.POLAR>
0

>  <SCORE.INTRA.POLAR.0>
0

>  <SCORE.INTRA.REPUL>
0

>  <SCORE.INTRA.REPUL.0>
0

>  <SCORE.INTRA.SOLV>
0

>  <SCORE.INTRA.SOLV.lig_0>
-47.9788

>  <SCORE.INTRA.VDW>
0

>  <SCORE.INTRA.VDW.0>
0

>  <SCORE.INTRA.norm>
0

>  <SCORE.RESTR>
0

>  <SCORE.RESTR.CAVITY>
0

>  <SCORE.RESTR.norm>
0

>  <SCORE.SYSTEM>
0

>  <SCORE.SYSTEM.CONST>
0

>  <SCORE.SYSTEM.DIHEDRAL>
0

>  <SCORE.SYSTEM.SOLV>
0

>  <SCORE.SYSTEM.norm>
0

>  <SCORE.heavy>
10

>  <SCORE.norm>
-0.637867

>  <RMSD>
3.817

$$$$
ligand
 OpenBabel02271912133D
libRbt.so/2013.1/901 2013/11/27
 10 11  0  0  0  0  0  0  0  0999 V2000
   11.1093   -1.5582    5.4998 C   0  0  1  0  0  0  0  0  0  0  0  0
   12.3063   -2.7316    8.4738 C   0  0  2  0  0  0  0  0  0  0  0  0
   11.2719   -1.1407    7.5540 C   0  0  2  0  0  0  0  0  0  0  0  0
   10.8067   -1.4744    4.1993 N   0  0  0  0  0  0  0  0  0  0  0  0
   12.9459   -3.8741    8.7037 N   0  0  0  0  0  0  0  0  0  0  0  0
   12.0154   -1.8325    9.4064 N   0  0  0  0  0  0  0  0  0  0  0  0
   10.7931   -0.6448    6.4110 N   0  0  0  0  0  0  0  0  0  0  0  0
   11.7584   -2.5807    6.0865 N   0  0  0  0  0  0  0  0  0  0  0  0
   11.4127   -0.8944    8.8656 N   0  0  0  0  0  0  0  0  0  0  0  0
   11.8455   -2.3225    7.2975 N   0  0  1  0  0  0  0  0  0  0  0  0
  1  4  1  1  0  0  0
  1  8  1  0  0  0  0
  1  7  1  0  0  0  0
  2  5  1  1  0  0  0
  2  6  1  0  0  0  0
  2 10  1  0  0  0  0
  3  7  1  6  0  0  0
  3 10  1  0  0  0  0
  3  9  1  0  0  0  0
  6  9  1  0  0  0  0
 10  8  1  6  0  0  0
M  END
>  <CHROM.1>
11.62938646,-1.90963350,7.25304944,-2.27237718,-1.05840965,1.21653745

>  <Name>
ligand

>  <RI>
0

>  <Rbt.Current_Directory>
/home/itssahil/PROJECTS/Mol_Feturizer/Test_systems_manuscript/rnas/2xnw

>  <Rbt.Executable>
rbdock ($Id: //depot/dev/client3/rdock/2013.1/src/exe/rbdock.cxx#4 $)

>  <Rbt.Library>
libRbt.so (2013.1, Build901 2013/11/27)

>  <Rbt.Parameter_File>
/export/apps/rDock/src/rDock_2013.1_src/data/scripts/dock_solv.prm

>  <Rbt.Receptor>
prm/pocket_docking_5.prm

>  <SCORE>
-6.37785

>  <SCORE.INTER>
-6.37785

>  <SCORE.INTER.CONST>
1

>  <SCORE.INTER.POLAR>
0

>  <SCORE.INTER.ROT>
0

>  <SCORE.INTER.SOLV>
22.0454

>  <SCORE.INTER.VDW>
-15.2004

>  <SCORE.INTER.norm>
-0.637785

>  <SCORE.INTRA>
0

>  <SCORE.INTRA.DIHEDRAL>
0

>  <SCORE.INTRA.DIHEDRAL.0>
0

>  <SCORE.INTRA.POLAR>
0

>  <SCORE.INTRA.POLAR.0>
0

>  <SCORE.INTRA.REPUL>
0

>  <SCORE.INTRA.REPUL.0>
0

>  <SCORE.INTRA.SOLV>
0

>  <SCORE.INTRA.SOLV.lig_0>
-47.9788

>  <SCORE.INTRA.VDW>
0

>  <SCORE.INTRA.VDW.0>
0

>  <SCORE.INTRA.norm>
0

>  <SCORE.RESTR>
0

>  <SCORE.RESTR.CAVITY>
0

>  <SCORE.RESTR.norm>
0

>  <SCORE.SYSTEM>
0

>  <SCORE.SYSTEM.CONST>
0

>  <SCORE.SYSTEM.DIHEDRAL>
0

>  <SCORE.SYSTEM.SOLV>
0

>  <SCORE.SYSTEM.norm>
0

>  <SCORE.heavy>
10

>  <SCORE.norm>
-0.637785

>  <RMSD>
3.817

$$$$
ligand
 OpenBabel02271912133D
libRbt.so/2013.1/901 2013/11/27
 10 11  0  0  0  0  0  0  0  0999 V2000
   11.1245   -1.5724    5.4884 C   0  0  1  0  0  0  0  0  0  0  0  0
   12.3170   -2.7674    8.4556 C   0  0  2  0  0  0  0  0  0  0  0  0
   11.2905   -1.1663    7.5446 C   0  0  2  0  0  0  0  0  0  0  0  0
   10.8217   -1.4803    4.1885 N   0  0  0  0  0  0  0  0  0  0  0  0
   12.9506   -3.9145    8.6792 N   0  0  0  0  0  0  0  0  0  0  0  0
   12.0313   -1.8716    9.3930 N   0  0  0  0  0  0  0  0  0  0  0  0
   10.8137   -0.6621    6.4045 N   0  0  0  0  0  0  0  0  0  0  0  0
   11.7685   -2.6014    6.0694 N   0  0  0  0  0  0  0  0  0  0  0  0
   11.4333   -0.9275    8.8573 N   0  0  0  0  0  0  0  0  0  0  0  0
   11.8577   -2.3498    7.2817 N   0  0  1  0  0  0  0  0  0  0  0  0
  1  4  1  1  0  0  0
  1  8  1  0  0  0  0
  1  7  1  0  0  0  0
  2  5  1  1  0  0  0
  2  6  1  0  0  0  0
  2 10  1  0  0  0  0
  3  7  1  6  0  0  0
  3 10  1  0  0  0  0
  3  9  1  0  0  0  0
  6  9  1  0  0  0  0
 10  8  1  6  0  0  0
M  END
>  <CHROM.1>
11.64370853,-1.93562725,7.23949293,-2.27725296,-1.06319151,1.21742044

>  <Name>
ligand

>  <RI>
0

>  <Rbt.Current_Directory>
/home/itssahil/PROJECTS/Mol_Feturizer/Test_systems_manuscript/rnas/2xnw

>  <Rbt.Executable>
rbdock ($Id: //depot/dev/client3/rdock/2013.1/src/exe/rbdock.cxx#4 $)

>  <Rbt.Library>
libRbt.so (2013.1, Build901 2013/11/27)

>  <Rbt.Parameter_File>
/export/apps/rDock/src/rDock_2013.1_src/data/scripts/dock_solv.prm

>  <Rbt.Receptor>
prm/pocket_docking_8.prm

>  <SCORE>
-6.38711

>  <SCORE.INTER>
-6.38711

>  <SCORE.INTER.CONST>
1

>  <SCORE.INTER.POLAR>
0

>  <SCORE.INTER.ROT>
0

>  <SCORE.INTER.SOLV>
22.0528

>  <SCORE.INTER.VDW>
-15.209

>  <SCORE.INTER.norm>
-0.638711

>  <SCORE.INTRA>
0

>  <SCORE.INTRA.DIHEDRAL>
0

>  <SCORE.INTRA.DIHEDRAL.0>
0

>  <SCORE.INTRA.POLAR>
0

>  <SCORE.INTRA.POLAR.0>
0

>  <SCORE.INTRA.REPUL>
0

>  <SCORE.INTRA.REPUL.0>
0

>  <SCORE.INTRA.SOLV>
0

>  <SCORE.INTRA.SOLV.lig_0>
-47.9788

>  <SCORE.INTRA.VDW>
0

>  <SCORE.INTRA.VDW.0>
0

>  <SCORE.INTRA.norm>
0

>  <SCORE.RESTR>
0

>  <SCORE.RESTR.CAVITY>
0

>  <SCORE.RESTR.norm>
0

>  <SCORE.SYSTEM>
0

>  <SCORE.SYSTEM.CONST>
0

>  <SCORE.SYSTEM.DIHEDRAL>
0

>  <SCORE.SYSTEM.SOLV>
0

>  <SCORE.SYSTEM.norm>
0

>  <SCORE.heavy>
10

>  <SCORE.norm>
-0.638711

>  <RMSD>
3.817

$$$$
ligand
 OpenBabel02271912133D
libRbt.so/2013.1/901 2013/11/27
 10 11  0  0  0  0  0  0  0  0999 V2000
   11.1168   -1.5681    5.5015 C   0  0  1  0  0  0  0  0  0  0  0  0
   12.3122   -2.7385    8.4773 C   0  0  2  0  0  0  0  0  0  0  0  0
   11.2789   -1.1482    7.5552 C   0  0  2  0  0  0  0  0  0  0  0  0
   10.8148   -1.4858    4.2007 N   0  0  0  0  0  0  0  0  0  0  0  0
   12.9512   -3.8810    8.7088 N   0  0  0  0  0  0  0  0  0  0  0  0
   12.0214   -1.8381    9.4087 N   0  0  0  0  0  0  0  0  0  0  0  0
   10.8007   -0.6535    6.4114 N   0  0  0  0  0  0  0  0  0  0  0  0
   11.7653   -2.5902    6.0896 N   0  0  0  0  0  0  0  0  0  0  0  0
   11.4193   -0.9003    8.8665 N   0  0  0  0  0  0  0  0  0  0  0  0
   11.8520   -2.3305    7.3003 N   0  0  1  0  0  0  0  0  0  0  0  0
  1  4  1  1  0  0  0
  1  8  1  0  0  0  0
  1  7  1  0  0  0  0
  2  5  1  1  0  0  0
  2  6  1  0  0  0  0
  2 10  1  0  0  0  0
  3  7  1  6  0  0  0
  3 10  1  0  0  0  0
  3  9  1  0  0  0  0
  6  9  1  0  0  0  0
 10  8  1  6  0  0  0
M  END
>  <CHROM.1>
11.63611466,-1.91766075,7.25530120,-2.27199607,-1.05896448,1.21565420

>  <Name>
ligand

>  <RI>
0

>  <Rbt.Current_Directory>
/home/itssahil/PROJECTS/Mol_Feturizer/Test_systems_manuscript/rnas/2xnw

>  <Rbt.Executable>
rbdock ($Id: //depot/dev/client3/rdock/2013.1/src/exe/rbdock.cxx#4 $)

>  <Rbt.Library>
libRbt.so (2013.1, Build901 2013/11/27)

>  <Rbt.Parameter_File>
/export/apps/rDock/src/rDock_2013.1_src/data/scripts/dock_solv.prm

>  <Rbt.Receptor>
prm/blind_docking_100.prm

>  <SCORE>
-6.37763

>  <SCORE.INTER>
-6.37763

>  <SCORE.INTER.CONST>
1

>  <SCORE.INTER.POLAR>
0

>  <SCORE.INTER.ROT>
0

>  <SCORE.INTER.SOLV>
22.0809

>  <SCORE.INTER.VDW>
-15.212

>  <SCORE.INTER.norm>
-0.637763

>  <SCORE.INTRA>
0

>  <SCORE.INTRA.DIHEDRAL>
0

>  <SCORE.INTRA.DIHEDRAL.0>
0

>  <SCORE.INTRA.POLAR>
0

>  <SCORE.INTRA.POLAR.0>
0

>  <SCORE.INTRA.REPUL>
0

>  <SCORE.INTRA.REPUL.0>
0

>  <SCORE.INTRA.SOLV>
0

>  <SCORE.INTRA.SOLV.lig_0>
-47.9788

>  <SCORE.INTRA.VDW>
0

>  <SCORE.INTRA.VDW.0>
0

>  <SCORE.INTRA.norm>
0

>  <SCORE.RESTR>
0

>  <SCORE.RESTR.CAVITY>
0

>  <SCORE.RESTR.norm>
0

>  <SCORE.SYSTEM>
0

>  <SCORE.SYSTEM.CONST>
0

>  <SCORE.SYSTEM.DIHEDRAL>
0

>  <SCORE.SYSTEM.SOLV>
0

>  <SCORE.SYSTEM.norm>
0

>  <SCORE.heavy>
10

>  <SCORE.norm>
-0.637763

>  <RMSD>
3.818

$$$$
ligand
 OpenBabel02271912133D
libRbt.so/2013.1/901 2013/11/27
 10 11  0  0  0  0  0  0  0  0999 V2000
   11.1292   -1.5817    5.4933 C   0  0  1  0  0  0  0  0  0  0  0  0
   12.3071   -2.7695    8.4693 C   0  0  2  0  0  0  0  0  0  0  0  0
   11.2725   -1.1774    7.5516 C   0  0  2  0  0  0  0  0  0  0  0  0
   10.8373   -1.4905    4.1909 N   0  0  0  0  0  0  0  0  0  0  0  0
   12.9504   -3.9104    8.6967 N   0  0  0  0  0  0  0  0  0  0  0  0
   12.0038   -1.8782    9.4054 N   0  0  0  0  0  0  0  0  0  0  0  0
   10.8008   -0.6761    6.4080 N   0  0  0  0  0  0  0  0  0  0  0  0
   11.7785   -2.6050    6.0784 N   0  0  0  0  0  0  0  0  0  0  0  0
   11.4010   -0.9394    8.8660 N   0  0  0  0  0  0  0  0  0  0  0  0
   11.8541   -2.3546    7.2919 N   0  0  1  0  0  0  0  0  0  0  0  0
  1  4  1  1  0  0  0
  1  8  1  0  0  0  0
  1  7  1  0  0  0  0
  2  5  1  1  0  0  0
  2  6  1  0  0  0  0
  2 10  1  0  0  0  0
  3  7  1  6  0  0  0
  3 10  1  0  0  0  0
  3  9  1  0  0  0  0
  6  9  1  0  0  0  0
 10  8  1  6  0  0  0
M  END
>  <CHROM.1>
11.63631939,-1.94254659,7.24844660,-2.25278213,-1.05655254,1.24044130

>  <Name>
ligand

>  <RI>
0

>  <Rbt.Current_Directory>
/home/itssahil/PROJECTS/Mol_Feturizer/Test_systems_manuscript/rnas/2xnw

>  <Rbt.Executable>
rbdock ($Id: //depot/dev/client3/rdock/2013.1/src/exe/rbdock.cxx#4 $)

>  <Rbt.Library>
libRbt.so (2013.1, Build901 2013/11/27)

>  <Rbt.Parameter_File>
/export/apps/rDock/src/rDock_2013.1_src/data/scripts/dock_solv.prm

>  <Rbt.Receptor>
prm/blind_docking_20.prm

>  <SCORE>
-6.37962

>  <SCORE.INTER>
-6.37962

>  <SCORE.INTER.CONST>
1

>  <SCORE.INTER.POLAR>
0

>  <SCORE.INTER.ROT>
0

>  <SCORE.INTER.SOLV>
22.1205

>  <SCORE.INTER.VDW>
-15.2266

>  <SCORE.INTER.norm>
-0.637962

>  <SCORE.INTRA>
0

>  <SCORE.INTRA.DIHEDRAL>
0

>  <SCORE.INTRA.DIHEDRAL.0>
0

>  <SCORE.INTRA.POLAR>
0

>  <SCORE.INTRA.POLAR.0>
0

>  <SCORE.INTRA.REPUL>
0

>  <SCORE.INTRA.REPUL.0>
0

>  <SCORE.INTRA.SOLV>
0

>  <SCORE.INTRA.SOLV.lig_0>
-47.9788

>  <SCORE.INTRA.VDW>
0

>  <SCORE.INTRA.VDW.0>
0

>  <SCORE.INTRA.norm>
0

>  <SCORE.RESTR>
0

>  <SCORE.RESTR.CAVITY>
0

>  <SCORE.RESTR.norm>
0

>  <SCORE.SYSTEM>
0

>  <SCORE.SYSTEM.CONST>
0

>  <SCORE.SYSTEM.DIHEDRAL>
0

>  <SCORE.SYSTEM.SOLV>
0

>  <SCORE.SYSTEM.norm>
0

>  <SCORE.heavy>
10

>  <SCORE.norm>
-0.637962

>  <RMSD>
3.818

$$$$
ligand
 OpenBabel02271912133D
libRbt.so/2013.1/901 2013/11/27
 10 11  0  0  0  0  0  0  0  0999 V2000
   11.1218   -1.5671    5.4974 C   0  0  1  0  0  0  0  0  0  0  0  0
   12.3213   -2.7357    8.4723 C   0  0  2  0  0  0  0  0  0  0  0  0
   11.2889   -1.1447    7.5502 C   0  0  2  0  0  0  0  0  0  0  0  0
   10.8172   -1.4858    4.1971 N   0  0  0  0  0  0  0  0  0  0  0  0
   12.9586   -3.8791    8.7039 N   0  0  0  0  0  0  0  0  0  0  0  0
   12.0340   -1.8336    9.4031 N   0  0  0  0  0  0  0  0  0  0  0  0
   10.8092   -0.6506    6.4068 N   0  0  0  0  0  0  0  0  0  0  0  0
   11.7696   -2.5896    6.0855 N   0  0  0  0  0  0  0  0  0  0  0  0
   11.4325   -0.8955    8.8609 N   0  0  0  0  0  0  0  0  0  0  0  0
   11.8594   -2.3285    7.2957 N   0  0  1  0  0  0  0  0  0  0  0  0
  1  4  1  1  0  0  0
  1  8  1  0  0  0  0
  1  7  1  0  0  0  0
  2  5  1  1  0  0  0
  2  6  1  0  0  0  0
  2 10  1  0  0  0  0
  3  7  1  6  0  0  0
  3 10  1  0  0  0  0
  3  9  1  0  0  0  0
  6  9  1  0  0  0  0
 10  8  1  6  0  0  0
M  END
>  <CHROM.1>
11.64411398,-1.91525588,7.25058791,-2.27728401,-1.05994304,1.20974618

>  <Name>
ligand

>  <RI>
0

>  <Rbt.Current_Directory>
/home/itssahil/PROJECTS/Mol_Feturizer/Test_systems_manuscript/rnas/2xnw

>  <Rbt.Executable>
rbdock ($Id: //depot/dev/client3/rdock/2013.1/src/exe/rbdock.cxx#4 $)

>  <Rbt.Library>
libRbt.so (2013.1, Build901 2013/11/27)

>  <Rbt.Parameter_File>
/export/apps/rDock/src/rDock_2013.1_src/data/scripts/dock_solv.prm

>  <Rbt.Receptor>
prm/pocket_docking_3.prm

>  <SCORE>
-6.37818

>  <SCORE.INTER>
-6.37818

>  <SCORE.INTER.CONST>
1

>  <SCORE.INTER.POLAR>
0

>  <SCORE.INTER.ROT>
0

>  <SCORE.INTER.SOLV>
22.0694

>  <SCORE.INTER.VDW>
-15.2086

>  <SCORE.INTER.norm>
-0.637818

>  <SCORE.INTRA>
0

>  <SCORE.INTRA.DIHEDRAL>
0

>  <SCORE.INTRA.DIHEDRAL.0>
0

>  <SCORE.INTRA.POLAR>
0

>  <SCORE.INTRA.POLAR.0>
0

>  <SCORE.INTRA.REPUL>
0

>  <SCORE.INTRA.REPUL.0>
0

>  <SCORE.INTRA.SOLV>
0

>  <SCORE.INTRA.SOLV.lig_0>
-47.9788

>  <SCORE.INTRA.VDW>
0

>  <SCORE.INTRA.VDW.0>
0

>  <SCORE.INTRA.norm>
0

>  <SCORE.RESTR>
0

>  <SCORE.RESTR.CAVITY>
0

>  <SCORE.RESTR.norm>
0

>  <SCORE.SYSTEM>
0

>  <SCORE.SYSTEM.CONST>
0

>  <SCORE.SYSTEM.DIHEDRAL>
0

>  <SCORE.SYSTEM.SOLV>
0

>  <SCORE.SYSTEM.norm>
0

>  <SCORE.heavy>
10

>  <SCORE.norm>
-0.637818

>  <RMSD>
3.818

$$$$
ligand
 OpenBabel02271912133D
libRbt.so/2013.1/901 2013/11/27
 10 11  0  0  0  0  0  0  0  0999 V2000
   11.1197   -1.5632    5.5035 C   0  0  1  0  0  0  0  0  0  0  0  0
   12.3239   -2.7192    8.4814 C   0  0  2  0  0  0  0  0  0  0  0  0
   11.2895   -1.1325    7.5544 C   0  0  2  0  0  0  0  0  0  0  0  0
   10.8133   -1.4873    4.2034 N   0  0  0  0  0  0  0  0  0  0  0  0
   12.9621   -3.8614    8.7168 N   0  0  0  0  0  0  0  0  0  0  0  0
   12.0375   -1.8135    9.4089 N   0  0  0  0  0  0  0  0  0  0  0  0
   10.8080   -0.6432    6.4097 N   0  0  0  0  0  0  0  0  0  0  0  0
   11.7688   -2.5830    6.0948 N   0  0  0  0  0  0  0  0  0  0  0  0
   11.4348   -0.8778    8.8639 N   0  0  0  0  0  0  0  0  0  0  0  0
   11.8602   -2.3170    7.3038 N   0  0  1  0  0  0  0  0  0  0  0  0
  1  4  1  1  0  0  0
  1  8  1  0  0  0  0
  1  7  1  0  0  0  0
  2  5  1  1  0  0  0
  2  6  1  0  0  0  0
  2 10  1  0  0  0  0
  3  7  1  6  0  0  0
  3 10  1  0  0  0  0
  3  9  1  0  0  0  0
  6  9  1  0  0  0  0
 10  8  1  6  0  0  0
M  END
>  <CHROM.1>
11.64464076,-1.90403735,7.25737197,-2.27962529,-1.05902479,1.20365636

>  <Name>
ligand

>  <RI>
0

>  <Rbt.Current_Directory>
/home/itssahil/PROJECTS/Mol_Feturizer/Test_systems_manuscript/rnas/2xnw

>  <Rbt.Executable>
rbdock ($Id: //depot/dev/client3/rdock/2013.1/src/exe/rbdock.cxx#4 $)

>  <Rbt.Library>
libRbt.so (2013.1, Build901 2013/11/27)

>  <Rbt.Parameter_File>
/export/apps/rDock/src/rDock_2013.1_src/data/scripts/dock_solv.prm

>  <Rbt.Receptor>
prm/pocket_docking_3.prm

>  <SCORE>
-6.37958

>  <SCORE.INTER>
-6.37958

>  <SCORE.INTER.CONST>
1

>  <SCORE.INTER.POLAR>
0

>  <SCORE.INTER.ROT>
0

>  <SCORE.INTER.SOLV>
22.0744

>  <SCORE.INTER.VDW>
-15.2112

>  <SCORE.INTER.norm>
-0.637958

>  <SCORE.INTRA>
0

>  <SCORE.INTRA.DIHEDRAL>
0

>  <SCORE.INTRA.DIHEDRAL.0>
0

>  <SCORE.INTRA.POLAR>
0

>  <SCORE.INTRA.POLAR.0>
0

>  <SCORE.INTRA.REPUL>
0

>  <SCORE.INTRA.REPUL.0>
0

>  <SCORE.INTRA.SOLV>
0

>  <SCORE.INTRA.SOLV.lig_0>
-47.9788

>  <SCORE.INTRA.VDW>
0

>  <SCORE.INTRA.VDW.0>
0

>  <SCORE.INTRA.norm>
0

>  <SCORE.RESTR>
0

>  <SCORE.RESTR.CAVITY>
0

>  <SCORE.RESTR.norm>
0

>  <SCORE.SYSTEM>
0

>  <SCORE.SYSTEM.CONST>
0

>  <SCORE.SYSTEM.DIHEDRAL>
0

>  <SCORE.SYSTEM.SOLV>
0

>  <SCORE.SYSTEM.norm>
0

>  <SCORE.heavy>
10

>  <SCORE.norm>
-0.637958

>  <RMSD>
3.818

$$$$
ligand
 OpenBabel02271912133D
libRbt.so/2013.1/901 2013/11/27
 10 11  0  0  0  0  0  0  0  0999 V2000
   11.1163   -1.5795    5.5101 C   0  0  1  0  0  0  0  0  0  0  0  0
   12.3015   -2.7440    8.4923 C   0  0  2  0  0  0  0  0  0  0  0  0
   11.2697   -1.1564    7.5638 C   0  0  2  0  0  0  0  0  0  0  0  0
   10.8194   -1.4994    4.2080 N   0  0  0  0  0  0  0  0  0  0  0  0
   12.9410   -3.8854    8.7280 N   0  0  0  0  0  0  0  0  0  0  0  0
   12.0057   -1.8427    9.4213 N   0  0  0  0  0  0  0  0  0  0  0  0
   10.7954   -0.6640    6.4175 N   0  0  0  0  0  0  0  0  0  0  0  0
   11.7638   -2.5999    6.1022 N   0  0  0  0  0  0  0  0  0  0  0  0
   11.4046   -0.9066    8.8754 N   0  0  0  0  0  0  0  0  0  0  0  0
   11.8454   -2.3384    7.3129 N   0  0  1  0  0  0  0  0  0  0  0  0
  1  4  1  1  0  0  0
  1  8  1  0  0  0  0
  1  7  1  0  0  0  0
  2  5  1  1  0  0  0
  2  6  1  0  0  0  0
  2 10  1  0  0  0  0
  3  7  1  6  0  0  0
  3 10  1  0  0  0  0
  3  9  1  0  0  0  0
  6  9  1  0  0  0  0
 10  8  1  6  0  0  0
M  END
>  <CHROM.1>
11.62913410,-1.92584821,7.26647883,-2.26343631,-1.05907866,1.22170488

>  <Name>
ligand

>  <RI>
0

>  <Rbt.Current_Directory>
/home/itssahil/PROJECTS/Mol_Feturizer/Test_systems_manuscript/rnas/2xnw

>  <Rbt.Executable>
rbdock ($Id: //depot/dev/client3/rdock/2013.1/src/exe/rbdock.cxx#4 $)

>  <Rbt.Library>
libRbt.so (2013.1, Build901 2013/11/27)

>  <Rbt.Parameter_File>
/export/apps/rDock/src/rDock_2013.1_src/data/scripts/dock_solv.prm

>  <Rbt.Receptor>
prm/pocket_docking_6.prm

>  <SCORE>
-6.37286

>  <SCORE.INTER>
-6.37286

>  <SCORE.INTER.CONST>
1

>  <SCORE.INTER.POLAR>
0

>  <SCORE.INTER.ROT>
0

>  <SCORE.INTER.SOLV>
22.1563

>  <SCORE.INTER.VDW>
-15.234

>  <SCORE.INTER.norm>
-0.637286

>  <SCORE.INTRA>
0

>  <SCORE.INTRA.DIHEDRAL>
0

>  <SCORE.INTRA.DIHEDRAL.0>
0

>  <SCORE.INTRA.POLAR>
0

>  <SCORE.INTRA.POLAR.0>
0

>  <SCORE.INTRA.REPUL>
0

>  <SCORE.INTRA.REPUL.0>
0

>  <SCORE.INTRA.SOLV>
0

>  <SCORE.INTRA.SOLV.lig_0>
-47.9788

>  <SCORE.INTRA.VDW>
0

>  <SCORE.INTRA.VDW.0>
0

>  <SCORE.INTRA.norm>
0

>  <SCORE.RESTR>
0

>  <SCORE.RESTR.CAVITY>
0

>  <SCORE.RESTR.norm>
0

>  <SCORE.SYSTEM>
0

>  <SCORE.SYSTEM.CONST>
0

>  <SCORE.SYSTEM.DIHEDRAL>
0

>  <SCORE.SYSTEM.SOLV>
0

>  <SCORE.SYSTEM.norm>
0

>  <SCORE.heavy>
10

>  <SCORE.norm>
-0.637286

>  <RMSD>
3.818

$$$$
ligand
 OpenBabel02271912133D
libRbt.so/2013.1/901 2013/11/27
 10 11  0  0  0  0  0  0  0  0999 V2000
   11.1181   -1.5751    5.5098 C   0  0  1  0  0  0  0  0  0  0  0  0
   12.3138   -2.7327    8.4906 C   0  0  2  0  0  0  0  0  0  0  0  0
   11.2762   -1.1487    7.5625 C   0  0  2  0  0  0  0  0  0  0  0  0
   10.8175   -1.4975    4.2084 N   0  0  0  0  0  0  0  0  0  0  0  0
   12.9564   -3.8724    8.7262 N   0  0  0  0  0  0  0  0  0  0  0  0
   12.0187   -1.8306    9.4189 N   0  0  0  0  0  0  0  0  0  0  0  0
   10.7977   -0.6589    6.4168 N   0  0  0  0  0  0  0  0  0  0  0  0
   11.7694   -2.5933    6.1017 N   0  0  0  0  0  0  0  0  0  0  0  0
   11.4141   -0.8966    8.8733 N   0  0  0  0  0  0  0  0  0  0  0  0
   11.8537   -2.3298    7.3118 N   0  0  1  0  0  0  0  0  0  0  0  0
  1  4  1  1  0  0  0
  1  8  1  0  0  0  0
  1  7  1  0  0  0  0
  2  5  1  1  0  0  0
  2  6  1  0  0  0  0
  2 10  1  0  0  0  0
  3  7  1  6  0  0  0
  3 10  1  0  0  0  0
  3  9  1  0  0  0  0
  6  9  1  0  0  0  0
 10  8  1  6  0  0  0
M  END
>  <CHROM.1>
11.63641776,-1.91778066,7.26532178,-2.26715986,-1.05617766,1.21697416

>  <Name>
ligand

>  <RI>
0

>  <Rbt.Current_Directory>
/home/itssahil/PROJECTS/Mol_Feturizer/Test_systems_manuscript/rnas/2xnw

>  <Rbt.Executable>
rbdock ($Id: //depot/dev/client3/rdock/2013.1/src/exe/rbdock.cxx#4 $)

>  <Rbt.Library>
libRbt.so (2013.1, Build901 2013/11/27)

>  <Rbt.Parameter_File>
/export/apps/rDock/src/rDock_2013.1_src/data/scripts/dock_solv.prm

>  <Rbt.Receptor>
prm/pocket_docking_8.prm

>  <SCORE>
-6.37612

>  <SCORE.INTER>
-6.37612

>  <SCORE.INTER.CONST>
1

>  <SCORE.INTER.POLAR>
0

>  <SCORE.INTER.ROT>
0

>  <SCORE.INTER.SOLV>
22.1176

>  <SCORE.INTER.VDW>
-15.2233

>  <SCORE.INTER.norm>
-0.637612

>  <SCORE.INTRA>
0

>  <SCORE.INTRA.DIHEDRAL>
0

>  <SCORE.INTRA.DIHEDRAL.0>
0

>  <SCORE.INTRA.POLAR>
0

>  <SCORE.INTRA.POLAR.0>
0

>  <SCORE.INTRA.REPUL>
0

>  <SCORE.INTRA.REPUL.0>
0

>  <SCORE.INTRA.SOLV>
0

>  <SCORE.INTRA.SOLV.lig_0>
-47.9788

>  <SCORE.INTRA.VDW>
0

>  <SCORE.INTRA.VDW.0>
0

>  <SCORE.INTRA.norm>
0

>  <SCORE.RESTR>
0

>  <SCORE.RESTR.CAVITY>
0

>  <SCORE.RESTR.norm>
0

>  <SCORE.SYSTEM>
0

>  <SCORE.SYSTEM.CONST>
0

>  <SCORE.SYSTEM.DIHEDRAL>
0

>  <SCORE.SYSTEM.SOLV>
0

>  <SCORE.SYSTEM.norm>
0

>  <SCORE.heavy>
10

>  <SCORE.norm>
-0.637612

>  <RMSD>
3.818

$$$$
ligand
 OpenBabel02271912133D
libRbt.so/2013.1/901 2013/11/27
 10 11  0  0  0  0  0  0  0  0999 V2000
   11.1188   -1.5707    5.5000 C   0  0  1  0  0  0  0  0  0  0  0  0
   12.3060   -2.7429    8.4783 C   0  0  2  0  0  0  0  0  0  0  0  0
   11.2791   -1.1500    7.5536 C   0  0  2  0  0  0  0  0  0  0  0  0
   10.8190   -1.4882    4.1987 N   0  0  0  0  0  0  0  0  0  0  0  0
   12.9410   -3.8873    8.7115 N   0  0  0  0  0  0  0  0  0  0  0  0
   12.0166   -1.8410    9.4087 N   0  0  0  0  0  0  0  0  0  0  0  0
   10.8041   -0.6545    6.4089 N   0  0  0  0  0  0  0  0  0  0  0  0
   11.7631   -2.5944    6.0897 N   0  0  0  0  0  0  0  0  0  0  0  0
   11.4183   -0.9018    8.8650 N   0  0  0  0  0  0  0  0  0  0  0  0
   11.8489   -2.3343    7.3004 N   0  0  1  0  0  0  0  0  0  0  0  0
  1  4  1  1  0  0  0
  1  8  1  0  0  0  0
  1  7  1  0  0  0  0
  2  5  1  1  0  0  0
  2  6  1  0  0  0  0
  2 10  1  0  0  0  0
  3  7  1  6  0  0  0
  3 10  1  0  0  0  0
  3  9  1  0  0  0  0
  6  9  1  0  0  0  0
 10  8  1  6  0  0  0
M  END
>  <CHROM.1>
11.63432152,-1.92075466,7.25479594,-2.27132838,-1.06242997,1.21562018

>  <Name>
ligand

>  <RI>
0

>  <Rbt.Current_Directory>
/home/itssahil/PROJECTS/Mol_Feturizer/Test_systems_manuscript/rnas/2xnw

>  <Rbt.Executable>
rbdock ($Id: //depot/dev/client3/rdock/2013.1/src/exe/rbdock.cxx#4 $)

>  <Rbt.Library>
libRbt.so (2013.1, Build901 2013/11/27)

>  <Rbt.Parameter_File>
/export/apps/rDock/src/rDock_2013.1_src/data/scripts/dock_solv.prm

>  <Rbt.Receptor>
prm/pocket_docking_8.prm

>  <SCORE>
-6.37628

>  <SCORE.INTER>
-6.37628

>  <SCORE.INTER.CONST>
1

>  <SCORE.INTER.POLAR>
0

>  <SCORE.INTER.ROT>
0

>  <SCORE.INTER.SOLV>
22.1206

>  <SCORE.INTER.VDW>
-15.2244

>  <SCORE.INTER.norm>
-0.637628

>  <SCORE.INTRA>
0

>  <SCORE.INTRA.DIHEDRAL>
0

>  <SCORE.INTRA.DIHEDRAL.0>
0

>  <SCORE.INTRA.POLAR>
0

>  <SCORE.INTRA.POLAR.0>
0

>  <SCORE.INTRA.REPUL>
0

>  <SCORE.INTRA.REPUL.0>
0

>  <SCORE.INTRA.SOLV>
0

>  <SCORE.INTRA.SOLV.lig_0>
-47.9788

>  <SCORE.INTRA.VDW>
0

>  <SCORE.INTRA.VDW.0>
0

>  <SCORE.INTRA.norm>
0

>  <SCORE.RESTR>
0

>  <SCORE.RESTR.CAVITY>
0

>  <SCORE.RESTR.norm>
0

>  <SCORE.SYSTEM>
0

>  <SCORE.SYSTEM.CONST>
0

>  <SCORE.SYSTEM.DIHEDRAL>
0

>  <SCORE.SYSTEM.SOLV>
0

>  <SCORE.SYSTEM.norm>
0

>  <SCORE.heavy>
10

>  <SCORE.norm>
-0.637628

>  <RMSD>
3.818

$$$$
ligand
 OpenBabel02271912133D
libRbt.so/2013.1/901 2013/11/27
 10 11  0  0  0  0  0  0  0  0999 V2000
   11.1229   -1.5607    5.4992 C   0  0  1  0  0  0  0  0  0  0  0  0
   12.3218   -2.7195    8.4782 C   0  0  2  0  0  0  0  0  0  0  0  0
   11.2913   -1.1307    7.5504 C   0  0  2  0  0  0  0  0  0  0  0  0
   10.8180   -1.4840    4.1988 N   0  0  0  0  0  0  0  0  0  0  0  0
   12.9576   -3.8628    8.7140 N   0  0  0  0  0  0  0  0  0  0  0  0
   12.0360   -1.8134    9.4056 N   0  0  0  0  0  0  0  0  0  0  0  0
   10.8119   -0.6403    6.4053 N   0  0  0  0  0  0  0  0  0  0  0  0
   11.7695   -2.5818    6.0910 N   0  0  0  0  0  0  0  0  0  0  0  0
   11.4356   -0.8765    8.8601 N   0  0  0  0  0  0  0  0  0  0  0  0
   11.8600   -2.3161    7.3002 N   0  0  1  0  0  0  0  0  0  0  0  0
  1  4  1  1  0  0  0
  1  8  1  0  0  0  0
  1  7  1  0  0  0  0
  2  5  1  1  0  0  0
  2  6  1  0  0  0  0
  2 10  1  0  0  0  0
  3  7  1  6  0  0  0
  3 10  1  0  0  0  0
  3  9  1  0  0  0  0
  6  9  1  0  0  0  0
 10  8  1  6  0  0  0
M  END
>  <CHROM.1>
11.64530149,-1.90282681,7.25360101,-2.27893014,-1.06110145,1.20445432

>  <Name>
ligand

>  <RI>
0

>  <Rbt.Current_Directory>
/home/itssahil/PROJECTS/Mol_Feturizer/Test_systems_manuscript/rnas/2xnw

>  <Rbt.Executable>
rbdock ($Id: //depot/dev/client3/rdock/2013.1/src/exe/rbdock.cxx#4 $)

>  <Rbt.Library>
libRbt.so (2013.1, Build901 2013/11/27)

>  <Rbt.Parameter_File>
/export/apps/rDock/src/rDock_2013.1_src/data/scripts/dock_solv.prm

>  <Rbt.Receptor>
prm/pocket_docking_8.prm

>  <SCORE>
-6.37814

>  <SCORE.INTER>
-6.37814

>  <SCORE.INTER.CONST>
1

>  <SCORE.INTER.POLAR>
0

>  <SCORE.INTER.ROT>
0

>  <SCORE.INTER.SOLV>
22.0888

>  <SCORE.INTER.VDW>
-15.215

>  <SCORE.INTER.norm>
-0.637814

>  <SCORE.INTRA>
0

>  <SCORE.INTRA.DIHEDRAL>
0

>  <SCORE.INTRA.DIHEDRAL.0>
0

>  <SCORE.INTRA.POLAR>
0

>  <SCORE.INTRA.POLAR.0>
0

>  <SCORE.INTRA.REPUL>
0

>  <SCORE.INTRA.REPUL.0>
0

>  <SCORE.INTRA.SOLV>
0

>  <SCORE.INTRA.SOLV.lig_0>
-47.9788

>  <SCORE.INTRA.VDW>
0

>  <SCORE.INTRA.VDW.0>
0

>  <SCORE.INTRA.norm>
0

>  <SCORE.RESTR>
0

>  <SCORE.RESTR.CAVITY>
0

>  <SCORE.RESTR.norm>
0

>  <SCORE.SYSTEM>
0

>  <SCORE.SYSTEM.CONST>
0

>  <SCORE.SYSTEM.DIHEDRAL>
0

>  <SCORE.SYSTEM.SOLV>
0

>  <SCORE.SYSTEM.norm>
0

>  <SCORE.heavy>
10

>  <SCORE.norm>
-0.637814

>  <RMSD>
3.819

$$$$
ligand
 OpenBabel02271912133D
libRbt.so/2013.1/901 2013/11/27
 10 11  0  0  0  0  0  0  0  0999 V2000
   11.1182   -1.5610    5.4986 C   0  0  1  0  0  0  0  0  0  0  0  0
   12.3161   -2.7159    8.4795 C   0  0  2  0  0  0  0  0  0  0  0  0
   11.2762   -1.1335    7.5511 C   0  0  2  0  0  0  0  0  0  0  0  0
   10.8172   -1.4843    4.1972 N   0  0  0  0  0  0  0  0  0  0  0  0
   12.9601   -3.8546    8.7154 N   0  0  0  0  0  0  0  0  0  0  0  0
   12.0200   -1.8138    9.4076 N   0  0  0  0  0  0  0  0  0  0  0  0
   10.7969   -0.6448    6.4052 N   0  0  0  0  0  0  0  0  0  0  0  0
   11.7709   -2.5781    6.0907 N   0  0  0  0  0  0  0  0  0  0  0  0
   11.4141   -0.8807    8.8617 N   0  0  0  0  0  0  0  0  0  0  0  0
   11.8552   -2.3140    7.3007 N   0  0  1  0  0  0  0  0  0  0  0  0
  1  4  1  1  0  0  0
  1  8  1  0  0  0  0
  1  7  1  0  0  0  0
  2  5  1  1  0  0  0
  2  6  1  0  0  0  0
  2 10  1  0  0  0  0
  3  7  1  6  0  0  0
  3 10  1  0  0  0  0
  3  9  1  0  0  0  0
  6  9  1  0  0  0  0
 10  8  1  6  0  0  0
M  END
>  <CHROM.1>
11.63734309,-1.90230646,7.25409929,-2.26671350,-1.05491331,1.21696053

>  <Name>
ligand

>  <RI>
0

>  <Rbt.Current_Directory>
/home/itssahil/PROJECTS/Mol_Feturizer/Test_systems_manuscript/rnas/2xnw

>  <Rbt.Executable>
rbdock ($Id: //depot/dev/client3/rdock/2013.1/src/exe/rbdock.cxx#4 $)

>  <Rbt.Library>
libRbt.so (2013.1, Build901 2013/11/27)

>  <Rbt.Parameter_File>
/export/apps/rDock/src/rDock_2013.1_src/data/scripts/dock_solv.prm

>  <Rbt.Receptor>
prm/blind_docking_40.prm

>  <SCORE>
-6.37928

>  <SCORE.INTER>
-6.37928

>  <SCORE.INTER.CONST>
1

>  <SCORE.INTER.POLAR>
0

>  <SCORE.INTER.ROT>
0

>  <SCORE.INTER.SOLV>
22.0794

>  <SCORE.INTER.VDW>
-15.2126

>  <SCORE.INTER.norm>
-0.637928

>  <SCORE.INTRA>
0

>  <SCORE.INTRA.DIHEDRAL>
0

>  <SCORE.INTRA.DIHEDRAL.0>
0

>  <SCORE.INTRA.POLAR>
0

>  <SCORE.INTRA.POLAR.0>
0

>  <SCORE.INTRA.REPUL>
0

>  <SCORE.INTRA.REPUL.0>
0

>  <SCORE.INTRA.SOLV>
0

>  <SCORE.INTRA.SOLV.lig_0>
-47.9788

>  <SCORE.INTRA.VDW>
0

>  <SCORE.INTRA.VDW.0>
0

>  <SCORE.INTRA.norm>
0

>  <SCORE.RESTR>
0

>  <SCORE.RESTR.CAVITY>
0

>  <SCORE.RESTR.norm>
0

>  <SCORE.SYSTEM>
0

>  <SCORE.SYSTEM.CONST>
0

>  <SCORE.SYSTEM.DIHEDRAL>
0

>  <SCORE.SYSTEM.SOLV>
0

>  <SCORE.SYSTEM.norm>
0

>  <SCORE.heavy>
10

>  <SCORE.norm>
-0.637928

>  <RMSD>
3.820

$$$$
ligand
 OpenBabel02271912133D
libRbt.so/2013.1/901 2013/11/27
 10 11  0  0  0  0  0  0  0  0999 V2000
   11.1209   -1.5580    5.4943 C   0  0  1  0  0  0  0  0  0  0  0  0
   12.3187   -2.7148    8.4745 C   0  0  2  0  0  0  0  0  0  0  0  0
   11.2841   -1.1290    7.5461 C   0  0  2  0  0  0  0  0  0  0  0  0
   10.8180   -1.4815    4.1934 N   0  0  0  0  0  0  0  0  0  0  0  0
   12.9583   -3.8560    8.7106 N   0  0  0  0  0  0  0  0  0  0  0  0
   12.0280   -1.8105    9.4021 N   0  0  0  0  0  0  0  0  0  0  0  0
   10.8049   -0.6395    6.4005 N   0  0  0  0  0  0  0  0  0  0  0  0
   11.7702   -2.5772    6.0865 N   0  0  0  0  0  0  0  0  0  0  0  0
   11.4252   -0.8754    8.8562 N   0  0  0  0  0  0  0  0  0  0  0  0
   11.8576   -2.3122    7.2960 N   0  0  1  0  0  0  0  0  0  0  0  0
  1  4  1  1  0  0  0
  1  8  1  0  0  0  0
  1  7  1  0  0  0  0
  2  5  1  1  0  0  0
  2  6  1  0  0  0  0
  2 10  1  0  0  0  0
  3  7  1  6  0  0  0
  3 10  1  0  0  0  0
  3  9  1  0  0  0  0
  6  9  1  0  0  0  0
 10  8  1  6  0  0  0
M  END
>  <CHROM.1>
11.64144748,-1.89965126,7.24933360,-2.27285821,-1.05830996,1.21053840

>  <Name>
ligand

>  <RI>
0

>  <Rbt.Current_Directory>
/home/itssahil/PROJECTS/Mol_Feturizer/Test_systems_manuscript/rnas/2xnw

>  <Rbt.Executable>
rbdock ($Id: //depot/dev/client3/rdock/2013.1/src/exe/rbdock.cxx#4 $)

>  <Rbt.Library>
libRbt.so (2013.1, Build901 2013/11/27)

>  <Rbt.Parameter_File>
/export/apps/rDock/src/rDock_2013.1_src/data/scripts/dock_solv.prm

>  <Rbt.Receptor>
prm/pocket_docking_3.prm

>  <SCORE>
-6.37914

>  <SCORE.INTER>
-6.37914

>  <SCORE.INTER.CONST>
1

>  <SCORE.INTER.POLAR>
0

>  <SCORE.INTER.ROT>
0

>  <SCORE.INTER.SOLV>
22.0786

>  <SCORE.INTER.VDW>
-15.2123

>  <SCORE.INTER.norm>
-0.637914

>  <SCORE.INTRA>
0

>  <SCORE.INTRA.DIHEDRAL>
0

>  <SCORE.INTRA.DIHEDRAL.0>
0

>  <SCORE.INTRA.POLAR>
0

>  <SCORE.INTRA.POLAR.0>
0

>  <SCORE.INTRA.REPUL>
0

>  <SCORE.INTRA.REPUL.0>
0

>  <SCORE.INTRA.SOLV>
0

>  <SCORE.INTRA.SOLV.lig_0>
-47.9788

>  <SCORE.INTRA.VDW>
0

>  <SCORE.INTRA.VDW.0>
0

>  <SCORE.INTRA.norm>
0

>  <SCORE.RESTR>
0

>  <SCORE.RESTR.CAVITY>
0

>  <SCORE.RESTR.norm>
0

>  <SCORE.SYSTEM>
0

>  <SCORE.SYSTEM.CONST>
0

>  <SCORE.SYSTEM.DIHEDRAL>
0

>  <SCORE.SYSTEM.SOLV>
0

>  <SCORE.SYSTEM.norm>
0

>  <SCORE.heavy>
10

>  <SCORE.norm>
-0.637914

>  <RMSD>
3.820

$$$$
ligand
 OpenBabel02271912133D
libRbt.so/2013.1/901 2013/11/27
 10 11  0  0  0  0  0  0  0  0999 V2000
   11.1178   -1.5709    5.5009 C   0  0  1  0  0  0  0  0  0  0  0  0
   12.2883   -2.7412    8.4866 C   0  0  2  0  0  0  0  0  0  0  0  0
   11.2809   -1.1413    7.5525 C   0  0  2  0  0  0  0  0  0  0  0  0
   10.8203   -1.4917    4.1989 N   0  0  0  0  0  0  0  0  0  0  0  0
   12.9098   -3.8916    8.7265 N   0  0  0  0  0  0  0  0  0  0  0  0
   12.0084   -1.8311    9.4120 N   0  0  0  0  0  0  0  0  0  0  0  0
   10.8129   -0.6463    6.4047 N   0  0  0  0  0  0  0  0  0  0  0  0
   11.7496   -2.5989    6.0966 N   0  0  0  0  0  0  0  0  0  0  0  0
   11.4216   -0.8878    8.8627 N   0  0  0  0  0  0  0  0  0  0  0  0
   11.8372   -2.3334    7.3061 N   0  0  1  0  0  0  0  0  0  0  0  0
  1  4  1  1  0  0  0
  1  8  1  0  0  0  0
  1  7  1  0  0  0  0
  2  5  1  1  0  0  0
  2  6  1  0  0  0  0
  2 10  1  0  0  0  0
  3  7  1  6  0  0  0
  3 10  1  0  0  0  0
  3  9  1  0  0  0  0
  6  9  1  0  0  0  0
 10  8  1  6  0  0  0
M  END
>  <CHROM.1>
11.62747842,-1.91769447,7.25808055,-2.27778928,-1.07366849,1.20471663

>  <Name>
ligand

>  <RI>
0

>  <Rbt.Current_Directory>
/home/itssahil/PROJECTS/Mol_Feturizer/Test_systems_manuscript/rnas/2xnw

>  <Rbt.Executable>
rbdock ($Id: //depot/dev/client3/rdock/2013.1/src/exe/rbdock.cxx#4 $)

>  <Rbt.Library>
libRbt.so (2013.1, Build901 2013/11/27)

>  <Rbt.Parameter_File>
/export/apps/rDock/src/rDock_2013.1_src/data/scripts/dock_solv.prm

>  <Rbt.Receptor>
prm/pocket_docking_4.prm

>  <SCORE>
-6.3748

>  <SCORE.INTER>
-6.3748

>  <SCORE.INTER.CONST>
1

>  <SCORE.INTER.POLAR>
0

>  <SCORE.INTER.ROT>
0

>  <SCORE.INTER.SOLV>
22.2172

>  <SCORE.INTER.VDW>
-15.2556

>  <SCORE.INTER.norm>
-0.63748

>  <SCORE.INTRA>
0

>  <SCORE.INTRA.DIHEDRAL>
0

>  <SCORE.INTRA.DIHEDRAL.0>
0

>  <SCORE.INTRA.POLAR>
0

>  <SCORE.INTRA.POLAR.0>
0

>  <SCORE.INTRA.REPUL>
0

>  <SCORE.INTRA.REPUL.0>
0

>  <SCORE.INTRA.SOLV>
0

>  <SCORE.INTRA.SOLV.lig_0>
-47.9788

>  <SCORE.INTRA.VDW>
0

>  <SCORE.INTRA.VDW.0>
0

>  <SCORE.INTRA.norm>
0

>  <SCORE.RESTR>
0

>  <SCORE.RESTR.CAVITY>
0

>  <SCORE.RESTR.norm>
0

>  <SCORE.SYSTEM>
0

>  <SCORE.SYSTEM.CONST>
0

>  <SCORE.SYSTEM.DIHEDRAL>
0

>  <SCORE.SYSTEM.SOLV>
0

>  <SCORE.SYSTEM.norm>
0

>  <SCORE.heavy>
10

>  <SCORE.norm>
-0.63748

>  <RMSD>
3.820

$$$$
ligand
 OpenBabel02271912133D
libRbt.so/2013.1/901 2013/11/27
 10 11  0  0  0  0  0  0  0  0999 V2000
   11.1278   -1.5736    5.4939 C   0  0  1  0  0  0  0  0  0  0  0  0
   12.3174   -2.7364    8.4751 C   0  0  2  0  0  0  0  0  0  0  0  0
   11.2866   -1.1480    7.5467 C   0  0  2  0  0  0  0  0  0  0  0  0
   10.8281   -1.4946    4.1924 N   0  0  0  0  0  0  0  0  0  0  0  0
   12.9552   -3.8787    8.7108 N   0  0  0  0  0  0  0  0  0  0  0  0
   12.0255   -1.8332    9.4034 N   0  0  0  0  0  0  0  0  0  0  0  0
   10.8107   -0.6562    6.4008 N   0  0  0  0  0  0  0  0  0  0  0  0
   11.7746   -2.5944    6.0860 N   0  0  0  0  0  0  0  0  0  0  0  0
   11.4249   -0.8967    8.8576 N   0  0  0  0  0  0  0  0  0  0  0  0
   11.8595   -2.3314    7.2961 N   0  0  1  0  0  0  0  0  0  0  0  0
  1  4  1  1  0  0  0
  1  8  1  0  0  0  0
  1  7  1  0  0  0  0
  2  5  1  1  0  0  0
  2  6  1  0  0  0  0
  2 10  1  0  0  0  0
  3  7  1  6  0  0  0
  3 10  1  0  0  0  0
  3  9  1  0  0  0  0
  6  9  1  0  0  0  0
 10  8  1  6  0  0  0
M  END
>  <CHROM.1>
11.64385859,-1.91857028,7.24961617,-2.26914354,-1.06014357,1.21537187

>  <Name>
ligand

>  <RI>
0

>  <Rbt.Current_Directory>
/home/itssahil/PROJECTS/Mol_Feturizer/Test_systems_manuscript/rnas/2xnw

>  <Rbt.Executable>
rbdock ($Id: //depot/dev/client3/rdock/2013.1/src/exe/rbdock.cxx#4 $)

>  <Rbt.Library>
libRbt.so (2013.1, Build901 2013/11/27)

>  <Rbt.Parameter_File>
/export/apps/rDock/src/rDock_2013.1_src/data/scripts/dock_solv.prm

>  <Rbt.Receptor>
prm/pocket_docking_5.prm

>  <SCORE>
-6.37555

>  <SCORE.INTER>
-6.37555

>  <SCORE.INTER.CONST>
1

>  <SCORE.INTER.POLAR>
0

>  <SCORE.INTER.ROT>
0

>  <SCORE.INTER.SOLV>
22.1286

>  <SCORE.INTER.VDW>
-15.2266

>  <SCORE.INTER.norm>
-0.637555

>  <SCORE.INTRA>
0

>  <SCORE.INTRA.DIHEDRAL>
0

>  <SCORE.INTRA.DIHEDRAL.0>
0

>  <SCORE.INTRA.POLAR>
0

>  <SCORE.INTRA.POLAR.0>
0

>  <SCORE.INTRA.REPUL>
0

>  <SCORE.INTRA.REPUL.0>
0

>  <SCORE.INTRA.SOLV>
0

>  <SCORE.INTRA.SOLV.lig_0>
-47.9788

>  <SCORE.INTRA.VDW>
0

>  <SCORE.INTRA.VDW.0>
0

>  <SCORE.INTRA.norm>
0

>  <SCORE.RESTR>
0

>  <SCORE.RESTR.CAVITY>
0

>  <SCORE.RESTR.norm>
0

>  <SCORE.SYSTEM>
0

>  <SCORE.SYSTEM.CONST>
0

>  <SCORE.SYSTEM.DIHEDRAL>
0

>  <SCORE.SYSTEM.SOLV>
0

>  <SCORE.SYSTEM.norm>
0

>  <SCORE.heavy>
10

>  <SCORE.norm>
-0.637555

>  <RMSD>
3.820

$$$$
ligand
 OpenBabel02271912133D
libRbt.so/2013.1/901 2013/11/27
 10 11  0  0  0  0  0  0  0  0999 V2000
   11.1173   -1.5594    5.4977 C   0  0  1  0  0  0  0  0  0  0  0  0
   12.3002   -2.7247    8.4805 C   0  0  2  0  0  0  0  0  0  0  0  0
   11.2884   -1.1266    7.5480 C   0  0  2  0  0  0  0  0  0  0  0  0
   10.8145   -1.4823    4.1968 N   0  0  0  0  0  0  0  0  0  0  0  0
   12.9230   -3.8746    8.7196 N   0  0  0  0  0  0  0  0  0  0  0  0
   12.0237   -1.8134    9.4056 N   0  0  0  0  0  0  0  0  0  0  0  0
   10.8157   -0.6335    6.4013 N   0  0  0  0  0  0  0  0  0  0  0  0
   11.7519   -2.5863    6.0925 N   0  0  0  0  0  0  0  0  0  0  0  0
   11.4344   -0.8711    8.8573 N   0  0  0  0  0  0  0  0  0  0  0  0
   11.8442   -2.3189    7.3011 N   0  0  1  0  0  0  0  0  0  0  0  0
  1  4  1  1  0  0  0
  1  8  1  0  0  0  0
  1  7  1  0  0  0  0
  2  5  1  1  0  0  0
  2  6  1  0  0  0  0
  2 10  1  0  0  0  0
  3  7  1  6  0  0  0
  3 10  1  0  0  0  0
  3  9  1  0  0  0  0
  6  9  1  0  0  0  0
 10  8  1  6  0  0  0
M  END
>  <CHROM.1>
11.63412299,-1.90334732,7.25335952,-2.28536309,-1.07189068,1.19655703

>  <Name>
ligand

>  <RI>
0

>  <Rbt.Current_Directory>
/home/itssahil/PROJECTS/Mol_Feturizer/Test_systems_manuscript/rnas/2xnw

>  <Rbt.Executable>
rbdock ($Id: //depot/dev/client3/rdock/2013.1/src/exe/rbdock.cxx#4 $)

>  <Rbt.Library>
libRbt.so (2013.1, Build901 2013/11/27)

>  <Rbt.Parameter_File>
/export/apps/rDock/src/rDock_2013.1_src/data/scripts/dock_solv.prm

>  <Rbt.Receptor>
prm/pocket_docking_5.prm

>  <SCORE>
-6.37753

>  <SCORE.INTER>
-6.37753

>  <SCORE.INTER.CONST>
1

>  <SCORE.INTER.POLAR>
0

>  <SCORE.INTER.ROT>
0

>  <SCORE.INTER.SOLV>
22.1575

>  <SCORE.INTER.VDW>
-15.2375

>  <SCORE.INTER.norm>
-0.637753

>  <SCORE.INTRA>
0

>  <SCORE.INTRA.DIHEDRAL>
0

>  <SCORE.INTRA.DIHEDRAL.0>
0

>  <SCORE.INTRA.POLAR>
0

>  <SCORE.INTRA.POLAR.0>
0

>  <SCORE.INTRA.REPUL>
0

>  <SCORE.INTRA.REPUL.0>
0

>  <SCORE.INTRA.SOLV>
0

>  <SCORE.INTRA.SOLV.lig_0>
-47.9788

>  <SCORE.INTRA.VDW>
0

>  <SCORE.INTRA.VDW.0>
0

>  <SCORE.INTRA.norm>
0

>  <SCORE.RESTR>
0

>  <SCORE.RESTR.CAVITY>
0

>  <SCORE.RESTR.norm>
0

>  <SCORE.SYSTEM>
0

>  <SCORE.SYSTEM.CONST>
0

>  <SCORE.SYSTEM.DIHEDRAL>
0

>  <SCORE.SYSTEM.SOLV>
0

>  <SCORE.SYSTEM.norm>
0

>  <SCORE.heavy>
10

>  <SCORE.norm>
-0.637753

>  <RMSD>
3.820

$$$$
ligand
 OpenBabel02271912133D
libRbt.so/2013.1/901 2013/11/27
 10 11  0  0  0  0  0  0  0  0999 V2000
   11.1213   -1.5657    5.4954 C   0  0  1  0  0  0  0  0  0  0  0  0
   12.3099   -2.7262    8.4778 C   0  0  2  0  0  0  0  0  0  0  0  0
   11.2783   -1.1392    7.5482 C   0  0  2  0  0  0  0  0  0  0  0  0
   10.8224   -1.4875    4.1937 N   0  0  0  0  0  0  0  0  0  0  0  0
   12.9486   -3.8678    8.7145 N   0  0  0  0  0  0  0  0  0  0  0  0
   12.0165   -1.8229    9.4056 N   0  0  0  0  0  0  0  0  0  0  0  0
   10.8027   -0.6482    6.4017 N   0  0  0  0  0  0  0  0  0  0  0  0
   11.7687   -2.5857    6.0883 N   0  0  0  0  0  0  0  0  0  0  0  0
   11.4154   -0.8871    8.8591 N   0  0  0  0  0  0  0  0  0  0  0  0
   11.8524   -2.3221    7.2984 N   0  0  1  0  0  0  0  0  0  0  0  0
  1  4  1  1  0  0  0
  1  8  1  0  0  0  0
  1  7  1  0  0  0  0
  2  5  1  1  0  0  0
  2  6  1  0  0  0  0
  2 10  1  0  0  0  0
  3  7  1  6  0  0  0
  3 10  1  0  0  0  0
  3  9  1  0  0  0  0
  6  9  1  0  0  0  0
 10  8  1  6  0  0  0
M  END
>  <CHROM.1>
11.63646558,-1.90949050,7.25160638,-2.26715164,-1.05950503,1.21671191

>  <Name>
ligand

>  <RI>
0

>  <Rbt.Current_Directory>
/home/itssahil/PROJECTS/Mol_Feturizer/Test_systems_manuscript/rnas/2xnw

>  <Rbt.Executable>
rbdock ($Id: //depot/dev/client3/rdock/2013.1/src/exe/rbdock.cxx#4 $)

>  <Rbt.Library>
libRbt.so (2013.1, Build901 2013/11/27)

>  <Rbt.Parameter_File>
/export/apps/rDock/src/rDock_2013.1_src/data/scripts/dock_solv.prm

>  <Rbt.Receptor>
prm/pocket_docking_6.prm

>  <SCORE>
-6.3778

>  <SCORE.INTER>
-6.3778

>  <SCORE.INTER.CONST>
1

>  <SCORE.INTER.POLAR>
0

>  <SCORE.INTER.ROT>
0

>  <SCORE.INTER.SOLV>
22.1212

>  <SCORE.INTER.VDW>
-15.2256

>  <SCORE.INTER.norm>
-0.63778

>  <SCORE.INTRA>
0

>  <SCORE.INTRA.DIHEDRAL>
0

>  <SCORE.INTRA.DIHEDRAL.0>
0

>  <SCORE.INTRA.POLAR>
0

>  <SCORE.INTRA.POLAR.0>
0

>  <SCORE.INTRA.REPUL>
0

>  <SCORE.INTRA.REPUL.0>
0

>  <SCORE.INTRA.SOLV>
0

>  <SCORE.INTRA.SOLV.lig_0>
-47.9788

>  <SCORE.INTRA.VDW>
0

>  <SCORE.INTRA.VDW.0>
0

>  <SCORE.INTRA.norm>
0

>  <SCORE.RESTR>
0

>  <SCORE.RESTR.CAVITY>
0

>  <SCORE.RESTR.norm>
0

>  <SCORE.SYSTEM>
0

>  <SCORE.SYSTEM.CONST>
0

>  <SCORE.SYSTEM.DIHEDRAL>
0

>  <SCORE.SYSTEM.SOLV>
0

>  <SCORE.SYSTEM.norm>
0

>  <SCORE.heavy>
10

>  <SCORE.norm>
-0.63778

>  <RMSD>
3.820

$$$$
ligand
 OpenBabel02271912133D
libRbt.so/2013.1/901 2013/11/27
 10 11  0  0  0  0  0  0  0  0999 V2000
   11.1181   -1.5564    5.4880 C   0  0  1  0  0  0  0  0  0  0  0  0
   12.3159   -2.7256    8.4633 C   0  0  2  0  0  0  0  0  0  0  0  0
   11.2807   -1.1363    7.5417 C   0  0  2  0  0  0  0  0  0  0  0  0
   10.8154   -1.4743    4.1874 N   0  0  0  0  0  0  0  0  0  0  0  0
   12.9560   -3.8676    8.6945 N   0  0  0  0  0  0  0  0  0  0  0  0
   12.0247   -1.8255    9.3948 N   0  0  0  0  0  0  0  0  0  0  0  0
   10.8015   -0.6420    6.3982 N   0  0  0  0  0  0  0  0  0  0  0  0
   11.7677   -2.5779    6.0759 N   0  0  0  0  0  0  0  0  0  0  0  0
   11.4215   -0.8883    8.8529 N   0  0  0  0  0  0  0  0  0  0  0  0
   11.8548   -2.3181    7.2865 N   0  0  1  0  0  0  0  0  0  0  0  0
  1  4  1  1  0  0  0
  1  8  1  0  0  0  0
  1  7  1  0  0  0  0
  2  5  1  1  0  0  0
  2  6  1  0  0  0  0
  2 10  1  0  0  0  0
  3  7  1  6  0  0  0
  3 10  1  0  0  0  0
  3  9  1  0  0  0  0
  6  9  1  0  0  0  0
 10  8  1  6  0  0  0
M  END
>  <CHROM.1>
11.63849102,-1.90544375,7.24164001,-2.27225495,-1.05796148,1.21542688

>  <Name>
ligand

>  <RI>
0

>  <Rbt.Current_Directory>
/home/itssahil/PROJECTS/Mol_Feturizer/Test_systems_manuscript/rnas/2xnw

>  <Rbt.Executable>
rbdock ($Id: //depot/dev/client3/rdock/2013.1/src/exe/rbdock.cxx#4 $)

>  <Rbt.Library>
libRbt.so (2013.1, Build901 2013/11/27)

>  <Rbt.Parameter_File>
/export/apps/rDock/src/rDock_2013.1_src/data/scripts/dock_solv.prm

>  <Rbt.Receptor>
prm/pocket_docking_8.prm

>  <SCORE>
-6.37886

>  <SCORE.INTER>
-6.37886

>  <SCORE.INTER.CONST>
1

>  <SCORE.INTER.POLAR>
0

>  <SCORE.INTER.ROT>
0

>  <SCORE.INTER.SOLV>
22.0403

>  <SCORE.INTER.VDW>
-15.1993

>  <SCORE.INTER.norm>
-0.637886

>  <SCORE.INTRA>
0

>  <SCORE.INTRA.DIHEDRAL>
0

>  <SCORE.INTRA.DIHEDRAL.0>
0

>  <SCORE.INTRA.POLAR>
0

>  <SCORE.INTRA.POLAR.0>
0

>  <SCORE.INTRA.REPUL>
0

>  <SCORE.INTRA.REPUL.0>
0

>  <SCORE.INTRA.SOLV>
0

>  <SCORE.INTRA.SOLV.lig_0>
-47.9788

>  <SCORE.INTRA.VDW>
0

>  <SCORE.INTRA.VDW.0>
0

>  <SCORE.INTRA.norm>
0

>  <SCORE.RESTR>
0

>  <SCORE.RESTR.CAVITY>
0

>  <SCORE.RESTR.norm>
0

>  <SCORE.SYSTEM>
0

>  <SCORE.SYSTEM.CONST>
0

>  <SCORE.SYSTEM.DIHEDRAL>
0

>  <SCORE.SYSTEM.SOLV>
0

>  <SCORE.SYSTEM.norm>
0

>  <SCORE.heavy>
10

>  <SCORE.norm>
-0.637886

>  <RMSD>
3.820

$$$$
ligand
 OpenBabel02271912133D
libRbt.so/2013.1/901 2013/11/27
 10 11  0  0  0  0  0  0  0  0999 V2000
   11.1252   -1.5650    5.4952 C   0  0  1  0  0  0  0  0  0  0  0  0
   12.3179   -2.7166    8.4794 C   0  0  2  0  0  0  0  0  0  0  0  0
   11.2826   -1.1336    7.5469 C   0  0  2  0  0  0  0  0  0  0  0  0
   10.8253   -1.4902    4.1934 N   0  0  0  0  0  0  0  0  0  0  0  0
   12.9591   -3.8564    8.7181 N   0  0  0  0  0  0  0  0  0  0  0  0
   12.0233   -1.8119    9.4054 N   0  0  0  0  0  0  0  0  0  0  0  0
   10.8053   -0.6462    6.3997 N   0  0  0  0  0  0  0  0  0  0  0  0
   11.7749   -2.5824    6.0899 N   0  0  0  0  0  0  0  0  0  0  0  0
   11.4201   -0.8785    8.8571 N   0  0  0  0  0  0  0  0  0  0  0  0
   11.8589   -2.3160    7.2994 N   0  0  1  0  0  0  0  0  0  0  0  0
  1  4  1  1  0  0  0
  1  8  1  0  0  0  0
  1  7  1  0  0  0  0
  2  5  1  1  0  0  0
  2  6  1  0  0  0  0
  2 10  1  0  0  0  0
  3  7  1  6  0  0  0
  3 10  1  0  0  0  0
  3  9  1  0  0  0  0
  6  9  1  0  0  0  0
 10  8  1  6  0  0  0
M  END
>  <CHROM.1>
11.64211373,-1.90389104,7.25178624,-2.26693746,-1.05743645,1.21471044

>  <Name>
ligand

>  <RI>
0

>  <Rbt.Current_Directory>
/home/itssahil/PROJECTS/Mol_Feturizer/Test_systems_manuscript/rnas/2xnw

>  <Rbt.Executable>
rbdock ($Id: //depot/dev/client3/rdock/2013.1/src/exe/rbdock.cxx#4 $)

>  <Rbt.Library>
libRbt.so (2013.1, Build901 2013/11/27)

>  <Rbt.Parameter_File>
/export/apps/rDock/src/rDock_2013.1_src/data/scripts/dock_solv.prm

>  <Rbt.Receptor>
prm/blind_docking_100.prm

>  <SCORE>
-6.37804

>  <SCORE.INTER>
-6.37804

>  <SCORE.INTER.CONST>
1

>  <SCORE.INTER.POLAR>
0

>  <SCORE.INTER.ROT>
0

>  <SCORE.INTER.SOLV>
22.1189

>  <SCORE.INTER.VDW>
-15.225

>  <SCORE.INTER.norm>
-0.637804

>  <SCORE.INTRA>
0

>  <SCORE.INTRA.DIHEDRAL>
0

>  <SCORE.INTRA.DIHEDRAL.0>
0

>  <SCORE.INTRA.POLAR>
0

>  <SCORE.INTRA.POLAR.0>
0

>  <SCORE.INTRA.REPUL>
0

>  <SCORE.INTRA.REPUL.0>
0

>  <SCORE.INTRA.SOLV>
0

>  <SCORE.INTRA.SOLV.lig_0>
-47.9788

>  <SCORE.INTRA.VDW>
0

>  <SCORE.INTRA.VDW.0>
0

>  <SCORE.INTRA.norm>
0

>  <SCORE.RESTR>
0

>  <SCORE.RESTR.CAVITY>
0

>  <SCORE.RESTR.norm>
0

>  <SCORE.SYSTEM>
0

>  <SCORE.SYSTEM.CONST>
0

>  <SCORE.SYSTEM.DIHEDRAL>
0

>  <SCORE.SYSTEM.SOLV>
0

>  <SCORE.SYSTEM.norm>
0

>  <SCORE.heavy>
10

>  <SCORE.norm>
-0.637804

>  <RMSD>
3.821

$$$$
ligand
 OpenBabel02271912133D
libRbt.so/2013.1/901 2013/11/27
 10 11  0  0  0  0  0  0  0  0999 V2000
   11.1218   -1.5691    5.4985 C   0  0  1  0  0  0  0  0  0  0  0  0
   12.2991   -2.7287    8.4858 C   0  0  2  0  0  0  0  0  0  0  0  0
   11.2822   -1.1359    7.5496 C   0  0  2  0  0  0  0  0  0  0  0  0
   10.8239   -1.4933    4.1964 N   0  0  0  0  0  0  0  0  0  0  0  0
   12.9273   -3.8751    8.7271 N   0  0  0  0  0  0  0  0  0  0  0  0
   12.0137   -1.8191    9.4099 N   0  0  0  0  0  0  0  0  0  0  0  0
   10.8114   -0.6452    6.4011 N   0  0  0  0  0  0  0  0  0  0  0  0
   11.7597   -2.5926    6.0956 N   0  0  0  0  0  0  0  0  0  0  0  0
   11.4214   -0.8800    8.8595 N   0  0  0  0  0  0  0  0  0  0  0  0
   11.8456   -2.3251    7.3047 N   0  0  1  0  0  0  0  0  0  0  0  0
  1  4  1  1  0  0  0
  1  8  1  0  0  0  0
  1  7  1  0  0  0  0
  2  5  1  1  0  0  0
  2  6  1  0  0  0  0
  2 10  1  0  0  0  0
  3  7  1  6  0  0  0
  3 10  1  0  0  0  0
  3  9  1  0  0  0  0
  6  9  1  0  0  0  0
 10  8  1  6  0  0  0
M  END
>  <CHROM.1>
11.63340921,-1.91066171,7.25616477,-2.27328668,-1.06815321,1.20741673

>  <Name>
ligand

>  <RI>
0

>  <Rbt.Current_Directory>
/home/itssahil/PROJECTS/Mol_Feturizer/Test_systems_manuscript/rnas/2xnw

>  <Rbt.Executable>
rbdock ($Id: //depot/dev/client3/rdock/2013.1/src/exe/rbdock.cxx#4 $)

>  <Rbt.Library>
libRbt.so (2013.1, Build901 2013/11/27)

>  <Rbt.Parameter_File>
/export/apps/rDock/src/rDock_2013.1_src/data/scripts/dock_solv.prm

>  <Rbt.Receptor>
prm/blind_docking_20.prm

>  <SCORE>
-6.37662

>  <SCORE.INTER>
-6.37662

>  <SCORE.INTER.CONST>
1

>  <SCORE.INTER.POLAR>
0

>  <SCORE.INTER.ROT>
0

>  <SCORE.INTER.SOLV>
22.1973

>  <SCORE.INTER.VDW>
-15.2502

>  <SCORE.INTER.norm>
-0.637662

>  <SCORE.INTRA>
0

>  <SCORE.INTRA.DIHEDRAL>
0

>  <SCORE.INTRA.DIHEDRAL.0>
0

>  <SCORE.INTRA.POLAR>
0

>  <SCORE.INTRA.POLAR.0>
0

>  <SCORE.INTRA.REPUL>
0

>  <SCORE.INTRA.REPUL.0>
0

>  <SCORE.INTRA.SOLV>
0

>  <SCORE.INTRA.SOLV.lig_0>
-47.9788

>  <SCORE.INTRA.VDW>
0

>  <SCORE.INTRA.VDW.0>
0

>  <SCORE.INTRA.norm>
0

>  <SCORE.RESTR>
0

>  <SCORE.RESTR.CAVITY>
0

>  <SCORE.RESTR.norm>
0

>  <SCORE.SYSTEM>
0

>  <SCORE.SYSTEM.CONST>
0

>  <SCORE.SYSTEM.DIHEDRAL>
0

>  <SCORE.SYSTEM.SOLV>
0

>  <SCORE.SYSTEM.norm>
0

>  <SCORE.heavy>
10

>  <SCORE.norm>
-0.637662

>  <RMSD>
3.821

$$$$
ligand
 OpenBabel02271912133D
libRbt.so/2013.1/901 2013/11/27
 10 11  0  0  0  0  0  0  0  0999 V2000
   11.1289   -1.5716    5.4956 C   0  0  1  0  0  0  0  0  0  0  0  0
   12.3240   -2.7232    8.4788 C   0  0  2  0  0  0  0  0  0  0  0  0
   11.2861   -1.1412    7.5475 C   0  0  2  0  0  0  0  0  0  0  0  0
   10.8287   -1.4966    4.1939 N   0  0  0  0  0  0  0  0  0  0  0  0
   12.9669   -3.8622    8.7168 N   0  0  0  0  0  0  0  0  0  0  0  0
   12.0282   -1.8195    9.4054 N   0  0  0  0  0  0  0  0  0  0  0  0
   10.8079   -0.6538    6.4007 N   0  0  0  0  0  0  0  0  0  0  0  0
   11.7803   -2.5884    6.0896 N   0  0  0  0  0  0  0  0  0  0  0  0
   11.4235   -0.8866    8.8579 N   0  0  0  0  0  0  0  0  0  0  0  0
   11.8642   -2.3226    7.2992 N   0  0  1  0  0  0  0  0  0  0  0  0
  1  4  1  1  0  0  0
  1  8  1  0  0  0  0
  1  7  1  0  0  0  0
  2  5  1  1  0  0  0
  2  6  1  0  0  0  0
  2 10  1  0  0  0  0
  3  7  1  6  0  0  0
  3 10  1  0  0  0  0
  3  9  1  0  0  0  0
  6  9  1  0  0  0  0
 10  8  1  6  0  0  0
M  END
>  <CHROM.1>
11.64674606,-1.91079067,7.25186167,-2.26627862,-1.05596693,1.21586932

>  <Name>
ligand

>  <RI>
0

>  <Rbt.Current_Directory>
/home/itssahil/PROJECTS/Mol_Feturizer/Test_systems_manuscript/rnas/2xnw

>  <Rbt.Executable>
rbdock ($Id: //depot/dev/client3/rdock/2013.1/src/exe/rbdock.cxx#4 $)

>  <Rbt.Library>
libRbt.so (2013.1, Build901 2013/11/27)

>  <Rbt.Parameter_File>
/export/apps/rDock/src/rDock_2013.1_src/data/scripts/dock_solv.prm

>  <Rbt.Receptor>
prm/blind_docking_20.prm

>  <SCORE>
-6.37597

>  <SCORE.INTER>
-6.37597

>  <SCORE.INTER.CONST>
1

>  <SCORE.INTER.POLAR>
0

>  <SCORE.INTER.ROT>
0

>  <SCORE.INTER.SOLV>
22.1192

>  <SCORE.INTER.VDW>
-15.2237

>  <SCORE.INTER.norm>
-0.637597

>  <SCORE.INTRA>
0

>  <SCORE.INTRA.DIHEDRAL>
0

>  <SCORE.INTRA.DIHEDRAL.0>
0

>  <SCORE.INTRA.POLAR>
0

>  <SCORE.INTRA.POLAR.0>
0

>  <SCORE.INTRA.REPUL>
0

>  <SCORE.INTRA.REPUL.0>
0

>  <SCORE.INTRA.SOLV>
0

>  <SCORE.INTRA.SOLV.lig_0>
-47.9788

>  <SCORE.INTRA.VDW>
0

>  <SCORE.INTRA.VDW.0>
0

>  <SCORE.INTRA.norm>
0

>  <SCORE.RESTR>
0

>  <SCORE.RESTR.CAVITY>
0

>  <SCORE.RESTR.norm>
0

>  <SCORE.SYSTEM>
0

>  <SCORE.SYSTEM.CONST>
0

>  <SCORE.SYSTEM.DIHEDRAL>
0

>  <SCORE.SYSTEM.SOLV>
0

>  <SCORE.SYSTEM.norm>
0

>  <SCORE.heavy>
10

>  <SCORE.norm>
-0.637597

>  <RMSD>
3.821

$$$$
ligand
 OpenBabel02271912133D
libRbt.so/2013.1/901 2013/11/27
 10 11  0  0  0  0  0  0  0  0999 V2000
   11.1253   -1.5707    5.4999 C   0  0  1  0  0  0  0  0  0  0  0  0
   12.3166   -2.7192    8.4859 C   0  0  2  0  0  0  0  0  0  0  0  0
   11.2826   -1.1368    7.5510 C   0  0  2  0  0  0  0  0  0  0  0  0
   10.8258   -1.4975    4.1980 N   0  0  0  0  0  0  0  0  0  0  0  0
   12.9568   -3.8592    8.7263 N   0  0  0  0  0  0  0  0  0  0  0  0
   12.0225   -1.8131    9.4106 N   0  0  0  0  0  0  0  0  0  0  0  0
   10.8060   -0.6505    6.4031 N   0  0  0  0  0  0  0  0  0  0  0  0
   11.7742   -2.5878    6.0961 N   0  0  0  0  0  0  0  0  0  0  0  0
   11.4200   -0.8800    8.8610 N   0  0  0  0  0  0  0  0  0  0  0  0
   11.8581   -2.3199    7.3052 N   0  0  1  0  0  0  0  0  0  0  0  0
  1  4  1  1  0  0  0
  1  8  1  0  0  0  0
  1  7  1  0  0  0  0
  2  5  1  1  0  0  0
  2  6  1  0  0  0  0
  2 10  1  0  0  0  0
  3  7  1  6  0  0  0
  3 10  1  0  0  0  0
  3  9  1  0  0  0  0
  6  9  1  0  0  0  0
 10  8  1  6  0  0  0
M  END
>  <CHROM.1>
11.64166017,-1.90769387,7.25703125,-2.26704858,-1.05819977,1.21328069

>  <Name>
ligand

>  <RI>
0

>  <Rbt.Current_Directory>
/home/itssahil/PROJECTS/Mol_Feturizer/Test_systems_manuscript/rnas/2xnw

>  <Rbt.Executable>
rbdock ($Id: //depot/dev/client3/rdock/2013.1/src/exe/rbdock.cxx#4 $)

>  <Rbt.Library>
libRbt.so (2013.1, Build901 2013/11/27)

>  <Rbt.Parameter_File>
/export/apps/rDock/src/rDock_2013.1_src/data/scripts/dock_solv.prm

>  <Rbt.Receptor>
prm/pocket_docking_3.prm

>  <SCORE>
-6.37756

>  <SCORE.INTER>
-6.37756

>  <SCORE.INTER.CONST>
1

>  <SCORE.INTER.POLAR>
0

>  <SCORE.INTER.ROT>
0

>  <SCORE.INTER.SOLV>
22.146

>  <SCORE.INTER.VDW>
-15.2337

>  <SCORE.INTER.norm>
-0.637756

>  <SCORE.INTRA>
0

>  <SCORE.INTRA.DIHEDRAL>
0

>  <SCORE.INTRA.DIHEDRAL.0>
0

>  <SCORE.INTRA.POLAR>
0

>  <SCORE.INTRA.POLAR.0>
0

>  <SCORE.INTRA.REPUL>
0

>  <SCORE.INTRA.REPUL.0>
0

>  <SCORE.INTRA.SOLV>
0

>  <SCORE.INTRA.SOLV.lig_0>
-47.9788

>  <SCORE.INTRA.VDW>
0

>  <SCORE.INTRA.VDW.0>
0

>  <SCORE.INTRA.norm>
0

>  <SCORE.RESTR>
0

>  <SCORE.RESTR.CAVITY>
0

>  <SCORE.RESTR.norm>
0

>  <SCORE.SYSTEM>
0

>  <SCORE.SYSTEM.CONST>
0

>  <SCORE.SYSTEM.DIHEDRAL>
0

>  <SCORE.SYSTEM.SOLV>
0

>  <SCORE.SYSTEM.norm>
0

>  <SCORE.heavy>
10

>  <SCORE.norm>
-0.637756

>  <RMSD>
3.821

$$$$
ligand
 OpenBabel02271912133D
libRbt.so/2013.1/901 2013/11/27
 10 11  0  0  0  0  0  0  0  0999 V2000
   11.1220   -1.5671    5.4969 C   0  0  1  0  0  0  0  0  0  0  0  0
   12.3085   -2.7230    8.4819 C   0  0  2  0  0  0  0  0  0  0  0  0
   11.2797   -1.1363    7.5486 C   0  0  2  0  0  0  0  0  0  0  0  0
   10.8233   -1.4914    4.1949 N   0  0  0  0  0  0  0  0  0  0  0  0
   12.9452   -3.8652    8.7211 N   0  0  0  0  0  0  0  0  0  0  0  0
   12.0167   -1.8172    9.4077 N   0  0  0  0  0  0  0  0  0  0  0  0
   10.8050   -0.6471    6.4011 N   0  0  0  0  0  0  0  0  0  0  0  0
   11.7676   -2.5869    6.0921 N   0  0  0  0  0  0  0  0  0  0  0  0
   11.4173   -0.8816    8.8590 N   0  0  0  0  0  0  0  0  0  0  0  0
   11.8518   -2.3208    7.3016 N   0  0  1  0  0  0  0  0  0  0  0  0
  1  4  1  1  0  0  0
  1  8  1  0  0  0  0
  1  7  1  0  0  0  0
  2  5  1  1  0  0  0
  2  6  1  0  0  0  0
  2 10  1  0  0  0  0
  3  7  1  6  0  0  0
  3 10  1  0  0  0  0
  3  9  1  0  0  0  0
  6  9  1  0  0  0  0
 10  8  1  6  0  0  0
M  END
>  <CHROM.1>
11.63654912,-1.90789146,7.25381886,-2.26836194,-1.06116048,1.21340885

>  <Name>
ligand

>  <RI>
0

>  <Rbt.Current_Directory>
/home/itssahil/PROJECTS/Mol_Feturizer/Test_systems_manuscript/rnas/2xnw

>  <Rbt.Executable>
rbdock ($Id: //depot/dev/client3/rdock/2013.1/src/exe/rbdock.cxx#4 $)

>  <Rbt.Library>
libRbt.so (2013.1, Build901 2013/11/27)

>  <Rbt.Parameter_File>
/export/apps/rDock/src/rDock_2013.1_src/data/scripts/dock_solv.prm

>  <Rbt.Receptor>
prm/pocket_docking_4.prm

>  <SCORE>
-6.37807

>  <SCORE.INTER>
-6.37807

>  <SCORE.INTER.CONST>
1

>  <SCORE.INTER.POLAR>
0

>  <SCORE.INTER.ROT>
0

>  <SCORE.INTER.SOLV>
22.147

>  <SCORE.INTER.VDW>
-15.2344

>  <SCORE.INTER.norm>
-0.637807

>  <SCORE.INTRA>
0

>  <SCORE.INTRA.DIHEDRAL>
0

>  <SCORE.INTRA.DIHEDRAL.0>
0

>  <SCORE.INTRA.POLAR>
0

>  <SCORE.INTRA.POLAR.0>
0

>  <SCORE.INTRA.REPUL>
0

>  <SCORE.INTRA.REPUL.0>
0

>  <SCORE.INTRA.SOLV>
0

>  <SCORE.INTRA.SOLV.lig_0>
-47.9788

>  <SCORE.INTRA.VDW>
0

>  <SCORE.INTRA.VDW.0>
0

>  <SCORE.INTRA.norm>
0

>  <SCORE.RESTR>
0

>  <SCORE.RESTR.CAVITY>
0

>  <SCORE.RESTR.norm>
0

>  <SCORE.SYSTEM>
0

>  <SCORE.SYSTEM.CONST>
0

>  <SCORE.SYSTEM.DIHEDRAL>
0

>  <SCORE.SYSTEM.SOLV>
0

>  <SCORE.SYSTEM.norm>
0

>  <SCORE.heavy>
10

>  <SCORE.norm>
-0.637807

>  <RMSD>
3.821

$$$$
ligand
 OpenBabel02271912133D
libRbt.so/2013.1/901 2013/11/27
 10 11  0  0  0  0  0  0  0  0999 V2000
   11.1347   -1.5746    5.4946 C   0  0  1  0  0  0  0  0  0  0  0  0
   12.3246   -2.7123    8.4853 C   0  0  2  0  0  0  0  0  0  0  0  0
   11.2873   -1.1353    7.5450 C   0  0  2  0  0  0  0  0  0  0  0  0
   10.8371   -1.5054    4.1920 N   0  0  0  0  0  0  0  0  0  0  0  0
   12.9679   -3.8497    8.7294 N   0  0  0  0  0  0  0  0  0  0  0  0
   12.0261   -1.8049    9.4074 N   0  0  0  0  0  0  0  0  0  0  0  0
   10.8110   -0.6532    6.3951 N   0  0  0  0  0  0  0  0  0  0  0  0
   11.7857   -2.5882    6.0943 N   0  0  0  0  0  0  0  0  0  0  0  0
   11.4217   -0.8749    8.8545 N   0  0  0  0  0  0  0  0  0  0  0  0
   11.8668   -2.3172    7.3029 N   0  0  1  0  0  0  0  0  0  0  0  0
  1  4  1  1  0  0  0
  1  8  1  0  0  0  0
  1  7  1  0  0  0  0
  2  5  1  1  0  0  0
  2  6  1  0  0  0  0
  2 10  1  0  0  0  0
  3  7  1  6  0  0  0
  3 10  1  0  0  0  0
  3  9  1  0  0  0  0
  6  9  1  0  0  0  0
 10  8  1  6  0  0  0
M  END
>  <CHROM.1>
11.64915189,-1.90576812,7.25339816,-2.26168978,-1.05588618,1.21557653

>  <Name>
ligand

>  <RI>
0

>  <Rbt.Current_Directory>
/home/itssahil/PROJECTS/Mol_Feturizer/Test_systems_manuscript/rnas/2xnw

>  <Rbt.Executable>
rbdock ($Id: //depot/dev/client3/rdock/2013.1/src/exe/rbdock.cxx#4 $)

>  <Rbt.Library>
libRbt.so (2013.1, Build901 2013/11/27)

>  <Rbt.Parameter_File>
/export/apps/rDock/src/rDock_2013.1_src/data/scripts/dock_solv.prm

>  <Rbt.Receptor>
prm/pocket_docking_3.prm

>  <SCORE>
-6.37411

>  <SCORE.INTER>
-6.37411

>  <SCORE.INTER.CONST>
1

>  <SCORE.INTER.POLAR>
0

>  <SCORE.INTER.ROT>
0

>  <SCORE.INTER.SOLV>
22.1716

>  <SCORE.INTER.VDW>
-15.2399

>  <SCORE.INTER.norm>
-0.637411

>  <SCORE.INTRA>
0

>  <SCORE.INTRA.DIHEDRAL>
0

>  <SCORE.INTRA.DIHEDRAL.0>
0

>  <SCORE.INTRA.POLAR>
0

>  <SCORE.INTRA.POLAR.0>
0

>  <SCORE.INTRA.REPUL>
0

>  <SCORE.INTRA.REPUL.0>
0

>  <SCORE.INTRA.SOLV>
0

>  <SCORE.INTRA.SOLV.lig_0>
-47.9788

>  <SCORE.INTRA.VDW>
0

>  <SCORE.INTRA.VDW.0>
0

>  <SCORE.INTRA.norm>
0

>  <SCORE.RESTR>
0

>  <SCORE.RESTR.CAVITY>
0

>  <SCORE.RESTR.norm>
0

>  <SCORE.SYSTEM>
0

>  <SCORE.SYSTEM.CONST>
0

>  <SCORE.SYSTEM.DIHEDRAL>
0

>  <SCORE.SYSTEM.SOLV>
0

>  <SCORE.SYSTEM.norm>
0

>  <SCORE.heavy>
10

>  <SCORE.norm>
-0.637411

>  <RMSD>
3.823

$$$$
ligand
 OpenBabel02271912133D
libRbt.so/2013.1/901 2013/11/27
 10 11  0  0  0  0  0  0  0  0999 V2000
   11.0916   -1.5925    5.4844 C   0  0  1  0  0  0  0  0  0  0  0  0
   12.3220   -2.7156    8.4643 C   0  0  2  0  0  0  0  0  0  0  0  0
   11.2865   -1.1354    7.5273 C   0  0  2  0  0  0  0  0  0  0  0  0
   10.7712   -1.5323    4.1868 N   0  0  0  0  0  0  0  0  0  0  0  0
   12.9562   -3.8582    8.7080 N   0  0  0  0  0  0  0  0  0  0  0  0
   12.0510   -1.7958    9.3826 N   0  0  0  0  0  0  0  0  0  0  0  0
   10.7951   -0.6587    6.3815 N   0  0  0  0  0  0  0  0  0  0  0  0
   11.7414   -2.6081    6.0823 N   0  0  0  0  0  0  0  0  0  0  0  0
   11.4477   -0.8641    8.8316 N   0  0  0  0  0  0  0  0  0  0  0  0
   11.8476   -2.3264    7.2865 N   0  0  1  0  0  0  0  0  0  0  0  0
  1  4  1  1  0  0  0
  1  8  1  0  0  0  0
  1  7  1  0  0  0  0
  2  5  1  1  0  0  0
  2  6  1  0  0  0  0
  2 10  1  0  0  0  0
  3  7  1  6  0  0  0
  3 10  1  0  0  0  0
  3  9  1  0  0  0  0
  6  9  1  0  0  0  0
 10  8  1  6  0  0  0
M  END
>  <CHROM.1>
11.63388555,-1.91291243,7.23687440,-2.30489735,-1.06023693,1.16818340

>  <Name>
ligand

>  <RI>
0

>  <Rbt.Current_Directory>
/home/itssahil/PROJECTS/Mol_Feturizer/Test_systems_manuscript/rnas/2xnw

>  <Rbt.Executable>
rbdock ($Id: //depot/dev/client3/rdock/2013.1/src/exe/rbdock.cxx#4 $)

>  <Rbt.Library>
libRbt.so (2013.1, Build901 2013/11/27)

>  <Rbt.Parameter_File>
/export/apps/rDock/src/rDock_2013.1_src/data/scripts/dock_solv.prm

>  <Rbt.Receptor>
prm/pocket_docking_3.prm

>  <SCORE>
-6.36218

>  <SCORE.INTER>
-6.36218

>  <SCORE.INTER.CONST>
1

>  <SCORE.INTER.POLAR>
0

>  <SCORE.INTER.ROT>
0

>  <SCORE.INTER.SOLV>
22.0454

>  <SCORE.INTER.VDW>
-15.1899

>  <SCORE.INTER.norm>
-0.636218

>  <SCORE.INTRA>
0

>  <SCORE.INTRA.DIHEDRAL>
0

>  <SCORE.INTRA.DIHEDRAL.0>
0

>  <SCORE.INTRA.POLAR>
0

>  <SCORE.INTRA.POLAR.0>
0

>  <SCORE.INTRA.REPUL>
0

>  <SCORE.INTRA.REPUL.0>
0

>  <SCORE.INTRA.SOLV>
0

>  <SCORE.INTRA.SOLV.lig_0>
-47.9788

>  <SCORE.INTRA.VDW>
0

>  <SCORE.INTRA.VDW.0>
0

>  <SCORE.INTRA.norm>
0

>  <SCORE.RESTR>
0

>  <SCORE.RESTR.CAVITY>
0

>  <SCORE.RESTR.norm>
0

>  <SCORE.SYSTEM>
0

>  <SCORE.SYSTEM.CONST>
0

>  <SCORE.SYSTEM.DIHEDRAL>
0

>  <SCORE.SYSTEM.SOLV>
0

>  <SCORE.SYSTEM.norm>
0

>  <SCORE.heavy>
10

>  <SCORE.norm>
-0.636218

>  <RMSD>
3.826

$$$$
ligand
 OpenBabel02271912133D
libRbt.so/2013.1/901 2013/11/27
 10 11  0  0  0  0  0  0  0  0999 V2000
   11.0875   -1.5986    5.4906 C   0  0  1  0  0  0  0  0  0  0  0  0
   12.3248   -2.7121    8.4711 C   0  0  2  0  0  0  0  0  0  0  0  0
   11.2877   -1.1346    7.5314 C   0  0  2  0  0  0  0  0  0  0  0  0
   10.7640   -1.5426    4.1936 N   0  0  0  0  0  0  0  0  0  0  0  0
   12.9592   -3.8542    8.7170 N   0  0  0  0  0  0  0  0  0  0  0  0
   12.0565   -1.7892    9.3870 N   0  0  0  0  0  0  0  0  0  0  0  0
   10.7937   -0.6616    6.3852 N   0  0  0  0  0  0  0  0  0  0  0  0
   11.7383   -2.6124    6.0902 N   0  0  0  0  0  0  0  0  0  0  0  0
   11.4523   -0.8590    8.8344 N   0  0  0  0  0  0  0  0  0  0  0  0
   11.8477   -2.3267    7.2932 N   0  0  1  0  0  0  0  0  0  0  0  0
  1  4  1  1  0  0  0
  1  8  1  0  0  0  0
  1  7  1  0  0  0  0
  2  5  1  1  0  0  0
  2  6  1  0  0  0  0
  2 10  1  0  0  0  0
  3  7  1  6  0  0  0
  3 10  1  0  0  0  0
  3  9  1  0  0  0  0
  6  9  1  0  0  0  0
 10  8  1  6  0  0  0
M  END
>  <CHROM.1>
11.63404742,-1.91330146,7.24271107,-2.30994783,-1.05965259,1.16041667

>  <Name>
ligand

>  <RI>
0

>  <Rbt.Current_Directory>
/home/itssahil/PROJECTS/Mol_Feturizer/Test_systems_manuscript/rnas/2xnw

>  <Rbt.Executable>
rbdock ($Id: //depot/dev/client3/rdock/2013.1/src/exe/rbdock.cxx#4 $)

>  <Rbt.Library>
libRbt.so (2013.1, Build901 2013/11/27)

>  <Rbt.Parameter_File>
/export/apps/rDock/src/rDock_2013.1_src/data/scripts/dock_solv.prm

>  <Rbt.Receptor>
prm/pocket_docking_5.prm

>  <SCORE>
-6.36112

>  <SCORE.INTER>
-6.36112

>  <SCORE.INTER.CONST>
1

>  <SCORE.INTER.POLAR>
0

>  <SCORE.INTER.ROT>
0

>  <SCORE.INTER.SOLV>
22.047

>  <SCORE.INTER.VDW>
-15.1898

>  <SCORE.INTER.norm>
-0.636112

>  <SCORE.INTRA>
0

>  <SCORE.INTRA.DIHEDRAL>
0

>  <SCORE.INTRA.DIHEDRAL.0>
0

>  <SCORE.INTRA.POLAR>
0

>  <SCORE.INTRA.POLAR.0>
0

>  <SCORE.INTRA.REPUL>
0

>  <SCORE.INTRA.REPUL.0>
0

>  <SCORE.INTRA.SOLV>
0

>  <SCORE.INTRA.SOLV.lig_0>
-47.9788

>  <SCORE.INTRA.VDW>
0

>  <SCORE.INTRA.VDW.0>
0

>  <SCORE.INTRA.norm>
0

>  <SCORE.RESTR>
0

>  <SCORE.RESTR.CAVITY>
0

>  <SCORE.RESTR.norm>
0

>  <SCORE.SYSTEM>
0

>  <SCORE.SYSTEM.CONST>
0

>  <SCORE.SYSTEM.DIHEDRAL>
0

>  <SCORE.SYSTEM.SOLV>
0

>  <SCORE.SYSTEM.norm>
0

>  <SCORE.heavy>
10

>  <SCORE.norm>
-0.636112

>  <RMSD>
3.826

$$$$
ligand
 OpenBabel02271912133D
libRbt.so/2013.1/901 2013/11/27
 10 11  0  0  0  0  0  0  0  0999 V2000
   11.1000   -1.6026    5.4796 C   0  0  1  0  0  0  0  0  0  0  0  0
   12.3145   -2.7378    8.4613 C   0  0  2  0  0  0  0  0  0  0  0  0
   11.2705   -1.1610    7.5281 C   0  0  2  0  0  0  0  0  0  0  0  0
   10.7913   -1.5347    4.1796 N   0  0  0  0  0  0  0  0  0  0  0  0
   12.9590   -3.8754    8.7013 N   0  0  0  0  0  0  0  0  0  0  0  0
   12.0248   -1.8290    9.3849 N   0  0  0  0  0  0  0  0  0  0  0  0
   10.7848   -0.6798    6.3817 N   0  0  0  0  0  0  0  0  0  0  0  0
   11.7553   -2.6161    6.0749 N   0  0  0  0  0  0  0  0  0  0  0  0
   11.4164   -0.8992    8.8361 N   0  0  0  0  0  0  0  0  0  0  0  0
   11.8470   -2.3437    7.2825 N   0  0  1  0  0  0  0  0  0  0  0  0
  1  4  1  1  0  0  0
  1  8  1  0  0  0  0
  1  7  1  0  0  0  0
  2  5  1  1  0  0  0
  2  6  1  0  0  0  0
  2 10  1  0  0  0  0
  3  7  1  6  0  0  0
  3 10  1  0  0  0  0
  3  9  1  0  0  0  0
  6  9  1  0  0  0  0
 10  8  1  6  0  0  0
M  END
>  <CHROM.1>
11.62924597,-1.93213819,7.23433657,-2.27859337,-1.05362689,1.19967966

>  <Name>
ligand

>  <RI>
0

>  <Rbt.Current_Directory>
/home/itssahil/PROJECTS/Mol_Feturizer/Test_systems_manuscript/rnas/2xnw

>  <Rbt.Executable>
rbdock ($Id: //depot/dev/client3/rdock/2013.1/src/exe/rbdock.cxx#4 $)

>  <Rbt.Library>
libRbt.so (2013.1, Build901 2013/11/27)

>  <Rbt.Parameter_File>
/export/apps/rDock/src/rDock_2013.1_src/data/scripts/dock_solv.prm

>  <Rbt.Receptor>
prm/pocket_docking_7.prm

>  <SCORE>
-6.3584

>  <SCORE.INTER>
-6.3584

>  <SCORE.INTER.CONST>
1

>  <SCORE.INTER.POLAR>
0

>  <SCORE.INTER.ROT>
0

>  <SCORE.INTER.SOLV>
22.0776

>  <SCORE.INTER.VDW>
-15.1981

>  <SCORE.INTER.norm>
-0.63584

>  <SCORE.INTRA>
0

>  <SCORE.INTRA.DIHEDRAL>
0

>  <SCORE.INTRA.DIHEDRAL.0>
0

>  <SCORE.INTRA.POLAR>
0

>  <SCORE.INTRA.POLAR.0>
0

>  <SCORE.INTRA.REPUL>
0

>  <SCORE.INTRA.REPUL.0>
0

>  <SCORE.INTRA.SOLV>
0

>  <SCORE.INTRA.SOLV.lig_0>
-47.9788

>  <SCORE.INTRA.VDW>
0

>  <SCORE.INTRA.VDW.0>
0

>  <SCORE.INTRA.norm>
0

>  <SCORE.RESTR>
0

>  <SCORE.RESTR.CAVITY>
0

>  <SCORE.RESTR.norm>
0

>  <SCORE.SYSTEM>
0

>  <SCORE.SYSTEM.CONST>
0

>  <SCORE.SYSTEM.DIHEDRAL>
0

>  <SCORE.SYSTEM.SOLV>
0

>  <SCORE.SYSTEM.norm>
0

>  <SCORE.heavy>
10

>  <SCORE.norm>
-0.63584

>  <RMSD>
3.826

$$$$
ligand
 OpenBabel02271912133D
libRbt.so/2013.1/901 2013/11/27
 10 11  0  0  0  0  0  0  0  0999 V2000
   11.0883   -1.6030    5.4969 C   0  0  1  0  0  0  0  0  0  0  0  0
   12.3328   -2.7082    8.4775 C   0  0  2  0  0  0  0  0  0  0  0  0
   11.2961   -1.1319    7.5353 C   0  0  2  0  0  0  0  0  0  0  0  0
   10.7608   -1.5511    4.2007 N   0  0  0  0  0  0  0  0  0  0  0  0
   12.9654   -3.8508    8.7257 N   0  0  0  0  0  0  0  0  0  0  0  0
   12.0695   -1.7813    9.3909 N   0  0  0  0  0  0  0  0  0  0  0  0
   10.7995   -0.6620    6.3890 N   0  0  0  0  0  0  0  0  0  0  0  0
   11.7389   -2.6160    6.0982 N   0  0  0  0  0  0  0  0  0  0  0  0
   11.4655   -0.8518    8.8367 N   0  0  0  0  0  0  0  0  0  0  0  0
   11.8527   -2.3261    7.2998 N   0  0  1  0  0  0  0  0  0  0  0  0
  1  4  1  1  0  0  0
  1  8  1  0  0  0  0
  1  7  1  0  0  0  0
  2  5  1  1  0  0  0
  2  6  1  0  0  0  0
  2 10  1  0  0  0  0
  3  7  1  6  0  0  0
  3 10  1  0  0  0  0
  3  9  1  0  0  0  0
  6  9  1  0  0  0  0
 10  8  1  6  0  0  0
M  END
>  <CHROM.1>
11.63982491,-1.91242017,7.24842457,-2.31776856,-1.06037183,1.14988428

>  <Name>
ligand

>  <RI>
0

>  <Rbt.Current_Directory>
/home/itssahil/PROJECTS/Mol_Feturizer/Test_systems_manuscript/rnas/2xnw

>  <Rbt.Executable>
rbdock ($Id: //depot/dev/client3/rdock/2013.1/src/exe/rbdock.cxx#4 $)

>  <Rbt.Library>
libRbt.so (2013.1, Build901 2013/11/27)

>  <Rbt.Parameter_File>
/export/apps/rDock/src/rDock_2013.1_src/data/scripts/dock_solv.prm

>  <Rbt.Receptor>
prm/pocket_docking_8.prm

>  <SCORE>
-6.3586

>  <SCORE.INTER>
-6.3586

>  <SCORE.INTER.CONST>
1

>  <SCORE.INTER.POLAR>
0

>  <SCORE.INTER.ROT>
0

>  <SCORE.INTER.SOLV>
22.0505

>  <SCORE.INTER.VDW>
-15.1893

>  <SCORE.INTER.norm>
-0.63586

>  <SCORE.INTRA>
0

>  <SCORE.INTRA.DIHEDRAL>
0

>  <SCORE.INTRA.DIHEDRAL.0>
0

>  <SCORE.INTRA.POLAR>
0

>  <SCORE.INTRA.POLAR.0>
0

>  <SCORE.INTRA.REPUL>
0

>  <SCORE.INTRA.REPUL.0>
0

>  <SCORE.INTRA.SOLV>
0

>  <SCORE.INTRA.SOLV.lig_0>
-47.9788

>  <SCORE.INTRA.VDW>
0

>  <SCORE.INTRA.VDW.0>
0

>  <SCORE.INTRA.norm>
0

>  <SCORE.RESTR>
0

>  <SCORE.RESTR.CAVITY>
0

>  <SCORE.RESTR.norm>
0

>  <SCORE.SYSTEM>
0

>  <SCORE.SYSTEM.CONST>
0

>  <SCORE.SYSTEM.DIHEDRAL>
0

>  <SCORE.SYSTEM.SOLV>
0

>  <SCORE.SYSTEM.norm>
0

>  <SCORE.heavy>
10

>  <SCORE.norm>
-0.63586

>  <RMSD>
3.826

$$$$
ligand
 OpenBabel02271912133D
libRbt.so/2013.1/901 2013/11/27
 10 11  0  0  0  0  0  0  0  0999 V2000
   11.1032   -1.5960    5.4803 C   0  0  1  0  0  0  0  0  0  0  0  0
   12.3293   -2.7108    8.4650 C   0  0  2  0  0  0  0  0  0  0  0  0
   11.2950   -1.1332    7.5223 C   0  0  2  0  0  0  0  0  0  0  0  0
   10.7848   -1.5393    4.1821 N   0  0  0  0  0  0  0  0  0  0  0  0
   12.9633   -3.8527    8.7128 N   0  0  0  0  0  0  0  0  0  0  0  0
   12.0569   -1.7886    9.3804 N   0  0  0  0  0  0  0  0  0  0  0  0
   10.8054   -0.6597    6.3744 N   0  0  0  0  0  0  0  0  0  0  0  0
   11.7522   -2.6099    6.0819 N   0  0  0  0  0  0  0  0  0  0  0  0
   11.4543   -0.8584    8.8260 N   0  0  0  0  0  0  0  0  0  0  0  0
   11.8566   -2.3249    7.2855 N   0  0  1  0  0  0  0  0  0  0  0  0
  1  4  1  1  0  0  0
  1  8  1  0  0  0  0
  1  7  1  0  0  0  0
  2  5  1  1  0  0  0
  2  6  1  0  0  0  0
  2 10  1  0  0  0  0
  3  7  1  6  0  0  0
  3 10  1  0  0  0  0
  3  9  1  0  0  0  0
  6  9  1  0  0  0  0
 10  8  1  6  0  0  0
M  END
>  <CHROM.1>
11.64295883,-1.91154626,7.23443757,-2.30204151,-1.06072605,1.16796340

>  <Name>
ligand

>  <RI>
0

>  <Rbt.Current_Directory>
/home/itssahil/PROJECTS/Mol_Feturizer/Test_systems_manuscript/rnas/2xnw

>  <Rbt.Executable>
rbdock ($Id: //depot/dev/client3/rdock/2013.1/src/exe/rbdock.cxx#4 $)

>  <Rbt.Library>
libRbt.so (2013.1, Build901 2013/11/27)

>  <Rbt.Parameter_File>
/export/apps/rDock/src/rDock_2013.1_src/data/scripts/dock_solv.prm

>  <Rbt.Receptor>
prm/blind_docking_20.prm

>  <SCORE>
-6.36246

>  <SCORE.INTER>
-6.36246

>  <SCORE.INTER.CONST>
1

>  <SCORE.INTER.POLAR>
0

>  <SCORE.INTER.ROT>
0

>  <SCORE.INTER.SOLV>
22.0869

>  <SCORE.INTER.VDW>
-15.2039

>  <SCORE.INTER.norm>
-0.636246

>  <SCORE.INTRA>
0

>  <SCORE.INTRA.DIHEDRAL>
0

>  <SCORE.INTRA.DIHEDRAL.0>
0

>  <SCORE.INTRA.POLAR>
0

>  <SCORE.INTRA.POLAR.0>
0

>  <SCORE.INTRA.REPUL>
0

>  <SCORE.INTRA.REPUL.0>
0

>  <SCORE.INTRA.SOLV>
0

>  <SCORE.INTRA.SOLV.lig_0>
-47.9788

>  <SCORE.INTRA.VDW>
0

>  <SCORE.INTRA.VDW.0>
0

>  <SCORE.INTRA.norm>
0

>  <SCORE.RESTR>
0

>  <SCORE.RESTR.CAVITY>
0

>  <SCORE.RESTR.norm>
0

>  <SCORE.SYSTEM>
0

>  <SCORE.SYSTEM.CONST>
0

>  <SCORE.SYSTEM.DIHEDRAL>
0

>  <SCORE.SYSTEM.SOLV>
0

>  <SCORE.SYSTEM.norm>
0

>  <SCORE.heavy>
10

>  <SCORE.norm>
-0.636246

>  <RMSD>
3.828

$$$$
ligand
 OpenBabel02271912133D
libRbt.so/2013.1/901 2013/11/27
 10 11  0  0  0  0  0  0  0  0999 V2000
   11.0959   -1.6016    5.4772 C   0  0  1  0  0  0  0  0  0  0  0  0
   12.3254   -2.7149    8.4610 C   0  0  2  0  0  0  0  0  0  0  0  0
   11.2896   -1.1381    7.5187 C   0  0  2  0  0  0  0  0  0  0  0  0
   10.7761   -1.5456    4.1792 N   0  0  0  0  0  0  0  0  0  0  0  0
   12.9601   -3.8564    8.7086 N   0  0  0  0  0  0  0  0  0  0  0  0
   12.0536   -1.7924    9.3764 N   0  0  0  0  0  0  0  0  0  0  0  0
   10.7985   -0.6652    6.3712 N   0  0  0  0  0  0  0  0  0  0  0  0
   11.7459   -2.6150    6.0784 N   0  0  0  0  0  0  0  0  0  0  0  0
   11.4500   -0.8626    8.8222 N   0  0  0  0  0  0  0  0  0  0  0  0
   11.8514   -2.3296    7.2819 N   0  0  1  0  0  0  0  0  0  0  0  0
  1  4  1  1  0  0  0
  1  8  1  0  0  0  0
  1  7  1  0  0  0  0
  2  5  1  1  0  0  0
  2  6  1  0  0  0  0
  2 10  1  0  0  0  0
  3  7  1  6  0  0  0
  3 10  1  0  0  0  0
  3  9  1  0  0  0  0
  6  9  1  0  0  0  0
 10  8  1  6  0  0  0
M  END
>  <CHROM.1>
11.63751987,-1.91633961,7.23082619,-2.30363259,-1.05995997,1.16618709

>  <Name>
ligand

>  <RI>
0

>  <Rbt.Current_Directory>
/home/itssahil/PROJECTS/Mol_Feturizer/Test_systems_manuscript/rnas/2xnw

>  <Rbt.Executable>
rbdock ($Id: //depot/dev/client3/rdock/2013.1/src/exe/rbdock.cxx#4 $)

>  <Rbt.Library>
libRbt.so (2013.1, Build901 2013/11/27)

>  <Rbt.Parameter_File>
/export/apps/rDock/src/rDock_2013.1_src/data/scripts/dock_solv.prm

>  <Rbt.Receptor>
prm/blind_docking_60.prm

>  <SCORE>
-6.36374

>  <SCORE.INTER>
-6.36374

>  <SCORE.INTER.CONST>
1

>  <SCORE.INTER.POLAR>
0

>  <SCORE.INTER.ROT>
0

>  <SCORE.INTER.SOLV>
22.0737

>  <SCORE.INTER.VDW>
-15.2004

>  <SCORE.INTER.norm>
-0.636374

>  <SCORE.INTRA>
0

>  <SCORE.INTRA.DIHEDRAL>
0

>  <SCORE.INTRA.DIHEDRAL.0>
0

>  <SCORE.INTRA.POLAR>
0

>  <SCORE.INTRA.POLAR.0>
0

>  <SCORE.INTRA.REPUL>
0

>  <SCORE.INTRA.REPUL.0>
0

>  <SCORE.INTRA.SOLV>
0

>  <SCORE.INTRA.SOLV.lig_0>
-47.9788

>  <SCORE.INTRA.VDW>
0

>  <SCORE.INTRA.VDW.0>
0

>  <SCORE.INTRA.norm>
0

>  <SCORE.RESTR>
0

>  <SCORE.RESTR.CAVITY>
0

>  <SCORE.RESTR.norm>
0

>  <SCORE.SYSTEM>
0

>  <SCORE.SYSTEM.CONST>
0

>  <SCORE.SYSTEM.DIHEDRAL>
0

>  <SCORE.SYSTEM.SOLV>
0

>  <SCORE.SYSTEM.norm>
0

>  <SCORE.heavy>
10

>  <SCORE.norm>
-0.636374

>  <RMSD>
3.829

$$$$
ligand
 OpenBabel02271912133D
libRbt.so/2013.1/901 2013/11/27
 10 11  0  0  0  0  0  0  0  0999 V2000
   11.0997   -1.5947    5.4769 C   0  0  1  0  0  0  0  0  0  0  0  0
   12.3254   -2.7088    8.4620 C   0  0  2  0  0  0  0  0  0  0  0  0
   11.2950   -1.1295    7.5179 C   0  0  2  0  0  0  0  0  0  0  0  0
   10.7801   -1.5390    4.1789 N   0  0  0  0  0  0  0  0  0  0  0  0
   12.9561   -3.8523    8.7107 N   0  0  0  0  0  0  0  0  0  0  0  0
   12.0567   -1.7844    9.3763 N   0  0  0  0  0  0  0  0  0  0  0  0
   10.8056   -0.6562    6.3699 N   0  0  0  0  0  0  0  0  0  0  0  0
   11.7462   -2.6096    6.0793 N   0  0  0  0  0  0  0  0  0  0  0  0
   11.4563   -0.8532    8.8211 N   0  0  0  0  0  0  0  0  0  0  0  0
   11.8527   -2.3232    7.2824 N   0  0  1  0  0  0  0  0  0  0  0  0
  1  4  1  1  0  0  0
  1  8  1  0  0  0  0
  1  7  1  0  0  0  0
  2  5  1  1  0  0  0
  2  6  1  0  0  0  0
  2 10  1  0  0  0  0
  3  7  1  6  0  0  0
  3 10  1  0  0  0  0
  3  9  1  0  0  0  0
  6  9  1  0  0  0  0
 10  8  1  6  0  0  0
M  END
>  <CHROM.1>
11.64023481,-1.90930551,7.23089222,-2.30637808,-1.06311626,1.16270453

>  <Name>
ligand

>  <RI>
0

>  <Rbt.Current_Directory>
/home/itssahil/PROJECTS/Mol_Feturizer/Test_systems_manuscript/rnas/2xnw

>  <Rbt.Executable>
rbdock ($Id: //depot/dev/client3/rdock/2013.1/src/exe/rbdock.cxx#4 $)

>  <Rbt.Library>
libRbt.so (2013.1, Build901 2013/11/27)

>  <Rbt.Parameter_File>
/export/apps/rDock/src/rDock_2013.1_src/data/scripts/dock_solv.prm

>  <Rbt.Receptor>
prm/pocket_docking_3.prm

>  <SCORE>
-6.36326

>  <SCORE.INTER>
-6.36326

>  <SCORE.INTER.CONST>
1

>  <SCORE.INTER.POLAR>
0

>  <SCORE.INTER.ROT>
0

>  <SCORE.INTER.SOLV>
22.0884

>  <SCORE.INTER.VDW>
-15.205

>  <SCORE.INTER.norm>
-0.636326

>  <SCORE.INTRA>
0

>  <SCORE.INTRA.DIHEDRAL>
0

>  <SCORE.INTRA.DIHEDRAL.0>
0

>  <SCORE.INTRA.POLAR>
0

>  <SCORE.INTRA.POLAR.0>
0

>  <SCORE.INTRA.REPUL>
0

>  <SCORE.INTRA.REPUL.0>
0

>  <SCORE.INTRA.SOLV>
0

>  <SCORE.INTRA.SOLV.lig_0>
-47.9788

>  <SCORE.INTRA.VDW>
0

>  <SCORE.INTRA.VDW.0>
0

>  <SCORE.INTRA.norm>
0

>  <SCORE.RESTR>
0

>  <SCORE.RESTR.CAVITY>
0

>  <SCORE.RESTR.norm>
0

>  <SCORE.SYSTEM>
0

>  <SCORE.SYSTEM.CONST>
0

>  <SCORE.SYSTEM.DIHEDRAL>
0

>  <SCORE.SYSTEM.SOLV>
0

>  <SCORE.SYSTEM.norm>
0

>  <SCORE.heavy>
10

>  <SCORE.norm>
-0.636326

>  <RMSD>
3.829

$$$$
ligand
 OpenBabel02271912133D
libRbt.so/2013.1/901 2013/11/27
 10 11  0  0  0  0  0  0  0  0999 V2000
   11.0808   -1.6010    5.4822 C   0  0  1  0  0  0  0  0  0  0  0  0
   12.3287   -2.7029    8.4626 C   0  0  2  0  0  0  0  0  0  0  0  0
   11.2911   -1.1276    7.5198 C   0  0  2  0  0  0  0  0  0  0  0  0
   10.7517   -1.5506    4.1863 N   0  0  0  0  0  0  0  0  0  0  0  0
   12.9615   -3.8452    8.7113 N   0  0  0  0  0  0  0  0  0  0  0  0
   12.0666   -1.7748    9.3751 N   0  0  0  0  0  0  0  0  0  0  0  0
   10.7932   -0.6590    6.3735 N   0  0  0  0  0  0  0  0  0  0  0  0
   11.7320   -2.6134    6.0839 N   0  0  0  0  0  0  0  0  0  0  0  0
   11.4621   -0.8460    8.8207 N   0  0  0  0  0  0  0  0  0  0  0  0
   11.8473   -2.3221    7.2850 N   0  0  1  0  0  0  0  0  0  0  0  0
  1  4  1  1  0  0  0
  1  8  1  0  0  0  0
  1  7  1  0  0  0  0
  2  5  1  1  0  0  0
  2  6  1  0  0  0  0
  2 10  1  0  0  0  0
  3  7  1  6  0  0  0
  3 10  1  0  0  0  0
  3  9  1  0  0  0  0
  6  9  1  0  0  0  0
 10  8  1  6  0  0  0
M  END
>  <CHROM.1>
11.63437949,-1.90845383,7.23339609,-2.32011536,-1.05998598,1.14665659

>  <Name>
ligand

>  <RI>
0

>  <Rbt.Current_Directory>
/home/itssahil/PROJECTS/Mol_Feturizer/Test_systems_manuscript/rnas/2xnw

>  <Rbt.Executable>
rbdock ($Id: //depot/dev/client3/rdock/2013.1/src/exe/rbdock.cxx#4 $)

>  <Rbt.Library>
libRbt.so (2013.1, Build901 2013/11/27)

>  <Rbt.Parameter_File>
/export/apps/rDock/src/rDock_2013.1_src/data/scripts/dock_solv.prm

>  <Rbt.Receptor>
prm/pocket_docking_3.prm

>  <SCORE>
-6.36229

>  <SCORE.INTER>
-6.36229

>  <SCORE.INTER.CONST>
1

>  <SCORE.INTER.POLAR>
0

>  <SCORE.INTER.ROT>
0

>  <SCORE.INTER.SOLV>
22.0185

>  <SCORE.INTER.VDW>
-15.181

>  <SCORE.INTER.norm>
-0.636229

>  <SCORE.INTRA>
0

>  <SCORE.INTRA.DIHEDRAL>
0

>  <SCORE.INTRA.DIHEDRAL.0>
0

>  <SCORE.INTRA.POLAR>
0

>  <SCORE.INTRA.POLAR.0>
0

>  <SCORE.INTRA.REPUL>
0

>  <SCORE.INTRA.REPUL.0>
0

>  <SCORE.INTRA.SOLV>
0

>  <SCORE.INTRA.SOLV.lig_0>
-47.9788

>  <SCORE.INTRA.VDW>
0

>  <SCORE.INTRA.VDW.0>
0

>  <SCORE.INTRA.norm>
0

>  <SCORE.RESTR>
0

>  <SCORE.RESTR.CAVITY>
0

>  <SCORE.RESTR.norm>
0

>  <SCORE.SYSTEM>
0

>  <SCORE.SYSTEM.CONST>
0

>  <SCORE.SYSTEM.DIHEDRAL>
0

>  <SCORE.SYSTEM.SOLV>
0

>  <SCORE.SYSTEM.norm>
0

>  <SCORE.heavy>
10

>  <SCORE.norm>
-0.636229

>  <RMSD>
3.829

$$$$
ligand
 OpenBabel02271912133D
libRbt.so/2013.1/901 2013/11/27
 10 11  0  0  0  0  0  0  0  0999 V2000
   11.1180   -1.5962    5.4744 C   0  0  1  0  0  0  0  0  0  0  0  0
   12.3281   -2.7229    8.4611 C   0  0  2  0  0  0  0  0  0  0  0  0
   11.3012   -1.1403    7.5186 C   0  0  2  0  0  0  0  0  0  0  0  0
   10.8057   -1.5348    4.1749 N   0  0  0  0  0  0  0  0  0  0  0  0
   12.9588   -3.8667    8.7081 N   0  0  0  0  0  0  0  0  0  0  0  0
   12.0532   -1.8030    9.3782 N   0  0  0  0  0  0  0  0  0  0  0  0
   10.8178   -0.6622    6.3701 N   0  0  0  0  0  0  0  0  0  0  0  0
   11.7623   -2.6132    6.0757 N   0  0  0  0  0  0  0  0  0  0  0  0
   11.4550   -0.8699    8.8240 N   0  0  0  0  0  0  0  0  0  0  0  0
   11.8616   -2.3323    7.2807 N   0  0  1  0  0  0  0  0  0  0  0  0
  1  4  1  1  0  0  0
  1  8  1  0  0  0  0
  1  7  1  0  0  0  0
  2  5  1  1  0  0  0
  2  6  1  0  0  0  0
  2 10  1  0  0  0  0
  3  7  1  6  0  0  0
  3 10  1  0  0  0  0
  3  9  1  0  0  0  0
  6  9  1  0  0  0  0
 10  8  1  6  0  0  0
M  END
>  <CHROM.1>
11.64902240,-1.91837174,7.22993669,-2.29481906,-1.06427639,1.17746249

>  <Name>
ligand

>  <RI>
0

>  <Rbt.Current_Directory>
/home/itssahil/PROJECTS/Mol_Feturizer/Test_systems_manuscript/rnas/2xnw

>  <Rbt.Executable>
rbdock ($Id: //depot/dev/client3/rdock/2013.1/src/exe/rbdock.cxx#4 $)

>  <Rbt.Library>
libRbt.so (2013.1, Build901 2013/11/27)

>  <Rbt.Parameter_File>
/export/apps/rDock/src/rDock_2013.1_src/data/scripts/dock_solv.prm

>  <Rbt.Receptor>
prm/pocket_docking_5.prm

>  <SCORE>
-6.3563

>  <SCORE.INTER>
-6.3563

>  <SCORE.INTER.CONST>
1

>  <SCORE.INTER.POLAR>
0

>  <SCORE.INTER.ROT>
0

>  <SCORE.INTER.SOLV>
22.1383

>  <SCORE.INTER.VDW>
-15.217

>  <SCORE.INTER.norm>
-0.63563

>  <SCORE.INTRA>
0

>  <SCORE.INTRA.DIHEDRAL>
0

>  <SCORE.INTRA.DIHEDRAL.0>
0

>  <SCORE.INTRA.POLAR>
0

>  <SCORE.INTRA.POLAR.0>
0

>  <SCORE.INTRA.REPUL>
0

>  <SCORE.INTRA.REPUL.0>
0

>  <SCORE.INTRA.SOLV>
0

>  <SCORE.INTRA.SOLV.lig_0>
-47.9788

>  <SCORE.INTRA.VDW>
0

>  <SCORE.INTRA.VDW.0>
0

>  <SCORE.INTRA.norm>
0

>  <SCORE.RESTR>
0

>  <SCORE.RESTR.CAVITY>
0

>  <SCORE.RESTR.norm>
0

>  <SCORE.SYSTEM>
0

>  <SCORE.SYSTEM.CONST>
0

>  <SCORE.SYSTEM.DIHEDRAL>
0

>  <SCORE.SYSTEM.SOLV>
0

>  <SCORE.SYSTEM.norm>
0

>  <SCORE.heavy>
10

>  <SCORE.norm>
-0.63563

>  <RMSD>
3.829

$$$$
ligand
 OpenBabel02271912133D
libRbt.so/2013.1/901 2013/11/27
 10 11  0  0  0  0  0  0  0  0999 V2000
   11.0913   -1.5982    5.4801 C   0  0  1  0  0  0  0  0  0  0  0  0
   12.3260   -2.7086    8.4628 C   0  0  2  0  0  0  0  0  0  0  0  0
   11.2909   -1.1314    7.5203 C   0  0  2  0  0  0  0  0  0  0  0  0
   10.7684   -1.5438    4.1828 N   0  0  0  0  0  0  0  0  0  0  0  0
   12.9590   -3.8509    8.7108 N   0  0  0  0  0  0  0  0  0  0  0  0
   12.0582   -1.7840    9.3772 N   0  0  0  0  0  0  0  0  0  0  0  0
   10.7980   -0.6596    6.3732 N   0  0  0  0  0  0  0  0  0  0  0  0
   11.7408   -2.6118    6.0815 N   0  0  0  0  0  0  0  0  0  0  0  0
   11.4551   -0.8540    8.8229 N   0  0  0  0  0  0  0  0  0  0  0  0
   11.8498   -2.3244    7.2842 N   0  0  1  0  0  0  0  0  0  0  0  0
  1  4  1  1  0  0  0
  1  8  1  0  0  0  0
  1  7  1  0  0  0  0
  2  5  1  1  0  0  0
  2  6  1  0  0  0  0
  2 10  1  0  0  0  0
  3  7  1  6  0  0  0
  3 10  1  0  0  0  0
  3  9  1  0  0  0  0
  6  9  1  0  0  0  0
 10  8  1  6  0  0  0
M  END
>  <CHROM.1>
11.63660916,-1.91085030,7.23295185,-2.30983729,-1.06077941,1.15902815

>  <Name>
ligand

>  <RI>
0

>  <Rbt.Current_Directory>
/home/itssahil/PROJECTS/Mol_Feturizer/Test_systems_manuscript/rnas/2xnw

>  <Rbt.Executable>
rbdock ($Id: //depot/dev/client3/rdock/2013.1/src/exe/rbdock.cxx#4 $)

>  <Rbt.Library>
libRbt.so (2013.1, Build901 2013/11/27)

>  <Rbt.Parameter_File>
/export/apps/rDock/src/rDock_2013.1_src/data/scripts/dock_solv.prm

>  <Rbt.Receptor>
prm/pocket_docking_7.prm

>  <SCORE>
-6.36379

>  <SCORE.INTER>
-6.36379

>  <SCORE.INTER.CONST>
1

>  <SCORE.INTER.POLAR>
0

>  <SCORE.INTER.ROT>
0

>  <SCORE.INTER.SOLV>
22.0568

>  <SCORE.INTER.VDW>
-15.1948

>  <SCORE.INTER.norm>
-0.636379

>  <SCORE.INTRA>
0

>  <SCORE.INTRA.DIHEDRAL>
0

>  <SCORE.INTRA.DIHEDRAL.0>
0

>  <SCORE.INTRA.POLAR>
0

>  <SCORE.INTRA.POLAR.0>
0

>  <SCORE.INTRA.REPUL>
0

>  <SCORE.INTRA.REPUL.0>
0

>  <SCORE.INTRA.SOLV>
0

>  <SCORE.INTRA.SOLV.lig_0>
-47.9788

>  <SCORE.INTRA.VDW>
0

>  <SCORE.INTRA.VDW.0>
0

>  <SCORE.INTRA.norm>
0

>  <SCORE.RESTR>
0

>  <SCORE.RESTR.CAVITY>
0

>  <SCORE.RESTR.norm>
0

>  <SCORE.SYSTEM>
0

>  <SCORE.SYSTEM.CONST>
0

>  <SCORE.SYSTEM.DIHEDRAL>
0

>  <SCORE.SYSTEM.SOLV>
0

>  <SCORE.SYSTEM.norm>
0

>  <SCORE.heavy>
10

>  <SCORE.norm>
-0.636379

>  <RMSD>
3.829

$$$$
ligand
 OpenBabel02271912133D
libRbt.so/2013.1/901 2013/11/27
 10 11  0  0  0  0  0  0  0  0999 V2000
   11.0887   -1.6026    5.4781 C   0  0  1  0  0  0  0  0  0  0  0  0
   12.3257   -2.7105    8.4608 C   0  0  2  0  0  0  0  0  0  0  0  0
   11.2924   -1.1328    7.5172 C   0  0  2  0  0  0  0  0  0  0  0  0
   10.7639   -1.5497    4.1812 N   0  0  0  0  0  0  0  0  0  0  0  0
   12.9568   -3.8537    8.7097 N   0  0  0  0  0  0  0  0  0  0  0  0
   12.0612   -1.7838    9.3741 N   0  0  0  0  0  0  0  0  0  0  0  0
   10.7986   -0.6619    6.3700 N   0  0  0  0  0  0  0  0  0  0  0  0
   11.7370   -2.6165    6.0802 N   0  0  0  0  0  0  0  0  0  0  0  0
   11.4591   -0.8536    8.8191 N   0  0  0  0  0  0  0  0  0  0  0  0
   11.8485   -2.3273    7.2822 N   0  0  1  0  0  0  0  0  0  0  0  0
  1  4  1  1  0  0  0
  1  8  1  0  0  0  0
  1  7  1  0  0  0  0
  2  5  1  1  0  0  0
  2  6  1  0  0  0  0
  2 10  1  0  0  0  0
  3  7  1  6  0  0  0
  3 10  1  0  0  0  0
  3  9  1  0  0  0  0
  6  9  1  0  0  0  0
 10  8  1  6  0  0  0
M  END
>  <CHROM.1>
11.63606551,-1.91343245,7.23063059,-2.31437574,-1.06201433,1.15338148

>  <Name>
ligand

>  <RI>
0

>  <Rbt.Current_Directory>
/home/itssahil/PROJECTS/Mol_Feturizer/Test_systems_manuscript/rnas/2xnw

>  <Rbt.Executable>
rbdock ($Id: //depot/dev/client3/rdock/2013.1/src/exe/rbdock.cxx#4 $)

>  <Rbt.Library>
libRbt.so (2013.1, Build901 2013/11/27)

>  <Rbt.Parameter_File>
/export/apps/rDock/src/rDock_2013.1_src/data/scripts/dock_solv.prm

>  <Rbt.Receptor>
prm/pocket_docking_3.prm

>  <SCORE>
-6.36308

>  <SCORE.INTER>
-6.36308

>  <SCORE.INTER.CONST>
1

>  <SCORE.INTER.POLAR>
0

>  <SCORE.INTER.ROT>
0

>  <SCORE.INTER.SOLV>
22.0582

>  <SCORE.INTER.VDW>
-15.1948

>  <SCORE.INTER.norm>
-0.636308

>  <SCORE.INTRA>
0

>  <SCORE.INTRA.DIHEDRAL>
0

>  <SCORE.INTRA.DIHEDRAL.0>
0

>  <SCORE.INTRA.POLAR>
0

>  <SCORE.INTRA.POLAR.0>
0

>  <SCORE.INTRA.REPUL>
0

>  <SCORE.INTRA.REPUL.0>
0

>  <SCORE.INTRA.SOLV>
0

>  <SCORE.INTRA.SOLV.lig_0>
-47.9788

>  <SCORE.INTRA.VDW>
0

>  <SCORE.INTRA.VDW.0>
0

>  <SCORE.INTRA.norm>
0

>  <SCORE.RESTR>
0

>  <SCORE.RESTR.CAVITY>
0

>  <SCORE.RESTR.norm>
0

>  <SCORE.SYSTEM>
0

>  <SCORE.SYSTEM.CONST>
0

>  <SCORE.SYSTEM.DIHEDRAL>
0

>  <SCORE.SYSTEM.SOLV>
0

>  <SCORE.SYSTEM.norm>
0

>  <SCORE.heavy>
10

>  <SCORE.norm>
-0.636308

>  <RMSD>
3.830

$$$$
ligand
 OpenBabel02271912133D
libRbt.so/2013.1/901 2013/11/27
 10 11  0  0  0  0  0  0  0  0999 V2000
   11.1000   -1.5988    5.4758 C   0  0  1  0  0  0  0  0  0  0  0  0
   12.3338   -2.7039    8.4609 C   0  0  2  0  0  0  0  0  0  0  0  0
   11.2952   -1.1304    7.5161 C   0  0  2  0  0  0  0  0  0  0  0  0
   10.7789   -1.5460    4.1781 N   0  0  0  0  0  0  0  0  0  0  0  0
   12.9700   -3.8442    8.7104 N   0  0  0  0  0  0  0  0  0  0  0  0
   12.0618   -1.7797    9.3745 N   0  0  0  0  0  0  0  0  0  0  0  0
   10.8026   -0.6607    6.3680 N   0  0  0  0  0  0  0  0  0  0  0  0
   11.7517   -2.6101    6.0787 N   0  0  0  0  0  0  0  0  0  0  0  0
   11.4567   -0.8519    8.8188 N   0  0  0  0  0  0  0  0  0  0  0  0
   11.8581   -2.3218    7.2814 N   0  0  1  0  0  0  0  0  0  0  0  0
  1  4  1  1  0  0  0
  1  8  1  0  0  0  0
  1  7  1  0  0  0  0
  2  5  1  1  0  0  0
  2  6  1  0  0  0  0
  2 10  1  0  0  0  0
  3  7  1  6  0  0  0
  3 10  1  0  0  0  0
  3  9  1  0  0  0  0
  6  9  1  0  0  0  0
 10  8  1  6  0  0  0
M  END
>  <CHROM.1>
11.64376653,-1.90894704,7.22962336,-2.30461751,-1.05855007,1.16309024

>  <Name>
ligand

>  <RI>
0

>  <Rbt.Current_Directory>
/home/itssahil/PROJECTS/Mol_Feturizer/Test_systems_manuscript/rnas/2xnw

>  <Rbt.Executable>
rbdock ($Id: //depot/dev/client3/rdock/2013.1/src/exe/rbdock.cxx#4 $)

>  <Rbt.Library>
libRbt.so (2013.1, Build901 2013/11/27)

>  <Rbt.Parameter_File>
/export/apps/rDock/src/rDock_2013.1_src/data/scripts/dock_solv.prm

>  <Rbt.Receptor>
prm/pocket_docking_4.prm

>  <SCORE>
-6.36206

>  <SCORE.INTER>
-6.36206

>  <SCORE.INTER.CONST>
1

>  <SCORE.INTER.POLAR>
0

>  <SCORE.INTER.ROT>
0

>  <SCORE.INTER.SOLV>
22.0718

>  <SCORE.INTER.VDW>
-15.1986

>  <SCORE.INTER.norm>
-0.636206

>  <SCORE.INTRA>
0

>  <SCORE.INTRA.DIHEDRAL>
0

>  <SCORE.INTRA.DIHEDRAL.0>
0

>  <SCORE.INTRA.POLAR>
0

>  <SCORE.INTRA.POLAR.0>
0

>  <SCORE.INTRA.REPUL>
0

>  <SCORE.INTRA.REPUL.0>
0

>  <SCORE.INTRA.SOLV>
0

>  <SCORE.INTRA.SOLV.lig_0>
-47.9788

>  <SCORE.INTRA.VDW>
0

>  <SCORE.INTRA.VDW.0>
0

>  <SCORE.INTRA.norm>
0

>  <SCORE.RESTR>
0

>  <SCORE.RESTR.CAVITY>
0

>  <SCORE.RESTR.norm>
0

>  <SCORE.SYSTEM>
0

>  <SCORE.SYSTEM.CONST>
0

>  <SCORE.SYSTEM.DIHEDRAL>
0

>  <SCORE.SYSTEM.SOLV>
0

>  <SCORE.SYSTEM.norm>
0

>  <SCORE.heavy>
10

>  <SCORE.norm>
-0.636206

>  <RMSD>
3.830

$$$$
ligand
 OpenBabel02271912133D
libRbt.so/2013.1/901 2013/11/27
 10 11  0  0  0  0  0  0  0  0999 V2000
   11.1008   -1.6071    5.4727 C   0  0  1  0  0  0  0  0  0  0  0  0
   12.3250   -2.7186    8.4594 C   0  0  2  0  0  0  0  0  0  0  0  0
   11.2906   -1.1425    7.5144 C   0  0  2  0  0  0  0  0  0  0  0  0
   10.7834   -1.5517    4.1742 N   0  0  0  0  0  0  0  0  0  0  0  0
   12.9593   -3.8600    8.7086 N   0  0  0  0  0  0  0  0  0  0  0  0
   12.0513   -1.7958    9.3738 N   0  0  0  0  0  0  0  0  0  0  0  0
   10.8017   -0.6702    6.3657 N   0  0  0  0  0  0  0  0  0  0  0  0
   11.7498   -2.6201    6.0757 N   0  0  0  0  0  0  0  0  0  0  0  0
   11.4487   -0.8664    8.8181 N   0  0  0  0  0  0  0  0  0  0  0  0
   11.8530   -2.3340    7.2792 N   0  0  1  0  0  0  0  0  0  0  0  0
  1  4  1  1  0  0  0
  1  8  1  0  0  0  0
  1  7  1  0  0  0  0
  2  5  1  1  0  0  0
  2  6  1  0  0  0  0
  2 10  1  0  0  0  0
  3  7  1  6  0  0  0
  3 10  1  0  0  0  0
  3  9  1  0  0  0  0
  6  9  1  0  0  0  0
 10  8  1  6  0  0  0
M  END
>  <CHROM.1>
11.63921624,-1.92081890,7.22753288,-2.30006173,-1.06056784,1.16881349

>  <Name>
ligand

>  <RI>
0

>  <Rbt.Current_Directory>
/home/itssahil/PROJECTS/Mol_Feturizer/Test_systems_manuscript/rnas/2xnw

>  <Rbt.Executable>
rbdock ($Id: //depot/dev/client3/rdock/2013.1/src/exe/rbdock.cxx#4 $)

>  <Rbt.Library>
libRbt.so (2013.1, Build901 2013/11/27)

>  <Rbt.Parameter_File>
/export/apps/rDock/src/rDock_2013.1_src/data/scripts/dock_solv.prm

>  <Rbt.Receptor>
prm/pocket_docking_4.prm

>  <SCORE>
-6.36272

>  <SCORE.INTER>
-6.36272

>  <SCORE.INTER.CONST>
1

>  <SCORE.INTER.POLAR>
0

>  <SCORE.INTER.ROT>
0

>  <SCORE.INTER.SOLV>
22.1045

>  <SCORE.INTER.VDW>
-15.21

>  <SCORE.INTER.norm>
-0.636272

>  <SCORE.INTRA>
0

>  <SCORE.INTRA.DIHEDRAL>
0

>  <SCORE.INTRA.DIHEDRAL.0>
0

>  <SCORE.INTRA.POLAR>
0

>  <SCORE.INTRA.POLAR.0>
0

>  <SCORE.INTRA.REPUL>
0

>  <SCORE.INTRA.REPUL.0>
0

>  <SCORE.INTRA.SOLV>
0

>  <SCORE.INTRA.SOLV.lig_0>
-47.9788

>  <SCORE.INTRA.VDW>
0

>  <SCORE.INTRA.VDW.0>
0

>  <SCORE.INTRA.norm>
0

>  <SCORE.RESTR>
0

>  <SCORE.RESTR.CAVITY>
0

>  <SCORE.RESTR.norm>
0

>  <SCORE.SYSTEM>
0

>  <SCORE.SYSTEM.CONST>
0

>  <SCORE.SYSTEM.DIHEDRAL>
0

>  <SCORE.SYSTEM.SOLV>
0

>  <SCORE.SYSTEM.norm>
0

>  <SCORE.heavy>
10

>  <SCORE.norm>
-0.636272

>  <RMSD>
3.831

$$$$
ligand
 OpenBabel02271912133D
libRbt.so/2013.1/901 2013/11/27
 10 11  0  0  0  0  0  0  0  0999 V2000
   12.5525   -3.8533    7.9099 C   0  0  1  0  0  0  0  0  0  0  0  0
   13.8641   -6.8753    7.0150 C   0  0  2  0  0  0  0  0  0  0  0  0
   14.1400   -4.7880    6.8969 C   0  0  2  0  0  0  0  0  0  0  0  0
   11.7472   -2.9295    8.4469 N   0  0  0  0  0  0  0  0  0  0  0  0
   13.3946   -8.0862    7.2986 N   0  0  0  0  0  0  0  0  0  0  0  0
   14.9675   -6.6423    6.3142 N   0  0  0  0  0  0  0  0  0  0  0  0
   13.6576   -3.5869    7.2227 N   0  0  0  0  0  0  0  0  0  0  0  0
   12.3809   -5.1851    7.9977 N   0  0  0  0  0  0  0  0  0  0  0  0
   15.1271   -5.4157    6.2392 N   0  0  0  0  0  0  0  0  0  0  0  0
   13.3249   -5.7238    7.3980 N   0  0  1  0  0  0  0  0  0  0  0  0
  1  4  1  1  0  0  0
  1  8  1  0  0  0  0
  1  7  1  0  0  0  0
  2  5  1  1  0  0  0
  2  6  1  0  0  0  0
  2 10  1  0  0  0  0
  3  7  1  6  0  0  0
  3 10  1  0  0  0  0
  3  9  1  0  0  0  0
  6  9  1  0  0  0  0
 10  8  1  6  0  0  0
M  END
>  <CHROM.1>
13.51549507,-5.31469941,7.27390425,2.14042522,0.56781360,0.02001853

>  <Name>
ligand

>  <RI>
0

>  <Rbt.Current_Directory>
/home/itssahil/PROJECTS/Mol_Feturizer/Test_systems_manuscript/rnas/2xnw

>  <Rbt.Executable>
rbdock ($Id: //depot/dev/client3/rdock/2013.1/src/exe/rbdock.cxx#4 $)

>  <Rbt.Library>
libRbt.so (2013.1, Build901 2013/11/27)

>  <Rbt.Parameter_File>
/export/apps/rDock/src/rDock_2013.1_src/data/scripts/dock_solv.prm

>  <Rbt.Receptor>
prm/pocket_docking_7.prm

>  <SCORE>
-4.57996

>  <SCORE.INTER>
-4.57996

>  <SCORE.INTER.CONST>
1

>  <SCORE.INTER.POLAR>
0

>  <SCORE.INTER.ROT>
0

>  <SCORE.INTER.SOLV>
11.3432

>  <SCORE.INTER.VDW>
-10.4344

>  <SCORE.INTER.norm>
-0.457996

>  <SCORE.INTRA>
0

>  <SCORE.INTRA.DIHEDRAL>
0

>  <SCORE.INTRA.DIHEDRAL.0>
0

>  <SCORE.INTRA.POLAR>
0

>  <SCORE.INTRA.POLAR.0>
0

>  <SCORE.INTRA.REPUL>
0

>  <SCORE.INTRA.REPUL.0>
0

>  <SCORE.INTRA.SOLV>
0

>  <SCORE.INTRA.SOLV.lig_0>
-47.9788

>  <SCORE.INTRA.VDW>
0

>  <SCORE.INTRA.VDW.0>
0

>  <SCORE.INTRA.norm>
0

>  <SCORE.RESTR>
0

>  <SCORE.RESTR.CAVITY>
0

>  <SCORE.RESTR.norm>
0

>  <SCORE.SYSTEM>
0

>  <SCORE.SYSTEM.CONST>
0

>  <SCORE.SYSTEM.DIHEDRAL>
0

>  <SCORE.SYSTEM.SOLV>
0

>  <SCORE.SYSTEM.norm>
0

>  <SCORE.heavy>
10

>  <SCORE.norm>
-0.457996

>  <RMSD>
4.611

$$$$
ligand
 OpenBabel02271912133D
libRbt.so/2013.1/901 2013/11/27
 10 11  0  0  0  0  0  0  0  0999 V2000
   12.7380   -3.9596    7.7327 C   0  0  1  0  0  0  0  0  0  0  0  0
   13.8926   -7.1111    7.1085 C   0  0  2  0  0  0  0  0  0  0  0  0
   14.3206   -5.0577    6.8902 C   0  0  2  0  0  0  0  0  0  0  0  0
   11.9651   -2.9534    8.1572 N   0  0  0  0  0  0  0  0  0  0  0  0
   13.3219   -8.2686    7.4275 N   0  0  0  0  0  0  0  0  0  0  0  0
   15.0538   -6.9950    6.4754 N   0  0  0  0  0  0  0  0  0  0  0  0
   13.9024   -3.8096    7.1113 N   0  0  0  0  0  0  0  0  0  0  0  0
   12.4685   -5.2693    7.8847 N   0  0  0  0  0  0  0  0  0  0  0  0
   15.3032   -5.7885    6.3414 N   0  0  0  0  0  0  0  0  0  0  0  0
   13.4105   -5.9051    7.3854 N   0  0  1  0  0  0  0  0  0  0  0  0
  1  4  1  1  0  0  0
  1  8  1  0  0  0  0
  1  7  1  0  0  0  0
  2  5  1  1  0  0  0
  2  6  1  0  0  0  0
  2 10  1  0  0  0  0
  3  7  1  6  0  0  0
  3 10  1  0  0  0  0
  3  9  1  0  0  0  0
  6  9  1  0  0  0  0
 10  8  1  6  0  0  0
M  END
>  <CHROM.1>
13.63708119,-5.51785946,7.25177638,2.06251980,0.49818554,-0.00049212

>  <Name>
ligand

>  <RI>
0

>  <Rbt.Current_Directory>
/home/itssahil/PROJECTS/Mol_Feturizer/Test_systems_manuscript/rnas/2xnw

>  <Rbt.Executable>
rbdock ($Id: //depot/dev/client3/rdock/2013.1/src/exe/rbdock.cxx#4 $)

>  <Rbt.Library>
libRbt.so (2013.1, Build901 2013/11/27)

>  <Rbt.Parameter_File>
/export/apps/rDock/src/rDock_2013.1_src/data/scripts/dock_solv.prm

>  <Rbt.Receptor>
prm/blind_docking_80.prm

>  <SCORE>
-4.39799

>  <SCORE.INTER>
-4.39799

>  <SCORE.INTER.CONST>
1

>  <SCORE.INTER.POLAR>
0

>  <SCORE.INTER.ROT>
0

>  <SCORE.INTER.SOLV>
9.59939

>  <SCORE.INTER.VDW>
-9.73179

>  <SCORE.INTER.norm>
-0.439799

>  <SCORE.INTRA>
0

>  <SCORE.INTRA.DIHEDRAL>
0

>  <SCORE.INTRA.DIHEDRAL.0>
0

>  <SCORE.INTRA.POLAR>
0

>  <SCORE.INTRA.POLAR.0>
0

>  <SCORE.INTRA.REPUL>
0

>  <SCORE.INTRA.REPUL.0>
0

>  <SCORE.INTRA.SOLV>
0

>  <SCORE.INTRA.SOLV.lig_0>
-47.9788

>  <SCORE.INTRA.VDW>
0

>  <SCORE.INTRA.VDW.0>
0

>  <SCORE.INTRA.norm>
0

>  <SCORE.RESTR>
0

>  <SCORE.RESTR.CAVITY>
0

>  <SCORE.RESTR.norm>
0

>  <SCORE.SYSTEM>
0

>  <SCORE.SYSTEM.CONST>
0

>  <SCORE.SYSTEM.DIHEDRAL>
0

>  <SCORE.SYSTEM.SOLV>
0

>  <SCORE.SYSTEM.norm>
0

>  <SCORE.heavy>
10

>  <SCORE.norm>
-0.439799

>  <RMSD>
4.836

$$$$
ligand
 OpenBabel02271912133D
libRbt.so/2013.1/901 2013/11/27
 10 11  0  0  0  0  0  0  0  0999 V2000
   14.8564   -8.1632    7.9444 C   0  0  1  0  0  0  0  0  0  0  0  0
   14.3025   -4.9329    6.9888 C   0  0  2  0  0  0  0  0  0  0  0  0
   15.5242   -6.6235    6.6780 C   0  0  2  0  0  0  0  0  0  0  0  0
   14.7290   -9.3411    8.5658 N   0  0  0  0  0  0  0  0  0  0  0  0
   13.3554   -4.1047    7.4180 N   0  0  0  0  0  0  0  0  0  0  0  0
   15.2167   -4.6215    6.0777 N   0  0  0  0  0  0  0  0  0  0  0  0
   15.7767   -7.8868    7.0271 N   0  0  0  0  0  0  0  0  0  0  0  0
   14.0673   -7.0899    8.1354 N   0  0  0  0  0  0  0  0  0  0  0  0
   15.9388   -5.6126    5.8988 N   0  0  0  0  0  0  0  0  0  0  0  0
   14.4709   -6.1904    7.3812 N   0  0  1  0  0  0  0  0  0  0  0  0
  1  4  1  6  0  0  0
  1  8  1  0  0  0  0
  1  7  1  0  0  0  0
  2  5  1  6  0  0  0
  2  6  1  0  0  0  0
  2 10  1  0  0  0  0
  3  7  1  1  0  0  0
  3 10  1  0  0  0  0
  3  9  1  0  0  0  0
  6  9  1  0  0  0  0
 10  8  1  1  0  0  0
M  END
>  <CHROM.1>
14.82063436,-6.45145517,7.21186796,1.46123846,-0.66026324,2.72671855

>  <Name>
ligand

>  <RI>
0

>  <Rbt.Current_Directory>
/home/itssahil/PROJECTS/Mol_Feturizer/Test_systems_manuscript/rnas/2xnw

>  <Rbt.Executable>
rbdock ($Id: //depot/dev/client3/rdock/2013.1/src/exe/rbdock.cxx#4 $)

>  <Rbt.Library>
libRbt.so (2013.1, Build901 2013/11/27)

>  <Rbt.Parameter_File>
/export/apps/rDock/src/rDock_2013.1_src/data/scripts/dock_solv.prm

>  <Rbt.Receptor>
prm/pocket_docking_7.prm

>  <SCORE>
-5.08776

>  <SCORE.INTER>
-5.08776

>  <SCORE.INTER.CONST>
1

>  <SCORE.INTER.POLAR>
0

>  <SCORE.INTER.ROT>
0

>  <SCORE.INTER.SOLV>
5.93003

>  <SCORE.INTER.VDW>
-8.96852

>  <SCORE.INTER.norm>
-0.508776

>  <SCORE.INTRA>
0

>  <SCORE.INTRA.DIHEDRAL>
0

>  <SCORE.INTRA.DIHEDRAL.0>
0

>  <SCORE.INTRA.POLAR>
0

>  <SCORE.INTRA.POLAR.0>
0

>  <SCORE.INTRA.REPUL>
0

>  <SCORE.INTRA.REPUL.0>
0

>  <SCORE.INTRA.SOLV>
0

>  <SCORE.INTRA.SOLV.lig_0>
-47.9788

>  <SCORE.INTRA.VDW>
0

>  <SCORE.INTRA.VDW.0>
0

>  <SCORE.INTRA.norm>
0

>  <SCORE.RESTR>
0

>  <SCORE.RESTR.CAVITY>
0

>  <SCORE.RESTR.norm>
0

>  <SCORE.SYSTEM>
0

>  <SCORE.SYSTEM.CONST>
0

>  <SCORE.SYSTEM.DIHEDRAL>
0

>  <SCORE.SYSTEM.SOLV>
0

>  <SCORE.SYSTEM.norm>
0

>  <SCORE.heavy>
10

>  <SCORE.norm>
-0.508776

>  <RMSD>
6.181

$$$$
ligand
 OpenBabel02271912133D
libRbt.so/2013.1/901 2013/11/27
 10 11  0  0  0  0  0  0  0  0999 V2000
   15.3013   -5.6663    6.9254 C   0  0  1  0  0  0  0  0  0  0  0  0
   13.4319   -8.4812    7.4110 C   0  0  2  0  0  0  0  0  0  0  0  0
   13.4754   -6.5992    6.4606 C   0  0  2  0  0  0  0  0  0  0  0  0
   16.3091   -4.7882    6.9821 N   0  0  0  0  0  0  0  0  0  0  0  0
   13.7519   -9.5637    8.1132 N   0  0  0  0  0  0  0  0  0  0  0  0
   12.2883   -8.3216    6.7557 N   0  0  0  0  0  0  0  0  0  0  0  0
   14.1726   -5.4808    6.2499 N   0  0  0  0  0  0  0  0  0  0  0  0
   15.2814   -6.8721    7.5226 N   0  0  0  0  0  0  0  0  0  0  0  0
   12.3106   -7.2133    6.2017 N   0  0  0  0  0  0  0  0  0  0  0  0
   14.2003   -7.4120    7.2385 N   0  0  1  0  0  0  0  0  0  0  0  0
  1  4  1  6  0  0  0
  1  8  1  0  0  0  0
  1  7  1  0  0  0  0
  2  5  1  6  0  0  0
  2  6  1  0  0  0  0
  2 10  1  0  0  0  0
  3  7  1  1  0  0  0
  3 10  1  0  0  0  0
  3  9  1  0  0  0  0
  6  9  1  0  0  0  0
 10  8  1  1  0  0  0
M  END
>  <CHROM.1>
14.05148847,-7.04538985,6.98847401,-0.82980304,0.42198331,2.67174855

>  <Name>
ligand

>  <RI>
0

>  <Rbt.Current_Directory>
/home/itssahil/PROJECTS/Mol_Feturizer/Test_systems_manuscript/rnas/2xnw

>  <Rbt.Executable>
rbdock ($Id: //depot/dev/client3/rdock/2013.1/src/exe/rbdock.cxx#4 $)

>  <Rbt.Library>
libRbt.so (2013.1, Build901 2013/11/27)

>  <Rbt.Parameter_File>
/export/apps/rDock/src/rDock_2013.1_src/data/scripts/dock_solv.prm

>  <Rbt.Receptor>
prm/pocket_docking_8.prm

>  <SCORE>
-3.68483

>  <SCORE.INTER>
-3.68483

>  <SCORE.INTER.CONST>
1

>  <SCORE.INTER.POLAR>
0

>  <SCORE.INTER.ROT>
0

>  <SCORE.INTER.SOLV>
10.7469

>  <SCORE.INTER.VDW>
-9.63886

>  <SCORE.INTER.norm>
-0.368483

>  <SCORE.INTRA>
0

>  <SCORE.INTRA.DIHEDRAL>
0

>  <SCORE.INTRA.DIHEDRAL.0>
0

>  <SCORE.INTRA.POLAR>
0

>  <SCORE.INTRA.POLAR.0>
0

>  <SCORE.INTRA.REPUL>
0

>  <SCORE.INTRA.REPUL.0>
0

>  <SCORE.INTRA.SOLV>
0

>  <SCORE.INTRA.SOLV.lig_0>
-47.9788

>  <SCORE.INTRA.VDW>
0

>  <SCORE.INTRA.VDW.0>
0

>  <SCORE.INTRA.norm>
0

>  <SCORE.RESTR>
0

>  <SCORE.RESTR.CAVITY>
0

>  <SCORE.RESTR.norm>
0

>  <SCORE.SYSTEM>
0

>  <SCORE.SYSTEM.CONST>
0

>  <SCORE.SYSTEM.DIHEDRAL>
0

>  <SCORE.SYSTEM.SOLV>
0

>  <SCORE.SYSTEM.norm>
0

>  <SCORE.heavy>
10

>  <SCORE.norm>
-0.368483

>  <RMSD>
6.458

$$$$
ligand
 OpenBabel02271912133D
libRbt.so/2013.1/901 2013/11/27
 10 11  0  0  0  0  0  0  0  0999 V2000
   14.1204    0.5453   15.4891 C   0  0  1  0  0  0  0  0  0  0  0  0
   11.0042    1.8699   15.0543 C   0  0  2  0  0  0  0  0  0  0  0  0
   12.4800    0.6447   14.1778 C   0  0  2  0  0  0  0  0  0  0  0  0
   15.3036    0.2399   16.0340 N   0  0  0  0  0  0  0  0  0  0  0  0
   10.3236    2.6490   15.8891 N   0  0  0  0  0  0  0  0  0  0  0  0
   10.5563    1.4627   13.8726 N   0  0  0  0  0  0  0  0  0  0  0  0
   13.6966    0.1113   14.3072 N   0  0  0  0  0  0  0  0  0  0  0  0
   13.1751    1.3171   16.0563 N   0  0  0  0  0  0  0  0  0  0  0  0
   11.4255    0.7475   13.3542 N   0  0  0  0  0  0  0  0  0  0  0  0
   12.2130    1.3655   15.2735 N   0  0  1  0  0  0  0  0  0  0  0  0
  1  4  1  1  0  0  0
  1  8  1  0  0  0  0
  1  7  1  0  0  0  0
  2  5  1  1  0  0  0
  2  6  1  0  0  0  0
  2 10  1  0  0  0  0
  3  7  1  6  0  0  0
  3 10  1  0  0  0  0
  3  9  1  0  0  0  0
  6  9  1  0  0  0  0
 10  8  1  6  0  0  0
M  END
>  <CHROM.1>
12.42514717,1.09865838,14.95274947,0.02587144,-0.41558465,1.07905675

>  <Name>
ligand

>  <RI>
0

>  <Rbt.Current_Directory>
/home/itssahil/PROJECTS/Mol_Feturizer/Test_systems_manuscript/rnas/2xnw

>  <Rbt.Executable>
rbdock ($Id: //depot/dev/client3/rdock/2013.1/src/exe/rbdock.cxx#4 $)

>  <Rbt.Library>
libRbt.so (2013.1, Build901 2013/11/27)

>  <Rbt.Parameter_File>
/export/apps/rDock/src/rDock_2013.1_src/data/scripts/dock_solv.prm

>  <Rbt.Receptor>
prm/pocket_docking_8.prm

>  <SCORE>
-6.72226

>  <SCORE.INTER>
-6.72226

>  <SCORE.INTER.CONST>
1

>  <SCORE.INTER.POLAR>
0

>  <SCORE.INTER.ROT>
0

>  <SCORE.INTER.SOLV>
5.97433

>  <SCORE.INTER.VDW>
-10.0729

>  <SCORE.INTER.norm>
-0.672226

>  <SCORE.INTRA>
0

>  <SCORE.INTRA.DIHEDRAL>
0

>  <SCORE.INTRA.DIHEDRAL.0>
0

>  <SCORE.INTRA.POLAR>
0

>  <SCORE.INTRA.POLAR.0>
0

>  <SCORE.INTRA.REPUL>
0

>  <SCORE.INTRA.REPUL.0>
0

>  <SCORE.INTRA.SOLV>
0

>  <SCORE.INTRA.SOLV.lig_0>
-47.9788

>  <SCORE.INTRA.VDW>
0

>  <SCORE.INTRA.VDW.0>
0

>  <SCORE.INTRA.norm>
0

>  <SCORE.RESTR>
0

>  <SCORE.RESTR.CAVITY>
0

>  <SCORE.RESTR.norm>
0

>  <SCORE.SYSTEM>
0

>  <SCORE.SYSTEM.CONST>
0

>  <SCORE.SYSTEM.DIHEDRAL>
0

>  <SCORE.SYSTEM.SOLV>
0

>  <SCORE.SYSTEM.norm>
0

>  <SCORE.heavy>
10

>  <SCORE.norm>
-0.672226

>  <RMSD>
7.978

$$$$
ligand
 OpenBabel02271912133D
libRbt.so/2013.1/901 2013/11/27
 10 11  0  0  0  0  0  0  0  0999 V2000
   10.9256   -9.1118    2.6099 C   0  0  1  0  0  0  0  0  0  0  0  0
   11.2683  -10.5676    5.6787 C   0  0  2  0  0  0  0  0  0  0  0  0
   10.3555  -10.7578    3.7872 C   0  0  2  0  0  0  0  0  0  0  0  0
   11.0628   -8.2575    1.5894 N   0  0  0  0  0  0  0  0  0  0  0  0
   11.9955  -10.1437    6.7077 N   0  0  0  0  0  0  0  0  0  0  0  0
   10.5350  -11.6743    5.6820 N   0  0  0  0  0  0  0  0  0  0  0  0
   10.1919  -10.2186    2.5772 N   0  0  0  0  0  0  0  0  0  0  0  0
   11.5195   -8.9946    3.8119 N   0  0  0  0  0  0  0  0  0  0  0  0
    9.9934  -11.7837    4.5727 N   0  0  0  0  0  0  0  0  0  0  0  0
   11.1764   -9.9726    4.4950 N   0  0  1  0  0  0  0  0  0  0  0  0
  1  4  1  6  0  0  0
  1  8  1  0  0  0  0
  1  7  1  0  0  0  0
  2  5  1  6  0  0  0
  2  6  1  0  0  0  0
  2 10  1  0  0  0  0
  3  7  1  1  0  0  0
  3 10  1  0  0  0  0
  3  9  1  0  0  0  0
  6  9  1  0  0  0  0
 10  8  1  1  0  0  0
M  END
>  <CHROM.1>
10.90475632,-10.14833221,4.15680058,-1.63620357,0.90393726,2.14132621

>  <Name>
ligand

>  <RI>
0

>  <Rbt.Current_Directory>
/home/itssahil/PROJECTS/Mol_Feturizer/Test_systems_manuscript/rnas/2xnw

>  <Rbt.Executable>
rbdock ($Id: //depot/dev/client3/rdock/2013.1/src/exe/rbdock.cxx#4 $)

>  <Rbt.Library>
libRbt.so (2013.1, Build901 2013/11/27)

>  <Rbt.Parameter_File>
/export/apps/rDock/src/rDock_2013.1_src/data/scripts/dock_solv.prm

>  <Rbt.Receptor>
prm/blind_docking_40.prm

>  <SCORE>
-3.65642

>  <SCORE.INTER>
-3.65642

>  <SCORE.INTER.CONST>
1

>  <SCORE.INTER.POLAR>
0

>  <SCORE.INTER.ROT>
0

>  <SCORE.INTER.SOLV>
13.4584

>  <SCORE.INTER.VDW>
-10.5237

>  <SCORE.INTER.norm>
-0.365642

>  <SCORE.INTRA>
0

>  <SCORE.INTRA.DIHEDRAL>
0

>  <SCORE.INTRA.DIHEDRAL.0>
0

>  <SCORE.INTRA.POLAR>
0

>  <SCORE.INTRA.POLAR.0>
0

>  <SCORE.INTRA.REPUL>
0

>  <SCORE.INTRA.REPUL.0>
0

>  <SCORE.INTRA.SOLV>
0

>  <SCORE.INTRA.SOLV.lig_0>
-47.9788

>  <SCORE.INTRA.VDW>
0

>  <SCORE.INTRA.VDW.0>
0

>  <SCORE.INTRA.norm>
0

>  <SCORE.RESTR>
0

>  <SCORE.RESTR.CAVITY>
0

>  <SCORE.RESTR.norm>
0

>  <SCORE.SYSTEM>
0

>  <SCORE.SYSTEM.CONST>
0

>  <SCORE.SYSTEM.DIHEDRAL>
0

>  <SCORE.SYSTEM.SOLV>
0

>  <SCORE.SYSTEM.norm>
0

>  <SCORE.heavy>
10

>  <SCORE.norm>
-0.365642

>  <RMSD>
9.793

$$$$
ligand
 OpenBabel02271912133D
libRbt.so/2013.1/901 2013/11/27
 10 11  0  0  0  0  0  0  0  0999 V2000
   11.6050  -10.0446    5.3673 C   0  0  1  0  0  0  0  0  0  0  0  0
   11.2235  -11.2954    2.2138 C   0  0  2  0  0  0  0  0  0  0  0  0
   10.2890  -10.1694    3.7324 C   0  0  2  0  0  0  0  0  0  0  0  0
   12.1404   -9.7449    6.5562 N   0  0  0  0  0  0  0  0  0  0  0  0
   12.0967  -12.0034    1.5043 N   0  0  0  0  0  0  0  0  0  0  0  0
   10.0168  -10.9439    1.7859 N   0  0  0  0  0  0  0  0  0  0  0  0
   10.3968   -9.6671    4.9643 N   0  0  0  0  0  0  0  0  0  0  0  0
   12.2085  -10.7528    4.3950 N   0  0  0  0  0  0  0  0  0  0  0  0
    9.4647  -10.2871    2.6801 N   0  0  0  0  0  0  0  0  0  0  0  0
   11.4225  -10.8167    3.4365 N   0  0  1  0  0  0  0  0  0  0  0  0
  1  4  1  6  0  0  0
  1  8  1  0  0  0  0
  1  7  1  0  0  0  0
  2  5  1  6  0  0  0
  2  6  1  0  0  0  0
  2 10  1  0  0  0  0
  3  7  1  1  0  0  0
  3 10  1  0  0  0  0
  3  9  1  0  0  0  0
  6  9  1  0  0  0  0
 10  8  1  1  0  0  0
M  END
>  <CHROM.1>
11.08850227,-10.57562536,3.65878708,-1.35249892,0.39142050,-1.99546374

>  <Name>
ligand

>  <RI>
0

>  <Rbt.Current_Directory>
/home/itssahil/PROJECTS/Mol_Feturizer/Test_systems_manuscript/rnas/2xnw

>  <Rbt.Executable>
rbdock ($Id: //depot/dev/client3/rdock/2013.1/src/exe/rbdock.cxx#4 $)

>  <Rbt.Library>
libRbt.so (2013.1, Build901 2013/11/27)

>  <Rbt.Parameter_File>
/export/apps/rDock/src/rDock_2013.1_src/data/scripts/dock_solv.prm

>  <Rbt.Receptor>
prm/blind_docking_60.prm

>  <SCORE>
-5.41007

>  <SCORE.INTER>
-5.41007

>  <SCORE.INTER.CONST>
1

>  <SCORE.INTER.POLAR>
0

>  <SCORE.INTER.ROT>
0

>  <SCORE.INTER.SOLV>
5.82101

>  <SCORE.INTER.VDW>
-9.14705

>  <SCORE.INTER.norm>
-0.541007

>  <SCORE.INTRA>
0

>  <SCORE.INTRA.DIHEDRAL>
0

>  <SCORE.INTRA.DIHEDRAL.0>
0

>  <SCORE.INTRA.POLAR>
0

>  <SCORE.INTRA.POLAR.0>
0

>  <SCORE.INTRA.REPUL>
0

>  <SCORE.INTRA.REPUL.0>
0

>  <SCORE.INTRA.SOLV>
0

>  <SCORE.INTRA.SOLV.lig_0>
-47.9788

>  <SCORE.INTRA.VDW>
0

>  <SCORE.INTRA.VDW.0>
0

>  <SCORE.INTRA.norm>
0

>  <SCORE.RESTR>
0

>  <SCORE.RESTR.CAVITY>
0

>  <SCORE.RESTR.norm>
0

>  <SCORE.SYSTEM>
0

>  <SCORE.SYSTEM.CONST>
0

>  <SCORE.SYSTEM.DIHEDRAL>
0

>  <SCORE.SYSTEM.SOLV>
0

>  <SCORE.SYSTEM.norm>
0

>  <SCORE.heavy>
10

>  <SCORE.norm>
-0.541007

>  <RMSD>
9.945

$$$$
ligand
 OpenBabel02271912133D
libRbt.so/2013.1/901 2013/11/27
 10 11  0  0  0  0  0  0  0  0999 V2000
    9.4101    7.0666    1.6667 C   0  0  1  0  0  0  0  0  0  0  0  0
    8.2790    4.8017   -0.6235 C   0  0  2  0  0  0  0  0  0  0  0  0
    8.2944    5.3010    1.4253 C   0  0  2  0  0  0  0  0  0  0  0  0
   10.0130    8.1333    2.2040 N   0  0  0  0  0  0  0  0  0  0  0  0
    8.4613    4.8104   -1.9403 N   0  0  0  0  0  0  0  0  0  0  0  0
    7.5938    3.8740    0.0341 N   0  0  0  0  0  0  0  0  0  0  0  0
    8.7211    6.1612    2.3524 N   0  0  0  0  0  0  0  0  0  0  0  0
    9.3910    6.7572    0.3572 N   0  0  0  0  0  0  0  0  0  0  0  0
    7.6074    4.1634    1.2390 N   0  0  0  0  0  0  0  0  0  0  0  0
    8.7283    5.7155    0.2289 N   0  0  1  0  0  0  0  0  0  0  0  0
  1  4  1  6  0  0  0
  1  8  1  0  0  0  0
  1  7  1  0  0  0  0
  2  5  1  6  0  0  0
  2  6  1  0  0  0  0
  2 10  1  0  0  0  0
  3  7  1  1  0  0  0
  3 10  1  0  0  0  0
  3  9  1  0  0  0  0
  6  9  1  0  0  0  0
 10  8  1  1  0  0  0
M  END
>  <CHROM.1>
8.64944066,5.67643729,0.68864726,-0.82629396,-0.99037824,-1.78686282

>  <Name>
ligand

>  <RI>
0

>  <Rbt.Current_Directory>
/home/itssahil/PROJECTS/Mol_Feturizer/Test_systems_manuscript/rnas/2xnw

>  <Rbt.Executable>
rbdock ($Id: //depot/dev/client3/rdock/2013.1/src/exe/rbdock.cxx#4 $)

>  <Rbt.Library>
libRbt.so (2013.1, Build901 2013/11/27)

>  <Rbt.Parameter_File>
/export/apps/rDock/src/rDock_2013.1_src/data/scripts/dock_solv.prm

>  <Rbt.Receptor>
prm/blind_docking_80.prm

>  <SCORE>
-7.50973

>  <SCORE.INTER>
-7.50973

>  <SCORE.INTER.CONST>
1

>  <SCORE.INTER.POLAR>
0

>  <SCORE.INTER.ROT>
0

>  <SCORE.INTER.SOLV>
4.70795

>  <SCORE.INTER.VDW>
-10.1758

>  <SCORE.INTER.norm>
-0.750973

>  <SCORE.INTRA>
0

>  <SCORE.INTRA.DIHEDRAL>
0

>  <SCORE.INTRA.DIHEDRAL.0>
0

>  <SCORE.INTRA.POLAR>
0

>  <SCORE.INTRA.POLAR.0>
0

>  <SCORE.INTRA.REPUL>
0

>  <SCORE.INTRA.REPUL.0>
0

>  <SCORE.INTRA.SOLV>
0

>  <SCORE.INTRA.SOLV.lig_0>
-47.9788

>  <SCORE.INTRA.VDW>
0

>  <SCORE.INTRA.VDW.0>
0

>  <SCORE.INTRA.norm>
0

>  <SCORE.RESTR>
0

>  <SCORE.RESTR.CAVITY>
0

>  <SCORE.RESTR.norm>
0

>  <SCORE.SYSTEM>
0

>  <SCORE.SYSTEM.CONST>
0

>  <SCORE.SYSTEM.DIHEDRAL>
0

>  <SCORE.SYSTEM.SOLV>
0

>  <SCORE.SYSTEM.norm>
0

>  <SCORE.heavy>
10

>  <SCORE.norm>
-0.750973

>  <RMSD>
11.010

$$$$
ligand
 OpenBabel02271912133D
libRbt.so/2013.1/901 2013/11/27
 10 11  0  0  0  0  0  0  0  0999 V2000
    9.4710    7.0520    1.6260 C   0  0  1  0  0  0  0  0  0  0  0  0
    8.2273    4.7924   -0.6105 C   0  0  2  0  0  0  0  0  0  0  0  0
    8.3095    5.3102    1.4321 C   0  0  2  0  0  0  0  0  0  0  0  0
   10.1123    8.1095    2.1363 N   0  0  0  0  0  0  0  0  0  0  0  0
    8.3740    4.7847   -1.9317 N   0  0  0  0  0  0  0  0  0  0  0  0
    7.5393    3.8867    0.0745 N   0  0  0  0  0  0  0  0  0  0  0  0
    8.7805    6.1689    2.3389 N   0  0  0  0  0  0  0  0  0  0  0  0
    9.4095    6.7309    0.3206 N   0  0  0  0  0  0  0  0  0  0  0  0
    7.5921    4.1870    1.2756 N   0  0  0  0  0  0  0  0  0  0  0  0
    8.7201    5.7035    0.2205 N   0  0  1  0  0  0  0  0  0  0  0  0
  1  4  1  6  0  0  0
  1  8  1  0  0  0  0
  1  7  1  0  0  0  0
  2  5  1  6  0  0  0
  2  6  1  0  0  0  0
  2 10  1  0  0  0  0
  3  7  1  1  0  0  0
  3 10  1  0  0  0  0
  3  9  1  0  0  0  0
  6  9  1  0  0  0  0
 10  8  1  1  0  0  0
M  END
>  <CHROM.1>
8.65285375,5.67054610,0.68252492,-0.77060529,-0.97334254,-1.75013884

>  <Name>
ligand

>  <RI>
0

>  <Rbt.Current_Directory>
/home/itssahil/PROJECTS/Mol_Feturizer/Test_systems_manuscript/rnas/2xnw

>  <Rbt.Executable>
rbdock ($Id: //depot/dev/client3/rdock/2013.1/src/exe/rbdock.cxx#4 $)

>  <Rbt.Library>
libRbt.so (2013.1, Build901 2013/11/27)

>  <Rbt.Parameter_File>
/export/apps/rDock/src/rDock_2013.1_src/data/scripts/dock_solv.prm

>  <Rbt.Receptor>
prm/blind_docking_20.prm

>  <SCORE>
-7.41981

>  <SCORE.INTER>
-7.41981

>  <SCORE.INTER.CONST>
1

>  <SCORE.INTER.POLAR>
0

>  <SCORE.INTER.ROT>
0

>  <SCORE.INTER.SOLV>
4.94742

>  <SCORE.INTER.VDW>
-10.1957

>  <SCORE.INTER.norm>
-0.741981

>  <SCORE.INTRA>
0

>  <SCORE.INTRA.DIHEDRAL>
0

>  <SCORE.INTRA.DIHEDRAL.0>
0

>  <SCORE.INTRA.POLAR>
0

>  <SCORE.INTRA.POLAR.0>
0

>  <SCORE.INTRA.REPUL>
0

>  <SCORE.INTRA.REPUL.0>
0

>  <SCORE.INTRA.SOLV>
0

>  <SCORE.INTRA.SOLV.lig_0>
-47.9788

>  <SCORE.INTRA.VDW>
0

>  <SCORE.INTRA.VDW.0>
0

>  <SCORE.INTRA.norm>
0

>  <SCORE.RESTR>
0

>  <SCORE.RESTR.CAVITY>
0

>  <SCORE.RESTR.norm>
0

>  <SCORE.SYSTEM>
0

>  <SCORE.SYSTEM.CONST>
0

>  <SCORE.SYSTEM.DIHEDRAL>
0

>  <SCORE.SYSTEM.SOLV>
0

>  <SCORE.SYSTEM.norm>
0

>  <SCORE.heavy>
10

>  <SCORE.norm>
-0.741981

>  <RMSD>
11.014

$$$$
ligand
 OpenBabel02271912133D
libRbt.so/2013.1/901 2013/11/27
 10 11  0  0  0  0  0  0  0  0999 V2000
    9.4600    7.0263    1.5696 C   0  0  1  0  0  0  0  0  0  0  0  0
    8.2542    4.7444   -0.6650 C   0  0  2  0  0  0  0  0  0  0  0  0
    8.2945    5.2876    1.3723 C   0  0  2  0  0  0  0  0  0  0  0  0
   10.0952    8.0872    2.0805 N   0  0  0  0  0  0  0  0  0  0  0  0
    8.4297    4.7193   -1.9825 N   0  0  0  0  0  0  0  0  0  0  0  0
    7.5470    3.8507    0.0161 N   0  0  0  0  0  0  0  0  0  0  0  0
    8.7498    6.1556    2.2783 N   0  0  0  0  0  0  0  0  0  0  0  0
    9.4254    6.6890    0.2673 N   0  0  0  0  0  0  0  0  0  0  0  0
    7.5751    4.1658    1.2143 N   0  0  0  0  0  0  0  0  0  0  0  0
    8.7333    5.6636    0.1650 N   0  0  1  0  0  0  0  0  0  0  0  0
  1  4  1  6  0  0  0
  1  8  1  0  0  0  0
  1  7  1  0  0  0  0
  2  5  1  6  0  0  0
  2  6  1  0  0  0  0
  2 10  1  0  0  0  0
  3  7  1  1  0  0  0
  3 10  1  0  0  0  0
  3  9  1  0  0  0  0
  6  9  1  0  0  0  0
 10  8  1  1  0  0  0
M  END
>  <CHROM.1>
8.65582697,5.63683158,0.62588544,-0.80670705,-0.96429555,-1.79250779

>  <Name>
ligand

>  <RI>
0

>  <Rbt.Current_Directory>
/home/itssahil/PROJECTS/Mol_Feturizer/Test_systems_manuscript/rnas/2xnw

>  <Rbt.Executable>
rbdock ($Id: //depot/dev/client3/rdock/2013.1/src/exe/rbdock.cxx#4 $)

>  <Rbt.Library>
libRbt.so (2013.1, Build901 2013/11/27)

>  <Rbt.Parameter_File>
/export/apps/rDock/src/rDock_2013.1_src/data/scripts/dock_solv.prm

>  <Rbt.Receptor>
prm/blind_docking_20.prm

>  <SCORE>
-7.4937

>  <SCORE.INTER>
-7.4937

>  <SCORE.INTER.CONST>
1

>  <SCORE.INTER.POLAR>
0

>  <SCORE.INTER.ROT>
0

>  <SCORE.INTER.SOLV>
5.02963

>  <SCORE.INTER.VDW>
-10.2723

>  <SCORE.INTER.norm>
-0.74937

>  <SCORE.INTRA>
0

>  <SCORE.INTRA.DIHEDRAL>
0

>  <SCORE.INTRA.DIHEDRAL.0>
0

>  <SCORE.INTRA.POLAR>
0

>  <SCORE.INTRA.POLAR.0>
0

>  <SCORE.INTRA.REPUL>
0

>  <SCORE.INTRA.REPUL.0>
0

>  <SCORE.INTRA.SOLV>
0

>  <SCORE.INTRA.SOLV.lig_0>
-47.9788

>  <SCORE.INTRA.VDW>
0

>  <SCORE.INTRA.VDW.0>
0

>  <SCORE.INTRA.norm>
0

>  <SCORE.RESTR>
0

>  <SCORE.RESTR.CAVITY>
0

>  <SCORE.RESTR.norm>
0

>  <SCORE.SYSTEM>
0

>  <SCORE.SYSTEM.CONST>
0

>  <SCORE.SYSTEM.DIHEDRAL>
0

>  <SCORE.SYSTEM.SOLV>
0

>  <SCORE.SYSTEM.norm>
0

>  <SCORE.heavy>
10

>  <SCORE.norm>
-0.74937

>  <RMSD>
11.029

$$$$
ligand
 OpenBabel02271912133D
libRbt.so/2013.1/901 2013/11/27
 10 11  0  0  0  0  0  0  0  0999 V2000
    9.5251    7.0921    1.5302 C   0  0  1  0  0  0  0  0  0  0  0  0
    8.2122    4.7532   -0.5818 C   0  0  2  0  0  0  0  0  0  0  0  0
    8.3297    5.3652    1.4328 C   0  0  2  0  0  0  0  0  0  0  0  0
   10.1919    8.1602    1.9822 N   0  0  0  0  0  0  0  0  0  0  0  0
    8.3421    4.6804   -1.9028 N   0  0  0  0  0  0  0  0  0  0  0  0
    7.5166    3.8940    0.1534 N   0  0  0  0  0  0  0  0  0  0  0  0
    8.8277    6.2568    2.2922 N   0  0  0  0  0  0  0  0  0  0  0  0
    9.4413    6.7110    0.2423 N   0  0  0  0  0  0  0  0  0  0  0  0
    7.5900    4.2496    1.3382 N   0  0  0  0  0  0  0  0  0  0  0  0
    8.7321    5.6931    0.1991 N   0  0  1  0  0  0  0  0  0  0  0  0
  1  4  1  6  0  0  0
  1  8  1  0  0  0  0
  1  7  1  0  0  0  0
  2  5  1  6  0  0  0
  2  6  1  0  0  0  0
  2 10  1  0  0  0  0
  3  7  1  1  0  0  0
  3 10  1  0  0  0  0
  3  9  1  0  0  0  0
  6  9  1  0  0  0  0
 10  8  1  1  0  0  0
M  END
>  <CHROM.1>
8.67005617,5.68328493,0.66300444,-0.74340497,-0.95745916,-1.77512399

>  <Name>
ligand

>  <RI>
0

>  <Rbt.Current_Directory>
/home/itssahil/PROJECTS/Mol_Feturizer/Test_systems_manuscript/rnas/2xnw

>  <Rbt.Executable>
rbdock ($Id: //depot/dev/client3/rdock/2013.1/src/exe/rbdock.cxx#4 $)

>  <Rbt.Library>
libRbt.so (2013.1, Build901 2013/11/27)

>  <Rbt.Parameter_File>
/export/apps/rDock/src/rDock_2013.1_src/data/scripts/dock_solv.prm

>  <Rbt.Receptor>
prm/blind_docking_20.prm

>  <SCORE>
-7.44972

>  <SCORE.INTER>
-7.44972

>  <SCORE.INTER.CONST>
1

>  <SCORE.INTER.POLAR>
0

>  <SCORE.INTER.ROT>
0

>  <SCORE.INTER.SOLV>
5.24418

>  <SCORE.INTER.VDW>
-10.3145

>  <SCORE.INTER.norm>
-0.744972

>  <SCORE.INTRA>
0

>  <SCORE.INTRA.DIHEDRAL>
0

>  <SCORE.INTRA.DIHEDRAL.0>
0

>  <SCORE.INTRA.POLAR>
0

>  <SCORE.INTRA.POLAR.0>
0

>  <SCORE.INTRA.REPUL>
0

>  <SCORE.INTRA.REPUL.0>
0

>  <SCORE.INTRA.SOLV>
0

>  <SCORE.INTRA.SOLV.lig_0>
-47.9788

>  <SCORE.INTRA.VDW>
0

>  <SCORE.INTRA.VDW.0>
0

>  <SCORE.INTRA.norm>
0

>  <SCORE.RESTR>
0

>  <SCORE.RESTR.CAVITY>
0

>  <SCORE.RESTR.norm>
0

>  <SCORE.SYSTEM>
0

>  <SCORE.SYSTEM.CONST>
0

>  <SCORE.SYSTEM.DIHEDRAL>
0

>  <SCORE.SYSTEM.SOLV>
0

>  <SCORE.SYSTEM.norm>
0

>  <SCORE.heavy>
10

>  <SCORE.norm>
-0.744972

>  <RMSD>
11.042

$$$$
ligand
 OpenBabel02271912133D
libRbt.so/2013.1/901 2013/11/27
 10 11  0  0  0  0  0  0  0  0999 V2000
    9.5171    7.0895    1.5284 C   0  0  1  0  0  0  0  0  0  0  0  0
    8.2067    4.7517   -0.5863 C   0  0  2  0  0  0  0  0  0  0  0  0
    8.3220    5.3626    1.4288 C   0  0  2  0  0  0  0  0  0  0  0  0
   10.1834    8.1574    1.9817 N   0  0  0  0  0  0  0  0  0  0  0  0
    8.3379    4.6797   -1.9072 N   0  0  0  0  0  0  0  0  0  0  0  0
    7.5103    3.8920    0.1476 N   0  0  0  0  0  0  0  0  0  0  0  0
    8.8189    6.2537    2.2892 N   0  0  0  0  0  0  0  0  0  0  0  0
    9.4347    6.7091    0.2402 N   0  0  0  0  0  0  0  0  0  0  0  0
    7.5825    4.2469    1.3328 N   0  0  0  0  0  0  0  0  0  0  0  0
    8.7256    5.6912    0.1957 N   0  0  1  0  0  0  0  0  0  0  0  0
  1  4  1  6  0  0  0
  1  8  1  0  0  0  0
  1  7  1  0  0  0  0
  2  5  1  6  0  0  0
  2  6  1  0  0  0  0
  2 10  1  0  0  0  0
  3  7  1  1  0  0  0
  3 10  1  0  0  0  0
  3  9  1  0  0  0  0
  6  9  1  0  0  0  0
 10  8  1  1  0  0  0
M  END
>  <CHROM.1>
8.66309107,5.68110783,0.65950185,-0.74520956,-0.95733175,-1.77602952

>  <Name>
ligand

>  <RI>
0

>  <Rbt.Current_Directory>
/home/itssahil/PROJECTS/Mol_Feturizer/Test_systems_manuscript/rnas/2xnw

>  <Rbt.Executable>
rbdock ($Id: //depot/dev/client3/rdock/2013.1/src/exe/rbdock.cxx#4 $)

>  <Rbt.Library>
libRbt.so (2013.1, Build901 2013/11/27)

>  <Rbt.Parameter_File>
/export/apps/rDock/src/rDock_2013.1_src/data/scripts/dock_solv.prm

>  <Rbt.Receptor>
prm/blind_docking_20.prm

>  <SCORE>
-7.44923

>  <SCORE.INTER>
-7.44923

>  <SCORE.INTER.CONST>
1

>  <SCORE.INTER.POLAR>
0

>  <SCORE.INTER.ROT>
0

>  <SCORE.INTER.SOLV>
5.25304

>  <SCORE.INTER.VDW>
-10.3172

>  <SCORE.INTER.norm>
-0.744923

>  <SCORE.INTRA>
0

>  <SCORE.INTRA.DIHEDRAL>
0

>  <SCORE.INTRA.DIHEDRAL.0>
0

>  <SCORE.INTRA.POLAR>
0

>  <SCORE.INTRA.POLAR.0>
0

>  <SCORE.INTRA.REPUL>
0

>  <SCORE.INTRA.REPUL.0>
0

>  <SCORE.INTRA.SOLV>
0

>  <SCORE.INTRA.SOLV.lig_0>
-47.9788

>  <SCORE.INTRA.VDW>
0

>  <SCORE.INTRA.VDW.0>
0

>  <SCORE.INTRA.norm>
0

>  <SCORE.RESTR>
0

>  <SCORE.RESTR.CAVITY>
0

>  <SCORE.RESTR.norm>
0

>  <SCORE.SYSTEM>
0

>  <SCORE.SYSTEM.CONST>
0

>  <SCORE.SYSTEM.DIHEDRAL>
0

>  <SCORE.SYSTEM.SOLV>
0

>  <SCORE.SYSTEM.norm>
0

>  <SCORE.heavy>
10

>  <SCORE.norm>
-0.744923

>  <RMSD>
11.045

$$$$
ligand
 OpenBabel02271912133D
libRbt.so/2013.1/901 2013/11/27
 10 11  0  0  0  0  0  0  0  0999 V2000
    9.4433    7.0635    1.5497 C   0  0  1  0  0  0  0  0  0  0  0  0
    8.2603    4.7506   -0.6651 C   0  0  2  0  0  0  0  0  0  0  0  0
    8.2984    5.3095    1.3679 C   0  0  2  0  0  0  0  0  0  0  0  0
   10.0668    8.1358    2.0511 N   0  0  0  0  0  0  0  0  0  0  0  0
    8.4332    4.7177   -1.9828 N   0  0  0  0  0  0  0  0  0  0  0  0
    7.5653    3.8536    0.0242 N   0  0  0  0  0  0  0  0  0  0  0  0
    8.7452    6.1897    2.2664 N   0  0  0  0  0  0  0  0  0  0  0  0
    9.4100    6.7161    0.2499 N   0  0  0  0  0  0  0  0  0  0  0  0
    7.5922    4.1781    1.2199 N   0  0  0  0  0  0  0  0  0  0  0  0
    8.7301    5.6817    0.1569 N   0  0  1  0  0  0  0  0  0  0  0  0
  1  4  1  6  0  0  0
  1  8  1  0  0  0  0
  1  7  1  0  0  0  0
  2  5  1  6  0  0  0
  2  6  1  0  0  0  0
  2 10  1  0  0  0  0
  3  7  1  1  0  0  0
  3 10  1  0  0  0  0
  3  9  1  0  0  0  0
  6  9  1  0  0  0  0
 10  8  1  1  0  0  0
M  END
>  <CHROM.1>
8.65389883,5.65748641,0.61815639,-0.80769886,-0.97649398,-1.80083664

>  <Name>
ligand

>  <RI>
0

>  <Rbt.Current_Directory>
/home/itssahil/PROJECTS/Mol_Feturizer/Test_systems_manuscript/rnas/2xnw

>  <Rbt.Executable>
rbdock ($Id: //depot/dev/client3/rdock/2013.1/src/exe/rbdock.cxx#4 $)

>  <Rbt.Library>
libRbt.so (2013.1, Build901 2013/11/27)

>  <Rbt.Parameter_File>
/export/apps/rDock/src/rDock_2013.1_src/data/scripts/dock_solv.prm

>  <Rbt.Receptor>
prm/blind_docking_80.prm

>  <SCORE>
-7.47149

>  <SCORE.INTER>
-7.47149

>  <SCORE.INTER.CONST>
1

>  <SCORE.INTER.POLAR>
0

>  <SCORE.INTER.ROT>
0

>  <SCORE.INTER.SOLV>
4.93947

>  <SCORE.INTER.VDW>
-10.2275

>  <SCORE.INTER.norm>
-0.747149

>  <SCORE.INTRA>
0

>  <SCORE.INTRA.DIHEDRAL>
0

>  <SCORE.INTRA.DIHEDRAL.0>
0

>  <SCORE.INTRA.POLAR>
0

>  <SCORE.INTRA.POLAR.0>
0

>  <SCORE.INTRA.REPUL>
0

>  <SCORE.INTRA.REPUL.0>
0

>  <SCORE.INTRA.SOLV>
0

>  <SCORE.INTRA.SOLV.lig_0>
-47.9788

>  <SCORE.INTRA.VDW>
0

>  <SCORE.INTRA.VDW.0>
0

>  <SCORE.INTRA.norm>
0

>  <SCORE.RESTR>
0

>  <SCORE.RESTR.CAVITY>
0

>  <SCORE.RESTR.norm>
0

>  <SCORE.SYSTEM>
0

>  <SCORE.SYSTEM.CONST>
0

>  <SCORE.SYSTEM.DIHEDRAL>
0

>  <SCORE.SYSTEM.SOLV>
0

>  <SCORE.SYSTEM.norm>
0

>  <SCORE.heavy>
10

>  <SCORE.norm>
-0.747149

>  <RMSD>
11.050

$$$$
ligand
 OpenBabel02271912133D
libRbt.so/2013.1/901 2013/11/27
 10 11  0  0  0  0  0  0  0  0999 V2000
    9.4367    7.1804    1.5890 C   0  0  1  0  0  0  0  0  0  0  0  0
    8.2381    4.8005   -0.5450 C   0  0  2  0  0  0  0  0  0  0  0  0
    8.3022    5.4142    1.4716 C   0  0  2  0  0  0  0  0  0  0  0  0
   10.0596    8.2701    2.0521 N   0  0  0  0  0  0  0  0  0  0  0  0
    8.3916    4.7334   -1.8637 N   0  0  0  0  0  0  0  0  0  0  0  0
    7.5601    3.9175    0.1785 N   0  0  0  0  0  0  0  0  0  0  0  0
    8.7557    6.3213    2.3393 N   0  0  0  0  0  0  0  0  0  0  0  0
    9.3866    6.7979    0.2997 N   0  0  0  0  0  0  0  0  0  0  0  0
    7.6023    4.2742    1.3646 N   0  0  0  0  0  0  0  0  0  0  0  0
    8.7131    5.7567    0.2447 N   0  0  1  0  0  0  0  0  0  0  0  0
  1  4  1  6  0  0  0
  1  8  1  0  0  0  0
  1  7  1  0  0  0  0
  2  5  1  6  0  0  0
  2  6  1  0  0  0  0
  2 10  1  0  0  0  0
  3  7  1  1  0  0  0
  3 10  1  0  0  0  0
  3  9  1  0  0  0  0
  6  9  1  0  0  0  0
 10  8  1  1  0  0  0
M  END
>  <CHROM.1>
8.64397106,5.74429185,0.70746110,-0.78454076,-0.98696979,-1.80843246

>  <Name>
ligand

>  <RI>
0

>  <Rbt.Current_Directory>
/home/itssahil/PROJECTS/Mol_Feturizer/Test_systems_manuscript/rnas/2xnw

>  <Rbt.Executable>
rbdock ($Id: //depot/dev/client3/rdock/2013.1/src/exe/rbdock.cxx#4 $)

>  <Rbt.Library>
libRbt.so (2013.1, Build901 2013/11/27)

>  <Rbt.Parameter_File>
/export/apps/rDock/src/rDock_2013.1_src/data/scripts/dock_solv.prm

>  <Rbt.Receptor>
prm/blind_docking_80.prm

>  <SCORE>
-7.48615

>  <SCORE.INTER>
-7.48615

>  <SCORE.INTER.CONST>
1

>  <SCORE.INTER.POLAR>
0

>  <SCORE.INTER.ROT>
0

>  <SCORE.INTER.SOLV>
4.96485

>  <SCORE.INTER.VDW>
-10.2457

>  <SCORE.INTER.norm>
-0.748615

>  <SCORE.INTRA>
0

>  <SCORE.INTRA.DIHEDRAL>
0

>  <SCORE.INTRA.DIHEDRAL.0>
0

>  <SCORE.INTRA.POLAR>
0

>  <SCORE.INTRA.POLAR.0>
0

>  <SCORE.INTRA.REPUL>
0

>  <SCORE.INTRA.REPUL.0>
0

>  <SCORE.INTRA.SOLV>
0

>  <SCORE.INTRA.SOLV.lig_0>
-47.9788

>  <SCORE.INTRA.VDW>
0

>  <SCORE.INTRA.VDW.0>
0

>  <SCORE.INTRA.norm>
0

>  <SCORE.RESTR>
0

>  <SCORE.RESTR.CAVITY>
0

>  <SCORE.RESTR.norm>
0

>  <SCORE.SYSTEM>
0

>  <SCORE.SYSTEM.CONST>
0

>  <SCORE.SYSTEM.DIHEDRAL>
0

>  <SCORE.SYSTEM.SOLV>
0

>  <SCORE.SYSTEM.norm>
0

>  <SCORE.heavy>
10

>  <SCORE.norm>
-0.748615

>  <RMSD>
11.059

$$$$
ligand
 OpenBabel02271912133D
libRbt.so/2013.1/901 2013/11/27
 10 11  0  0  0  0  0  0  0  0999 V2000
    2.1976   -5.1269    3.1570 C   0  0  1  0  0  0  0  0  0  0  0  0
    1.5249   -2.0219    4.4065 C   0  0  2  0  0  0  0  0  0  0  0  0
    2.4293   -3.8787    4.8329 C   0  0  2  0  0  0  0  0  0  0  0  0
    2.2595   -6.1726    2.3247 N   0  0  0  0  0  0  0  0  0  0  0  0
    0.8980   -1.0166    3.8036 N   0  0  0  0  0  0  0  0  0  0  0  0
    2.0138   -1.9711    5.6399 N   0  0  0  0  0  0  0  0  0  0  0  0
    2.7079   -5.1041    4.3833 N   0  0  0  0  0  0  0  0  0  0  0  0
    1.6310   -3.9386    2.8776 N   0  0  0  0  0  0  0  0  0  0  0  0
    2.5402   -3.0640    5.8934 N   0  0  0  0  0  0  0  0  0  0  0  0
    1.7766   -3.2119    3.8733 N   0  0  1  0  0  0  0  0  0  0  0  0
  1  4  1  6  0  0  0
  1  8  1  0  0  0  0
  1  7  1  0  0  0  0
  2  5  1  6  0  0  0
  2  6  1  0  0  0  0
  2 10  1  0  0  0  0
  3  7  1  1  0  0  0
  3 10  1  0  0  0  0
  3  9  1  0  0  0  0
  6  9  1  0  0  0  0
 10  8  1  1  0  0  0
M  END
>  <CHROM.1>
1.99551913,-3.54504962,4.11864415,1.25377684,1.05726745,-2.39329898

>  <Name>
ligand

>  <RI>
0

>  <Rbt.Current_Directory>
/home/itssahil/PROJECTS/Mol_Feturizer/Test_systems_manuscript/rnas/2xnw

>  <Rbt.Executable>
rbdock ($Id: //depot/dev/client3/rdock/2013.1/src/exe/rbdock.cxx#4 $)

>  <Rbt.Library>
libRbt.so (2013.1, Build901 2013/11/27)

>  <Rbt.Parameter_File>
/export/apps/rDock/src/rDock_2013.1_src/data/scripts/dock_solv.prm

>  <Rbt.Receptor>
prm/blind_docking_60.prm

>  <SCORE>
-6.9492

>  <SCORE.INTER>
-6.94985

>  <SCORE.INTER.CONST>
1

>  <SCORE.INTER.POLAR>
0

>  <SCORE.INTER.ROT>
0

>  <SCORE.INTER.SOLV>
6.77325

>  <SCORE.INTER.VDW>
-10.491

>  <SCORE.INTER.norm>
-0.694985

>  <SCORE.INTRA>
0

>  <SCORE.INTRA.DIHEDRAL>
0

>  <SCORE.INTRA.DIHEDRAL.0>
0

>  <SCORE.INTRA.POLAR>
0

>  <SCORE.INTRA.POLAR.0>
0

>  <SCORE.INTRA.REPUL>
0

>  <SCORE.INTRA.REPUL.0>
0

>  <SCORE.INTRA.SOLV>
0

>  <SCORE.INTRA.SOLV.lig_0>
-47.9788

>  <SCORE.INTRA.VDW>
0

>  <SCORE.INTRA.VDW.0>
0

>  <SCORE.INTRA.norm>
0

>  <SCORE.RESTR>
0.00065383

>  <SCORE.RESTR.CAVITY>
0.00065383

>  <SCORE.RESTR.norm>
6.5383e-05

>  <SCORE.SYSTEM>
0

>  <SCORE.SYSTEM.CONST>
0

>  <SCORE.SYSTEM.DIHEDRAL>
0

>  <SCORE.SYSTEM.SOLV>
0

>  <SCORE.SYSTEM.norm>
0

>  <SCORE.heavy>
10

>  <SCORE.norm>
-0.69492

>  <RMSD>
11.092

$$$$
ligand
 OpenBabel02271912133D
libRbt.so/2013.1/901 2013/11/27
 10 11  0  0  0  0  0  0  0  0999 V2000
   18.6141    7.7809   10.1561 C   0  0  1  0  0  0  0  0  0  0  0  0
   19.8177    6.5528    7.2069 C   0  0  2  0  0  0  0  0  0  0  0  0
   19.8224    6.2889    9.2991 C   0  0  2  0  0  0  0  0  0  0  0  0
   17.9488    8.5357   11.0379 N   0  0  0  0  0  0  0  0  0  0  0  0
   19.5738    6.9951    5.9772 N   0  0  0  0  0  0  0  0  0  0  0  0
   20.5962    5.5158    7.4919 N   0  0  0  0  0  0  0  0  0  0  0  0
   19.3772    6.7409   10.4734 N   0  0  0  0  0  0  0  0  0  0  0  0
   18.5992    7.9437    8.8203 N   0  0  0  0  0  0  0  0  0  0  0  0
   20.6043    5.3637    8.7217 N   0  0  0  0  0  0  0  0  0  0  0  0
   19.3138    7.0563    8.3277 N   0  0  1  0  0  0  0  0  0  0  0  0
  1  4  1  6  0  0  0
  1  8  1  0  0  0  0
  1  7  1  0  0  0  0
  2  5  1  6  0  0  0
  2  6  1  0  0  0  0
  2 10  1  0  0  0  0
  3  7  1  1  0  0  0
  3 10  1  0  0  0  0
  3  9  1  0  0  0  0
  6  9  1  0  0  0  0
 10  8  1  1  0  0  0
M  END
>  <CHROM.1>
19.42713605,6.87751871,8.74513786,2.28010693,-0.90961674,1.68285976

>  <Name>
ligand

>  <RI>
0

>  <Rbt.Current_Directory>
/home/itssahil/PROJECTS/Mol_Feturizer/Test_systems_manuscript/rnas/2xnw

>  <Rbt.Executable>
rbdock ($Id: //depot/dev/client3/rdock/2013.1/src/exe/rbdock.cxx#4 $)

>  <Rbt.Library>
libRbt.so (2013.1, Build901 2013/11/27)

>  <Rbt.Parameter_File>
/export/apps/rDock/src/rDock_2013.1_src/data/scripts/dock_solv.prm

>  <Rbt.Receptor>
prm/blind_docking_40.prm

>  <SCORE>
-4.14264

>  <SCORE.INTER>
-4.14264

>  <SCORE.INTER.CONST>
1

>  <SCORE.INTER.POLAR>
0

>  <SCORE.INTER.ROT>
0

>  <SCORE.INTER.SOLV>
6.13483

>  <SCORE.INTER.VDW>
-8.4067

>  <SCORE.INTER.norm>
-0.414264

>  <SCORE.INTRA>
0

>  <SCORE.INTRA.DIHEDRAL>
0

>  <SCORE.INTRA.DIHEDRAL.0>
0

>  <SCORE.INTRA.POLAR>
0

>  <SCORE.INTRA.POLAR.0>
0

>  <SCORE.INTRA.REPUL>
0

>  <SCORE.INTRA.REPUL.0>
0

>  <SCORE.INTRA.SOLV>
0

>  <SCORE.INTRA.SOLV.lig_0>
-47.9788

>  <SCORE.INTRA.VDW>
0

>  <SCORE.INTRA.VDW.0>
0

>  <SCORE.INTRA.norm>
0

>  <SCORE.RESTR>
0

>  <SCORE.RESTR.CAVITY>
0

>  <SCORE.RESTR.norm>
0

>  <SCORE.SYSTEM>
0

>  <SCORE.SYSTEM.CONST>
0

>  <SCORE.SYSTEM.DIHEDRAL>
0

>  <SCORE.SYSTEM.SOLV>
0

>  <SCORE.SYSTEM.norm>
0

>  <SCORE.heavy>
10

>  <SCORE.norm>
-0.414264

>  <RMSD>
11.678

$$$$
ligand
 OpenBabel02271912133D
libRbt.so/2013.1/901 2013/11/27
 10 11  0  0  0  0  0  0  0  0999 V2000
    8.5341    4.6554   -2.2107 C   0  0  1  0  0  0  0  0  0  0  0  0
    8.0354    5.8935    0.9313 C   0  0  2  0  0  0  0  0  0  0  0  0
    8.0111    4.1404   -0.2406 C   0  0  2  0  0  0  0  0  0  0  0  0
    8.8237    4.5863   -3.5151 N   0  0  0  0  0  0  0  0  0  0  0  0
    8.1674    7.1499    1.3451 N   0  0  0  0  0  0  0  0  0  0  0  0
    7.6794    4.8792    1.7106 N   0  0  0  0  0  0  0  0  0  0  0  0
    8.1918    3.6177   -1.4553 N   0  0  0  0  0  0  0  0  0  0  0  0
    8.5627    5.7735   -1.4624 N   0  0  0  0  0  0  0  0  0  0  0  0
    7.6592    3.8495    1.0213 N   0  0  0  0  0  0  0  0  0  0  0  0
    8.2544    5.4551   -0.3029 N   0  0  1  0  0  0  0  0  0  0  0  0
  1  4  1  1  0  0  0
  1  8  1  0  0  0  0
  1  7  1  0  0  0  0
  2  5  1  1  0  0  0
  2  6  1  0  0  0  0
  2 10  1  0  0  0  0
  3  7  1  6  0  0  0
  3 10  1  0  0  0  0
  3  9  1  0  0  0  0
  6  9  1  0  0  0  0
 10  8  1  6  0  0  0
M  END
>  <CHROM.1>
8.19185634,5.00467497,-0.41390148,-0.91369353,1.29118687,0.65272329

>  <Name>
ligand

>  <RI>
0

>  <Rbt.Current_Directory>
/home/itssahil/PROJECTS/Mol_Feturizer/Test_systems_manuscript/rnas/2xnw

>  <Rbt.Executable>
rbdock ($Id: //depot/dev/client3/rdock/2013.1/src/exe/rbdock.cxx#4 $)

>  <Rbt.Library>
libRbt.so (2013.1, Build901 2013/11/27)

>  <Rbt.Parameter_File>
/export/apps/rDock/src/rDock_2013.1_src/data/scripts/dock_solv.prm

>  <Rbt.Receptor>
prm/blind_docking_20.prm

>  <SCORE>
-6.83124

>  <SCORE.INTER>
-6.83124

>  <SCORE.INTER.CONST>
1

>  <SCORE.INTER.POLAR>
0

>  <SCORE.INTER.ROT>
0

>  <SCORE.INTER.SOLV>
7.14473

>  <SCORE.INTER.VDW>
-10.5357

>  <SCORE.INTER.norm>
-0.683124

>  <SCORE.INTRA>
0

>  <SCORE.INTRA.DIHEDRAL>
0

>  <SCORE.INTRA.DIHEDRAL.0>
0

>  <SCORE.INTRA.POLAR>
0

>  <SCORE.INTRA.POLAR.0>
0

>  <SCORE.INTRA.REPUL>
0

>  <SCORE.INTRA.REPUL.0>
0

>  <SCORE.INTRA.SOLV>
0

>  <SCORE.INTRA.SOLV.lig_0>
-47.9788

>  <SCORE.INTRA.VDW>
0

>  <SCORE.INTRA.VDW.0>
0

>  <SCORE.INTRA.norm>
0

>  <SCORE.RESTR>
0

>  <SCORE.RESTR.CAVITY>
0

>  <SCORE.RESTR.norm>
0

>  <SCORE.SYSTEM>
0

>  <SCORE.SYSTEM.CONST>
0

>  <SCORE.SYSTEM.DIHEDRAL>
0

>  <SCORE.SYSTEM.SOLV>
0

>  <SCORE.SYSTEM.norm>
0

>  <SCORE.heavy>
10

>  <SCORE.norm>
-0.683124

>  <RMSD>
11.896

$$$$
ligand
 OpenBabel02271912133D
libRbt.so/2013.1/901 2013/11/27
 10 11  0  0  0  0  0  0  0  0999 V2000
    8.6241    4.9726   -2.2966 C   0  0  1  0  0  0  0  0  0  0  0  0
    8.0387    5.8098    0.9608 C   0  0  2  0  0  0  0  0  0  0  0  0
    8.0203    4.2226   -0.4276 C   0  0  2  0  0  0  0  0  0  0  0  0
    8.9588    5.0641   -3.5887 N   0  0  0  0  0  0  0  0  0  0  0  0
    8.1817    6.9991    1.5373 N   0  0  0  0  0  0  0  0  0  0  0  0
    7.6342    4.7132    1.5906 N   0  0  0  0  0  0  0  0  0  0  0  0
    8.2336    3.8555   -1.6930 N   0  0  0  0  0  0  0  0  0  0  0  0
    8.6489    5.9845   -1.4097 N   0  0  0  0  0  0  0  0  0  0  0  0
    7.6174    3.7813    0.7740 N   0  0  0  0  0  0  0  0  0  0  0  0
    8.2928    5.5279   -0.3118 N   0  0  1  0  0  0  0  0  0  0  0  0
  1  4  1  1  0  0  0
  1  8  1  0  0  0  0
  1  7  1  0  0  0  0
  2  5  1  1  0  0  0
  2  6  1  0  0  0  0
  2 10  1  0  0  0  0
  3  7  1  6  0  0  0
  3 10  1  0  0  0  0
  3  9  1  0  0  0  0
  6  9  1  0  0  0  0
 10  8  1  6  0  0  0
M  END
>  <CHROM.1>
8.22495513,5.09713914,-0.48194274,-0.89659266,1.25012478,0.76537759

>  <Name>
ligand

>  <RI>
0

>  <Rbt.Current_Directory>
/home/itssahil/PROJECTS/Mol_Feturizer/Test_systems_manuscript/rnas/2xnw

>  <Rbt.Executable>
rbdock ($Id: //depot/dev/client3/rdock/2013.1/src/exe/rbdock.cxx#4 $)

>  <Rbt.Library>
libRbt.so (2013.1, Build901 2013/11/27)

>  <Rbt.Parameter_File>
/export/apps/rDock/src/rDock_2013.1_src/data/scripts/dock_solv.prm

>  <Rbt.Receptor>
prm/blind_docking_80.prm

>  <SCORE>
-7.50375

>  <SCORE.INTER>
-7.50375

>  <SCORE.INTER.CONST>
1

>  <SCORE.INTER.POLAR>
0

>  <SCORE.INTER.ROT>
0

>  <SCORE.INTER.SOLV>
6.88755

>  <SCORE.INTER.VDW>
-10.8983

>  <SCORE.INTER.norm>
-0.750375

>  <SCORE.INTRA>
0

>  <SCORE.INTRA.DIHEDRAL>
0

>  <SCORE.INTRA.DIHEDRAL.0>
0

>  <SCORE.INTRA.POLAR>
0

>  <SCORE.INTRA.POLAR.0>
0

>  <SCORE.INTRA.REPUL>
0

>  <SCORE.INTRA.REPUL.0>
0

>  <SCORE.INTRA.SOLV>
0

>  <SCORE.INTRA.SOLV.lig_0>
-47.9788

>  <SCORE.INTRA.VDW>
0

>  <SCORE.INTRA.VDW.0>
0

>  <SCORE.INTRA.norm>
0

>  <SCORE.RESTR>
0

>  <SCORE.RESTR.CAVITY>
0

>  <SCORE.RESTR.norm>
0

>  <SCORE.SYSTEM>
0

>  <SCORE.SYSTEM.CONST>
0

>  <SCORE.SYSTEM.DIHEDRAL>
0

>  <SCORE.SYSTEM.SOLV>
0

>  <SCORE.SYSTEM.norm>
0

>  <SCORE.heavy>
10

>  <SCORE.norm>
-0.750375

>  <RMSD>
11.987

$$$$
ligand
 OpenBabel02271912133D
libRbt.so/2013.1/901 2013/11/27
 10 11  0  0  0  0  0  0  0  0999 V2000
    8.6953    5.0030   -2.3000 C   0  0  1  0  0  0  0  0  0  0  0  0
    8.1760    5.8506    0.9659 C   0  0  2  0  0  0  0  0  0  0  0  0
    8.0571    4.2770   -0.4329 C   0  0  2  0  0  0  0  0  0  0  0  0
    9.0287    5.0836   -3.5932 N   0  0  0  0  0  0  0  0  0  0  0  0
    8.3918    7.0253    1.5496 N   0  0  0  0  0  0  0  0  0  0  0  0
    7.7103    4.7755    1.5904 N   0  0  0  0  0  0  0  0  0  0  0  0
    8.2423    3.9068   -1.7018 N   0  0  0  0  0  0  0  0  0  0  0  0
    8.7842    6.0054   -1.4065 N   0  0  0  0  0  0  0  0  0  0  0  0
    7.6345    3.8518    0.7677 N   0  0  0  0  0  0  0  0  0  0  0  0
    8.4069    5.5630   -0.3098 N   0  0  1  0  0  0  0  0  0  0  0  0
  1  4  1  1  0  0  0
  1  8  1  0  0  0  0
  1  7  1  0  0  0  0
  2  5  1  1  0  0  0
  2  6  1  0  0  0  0
  2 10  1  0  0  0  0
  3  7  1  6  0  0  0
  3 10  1  0  0  0  0
  3  9  1  0  0  0  0
  6  9  1  0  0  0  0
 10  8  1  6  0  0  0
M  END
>  <CHROM.1>
8.31285834,5.13824522,-0.48250315,-1.02704950,1.20970671,0.89522251

>  <Name>
ligand

>  <RI>
0

>  <Rbt.Current_Directory>
/home/itssahil/PROJECTS/Mol_Feturizer/Test_systems_manuscript/rnas/2xnw

>  <Rbt.Executable>
rbdock ($Id: //depot/dev/client3/rdock/2013.1/src/exe/rbdock.cxx#4 $)

>  <Rbt.Library>
libRbt.so (2013.1, Build901 2013/11/27)

>  <Rbt.Parameter_File>
/export/apps/rDock/src/rDock_2013.1_src/data/scripts/dock_solv.prm

>  <Rbt.Receptor>
prm/blind_docking_80.prm

>  <SCORE>
-7.4983

>  <SCORE.INTER>
-7.4983

>  <SCORE.INTER.CONST>
1

>  <SCORE.INTER.POLAR>
0

>  <SCORE.INTER.ROT>
0

>  <SCORE.INTER.SOLV>
6.82384

>  <SCORE.INTER.VDW>
-10.8735

>  <SCORE.INTER.norm>
-0.74983

>  <SCORE.INTRA>
0

>  <SCORE.INTRA.DIHEDRAL>
0

>  <SCORE.INTRA.DIHEDRAL.0>
0

>  <SCORE.INTRA.POLAR>
0

>  <SCORE.INTRA.POLAR.0>
0

>  <SCORE.INTRA.REPUL>
0

>  <SCORE.INTRA.REPUL.0>
0

>  <SCORE.INTRA.SOLV>
0

>  <SCORE.INTRA.SOLV.lig_0>
-47.9788

>  <SCORE.INTRA.VDW>
0

>  <SCORE.INTRA.VDW.0>
0

>  <SCORE.INTRA.norm>
0

>  <SCORE.RESTR>
0

>  <SCORE.RESTR.CAVITY>
0

>  <SCORE.RESTR.norm>
0

>  <SCORE.SYSTEM>
0

>  <SCORE.SYSTEM.CONST>
0

>  <SCORE.SYSTEM.DIHEDRAL>
0

>  <SCORE.SYSTEM.SOLV>
0

>  <SCORE.SYSTEM.norm>
0

>  <SCORE.heavy>
10

>  <SCORE.norm>
-0.74983

>  <RMSD>
11.990

$$$$
ligand
 OpenBabel02271912133D
libRbt.so/2013.1/901 2013/11/27
 10 11  0  0  0  0  0  0  0  0999 V2000
   18.6732    7.8953    6.2366 C   0  0  1  0  0  0  0  0  0  0  0  0
   21.3977    6.3278    7.5687 C   0  0  2  0  0  0  0  0  0  0  0  0
   19.3710    6.0821    7.0401 C   0  0  2  0  0  0  0  0  0  0  0  0
   17.8931    8.8318    5.6848 N   0  0  0  0  0  0  0  0  0  0  0  0
   22.6173    6.8238    7.7521 N   0  0  0  0  0  0  0  0  0  0  0  0
   21.0347    5.0900    7.8830 N   0  0  0  0  0  0  0  0  0  0  0  0
   18.2819    6.6599    6.5287 N   0  0  0  0  0  0  0  0  0  0  0  0
   19.9699    8.0509    6.5613 N   0  0  0  0  0  0  0  0  0  0  0  0
   19.8421    4.9466    7.5781 N   0  0  0  0  0  0  0  0  0  0  0  0
   20.3691    6.9738    7.0318 N   0  0  1  0  0  0  0  0  0  0  0  0
  1  4  1  6  0  0  0
  1  8  1  0  0  0  0
  1  7  1  0  0  0  0
  2  5  1  6  0  0  0
  2  6  1  0  0  0  0
  2 10  1  0  0  0  0
  3  7  1  1  0  0  0
  3 10  1  0  0  0  0
  3  9  1  0  0  0  0
  6  9  1  0  0  0  0
 10  8  1  1  0  0  0
M  END
>  <CHROM.1>
19.95084022,6.76819660,6.98822440,-2.45015826,0.27208893,2.81459262

>  <Name>
ligand

>  <RI>
0

>  <Rbt.Current_Directory>
/home/itssahil/PROJECTS/Mol_Feturizer/Test_systems_manuscript/rnas/2xnw

>  <Rbt.Executable>
rbdock ($Id: //depot/dev/client3/rdock/2013.1/src/exe/rbdock.cxx#4 $)

>  <Rbt.Library>
libRbt.so (2013.1, Build901 2013/11/27)

>  <Rbt.Parameter_File>
/export/apps/rDock/src/rDock_2013.1_src/data/scripts/dock_solv.prm

>  <Rbt.Receptor>
prm/blind_docking_100.prm

>  <SCORE>
-4.88693

>  <SCORE.INTER>
-4.88693

>  <SCORE.INTER.CONST>
1

>  <SCORE.INTER.POLAR>
0

>  <SCORE.INTER.ROT>
0

>  <SCORE.INTER.SOLV>
4.46525

>  <SCORE.INTER.VDW>
-8.34637

>  <SCORE.INTER.norm>
-0.488693

>  <SCORE.INTRA>
0

>  <SCORE.INTRA.DIHEDRAL>
0

>  <SCORE.INTRA.DIHEDRAL.0>
0

>  <SCORE.INTRA.POLAR>
0

>  <SCORE.INTRA.POLAR.0>
0

>  <SCORE.INTRA.REPUL>
0

>  <SCORE.INTRA.REPUL.0>
0

>  <SCORE.INTRA.SOLV>
0

>  <SCORE.INTRA.SOLV.lig_0>
-47.9788

>  <SCORE.INTRA.VDW>
0

>  <SCORE.INTRA.VDW.0>
0

>  <SCORE.INTRA.norm>
0

>  <SCORE.RESTR>
0

>  <SCORE.RESTR.CAVITY>
0

>  <SCORE.RESTR.norm>
0

>  <SCORE.SYSTEM>
0

>  <SCORE.SYSTEM.CONST>
0

>  <SCORE.SYSTEM.DIHEDRAL>
0

>  <SCORE.SYSTEM.SOLV>
0

>  <SCORE.SYSTEM.norm>
0

>  <SCORE.heavy>
10

>  <SCORE.norm>
-0.488693

>  <RMSD>
12.275

$$$$
ligand
 OpenBabel02271912133D
libRbt.so/2013.1/901 2013/11/27
 10 11  0  0  0  0  0  0  0  0999 V2000
   15.3416   11.0678    4.1885 C   0  0  1  0  0  0  0  0  0  0  0  0
   16.7619   12.9323    6.6706 C   0  0  2  0  0  0  0  0  0  0  0  0
   16.9640   12.3178    4.6634 C   0  0  2  0  0  0  0  0  0  0  0  0
   14.4924   10.2723    3.5281 N   0  0  0  0  0  0  0  0  0  0  0  0
   16.3148   13.1217    7.9081 N   0  0  0  0  0  0  0  0  0  0  0  0
   17.8756   13.4667    6.1839 N   0  0  0  0  0  0  0  0  0  0  0  0
   16.4435   11.5966    3.6682 N   0  0  0  0  0  0  0  0  0  0  0  0
   15.2035   11.4687    5.4657 N   0  0  0  0  0  0  0  0  0  0  0  0
   17.9982   13.1013    5.0061 N   0  0  0  0  0  0  0  0  0  0  0  0
   16.1656   12.2066    5.7318 N   0  0  1  0  0  0  0  0  0  0  0  0
  1  4  1  6  0  0  0
  1  8  1  0  0  0  0
  1  7  1  0  0  0  0
  2  5  1  6  0  0  0
  2  6  1  0  0  0  0
  2 10  1  0  0  0  0
  3  7  1  1  0  0  0
  3 10  1  0  0  0  0
  3  9  1  0  0  0  0
  6  9  1  0  0  0  0
 10  8  1  1  0  0  0
M  END
>  <CHROM.1>
16.35611860,12.15737498,5.30712644,2.17588127,-0.54416811,-1.93376231

>  <Name>
ligand

>  <RI>
0

>  <Rbt.Current_Directory>
/home/itssahil/PROJECTS/Mol_Feturizer/Test_systems_manuscript/rnas/2xnw

>  <Rbt.Executable>
rbdock ($Id: //depot/dev/client3/rdock/2013.1/src/exe/rbdock.cxx#4 $)

>  <Rbt.Library>
libRbt.so (2013.1, Build901 2013/11/27)

>  <Rbt.Parameter_File>
/export/apps/rDock/src/rDock_2013.1_src/data/scripts/dock_solv.prm

>  <Rbt.Receptor>
prm/blind_docking_80.prm

>  <SCORE>
-5.196

>  <SCORE.INTER>
-5.19745

>  <SCORE.INTER.CONST>
1

>  <SCORE.INTER.POLAR>
0

>  <SCORE.INTER.ROT>
0

>  <SCORE.INTER.SOLV>
4.5426

>  <SCORE.INTER.VDW>
-8.57917

>  <SCORE.INTER.norm>
-0.519745

>  <SCORE.INTRA>
0

>  <SCORE.INTRA.DIHEDRAL>
0

>  <SCORE.INTRA.DIHEDRAL.0>
0

>  <SCORE.INTRA.POLAR>
0

>  <SCORE.INTRA.POLAR.0>
0

>  <SCORE.INTRA.REPUL>
0

>  <SCORE.INTRA.REPUL.0>
0

>  <SCORE.INTRA.SOLV>
0

>  <SCORE.INTRA.SOLV.lig_0>
-47.9788

>  <SCORE.INTRA.VDW>
0

>  <SCORE.INTRA.VDW.0>
0

>  <SCORE.INTRA.norm>
0

>  <SCORE.RESTR>
0.00145746

>  <SCORE.RESTR.CAVITY>
0.00145746

>  <SCORE.RESTR.norm>
0.000145746

>  <SCORE.SYSTEM>
0

>  <SCORE.SYSTEM.CONST>
0

>  <SCORE.SYSTEM.DIHEDRAL>
0

>  <SCORE.SYSTEM.SOLV>
0

>  <SCORE.SYSTEM.norm>
0

>  <SCORE.heavy>
10

>  <SCORE.norm>
-0.5196

>  <RMSD>
15.378

$$$$
ligand
 OpenBabel02271912133D
libRbt.so/2013.1/901 2013/11/27
 10 11  0  0  0  0  0  0  0  0999 V2000
   23.6326    7.0232   14.1416 C   0  0  1  0  0  0  0  0  0  0  0  0
   23.9555    5.0248   16.8906 C   0  0  2  0  0  0  0  0  0  0  0  0
   24.7327    5.4365   14.9739 C   0  0  2  0  0  0  0  0  0  0  0  0
   23.1937    7.9760   13.3113 N   0  0  0  0  0  0  0  0  0  0  0  0
   23.2465    5.0604   18.0145 N   0  0  0  0  0  0  0  0  0  0  0  0
   24.9467    4.1738   16.6539 N   0  0  0  0  0  0  0  0  0  0  0  0
   24.6363    6.1936   13.8789 N   0  0  0  0  0  0  0  0  0  0  0  0
   23.1430    6.7709   15.3695 N   0  0  0  0  0  0  0  0  0  0  0  0
   25.4000    4.4111   15.5252 N   0  0  0  0  0  0  0  0  0  0  0  0
   23.8020    5.8348   15.8494 N   0  0  1  0  0  0  0  0  0  0  0  0
  1  4  1  1  0  0  0
  1  8  1  0  0  0  0
  1  7  1  0  0  0  0
  2  5  1  1  0  0  0
  2  6  1  0  0  0  0
  2 10  1  0  0  0  0
  3  7  1  6  0  0  0
  3 10  1  0  0  0  0
  3  9  1  0  0  0  0
  6  9  1  0  0  0  0
 10  8  1  6  0  0  0
M  END
>  <CHROM.1>
24.06720629,5.78883893,15.46647917,1.79195948,0.70777739,-1.02283082

>  <Name>
ligand

>  <RI>
0

>  <Rbt.Current_Directory>
/home/itssahil/PROJECTS/Mol_Feturizer/Test_systems_manuscript/rnas/2xnw

>  <Rbt.Executable>
rbdock ($Id: //depot/dev/client3/rdock/2013.1/src/exe/rbdock.cxx#4 $)

>  <Rbt.Library>
libRbt.so (2013.1, Build901 2013/11/27)

>  <Rbt.Parameter_File>
/export/apps/rDock/src/rDock_2013.1_src/data/scripts/dock_solv.prm

>  <Rbt.Receptor>
prm/blind_docking_100.prm

>  <SCORE>
-5.95723

>  <SCORE.INTER>
-5.95723

>  <SCORE.INTER.CONST>
1

>  <SCORE.INTER.POLAR>
0

>  <SCORE.INTER.ROT>
0

>  <SCORE.INTER.SOLV>
5.54659

>  <SCORE.INTER.VDW>
-9.42035

>  <SCORE.INTER.norm>
-0.595723

>  <SCORE.INTRA>
0

>  <SCORE.INTRA.DIHEDRAL>
0

>  <SCORE.INTRA.DIHEDRAL.0>
0

>  <SCORE.INTRA.POLAR>
0

>  <SCORE.INTRA.POLAR.0>
0

>  <SCORE.INTRA.REPUL>
0

>  <SCORE.INTRA.REPUL.0>
0

>  <SCORE.INTRA.SOLV>
0

>  <SCORE.INTRA.SOLV.lig_0>
-47.9788

>  <SCORE.INTRA.VDW>
0

>  <SCORE.INTRA.VDW.0>
0

>  <SCORE.INTRA.norm>
0

>  <SCORE.RESTR>
0

>  <SCORE.RESTR.CAVITY>
0

>  <SCORE.RESTR.norm>
0

>  <SCORE.SYSTEM>
0

>  <SCORE.SYSTEM.CONST>
0

>  <SCORE.SYSTEM.DIHEDRAL>
0

>  <SCORE.SYSTEM.SOLV>
0

>  <SCORE.SYSTEM.norm>
0

>  <SCORE.heavy>
10

>  <SCORE.norm>
-0.595723

>  <RMSD>
16.609

$$$$
ligand
 OpenBabel02271912133D
libRbt.so/2013.1/901 2013/11/27
 10 11  0  0  0  0  0  0  0  0999 V2000
   29.0540   -2.3796    4.7973 C   0  0  1  0  0  0  0  0  0  0  0  0
   28.6592    0.7562    3.5069 C   0  0  2  0  0  0  0  0  0  0  0  0
   29.0697   -1.2545    3.0213 C   0  0  2  0  0  0  0  0  0  0  0  0
   29.1174   -3.3938    5.6676 N   0  0  0  0  0  0  0  0  0  0  0  0
   28.3653    1.8770    4.1586 N   0  0  0  0  0  0  0  0  0  0  0  0
   28.8472    0.6770    2.1950 N   0  0  0  0  0  0  0  0  0  0  0  0
   29.2361   -2.4944    3.4864 N   0  0  0  0  0  0  0  0  0  0  0  0
   28.7792   -1.0995    5.1083 N   0  0  0  0  0  0  0  0  0  0  0  0
   29.0944   -0.5033    1.9096 N   0  0  0  0  0  0  0  0  0  0  0  0
   28.7897   -0.4477    4.0519 N   0  0  1  0  0  0  0  0  0  0  0  0
  1  4  1  6  0  0  0
  1  8  1  0  0  0  0
  1  7  1  0  0  0  0
  2  5  1  6  0  0  0
  2  6  1  0  0  0  0
  2 10  1  0  0  0  0
  3  7  1  1  0  0  0
  3 10  1  0  0  0  0
  3  9  1  0  0  0  0
  6  9  1  0  0  0  0
 10  8  1  1  0  0  0
M  END
>  <CHROM.1>
28.90003150,-0.82031561,3.79097063,1.10895552,-1.35198792,2.20342427

>  <Name>
ligand

>  <RI>
0

>  <Rbt.Current_Directory>
/home/itssahil/PROJECTS/Mol_Feturizer/Test_systems_manuscript/rnas/2xnw

>  <Rbt.Executable>
rbdock ($Id: //depot/dev/client3/rdock/2013.1/src/exe/rbdock.cxx#4 $)

>  <Rbt.Library>
libRbt.so (2013.1, Build901 2013/11/27)

>  <Rbt.Parameter_File>
/export/apps/rDock/src/rDock_2013.1_src/data/scripts/dock_solv.prm

>  <Rbt.Receptor>
prm/blind_docking_100.prm

>  <SCORE>
-7.17847

>  <SCORE.INTER>
-7.17847

>  <SCORE.INTER.CONST>
1

>  <SCORE.INTER.POLAR>
0

>  <SCORE.INTER.ROT>
0

>  <SCORE.INTER.SOLV>
5.73482

>  <SCORE.INTER.VDW>
-10.2973

>  <SCORE.INTER.norm>
-0.717847

>  <SCORE.INTRA>
0

>  <SCORE.INTRA.DIHEDRAL>
0

>  <SCORE.INTRA.DIHEDRAL.0>
0

>  <SCORE.INTRA.POLAR>
0

>  <SCORE.INTRA.POLAR.0>
0

>  <SCORE.INTRA.REPUL>
0

>  <SCORE.INTRA.REPUL.0>
0

>  <SCORE.INTRA.SOLV>
0

>  <SCORE.INTRA.SOLV.lig_0>
-47.9788

>  <SCORE.INTRA.VDW>
0

>  <SCORE.INTRA.VDW.0>
0

>  <SCORE.INTRA.norm>
0

>  <SCORE.RESTR>
0

>  <SCORE.RESTR.CAVITY>
0

>  <SCORE.RESTR.norm>
0

>  <SCORE.SYSTEM>
0

>  <SCORE.SYSTEM.CONST>
0

>  <SCORE.SYSTEM.DIHEDRAL>
0

>  <SCORE.SYSTEM.SOLV>
0

>  <SCORE.SYSTEM.norm>
0

>  <SCORE.heavy>
10

>  <SCORE.norm>
-0.717847

>  <RMSD>
17.860

$$$$
ligand
 OpenBabel02271912133D
libRbt.so/2013.1/901 2013/11/27
 10 11  0  0  0  0  0  0  0  0999 V2000
   28.3754    1.0372    3.7999 C   0  0  1  0  0  0  0  0  0  0  0  0
   29.1697   -2.2645    4.1491 C   0  0  2  0  0  0  0  0  0  0  0  0
   29.0451   -0.6711    2.7734 C   0  0  2  0  0  0  0  0  0  0  0  0
   27.9949    2.2871    4.0880 N   0  0  0  0  0  0  0  0  0  0  0  0
   29.1452   -2.9981    5.2575 N   0  0  0  0  0  0  0  0  0  0  0  0
   29.5281   -2.7196    2.9545 N   0  0  0  0  0  0  0  0  0  0  0  0
   28.7397    0.6158    2.5939 N   0  0  0  0  0  0  0  0  0  0  0  0
   28.4662    0.0253    4.6824 N   0  0  0  0  0  0  0  0  0  0  0  0
   29.4494   -1.7852    2.1443 N   0  0  0  0  0  0  0  0  0  0  0  0
   28.8640   -0.9750    4.0643 N   0  0  1  0  0  0  0  0  0  0  0  0
  1  4  1  1  0  0  0
  1  8  1  0  0  0  0
  1  7  1  0  0  0  0
  2  5  1  1  0  0  0
  2  6  1  0  0  0  0
  2 10  1  0  0  0  0
  3  7  1  6  0  0  0
  3 10  1  0  0  0  0
  3  9  1  0  0  0  0
  6  9  1  0  0  0  0
 10  8  1  6  0  0  0
M  END
>  <CHROM.1>
28.87841292,-0.74981253,3.65414102,2.50167250,1.25203557,-0.91349636

>  <Name>
ligand

>  <RI>
0

>  <Rbt.Current_Directory>
/home/itssahil/PROJECTS/Mol_Feturizer/Test_systems_manuscript/rnas/2xnw

>  <Rbt.Executable>
rbdock ($Id: //depot/dev/client3/rdock/2013.1/src/exe/rbdock.cxx#4 $)

>  <Rbt.Library>
libRbt.so (2013.1, Build901 2013/11/27)

>  <Rbt.Parameter_File>
/export/apps/rDock/src/rDock_2013.1_src/data/scripts/dock_solv.prm

>  <Rbt.Receptor>
prm/blind_docking_40.prm

>  <SCORE>
-6.80567

>  <SCORE.INTER>
-6.80567

>  <SCORE.INTER.CONST>
1

>  <SCORE.INTER.POLAR>
0

>  <SCORE.INTER.ROT>
0

>  <SCORE.INTER.SOLV>
7.11018

>  <SCORE.INTER.VDW>
-10.5072

>  <SCORE.INTER.norm>
-0.680567

>  <SCORE.INTRA>
0

>  <SCORE.INTRA.DIHEDRAL>
0

>  <SCORE.INTRA.DIHEDRAL.0>
0

>  <SCORE.INTRA.POLAR>
0

>  <SCORE.INTRA.POLAR.0>
0

>  <SCORE.INTRA.REPUL>
0

>  <SCORE.INTRA.REPUL.0>
0

>  <SCORE.INTRA.SOLV>
0

>  <SCORE.INTRA.SOLV.lig_0>
-47.9788

>  <SCORE.INTRA.VDW>
0

>  <SCORE.INTRA.VDW.0>
0

>  <SCORE.INTRA.norm>
0

>  <SCORE.RESTR>
0

>  <SCORE.RESTR.CAVITY>
0

>  <SCORE.RESTR.norm>
0

>  <SCORE.SYSTEM>
0

>  <SCORE.SYSTEM.CONST>
0

>  <SCORE.SYSTEM.DIHEDRAL>
0

>  <SCORE.SYSTEM.SOLV>
0

>  <SCORE.SYSTEM.norm>
0

>  <SCORE.heavy>
10

>  <SCORE.norm>
-0.680567

>  <RMSD>
17.898

$$$$
ligand
 OpenBabel02271912133D
libRbt.so/2013.1/901 2013/11/27
 10 11  0  0  0  0  0  0  0  0999 V2000
   28.9301   -1.3620    4.7835 C   0  0  1  0  0  0  0  0  0  0  0  0
   29.1118   -0.5873    1.4637 C   0  0  2  0  0  0  0  0  0  0  0  0
   28.5483    0.1390    3.3616 C   0  0  2  0  0  0  0  0  0  0  0  0
   29.0353   -2.0322    5.9367 N   0  0  0  0  0  0  0  0  0  0  0  0
   29.5746   -1.3425    0.4724 N   0  0  0  0  0  0  0  0  0  0  0  0
   28.6330    0.6417    1.3116 N   0  0  0  0  0  0  0  0  0  0  0  0
   28.4563   -0.1265    4.6665 N   0  0  0  0  0  0  0  0  0  0  0  0
   29.3024   -1.8231    3.5753 N   0  0  0  0  0  0  0  0  0  0  0  0
   28.2961    1.0670    2.4257 N   0  0  0  0  0  0  0  0  0  0  0  0
   29.0737   -0.9275    2.7468 N   0  0  1  0  0  0  0  0  0  0  0  0
  1  4  1  1  0  0  0
  1  8  1  0  0  0  0
  1  7  1  0  0  0  0
  2  5  1  1  0  0  0
  2  6  1  0  0  0  0
  2 10  1  0  0  0  0
  3  7  1  6  0  0  0
  3 10  1  0  0  0  0
  3  9  1  0  0  0  0
  6  9  1  0  0  0  0
 10  8  1  6  0  0  0
M  END
>  <CHROM.1>
28.89762326,-0.63676410,3.06863041,-1.60685343,1.16185297,-1.21970087

>  <Name>
ligand

>  <RI>
0

>  <Rbt.Current_Directory>
/home/itssahil/PROJECTS/Mol_Feturizer/Test_systems_manuscript/rnas/2xnw

>  <Rbt.Executable>
rbdock ($Id: //depot/dev/client3/rdock/2013.1/src/exe/rbdock.cxx#4 $)

>  <Rbt.Library>
libRbt.so (2013.1, Build901 2013/11/27)

>  <Rbt.Parameter_File>
/export/apps/rDock/src/rDock_2013.1_src/data/scripts/dock_solv.prm

>  <Rbt.Receptor>
prm/blind_docking_100.prm

>  <SCORE>
-6.82313

>  <SCORE.INTER>
-6.82313

>  <SCORE.INTER.CONST>
1

>  <SCORE.INTER.POLAR>
0

>  <SCORE.INTER.ROT>
0

>  <SCORE.INTER.SOLV>
8.12918

>  <SCORE.INTER.VDW>
-10.8585

>  <SCORE.INTER.norm>
-0.682313

>  <SCORE.INTRA>
0

>  <SCORE.INTRA.DIHEDRAL>
0

>  <SCORE.INTRA.DIHEDRAL.0>
0

>  <SCORE.INTRA.POLAR>
0

>  <SCORE.INTRA.POLAR.0>
0

>  <SCORE.INTRA.REPUL>
0

>  <SCORE.INTRA.REPUL.0>
0

>  <SCORE.INTRA.SOLV>
0

>  <SCORE.INTRA.SOLV.lig_0>
-47.9788

>  <SCORE.INTRA.VDW>
0

>  <SCORE.INTRA.VDW.0>
0

>  <SCORE.INTRA.norm>
0

>  <SCORE.RESTR>
0

>  <SCORE.RESTR.CAVITY>
0

>  <SCORE.RESTR.norm>
0

>  <SCORE.SYSTEM>
0

>  <SCORE.SYSTEM.CONST>
0

>  <SCORE.SYSTEM.DIHEDRAL>
0

>  <SCORE.SYSTEM.SOLV>
0

>  <SCORE.SYSTEM.norm>
0

>  <SCORE.heavy>
10

>  <SCORE.norm>
-0.682313

>  <RMSD>
18.010

$$$$
ligand
 OpenBabel02271912133D
libRbt.so/2013.1/901 2013/11/27
 10 11  0  0  0  0  0  0  0  0999 V2000
   29.1261   -2.2760    4.2813 C   0  0  1  0  0  0  0  0  0  0  0  0
   28.6990    0.8661    3.0165 C   0  0  2  0  0  0  0  0  0  0  0  0
   29.1566   -1.1313    2.5180 C   0  0  2  0  0  0  0  0  0  0  0  0
   29.1908   -3.2983    5.1419 N   0  0  0  0  0  0  0  0  0  0  0  0
   28.3712    1.9740    3.6739 N   0  0  0  0  0  0  0  0  0  0  0  0
   28.9148    0.8047    1.7079 N   0  0  0  0  0  0  0  0  0  0  0  0
   29.3366   -2.3730    2.9733 N   0  0  0  0  0  0  0  0  0  0  0  0
   28.8214   -1.0046    4.6002 N   0  0  0  0  0  0  0  0  0  0  0  0
   29.1896   -0.3677    1.4150 N   0  0  0  0  0  0  0  0  0  0  0  0
   28.8409   -0.3412    3.5512 N   0  0  1  0  0  0  0  0  0  0  0  0
  1  4  1  6  0  0  0
  1  8  1  0  0  0  0
  1  7  1  0  0  0  0
  2  5  1  6  0  0  0
  2  6  1  0  0  0  0
  2 10  1  0  0  0  0
  3  7  1  1  0  0  0
  3 10  1  0  0  0  0
  3  9  1  0  0  0  0
  6  9  1  0  0  0  0
 10  8  1  1  0  0  0
M  END
>  <CHROM.1>
28.96339557,-0.70880169,3.28863465,1.13034741,-1.32501190,2.23502819

>  <Name>
ligand

>  <RI>
0

>  <Rbt.Current_Directory>
/home/itssahil/PROJECTS/Mol_Feturizer/Test_systems_manuscript/rnas/2xnw

>  <Rbt.Executable>
rbdock ($Id: //depot/dev/client3/rdock/2013.1/src/exe/rbdock.cxx#4 $)

>  <Rbt.Library>
libRbt.so (2013.1, Build901 2013/11/27)

>  <Rbt.Parameter_File>
/export/apps/rDock/src/rDock_2013.1_src/data/scripts/dock_solv.prm

>  <Rbt.Receptor>
prm/blind_docking_40.prm

>  <SCORE>
-6.8835

>  <SCORE.INTER>
-6.8835

>  <SCORE.INTER.CONST>
1

>  <SCORE.INTER.POLAR>
0

>  <SCORE.INTER.ROT>
0

>  <SCORE.INTER.SOLV>
8.51162

>  <SCORE.INTER.VDW>
-11.0262

>  <SCORE.INTER.norm>
-0.68835

>  <SCORE.INTRA>
0

>  <SCORE.INTRA.DIHEDRAL>
0

>  <SCORE.INTRA.DIHEDRAL.0>
0

>  <SCORE.INTRA.POLAR>
0

>  <SCORE.INTRA.POLAR.0>
0

>  <SCORE.INTRA.REPUL>
0

>  <SCORE.INTRA.REPUL.0>
0

>  <SCORE.INTRA.SOLV>
0

>  <SCORE.INTRA.SOLV.lig_0>
-47.9788

>  <SCORE.INTRA.VDW>
0

>  <SCORE.INTRA.VDW.0>
0

>  <SCORE.INTRA.norm>
0

>  <SCORE.RESTR>
0

>  <SCORE.RESTR.CAVITY>
0

>  <SCORE.RESTR.norm>
0

>  <SCORE.SYSTEM>
0

>  <SCORE.SYSTEM.CONST>
0

>  <SCORE.SYSTEM.DIHEDRAL>
0

>  <SCORE.SYSTEM.SOLV>
0

>  <SCORE.SYSTEM.norm>
0

>  <SCORE.heavy>
10

>  <SCORE.norm>
-0.68835

>  <RMSD>
18.053

$$$$
ligand
 OpenBabel02271912133D
libRbt.so/2013.1/901 2013/11/27
 10 11  0  0  0  0  0  0  0  0999 V2000
   29.2285   -2.1871    4.2864 C   0  0  1  0  0  0  0  0  0  0  0  0
   28.6558    0.9189    2.9907 C   0  0  2  0  0  0  0  0  0  0  0  0
   29.1124   -1.0811    2.5022 C   0  0  2  0  0  0  0  0  0  0  0  0
   29.3729   -3.1891    5.1612 N   0  0  0  0  0  0  0  0  0  0  0  0
   28.3559    2.0355    3.6468 N   0  0  0  0  0  0  0  0  0  0  0  0
   28.7786    0.8324    1.6715 N   0  0  0  0  0  0  0  0  0  0  0  0
   29.3468   -2.3094    2.9690 N   0  0  0  0  0  0  0  0  0  0  0  0
   28.9245   -0.9142    4.6000 N   0  0  0  0  0  0  0  0  0  0  0  0
   29.0529   -0.3415    1.3841 N   0  0  0  0  0  0  0  0  0  0  0  0
   28.8572   -0.2738    3.5388 N   0  0  1  0  0  0  0  0  0  0  0  0
  1  4  1  6  0  0  0
  1  8  1  0  0  0  0
  1  7  1  0  0  0  0
  2  5  1  6  0  0  0
  2  6  1  0  0  0  0
  2 10  1  0  0  0  0
  3  7  1  1  0  0  0
  3 10  1  0  0  0  0
  3  9  1  0  0  0  0
  6  9  1  0  0  0  0
 10  8  1  1  0  0  0
M  END
>  <CHROM.1>
28.96718705,-0.64502813,3.27573215,0.82523725,-1.34484457,1.91685243

>  <Name>
ligand

>  <RI>
0

>  <Rbt.Current_Directory>
/home/itssahil/PROJECTS/Mol_Feturizer/Test_systems_manuscript/rnas/2xnw

>  <Rbt.Executable>
rbdock ($Id: //depot/dev/client3/rdock/2013.1/src/exe/rbdock.cxx#4 $)

>  <Rbt.Library>
libRbt.so (2013.1, Build901 2013/11/27)

>  <Rbt.Parameter_File>
/export/apps/rDock/src/rDock_2013.1_src/data/scripts/dock_solv.prm

>  <Rbt.Receptor>
prm/blind_docking_80.prm

>  <SCORE>
-6.8504

>  <SCORE.INTER>
-6.8504

>  <SCORE.INTER.CONST>
1

>  <SCORE.INTER.POLAR>
0

>  <SCORE.INTER.ROT>
0

>  <SCORE.INTER.SOLV>
9.326

>  <SCORE.INTER.VDW>
-11.2756

>  <SCORE.INTER.norm>
-0.68504

>  <SCORE.INTRA>
0

>  <SCORE.INTRA.DIHEDRAL>
0

>  <SCORE.INTRA.DIHEDRAL.0>
0

>  <SCORE.INTRA.POLAR>
0

>  <SCORE.INTRA.POLAR.0>
0

>  <SCORE.INTRA.REPUL>
0

>  <SCORE.INTRA.REPUL.0>
0

>  <SCORE.INTRA.SOLV>
0

>  <SCORE.INTRA.SOLV.lig_0>
-47.9788

>  <SCORE.INTRA.VDW>
0

>  <SCORE.INTRA.VDW.0>
0

>  <SCORE.INTRA.norm>
0

>  <SCORE.RESTR>
0

>  <SCORE.RESTR.CAVITY>
0

>  <SCORE.RESTR.norm>
0

>  <SCORE.SYSTEM>
0

>  <SCORE.SYSTEM.CONST>
0

>  <SCORE.SYSTEM.DIHEDRAL>
0

>  <SCORE.SYSTEM.SOLV>
0

>  <SCORE.SYSTEM.norm>
0

>  <SCORE.heavy>
10

>  <SCORE.norm>
-0.68504

>  <RMSD>
18.062

$$$$
ligand
 OpenBabel02271912133D
libRbt.so/2013.1/901 2013/11/27
 10 11  0  0  0  0  0  0  0  0999 V2000
   28.4462    0.8828    3.8013 C   0  0  1  0  0  0  0  0  0  0  0  0
   29.5148   -1.9405    2.2071 C   0  0  2  0  0  0  0  0  0  0  0  0
   29.0973   -1.0948    4.0933 C   0  0  2  0  0  0  0  0  0  0  0  0
   27.9992    2.1254    4.0161 N   0  0  0  0  0  0  0  0  0  0  0  0
   29.6522   -2.1384    0.8997 N   0  0  0  0  0  0  0  0  0  0  0  0
   29.7772   -2.8514    3.1367 N   0  0  0  0  0  0  0  0  0  0  0  0
   28.6884   -0.0099    4.7546 N   0  0  0  0  0  0  0  0  0  0  0  0
   28.6997    0.3414    2.5956 N   0  0  0  0  0  0  0  0  0  0  0  0
   29.5378   -2.3532    4.2459 N   0  0  0  0  0  0  0  0  0  0  0  0
   29.0807   -0.8251    2.7824 N   0  0  1  0  0  0  0  0  0  0  0  0
  1  4  1  6  0  0  0
  1  8  1  0  0  0  0
  1  7  1  0  0  0  0
  2  5  1  6  0  0  0
  2  6  1  0  0  0  0
  2 10  1  0  0  0  0
  3  7  1  1  0  0  0
  3 10  1  0  0  0  0
  3  9  1  0  0  0  0
  6  9  1  0  0  0  0
 10  8  1  1  0  0  0
M  END
>  <CHROM.1>
29.05068566,-0.78942874,3.24816089,2.90971249,-1.23311117,1.73797278

>  <Name>
ligand

>  <RI>
0

>  <Rbt.Current_Directory>
/home/itssahil/PROJECTS/Mol_Feturizer/Test_systems_manuscript/rnas/2xnw

>  <Rbt.Executable>
rbdock ($Id: //depot/dev/client3/rdock/2013.1/src/exe/rbdock.cxx#4 $)

>  <Rbt.Library>
libRbt.so (2013.1, Build901 2013/11/27)

>  <Rbt.Parameter_File>
/export/apps/rDock/src/rDock_2013.1_src/data/scripts/dock_solv.prm

>  <Rbt.Receptor>
prm/blind_docking_100.prm

>  <SCORE>
-6.53349

>  <SCORE.INTER>
-6.53376

>  <SCORE.INTER.CONST>
1

>  <SCORE.INTER.POLAR>
0

>  <SCORE.INTER.ROT>
0

>  <SCORE.INTER.SOLV>
7.54697

>  <SCORE.INTER.VDW>
-10.4715

>  <SCORE.INTER.norm>
-0.653376

>  <SCORE.INTRA>
0

>  <SCORE.INTRA.DIHEDRAL>
0

>  <SCORE.INTRA.DIHEDRAL.0>
0

>  <SCORE.INTRA.POLAR>
0

>  <SCORE.INTRA.POLAR.0>
0

>  <SCORE.INTRA.REPUL>
0

>  <SCORE.INTRA.REPUL.0>
0

>  <SCORE.INTRA.SOLV>
0

>  <SCORE.INTRA.SOLV.lig_0>
-47.9788

>  <SCORE.INTRA.VDW>
0

>  <SCORE.INTRA.VDW.0>
0

>  <SCORE.INTRA.norm>
0

>  <SCORE.RESTR>
0.000269784

>  <SCORE.RESTR.CAVITY>
0.000269784

>  <SCORE.RESTR.norm>
2.69784e-05

>  <SCORE.SYSTEM>
0

>  <SCORE.SYSTEM.CONST>
0

>  <SCORE.SYSTEM.DIHEDRAL>
0

>  <SCORE.SYSTEM.SOLV>
0

>  <SCORE.SYSTEM.norm>
0

>  <SCORE.heavy>
10

>  <SCORE.norm>
-0.653349

>  <RMSD>
18.066

$$$$
ligand
 OpenBabel02271912133D
libRbt.so/2013.1/901 2013/11/27
 10 11  0  0  0  0  0  0  0  0999 V2000
   29.2040   -2.2428    5.1771 C   0  0  1  0  0  0  0  0  0  0  0  0
   29.5372   -1.6562    1.8305 C   0  0  2  0  0  0  0  0  0  0  0  0
   28.8985   -0.8211    3.6586 C   0  0  2  0  0  0  0  0  0  0  0  0
   29.2527   -2.8482    6.3692 N   0  0  0  0  0  0  0  0  0  0  0  0
   30.0355   -2.4689    0.9041 N   0  0  0  0  0  0  0  0  0  0  0  0
   29.0771   -0.4344    1.5895 N   0  0  0  0  0  0  0  0  0  0  0  0
   28.7474   -1.0125    4.9709 N   0  0  0  0  0  0  0  0  0  0  0  0
   29.6241   -2.7734    4.0139 N   0  0  0  0  0  0  0  0  0  0  0  0
   28.6960    0.0549    2.6624 N   0  0  0  0  0  0  0  0  0  0  0  0
   29.4401   -1.9239    3.1276 N   0  0  1  0  0  0  0  0  0  0  0  0
  1  4  1  1  0  0  0
  1  8  1  0  0  0  0
  1  7  1  0  0  0  0
  2  5  1  1  0  0  0
  2  6  1  0  0  0  0
  2 10  1  0  0  0  0
  3  7  1  6  0  0  0
  3 10  1  0  0  0  0
  3  9  1  0  0  0  0
  6  9  1  0  0  0  0
 10  8  1  6  0  0  0
M  END
>  <CHROM.1>
29.25298111,-1.61441261,3.42478681,-1.71581454,1.15353377,-1.17567297

>  <Name>
ligand

>  <RI>
0

>  <Rbt.Current_Directory>
/home/itssahil/PROJECTS/Mol_Feturizer/Test_systems_manuscript/rnas/2xnw

>  <Rbt.Executable>
rbdock ($Id: //depot/dev/client3/rdock/2013.1/src/exe/rbdock.cxx#4 $)

>  <Rbt.Library>
libRbt.so (2013.1, Build901 2013/11/27)

>  <Rbt.Parameter_File>
/export/apps/rDock/src/rDock_2013.1_src/data/scripts/dock_solv.prm

>  <Rbt.Receptor>
prm/blind_docking_60.prm

>  <SCORE>
-6.19325

>  <SCORE.INTER>
-6.19325

>  <SCORE.INTER.CONST>
1

>  <SCORE.INTER.POLAR>
0

>  <SCORE.INTER.ROT>
0

>  <SCORE.INTER.SOLV>
7.24175

>  <SCORE.INTER.VDW>
-10.1428

>  <SCORE.INTER.norm>
-0.619325

>  <SCORE.INTRA>
0

>  <SCORE.INTRA.DIHEDRAL>
0

>  <SCORE.INTRA.DIHEDRAL.0>
0

>  <SCORE.INTRA.POLAR>
0

>  <SCORE.INTRA.POLAR.0>
0

>  <SCORE.INTRA.REPUL>
0

>  <SCORE.INTRA.REPUL.0>
0

>  <SCORE.INTRA.SOLV>
0

>  <SCORE.INTRA.SOLV.lig_0>
-47.9788

>  <SCORE.INTRA.VDW>
0

>  <SCORE.INTRA.VDW.0>
0

>  <SCORE.INTRA.norm>
0

>  <SCORE.RESTR>
0

>  <SCORE.RESTR.CAVITY>
0

>  <SCORE.RESTR.norm>
0

>  <SCORE.SYSTEM>
0

>  <SCORE.SYSTEM.CONST>
0

>  <SCORE.SYSTEM.DIHEDRAL>
0

>  <SCORE.SYSTEM.SOLV>
0

>  <SCORE.SYSTEM.norm>
0

>  <SCORE.heavy>
10

>  <SCORE.norm>
-0.619325

>  <RMSD>
18.216

$$$$
ligand
 OpenBabel02271912133D
libRbt.so/2013.1/901 2013/11/27
 10 11  0  0  0  0  0  0  0  0999 V2000
   29.1563   -2.1335    5.1434 C   0  0  1  0  0  0  0  0  0  0  0  0
   29.5607   -1.7084    1.7803 C   0  0  2  0  0  0  0  0  0  0  0  0
   28.9169   -0.7738    3.5578 C   0  0  2  0  0  0  0  0  0  0  0  0
   29.1680   -2.6856    6.3621 N   0  0  0  0  0  0  0  0  0  0  0  0
   30.0501   -2.5759    0.9000 N   0  0  0  0  0  0  0  0  0  0  0  0
   29.1402   -0.4861    1.4769 N   0  0  0  0  0  0  0  0  0  0  0  0
   28.7390   -0.9014    4.8744 N   0  0  0  0  0  0  0  0  0  0  0  0
   29.5796   -2.7278    4.0126 N   0  0  0  0  0  0  0  0  0  0  0  0
   28.7561    0.0617    2.5200 N   0  0  0  0  0  0  0  0  0  0  0  0
   29.4348   -1.9143    3.0862 N   0  0  1  0  0  0  0  0  0  0  0  0
  1  4  1  1  0  0  0
  1  8  1  0  0  0  0
  1  7  1  0  0  0  0
  2  5  1  1  0  0  0
  2  6  1  0  0  0  0
  2 10  1  0  0  0  0
  3  7  1  6  0  0  0
  3 10  1  0  0  0  0
  3  9  1  0  0  0  0
  6  9  1  0  0  0  0
 10  8  1  6  0  0  0
M  END
>  <CHROM.1>
29.25190510,-1.58656175,3.36590531,-1.78344690,1.17328987,-1.15854473

>  <Name>
ligand

>  <RI>
0

>  <Rbt.Current_Directory>
/home/itssahil/PROJECTS/Mol_Feturizer/Test_systems_manuscript/rnas/2xnw

>  <Rbt.Executable>
rbdock ($Id: //depot/dev/client3/rdock/2013.1/src/exe/rbdock.cxx#4 $)

>  <Rbt.Library>
libRbt.so (2013.1, Build901 2013/11/27)

>  <Rbt.Parameter_File>
/export/apps/rDock/src/rDock_2013.1_src/data/scripts/dock_solv.prm

>  <Rbt.Receptor>
prm/blind_docking_60.prm

>  <SCORE>
-6.23311

>  <SCORE.INTER>
-6.23311

>  <SCORE.INTER.CONST>
1

>  <SCORE.INTER.POLAR>
0

>  <SCORE.INTER.ROT>
0

>  <SCORE.INTER.SOLV>
7.02966

>  <SCORE.INTER.VDW>
-10.0986

>  <SCORE.INTER.norm>
-0.623311

>  <SCORE.INTRA>
0

>  <SCORE.INTRA.DIHEDRAL>
0

>  <SCORE.INTRA.DIHEDRAL.0>
0

>  <SCORE.INTRA.POLAR>
0

>  <SCORE.INTRA.POLAR.0>
0

>  <SCORE.INTRA.REPUL>
0

>  <SCORE.INTRA.REPUL.0>
0

>  <SCORE.INTRA.SOLV>
0

>  <SCORE.INTRA.SOLV.lig_0>
-47.9788

>  <SCORE.INTRA.VDW>
0

>  <SCORE.INTRA.VDW.0>
0

>  <SCORE.INTRA.norm>
0

>  <SCORE.RESTR>
6.12561e-06

>  <SCORE.RESTR.CAVITY>
6.12561e-06

>  <SCORE.RESTR.norm>
6.12561e-07

>  <SCORE.SYSTEM>
0

>  <SCORE.SYSTEM.CONST>
0

>  <SCORE.SYSTEM.DIHEDRAL>
0

>  <SCORE.SYSTEM.SOLV>
0

>  <SCORE.SYSTEM.norm>
0

>  <SCORE.heavy>
10

>  <SCORE.norm>
-0.623311

>  <RMSD>
18.228

$$$$
ligand
 OpenBabel02271912133D
libRbt.so/2013.1/901 2013/11/27
 10 11  0  0  0  0  0  0  0  0999 V2000
   29.0912   -1.9558    4.2691 C   0  0  1  0  0  0  0  0  0  0  0  0
   29.3125   -0.6228    1.1340 C   0  0  2  0  0  0  0  0  0  0  0  0
   28.7954   -0.2095    3.1363 C   0  0  2  0  0  0  0  0  0  0  0  0
   29.1589   -2.8227    5.2859 N   0  0  0  0  0  0  0  0  0  0  0  0
   29.7287   -1.2178    0.0205 N   0  0  0  0  0  0  0  0  0  0  0  0
   28.9061    0.6392    1.2049 N   0  0  0  0  0  0  0  0  0  0  0  0
   28.6902   -0.6939    4.3756 N   0  0  0  0  0  0  0  0  0  0  0  0
   29.4339   -2.2185    2.9945 N   0  0  0  0  0  0  0  0  0  0  0  0
   28.5964    0.8811    2.3802 N   0  0  0  0  0  0  0  0  0  0  0  0
   29.2566   -1.1799    2.3382 N   0  0  1  0  0  0  0  0  0  0  0  0
  1  4  1  1  0  0  0
  1  8  1  0  0  0  0
  1  7  1  0  0  0  0
  2  5  1  1  0  0  0
  2  6  1  0  0  0  0
  2 10  1  0  0  0  0
  3  7  1  6  0  0  0
  3 10  1  0  0  0  0
  3  9  1  0  0  0  0
  6  9  1  0  0  0  0
 10  8  1  6  0  0  0
M  END
>  <CHROM.1>
29.09836561,-0.94054879,2.70798836,-1.66047810,1.21687944,-0.99373589

>  <Name>
ligand

>  <RI>
0

>  <Rbt.Current_Directory>
/home/itssahil/PROJECTS/Mol_Feturizer/Test_systems_manuscript/rnas/2xnw

>  <Rbt.Executable>
rbdock ($Id: //depot/dev/client3/rdock/2013.1/src/exe/rbdock.cxx#4 $)

>  <Rbt.Library>
libRbt.so (2013.1, Build901 2013/11/27)

>  <Rbt.Parameter_File>
/export/apps/rDock/src/rDock_2013.1_src/data/scripts/dock_solv.prm

>  <Rbt.Receptor>
prm/blind_docking_40.prm

>  <SCORE>
-7.19239

>  <SCORE.INTER>
-7.19239

>  <SCORE.INTER.CONST>
1

>  <SCORE.INTER.POLAR>
0

>  <SCORE.INTER.ROT>
0

>  <SCORE.INTER.SOLV>
7.89692

>  <SCORE.INTER.VDW>
-11.0272

>  <SCORE.INTER.norm>
-0.719239

>  <SCORE.INTRA>
0

>  <SCORE.INTRA.DIHEDRAL>
0

>  <SCORE.INTRA.DIHEDRAL.0>
0

>  <SCORE.INTRA.POLAR>
0

>  <SCORE.INTRA.POLAR.0>
0

>  <SCORE.INTRA.REPUL>
0

>  <SCORE.INTRA.REPUL.0>
0

>  <SCORE.INTRA.SOLV>
0

>  <SCORE.INTRA.SOLV.lig_0>
-47.9788

>  <SCORE.INTRA.VDW>
0

>  <SCORE.INTRA.VDW.0>
0

>  <SCORE.INTRA.norm>
0

>  <SCORE.RESTR>
0

>  <SCORE.RESTR.CAVITY>
0

>  <SCORE.RESTR.norm>
0

>  <SCORE.SYSTEM>
0

>  <SCORE.SYSTEM.CONST>
0

>  <SCORE.SYSTEM.DIHEDRAL>
0

>  <SCORE.SYSTEM.SOLV>
0

>  <SCORE.SYSTEM.norm>
0

>  <SCORE.heavy>
10

>  <SCORE.norm>
-0.719239

>  <RMSD>
18.297

$$$$
ligand
 OpenBabel02271912133D
libRbt.so/2013.1/901 2013/11/27
 10 11  0  0  0  0  0  0  0  0999 V2000
   30.0855   -1.3503   15.3042 C   0  0  1  0  0  0  0  0  0  0  0  0
   30.9650    0.3923   18.1050 C   0  0  2  0  0  0  0  0  0  0  0  0
   29.6537    0.3562   16.4538 C   0  0  2  0  0  0  0  0  0  0  0  0
   30.0539   -2.2927   14.3550 N   0  0  0  0  0  0  0  0  0  0  0  0
   31.9032    0.0875   18.9961 N   0  0  0  0  0  0  0  0  0  0  0  0
   30.1857    1.4652   18.1713 N   0  0  0  0  0  0  0  0  0  0  0  0
   29.2826   -0.2929   15.3482 N   0  0  0  0  0  0  0  0  0  0  0  0
   30.9149   -1.3364   16.3639 N   0  0  0  0  0  0  0  0  0  0  0  0
   29.4188    1.4479   17.1981 N   0  0  0  0  0  0  0  0  0  0  0  0
   30.6481   -0.3263   17.0341 N   0  0  1  0  0  0  0  0  0  0  0  0
  1  4  1  1  0  0  0
  1  8  1  0  0  0  0
  1  7  1  0  0  0  0
  2  5  1  1  0  0  0
  2  6  1  0  0  0  0
  2 10  1  0  0  0  0
  3  7  1  6  0  0  0
  3 10  1  0  0  0  0
  3  9  1  0  0  0  0
  6  9  1  0  0  0  0
 10  8  1  6  0  0  0
M  END
>  <CHROM.1>
30.31455585,-0.18424746,16.73796831,-1.82791254,-0.73120167,0.77185343

>  <Name>
ligand

>  <RI>
0

>  <Rbt.Current_Directory>
/home/itssahil/PROJECTS/Mol_Feturizer/Test_systems_manuscript/rnas/2xnw

>  <Rbt.Executable>
rbdock ($Id: //depot/dev/client3/rdock/2013.1/src/exe/rbdock.cxx#4 $)

>  <Rbt.Library>
libRbt.so (2013.1, Build901 2013/11/27)

>  <Rbt.Parameter_File>
/export/apps/rDock/src/rDock_2013.1_src/data/scripts/dock_solv.prm

>  <Rbt.Receptor>
prm/blind_docking_60.prm

>  <SCORE>
-5.77972

>  <SCORE.INTER>
-5.77992

>  <SCORE.INTER.CONST>
1

>  <SCORE.INTER.POLAR>
0

>  <SCORE.INTER.ROT>
0

>  <SCORE.INTER.SOLV>
6.52792

>  <SCORE.INTER.VDW>
-9.62925

>  <SCORE.INTER.norm>
-0.577992

>  <SCORE.INTRA>
0

>  <SCORE.INTRA.DIHEDRAL>
0

>  <SCORE.INTRA.DIHEDRAL.0>
0

>  <SCORE.INTRA.POLAR>
0

>  <SCORE.INTRA.POLAR.0>
0

>  <SCORE.INTRA.REPUL>
0

>  <SCORE.INTRA.REPUL.0>
0

>  <SCORE.INTRA.SOLV>
0

>  <SCORE.INTRA.SOLV.lig_0>
-47.9788

>  <SCORE.INTRA.VDW>
0

>  <SCORE.INTRA.VDW.0>
0

>  <SCORE.INTRA.norm>
0

>  <SCORE.RESTR>
0.00020139

>  <SCORE.RESTR.CAVITY>
0.00020139

>  <SCORE.RESTR.norm>
2.0139e-05

>  <SCORE.SYSTEM>
0

>  <SCORE.SYSTEM.CONST>
0

>  <SCORE.SYSTEM.DIHEDRAL>
0

>  <SCORE.SYSTEM.SOLV>
0

>  <SCORE.SYSTEM.norm>
0

>  <SCORE.heavy>
10

>  <SCORE.norm>
-0.577972

>  <RMSD>
20.950

$$$$
ligand
 OpenBabel02271912133D
libRbt.so/2013.1/901 2013/11/27
 10 11  0  0  0  0  0  0  0  0999 V2000
   30.3127    1.4493   18.5530 C   0  0  1  0  0  0  0  0  0  0  0  0
   31.0094   -1.3220   16.6852 C   0  0  2  0  0  0  0  0  0  0  0  0
   29.7032    0.3213   16.8867 C   0  0  2  0  0  0  0  0  0  0  0  0
   30.3912    2.3957   19.4954 N   0  0  0  0  0  0  0  0  0  0  0  0
   32.0012   -2.1914   16.8515 N   0  0  0  0  0  0  0  0  0  0  0  0
   30.0992   -1.3956   15.7214 N   0  0  0  0  0  0  0  0  0  0  0  0
   29.3946    1.4106   17.5937 N   0  0  0  0  0  0  0  0  0  0  0  0
   31.1552    0.4085   18.4191 N   0  0  0  0  0  0  0  0  0  0  0  0
   29.3277   -0.4335   15.8427 N   0  0  0  0  0  0  0  0  0  0  0  0
   30.7856   -0.2469   17.4318 N   0  0  1  0  0  0  0  0  0  0  0  0
  1  4  1  6  0  0  0
  1  8  1  0  0  0  0
  1  7  1  0  0  0  0
  2  5  1  6  0  0  0
  2  6  1  0  0  0  0
  2 10  1  0  0  0  0
  3  7  1  1  0  0  0
  3 10  1  0  0  0  0
  3  9  1  0  0  0  0
  6  9  1  0  0  0  0
 10  8  1  1  0  0  0
M  END
>  <CHROM.1>
30.42140834,0.03469088,17.34684222,-1.72844293,0.62791231,-2.39736352

>  <Name>
ligand

>  <RI>
0

>  <Rbt.Current_Directory>
/home/itssahil/PROJECTS/Mol_Feturizer/Test_systems_manuscript/rnas/2xnw

>  <Rbt.Executable>
rbdock ($Id: //depot/dev/client3/rdock/2013.1/src/exe/rbdock.cxx#4 $)

>  <Rbt.Library>
libRbt.so (2013.1, Build901 2013/11/27)

>  <Rbt.Parameter_File>
/export/apps/rDock/src/rDock_2013.1_src/data/scripts/dock_solv.prm

>  <Rbt.Receptor>
prm/blind_docking_80.prm

>  <SCORE>
-5.8378

>  <SCORE.INTER>
-5.8378

>  <SCORE.INTER.CONST>
1

>  <SCORE.INTER.POLAR>
0

>  <SCORE.INTER.ROT>
0

>  <SCORE.INTER.SOLV>
4.47614

>  <SCORE.INTER.VDW>
-8.98391

>  <SCORE.INTER.norm>
-0.58378

>  <SCORE.INTRA>
0

>  <SCORE.INTRA.DIHEDRAL>
0

>  <SCORE.INTRA.DIHEDRAL.0>
0

>  <SCORE.INTRA.POLAR>
0

>  <SCORE.INTRA.POLAR.0>
0

>  <SCORE.INTRA.REPUL>
0

>  <SCORE.INTRA.REPUL.0>
0

>  <SCORE.INTRA.SOLV>
0

>  <SCORE.INTRA.SOLV.lig_0>
-47.9788

>  <SCORE.INTRA.VDW>
0

>  <SCORE.INTRA.VDW.0>
0

>  <SCORE.INTRA.norm>
0

>  <SCORE.RESTR>
0

>  <SCORE.RESTR.CAVITY>
0

>  <SCORE.RESTR.norm>
0

>  <SCORE.SYSTEM>
0

>  <SCORE.SYSTEM.CONST>
0

>  <SCORE.SYSTEM.DIHEDRAL>
0

>  <SCORE.SYSTEM.SOLV>
0

>  <SCORE.SYSTEM.norm>
0

>  <SCORE.heavy>
10

>  <SCORE.norm>
-0.58378

>  <RMSD>
21.082

$$$$
ligand
 OpenBabel02271912133D
libRbt.so/2013.1/901 2013/11/27
 10 11  0  0  0  0  0  0  0  0999 V2000
   30.2897    1.5125   18.6216 C   0  0  1  0  0  0  0  0  0  0  0  0
   31.0351   -1.2171   16.7116 C   0  0  2  0  0  0  0  0  0  0  0  0
   29.7635    0.4567   16.8813 C   0  0  2  0  0  0  0  0  0  0  0  0
   30.3302    2.4256   19.5986 N   0  0  0  0  0  0  0  0  0  0  0  0
   31.9894   -2.1202   16.9140 N   0  0  0  0  0  0  0  0  0  0  0  0
   30.1904   -1.2331   15.6875 N   0  0  0  0  0  0  0  0  0  0  0  0
   29.4377    1.5314   17.6026 N   0  0  0  0  0  0  0  0  0  0  0  0
   31.1107    0.4522   18.5089 N   0  0  0  0  0  0  0  0  0  0  0  0
   29.4388   -0.2531   15.7897 N   0  0  0  0  0  0  0  0  0  0  0  0
   30.7908   -0.1602   17.4777 N   0  0  1  0  0  0  0  0  0  0  0  0
  1  4  1  6  0  0  0
  1  8  1  0  0  0  0
  1  7  1  0  0  0  0
  2  5  1  6  0  0  0
  2  6  1  0  0  0  0
  2 10  1  0  0  0  0
  3  7  1  1  0  0  0
  3 10  1  0  0  0  0
  3  9  1  0  0  0  0
  6  9  1  0  0  0  0
 10  8  1  1  0  0  0
M  END
>  <CHROM.1>
30.44097888,0.13450758,17.37821873,-1.76188242,0.69573476,-2.34389228

>  <Name>
ligand

>  <RI>
0

>  <Rbt.Current_Directory>
/home/itssahil/PROJECTS/Mol_Feturizer/Test_systems_manuscript/rnas/2xnw

>  <Rbt.Executable>
rbdock ($Id: //depot/dev/client3/rdock/2013.1/src/exe/rbdock.cxx#4 $)

>  <Rbt.Library>
libRbt.so (2013.1, Build901 2013/11/27)

>  <Rbt.Parameter_File>
/export/apps/rDock/src/rDock_2013.1_src/data/scripts/dock_solv.prm

>  <Rbt.Receptor>
prm/blind_docking_40.prm

>  <SCORE>
-5.87919

>  <SCORE.INTER>
-5.87919

>  <SCORE.INTER.CONST>
1

>  <SCORE.INTER.POLAR>
0

>  <SCORE.INTER.ROT>
0

>  <SCORE.INTER.SOLV>
4.4871

>  <SCORE.INTER.VDW>
-9.01516

>  <SCORE.INTER.norm>
-0.587919

>  <SCORE.INTRA>
0

>  <SCORE.INTRA.DIHEDRAL>
0

>  <SCORE.INTRA.DIHEDRAL.0>
0

>  <SCORE.INTRA.POLAR>
0

>  <SCORE.INTRA.POLAR.0>
0

>  <SCORE.INTRA.REPUL>
0

>  <SCORE.INTRA.REPUL.0>
0

>  <SCORE.INTRA.SOLV>
0

>  <SCORE.INTRA.SOLV.lig_0>
-47.9788

>  <SCORE.INTRA.VDW>
0

>  <SCORE.INTRA.VDW.0>
0

>  <SCORE.INTRA.norm>
0

>  <SCORE.RESTR>
0

>  <SCORE.RESTR.CAVITY>
0

>  <SCORE.RESTR.norm>
0

>  <SCORE.SYSTEM>
0

>  <SCORE.SYSTEM.CONST>
0

>  <SCORE.SYSTEM.DIHEDRAL>
0

>  <SCORE.SYSTEM.SOLV>
0

>  <SCORE.SYSTEM.norm>
0

>  <SCORE.heavy>
10

>  <SCORE.norm>
-0.587919

>  <RMSD>
21.122

$$$$
ligand
 OpenBabel02271912133D
libRbt.so/2013.1/901 2013/11/27
 10 11  0  0  0  0  0  0  0  0999 V2000
   29.7267   -1.1325   15.5797 C   0  0  1  0  0  0  0  0  0  0  0  0
   30.6006    0.9189   18.1647 C   0  0  2  0  0  0  0  0  0  0  0  0
   31.1191   -0.8429   17.1281 C   0  0  2  0  0  0  0  0  0  0  0  0
   29.0765   -1.6350   14.5239 N   0  0  0  0  0  0  0  0  0  0  0  0
   30.0075    2.0439   18.5516 N   0  0  0  0  0  0  0  0  0  0  0  0
   31.6756    0.3982   18.7445 N   0  0  0  0  0  0  0  0  0  0  0  0
   30.8083   -1.6727   16.1300 N   0  0  0  0  0  0  0  0  0  0  0  0
   29.4011   -0.0011   16.2315 N   0  0  0  0  0  0  0  0  0  0  0  0
   31.9774   -0.6404   18.1396 N   0  0  0  0  0  0  0  0  0  0  0  0
   30.2313    0.1587   17.1404 N   0  0  1  0  0  0  0  0  0  0  0  0
  1  4  1  6  0  0  0
  1  8  1  0  0  0  0
  1  7  1  0  0  0  0
  2  5  1  6  0  0  0
  2  6  1  0  0  0  0
  2 10  1  0  0  0  0
  3  7  1  1  0  0  0
  3 10  1  0  0  0  0
  3  9  1  0  0  0  0
  6  9  1  0  0  0  0
 10  8  1  1  0  0  0
M  END
>  <CHROM.1>
30.46153869,-0.23550343,17.03679350,1.98866455,0.62622971,-2.43358808

>  <Name>
ligand

>  <RI>
0

>  <Rbt.Current_Directory>
/home/itssahil/PROJECTS/Mol_Feturizer/Test_systems_manuscript/rnas/2xnw

>  <Rbt.Executable>
rbdock ($Id: //depot/dev/client3/rdock/2013.1/src/exe/rbdock.cxx#4 $)

>  <Rbt.Library>
libRbt.so (2013.1, Build901 2013/11/27)

>  <Rbt.Parameter_File>
/export/apps/rDock/src/rDock_2013.1_src/data/scripts/dock_solv.prm

>  <Rbt.Receptor>
prm/blind_docking_100.prm

>  <SCORE>
-4.24134

>  <SCORE.INTER>
-4.24134

>  <SCORE.INTER.CONST>
1

>  <SCORE.INTER.POLAR>
0

>  <SCORE.INTER.ROT>
0

>  <SCORE.INTER.SOLV>
6.97635

>  <SCORE.INTER.VDW>
-8.75301

>  <SCORE.INTER.norm>
-0.424134

>  <SCORE.INTRA>
0

>  <SCORE.INTRA.DIHEDRAL>
0

>  <SCORE.INTRA.DIHEDRAL.0>
0

>  <SCORE.INTRA.POLAR>
0

>  <SCORE.INTRA.POLAR.0>
0

>  <SCORE.INTRA.REPUL>
0

>  <SCORE.INTRA.REPUL.0>
0

>  <SCORE.INTRA.SOLV>
0

>  <SCORE.INTRA.SOLV.lig_0>
-47.9788

>  <SCORE.INTRA.VDW>
0

>  <SCORE.INTRA.VDW.0>
0

>  <SCORE.INTRA.norm>
0

>  <SCORE.RESTR>
0

>  <SCORE.RESTR.CAVITY>
0

>  <SCORE.RESTR.norm>
0

>  <SCORE.SYSTEM>
0

>  <SCORE.SYSTEM.CONST>
0

>  <SCORE.SYSTEM.DIHEDRAL>
0

>  <SCORE.SYSTEM.SOLV>
0

>  <SCORE.SYSTEM.norm>
0

>  <SCORE.heavy>
10

>  <SCORE.norm>
-0.424134

>  <RMSD>
21.124

$$$$
ligand
 OpenBabel02271912133D
libRbt.so/2013.1/901 2013/11/27
 10 11  0  0  0  0  0  0  0  0999 V2000
   30.2911    1.5077   18.6216 C   0  0  1  0  0  0  0  0  0  0  0  0
   31.0501   -1.2239   16.7199 C   0  0  2  0  0  0  0  0  0  0  0  0
   29.7788    0.4513   16.8775 C   0  0  2  0  0  0  0  0  0  0  0  0
   30.3242    2.4215   19.5982 N   0  0  0  0  0  0  0  0  0  0  0  0
   32.0017   -2.1278   16.9310 N   0  0  0  0  0  0  0  0  0  0  0  0
   30.2141   -1.2398   15.6885 N   0  0  0  0  0  0  0  0  0  0  0  0
   29.4479    1.5268   17.5953 N   0  0  0  0  0  0  0  0  0  0  0  0
   31.1120    0.4465   18.5166 N   0  0  0  0  0  0  0  0  0  0  0  0
   29.4628   -0.2589   15.7836 N   0  0  0  0  0  0  0  0  0  0  0  0
   30.8003   -0.1662   17.4830 N   0  0  1  0  0  0  0  0  0  0  0  0
  1  4  1  6  0  0  0
  1  8  1  0  0  0  0
  1  7  1  0  0  0  0
  2  5  1  6  0  0  0
  2  6  1  0  0  0  0
  2 10  1  0  0  0  0
  3  7  1  1  0  0  0
  3 10  1  0  0  0  0
  3  9  1  0  0  0  0
  6  9  1  0  0  0  0
 10  8  1  1  0  0  0
M  END
>  <CHROM.1>
30.45164680,0.12876966,17.38041441,-1.76898752,0.70244200,-2.33999947

>  <Name>
ligand

>  <RI>
0

>  <Rbt.Current_Directory>
/home/itssahil/PROJECTS/Mol_Feturizer/Test_systems_manuscript/rnas/2xnw

>  <Rbt.Executable>
rbdock ($Id: //depot/dev/client3/rdock/2013.1/src/exe/rbdock.cxx#4 $)

>  <Rbt.Library>
libRbt.so (2013.1, Build901 2013/11/27)

>  <Rbt.Parameter_File>
/export/apps/rDock/src/rDock_2013.1_src/data/scripts/dock_solv.prm

>  <Rbt.Receptor>
prm/blind_docking_40.prm

>  <SCORE>
-5.88988

>  <SCORE.INTER>
-5.88988

>  <SCORE.INTER.CONST>
1

>  <SCORE.INTER.POLAR>
0

>  <SCORE.INTER.ROT>
0

>  <SCORE.INTER.SOLV>
4.45048

>  <SCORE.INTER.VDW>
-9.01008

>  <SCORE.INTER.norm>
-0.588988

>  <SCORE.INTRA>
0

>  <SCORE.INTRA.DIHEDRAL>
0

>  <SCORE.INTRA.DIHEDRAL.0>
0

>  <SCORE.INTRA.POLAR>
0

>  <SCORE.INTRA.POLAR.0>
0

>  <SCORE.INTRA.REPUL>
0

>  <SCORE.INTRA.REPUL.0>
0

>  <SCORE.INTRA.SOLV>
0

>  <SCORE.INTRA.SOLV.lig_0>
-47.9788

>  <SCORE.INTRA.VDW>
0

>  <SCORE.INTRA.VDW.0>
0

>  <SCORE.INTRA.norm>
0

>  <SCORE.RESTR>
0

>  <SCORE.RESTR.CAVITY>
0

>  <SCORE.RESTR.norm>
0

>  <SCORE.SYSTEM>
0

>  <SCORE.SYSTEM.CONST>
0

>  <SCORE.SYSTEM.DIHEDRAL>
0

>  <SCORE.SYSTEM.SOLV>
0

>  <SCORE.SYSTEM.norm>
0

>  <SCORE.heavy>
10

>  <SCORE.norm>
-0.588988

>  <RMSD>
21.132

$$$$
ligand
 OpenBabel02271912133D
libRbt.so/2013.1/901 2013/11/27
 10 11  0  0  0  0  0  0  0  0999 V2000
   30.3062   -1.2902   16.0383 C   0  0  1  0  0  0  0  0  0  0  0  0
   30.8227    1.1357   18.3841 C   0  0  2  0  0  0  0  0  0  0  0  0
   29.5683    0.5239   16.8031 C   0  0  2  0  0  0  0  0  0  0  0  0
   30.4536   -2.4053   15.3139 N   0  0  0  0  0  0  0  0  0  0  0  0
   31.7820    1.1933   19.3025 N   0  0  0  0  0  0  0  0  0  0  0  0
   29.8711    2.0491   18.2331 N   0  0  0  0  0  0  0  0  0  0  0  0
   29.3344   -0.4005   15.8692 N   0  0  0  0  0  0  0  0  0  0  0  0
   31.1008   -0.9086   17.0551 N   0  0  0  0  0  0  0  0  0  0  0  0
   29.1369    1.6933   17.3002 N   0  0  0  0  0  0  0  0  0  0  0  0
   30.6532    0.1612   17.4980 N   0  0  1  0  0  0  0  0  0  0  0  0
  1  4  1  1  0  0  0
  1  8  1  0  0  0  0
  1  7  1  0  0  0  0
  2  5  1  1  0  0  0
  2  6  1  0  0  0  0
  2 10  1  0  0  0  0
  3  7  1  6  0  0  0
  3 10  1  0  0  0  0
  3  9  1  0  0  0  0
  6  9  1  0  0  0  0
 10  8  1  6  0  0  0
M  END
>  <CHROM.1>
30.30607619,0.17752240,17.18441214,-1.66113595,-0.61832291,0.65875998

>  <Name>
ligand

>  <RI>
0

>  <Rbt.Current_Directory>
/home/itssahil/PROJECTS/Mol_Feturizer/Test_systems_manuscript/rnas/2xnw

>  <Rbt.Executable>
rbdock ($Id: //depot/dev/client3/rdock/2013.1/src/exe/rbdock.cxx#4 $)

>  <Rbt.Library>
libRbt.so (2013.1, Build901 2013/11/27)

>  <Rbt.Parameter_File>
/export/apps/rDock/src/rDock_2013.1_src/data/scripts/dock_solv.prm

>  <Rbt.Receptor>
prm/blind_docking_80.prm

>  <SCORE>
-6.08338

>  <SCORE.INTER>
-6.08338

>  <SCORE.INTER.CONST>
1

>  <SCORE.INTER.POLAR>
0

>  <SCORE.INTER.ROT>
0

>  <SCORE.INTER.SOLV>
7.36397

>  <SCORE.INTER.VDW>
-10.1102

>  <SCORE.INTER.norm>
-0.608338

>  <SCORE.INTRA>
0

>  <SCORE.INTRA.DIHEDRAL>
0

>  <SCORE.INTRA.DIHEDRAL.0>
0

>  <SCORE.INTRA.POLAR>
0

>  <SCORE.INTRA.POLAR.0>
0

>  <SCORE.INTRA.REPUL>
0

>  <SCORE.INTRA.REPUL.0>
0

>  <SCORE.INTRA.SOLV>
0

>  <SCORE.INTRA.SOLV.lig_0>
-47.9788

>  <SCORE.INTRA.VDW>
0

>  <SCORE.INTRA.VDW.0>
0

>  <SCORE.INTRA.norm>
0

>  <SCORE.RESTR>
0

>  <SCORE.RESTR.CAVITY>
0

>  <SCORE.RESTR.norm>
0

>  <SCORE.SYSTEM>
0

>  <SCORE.SYSTEM.CONST>
0

>  <SCORE.SYSTEM.DIHEDRAL>
0

>  <SCORE.SYSTEM.SOLV>
0

>  <SCORE.SYSTEM.norm>
0

>  <SCORE.heavy>
10

>  <SCORE.norm>
-0.608338

>  <RMSD>
21.145

$$$$
ligand
 OpenBabel02271912133D
libRbt.so/2013.1/901 2013/11/27
 10 11  0  0  0  0  0  0  0  0999 V2000
   30.3002   -1.2810   16.0413 C   0  0  1  0  0  0  0  0  0  0  0  0
   30.8415    1.1312   18.3956 C   0  0  2  0  0  0  0  0  0  0  0  0
   29.5773    0.5347   16.8166 C   0  0  2  0  0  0  0  0  0  0  0  0
   30.4376   -2.3939   15.3115 N   0  0  0  0  0  0  0  0  0  0  0  0
   31.8045    1.1784   19.3108 N   0  0  0  0  0  0  0  0  0  0  0  0
   29.8955    2.0516   18.2520 N   0  0  0  0  0  0  0  0  0  0  0  0
   29.3338   -0.3841   15.8796 N   0  0  0  0  0  0  0  0  0  0  0  0
   31.1012   -0.9091   17.0568 N   0  0  0  0  0  0  0  0  0  0  0  0
   29.1556    1.7047   17.3204 N   0  0  0  0  0  0  0  0  0  0  0  0
   30.6623    0.1617   17.5059 N   0  0  1  0  0  0  0  0  0  0  0  0
  1  4  1  1  0  0  0
  1  8  1  0  0  0  0
  1  7  1  0  0  0  0
  2  5  1  1  0  0  0
  2  6  1  0  0  0  0
  2 10  1  0  0  0  0
  3  7  1  6  0  0  0
  3 10  1  0  0  0  0
  3  9  1  0  0  0  0
  6  9  1  0  0  0  0
 10  8  1  6  0  0  0
M  END
>  <CHROM.1>
30.31412749,0.18170135,17.19370431,-1.67036205,-0.61949677,0.65774051

>  <Name>
ligand

>  <RI>
0

>  <Rbt.Current_Directory>
/home/itssahil/PROJECTS/Mol_Feturizer/Test_systems_manuscript/rnas/2xnw

>  <Rbt.Executable>
rbdock ($Id: //depot/dev/client3/rdock/2013.1/src/exe/rbdock.cxx#4 $)

>  <Rbt.Library>
libRbt.so (2013.1, Build901 2013/11/27)

>  <Rbt.Parameter_File>
/export/apps/rDock/src/rDock_2013.1_src/data/scripts/dock_solv.prm

>  <Rbt.Receptor>
prm/blind_docking_80.prm

>  <SCORE>
-6.08164

>  <SCORE.INTER>
-6.08164

>  <SCORE.INTER.CONST>
1

>  <SCORE.INTER.POLAR>
0

>  <SCORE.INTER.ROT>
0

>  <SCORE.INTER.SOLV>
7.39223

>  <SCORE.INTER.VDW>
-10.1185

>  <SCORE.INTER.norm>
-0.608164

>  <SCORE.INTRA>
0

>  <SCORE.INTRA.DIHEDRAL>
0

>  <SCORE.INTRA.DIHEDRAL.0>
0

>  <SCORE.INTRA.POLAR>
0

>  <SCORE.INTRA.POLAR.0>
0

>  <SCORE.INTRA.REPUL>
0

>  <SCORE.INTRA.REPUL.0>
0

>  <SCORE.INTRA.SOLV>
0

>  <SCORE.INTRA.SOLV.lig_0>
-47.9788

>  <SCORE.INTRA.VDW>
0

>  <SCORE.INTRA.VDW.0>
0

>  <SCORE.INTRA.norm>
0

>  <SCORE.RESTR>
0

>  <SCORE.RESTR.CAVITY>
0

>  <SCORE.RESTR.norm>
0

>  <SCORE.SYSTEM>
0

>  <SCORE.SYSTEM.CONST>
0

>  <SCORE.SYSTEM.DIHEDRAL>
0

>  <SCORE.SYSTEM.SOLV>
0

>  <SCORE.SYSTEM.norm>
0

>  <SCORE.heavy>
10

>  <SCORE.norm>
-0.608164

>  <RMSD>
21.157

$$$$
ligand
 OpenBabel02271912133D
libRbt.so/2013.1/901 2013/11/27
 10 11  0  0  0  0  0  0  0  0999 V2000
   30.5278   -1.2605   16.3100 C   0  0  1  0  0  0  0  0  0  0  0  0
   30.7555    1.3432   18.5062 C   0  0  2  0  0  0  0  0  0  0  0  0
   29.6475    0.5576   16.8931 C   0  0  2  0  0  0  0  0  0  0  0  0
   30.7817   -2.4122   15.6782 N   0  0  0  0  0  0  0  0  0  0  0  0
   31.6440    1.5157   19.4799 N   0  0  0  0  0  0  0  0  0  0  0  0
   29.7719    2.1903   18.2278 N   0  0  0  0  0  0  0  0  0  0  0  0
   29.5265   -0.4394   16.0139 N   0  0  0  0  0  0  0  0  0  0  0  0
   31.2290   -0.7677   17.3476 N   0  0  0  0  0  0  0  0  0  0  0  0
   29.1238    1.7323   17.2760 N   0  0  0  0  0  0  0  0  0  0  0  0
   30.6979    0.3031   17.6825 N   0  0  1  0  0  0  0  0  0  0  0  0
  1  4  1  1  0  0  0
  1  8  1  0  0  0  0
  1  7  1  0  0  0  0
  2  5  1  1  0  0  0
  2  6  1  0  0  0  0
  2 10  1  0  0  0  0
  3  7  1  6  0  0  0
  3 10  1  0  0  0  0
  3  9  1  0  0  0  0
  6  9  1  0  0  0  0
 10  8  1  6  0  0  0
M  END
>  <CHROM.1>
30.37324490,0.27904832,17.34620140,-1.55767029,-0.64029910,0.65011831

>  <Name>
ligand

>  <RI>
0

>  <Rbt.Current_Directory>
/home/itssahil/PROJECTS/Mol_Feturizer/Test_systems_manuscript/rnas/2xnw

>  <Rbt.Executable>
rbdock ($Id: //depot/dev/client3/rdock/2013.1/src/exe/rbdock.cxx#4 $)

>  <Rbt.Library>
libRbt.so (2013.1, Build901 2013/11/27)

>  <Rbt.Parameter_File>
/export/apps/rDock/src/rDock_2013.1_src/data/scripts/dock_solv.prm

>  <Rbt.Receptor>
prm/blind_docking_80.prm

>  <SCORE>
-6.06541

>  <SCORE.INTER>
-6.06541

>  <SCORE.INTER.CONST>
1

>  <SCORE.INTER.POLAR>
0

>  <SCORE.INTER.ROT>
0

>  <SCORE.INTER.SOLV>
7.01225

>  <SCORE.INTER.VDW>
-9.98103

>  <SCORE.INTER.norm>
-0.606541

>  <SCORE.INTRA>
0

>  <SCORE.INTRA.DIHEDRAL>
0

>  <SCORE.INTRA.DIHEDRAL.0>
0

>  <SCORE.INTRA.POLAR>
0

>  <SCORE.INTRA.POLAR.0>
0

>  <SCORE.INTRA.REPUL>
0

>  <SCORE.INTRA.REPUL.0>
0

>  <SCORE.INTRA.SOLV>
0

>  <SCORE.INTRA.SOLV.lig_0>
-47.9788

>  <SCORE.INTRA.VDW>
0

>  <SCORE.INTRA.VDW.0>
0

>  <SCORE.INTRA.norm>
0

>  <SCORE.RESTR>
0

>  <SCORE.RESTR.CAVITY>
0

>  <SCORE.RESTR.norm>
0

>  <SCORE.SYSTEM>
0

>  <SCORE.SYSTEM.CONST>
0

>  <SCORE.SYSTEM.DIHEDRAL>
0

>  <SCORE.SYSTEM.SOLV>
0

>  <SCORE.SYSTEM.norm>
0

>  <SCORE.heavy>
10

>  <SCORE.norm>
-0.606541

>  <RMSD>
21.276

$$$$
ligand
 OpenBabel02271912133D
libRbt.so/2013.1/901 2013/11/27
 10 11  0  0  0  0  0  0  0  0999 V2000
   29.7813   -0.8227   15.7981 C   0  0  1  0  0  0  0  0  0  0  0  0
   31.9278   -0.1391   18.3631 C   0  0  2  0  0  0  0  0  0  0  0  0
   30.2480    0.5692   17.3031 C   0  0  2  0  0  0  0  0  0  0  0  0
   29.1874   -1.4454   14.7736 N   0  0  0  0  0  0  0  0  0  0  0  0
   32.9439   -0.8781   18.7974 N   0  0  0  0  0  0  0  0  0  0  0  0
   31.5701    1.0279   18.8856 N   0  0  0  0  0  0  0  0  0  0  0  0
   29.3909    0.3412   16.3056 N   0  0  0  0  0  0  0  0  0  0  0  0
   30.8455   -1.2831   16.4810 N   0  0  0  0  0  0  0  0  0  0  0  0
   30.5866    1.4477   18.2593 N   0  0  0  0  0  0  0  0  0  0  0  0
   31.1086   -0.4539   17.3664 N   0  0  1  0  0  0  0  0  0  0  0  0
  1  4  1  1  0  0  0
  1  8  1  0  0  0  0
  1  7  1  0  0  0  0
  2  5  1  1  0  0  0
  2  6  1  0  0  0  0
  2 10  1  0  0  0  0
  3  7  1  6  0  0  0
  3 10  1  0  0  0  0
  3  9  1  0  0  0  0
  6  9  1  0  0  0  0
 10  8  1  6  0  0  0
M  END
>  <CHROM.1>
30.76376623,-0.16509660,17.23683450,-2.39020789,-0.65503201,0.63886337

>  <Name>
ligand

>  <RI>
0

>  <Rbt.Current_Directory>
/home/itssahil/PROJECTS/Mol_Feturizer/Test_systems_manuscript/rnas/2xnw

>  <Rbt.Executable>
rbdock ($Id: //depot/dev/client3/rdock/2013.1/src/exe/rbdock.cxx#4 $)

>  <Rbt.Library>
libRbt.so (2013.1, Build901 2013/11/27)

>  <Rbt.Parameter_File>
/export/apps/rDock/src/rDock_2013.1_src/data/scripts/dock_solv.prm

>  <Rbt.Receptor>
prm/blind_docking_100.prm

>  <SCORE>
-5.3994

>  <SCORE.INTER>
-5.3994

>  <SCORE.INTER.CONST>
1

>  <SCORE.INTER.POLAR>
0

>  <SCORE.INTER.ROT>
0

>  <SCORE.INTER.SOLV>
6.12904

>  <SCORE.INTER.VDW>
-9.24261

>  <SCORE.INTER.norm>
-0.53994

>  <SCORE.INTRA>
0

>  <SCORE.INTRA.DIHEDRAL>
0

>  <SCORE.INTRA.DIHEDRAL.0>
0

>  <SCORE.INTRA.POLAR>
0

>  <SCORE.INTRA.POLAR.0>
0

>  <SCORE.INTRA.REPUL>
0

>  <SCORE.INTRA.REPUL.0>
0

>  <SCORE.INTRA.SOLV>
0

>  <SCORE.INTRA.SOLV.lig_0>
-47.9788

>  <SCORE.INTRA.VDW>
0

>  <SCORE.INTRA.VDW.0>
0

>  <SCORE.INTRA.norm>
0

>  <SCORE.RESTR>
0

>  <SCORE.RESTR.CAVITY>
0

>  <SCORE.RESTR.norm>
0

>  <SCORE.SYSTEM>
0

>  <SCORE.SYSTEM.CONST>
0

>  <SCORE.SYSTEM.DIHEDRAL>
0

>  <SCORE.SYSTEM.SOLV>
0

>  <SCORE.SYSTEM.norm>
0

>  <SCORE.heavy>
10

>  <SCORE.norm>
-0.53994

>  <RMSD>
21.550

$$$$
ligand
 OpenBabel02271912133D
libRbt.so/2013.1/901 2013/11/27
 10 11  0  0  0  0  0  0  0  0999 V2000
   33.2350    2.4893   10.0940 C   0  0  1  0  0  0  0  0  0  0  0  0
   32.5631   -0.8527   10.2776 C   0  0  2  0  0  0  0  0  0  0  0  0
   33.1293    0.7097    8.9794 C   0  0  2  0  0  0  0  0  0  0  0  0
   33.4145    3.7677   10.4455 N   0  0  0  0  0  0  0  0  0  0  0  0
   32.2253   -1.5606   11.3509 N   0  0  0  0  0  0  0  0  0  0  0  0
   32.7037   -1.3580    9.0579 N   0  0  0  0  0  0  0  0  0  0  0  0
   33.3953    2.0126    8.8644 N   0  0  0  0  0  0  0  0  0  0  0  0
   32.8860    1.4917   10.9270 N   0  0  0  0  0  0  0  0  0  0  0  0
   33.0307   -0.4392    8.2932 N   0  0  0  0  0  0  0  0  0  0  0  0
   32.8293    0.4481   10.2573 N   0  0  1  0  0  0  0  0  0  0  0  0
  1  4  1  1  0  0  0
  1  8  1  0  0  0  0
  1  7  1  0  0  0  0
  2  5  1  1  0  0  0
  2  6  1  0  0  0  0
  2 10  1  0  0  0  0
  3  7  1  6  0  0  0
  3 10  1  0  0  0  0
  3  9  1  0  0  0  0
  6  9  1  0  0  0  0
 10  8  1  6  0  0  0
M  END
>  <CHROM.1>
32.93968404,0.66590539,9.85789273,0.82137291,1.30402811,0.77359397

>  <Name>
ligand

>  <RI>
0

>  <Rbt.Current_Directory>
/home/itssahil/PROJECTS/Mol_Feturizer/Test_systems_manuscript/rnas/2xnw

>  <Rbt.Executable>
rbdock ($Id: //depot/dev/client3/rdock/2013.1/src/exe/rbdock.cxx#4 $)

>  <Rbt.Library>
libRbt.so (2013.1, Build901 2013/11/27)

>  <Rbt.Parameter_File>
/export/apps/rDock/src/rDock_2013.1_src/data/scripts/dock_solv.prm

>  <Rbt.Receptor>
prm/blind_docking_40.prm

>  <SCORE>
-4.43341

>  <SCORE.INTER>
-4.43341

>  <SCORE.INTER.CONST>
1

>  <SCORE.INTER.POLAR>
0

>  <SCORE.INTER.ROT>
0

>  <SCORE.INTER.SOLV>
7.20071

>  <SCORE.INTER.VDW>
-8.95584

>  <SCORE.INTER.norm>
-0.443341

>  <SCORE.INTRA>
0

>  <SCORE.INTRA.DIHEDRAL>
0

>  <SCORE.INTRA.DIHEDRAL.0>
0

>  <SCORE.INTRA.POLAR>
0

>  <SCORE.INTRA.POLAR.0>
0

>  <SCORE.INTRA.REPUL>
0

>  <SCORE.INTRA.REPUL.0>
0

>  <SCORE.INTRA.SOLV>
0

>  <SCORE.INTRA.SOLV.lig_0>
-47.9788

>  <SCORE.INTRA.VDW>
0

>  <SCORE.INTRA.VDW.0>
0

>  <SCORE.INTRA.norm>
0

>  <SCORE.RESTR>
0

>  <SCORE.RESTR.CAVITY>
0

>  <SCORE.RESTR.norm>
0

>  <SCORE.SYSTEM>
0

>  <SCORE.SYSTEM.CONST>
0

>  <SCORE.SYSTEM.DIHEDRAL>
0

>  <SCORE.SYSTEM.SOLV>
0

>  <SCORE.SYSTEM.norm>
0

>  <SCORE.heavy>
10

>  <SCORE.norm>
-0.443341

>  <RMSD>
21.572

$$$$
ligand
 OpenBabel02271912133D
libRbt.so/2013.1/901 2013/11/27
 10 11  0  0  0  0  0  0  0  0999 V2000
   33.2261    2.4692    9.9738 C   0  0  1  0  0  0  0  0  0  0  0  0
   32.5926   -0.8341   10.5577 C   0  0  2  0  0  0  0  0  0  0  0  0
   33.0784    0.5775    9.0683 C   0  0  2  0  0  0  0  0  0  0  0  0
   33.4126    3.7790   10.1732 N   0  0  0  0  0  0  0  0  0  0  0  0
   32.3163   -1.4206   11.7183 N   0  0  0  0  0  0  0  0  0  0  0  0
   32.6749   -1.4701    9.3952 N   0  0  0  0  0  0  0  0  0  0  0  0
   33.3272    1.8606    8.7974 N   0  0  0  0  0  0  0  0  0  0  0  0
   32.9286    1.5684   10.9283 N   0  0  0  0  0  0  0  0  0  0  0  0
   32.9545   -0.6402    8.5183 N   0  0  0  0  0  0  0  0  0  0  0  0
   32.8465    0.4573   10.3810 N   0  0  1  0  0  0  0  0  0  0  0  0
  1  4  1  1  0  0  0
  1  8  1  0  0  0  0
  1  7  1  0  0  0  0
  2  5  1  1  0  0  0
  2  6  1  0  0  0  0
  2 10  1  0  0  0  0
  3  7  1  6  0  0  0
  3 10  1  0  0  0  0
  3  9  1  0  0  0  0
  6  9  1  0  0  0  0
 10  8  1  6  0  0  0
M  END
>  <CHROM.1>
32.93443784,0.63010733,9.95493406,0.68817184,1.34466080,0.79262996

>  <Name>
ligand

>  <RI>
0

>  <Rbt.Current_Directory>
/home/itssahil/PROJECTS/Mol_Feturizer/Test_systems_manuscript/rnas/2xnw

>  <Rbt.Executable>
rbdock ($Id: //depot/dev/client3/rdock/2013.1/src/exe/rbdock.cxx#4 $)

>  <Rbt.Library>
libRbt.so (2013.1, Build901 2013/11/27)

>  <Rbt.Parameter_File>
/export/apps/rDock/src/rDock_2013.1_src/data/scripts/dock_solv.prm

>  <Rbt.Receptor>
prm/blind_docking_60.prm

>  <SCORE>
-4.43969

>  <SCORE.INTER>
-4.43969

>  <SCORE.INTER.CONST>
1

>  <SCORE.INTER.POLAR>
0

>  <SCORE.INTER.ROT>
0

>  <SCORE.INTER.SOLV>
6.63362

>  <SCORE.INTER.VDW>
-8.771

>  <SCORE.INTER.norm>
-0.443969

>  <SCORE.INTRA>
0

>  <SCORE.INTRA.DIHEDRAL>
0

>  <SCORE.INTRA.DIHEDRAL.0>
0

>  <SCORE.INTRA.POLAR>
0

>  <SCORE.INTRA.POLAR.0>
0

>  <SCORE.INTRA.REPUL>
0

>  <SCORE.INTRA.REPUL.0>
0

>  <SCORE.INTRA.SOLV>
0

>  <SCORE.INTRA.SOLV.lig_0>
-47.9788

>  <SCORE.INTRA.VDW>
0

>  <SCORE.INTRA.VDW.0>
0

>  <SCORE.INTRA.norm>
0

>  <SCORE.RESTR>
0

>  <SCORE.RESTR.CAVITY>
0

>  <SCORE.RESTR.norm>
0

>  <SCORE.SYSTEM>
0

>  <SCORE.SYSTEM.CONST>
0

>  <SCORE.SYSTEM.DIHEDRAL>
0

>  <SCORE.SYSTEM.SOLV>
0

>  <SCORE.SYSTEM.norm>
0

>  <SCORE.heavy>
10

>  <SCORE.norm>
-0.443969

>  <RMSD>
21.583

$$$$
ligand
 OpenBabel02271912133D
libRbt.so/2013.1/901 2013/11/27
 10 11  0  0  0  0  0  0  0  0999 V2000
   33.2148   -1.4292   11.7342 C   0  0  1  0  0  0  0  0  0  0  0  0
   32.8918    1.0528    9.4126 C   0  0  2  0  0  0  0  0  0  0  0  0
   33.2509   -1.0087    9.6746 C   0  0  2  0  0  0  0  0  0  0  0  0
   33.2568   -2.0695   12.9082 N   0  0  0  0  0  0  0  0  0  0  0  0
   32.6281    2.3387    9.6224 N   0  0  0  0  0  0  0  0  0  0  0  0
   33.0724    0.5083    8.2152 N   0  0  0  0  0  0  0  0  0  0  0  0
   33.3887   -2.0064   10.5505 N   0  0  0  0  0  0  0  0  0  0  0  0
   32.9728   -0.1157   11.5691 N   0  0  0  0  0  0  0  0  0  0  0  0
   33.2894   -0.7021    8.3687 N   0  0  0  0  0  0  0  0  0  0  0  0
   32.9949    0.1180   10.3502 N   0  0  1  0  0  0  0  0  0  0  0  0
  1  4  1  6  0  0  0
  1  8  1  0  0  0  0
  1  7  1  0  0  0  0
  2  5  1  6  0  0  0
  2  6  1  0  0  0  0
  2 10  1  0  0  0  0
  3  7  1  1  0  0  0
  3 10  1  0  0  0  0
  3  9  1  0  0  0  0
  6  9  1  0  0  0  0
 10  8  1  1  0  0  0
M  END
>  <CHROM.1>
33.09502531,-0.32556743,10.23908366,1.16627930,-1.37386954,1.89646674

>  <Name>
ligand

>  <RI>
0

>  <Rbt.Current_Directory>
/home/itssahil/PROJECTS/Mol_Feturizer/Test_systems_manuscript/rnas/2xnw

>  <Rbt.Executable>
rbdock ($Id: //depot/dev/client3/rdock/2013.1/src/exe/rbdock.cxx#4 $)

>  <Rbt.Library>
libRbt.so (2013.1, Build901 2013/11/27)

>  <Rbt.Parameter_File>
/export/apps/rDock/src/rDock_2013.1_src/data/scripts/dock_solv.prm

>  <Rbt.Receptor>
prm/blind_docking_80.prm

>  <SCORE>
-6.74406

>  <SCORE.INTER>
-6.74406

>  <SCORE.INTER.CONST>
1

>  <SCORE.INTER.POLAR>
0

>  <SCORE.INTER.ROT>
0

>  <SCORE.INTER.SOLV>
6.39255

>  <SCORE.INTER.VDW>
-10.2269

>  <SCORE.INTER.norm>
-0.674406

>  <SCORE.INTRA>
0

>  <SCORE.INTRA.DIHEDRAL>
0

>  <SCORE.INTRA.DIHEDRAL.0>
0

>  <SCORE.INTRA.POLAR>
0

>  <SCORE.INTRA.POLAR.0>
0

>  <SCORE.INTRA.REPUL>
0

>  <SCORE.INTRA.REPUL.0>
0

>  <SCORE.INTRA.SOLV>
0

>  <SCORE.INTRA.SOLV.lig_0>
-47.9788

>  <SCORE.INTRA.VDW>
0

>  <SCORE.INTRA.VDW.0>
0

>  <SCORE.INTRA.norm>
0

>  <SCORE.RESTR>
0

>  <SCORE.RESTR.CAVITY>
0

>  <SCORE.RESTR.norm>
0

>  <SCORE.SYSTEM>
0

>  <SCORE.SYSTEM.CONST>
0

>  <SCORE.SYSTEM.DIHEDRAL>
0

>  <SCORE.SYSTEM.SOLV>
0

>  <SCORE.SYSTEM.norm>
0

>  <SCORE.heavy>
10

>  <SCORE.norm>
-0.674406

>  <RMSD>
21.607

$$$$
ligand
 OpenBabel02271912133D
libRbt.so/2013.1/901 2013/11/27
 10 11  0  0  0  0  0  0  0  0999 V2000
   33.2690   -1.4424   11.8478 C   0  0  1  0  0  0  0  0  0  0  0  0
   32.9197    1.1181    9.6170 C   0  0  2  0  0  0  0  0  0  0  0  0
   33.2611   -0.9547    9.8027 C   0  0  2  0  0  0  0  0  0  0  0  0
   33.3314   -2.1215   12.9989 N   0  0  0  0  0  0  0  0  0  0  0  0
   32.6759    2.3992    9.8750 N   0  0  0  0  0  0  0  0  0  0  0  0
   33.0657    0.6114    8.3985 N   0  0  0  0  0  0  0  0  0  0  0  0
   33.4081   -1.9821   10.6420 N   0  0  0  0  0  0  0  0  0  0  0  0
   33.0383   -0.1217   11.7316 N   0  0  0  0  0  0  0  0  0  0  0  0
   33.2723   -0.6056    8.5070 N   0  0  0  0  0  0  0  0  0  0  0  0
   33.0342    0.1518   10.5208 N   0  0  1  0  0  0  0  0  0  0  0  0
  1  4  1  6  0  0  0
  1  8  1  0  0  0  0
  1  7  1  0  0  0  0
  2  5  1  6  0  0  0
  2  6  1  0  0  0  0
  2 10  1  0  0  0  0
  3  7  1  1  0  0  0
  3 10  1  0  0  0  0
  3  9  1  0  0  0  0
  6  9  1  0  0  0  0
 10  8  1  1  0  0  0
M  END
>  <CHROM.1>
33.12657793,-0.28886538,10.39285253,1.06102917,-1.39139368,1.82591105

>  <Name>
ligand

>  <RI>
0

>  <Rbt.Current_Directory>
/home/itssahil/PROJECTS/Mol_Feturizer/Test_systems_manuscript/rnas/2xnw

>  <Rbt.Executable>
rbdock ($Id: //depot/dev/client3/rdock/2013.1/src/exe/rbdock.cxx#4 $)

>  <Rbt.Library>
libRbt.so (2013.1, Build901 2013/11/27)

>  <Rbt.Parameter_File>
/export/apps/rDock/src/rDock_2013.1_src/data/scripts/dock_solv.prm

>  <Rbt.Receptor>
prm/blind_docking_100.prm

>  <SCORE>
-6.54387

>  <SCORE.INTER>
-6.54387

>  <SCORE.INTER.CONST>
1

>  <SCORE.INTER.POLAR>
0

>  <SCORE.INTER.ROT>
0

>  <SCORE.INTER.SOLV>
6.53688

>  <SCORE.INTER.VDW>
-10.1415

>  <SCORE.INTER.norm>
-0.654387

>  <SCORE.INTRA>
0

>  <SCORE.INTRA.DIHEDRAL>
0

>  <SCORE.INTRA.DIHEDRAL.0>
0

>  <SCORE.INTRA.POLAR>
0

>  <SCORE.INTRA.POLAR.0>
0

>  <SCORE.INTRA.REPUL>
0

>  <SCORE.INTRA.REPUL.0>
0

>  <SCORE.INTRA.SOLV>
0

>  <SCORE.INTRA.SOLV.lig_0>
-47.9788

>  <SCORE.INTRA.VDW>
0

>  <SCORE.INTRA.VDW.0>
0

>  <SCORE.INTRA.norm>
0

>  <SCORE.RESTR>
0

>  <SCORE.RESTR.CAVITY>
0

>  <SCORE.RESTR.norm>
0

>  <SCORE.SYSTEM>
0

>  <SCORE.SYSTEM.CONST>
0

>  <SCORE.SYSTEM.DIHEDRAL>
0

>  <SCORE.SYSTEM.SOLV>
0

>  <SCORE.SYSTEM.norm>
0

>  <SCORE.heavy>
10

>  <SCORE.norm>
-0.654387

>  <RMSD>
21.662

$$$$
ligand
 OpenBabel02271912133D
libRbt.so/2013.1/901 2013/11/27
 10 11  0  0  0  0  0  0  0  0999 V2000
   32.5352   -1.0113   18.3915 C   0  0  1  0  0  0  0  0  0  0  0  0
   29.8493   -0.4393   16.3634 C   0  0  2  0  0  0  0  0  0  0  0  0
   31.0574    0.3933   17.8782 C   0  0  2  0  0  0  0  0  0  0  0  0
   33.5864   -1.6076   18.9653 N   0  0  0  0  0  0  0  0  0  0  0  0
   29.3352   -1.2467   15.4409 N   0  0  0  0  0  0  0  0  0  0  0  0
   29.3819    0.7704   16.6479 N   0  0  0  0  0  0  0  0  0  0  0  0
   32.0992    0.2071   18.6915 N   0  0  0  0  0  0  0  0  0  0  0  0
   31.7737   -1.5399   17.4160 N   0  0  0  0  0  0  0  0  0  0  0  0
   30.0877    1.2580   17.5423 N   0  0  0  0  0  0  0  0  0  0  0  0
   30.9078   -0.7006   17.1215 N   0  0  1  0  0  0  0  0  0  0  0  0
  1  4  1  6  0  0  0
  1  8  1  0  0  0  0
  1  7  1  0  0  0  0
  2  5  1  6  0  0  0
  2  6  1  0  0  0  0
  2 10  1  0  0  0  0
  3  7  1  1  0  0  0
  3 10  1  0  0  0  0
  3  9  1  0  0  0  0
  6  9  1  0  0  0  0
 10  8  1  1  0  0  0
M  END
>  <CHROM.1>
31.05755134,-0.39340433,17.44144483,-0.05331778,0.65002137,-2.62188327

>  <Name>
ligand

>  <RI>
0

>  <Rbt.Current_Directory>
/home/itssahil/PROJECTS/Mol_Feturizer/Test_systems_manuscript/rnas/2xnw

>  <Rbt.Executable>
rbdock ($Id: //depot/dev/client3/rdock/2013.1/src/exe/rbdock.cxx#4 $)

>  <Rbt.Library>
libRbt.so (2013.1, Build901 2013/11/27)

>  <Rbt.Parameter_File>
/export/apps/rDock/src/rDock_2013.1_src/data/scripts/dock_solv.prm

>  <Rbt.Receptor>
prm/blind_docking_100.prm

>  <SCORE>
-5.32838

>  <SCORE.INTER>
-5.32838

>  <SCORE.INTER.CONST>
1

>  <SCORE.INTER.POLAR>
0

>  <SCORE.INTER.ROT>
0

>  <SCORE.INTER.SOLV>
6.12964

>  <SCORE.INTER.VDW>
-9.19547

>  <SCORE.INTER.norm>
-0.532838

>  <SCORE.INTRA>
0

>  <SCORE.INTRA.DIHEDRAL>
0

>  <SCORE.INTRA.DIHEDRAL.0>
0

>  <SCORE.INTRA.POLAR>
0

>  <SCORE.INTRA.POLAR.0>
0

>  <SCORE.INTRA.REPUL>
0

>  <SCORE.INTRA.REPUL.0>
0

>  <SCORE.INTRA.SOLV>
0

>  <SCORE.INTRA.SOLV.lig_0>
-47.9788

>  <SCORE.INTRA.VDW>
0

>  <SCORE.INTRA.VDW.0>
0

>  <SCORE.INTRA.norm>
0

>  <SCORE.RESTR>
0

>  <SCORE.RESTR.CAVITY>
0

>  <SCORE.RESTR.norm>
0

>  <SCORE.SYSTEM>
0

>  <SCORE.SYSTEM.CONST>
0

>  <SCORE.SYSTEM.DIHEDRAL>
0

>  <SCORE.SYSTEM.SOLV>
0

>  <SCORE.SYSTEM.norm>
0

>  <SCORE.heavy>
10

>  <SCORE.norm>
-0.532838

>  <RMSD>
21.698

$$$$
ligand
 OpenBabel02271912133D
libRbt.so/2013.1/901 2013/11/27
 10 11  0  0  0  0  0  0  0  0999 V2000
   33.3452   -1.4492   11.9068 C   0  0  1  0  0  0  0  0  0  0  0  0
   32.9978    1.0418    9.5985 C   0  0  2  0  0  0  0  0  0  0  0  0
   33.2616   -1.0356    9.8471 C   0  0  2  0  0  0  0  0  0  0  0  0
   33.4334   -2.0884   13.0788 N   0  0  0  0  0  0  0  0  0  0  0  0
   32.8196    2.3407    9.8184 N   0  0  0  0  0  0  0  0  0  0  0  0
   33.0654    0.4858    8.3947 N   0  0  0  0  0  0  0  0  0  0  0  0
   33.4052   -2.0375   10.7173 N   0  0  0  0  0  0  0  0  0  0  0  0
   33.1641   -0.1248   11.7511 N   0  0  0  0  0  0  0  0  0  0  0  0
   33.2264   -0.7343    8.5399 N   0  0  0  0  0  0  0  0  0  0  0  0
   33.1146    0.1048   10.5322 N   0  0  1  0  0  0  0  0  0  0  0  0
  1  4  1  1  0  0  0
  1  8  1  0  0  0  0
  1  7  1  0  0  0  0
  2  5  1  1  0  0  0
  2  6  1  0  0  0  0
  2 10  1  0  0  0  0
  3  7  1  1  0  0  0
  3 10  1  0  0  0  0
  3  9  1  0  0  0  0
  6  9  1  0  0  0  0
 10  8  1  1  0  0  0
M  END
>  <CHROM.1>
33.18252116,-0.34381047,10.41703171,0.79260301,-1.43861440,1.52355403

>  <Name>
ligand

>  <RI>
0

>  <Rbt.Current_Directory>
/home/itssahil/PROJECTS/Mol_Feturizer/Test_systems_manuscript/rnas/2xnw

>  <Rbt.Executable>
rbdock ($Id: //depot/dev/client3/rdock/2013.1/src/exe/rbdock.cxx#4 $)

>  <Rbt.Library>
libRbt.so (2013.1, Build901 2013/11/27)

>  <Rbt.Parameter_File>
/export/apps/rDock/src/rDock_2013.1_src/data/scripts/dock_solv.prm

>  <Rbt.Receptor>
prm/blind_docking_60.prm

>  <SCORE>
-6.51817

>  <SCORE.INTER>
-6.52048

>  <SCORE.INTER.CONST>
1

>  <SCORE.INTER.POLAR>
0

>  <SCORE.INTER.ROT>
0

>  <SCORE.INTER.SOLV>
7.18894

>  <SCORE.INTER.VDW>
-10.3433

>  <SCORE.INTER.norm>
-0.652048

>  <SCORE.INTRA>
0

>  <SCORE.INTRA.DIHEDRAL>
0

>  <SCORE.INTRA.DIHEDRAL.0>
0

>  <SCORE.INTRA.POLAR>
0

>  <SCORE.INTRA.POLAR.0>
0

>  <SCORE.INTRA.REPUL>
0

>  <SCORE.INTRA.REPUL.0>
0

>  <SCORE.INTRA.SOLV>
0

>  <SCORE.INTRA.SOLV.lig_0>
-47.9788

>  <SCORE.INTRA.VDW>
0

>  <SCORE.INTRA.VDW.0>
0

>  <SCORE.INTRA.norm>
0

>  <SCORE.RESTR>
0.00230752

>  <SCORE.RESTR.CAVITY>
0.00230752

>  <SCORE.RESTR.norm>
0.000230752

>  <SCORE.SYSTEM>
0

>  <SCORE.SYSTEM.CONST>
0

>  <SCORE.SYSTEM.DIHEDRAL>
0

>  <SCORE.SYSTEM.SOLV>
0

>  <SCORE.SYSTEM.norm>
0

>  <SCORE.heavy>
10

>  <SCORE.norm>
-0.651817

>  <RMSD>
21.712

$$$$
ligand
 OpenBabel02271912133D
libRbt.so/2013.1/901 2013/11/27
 10 11  0  0  0  0  0  0  0  0999 V2000
   32.1286   -2.0285   18.8642 C   0  0  1  0  0  0  0  0  0  0  0  0
   31.8481   -3.7513   15.9303 C   0  0  2  0  0  0  0  0  0  0  0  0
   31.8945   -3.9440   18.0298 C   0  0  2  0  0  0  0  0  0  0  0  0
   32.2557   -1.0218   19.7362 N   0  0  0  0  0  0  0  0  0  0  0  0
   31.8422   -3.2636   14.6937 N   0  0  0  0  0  0  0  0  0  0  0  0
   31.7348   -5.0396   16.2307 N   0  0  0  0  0  0  0  0  0  0  0  0
   32.0055   -3.3083   19.1982 N   0  0  0  0  0  0  0  0  0  0  0  0
   32.0865   -1.9014   17.5252 N   0  0  0  0  0  0  0  0  0  0  0  0
   31.7680   -5.1543   17.4641 N   0  0  0  0  0  0  0  0  0  0  0  0
   31.9462   -3.0379   17.0461 N   0  0  1  0  0  0  0  0  0  0  0  0
  1  4  1  1  0  0  0
  1  8  1  0  0  0  0
  1  7  1  0  0  0  0
  2  5  1  1  0  0  0
  2  6  1  0  0  0  0
  2 10  1  0  0  0  0
  3  7  1  6  0  0  0
  3 10  1  0  0  0  0
  3  9  1  0  0  0  0
  6  9  1  0  0  0  0
 10  8  1  6  0  0  0
M  END
>  <CHROM.1>
31.95073046,-3.24522510,17.46576687,-0.57315552,-1.46653321,-1.20366351

>  <Name>
ligand

>  <RI>
0

>  <Rbt.Current_Directory>
/home/itssahil/PROJECTS/Mol_Feturizer/Test_systems_manuscript/rnas/2xnw

>  <Rbt.Executable>
rbdock ($Id: //depot/dev/client3/rdock/2013.1/src/exe/rbdock.cxx#4 $)

>  <Rbt.Library>
libRbt.so (2013.1, Build901 2013/11/27)

>  <Rbt.Parameter_File>
/export/apps/rDock/src/rDock_2013.1_src/data/scripts/dock_solv.prm

>  <Rbt.Receptor>
prm/blind_docking_40.prm

>  <SCORE>
-6.14687

>  <SCORE.INTER>
-6.14687

>  <SCORE.INTER.CONST>
1

>  <SCORE.INTER.POLAR>
0

>  <SCORE.INTER.ROT>
0

>  <SCORE.INTER.SOLV>
5.83006

>  <SCORE.INTER.VDW>
-9.64127

>  <SCORE.INTER.norm>
-0.614687

>  <SCORE.INTRA>
0

>  <SCORE.INTRA.DIHEDRAL>
0

>  <SCORE.INTRA.DIHEDRAL.0>
0

>  <SCORE.INTRA.POLAR>
0

>  <SCORE.INTRA.POLAR.0>
0

>  <SCORE.INTRA.REPUL>
0

>  <SCORE.INTRA.REPUL.0>
0

>  <SCORE.INTRA.SOLV>
0

>  <SCORE.INTRA.SOLV.lig_0>
-47.9788

>  <SCORE.INTRA.VDW>
0

>  <SCORE.INTRA.VDW.0>
0

>  <SCORE.INTRA.norm>
0

>  <SCORE.RESTR>
0

>  <SCORE.RESTR.CAVITY>
0

>  <SCORE.RESTR.norm>
0

>  <SCORE.SYSTEM>
0

>  <SCORE.SYSTEM.CONST>
0

>  <SCORE.SYSTEM.DIHEDRAL>
0

>  <SCORE.SYSTEM.SOLV>
0

>  <SCORE.SYSTEM.norm>
0

>  <SCORE.heavy>
10

>  <SCORE.norm>
-0.614687

>  <RMSD>
22.388

$$$$
ligand
 OpenBabel02271912133D
libRbt.so/2013.1/901 2013/11/27
 10 11  0  0  0  0  0  0  0  0999 V2000
   32.1520   -2.0087   18.7816 C   0  0  1  0  0  0  0  0  0  0  0  0
   31.8886   -3.8015   15.8883 C   0  0  2  0  0  0  0  0  0  0  0  0
   31.8977   -3.9408   17.9925 C   0  0  2  0  0  0  0  0  0  0  0  0
   32.2827   -0.9821   19.6296 N   0  0  0  0  0  0  0  0  0  0  0  0
   31.9113   -3.3458   14.6397 N   0  0  0  0  0  0  0  0  0  0  0  0
   31.7478   -5.0795   16.2195 N   0  0  0  0  0  0  0  0  0  0  0  0
   32.0010   -3.2772   19.1460 N   0  0  0  0  0  0  0  0  0  0  0  0
   32.1338   -1.9154   17.4392 N   0  0  0  0  0  0  0  0  0  0  0  0
   31.7590   -5.1629   17.4559 N   0  0  0  0  0  0  0  0  0  0  0  0
   31.9812   -3.0613   16.9870 N   0  0  1  0  0  0  0  0  0  0  0  0
  1  4  1  1  0  0  0
  1  8  1  0  0  0  0
  1  7  1  0  0  0  0
  2  5  1  1  0  0  0
  2  6  1  0  0  0  0
  2 10  1  0  0  0  0
  3  7  1  6  0  0  0
  3 10  1  0  0  0  0
  3  9  1  0  0  0  0
  6  9  1  0  0  0  0
 10  8  1  6  0  0  0
M  END
>  <CHROM.1>
31.97532672,-3.25783566,17.41184980,-0.75769214,-1.45391066,-1.41272853

>  <Name>
ligand

>  <RI>
0

>  <Rbt.Current_Directory>
/home/itssahil/PROJECTS/Mol_Feturizer/Test_systems_manuscript/rnas/2xnw

>  <Rbt.Executable>
rbdock ($Id: //depot/dev/client3/rdock/2013.1/src/exe/rbdock.cxx#4 $)

>  <Rbt.Library>
libRbt.so (2013.1, Build901 2013/11/27)

>  <Rbt.Parameter_File>
/export/apps/rDock/src/rDock_2013.1_src/data/scripts/dock_solv.prm

>  <Rbt.Receptor>
prm/blind_docking_100.prm

>  <SCORE>
-6.16349

>  <SCORE.INTER>
-6.16349

>  <SCORE.INTER.CONST>
1

>  <SCORE.INTER.POLAR>
0

>  <SCORE.INTER.ROT>
0

>  <SCORE.INTER.SOLV>
5.47091

>  <SCORE.INTER.VDW>
-9.53263

>  <SCORE.INTER.norm>
-0.616349

>  <SCORE.INTRA>
0

>  <SCORE.INTRA.DIHEDRAL>
0

>  <SCORE.INTRA.DIHEDRAL.0>
0

>  <SCORE.INTRA.POLAR>
0

>  <SCORE.INTRA.POLAR.0>
0

>  <SCORE.INTRA.REPUL>
0

>  <SCORE.INTRA.REPUL.0>
0

>  <SCORE.INTRA.SOLV>
0

>  <SCORE.INTRA.SOLV.lig_0>
-47.9788

>  <SCORE.INTRA.VDW>
0

>  <SCORE.INTRA.VDW.0>
0

>  <SCORE.INTRA.norm>
0

>  <SCORE.RESTR>
0

>  <SCORE.RESTR.CAVITY>
0

>  <SCORE.RESTR.norm>
0

>  <SCORE.SYSTEM>
0

>  <SCORE.SYSTEM.CONST>
0

>  <SCORE.SYSTEM.DIHEDRAL>
0

>  <SCORE.SYSTEM.SOLV>
0

>  <SCORE.SYSTEM.norm>
0

>  <SCORE.heavy>
10

>  <SCORE.norm>
-0.616349

>  <RMSD>
22.390

$$$$
ligand
 OpenBabel02271912133D
libRbt.so/2013.1/901 2013/11/27
 10 11  0  0  0  0  0  0  0  0999 V2000
   32.1383   -2.0213   18.8252 C   0  0  1  0  0  0  0  0  0  0  0  0
   31.8863   -3.8211   15.9352 C   0  0  2  0  0  0  0  0  0  0  0  0
   31.8919   -3.9559   18.0397 C   0  0  2  0  0  0  0  0  0  0  0  0
   32.2640   -0.9926   19.6713 N   0  0  0  0  0  0  0  0  0  0  0  0
   31.9097   -3.3680   14.6857 N   0  0  0  0  0  0  0  0  0  0  0  0
   31.7492   -5.0988   16.2688 N   0  0  0  0  0  0  0  0  0  0  0  0
   31.9909   -3.2895   19.1920 N   0  0  0  0  0  0  0  0  0  0  0  0
   32.1223   -1.9310   17.4826 N   0  0  0  0  0  0  0  0  0  0  0  0
   31.7584   -5.1796   17.5054 N   0  0  0  0  0  0  0  0  0  0  0  0
   31.9744   -3.0783   17.0325 N   0  0  1  0  0  0  0  0  0  0  0  0
  1  4  1  1  0  0  0
  1  8  1  0  0  0  0
  1  7  1  0  0  0  0
  2  5  1  1  0  0  0
  2  6  1  0  0  0  0
  2 10  1  0  0  0  0
  3  7  1  6  0  0  0
  3 10  1  0  0  0  0
  3  9  1  0  0  0  0
  6  9  1  0  0  0  0
 10  8  1  6  0  0  0
M  END
>  <CHROM.1>
31.96837998,-3.27395113,17.45775335,-0.76899711,-1.45751631,-1.42606948

>  <Name>
ligand

>  <RI>
0

>  <Rbt.Current_Directory>
/home/itssahil/PROJECTS/Mol_Feturizer/Test_systems_manuscript/rnas/2xnw

>  <Rbt.Executable>
rbdock ($Id: //depot/dev/client3/rdock/2013.1/src/exe/rbdock.cxx#4 $)

>  <Rbt.Library>
libRbt.so (2013.1, Build901 2013/11/27)

>  <Rbt.Parameter_File>
/export/apps/rDock/src/rDock_2013.1_src/data/scripts/dock_solv.prm

>  <Rbt.Receptor>
prm/blind_docking_40.prm

>  <SCORE>
-6.19738

>  <SCORE.INTER>
-6.19738

>  <SCORE.INTER.CONST>
1

>  <SCORE.INTER.POLAR>
0

>  <SCORE.INTER.ROT>
0

>  <SCORE.INTER.SOLV>
5.67193

>  <SCORE.INTER.VDW>
-9.62223

>  <SCORE.INTER.norm>
-0.619738

>  <SCORE.INTRA>
0

>  <SCORE.INTRA.DIHEDRAL>
0

>  <SCORE.INTRA.DIHEDRAL.0>
0

>  <SCORE.INTRA.POLAR>
0

>  <SCORE.INTRA.POLAR.0>
0

>  <SCORE.INTRA.REPUL>
0

>  <SCORE.INTRA.REPUL.0>
0

>  <SCORE.INTRA.SOLV>
0

>  <SCORE.INTRA.SOLV.lig_0>
-47.9788

>  <SCORE.INTRA.VDW>
0

>  <SCORE.INTRA.VDW.0>
0

>  <SCORE.INTRA.norm>
0

>  <SCORE.RESTR>
0

>  <SCORE.RESTR.CAVITY>
0

>  <SCORE.RESTR.norm>
0

>  <SCORE.SYSTEM>
0

>  <SCORE.SYSTEM.CONST>
0

>  <SCORE.SYSTEM.DIHEDRAL>
0

>  <SCORE.SYSTEM.SOLV>
0

>  <SCORE.SYSTEM.norm>
0

>  <SCORE.heavy>
10

>  <SCORE.norm>
-0.619738

>  <RMSD>
22.404

$$$$
ligand
 OpenBabel02271912133D
libRbt.so/2013.1/901 2013/11/27
 10 11  0  0  0  0  0  0  0  0999 V2000
   32.1353   -2.0206   18.8337 C   0  0  1  0  0  0  0  0  0  0  0  0
   31.8857   -3.8140   15.9396 C   0  0  2  0  0  0  0  0  0  0  0  0
   31.8926   -3.9538   18.0438 C   0  0  2  0  0  0  0  0  0  0  0  0
   32.2593   -0.9936   19.6822 N   0  0  0  0  0  0  0  0  0  0  0  0
   31.9076   -3.3578   14.6911 N   0  0  0  0  0  0  0  0  0  0  0  0
   31.7513   -5.0928   16.2702 N   0  0  0  0  0  0  0  0  0  0  0  0
   31.9907   -3.2900   19.1975 N   0  0  0  0  0  0  0  0  0  0  0  0
   32.1185   -1.9271   17.4913 N   0  0  0  0  0  0  0  0  0  0  0  0
   31.7613   -5.1765   17.5066 N   0  0  0  0  0  0  0  0  0  0  0  0
   31.9727   -3.0737   17.0386 N   0  0  1  0  0  0  0  0  0  0  0  0
  1  4  1  1  0  0  0
  1  8  1  0  0  0  0
  1  7  1  0  0  0  0
  2  5  1  1  0  0  0
  2  6  1  0  0  0  0
  2 10  1  0  0  0  0
  3  7  1  6  0  0  0
  3 10  1  0  0  0  0
  3  9  1  0  0  0  0
  6  9  1  0  0  0  0
 10  8  1  6  0  0  0
M  END
>  <CHROM.1>
31.96734767,-3.27030912,17.46337453,-0.76236047,-1.45947090,-1.41708209

>  <Name>
ligand

>  <RI>
0

>  <Rbt.Current_Directory>
/home/itssahil/PROJECTS/Mol_Feturizer/Test_systems_manuscript/rnas/2xnw

>  <Rbt.Executable>
rbdock ($Id: //depot/dev/client3/rdock/2013.1/src/exe/rbdock.cxx#4 $)

>  <Rbt.Library>
libRbt.so (2013.1, Build901 2013/11/27)

>  <Rbt.Parameter_File>
/export/apps/rDock/src/rDock_2013.1_src/data/scripts/dock_solv.prm

>  <Rbt.Receptor>
prm/blind_docking_60.prm

>  <SCORE>
-6.19643

>  <SCORE.INTER>
-6.19643

>  <SCORE.INTER.CONST>
1

>  <SCORE.INTER.POLAR>
0

>  <SCORE.INTER.ROT>
0

>  <SCORE.INTER.SOLV>
5.70211

>  <SCORE.INTER.VDW>
-9.63166

>  <SCORE.INTER.norm>
-0.619643

>  <SCORE.INTRA>
0

>  <SCORE.INTRA.DIHEDRAL>
0

>  <SCORE.INTRA.DIHEDRAL.0>
0

>  <SCORE.INTRA.POLAR>
0

>  <SCORE.INTRA.POLAR.0>
0

>  <SCORE.INTRA.REPUL>
0

>  <SCORE.INTRA.REPUL.0>
0

>  <SCORE.INTRA.SOLV>
0

>  <SCORE.INTRA.SOLV.lig_0>
-47.9788

>  <SCORE.INTRA.VDW>
0

>  <SCORE.INTRA.VDW.0>
0

>  <SCORE.INTRA.norm>
0

>  <SCORE.RESTR>
0

>  <SCORE.RESTR.CAVITY>
0

>  <SCORE.RESTR.norm>
0

>  <SCORE.SYSTEM>
0

>  <SCORE.SYSTEM.CONST>
0

>  <SCORE.SYSTEM.DIHEDRAL>
0

>  <SCORE.SYSTEM.SOLV>
0

>  <SCORE.SYSTEM.norm>
0

>  <SCORE.heavy>
10

>  <SCORE.norm>
-0.619643

>  <RMSD>
22.405

$$$$
ligand
 OpenBabel02271912133D
libRbt.so/2013.1/901 2013/11/27
 10 11  0  0  0  0  0  0  0  0999 V2000
   32.1395   -2.0300   18.8511 C   0  0  1  0  0  0  0  0  0  0  0  0
   31.8760   -3.8022   15.9453 C   0  0  2  0  0  0  0  0  0  0  0  0
   31.8944   -3.9576   18.0483 C   0  0  2  0  0  0  0  0  0  0  0  0
   32.2671   -1.0092   19.7065 N   0  0  0  0  0  0  0  0  0  0  0  0
   31.8907   -3.3369   14.7001 N   0  0  0  0  0  0  0  0  0  0  0  0
   31.7447   -5.0836   16.2671 N   0  0  0  0  0  0  0  0  0  0  0  0
   31.9982   -3.3022   19.2064 N   0  0  0  0  0  0  0  0  0  0  0  0
   32.1153   -1.9266   17.5096 N   0  0  0  0  0  0  0  0  0  0  0  0
   31.7615   -5.1764   17.5028 N   0  0  0  0  0  0  0  0  0  0  0  0
   31.9683   -3.0700   17.0493 N   0  0  1  0  0  0  0  0  0  0  0  0
  1  4  1  1  0  0  0
  1  8  1  0  0  0  0
  1  7  1  0  0  0  0
  2  5  1  1  0  0  0
  2  6  1  0  0  0  0
  2 10  1  0  0  0  0
  3  7  1  6  0  0  0
  3 10  1  0  0  0  0
  3  9  1  0  0  0  0
  6  9  1  0  0  0  0
 10  8  1  6  0  0  0
M  END
>  <CHROM.1>
31.96538032,-3.26973753,17.47255395,-0.71267765,-1.45950663,-1.36032890

>  <Name>
ligand

>  <RI>
0

>  <Rbt.Current_Directory>
/home/itssahil/PROJECTS/Mol_Feturizer/Test_systems_manuscript/rnas/2xnw

>  <Rbt.Executable>
rbdock ($Id: //depot/dev/client3/rdock/2013.1/src/exe/rbdock.cxx#4 $)

>  <Rbt.Library>
libRbt.so (2013.1, Build901 2013/11/27)

>  <Rbt.Parameter_File>
/export/apps/rDock/src/rDock_2013.1_src/data/scripts/dock_solv.prm

>  <Rbt.Receptor>
prm/blind_docking_60.prm

>  <SCORE>
-6.19225

>  <SCORE.INTER>
-6.19225

>  <SCORE.INTER.CONST>
1

>  <SCORE.INTER.POLAR>
0

>  <SCORE.INTER.ROT>
0

>  <SCORE.INTER.SOLV>
5.74366

>  <SCORE.INTER.VDW>
-9.64272

>  <SCORE.INTER.norm>
-0.619225

>  <SCORE.INTRA>
0

>  <SCORE.INTRA.DIHEDRAL>
0

>  <SCORE.INTRA.DIHEDRAL.0>
0

>  <SCORE.INTRA.POLAR>
0

>  <SCORE.INTRA.POLAR.0>
0

>  <SCORE.INTRA.REPUL>
0

>  <SCORE.INTRA.REPUL.0>
0

>  <SCORE.INTRA.SOLV>
0

>  <SCORE.INTRA.SOLV.lig_0>
-47.9788

>  <SCORE.INTRA.VDW>
0

>  <SCORE.INTRA.VDW.0>
0

>  <SCORE.INTRA.norm>
0

>  <SCORE.RESTR>
0

>  <SCORE.RESTR.CAVITY>
0

>  <SCORE.RESTR.norm>
0

>  <SCORE.SYSTEM>
0

>  <SCORE.SYSTEM.CONST>
0

>  <SCORE.SYSTEM.DIHEDRAL>
0

>  <SCORE.SYSTEM.SOLV>
0

>  <SCORE.SYSTEM.norm>
0

>  <SCORE.heavy>
10

>  <SCORE.norm>
-0.619225

>  <RMSD>
22.407

$$$$
ligand
 OpenBabel02271912133D
libRbt.so/2013.1/901 2013/11/27
 10 11  0  0  0  0  0  0  0  0999 V2000
   32.1350   -2.0278   18.8493 C   0  0  1  0  0  0  0  0  0  0  0  0
   31.9024   -3.8100   15.9468 C   0  0  2  0  0  0  0  0  0  0  0  0
   31.8846   -3.9564   18.0505 C   0  0  2  0  0  0  0  0  0  0  0  0
   32.2583   -1.0046   19.7024 N   0  0  0  0  0  0  0  0  0  0  0  0
   31.9421   -3.3502   14.7001 N   0  0  0  0  0  0  0  0  0  0  0  0
   31.7535   -5.0886   16.2718 N   0  0  0  0  0  0  0  0  0  0  0  0
   31.9755   -3.2970   19.2074 N   0  0  0  0  0  0  0  0  0  0  0  0
   32.1340   -1.9300   17.5071 N   0  0  0  0  0  0  0  0  0  0  0  0
   31.7489   -5.1763   17.5080 N   0  0  0  0  0  0  0  0  0  0  0  0
   31.9835   -3.0739   17.0491 N   0  0  1  0  0  0  0  0  0  0  0  0
  1  4  1  1  0  0  0
  1  8  1  0  0  0  0
  1  7  1  0  0  0  0
  2  5  1  6  0  0  0
  2  6  1  0  0  0  0
  2 10  1  0  0  0  0
  3  7  1  1  0  0  0
  3 10  1  0  0  0  0
  3  9  1  0  0  0  0
  6  9  1  0  0  0  0
 10  8  1  1  0  0  0
M  END
>  <CHROM.1>
31.97167716,-3.27178251,17.47316950,-0.86668410,-1.45211680,-1.51757502

>  <Name>
ligand

>  <RI>
0

>  <Rbt.Current_Directory>
/home/itssahil/PROJECTS/Mol_Feturizer/Test_systems_manuscript/rnas/2xnw

>  <Rbt.Executable>
rbdock ($Id: //depot/dev/client3/rdock/2013.1/src/exe/rbdock.cxx#4 $)

>  <Rbt.Library>
libRbt.so (2013.1, Build901 2013/11/27)

>  <Rbt.Parameter_File>
/export/apps/rDock/src/rDock_2013.1_src/data/scripts/dock_solv.prm

>  <Rbt.Receptor>
prm/blind_docking_40.prm

>  <SCORE>
-6.19936

>  <SCORE.INTER>
-6.19936

>  <SCORE.INTER.CONST>
1

>  <SCORE.INTER.POLAR>
0

>  <SCORE.INTER.ROT>
0

>  <SCORE.INTER.SOLV>
5.70665

>  <SCORE.INTER.VDW>
-9.63512

>  <SCORE.INTER.norm>
-0.619936

>  <SCORE.INTRA>
0

>  <SCORE.INTRA.DIHEDRAL>
0

>  <SCORE.INTRA.DIHEDRAL.0>
0

>  <SCORE.INTRA.POLAR>
0

>  <SCORE.INTRA.POLAR.0>
0

>  <SCORE.INTRA.REPUL>
0

>  <SCORE.INTRA.REPUL.0>
0

>  <SCORE.INTRA.SOLV>
0

>  <SCORE.INTRA.SOLV.lig_0>
-47.9788

>  <SCORE.INTRA.VDW>
0

>  <SCORE.INTRA.VDW.0>
0

>  <SCORE.INTRA.norm>
0

>  <SCORE.RESTR>
0

>  <SCORE.RESTR.CAVITY>
0

>  <SCORE.RESTR.norm>
0

>  <SCORE.SYSTEM>
0

>  <SCORE.SYSTEM.CONST>
0

>  <SCORE.SYSTEM.DIHEDRAL>
0

>  <SCORE.SYSTEM.SOLV>
0

>  <SCORE.SYSTEM.norm>
0

>  <SCORE.heavy>
10

>  <SCORE.norm>
-0.619936

>  <RMSD>
22.413

$$$$
ligand
 OpenBabel02271912133D
libRbt.so/2013.1/901 2013/11/27
 10 11  0  0  0  0  0  0  0  0999 V2000
   32.1356   -2.0267   18.8485 C   0  0  1  0  0  0  0  0  0  0  0  0
   31.9018   -3.8100   15.9469 C   0  0  2  0  0  0  0  0  0  0  0  0
   31.8831   -3.9554   18.0506 C   0  0  2  0  0  0  0  0  0  0  0  0
   32.2598   -1.0031   19.7012 N   0  0  0  0  0  0  0  0  0  0  0  0
   31.9426   -3.3509   14.7000 N   0  0  0  0  0  0  0  0  0  0  0  0
   31.7512   -5.0883   16.2725 N   0  0  0  0  0  0  0  0  0  0  0  0
   31.9744   -3.2955   19.2072 N   0  0  0  0  0  0  0  0  0  0  0  0
   32.1352   -1.9295   17.5063 N   0  0  0  0  0  0  0  0  0  0  0  0
   31.7461   -5.1753   17.5086 N   0  0  0  0  0  0  0  0  0  0  0  0
   31.9835   -3.0734   17.0489 N   0  0  1  0  0  0  0  0  0  0  0  0
  1  4  1  1  0  0  0
  1  8  1  0  0  0  0
  1  7  1  0  0  0  0
  2  5  1  6  0  0  0
  2  6  1  0  0  0  0
  2 10  1  0  0  0  0
  3  7  1  1  0  0  0
  3 10  1  0  0  0  0
  3  9  1  0  0  0  0
  6  9  1  0  0  0  0
 10  8  1  1  0  0  0
M  END
>  <CHROM.1>
31.97123640,-3.27109803,17.47297342,-0.87030897,-1.45089646,-1.52166593

>  <Name>
ligand

>  <RI>
0

>  <Rbt.Current_Directory>
/home/itssahil/PROJECTS/Mol_Feturizer/Test_systems_manuscript/rnas/2xnw

>  <Rbt.Executable>
rbdock ($Id: //depot/dev/client3/rdock/2013.1/src/exe/rbdock.cxx#4 $)

>  <Rbt.Library>
libRbt.so (2013.1, Build901 2013/11/27)

>  <Rbt.Parameter_File>
/export/apps/rDock/src/rDock_2013.1_src/data/scripts/dock_solv.prm

>  <Rbt.Receptor>
prm/blind_docking_60.prm

>  <SCORE>
-6.19886

>  <SCORE.INTER>
-6.19886

>  <SCORE.INTER.CONST>
1

>  <SCORE.INTER.POLAR>
0

>  <SCORE.INTER.ROT>
0

>  <SCORE.INTER.SOLV>
5.69903

>  <SCORE.INTER.VDW>
-9.63225

>  <SCORE.INTER.norm>
-0.619886

>  <SCORE.INTRA>
0

>  <SCORE.INTRA.DIHEDRAL>
0

>  <SCORE.INTRA.DIHEDRAL.0>
0

>  <SCORE.INTRA.POLAR>
0

>  <SCORE.INTRA.POLAR.0>
0

>  <SCORE.INTRA.REPUL>
0

>  <SCORE.INTRA.REPUL.0>
0

>  <SCORE.INTRA.SOLV>
0

>  <SCORE.INTRA.SOLV.lig_0>
-47.9788

>  <SCORE.INTRA.VDW>
0

>  <SCORE.INTRA.VDW.0>
0

>  <SCORE.INTRA.norm>
0

>  <SCORE.RESTR>
0

>  <SCORE.RESTR.CAVITY>
0

>  <SCORE.RESTR.norm>
0

>  <SCORE.SYSTEM>
0

>  <SCORE.SYSTEM.CONST>
0

>  <SCORE.SYSTEM.DIHEDRAL>
0

>  <SCORE.SYSTEM.SOLV>
0

>  <SCORE.SYSTEM.norm>
0

>  <SCORE.heavy>
10

>  <SCORE.norm>
-0.619886

>  <RMSD>
22.413

$$$$
ligand
 OpenBabel02271912133D
libRbt.so/2013.1/901 2013/11/27
 10 11  0  0  0  0  0  0  0  0999 V2000
   32.1504   -2.0443   18.8470 C   0  0  1  0  0  0  0  0  0  0  0  0
   31.8907   -3.8159   15.9404 C   0  0  2  0  0  0  0  0  0  0  0  0
   31.8964   -3.9705   18.0436 C   0  0  2  0  0  0  0  0  0  0  0  0
   32.2803   -1.0240   19.7027 N   0  0  0  0  0  0  0  0  0  0  0  0
   31.9155   -3.3512   14.6952 N   0  0  0  0  0  0  0  0  0  0  0  0
   31.7487   -5.0962   16.2621 N   0  0  0  0  0  0  0  0  0  0  0  0
   31.9982   -3.3153   19.2020 N   0  0  0  0  0  0  0  0  0  0  0  0
   32.1344   -1.9413   17.5053 N   0  0  0  0  0  0  0  0  0  0  0  0
   31.7580   -5.1886   17.4978 N   0  0  0  0  0  0  0  0  0  0  0  0
   31.9819   -3.0838   17.0446 N   0  0  1  0  0  0  0  0  0  0  0  0
  1  4  1  1  0  0  0
  1  8  1  0  0  0  0
  1  7  1  0  0  0  0
  2  5  1  1  0  0  0
  2  6  1  0  0  0  0
  2 10  1  0  0  0  0
  3  7  1  6  0  0  0
  3 10  1  0  0  0  0
  3  9  1  0  0  0  0
  6  9  1  0  0  0  0
 10  8  1  6  0  0  0
M  END
>  <CHROM.1>
31.97529041,-3.28338893,17.46797993,-0.77155353,-1.45367042,-1.41923952

>  <Name>
ligand

>  <RI>
0

>  <Rbt.Current_Directory>
/home/itssahil/PROJECTS/Mol_Feturizer/Test_systems_manuscript/rnas/2xnw

>  <Rbt.Executable>
rbdock ($Id: //depot/dev/client3/rdock/2013.1/src/exe/rbdock.cxx#4 $)

>  <Rbt.Library>
libRbt.so (2013.1, Build901 2013/11/27)

>  <Rbt.Parameter_File>
/export/apps/rDock/src/rDock_2013.1_src/data/scripts/dock_solv.prm

>  <Rbt.Receptor>
prm/blind_docking_60.prm

>  <SCORE>
-6.19593

>  <SCORE.INTER>
-6.19593

>  <SCORE.INTER.CONST>
1

>  <SCORE.INTER.POLAR>
0

>  <SCORE.INTER.ROT>
0

>  <SCORE.INTER.SOLV>
5.68515

>  <SCORE.INTER.VDW>
-9.62567

>  <SCORE.INTER.norm>
-0.619593

>  <SCORE.INTRA>
0

>  <SCORE.INTRA.DIHEDRAL>
0

>  <SCORE.INTRA.DIHEDRAL.0>
0

>  <SCORE.INTRA.POLAR>
0

>  <SCORE.INTRA.POLAR.0>
0

>  <SCORE.INTRA.REPUL>
0

>  <SCORE.INTRA.REPUL.0>
0

>  <SCORE.INTRA.SOLV>
0

>  <SCORE.INTRA.SOLV.lig_0>
-47.9788

>  <SCORE.INTRA.VDW>
0

>  <SCORE.INTRA.VDW.0>
0

>  <SCORE.INTRA.norm>
0

>  <SCORE.RESTR>
0

>  <SCORE.RESTR.CAVITY>
0

>  <SCORE.RESTR.norm>
0

>  <SCORE.SYSTEM>
0

>  <SCORE.SYSTEM.CONST>
0

>  <SCORE.SYSTEM.DIHEDRAL>
0

>  <SCORE.SYSTEM.SOLV>
0

>  <SCORE.SYSTEM.norm>
0

>  <SCORE.heavy>
10

>  <SCORE.norm>
-0.619593

>  <RMSD>
22.415

$$$$
ligand
 OpenBabel02271912133D
libRbt.so/2013.1/901 2013/11/27
 10 11  0  0  0  0  0  0  0  0999 V2000
   32.1402   -2.0270   18.8461 C   0  0  1  0  0  0  0  0  0  0  0  0
   31.9041   -3.8141   15.9469 C   0  0  2  0  0  0  0  0  0  0  0  0
   31.8872   -3.9568   18.0508 C   0  0  2  0  0  0  0  0  0  0  0  0
   32.2650   -1.0024   19.6973 N   0  0  0  0  0  0  0  0  0  0  0  0
   31.9438   -3.3565   14.6994 N   0  0  0  0  0  0  0  0  0  0  0  0
   31.7539   -5.0920   16.2742 N   0  0  0  0  0  0  0  0  0  0  0  0
   31.9795   -3.2955   19.2065 N   0  0  0  0  0  0  0  0  0  0  0  0
   32.1386   -1.9316   17.5037 N   0  0  0  0  0  0  0  0  0  0  0  0
   31.7499   -5.1774   17.5105 N   0  0  0  0  0  0  0  0  0  0  0  0
   31.9866   -3.0761   17.0479 N   0  0  1  0  0  0  0  0  0  0  0  0
  1  4  1  1  0  0  0
  1  8  1  0  0  0  0
  1  7  1  0  0  0  0
  2  5  1  6  0  0  0
  2  6  1  0  0  0  0
  2 10  1  0  0  0  0
  3  7  1  1  0  0  0
  3 10  1  0  0  0  0
  3  9  1  0  0  0  0
  6  9  1  0  0  0  0
 10  8  1  1  0  0  0
M  END
>  <CHROM.1>
31.97477293,-3.27324800,17.47223858,-0.86301353,-1.45096412,-1.51568397

>  <Name>
ligand

>  <RI>
0

>  <Rbt.Current_Directory>
/home/itssahil/PROJECTS/Mol_Feturizer/Test_systems_manuscript/rnas/2xnw

>  <Rbt.Executable>
rbdock ($Id: //depot/dev/client3/rdock/2013.1/src/exe/rbdock.cxx#4 $)

>  <Rbt.Library>
libRbt.so (2013.1, Build901 2013/11/27)

>  <Rbt.Parameter_File>
/export/apps/rDock/src/rDock_2013.1_src/data/scripts/dock_solv.prm

>  <Rbt.Receptor>
prm/blind_docking_100.prm

>  <SCORE>
-6.19913

>  <SCORE.INTER>
-6.19913

>  <SCORE.INTER.CONST>
1

>  <SCORE.INTER.POLAR>
0

>  <SCORE.INTER.ROT>
0

>  <SCORE.INTER.SOLV>
5.67692

>  <SCORE.INTER.VDW>
-9.62506

>  <SCORE.INTER.norm>
-0.619913

>  <SCORE.INTRA>
0

>  <SCORE.INTRA.DIHEDRAL>
0

>  <SCORE.INTRA.DIHEDRAL.0>
0

>  <SCORE.INTRA.POLAR>
0

>  <SCORE.INTRA.POLAR.0>
0

>  <SCORE.INTRA.REPUL>
0

>  <SCORE.INTRA.REPUL.0>
0

>  <SCORE.INTRA.SOLV>
0

>  <SCORE.INTRA.SOLV.lig_0>
-47.9788

>  <SCORE.INTRA.VDW>
0

>  <SCORE.INTRA.VDW.0>
0

>  <SCORE.INTRA.norm>
0

>  <SCORE.RESTR>
0

>  <SCORE.RESTR.CAVITY>
0

>  <SCORE.RESTR.norm>
0

>  <SCORE.SYSTEM>
0

>  <SCORE.SYSTEM.CONST>
0

>  <SCORE.SYSTEM.DIHEDRAL>
0

>  <SCORE.SYSTEM.SOLV>
0

>  <SCORE.SYSTEM.norm>
0

>  <SCORE.heavy>
10

>  <SCORE.norm>
-0.619913

>  <RMSD>
22.416

$$$$
ligand
 OpenBabel02271912133D
libRbt.so/2013.1/901 2013/11/27
 10 11  0  0  0  0  0  0  0  0999 V2000
   32.1277   -2.0367   18.8619 C   0  0  1  0  0  0  0  0  0  0  0  0
   31.9124   -3.8075   15.9512 C   0  0  2  0  0  0  0  0  0  0  0  0
   31.8825   -3.9622   18.0541 C   0  0  2  0  0  0  0  0  0  0  0  0
   32.2457   -1.0168   19.7197 N   0  0  0  0  0  0  0  0  0  0  0  0
   31.9592   -3.3428   14.7066 N   0  0  0  0  0  0  0  0  0  0  0  0
   31.7620   -5.0874   16.2703 N   0  0  0  0  0  0  0  0  0  0  0  0
   31.9666   -3.3074   19.2141 N   0  0  0  0  0  0  0  0  0  0  0  0
   32.1344   -1.9335   17.5201 N   0  0  0  0  0  0  0  0  0  0  0  0
   31.7503   -5.1799   17.5060 N   0  0  0  0  0  0  0  0  0  0  0  0
   31.9869   -3.0757   17.0568 N   0  0  1  0  0  0  0  0  0  0  0  0
  1  4  1  1  0  0  0
  1  8  1  0  0  0  0
  1  7  1  0  0  0  0
  2  5  1  6  0  0  0
  2  6  1  0  0  0  0
  2 10  1  0  0  0  0
  3  7  1  1  0  0  0
  3 10  1  0  0  0  0
  3  9  1  0  0  0  0
  6  9  1  0  0  0  0
 10  8  1  1  0  0  0
M  END
>  <CHROM.1>
31.97272838,-3.27525788,17.48000015,-0.91548477,-1.45260148,-1.56208723

>  <Name>
ligand

>  <RI>
0

>  <Rbt.Current_Directory>
/home/itssahil/PROJECTS/Mol_Feturizer/Test_systems_manuscript/rnas/2xnw

>  <Rbt.Executable>
rbdock ($Id: //depot/dev/client3/rdock/2013.1/src/exe/rbdock.cxx#4 $)

>  <Rbt.Library>
libRbt.so (2013.1, Build901 2013/11/27)

>  <Rbt.Parameter_File>
/export/apps/rDock/src/rDock_2013.1_src/data/scripts/dock_solv.prm

>  <Rbt.Receptor>
prm/blind_docking_100.prm

>  <SCORE>
-6.19001

>  <SCORE.INTER>
-6.19001

>  <SCORE.INTER.CONST>
1

>  <SCORE.INTER.POLAR>
0

>  <SCORE.INTER.ROT>
0

>  <SCORE.INTER.SOLV>
5.77959

>  <SCORE.INTER.VDW>
-9.6532

>  <SCORE.INTER.norm>
-0.619001

>  <SCORE.INTRA>
0

>  <SCORE.INTRA.DIHEDRAL>
0

>  <SCORE.INTRA.DIHEDRAL.0>
0

>  <SCORE.INTRA.POLAR>
0

>  <SCORE.INTRA.POLAR.0>
0

>  <SCORE.INTRA.REPUL>
0

>  <SCORE.INTRA.REPUL.0>
0

>  <SCORE.INTRA.SOLV>
0

>  <SCORE.INTRA.SOLV.lig_0>
-47.9788

>  <SCORE.INTRA.VDW>
0

>  <SCORE.INTRA.VDW.0>
0

>  <SCORE.INTRA.norm>
0

>  <SCORE.RESTR>
0

>  <SCORE.RESTR.CAVITY>
0

>  <SCORE.RESTR.norm>
0

>  <SCORE.SYSTEM>
0

>  <SCORE.SYSTEM.CONST>
0

>  <SCORE.SYSTEM.DIHEDRAL>
0

>  <SCORE.SYSTEM.SOLV>
0

>  <SCORE.SYSTEM.norm>
0

>  <SCORE.heavy>
10

>  <SCORE.norm>
-0.619001

>  <RMSD>
22.417

$$$$
ligand
 OpenBabel02271912133D
libRbt.so/2013.1/901 2013/11/27
 10 11  0  0  0  0  0  0  0  0999 V2000
   32.1225   -2.0533   18.8777 C   0  0  1  0  0  0  0  0  0  0  0  0
   31.9148   -3.8041   15.9543 C   0  0  2  0  0  0  0  0  0  0  0  0
   31.8766   -3.9729   18.0561 C   0  0  2  0  0  0  0  0  0  0  0  0
   32.2392   -1.0394   19.7428 N   0  0  0  0  0  0  0  0  0  0  0  0
   31.9672   -3.3311   14.7131 N   0  0  0  0  0  0  0  0  0  0  0  0
   31.7607   -5.0859   16.2642 N   0  0  0  0  0  0  0  0  0  0  0  0
   31.9575   -3.3260   19.2207 N   0  0  0  0  0  0  0  0  0  0  0  0
   32.1344   -1.9412   17.5367 N   0  0  0  0  0  0  0  0  0  0  0  0
   31.7441   -5.1867   17.4993 N   0  0  0  0  0  0  0  0  0  0  0  0
   31.9865   -3.0799   17.0652 N   0  0  1  0  0  0  0  0  0  0  0  0
  1  4  1  1  0  0  0
  1  8  1  0  0  0  0
  1  7  1  0  0  0  0
  2  5  1  6  0  0  0
  2  6  1  0  0  0  0
  2 10  1  0  0  0  0
  3  7  1  1  0  0  0
  3 10  1  0  0  0  0
  3  9  1  0  0  0  0
  6  9  1  0  0  0  0
 10  8  1  1  0  0  0
M  END
>  <CHROM.1>
31.97031097,-3.28228391,17.48692610,-0.94727530,-1.45063855,-1.58692958

>  <Name>
ligand

>  <RI>
0

>  <Rbt.Current_Directory>
/home/itssahil/PROJECTS/Mol_Feturizer/Test_systems_manuscript/rnas/2xnw

>  <Rbt.Executable>
rbdock ($Id: //depot/dev/client3/rdock/2013.1/src/exe/rbdock.cxx#4 $)

>  <Rbt.Library>
libRbt.so (2013.1, Build901 2013/11/27)

>  <Rbt.Parameter_File>
/export/apps/rDock/src/rDock_2013.1_src/data/scripts/dock_solv.prm

>  <Rbt.Receptor>
prm/blind_docking_80.prm

>  <SCORE>
-6.18329

>  <SCORE.INTER>
-6.18329

>  <SCORE.INTER.CONST>
1

>  <SCORE.INTER.POLAR>
0

>  <SCORE.INTER.ROT>
0

>  <SCORE.INTER.SOLV>
5.85381

>  <SCORE.INTER.VDW>
-9.67346

>  <SCORE.INTER.norm>
-0.618329

>  <SCORE.INTRA>
0

>  <SCORE.INTRA.DIHEDRAL>
0

>  <SCORE.INTRA.DIHEDRAL.0>
0

>  <SCORE.INTRA.POLAR>
0

>  <SCORE.INTRA.POLAR.0>
0

>  <SCORE.INTRA.REPUL>
0

>  <SCORE.INTRA.REPUL.0>
0

>  <SCORE.INTRA.SOLV>
0

>  <SCORE.INTRA.SOLV.lig_0>
-47.9788

>  <SCORE.INTRA.VDW>
0

>  <SCORE.INTRA.VDW.0>
0

>  <SCORE.INTRA.norm>
0

>  <SCORE.RESTR>
0

>  <SCORE.RESTR.CAVITY>
0

>  <SCORE.RESTR.norm>
0

>  <SCORE.SYSTEM>
0

>  <SCORE.SYSTEM.CONST>
0

>  <SCORE.SYSTEM.DIHEDRAL>
0

>  <SCORE.SYSTEM.SOLV>
0

>  <SCORE.SYSTEM.norm>
0

>  <SCORE.heavy>
10

>  <SCORE.norm>
-0.618329

>  <RMSD>
22.418

$$$$
ligand
 OpenBabel02271912133D
libRbt.so/2013.1/901 2013/11/27
 10 11  0  0  0  0  0  0  0  0999 V2000
   32.1526   -2.0439   18.8544 C   0  0  1  0  0  0  0  0  0  0  0  0
   31.9075   -3.8144   15.9458 C   0  0  2  0  0  0  0  0  0  0  0  0
   31.8925   -3.9685   18.0490 C   0  0  2  0  0  0  0  0  0  0  0  0
   32.2817   -1.0244   19.7110 N   0  0  0  0  0  0  0  0  0  0  0  0
   31.9472   -3.3502   14.7008 N   0  0  0  0  0  0  0  0  0  0  0  0
   31.7535   -5.0936   16.2664 N   0  0  0  0  0  0  0  0  0  0  0  0
   31.9882   -3.3137   19.2081 N   0  0  0  0  0  0  0  0  0  0  0  0
   32.1498   -1.9412   17.5126 N   0  0  0  0  0  0  0  0  0  0  0  0
   31.7505   -5.1857   17.5022 N   0  0  0  0  0  0  0  0  0  0  0  0
   31.9936   -3.0827   17.0507 N   0  0  1  0  0  0  0  0  0  0  0  0
  1  4  1  1  0  0  0
  1  8  1  0  0  0  0
  1  7  1  0  0  0  0
  2  5  1  6  0  0  0
  2  6  1  0  0  0  0
  2 10  1  0  0  0  0
  3  7  1  6  0  0  0
  3 10  1  0  0  0  0
  3  9  1  0  0  0  0
  6  9  1  0  0  0  0
 10  8  1  6  0  0  0
M  END
>  <CHROM.1>
31.98158182,-3.28211529,17.47400952,-0.85531854,-1.44766215,-1.50262438

>  <Name>
ligand

>  <RI>
0

>  <Rbt.Current_Directory>
/home/itssahil/PROJECTS/Mol_Feturizer/Test_systems_manuscript/rnas/2xnw

>  <Rbt.Executable>
rbdock ($Id: //depot/dev/client3/rdock/2013.1/src/exe/rbdock.cxx#4 $)

>  <Rbt.Library>
libRbt.so (2013.1, Build901 2013/11/27)

>  <Rbt.Parameter_File>
/export/apps/rDock/src/rDock_2013.1_src/data/scripts/dock_solv.prm

>  <Rbt.Receptor>
prm/blind_docking_100.prm

>  <SCORE>
-6.1976

>  <SCORE.INTER>
-6.1976

>  <SCORE.INTER.CONST>
1

>  <SCORE.INTER.POLAR>
0

>  <SCORE.INTER.ROT>
0

>  <SCORE.INTER.SOLV>
5.66055

>  <SCORE.INTER.VDW>
-9.61859

>  <SCORE.INTER.norm>
-0.61976

>  <SCORE.INTRA>
0

>  <SCORE.INTRA.DIHEDRAL>
0

>  <SCORE.INTRA.DIHEDRAL.0>
0

>  <SCORE.INTRA.POLAR>
0

>  <SCORE.INTRA.POLAR.0>
0

>  <SCORE.INTRA.REPUL>
0

>  <SCORE.INTRA.REPUL.0>
0

>  <SCORE.INTRA.SOLV>
0

>  <SCORE.INTRA.SOLV.lig_0>
-47.9788

>  <SCORE.INTRA.VDW>
0

>  <SCORE.INTRA.VDW.0>
0

>  <SCORE.INTRA.norm>
0

>  <SCORE.RESTR>
0

>  <SCORE.RESTR.CAVITY>
0

>  <SCORE.RESTR.norm>
0

>  <SCORE.SYSTEM>
0

>  <SCORE.SYSTEM.CONST>
0

>  <SCORE.SYSTEM.DIHEDRAL>
0

>  <SCORE.SYSTEM.SOLV>
0

>  <SCORE.SYSTEM.norm>
0

>  <SCORE.heavy>
10

>  <SCORE.norm>
-0.61976

>  <RMSD>
22.423

$$$$
ligand
 OpenBabel02271912133D
libRbt.so/2013.1/901 2013/11/27
 10 11  0  0  0  0  0  0  0  0999 V2000
   32.1372   -2.0439   18.8690 C   0  0  1  0  0  0  0  0  0  0  0  0
   31.9392   -3.7682   15.9292 C   0  0  2  0  0  0  0  0  0  0  0  0
   31.8884   -3.9552   18.0291 C   0  0  2  0  0  0  0  0  0  0  0  0
   32.2530   -1.0381   19.7436 N   0  0  0  0  0  0  0  0  0  0  0  0
   32.0006   -3.2846   14.6925 N   0  0  0  0  0  0  0  0  0  0  0  0
   31.7783   -5.0520   16.2270 N   0  0  0  0  0  0  0  0  0  0  0  0
   31.9652   -3.3189   19.1999 N   0  0  0  0  0  0  0  0  0  0  0  0
   32.1573   -1.9201   17.5291 N   0  0  0  0  0  0  0  0  0  0  0  0
   31.7543   -5.1635   17.4610 N   0  0  0  0  0  0  0  0  0  0  0  0
   32.0075   -3.0540   17.0468 N   0  0  1  0  0  0  0  0  0  0  0  0
  1  4  1  6  0  0  0
  1  8  1  0  0  0  0
  1  7  1  0  0  0  0
  2  5  1  6  0  0  0
  2  6  1  0  0  0  0
  2 10  1  0  0  0  0
  3  7  1  1  0  0  0
  3 10  1  0  0  0  0
  3  9  1  0  0  0  0
  6  9  1  0  0  0  0
 10  8  1  1  0  0  0
M  END
>  <CHROM.1>
31.98809693,-3.26003800,17.46663778,-0.99276156,-1.44644576,-1.62330615

>  <Name>
ligand

>  <RI>
0

>  <Rbt.Current_Directory>
/home/itssahil/PROJECTS/Mol_Feturizer/Test_systems_manuscript/rnas/2xnw

>  <Rbt.Executable>
rbdock ($Id: //depot/dev/client3/rdock/2013.1/src/exe/rbdock.cxx#4 $)

>  <Rbt.Library>
libRbt.so (2013.1, Build901 2013/11/27)

>  <Rbt.Parameter_File>
/export/apps/rDock/src/rDock_2013.1_src/data/scripts/dock_solv.prm

>  <Rbt.Receptor>
prm/blind_docking_80.prm

>  <SCORE>
-6.20822

>  <SCORE.INTER>
-6.20822

>  <SCORE.INTER.CONST>
1

>  <SCORE.INTER.POLAR>
0

>  <SCORE.INTER.ROT>
0

>  <SCORE.INTER.SOLV>
5.75152

>  <SCORE.INTER.VDW>
-9.65599

>  <SCORE.INTER.norm>
-0.620822

>  <SCORE.INTRA>
0

>  <SCORE.INTRA.DIHEDRAL>
0

>  <SCORE.INTRA.DIHEDRAL.0>
0

>  <SCORE.INTRA.POLAR>
0

>  <SCORE.INTRA.POLAR.0>
0

>  <SCORE.INTRA.REPUL>
0

>  <SCORE.INTRA.REPUL.0>
0

>  <SCORE.INTRA.SOLV>
0

>  <SCORE.INTRA.SOLV.lig_0>
-47.9788

>  <SCORE.INTRA.VDW>
0

>  <SCORE.INTRA.VDW.0>
0

>  <SCORE.INTRA.norm>
0

>  <SCORE.RESTR>
0

>  <SCORE.RESTR.CAVITY>
0

>  <SCORE.RESTR.norm>
0

>  <SCORE.SYSTEM>
0

>  <SCORE.SYSTEM.CONST>
0

>  <SCORE.SYSTEM.DIHEDRAL>
0

>  <SCORE.SYSTEM.SOLV>
0

>  <SCORE.SYSTEM.norm>
0

>  <SCORE.heavy>
10

>  <SCORE.norm>
-0.620822

>  <RMSD>
22.424

$$$$
ligand
 OpenBabel02271912133D
libRbt.so/2013.1/901 2013/11/27
 10 11  0  0  0  0  0  0  0  0999 V2000
   32.1399   -2.0910   18.8853 C   0  0  1  0  0  0  0  0  0  0  0  0
   31.9355   -3.8263   15.9524 C   0  0  2  0  0  0  0  0  0  0  0  0
   31.8744   -4.0034   18.0529 C   0  0  2  0  0  0  0  0  0  0  0  0
   32.2629   -1.0826   19.7559 N   0  0  0  0  0  0  0  0  0  0  0  0
   32.0069   -3.3489   14.7138 N   0  0  0  0  0  0  0  0  0  0  0  0
   31.7599   -5.1070   16.2553 N   0  0  0  0  0  0  0  0  0  0  0  0
   31.9533   -3.3626   19.2212 N   0  0  0  0  0  0  0  0  0  0  0  0
   32.1666   -1.9734   17.5450 N   0  0  0  0  0  0  0  0  0  0  0  0
   31.7299   -5.2127   17.4896 N   0  0  0  0  0  0  0  0  0  0  0  0
   32.0069   -3.1079   17.0671 N   0  0  1  0  0  0  0  0  0  0  0  0
  1  4  1  6  0  0  0
  1  8  1  0  0  0  0
  1  7  1  0  0  0  0
  2  5  1  6  0  0  0
  2  6  1  0  0  0  0
  2 10  1  0  0  0  0
  3  7  1  1  0  0  0
  3 10  1  0  0  0  0
  3  9  1  0  0  0  0
  6  9  1  0  0  0  0
 10  8  1  1  0  0  0
M  END
>  <CHROM.1>
31.98363498,-3.31177694,17.48775712,-1.01791973,-1.43571494,-1.65271478

>  <Name>
ligand

>  <RI>
0

>  <Rbt.Current_Directory>
/home/itssahil/PROJECTS/Mol_Feturizer/Test_systems_manuscript/rnas/2xnw

>  <Rbt.Executable>
rbdock ($Id: //depot/dev/client3/rdock/2013.1/src/exe/rbdock.cxx#4 $)

>  <Rbt.Library>
libRbt.so (2013.1, Build901 2013/11/27)

>  <Rbt.Parameter_File>
/export/apps/rDock/src/rDock_2013.1_src/data/scripts/dock_solv.prm

>  <Rbt.Receptor>
prm/blind_docking_60.prm

>  <SCORE>
-6.18066

>  <SCORE.INTER>
-6.18066

>  <SCORE.INTER.CONST>
1

>  <SCORE.INTER.POLAR>
0

>  <SCORE.INTER.ROT>
0

>  <SCORE.INTER.SOLV>
5.86197

>  <SCORE.INTER.VDW>
-9.67443

>  <SCORE.INTER.norm>
-0.618066

>  <SCORE.INTRA>
0

>  <SCORE.INTRA.DIHEDRAL>
0

>  <SCORE.INTRA.DIHEDRAL.0>
0

>  <SCORE.INTRA.POLAR>
0

>  <SCORE.INTRA.POLAR.0>
0

>  <SCORE.INTRA.REPUL>
0

>  <SCORE.INTRA.REPUL.0>
0

>  <SCORE.INTRA.SOLV>
0

>  <SCORE.INTRA.SOLV.lig_0>
-47.9788

>  <SCORE.INTRA.VDW>
0

>  <SCORE.INTRA.VDW.0>
0

>  <SCORE.INTRA.norm>
0

>  <SCORE.RESTR>
0

>  <SCORE.RESTR.CAVITY>
0

>  <SCORE.RESTR.norm>
0

>  <SCORE.SYSTEM>
0

>  <SCORE.SYSTEM.CONST>
0

>  <SCORE.SYSTEM.DIHEDRAL>
0

>  <SCORE.SYSTEM.SOLV>
0

>  <SCORE.SYSTEM.norm>
0

>  <SCORE.heavy>
10

>  <SCORE.norm>
-0.618066

>  <RMSD>
22.432

$$$$
ligand
 OpenBabel02271912133D
libRbt.so/2013.1/901 2013/11/27
 10 11  0  0  0  0  0  0  0  0999 V2000
   32.1357   -2.0784   18.8925 C   0  0  1  0  0  0  0  0  0  0  0  0
   31.9611   -3.7722   15.9336 C   0  0  2  0  0  0  0  0  0  0  0  0
   31.8755   -3.9784   18.0306 C   0  0  2  0  0  0  0  0  0  0  0  0
   32.2508   -1.0825   19.7784 N   0  0  0  0  0  0  0  0  0  0  0  0
   32.0478   -3.2778   14.7027 N   0  0  0  0  0  0  0  0  0  0  0  0
   31.7792   -5.0566   16.2165 N   0  0  0  0  0  0  0  0  0  0  0  0
   31.9423   -3.3541   19.2085 N   0  0  0  0  0  0  0  0  0  0  0  0
   32.1780   -1.9423   17.5543 N   0  0  0  0  0  0  0  0  0  0  0  0
   31.7347   -5.1794   17.4489 N   0  0  0  0  0  0  0  0  0  0  0  0
   32.0212   -3.0696   17.0589 N   0  0  1  0  0  0  0  0  0  0  0  0
  1  4  1  6  0  0  0
  1  8  1  0  0  0  0
  1  7  1  0  0  0  0
  2  5  1  6  0  0  0
  2  6  1  0  0  0  0
  2 10  1  0  0  0  0
  3  7  1  1  0  0  0
  3 10  1  0  0  0  0
  3  9  1  0  0  0  0
  6  9  1  0  0  0  0
 10  8  1  1  0  0  0
M  END
>  <CHROM.1>
31.99271502,-3.27924433,17.47639902,-1.09968293,-1.43209051,-1.71979354

>  <Name>
ligand

>  <RI>
0

>  <Rbt.Current_Directory>
/home/itssahil/PROJECTS/Mol_Feturizer/Test_systems_manuscript/rnas/2xnw

>  <Rbt.Executable>
rbdock ($Id: //depot/dev/client3/rdock/2013.1/src/exe/rbdock.cxx#4 $)

>  <Rbt.Library>
libRbt.so (2013.1, Build901 2013/11/27)

>  <Rbt.Parameter_File>
/export/apps/rDock/src/rDock_2013.1_src/data/scripts/dock_solv.prm

>  <Rbt.Receptor>
prm/blind_docking_80.prm

>  <SCORE>
-6.20068

>  <SCORE.INTER>
-6.20068

>  <SCORE.INTER.CONST>
1

>  <SCORE.INTER.POLAR>
0

>  <SCORE.INTER.ROT>
0

>  <SCORE.INTER.SOLV>
5.87413

>  <SCORE.INTER.VDW>
-9.69183

>  <SCORE.INTER.norm>
-0.620068

>  <SCORE.INTRA>
0

>  <SCORE.INTRA.DIHEDRAL>
0

>  <SCORE.INTRA.DIHEDRAL.0>
0

>  <SCORE.INTRA.POLAR>
0

>  <SCORE.INTRA.POLAR.0>
0

>  <SCORE.INTRA.REPUL>
0

>  <SCORE.INTRA.REPUL.0>
0

>  <SCORE.INTRA.SOLV>
0

>  <SCORE.INTRA.SOLV.lig_0>
-47.9788

>  <SCORE.INTRA.VDW>
0

>  <SCORE.INTRA.VDW.0>
0

>  <SCORE.INTRA.norm>
0

>  <SCORE.RESTR>
0

>  <SCORE.RESTR.CAVITY>
0

>  <SCORE.RESTR.norm>
0

>  <SCORE.SYSTEM>
0

>  <SCORE.SYSTEM.CONST>
0

>  <SCORE.SYSTEM.DIHEDRAL>
0

>  <SCORE.SYSTEM.SOLV>
0

>  <SCORE.SYSTEM.norm>
0

>  <SCORE.heavy>
10

>  <SCORE.norm>
-0.620068

>  <RMSD>
22.433

$$$$
ligand
 OpenBabel02271912133D
libRbt.so/2013.1/901 2013/11/27
 10 11  0  0  0  0  0  0  0  0999 V2000
   31.9239   -3.2873   15.0380 C   0  0  1  0  0  0  0  0  0  0  0  0
   32.2455   -2.4890   18.3416 C   0  0  2  0  0  0  0  0  0  0  0  0
   31.7087   -4.0217   16.9962 C   0  0  2  0  0  0  0  0  0  0  0  0
   31.9439   -3.1945   13.7035 N   0  0  0  0  0  0  0  0  0  0  0  0
   32.6598   -1.3409   18.8684 N   0  0  0  0  0  0  0  0  0  0  0  0
   31.8821   -3.5524   19.0487 N   0  0  0  0  0  0  0  0  0  0  0  0
   31.5654   -4.3717   15.7162 N   0  0  0  0  0  0  0  0  0  0  0  0
   32.2792   -2.3117   15.8942 N   0  0  0  0  0  0  0  0  0  0  0  0
   31.5608   -4.4516   18.2588 N   0  0  0  0  0  0  0  0  0  0  0  0
   32.1495   -2.7588   17.0449 N   0  0  1  0  0  0  0  0  0  0  0  0
  1  4  1  6  0  0  0
  1  8  1  0  0  0  0
  1  7  1  0  0  0  0
  2  5  1  6  0  0  0
  2  6  1  0  0  0  0
  2 10  1  0  0  0  0
  3  7  1  1  0  0  0
  3 10  1  0  0  0  0
  3  9  1  0  0  0  0
  6  9  1  0  0  0  0
 10  8  1  1  0  0  0
M  END
>  <CHROM.1>
31.99333200,-3.17403949,16.89546477,-1.76213926,1.23508980,1.60645132

>  <Name>
ligand

>  <RI>
0

>  <Rbt.Current_Directory>
/home/itssahil/PROJECTS/Mol_Feturizer/Test_systems_manuscript/rnas/2xnw

>  <Rbt.Executable>
rbdock ($Id: //depot/dev/client3/rdock/2013.1/src/exe/rbdock.cxx#4 $)

>  <Rbt.Library>
libRbt.so (2013.1, Build901 2013/11/27)

>  <Rbt.Parameter_File>
/export/apps/rDock/src/rDock_2013.1_src/data/scripts/dock_solv.prm

>  <Rbt.Receptor>
prm/blind_docking_60.prm

>  <SCORE>
-4.77435

>  <SCORE.INTER>
-4.77435

>  <SCORE.INTER.CONST>
1

>  <SCORE.INTER.POLAR>
0

>  <SCORE.INTER.ROT>
0

>  <SCORE.INTER.SOLV>
3.96826

>  <SCORE.INTER.VDW>
-8.10565

>  <SCORE.INTER.norm>
-0.477435

>  <SCORE.INTRA>
0

>  <SCORE.INTRA.DIHEDRAL>
0

>  <SCORE.INTRA.DIHEDRAL.0>
0

>  <SCORE.INTRA.POLAR>
0

>  <SCORE.INTRA.POLAR.0>
0

>  <SCORE.INTRA.REPUL>
0

>  <SCORE.INTRA.REPUL.0>
0

>  <SCORE.INTRA.SOLV>
0

>  <SCORE.INTRA.SOLV.lig_0>
-47.9788

>  <SCORE.INTRA.VDW>
0

>  <SCORE.INTRA.VDW.0>
0

>  <SCORE.INTRA.norm>
0

>  <SCORE.RESTR>
0

>  <SCORE.RESTR.CAVITY>
0

>  <SCORE.RESTR.norm>
0

>  <SCORE.SYSTEM>
0

>  <SCORE.SYSTEM.CONST>
0

>  <SCORE.SYSTEM.DIHEDRAL>
0

>  <SCORE.SYSTEM.SOLV>
0

>  <SCORE.SYSTEM.norm>
0

>  <SCORE.heavy>
10

>  <SCORE.norm>
-0.477435

>  <RMSD>
22.436

$$$$
ligand
 OpenBabel02271912133D
libRbt.so/2013.1/901 2013/11/27
 10 11  0  0  0  0  0  0  0  0999 V2000
   31.9084   -3.2344   15.2022 C   0  0  1  0  0  0  0  0  0  0  0  0
   32.2181   -2.3856   18.4943 C   0  0  2  0  0  0  0  0  0  0  0  0
   31.6808   -3.9369   17.1707 C   0  0  2  0  0  0  0  0  0  0  0  0
   31.9350   -3.1627   13.8664 N   0  0  0  0  0  0  0  0  0  0  0  0
   32.6351   -1.2312   19.0049 N   0  0  0  0  0  0  0  0  0  0  0  0
   31.8467   -3.4361   19.2163 N   0  0  0  0  0  0  0  0  0  0  0  0
   31.5418   -4.3064   15.8957 N   0  0  0  0  0  0  0  0  0  0  0  0
   32.2640   -2.2470   16.0446 N   0  0  0  0  0  0  0  0  0  0  0  0
   31.5251   -4.3463   18.4391 N   0  0  0  0  0  0  0  0  0  0  0  0
   32.1270   -2.6754   17.2015 N   0  0  1  0  0  0  0  0  0  0  0  0
  1  4  1  6  0  0  0
  1  8  1  0  0  0  0
  1  7  1  0  0  0  0
  2  5  1  1  0  0  0
  2  6  1  0  0  0  0
  2 10  1  0  0  0  0
  3  7  1  6  0  0  0
  3 10  1  0  0  0  0
  3  9  1  0  0  0  0
  6  9  1  0  0  0  0
 10  8  1  6  0  0  0
M  END
>  <CHROM.1>
31.96963916,-3.09221203,17.05792728,-1.74765636,1.23074065,1.57704034

>  <Name>
ligand

>  <RI>
0

>  <Rbt.Current_Directory>
/home/itssahil/PROJECTS/Mol_Feturizer/Test_systems_manuscript/rnas/2xnw

>  <Rbt.Executable>
rbdock ($Id: //depot/dev/client3/rdock/2013.1/src/exe/rbdock.cxx#4 $)

>  <Rbt.Library>
libRbt.so (2013.1, Build901 2013/11/27)

>  <Rbt.Parameter_File>
/export/apps/rDock/src/rDock_2013.1_src/data/scripts/dock_solv.prm

>  <Rbt.Receptor>
prm/blind_docking_100.prm

>  <SCORE>
-4.76882

>  <SCORE.INTER>
-4.76882

>  <SCORE.INTER.CONST>
1

>  <SCORE.INTER.POLAR>
0

>  <SCORE.INTER.ROT>
0

>  <SCORE.INTER.SOLV>
4.11054

>  <SCORE.INTER.VDW>
-8.14939

>  <SCORE.INTER.norm>
-0.476882

>  <SCORE.INTRA>
0

>  <SCORE.INTRA.DIHEDRAL>
0

>  <SCORE.INTRA.DIHEDRAL.0>
0

>  <SCORE.INTRA.POLAR>
0

>  <SCORE.INTRA.POLAR.0>
0

>  <SCORE.INTRA.REPUL>
0

>  <SCORE.INTRA.REPUL.0>
0

>  <SCORE.INTRA.SOLV>
0

>  <SCORE.INTRA.SOLV.lig_0>
-47.9788

>  <SCORE.INTRA.VDW>
0

>  <SCORE.INTRA.VDW.0>
0

>  <SCORE.INTRA.norm>
0

>  <SCORE.RESTR>
0

>  <SCORE.RESTR.CAVITY>
0

>  <SCORE.RESTR.norm>
0

>  <SCORE.SYSTEM>
0

>  <SCORE.SYSTEM.CONST>
0

>  <SCORE.SYSTEM.DIHEDRAL>
0

>  <SCORE.SYSTEM.SOLV>
0

>  <SCORE.SYSTEM.norm>
0

>  <SCORE.heavy>
10

>  <SCORE.norm>
-0.476882

>  <RMSD>
22.475

$$$$
ligand
 OpenBabel02271912133D
libRbt.so/2013.1/901 2013/11/27
 10 11  0  0  0  0  0  0  0  0999 V2000
   31.9060   -3.2116   15.2850 C   0  0  1  0  0  0  0  0  0  0  0  0
   32.3548   -2.3674   18.5622 C   0  0  2  0  0  0  0  0  0  0  0  0
   31.6849   -3.8878   17.2634 C   0  0  2  0  0  0  0  0  0  0  0  0
   31.9025   -3.1488   13.9485 N   0  0  0  0  0  0  0  0  0  0  0  0
   32.8580   -1.2396   19.0540 N   0  0  0  0  0  0  0  0  0  0  0  0
   31.9356   -3.3881   19.3006 N   0  0  0  0  0  0  0  0  0  0  0  0
   31.4896   -4.2543   15.9949 N   0  0  0  0  0  0  0  0  0  0  0  0
   32.3459   -2.2447   16.1112 N   0  0  0  0  0  0  0  0  0  0  0  0
   31.5363   -4.2797   18.5382 N   0  0  0  0  0  0  0  0  0  0  0  0
   32.2117   -2.6575   17.2742 N   0  0  1  0  0  0  0  0  0  0  0  0
  1  4  1  6  0  0  0
  1  8  1  0  0  0  0
  1  7  1  0  0  0  0
  2  5  1  6  0  0  0
  2  6  1  0  0  0  0
  2 10  1  0  0  0  0
  3  7  1  1  0  0  0
  3 10  1  0  0  0  0
  3  9  1  0  0  0  0
  6  9  1  0  0  0  0
 10  8  1  1  0  0  0
M  END
>  <CHROM.1>
32.02435386,-3.06403877,17.13753582,-1.81250507,1.16565960,1.63144585

>  <Name>
ligand

>  <RI>
0

>  <Rbt.Current_Directory>
/home/itssahil/PROJECTS/Mol_Feturizer/Test_systems_manuscript/rnas/2xnw

>  <Rbt.Executable>
rbdock ($Id: //depot/dev/client3/rdock/2013.1/src/exe/rbdock.cxx#4 $)

>  <Rbt.Library>
libRbt.so (2013.1, Build901 2013/11/27)

>  <Rbt.Parameter_File>
/export/apps/rDock/src/rDock_2013.1_src/data/scripts/dock_solv.prm

>  <Rbt.Receptor>
prm/blind_docking_60.prm

>  <SCORE>
-4.8164

>  <SCORE.INTER>
-4.8164

>  <SCORE.INTER.CONST>
1

>  <SCORE.INTER.POLAR>
0

>  <SCORE.INTER.ROT>
0

>  <SCORE.INTER.SOLV>
3.59409

>  <SCORE.INTER.VDW>
-8.00897

>  <SCORE.INTER.norm>
-0.48164

>  <SCORE.INTRA>
0

>  <SCORE.INTRA.DIHEDRAL>
0

>  <SCORE.INTRA.DIHEDRAL.0>
0

>  <SCORE.INTRA.POLAR>
0

>  <SCORE.INTRA.POLAR.0>
0

>  <SCORE.INTRA.REPUL>
0

>  <SCORE.INTRA.REPUL.0>
0

>  <SCORE.INTRA.SOLV>
0

>  <SCORE.INTRA.SOLV.lig_0>
-47.9788

>  <SCORE.INTRA.VDW>
0

>  <SCORE.INTRA.VDW.0>
0

>  <SCORE.INTRA.norm>
0

>  <SCORE.RESTR>
0

>  <SCORE.RESTR.CAVITY>
0

>  <SCORE.RESTR.norm>
0

>  <SCORE.SYSTEM>
0

>  <SCORE.SYSTEM.CONST>
0

>  <SCORE.SYSTEM.DIHEDRAL>
0

>  <SCORE.SYSTEM.SOLV>
0

>  <SCORE.SYSTEM.norm>
0

>  <SCORE.heavy>
10

>  <SCORE.norm>
-0.48164

>  <RMSD>
22.557

$$$$
ligand
 OpenBabel02271912133D
libRbt.so/2013.1/901 2013/11/27
 10 11  0  0  0  0  0  0  0  0999 V2000
   32.5895   -0.8221   11.5461 C   0  0  1  0  0  0  0  0  0  0  0  0
   33.7164   -2.6256   14.2166 C   0  0  2  0  0  0  0  0  0  0  0  0
   34.0889   -0.9326   13.0157 C   0  0  2  0  0  0  0  0  0  0  0  0
   31.8408   -0.4202   10.5126 N   0  0  0  0  0  0  0  0  0  0  0  0
   33.1786   -3.7178   14.7506 N   0  0  0  0  0  0  0  0  0  0  0  0
   34.8201   -2.0368   14.6615 N   0  0  0  0  0  0  0  0  0  0  0  0
   33.6840   -0.2029   11.9740 N   0  0  0  0  0  0  0  0  0  0  0  0
   32.3423   -1.8959   12.3187 N   0  0  0  0  0  0  0  0  0  0  0  0
   35.0430   -1.0452   13.9526 N   0  0  0  0  0  0  0  0  0  0  0  0
   33.2327   -1.9478   13.1821 N   0  0  1  0  0  0  0  0  0  0  0  0
  1  4  1  1  0  0  0
  1  8  1  0  0  0  0
  1  7  1  0  0  0  0
  2  5  1  1  0  0  0
  2  6  1  0  0  0  0
  2 10  1  0  0  0  0
  3  7  1  6  0  0  0
  3 10  1  0  0  0  0
  3  9  1  0  0  0  0
  6  9  1  0  0  0  0
 10  8  1  6  0  0  0
M  END
>  <CHROM.1>
33.45313527,-1.56935926,13.01694205,2.07454647,-0.58280329,-0.74344729

>  <Name>
ligand

>  <RI>
0

>  <Rbt.Current_Directory>
/home/itssahil/PROJECTS/Mol_Feturizer/Test_systems_manuscript/rnas/2xnw

>  <Rbt.Executable>
rbdock ($Id: //depot/dev/client3/rdock/2013.1/src/exe/rbdock.cxx#4 $)

>  <Rbt.Library>
libRbt.so (2013.1, Build901 2013/11/27)

>  <Rbt.Parameter_File>
/export/apps/rDock/src/rDock_2013.1_src/data/scripts/dock_solv.prm

>  <Rbt.Receptor>
prm/blind_docking_40.prm

>  <SCORE>
-6.06518

>  <SCORE.INTER>
-6.06518

>  <SCORE.INTER.CONST>
1

>  <SCORE.INTER.POLAR>
0

>  <SCORE.INTER.ROT>
0

>  <SCORE.INTER.SOLV>
4.43263

>  <SCORE.INTER.VDW>
-9.121

>  <SCORE.INTER.norm>
-0.606518

>  <SCORE.INTRA>
0

>  <SCORE.INTRA.DIHEDRAL>
0

>  <SCORE.INTRA.DIHEDRAL.0>
0

>  <SCORE.INTRA.POLAR>
0

>  <SCORE.INTRA.POLAR.0>
0

>  <SCORE.INTRA.REPUL>
0

>  <SCORE.INTRA.REPUL.0>
0

>  <SCORE.INTRA.SOLV>
0

>  <SCORE.INTRA.SOLV.lig_0>
-47.9788

>  <SCORE.INTRA.VDW>
0

>  <SCORE.INTRA.VDW.0>
0

>  <SCORE.INTRA.norm>
0

>  <SCORE.RESTR>
0

>  <SCORE.RESTR.CAVITY>
0

>  <SCORE.RESTR.norm>
0

>  <SCORE.SYSTEM>
0

>  <SCORE.SYSTEM.CONST>
0

>  <SCORE.SYSTEM.DIHEDRAL>
0

>  <SCORE.SYSTEM.SOLV>
0

>  <SCORE.SYSTEM.norm>
0

>  <SCORE.heavy>
10

>  <SCORE.norm>
-0.606518

>  <RMSD>
22.561

$$$$
ligand
 OpenBabel02271912133D
libRbt.so/2013.1/901 2013/11/27
 10 11  0  0  0  0  0  0  0  0999 V2000
   34.5944   -2.1125   14.8354 C   0  0  1  0  0  0  0  0  0  0  0  0
   32.3028   -1.4796   12.3854 C   0  0  2  0  0  0  0  0  0  0  0  0
   34.2088   -0.9576   13.1214 C   0  0  2  0  0  0  0  0  0  0  0  0
   35.1871   -2.6452   15.9101 N   0  0  0  0  0  0  0  0  0  0  0  0
   31.1179   -2.0551   12.2063 N   0  0  0  0  0  0  0  0  0  0  0  0
   32.8042   -0.5322   11.6020 N   0  0  0  0  0  0  0  0  0  0  0  0
   35.1288   -1.1721   14.0643 N   0  0  0  0  0  0  0  0  0  0  0  0
   33.3831   -2.4566   14.3605 N   0  0  0  0  0  0  0  0  0  0  0  0
   33.9218   -0.2206   12.0373 N   0  0  0  0  0  0  0  0  0  0  0  0
   33.1695   -1.7696   13.3489 N   0  0  1  0  0  0  0  0  0  0  0  0
  1  4  1  6  0  0  0
  1  8  1  0  0  0  0
  1  7  1  0  0  0  0
  2  5  1  6  0  0  0
  2  6  1  0  0  0  0
  2 10  1  0  0  0  0
  3  7  1  1  0  0  0
  3 10  1  0  0  0  0
  3  9  1  0  0  0  0
  6  9  1  0  0  0  0
 10  8  1  1  0  0  0
M  END
>  <CHROM.1>
33.57647540,-1.54114940,13.38446515,0.83390673,0.43498814,2.25888690

>  <Name>
ligand

>  <RI>
0

>  <Rbt.Current_Directory>
/home/itssahil/PROJECTS/Mol_Feturizer/Test_systems_manuscript/rnas/2xnw

>  <Rbt.Executable>
rbdock ($Id: //depot/dev/client3/rdock/2013.1/src/exe/rbdock.cxx#4 $)

>  <Rbt.Library>
libRbt.so (2013.1, Build901 2013/11/27)

>  <Rbt.Parameter_File>
/export/apps/rDock/src/rDock_2013.1_src/data/scripts/dock_solv.prm

>  <Rbt.Receptor>
prm/blind_docking_100.prm

>  <SCORE>
-5.73393

>  <SCORE.INTER>
-5.73393

>  <SCORE.INTER.CONST>
1

>  <SCORE.INTER.POLAR>
0

>  <SCORE.INTER.ROT>
0

>  <SCORE.INTER.SOLV>
5.95546

>  <SCORE.INTER.VDW>
-9.40777

>  <SCORE.INTER.norm>
-0.573393

>  <SCORE.INTRA>
0

>  <SCORE.INTRA.DIHEDRAL>
0

>  <SCORE.INTRA.DIHEDRAL.0>
0

>  <SCORE.INTRA.POLAR>
0

>  <SCORE.INTRA.POLAR.0>
0

>  <SCORE.INTRA.REPUL>
0

>  <SCORE.INTRA.REPUL.0>
0

>  <SCORE.INTRA.SOLV>
0

>  <SCORE.INTRA.SOLV.lig_0>
-47.9788

>  <SCORE.INTRA.VDW>
0

>  <SCORE.INTRA.VDW.0>
0

>  <SCORE.INTRA.norm>
0

>  <SCORE.RESTR>
0

>  <SCORE.RESTR.CAVITY>
0

>  <SCORE.RESTR.norm>
0

>  <SCORE.SYSTEM>
0

>  <SCORE.SYSTEM.CONST>
0

>  <SCORE.SYSTEM.DIHEDRAL>
0

>  <SCORE.SYSTEM.SOLV>
0

>  <SCORE.SYSTEM.norm>
0

>  <SCORE.heavy>
10

>  <SCORE.norm>
-0.573393

>  <RMSD>
22.598

$$$$
ligand
 OpenBabel02271912133D
libRbt.so/2013.1/901 2013/11/27
 10 11  0  0  0  0  0  0  0  0999 V2000
   32.5026   -0.9163   11.7384 C   0  0  1  0  0  0  0  0  0  0  0  0
   33.7424   -2.1791   14.6578 C   0  0  2  0  0  0  0  0  0  0  0  0
   34.1984   -0.9868   12.9792 C   0  0  2  0  0  0  0  0  0  0  0  0
   31.6659   -0.6331   10.7336 N   0  0  0  0  0  0  0  0  0  0  0  0
   33.1169   -2.9417   15.5491 N   0  0  0  0  0  0  0  0  0  0  0  0
   34.9992   -1.7667   14.7717 N   0  0  0  0  0  0  0  0  0  0  0  0
   33.7533   -0.4776   11.8285 N   0  0  0  0  0  0  0  0  0  0  0  0
   32.2049   -1.6671   12.8148 N   0  0  0  0  0  0  0  0  0  0  0  0
   35.2699   -1.0708   13.7827 N   0  0  0  0  0  0  0  0  0  0  0  0
   33.2127   -1.6985   13.5388 N   0  0  1  0  0  0  0  0  0  0  0  0
  1  4  1  1  0  0  0
  1  8  1  0  0  0  0
  1  7  1  0  0  0  0
  2  5  1  1  0  0  0
  2  6  1  0  0  0  0
  2 10  1  0  0  0  0
  3  7  1  6  0  0  0
  3 10  1  0  0  0  0
  3  9  1  0  0  0  0
  6  9  1  0  0  0  0
 10  8  1  6  0  0  0
M  END
>  <CHROM.1>
33.46597647,-1.43702911,13.24455716,2.06017908,-0.31813009,-1.03316333

>  <Name>
ligand

>  <RI>
0

>  <Rbt.Current_Directory>
/home/itssahil/PROJECTS/Mol_Feturizer/Test_systems_manuscript/rnas/2xnw

>  <Rbt.Executable>
rbdock ($Id: //depot/dev/client3/rdock/2013.1/src/exe/rbdock.cxx#4 $)

>  <Rbt.Library>
libRbt.so (2013.1, Build901 2013/11/27)

>  <Rbt.Parameter_File>
/export/apps/rDock/src/rDock_2013.1_src/data/scripts/dock_solv.prm

>  <Rbt.Receptor>
prm/blind_docking_100.prm

>  <SCORE>
-6.36146

>  <SCORE.INTER>
-6.36146

>  <SCORE.INTER.CONST>
1

>  <SCORE.INTER.POLAR>
0

>  <SCORE.INTER.ROT>
0

>  <SCORE.INTER.SOLV>
3.64548

>  <SCORE.INTER.VDW>
-9.05613

>  <SCORE.INTER.norm>
-0.636146

>  <SCORE.INTRA>
0

>  <SCORE.INTRA.DIHEDRAL>
0

>  <SCORE.INTRA.DIHEDRAL.0>
0

>  <SCORE.INTRA.POLAR>
0

>  <SCORE.INTRA.POLAR.0>
0

>  <SCORE.INTRA.REPUL>
0

>  <SCORE.INTRA.REPUL.0>
0

>  <SCORE.INTRA.SOLV>
0

>  <SCORE.INTRA.SOLV.lig_0>
-47.9788

>  <SCORE.INTRA.VDW>
0

>  <SCORE.INTRA.VDW.0>
0

>  <SCORE.INTRA.norm>
0

>  <SCORE.RESTR>
0

>  <SCORE.RESTR.CAVITY>
0

>  <SCORE.RESTR.norm>
0

>  <SCORE.SYSTEM>
0

>  <SCORE.SYSTEM.CONST>
0

>  <SCORE.SYSTEM.DIHEDRAL>
0

>  <SCORE.SYSTEM.SOLV>
0

>  <SCORE.SYSTEM.norm>
0

>  <SCORE.heavy>
10

>  <SCORE.norm>
-0.636146

>  <RMSD>
22.631

$$$$
ligand
 OpenBabel02271912133D
libRbt.so/2013.1/901 2013/11/27
 10 11  0  0  0  0  0  0  0  0999 V2000
   31.6611   -2.9824   16.0218 C   0  0  1  0  0  0  0  0  0  0  0  0
   32.1883   -1.8546   19.2006 C   0  0  2  0  0  0  0  0  0  0  0  0
   31.7611   -3.5628   18.0401 C   0  0  2  0  0  0  0  0  0  0  0  0
   31.5313   -3.0071   14.6904 N   0  0  0  0  0  0  0  0  0  0  0  0
   32.4716   -0.6161   19.5918 N   0  0  0  0  0  0  0  0  0  0  0  0
   32.0669   -2.8922   20.0199 N   0  0  0  0  0  0  0  0  0  0  0  0
   31.5447   -4.0427   16.8136 N   0  0  0  0  0  0  0  0  0  0  0  0
   31.9463   -1.8931   16.7587 N   0  0  0  0  0  0  0  0  0  0  0  0
   31.8100   -3.8954   19.3392 N   0  0  0  0  0  0  0  0  0  0  0  0
   32.0044   -2.2500   17.9462 N   0  0  1  0  0  0  0  0  0  0  0  0
  1  4  1  6  0  0  0
  1  8  1  0  0  0  0
  1  7  1  0  0  0  0
  2  5  1  6  0  0  0
  2  6  1  0  0  0  0
  2 10  1  0  0  0  0
  3  7  1  1  0  0  0
  3 10  1  0  0  0  0
  3  9  1  0  0  0  0
  6  9  1  0  0  0  0
 10  8  1  1  0  0  0
M  END
>  <CHROM.1>
31.89983238,-2.69516855,17.84617324,-2.29331062,1.35865397,2.03779867

>  <Name>
ligand

>  <RI>
0

>  <Rbt.Current_Directory>
/home/itssahil/PROJECTS/Mol_Feturizer/Test_systems_manuscript/rnas/2xnw

>  <Rbt.Executable>
rbdock ($Id: //depot/dev/client3/rdock/2013.1/src/exe/rbdock.cxx#4 $)

>  <Rbt.Library>
libRbt.so (2013.1, Build901 2013/11/27)

>  <Rbt.Parameter_File>
/export/apps/rDock/src/rDock_2013.1_src/data/scripts/dock_solv.prm

>  <Rbt.Receptor>
prm/blind_docking_80.prm

>  <SCORE>
-4.72433

>  <SCORE.INTER>
-4.72433

>  <SCORE.INTER.CONST>
1

>  <SCORE.INTER.POLAR>
0

>  <SCORE.INTER.ROT>
0

>  <SCORE.INTER.SOLV>
5.45641

>  <SCORE.INTER.VDW>
-8.56836

>  <SCORE.INTER.norm>
-0.472433

>  <SCORE.INTRA>
0

>  <SCORE.INTRA.DIHEDRAL>
0

>  <SCORE.INTRA.DIHEDRAL.0>
0

>  <SCORE.INTRA.POLAR>
0

>  <SCORE.INTRA.POLAR.0>
0

>  <SCORE.INTRA.REPUL>
0

>  <SCORE.INTRA.REPUL.0>
0

>  <SCORE.INTRA.SOLV>
0

>  <SCORE.INTRA.SOLV.lig_0>
-47.9788

>  <SCORE.INTRA.VDW>
0

>  <SCORE.INTRA.VDW.0>
0

>  <SCORE.INTRA.norm>
0

>  <SCORE.RESTR>
0

>  <SCORE.RESTR.CAVITY>
0

>  <SCORE.RESTR.norm>
0

>  <SCORE.SYSTEM>
0

>  <SCORE.SYSTEM.CONST>
0

>  <SCORE.SYSTEM.DIHEDRAL>
0

>  <SCORE.SYSTEM.SOLV>
0

>  <SCORE.SYSTEM.norm>
0

>  <SCORE.heavy>
10

>  <SCORE.norm>
-0.472433

>  <RMSD>
22.721

$$$$
ligand
 OpenBabel02271912133D
libRbt.so/2013.1/901 2013/11/27
 10 11  0  0  0  0  0  0  0  0999 V2000
   32.6553   -1.0572   11.7328 C   0  0  1  0  0  0  0  0  0  0  0  0
   33.9794   -2.5919   14.4799 C   0  0  2  0  0  0  0  0  0  0  0  0
   34.2911   -1.0701   13.0536 C   0  0  2  0  0  0  0  0  0  0  0  0
   31.8211   -0.7416   10.7356 N   0  0  0  0  0  0  0  0  0  0  0  0
   33.4581   -3.5868   15.1908 N   0  0  0  0  0  0  0  0  0  0  0  0
   35.1438   -2.0105   14.7422 N   0  0  0  0  0  0  0  0  0  0  0  0
   33.8101   -0.4472   11.9756 N   0  0  0  0  0  0  0  0  0  0  0  0
   32.4479   -2.0206   12.6494 N   0  0  0  0  0  0  0  0  0  0  0  0
   35.3305   -1.1200   13.9008 N   0  0  0  0  0  0  0  0  0  0  0  0
   33.4188   -2.0157   13.4228 N   0  0  1  0  0  0  0  0  0  0  0  0
  1  4  1  1  0  0  0
  1  8  1  0  0  0  0
  1  7  1  0  0  0  0
  2  5  1  1  0  0  0
  2  6  1  0  0  0  0
  2 10  1  0  0  0  0
  3  7  1  6  0  0  0
  3 10  1  0  0  0  0
  3  9  1  0  0  0  0
  6  9  1  0  0  0  0
 10  8  1  6  0  0  0
M  END
>  <CHROM.1>
33.63531910,-1.67030771,13.19279039,2.12104618,-0.48197495,-0.83866302

>  <Name>
ligand

>  <RI>
0

>  <Rbt.Current_Directory>
/home/itssahil/PROJECTS/Mol_Feturizer/Test_systems_manuscript/rnas/2xnw

>  <Rbt.Executable>
rbdock ($Id: //depot/dev/client3/rdock/2013.1/src/exe/rbdock.cxx#4 $)

>  <Rbt.Library>
libRbt.so (2013.1, Build901 2013/11/27)

>  <Rbt.Parameter_File>
/export/apps/rDock/src/rDock_2013.1_src/data/scripts/dock_solv.prm

>  <Rbt.Receptor>
prm/blind_docking_100.prm

>  <SCORE>
-6.44131

>  <SCORE.INTER>
-6.44131

>  <SCORE.INTER.CONST>
1

>  <SCORE.INTER.POLAR>
0

>  <SCORE.INTER.ROT>
0

>  <SCORE.INTER.SOLV>
3.57789

>  <SCORE.INTER.VDW>
-9.08684

>  <SCORE.INTER.norm>
-0.644131

>  <SCORE.INTRA>
0

>  <SCORE.INTRA.DIHEDRAL>
0

>  <SCORE.INTRA.DIHEDRAL.0>
0

>  <SCORE.INTRA.POLAR>
0

>  <SCORE.INTRA.POLAR.0>
0

>  <SCORE.INTRA.REPUL>
0

>  <SCORE.INTRA.REPUL.0>
0

>  <SCORE.INTRA.SOLV>
0

>  <SCORE.INTRA.SOLV.lig_0>
-47.9788

>  <SCORE.INTRA.VDW>
0

>  <SCORE.INTRA.VDW.0>
0

>  <SCORE.INTRA.norm>
0

>  <SCORE.RESTR>
0

>  <SCORE.RESTR.CAVITY>
0

>  <SCORE.RESTR.norm>
0

>  <SCORE.SYSTEM>
0

>  <SCORE.SYSTEM.CONST>
0

>  <SCORE.SYSTEM.DIHEDRAL>
0

>  <SCORE.SYSTEM.SOLV>
0

>  <SCORE.SYSTEM.norm>
0

>  <SCORE.heavy>
10

>  <SCORE.norm>
-0.644131

>  <RMSD>
22.778

$$$$
ligand
 OpenBabel02271912133D
libRbt.so/2013.1/901 2013/11/27
 10 11  0  0  0  0  0  0  0  0999 V2000
   32.4888   -1.9980   20.3942 C   0  0  1  0  0  0  0  0  0  0  0  0
   31.4684   -2.5503   17.1835 C   0  0  2  0  0  0  0  0  0  0  0  0
   31.9655   -3.4878   19.0060 C   0  0  2  0  0  0  0  0  0  0  0  0
   32.8634   -1.3717   21.5155 N   0  0  0  0  0  0  0  0  0  0  0  0
   31.2182   -1.6488   16.2391 N   0  0  0  0  0  0  0  0  0  0  0  0
   31.3495   -3.8625   17.0203 N   0  0  0  0  0  0  0  0  0  0  0  0
   32.3683   -3.3148   20.2666 N   0  0  0  0  0  0  0  0  0  0  0  0
   32.1598   -1.3965   19.2362 N   0  0  0  0  0  0  0  0  0  0  0  0
   31.6473   -4.4145   18.0891 N   0  0  0  0  0  0  0  0  0  0  0  0
   31.8515   -2.2863   18.4274 N   0  0  1  0  0  0  0  0  0  0  0  0
  1  4  1  1  0  0  0
  1  8  1  0  0  0  0
  1  7  1  0  0  0  0
  2  5  1  1  0  0  0
  2  6  1  0  0  0  0
  2 10  1  0  0  0  0
  3  7  1  6  0  0  0
  3 10  1  0  0  0  0
  3  9  1  0  0  0  0
  6  9  1  0  0  0  0
 10  8  1  6  0  0  0
M  END
>  <CHROM.1>
31.93644029,-2.63108597,18.73227243,0.09600146,-1.26785020,-0.17124327

>  <Name>
ligand

>  <RI>
0

>  <Rbt.Current_Directory>
/home/itssahil/PROJECTS/Mol_Feturizer/Test_systems_manuscript/rnas/2xnw

>  <Rbt.Executable>
rbdock ($Id: //depot/dev/client3/rdock/2013.1/src/exe/rbdock.cxx#4 $)

>  <Rbt.Library>
libRbt.so (2013.1, Build901 2013/11/27)

>  <Rbt.Parameter_File>
/export/apps/rDock/src/rDock_2013.1_src/data/scripts/dock_solv.prm

>  <Rbt.Receptor>
prm/blind_docking_40.prm

>  <SCORE>
-5.79185

>  <SCORE.INTER>
-5.79185

>  <SCORE.INTER.CONST>
1

>  <SCORE.INTER.POLAR>
0

>  <SCORE.INTER.ROT>
0

>  <SCORE.INTER.SOLV>
6.67599

>  <SCORE.INTER.VDW>
-9.68656

>  <SCORE.INTER.norm>
-0.579185

>  <SCORE.INTRA>
0

>  <SCORE.INTRA.DIHEDRAL>
0

>  <SCORE.INTRA.DIHEDRAL.0>
0

>  <SCORE.INTRA.POLAR>
0

>  <SCORE.INTRA.POLAR.0>
0

>  <SCORE.INTRA.REPUL>
0

>  <SCORE.INTRA.REPUL.0>
0

>  <SCORE.INTRA.SOLV>
0

>  <SCORE.INTRA.SOLV.lig_0>
-47.9788

>  <SCORE.INTRA.VDW>
0

>  <SCORE.INTRA.VDW.0>
0

>  <SCORE.INTRA.norm>
0

>  <SCORE.RESTR>
0

>  <SCORE.RESTR.CAVITY>
0

>  <SCORE.RESTR.norm>
0

>  <SCORE.SYSTEM>
0

>  <SCORE.SYSTEM.CONST>
0

>  <SCORE.SYSTEM.DIHEDRAL>
0

>  <SCORE.SYSTEM.SOLV>
0

>  <SCORE.SYSTEM.norm>
0

>  <SCORE.heavy>
10

>  <SCORE.norm>
-0.579185

>  <RMSD>
22.903

$$$$
ligand
 OpenBabel02271912133D
libRbt.so/2013.1/901 2013/11/27
 10 11  0  0  0  0  0  0  0  0999 V2000
   31.5693   -3.0653   17.3731 C   0  0  1  0  0  0  0  0  0  0  0  0
   32.6020   -1.5826   20.2695 C   0  0  2  0  0  0  0  0  0  0  0  0
   32.0308   -3.4142   19.3943 C   0  0  2  0  0  0  0  0  0  0  0  0
   31.2136   -3.2406   16.0953 N   0  0  0  0  0  0  0  0  0  0  0  0
   32.9129   -0.3054   20.4680 N   0  0  0  0  0  0  0  0  0  0  0  0
   32.6527   -2.5227   21.2057 N   0  0  0  0  0  0  0  0  0  0  0  0
   31.6208   -4.0309   18.2839 N   0  0  0  0  0  0  0  0  0  0  0  0
   31.9456   -1.8975   17.9259 N   0  0  0  0  0  0  0  0  0  0  0  0
   32.3114   -3.5983   20.6936 N   0  0  0  0  0  0  0  0  0  0  0  0
   32.2168   -2.1181   19.1170 N   0  0  1  0  0  0  0  0  0  0  0  0
  1  4  1  6  0  0  0
  1  8  1  0  0  0  0
  1  7  1  0  0  0  0
  2  5  1  6  0  0  0
  2  6  1  0  0  0  0
  2 10  1  0  0  0  0
  3  7  1  1  0  0  0
  3 10  1  0  0  0  0
  3  9  1  0  0  0  0
  6  9  1  0  0  0  0
 10  8  1  1  0  0  0
M  END
>  <CHROM.1>
32.10938502,-2.57267212,19.08577661,-2.86522284,1.25886321,2.48002415

>  <Name>
ligand

>  <RI>
0

>  <Rbt.Current_Directory>
/home/itssahil/PROJECTS/Mol_Feturizer/Test_systems_manuscript/rnas/2xnw

>  <Rbt.Executable>
rbdock ($Id: //depot/dev/client3/rdock/2013.1/src/exe/rbdock.cxx#4 $)

>  <Rbt.Library>
libRbt.so (2013.1, Build901 2013/11/27)

>  <Rbt.Parameter_File>
/export/apps/rDock/src/rDock_2013.1_src/data/scripts/dock_solv.prm

>  <Rbt.Receptor>
prm/blind_docking_100.prm

>  <SCORE>
-5.48118

>  <SCORE.INTER>
-5.48118

>  <SCORE.INTER.CONST>
1

>  <SCORE.INTER.POLAR>
0

>  <SCORE.INTER.ROT>
0

>  <SCORE.INTER.SOLV>
7.82486

>  <SCORE.INTER.VDW>
-9.86241

>  <SCORE.INTER.norm>
-0.548118

>  <SCORE.INTRA>
0

>  <SCORE.INTRA.DIHEDRAL>
0

>  <SCORE.INTRA.DIHEDRAL.0>
0

>  <SCORE.INTRA.POLAR>
0

>  <SCORE.INTRA.POLAR.0>
0

>  <SCORE.INTRA.REPUL>
0

>  <SCORE.INTRA.REPUL.0>
0

>  <SCORE.INTRA.SOLV>
0

>  <SCORE.INTRA.SOLV.lig_0>
-47.9788

>  <SCORE.INTRA.VDW>
0

>  <SCORE.INTRA.VDW.0>
0

>  <SCORE.INTRA.norm>
0

>  <SCORE.RESTR>
0

>  <SCORE.RESTR.CAVITY>
0

>  <SCORE.RESTR.norm>
0

>  <SCORE.SYSTEM>
0

>  <SCORE.SYSTEM.CONST>
0

>  <SCORE.SYSTEM.DIHEDRAL>
0

>  <SCORE.SYSTEM.SOLV>
0

>  <SCORE.SYSTEM.norm>
0

>  <SCORE.heavy>
10

>  <SCORE.norm>
-0.548118

>  <RMSD>
23.458

$$$$
ligand
 OpenBabel02271912133D
libRbt.so/2013.1/901 2013/11/27
 10 11  0  0  0  0  0  0  0  0999 V2000
   33.0141   -1.7672   20.1782 C   0  0  1  0  0  0  0  0  0  0  0  0
   32.7154   -3.2856   17.1352 C   0  0  2  0  0  0  0  0  0  0  0  0
   32.0427   -3.3118   19.1337 C   0  0  2  0  0  0  0  0  0  0  0  0
   33.4027   -0.9245   21.1419 N   0  0  0  0  0  0  0  0  0  0  0  0
   33.3291   -2.9679   15.9996 N   0  0  0  0  0  0  0  0  0  0  0  0
   31.8484   -4.2824   17.2674 N   0  0  0  0  0  0  0  0  0  0  0  0
   32.1342   -2.7490   20.3405 N   0  0  0  0  0  0  0  0  0  0  0  0
   33.4355   -1.7403   18.9004 N   0  0  0  0  0  0  0  0  0  0  0  0
   31.4571   -4.3022   18.4431 N   0  0  0  0  0  0  0  0  0  0  0  0
   32.8534   -2.6547   18.2956 N   0  0  1  0  0  0  0  0  0  0  0  0
  1  4  1  6  0  0  0
  1  8  1  0  0  0  0
  1  7  1  0  0  0  0
  2  5  1  6  0  0  0
  2  6  1  0  0  0  0
  2 10  1  0  0  0  0
  3  7  1  1  0  0  0
  3 10  1  0  0  0  0
  3  9  1  0  0  0  0
  6  9  1  0  0  0  0
 10  8  1  1  0  0  0
M  END
>  <CHROM.1>
32.62471655,-2.79899788,18.67765208,-1.34242274,-0.84470090,-1.93542873

>  <Name>
ligand

>  <RI>
0

>  <Rbt.Current_Directory>
/home/itssahil/PROJECTS/Mol_Feturizer/Test_systems_manuscript/rnas/2xnw

>  <Rbt.Executable>
rbdock ($Id: //depot/dev/client3/rdock/2013.1/src/exe/rbdock.cxx#4 $)

>  <Rbt.Library>
libRbt.so (2013.1, Build901 2013/11/27)

>  <Rbt.Parameter_File>
/export/apps/rDock/src/rDock_2013.1_src/data/scripts/dock_solv.prm

>  <Rbt.Receptor>
prm/blind_docking_100.prm

>  <SCORE>
-5.65327

>  <SCORE.INTER>
-5.65327

>  <SCORE.INTER.CONST>
1

>  <SCORE.INTER.POLAR>
0

>  <SCORE.INTER.ROT>
0

>  <SCORE.INTER.SOLV>
2.58099

>  <SCORE.INTER.VDW>
-8.22918

>  <SCORE.INTER.norm>
-0.565327

>  <SCORE.INTRA>
0

>  <SCORE.INTRA.DIHEDRAL>
0

>  <SCORE.INTRA.DIHEDRAL.0>
0

>  <SCORE.INTRA.POLAR>
0

>  <SCORE.INTRA.POLAR.0>
0

>  <SCORE.INTRA.REPUL>
0

>  <SCORE.INTRA.REPUL.0>
0

>  <SCORE.INTRA.SOLV>
0

>  <SCORE.INTRA.SOLV.lig_0>
-47.9788

>  <SCORE.INTRA.VDW>
0

>  <SCORE.INTRA.VDW.0>
0

>  <SCORE.INTRA.norm>
0

>  <SCORE.RESTR>
0

>  <SCORE.RESTR.CAVITY>
0

>  <SCORE.RESTR.norm>
0

>  <SCORE.SYSTEM>
0

>  <SCORE.SYSTEM.CONST>
0

>  <SCORE.SYSTEM.DIHEDRAL>
0

>  <SCORE.SYSTEM.SOLV>
0

>  <SCORE.SYSTEM.norm>
0

>  <SCORE.heavy>
10

>  <SCORE.norm>
-0.565327

>  <RMSD>
23.514

$$$$
ligand
 OpenBabel02271912133D
libRbt.so/2013.1/901 2013/11/27
 10 11  0  0  0  0  0  0  0  0999 V2000
   31.6335   -2.7903   17.5237 C   0  0  1  0  0  0  0  0  0  0  0  0
   32.5092   -1.6550   20.6219 C   0  0  2  0  0  0  0  0  0  0  0  0
   32.0485   -3.3795   19.4988 C   0  0  2  0  0  0  0  0  0  0  0  0
   31.3253   -2.8127   16.2220 N   0  0  0  0  0  0  0  0  0  0  0  0
   32.7558   -0.4028   20.9938 N   0  0  0  0  0  0  0  0  0  0  0  0
   32.5738   -2.7058   21.4309 N   0  0  0  0  0  0  0  0  0  0  0  0
   31.7009   -3.8630   18.3043 N   0  0  0  0  0  0  0  0  0  0  0  0
   31.9396   -1.6897   18.2351 N   0  0  0  0  0  0  0  0  0  0  0  0
   32.2974   -3.7190   20.7730 N   0  0  0  0  0  0  0  0  0  0  0  0
   32.1840   -2.0518   19.3970 N   0  0  1  0  0  0  0  0  0  0  0  0
  1  4  1  6  0  0  0
  1  8  1  0  0  0  0
  1  7  1  0  0  0  0
  2  5  1  6  0  0  0
  2  6  1  0  0  0  0
  2 10  1  0  0  0  0
  3  7  1  1  0  0  0
  3 10  1  0  0  0  0
  3  9  1  0  0  0  0
  6  9  1  0  0  0  0
 10  8  1  1  0  0  0
M  END
>  <CHROM.1>
32.09828440,-2.50243753,19.30387358,-2.93124223,1.31025699,2.67292193

>  <Name>
ligand

>  <RI>
0

>  <Rbt.Current_Directory>
/home/itssahil/PROJECTS/Mol_Feturizer/Test_systems_manuscript/rnas/2xnw

>  <Rbt.Executable>
rbdock ($Id: //depot/dev/client3/rdock/2013.1/src/exe/rbdock.cxx#4 $)

>  <Rbt.Library>
libRbt.so (2013.1, Build901 2013/11/27)

>  <Rbt.Parameter_File>
/export/apps/rDock/src/rDock_2013.1_src/data/scripts/dock_solv.prm

>  <Rbt.Receptor>
prm/blind_docking_40.prm

>  <SCORE>
-5.51228

>  <SCORE.INTER>
-5.51228

>  <SCORE.INTER.CONST>
1

>  <SCORE.INTER.POLAR>
0

>  <SCORE.INTER.ROT>
0

>  <SCORE.INTER.SOLV>
6.66681

>  <SCORE.INTER.VDW>
-9.49712

>  <SCORE.INTER.norm>
-0.551228

>  <SCORE.INTRA>
0

>  <SCORE.INTRA.DIHEDRAL>
0

>  <SCORE.INTRA.DIHEDRAL.0>
0

>  <SCORE.INTRA.POLAR>
0

>  <SCORE.INTRA.POLAR.0>
0

>  <SCORE.INTRA.REPUL>
0

>  <SCORE.INTRA.REPUL.0>
0

>  <SCORE.INTRA.SOLV>
0

>  <SCORE.INTRA.SOLV.lig_0>
-47.9788

>  <SCORE.INTRA.VDW>
0

>  <SCORE.INTRA.VDW.0>
0

>  <SCORE.INTRA.norm>
0

>  <SCORE.RESTR>
0

>  <SCORE.RESTR.CAVITY>
0

>  <SCORE.RESTR.norm>
0

>  <SCORE.SYSTEM>
0

>  <SCORE.SYSTEM.CONST>
0

>  <SCORE.SYSTEM.DIHEDRAL>
0

>  <SCORE.SYSTEM.SOLV>
0

>  <SCORE.SYSTEM.norm>
0

>  <SCORE.heavy>
10

>  <SCORE.norm>
-0.551228

>  <RMSD>
23.551

$$$$
ligand
 OpenBabel02271912133D
libRbt.so/2013.1/901 2013/11/27
 10 11  0  0  0  0  0  0  0  0999 V2000
   33.0446   -1.9210   20.3143 C   0  0  1  0  0  0  0  0  0  0  0  0
   32.7700   -3.2660   17.1886 C   0  0  2  0  0  0  0  0  0  0  0  0
   32.0402   -3.3666   19.1646 C   0  0  2  0  0  0  0  0  0  0  0  0
   33.4402   -1.1466   21.3311 N   0  0  0  0  0  0  0  0  0  0  0  0
   33.4284   -2.9166   16.0879 N   0  0  0  0  0  0  0  0  0  0  0  0
   31.8590   -4.2302   17.2452 N   0  0  0  0  0  0  0  0  0  0  0  0
   32.1205   -2.8713   20.4014 N   0  0  0  0  0  0  0  0  0  0  0  0
   33.5029   -1.8462   19.0512 N   0  0  0  0  0  0  0  0  0  0  0  0
   31.4339   -4.2939   18.4075 N   0  0  0  0  0  0  0  0  0  0  0  0
   32.9009   -2.7023   18.3839 N   0  0  1  0  0  0  0  0  0  0  0  0
  1  4  1  6  0  0  0
  1  8  1  0  0  0  0
  1  7  1  0  0  0  0
  2  5  1  6  0  0  0
  2  6  1  0  0  0  0
  2 10  1  0  0  0  0
  3  7  1  1  0  0  0
  3 10  1  0  0  0  0
  3  9  1  0  0  0  0
  6  9  1  0  0  0  0
 10  8  1  1  0  0  0
M  END
>  <CHROM.1>
32.65565920,-2.85628930,18.75167617,-1.35931765,-0.79579808,-1.89548327

>  <Name>
ligand

>  <RI>
0

>  <Rbt.Current_Directory>
/home/itssahil/PROJECTS/Mol_Feturizer/Test_systems_manuscript/rnas/2xnw

>  <Rbt.Executable>
rbdock ($Id: //depot/dev/client3/rdock/2013.1/src/exe/rbdock.cxx#4 $)

>  <Rbt.Library>
libRbt.so (2013.1, Build901 2013/11/27)

>  <Rbt.Parameter_File>
/export/apps/rDock/src/rDock_2013.1_src/data/scripts/dock_solv.prm

>  <Rbt.Receptor>
prm/blind_docking_40.prm

>  <SCORE>
-5.66913

>  <SCORE.INTER>
-5.66913

>  <SCORE.INTER.CONST>
1

>  <SCORE.INTER.POLAR>
0

>  <SCORE.INTER.ROT>
0

>  <SCORE.INTER.SOLV>
2.44538

>  <SCORE.INTER.VDW>
-8.19455

>  <SCORE.INTER.norm>
-0.566913

>  <SCORE.INTRA>
0

>  <SCORE.INTRA.DIHEDRAL>
0

>  <SCORE.INTRA.DIHEDRAL.0>
0

>  <SCORE.INTRA.POLAR>
0

>  <SCORE.INTRA.POLAR.0>
0

>  <SCORE.INTRA.REPUL>
0

>  <SCORE.INTRA.REPUL.0>
0

>  <SCORE.INTRA.SOLV>
0

>  <SCORE.INTRA.SOLV.lig_0>
-47.9788

>  <SCORE.INTRA.VDW>
0

>  <SCORE.INTRA.VDW.0>
0

>  <SCORE.INTRA.norm>
0

>  <SCORE.RESTR>
0

>  <SCORE.RESTR.CAVITY>
0

>  <SCORE.RESTR.norm>
0

>  <SCORE.SYSTEM>
0

>  <SCORE.SYSTEM.CONST>
0

>  <SCORE.SYSTEM.DIHEDRAL>
0

>  <SCORE.SYSTEM.SOLV>
0

>  <SCORE.SYSTEM.norm>
0

>  <SCORE.heavy>
10

>  <SCORE.norm>
-0.566913

>  <RMSD>
23.577

$$$$
ligand
 OpenBabel02271912133D
libRbt.so/2013.1/901 2013/11/27
 10 11  0  0  0  0  0  0  0  0999 V2000
   33.1288    3.4756    9.6755 C   0  0  1  0  0  0  0  0  0  0  0  0
   35.7976    5.3731    8.7106 C   0  0  2  0  0  0  0  0  0  0  0  0
   35.1456    3.4030    9.0862 C   0  0  2  0  0  0  0  0  0  0  0  0
   31.8973    3.1230   10.0619 N   0  0  0  0  0  0  0  0  0  0  0  0
   35.8483    6.6921    8.5534 N   0  0  0  0  0  0  0  0  0  0  0  0
   36.8196    4.5516    8.5021 N   0  0  0  0  0  0  0  0  0  0  0  0
   34.1281    2.6263    9.4640 N   0  0  0  0  0  0  0  0  0  0  0  0
   33.5387    4.7325    9.4242 N   0  0  0  0  0  0  0  0  0  0  0  0
   36.4389    3.3942    8.7284 N   0  0  0  0  0  0  0  0  0  0  0  0
   34.7287    4.6748    9.0759 N   0  0  1  0  0  0  0  0  0  0  0  0
  1  4  1  6  0  0  0
  1  8  1  0  0  0  0
  1  7  1  0  0  0  0
  2  5  1  6  0  0  0
  2  6  1  0  0  0  0
  2 10  1  0  0  0  0
  3  7  1  1  0  0  0
  3 10  1  0  0  0  0
  3  9  1  0  0  0  0
  6  9  1  0  0  0  0
 10  8  1  1  0  0  0
M  END
>  <CHROM.1>
34.74968737,4.21000340,9.12691634,2.61754634,-0.27882440,3.03933556

>  <Name>
ligand

>  <RI>
0

>  <Rbt.Current_Directory>
/home/itssahil/PROJECTS/Mol_Feturizer/Test_systems_manuscript/rnas/2xnw

>  <Rbt.Executable>
rbdock ($Id: //depot/dev/client3/rdock/2013.1/src/exe/rbdock.cxx#4 $)

>  <Rbt.Library>
libRbt.so (2013.1, Build901 2013/11/27)

>  <Rbt.Parameter_File>
/export/apps/rDock/src/rDock_2013.1_src/data/scripts/dock_solv.prm

>  <Rbt.Receptor>
prm/blind_docking_40.prm

>  <SCORE>
-7.21758

>  <SCORE.INTER>
-7.21758

>  <SCORE.INTER.CONST>
1

>  <SCORE.INTER.POLAR>
0

>  <SCORE.INTER.ROT>
0

>  <SCORE.INTER.SOLV>
8.28188

>  <SCORE.INTER.VDW>
-11.1723

>  <SCORE.INTER.norm>
-0.721758

>  <SCORE.INTRA>
0

>  <SCORE.INTRA.DIHEDRAL>
0

>  <SCORE.INTRA.DIHEDRAL.0>
0

>  <SCORE.INTRA.POLAR>
0

>  <SCORE.INTRA.POLAR.0>
0

>  <SCORE.INTRA.REPUL>
0

>  <SCORE.INTRA.REPUL.0>
0

>  <SCORE.INTRA.SOLV>
0

>  <SCORE.INTRA.SOLV.lig_0>
-47.9788

>  <SCORE.INTRA.VDW>
0

>  <SCORE.INTRA.VDW.0>
0

>  <SCORE.INTRA.norm>
0

>  <SCORE.RESTR>
0

>  <SCORE.RESTR.CAVITY>
0

>  <SCORE.RESTR.norm>
0

>  <SCORE.SYSTEM>
0

>  <SCORE.SYSTEM.CONST>
0

>  <SCORE.SYSTEM.DIHEDRAL>
0

>  <SCORE.SYSTEM.SOLV>
0

>  <SCORE.SYSTEM.norm>
0

>  <SCORE.heavy>
10

>  <SCORE.norm>
-0.721758

>  <RMSD>
23.925

$$$$
ligand
 OpenBabel02271912133D
libRbt.so/2013.1/901 2013/11/27
 10 11  0  0  0  0  0  0  0  0999 V2000
   33.1309    3.4686    9.6740 C   0  0  1  0  0  0  0  0  0  0  0  0
   35.7968    5.3740    8.7168 C   0  0  2  0  0  0  0  0  0  0  0  0
   35.1512    3.4026    9.0959 C   0  0  2  0  0  0  0  0  0  0  0  0
   31.8989    3.1121   10.0551 N   0  0  0  0  0  0  0  0  0  0  0  0
   35.8427    6.6927    8.5552 N   0  0  0  0  0  0  0  0  0  0  0  0
   36.8234    4.5562    8.5167 N   0  0  0  0  0  0  0  0  0  0  0  0
   34.1349    2.6228    9.4709 N   0  0  0  0  0  0  0  0  0  0  0  0
   33.5368    4.7263    9.4205 N   0  0  0  0  0  0  0  0  0  0  0  0
   36.4464    3.3980    8.7450 N   0  0  0  0  0  0  0  0  0  0  0  0
   34.7289    4.6725    9.0788 N   0  0  1  0  0  0  0  0  0  0  0  0
  1  4  1  6  0  0  0
  1  8  1  0  0  0  0
  1  7  1  0  0  0  0
  2  5  1  6  0  0  0
  2  6  1  0  0  0  0
  2 10  1  0  0  0  0
  3  7  1  1  0  0  0
  3 10  1  0  0  0  0
  3  9  1  0  0  0  0
  6  9  1  0  0  0  0
 10  8  1  1  0  0  0
M  END
>  <CHROM.1>
34.75160157,4.20800374,9.13158981,2.61372783,-0.27301993,3.03477162

>  <Name>
ligand

>  <RI>
0

>  <Rbt.Current_Directory>
/home/itssahil/PROJECTS/Mol_Feturizer/Test_systems_manuscript/rnas/2xnw

>  <Rbt.Executable>
rbdock ($Id: //depot/dev/client3/rdock/2013.1/src/exe/rbdock.cxx#4 $)

>  <Rbt.Library>
libRbt.so (2013.1, Build901 2013/11/27)

>  <Rbt.Parameter_File>
/export/apps/rDock/src/rDock_2013.1_src/data/scripts/dock_solv.prm

>  <Rbt.Receptor>
prm/blind_docking_80.prm

>  <SCORE>
-7.21815

>  <SCORE.INTER>
-7.21815

>  <SCORE.INTER.CONST>
1

>  <SCORE.INTER.POLAR>
0

>  <SCORE.INTER.ROT>
0

>  <SCORE.INTER.SOLV>
8.25252

>  <SCORE.INTER.VDW>
-11.1629

>  <SCORE.INTER.norm>
-0.721815

>  <SCORE.INTRA>
0

>  <SCORE.INTRA.DIHEDRAL>
0

>  <SCORE.INTRA.DIHEDRAL.0>
0

>  <SCORE.INTRA.POLAR>
0

>  <SCORE.INTRA.POLAR.0>
0

>  <SCORE.INTRA.REPUL>
0

>  <SCORE.INTRA.REPUL.0>
0

>  <SCORE.INTRA.SOLV>
0

>  <SCORE.INTRA.SOLV.lig_0>
-47.9788

>  <SCORE.INTRA.VDW>
0

>  <SCORE.INTRA.VDW.0>
0

>  <SCORE.INTRA.norm>
0

>  <SCORE.RESTR>
0

>  <SCORE.RESTR.CAVITY>
0

>  <SCORE.RESTR.norm>
0

>  <SCORE.SYSTEM>
0

>  <SCORE.SYSTEM.CONST>
0

>  <SCORE.SYSTEM.DIHEDRAL>
0

>  <SCORE.SYSTEM.SOLV>
0

>  <SCORE.SYSTEM.norm>
0

>  <SCORE.heavy>
10

>  <SCORE.norm>
-0.721815

>  <RMSD>
23.927

$$$$
ligand
 OpenBabel02271912133D
libRbt.so/2013.1/901 2013/11/27
 10 11  0  0  0  0  0  0  0  0999 V2000
   33.1341    3.4671    9.6754 C   0  0  1  0  0  0  0  0  0  0  0  0
   35.7919    5.3796    8.7094 C   0  0  2  0  0  0  0  0  0  0  0  0
   35.1546    3.4071    9.0969 C   0  0  2  0  0  0  0  0  0  0  0  0
   31.9038    3.1071   10.0583 N   0  0  0  0  0  0  0  0  0  0  0  0
   35.8322    6.6978    8.5422 N   0  0  0  0  0  0  0  0  0  0  0  0
   36.8218    4.5653    8.5124 N   0  0  0  0  0  0  0  0  0  0  0  0
   34.1416    2.6247    9.4756 N   0  0  0  0  0  0  0  0  0  0  0  0
   33.5347    4.7255    9.4165 N   0  0  0  0  0  0  0  0  0  0  0  0
   36.4497    3.4065    8.7457 N   0  0  0  0  0  0  0  0  0  0  0  0
   34.7270    4.6752    9.0746 N   0  0  1  0  0  0  0  0  0  0  0  0
  1  4  1  6  0  0  0
  1  8  1  0  0  0  0
  1  7  1  0  0  0  0
  2  5  1  6  0  0  0
  2  6  1  0  0  0  0
  2 10  1  0  0  0  0
  3  7  1  1  0  0  0
  3 10  1  0  0  0  0
  3  9  1  0  0  0  0
  6  9  1  0  0  0  0
 10  8  1  1  0  0  0
M  END
>  <CHROM.1>
34.75163316,4.21100621,9.12936213,2.60939565,-0.27285435,3.02939495

>  <Name>
ligand

>  <RI>
0

>  <Rbt.Current_Directory>
/home/itssahil/PROJECTS/Mol_Feturizer/Test_systems_manuscript/rnas/2xnw

>  <Rbt.Executable>
rbdock ($Id: //depot/dev/client3/rdock/2013.1/src/exe/rbdock.cxx#4 $)

>  <Rbt.Library>
libRbt.so (2013.1, Build901 2013/11/27)

>  <Rbt.Parameter_File>
/export/apps/rDock/src/rDock_2013.1_src/data/scripts/dock_solv.prm

>  <Rbt.Receptor>
prm/blind_docking_40.prm

>  <SCORE>
-7.21625

>  <SCORE.INTER>
-7.21625

>  <SCORE.INTER.CONST>
1

>  <SCORE.INTER.POLAR>
0

>  <SCORE.INTER.ROT>
0

>  <SCORE.INTER.SOLV>
8.27642

>  <SCORE.INTER.VDW>
-11.1696

>  <SCORE.INTER.norm>
-0.721625

>  <SCORE.INTRA>
0

>  <SCORE.INTRA.DIHEDRAL>
0

>  <SCORE.INTRA.DIHEDRAL.0>
0

>  <SCORE.INTRA.POLAR>
0

>  <SCORE.INTRA.POLAR.0>
0

>  <SCORE.INTRA.REPUL>
0

>  <SCORE.INTRA.REPUL.0>
0

>  <SCORE.INTRA.SOLV>
0

>  <SCORE.INTRA.SOLV.lig_0>
-47.9788

>  <SCORE.INTRA.VDW>
0

>  <SCORE.INTRA.VDW.0>
0

>  <SCORE.INTRA.norm>
0

>  <SCORE.RESTR>
0

>  <SCORE.RESTR.CAVITY>
0

>  <SCORE.RESTR.norm>
0

>  <SCORE.SYSTEM>
0

>  <SCORE.SYSTEM.CONST>
0

>  <SCORE.SYSTEM.DIHEDRAL>
0

>  <SCORE.SYSTEM.SOLV>
0

>  <SCORE.SYSTEM.norm>
0

>  <SCORE.heavy>
10

>  <SCORE.norm>
-0.721625

>  <RMSD>
23.928

$$$$
ligand
 OpenBabel02271912133D
libRbt.so/2013.1/901 2013/11/27
 10 11  0  0  0  0  0  0  0  0999 V2000
   33.1330    3.4649    9.6735 C   0  0  1  0  0  0  0  0  0  0  0  0
   35.7967    5.3752    8.7197 C   0  0  2  0  0  0  0  0  0  0  0  0
   35.1559    3.4031    9.1040 C   0  0  2  0  0  0  0  0  0  0  0  0
   31.9006    3.1059   10.0508 N   0  0  0  0  0  0  0  0  0  0  0  0
   35.8390    6.6933    8.5529 N   0  0  0  0  0  0  0  0  0  0  0  0
   36.8268    4.5599    8.5272 N   0  0  0  0  0  0  0  0  0  0  0  0
   34.1406    2.6216    9.4780 N   0  0  0  0  0  0  0  0  0  0  0  0
   33.5359    4.7229    9.4166 N   0  0  0  0  0  0  0  0  0  0  0  0
   36.4526    3.4014    8.7586 N   0  0  0  0  0  0  0  0  0  0  0  0
   34.7296    4.6716    9.0800 N   0  0  1  0  0  0  0  0  0  0  0  0
  1  4  1  6  0  0  0
  1  8  1  0  0  0  0
  1  7  1  0  0  0  0
  2  5  1  6  0  0  0
  2  6  1  0  0  0  0
  2 10  1  0  0  0  0
  3  7  1  1  0  0  0
  3 10  1  0  0  0  0
  3  9  1  0  0  0  0
  6  9  1  0  0  0  0
 10  8  1  1  0  0  0
M  END
>  <CHROM.1>
34.75354242,4.20738750,9.13478684,2.61083680,-0.26851672,3.02996791

>  <Name>
ligand

>  <RI>
0

>  <Rbt.Current_Directory>
/home/itssahil/PROJECTS/Mol_Feturizer/Test_systems_manuscript/rnas/2xnw

>  <Rbt.Executable>
rbdock ($Id: //depot/dev/client3/rdock/2013.1/src/exe/rbdock.cxx#4 $)

>  <Rbt.Library>
libRbt.so (2013.1, Build901 2013/11/27)

>  <Rbt.Parameter_File>
/export/apps/rDock/src/rDock_2013.1_src/data/scripts/dock_solv.prm

>  <Rbt.Receptor>
prm/blind_docking_80.prm

>  <SCORE>
-7.21449

>  <SCORE.INTER>
-7.21449

>  <SCORE.INTER.CONST>
1

>  <SCORE.INTER.POLAR>
0

>  <SCORE.INTER.ROT>
0

>  <SCORE.INTER.SOLV>
8.23751

>  <SCORE.INTER.VDW>
-11.1555

>  <SCORE.INTER.norm>
-0.721449

>  <SCORE.INTRA>
0

>  <SCORE.INTRA.DIHEDRAL>
0

>  <SCORE.INTRA.DIHEDRAL.0>
0

>  <SCORE.INTRA.POLAR>
0

>  <SCORE.INTRA.POLAR.0>
0

>  <SCORE.INTRA.REPUL>
0

>  <SCORE.INTRA.REPUL.0>
0

>  <SCORE.INTRA.SOLV>
0

>  <SCORE.INTRA.SOLV.lig_0>
-47.9788

>  <SCORE.INTRA.VDW>
0

>  <SCORE.INTRA.VDW.0>
0

>  <SCORE.INTRA.norm>
0

>  <SCORE.RESTR>
0

>  <SCORE.RESTR.CAVITY>
0

>  <SCORE.RESTR.norm>
0

>  <SCORE.SYSTEM>
0

>  <SCORE.SYSTEM.CONST>
0

>  <SCORE.SYSTEM.DIHEDRAL>
0

>  <SCORE.SYSTEM.SOLV>
0

>  <SCORE.SYSTEM.norm>
0

>  <SCORE.heavy>
10

>  <SCORE.norm>
-0.721449

>  <RMSD>
23.929

$$$$
ligand
 OpenBabel02271912133D
libRbt.so/2013.1/901 2013/11/27
 10 11  0  0  0  0  0  0  0  0999 V2000
   33.1291    3.5040    9.6902 C   0  0  1  0  0  0  0  0  0  0  0  0
   35.8304    5.3518    8.7191 C   0  0  2  0  0  0  0  0  0  0  0  0
   35.1383    3.3929    9.0810 C   0  0  2  0  0  0  0  0  0  0  0  0
   31.8938    3.1748   10.0847 N   0  0  0  0  0  0  0  0  0  0  0  0
   35.9089    6.6710    8.5746 N   0  0  0  0  0  0  0  0  0  0  0  0
   36.8319    4.5101    8.4926 N   0  0  0  0  0  0  0  0  0  0  0  0
   34.1073    2.6351    9.4607 N   0  0  0  0  0  0  0  0  0  0  0  0
   33.5645    4.7541    9.4476 N   0  0  0  0  0  0  0  0  0  0  0  0
   36.4277    3.3592    8.7108 N   0  0  0  0  0  0  0  0  0  0  0  0
   34.7497    4.6737    9.0874 N   0  0  1  0  0  0  0  0  0  0  0  0
  1  4  1  6  0  0  0
  1  8  1  0  0  0  0
  1  7  1  0  0  0  0
  2  5  1  6  0  0  0
  2  6  1  0  0  0  0
  2 10  1  0  0  0  0
  3  7  1  1  0  0  0
  3 10  1  0  0  0  0
  3  9  1  0  0  0  0
  6  9  1  0  0  0  0
 10  8  1  1  0  0  0
M  END
>  <CHROM.1>
34.76078565,4.20802088,9.13357996,2.63962993,-0.29027258,3.05569079

>  <Name>
ligand

>  <RI>
0

>  <Rbt.Current_Directory>
/home/itssahil/PROJECTS/Mol_Feturizer/Test_systems_manuscript/rnas/2xnw

>  <Rbt.Executable>
rbdock ($Id: //depot/dev/client3/rdock/2013.1/src/exe/rbdock.cxx#4 $)

>  <Rbt.Library>
libRbt.so (2013.1, Build901 2013/11/27)

>  <Rbt.Parameter_File>
/export/apps/rDock/src/rDock_2013.1_src/data/scripts/dock_solv.prm

>  <Rbt.Receptor>
prm/blind_docking_40.prm

>  <SCORE>
-7.20368

>  <SCORE.INTER>
-7.20368

>  <SCORE.INTER.CONST>
1

>  <SCORE.INTER.POLAR>
0

>  <SCORE.INTER.ROT>
0

>  <SCORE.INTER.SOLV>
8.33994

>  <SCORE.INTER.VDW>
-11.1824

>  <SCORE.INTER.norm>
-0.720368

>  <SCORE.INTRA>
0

>  <SCORE.INTRA.DIHEDRAL>
0

>  <SCORE.INTRA.DIHEDRAL.0>
0

>  <SCORE.INTRA.POLAR>
0

>  <SCORE.INTRA.POLAR.0>
0

>  <SCORE.INTRA.REPUL>
0

>  <SCORE.INTRA.REPUL.0>
0

>  <SCORE.INTRA.SOLV>
0

>  <SCORE.INTRA.SOLV.lig_0>
-47.9788

>  <SCORE.INTRA.VDW>
0

>  <SCORE.INTRA.VDW.0>
0

>  <SCORE.INTRA.norm>
0

>  <SCORE.RESTR>
0

>  <SCORE.RESTR.CAVITY>
0

>  <SCORE.RESTR.norm>
0

>  <SCORE.SYSTEM>
0

>  <SCORE.SYSTEM.CONST>
0

>  <SCORE.SYSTEM.DIHEDRAL>
0

>  <SCORE.SYSTEM.SOLV>
0

>  <SCORE.SYSTEM.norm>
0

>  <SCORE.heavy>
10

>  <SCORE.norm>
-0.720368

>  <RMSD>
23.935

$$$$
ligand
 OpenBabel02271912133D
libRbt.so/2013.1/901 2013/11/27
 10 11  0  0  0  0  0  0  0  0999 V2000
   33.1351    3.5072    9.6936 C   0  0  1  0  0  0  0  0  0  0  0  0
   35.8330    5.3528    8.7088 C   0  0  2  0  0  0  0  0  0  0  0  0
   35.1450    3.3955    9.0868 C   0  0  2  0  0  0  0  0  0  0  0  0
   31.9003    3.1786   10.0901 N   0  0  0  0  0  0  0  0  0  0  0  0
   35.9086    6.6708    8.5533 N   0  0  0  0  0  0  0  0  0  0  0  0
   36.8366    4.5115    8.4902 N   0  0  0  0  0  0  0  0  0  0  0  0
   34.1154    2.6385    9.4721 N   0  0  0  0  0  0  0  0  0  0  0  0
   33.5679    4.7561    9.4408 N   0  0  0  0  0  0  0  0  0  0  0  0
   36.4348    3.3615    8.7178 N   0  0  0  0  0  0  0  0  0  0  0  0
   34.7535    4.6754    9.0821 N   0  0  1  0  0  0  0  0  0  0  0  0
  1  4  1  6  0  0  0
  1  8  1  0  0  0  0
  1  7  1  0  0  0  0
  2  5  1  6  0  0  0
  2  6  1  0  0  0  0
  2 10  1  0  0  0  0
  3  7  1  1  0  0  0
  3 10  1  0  0  0  0
  3  9  1  0  0  0  0
  6  9  1  0  0  0  0
 10  8  1  1  0  0  0
M  END
>  <CHROM.1>
34.76564850,4.21012627,9.13225877,2.63737135,-0.28935825,3.04660724

>  <Name>
ligand

>  <RI>
0

>  <Rbt.Current_Directory>
/home/itssahil/PROJECTS/Mol_Feturizer/Test_systems_manuscript/rnas/2xnw

>  <Rbt.Executable>
rbdock ($Id: //depot/dev/client3/rdock/2013.1/src/exe/rbdock.cxx#4 $)

>  <Rbt.Library>
libRbt.so (2013.1, Build901 2013/11/27)

>  <Rbt.Parameter_File>
/export/apps/rDock/src/rDock_2013.1_src/data/scripts/dock_solv.prm

>  <Rbt.Receptor>
prm/blind_docking_100.prm

>  <SCORE>
-7.19458

>  <SCORE.INTER>
-7.19458

>  <SCORE.INTER.CONST>
1

>  <SCORE.INTER.POLAR>
0

>  <SCORE.INTER.ROT>
0

>  <SCORE.INTER.SOLV>
8.38504

>  <SCORE.INTER.VDW>
-11.1914

>  <SCORE.INTER.norm>
-0.719458

>  <SCORE.INTRA>
0

>  <SCORE.INTRA.DIHEDRAL>
0

>  <SCORE.INTRA.DIHEDRAL.0>
0

>  <SCORE.INTRA.POLAR>
0

>  <SCORE.INTRA.POLAR.0>
0

>  <SCORE.INTRA.REPUL>
0

>  <SCORE.INTRA.REPUL.0>
0

>  <SCORE.INTRA.SOLV>
0

>  <SCORE.INTRA.SOLV.lig_0>
-47.9788

>  <SCORE.INTRA.VDW>
0

>  <SCORE.INTRA.VDW.0>
0

>  <SCORE.INTRA.norm>
0

>  <SCORE.RESTR>
0

>  <SCORE.RESTR.CAVITY>
0

>  <SCORE.RESTR.norm>
0

>  <SCORE.SYSTEM>
0

>  <SCORE.SYSTEM.CONST>
0

>  <SCORE.SYSTEM.DIHEDRAL>
0

>  <SCORE.SYSTEM.SOLV>
0

>  <SCORE.SYSTEM.norm>
0

>  <SCORE.heavy>
10

>  <SCORE.norm>
-0.719458

>  <RMSD>
23.939

$$$$
ligand
 OpenBabel02271912133D
libRbt.so/2013.1/901 2013/11/27
 10 11  0  0  0  0  0  0  0  0999 V2000
   33.1707    3.4545    9.7198 C   0  0  1  0  0  0  0  0  0  0  0  0
   35.8021    5.3720    8.6932 C   0  0  2  0  0  0  0  0  0  0  0  0
   35.1664    3.3951    9.0609 C   0  0  2  0  0  0  0  0  0  0  0  0
   31.9538    3.0935   10.1427 N   0  0  0  0  0  0  0  0  0  0  0  0
   35.8452    6.6934    8.5544 N   0  0  0  0  0  0  0  0  0  0  0  0
   36.8177    4.5559    8.4375 N   0  0  0  0  0  0  0  0  0  0  0  0
   34.1636    2.6106    9.4614 N   0  0  0  0  0  0  0  0  0  0  0  0
   33.5698    4.7160    9.4738 N   0  0  0  0  0  0  0  0  0  0  0  0
   36.4467    3.3944    8.6590 N   0  0  0  0  0  0  0  0  0  0  0  0
   34.7474    4.6661    9.0841 N   0  0  1  0  0  0  0  0  0  0  0  0
  1  4  1  6  0  0  0
  1  8  1  0  0  0  0
  1  7  1  0  0  0  0
  2  5  1  6  0  0  0
  2  6  1  0  0  0  0
  2 10  1  0  0  0  0
  3  7  1  1  0  0  0
  3 10  1  0  0  0  0
  3  9  1  0  0  0  0
  6  9  1  0  0  0  0
 10  8  1  1  0  0  0
M  END
>  <CHROM.1>
34.77081128,4.20057526,9.12736363,2.61222262,-0.31267969,3.05293849

>  <Name>
ligand

>  <RI>
0

>  <Rbt.Current_Directory>
/home/itssahil/PROJECTS/Mol_Feturizer/Test_systems_manuscript/rnas/2xnw

>  <Rbt.Executable>
rbdock ($Id: //depot/dev/client3/rdock/2013.1/src/exe/rbdock.cxx#4 $)

>  <Rbt.Library>
libRbt.so (2013.1, Build901 2013/11/27)

>  <Rbt.Parameter_File>
/export/apps/rDock/src/rDock_2013.1_src/data/scripts/dock_solv.prm

>  <Rbt.Receptor>
prm/blind_docking_100.prm

>  <SCORE>
-7.19237

>  <SCORE.INTER>
-7.19237

>  <SCORE.INTER.CONST>
1

>  <SCORE.INTER.POLAR>
0

>  <SCORE.INTER.ROT>
0

>  <SCORE.INTER.SOLV>
8.52494

>  <SCORE.INTER.VDW>
-11.2366

>  <SCORE.INTER.norm>
-0.719237

>  <SCORE.INTRA>
0

>  <SCORE.INTRA.DIHEDRAL>
0

>  <SCORE.INTRA.DIHEDRAL.0>
0

>  <SCORE.INTRA.POLAR>
0

>  <SCORE.INTRA.POLAR.0>
0

>  <SCORE.INTRA.REPUL>
0

>  <SCORE.INTRA.REPUL.0>
0

>  <SCORE.INTRA.SOLV>
0

>  <SCORE.INTRA.SOLV.lig_0>
-47.9788

>  <SCORE.INTRA.VDW>
0

>  <SCORE.INTRA.VDW.0>
0

>  <SCORE.INTRA.norm>
0

>  <SCORE.RESTR>
0

>  <SCORE.RESTR.CAVITY>
0

>  <SCORE.RESTR.norm>
0

>  <SCORE.SYSTEM>
0

>  <SCORE.SYSTEM.CONST>
0

>  <SCORE.SYSTEM.DIHEDRAL>
0

>  <SCORE.SYSTEM.SOLV>
0

>  <SCORE.SYSTEM.norm>
0

>  <SCORE.heavy>
10

>  <SCORE.norm>
-0.719237

>  <RMSD>
23.941

$$$$
ligand
 OpenBabel02271912133D
libRbt.so/2013.1/901 2013/11/27
 10 11  0  0  0  0  0  0  0  0999 V2000
   33.1367    3.5094    9.6898 C   0  0  1  0  0  0  0  0  0  0  0  0
   35.8377    5.3584    8.7203 C   0  0  2  0  0  0  0  0  0  0  0  0
   35.1489    3.3999    9.0904 C   0  0  2  0  0  0  0  0  0  0  0  0
   31.9005    3.1793   10.0807 N   0  0  0  0  0  0  0  0  0  0  0  0
   35.9135    6.6769    8.5686 N   0  0  0  0  0  0  0  0  0  0  0  0
   36.8424    4.5180    8.5032 N   0  0  0  0  0  0  0  0  0  0  0  0
   34.1181    2.6416    9.4697 N   0  0  0  0  0  0  0  0  0  0  0  0
   33.5701    4.7591    9.4421 N   0  0  0  0  0  0  0  0  0  0  0  0
   36.4401    3.3673    8.7262 N   0  0  0  0  0  0  0  0  0  0  0  0
   34.7570    4.6797    9.0877 N   0  0  1  0  0  0  0  0  0  0  0  0
  1  4  1  6  0  0  0
  1  8  1  0  0  0  0
  1  7  1  0  0  0  0
  2  5  1  6  0  0  0
  2  6  1  0  0  0  0
  2 10  1  0  0  0  0
  3  7  1  1  0  0  0
  3 10  1  0  0  0  0
  3  9  1  0  0  0  0
  6  9  1  0  0  0  0
 10  8  1  1  0  0  0
M  END
>  <CHROM.1>
34.76912766,4.21433291,9.13656791,2.63742402,-0.28554874,3.04933627

>  <Name>
ligand

>  <RI>
0

>  <Rbt.Current_Directory>
/home/itssahil/PROJECTS/Mol_Feturizer/Test_systems_manuscript/rnas/2xnw

>  <Rbt.Executable>
rbdock ($Id: //depot/dev/client3/rdock/2013.1/src/exe/rbdock.cxx#4 $)

>  <Rbt.Library>
libRbt.so (2013.1, Build901 2013/11/27)

>  <Rbt.Parameter_File>
/export/apps/rDock/src/rDock_2013.1_src/data/scripts/dock_solv.prm

>  <Rbt.Receptor>
prm/blind_docking_100.prm

>  <SCORE>
-7.19603

>  <SCORE.INTER>
-7.19603

>  <SCORE.INTER.CONST>
1

>  <SCORE.INTER.POLAR>
0

>  <SCORE.INTER.ROT>
0

>  <SCORE.INTER.SOLV>
8.35125

>  <SCORE.INTER.VDW>
-11.1811

>  <SCORE.INTER.norm>
-0.719603

>  <SCORE.INTRA>
0

>  <SCORE.INTRA.DIHEDRAL>
0

>  <SCORE.INTRA.DIHEDRAL.0>
0

>  <SCORE.INTRA.POLAR>
0

>  <SCORE.INTRA.POLAR.0>
0

>  <SCORE.INTRA.REPUL>
0

>  <SCORE.INTRA.REPUL.0>
0

>  <SCORE.INTRA.SOLV>
0

>  <SCORE.INTRA.SOLV.lig_0>
-47.9788

>  <SCORE.INTRA.VDW>
0

>  <SCORE.INTRA.VDW.0>
0

>  <SCORE.INTRA.norm>
0

>  <SCORE.RESTR>
0

>  <SCORE.RESTR.CAVITY>
0

>  <SCORE.RESTR.norm>
0

>  <SCORE.SYSTEM>
0

>  <SCORE.SYSTEM.CONST>
0

>  <SCORE.SYSTEM.DIHEDRAL>
0

>  <SCORE.SYSTEM.SOLV>
0

>  <SCORE.SYSTEM.norm>
0

>  <SCORE.heavy>
10

>  <SCORE.norm>
-0.719603

>  <RMSD>
23.945

$$$$
ligand
 OpenBabel02271912133D
libRbt.so/2013.1/901 2013/11/27
 10 11  0  0  0  0  0  0  0  0999 V2000
   32.8414    4.1703    8.9940 C   0  0  1  0  0  0  0  0  0  0  0  0
   35.9950    5.4563    8.7584 C   0  0  2  0  0  0  0  0  0  0  0  0
   34.8851    3.7138    9.1815 C   0  0  2  0  0  0  0  0  0  0  0  0
   31.5075    4.0706    8.9665 N   0  0  0  0  0  0  0  0  0  0  0  0
   36.3504    6.6930    8.4244 N   0  0  0  0  0  0  0  0  0  0  0  0
   36.8482    4.4847    9.0596 N   0  0  0  0  0  0  0  0  0  0  0  0
   33.6691    3.1741    9.2888 N   0  0  0  0  0  0  0  0  0  0  0  0
   33.5477    5.2804    8.7112 N   0  0  0  0  0  0  0  0  0  0  0  0
   36.1965    3.4619    9.3142 N   0  0  0  0  0  0  0  0  0  0  0  0
   34.7509    4.9965    8.8235 N   0  0  1  0  0  0  0  0  0  0  0  0
  1  4  1  6  0  0  0
  1  8  1  0  0  0  0
  1  7  1  0  0  0  0
  2  5  1  6  0  0  0
  2  6  1  0  0  0  0
  2 10  1  0  0  0  0
  3  7  1  1  0  0  0
  3 10  1  0  0  0  0
  3  9  1  0  0  0  0
  6  9  1  0  0  0  0
 10  8  1  1  0  0  0
M  END
>  <CHROM.1>
34.66297682,4.55477610,8.95106105,2.84702012,0.03677281,2.87306153

>  <Name>
ligand

>  <RI>
0

>  <Rbt.Current_Directory>
/home/itssahil/PROJECTS/Mol_Feturizer/Test_systems_manuscript/rnas/2xnw

>  <Rbt.Executable>
rbdock ($Id: //depot/dev/client3/rdock/2013.1/src/exe/rbdock.cxx#4 $)

>  <Rbt.Library>
libRbt.so (2013.1, Build901 2013/11/27)

>  <Rbt.Parameter_File>
/export/apps/rDock/src/rDock_2013.1_src/data/scripts/dock_solv.prm

>  <Rbt.Receptor>
prm/blind_docking_60.prm

>  <SCORE>
-6.7683

>  <SCORE.INTER>
-6.7683

>  <SCORE.INTER.CONST>
1

>  <SCORE.INTER.POLAR>
0

>  <SCORE.INTER.ROT>
0

>  <SCORE.INTER.SOLV>
8.41387

>  <SCORE.INTER.VDW>
-10.9168

>  <SCORE.INTER.norm>
-0.67683

>  <SCORE.INTRA>
0

>  <SCORE.INTRA.DIHEDRAL>
0

>  <SCORE.INTRA.DIHEDRAL.0>
0

>  <SCORE.INTRA.POLAR>
0

>  <SCORE.INTRA.POLAR.0>
0

>  <SCORE.INTRA.REPUL>
0

>  <SCORE.INTRA.REPUL.0>
0

>  <SCORE.INTRA.SOLV>
0

>  <SCORE.INTRA.SOLV.lig_0>
-47.9788

>  <SCORE.INTRA.VDW>
0

>  <SCORE.INTRA.VDW.0>
0

>  <SCORE.INTRA.norm>
0

>  <SCORE.RESTR>
0

>  <SCORE.RESTR.CAVITY>
0

>  <SCORE.RESTR.norm>
0

>  <SCORE.SYSTEM>
0

>  <SCORE.SYSTEM.CONST>
0

>  <SCORE.SYSTEM.DIHEDRAL>
0

>  <SCORE.SYSTEM.SOLV>
0

>  <SCORE.SYSTEM.norm>
0

>  <SCORE.heavy>
10

>  <SCORE.norm>
-0.67683

>  <RMSD>
23.945

$$$$
ligand
 OpenBabel02271912133D
libRbt.so/2013.1/901 2013/11/27
 10 11  0  0  0  0  0  0  0  0999 V2000
   33.1899    3.4526    9.7074 C   0  0  1  0  0  0  0  0  0  0  0  0
   35.8192    5.3831    8.7000 C   0  0  2  0  0  0  0  0  0  0  0  0
   35.1830    3.4015    9.0400 C   0  0  2  0  0  0  0  0  0  0  0  0
   31.9743    3.0864   10.1294 N   0  0  0  0  0  0  0  0  0  0  0  0
   35.8631    6.7064    8.5811 N   0  0  0  0  0  0  0  0  0  0  0  0
   36.8329    4.5701    8.4279 N   0  0  0  0  0  0  0  0  0  0  0  0
   34.1809    2.6119    9.4324 N   0  0  0  0  0  0  0  0  0  0  0  0
   33.5893    4.7173    9.4791 N   0  0  0  0  0  0  0  0  0  0  0  0
   36.4617    3.4057    8.6332 N   0  0  0  0  0  0  0  0  0  0  0  0
   34.7653    4.6723    9.0842 N   0  0  1  0  0  0  0  0  0  0  0  0
  1  4  1  6  0  0  0
  1  8  1  0  0  0  0
  1  7  1  0  0  0  0
  2  5  1  6  0  0  0
  2  6  1  0  0  0  0
  2 10  1  0  0  0  0
  3  7  1  1  0  0  0
  3 10  1  0  0  0  0
  3  9  1  0  0  0  0
  6  9  1  0  0  0  0
 10  8  1  1  0  0  0
M  END
>  <CHROM.1>
34.78841899,4.20615018,9.12023103,2.61290176,-0.31661043,3.06839781

>  <Name>
ligand

>  <RI>
0

>  <Rbt.Current_Directory>
/home/itssahil/PROJECTS/Mol_Feturizer/Test_systems_manuscript/rnas/2xnw

>  <Rbt.Executable>
rbdock ($Id: //depot/dev/client3/rdock/2013.1/src/exe/rbdock.cxx#4 $)

>  <Rbt.Library>
libRbt.so (2013.1, Build901 2013/11/27)

>  <Rbt.Parameter_File>
/export/apps/rDock/src/rDock_2013.1_src/data/scripts/dock_solv.prm

>  <Rbt.Receptor>
prm/blind_docking_80.prm

>  <SCORE>
-7.18128

>  <SCORE.INTER>
-7.18128

>  <SCORE.INTER.CONST>
1

>  <SCORE.INTER.POLAR>
0

>  <SCORE.INTER.ROT>
0

>  <SCORE.INTER.SOLV>
8.53105

>  <SCORE.INTER.VDW>
-11.2312

>  <SCORE.INTER.norm>
-0.718128

>  <SCORE.INTRA>
0

>  <SCORE.INTRA.DIHEDRAL>
0

>  <SCORE.INTRA.DIHEDRAL.0>
0

>  <SCORE.INTRA.POLAR>
0

>  <SCORE.INTRA.POLAR.0>
0

>  <SCORE.INTRA.REPUL>
0

>  <SCORE.INTRA.REPUL.0>
0

>  <SCORE.INTRA.SOLV>
0

>  <SCORE.INTRA.SOLV.lig_0>
-47.9788

>  <SCORE.INTRA.VDW>
0

>  <SCORE.INTRA.VDW.0>
0

>  <SCORE.INTRA.norm>
0

>  <SCORE.RESTR>
0

>  <SCORE.RESTR.CAVITY>
0

>  <SCORE.RESTR.norm>
0

>  <SCORE.SYSTEM>
0

>  <SCORE.SYSTEM.CONST>
0

>  <SCORE.SYSTEM.DIHEDRAL>
0

>  <SCORE.SYSTEM.SOLV>
0

>  <SCORE.SYSTEM.norm>
0

>  <SCORE.heavy>
10

>  <SCORE.norm>
-0.718128

>  <RMSD>
23.960

$$$$
ligand
 OpenBabel02271912133D
libRbt.so/2013.1/901 2013/11/27
 10 11  0  0  0  0  0  0  0  0999 V2000
   35.7536    7.3985    8.2886 C   0  0  1  0  0  0  0  0  0  0  0  0
   34.7742    4.2814    9.2780 C   0  0  2  0  0  0  0  0  0  0  0  0
   36.3440    5.3838    8.4018 C   0  0  2  0  0  0  0  0  0  0  0  0
   35.7475    8.7170    8.0618 N   0  0  0  0  0  0  0  0  0  0  0  0
   33.6298    3.9293    9.8555 N   0  0  0  0  0  0  0  0  0  0  0  0
   35.7601    3.4403    8.9890 N   0  0  0  0  0  0  0  0  0  0  0  0
   36.7626    6.5849    7.9976 N   0  0  0  0  0  0  0  0  0  0  0  0
   34.7555    6.6994    8.8596 N   0  0  0  0  0  0  0  0  0  0  0  0
   36.6806    4.0865    8.4686 N   0  0  0  0  0  0  0  0  0  0  0  0
   35.1177    5.5138    8.9220 N   0  0  1  0  0  0  0  0  0  0  0  0
  1  4  1  1  0  0  0
  1  8  1  0  0  0  0
  1  7  1  0  0  0  0
  2  5  1  1  0  0  0
  2  6  1  0  0  0  0
  2 10  1  0  0  0  0
  3  7  1  6  0  0  0
  3 10  1  0  0  0  0
  3  9  1  0  0  0  0
  6  9  1  0  0  0  0
 10  8  1  6  0  0  0
M  END
>  <CHROM.1>
35.52847501,5.59970444,8.71476785,1.34902286,0.41143322,-0.17564015

>  <Name>
ligand

>  <RI>
0

>  <Rbt.Current_Directory>
/home/itssahil/PROJECTS/Mol_Feturizer/Test_systems_manuscript/rnas/2xnw

>  <Rbt.Executable>
rbdock ($Id: //depot/dev/client3/rdock/2013.1/src/exe/rbdock.cxx#4 $)

>  <Rbt.Library>
libRbt.so (2013.1, Build901 2013/11/27)

>  <Rbt.Parameter_File>
/export/apps/rDock/src/rDock_2013.1_src/data/scripts/dock_solv.prm

>  <Rbt.Receptor>
prm/blind_docking_80.prm

>  <SCORE>
-7.27247

>  <SCORE.INTER>
-7.27247

>  <SCORE.INTER.CONST>
1

>  <SCORE.INTER.POLAR>
0

>  <SCORE.INTER.ROT>
0

>  <SCORE.INTER.SOLV>
10.7645

>  <SCORE.INTER.VDW>
-12.0365

>  <SCORE.INTER.norm>
-0.727247

>  <SCORE.INTRA>
0

>  <SCORE.INTRA.DIHEDRAL>
0

>  <SCORE.INTRA.DIHEDRAL.0>
0

>  <SCORE.INTRA.POLAR>
0

>  <SCORE.INTRA.POLAR.0>
0

>  <SCORE.INTRA.REPUL>
0

>  <SCORE.INTRA.REPUL.0>
0

>  <SCORE.INTRA.SOLV>
0

>  <SCORE.INTRA.SOLV.lig_0>
-47.9788

>  <SCORE.INTRA.VDW>
0

>  <SCORE.INTRA.VDW.0>
0

>  <SCORE.INTRA.norm>
0

>  <SCORE.RESTR>
0

>  <SCORE.RESTR.CAVITY>
0

>  <SCORE.RESTR.norm>
0

>  <SCORE.SYSTEM>
0

>  <SCORE.SYSTEM.CONST>
0

>  <SCORE.SYSTEM.DIHEDRAL>
0

>  <SCORE.SYSTEM.SOLV>
0

>  <SCORE.SYSTEM.norm>
0

>  <SCORE.heavy>
10

>  <SCORE.norm>
-0.727247

>  <RMSD>
25.067

$$$$
ligand
 OpenBabel02271912133D
libRbt.so/2013.1/901 2013/11/27
 10 11  0  0  0  0  0  0  0  0999 V2000
   35.7765    7.4036    8.2817 C   0  0  1  0  0  0  0  0  0  0  0  0
   34.7849    4.2879    9.2633 C   0  0  2  0  0  0  0  0  0  0  0  0
   36.3628    5.3880    8.3989 C   0  0  2  0  0  0  0  0  0  0  0  0
   35.7740    8.7222    8.0551 N   0  0  0  0  0  0  0  0  0  0  0  0
   33.6357    3.9374    9.8323 N   0  0  0  0  0  0  0  0  0  0  0  0
   35.7715    3.4453    8.9814 N   0  0  0  0  0  0  0  0  0  0  0  0
   36.7863    6.5885    7.9979 N   0  0  0  0  0  0  0  0  0  0  0  0
   34.7730    6.7060    8.8452 N   0  0  0  0  0  0  0  0  0  0  0  0
   36.6969    4.0901    8.4678 N   0  0  0  0  0  0  0  0  0  0  0  0
   35.1329    5.5198    8.9101 N   0  0  1  0  0  0  0  0  0  0  0  0
  1  4  1  1  0  0  0
  1  8  1  0  0  0  0
  1  7  1  0  0  0  0
  2  5  1  1  0  0  0
  2  6  1  0  0  0  0
  2 10  1  0  0  0  0
  3  7  1  6  0  0  0
  3 10  1  0  0  0  0
  3  9  1  0  0  0  0
  6  9  1  0  0  0  0
 10  8  1  6  0  0  0
M  END
>  <CHROM.1>
35.54534693,5.60511904,8.70584225,1.34594655,0.40448005,-0.17422628

>  <Name>
ligand

>  <RI>
0

>  <Rbt.Current_Directory>
/home/itssahil/PROJECTS/Mol_Feturizer/Test_systems_manuscript/rnas/2xnw

>  <Rbt.Executable>
rbdock ($Id: //depot/dev/client3/rdock/2013.1/src/exe/rbdock.cxx#4 $)

>  <Rbt.Library>
libRbt.so (2013.1, Build901 2013/11/27)

>  <Rbt.Parameter_File>
/export/apps/rDock/src/rDock_2013.1_src/data/scripts/dock_solv.prm

>  <Rbt.Receptor>
prm/blind_docking_60.prm

>  <SCORE>
-7.30437

>  <SCORE.INTER>
-7.30437

>  <SCORE.INTER.CONST>
1

>  <SCORE.INTER.POLAR>
0

>  <SCORE.INTER.ROT>
0

>  <SCORE.INTER.SOLV>
10.7283

>  <SCORE.INTER.VDW>
-12.0457

>  <SCORE.INTER.norm>
-0.730437

>  <SCORE.INTRA>
0

>  <SCORE.INTRA.DIHEDRAL>
0

>  <SCORE.INTRA.DIHEDRAL.0>
0

>  <SCORE.INTRA.POLAR>
0

>  <SCORE.INTRA.POLAR.0>
0

>  <SCORE.INTRA.REPUL>
0

>  <SCORE.INTRA.REPUL.0>
0

>  <SCORE.INTRA.SOLV>
0

>  <SCORE.INTRA.SOLV.lig_0>
-47.9788

>  <SCORE.INTRA.VDW>
0

>  <SCORE.INTRA.VDW.0>
0

>  <SCORE.INTRA.norm>
0

>  <SCORE.RESTR>
0

>  <SCORE.RESTR.CAVITY>
0

>  <SCORE.RESTR.norm>
0

>  <SCORE.SYSTEM>
0

>  <SCORE.SYSTEM.CONST>
0

>  <SCORE.SYSTEM.DIHEDRAL>
0

>  <SCORE.SYSTEM.SOLV>
0

>  <SCORE.SYSTEM.norm>
0

>  <SCORE.heavy>
10

>  <SCORE.norm>
-0.730437

>  <RMSD>
25.084

$$$$
ligand
 OpenBabel02271912133D
libRbt.so/2013.1/901 2013/11/27
 10 11  0  0  0  0  0  0  0  0999 V2000
   35.7761    7.4103    8.2767 C   0  0  1  0  0  0  0  0  0  0  0  0
   34.7827    4.2933    9.2526 C   0  0  2  0  0  0  0  0  0  0  0  0
   36.3630    5.3948    8.3943 C   0  0  2  0  0  0  0  0  0  0  0  0
   35.7737    8.7290    8.0510 N   0  0  0  0  0  0  0  0  0  0  0  0
   33.6318    3.9420    9.8175 N   0  0  0  0  0  0  0  0  0  0  0  0
   35.7707    3.4515    8.9734 N   0  0  0  0  0  0  0  0  0  0  0  0
   36.7872    6.5959    7.9957 N   0  0  0  0  0  0  0  0  0  0  0  0
   34.7710    6.7118    8.8363 N   0  0  0  0  0  0  0  0  0  0  0  0
   36.6974    4.0971    8.4635 N   0  0  0  0  0  0  0  0  0  0  0  0
   35.1313    5.5257    8.9015 N   0  0  1  0  0  0  0  0  0  0  0  0
  1  4  1  1  0  0  0
  1  8  1  0  0  0  0
  1  7  1  0  0  0  0
  2  5  1  1  0  0  0
  2  6  1  0  0  0  0
  2 10  1  0  0  0  0
  3  7  1  6  0  0  0
  3 10  1  0  0  0  0
  3  9  1  0  0  0  0
  6  9  1  0  0  0  0
 10  8  1  6  0  0  0
M  END
>  <CHROM.1>
35.54437757,5.61136263,8.69869134,1.34582551,0.40106260,-0.17345661

>  <Name>
ligand

>  <RI>
0

>  <Rbt.Current_Directory>
/home/itssahil/PROJECTS/Mol_Feturizer/Test_systems_manuscript/rnas/2xnw

>  <Rbt.Executable>
rbdock ($Id: //depot/dev/client3/rdock/2013.1/src/exe/rbdock.cxx#4 $)

>  <Rbt.Library>
libRbt.so (2013.1, Build901 2013/11/27)

>  <Rbt.Parameter_File>
/export/apps/rDock/src/rDock_2013.1_src/data/scripts/dock_solv.prm

>  <Rbt.Receptor>
prm/blind_docking_100.prm

>  <SCORE>
-7.30298

>  <SCORE.INTER>
-7.30298

>  <SCORE.INTER.CONST>
1

>  <SCORE.INTER.POLAR>
0

>  <SCORE.INTER.ROT>
0

>  <SCORE.INTER.SOLV>
10.7113

>  <SCORE.INTER.VDW>
-12.0391

>  <SCORE.INTER.norm>
-0.730298

>  <SCORE.INTRA>
0

>  <SCORE.INTRA.DIHEDRAL>
0

>  <SCORE.INTRA.DIHEDRAL.0>
0

>  <SCORE.INTRA.POLAR>
0

>  <SCORE.INTRA.POLAR.0>
0

>  <SCORE.INTRA.REPUL>
0

>  <SCORE.INTRA.REPUL.0>
0

>  <SCORE.INTRA.SOLV>
0

>  <SCORE.INTRA.SOLV.lig_0>
-47.9788

>  <SCORE.INTRA.VDW>
0

>  <SCORE.INTRA.VDW.0>
0

>  <SCORE.INTRA.norm>
0

>  <SCORE.RESTR>
0

>  <SCORE.RESTR.CAVITY>
0

>  <SCORE.RESTR.norm>
0

>  <SCORE.SYSTEM>
0

>  <SCORE.SYSTEM.CONST>
0

>  <SCORE.SYSTEM.DIHEDRAL>
0

>  <SCORE.SYSTEM.SOLV>
0

>  <SCORE.SYSTEM.norm>
0

>  <SCORE.heavy>
10

>  <SCORE.norm>
-0.730298

>  <RMSD>
25.085

$$$$
ligand
 OpenBabel02271912133D
libRbt.so/2013.1/901 2013/11/27
 10 11  0  0  0  0  0  0  0  0999 V2000
   35.7751    7.4021    8.2823 C   0  0  1  0  0  0  0  0  0  0  0  0
   34.7871    4.2871    9.2697 C   0  0  2  0  0  0  0  0  0  0  0  0
   36.3632    5.3872    8.4021 C   0  0  2  0  0  0  0  0  0  0  0  0
   35.7713    8.7203    8.0536 N   0  0  0  0  0  0  0  0  0  0  0  0
   33.6387    3.9366    9.8403 N   0  0  0  0  0  0  0  0  0  0  0  0
   35.7741    3.4450    8.9882 N   0  0  0  0  0  0  0  0  0  0  0  0
   36.7853    6.5875    7.9989 N   0  0  0  0  0  0  0  0  0  0  0  0
   34.7727    6.7046    8.8479 N   0  0  0  0  0  0  0  0  0  0  0  0
   36.6985    4.0897    8.4728 N   0  0  0  0  0  0  0  0  0  0  0  0
   35.1337    5.5188    8.9142 N   0  0  1  0  0  0  0  0  0  0  0  0
  1  4  1  1  0  0  0
  1  8  1  0  0  0  0
  1  7  1  0  0  0  0
  2  5  1  1  0  0  0
  2  6  1  0  0  0  0
  2 10  1  0  0  0  0
  3  7  1  6  0  0  0
  3 10  1  0  0  0  0
  3  9  1  0  0  0  0
  6  9  1  0  0  0  0
 10  8  1  6  0  0  0
M  END
>  <CHROM.1>
35.54586556,5.60413362,8.70948987,1.34702558,0.40523812,-0.17621933

>  <Name>
ligand

>  <RI>
0

>  <Rbt.Current_Directory>
/home/itssahil/PROJECTS/Mol_Feturizer/Test_systems_manuscript/rnas/2xnw

>  <Rbt.Executable>
rbdock ($Id: //depot/dev/client3/rdock/2013.1/src/exe/rbdock.cxx#4 $)

>  <Rbt.Library>
libRbt.so (2013.1, Build901 2013/11/27)

>  <Rbt.Parameter_File>
/export/apps/rDock/src/rDock_2013.1_src/data/scripts/dock_solv.prm

>  <Rbt.Receptor>
prm/blind_docking_60.prm

>  <SCORE>
-7.30509

>  <SCORE.INTER>
-7.30509

>  <SCORE.INTER.CONST>
1

>  <SCORE.INTER.POLAR>
0

>  <SCORE.INTER.ROT>
0

>  <SCORE.INTER.SOLV>
10.7292

>  <SCORE.INTER.VDW>
-12.0465

>  <SCORE.INTER.norm>
-0.730509

>  <SCORE.INTRA>
0

>  <SCORE.INTRA.DIHEDRAL>
0

>  <SCORE.INTRA.DIHEDRAL.0>
0

>  <SCORE.INTRA.POLAR>
0

>  <SCORE.INTRA.POLAR.0>
0

>  <SCORE.INTRA.REPUL>
0

>  <SCORE.INTRA.REPUL.0>
0

>  <SCORE.INTRA.SOLV>
0

>  <SCORE.INTRA.SOLV.lig_0>
-47.9788

>  <SCORE.INTRA.VDW>
0

>  <SCORE.INTRA.VDW.0>
0

>  <SCORE.INTRA.norm>
0

>  <SCORE.RESTR>
0

>  <SCORE.RESTR.CAVITY>
0

>  <SCORE.RESTR.norm>
0

>  <SCORE.SYSTEM>
0

>  <SCORE.SYSTEM.CONST>
0

>  <SCORE.SYSTEM.DIHEDRAL>
0

>  <SCORE.SYSTEM.SOLV>
0

>  <SCORE.SYSTEM.norm>
0

>  <SCORE.heavy>
10

>  <SCORE.norm>
-0.730509

>  <RMSD>
25.085

$$$$
ligand
 OpenBabel02271912133D
libRbt.so/2013.1/901 2013/11/27
 10 11  0  0  0  0  0  0  0  0999 V2000
   35.7763    7.4038    8.2812 C   0  0  1  0  0  0  0  0  0  0  0  0
   34.7854    4.2885    9.2648 C   0  0  2  0  0  0  0  0  0  0  0  0
   36.3634    5.3885    8.4004 C   0  0  2  0  0  0  0  0  0  0  0  0
   35.7735    8.7222    8.0534 N   0  0  0  0  0  0  0  0  0  0  0  0
   33.6360    3.9381    9.8333 N   0  0  0  0  0  0  0  0  0  0  0  0
   35.7726    3.4462    8.9842 N   0  0  0  0  0  0  0  0  0  0  0  0
   36.7867    6.5889    7.9987 N   0  0  0  0  0  0  0  0  0  0  0  0
   34.7728    6.7063    8.8446 N   0  0  0  0  0  0  0  0  0  0  0  0
   36.6980    4.0909    8.4707 N   0  0  0  0  0  0  0  0  0  0  0  0
   35.1331    5.5203    8.9107 N   0  0  1  0  0  0  0  0  0  0  0  0
  1  4  1  1  0  0  0
  1  8  1  0  0  0  0
  1  7  1  0  0  0  0
  2  5  1  1  0  0  0
  2  6  1  0  0  0  0
  2 10  1  0  0  0  0
  3  7  1  6  0  0  0
  3 10  1  0  0  0  0
  3  9  1  0  0  0  0
  6  9  1  0  0  0  0
 10  8  1  6  0  0  0
M  END
>  <CHROM.1>
35.54568640,5.60562735,8.70667432,1.34625410,0.40376427,-0.17519505

>  <Name>
ligand

>  <RI>
0

>  <Rbt.Current_Directory>
/home/itssahil/PROJECTS/Mol_Feturizer/Test_systems_manuscript/rnas/2xnw

>  <Rbt.Executable>
rbdock ($Id: //depot/dev/client3/rdock/2013.1/src/exe/rbdock.cxx#4 $)

>  <Rbt.Library>
libRbt.so (2013.1, Build901 2013/11/27)

>  <Rbt.Parameter_File>
/export/apps/rDock/src/rDock_2013.1_src/data/scripts/dock_solv.prm

>  <Rbt.Receptor>
prm/blind_docking_60.prm

>  <SCORE>
-7.30415

>  <SCORE.INTER>
-7.30415

>  <SCORE.INTER.CONST>
1

>  <SCORE.INTER.POLAR>
0

>  <SCORE.INTER.ROT>
0

>  <SCORE.INTER.SOLV>
10.7233

>  <SCORE.INTER.VDW>
-12.0439

>  <SCORE.INTER.norm>
-0.730415

>  <SCORE.INTRA>
0

>  <SCORE.INTRA.DIHEDRAL>
0

>  <SCORE.INTRA.DIHEDRAL.0>
0

>  <SCORE.INTRA.POLAR>
0

>  <SCORE.INTRA.POLAR.0>
0

>  <SCORE.INTRA.REPUL>
0

>  <SCORE.INTRA.REPUL.0>
0

>  <SCORE.INTRA.SOLV>
0

>  <SCORE.INTRA.SOLV.lig_0>
-47.9788

>  <SCORE.INTRA.VDW>
0

>  <SCORE.INTRA.VDW.0>
0

>  <SCORE.INTRA.norm>
0

>  <SCORE.RESTR>
0

>  <SCORE.RESTR.CAVITY>
0

>  <SCORE.RESTR.norm>
0

>  <SCORE.SYSTEM>
0

>  <SCORE.SYSTEM.CONST>
0

>  <SCORE.SYSTEM.DIHEDRAL>
0

>  <SCORE.SYSTEM.SOLV>
0

>  <SCORE.SYSTEM.norm>
0

>  <SCORE.heavy>
10

>  <SCORE.norm>
-0.730415

>  <RMSD>
25.085

$$$$
ligand
 OpenBabel02271912133D
libRbt.so/2013.1/901 2013/11/27
 10 11  0  0  0  0  0  0  0  0999 V2000
   35.7746    7.4033    8.2831 C   0  0  1  0  0  0  0  0  0  0  0  0
   34.7883    4.2871    9.2686 C   0  0  2  0  0  0  0  0  0  0  0  0
   36.3637    5.3885    8.4012 C   0  0  2  0  0  0  0  0  0  0  0  0
   35.7702    8.7217    8.0554 N   0  0  0  0  0  0  0  0  0  0  0  0
   33.6403    3.9357    9.8394 N   0  0  0  0  0  0  0  0  0  0  0  0
   35.7756    3.4456    8.9861 N   0  0  0  0  0  0  0  0  0  0  0  0
   36.7851    6.5893    7.9987 N   0  0  0  0  0  0  0  0  0  0  0  0
   34.7728    6.7049    8.8485 N   0  0  0  0  0  0  0  0  0  0  0  0
   36.6995    4.0912    8.4709 N   0  0  0  0  0  0  0  0  0  0  0  0
   35.1342    5.5192    8.9139 N   0  0  1  0  0  0  0  0  0  0  0  0
  1  4  1  1  0  0  0
  1  8  1  0  0  0  0
  1  7  1  0  0  0  0
  2  5  1  1  0  0  0
  2  6  1  0  0  0  0
  2 10  1  0  0  0  0
  3  7  1  6  0  0  0
  3 10  1  0  0  0  0
  3  9  1  0  0  0  0
  6  9  1  0  0  0  0
 10  8  1  6  0  0  0
M  END
>  <CHROM.1>
35.54632613,5.60490625,8.70906400,1.34756362,0.40552558,-0.17570919

>  <Name>
ligand

>  <RI>
0

>  <Rbt.Current_Directory>
/home/itssahil/PROJECTS/Mol_Feturizer/Test_systems_manuscript/rnas/2xnw

>  <Rbt.Executable>
rbdock ($Id: //depot/dev/client3/rdock/2013.1/src/exe/rbdock.cxx#4 $)

>  <Rbt.Library>
libRbt.so (2013.1, Build901 2013/11/27)

>  <Rbt.Parameter_File>
/export/apps/rDock/src/rDock_2013.1_src/data/scripts/dock_solv.prm

>  <Rbt.Receptor>
prm/blind_docking_80.prm

>  <SCORE>
-7.30385

>  <SCORE.INTER>
-7.30385

>  <SCORE.INTER.CONST>
1

>  <SCORE.INTER.POLAR>
0

>  <SCORE.INTER.ROT>
0

>  <SCORE.INTER.SOLV>
10.7362

>  <SCORE.INTER.VDW>
-12.048

>  <SCORE.INTER.norm>
-0.730385

>  <SCORE.INTRA>
0

>  <SCORE.INTRA.DIHEDRAL>
0

>  <SCORE.INTRA.DIHEDRAL.0>
0

>  <SCORE.INTRA.POLAR>
0

>  <SCORE.INTRA.POLAR.0>
0

>  <SCORE.INTRA.REPUL>
0

>  <SCORE.INTRA.REPUL.0>
0

>  <SCORE.INTRA.SOLV>
0

>  <SCORE.INTRA.SOLV.lig_0>
-47.9788

>  <SCORE.INTRA.VDW>
0

>  <SCORE.INTRA.VDW.0>
0

>  <SCORE.INTRA.norm>
0

>  <SCORE.RESTR>
0

>  <SCORE.RESTR.CAVITY>
0

>  <SCORE.RESTR.norm>
0

>  <SCORE.SYSTEM>
0

>  <SCORE.SYSTEM.CONST>
0

>  <SCORE.SYSTEM.DIHEDRAL>
0

>  <SCORE.SYSTEM.SOLV>
0

>  <SCORE.SYSTEM.norm>
0

>  <SCORE.heavy>
10

>  <SCORE.norm>
-0.730385

>  <RMSD>
25.085

$$$$
ligand
 OpenBabel02271912133D
libRbt.so/2013.1/901 2013/11/27
 10 11  0  0  0  0  0  0  0  0999 V2000
   35.7752    7.4124    8.2822 C   0  0  1  0  0  0  0  0  0  0  0  0
   34.7950    4.2937    9.2654 C   0  0  2  0  0  0  0  0  0  0  0  0
   36.3662    5.3979    8.3941 C   0  0  2  0  0  0  0  0  0  0  0  0
   35.7690    8.7312    8.0570 N   0  0  0  0  0  0  0  0  0  0  0  0
   33.6494    3.9403    9.8399 N   0  0  0  0  0  0  0  0  0  0  0  0
   35.7818    3.4534    8.9776 N   0  0  0  0  0  0  0  0  0  0  0  0
   36.7852    6.5997    7.9923 N   0  0  0  0  0  0  0  0  0  0  0  0
   34.7761    6.7123    8.8500 N   0  0  0  0  0  0  0  0  0  0  0  0
   36.7032    4.1006    8.4600 N   0  0  0  0  0  0  0  0  0  0  0  0
   35.1387    5.5267    8.9118 N   0  0  1  0  0  0  0  0  0  0  0  0
  1  4  1  1  0  0  0
  1  8  1  0  0  0  0
  1  7  1  0  0  0  0
  2  5  1  1  0  0  0
  2  6  1  0  0  0  0
  2 10  1  0  0  0  0
  3  7  1  6  0  0  0
  3 10  1  0  0  0  0
  3  9  1  0  0  0  0
  6  9  1  0  0  0  0
 10  8  1  6  0  0  0
M  END
>  <CHROM.1>
35.54990162,5.61305457,8.70550905,1.34906038,0.40916707,-0.17438238

>  <Name>
ligand

>  <RI>
0

>  <Rbt.Current_Directory>
/home/itssahil/PROJECTS/Mol_Feturizer/Test_systems_manuscript/rnas/2xnw

>  <Rbt.Executable>
rbdock ($Id: //depot/dev/client3/rdock/2013.1/src/exe/rbdock.cxx#4 $)

>  <Rbt.Library>
libRbt.so (2013.1, Build901 2013/11/27)

>  <Rbt.Parameter_File>
/export/apps/rDock/src/rDock_2013.1_src/data/scripts/dock_solv.prm

>  <Rbt.Receptor>
prm/blind_docking_80.prm

>  <SCORE>
-7.29764

>  <SCORE.INTER>
-7.29764

>  <SCORE.INTER.CONST>
1

>  <SCORE.INTER.POLAR>
0

>  <SCORE.INTER.ROT>
0

>  <SCORE.INTER.SOLV>
10.7636

>  <SCORE.INTER.VDW>
-12.053

>  <SCORE.INTER.norm>
-0.729764

>  <SCORE.INTRA>
0

>  <SCORE.INTRA.DIHEDRAL>
0

>  <SCORE.INTRA.DIHEDRAL.0>
0

>  <SCORE.INTRA.POLAR>
0

>  <SCORE.INTRA.POLAR.0>
0

>  <SCORE.INTRA.REPUL>
0

>  <SCORE.INTRA.REPUL.0>
0

>  <SCORE.INTRA.SOLV>
0

>  <SCORE.INTRA.SOLV.lig_0>
-47.9788

>  <SCORE.INTRA.VDW>
0

>  <SCORE.INTRA.VDW.0>
0

>  <SCORE.INTRA.norm>
0

>  <SCORE.RESTR>
0

>  <SCORE.RESTR.CAVITY>
0

>  <SCORE.RESTR.norm>
0

>  <SCORE.SYSTEM>
0

>  <SCORE.SYSTEM.CONST>
0

>  <SCORE.SYSTEM.DIHEDRAL>
0

>  <SCORE.SYSTEM.SOLV>
0

>  <SCORE.SYSTEM.norm>
0

>  <SCORE.heavy>
10

>  <SCORE.norm>
-0.729764

>  <RMSD>
25.091

$$$$
ligand
 OpenBabel02271912133D
libRbt.so/2013.1/901 2013/11/27
 10 11  0  0  0  0  0  0  0  0999 V2000
   35.7912    7.4321    8.2824 C   0  0  1  0  0  0  0  0  0  0  0  0
   34.7886    4.3332    9.3050 C   0  0  2  0  0  0  0  0  0  0  0  0
   36.3617    5.4124    8.4063 C   0  0  2  0  0  0  0  0  0  0  0  0
   35.7965    8.7488    8.0452 N   0  0  0  0  0  0  0  0  0  0  0  0
   33.6458    3.9975    9.8954 N   0  0  0  0  0  0  0  0  0  0  0  0
   35.7631    3.4797    9.0140 N   0  0  0  0  0  0  0  0  0  0  0  0
   36.7891    6.6059    7.9888 N   0  0  0  0  0  0  0  0  0  0  0  0
   34.7910    6.7480    8.8677 N   0  0  0  0  0  0  0  0  0  0  0  0
   36.6855    4.1122    8.4803 N   0  0  0  0  0  0  0  0  0  0  0  0
   35.1415    5.5592    8.9363 N   0  0  1  0  0  0  0  0  0  0  0  0
  1  4  1  1  0  0  0
  1  8  1  0  0  0  0
  1  7  1  0  0  0  0
  2  5  1  1  0  0  0
  2  6  1  0  0  0  0
  2 10  1  0  0  0  0
  3  7  1  6  0  0  0
  3 10  1  0  0  0  0
  3  9  1  0  0  0  0
  6  9  1  0  0  0  0
 10  8  1  6  0  0  0
M  END
>  <CHROM.1>
35.55129862,5.63920163,8.72470119,1.33961136,0.42200687,-0.17969262

>  <Name>
ligand

>  <RI>
0

>  <Rbt.Current_Directory>
/home/itssahil/PROJECTS/Mol_Feturizer/Test_systems_manuscript/rnas/2xnw

>  <Rbt.Executable>
rbdock ($Id: //depot/dev/client3/rdock/2013.1/src/exe/rbdock.cxx#4 $)

>  <Rbt.Library>
libRbt.so (2013.1, Build901 2013/11/27)

>  <Rbt.Parameter_File>
/export/apps/rDock/src/rDock_2013.1_src/data/scripts/dock_solv.prm

>  <Rbt.Receptor>
prm/blind_docking_60.prm

>  <SCORE>
-7.29219

>  <SCORE.INTER>
-7.29219

>  <SCORE.INTER.CONST>
1

>  <SCORE.INTER.POLAR>
0

>  <SCORE.INTER.ROT>
0

>  <SCORE.INTER.SOLV>
10.7744

>  <SCORE.INTER.VDW>
-12.0529

>  <SCORE.INTER.norm>
-0.729219

>  <SCORE.INTRA>
0

>  <SCORE.INTRA.DIHEDRAL>
0

>  <SCORE.INTRA.DIHEDRAL.0>
0

>  <SCORE.INTRA.POLAR>
0

>  <SCORE.INTRA.POLAR.0>
0

>  <SCORE.INTRA.REPUL>
0

>  <SCORE.INTRA.REPUL.0>
0

>  <SCORE.INTRA.SOLV>
0

>  <SCORE.INTRA.SOLV.lig_0>
-47.9788

>  <SCORE.INTRA.VDW>
0

>  <SCORE.INTRA.VDW.0>
0

>  <SCORE.INTRA.norm>
0

>  <SCORE.RESTR>
0

>  <SCORE.RESTR.CAVITY>
0

>  <SCORE.RESTR.norm>
0

>  <SCORE.SYSTEM>
0

>  <SCORE.SYSTEM.CONST>
0

>  <SCORE.SYSTEM.DIHEDRAL>
0

>  <SCORE.SYSTEM.SOLV>
0

>  <SCORE.SYSTEM.norm>
0

>  <SCORE.heavy>
10

>  <SCORE.norm>
-0.729219

>  <RMSD>
25.102

$$$$
ligand
 OpenBabel02271912133D
libRbt.so/2013.1/901 2013/11/27
 10 11  0  0  0  0  0  0  0  0999 V2000
   35.7800    7.4286    8.2810 C   0  0  1  0  0  0  0  0  0  0  0  0
   34.8130    4.3213    9.3125 C   0  0  2  0  0  0  0  0  0  0  0  0
   36.3717    5.4150    8.4061 C   0  0  2  0  0  0  0  0  0  0  0  0
   35.7710    8.7449    8.0416 N   0  0  0  0  0  0  0  0  0  0  0  0
   33.6759    3.9749    9.9076 N   0  0  0  0  0  0  0  0  0  0  0  0
   35.7951    3.4774    9.0191 N   0  0  0  0  0  0  0  0  0  0  0  0
   36.7852    6.6122    7.9851 N   0  0  0  0  0  0  0  0  0  0  0  0
   34.7891    6.7353    8.8712 N   0  0  0  0  0  0  0  0  0  0  0  0
   36.7090    4.1184    8.4810 N   0  0  0  0  0  0  0  0  0  0  0  0
   35.1520    5.5502    8.9404 N   0  0  1  0  0  0  0  0  0  0  0  0
  1  4  1  1  0  0  0
  1  8  1  0  0  0  0
  1  7  1  0  0  0  0
  2  5  1  1  0  0  0
  2  6  1  0  0  0  0
  2 10  1  0  0  0  0
  3  7  1  6  0  0  0
  3 10  1  0  0  0  0
  3  9  1  0  0  0  0
  6  9  1  0  0  0  0
 10  8  1  6  0  0  0
M  END
>  <CHROM.1>
35.56014012,5.63408074,8.72715529,1.35139150,0.42383492,-0.18617197

>  <Name>
ligand

>  <RI>
0

>  <Rbt.Current_Directory>
/home/itssahil/PROJECTS/Mol_Feturizer/Test_systems_manuscript/rnas/2xnw

>  <Rbt.Executable>
rbdock ($Id: //depot/dev/client3/rdock/2013.1/src/exe/rbdock.cxx#4 $)

>  <Rbt.Library>
libRbt.so (2013.1, Build901 2013/11/27)

>  <Rbt.Parameter_File>
/export/apps/rDock/src/rDock_2013.1_src/data/scripts/dock_solv.prm

>  <Rbt.Receptor>
prm/blind_docking_100.prm

>  <SCORE>
-7.29986

>  <SCORE.INTER>
-7.29986

>  <SCORE.INTER.CONST>
1

>  <SCORE.INTER.POLAR>
0

>  <SCORE.INTER.ROT>
0

>  <SCORE.INTER.SOLV>
10.7993

>  <SCORE.INTER.VDW>
-12.0663

>  <SCORE.INTER.norm>
-0.729986

>  <SCORE.INTRA>
0

>  <SCORE.INTRA.DIHEDRAL>
0

>  <SCORE.INTRA.DIHEDRAL.0>
0

>  <SCORE.INTRA.POLAR>
0

>  <SCORE.INTRA.POLAR.0>
0

>  <SCORE.INTRA.REPUL>
0

>  <SCORE.INTRA.REPUL.0>
0

>  <SCORE.INTRA.SOLV>
0

>  <SCORE.INTRA.SOLV.lig_0>
-47.9788

>  <SCORE.INTRA.VDW>
0

>  <SCORE.INTRA.VDW.0>
0

>  <SCORE.INTRA.norm>
0

>  <SCORE.RESTR>
0

>  <SCORE.RESTR.CAVITY>
0

>  <SCORE.RESTR.norm>
0

>  <SCORE.SYSTEM>
0

>  <SCORE.SYSTEM.CONST>
0

>  <SCORE.SYSTEM.DIHEDRAL>
0

>  <SCORE.SYSTEM.SOLV>
0

>  <SCORE.SYSTEM.norm>
0

>  <SCORE.heavy>
10

>  <SCORE.norm>
-0.729986

>  <RMSD>
25.109

$$$$
ligand
 OpenBabel02271912133D
libRbt.so/2013.1/901 2013/11/27
 10 11  0  0  0  0  0  0  0  0999 V2000
   35.7837    7.4339    8.2753 C   0  0  1  0  0  0  0  0  0  0  0  0
   34.8169    4.3255    9.3038 C   0  0  2  0  0  0  0  0  0  0  0  0
   36.3651    5.4160    8.3758 C   0  0  2  0  0  0  0  0  0  0  0  0
   35.7783    8.7518    8.0450 N   0  0  0  0  0  0  0  0  0  0  0  0
   33.6890    3.9819    9.9177 N   0  0  0  0  0  0  0  0  0  0  0  0
   35.7882    3.4777    8.9865 N   0  0  0  0  0  0  0  0  0  0  0  0
   36.7782    6.6135    7.9552 N   0  0  0  0  0  0  0  0  0  0  0  0
   34.7996    6.7425    8.8792 N   0  0  0  0  0  0  0  0  0  0  0  0
   36.6959    4.1168    8.4358 N   0  0  0  0  0  0  0  0  0  0  0  0
   35.1565    5.5549    8.9337 N   0  0  1  0  0  0  0  0  0  0  0  0
  1  4  1  1  0  0  0
  1  8  1  0  0  0  0
  1  7  1  0  0  0  0
  2  5  1  1  0  0  0
  2  6  1  0  0  0  0
  2 10  1  0  0  0  0
  3  7  1  6  0  0  0
  3 10  1  0  0  0  0
  3  9  1  0  0  0  0
  6  9  1  0  0  0  0
 10  8  1  6  0  0  0
M  END
>  <CHROM.1>
35.56110211,5.63772040,8.71344975,1.34850995,0.44326393,-0.17819566

>  <Name>
ligand

>  <RI>
0

>  <Rbt.Current_Directory>
/home/itssahil/PROJECTS/Mol_Feturizer/Test_systems_manuscript/rnas/2xnw

>  <Rbt.Executable>
rbdock ($Id: //depot/dev/client3/rdock/2013.1/src/exe/rbdock.cxx#4 $)

>  <Rbt.Library>
libRbt.so (2013.1, Build901 2013/11/27)

>  <Rbt.Parameter_File>
/export/apps/rDock/src/rDock_2013.1_src/data/scripts/dock_solv.prm

>  <Rbt.Receptor>
prm/blind_docking_60.prm

>  <SCORE>
-7.27443

>  <SCORE.INTER>
-7.27443

>  <SCORE.INTER.CONST>
1

>  <SCORE.INTER.POLAR>
0

>  <SCORE.INTER.ROT>
0

>  <SCORE.INTER.SOLV>
10.8786

>  <SCORE.INTER.VDW>
-12.0758

>  <SCORE.INTER.norm>
-0.727443

>  <SCORE.INTRA>
0

>  <SCORE.INTRA.DIHEDRAL>
0

>  <SCORE.INTRA.DIHEDRAL.0>
0

>  <SCORE.INTRA.POLAR>
0

>  <SCORE.INTRA.POLAR.0>
0

>  <SCORE.INTRA.REPUL>
0

>  <SCORE.INTRA.REPUL.0>
0

>  <SCORE.INTRA.SOLV>
0

>  <SCORE.INTRA.SOLV.lig_0>
-47.9788

>  <SCORE.INTRA.VDW>
0

>  <SCORE.INTRA.VDW.0>
0

>  <SCORE.INTRA.norm>
0

>  <SCORE.RESTR>
0

>  <SCORE.RESTR.CAVITY>
0

>  <SCORE.RESTR.norm>
0

>  <SCORE.SYSTEM>
0

>  <SCORE.SYSTEM.CONST>
0

>  <SCORE.SYSTEM.DIHEDRAL>
0

>  <SCORE.SYSTEM.SOLV>
0

>  <SCORE.SYSTEM.norm>
0

>  <SCORE.heavy>
10

>  <SCORE.norm>
-0.727443

>  <RMSD>
25.111

$$$$
ligand
 OpenBabel02271912133D
libRbt.so/2013.1/901 2013/11/27
 10 11  0  0  0  0  0  0  0  0999 V2000
   35.7756    7.4183    8.2797 C   0  0  1  0  0  0  0  0  0  0  0  0
   34.8351    4.3085    9.3280 C   0  0  2  0  0  0  0  0  0  0  0  0
   36.3663    5.4028    8.3766 C   0  0  2  0  0  0  0  0  0  0  0  0
   35.7620    8.7357    8.0465 N   0  0  0  0  0  0  0  0  0  0  0  0
   33.7170    3.9620    9.9581 N   0  0  0  0  0  0  0  0  0  0  0  0
   35.8052    3.4637    8.9994 N   0  0  0  0  0  0  0  0  0  0  0  0
   36.7688    6.6010    7.9478 N   0  0  0  0  0  0  0  0  0  0  0  0
   34.8026    6.7245    8.8985 N   0  0  0  0  0  0  0  0  0  0  0  0
   36.7028    4.1051    8.4348 N   0  0  0  0  0  0  0  0  0  0  0  0
   35.1648    5.5383    8.9506 N   0  0  1  0  0  0  0  0  0  0  0  0
  1  4  1  1  0  0  0
  1  8  1  0  0  0  0
  1  7  1  0  0  0  0
  2  5  1  1  0  0  0
  2  6  1  0  0  0  0
  2 10  1  0  0  0  0
  3  7  1  6  0  0  0
  3 10  1  0  0  0  0
  3  9  1  0  0  0  0
  6  9  1  0  0  0  0
 10  8  1  6  0  0  0
M  END
>  <CHROM.1>
35.56606498,5.62223870,8.72469724,1.35546294,0.45602289,-0.18342660

>  <Name>
ligand

>  <RI>
0

>  <Rbt.Current_Directory>
/home/itssahil/PROJECTS/Mol_Feturizer/Test_systems_manuscript/rnas/2xnw

>  <Rbt.Executable>
rbdock ($Id: //depot/dev/client3/rdock/2013.1/src/exe/rbdock.cxx#4 $)

>  <Rbt.Library>
libRbt.so (2013.1, Build901 2013/11/27)

>  <Rbt.Parameter_File>
/export/apps/rDock/src/rDock_2013.1_src/data/scripts/dock_solv.prm

>  <Rbt.Receptor>
prm/blind_docking_100.prm

>  <SCORE>
-7.28233

>  <SCORE.INTER>
-7.28233

>  <SCORE.INTER.CONST>
1

>  <SCORE.INTER.POLAR>
0

>  <SCORE.INTER.ROT>
0

>  <SCORE.INTER.SOLV>
10.9458

>  <SCORE.INTER.VDW>
-12.1035

>  <SCORE.INTER.norm>
-0.728233

>  <SCORE.INTRA>
0

>  <SCORE.INTRA.DIHEDRAL>
0

>  <SCORE.INTRA.DIHEDRAL.0>
0

>  <SCORE.INTRA.POLAR>
0

>  <SCORE.INTRA.POLAR.0>
0

>  <SCORE.INTRA.REPUL>
0

>  <SCORE.INTRA.REPUL.0>
0

>  <SCORE.INTRA.SOLV>
0

>  <SCORE.INTRA.SOLV.lig_0>
-47.9788

>  <SCORE.INTRA.VDW>
0

>  <SCORE.INTRA.VDW.0>
0

>  <SCORE.INTRA.norm>
0

>  <SCORE.RESTR>
0

>  <SCORE.RESTR.CAVITY>
0

>  <SCORE.RESTR.norm>
0

>  <SCORE.SYSTEM>
0

>  <SCORE.SYSTEM.CONST>
0

>  <SCORE.SYSTEM.DIHEDRAL>
0

>  <SCORE.SYSTEM.SOLV>
0

>  <SCORE.SYSTEM.norm>
0

>  <SCORE.heavy>
10

>  <SCORE.norm>
-0.728233

>  <RMSD>
25.112

$$$$
ligand
 OpenBabel02271912133D
libRbt.so/2013.1/901 2013/11/27
 10 11  0  0  0  0  0  0  0  0999 V2000
   35.7813    7.4466    8.2696 C   0  0  1  0  0  0  0  0  0  0  0  0
   34.8114    4.3374    9.2927 C   0  0  2  0  0  0  0  0  0  0  0  0
   36.3731    5.4329    8.3938 C   0  0  2  0  0  0  0  0  0  0  0  0
   35.7729    8.7632    8.0322 N   0  0  0  0  0  0  0  0  0  0  0  0
   33.6722    3.9898    9.8830 N   0  0  0  0  0  0  0  0  0  0  0  0
   35.7948    3.4942    9.0017 N   0  0  0  0  0  0  0  0  0  0  0  0
   36.7879    6.6309    7.9762 N   0  0  0  0  0  0  0  0  0  0  0  0
   34.7884    6.7520    8.8550 N   0  0  0  0  0  0  0  0  0  0  0  0
   36.7106    4.1363    8.4680 N   0  0  0  0  0  0  0  0  0  0  0  0
   35.1514    5.5670    8.9238 N   0  0  1  0  0  0  0  0  0  0  0  0
  1  4  1  1  0  0  0
  1  8  1  0  0  0  0
  1  7  1  0  0  0  0
  2  5  1  1  0  0  0
  2  6  1  0  0  0  0
  2 10  1  0  0  0  0
  3  7  1  6  0  0  0
  3 10  1  0  0  0  0
  3  9  1  0  0  0  0
  6  9  1  0  0  0  0
 10  8  1  6  0  0  0
M  END
>  <CHROM.1>
35.56034353,5.65126803,8.71216923,1.35094519,0.42011787,-0.18444441

>  <Name>
ligand

>  <RI>
0

>  <Rbt.Current_Directory>
/home/itssahil/PROJECTS/Mol_Feturizer/Test_systems_manuscript/rnas/2xnw

>  <Rbt.Executable>
rbdock ($Id: //depot/dev/client3/rdock/2013.1/src/exe/rbdock.cxx#4 $)

>  <Rbt.Library>
libRbt.so (2013.1, Build901 2013/11/27)

>  <Rbt.Parameter_File>
/export/apps/rDock/src/rDock_2013.1_src/data/scripts/dock_solv.prm

>  <Rbt.Receptor>
prm/blind_docking_80.prm

>  <SCORE>
-7.29941

>  <SCORE.INTER>
-7.29941

>  <SCORE.INTER.CONST>
1

>  <SCORE.INTER.POLAR>
0

>  <SCORE.INTER.ROT>
0

>  <SCORE.INTER.SOLV>
10.7758

>  <SCORE.INTER.VDW>
-12.0582

>  <SCORE.INTER.norm>
-0.729941

>  <SCORE.INTRA>
0

>  <SCORE.INTRA.DIHEDRAL>
0

>  <SCORE.INTRA.DIHEDRAL.0>
0

>  <SCORE.INTRA.POLAR>
0

>  <SCORE.INTRA.POLAR.0>
0

>  <SCORE.INTRA.REPUL>
0

>  <SCORE.INTRA.REPUL.0>
0

>  <SCORE.INTRA.SOLV>
0

>  <SCORE.INTRA.SOLV.lig_0>
-47.9788

>  <SCORE.INTRA.VDW>
0

>  <SCORE.INTRA.VDW.0>
0

>  <SCORE.INTRA.norm>
0

>  <SCORE.RESTR>
0

>  <SCORE.RESTR.CAVITY>
0

>  <SCORE.RESTR.norm>
0

>  <SCORE.SYSTEM>
0

>  <SCORE.SYSTEM.CONST>
0

>  <SCORE.SYSTEM.DIHEDRAL>
0

>  <SCORE.SYSTEM.SOLV>
0

>  <SCORE.SYSTEM.norm>
0

>  <SCORE.heavy>
10

>  <SCORE.norm>
-0.729941

>  <RMSD>
25.114

$$$$
ligand
 OpenBabel02271912133D
libRbt.so/2013.1/901 2013/11/27
 10 11  0  0  0  0  0  0  0  0999 V2000
   35.7825    7.4519    8.2666 C   0  0  1  0  0  0  0  0  0  0  0  0
   34.8122    4.3415    9.2853 C   0  0  2  0  0  0  0  0  0  0  0  0
   36.3747    5.4383    8.3895 C   0  0  2  0  0  0  0  0  0  0  0  0
   35.7740    8.7688    8.0304 N   0  0  0  0  0  0  0  0  0  0  0  0
   33.6723    3.9929    9.8738 N   0  0  0  0  0  0  0  0  0  0  0  0
   35.7962    3.4988    8.9949 N   0  0  0  0  0  0  0  0  0  0  0  0
   36.7897    6.6368    7.9737 N   0  0  0  0  0  0  0  0  0  0  0  0
   34.7890    6.7565    8.8500 N   0  0  0  0  0  0  0  0  0  0  0  0
   36.7125    4.1417    8.4630 N   0  0  0  0  0  0  0  0  0  0  0  0
   35.1523    5.5715    8.9180 N   0  0  1  0  0  0  0  0  0  0  0  0
  1  4  1  1  0  0  0
  1  8  1  0  0  0  0
  1  7  1  0  0  0  0
  2  5  1  1  0  0  0
  2  6  1  0  0  0  0
  2 10  1  0  0  0  0
  3  7  1  6  0  0  0
  3 10  1  0  0  0  0
  3  9  1  0  0  0  0
  6  9  1  0  0  0  0
 10  8  1  6  0  0  0
M  END
>  <CHROM.1>
35.56146771,5.65611706,8.70707466,1.35100328,0.41874776,-0.18350702

>  <Name>
ligand

>  <RI>
0

>  <Rbt.Current_Directory>
/home/itssahil/PROJECTS/Mol_Feturizer/Test_systems_manuscript/rnas/2xnw

>  <Rbt.Executable>
rbdock ($Id: //depot/dev/client3/rdock/2013.1/src/exe/rbdock.cxx#4 $)

>  <Rbt.Library>
libRbt.so (2013.1, Build901 2013/11/27)

>  <Rbt.Parameter_File>
/export/apps/rDock/src/rDock_2013.1_src/data/scripts/dock_solv.prm

>  <Rbt.Receptor>
prm/blind_docking_60.prm

>  <SCORE>
-7.29761

>  <SCORE.INTER>
-7.29761

>  <SCORE.INTER.CONST>
1

>  <SCORE.INTER.POLAR>
0

>  <SCORE.INTER.ROT>
0

>  <SCORE.INTER.SOLV>
10.7709

>  <SCORE.INTER.VDW>
-12.0554

>  <SCORE.INTER.norm>
-0.729761

>  <SCORE.INTRA>
0

>  <SCORE.INTRA.DIHEDRAL>
0

>  <SCORE.INTRA.DIHEDRAL.0>
0

>  <SCORE.INTRA.POLAR>
0

>  <SCORE.INTRA.POLAR.0>
0

>  <SCORE.INTRA.REPUL>
0

>  <SCORE.INTRA.REPUL.0>
0

>  <SCORE.INTRA.SOLV>
0

>  <SCORE.INTRA.SOLV.lig_0>
-47.9788

>  <SCORE.INTRA.VDW>
0

>  <SCORE.INTRA.VDW.0>
0

>  <SCORE.INTRA.norm>
0

>  <SCORE.RESTR>
0

>  <SCORE.RESTR.CAVITY>
0

>  <SCORE.RESTR.norm>
0

>  <SCORE.SYSTEM>
0

>  <SCORE.SYSTEM.CONST>
0

>  <SCORE.SYSTEM.DIHEDRAL>
0

>  <SCORE.SYSTEM.SOLV>
0

>  <SCORE.SYSTEM.norm>
0

>  <SCORE.heavy>
10

>  <SCORE.norm>
-0.729761

>  <RMSD>
25.116

$$$$
ligand
 OpenBabel02271912133D
libRbt.so/2013.1/901 2013/11/27
 10 11  0  0  0  0  0  0  0  0999 V2000
   35.7849    7.4568    8.2624 C   0  0  1  0  0  0  0  0  0  0  0  0
   34.8087    4.3476    9.2797 C   0  0  2  0  0  0  0  0  0  0  0  0
   36.3741    5.4423    8.3862 C   0  0  2  0  0  0  0  0  0  0  0  0
   35.7785    8.7737    8.0264 N   0  0  0  0  0  0  0  0  0  0  0  0
   33.6675    4.0007    9.8666 N   0  0  0  0  0  0  0  0  0  0  0  0
   35.7920    3.5036    8.9906 N   0  0  0  0  0  0  0  0  0  0  0  0
   36.7913    6.6402    7.9709 N   0  0  0  0  0  0  0  0  0  0  0  0
   34.7896    6.7627    8.8444 N   0  0  0  0  0  0  0  0  0  0  0  0
   36.7099    4.1452    8.4600 N   0  0  0  0  0  0  0  0  0  0  0  0
   35.1511    5.5772    8.9130 N   0  0  1  0  0  0  0  0  0  0  0  0
  1  4  1  1  0  0  0
  1  8  1  0  0  0  0
  1  7  1  0  0  0  0
  2  5  1  1  0  0  0
  2  6  1  0  0  0  0
  2 10  1  0  0  0  0
  3  7  1  6  0  0  0
  3 10  1  0  0  0  0
  3  9  1  0  0  0  0
  6  9  1  0  0  0  0
 10  8  1  6  0  0  0
M  END
>  <CHROM.1>
35.56069086,5.66125505,8.70257089,1.34921616,0.41763404,-0.18273196

>  <Name>
ligand

>  <RI>
0

>  <Rbt.Current_Directory>
/home/itssahil/PROJECTS/Mol_Feturizer/Test_systems_manuscript/rnas/2xnw

>  <Rbt.Executable>
rbdock ($Id: //depot/dev/client3/rdock/2013.1/src/exe/rbdock.cxx#4 $)

>  <Rbt.Library>
libRbt.so (2013.1, Build901 2013/11/27)

>  <Rbt.Parameter_File>
/export/apps/rDock/src/rDock_2013.1_src/data/scripts/dock_solv.prm

>  <Rbt.Receptor>
prm/blind_docking_40.prm

>  <SCORE>
-7.29683

>  <SCORE.INTER>
-7.29683

>  <SCORE.INTER.CONST>
1

>  <SCORE.INTER.POLAR>
0

>  <SCORE.INTER.ROT>
0

>  <SCORE.INTER.SOLV>
10.758

>  <SCORE.INTER.VDW>
-12.0505

>  <SCORE.INTER.norm>
-0.729683

>  <SCORE.INTRA>
0

>  <SCORE.INTRA.DIHEDRAL>
0

>  <SCORE.INTRA.DIHEDRAL.0>
0

>  <SCORE.INTRA.POLAR>
0

>  <SCORE.INTRA.POLAR.0>
0

>  <SCORE.INTRA.REPUL>
0

>  <SCORE.INTRA.REPUL.0>
0

>  <SCORE.INTRA.SOLV>
0

>  <SCORE.INTRA.SOLV.lig_0>
-47.9788

>  <SCORE.INTRA.VDW>
0

>  <SCORE.INTRA.VDW.0>
0

>  <SCORE.INTRA.norm>
0

>  <SCORE.RESTR>
0

>  <SCORE.RESTR.CAVITY>
0

>  <SCORE.RESTR.norm>
0

>  <SCORE.SYSTEM>
0

>  <SCORE.SYSTEM.CONST>
0

>  <SCORE.SYSTEM.DIHEDRAL>
0

>  <SCORE.SYSTEM.SOLV>
0

>  <SCORE.SYSTEM.norm>
0

>  <SCORE.heavy>
10

>  <SCORE.norm>
-0.729683

>  <RMSD>
25.117

$$$$
ligand
 OpenBabel02271912133D
libRbt.so/2013.1/901 2013/11/27
 10 11  0  0  0  0  0  0  0  0999 V2000
   35.7878    7.4440    8.2700 C   0  0  1  0  0  0  0  0  0  0  0  0
   34.8165    4.3353    9.2931 C   0  0  2  0  0  0  0  0  0  0  0  0
   36.3796    5.4305    8.3963 C   0  0  2  0  0  0  0  0  0  0  0  0
   35.7796    8.7606    8.0319 N   0  0  0  0  0  0  0  0  0  0  0  0
   33.6763    3.9879    9.8818 N   0  0  0  0  0  0  0  0  0  0  0  0
   35.8005    3.4921    9.0043 N   0  0  0  0  0  0  0  0  0  0  0  0
   36.7950    6.6283    7.9787 N   0  0  0  0  0  0  0  0  0  0  0  0
   34.7940    6.7497    8.8542 N   0  0  0  0  0  0  0  0  0  0  0  0
   36.7171    4.1339    8.4717 N   0  0  0  0  0  0  0  0  0  0  0  0
   35.1570    5.5647    8.9241 N   0  0  1  0  0  0  0  0  0  0  0  0
  1  4  1  1  0  0  0
  1  8  1  0  0  0  0
  1  7  1  0  0  0  0
  2  5  1  1  0  0  0
  2  6  1  0  0  0  0
  2 10  1  0  0  0  0
  3  7  1  6  0  0  0
  3 10  1  0  0  0  0
  3  9  1  0  0  0  0
  6  9  1  0  0  0  0
 10  8  1  6  0  0  0
M  END
>  <CHROM.1>
35.56627267,5.64896468,8.71318726,1.35071210,0.41846090,-0.18488751

>  <Name>
ligand

>  <RI>
0

>  <Rbt.Current_Directory>
/home/itssahil/PROJECTS/Mol_Feturizer/Test_systems_manuscript/rnas/2xnw

>  <Rbt.Executable>
rbdock ($Id: //depot/dev/client3/rdock/2013.1/src/exe/rbdock.cxx#4 $)

>  <Rbt.Library>
libRbt.so (2013.1, Build901 2013/11/27)

>  <Rbt.Parameter_File>
/export/apps/rDock/src/rDock_2013.1_src/data/scripts/dock_solv.prm

>  <Rbt.Receptor>
prm/blind_docking_100.prm

>  <SCORE>
-7.29183

>  <SCORE.INTER>
-7.29183

>  <SCORE.INTER.CONST>
1

>  <SCORE.INTER.POLAR>
0

>  <SCORE.INTER.ROT>
0

>  <SCORE.INTER.SOLV>
10.776

>  <SCORE.INTER.VDW>
-12.0532

>  <SCORE.INTER.norm>
-0.729183

>  <SCORE.INTRA>
0

>  <SCORE.INTRA.DIHEDRAL>
0

>  <SCORE.INTRA.DIHEDRAL.0>
0

>  <SCORE.INTRA.POLAR>
0

>  <SCORE.INTRA.POLAR.0>
0

>  <SCORE.INTRA.REPUL>
0

>  <SCORE.INTRA.REPUL.0>
0

>  <SCORE.INTRA.SOLV>
0

>  <SCORE.INTRA.SOLV.lig_0>
-47.9788

>  <SCORE.INTRA.VDW>
0

>  <SCORE.INTRA.VDW.0>
0

>  <SCORE.INTRA.norm>
0

>  <SCORE.RESTR>
0

>  <SCORE.RESTR.CAVITY>
0

>  <SCORE.RESTR.norm>
0

>  <SCORE.SYSTEM>
0

>  <SCORE.SYSTEM.CONST>
0

>  <SCORE.SYSTEM.DIHEDRAL>
0

>  <SCORE.SYSTEM.SOLV>
0

>  <SCORE.SYSTEM.norm>
0

>  <SCORE.heavy>
10

>  <SCORE.norm>
-0.729183

>  <RMSD>
25.119

$$$$
ligand
 OpenBabel02271912133D
libRbt.so/2013.1/901 2013/11/27
 10 11  0  0  0  0  0  0  0  0999 V2000
   35.7936    7.4247    8.2685 C   0  0  1  0  0  0  0  0  0  0  0  0
   34.8897    4.3023    9.3115 C   0  0  2  0  0  0  0  0  0  0  0  0
   36.4003    5.4132    8.3465 C   0  0  2  0  0  0  0  0  0  0  0  0
   35.7673    8.7432    8.0430 N   0  0  0  0  0  0  0  0  0  0  0  0
   33.7825    3.9440    9.9540 N   0  0  0  0  0  0  0  0  0  0  0  0
   35.8617    3.4666    8.9656 N   0  0  0  0  0  0  0  0  0  0  0  0
   36.7884    6.6166    7.9192 N   0  0  0  0  0  0  0  0  0  0  0  0
   34.8339    6.7203    8.8960 N   0  0  0  0  0  0  0  0  0  0  0  0
   36.7471    4.1177    8.3931 N   0  0  0  0  0  0  0  0  0  0  0  0
   35.2054    5.5366    8.9368 N   0  0  1  0  0  0  0  0  0  0  0  0
  1  4  1  1  0  0  0
  1  8  1  0  0  0  0
  1  7  1  0  0  0  0
  2  5  1  1  0  0  0
  2  6  1  0  0  0  0
  2 10  1  0  0  0  0
  3  7  1  6  0  0  0
  3 10  1  0  0  0  0
  3  9  1  0  0  0  0
  6  9  1  0  0  0  0
 10  8  1  6  0  0  0
M  END
>  <CHROM.1>
35.60306583,5.62472555,8.70616745,1.36622674,0.46741092,-0.18265811

>  <Name>
ligand

>  <RI>
0

>  <Rbt.Current_Directory>
/home/itssahil/PROJECTS/Mol_Feturizer/Test_systems_manuscript/rnas/2xnw

>  <Rbt.Executable>
rbdock ($Id: //depot/dev/client3/rdock/2013.1/src/exe/rbdock.cxx#4 $)

>  <Rbt.Library>
libRbt.so (2013.1, Build901 2013/11/27)

>  <Rbt.Parameter_File>
/export/apps/rDock/src/rDock_2013.1_src/data/scripts/dock_solv.prm

>  <Rbt.Receptor>
prm/blind_docking_100.prm

>  <SCORE>
-7.28676

>  <SCORE.INTER>
-7.28676

>  <SCORE.INTER.CONST>
1

>  <SCORE.INTER.POLAR>
0

>  <SCORE.INTER.ROT>
0

>  <SCORE.INTER.SOLV>
11.0287

>  <SCORE.INTER.VDW>
-12.1341

>  <SCORE.INTER.norm>
-0.728676

>  <SCORE.INTRA>
0

>  <SCORE.INTRA.DIHEDRAL>
0

>  <SCORE.INTRA.DIHEDRAL.0>
0

>  <SCORE.INTRA.POLAR>
0

>  <SCORE.INTRA.POLAR.0>
0

>  <SCORE.INTRA.REPUL>
0

>  <SCORE.INTRA.REPUL.0>
0

>  <SCORE.INTRA.SOLV>
0

>  <SCORE.INTRA.SOLV.lig_0>
-47.9788

>  <SCORE.INTRA.VDW>
0

>  <SCORE.INTRA.VDW.0>
0

>  <SCORE.INTRA.norm>
0

>  <SCORE.RESTR>
0

>  <SCORE.RESTR.CAVITY>
0

>  <SCORE.RESTR.norm>
0

>  <SCORE.SYSTEM>
0

>  <SCORE.SYSTEM.CONST>
0

>  <SCORE.SYSTEM.DIHEDRAL>
0

>  <SCORE.SYSTEM.SOLV>
0

>  <SCORE.SYSTEM.norm>
0

>  <SCORE.heavy>
10

>  <SCORE.norm>
-0.728676

>  <RMSD>
25.147

$$$$
ligand
 OpenBabel02271912133D
libRbt.so/2013.1/901 2013/11/27
 10 11  0  0  0  0  0  0  0  0999 V2000
   35.7953    7.4291    8.2707 C   0  0  1  0  0  0  0  0  0  0  0  0
   34.8885    4.3060    9.3091 C   0  0  2  0  0  0  0  0  0  0  0  0
   36.3999    5.4169    8.3455 C   0  0  2  0  0  0  0  0  0  0  0  0
   35.7703    8.7480    8.0472 N   0  0  0  0  0  0  0  0  0  0  0  0
   33.7810    3.9478    9.9513 N   0  0  0  0  0  0  0  0  0  0  0  0
   35.8595    3.4698    8.9617 N   0  0  0  0  0  0  0  0  0  0  0  0
   36.7892    6.6206    7.9200 N   0  0  0  0  0  0  0  0  0  0  0  0
   34.8350    6.7247    8.8973 N   0  0  0  0  0  0  0  0  0  0  0  0
   36.7455    4.1210    8.3900 N   0  0  0  0  0  0  0  0  0  0  0  0
   35.2053    5.5406    8.9362 N   0  0  1  0  0  0  0  0  0  0  0  0
  1  4  1  1  0  0  0
  1  8  1  0  0  0  0
  1  7  1  0  0  0  0
  2  5  1  1  0  0  0
  2  6  1  0  0  0  0
  2 10  1  0  0  0  0
  3  7  1  6  0  0  0
  3 10  1  0  0  0  0
  3  9  1  0  0  0  0
  6  9  1  0  0  0  0
 10  8  1  6  0  0  0
M  END
>  <CHROM.1>
35.60303475,5.62865678,8.70564629,1.36515249,0.46781495,-0.18064307

>  <Name>
ligand

>  <RI>
0

>  <Rbt.Current_Directory>
/home/itssahil/PROJECTS/Mol_Feturizer/Test_systems_manuscript/rnas/2xnw

>  <Rbt.Executable>
rbdock ($Id: //depot/dev/client3/rdock/2013.1/src/exe/rbdock.cxx#4 $)

>  <Rbt.Library>
libRbt.so (2013.1, Build901 2013/11/27)

>  <Rbt.Parameter_File>
/export/apps/rDock/src/rDock_2013.1_src/data/scripts/dock_solv.prm

>  <Rbt.Receptor>
prm/blind_docking_40.prm

>  <SCORE>
-7.28283

>  <SCORE.INTER>
-7.28283

>  <SCORE.INTER.CONST>
1

>  <SCORE.INTER.POLAR>
0

>  <SCORE.INTER.ROT>
0

>  <SCORE.INTER.SOLV>
11.0346

>  <SCORE.INTER.VDW>
-12.1334

>  <SCORE.INTER.norm>
-0.728283

>  <SCORE.INTRA>
0

>  <SCORE.INTRA.DIHEDRAL>
0

>  <SCORE.INTRA.DIHEDRAL.0>
0

>  <SCORE.INTRA.POLAR>
0

>  <SCORE.INTRA.POLAR.0>
0

>  <SCORE.INTRA.REPUL>
0

>  <SCORE.INTRA.REPUL.0>
0

>  <SCORE.INTRA.SOLV>
0

>  <SCORE.INTRA.SOLV.lig_0>
-47.9788

>  <SCORE.INTRA.VDW>
0

>  <SCORE.INTRA.VDW.0>
0

>  <SCORE.INTRA.norm>
0

>  <SCORE.RESTR>
0

>  <SCORE.RESTR.CAVITY>
0

>  <SCORE.RESTR.norm>
0

>  <SCORE.SYSTEM>
0

>  <SCORE.SYSTEM.CONST>
0

>  <SCORE.SYSTEM.DIHEDRAL>
0

>  <SCORE.SYSTEM.SOLV>
0

>  <SCORE.SYSTEM.norm>
0

>  <SCORE.heavy>
10

>  <SCORE.norm>
-0.728283

>  <RMSD>
25.148

$$$$
ligand
 OpenBabel02271912133D
libRbt.so/2013.1/901 2013/11/27
 10 11  0  0  0  0  0  0  0  0999 V2000
   34.0858   -4.3118   16.0226 C   0  0  1  0  0  0  0  0  0  0  0  0
   36.3674   -5.9095   17.9964 C   0  0  2  0  0  0  0  0  0  0  0  0
   34.5495   -6.1394   16.9527 C   0  0  2  0  0  0  0  0  0  0  0  0
   33.4770   -3.3642   15.3005 N   0  0  0  0  0  0  0  0  0  0  0  0
   37.4967   -5.4211   18.4998 N   0  0  0  0  0  0  0  0  0  0  0  0
   35.9350   -7.1504   18.1859 N   0  0  0  0  0  0  0  0  0  0  0  0
   33.6319   -5.5498   16.1834 N   0  0  0  0  0  0  0  0  0  0  0  0
   35.2525   -4.1661   16.6773 N   0  0  0  0  0  0  0  0  0  0  0  0
   34.8637   -7.2846   17.5777 N   0  0  0  0  0  0  0  0  0  0  0  0
   35.5149   -5.2516   17.2193 N   0  0  1  0  0  0  0  0  0  0  0  0
  1  4  1  6  0  0  0
  1  8  1  0  0  0  0
  1  7  1  0  0  0  0
  2  5  1  6  0  0  0
  2  6  1  0  0  0  0
  2 10  1  0  0  0  0
  3  7  1  1  0  0  0
  3 10  1  0  0  0  0
  3  9  1  0  0  0  0
  6  9  1  0  0  0  0
 10  8  1  1  0  0  0
M  END
>  <CHROM.1>
35.12265930,-5.45490970,17.06473567,-2.35326509,0.52116203,2.79217166

>  <Name>
ligand

>  <RI>
0

>  <Rbt.Current_Directory>
/home/itssahil/PROJECTS/Mol_Feturizer/Test_systems_manuscript/rnas/2xnw

>  <Rbt.Executable>
rbdock ($Id: //depot/dev/client3/rdock/2013.1/src/exe/rbdock.cxx#4 $)

>  <Rbt.Library>
libRbt.so (2013.1, Build901 2013/11/27)

>  <Rbt.Parameter_File>
/export/apps/rDock/src/rDock_2013.1_src/data/scripts/dock_solv.prm

>  <Rbt.Receptor>
prm/blind_docking_80.prm

>  <SCORE>
-4.7597

>  <SCORE.INTER>
-4.7597

>  <SCORE.INTER.CONST>
1

>  <SCORE.INTER.POLAR>
0

>  <SCORE.INTER.ROT>
0

>  <SCORE.INTER.SOLV>
2.88219

>  <SCORE.INTER.VDW>
-7.73386

>  <SCORE.INTER.norm>
-0.47597

>  <SCORE.INTRA>
0

>  <SCORE.INTRA.DIHEDRAL>
0

>  <SCORE.INTRA.DIHEDRAL.0>
0

>  <SCORE.INTRA.POLAR>
0

>  <SCORE.INTRA.POLAR.0>
0

>  <SCORE.INTRA.REPUL>
0

>  <SCORE.INTRA.REPUL.0>
0

>  <SCORE.INTRA.SOLV>
0

>  <SCORE.INTRA.SOLV.lig_0>
-47.9788

>  <SCORE.INTRA.VDW>
0

>  <SCORE.INTRA.VDW.0>
0

>  <SCORE.INTRA.norm>
0

>  <SCORE.RESTR>
0

>  <SCORE.RESTR.CAVITY>
0

>  <SCORE.RESTR.norm>
0

>  <SCORE.SYSTEM>
0

>  <SCORE.SYSTEM.CONST>
0

>  <SCORE.SYSTEM.DIHEDRAL>
0

>  <SCORE.SYSTEM.SOLV>
0

>  <SCORE.SYSTEM.norm>
0

>  <SCORE.heavy>
10

>  <SCORE.norm>
-0.47597

>  <RMSD>
25.527

$$$$
ligand
 OpenBabel02271912133D
libRbt.so/2013.1/901 2013/11/27
 10 11  0  0  0  0  0  0  0  0999 V2000
   32.1613   10.6695    5.6775 C   0  0  1  0  0  0  0  0  0  0  0  0
   34.1498   12.9314    4.0700 C   0  0  2  0  0  0  0  0  0  0  0  0
   32.1778   12.5314    4.7010 C   0  0  2  0  0  0  0  0  0  0  0  0
   31.7626    9.5798    6.3435 N   0  0  0  0  0  0  0  0  0  0  0  0
   35.4588   12.8578    3.8502 N   0  0  0  0  0  0  0  0  0  0  0  0
   33.3793   13.9427    3.6874 N   0  0  0  0  0  0  0  0  0  0  0  0
   31.3657   11.6710    5.3188 N   0  0  0  0  0  0  0  0  0  0  0  0
   33.4230   10.9283    5.2871 N   0  0  0  0  0  0  0  0  0  0  0  0
   32.2191   13.7056    4.0526 N   0  0  0  0  0  0  0  0  0  0  0  0
   33.4186   12.0297    4.7147 N   0  0  1  0  0  0  0  0  0  0  0  0
  1  4  1  1  0  0  0
  1  8  1  0  0  0  0
  1  7  1  0  0  0  0
  2  5  1  1  0  0  0
  2  6  1  0  0  0  0
  2 10  1  0  0  0  0
  3  7  1  6  0  0  0
  3 10  1  0  0  0  0
  3  9  1  0  0  0  0
  6  9  1  0  0  0  0
 10  8  1  6  0  0  0
M  END
>  <CHROM.1>
32.95704059,12.08653247,4.76823394,-2.10716009,0.17818559,-0.48917976

>  <Name>
ligand

>  <RI>
0

>  <Rbt.Current_Directory>
/home/itssahil/PROJECTS/Mol_Feturizer/Test_systems_manuscript/rnas/2xnw

>  <Rbt.Executable>
rbdock ($Id: //depot/dev/client3/rdock/2013.1/src/exe/rbdock.cxx#4 $)

>  <Rbt.Library>
libRbt.so (2013.1, Build901 2013/11/27)

>  <Rbt.Parameter_File>
/export/apps/rDock/src/rDock_2013.1_src/data/scripts/dock_solv.prm

>  <Rbt.Receptor>
prm/blind_docking_80.prm

>  <SCORE>
-4.63653

>  <SCORE.INTER>
-4.63653

>  <SCORE.INTER.CONST>
1

>  <SCORE.INTER.POLAR>
0

>  <SCORE.INTER.ROT>
0

>  <SCORE.INTER.SOLV>
2.12276

>  <SCORE.INTER.VDW>
-7.39861

>  <SCORE.INTER.norm>
-0.463653

>  <SCORE.INTRA>
0

>  <SCORE.INTRA.DIHEDRAL>
0

>  <SCORE.INTRA.DIHEDRAL.0>
0

>  <SCORE.INTRA.POLAR>
0

>  <SCORE.INTRA.POLAR.0>
0

>  <SCORE.INTRA.REPUL>
0

>  <SCORE.INTRA.REPUL.0>
0

>  <SCORE.INTRA.SOLV>
0

>  <SCORE.INTRA.SOLV.lig_0>
-47.9788

>  <SCORE.INTRA.VDW>
0

>  <SCORE.INTRA.VDW.0>
0

>  <SCORE.INTRA.norm>
0

>  <SCORE.RESTR>
0

>  <SCORE.RESTR.CAVITY>
0

>  <SCORE.RESTR.norm>
0

>  <SCORE.SYSTEM>
0

>  <SCORE.SYSTEM.CONST>
0

>  <SCORE.SYSTEM.DIHEDRAL>
0

>  <SCORE.SYSTEM.SOLV>
0

>  <SCORE.SYSTEM.norm>
0

>  <SCORE.heavy>
10

>  <SCORE.norm>
-0.463653

>  <RMSD>
25.721

$$$$
ligand
 OpenBabel02271912133D
libRbt.so/2013.1/901 2013/11/27
 10 11  0  0  0  0  0  0  0  0999 V2000
   36.7715    7.3408    8.3737 C   0  0  1  0  0  0  0  0  0  0  0  0
   35.2223    5.0473   10.3723 C   0  0  2  0  0  0  0  0  0  0  0  0
   36.7225    6.5282   10.3121 C   0  0  2  0  0  0  0  0  0  0  0  0
   37.0896    8.0845    7.3080 N   0  0  0  0  0  0  0  0  0  0  0  0
   34.2233    4.2296   10.0554 N   0  0  0  0  0  0  0  0  0  0  0  0
   35.7942    5.1065   11.5691 N   0  0  0  0  0  0  0  0  0  0  0  0
   37.3565    7.4327    9.5628 N   0  0  0  0  0  0  0  0  0  0  0  0
   35.8050    6.4052    8.4129 N   0  0  0  0  0  0  0  0  0  0  0  0
   36.6800    5.9724   11.5328 N   0  0  0  0  0  0  0  0  0  0  0  0
   35.7857    5.9358    9.5619 N   0  0  1  0  0  0  0  0  0  0  0  0
  1  4  1  1  0  0  0
  1  8  1  0  0  0  0
  1  7  1  0  0  0  0
  2  5  1  1  0  0  0
  2  6  1  0  0  0  0
  2 10  1  0  0  0  0
  3  7  1  6  0  0  0
  3 10  1  0  0  0  0
  3  9  1  0  0  0  0
  6  9  1  0  0  0  0
 10  8  1  6  0  0  0
M  END
>  <CHROM.1>
36.14085739,6.20398134,9.70700917,1.01649152,-0.72566372,-1.18456747

>  <Name>
ligand

>  <RI>
0

>  <Rbt.Current_Directory>
/home/itssahil/PROJECTS/Mol_Feturizer/Test_systems_manuscript/rnas/2xnw

>  <Rbt.Executable>
rbdock ($Id: //depot/dev/client3/rdock/2013.1/src/exe/rbdock.cxx#4 $)

>  <Rbt.Library>
libRbt.so (2013.1, Build901 2013/11/27)

>  <Rbt.Parameter_File>
/export/apps/rDock/src/rDock_2013.1_src/data/scripts/dock_solv.prm

>  <Rbt.Receptor>
prm/blind_docking_60.prm

>  <SCORE>
-5.2147

>  <SCORE.INTER>
-5.2147

>  <SCORE.INTER.CONST>
1

>  <SCORE.INTER.POLAR>
0

>  <SCORE.INTER.ROT>
0

>  <SCORE.INTER.SOLV>
14.5934

>  <SCORE.INTER.VDW>
-11.9409

>  <SCORE.INTER.norm>
-0.52147

>  <SCORE.INTRA>
0

>  <SCORE.INTRA.DIHEDRAL>
0

>  <SCORE.INTRA.DIHEDRAL.0>
0

>  <SCORE.INTRA.POLAR>
0

>  <SCORE.INTRA.POLAR.0>
0

>  <SCORE.INTRA.REPUL>
0

>  <SCORE.INTRA.REPUL.0>
0

>  <SCORE.INTRA.SOLV>
0

>  <SCORE.INTRA.SOLV.lig_0>
-47.9788

>  <SCORE.INTRA.VDW>
0

>  <SCORE.INTRA.VDW.0>
0

>  <SCORE.INTRA.norm>
0

>  <SCORE.RESTR>
0

>  <SCORE.RESTR.CAVITY>
0

>  <SCORE.RESTR.norm>
0

>  <SCORE.SYSTEM>
0

>  <SCORE.SYSTEM.CONST>
0

>  <SCORE.SYSTEM.DIHEDRAL>
0

>  <SCORE.SYSTEM.SOLV>
0

>  <SCORE.SYSTEM.norm>
0

>  <SCORE.heavy>
10

>  <SCORE.norm>
-0.52147

>  <RMSD>
25.943

$$$$
ligand
 OpenBabel02271912133D
libRbt.so/2013.1/901 2013/11/27
 10 11  0  0  0  0  0  0  0  0999 V2000
   35.8961    5.8821    9.6037 C   0  0  1  0  0  0  0  0  0  0  0  0
   35.2748    8.6175    7.6579 C   0  0  2  0  0  0  0  0  0  0  0  0
   36.7939    7.3666    8.4161 C   0  0  2  0  0  0  0  0  0  0  0  0
   35.7076    4.8189   10.3937 N   0  0  0  0  0  0  0  0  0  0  0  0
   34.0975    9.1590    7.3614 N   0  0  0  0  0  0  0  0  0  0  0  0
   36.4427    9.0719    7.2196 N   0  0  0  0  0  0  0  0  0  0  0  0
   37.0794    6.3048    9.1727 N   0  0  0  0  0  0  0  0  0  0  0  0
   34.9237    6.6712    9.1109 N   0  0  0  0  0  0  0  0  0  0  0  0
   37.3365    8.3409    7.6696 N   0  0  0  0  0  0  0  0  0  0  0  0
   35.4668    7.5407    8.4110 N   0  0  1  0  0  0  0  0  0  0  0  0
  1  4  1  6  0  0  0
  1  8  1  0  0  0  0
  1  7  1  0  0  0  0
  2  5  1  6  0  0  0
  2  6  1  0  0  0  0
  2 10  1  0  0  0  0
  3  7  1  1  0  0  0
  3 10  1  0  0  0  0
  3  9  1  0  0  0  0
  6  9  1  0  0  0  0
 10  8  1  1  0  0  0
M  END
>  <CHROM.1>
35.89803680,7.38132866,8.49908798,1.48416668,-0.07412265,2.51012458

>  <Name>
ligand

>  <RI>
0

>  <Rbt.Current_Directory>
/home/itssahil/PROJECTS/Mol_Feturizer/Test_systems_manuscript/rnas/2xnw

>  <Rbt.Executable>
rbdock ($Id: //depot/dev/client3/rdock/2013.1/src/exe/rbdock.cxx#4 $)

>  <Rbt.Library>
libRbt.so (2013.1, Build901 2013/11/27)

>  <Rbt.Parameter_File>
/export/apps/rDock/src/rDock_2013.1_src/data/scripts/dock_solv.prm

>  <Rbt.Receptor>
prm/blind_docking_80.prm

>  <SCORE>
-5.51829

>  <SCORE.INTER>
-5.51829

>  <SCORE.INTER.CONST>
1

>  <SCORE.INTER.POLAR>
0

>  <SCORE.INTER.ROT>
0

>  <SCORE.INTER.SOLV>
7.89665

>  <SCORE.INTER.VDW>
-9.91108

>  <SCORE.INTER.norm>
-0.551829

>  <SCORE.INTRA>
0

>  <SCORE.INTRA.DIHEDRAL>
0

>  <SCORE.INTRA.DIHEDRAL.0>
0

>  <SCORE.INTRA.POLAR>
0

>  <SCORE.INTRA.POLAR.0>
0

>  <SCORE.INTRA.REPUL>
0

>  <SCORE.INTRA.REPUL.0>
0

>  <SCORE.INTRA.SOLV>
0

>  <SCORE.INTRA.SOLV.lig_0>
-47.9788

>  <SCORE.INTRA.VDW>
0

>  <SCORE.INTRA.VDW.0>
0

>  <SCORE.INTRA.norm>
0

>  <SCORE.RESTR>
0

>  <SCORE.RESTR.CAVITY>
0

>  <SCORE.RESTR.norm>
0

>  <SCORE.SYSTEM>
0

>  <SCORE.SYSTEM.CONST>
0

>  <SCORE.SYSTEM.DIHEDRAL>
0

>  <SCORE.SYSTEM.SOLV>
0

>  <SCORE.SYSTEM.norm>
0

>  <SCORE.heavy>
10

>  <SCORE.norm>
-0.551829

>  <RMSD>
25.956

$$$$
ligand
 OpenBabel02271912133D
libRbt.so/2013.1/901 2013/11/27
 10 11  0  0  0  0  0  0  0  0999 V2000
   36.6606    7.4932    8.2472 C   0  0  1  0  0  0  0  0  0  0  0  0
   36.6265    4.9988   10.5776 C   0  0  2  0  0  0  0  0  0  0  0  0
   36.6355    5.4073    8.5088 C   0  0  2  0  0  0  0  0  0  0  0  0
   36.6859    8.7111    7.6938 N   0  0  0  0  0  0  0  0  0  0  0  0
   36.6442    5.1170   11.9016 N   0  0  0  0  0  0  0  0  0  0  0  0
   36.5977    3.8419    9.9268 N   0  0  0  0  0  0  0  0  0  0  0  0
   36.6438    6.3526    7.5666 N   0  0  0  0  0  0  0  0  0  0  0  0
   36.6678    7.2351    9.5680 N   0  0  0  0  0  0  0  0  0  0  0  0
   36.5970    4.0812    8.7109 N   0  0  0  0  0  0  0  0  0  0  0  0
   36.6549    6.0018    9.7078 N   0  0  1  0  0  0  0  0  0  0  0  0
  1  4  1  6  0  0  0
  1  8  1  0  0  0  0
  1  7  1  0  0  0  0
  2  5  1  1  0  0  0
  2  6  1  0  0  0  0
  2 10  1  0  0  0  0
  3  7  1  1  0  0  0
  3 10  1  0  0  0  0
  3  9  1  0  0  0  0
  6  9  1  0  0  0  0
 10  8  1  1  0  0  0
M  END
>  <CHROM.1>
36.64142211,5.92210407,9.24669445,-0.95182453,1.54957463,1.86815475

>  <Name>
ligand

>  <RI>
0

>  <Rbt.Current_Directory>
/home/itssahil/PROJECTS/Mol_Feturizer/Test_systems_manuscript/rnas/2xnw

>  <Rbt.Executable>
rbdock ($Id: //depot/dev/client3/rdock/2013.1/src/exe/rbdock.cxx#4 $)

>  <Rbt.Library>
libRbt.so (2013.1, Build901 2013/11/27)

>  <Rbt.Parameter_File>
/export/apps/rDock/src/rDock_2013.1_src/data/scripts/dock_solv.prm

>  <Rbt.Receptor>
prm/blind_docking_80.prm

>  <SCORE>
-5.54714

>  <SCORE.INTER>
-5.54714

>  <SCORE.INTER.CONST>
1

>  <SCORE.INTER.POLAR>
0

>  <SCORE.INTER.ROT>
0

>  <SCORE.INTER.SOLV>
19.3646

>  <SCORE.INTER.VDW>
-13.753

>  <SCORE.INTER.norm>
-0.554714

>  <SCORE.INTRA>
0

>  <SCORE.INTRA.DIHEDRAL>
0

>  <SCORE.INTRA.DIHEDRAL.0>
0

>  <SCORE.INTRA.POLAR>
0

>  <SCORE.INTRA.POLAR.0>
0

>  <SCORE.INTRA.REPUL>
0

>  <SCORE.INTRA.REPUL.0>
0

>  <SCORE.INTRA.SOLV>
0

>  <SCORE.INTRA.SOLV.lig_0>
-47.9788

>  <SCORE.INTRA.VDW>
0

>  <SCORE.INTRA.VDW.0>
0

>  <SCORE.INTRA.norm>
0

>  <SCORE.RESTR>
0

>  <SCORE.RESTR.CAVITY>
0

>  <SCORE.RESTR.norm>
0

>  <SCORE.SYSTEM>
0

>  <SCORE.SYSTEM.CONST>
0

>  <SCORE.SYSTEM.DIHEDRAL>
0

>  <SCORE.SYSTEM.SOLV>
0

>  <SCORE.SYSTEM.norm>
0

>  <SCORE.heavy>
10

>  <SCORE.norm>
-0.554714

>  <RMSD>
26.284

$$$$
ligand
 OpenBabel02271912133D
libRbt.so/2013.1/901 2013/11/27
 10 11  0  0  0  0  0  0  0  0999 V2000
   36.6455    7.4759    8.2315 C   0  0  1  0  0  0  0  0  0  0  0  0
   36.6475    4.9958   10.5774 C   0  0  2  0  0  0  0  0  0  0  0  0
   36.6553    5.3914    8.5061 C   0  0  2  0  0  0  0  0  0  0  0  0
   36.6515    8.6905    7.6705 N   0  0  0  0  0  0  0  0  0  0  0  0
   36.6595    5.1226   11.9007 N   0  0  0  0  0  0  0  0  0  0  0  0
   36.6403    3.8345    9.9339 N   0  0  0  0  0  0  0  0  0  0  0  0
   36.6501    6.3309    7.5580 N   0  0  0  0  0  0  0  0  0  0  0  0
   36.6534    7.2262    9.5538 N   0  0  0  0  0  0  0  0  0  0  0  0
   36.6389    4.0662    8.7165 N   0  0  0  0  0  0  0  0  0  0  0  0
   36.6612    5.9937    9.7013 N   0  0  1  0  0  0  0  0  0  0  0  0
  1  4  1  6  0  0  0
  1  8  1  0  0  0  0
  1  7  1  0  0  0  0
  2  5  1  1  0  0  0
  2  6  1  0  0  0  0
  2 10  1  0  0  0  0
  3  7  1  6  0  0  0
  3 10  1  0  0  0  0
  3  9  1  0  0  0  0
  6  9  1  0  0  0  0
 10  8  1  6  0  0  0
M  END
>  <CHROM.1>
36.65034161,5.91089414,9.24076542,-1.47402404,1.56609549,2.38405804

>  <Name>
ligand

>  <RI>
0

>  <Rbt.Current_Directory>
/home/itssahil/PROJECTS/Mol_Feturizer/Test_systems_manuscript/rnas/2xnw

>  <Rbt.Executable>
rbdock ($Id: //depot/dev/client3/rdock/2013.1/src/exe/rbdock.cxx#4 $)

>  <Rbt.Library>
libRbt.so (2013.1, Build901 2013/11/27)

>  <Rbt.Parameter_File>
/export/apps/rDock/src/rDock_2013.1_src/data/scripts/dock_solv.prm

>  <Rbt.Receptor>
prm/blind_docking_100.prm

>  <SCORE>
-5.49135

>  <SCORE.INTER>
-5.49135

>  <SCORE.INTER.CONST>
1

>  <SCORE.INTER.POLAR>
0

>  <SCORE.INTER.ROT>
0

>  <SCORE.INTER.SOLV>
19.4036

>  <SCORE.INTER.VDW>
-13.7288

>  <SCORE.INTER.norm>
-0.549135

>  <SCORE.INTRA>
0

>  <SCORE.INTRA.DIHEDRAL>
0

>  <SCORE.INTRA.DIHEDRAL.0>
0

>  <SCORE.INTRA.POLAR>
0

>  <SCORE.INTRA.POLAR.0>
0

>  <SCORE.INTRA.REPUL>
0

>  <SCORE.INTRA.REPUL.0>
0

>  <SCORE.INTRA.SOLV>
0

>  <SCORE.INTRA.SOLV.lig_0>
-47.9788

>  <SCORE.INTRA.VDW>
0

>  <SCORE.INTRA.VDW.0>
0

>  <SCORE.INTRA.norm>
0

>  <SCORE.RESTR>
0

>  <SCORE.RESTR.CAVITY>
0

>  <SCORE.RESTR.norm>
0

>  <SCORE.SYSTEM>
0

>  <SCORE.SYSTEM.CONST>
0

>  <SCORE.SYSTEM.DIHEDRAL>
0

>  <SCORE.SYSTEM.SOLV>
0

>  <SCORE.SYSTEM.norm>
0

>  <SCORE.heavy>
10

>  <SCORE.norm>
-0.549135

>  <RMSD>
26.290

$$$$
ligand
 OpenBabel02271912133D
libRbt.so/2013.1/901 2013/11/27
 10 11  0  0  0  0  0  0  0  0999 V2000
   36.6826    7.5233    8.2330 C   0  0  1  0  0  0  0  0  0  0  0  0
   36.6164    5.0323   10.5664 C   0  0  2  0  0  0  0  0  0  0  0  0
   36.6362    5.4380    8.4971 C   0  0  2  0  0  0  0  0  0  0  0  0
   36.7216    8.7401    7.6782 N   0  0  0  0  0  0  0  0  0  0  0  0
   36.6308    5.1521   11.8903 N   0  0  0  0  0  0  0  0  0  0  0  0
   36.5784    3.8749    9.9170 N   0  0  0  0  0  0  0  0  0  0  0  0
   36.6569    6.3820    7.5537 N   0  0  0  0  0  0  0  0  0  0  0  0
   36.6828    7.2668    9.5541 N   0  0  0  0  0  0  0  0  0  0  0  0
   36.5841    4.1126    8.7008 N   0  0  0  0  0  0  0  0  0  0  0  0
   36.6574    6.0338    9.6954 N   0  0  1  0  0  0  0  0  0  0  0  0
  1  4  1  6  0  0  0
  1  8  1  0  0  0  0
  1  7  1  0  0  0  0
  2  5  1  1  0  0  0
  2  6  1  0  0  0  0
  2 10  1  0  0  0  0
  3  7  1  6  0  0  0
  3 10  1  0  0  0  0
  3  9  1  0  0  0  0
  6  9  1  0  0  0  0
 10  8  1  6  0  0  0
M  END
>  <CHROM.1>
36.64470741,5.95368698,9.23440237,-0.75059514,1.54058587,1.66571143

>  <Name>
ligand

>  <RI>
0

>  <Rbt.Current_Directory>
/home/itssahil/PROJECTS/Mol_Feturizer/Test_systems_manuscript/rnas/2xnw

>  <Rbt.Executable>
rbdock ($Id: //depot/dev/client3/rdock/2013.1/src/exe/rbdock.cxx#4 $)

>  <Rbt.Library>
libRbt.so (2013.1, Build901 2013/11/27)

>  <Rbt.Parameter_File>
/export/apps/rDock/src/rDock_2013.1_src/data/scripts/dock_solv.prm

>  <Rbt.Receptor>
prm/blind_docking_60.prm

>  <SCORE>
-5.61418

>  <SCORE.INTER>
-5.61418

>  <SCORE.INTER.CONST>
1

>  <SCORE.INTER.POLAR>
0

>  <SCORE.INTER.ROT>
0

>  <SCORE.INTER.SOLV>
19.3191

>  <SCORE.INTER.VDW>
-13.7825

>  <SCORE.INTER.norm>
-0.561418

>  <SCORE.INTRA>
0

>  <SCORE.INTRA.DIHEDRAL>
0

>  <SCORE.INTRA.DIHEDRAL.0>
0

>  <SCORE.INTRA.POLAR>
0

>  <SCORE.INTRA.POLAR.0>
0

>  <SCORE.INTRA.REPUL>
0

>  <SCORE.INTRA.REPUL.0>
0

>  <SCORE.INTRA.SOLV>
0

>  <SCORE.INTRA.SOLV.lig_0>
-47.9788

>  <SCORE.INTRA.VDW>
0

>  <SCORE.INTRA.VDW.0>
0

>  <SCORE.INTRA.norm>
0

>  <SCORE.RESTR>
0

>  <SCORE.RESTR.CAVITY>
0

>  <SCORE.RESTR.norm>
0

>  <SCORE.SYSTEM>
0

>  <SCORE.SYSTEM.CONST>
0

>  <SCORE.SYSTEM.DIHEDRAL>
0

>  <SCORE.SYSTEM.SOLV>
0

>  <SCORE.SYSTEM.norm>
0

>  <SCORE.heavy>
10

>  <SCORE.norm>
-0.561418

>  <RMSD>
26.296

$$$$
