@<TRIPOS>MOLECULE
2xnw_rdock.pdb
 1366 1526 0 0 0
SMALL
GASTEIGER

@<TRIPOS>ATOM
      1  P          6.5200  -12.4270   21.1230 P.3    16  G16         0.1280
      2  C5'        6.4700  -15.0430   20.9840 C.3    16  G16         0.1795
      3  O5'        6.3020  -13.7940   20.3220 O.3    16  G16        -0.3259
      4  C4'        5.7960  -16.1700   20.2220 C.3    16  G16         0.1772
      5  O4'        4.3730  -15.9280   20.1100 O.3    16  G16        -0.3307
      6  C3'        6.2140  -16.3420   18.7710 C.3    16  G16         0.1860
      7  O3'        7.4790  -16.9840   18.6860 O.3    16  G16        -0.3112
      8  C2'        5.0790  -17.2130   18.2410 C.3    16  G16         0.2309
      9  O2'        5.2350  -18.5870   18.5510 O.3    16  G16        -0.2156
     10  C1'        3.8760  -16.6350   18.9860 C.3    16  G16         0.2408
     11  N1         0.4280  -16.2300   15.2240 N.ar   16  G16        -0.1709
     12  C2         1.0210  -17.3630   15.7370 C.ar   16  G16         0.2606
     13  N2         0.6540  -18.5310   15.1870 N.pl3  16  G16        -0.0859
     14  N3         1.9150  -17.3460   16.7230 N.ar   16  G16        -0.1918
     15  C4         2.1740  -16.0880   17.1700 C.ar   16  G16         0.1723
     16  C5         1.6330  -14.9010   16.7220 C.ar   16  G16         0.1748
     17  C6         0.6810  -14.9320   15.6680 C.ar   16  G16         0.3023
     18  O6         0.0940  -13.9810   15.1350 O.2    16  G16        -0.2633
     19  N7         2.1540  -13.8260   17.4320 N.ar   16  G16        -0.2173
     20  C8         2.9820  -14.3680   18.2780 C.ar   16  G16         0.1817
     21  N9         3.0500  -15.7370   18.1780 N.ar   16  G16        -0.2693
     22  OP1        7.8880  -12.4180   21.6920 O.3    16  G16        -0.1955
     23  OP2        6.0680  -11.3170   20.2550 O.co2  16  G16        -0.7863
     24  P          8.4600  -16.6450   17.4680 P.3    17  A17         0.2141
     25  C5'        7.9140  -18.8780   16.2030 C.3    17  A17         0.1812
     26  O5'        7.8240  -17.4510   16.2440 O.3    17  A17        -0.3114
     27  C4'        7.1280  -19.4440   15.0320 C.3    17  A17         0.1773
     28  O4'        5.7160  -19.1600   15.2050 O.3    17  A17        -0.3307
     29  C3'        7.4640  -18.8490   13.6720 C.3    17  A17         0.1860
     30  O3'        8.6230  -19.4650   13.1110 O.3    17  A17        -0.3112
     31  C2'        6.1860  -19.1480   12.8930 C.3    17  A17         0.2309
     32  O2'        6.1040  -20.4930   12.4590 O.3    17  A17        -0.2156
     33  C1'        5.1230  -18.8630   13.9510 C.3    17  A17         0.2408
     34  N1         1.7460  -15.5010   11.9600 N.ar   17  A17        -0.2040
     35  C2         1.9600  -16.8000   11.7140 C.ar   17  A17         0.2016
     36  N3         2.8600  -17.6110   12.2700 N.ar   17  A17        -0.2048
     37  C4         3.6030  -16.9640   13.1860 C.ar   17  A17         0.1692
     38  C5         3.4940  -15.6300   13.5470 C.ar   17  A17         0.1518
     39  C6         2.5030  -14.8730   12.8850 C.ar   17  A17         0.1919
     40  N6         2.2750  -13.5770   13.1250 N.pl3  17  A17        -0.1054
     41  N7         4.4200  -15.3070   14.5240 N.ar   17  A17        -0.2193
     42  C8         5.0600  -16.4350   14.7290 C.ar   17  A17         0.1816
     43  N9         4.6220  -17.4820   13.9580 N.ar   17  A17        -0.2693
     44  OP1        9.7800  -17.2400   17.7790 O.3    17  A17        -0.4373
     45  OP2        8.3360  -15.1990   17.1690 O.co2  17  A17        -0.5172
     46  P          9.5500  -18.6840   12.0570 P.3    18  C18         0.2141
     47  C5'        8.3320  -17.8520    9.9310 C.3    18  C18         0.1812
     48  O5'        8.7860  -18.9520   10.6810 O.3    18  C18        -0.3114
     49  C4'        7.1430  -18.2290    9.0780 C.3    18  C18         0.1773
     50  O4'        5.9160  -18.0370    9.8210 O.3    18  C18        -0.3307
     51  C3'        7.0120  -17.2820    7.9070 C.3    18  C18         0.1860
     52  O3'        7.8130  -17.7470    6.8350 O.3    18  C18        -0.3112
     53  C2'        5.5040  -17.2310    7.6590 C.3    18  C18         0.2309
     54  O2'        4.9660  -18.3580    6.9970 O.3    18  C18        -0.2156
     55  C1'        5.0090  -17.2110    9.1000 C.3    18  C18         0.2420
     56  N1         4.9000  -15.8270    9.7320 N.ar   18  C18        -0.2535
     57  C2         3.8170  -14.9840    9.4080 C.ar   18  C18         0.3532
     58  O2         2.9530  -15.3650    8.6060 O.2    18  C18        -0.2443
     59  N3         3.7380  -13.7570    9.9920 N.ar   18  C18        -0.1739
     60  C4         4.6750  -13.3480   10.8530 C.ar   18  C18         0.1759
     61  N4         4.5410  -12.1350   11.3920 N.pl3  18  C18        -0.1070
     62  C5         5.7790  -14.1770   11.2010 C.ar   18  C18         0.0566
     63  C6         5.8450  -15.3850   10.6260 C.ar   18  C18         0.0850
     64  OP1       10.8440  -19.3990   11.9910 O.2    18  C18        -0.5172
     65  OP2        9.5010  -17.2240   12.3440 O.co2  18  C18        -0.4373
     66  P          8.6840  -16.6820    6.0320 P.3    19  A19         0.2141
     67  C5'        6.7710  -16.5490    4.2490 C.3    19  A19         0.1812
     68  O5'        7.5470  -15.8900    5.2440 O.3    19  A19        -0.3114
     69  C4'        5.6860  -15.6090    3.7680 C.3    19  A19         0.1773
     70  O4'        4.8390  -15.2090    4.8770 O.3    19  A19        -0.3307
     71  C3'        6.2170  -14.2800    3.2490 C.3    19  A19         0.1860
     72  O3'        6.7260  -14.4070    1.9310 O.3    19  A19        -0.3112
     73  C2'        4.9810  -13.3990    3.3410 C.3    19  A19         0.2309
     74  O2'        4.0560  -13.6420    2.2940 O.3    19  A19        -0.2156
     75  C1'        4.4300  -13.8570    4.6920 C.3    19  A19         0.2408
     76  N1         3.8720   -9.4690    7.3580 N.ar   19  A19        -0.2040
     77  C2         3.2860   -9.9160    6.2370 C.ar   19  A19         0.2016
     78  N3         3.4880  -11.0710    5.6020 N.ar   19  A19        -0.2048
     79  C4         4.4120  -11.8220    6.2270 C.ar   19  A19         0.1692
     80  C5         5.1080  -11.4940    7.3820 C.ar   19  A19         0.1518
     81  C6         4.8020  -10.2440    7.9670 C.ar   19  A19         0.1919
     82  N6         5.3750   -9.7830    9.0830 N.pl3  19  A19        -0.1054
     83  N7         5.9840  -12.5120    7.7330 N.ar   19  A19        -0.2193
     84  C8         5.7960  -13.4170    6.7960 C.ar   19  A19         0.1816
     85  N9         4.8650  -13.0660    5.8500 N.ar   19  A19        -0.2693
     86  OP1        9.5280  -17.3920    5.0490 O.2    19  A19        -0.5172
     87  OP2        9.3070  -15.7470    6.9990 O.co2  19  A19        -0.4373
     88  P          8.0190  -13.5530    1.5230 P.3    20  U20         0.2141
     89  C5'        6.4190  -11.8550    0.3110 C.3    20  U20         0.1812
     90  O5'        7.4170  -12.0870    1.3020 O.3    20  U20        -0.3114
     91  C4'        5.8400  -10.4670    0.4770 C.3    20  U20         0.1773
     92  O4'        5.1290  -10.3510    1.7320 O.3    20  U20        -0.3307
     93  C3'        6.8680   -9.3540    0.5480 C.3    20  U20         0.1860
     94  O3'        7.2860   -8.9910   -0.7300 O.3    20  U20        -0.3112
     95  C2'        6.0930   -8.2410    1.2350 C.3    20  U20         0.2309
     96  O2'        5.1710   -7.5520    0.4110 O.3    20  U20        -0.2156
     97  C1'        5.3360   -9.0550    2.2740 C.3    20  U20         0.2420
     98  N1         6.0620   -9.0810    3.5930 N.ar   20  U20        -0.2534
     99  C2         5.9010   -7.9650    4.3950 C.ar   20  U20         0.3546
    100  O2         5.2100   -7.0020    4.0790 O.2    20  U20        -0.2443
    101  N3         6.5690   -8.0160    5.5900 N.ar   20  U20        -0.1530
    102  C4         7.3650   -9.0430    6.0530 C.ar   20  U20         0.2846
    103  O4         7.9010   -8.9200    7.1470 O.2    20  U20        -0.2650
    104  C5         7.4980  -10.1760    5.1590 C.ar   20  U20         0.0814
    105  C6         6.8500  -10.1570    3.9810 C.ar   20  U20         0.0870
    106  OP1        8.5040  -14.0190    0.2010 O.2    20  U20        -0.5172
    107  OP2        8.9580  -13.5050    2.6650 O.co2  20  U20        -0.4373
    108  P          8.8090   -8.5900   -0.9640 P.3    21  A21         0.2141
    109  C5'        8.4070   -6.0490   -0.5870 C.3    21  A21         0.1812
    110  O5'        8.9640   -7.2610   -0.0920 O.3    21  A21        -0.3114
    111  C4'        8.5590   -4.9250    0.4180 C.3    21  A21         0.1773
    112  O4'        7.9170   -5.2760    1.6590 O.3    21  A21        -0.3307
    113  C3'        9.9870   -4.6270    0.8440 C.3    21  A21         0.1860
    114  O3'       10.6510   -3.8790   -0.1620 O.3    21  A21        -0.3112
    115  C2'        9.7150   -3.8090    2.1000 C.3    21  A21         0.2309
    116  O2'        9.4780   -2.4390    1.8290 O.3    21  A21        -0.2156
    117  C1'        8.4750   -4.4890    2.6910 C.3    21  A21         0.2408
    118  N1         9.1020   -4.6550    7.7880 N.ar   21  A21        -0.2040
    119  C2         8.6450   -3.6820    6.9800 C.ar   21  A21         0.2016
    120  N3         8.5030   -3.7260    5.6460 N.ar   21  A21        -0.2048
    121  C4         8.8820   -4.9230    5.1440 C.ar   21  A21         0.1692
    122  C5         9.3670   -6.0080    5.8470 C.ar   21  A21         0.1518
    123  C6         9.4770   -5.8360    7.2470 C.ar   21  A21         0.1919
    124  N6         9.9230   -6.7830    8.0640 N.pl3  21  A21        -0.1054
    125  N7         9.6690   -7.0610    4.9910 N.ar   21  A21        -0.2193
    126  C8         9.3740   -6.5930    3.8050 C.ar   21  A21         0.1816
    127  N9         8.8720   -5.3170    3.8260 N.ar   21  A21        -0.2693
    128  OP1        8.9610   -8.2410   -2.3920 O.2    21  A21        -0.5172
    129  OP2        9.7020   -9.6010   -0.3490 O.co2  21  A21        -0.4373
    130  P         11.8540   -4.4920   -1.0160 P.3    22  U22         0.2141
    131  C5'       14.1440   -5.3560    0.1050 C.3    22  U22         0.1812
    132  O5'       13.0530   -4.4320    0.0580 O.3    22  U22        -0.3114
    133  C4'       14.6520   -5.4890    1.5300 C.3    22  U22         0.1773
    134  O4'       14.9860   -4.1690    2.0430 O.3    22  U22        -0.3307
    135  C3'       13.6460   -6.0730    2.5090 C.3    22  U22         0.1860
    136  O3'       14.2960   -6.8560    3.5000 O.3    22  U22        -0.3112
    137  C2'       13.0240   -4.8100    3.1040 C.3    22  U22         0.2309
    138  O2'       12.4260   -5.0300    4.3580 O.3    22  U22        -0.2156
    139  C1'       14.2540   -3.9110    3.2120 C.3    22  U22         0.2420
    140  N1        13.9320   -2.4640    3.2140 N.ar   22  U22        -0.2534
    141  C2        14.1890   -1.6940    4.3380 C.ar   22  U22         0.3546
    142  O2        14.6860   -2.1210    5.3750 O.2    22  U22        -0.2443
    143  N3        13.8520   -0.3720    4.2020 N.ar   22  U22        -0.1530
    144  C4        13.2780    0.2200    3.0980 C.ar   22  U22         0.2846
    145  O4        13.0260    1.4030    3.1450 O.2    22  U22        -0.2650
    146  C5        13.0360   -0.6380    1.9620 C.ar   22  U22         0.0814
    147  C6        13.3570   -1.9260    2.0610 C.ar   22  U22         0.0870
    148  OP1       12.1340   -3.5130   -2.0760 O.2    22  U22        -0.5172
    149  OP2       11.6090   -5.9020   -1.3920 O.co2  22  U22        -0.4373
    150  P         14.6300   -8.4030    3.3610 P.3    23  A23         0.2141
    151  C5'       17.0430   -7.6770    3.9260 C.3    23  A23         0.1812
    152  O5'       16.1960   -8.4450    3.0890 O.3    23  A23        -0.3114
    153  C4'       18.2940   -7.3130    3.1610 C.3    23  A23         0.1773
    154  O4'       17.9090   -6.5970    1.9680 O.3    23  A23        -0.3307
    155  C3'       19.2480   -6.3390    3.8380 C.3    23  A23         0.1860
    156  O3'       20.0990   -6.9980    4.7910 O.3    23  A23        -0.3112
    157  C2'       20.0110   -5.7590    2.6450 C.3    23  A23         0.2309
    158  O2'       21.2020   -6.4580    2.3230 O.3    23  A23        -0.2156
    159  C1'       18.9960   -5.8280    1.4980 C.3    23  A23         0.2408
    160  N1        17.1100   -1.2290    2.9560 N.ar   23  A23        -0.2040
    161  C2        17.5610   -2.2640    3.6800 C.ar   23  A23         0.2016
    162  N3        18.0300   -3.4250    3.2270 N.ar   23  A23        -0.2048
    163  C4        18.0350   -3.4870    1.8740 C.ar   23  A23         0.1692
    164  C5        17.5870   -2.5030    1.0070 C.ar   23  A23         0.1518
    165  C6        17.0970   -1.3160    1.5980 C.ar   23  A23         0.1919
    166  N6        16.6490   -0.2750    0.8890 N.pl3  23  A23        -0.1054
    167  N7        17.7220   -2.9070   -0.3170 N.ar   23  A23        -0.2193
    168  C8        18.2340   -4.1200   -0.2130 C.ar   23  A23         0.1816
    169  N9        18.4500   -4.5360    1.0710 N.ar   23  A23        -0.2693
    170  OP1       13.9090   -8.9710    2.1900 O.2    23  A23        -0.5172
    171  OP2       14.4690   -8.9870    4.7050 O.co2  23  A23        -0.4373
    172  P         19.8660   -6.7720    6.3550 P.3    24  A24         0.2141
    173  C5'       19.5870   -4.1180    6.2390 C.3    24  A24         0.1812
    174  O5'       20.3670   -5.2650    6.5250 O.3    24  A24        -0.3114
    175  C4'       19.4640   -3.2480    7.4630 C.3    24  A24         0.1773
    176  O4'       18.5670   -3.8910    8.3990 O.3    24  A24        -0.3307
    177  C3'       20.7340   -3.0200    8.2820 C.3    24  A24         0.1860
    178  O3'       21.5470   -2.0240    7.6420 O.3    24  A24        -0.3112
    179  C2'       20.1240   -2.5510    9.6010 C.3    24  A24         0.2309
    180  O2'       19.6060   -1.2370    9.5510 O.3    24  A24        -0.2156
    181  C1'       18.9080   -3.4740    9.7080 C.3    24  A24         0.2408
    182  N1        19.1990   -5.0690   14.5860 N.ar   24  A24        -0.2040
    183  C2        19.1250   -3.8360   14.0510 C.ar   24  A24         0.2016
    184  N3        19.0550   -3.5070   12.7570 N.ar   24  A24        -0.2048
    185  C4        19.0740   -4.5920   11.9700 C.ar   24  A24         0.1692
    186  C5        19.1660   -5.9100   12.3650 C.ar   24  A24         0.1518
    187  C6        19.2220   -6.1410   13.7580 C.ar   24  A24         0.1919
    188  N6        19.2870   -7.3720   14.2500 N.pl3  24  A24        -0.1054
    189  N7        19.1590   -6.7600   11.2760 N.ar   24  A24        -0.2193
    190  C8        19.0750   -5.9600   10.2430 C.ar   24  A24         0.1816
    191  N9        19.0470   -4.6300   10.5920 N.ar   24  A24        -0.2693
    192  OP1       20.8620   -7.6320    7.0490 O.3    24  A24        -0.4373
    193  OP2       18.4510   -6.8680    6.7480 O.co2  24  A24        -0.5172
    194  P         23.1200   -2.2660    7.3360 P.3    25  U25         0.2141
    195  C5'       22.9130   -3.4110    4.9620 C.3    25  U25         0.1812
    196  O5'       23.1420   -2.2300    5.7470 O.3    25  U25        -0.3114
    197  C4'       22.4410   -3.0390    3.5720 C.3    25  U25         0.1773
    198  O4'       21.0840   -2.5410    3.6870 O.3    25  U25        -0.3307
    199  C3'       23.2010   -1.9020    2.8950 C.3    25  U25         0.1860
    200  O3'       24.3640   -2.4050    2.2200 O.3    25  U25        -0.3112
    201  C2'       22.1520   -1.3800    1.9240 C.3    25  U25         0.2309
    202  O2'       22.0480   -2.1900    0.7680 O.3    25  U25        -0.2156
    203  C1'       20.8890   -1.4780    2.7750 C.3    25  U25         0.2420
    204  N1        20.5370   -0.2010    3.5100 N.ar   25  U25        -0.2534
    205  C2        20.0720    0.8710    2.7770 C.ar   25  U25         0.3546
    206  O2        19.9490    0.8350    1.5700 O.2    25  U25        -0.2443
    207  N3        19.7570    1.9900    3.4990 N.ar   25  U25        -0.1530
    208  C4        19.8520    2.1500    4.8680 C.ar   25  U25         0.2846
    209  O4        19.5420    3.2310    5.3440 O.2    25  U25        -0.2650
    210  C5        20.3340    0.9960    5.5920 C.ar   25  U25         0.0814
    211  C6        20.6360   -0.1120    4.8930 C.ar   25  U25         0.0870
    212  OP1       23.5610   -3.6120    7.7970 O.3    25  U25        -0.4373
    213  OP2       23.8310   -1.0510    7.7930 O.co2  25  U25        -0.5172
    214  P         25.7810   -1.6660    2.3410 P.3    26  C26         0.2141
    215  C5'       25.2490   -0.2360    0.1890 C.3    26  C26         0.1812
    216  O5'       25.5110   -0.2940    1.5780 O.3    26  C26        -0.3114
    217  C4'       24.5520    1.0620   -0.1470 C.3    26  C26         0.1773
    218  O4'       23.2830    1.1990    0.5600 O.3    26  C26        -0.3307
    219  C3'       25.3030    2.2960    0.3000 C.3    26  C26         0.1860
    220  O3'       26.3870    2.5330   -0.5800 O.3    26  C26        -0.3112
    221  C2'       24.1950    3.3470    0.2260 C.3    26  C26         0.2309
    222  O2'       23.8870    3.7240   -1.0970 O.3    26  C26        -0.2156
    223  C1'       23.0420    2.5680    0.8550 C.3    26  C26         0.2420
    224  N1        22.9980    2.7910    2.3470 N.ar   26  C26        -0.2535
    225  C2        22.5310    4.0220    2.8690 C.ar   26  C26         0.3532
    226  O2        22.1400    4.9270    2.1030 O.2    26  C26        -0.2443
    227  N3        22.5220    4.1920    4.2240 N.ar   26  C26        -0.1739
    228  C4        22.9620    3.2190    5.0350 C.ar   26  C26         0.1759
    229  N4        22.9150    3.4400    6.3520 N.pl3  26  C26        -0.1070
    230  C5        23.4360    1.9630    4.5370 C.ar   26  C26         0.0566
    231  C6        23.4410    1.8060    3.2010 C.ar   26  C26         0.0850
    232  OP1       26.7990   -2.4250    1.5790 O.2    26  C26        -0.5172
    233  OP2       26.0200   -1.3250    3.7760 O.co2  26  C26        -0.4373
    234  P         27.5510    3.4750   -0.0400 P.3    27  G27         0.2141
    235  C5'       26.8690    4.9710   -2.1320 C.3    27  G27         0.1812
    236  O5'       27.1470    4.8750   -0.7310 O.3    27  G27        -0.3114
    237  C4'       26.4580    6.3720   -2.5350 C.3    27  G27         0.1773
    238  O4'       25.0530    6.6170   -2.2370 O.3    27  G27        -0.3307
    239  C3'       27.1810    7.4910   -1.8050 C.3    27  G27         0.1860
    240  O3'       28.4340    7.7500   -2.3760 O.3    27  G27        -0.3112
    241  C2'       26.2340    8.6540   -2.0530 C.3    27  G27         0.2309
    242  O2'       26.2980    9.1740   -3.3750 O.3    27  G27        -0.2156
    243  C1'       24.9200    7.9420   -1.7450 C.3    27  G27         0.2408
    244  N1        23.2790   10.7430    2.1350 N.ar   27  G27        -0.1709
    245  C2        23.3790   11.0600    0.7960 C.ar   27  G27         0.2606
    246  N2        22.9890   12.2850    0.4280 N.pl3  27  G27        -0.0859
    247  N3        23.8270   10.2290   -0.1230 N.ar   27  G27        -0.1918
    248  C4        24.1900    9.0290    0.4070 C.ar   27  G27         0.1723
    249  C5        24.1380    8.6140    1.7190 C.ar   27  G27         0.1748
    250  C6        23.6430    9.5120    2.6880 C.ar   27  G27         0.3023
    251  O6        23.5080    9.3220    3.9030 O.2    27  G27        -0.2633
    252  N7        24.5820    7.3010    1.8330 N.ar   27  G27        -0.2173
    253  C8        24.9020    6.9670    0.6200 C.ar   27  G27         0.1817
    254  N9        24.6650    7.9600   -0.2990 N.ar   27  G27        -0.2693
    255  OP1       28.8400    2.9530   -0.5440 O.2    27  G27        -0.5172
    256  OP2       27.3670    3.6520    1.4300 O.co2  27  G27        -0.4373
    257  P         29.7290    7.8950   -1.4430 P.3    28  C28         0.2141
    258  C5'       29.7600   10.4610   -2.0280 C.3    28  C28         0.1812
    259  O5'       29.6980    9.4500   -1.0530 O.3    28  C28        -0.3114
    260  C4'       29.1590   11.7610   -1.5070 C.3    28  C28         0.1773
    261  O4'       27.7840   11.5340   -1.0840 O.3    28  C28        -0.3307
    262  C3'       29.7810   12.4680   -0.2990 C.3    28  C28         0.1860
    263  O3'       30.9690   13.2080   -0.5890 O.3    28  C28        -0.3112
    264  C2'       28.6000   13.3730    0.0810 C.3    28  C28         0.2309
    265  O2'       28.3860   14.4420   -0.8110 O.3    28  C28        -0.2156
    266  C1'       27.4350   12.4150   -0.0340 C.3    28  C28         0.2420
    267  N1        27.1860   11.6630    1.2370 N.ar   28  C28        -0.2535
    268  C2        26.5260   12.3290    2.2910 C.ar   28  C28         0.3532
    269  O2        26.1080   13.4920    2.1420 O.2    28  C28        -0.2443
    270  N3        26.3080   11.6270    3.4300 N.ar   28  C28        -0.1739
    271  C4        26.7460   10.3690    3.5670 C.ar   28  C28         0.1759
    272  N4        26.5140    9.7570    4.7240 N.pl3  28  C28        -0.1070
    273  C5        27.4570    9.6830    2.5240 C.ar   28  C28         0.0566
    274  C6        27.6430   10.3720    1.3890 C.ar   28  C28         0.0850
    275  OP1       30.8890    7.6430   -2.3300 O.2    28  C28        -0.5172
    276  OP2       29.5490    7.2090   -0.1220 O.co2  28  C28        -0.4373
    277  P         32.0140   13.5490    0.5590 P.3    29  G29         0.2141
    278  C5'       31.0040   16.0430    0.6240 C.3    29  G29         0.1812
    279  O5'       31.3880   14.8290    1.2820 O.3    29  G29        -0.3114
    280  C4'       30.2750   16.9220    1.6230 C.3    29  G29         0.1773
    281  O4'       29.0170   16.3020    2.0260 O.3    29  G29        -0.3307
    282  C3'       31.0450   17.1480    2.9210 C.3    29  G29         0.1860
    283  O3'       32.0290   18.1710    2.8020 O.3    29  G29        -0.3112
    284  C2'       29.8950   17.5220    3.8490 C.3    29  G29         0.2309
    285  O2'       29.3950   18.8400    3.6830 O.3    29  G29        -0.2156
    286  C1'       28.8050   16.5640    3.4040 C.3    29  G29         0.2408
    287  N1        27.5330   14.2890    7.7180 N.ar   29  G29        -0.1709
    288  C2        27.3690   15.6130    7.3620 C.ar   29  G29         0.2606
    289  N2        26.8080   16.4390    8.2710 N.pl3  29  G29        -0.0859
    290  N3        27.7630   16.0870    6.1940 N.ar   29  G29        -0.1918
    291  C4        28.2810   15.1120    5.4060 C.ar   29  G29         0.1723
    292  C5        28.4900   13.7830    5.6720 C.ar   29  G29         0.1748
    293  C6        28.0560   13.2790    6.9190 C.ar   29  G29         0.3023
    294  O6        28.1650   12.1100    7.3130 O.2    29  G29        -0.2633
    295  N7        29.0970   13.1400    4.6040 N.ar   29  G29        -0.2173
    296  C8        29.2360   14.0760    3.7110 C.ar   29  G29         0.1817
    297  N9        28.8170   15.3040    4.1420 N.ar   29  G29        -0.2693
    298  OP1       33.3210   13.9790    0.0160 O.2    29  G29        -0.5172
    299  OP2       31.9660   12.4900    1.6060 O.co2  29  G29        -0.4373
    300  P         33.5040   18.0140    3.4100 P.3    30  U30         0.2141
    301  C5'       33.0460   19.7010    5.3460 C.3    30  U30         0.1812
    302  O5'       33.1940   18.3590    4.9490 O.3    30  U30        -0.3114
    303  C4'       32.5990   19.7300    6.8030 C.3    30  U30         0.1773
    304  O4'       31.3090   19.0820    6.9370 O.3    30  U30        -0.3307
    305  C3'       33.4970   18.9580    7.7400 C.3    30  U30         0.1860
    306  O3'       34.7140   19.6740    7.9960 O.3    30  U30        -0.3112
    307  C2'       32.5680   18.7750    8.9460 C.3    30  U30         0.2309
    308  O2'       32.4110   19.9820    9.6750 O.3    30  U30        -0.2156
    309  C1'       31.2840   18.4310    8.1950 C.3    30  U30         0.2420
    310  N1        31.2330   16.9660    8.0180 N.ar   30  U30        -0.2534
    311  C2        30.8460   16.2300    9.1250 C.ar   30  U30         0.3546
    312  O2        30.5610   16.7610   10.1790 O.2    30  U30        -0.2443
    313  N3        30.8220   14.8700    8.9500 N.ar   30  U30        -0.1530
    314  C4        31.1510   14.1910    7.8020 C.ar   30  U30         0.2846
    315  O4        31.0990   12.9690    7.7880 O.2    30  U30        -0.2650
    316  C5        31.5510   15.0180    6.6800 C.ar   30  U30         0.0814
    317  C6        31.5950   16.3510    6.8200 C.ar   30  U30         0.0870
    318  OP1       34.4690   19.0240    2.9040 O.2    30  U30        -0.5172
    319  OP2       33.8260   16.5650    3.3840 O.co2  30  U30        -0.4373
    320  P         36.0690   18.9380    8.3920 P.3    31  G31         0.2141
    321  C5'       35.6150   19.2840   10.9290 C.3    31  G31         0.1812
    322  O5'       35.7740   18.3670    9.8510 O.3    31  G31        -0.3114
    323  C4'       35.0790   18.5610   12.1520 C.3    31  G31         0.1773
    324  O4'       33.7950   17.9960   11.7950 O.3    31  G31        -0.3307
    325  C3'       35.8610   17.3630   12.6660 C.3    31  G31         0.1860
    326  O3'       36.9760   17.7980   13.4300 O.3    31  G31        -0.3112
    327  C2'       34.7750   16.7090   13.5040 C.3    31  G31         0.2309
    328  O2'       34.4930   17.4170   14.6800 O.3    31  G31        -0.2156
    329  C1'       33.6320   16.7740   12.4960 C.3    31  G31         0.2408
    330  N1        33.0490   11.7800   12.2320 N.ar   31  G31        -0.1709
    331  C2        32.9270   12.6530   13.2730 C.ar   31  G31         0.2606
    332  N2        32.5450   12.1300   14.4430 N.pl3  31  G31        -0.0859
    333  N3        33.0780   13.9760   13.1550 N.ar   31  G31        -0.1918
    334  C4        33.4620   14.3560   11.9090 C.ar   31  G31         0.1723
    335  C5        33.6600   13.5820   10.8000 C.ar   31  G31         0.1748
    336  C6        33.4530   12.1630   10.9340 C.ar   31  G31         0.3023
    337  O6        33.5700   11.2610   10.0980 O.2    31  G31        -0.2633
    338  N7        34.0670   14.3790    9.7270 N.ar   31  G31        -0.2173
    339  C8        34.0770   15.6130   10.2120 C.ar   31  G31         0.1817
    340  N9        33.7200   15.6540   11.5540 N.ar   31  G31        -0.2693
    341  OP1       37.2200   19.8860    8.5060 O.3    31  G31        -0.4373
    342  OP2       36.2240   17.7730    7.4980 O.co2  31  G31        -0.5172
    343  P         38.2110   16.8810   13.8300 P.3    32  G32         0.2141
    344  C5'       37.1280   15.7990   15.9610 C.3    32  G32         0.1812
    345  O5'       37.6570   15.6610   14.6830 O.3    32  G32        -0.3114
    346  C4'       36.6690   14.4110   16.4130 C.3    32  G32         0.1773
    347  O4'       35.5610   13.8990   15.6450 O.3    32  G32        -0.3307
    348  C3'       37.7090   13.3090   16.3380 C.3    32  G32         0.1860
    349  O3'       38.4840   13.5050   17.4660 O.3    32  G32        -0.3112
    350  C2'       36.8320   12.0720   16.5000 C.3    32  G32         0.2309
    351  O2'       36.3090   11.9200   17.8200 O.3    32  G32        -0.2156
    352  C1'       35.7310   12.4940   15.5310 C.3    32  G32         0.2408
    353  N1        36.3130    8.7920   12.0650 N.ar   32  G32        -0.1709
    354  C2        35.9710    8.7110   13.3980 C.ar   32  G32         0.2606
    355  N2        35.7990    7.4860   13.9090 N.pl3  32  G32        -0.0859
    356  N3        35.8670    9.7650   14.2060 N.ar   32  G32        -0.1918
    357  C4        36.0830   10.9310   13.5720 C.ar   32  G32         0.1723
    358  C5        36.4250   11.1330   12.2390 C.ar   32  G32         0.1748
    359  C6        36.5330   10.0000   11.3970 C.ar   32  G32         0.3023
    360  O6        36.8300    9.9730   10.1910 O.2    32  G32        -0.2633
    361  N7        36.5840   12.4790   11.9740 N.ar   32  G32        -0.2173
    362  C8        36.3460   13.0460   13.1270 C.ar   32  G32         0.1817
    363  N9        36.0520   12.1770   14.1370 N.ar   32  G32        -0.2693
    364  OP1       39.1270   17.6980   14.6820 O.3    32  G32        -0.4373
    365  OP2       38.7760   16.2410   12.6140 O.co2  32  G32        -0.5172
    366  P         39.9740   13.0100   17.5020 P.3    33  A33         0.2141
    367  C5'       39.4470   10.8330   18.7740 C.3    33  A33         0.1812
    368  O5'       39.8910   11.4100   17.5650 O.3    33  A33        -0.3114
    369  C4'       39.3090    9.3370   18.5680 C.3    33  A33         0.1773
    370  O4'       38.3920    9.0290   17.4740 O.3    33  A33        -0.3307
    371  C3'       40.5740    8.6330   18.1180 C.3    33  A33         0.1860
    372  O3'       41.4790    8.5560   19.2240 O.3    33  A33        -0.3112
    373  C2'       40.0180    7.2810   17.6880 C.3    33  A33         0.2309
    374  O2'       39.6470    6.4900   18.7980 O.3    33  A33        -0.2156
    375  C1'       38.7800    7.7570   16.9440 C.3    33  A33         0.2408
    376  N1        39.5480    5.1420   12.5350 N.ar   33  A33        -0.2040
    377  C2        39.3950    4.7330   13.8040 C.ar   33  A33         0.2016
    378  N3        39.2060    5.4860   14.8910 N.ar   33  A33        -0.2048
    379  C4        39.1580    6.8090   14.6070 C.ar   33  A33         0.1692
    380  C5        39.2900    7.3860   13.3500 C.ar   33  A33         0.1518
    381  C6        39.4820    6.4830   12.2650 C.ar   33  A33         0.1919
    382  N6        39.6400    6.9110   10.9930 N.pl3  33  A33        -0.1054
    383  N7        39.2240    8.7680   13.4650 N.ar   33  A33        -0.2193
    384  C8        39.0340    9.0080   14.7490 C.ar   33  A33         0.1816
    385  N9        39.0070    7.8690   15.4900 N.ar   33  A33        -0.2693
    386  OP1       40.5260   13.5580   18.7500 O.3    33  A33        -0.4373
    387  OP2       40.6430   13.2110   16.2010 O.co2  33  A33        -0.5172
    388  P         43.0570    8.5860   19.0220 P.3    34  U34         0.2141
    389  C5'       43.1280    5.9850   18.9430 C.3    34  U34         0.1812
    390  O5'       43.3480    7.2190   18.2960 O.3    34  U34        -0.3114
    391  C4'       43.3220    4.8780   17.9190 C.3    34  U34         0.1773
    392  O4'       42.4670    5.1410   16.7750 O.3    34  U34        -0.3307
    393  C3'       44.7380    4.7490   17.3900 C.3    34  U34         0.1860
    394  O3'       45.0200    3.3910   17.3200 O.3    34  U34        -0.3112
    395  C2'       44.6360    5.3210   15.9970 C.3    34  U34         0.2309
    396  O2'       45.6050    4.7870   15.1260 O.3    34  U34        -0.2156
    397  C1'       43.1940    5.0040   15.5840 C.3    34  U34         0.2420
    398  N1        42.8580    6.0340   14.5890 N.ar   34  U34        -0.2534
    399  C2        42.8120    5.6790   13.2480 C.ar   34  U34         0.3546
    400  O2        42.9320    4.5300   12.8300 O.2    34  U34        -0.2443
    401  N3        42.5630    6.7320   12.3920 N.ar   34  U34        -0.1530
    402  C4        42.4250    8.0660   12.7300 C.ar   34  U34         0.2846
    403  O4        42.2250    8.8960   11.8570 O.2    34  U34        -0.2650
    404  C5        42.5050    8.3490   14.1350 C.ar   34  U34         0.0814
    405  C6        42.7250    7.3440   14.9890 C.ar   34  U34         0.0870
    406  OP1       43.7420    8.6030   20.3420 O.3    34  U34        -0.4373
    407  OP2       43.3850    9.6590   18.0430 O.co2  34  U34        -0.5172
    408  P         46.0240    2.7120   18.3470 P.3    35  A35         0.2141
    409  C5'       44.5420    0.5130   18.5600 C.3    35  A35         0.1812
    410  O5'       45.7530    1.1860   18.1270 O.3    35  A35        -0.3114
    411  C4'       44.6900   -0.9810   18.3260 C.3    35  A35         0.1773
    412  O4'       44.6610   -1.2750   16.9060 O.3    35  A35        -0.3307
    413  C3'       46.0420   -1.5280   18.8100 C.3    35  A35         0.1860
    414  O3'       45.8600   -2.8200   19.4120 O.3    35  A35        -0.3112
    415  C2'       46.8810   -1.5820   17.5350 C.3    35  A35         0.2309
    416  O2'       47.8560   -2.5960   17.6310 O.3    35  A35        -0.2156
    417  C1'       45.8560   -1.8880   16.4520 C.3    35  A35         0.2408
    418  N1        48.0360   -2.4180   11.8140 N.ar   35  A35        -0.2040
    419  C2        47.8690   -3.2970   12.8120 C.ar   35  A35         0.2016
    420  N3        47.2930   -3.1010   14.0030 N.ar   35  A35        -0.2048
    421  C4        46.8580   -1.8300   14.1100 C.ar   35  A35         0.1692
    422  C5        46.9530   -0.8130   13.1660 C.ar   35  A35         0.1518
    423  C6        47.5920   -1.1450   11.9530 C.ar   35  A35         0.1919
    424  N6        47.7470   -0.2490   10.9710 N.pl3  35  A35        -0.1054
    425  N7        46.4020    0.3720   13.6110 N.ar   35  A35        -0.2193
    426  C8        45.9770    0.0400   14.8160 C.ar   35  A35         0.1816
    427  N9        46.2110   -1.2610   15.1800 N.ar   35  A35        -0.2693
    428  OP1       45.5970    3.1250   19.7250 O.3    35  A35        -0.4373
    429  OP2       47.4100    3.0010   17.9020 O.co2  35  A35        -0.5172
    430  P         45.7580   -2.9310   21.0100 P.3    36  U36         0.2141
    431  C5'       43.1620   -2.6010   21.5400 C.3    36  U36         0.1812
    432  O5'       44.4880   -2.0580   21.3850 O.3    36  U36        -0.3114
    433  C4'       42.4400   -1.8390   22.6340 C.3    36  U36         0.1773
    434  O4'       43.1980   -1.7940   23.8740 O.3    36  U36        -0.3307
    435  C3'       42.1350   -0.3810   22.2720 C.3    36  U36         0.1860
    436  O3'       40.8800   -0.0440   22.8100 O.3    36  U36        -0.3112
    437  C2'       43.2320    0.3500   23.0310 C.3    36  U36         0.2309
    438  O2'       42.9500    1.7090   23.2670 O.3    36  U36        -0.2156
    439  C1'       43.2840   -0.4630   24.3210 C.3    36  U36         0.2420
    440  N1        44.6060   -0.3560   25.0020 N.ar   36  U36        -0.2534
    441  C2        44.6380    0.2090   26.2620 C.ar   36  U36         0.3546
    442  O2        43.6510    0.6120   26.8310 O.2    36  U36        -0.2443
    443  N3        45.8950    0.2690   26.8470 N.ar   36  U36        -0.1530
    444  C4        47.0730   -0.1730   26.2820 C.ar   36  U36         0.2846
    445  O4        48.1300   -0.0380   26.9230 O.2    36  U36        -0.2650
    446  C5        46.9420   -0.7570   24.9590 C.ar   36  U36         0.0814
    447  C6        45.7310   -0.8410   24.3660 C.ar   36  U36         0.0870
    448  OP1       46.9080   -2.2710   21.6490 O.3    36  U36        -0.4373
    449  OP2       45.5130   -4.3740   21.2800 O.co2  36  U36        -0.5172
    450  P         39.4870   -0.2470   22.0530 P.3    37  G37         0.2141
    451  C5'       39.4390    2.3060   21.1740 C.3    37  G37         0.1812
    452  O5'       39.5210    0.8980   20.9350 O.3    37  G37        -0.3114
    453  C4'       39.4520    3.0550   19.8510 C.3    37  G37         0.1773
    454  O4'       40.6930    2.8100   19.1530 O.3    37  G37        -0.3307
    455  C3'       38.4170    2.5190   18.8900 C.3    37  G37         0.1860
    456  O3'       37.1460    3.0610   19.1830 O.3    37  G37        -0.3112
    457  C2'       38.9240    2.9930   17.5360 C.3    37  G37         0.2309
    458  O2'       38.7240    4.3770   17.3560 O.3    37  G37        -0.2156
    459  C1'       40.4200    2.6970   17.7560 C.3    37  G37         0.2408
    460  N1        42.4050   -0.3710   14.1650 N.ar   37  G37        -0.1709
    461  C2        42.1430    0.9840   14.1170 C.ar   37  G37         0.2606
    462  N2        42.4370    1.6250   12.9690 N.pl3  37  G37        -0.0859
    463  N3        41.6160    1.6920   15.1170 N.ar   37  G37        -0.1918
    464  C4        41.3520    0.9130   16.1950 C.ar   37  G37         0.1723
    465  C5        41.5790   -0.4360   16.3530 C.ar   37  G37         0.1748
    466  C6        42.1340   -1.1910   15.2770 C.ar   37  G37         0.3023
    467  O6        42.4090   -2.3930   15.2380 O.2    37  G37        -0.2633
    468  N7        41.1790   -0.8700   17.6200 N.ar   37  G37        -0.2173
    469  C8        40.7670    0.2240   18.1800 C.ar   37  G37         0.1817
    470  N9        40.8100    1.3430   17.3920 N.ar   37  G37        -0.2693
    471  OP1       38.4170    0.0020   23.0640 O.3    37  G37        -0.4373
    472  OP2       39.4720   -1.5230   21.3220 O.co2  37  G37        -0.5172
    473  P         35.7680    2.3060   18.8520 P.3    38  G38         0.2141
    474  C5'       35.3670    3.5940   16.5570 C.3    38  G38         0.1812
    475  O5'       35.7230    2.3660   17.2420 O.3    38  G38        -0.3114
    476  C4'       35.6220    3.3520   15.0780 C.3    38  G38         0.1773
    477  O4'       37.0180    2.9850   14.9500 O.3    38  G38        -0.3307
    478  C3'       34.9130    2.1620   14.4940 C.3    38  G38         0.1860
    479  O3'       33.5640    2.5230   14.1270 O.3    38  G38        -0.3112
    480  C2'       35.7720    1.8150   13.2800 C.3    38  G38         0.2309
    481  O2'       35.5250    2.5770   12.0980 O.3    38  G38        -0.2156
    482  C1'       37.1840    2.0750   13.8680 C.3    38  G38         0.2408
    483  N1        39.9610   -2.1320   12.6760 N.ar   38  G38        -0.1709
    484  C2        39.7590   -0.9810   11.9590 C.ar   38  G38         0.2606
    485  N2        40.2980   -0.9380   10.7300 N.pl3  38  G38        -0.0859
    486  N3        39.0450    0.0560   12.3540 N.ar   38  G38        -0.1918
    487  C4        38.5220   -0.1120   13.6170 C.ar   38  G38         0.1723
    488  C5        38.6760   -1.2260   14.4140 C.ar   38  G38         0.1748
    489  C6        39.4410   -2.3390   13.9620 C.ar   38  G38         0.3023
    490  O6        39.6680   -3.4130   14.5340 O.2    38  G38        -0.2633
    491  N7        38.0070   -1.0560   15.6180 N.ar   38  G38        -0.2173
    492  C8        37.4520    0.1300   15.5150 C.ar   38  G38         0.1817
    493  N9        37.7220    0.7740   14.3170 N.ar   38  G38        -0.2693
    494  OP1       34.6470    3.1340   19.3820 O.3    38  G38        -0.4373
    495  OP2       35.9140    0.8990   19.2550 O.co2  38  G38        -0.5172
    496  P         32.2850    1.7290   14.5540 P.3    39  C39         0.2141
    497  C5'       30.7090    3.7000   15.3430 C.3    39  C39         0.1812
    498  O5'       31.6740    2.6740   15.7050 O.3    39  C39        -0.3114
    499  C4'       31.0270    4.9730   16.1170 C.3    39  C39         0.1773
    500  O4'       32.3930    5.4240   15.8330 O.3    39  C39        -0.3307
    501  C3'       30.1550    6.1700   15.8090 C.3    39  C39         0.1860
    502  O3'       29.0600    6.0900   16.7300 O.3    39  C39        -0.3112
    503  C2'       31.0910    7.3310   16.1710 C.3    39  C39         0.2309
    504  O2'       31.2160    7.5250   17.5640 O.3    39  C39        -0.2156
    505  C1'       32.4220    6.8350   15.6520 C.3    39  C39         0.2420
    506  N1        32.6170    7.2100   14.2100 N.ar   39  C39        -0.2535
    507  C2        32.6930    8.5700   13.8990 C.ar   39  C39         0.3532
    508  O2        32.6200    9.3770   14.8200 O.2    39  C39        -0.2443
    509  N3        32.8950    8.9410   12.6130 N.ar   39  C39        -0.1739
    510  C4        32.9630    8.0170   11.6590 C.ar   39  C39         0.1759
    511  N4        33.1550    8.4470   10.4140 N.pl3  39  C39        -0.1070
    512  C5        32.9000    6.6240   11.9440 C.ar   39  C39         0.0566
    513  C6        32.7060    6.2580   13.2230 C.ar   39  C39         0.0850
    514  OP1       32.6960    0.5210   15.3010 O.3    39  C39        -0.4373
    515  OP2       31.4060    1.6950   13.3720 O.co2  39  C39        -0.5172
    516  P         27.6700    6.7940   16.3780 P.3    40  A40         0.2141
    517  C5'       28.2040    8.9530   17.7940 C.3    40  A40         0.1812
    518  O5'       28.0200    8.3510   16.5280 O.3    40  A40        -0.3114
    519  C4'       28.1950   10.4620   17.5980 C.3    40  A40         0.1773
    520  O4'       29.4010   10.8910   16.9140 O.3    40  A40        -0.3307
    521  C3'       27.0940   10.9870   16.7000 C.3    40  A40         0.1860
    522  O3'       25.8600   11.1100   17.3640 O.3    40  A40        -0.3112
    523  C2'       27.6570   12.3630   16.3200 C.3    40  A40         0.2309
    524  O2'       27.6330   13.3120   17.3830 O.3    40  A40        -0.2156
    525  C1'       29.0970   11.9540   16.0230 C.3    40  A40         0.2408
    526  N1        29.9860   13.3550   11.1800 N.ar   40  A40        -0.2040
    527  C2        29.7980   14.0830   12.2920 C.ar   40  A40         0.2016
    528  N3        29.5700   13.6220   13.5160 N.ar   40  A40        -0.2048
    529  C4        29.5420   12.2700   13.5400 C.ar   40  A40         0.1692
    530  C5        29.7080   11.3930   12.4830 C.ar   40  A40         0.1518
    531  C6        29.9740   11.9990   11.2260 C.ar   40  A40         0.1919
    532  N6        30.1700   11.3320   10.0770 N.pl3  40  A40        -0.1054
    533  N7        29.6140   10.0680   12.9110 N.ar   40  A40        -0.2193
    534  C8        29.3640   10.1800   14.2030 C.ar   40  A40         0.1816
    535  N9        29.3090   11.4860   14.6490 N.ar   40  A40        -0.2693
    536  OP1       26.7780    6.4460   17.5380 O.3    40  A40        -0.4373
    537  OP2       27.2910    6.5300   14.9880 O.co2  40  A40        -0.5172
    538  P         24.4540   11.0550   16.6230 P.3    41  C41         0.2141
    539  C5'       24.3260   13.6530   16.4500 C.3    41  C41         0.1812
    540  O5'       24.3160   12.3960   15.7720 O.3    41  C41        -0.3114
    541  C4'       24.5290   14.7690   15.4440 C.3    41  C41         0.1773
    542  O4'       25.8480   14.6580   14.8840 O.3    41  C41        -0.3307
    543  C3'       23.6660   14.7410   14.1980 C.3    41  C41         0.1860
    544  O3'       22.3730   15.1850   14.4330 O.3    41  C41        -0.3112
    545  C2'       24.4410   15.6800   13.2740 C.3    41  C41         0.2309
    546  O2'       24.4110   17.0340   13.7090 O.3    41  C41        -0.2156
    547  C1'       25.8340   15.1230   13.5370 C.3    41  C41         0.2420
    548  N1        26.1230   14.0170   12.5700 N.ar   41  C41        -0.2535
    549  C2        26.4690   14.3590   11.2550 C.ar   41  C41         0.3532
    550  O2        26.5450   15.5580   10.9320 O.2    41  C41        -0.2443
    551  N3        26.7170   13.3630   10.3850 N.ar   41  C41        -0.1739
    552  C4        26.6490   12.0780   10.7560 C.ar   41  C41         0.1759
    553  N4        26.8850   11.1270    9.8600 N.pl3  41  C41        -0.1070
    554  C5        26.2540   11.7010   12.0690 C.ar   41  C41         0.0566
    555  C6        26.0200   12.6950   12.9450 C.ar   41  C41         0.0850
    556  OP1       23.4600   11.0490   17.7410 O.3    41  C41        -0.4373
    557  OP2       24.4230    9.9330   15.6510 O.co2  41  C41        -0.5172
    558  P         21.1440   14.5680   13.6140 P.3    42  G42         0.2141
    559  C5'       21.1470   16.5610   11.9670 C.3    42  G42         0.1812
    560  O5'       21.3110   15.1480   12.1610 O.3    42  G42        -0.3114
    561  C4'       21.5810   17.0300   10.5920 C.3    42  G42         0.1773
    562  O4'       22.9450   16.6010   10.3750 O.3    42  G42        -0.3307
    563  C3'       20.8160   16.4230    9.4340 C.3    42  G42         0.1860
    564  O3'       19.5600   17.0900    9.3030 O.3    42  G42        -0.3112
    565  C2'       21.7800   16.7380    8.3090 C.3    42  G42         0.2309
    566  O2'       21.7560   18.1170    7.9960 O.3    42  G42        -0.2156
    567  C1'       23.0950   16.3550    8.9840 C.3    42  G42         0.2408
    568  N1        25.0090   12.9650    5.7330 N.ar   42  G42        -0.1709
    569  C2        24.7670   14.3220    5.5540 C.ar   42  G42         0.2606
    570  N2        25.0680   14.8620    4.3660 N.pl3  42  G42        -0.0859
    571  N3        24.2640   15.1080    6.5070 N.ar   42  G42        -0.1918
    572  C4        23.9940   14.4120    7.6360 C.ar   42  G42         0.1723
    573  C5        24.1890   13.0700    7.9030 C.ar   42  G42         0.1748
    574  C6        24.7360   12.2380    6.8850 C.ar   42  G42         0.3023
    575  O6        24.9950   11.0220    6.9360 O.2    42  G42        -0.2633
    576  N7        23.7600   12.7710    9.1850 N.ar   42  G42        -0.2173
    577  C8        23.3620   13.9070    9.6740 C.ar   42  G42         0.1817
    578  N9        23.4680   14.9460    8.7850 N.ar   42  G42        -0.2693
    579  OP1       19.8760   15.0260   14.2590 O.3    42  G42        -0.4373
    580  OP2       21.3750   13.1010   13.4900 O.co2  42  G42        -0.5172
    581  P         18.3310   16.3870    8.5320 P.3    43  C43         0.2141
    582  C5'       18.9120   17.6730    6.3020 C.3    43  C43         0.1812
    583  O5'       18.8360   16.4460    7.0150 O.3    43  C43        -0.3114
    584  C4'       19.4120   17.4500    4.8860 C.3    43  C43         0.1773
    585  O4'       20.7620   16.9220    4.8440 O.3    43  C43        -0.3307
    586  C3'       18.6160   16.4400    4.0760 C.3    43  C43         0.1860
    587  O3'       17.3900   17.0260    3.6740 O.3    43  C43        -0.3112
    588  C2'       19.6040   16.1060    2.9620 C.3    43  C43         0.2309
    589  O2'       19.7690   17.1290    1.9990 O.3    43  C43        -0.2156
    590  C1'       20.8930   16.0070    3.7710 C.3    43  C43         0.2420
    591  N1        21.1910   14.6250    4.2880 N.ar   43  C43        -0.2535
    592  C2        21.9130   13.6970    3.4940 C.ar   43  C43         0.3532
    593  O2        22.3240   13.9890    2.3480 O.2    43  C43        -0.2443
    594  N3        22.1540   12.4630    4.0100 N.ar   43  C43        -0.1739
    595  C4        21.7130   12.1550    5.2370 C.ar   43  C43         0.1759
    596  N4        21.9650   10.9370    5.7020 N.pl3  43  C43        -0.1070
    597  C5        20.9820   13.0660    6.0480 C.ar   43  C43         0.0566
    598  C6        20.7530   14.2740    5.5370 C.ar   43  C43         0.0850
    599  OP1       17.1670   17.2940    8.6440 O.2    43  C43        -0.5172
    600  OP2       18.2410   14.9560    8.8930 O.co2  43  C43        -0.4373
    601  P         16.1320   16.0960    3.3350 P.3    44  A44         0.2141
    602  C5'       16.3590   14.0770    1.7040 C.3    44  A44         0.1812
    603  O5'       16.8160   15.3260    2.1250 O.3    44  A44        -0.3114
    604  C4'       17.1300   13.7100    0.4570 C.3    44  A44         0.1773
    605  O4'       18.5550   13.5990    0.7510 O.3    44  A44        -0.3307
    606  C3'       16.7250   12.3500   -0.0710 C.3    44  A44         0.1860
    607  O3'       15.5150   12.4420   -0.8610 O.3    44  A44        -0.3112
    608  C2'       17.9840   11.9560   -0.8360 C.3    44  A44         0.2309
    609  O2'       18.0790   12.5350   -2.1130 O.3    44  A44        -0.2156
    610  C1'       19.0910   12.4690    0.0980 C.3    44  A44         0.2408
    611  N1        21.1540    7.8100    0.6250 N.ar   44  A44        -0.2040
    612  C2        20.9850    8.5960   -0.4490 C.ar   44  A44         0.2016
    613  N3        20.4340    9.8180   -0.4920 N.ar   44  A44        -0.2048
    614  C4        20.0440   10.2240    0.7360 C.ar   44  A44         0.1692
    615  C5        20.1600    9.5260    1.9200 C.ar   44  A44         0.1518
    616  C6        20.7530    8.2480    1.8350 C.ar   44  A44         0.1919
    617  N6        20.9450    7.4500    2.8900 N.pl3  44  A44        -0.1054
    618  N7        19.6430   10.2660    2.9730 N.ar   44  A44        -0.2193
    619  C8        19.2230   11.3810    2.4100 C.ar   44  A44         0.1816
    620  N9        19.4420   11.4230    1.0610 N.ar   44  A44        -0.2693
    621  OP1       15.0530   16.9520    2.7930 O.2    44  A44        -0.5172
    622  OP2       15.8640   15.1610    4.4570 O.co2  44  A44        -0.4373
    623  P         14.4040   11.2970   -0.7590 P.3    45  A45         0.2141
    624  C5'       15.6590   10.1560   -2.7720 C.3    45  A45         0.1812
    625  O5'       15.1360   10.0740   -1.4650 O.3    45  A45        -0.3114
    626  C4'       16.4150    8.8730   -3.0170 C.3    45  A45         0.1773
    627  O4'       17.5220    8.7780   -2.0820 O.3    45  A45        -0.3307
    628  C3'       15.6190    7.6110   -2.7270 C.3    45  A45         0.1860
    629  O3'       14.7000    7.3270   -3.7930 O.3    45  A45        -0.3112
    630  C2'       16.7520    6.6060   -2.6420 C.3    45  A45         0.2309
    631  O2'       17.2590    6.2950   -3.9230 O.3    45  A45        -0.2156
    632  C1'       17.7740    7.4010   -1.8340 C.3    45  A45         0.2408
    633  N1        18.7000    4.1800    2.0880 N.ar   45  A45        -0.2040
    634  C2        18.8950    4.0430    0.7650 C.ar   45  A45         0.2016
    635  N3        18.6290    4.9230   -0.2160 N.ar   45  A45        -0.2048
    636  C4        18.1060    6.0560    0.3010 C.ar   45  A45         0.1692
    637  C5        17.8620    6.3320    1.6400 C.ar   45  A45         0.1518
    638  C6        18.1930    5.3240    2.5800 C.ar   45  A45         0.1919
    639  N6        18.0260    5.4460    3.9010 N.pl3  45  A45        -0.1054
    640  N7        17.3200    7.5940    1.7850 N.ar   45  A45        -0.2193
    641  C8        17.2540    8.0550    0.5550 C.ar   45  A45         0.1816
    642  N9        17.7100    7.1810   -0.3890 N.ar   45  A45        -0.2693
    643  OP1       13.2610   11.7700   -1.5900 O.2    45  A45        -0.5172
    644  OP2       14.1680   10.8440    0.6310 O.co2  45  A45        -0.4373
    645  P         13.2610    6.6690   -3.5440 P.3    46  G46         0.2141
    646  C5'       14.3240    4.2570   -3.7910 C.3    46  G46         0.1812
    647  O5'       13.5910    5.2010   -2.9840 O.3    46  G46        -0.3114
    648  C4'       14.7140    3.0400   -2.9740 C.3    46  G46         0.1773
    649  O4'       15.6210    3.4310   -1.9090 O.3    46  G46        -0.3307
    650  C3'       13.5630    2.3660   -2.2380 C.3    46  G46         0.1860
    651  O3'       12.9210    1.4740   -3.1300 O.3    46  G46        -0.3112
    652  C2'       14.3030    1.6320   -1.1190 C.3    46  G46         0.2309
    653  O2'       14.9890    0.4840   -1.5810 O.3    46  G46        -0.2156
    654  C1'       15.3490    2.6710   -0.7470 C.3    46  G46         0.2408
    655  N1        15.5430    3.4710    4.2830 N.ar   46  G46        -0.1709
    656  C2        15.9830    2.3900    3.5530 C.ar   46  G46         0.2606
    657  N2        16.5560    1.3820    4.2420 N.pl3  46  G46        -0.0859
    658  N3        15.8660    2.3050    2.2250 N.ar   46  G46        -0.1918
    659  C4        15.2670    3.3900    1.6740 C.ar   46  G46         0.1723
    660  C5        14.7910    4.5190    2.3130 C.ar   46  G46         0.1748
    661  C6        14.9270    4.6070    3.7310 C.ar   46  G46         0.3023
    662  O6        14.5630    5.5330    4.4670 O.2    46  G46        -0.2633
    663  N7        14.2400    5.4150    1.3910 N.ar   46  G46        -0.2173
    664  C8        14.3990    4.8230    0.2400 C.ar   46  G46         0.1817
    665  N9        15.0000    3.5870    0.3360 N.ar   46  G46        -0.2693
    666  OP1       12.6840    6.5520   -4.9150 O.2    46  G46        -0.5172
    667  OP2       12.5290    7.3560   -2.4600 O.co2  46  G46        -0.4373
    668  P         11.3690    1.6580   -3.5520 P.3    47  U47         0.2141
    669  C5'       10.5850   -0.4650   -2.2800 C.3    47  U47         0.1812
    670  O5'       10.5950    0.9510   -2.3690 O.3    47  U47        -0.3114
    671  C4'        9.6560   -0.8740   -1.1560 C.3    47  U47         0.1773
    672  O4'       10.1470   -0.2850    0.0750 O.3    47  U47        -0.3307
    673  C3'        8.2090   -0.3950   -1.2970 C.3    47  U47         0.1860
    674  O3'        7.3470   -1.3970   -0.8130 O.3    47  U47        -0.3112
    675  C2'        8.1380    0.8270   -0.3840 C.3    47  U47         0.2309
    676  O2'        6.8290    1.1170    0.0910 O.3    47  U47        -0.2156
    677  C1'        9.0710    0.3540    0.7380 C.3    47  U47         0.2420
    678  N1         9.6250    1.4460    1.5820 N.ar   47  U47        -0.2534
    679  C2         9.5090    1.3890    2.9610 C.ar   47  U47         0.3546
    680  O2         8.9750    0.4770    3.5780 O.2    47  U47        -0.2443
    681  N3        10.0630    2.4650    3.6240 N.ar   47  U47        -0.1530
    682  C4        10.7010    3.5600    3.0440 C.ar   47  U47         0.2846
    683  O4        11.1470    4.4680    3.7460 O.2    47  U47        -0.2650
    684  C5        10.7820    3.5350    1.6060 C.ar   47  U47         0.0814
    685  C6        10.2530    2.4990    0.9420 C.ar   47  U47         0.0870
    686  OP1       11.1930    0.8840   -4.8040 O.2    47  U47        -0.5172
    687  OP2       11.0540    3.1000   -3.4900 O.co2  47  U47        -0.4373
    688  P          6.5640   -2.3680   -1.8180 P.3    48  U48         0.2141
    689  C5'        4.5480   -0.6980   -1.6610 C.3    48  U48         0.1812
    690  O5'        5.4800   -1.3740   -2.4700 O.3    48  U48        -0.3114
    691  C4'        3.9040    0.4190   -2.4550 C.3    48  U48         0.1773
    692  O4'        3.0400   -0.1320   -3.4820 O.3    48  U48        -0.3307
    693  C3'        3.0480    1.3510   -1.6120 C.3    48  U48         0.1860
    694  O3'        3.3140    2.7040   -1.9730 O.3    48  U48        -0.3112
    695  C2'        1.6160    0.9430   -1.9570 C.3    48  U48         0.2309
    696  O2'        0.6620    1.9870   -1.8580 O.3    48  U48        -0.2156
    697  C1'        1.7730    0.4880   -3.4010 C.3    48  U48         0.2420
    698  N1         0.7210   -0.4860   -3.8090 N.ar   48  U48        -0.2534
    699  C2        -0.2060   -0.1030   -4.7650 C.ar   48  U48         0.3546
    700  O2        -0.2050    0.9890   -5.3130 O.2    48  U48        -0.2443
    701  N3        -1.1400   -1.0660   -5.0660 N.ar   48  U48        -0.1530
    702  C4        -1.2460   -2.3320   -4.5120 C.ar   48  U48         0.2846
    703  O4        -2.1420   -3.0730   -4.8960 O.2    48  U48        -0.2650
    704  C5        -0.2500   -2.6660   -3.5180 C.ar   48  U48         0.0814
    705  C6         0.6700   -1.7390   -3.2130 C.ar   48  U48         0.0870
    706  OP1        5.8890   -3.3620   -0.9670 O.3    48  U48        -0.4373
    707  OP2        7.4240   -2.7940   -2.9430 O.co2  48  U48        -0.5172
    708  P          4.4930    3.5480   -1.2810 P.3    49  U49         0.2141
    709  C5'        3.3480    3.6980    1.1050 C.3    49  U49         0.1812
    710  O5'        4.3850    3.1810    0.2690 O.3    49  U49        -0.3114
    711  C4'        3.7010    3.4510    2.5600 C.3    49  U49         0.1773
    712  O4'        3.5870    2.0380    2.8920 O.3    49  U49        -0.3307
    713  C3'        5.1300    3.8480    2.9240 C.3    49  U49         0.1860
    714  O3'        5.0740    4.6180    4.1150 O.3    49  U49        -0.3112
    715  C2'        5.8440    2.5110    3.1250 C.3    49  U49         0.2309
    716  O2'        6.8630    2.5710    4.0970 O.3    49  U49        -0.2156
    717  C1'        4.7130    1.6690    3.6780 C.3    49  U49         0.2420
    718  N1         4.8780    0.1840    3.6000 N.ar   49  U49        -0.2534
    719  C2         4.4820   -0.5780    4.6820 C.ar   49  U49         0.3546
    720  O2         4.0030   -0.1090    5.7070 O.2    49  U49        -0.2443
    721  N3         4.6480   -1.9300    4.5240 N.ar   49  U49        -0.1530
    722  C4         5.1640   -2.5850    3.4180 C.ar   49  U49         0.2846
    723  O4         5.2500   -3.8130    3.4420 O.2    49  U49        -0.2650
    724  C5         5.5670   -1.7310    2.3290 C.ar   49  U49         0.0814
    725  C6         5.4050   -0.4040    2.4590 C.ar   49  U49         0.0870
    726  OP1        4.1640    4.9820   -1.4550 O.3    49  U49        -0.4373
    727  OP2        5.7510    2.9930   -1.8230 O.co2  49  U49        -0.5172
    728  P          6.1990    5.7250    4.4090 P.3    50  C50         0.2141
    729  C5'        4.7750    6.9300    6.2720 C.3    50  C50         0.1812
    730  O5'        5.8690    6.0890    5.9170 O.3    50  C50        -0.3114
    731  C4'        4.5000    6.7330    7.7470 C.3    50  C50         0.1773
    732  O4'        3.9400    5.4130    7.9500 O.3    50  C50        -0.3307
    733  C3'        5.7420    6.7300    8.6390 C.3    50  C50         0.1860
    734  O3'        6.0590    8.0390    9.0010 O.3    50  C50        -0.3112
    735  C2'        5.2910    5.9150    9.8420 C.3    50  C50         0.2309
    736  O2'        4.5350    6.6440   10.7970 O.3    50  C50        -0.2156
    737  C1'        4.4410    4.8460    9.1550 C.3    50  C50         0.2420
    738  N1         5.2140    3.5770    8.8690 N.ar   50  C50        -0.2535
    739  C2         5.6840    2.8110    9.9500 C.ar   50  C50         0.3532
    740  O2         5.4580    3.1920   11.1110 O.2    50  C50        -0.2443
    741  N3         6.3790    1.6660    9.6870 N.ar   50  C50        -0.1739
    742  C4         6.6060    1.2860    8.4230 C.ar   50  C50         0.1759
    743  N4         7.2830    0.1440    8.2110 N.pl3  50  C50        -0.1070
    744  C5         6.1380    2.0550    7.3090 C.ar   50  C50         0.0566
    745  C6         5.4530    3.1780    7.5790 C.ar   50  C50         0.0850
    746  OP1        5.9920    6.8860    3.5160 O.2    50  C50        -0.5172
    747  OP2        7.5400    5.0950    4.4400 O.co2  50  C50        -0.4373
    748  P          7.5550    8.5780    8.8500 P.3    51  U51         0.2141
    749  C5'        8.3480    7.7510   11.2110 C.3    51  U51         0.1812
    750  O5'        8.3840    7.5930    9.8000 O.3    51  U51        -0.3114
    751  C4'        8.7900    6.4830   11.9080 C.3    51  U51         0.1773
    752  O4'        8.1200    5.3340   11.3240 O.3    51  U51        -0.3307
    753  C3'       10.2670    6.1500   11.7520 C.3    51  U51         0.1860
    754  O3'       11.0520    6.9260   12.6500 O.3    51  U51        -0.3112
    755  C2'       10.2600    4.6670   12.0950 C.3    51  U51         0.2309
    756  O2'       10.1180    4.4190   13.4800 O.3    51  U51        -0.2156
    757  C1'        8.9910    4.2220   11.3730 C.3    51  U51         0.2420
    758  N1         9.2180    3.6410    9.9970 N.ar   51  U51        -0.2534
    759  C2         9.7590    2.3700    9.9290 C.ar   51  U51         0.3546
    760  O2        10.0620    1.7350   10.9220 O.2    51  U51        -0.2443
    761  N3         9.9410    1.8720    8.6530 N.ar   51  U51        -0.1530
    762  C4         9.6210    2.5170    7.4660 C.ar   51  U51         0.2846
    763  O4         9.8230    1.9510    6.3920 O.2    51  U51        -0.2650
    764  C5         9.0570    3.8380    7.6180 C.ar   51  U51         0.0814
    765  C6         8.8760    4.3390    8.8540 C.ar   51  U51         0.0870
    766  OP1        7.5570    9.9450    9.4200 O.3    51  U51        -0.4373
    767  OP2        8.0380    8.3900    7.4630 O.co2  51  U51        -0.5172
    768  P         12.5810    7.2520   12.2910 P.3    52  A52         0.2141
    769  C5'       13.5070    5.2200   13.7340 C.3    52  A52         0.1812
    770  O5'       13.2960    5.8310   12.4610 O.3    52  A52        -0.3114
    771  C4'       14.0170    3.8000   13.5540 C.3    52  A52         0.1773
    772  O4'       13.1540    3.0610   12.6470 O.3    52  A52        -0.3307
    773  C3'       15.3830    3.7690   12.8880 C.3    52  A52         0.1860
    774  O3'       16.3880    3.8030   13.8890 O.3    52  A52        -0.3112
    775  C2'       15.3890    2.4720   12.0730 C.3    52  A52         0.2309
    776  O2'       15.8030    1.3590   12.8400 O.3    52  A52        -0.2156
    777  C1'       13.9130    2.3360   11.6840 C.3    52  A52         0.2408
    778  N1        13.8700    1.0210    6.6500 N.ar   52  A52        -0.2040
    779  C2        14.3070    0.3740    7.7530 C.ar   52  A52         0.2016
    780  N3        14.2870    0.7810    9.0290 N.ar   52  A52        -0.2048
    781  C4        13.7420    2.0080    9.1430 C.ar   52  A52         0.1692
    782  C5        13.2580    2.7980    8.1050 C.ar   52  A52         0.1518
    783  C6        13.3310    2.2590    6.7970 C.ar   52  A52         0.1919
    784  N6        12.8960    2.9090    5.7070 N.pl3  52  A52        -0.1054
    785  N7        12.7710    4.0030    8.5940 N.ar   52  A52        -0.2193
    786  C8        12.9810    3.9200    9.8930 C.ar   52  A52         0.1816
    787  N9        13.5660    2.7480   10.3050 N.ar   52  A52        -0.2693
    788  OP1       13.0380    8.1520   13.3740 O.3    52  A52        -0.4373
    789  OP2       12.7010    7.7080   10.8910 O.co2  52  A52        -0.5172
    790  P         17.6510    4.7840   13.6830 P.3    53  C53         0.2141
    791  C5'       19.1750    2.8440   12.8340 C.3    53  C53         0.1812
    792  O5'       18.5830    4.1190   12.5690 O.3    53  C53        -0.3114
    793  C4'       19.6120    2.1940   11.5280 C.3    53  C53         0.1773
    794  O4'       18.4090    1.8840   10.7860 O.3    53  C53        -0.3307
    795  C3'       20.4180    3.0510   10.5650 C.3    53  C53         0.1860
    796  O3'       21.8090    3.0230   10.8600 O.3    53  C53        -0.3112
    797  C2'       20.1280    2.3740    9.2320 C.3    53  C53         0.2309
    798  O2'       20.9120    1.2180    9.0470 O.3    53  C53        -0.2156
    799  C1'       18.6500    2.0150    9.3870 C.3    53  C53         0.2420
    800  N1        17.7380    3.0570    8.7840 N.ar   53  C53        -0.2535
    801  C2        17.1200    2.8180    7.5470 C.ar   53  C53         0.3532
    802  O2        17.3140    1.7390    6.9680 O.2    53  C53        -0.2443
    803  N3        16.3050    3.7890    7.0340 N.ar   53  C53        -0.1739
    804  C4        16.1060    4.9400    7.6890 C.ar   53  C53         0.1759
    805  N4        15.3040    5.8600    7.1410 N.pl3  53  C53        -0.1070
    806  C5        16.7300    5.2060    8.9450 C.ar   53  C53         0.0566
    807  C6        17.5170    4.2450    9.4440 C.ar   53  C53         0.0850
    808  OP1       18.4030    4.7610   14.9620 O.3    53  C53        -0.4373
    809  OP2       17.2060    6.0900   13.1490 O.co2  53  C53        -0.5172
    810  P         22.4980    4.2310   11.6670 P.3    54  C54         0.2141
    811  C5'       23.5090    2.8200   13.6210 C.3    54  C54         0.1812
    812  O5'       22.5140    3.7470   13.1780 O.3    54  C54        -0.3114
    813  C4'       22.9130    1.8900   14.6460 C.3    54  C54         0.1773
    814  O4'       21.8910    1.0780   14.0020 O.3    54  C54        -0.3307
    815  C3'       23.8930    0.9060   15.2650 C.3    54  C54         0.1860
    816  O3'       24.5050    1.4820   16.4200 O.3    54  C54        -0.3112
    817  C2'       22.9490   -0.2100   15.6740 C.3    54  C54         0.2309
    818  O2'       22.2350    0.0520   16.8730 O.3    54  C54        -0.2156
    819  C1'       21.9970   -0.2490   14.4680 C.3    54  C54         0.2420
    820  N1        22.4400   -1.1990   13.3600 N.ar   54  C54        -0.2535
    821  C2        22.3350   -2.5530   13.6680 C.ar   54  C54         0.3532
    822  O2        21.8820   -2.8430   14.7820 O.2    54  C54        -0.2443
    823  N3        22.6890   -3.4720   12.7300 N.ar   54  C54        -0.1739
    824  C4        23.1610   -3.0700   11.5370 C.ar   54  C54         0.1759
    825  N4        23.5090   -4.0010   10.6340 N.pl3  54  C54        -0.1070
    826  C5        23.2980   -1.6690   11.2150 C.ar   54  C54         0.0566
    827  C6        22.9270   -0.7920   12.1510 C.ar   54  C54         0.0850
    828  OP1       21.6260    5.4360   11.5540 O.3    54  C54        -0.4373
    829  OP2       23.8840    4.3320   11.1860 O.co2  54  C54        -0.5172
    830  P         25.9450    0.9970   16.9430 P.3    55  G55         0.2141
    831  C5'       25.1660   -0.5090   18.9140 C.3    55  G55         0.1812
    832  O5'       25.7100   -0.4300   17.5950 O.3    55  G55        -0.3114
    833  C4'       25.1420   -1.9490   19.3800 C.3    55  G55         0.1773
    834  O4'       24.3110   -2.7600   18.5140 O.3    55  G55        -0.3307
    835  C3'       26.4710   -2.6770   19.3140 C.3    55  G55         0.1860
    836  O3'       27.2600   -2.3410   20.4270 O.3    55  G55        -0.3112
    837  C2'       26.0570   -4.1260   19.3670 C.3    55  G55         0.2309
    838  O2'       25.4870   -4.4870   20.6160 O.3    55  G55        -0.2156
    839  C1'       24.9280   -4.0420   18.3580 C.3    55  G55         0.2408
    840  N1        25.6320   -7.4250   14.5820 N.ar   55  G55        -0.1709
    841  C2        25.3630   -7.6500   15.9160 C.ar   55  G55         0.2606
    842  N2        25.2540   -8.9210   16.3510 N.pl3  55  G55        -0.0859
    843  N3        25.2230   -6.6700   16.8120 N.ar   55  G55        -0.1918
    844  C4        25.3460   -5.4390   16.2550 C.ar   55  G55         0.1723
    845  C5        25.6160   -5.1080   14.9440 C.ar   55  G55         0.1748
    846  C6        25.7370   -6.1570   13.9860 C.ar   55  G55         0.3023
    847  O6        25.9560   -6.0510   12.7590 O.2    55  G55        -0.2633
    848  N7        25.6730   -3.7200   14.7940 N.ar   55  G55        -0.2173
    849  C8        25.4420   -3.2630   15.9920 C.ar   55  G55         0.1817
    850  N9        25.2670   -4.2340   16.9380 N.ar   55  G55        -0.2693
    851  OP1       26.2830    1.9840   17.9980 O.3    55  G55        -0.4373
    852  OP2       26.8250    0.8240   15.7710 O.co2  55  G55        -0.5172
    853  P         28.8460   -2.2270   20.3080 P.3    56  G56         0.2141
    854  C5'       29.5220   -4.4900   21.4800 C.3    56  G56         0.1812
    855  O5'       29.3650   -3.7550   20.2790 O.3    56  G56        -0.3114
    856  C4'       29.5610   -5.9680   21.1340 C.3    56  G56         0.1773
    857  O4'       28.4170   -6.3050   20.3160 O.3    56  G56        -0.3307
    858  C3'       30.7320   -6.4790   20.3130 C.3    56  G56         0.1860
    859  O3'       31.8750   -6.6450   21.1580 O.3    56  G56        -0.3112
    860  C2'       30.1540   -7.7930   19.7980 C.3    56  G56         0.2309
    861  O2'       29.9730   -8.7350   20.8350 O.3    56  G56        -0.2156
    862  C1'       28.7950   -7.2690   19.3440 C.3    56  G56         0.2408
    863  N1        28.8810   -8.3210   14.3300 N.ar   56  G56        -0.1709
    864  C2        28.8470   -9.1860   15.4050 C.ar   56  G56         0.2606
    865  N2        28.8550  -10.4910   15.0830 N.pl3  56  G56        -0.0859
    866  N3        28.8280   -8.8100   16.6770 N.ar   56  G56        -0.1918
    867  C4        28.8510   -7.4300   16.8110 C.ar   56  G56         0.1723
    868  C5        28.8800   -6.4900   15.8090 C.ar   56  G56         0.1748
    869  C6        28.9070   -6.9220   14.4520 C.ar   56  G56         0.3023
    870  O6        28.9560   -6.2380   13.4260 O.2    56  G56        -0.2633
    871  N7        28.8970   -5.1960   16.3240 N.ar   56  G56        -0.2173
    872  C8        28.8600   -5.3710   17.6130 C.ar   56  G56         0.1817
    873  N9        28.8270   -6.7060   17.9840 N.ar   56  G56        -0.2693
    874  OP1       29.2610   -1.5060   21.5300 O.3    56  G56        -0.4373
    875  OP2       29.1810   -1.7140   18.9760 O.co2  56  G56        -0.5172
    876  P         33.2930   -6.7820   20.4940 P.3    57  G57         0.2141
    877  C5'       33.3350   -9.4240   20.4820 C.3    57  G57         0.1812
    878  O5'       33.2900   -8.1980   19.7790 O.3    57  G57        -0.3114
    879  C4'       33.2820  -10.5590   19.4710 C.3    57  G57         0.1773
    880  O4'       32.0800  -10.4600   18.6250 O.3    57  G57        -0.3307
    881  C3'       34.4400  -10.7060   18.5130 C.3    57  G57         0.1860
    882  O3'       35.5320  -11.3600   19.1190 O.3    57  G57        -0.3112
    883  C2'       33.7850  -11.6240   17.4880 C.3    57  G57         0.2309
    884  O2'       33.6290  -12.9730   17.8940 O.3    57  G57        -0.2156
    885  C1'       32.4420  -10.9320   17.3410 C.3    57  G57         0.2408
    886  N1        32.2150   -9.6470   12.4080 N.ar   57  G57        -0.1709
    887  C2        32.3460  -10.9080   12.9730 C.ar   57  G57         0.2606
    888  N2        32.4040  -11.9450   12.1260 N.pl3  57  G57        -0.0859
    889  N3        32.3740  -11.1060   14.2980 N.ar   57  G57        -0.1918
    890  C4        32.3120   -9.9510   15.0030 C.ar   57  G57         0.1723
    891  C5        32.1780   -8.6610   14.5280 C.ar   57  G57         0.1748
    892  C6        32.1220   -8.4550   13.1120 C.ar   57  G57         0.3023
    893  O6        31.9880   -7.3760   12.5200 O.2    57  G57        -0.2633
    894  N7        32.1470   -7.7500   15.5740 N.ar   57  G57        -0.2173
    895  C8        32.2470   -8.4920   16.6490 C.ar   57  G57         0.1817
    896  N9        32.3570   -9.8240   16.3830 N.ar   57  G57        -0.2693
    897  OP1       34.1950   -6.7830   21.6660 O.3    57  G57        -0.4373
    898  OP2       33.5730   -5.7740   19.4130 O.co2  57  G57        -0.5172
    899  P         37.0080  -10.8720   18.7940 P.3    58  C58         0.2141
    900  C5'       37.3030  -12.5910   16.8160 C.3    58  C58         0.1812
    901  O5'       37.1770  -11.2490   17.2530 O.3    58  C58        -0.3114
    902  C4'       37.1330  -12.6800   15.3100 C.3    58  C58         0.1773
    903  O4'       35.8270  -12.2280   14.8640 O.3    58  C58        -0.3307
    904  C3'       38.0990  -11.8570   14.4750 C.3    58  C58         0.1860
    905  O3'       39.3120  -12.5140   14.4620 O.3    58  C58        -0.3112
    906  C2'       37.3920  -11.9030   13.1310 C.3    58  C58         0.2309
    907  O2'       37.4900  -13.1450   12.4610 O.3    58  C58        -0.2156
    908  C1'       35.9730  -11.5990   13.5940 C.3    58  C58         0.2420
    909  N1        35.7420  -10.1230   13.6700 N.ar   58  C58        -0.2535
    910  C2        35.5700   -9.4390   12.4480 C.ar   58  C58         0.3532
    911  O2        35.6430  -10.1150   11.4220 O.2    58  C58        -0.2443
    912  N3        35.3690   -8.0990   12.4690 N.ar   58  C58        -0.1739
    913  C4        35.3490   -7.4220   13.6350 C.ar   58  C58         0.1759
    914  N4        35.1390   -6.0950   13.6100 N.pl3  58  C58        -0.1070
    915  C5        35.5180   -8.1020   14.8900 C.ar   58  C58         0.0566
    916  C6        35.7220   -9.4340   14.8630 C.ar   58  C58         0.0850
    917  OP1       37.9240  -11.7230   19.5820 O.3    58  C58        -0.4373
    918  OP2       37.0500   -9.4270   18.9260 O.co2  58  C58        -0.5172
    919  P         40.6590  -11.6920   14.3750 P.3    59  A59         0.2141
    920  C5'       40.8710  -12.1570   11.7530 C.3    59  A59         0.1812
    921  O5'       40.7400  -11.2360   12.8340 O.3    59  A59        -0.3114
    922  C4'       40.4720  -11.4690   10.4510 C.3    59  A59         0.1773
    923  O4'       39.1230  -10.8960   10.4980 O.3    59  A59        -0.3307
    924  C3'       41.3820  -10.3520    9.9590 C.3    59  A59         0.1860
    925  O3'       42.4890  -10.9260    9.2420 O.3    59  A59        -0.3112
    926  C2'       40.4730   -9.6580    8.9630 C.3    59  A59         0.2309
    927  O2'       40.3480  -10.3740    7.7440 O.3    59  A59        -0.2156
    928  C1'       39.1810   -9.6790    9.7530 C.3    59  A59         0.2408
    929  N1        37.9300   -4.6850    9.9340 N.ar   59  A59        -0.2040
    930  C2        38.1970   -5.5090    8.9030 C.ar   59  A59         0.2016
    931  N3        38.5130   -6.8130    8.9540 N.ar   59  A59        -0.2048
    932  C4        38.6010   -7.2670   10.2160 C.ar   59  A59         0.1692
    933  C5        38.3820   -6.5320   11.3650 C.ar   59  A59         0.1518
    934  C6        38.0050   -5.1770   11.1840 C.ar   59  A59         0.1919
    935  N6        37.7760   -4.3380   12.1990 N.pl3  59  A59        -0.1054
    936  N7        38.5720   -7.3350   12.5010 N.ar   59  A59        -0.2193
    937  C8        38.8640   -8.5120   12.0060 C.ar   59  A59         0.1816
    938  N9        38.9550   -8.5260   10.6360 N.ar   59  A59        -0.2693
    939  OP1       41.7270  -12.6690   14.6850 O.2    59  A59        -0.5172
    940  OP2       40.6310  -10.4370   15.1240 O.co2  59  A59        -0.4373
    941  P         43.9400  -10.2390    9.2970 P.3    60  C60         0.2141
    942  C5'       43.3440   -8.7580    7.1330 C.3    60  C60         0.1812
    943  O5'       43.7280   -8.8580    8.5120 O.3    60  C60        -0.3114
    944  C4'       42.9040   -7.3450    6.7770 C.3    60  C60         0.1773
    945  O4'       41.7000   -6.9560    7.4970 O.3    60  C60        -0.3307
    946  C3'       43.9100   -6.2960    7.2070 C.3    60  C60         0.1860
    947  O3'       44.9770   -6.1710    6.2690 O.3    60  C60        -0.3112
    948  C2'       43.0690   -5.0300    7.2900 C.3    60  C60         0.2309
    949  O2'       42.7010   -4.5320    6.0160 O.3    60  C60        -0.2156
    950  C1'       41.8340   -5.6150    7.9440 C.3    60  C60         0.2420
    951  N1        41.7680   -5.5930    9.4530 N.ar   60  C60        -0.2535
    952  C2        41.3280   -4.4130   10.0670 C.ar   60  C60         0.3532
    953  O2        41.0660   -3.4170    9.3930 O.2    60  C60        -0.2443
    954  N3        41.2230   -4.3740   11.4160 N.ar   60  C60        -0.1739
    955  C4        41.5500   -5.4510   12.1300 C.ar   60  C60         0.1759
    956  N4        41.3960   -5.3420   13.4690 N.pl3  60  C60        -0.1070
    957  C5        41.9920   -6.6780   11.5390 C.ar   60  C60         0.0566
    958  C6        42.0990   -6.7060   10.2050 C.ar   60  C60         0.0850
    959  OP1       44.8390  -11.0800    8.4690 O.2    60  C60        -0.5172
    960  OP2       44.2740   -9.8100   10.6610 O.co2  60  C60        -0.4373
    961  P         46.3960   -5.6000    6.7500 P.3    61  C61         0.2141
    962  C5'       45.5910   -3.1540    5.8150 C.3    61  C61         0.1812
    963  O5'       46.0310   -4.0270    6.8840 O.3    61  C61        -0.3114
    964  C4'       45.2470   -1.7770    6.3730 C.3    61  C61         0.1773
    965  O4'       44.1400   -1.8420    7.3230 O.3    61  C61        -0.3307
    966  C3'       46.3560   -1.1580    7.1930 C.3    61  C61         0.1860
    967  O3'       47.1750   -0.4660    6.3130 O.3    61  C61        -0.3112
    968  C2'       45.6340   -0.1330    8.0470 C.3    61  C61         0.2309
    969  O2'       45.3070    1.0190    7.2970 O.3    61  C61        -0.2156
    970  C1'       44.3540   -0.9050    8.3650 C.3    61  C61         0.2420
    971  N1        44.3310   -1.6490    9.6740 N.ar   61  C61        -0.2535
    972  C2        43.8270   -0.9730   10.7940 C.ar   61  C61         0.3532
    973  O2        43.4660    0.2050   10.6720 O.2    61  C61        -0.2443
    974  N3        43.7650   -1.6690   11.9600 N.ar   61  C61        -0.1739
    975  C4        44.1910   -2.9400   12.0340 C.ar   61  C61         0.1759
    976  N4        44.0940   -3.5510   13.2190 N.pl3  61  C61        -0.1070
    977  C5        44.7020   -3.6520   10.9060 C.ar   61  C61         0.0566
    978  C6        44.7410   -2.9590    9.7600 C.ar   61  C61         0.0850
    979  OP1       47.3370   -5.7680    5.6060 O.2    61  C61        -0.5172
    980  OP2       46.7890   -6.0230    8.1090 O.co2  61  C61        -0.4373
    981  P         48.7500   -0.6370    6.4500 P.3    62  G62         0.2141
    982  C5'       50.5870    0.4610    7.8010 C.3    62  G62         0.1812
    983  O5'       49.1990    0.2960    7.6400 O.3    62  G62        -0.3114
    984  C4'       50.9050    0.9210    9.2070 C.3    62  G62         0.1773
    985  O4'       50.7540   -0.1790   10.1380 O.3    62  G62        -0.3307
    986  C3'       52.3270    1.4170    9.3880 C.3    62  G62         0.1860
    987  O3'       52.2340    2.5310   10.2510 O.3    62  G62        -0.3112
    988  C2'       53.0340    0.2250   10.0340 C.3    62  G62         0.2309
    989  O2'       54.1790    0.5940   10.7780 O.3    62  G62        -0.2156
    990  C1'       51.9150   -0.3000   10.9360 C.3    62  G62         0.2408
    991  N1        50.8260   -3.6840   14.6300 N.ar   62  G62        -0.1709
    992  C2        50.6240   -2.3190   14.6110 C.ar   62  G62         0.2606
    993  N2        50.0590   -1.7860   15.7050 N.pl3  62  G62        -0.0859
    994  N3        50.9570   -1.5370   13.5860 N.ar   62  G62        -0.1918
    995  C4        51.5170   -2.2300   12.5550 C.ar   62  G62         0.1723
    996  C5        51.7600   -3.5880   12.4870 C.ar   62  G62         0.1748
    997  C6        51.4040   -4.4100   13.5880 C.ar   62  G62         0.3023
    998  O6        51.5430   -5.6360   13.7140 O.2    62  G62        -0.2633
    999  N7        52.3480   -3.9180   11.2670 N.ar   62  G62        -0.2173
   1000  C8        52.4500   -2.7790   10.6380 C.ar   62  G62         0.1817
   1001  N9        51.9710   -1.7050   11.3580 N.ar   62  G62        -0.2693
   1002  OP1       49.2560   -0.0620    5.1670 O.2    62  G62        -0.5172
   1003  OP2       49.0660   -2.0240    6.8420 O.co2  62  G62        -0.4373
   1004  P         53.3380    3.6770   10.2590 P.3    63  U63         0.2141
   1005  C5'       51.3430    5.3270    9.7340 C.3    63  U63         0.1812
   1006  O5'       52.4880    5.0100   10.5340 O.3    63  U63        -0.3114
   1007  C4'       50.2710    6.0340   10.5520 C.3    63  U63         0.1773
   1008  O4'       49.4540    5.0490   11.2530 O.3    63  U63        -0.3307
   1009  C3'       50.8030    6.9840   11.6190 C.3    63  U63         0.1860
   1010  O3'       49.9750    8.1480   11.6670 O.3    63  U63        -0.3112
   1011  C2'       50.7140    6.1370   12.8920 C.3    63  U63         0.2309
   1012  O2'       50.6360    6.9270   14.0640 O.3    63  U63        -0.2156
   1013  C1'       49.4080    5.3710   12.6310 C.3    63  U63         0.2420
   1014  N1        49.2720    4.1280   13.4610 N.ar   63  U63        -0.2534
   1015  C2        48.6340    4.1990   14.6890 C.ar   63  U63         0.3546
   1016  O2        48.1540    5.2270   15.1270 O.2    63  U63        -0.2443
   1017  N3        48.5800    3.0190   15.3820 N.ar   63  U63        -0.1530
   1018  C4        49.0870    1.7880   14.9920 C.ar   63  U63         0.2846
   1019  O4        48.9600    0.8050   15.7210 O.2    63  U63        -0.2650
   1020  C5        49.7410    1.7870   13.6960 C.ar   63  U63         0.0814
   1021  C6        49.8030    2.9300   13.0090 C.ar   63  U63         0.0870
   1022  OP1       53.9580    3.7360    8.9070 O.2    63  U63        -0.5172
   1023  OP2       54.1890    3.4490   11.4460 O.co2  63  U63        -0.4373
   1024  P         50.4920    9.5840   11.1910 P.3    64  A64         0.2141
   1025  C5'       48.3520    9.7190    9.6920 C.3    64  A64         0.1812
   1026  O5'       49.7760    9.7570    9.7700 O.3    64  A64        -0.3114
   1027  C4'       47.8830    9.1590    8.3590 C.3    64  A64         0.1773
   1028  O4'       48.1290    7.7290    8.2560 O.3    64  A64        -0.3307
   1029  C3'       46.3910    9.3460    8.1140 C.3    64  A64         0.1860
   1030  O3'       46.2110   10.4990    7.2940 O.3    64  A64        -0.3112
   1031  C2'       45.9720    8.0550    7.4160 C.3    64  A64         0.2309
   1032  O2'       46.1440    8.1120    6.0140 O.3    64  A64        -0.2156
   1033  C1'       46.9230    7.0160    7.9870 C.3    64  A64         0.2408
   1034  N1        46.9380    2.5640   10.6040 N.ar   64  A64        -0.2040
   1035  C2        47.3830    2.8630    9.3630 C.ar   64  A64         0.2016
   1036  N3        47.3330    4.0530    8.7580 N.ar   64  A64        -0.2048
   1037  C4        46.7600    4.9950    9.5290 C.ar   64  A64         0.1692
   1038  C5        46.2750    4.8260   10.8160 C.ar   64  A64         0.1518
   1039  C6        46.3850    3.5330   11.3590 C.ar   64  A64         0.1919
   1040  N6        45.9570    3.2140   12.5850 N.pl3  64  A64        -0.1054
   1041  N7        45.7700    6.0100   11.3220 N.ar   64  A64        -0.2193
   1042  C8        45.9510    6.8640   10.3420 C.ar   64  A64         0.1816
   1043  N9        46.5360    6.3230    9.2300 N.ar   64  A64        -0.2693
   1044  OP1       51.9520    9.5060   10.9760 O.2    64  A64        -0.5172
   1045  OP2       49.9370   10.5890   12.1290 O.co2  64  A64        -0.4373
   1046  P         44.9080   11.4160    7.4240 P.3    65  A65         0.2141
   1047  C5'       43.8660   10.3390    5.2510 C.3    65  A65         0.1812
   1048  O5'       43.7920   10.5720    6.6550 O.3    65  A65        -0.3114
   1049  C4'       42.8450    9.2870    4.8440 C.3    65  A65         0.1773
   1050  O4'       43.1860    8.0260    5.4960 O.3    65  A65        -0.3307
   1051  C3'       41.3900    9.5860    5.1890 C.3    65  A65         0.1860
   1052  O3'       40.5500    9.0020    4.1600 O.3    65  A65        -0.3112
   1053  C2'       41.2760    8.8950    6.5610 C.3    65  A65         0.2309
   1054  O2'       39.9470    8.5980    6.9540 O.3    65  A65        -0.2156
   1055  C1'       42.0730    7.6200    6.2500 C.3    65  A65         0.2408
   1056  N1        43.3370    2.8900    7.8650 N.ar   65  A65        -0.2040
   1057  C2        43.1440    3.3920    6.6170 C.ar   65  A65         0.2016
   1058  N3        42.8190    4.6440    6.2570 N.ar   65  A65        -0.2048
   1059  C4        42.7070    5.4480    7.3490 C.ar   65  A65         0.1692
   1060  C5        42.8810    5.0780    8.6730 C.ar   65  A65         0.1518
   1061  C6        43.2040    3.7310    8.9190 C.ar   65  A65         0.1919
   1062  N6        43.3880    3.2630   10.1560 N.pl3  65  A65        -0.1054
   1063  N7        42.7180    6.1520    9.5200 N.ar   65  A65        -0.2193
   1064  C8        42.3990    7.1450    8.7230 C.ar   65  A65         0.1816
   1065  N9        42.4060    6.7840    7.3970 N.ar   65  A65        -0.2693
   1066  OP1       45.1940   12.6360    6.6230 O.2    65  A65        -0.5172
   1067  OP2       44.4600   11.5350    8.8350 O.co2  65  A65        -0.4373
   1068  P         39.2430    9.6160    3.4660 P.3    66  A66         0.2141
   1069  C5'       37.8060    7.6190    4.3860 C.3    66  A66         0.1812
   1070  O5'       38.3070    8.3500    3.2600 O.3    66  A66        -0.3114
   1071  C4'       38.1390    6.1680    4.1450 C.3    66  A66         0.1773
   1072  O4'       39.4650    5.8400    4.6380 O.3    66  A66        -0.3307
   1073  C3'       37.2540    5.1840    4.8770 C.3    66  A66         0.1860
   1074  O3'       35.9800    5.1250    4.2990 O.3    66  A66        -0.3112
   1075  C2'       38.0540    3.9150    4.6750 C.3    66  A66         0.2309
   1076  O2'       38.0630    3.4540    3.3190 O.3    66  A66        -0.2156
   1077  C1'       39.4230    4.4830    5.0750 C.3    66  A66         0.2408
   1078  N1        40.1120    1.3290    9.0320 N.ar   66  A66        -0.2040
   1079  C2        40.0960    1.1040    7.7060 C.ar   66  A66         0.2016
   1080  N3        39.9070    2.0090    6.7280 N.ar   66  A66        -0.2048
   1081  C4        39.7440    3.2540    7.2260 C.ar   66  A66         0.1692
   1082  C5        39.7190    3.6300    8.5570 C.ar   66  A66         0.1518
   1083  C6        39.9470    2.5890    9.4920 C.ar   66  A66         0.1919
   1084  N6        39.9510    2.7810   10.8050 N.pl3  66  A66        -0.1054
   1085  N7        39.5290    4.9910    8.6760 N.ar   66  A66        -0.2193
   1086  C8        39.4230    5.4160    7.4470 C.ar   66  A66         0.1816
   1087  N9        39.5400    4.4100    6.5250 N.ar   66  A66        -0.2693
   1088  OP1       39.6790    9.9980    2.0780 O.2    66  A66        -0.5172
   1089  OP2       38.6820   10.6840    4.3170 O.co2  66  A66        -0.4373
   1090  P         34.6590    5.0930    5.1900 P.3    67  U67         0.2141
   1091  C5'       34.3020    2.6340    6.0970 C.3    67  U67         0.1812
   1092  O5'       34.9200    3.8990    6.2120 O.3    67  U67        -0.3114
   1093  C4'       35.2510    1.6350    5.4780 C.3    67  U67         0.1773
   1094  O4'       36.4860    1.5010    6.2400 O.3    67  U67        -0.3307
   1095  C3'       34.7040    0.2190    5.4050 C.3    67  U67         0.1860
   1096  O3'       33.8700    0.1170    4.2500 O.3    67  U67        -0.3112
   1097  C2'       35.9790   -0.6040    5.3270 C.3    67  U67         0.2309
   1098  O2'       36.5350   -0.6200    4.0290 O.3    67  U67        -0.2156
   1099  C1'       36.8710    0.1470    6.3050 C.3    67  U67         0.2420
   1100  N1        36.7780   -0.3590    7.7160 N.ar   67  U67        -0.2534
   1101  C2        37.2540   -1.6400    7.9810 C.ar   67  U67         0.3546
   1102  O2        37.7250   -2.3950    7.1380 O.2    67  U67        -0.2443
   1103  N3        37.1270   -2.0620    9.2760 N.ar   67  U67        -0.1530
   1104  C4        36.6220   -1.3160   10.3330 C.ar   67  U67         0.2846
   1105  O4        36.5990   -1.8250   11.4470 O.2    67  U67        -0.2650
   1106  C5        36.1590    0.0030    9.9900 C.ar   67  U67         0.0814
   1107  C6        36.2650    0.4310    8.7220 C.ar   67  U67         0.0870
   1108  OP1       33.4870    4.8600    4.3120 O.2    67  U67        -0.5172
   1109  OP2       34.6150    6.2890    6.0540 O.co2  67  U67        -0.4373
   1110  P         32.5130   -0.6870    4.1690 P.3    68  G68         0.2141
   1111  C5'       33.7310   -2.7560    3.0840 C.3    68  G68         0.1812
   1112  O5'       33.0310   -2.2010    4.2080 O.3    68  G68        -0.3114
   1113  C4'       34.3010   -4.1330    3.3770 C.3    68  G68         0.1773
   1114  O4'       35.3190   -4.0300    4.4050 O.3    68  G68        -0.3307
   1115  C3'       33.3340   -5.1840    3.9130 C.3    68  G68         0.1860
   1116  O3'       32.6660   -5.8120    2.8410 O.3    68  G68        -0.3112
   1117  C2'       34.3080   -6.1560    4.5730 C.3    68  G68         0.2309
   1118  O2'       35.0540   -6.8770    3.5920 O.3    68  G68        -0.2156
   1119  C1'       35.2130   -5.1540    5.2580 C.3    68  G68         0.2408
   1120  N1        34.9570   -6.7260   10.0400 N.ar   68  G68        -0.1709
   1121  C2        35.3700   -7.3820    8.9020 C.ar   68  G68         0.2606
   1122  N2        35.7800   -8.6530    9.0100 N.pl3  68  G68        -0.0859
   1123  N3        35.3680   -6.8260    7.6790 N.ar   68  G68        -0.1918
   1124  C4        34.9360   -5.5420    7.7140 C.ar   68  G68         0.1723
   1125  C5        34.5000   -4.7940    8.7940 C.ar   68  G68         0.1748
   1126  C6        34.5190   -5.3970   10.0880 C.ar   68  G68         0.3023
   1127  O6        34.1730   -4.9090   11.1840 O.2    68  G68        -0.2633
   1128  N7        34.1310   -3.5230    8.3560 N.ar   68  G68        -0.2173
   1129  C8        34.3510   -3.5210    7.0590 C.ar   68  G68         0.1817
   1130  N9        34.8290   -4.7230    6.6130 N.ar   68  G68        -0.2693
   1131  OP1       31.8960   -0.3630    2.8780 O.2    68  G68        -0.5172
   1132  OP2       31.7370   -0.4910    5.4280 O.co2  68  G68        -0.4373
   1133  P         31.1850   -6.4230    2.9590 P.3    69  U69         0.2141
   1134  C5'       32.2460   -8.8530    3.5000 C.3    69  U69         0.1812
   1135  O5'       31.4130   -7.7240    3.8790 O.3    69  U69        -0.3114
   1136  C4'       32.4470   -9.7970    4.6910 C.3    69  U69         0.1773
   1137  O4'       33.2300   -9.1560    5.7290 O.3    69  U69        -0.3307
   1138  C3'       31.1740  -10.1780    5.4350 C.3    69  U69         0.1860
   1139  O3'       30.5070  -11.2450    4.8290 O.3    69  U69        -0.3112
   1140  C2'       31.7010  -10.5970    6.8040 C.3    69  U69         0.2309
   1141  O2'       32.3980  -11.8370    6.8250 O.3    69  U69        -0.2156
   1142  C1'       32.6950   -9.4890    7.0190 C.3    69  U69         0.2420
   1143  N1        32.2070   -8.2700    7.7230 N.ar   69  U69        -0.2534
   1144  C2        32.1940   -8.3300    9.1040 C.ar   69  U69         0.3546
   1145  O2        32.5320   -9.3350    9.6920 O.2    69  U69        -0.2443
   1146  N3        31.7850   -7.1950    9.7420 N.ar   69  U69        -0.1530
   1147  C4        31.3640   -6.0140    9.1440 C.ar   69  U69         0.2846
   1148  O4        31.0010   -5.0570    9.8580 O.2    69  U69        -0.2650
   1149  C5        31.4040   -6.0150    7.6940 C.ar   69  U69         0.0814
   1150  C6        31.8020   -7.1120    7.0430 C.ar   69  U69         0.0870
   1151  OP1       30.8000   -6.8550    1.5880 O.2    69  U69        -0.5172
   1152  OP2       30.2920   -5.5150    3.7240 O.co2  69  U69        -0.4373
   1153  P         28.9240  -11.4630    4.8500 P.3    70  C70         0.2141
   1154  C5'       29.2090  -13.5000    6.5150 C.3    70  C70         0.1812
   1155  O5'       28.6880  -12.1700    6.2620 O.3    70  C70        -0.3114
   1156  C4'       29.2830  -13.8350    7.9910 C.3    70  C70         0.1773
   1157  O4'       30.0870  -12.8770    8.7130 O.3    70  C70        -0.3307
   1158  C3'       27.9590  -13.7840    8.7320 C.3    70  C70         0.1860
   1159  O3'       27.2580  -15.0040    8.4500 O.3    70  C70        -0.3112
   1160  C2'       28.3970  -13.6680   10.1820 C.3    70  C70         0.2309
   1161  O2'       28.9990  -14.8370   10.7260 O.3    70  C70        -0.2156
   1162  C1'       29.5010  -12.6500    9.9960 C.3    70  C70         0.2420
   1163  N1        29.1790  -11.1830   10.1560 N.ar   70  C70        -0.2535
   1164  C2        29.0630  -10.6680   11.4530 C.ar   70  C70         0.3532
   1165  O2        29.1760  -11.3790   12.4500 O.2    70  C70        -0.2443
   1166  N3        28.8610   -9.3480   11.6270 N.ar   70  C70        -0.1739
   1167  C4        28.6990   -8.5440   10.5740 C.ar   70  C70         0.1759
   1168  N4        28.4900   -7.2540   10.8550 N.pl3  70  C70        -0.1070
   1169  C5        28.7820   -9.0300    9.2390 C.ar   70  C70         0.0566
   1170  C6        29.0310  -10.3490    9.0590 C.ar   70  C70         0.0850
   1171  OP1       28.6560  -12.3740    3.7130 O.2    70  C70        -0.5172
   1172  OP2       28.3020  -10.1110    4.9040 O.co2  70  C70        -0.4373
   1173  P         25.6960  -14.9830    8.1700 P.3    71  C71         0.2141
   1174  C5'       24.9780  -15.8970   10.5180 C.3    71  C71         0.1812
   1175  O5'       24.9660  -14.8340    9.5840 O.3    71  C71        -0.3114
   1176  C4'       24.9140  -15.3900   11.9580 C.3    71  C71         0.1773
   1177  O4'       26.0050  -14.4590   12.1990 O.3    71  C71        -0.3307
   1178  C3'       23.7120  -14.5520   12.3470 C.3    71  C71         0.1860
   1179  O3'       22.5390  -15.3460   12.6240 O.3    71  C71        -0.3112
   1180  C2'       24.2550  -13.8680   13.6050 C.3    71  C71         0.2309
   1181  O2'       24.3460  -14.8030   14.6690 O.3    71  C71        -0.2156
   1182  C1'       25.6170  -13.4470   13.1080 C.3    71  C71         0.2420
   1183  N1        25.5770  -12.0690   12.4670 N.ar   71  C71        -0.2535
   1184  C2        25.5910  -10.9520   13.3220 C.ar   71  C71         0.3532
   1185  O2        25.5650  -11.1160   14.5580 O.2    71  C71        -0.2443
   1186  N3        25.5650   -9.7270   12.7580 N.ar   71  C71        -0.1739
   1187  C4        25.5410   -9.5940   11.4250 C.ar   71  C71         0.1759
   1188  N4        25.5240   -8.3430   10.9680 N.pl3  71  C71        -0.1070
   1189  C5        25.5360  -10.7010   10.5200 C.ar   71  C71         0.0566
   1190  C6        25.5580  -11.9220   11.0920 C.ar   71  C71         0.0850
   1191  OP1       25.4000  -16.3420    7.6740 O.3    71  C71        -0.4373
   1192  OP2       25.3550  -13.7830    7.3910 O.co2  71  C71        -0.5172
   1193  P         21.0350  -14.8050   12.5430 P.3    72  G72         0.2141
   1194  C5'       21.0310  -14.0580   15.0310 C.3    72  G72         0.1812
   1195  O5'       21.0440  -13.6680   13.6800 O.3    72  G72        -0.3114
   1196  C4'       21.0340  -12.8210   15.9020 C.3    72  G72         0.1773
   1197  O4'       22.2560  -12.0800   15.6930 O.3    72  G72        -0.3307
   1198  C3'       19.9220  -11.8410   15.6140 C.3    72  G72         0.1860
   1199  O3'       18.7830  -12.2400   16.3850 O.3    72  G72        -0.3112
   1200  C2'       20.5470  -10.5550   16.1650 C.3    72  G72         0.2309
   1201  O2'       20.4990  -10.4810   17.5710 O.3    72  G72        -0.2156
   1202  C1'       22.0070  -10.6910   15.7360 C.3    72  G72         0.2408
   1203  N1        22.4850   -6.1960   13.4870 N.ar   72  G72        -0.1709
   1204  C2        22.3900   -6.5140   14.8310 C.ar   72  G72         0.2606
   1205  N2        22.4090   -5.4820   15.6870 N.pl3  72  G72        -0.0859
   1206  N3        22.2710   -7.7570   15.3030 N.ar   72  G72        -0.1918
   1207  C4        22.2720   -8.6720   14.2980 C.ar   72  G72         0.1723
   1208  C5        22.3820   -8.4640   12.9460 C.ar   72  G72         0.1748
   1209  C6        22.4710   -7.1380   12.4550 C.ar   72  G72         0.3023
   1210  O6        22.5670   -6.7710   11.2850 O.2    72  G72        -0.2633
   1211  N7        22.3230   -9.6640   12.2590 N.ar   72  G72        -0.2173
   1212  C8        22.1920  -10.5650   13.1920 C.ar   72  G72         0.1817
   1213  N9        22.1660  -10.0300   14.4510 N.ar   72  G72        -0.2693
   1214  OP1       20.1660  -15.9490   12.9190 O.3    72  G72        -0.4373
   1215  OP2       20.8810  -14.0730   11.2560 O.co2  72  G72        -0.5172
   1216  P         17.2800  -11.9360   15.9170 P.3    73  A73         0.2141
   1217  C5'       15.7070   -9.9290   16.4670 C.3    73  A73         0.1812
   1218  O5'       17.0530  -10.4220   16.3770 O.3    73  A73        -0.3114
   1219  C4'       15.7780   -8.4760   16.8750 C.3    73  A73         0.1773
   1220  O4'       16.7260   -7.7830   16.0270 O.3    73  A73        -0.3307
   1221  C3'       14.4950   -7.6940   16.6920 C.3    73  A73         0.1860
   1222  O3'       13.7200   -7.8580   17.8470 O.3    73  A73        -0.3112
   1223  C2'       15.0190   -6.2700   16.5990 C.3    73  A73         0.2309
   1224  O2'       15.4280   -5.7820   17.8650 O.3    73  A73        -0.2156
   1225  C1'       16.2340   -6.4990   15.7220 C.3    73  A73         0.2408
   1226  N1        15.6640   -3.0810   11.9850 N.ar   73  A73        -0.2040
   1227  C2        15.7880   -2.9550   13.3160 C.ar   73  A73         0.2016
   1228  N3        15.9170   -3.9280   14.2230 N.ar   73  A73        -0.2048
   1229  C4        15.9250   -5.1470   13.6350 C.ar   73  A73         0.1692
   1230  C5        15.8120   -5.4410   12.2890 C.ar   73  A73         0.1518
   1231  C6        15.6700   -4.3270   11.4360 C.ar   73  A73         0.1919
   1232  N6        15.5370   -4.4440   10.1140 N.pl3  73  A73        -0.1054
   1233  N7        15.8500   -6.8210   12.0760 N.ar   73  A73        -0.2193
   1234  C8        15.9940   -7.3150   13.2910 C.ar   73  A73         0.1816
   1235  N9        16.0410   -6.3540   14.2710 N.ar   73  A73        -0.2693
   1236  OP1       16.3820  -12.8180   16.6890 O.3    73  A73        -0.4373
   1237  OP2       17.2490  -11.9360   14.4480 O.co2  73  A73        -0.5172
   1238  P         12.1160   -7.9000   17.7420 P.3    74  U74         0.2141
   1239  C5'       11.9480   -5.3420   18.3650 C.3    74  U74         0.1812
   1240  O5'       11.6880   -6.3840   17.4580 O.3    74  U74        -0.3114
   1241  C4'       11.9750   -4.0490   17.5900 C.3    74  U74         0.1773
   1242  O4'       12.9370   -4.1490   16.5130 O.3    74  U74        -0.3307
   1243  C3'       10.7050   -3.7320   16.8140 C.3    74  U74         0.1860
   1244  O3'        9.7170   -3.2490   17.6800 O.3    74  U74        -0.3112
   1245  C2'       11.2190   -2.6480   15.8730 C.3    74  U74         0.2309
   1246  O2'       11.5070   -1.4130   16.5190 O.3    74  U74        -0.2156
   1247  C1'       12.5200   -3.3170   15.4470 C.3    74  U74         0.2420
   1248  N1        12.4700   -4.0950   14.1580 N.ar   74  U74        -0.2534
   1249  C2        12.5250   -3.3650   12.9820 C.ar   74  U74         0.3546
   1250  O2        12.5890   -2.1530   12.9500 O.2    74  U74        -0.2443
   1251  N3        12.5100   -4.1180   11.8360 N.ar   74  U74        -0.1530
   1252  C4        12.4570   -5.5010   11.7530 C.ar   74  U74         0.2846
   1253  O4        12.4520   -6.0340   10.6500 O.2    74  U74        -0.2650
   1254  C5        12.4110   -6.1990   13.0130 C.ar   74  U74         0.0814
   1255  C6        12.4240   -5.4840   14.1480 C.ar   74  U74         0.0870
   1256  OP1       11.7010   -8.3200   19.0980 O.3    74  U74        -0.4373
   1257  OP2       11.7180   -8.6780   16.5430 O.co2  74  U74        -0.5172
   1258  P          8.1540   -3.4060   17.3250 P.3    75  U75         0.2141
   1259  C5'        7.9760   -1.0810   16.1580 C.3    75  U75         0.1812
   1260  O5'        7.9760   -2.4920   16.0320 O.3    75  U75        -0.3114
   1261  C4'        7.8160   -0.4300   14.8080 C.3    75  U75         0.1773
   1262  O4'        8.9370   -0.8170   13.9840 O.3    75  U75        -0.3307
   1263  C3'        6.6150   -0.9040   14.0050 C.3    75  U75         0.1860
   1264  O3'        5.4480   -0.2210   14.4140 O.3    75  U75        -0.3112
   1265  C2'        7.0610   -0.5620   12.5860 C.3    75  U75         0.2309
   1266  O2'        6.9820    0.8160   12.3000 O.3    75  U75        -0.2156
   1267  C1'        8.5290   -0.9880   12.6350 C.3    75  U75         0.2420
   1268  N1         8.7290   -2.4140   12.1860 N.ar   75  U75        -0.2534
   1269  C2         8.8040   -2.6830   10.8200 C.ar   75  U75         0.3546
   1270  O2         8.7140   -1.8290    9.9490 O.2    75  U75        -0.2443
   1271  N3         9.0030   -4.0050   10.5050 N.ar   75  U75        -0.1530
   1272  C4         9.0930   -5.0570   11.3920 C.ar   75  U75         0.2846
   1273  O4         9.2530   -6.1790   10.9640 O.2    75  U75        -0.2650
   1274  C5         8.9980   -4.7200   12.7890 C.ar   75  U75         0.0814
   1275  C6         8.8250   -3.4340   13.1230 C.ar   75  U75         0.0870
   1276  OP1        7.4190   -2.8160   18.4740 O.3    75  U75        -0.4373
   1277  OP2        7.9250   -4.8040   16.9440 O.co2  75  U75        -0.5172
   1278  P          4.0140   -0.9360   14.2900 P.3    76  A76         0.2141
   1279  C5'        3.3800    0.3130   12.0570 C.3    76  A76         0.1812
   1280  O5'        3.7840   -0.8890   12.7140 O.3    76  A76        -0.3114
   1281  C4'        3.1430    0.0620   10.5740 C.3    76  A76         0.1773
   1282  O4'        4.3590   -0.3590    9.8970 O.3    76  A76        -0.3307
   1283  C3'        2.1440   -1.0350   10.2410 C.3    76  A76         0.1860
   1284  O3'        0.8240   -0.5240   10.4150 O.3    76  A76        -0.3112
   1285  C2'        2.5160   -1.3260    8.7900 C.3    76  A76         0.2309
   1286  O2'        2.0590   -0.3190    7.8930 O.3    76  A76        -0.2156
   1287  C1'        4.0490   -1.3200    8.8960 C.3    76  A76         0.2408
   1288  N1         6.0000   -5.7990    7.1410 N.ar   76  A76        -0.2040
   1289  C2         5.4930   -4.7440    6.5010 C.ar   76  A76         0.2016
   1290  N3         5.0130   -3.6230    7.0310 N.ar   76  A76        -0.2048
   1291  C4         5.0710   -3.6210    8.3750 C.ar   76  A76         0.1692
   1292  C5         5.5790   -4.6360    9.1660 C.ar   76  A76         0.1518
   1293  C6         6.0670   -5.7760    8.4850 C.ar   76  A76         0.1919
   1294  N6         6.5920   -6.8400    9.0890 N.pl3  76  A76        -0.1054
   1295  N7         5.4800   -4.2920   10.5060 N.ar   76  A76        -0.2193
   1296  C8         4.9450   -3.0940   10.4960 C.ar   76  A76         0.1816
   1297  N9         4.6590   -2.6170    9.2420 N.ar   76  A76        -0.2693
   1298  OP1        3.0270   -0.0800   15.0020 O.3    76  A76        -0.4373
   1299  OP2        4.1350   -2.3570   14.6910 O.co2  76  A76        -0.5172
   1300  P         -0.3430   -1.4250   11.0430 P.3    77  U77         0.2141
   1301  C5'       -1.2460   -1.8660    8.5980 C.3    77  U77         0.1812
   1302  O5'       -0.7190   -2.3820    9.8210 O.3    77  U77        -0.3114
   1303  C4'       -1.1880   -2.9550    7.5500 C.3    77  U77         0.1773
   1304  O4'        0.2070   -3.2590    7.3160 O.3    77  U77        -0.3307
   1305  C3'       -1.7560   -4.3020    7.9740 C.3    77  U77         0.1860
   1306  O3'       -3.1940   -4.3840    7.9500 O.3    77  U77        -0.3112
   1307  C2'       -1.0980   -5.2200    6.9570 C.3    77  U77         0.2309
   1308  O2'       -1.6850   -5.1870    5.6680 O.3    77  U77        -0.2156
   1309  C1'        0.3100   -4.6280    6.9540 C.3    77  U77         0.2420
   1310  N1         1.2210   -5.3800    7.8760 N.ar   77  U77        -0.2534
   1311  C2         1.8550   -6.4940    7.3590 C.ar   77  U77         0.3546
   1312  O2         1.7110   -6.8800    6.2080 O.2    77  U77        -0.2443
   1313  N3         2.6810   -7.1480    8.2440 N.ar   77  U77        -0.1530
   1314  C4         2.9180   -6.8160    9.5660 C.ar   77  U77         0.2846
   1315  O4         3.6830   -7.5130   10.2270 O.2    77  U77        -0.2650
   1316  C5         2.2210   -5.6400   10.0360 C.ar   77  U77         0.0814
   1317  C6         1.4090   -4.9780    9.1930 C.ar   77  U77         0.0870
   1318  OP1       -1.4620   -0.4980   11.3440 O.2    77  U77        -0.5172
   1319  OP2        0.1660   -2.3160   12.1100 O.co2  77  U77        -0.4373
   1320  P         -3.9150   -5.4930    8.8530 P.3    78  G78         0.2141
   1321  C5'       -4.2590   -7.0990    6.8080 C.3    78  G78         0.1812
   1322  O5'       -3.6720   -6.8660    8.0810 O.3    78  G78        -0.3114
   1323  C4'       -3.6640   -8.3290    6.1530 C.3    78  G78         0.1773
   1324  O4'       -2.2220   -8.2230    6.0500 O.3    78  G78        -0.3307
   1325  C3'       -3.8750   -9.6240    6.9170 C.3    78  G78         0.1860
   1326  O3'       -5.1890  -10.1110    6.6940 O.3    78  G78        -0.3112
   1327  C2'       -2.7930  -10.4970    6.2880 C.3    78  G78         0.2309
   1328  O2'       -3.1130  -10.9440    4.9860 O.3    78  G78        -0.2156
   1329  C1'       -1.6390   -9.5050    6.2290 C.3    78  G78         0.2408
   1330  N1         1.9710  -11.9440    8.9460 N.ar   78  G78        -0.1709
   1331  C2         1.3990  -12.3030    7.7420 C.ar   78  G78         0.2606
   1332  N2         1.8370  -13.4400    7.1840 N.pl3  78  G78        -0.0859
   1333  N3         0.4620  -11.5810    7.1210 N.ar   78  G78        -0.1918
   1334  C4         0.1230  -10.4570    7.8090 C.ar   78  G78         0.1723
   1335  C5         0.6330  -10.0200    9.0120 C.ar   78  G78         0.1748
   1336  C6         1.6340  -10.7910    9.6620 C.ar   78  G78         0.3023
   1337  O6         2.1910  -10.5440   10.7420 O.2    78  G78        -0.2633
   1338  N7         0.0360   -8.8270    9.3980 N.ar   78  G78        -0.2173
   1339  C8        -0.8100   -8.5680    8.4410 C.ar   78  G78         0.1817
   1340  N9        -0.8130   -9.5110    7.4400 N.ar   78  G78        -0.2693
   1341  OP1       -5.3560   -5.1740    8.8560 O.2    78  G78        -0.5172
   1342  OP2       -3.2070   -5.5760   10.1450 O.co2  78  G78        -0.4373
   1343  P         -5.9490  -10.9900    7.8000 P.3    79  U79         0.2141
   1344  C5'       -5.2310  -13.1390    6.4660 C.3    79  U79         0.1812
   1345  O5'       -5.2250  -12.4060    7.6930 O.3    79  U79        -0.3114
   1346  C4'       -4.4160  -14.4110    6.5980 C.3    79  U79         0.1773
   1347  O4'       -3.0070  -14.0870    6.7170 O.3    79  U79        -0.3307
   1348  C3'       -4.7250  -15.2330    7.8410 C.3    79  U79         0.1871
   1349  O3'       -5.8590  -16.0720    7.6370 O.3    79  U79        -0.2999
   1350  C2'       -3.4390  -16.0260    8.0250 C.3    79  U79         0.2310
   1351  O2'       -3.4100  -17.1810    7.2120 O.3    79  U79        -0.2156
   1352  C1'       -2.3770  -15.0070    7.5940 C.3    79  U79         0.2420
   1353  N1        -1.7450  -14.2740    8.7550 N.ar   79  U79        -0.2534
   1354  C2        -0.6650  -14.8470    9.4200 C.ar   79  U79         0.3546
   1355  O2        -0.1700  -15.9240    9.1340 O.2    79  U79        -0.2443
   1356  N3        -0.1650  -14.1010   10.4620 N.ar   79  U79        -0.1530
   1357  C4        -0.6180  -12.8730   10.9030 C.ar   79  U79         0.2846
   1358  O4        -0.0570  -12.3370   11.8530 O.2    79  U79        -0.2650
   1359  C5        -1.7390  -12.3350   10.1700 C.ar   79  U79         0.0814
   1360  C6        -2.2460  -13.0400    9.1490 C.ar   79  U79         0.0870
   1361  OP1       -7.3530  -11.1330    7.3510 O.2    79  U79        -0.5172
   1362  OP2       -5.6940  -10.4190    9.1380 O.co2  79  U79        -0.4373
   1363  P         -6.8300  -16.3800    8.8690 P.3    80  C80         0.3006
   1364  O5'       -5.9410  -17.3610    9.7710 O.3    80  C80        -0.1534
   1365  OP1       -7.9910  -17.1170    8.3260 O.2    80  C80        -0.2722
   1366  OP2       -7.0670  -15.1330    9.6330 O.co2  80  C80        -0.7578
@<TRIPOS>BOND
     1   700   699    2
     2   701   699   ar
     3   701   702   ar
     4   666   645    2
     5   703   702    2
     6   686   668    2
     7   699   698   ar
     8   702   704   ar
     9   631   630    1
    10   698   697    1
    11   698   705   ar
    12   629   645    1
    13   629   628    1
    14   646   647    1
    15   646   648    1
    16   668   687    1
    17   668   651    1
    18   668   670    1
    19   645   647    1
    20   645   667    1
    21   704   705   ar
    22   692   697    1
    23   692   691    1
    24   697   695    1
    25   242   241    1
    26   651   650    1
    27   626   624    1
    28   626   628    1
    29   626   627    1
    30   648   650    1
    31   648   649    1
    32   707   688    2
    33   624   625    1
    34   628   630    1
    35   630   632    1
    36   237   238    1
    37   237   235    1
    38   237   239    1
    39   690   688    1
    40   690   689    1
    41   691   689    1
    42   691   693    1
    43   128   108    2
    44   240   239    1
    45   240   257    1
    46   670   669    1
    47   275   257    2
    48   669   671    1
    49   650   652    1
    50   238   243    1
    51   235   236    1
    52   609   608    1
    53   627   632    1
    54   148   130    2
    55   241   239    1
    56   241   243    1
    57   258   260    1
    58   258   259    1
    59   694   693    1
    60   694   708    1
    61   695   696    1
    62   695   693    1
    63   649   654    1
    64   632   642    1
    65   727   708    2
    66   688   706    1
    67   688   674    1
    68   243   254    1
    69   643   623    2
    70   653   652    1
    71   260   261    1
    72   260   262    1
    73   625   623    1
    74   726   708    1
    75   257   259    1
    76   257   276    1
    77   149   130    1
    78   673   671    1
    79   673   674    1
    80   673   675    1
    81   708   710    1
    82   671   672    1
    83   652   654    1
    84   222   221    1
    85   261   266    1
    86   130   114    1
    87   130   132    1
    88   108    94    1
    89   108   129    1
    90   108   110    1
    91   607   623    1
    92   607   606    1
    93   608   606    1
    94   608   610    1
    95   265   264    1
    96   623   644    1
    97   654   665    1
    98   236   234    1
    99    94    93    1
   100   263   262    1
   101   263   277    1
   102   109   110    1
   103   109   111    1
   104   220   234    1
   105   220   219    1
   106   255   234    2
   107   613   612   ar
   108   613   614   ar
   109   612   611   ar
   110   642   636   ar
   111   642   641   ar
   112   675   676    1
   113   675   677    1
   114   167   168   ar
   115   167   164   ar
   116   262   264    1
   117   254   248   ar
   118   254   253   ar
   119   635   636   ar
   120   635   634   ar
   121   168   169   ar
   122   114   113    1
   123   217   215    1
   124   217   219    1
   125   217   218    1
   126   247   248   ar
   127   247   245   ar
   128   606   604    1
   129   234   256    1
   130   266   264    1
   131   266   267    1
   132   298   277    2
   133   132   131    1
   134   672   677    1
   135   610   605    1
   136   610   620    1
   137   131   133    1
   138   215   216    1
   139   106    88    2
   140   221   219    1
   141   221   223    1
   142   664   665   ar
   143   664   663   ar
   144   710   709    1
   145   636   637   ar
   146    89    91    1
   147    89    90    1
   148   665   659   ar
   149   248   249   ar
   150    96    95    1
   151   111   113    1
   152   111   112    1
   153   246   245    1
   154   604   605    1
   155   604   602    1
   156    91    93    1
   157    91    92    1
   158    93    95    1
   159   641   640   ar
   160   277   279    1
   161   277   299    1
   162   218   223    1
   163   253   252   ar
   164   278   279    1
   165   278   280    1
   166   611   616   ar
   167   614   620   ar
   168   614   615   ar
   169   677   678    1
   170   634   633   ar
   171   202   201    1
   172   245   244   ar
   173   113   115    1
   174   223   224    1
   175   166   165    1
   176   685   678   ar
   177   685   684   ar
   178   164   165   ar
   179   164   163   ar
   180   620   619   ar
   181   169   159    1
   182   169   163   ar
   183   709   711    1
   184    95    97    1
   185   267   274   ar
   186   267   268   ar
   187    90    88    1
   188   274   273   ar
   189   663   660   ar
   190   159   154    1
   191   159   157    1
   192    88    72    1
   193    88   107    1
   194   133   134    1
   195   133   135    1
   196   206   205    2
   197   216   214    1
   198   232   214    2
   199   678   679   ar
   200  1151  1133    2
   201   165   160   ar
   202   684   682   ar
   203   280   281    1
   204   280   282    1
   205   637   640   ar
   206   637   638   ar
   207   112   117    1
   208   659   658   ar
   209   659   660   ar
   210   602   603    1
   211   249   252   ar
   212   249   250   ar
   213    92    97    1
   214   116   115    1
   215   616   615   ar
   216   616   617    1
   217   163   162   ar
   218   615   618   ar
   219   201   203    1
   220   201   199    1
   221    72    71    1
   222   146   147   ar
   223   146   144   ar
   224   154   153    1
   225   589   588    1
   226   281   286    1
   227   134   139    1
   228   147   140   ar
   229  1088  1068    2
   230   633   638   ar
   231   115   117    1
   232   226   225    2
   233   603   601    1
   234   244   250   ar
   235   269   268    2
   236   170   150    2
   237   200   214    1
   238   200   199    1
   239   658   656   ar
   240    97    98    1
   241   268   270   ar
   242    74    73    1
   243   660   661   ar
   244   158   157    1
   245   724   725   ar
   246   724   722   ar
   247   214   233    1
   248   224   225   ar
   249   224   231   ar
   250   593   592    2
   251   619   618   ar
   252   725   718   ar
   253   135   137    1
   254   135   136    1
   255   273   271   ar
   256   711   712    1
   257   711   713    1
   258   638   639    1
   259   157   155    1
   260   250   251    2
   261   117   127    1
   262   203   204    1
   263   203   198    1
   264   205   207   ar
   265   205   204   ar
   266   621   601    2
   267   283   282    1
   268   283   300    1
   269  1116  1133    1
   270  1116  1115    1
   271   225   227   ar
   272  1131  1110    2
   273   712   717    1
   274   199   197    1
   275   318   300    2
   276   282   284    1
   277   713   715    1
   278   713   714    1
   279   160   161   ar
   280  1133  1152    1
   281  1133  1135    1
   282   679   680    2
   283   679   681   ar
   284   588   590    1
   285   588   586    1
   286   682   681   ar
   287   682   683    2
   288  1111  1113    1
   289  1111  1112    1
   290   152   150    1
   291   152   151    1
   292   144   145    2
   293   144   143   ar
   294   137   139    1
   295   137   138    1
   296   715   717    1
   297   715   716    1
   298   153   155    1
   299   153   151    1
   300   231   230   ar
   301   139   140    1
   302   140   141   ar
   303   162   161   ar
   304    71    73    1
   305    71    69    1
   306  1070  1068    1
   307  1070  1069    1
   308  1076  1075    1
   309   601   587    1
   310   601   622    1
   311    73    75    1
   312   150   136    1
   313   150   171    1
   314  1113  1115    1
   315  1113  1114    1
   316   319   300    1
   317   286   284    1
   318   286   297    1
   319   300   302    1
   320   722   723    2
   321   722   721   ar
   322   270   271   ar
   323  1068  1052    1
   324  1068  1089    1
   325   592   594   ar
   326   592   591   ar
   327   207   208   ar
   328  1134  1135    1
   329  1134  1136    1
   330   204   211   ar
   331   746   728    2
   332   656   657    1
   333   656   655   ar
   334   271   272    1
   335   197   198    1
   336   197   195    1
   337  1118  1117    1
   338    98   105   ar
   339    98    99   ar
   340   718   717    1
   341   718   719   ar
   342   587   586    1
   343   285   284    1
   344   296   297   ar
   345   296   295   ar
   346  1171  1153    2
   347   661   655   ar
   348   661   662    2
   349    69    67    1
   350    69    70    1
   351   590   591    1
   352   590   585    1
   353   126   127   ar
   354   126   125   ar
   355   127   121   ar
   356   155   156    1
   357  1115  1117    1
   358   105   104   ar
   359   594   595   ar
   360  1098  1097    1
   361   586   584    1
   362   100    99    2
   363   714   728    1
   364   297   291   ar
   365  1071  1069    1
   366  1071  1072    1
   367  1071  1073    1
   368  1052  1051    1
   369  1110  1112    1
   370  1110  1096    1
   371  1110  1132    1
   372   143   141   ar
   373   227   228   ar
   374    67    68    1
   375  1096  1095    1
   376   591   598   ar
   377  1074  1073    1
   378  1074  1090    1
   379  1108  1090    2
   380   141   142    2
   381   570   569    1
   382    99   101   ar
   383  1114  1119    1
   384   728   747    1
   385   728   730    1
   386   721   719   ar
   387   230   228   ar
   388  1117  1119    1
   389   295   292   ar
   390  1072  1077    1
   391  1075  1073    1
   392  1075  1077    1
   393   719   720    2
   394  1136  1138    1
   395  1136  1137    1
   396    75    70    1
   397    75    85    1
   398   156   172    1
   399  1139  1153    1
   400  1139  1138    1
   401  1049  1051    1
   402  1049  1047    1
   403  1049  1050    1
   404   585   584    1
   405  1153  1172    1
   406  1153  1155    1
   407   208   209    2
   408   208   210   ar
   409   584   582    1
   410   211   210   ar
   411   302   301    1
   412   195   196    1
   413  1328  1327    1
   414   125   122   ar
   415   228   229    1
   416    86    66    2
   417  1077  1087    1
   418   121   120   ar
   419   121   122   ar
   420   104   102   ar
   421  1002   981    2
   422  1051  1053    1
   423  1090  1109    1
   424  1090  1092    1
   425   595   596    1
   426   595   597   ar
   427    68    66    1
   428  1047  1048    1
   429  1119  1130    1
   430  1097  1095    1
   431  1097  1099    1
   432   301   303    1
   433  1095  1093    1
   434   291   292   ar
   435   291   290   ar
   436  1138  1140    1
   437  1093  1091    1
   438  1093  1094    1
   439  1050  1055    1
   440   598   597   ar
   441   569   568   ar
   442   569   571   ar
   443   101   102   ar
   444    78    79   ar
   445    78    77   ar
   446   979   961    2
   447   120   119   ar
   448  1308  1307    1
   449   292   293   ar
   450   784   783    1
   451  1137  1142    1
   452   568   574   ar
   453   196   194    1
   454   962   964    1
   455   962   963    1
   456   122   123   ar
   457    85    79   ar
   458    85    84   ar
   459   730   729    1
   460  1032  1031    1
   461   949   948    1
   462    66    52    1
   463    66    87    1
   464  1324  1323    1
   465  1324  1329    1
   466   102   103    2
   467  1091  1092    1
   468  1323  1321    1
   469  1323  1325    1
   470   290   288   ar
   471  1312  1311    2
   472    79    80   ar
   473  1329  1327    1
   474  1329  1340    1
   475    77    76   ar
   476   173   174    1
   477   173   175    1
   478  1094  1099    1
   479  1055  1053    1
   480  1055  1065    1
   481  1058  1057   ar
   482  1058  1059   ar
   483  1155  1154    1
   484   947   961    1
   485   947   946    1
   486   729   731    1
   487  1327  1325    1
   488   582   583    1
   489  1099  1100    1
   490   967   981    1
   491   967   966    1
   492   172   174    1
   493   172   193    2
   494   172   192    1
   495   964   966    1
   496   964   965    1
   497   763   762    2
   498   981  1003    1
   499   981   983    1
   500  1344  1346    1
   501  1344  1345    1
   502  1289  1290   ar
   503  1289  1288   ar
   504   571   572   ar
   505  1154  1156    1
   506  1087  1081   ar
   507  1087  1086   ar
   508  1053  1054    1
   509  1346  1347    1
   510  1346  1348    1
   511  1130  1129   ar
   512  1130  1124   ar
   513  1057  1056   ar
   514  1066  1046    2
   515   778   783   ar
   516   778   779   ar
   517  1048  1046    1
   518   316   317   ar
   519   316   314   ar
   520  1326  1325    1
   521  1326  1343    1
   522  1347  1352    1
   523  1080  1081   ar
   524  1080  1079   ar
   525   961   963    1
   526   961   980    1
   527   944   942    1
   528   944   946    1
   529   944   945    1
   530    84    83   ar
   531   783   782   ar
   532   303   304    1
   533   303   305    1
   534  1140  1141    1
   535  1140  1142    1
   536  1321  1322    1
   537   317   310   ar
   538    52    51    1
   539   574   575    2
   540   574   573   ar
   541   293   294    2
   542   293   287   ar
   543   304   309    1
   544  1309  1307    1
   545  1309  1304    1
   546  1309  1310    1
   547  1307  1305    1
   548   802   801    2
   549   119   118   ar
   550    54    53    1
   551   583   581    1
   552  1142  1143    1
   553  1290  1291   ar
   554   803   801   ar
   555   803   804   ar
   556  1150  1149   ar
   557  1150  1143   ar
   558  1129  1128   ar
   559  1333  1331   ar
   560  1333  1334   ar
   561   942   943    1
   562  1102  1101    2
   563   805   804    1
   564  1288  1293   ar
   565  1332  1331    1
   566   966   968    1
   567   946   948    1
   568  1351  1350    1
   569  1081  1082   ar
   570   123   118   ar
   571   123   124    1
   572   948   950    1
   573  1030  1046    1
   574  1030  1029    1
   575   969   968    1
   576   744   745   ar
   577   744   742   ar
   578  1304  1303    1
   579   965   970    1
   580   194   178    1
   581   194   213    2
   582   194   212    1
   583  1059  1065   ar
   584  1059  1060   ar
   585  1361  1343    2
   586    76    81   ar
   587  1311  1310   ar
   588  1311  1313   ar
   589   288   287   ar
   590   288   289    1
   591    80    83   ar
   592    80    81   ar
   593  1192  1173    2
   594  1065  1064   ar
   595  1031  1033    1
   596  1031  1029    1
   597  1046  1067    1
   598  1340  1334   ar
   599  1340  1339   ar
   600  1086  1085   ar
   601   175   177    1
   602   175   176    1
   603   767   748    2
   604   762   764   ar
   605   762   761   ar
   606   945   950    1
   607   342   320    2
   608   801   800   ar
   609  1303  1305    1
   610  1303  1301    1
   611   745   738   ar
   612  1352  1350    1
   613  1352  1353    1
   614   764   765   ar
   615   572   573   ar
   616   572   578   ar
   617  1349  1348    1
   618  1349  1363    1
   619   983   982    1
   620   178   177    1
   621    53    51    1
   622    53    55    1
   623  1191  1173    1
   624  1123  1124   ar
   625  1123  1121   ar
   626   804   806   ar
   627  1345  1343    1
   628  1149  1147   ar
   629  1079  1078   ar
   630  1124  1125   ar
   631  1100  1101   ar
   632  1100  1107   ar
   633  1143  1144   ar
   634   305   306    1
   635   305   307    1
   636  1331  1330   ar
   637   927   926    1
   638   731   732    1
   639   731   733    1
   640   779   780   ar
   641   315   314    2
   642  1343  1362    1
   643   982   984    1
   644   314   313   ar
   645  1334  1335   ar
   646  1348  1350    1
   647  1056  1061   ar
   648  1310  1317   ar
   649  1286  1285    1
   650   573   576   ar
   651    51    49    1
   652   950   951    1
   653   732   737    1
   654  1306  1305    1
   655  1306  1320    1
   656    81    82    1
   657  1101  1103   ar
   658  1033  1028    1
   659  1033  1043    1
   660  1156  1157    1
   661  1156  1158    1
   662   306   320    1
   663   566   565    1
   664   310   309    1
   665   310   311   ar
   666   968   970    1
   667  1322  1320    1
   668   782   785   ar
   669   782   781   ar
   670  1029  1027    1
   671  1173  1159    1
   672  1173  1175    1
   673   309   307    1
   674   743   742    1
   675  1313  1314   ar
   676  1028  1027    1
   677   177   179    1
   678   565   567    1
   679   565   563    1
   680  1365  1363    2
   681  1128  1125   ar
   682  1027  1025    1
   683   970   971    1
   684  1291  1292   ar
   685  1291  1297   ar
   686   320   341    1
   687   320   322    1
   688   176   181    1
   689   742   741   ar
   690  1339  1338   ar
   691  1159  1158    1
   692   959   941    2
   693  1293  1294    1
   694  1293  1292   ar
   695   943   941    1
   696   581   599    2
   697   581   600    1
   698   581   564    1
   699  1082  1085   ar
   700  1082  1083   ar
   701   785   786   ar
   702  1301  1302    1
   703    58    57    2
   704   733   734    1
   705   733   735    1
   706   761   759   ar
   707  1060  1061   ar
   708  1060  1063   ar
   709  1157  1162    1
   710  1107  1106   ar
   711  1064  1063   ar
   712  1158  1160    1
   713  1353  1360   ar
   714  1353  1354   ar
   715  1036  1035   ar
   716  1036  1037   ar
   717   800   799    1
   718   800   807   ar
   719   578   567    1
   720   578   577   ar
   721  1285  1287    1
   722  1285  1283    1
   723  1125  1126   ar
   724   748   734    1
   725   748   766    1
   726   748   750    1
   727  1320  1341    2
   728  1320  1342    1
   729   765   758   ar
   730   738   737    1
   731   738   739   ar
   732  1363  1366    1
   733  1363  1364    1
   734  1287  1297    1
   735  1287  1282    1
   736  1121  1122    1
   737  1121  1120   ar
   738   930   931   ar
   739   930   929   ar
   740  1022  1004    2
   741  1061  1062    1
   742   806   807   ar
   743  1330  1336   ar
   744   307   308    1
   745   313   311   ar
   746   931   932   ar
   747   926   928    1
   748   926   924    1
   749   567   562    1
   750  1335  1338   ar
   751  1335  1336   ar
   752   780   781   ar
   753  1078  1083   ar
   754   798   797    1
   755  1170  1169   ar
   756  1170  1163   ar
   757    49    50    1
   758    49    47    1
   759    55    56    1
   760    55    50    1
   761  1144  1145    2
   762  1144  1146   ar
   763   311   312    2
   764  1355  1354    2
   765   781   787   ar
   766  1147  1146   ar
   767  1147  1148    2
   768  1360  1359   ar
   769   737   735    1
   770  1292  1295   ar
   771   576   577   ar
   772  1317  1316   ar
   773   984   986    1
   774   984   985    1
   775  1043  1037   ar
   776  1043  1042   ar
   777   797   799    1
   778   797   795    1
   779  1169  1167   ar
   780   925   941    1
   781   925   924    1
   782  1297  1296   ar
   783  1103  1104   ar
   784   941   960    1
   785   564   563    1
   786  1035  1034   ar
   787   799   794    1
   788   986   988    1
   789   986   987    1
   790   953   952    2
   791    57    56   ar
   792    57    59   ar
   793  1354  1356   ar
   794   563   561    1
   795   951   952   ar
   796   951   958   ar
   797  1083  1084    1
   798  1037  1038   ar
   799   180   179    1
   800  1314  1316   ar
   801  1314  1315    2
   802  1175  1174    1
   803   179   181    1
   804  1336  1337    2
   805   971   978   ar
   806   971   972   ar
   807   741   739   ar
   808  1025  1026    1
   809   181   191    1
   810   338   339   ar
   811   338   335   ar
   812    56    63   ar
   813  1005  1006    1
   814  1005  1007    1
   815   928   923    1
   816   928   938    1
   817   978   977   ar
   818  1026  1024    1
   819   750   749    1
   820  1302  1300    1
   821   735   736    1
   822   322   321    1
   823   553   552    1
   824   786   787   ar
   825  1282  1281    1
   826   759   758   ar
   827   759   760    2
   828    47    48    1
   829   929   934   ar
   830  1270  1269    2
   831   739   740    2
   832   924   922    1
   833  1106  1104   ar
   834    59    60   ar
   835  1162  1163    1
   836  1162  1160    1
   837   758   757    1
   838   988   989    1
   839   988   990    1
   840  1120  1126   ar
   841   952   954   ar
   842   532   531    1
   843  1126  1127    2
   844   337   336    2
   845  1232  1231    1
   846   985   990    1
   847  1163  1164   ar
   848  1359  1357   ar
   849  1160  1161    1
   850   360   359    2
   851   958   957   ar
   852   339   340   ar
   853   932   938   ar
   854   932   933   ar
   855  1283  1284    1
   856  1283  1281    1
   857   190   191   ar
   858   190   189   ar
   859   987  1004    1
   860  1004  1006    1
   861  1004  1023    1
   862   787   777    1
   863  1104  1105    2
   864  1042  1041   ar
   865   562   561    1
   866   551   552   ar
   867   551   549   ar
   868   511   510    1
   869  1284  1300    1
   870   922   923    1
   871   922   920    1
   872  1356  1357   ar
   873  1296  1295   ar
   874  1271  1269   ar
   875  1271  1272   ar
   876  1174  1176    1
   877  1189  1190   ar
   878  1189  1187   ar
   879  1007  1008    1
   880  1007  1009    1
   881   795   796    1
   882   795   793    1
   883  1167  1168    1
   884  1167  1166   ar
   885  1281  1279    1
   886   561   559    1
   887   191   185   ar
   888  1034  1039   ar
   889    63    62   ar
   890   825   824    1
   891   938   937   ar
   892  1000   999   ar
   893  1000  1001   ar
   894  1253  1252    2
   895   973   972    2
   896    48    46    1
   897   485   484    1
   898   552   554   ar
   899   794   793    1
   900   972   974   ar
   901   335   336   ar
   902   335   334   ar
   903  1038  1041   ar
   904  1038  1039   ar
   905  1269  1268   ar
   906    60    62   ar
   907    60    61    1
   908   796   810    1
   909   789   768    2
   910  1357  1358    2
   911   977   975   ar
   912   321   323    1
   913   550   549    2
   914   336   330   ar
   915   990  1001    1
   916  1273  1272    2
   917  1188  1187    1
   918   424   423    1
   919  1044  1024    2
   920   382   381    1
   921  1300  1318    2
   922  1300  1319    1
   923  1190  1183   ar
   924   526   531   ar
   925   526   527   ar
   926   934   933   ar
   927   934   935    1
   928   829   810    2
   929  1024  1010    1
   930  1024  1045    1
   931   749   751    1
   932   826   824   ar
   933   826   827   ar
   934   531   530   ar
   935  1008  1013    1
   936   549   548   ar
   937  1215  1193    2
   938   999   996   ar
   939   189   186   ar
   940  1210  1209    2
   941   752   757    1
   942   752   751    1
   943  1001   995   ar
   944  1039  1040    1
   945   933   936   ar
   946   757   755    1
   947  1272  1274   ar
   948   359   353   ar
   949   359   358   ar
   950   954   955   ar
   951   911   910    2
   952  1187  1186   ar
   953  1231  1226   ar
   954  1231  1230   ar
   955  1164  1166   ar
   956  1164  1165    2
   957   793   791    1
   958   824   823   ar
   959   957   955   ar
   960   828   810    1
   961   340   334   ar
   962   340   329    1
   963  1009  1010    1
   964  1009  1011    1
   965   510   512   ar
   966   510   509   ar
   967   810   812    1
   968   777   775    1
   969   777   772    1
   970    35    34   ar
   971    35    36   ar
   972   753   751    1
   973   753   755    1
   974   753   754    1
   975  1252  1251   ar
   976  1252  1254   ar
   977   920   921    1
   978   324   323    1
   979   324   329    1
   980   418   423   ar
   981   418   419   ar
   982  1251  1249   ar
   983   403   402    2
   984   334   333   ar
   985   512   513   ar
   986   423   422   ar
   987  1176  1177    1
   988  1176  1178    1
   989   484   486   ar
   990   484   483   ar
   991    34    39   ar
   992   974   975   ar
   993   559   560    1
   994   185   186   ar
   995   185   184   ar
   996   361   358   ar
   997   361   362   ar
   998  1226  1227   ar
   999    64    46    2
  1000   937   936   ar
  1001   975   976    1
  1002  1279  1280    1
  1003    46    65    1
  1004    46    30    1
  1005   353   354   ar
  1006   554   555   ar
  1007   775   776    1
  1008   775   773    1
  1009  1233  1230   ar
  1010  1233  1234   ar
  1011   755   756    1
  1012   481   480    1
  1013   888   887    1
  1014   955   956    1
  1015   827   820   ar
  1016   323   325    1
  1017   560   558    1
  1018  1268  1267    1
  1019  1268  1275   ar
  1020  1177  1182    1
  1021   330   331   ar
  1022   358   357   ar
  1023  1211  1208   ar
  1024  1211  1212   ar
  1025   381   376   ar
  1026   381   380   ar
  1027    36    37   ar
  1028  1230  1229   ar
  1029   768   770    1
  1030   768   754    1
  1031   768   788    1
  1032   527   528   ar
  1033  1266  1265    1
  1034  1178  1179    1
  1035  1178  1180    1
  1036   486   487   ar
  1037   186   187   ar
  1038   401   402   ar
  1039   401   399   ar
  1040   886   887   ar
  1041   886   892   ar
  1042   910   912   ar
  1043   910   909   ar
  1044  1209  1208   ar
  1045  1209  1203   ar
  1046    32    31    1
  1047   907   906    1
  1048   770   769    1
  1049  1183  1182    1
  1050  1183  1184   ar
  1051   912   913   ar
  1052   530   533   ar
  1053   530   529   ar
  1054   996   995   ar
  1055   996   997   ar
  1056   329   327    1
  1057   893   892    2
  1058   376   377   ar
  1059  1193  1179    1
  1060  1193  1214    1
  1061  1193  1195    1
  1062   995   994   ar
  1063   792   791    1
  1064   792   790    1
  1065   548   555   ar
  1066   548   547    1
  1067  1265  1267    1
  1068  1265  1263    1
  1069   509   507   ar
  1070   365   343    2
  1071  1013  1011    1
  1072  1013  1014    1
  1073  1267  1262    1
  1074   772   771    1
  1075   325   326    1
  1076   325   327    1
  1077   483   489   ar
  1078  1280  1278    1
  1079   823   821   ar
  1080   402   404   ar
  1081   184   183   ar
  1082  1186  1184   ar
  1083   847   846    2
  1084  1274  1275   ar
  1085   419   420   ar
  1086   400   399    2
  1087   921   919    1
  1088    39    40    1
  1089    39    38   ar
  1090   773   771    1
  1091   773   774    1
  1092  1011  1012    1
  1093    31    29    1
  1094    31    33    1
  1095   533   534   ar
  1096  1208  1207   ar
  1097  1250  1249    2
  1098   462   461    1
  1099   887   889   ar
  1100  1249  1248   ar
  1101  1021  1014   ar
  1102  1021  1020   ar
  1103  1254  1255   ar
  1104  1182  1180    1
  1105    30    29    1
  1106   892   891   ar
  1107   362   363   ar
  1108   906   908    1
  1109   906   904    1
  1110   809   790    2
  1111   333   331   ar
  1112   422   425   ar
  1113   422   421   ar
  1114   812   811    1
  1115    37    38   ar
  1116    37    43   ar
  1117  1212  1213   ar
  1118   513   506   ar
  1119   399   398   ar
  1120   331   332    1
  1121   545   547    1
  1122   545   546    1
  1123   545   543    1
  1124   480   482    1
  1125   480   478    1
  1126  1234  1235   ar
  1127  1227  1228   ar
  1128  1184  1185    2
  1129   380   383   ar
  1130   380   379   ar
  1131   820   821   ar
  1132   820   819    1
  1133   515   496    2
  1134   354   355    1
  1135   354   356   ar
  1136   870   869    2
  1137   326   343    1
  1138  1014  1015   ar
  1139   383   384   ar
  1140  1203  1204   ar
  1141   580   558    2
  1142   327   328    1
  1143   528   529   ar
  1144   547   542    1
  1145   529   535   ar
  1146    38    41   ar
  1147   771   769    1
  1148   357   363   ar
  1149   357   356   ar
  1150   994   992   ar
  1151   997   998    2
  1152   997   991   ar
  1153   908   909    1
  1154   908   903    1
  1155  1180  1181    1
  1156   914   913    1
  1157   425   426   ar
  1158   558   579    1
  1159   558   544    1
  1160   487   493   ar
  1161   487   488   ar
  1162   811   813    1
  1163  1229  1228   ar
  1164  1229  1235   ar
  1165   913   915   ar
  1166   821   822    2
  1167   909   916   ar
  1168    29    27    1
  1169  1195  1194    1
  1170   790   774    1
  1171   790   808    1
  1172  1020  1018   ar
  1173   187   188    1
  1174   187   182   ar
  1175   377   378   ar
  1176   343   364    1
  1177   343   345    1
  1178   482   493    1
  1179   482   477    1
  1180   507   506   ar
  1181   507   508    2
  1182    33    43    1
  1183    33    28    1
  1184    43    42   ar
  1185   489   488   ar
  1186   489   490    2
  1187  1262  1261    1
  1188   846   840   ar
  1189   846   845   ar
  1190   814   819    1
  1191   814   813    1
  1192   420   421   ar
  1193  1263  1264    1
  1194  1263  1261    1
  1195   183   182   ar
  1196   421   427   ar
  1197   461   460   ar
  1198   461   463   ar
  1199   479   478    1
  1200   479   496    1
  1201   404   405   ar
  1202   363   352    1
  1203  1255  1248   ar
  1204  1248  1247    1
  1205   460   466   ar
  1206   543   544    1
  1207   543   541    1
  1208   534   535   ar
  1209   506   505    1
  1210  1235  1225    1
  1211  1278  1264    1
  1212  1278  1299    2
  1213  1278  1298    1
  1214   889   890   ar
  1215  1207  1213   ar
  1216  1207  1206   ar
  1217   493   492   ar
  1218   863   869   ar
  1219   863   864   ar
  1220   919   905    1
  1221   919   939    2
  1222   919   940    1
  1223   488   491   ar
  1224  1237  1216    2
  1225  1213  1202    1
  1226   869   868   ar
  1227   905   904    1
  1228   819   817    1
  1229   904   902    1
  1230   478   476    1
  1231    41    42   ar
  1232   891   890   ar
  1233   891   894   ar
  1234   496   514    1
  1235   496   498    1
  1236   840   841   ar
  1237   398   405   ar
  1238   398   397    1
  1239   379   378   ar
  1240   379   385   ar
  1241   992   991   ar
  1242   992   993    1
  1243   813   815    1
  1244   535   525    1
  1245   345   344    1
  1246  1015  1016    2
  1247  1015  1017   ar
  1248   384   385   ar
  1249   848   845   ar
  1250   848   849   ar
  1251  1261  1259    1
  1252   426   427   ar
  1253  1204  1206   ar
  1254  1204  1205    1
  1255   916   915   ar
  1256   903   902    1
  1257   542   541    1
  1258   845   844   ar
  1259   477   476    1
  1260   537   516    2
  1261  1018  1017   ar
  1262  1018  1019    2
  1263   890   896   ar
  1264  1194  1196    1
  1265    27    28    1
  1266    27    25    1
  1267   476   474    1
  1268   865   864    1
  1269   463   464   ar
  1270   396   395    1
  1271    18    17    2
  1272   427   417    1
  1273    13    12    1
  1274    11    17   ar
  1275    11    12   ar
  1276   467   466    2
  1277   815   817    1
  1278   815   816    1
  1279   466   465   ar
  1280   902   900    1
  1281   497   498    1
  1282   497   499    1
  1283   864   866   ar
  1284   541   539    1
  1285  1247  1245    1
  1286  1247  1242    1
  1287   385   375    1
  1288   492   491   ar
  1289   352   347    1
  1290   352   350    1
  1291   894   895   ar
  1292   397   395    1
  1293   397   392    1
  1294  1198  1196    1
  1295  1198  1200    1
  1296  1198  1199    1
  1297   347   346    1
  1298   557   538    2
  1299   505   500    1
  1300   505   503    1
  1301    17    16   ar
  1302   817   818    1
  1303  1197  1202    1
  1304  1197  1196    1
  1305  1225  1220    1
  1306  1225  1223    1
  1307  1202  1200    1
  1308    12    14   ar
  1309   852   830    2
  1310   540   539    1
  1311   540   538    1
  1312   868   871   ar
  1313   868   867   ar
  1314   501   499    1
  1315   501   503    1
  1316   501   502    1
  1317   500   499    1
  1318  1245  1246    1
  1319  1245  1243    1
  1320   841   842    1
  1321   841   843   ar
  1322  1216  1218    1
  1323  1216  1199    1
  1324  1216  1236    1
  1325   344   346    1
  1326   849   850   ar
  1327   395   393    1
  1328   525   523    1
  1329   525   520    1
  1330  1220  1219    1
  1331  1260  1259    1
  1332  1260  1258    1
  1333  1200  1201    1
  1334   503   504    1
  1335   464   465   ar
  1336   464   470   ar
  1337   387   366    2
  1338    25    26    1
  1339    26    24    1
  1340   844   843   ar
  1341   844   850   ar
  1342   523   521    1
  1343   523   524    1
  1344   871   872   ar
  1345   348   346    1
  1346   348   350    1
  1347   348   349    1
  1348   465   468   ar
  1349  1218  1217    1
  1350   516   518    1
  1351   516   502    1
  1352   516   536    1
  1353   896   895   ar
  1354   896   885    1
  1355   816   830    1
  1356   417   412    1
  1357   417   415    1
  1358  1217  1219    1
  1359   350   351    1
  1360  1242  1241    1
  1361   518   517    1
  1362  1257  1238    2
  1363   474   475    1
  1364  1223  1221    1
  1365  1223  1224    1
  1366   538   522    1
  1367   538   556    1
  1368   866   867   ar
  1369  1221  1219    1
  1370  1221  1222    1
  1371   521   522    1
  1372   521   519    1
  1373    16    15   ar
  1374    16    19   ar
  1375    14    15   ar
  1376   392   391    1
  1377   867   873   ar
  1378  1243  1241    1
  1379  1243  1244    1
  1380   900   901    1
  1381   412   411    1
  1382   520   519    1
  1383   850   839    1
  1384   830   832    1
  1385   830   851    1
  1386   375   370    1
  1387   375   373    1
  1388  1277  1258    2
  1389    45    24    2
  1390    15    21   ar
  1391   475   473    1
  1392   901   899    1
  1393   394   393    1
  1394   394   408    1
  1395  1258  1244    1
  1396  1258  1276    1
  1397   885   883    1
  1398   885   880    1
  1399   458   457    1
  1400   393   391    1
  1401   470   459    1
  1402   470   469   ar
  1403    19    20   ar
  1404  1240  1238    1
  1405  1240  1239    1
  1406   349   366    1
  1407    24    44    1
  1408    24     7    1
  1409   370   369    1
  1410   883   884    1
  1411   883   881    1
  1412   366   368    1
  1413   366   386    1
  1414   415   416    1
  1415   415   413    1
  1416   457   459    1
  1417   457   455    1
  1418   368   367    1
  1419  1241  1239    1
  1420   832   831    1
  1421   519   517    1
  1422   872   873   ar
  1423   468   469   ar
  1424   373   371    1
  1425   373   374    1
  1426  1238  1222    1
  1427  1238  1256    1
  1428   459   454    1
  1429   429   408    2
  1430   391   389    1
  1431   873   862    1
  1432   407   388    2
  1433   371   369    1
  1434   371   372    1
  1435   410   408    1
  1436   410   409    1
  1437    21    20   ar
  1438    21    10    1
  1439     8     9    1
  1440     8     6    1
  1441     8    10    1
  1442   390   389    1
  1443   390   388    1
  1444   411   409    1
  1445   411   413    1
  1446   408   428    1
  1447   839   834    1
  1448   839   837    1
  1449   881   882    1
  1450   881   879    1
  1451   834   833    1
  1452   369   367    1
  1453   880   879    1
  1454     7     6    1
  1455     6     4    1
  1456   899   918    2
  1457   899   882    1
  1458   899   917    1
  1459   413   414    1
  1460   473   456    1
  1461   473   495    2
  1462   473   494    1
  1463   455   456    1
  1464   455   453    1
  1465   831   833    1
  1466   875   853    2
  1467    10     5    1
  1468   388   372    1
  1469   388   406    1
  1470   454   453    1
  1471   835   837    1
  1472   835   833    1
  1473   835   836    1
  1474   862   860    1
  1475   862   857    1
  1476   837   838    1
  1477   414   430    1
  1478   898   876    2
  1479   879   877    1
  1480   878   877    1
  1481   878   876    1
  1482   860   858    1
  1483   860   861    1
  1484   453   451    1
  1485     5     4    1
  1486     4     2    1
  1487    23     1    1
  1488   855   853    1
  1489   855   854    1
  1490   853   836    1
  1491   853   874    1
  1492   858   856    1
  1493   858   859    1
  1494   857   856    1
  1495     3     2    1
  1496     3     1    1
  1497   876   859    1
  1498   876   897    1
  1499   452   451    1
  1500   452   450    1
  1501   430   449    2
  1502   430   432    1
  1503   430   448    1
  1504     1    22    1
  1505   856   854    1
  1506   472   450    2
  1507   432   431    1
  1508   431   433    1
  1509   450   436    1
  1510   450   471    1
  1511   435   433    1
  1512   435   436    1
  1513   435   437    1
  1514   433   434    1
  1515   437   438    1
  1516   437   439    1
  1517   434   439    1
  1518   439   440    1
  1519   447   446   ar
  1520   447   440   ar
  1521   446   444   ar
  1522   440   441   ar
  1523   441   442    2
  1524   441   443   ar
  1525   444   443   ar
  1526   444   445    2
