ligand
  PyMOL2.2          3D                             0

 27 29  0  0  0  0  0  0  0  0999 V2000
   37.4760   19.9070   71.7740 N   0  0  0  0  0  0  0  0  0  0  0  0
   37.1890   18.5450   72.2570 C   0  0  0  0  0  0  0  0  0  0  0  0
   36.7550   17.6640   71.1040 C   0  0  0  0  0  0  0  0  0  0  0  0
   36.4880   16.4740   71.3000 O   0  0  0  0  0  0  0  0  0  0  0  0
   36.0630   18.6060   73.2840 C   0  0  0  0  0  0  0  0  0  0  0  0
   36.5850   19.1060   74.6140 C   0  0  0  0  0  0  0  0  0  0  0  0
   35.2260   19.9240   75.4680 S   0  0  0  0  0  0  0  0  0  0  0  0
   35.7420   21.6450   75.2160 C   0  0  0  0  0  0  0  0  0  0  0  0
   35.7230   19.6780   77.2070 C   0  0  0  0  0  0  0  0  0  0  0  0
   34.7010   20.3620   78.1110 C   0  0  0  0  0  0  0  0  0  0  0  0
   33.4190   20.0800   77.6000 O   0  0  0  0  0  0  0  0  0  0  0  0
   34.7290   19.7840   79.5300 C   0  0  0  0  0  0  0  0  0  0  0  0
   35.6040   20.3430   80.5220 O   0  0  0  0  0  0  0  0  0  0  0  0
   33.2170   19.7290   79.9290 C   0  0  0  0  0  0  0  0  0  0  0  0
   33.0760   20.2980   81.2420 O   0  0  0  0  0  0  0  0  0  0  0  0
   32.4950   20.2950   78.6550 C   0  0  0  0  0  0  0  0  0  0  0  0
   36.6020   18.1510   69.9940 O   0  0  0  0  0  0  0  0  0  0  0  0
   27.4930   20.7820   77.2960 N   0  0  0  0  0  0  0  0  0  0  0  0
   28.3800   21.7450   77.5710 C   0  0  0  0  0  0  0  0  0  0  0  0
   29.6300   21.4600   77.9250 N   0  0  0  0  0  0  0  0  0  0  0  0
   30.0620   20.1880   77.9990 C   0  0  0  0  0  0  0  0  0  0  0  0
   29.1640   19.1280   77.7020 C   0  0  0  0  0  0  0  0  0  0  0  0
   27.8300   19.4790   77.3390 C   0  0  0  0  0  0  0  0  0  0  0  0
   26.8990   18.5060   77.0270 N   0  0  0  0  0  0  0  0  0  0  0  0
   29.8490   17.9700   77.8450 N   0  0  0  0  0  0  0  0  0  0  0  0
   31.0730   18.2380   78.1970 C   0  0  0  0  0  0  0  0  0  0  0  0
   31.2540   19.5950   78.3060 N   0  0  0  0  0  0  0  0  0  0  0  0
  1  2  1  0  0  0  0
  2  3  1  0  0  0  0
  2  5  1  0  0  0  0
  3  4  4  0  0  0  0
  3 17  4  0  0  0  0
  5  6  1  0  0  0  0
  6  7  1  0  0  0  0
  7  8  1  0  0  0  0
  7  9  1  0  0  0  0
  9 10  1  0  0  0  0
 10 11  1  0  0  0  0
 10 12  1  0  0  0  0
 11 16  1  0  0  0  0
 12 13  1  0  0  0  0
 12 14  1  0  0  0  0
 14 15  1  0  0  0  0
 14 16  1  0  0  0  0
 16 27  1  0  0  0  0
 18 19  4  0  0  0  0
 19 20  4  0  0  0  0
 20 21  4  0  0  0  0
 21 22  4  0  0  0  0
 22 23  4  0  0  0  0
 18 23  4  0  0  0  0
 23 24  1  0  0  0  0
 22 25  4  0  0  0  0
 25 26  4  0  0  0  0
 21 27  4  0  0  0  0
 26 27  4  0  0  0  0
M  END
$$$$
