ligand
 OpenBabel11021811463D
libRbt.so/2013.1/901 2013/11/27
 27 29  0  0  0  0  0  0  0  0999 V2000
   38.0978   19.5144   71.6852 N   0  0  0  0  0  0  0  0  0  0  0  0
   37.1094   18.4649   71.9892 C   0  0  2  0  0  0  0  0  0  0  0  0
   36.5373   17.9004   70.7055 C   0  0  0  0  0  0  0  0  0  0  0  0
   35.7603   16.9409   70.7428 O   0  0  0  0  0  0  0  0  0  0  0  0
   35.9763   19.0692   72.8121 C   0  0  0  0  0  0  0  0  0  0  0  0
   36.3041   19.0113   74.2888 C   0  0  0  0  0  0  0  0  0  0  0  0
   35.0463   19.9523   75.1707 S   0  0  2  0  0  0  0  0  0  0  0  0
   35.9228   21.5366   75.2873 C   0  0  0  0  0  0  0  0  0  0  0  0
   35.2770   19.3179   76.8665 C   0  0  0  0  0  0  0  0  0  0  0  0
   34.3786   20.1094   77.8131 C   0  0  1  0  0  0  0  0  0  0  0  0
   33.0471   19.9342   77.3882 O   0  0  0  0  0  0  0  0  0  0  0  0
   34.4441   19.5598   79.2421 C   0  0  1  0  0  0  0  0  0  0  0  0
   35.4258   20.0572   80.1646 O   0  0  0  0  0  0  0  0  0  0  0  0
   32.9612   19.6496   79.7334 C   0  0  1  0  0  0  0  0  0  0  0  0
   32.9540   20.2552   81.0376 O   0  0  0  0  0  0  0  0  0  0  0  0
   32.2139   20.2529   78.4915 C   0  0  2  0  0  0  0  0  0  0  0  0
   36.7913   18.4415   69.6399 O   0  0  0  0  0  0  0  0  0  0  0  0
   27.2236   21.1573   77.3156 N   0  0  0  0  0  0  0  0  0  0  0  0
   28.2113   22.0414   77.4960 C   0  0  0  0  0  0  0  0  0  0  0  0
   29.4433   21.6539   77.8138 N   0  0  0  0  0  0  0  0  0  0  0  0
   29.7537   20.3514   77.9449 C   0  0  0  0  0  0  0  0  0  0  0  0
   28.7446   19.3708   77.7487 C   0  0  0  0  0  0  0  0  0  0  0  0
   27.4350   19.8317   77.4215 C   0  0  0  0  0  0  0  0  0  0  0  0
   26.4009   18.9399   77.2066 N   0  0  0  0  0  0  0  0  0  0  0  0
   29.3208   18.1603   77.9313 N   0  0  0  0  0  0  0  0  0  0  0  0
   30.5802   18.3247   78.2156 C   0  0  0  0  0  0  0  0  0  0  0  0
   30.8961   19.6611   78.2365 N   0  0  0  0  0  0  0  0  0  0  0  0
  2  1  1  6  0  0  0
  2  3  1  0  0  0  0
  2  5  1  0  0  0  0
  3  4  1  0  0  0  0
  3 17  1  0  0  0  0
  5  6  1  0  0  0  0
  7  6  1  6  0  0  0
  7  8  1  0  0  0  0
  7  9  1  0  0  0  0
 10  9  1  6  0  0  0
 10 11  1  0  0  0  0
 10 12  1  0  0  0  0
 11 16  1  0  0  0  0
 12 13  1  1  0  0  0
 12 14  1  0  0  0  0
 14 15  1  1  0  0  0
 14 16  1  0  0  0  0
 16 27  1  6  0  0  0
 18 19  2  0  0  0  0
 18 23  1  0  0  0  0
 19 20  1  0  0  0  0
 20 21  2  0  0  0  0
 21 22  1  0  0  0  0
 21 27  1  0  0  0  0
 22 23  2  0  0  0  0
 22 25  1  0  0  0  0
 23 24  1  0  0  0  0
 25 26  2  0  0  0  0
 26 27  1  0  0  0  0
M  END
>  <CHROM.1>
174.80842982,-87.95881350,171.79069972,-95.36119788,174.31049782,59.73772488
-109.81211601,33.04854334,19.61733335,76.21886618,0.72105113,0.00083891,-1.77907668

>  <Name>
ligand

>  <RI>
0

>  <Rbt.Current_Directory>
/home/itssahil/PROJECTS/Mol_Feturizer/New_Systems/rnas/2QWY

>  <Rbt.Executable>
rbdock ($Id: //depot/dev/client3/rdock/2013.1/src/exe/rbdock.cxx#4 $)

>  <Rbt.Library>
libRbt.so (2013.1, Build901 2013/11/27)

>  <Rbt.Parameter_File>
/export/apps/rDock/src/rDock_2013.1_src/data/scripts/dock_solv.prm

>  <Rbt.Receptor>
prm/pocket_docking_2.prm

>  <SCORE>
-27.3797

>  <SCORE.INTER>
-25.2902

>  <SCORE.INTER.CONST>
1

>  <SCORE.INTER.POLAR>
0

>  <SCORE.INTER.ROT>
7

>  <SCORE.INTER.SOLV>
16.6806

>  <SCORE.INTER.VDW>
-30.687

>  <SCORE.INTER.norm>
-0.936674

>  <SCORE.INTRA>
-2.08948

>  <SCORE.INTRA.DIHEDRAL>
-2.9005

>  <SCORE.INTRA.DIHEDRAL.0>
10.7382

>  <SCORE.INTRA.POLAR>
0

>  <SCORE.INTRA.POLAR.0>
0

>  <SCORE.INTRA.REPUL>
0

>  <SCORE.INTRA.REPUL.0>
0

>  <SCORE.INTRA.SOLV>
-0.670804

>  <SCORE.INTRA.SOLV.lig_0>
-49.2501

>  <SCORE.INTRA.VDW>
-0.303829

>  <SCORE.INTRA.VDW.0>
-1.75368

>  <SCORE.INTRA.norm>
-0.0773881

>  <SCORE.RESTR>
0

>  <SCORE.RESTR.CAVITY>
0

>  <SCORE.RESTR.norm>
0

>  <SCORE.SYSTEM>
0

>  <SCORE.SYSTEM.CONST>
0

>  <SCORE.SYSTEM.DIHEDRAL>
0

>  <SCORE.SYSTEM.SOLV>
0

>  <SCORE.SYSTEM.norm>
0

>  <SCORE.heavy>
27

>  <SCORE.norm>
-1.01406

>  <RMSD>
0.505

$$$$
ligand
 OpenBabel11021811463D
libRbt.so/2013.1/901 2013/11/27
 27 29  0  0  0  0  0  0  0  0999 V2000
   38.0857   19.4204   71.7210 N   0  0  0  0  0  0  0  0  0  0  0  0
   37.0994   18.3566   71.9780 C   0  0  2  0  0  0  0  0  0  0  0  0
   36.5382   17.8393   70.6698 C   0  0  0  0  0  0  0  0  0  0  0  0
   35.7685   16.8732   70.6647 O   0  0  0  0  0  0  0  0  0  0  0  0
   35.9583   18.9249   72.8154 C   0  0  0  0  0  0  0  0  0  0  0  0
   36.3707   19.0361   74.2676 C   0  0  0  0  0  0  0  0  0  0  0  0
   35.1021   19.9799   75.1309 S   0  0  2  0  0  0  0  0  0  0  0  0
   36.0119   21.5362   75.3356 C   0  0  0  0  0  0  0  0  0  0  0  0
   35.2489   19.2842   76.8120 C   0  0  0  0  0  0  0  0  0  0  0  0
   34.3485   20.0801   77.7529 C   0  0  1  0  0  0  0  0  0  0  0  0
   33.0162   19.8851   77.3394 O   0  0  0  0  0  0  0  0  0  0  0  0
   34.4289   19.5520   79.1893 C   0  0  1  0  0  0  0  0  0  0  0  0
   35.4114   20.0728   80.0979 O   0  0  0  0  0  0  0  0  0  0  0  0
   32.9484   19.6338   79.6890 C   0  0  1  0  0  0  0  0  0  0  0  0
   32.9434   20.2582   80.9843 O   0  0  0  0  0  0  0  0  0  0  0  0
   32.1869   20.2113   78.4435 C   0  0  2  0  0  0  0  0  0  0  0  0
   36.7934   18.4242   69.6279 O   0  0  0  0  0  0  0  0  0  0  0  0
   27.1863   21.0447   77.2585 N   0  0  0  0  0  0  0  0  0  0  0  0
   28.1668   21.9413   77.4154 C   0  0  0  0  0  0  0  0  0  0  0  0
   29.4028   21.5720   77.7394 N   0  0  0  0  0  0  0  0  0  0  0  0
   29.7247   20.2757   77.9006 C   0  0  0  0  0  0  0  0  0  0  0  0
   28.7237   19.2821   77.7302 C   0  0  0  0  0  0  0  0  0  0  0  0
   27.4095   19.7238   77.3953 C   0  0  0  0  0  0  0  0  0  0  0  0
   26.3825   18.8184   77.2041 N   0  0  0  0  0  0  0  0  0  0  0  0
   29.3106   18.0812   77.9401 N   0  0  0  0  0  0  0  0  0  0  0  0
   30.5692   18.2632   78.2173 C   0  0  0  0  0  0  0  0  0  0  0  0
   30.8736   19.6023   78.2058 N   0  0  0  0  0  0  0  0  0  0  0  0
  2  1  1  6  0  0  0
  2  3  1  0  0  0  0
  2  5  1  0  0  0  0
  3  4  1  0  0  0  0
  3 17  1  0  0  0  0
  5  6  1  0  0  0  0
  7  6  1  6  0  0  0
  7  8  1  0  0  0  0
  7  9  1  0  0  0  0
 10  9  1  6  0  0  0
 10 11  1  0  0  0  0
 10 12  1  0  0  0  0
 11 16  1  0  0  0  0
 12 13  1  1  0  0  0
 12 14  1  0  0  0  0
 14 15  1  1  0  0  0
 14 16  1  0  0  0  0
 16 27  1  6  0  0  0
 18 19  2  0  0  0  0
 18 23  1  0  0  0  0
 19 20  1  0  0  0  0
 20 21  2  0  0  0  0
 21 22  1  0  0  0  0
 21 27  1  0  0  0  0
 22 23  2  0  0  0  0
 22 25  1  0  0  0  0
 23 24  1  0  0  0  0
 25 26  2  0  0  0  0
 26 27  1  0  0  0  0
M  END
>  <CHROM.1>
174.55057929,-78.07705584,169.92006663,-106.15341013,173.49376200,64.25763270
-109.22144493,33.04318402,19.56770013,76.18645086,0.71413386,-0.01472739
-1.79337153

>  <Name>
ligand

>  <RI>
0

>  <Rbt.Current_Directory>
/home/itssahil/PROJECTS/Mol_Feturizer/New_Systems/rnas/2QWY

>  <Rbt.Executable>
rbdock ($Id: //depot/dev/client3/rdock/2013.1/src/exe/rbdock.cxx#4 $)

>  <Rbt.Library>
libRbt.so (2013.1, Build901 2013/11/27)

>  <Rbt.Parameter_File>
/export/apps/rDock/src/rDock_2013.1_src/data/scripts/dock_solv.prm

>  <Rbt.Receptor>
prm/pocket_docking_2.prm

>  <SCORE>
-27.26

>  <SCORE.INTER>
-25.1278

>  <SCORE.INTER.CONST>
1

>  <SCORE.INTER.POLAR>
0

>  <SCORE.INTER.ROT>
7

>  <SCORE.INTER.SOLV>
16.8121

>  <SCORE.INTER.VDW>
-30.6226

>  <SCORE.INTER.norm>
-0.93066

>  <SCORE.INTRA>
-2.13217

>  <SCORE.INTRA.DIHEDRAL>
-2.93658

>  <SCORE.INTRA.DIHEDRAL.0>
10.7382

>  <SCORE.INTRA.POLAR>
0

>  <SCORE.INTRA.POLAR.0>
0

>  <SCORE.INTRA.REPUL>
0

>  <SCORE.INTRA.REPUL.0>
0

>  <SCORE.INTRA.SOLV>
-0.574879

>  <SCORE.INTRA.SOLV.lig_0>
-49.2501

>  <SCORE.INTRA.VDW>
-0.376441

>  <SCORE.INTRA.VDW.0>
-1.75368

>  <SCORE.INTRA.norm>
-0.0789693

>  <SCORE.RESTR>
0

>  <SCORE.RESTR.CAVITY>
0

>  <SCORE.RESTR.norm>
0

>  <SCORE.SYSTEM>
0

>  <SCORE.SYSTEM.CONST>
0

>  <SCORE.SYSTEM.DIHEDRAL>
0

>  <SCORE.SYSTEM.SOLV>
0

>  <SCORE.SYSTEM.norm>
0

>  <SCORE.heavy>
27

>  <SCORE.norm>
-1.00963

>  <RMSD>
0.516

$$$$
ligand
 OpenBabel11021811463D
libRbt.so/2013.1/901 2013/11/27
 27 29  0  0  0  0  0  0  0  0999 V2000
   37.4468   19.0710   70.6755 N   0  0  0  0  0  0  0  0  0  0  0  0
   37.0524   18.3816   71.9164 C   0  0  2  0  0  0  0  0  0  0  0  0
   36.2515   17.1383   71.5897 C   0  0  0  0  0  0  0  0  0  0  0  0
   36.0419   16.2894   72.4622 O   0  0  0  0  0  0  0  0  0  0  0  0
   36.1905   19.3187   72.7563 C   0  0  0  0  0  0  0  0  0  0  0  0
   36.0996   18.8197   74.1825 C   0  0  0  0  0  0  0  0  0  0  0  0
   34.9818   19.9116   75.0790 S   0  0  2  0  0  0  0  0  0  0  0  0
   36.0702   21.3557   75.2252 C   0  0  0  0  0  0  0  0  0  0  0  0
   35.1147   19.2217   76.7637 C   0  0  0  0  0  0  0  0  0  0  0  0
   34.2516   20.0569   77.7055 C   0  0  1  0  0  0  0  0  0  0  0  0
   32.9088   19.9000   77.3099 O   0  0  0  0  0  0  0  0  0  0  0  0
   34.3323   19.5430   79.1470 C   0  0  1  0  0  0  0  0  0  0  0  0
   35.3418   20.0424   80.0379 O   0  0  0  0  0  0  0  0  0  0  0  0
   32.8613   19.6779   79.6629 C   0  0  1  0  0  0  0  0  0  0  0  0
   32.8918   20.3169   80.9507 O   0  0  0  0  0  0  0  0  0  0  0  0
   32.1037   20.2652   78.4196 C   0  0  2  0  0  0  0  0  0  0  0  0
   35.7542   17.0123   70.4809 O   0  0  0  0  0  0  0  0  0  0  0  0
   27.1154   21.2465   77.2981 N   0  0  0  0  0  0  0  0  0  0  0  0
   28.1254   22.1130   77.4351 C   0  0  0  0  0  0  0  0  0  0  0  0
   29.3537   21.7075   77.7446 N   0  0  0  0  0  0  0  0  0  0  0  0
   29.6373   20.4029   77.9104 C   0  0  0  0  0  0  0  0  0  0  0  0
   28.6036   19.4399   77.7610 C   0  0  0  0  0  0  0  0  0  0  0  0
   27.2992   19.9202   77.4411 C   0  0  0  0  0  0  0  0  0  0  0  0
   26.2420   19.0461   77.2706 N   0  0  0  0  0  0  0  0  0  0  0  0
   29.1558   18.2227   77.9712 N   0  0  0  0  0  0  0  0  0  0  0  0
   30.4231   18.3671   78.2297 C   0  0  0  0  0  0  0  0  0  0  0  0
   30.7689   19.6959   78.2044 N   0  0  0  0  0  0  0  0  0  0  0  0
  2  1  1  6  0  0  0
  2  3  1  0  0  0  0
  2  5  1  0  0  0  0
  3  4  1  0  0  0  0
  3 17  1  0  0  0  0
  5  6  1  0  0  0  0
  7  6  1  6  0  0  0
  7  8  1  0  0  0  0
  7  9  1  0  0  0  0
 10  9  1  6  0  0  0
 10 11  1  0  0  0  0
 10 12  1  0  0  0  0
 11 16  1  0  0  0  0
 12 13  1  1  0  0  0
 12 14  1  0  0  0  0
 14 15  1  1  0  0  0
 14 16  1  0  0  0  0
 16 27  1  6  0  0  0
 18 19  2  0  0  0  0
 18 23  1  0  0  0  0
 19 20  1  0  0  0  0
 20 21  2  0  0  0  0
 21 22  1  0  0  0  0
 21 27  1  0  0  0  0
 22 23  2  0  0  0  0
 22 25  1  0  0  0  0
 23 24  1  0  0  0  0
 25 26  2  0  0  0  0
 26 27  1  0  0  0  0
M  END
>  <CHROM.1>
166.34210885,-163.64536630,-176.26357477,-73.41961687,178.27994615,64.75693733
-109.52497470,32.90892710,19.50015178,76.26739135,0.69291857,0.01710642,-1.85226597

>  <Name>
ligand

>  <RI>
0

>  <Rbt.Current_Directory>
/home/itssahil/PROJECTS/Mol_Feturizer/New_Systems/rnas/2QWY

>  <Rbt.Executable>
rbdock ($Id: //depot/dev/client3/rdock/2013.1/src/exe/rbdock.cxx#4 $)

>  <Rbt.Library>
libRbt.so (2013.1, Build901 2013/11/27)

>  <Rbt.Parameter_File>
/export/apps/rDock/src/rDock_2013.1_src/data/scripts/dock_solv.prm

>  <Rbt.Receptor>
prm/pocket_docking_2.prm

>  <SCORE>
-28.4158

>  <SCORE.INTER>
-24.8134

>  <SCORE.INTER.CONST>
1

>  <SCORE.INTER.POLAR>
0

>  <SCORE.INTER.ROT>
7

>  <SCORE.INTER.SOLV>
17.5001

>  <SCORE.INTER.VDW>
-30.6423

>  <SCORE.INTER.norm>
-0.919016

>  <SCORE.INTRA>
-3.60237

>  <SCORE.INTRA.DIHEDRAL>
-6.26147

>  <SCORE.INTRA.DIHEDRAL.0>
10.7382

>  <SCORE.INTRA.POLAR>
0

>  <SCORE.INTRA.POLAR.0>
0

>  <SCORE.INTRA.REPUL>
0

>  <SCORE.INTRA.REPUL.0>
0

>  <SCORE.INTRA.SOLV>
-1.24713

>  <SCORE.INTRA.SOLV.lig_0>
-49.2501

>  <SCORE.INTRA.VDW>
0.15193

>  <SCORE.INTRA.VDW.0>
-1.75368

>  <SCORE.INTRA.norm>
-0.133421

>  <SCORE.RESTR>
0

>  <SCORE.RESTR.CAVITY>
0

>  <SCORE.RESTR.norm>
0

>  <SCORE.SYSTEM>
0

>  <SCORE.SYSTEM.CONST>
0

>  <SCORE.SYSTEM.DIHEDRAL>
0

>  <SCORE.SYSTEM.SOLV>
0

>  <SCORE.SYSTEM.norm>
0

>  <SCORE.heavy>
27

>  <SCORE.norm>
-1.05244

>  <RMSD>
0.750

$$$$
ligand
 OpenBabel11021811463D
libRbt.so/2013.1/901 2013/11/27
 27 29  0  0  0  0  0  0  0  0999 V2000
   37.3932   18.6905   71.4974 N   0  0  0  0  0  0  0  0  0  0  0  0
   36.9036   17.7915   72.5571 C   0  0  2  0  0  0  0  0  0  0  0  0
   36.2157   16.5895   71.9439 C   0  0  0  0  0  0  0  0  0  0  0  0
   36.0860   15.5496   72.5977 O   0  0  0  0  0  0  0  0  0  0  0  0
   35.9024   18.5438   73.4275 C   0  0  0  0  0  0  0  0  0  0  0  0
   36.5752   19.7062   74.1259 C   0  0  0  0  0  0  0  0  0  0  0  0
   35.3301   20.5499   75.1174 S   0  0  2  0  0  0  0  0  0  0  0  0
   36.3120   21.9904   75.6201 C   0  0  0  0  0  0  0  0  0  0  0  0
   35.3872   19.5568   76.6478 C   0  0  0  0  0  0  0  0  0  0  0  0
   34.4928   20.2160   77.6943 C   0  0  1  0  0  0  0  0  0  0  0  0
   33.1558   20.0457   77.2850 O   0  0  0  0  0  0  0  0  0  0  0  0
   34.6121   19.5208   79.0548 C   0  0  1  0  0  0  0  0  0  0  0  0
   35.6040   19.9481   80.0013 O   0  0  0  0  0  0  0  0  0  0  0  0
   33.1411   19.5126   79.5880 C   0  0  1  0  0  0  0  0  0  0  0  0
   33.1520   19.9766   80.9489 O   0  0  0  0  0  0  0  0  0  0  0  0
   32.3439   20.2203   78.4354 C   0  0  2  0  0  0  0  0  0  0  0  0
   35.7275   16.6756   70.8272 O   0  0  0  0  0  0  0  0  0  0  0  0
   27.3392   21.0924   77.2968 N   0  0  0  0  0  0  0  0  0  0  0  0
   28.3111   21.9840   77.5209 C   0  0  0  0  0  0  0  0  0  0  0  0
   29.5496   21.6034   77.8216 N   0  0  0  0  0  0  0  0  0  0  0  0
   29.8827   20.3018   77.8905 C   0  0  0  0  0  0  0  0  0  0  0  0
   28.8912   19.3141   77.6460 C   0  0  0  0  0  0  0  0  0  0  0  0
   27.5739   19.7671   77.3393 C   0  0  0  0  0  0  0  0  0  0  0  0
   26.5557   18.8688   77.0804 N   0  0  0  0  0  0  0  0  0  0  0  0
   29.4884   18.1066   77.7712 N   0  0  0  0  0  0  0  0  0  0  0  0
   30.7446   18.2792   78.0649 C   0  0  0  0  0  0  0  0  0  0  0  0
   31.0369   19.6184   78.1503 N   0  0  0  0  0  0  0  0  0  0  0  0
  2  1  1  6  0  0  0
  2  3  1  0  0  0  0
  2  5  1  0  0  0  0
  3  4  1  0  0  0  0
  3 17  1  0  0  0  0
  5  6  1  0  0  0  0
  7  6  1  6  0  0  0
  7  8  1  0  0  0  0
  7  9  1  0  0  0  0
 10  9  1  6  0  0  0
 10 11  1  0  0  0  0
 10 12  1  0  0  0  0
 11 16  1  0  0  0  0
 12 13  1  1  0  0  0
 12 14  1  0  0  0  0
 14 15  1  1  0  0  0
 14 16  1  0  0  0  0
 16 27  1  6  0  0  0
 18 19  2  0  0  0  0
 18 23  1  0  0  0  0
 19 20  1  0  0  0  0
 20 21  2  0  0  0  0
 21 22  1  0  0  0  0
 21 27  1  0  0  0  0
 22 23  2  0  0  0  0
 22 25  1  0  0  0  0
 23 24  1  0  0  0  0
 25 26  2  0  0  0  0
 26 27  1  0  0  0  0
M  END
>  <CHROM.1>
158.68514580,-63.18783969,179.47847809,-172.00551148,173.84222573,70.19359643
-106.08724578,33.11067743,19.44351140,76.35421025,0.65791361,-0.05104274
-1.98874386

>  <Name>
ligand

>  <RI>
0

>  <Rbt.Current_Directory>
/home/itssahil/PROJECTS/Mol_Feturizer/New_Systems/rnas/2QWY

>  <Rbt.Executable>
rbdock ($Id: //depot/dev/client3/rdock/2013.1/src/exe/rbdock.cxx#4 $)

>  <Rbt.Library>
libRbt.so (2013.1, Build901 2013/11/27)

>  <Rbt.Parameter_File>
/export/apps/rDock/src/rDock_2013.1_src/data/scripts/dock_solv.prm

>  <Rbt.Receptor>
prm/pocket_docking_2.prm

>  <SCORE>
-27.79

>  <SCORE.INTER>
-23.9465

>  <SCORE.INTER.CONST>
1

>  <SCORE.INTER.POLAR>
0

>  <SCORE.INTER.ROT>
7

>  <SCORE.INTER.SOLV>
16.0364

>  <SCORE.INTER.VDW>
-29.5765

>  <SCORE.INTER.norm>
-0.886908

>  <SCORE.INTRA>
-3.84352

>  <SCORE.INTRA.DIHEDRAL>
-6.46286

>  <SCORE.INTRA.DIHEDRAL.0>
10.7382

>  <SCORE.INTRA.POLAR>
0

>  <SCORE.INTRA.POLAR.0>
0

>  <SCORE.INTRA.REPUL>
0

>  <SCORE.INTRA.REPUL.0>
0

>  <SCORE.INTRA.SOLV>
-0.55368

>  <SCORE.INTRA.SOLV.lig_0>
-49.2501

>  <SCORE.INTRA.VDW>
-0.335256

>  <SCORE.INTRA.VDW.0>
-1.75368

>  <SCORE.INTRA.norm>
-0.142353

>  <SCORE.RESTR>
0

>  <SCORE.RESTR.CAVITY>
0

>  <SCORE.RESTR.norm>
0

>  <SCORE.SYSTEM>
0

>  <SCORE.SYSTEM.CONST>
0

>  <SCORE.SYSTEM.DIHEDRAL>
0

>  <SCORE.SYSTEM.SOLV>
0

>  <SCORE.SYSTEM.norm>
0

>  <SCORE.heavy>
27

>  <SCORE.norm>
-1.02926

>  <RMSD>
0.764

$$$$
ligand
 OpenBabel11021811463D
libRbt.so/2013.1/901 2013/11/27
 27 29  0  0  0  0  0  0  0  0999 V2000
   37.3504   18.6375   71.6302 N   0  0  0  0  0  0  0  0  0  0  0  0
   36.8579   17.6649   72.6213 C   0  0  2  0  0  0  0  0  0  0  0  0
   36.1786   16.5063   71.9212 C   0  0  0  0  0  0  0  0  0  0  0  0
   35.9933   15.4426   72.5212 O   0  0  0  0  0  0  0  0  0  0  0  0
   35.8483   18.3511   73.5357 C   0  0  0  0  0  0  0  0  0  0  0  0
   36.4952   19.5088   74.2654 C   0  0  0  0  0  0  0  0  0  0  0  0
   35.2054   20.3780   75.1745 S   0  0  2  0  0  0  0  0  0  0  0  0
   36.1458   21.8606   75.6317 C   0  0  0  0  0  0  0  0  0  0  0  0
   35.2325   19.4652   76.7550 C   0  0  0  0  0  0  0  0  0  0  0  0
   34.3400   20.1924   77.7571 C   0  0  1  0  0  0  0  0  0  0  0  0
   33.0040   20.0225   77.3444 O   0  0  0  0  0  0  0  0  0  0  0  0
   34.4359   19.5674   79.1530 C   0  0  1  0  0  0  0  0  0  0  0  0
   35.4265   20.0275   80.0854 O   0  0  0  0  0  0  0  0  0  0  0  0
   32.9604   19.6107   79.6718 C   0  0  1  0  0  0  0  0  0  0  0  0
   32.9671   20.1449   81.0068 O   0  0  0  0  0  0  0  0  0  0  0  0
   32.1852   20.2700   78.4764 C   0  0  2  0  0  0  0  0  0  0  0  0
   35.7517   16.6511   70.7857 O   0  0  0  0  0  0  0  0  0  0  0  0
   27.2042   21.1624   77.2527 N   0  0  0  0  0  0  0  0  0  0  0  0
   28.1885   22.0488   77.4402 C   0  0  0  0  0  0  0  0  0  0  0  0
   29.4183   21.6643   77.7702 N   0  0  0  0  0  0  0  0  0  0  0  0
   29.7299   20.3627   77.9069 C   0  0  0  0  0  0  0  0  0  0  0  0
   28.7246   19.3797   77.7036 C   0  0  0  0  0  0  0  0  0  0  0  0
   27.4172   19.8374   77.3633 C   0  0  0  0  0  0  0  0  0  0  0  0
   26.3867   18.9433   77.1409 N   0  0  0  0  0  0  0  0  0  0  0  0
   29.3013   18.1707   77.8941 N   0  0  0  0  0  0  0  0  0  0  0  0
   30.5577   18.3382   78.1896 C   0  0  0  0  0  0  0  0  0  0  0  0
   30.8709   19.6752   78.2105 N   0  0  0  0  0  0  0  0  0  0  0  0
  2  1  1  6  0  0  0
  2  3  1  0  0  0  0
  2  5  1  0  0  0  0
  3  4  1  0  0  0  0
  3 17  1  0  0  0  0
  5  6  1  0  0  0  0
  7  6  1  6  0  0  0
  7  8  1  0  0  0  0
  7  9  1  0  0  0  0
 10  9  1  6  0  0  0
 10 11  1  0  0  0  0
 10 12  1  0  0  0  0
 11 16  1  0  0  0  0
 12 13  1  1  0  0  0
 12 14  1  0  0  0  0
 14 15  1  1  0  0  0
 14 16  1  0  0  0  0
 16 27  1  6  0  0  0
 18 19  2  0  0  0  0
 18 23  1  0  0  0  0
 19 20  1  0  0  0  0
 20 21  2  0  0  0  0
 21 22  1  0  0  0  0
 21 27  1  0  0  0  0
 22 23  2  0  0  0  0
 22 25  1  0  0  0  0
 23 24  1  0  0  0  0
 25 26  2  0  0  0  0
 26 27  1  0  0  0  0
M  END
>  <CHROM.1>
162.05099406,-60.32414139,173.68523479,-168.42430012,171.50744494,70.20066246
-106.22183667,32.98081841,19.42948314,76.40094864,0.66444937,-0.02957082
-1.99378705

>  <Name>
ligand

>  <RI>
0

>  <Rbt.Current_Directory>
/home/itssahil/PROJECTS/Mol_Feturizer/New_Systems/rnas/2QWY

>  <Rbt.Executable>
rbdock ($Id: //depot/dev/client3/rdock/2013.1/src/exe/rbdock.cxx#4 $)

>  <Rbt.Library>
libRbt.so (2013.1, Build901 2013/11/27)

>  <Rbt.Parameter_File>
/export/apps/rDock/src/rDock_2013.1_src/data/scripts/dock_solv.prm

>  <Rbt.Receptor>
prm/pocket_docking_2.prm

>  <SCORE>
-27.8519

>  <SCORE.INTER>
-24.3385

>  <SCORE.INTER.CONST>
1

>  <SCORE.INTER.POLAR>
0

>  <SCORE.INTER.ROT>
7

>  <SCORE.INTER.SOLV>
15.0171

>  <SCORE.INTER.VDW>
-29.4981

>  <SCORE.INTER.norm>
-0.901427

>  <SCORE.INTRA>
-3.51338

>  <SCORE.INTRA.DIHEDRAL>
-6.04024

>  <SCORE.INTRA.DIHEDRAL.0>
10.7382

>  <SCORE.INTRA.POLAR>
0

>  <SCORE.INTRA.POLAR.0>
0

>  <SCORE.INTRA.REPUL>
0

>  <SCORE.INTRA.REPUL.0>
0

>  <SCORE.INTRA.SOLV>
-0.476144

>  <SCORE.INTRA.SOLV.lig_0>
-49.2501

>  <SCORE.INTRA.VDW>
-0.255189

>  <SCORE.INTRA.VDW.0>
-1.75368

>  <SCORE.INTRA.norm>
-0.130125

>  <SCORE.RESTR>
0

>  <SCORE.RESTR.CAVITY>
0

>  <SCORE.RESTR.norm>
0

>  <SCORE.SYSTEM>
0

>  <SCORE.SYSTEM.CONST>
0

>  <SCORE.SYSTEM.DIHEDRAL>
0

>  <SCORE.SYSTEM.SOLV>
0

>  <SCORE.SYSTEM.norm>
0

>  <SCORE.heavy>
27

>  <SCORE.norm>
-1.03155

>  <RMSD>
0.793

$$$$
ligand
 OpenBabel11021811463D
libRbt.so/2013.1/901 2013/11/27
 27 29  0  0  0  0  0  0  0  0999 V2000
   37.4205   18.6731   71.4643 N   0  0  0  0  0  0  0  0  0  0  0  0
   36.9139   17.7654   72.5084 C   0  0  2  0  0  0  0  0  0  0  0  0
   36.2255   16.5746   71.8742 C   0  0  0  0  0  0  0  0  0  0  0  0
   36.0908   15.5251   72.5114 O   0  0  0  0  0  0  0  0  0  0  0  0
   35.9076   18.5141   73.3762 C   0  0  0  0  0  0  0  0  0  0  0  0
   36.5789   19.6666   74.0920 C   0  0  0  0  0  0  0  0  0  0  0  0
   35.3147   20.5491   75.0239 S   0  0  2  0  0  0  0  0  0  0  0  0
   36.3314   21.9254   75.6270 C   0  0  0  0  0  0  0  0  0  0  0  0
   35.2225   19.5186   76.5276 C   0  0  0  0  0  0  0  0  0  0  0  0
   34.3508   20.2311   77.5581 C   0  0  1  0  0  0  0  0  0  0  0  0
   33.0060   20.0588   77.1757 O   0  0  0  0  0  0  0  0  0  0  0  0
   34.4830   19.5925   78.9449 C   0  0  1  0  0  0  0  0  0  0  0  0
   35.4933   20.0480   79.8581 O   0  0  0  0  0  0  0  0  0  0  0  0
   33.0200   19.6231   79.4991 C   0  0  1  0  0  0  0  0  0  0  0  0
   33.0561   20.1438   80.8390 O   0  0  0  0  0  0  0  0  0  0  0  0
   32.2133   20.2907   78.3294 C   0  0  2  0  0  0  0  0  0  0  0  0
   35.7418   16.6789   70.7571 O   0  0  0  0  0  0  0  0  0  0  0  0
   27.1863   21.1737   77.3031 N   0  0  0  0  0  0  0  0  0  0  0  0
   28.1688   22.0631   77.4859 C   0  0  0  0  0  0  0  0  0  0  0  0
   29.4123   21.6801   77.7619 N   0  0  0  0  0  0  0  0  0  0  0  0
   29.7395   20.3778   77.8460 C   0  0  0  0  0  0  0  0  0  0  0  0
   28.7362   19.3923   77.6451 C   0  0  0  0  0  0  0  0  0  0  0  0
   27.4142   19.8480   77.3639 C   0  0  0  0  0  0  0  0  0  0  0  0
   26.3845   18.9515   77.1475 N   0  0  0  0  0  0  0  0  0  0  0  0
   29.3294   18.1834   77.7771 N   0  0  0  0  0  0  0  0  0  0  0  0
   30.5936   18.3534   78.0354 C   0  0  0  0  0  0  0  0  0  0  0  0
   30.8959   19.6920   78.0888 N   0  0  0  0  0  0  0  0  0  0  0  0
  2  1  1  6  0  0  0
  2  3  1  0  0  0  0
  2  5  1  0  0  0  0
  3  4  1  0  0  0  0
  3 17  1  0  0  0  0
  5  6  1  0  0  0  0
  7  6  1  6  0  0  0
  7  8  1  0  0  0  0
  7  9  1  0  0  0  0
 10  9  1  6  0  0  0
 10 11  1  0  0  0  0
 10 12  1  0  0  0  0
 11 16  1  0  0  0  0
 12 13  1  1  0  0  0
 12 14  1  0  0  0  0
 14 15  1  1  0  0  0
 14 16  1  0  0  0  0
 16 27  1  6  0  0  0
 18 19  2  0  0  0  0
 18 23  1  0  0  0  0
 19 20  1  0  0  0  0
 20 21  2  0  0  0  0
 21 22  1  0  0  0  0
 21 27  1  0  0  0  0
 22 23  2  0  0  0  0
 22 25  1  0  0  0  0
 23 24  1  0  0  0  0
 25 26  2  0  0  0  0
 26 27  1  0  0  0  0
M  END
>  <CHROM.1>
158.16343914,-63.04015140,177.10183363,-174.81161128,171.06051126,76.90258185
-107.61597345,33.02449764,19.48066119,76.29436490,0.64987518,-0.05526829
-2.01104379

>  <Name>
ligand

>  <RI>
0

>  <Rbt.Current_Directory>
/home/itssahil/PROJECTS/Mol_Feturizer/New_Systems/rnas/2QWY

>  <Rbt.Executable>
rbdock ($Id: //depot/dev/client3/rdock/2013.1/src/exe/rbdock.cxx#4 $)

>  <Rbt.Library>
libRbt.so (2013.1, Build901 2013/11/27)

>  <Rbt.Parameter_File>
/export/apps/rDock/src/rDock_2013.1_src/data/scripts/dock_solv.prm

>  <Rbt.Receptor>
prm/pocket_docking_2.prm

>  <SCORE>
-27.8419

>  <SCORE.INTER>
-24.2225

>  <SCORE.INTER.CONST>
1

>  <SCORE.INTER.POLAR>
0

>  <SCORE.INTER.ROT>
7

>  <SCORE.INTER.SOLV>
15.1863

>  <SCORE.INTER.VDW>
-29.4771

>  <SCORE.INTER.norm>
-0.897128

>  <SCORE.INTRA>
-3.61941

>  <SCORE.INTRA.DIHEDRAL>
-6.09423

>  <SCORE.INTRA.DIHEDRAL.0>
10.7382

>  <SCORE.INTRA.POLAR>
0

>  <SCORE.INTRA.POLAR.0>
0

>  <SCORE.INTRA.REPUL>
0

>  <SCORE.INTRA.REPUL.0>
0

>  <SCORE.INTRA.SOLV>
-0.548276

>  <SCORE.INTRA.SOLV.lig_0>
-49.2501

>  <SCORE.INTRA.VDW>
-0.298163

>  <SCORE.INTRA.VDW.0>
-1.75368

>  <SCORE.INTRA.norm>
-0.134052

>  <SCORE.RESTR>
0

>  <SCORE.RESTR.CAVITY>
0

>  <SCORE.RESTR.norm>
0

>  <SCORE.SYSTEM>
0

>  <SCORE.SYSTEM.CONST>
0

>  <SCORE.SYSTEM.DIHEDRAL>
0

>  <SCORE.SYSTEM.SOLV>
0

>  <SCORE.SYSTEM.norm>
0

>  <SCORE.heavy>
27

>  <SCORE.norm>
-1.03118

>  <RMSD>
0.814

$$$$
ligand
 OpenBabel11021811463D
libRbt.so/2013.1/901 2013/11/27
 27 29  0  0  0  0  0  0  0  0999 V2000
   37.1892   18.9349   70.5326 N   0  0  0  0  0  0  0  0  0  0  0  0
   36.9203   18.3089   71.8389 C   0  0  2  0  0  0  0  0  0  0  0  0
   36.1721   17.0059   71.6481 C   0  0  0  0  0  0  0  0  0  0  0  0
   36.0987   16.1923   72.5747 O   0  0  0  0  0  0  0  0  0  0  0  0
   36.0648   19.2522   72.6783 C   0  0  0  0  0  0  0  0  0  0  0  0
   36.0380   18.7999   74.1227 C   0  0  0  0  0  0  0  0  0  0  0  0
   34.9631   19.9230   75.0329 S   0  0  2  0  0  0  0  0  0  0  0  0
   36.0854   21.3442   75.1442 C   0  0  0  0  0  0  0  0  0  0  0  0
   35.1164   19.2440   76.7202 C   0  0  0  0  0  0  0  0  0  0  0  0
   34.2604   20.0819   77.6661 C   0  0  1  0  0  0  0  0  0  0  0  0
   32.9152   19.9286   77.2773 O   0  0  0  0  0  0  0  0  0  0  0  0
   34.3469   19.5683   79.1073 C   0  0  1  0  0  0  0  0  0  0  0  0
   35.3623   20.0652   79.9929 O   0  0  0  0  0  0  0  0  0  0  0  0
   32.8789   19.7075   79.6306 C   0  0  1  0  0  0  0  0  0  0  0  0
   32.9176   20.3469   80.9180 O   0  0  0  0  0  0  0  0  0  0  0  0
   32.1167   20.2965   78.3909 C   0  0  2  0  0  0  0  0  0  0  0  0
   35.5825   16.7941   70.5993 O   0  0  0  0  0  0  0  0  0  0  0  0
   27.1223   21.2929   77.3103 N   0  0  0  0  0  0  0  0  0  0  0  0
   28.1350   22.1568   77.4442 C   0  0  0  0  0  0  0  0  0  0  0  0
   29.3648   21.7474   77.7428 N   0  0  0  0  0  0  0  0  0  0  0  0
   29.6469   20.4414   77.9003 C   0  0  0  0  0  0  0  0  0  0  0  0
   28.6102   19.4812   77.7537 C   0  0  0  0  0  0  0  0  0  0  0  0
   27.3045   19.9656   77.4457 C   0  0  0  0  0  0  0  0  0  0  0  0
   26.2444   19.0944   77.2786 N   0  0  0  0  0  0  0  0  0  0  0  0
   29.1615   18.2619   77.9541 N   0  0  0  0  0  0  0  0  0  0  0  0
   30.4310   18.4026   78.2040 C   0  0  0  0  0  0  0  0  0  0  0  0
   30.7793   19.7309   78.1827 N   0  0  0  0  0  0  0  0  0  0  0  0
  2  1  1  6  0  0  0
  2  3  1  0  0  0  0
  2  5  1  0  0  0  0
  3  4  1  0  0  0  0
  3 17  1  0  0  0  0
  5  6  1  0  0  0  0
  7  6  1  6  0  0  0
  7  8  1  0  0  0  0
  7  9  1  0  0  0  0
 10  9  1  6  0  0  0
 10 11  1  0  0  0  0
 10 12  1  0  0  0  0
 11 16  1  0  0  0  0
 12 13  1  1  0  0  0
 12 14  1  0  0  0  0
 14 15  1  1  0  0  0
 14 16  1  0  0  0  0
 16 27  1  6  0  0  0
 18 19  2  0  0  0  0
 18 23  1  0  0  0  0
 19 20  1  0  0  0  0
 20 21  2  0  0  0  0
 21 22  1  0  0  0  0
 21 27  1  0  0  0  0
 22 23  2  0  0  0  0
 22 25  1  0  0  0  0
 23 24  1  0  0  0  0
 25 26  2  0  0  0  0
 26 27  1  0  0  0  0
M  END
>  <CHROM.1>
164.62138636,-166.76423994,-177.91723782,-75.69560522,179.84518549,64.17435071
-109.85179755,32.88697525,19.49487584,76.24668971,0.70317447,0.02163332,-1.86976907

>  <Name>
ligand

>  <RI>
0

>  <Rbt.Current_Directory>
/home/itssahil/PROJECTS/Mol_Feturizer/New_Systems/rnas/2QWY

>  <Rbt.Executable>
rbdock ($Id: //depot/dev/client3/rdock/2013.1/src/exe/rbdock.cxx#4 $)

>  <Rbt.Library>
libRbt.so (2013.1, Build901 2013/11/27)

>  <Rbt.Parameter_File>
/export/apps/rDock/src/rDock_2013.1_src/data/scripts/dock_solv.prm

>  <Rbt.Receptor>
prm/pocket_docking_2.prm

>  <SCORE>
-28.4743

>  <SCORE.INTER>
-24.714

>  <SCORE.INTER.CONST>
1

>  <SCORE.INTER.POLAR>
0

>  <SCORE.INTER.ROT>
7

>  <SCORE.INTER.SOLV>
17.6437

>  <SCORE.INTER.VDW>
-30.6239

>  <SCORE.INTER.norm>
-0.915331

>  <SCORE.INTRA>
-3.76037

>  <SCORE.INTRA.DIHEDRAL>
-6.50803

>  <SCORE.INTRA.DIHEDRAL.0>
10.7382

>  <SCORE.INTRA.POLAR>
0

>  <SCORE.INTRA.POLAR.0>
0

>  <SCORE.INTRA.REPUL>
0

>  <SCORE.INTRA.REPUL.0>
0

>  <SCORE.INTRA.SOLV>
-1.25359

>  <SCORE.INTRA.SOLV.lig_0>
-49.2501

>  <SCORE.INTRA.VDW>
0.120442

>  <SCORE.INTRA.VDW.0>
-1.75368

>  <SCORE.INTRA.norm>
-0.139273

>  <SCORE.RESTR>
0

>  <SCORE.RESTR.CAVITY>
0

>  <SCORE.RESTR.norm>
0

>  <SCORE.SYSTEM>
0

>  <SCORE.SYSTEM.CONST>
0

>  <SCORE.SYSTEM.DIHEDRAL>
0

>  <SCORE.SYSTEM.SOLV>
0

>  <SCORE.SYSTEM.norm>
0

>  <SCORE.heavy>
27

>  <SCORE.norm>
-1.0546

>  <RMSD>
0.818

$$$$
ligand
 OpenBabel11021811463D
libRbt.so/2013.1/901 2013/11/27
 27 29  0  0  0  0  0  0  0  0999 V2000
   37.2913   18.7959   70.5655 N   0  0  0  0  0  0  0  0  0  0  0  0
   36.9391   18.1631   71.8486 C   0  0  2  0  0  0  0  0  0  0  0  0
   36.1094   16.9195   71.6058 C   0  0  0  0  0  0  0  0  0  0  0  0
   35.6273   16.7047   70.4890 O   0  0  0  0  0  0  0  0  0  0  0  0
   36.1246   19.1459   72.6835 C   0  0  0  0  0  0  0  0  0  0  0  0
   36.0069   18.6580   74.1116 C   0  0  0  0  0  0  0  0  0  0  0  0
   35.0391   19.8683   75.0303 S   0  0  2  0  0  0  0  0  0  0  0  0
   36.2770   21.1912   75.1263 C   0  0  0  0  0  0  0  0  0  0  0  0
   35.1533   19.1815   76.7176 C   0  0  0  0  0  0  0  0  0  0  0  0
   34.3046   20.0370   77.6542 C   0  0  1  0  0  0  0  0  0  0  0  0
   32.9595   19.9023   77.2581 O   0  0  0  0  0  0  0  0  0  0  0  0
   34.3747   19.5294   79.0984 C   0  0  1  0  0  0  0  0  0  0  0  0
   35.3923   20.0152   79.9877 O   0  0  0  0  0  0  0  0  0  0  0  0
   32.9059   19.6936   79.6122 C   0  0  1  0  0  0  0  0  0  0  0  0
   32.9468   20.3387   80.8966 O   0  0  0  0  0  0  0  0  0  0  0  0
   32.1601   20.2879   78.3651 C   0  0  2  0  0  0  0  0  0  0  0  0
   35.9781   16.0954   72.4981 O   0  0  0  0  0  0  0  0  0  0  0  0
   27.1533   21.3686   77.4336 N   0  0  0  0  0  0  0  0  0  0  0  0
   28.1738   22.2184   77.5951 C   0  0  0  0  0  0  0  0  0  0  0  0
   29.4062   21.7868   77.8480 N   0  0  0  0  0  0  0  0  0  0  0  0
   29.6828   20.4726   77.9293 C   0  0  0  0  0  0  0  0  0  0  0  0
   28.6374   19.5275   77.7504 C   0  0  0  0  0  0  0  0  0  0  0  0
   27.3294   20.0350   77.4935 C   0  0  0  0  0  0  0  0  0  0  0  0
   26.2607   19.1798   77.2994 N   0  0  0  0  0  0  0  0  0  0  0  0
   29.1844   18.2961   77.8741 N   0  0  0  0  0  0  0  0  0  0  0  0
   30.4592   18.4161   78.1075 C   0  0  0  0  0  0  0  0  0  0  0  0
   30.8155   19.7417   78.1516 N   0  0  0  0  0  0  0  0  0  0  0  0
  2  1  1  6  0  0  0
  2  3  1  0  0  0  0
  2  5  1  0  0  0  0
  3  4  1  0  0  0  0
  3 17  1  0  0  0  0
  5  6  1  0  0  0  0
  7  6  1  6  0  0  0
  7  8  1  0  0  0  0
  7  9  1  0  0  0  0
 10  9  1  6  0  0  0
 10 11  1  0  0  0  0
 10 12  1  0  0  0  0
 11 16  1  0  0  0  0
 12 13  1  1  0  0  0
 12 14  1  0  0  0  0
 14 15  1  1  0  0  0
 14 16  1  0  0  0  0
 16 27  1  6  0  0  0
 18 19  2  0  0  0  0
 18 23  1  0  0  0  0
 19 20  1  0  0  0  0
 20 21  2  0  0  0  0
 21 22  1  0  0  0  0
 21 27  1  0  0  0  0
 22 23  2  0  0  0  0
 22 25  1  0  0  0  0
 23 24  1  0  0  0  0
 25 26  2  0  0  0  0
 26 27  1  0  0  0  0
M  END
>  <CHROM.1>
-12.88199666,-167.46421741,179.88210003,-72.42599132,-176.45538869,64.95859293
-113.55988312,32.92127853,19.46181741,76.24285985,0.71169094,0.02725025,-1.88578726

>  <Name>
ligand

>  <RI>
0

>  <Rbt.Current_Directory>
/home/itssahil/PROJECTS/Mol_Feturizer/New_Systems/rnas/2QWY

>  <Rbt.Executable>
rbdock ($Id: //depot/dev/client3/rdock/2013.1/src/exe/rbdock.cxx#4 $)

>  <Rbt.Library>
libRbt.so (2013.1, Build901 2013/11/27)

>  <Rbt.Parameter_File>
/export/apps/rDock/src/rDock_2013.1_src/data/scripts/dock_solv.prm

>  <Rbt.Receptor>
prm/pocket_docking_3.prm

>  <SCORE>
-28.4277

>  <SCORE.INTER>
-24.8947

>  <SCORE.INTER.CONST>
1

>  <SCORE.INTER.POLAR>
0

>  <SCORE.INTER.ROT>
7

>  <SCORE.INTER.SOLV>
17.0635

>  <SCORE.INTER.VDW>
-30.551

>  <SCORE.INTER.norm>
-0.922026

>  <SCORE.INTRA>
-3.53301

>  <SCORE.INTRA.DIHEDRAL>
-6.21721

>  <SCORE.INTRA.DIHEDRAL.0>
10.7382

>  <SCORE.INTRA.POLAR>
0

>  <SCORE.INTRA.POLAR.0>
0

>  <SCORE.INTRA.REPUL>
0

>  <SCORE.INTRA.REPUL.0>
0

>  <SCORE.INTRA.SOLV>
-1.24576

>  <SCORE.INTRA.SOLV.lig_0>
-49.2501

>  <SCORE.INTRA.VDW>
0.198479

>  <SCORE.INTRA.VDW.0>
-1.75368

>  <SCORE.INTRA.norm>
-0.130852

>  <SCORE.RESTR>
0

>  <SCORE.RESTR.CAVITY>
0

>  <SCORE.RESTR.norm>
0

>  <SCORE.SYSTEM>
0

>  <SCORE.SYSTEM.CONST>
0

>  <SCORE.SYSTEM.DIHEDRAL>
0

>  <SCORE.SYSTEM.SOLV>
0

>  <SCORE.SYSTEM.norm>
0

>  <SCORE.heavy>
27

>  <SCORE.norm>
-1.05288

>  <RMSD>
0.837

$$$$
ligand
 OpenBabel11021811463D
libRbt.so/2013.1/901 2013/11/27
 27 29  0  0  0  0  0  0  0  0999 V2000
   37.0806   17.0902   73.1702 N   0  0  0  0  0  0  0  0  0  0  0  0
   36.3083   18.2236   72.6322 C   0  0  2  0  0  0  0  0  0  0  0  0
   36.3722   18.2261   71.1190 C   0  0  0  0  0  0  0  0  0  0  0  0
   37.1208   19.0139   70.5318 O   0  0  0  0  0  0  0  0  0  0  0  0
   36.9040   19.5269   73.1546 C   0  0  0  0  0  0  0  0  0  0  0  0
   36.9644   19.5136   74.6671 C   0  0  0  0  0  0  0  0  0  0  0  0
   35.3653   20.0633   75.2882 S   0  0  2  0  0  0  0  0  0  0  0  0
   35.7816   21.7985   75.6154 C   0  0  0  0  0  0  0  0  0  0  0  0
   35.4094   19.3846   76.9820 C   0  0  0  0  0  0  0  0  0  0  0  0
   34.4532   20.1892   77.8582 C   0  0  1  0  0  0  0  0  0  0  0  0
   33.1441   19.9519   77.3955 O   0  0  0  0  0  0  0  0  0  0  0  0
   34.4830   19.7080   79.3129 C   0  0  1  0  0  0  0  0  0  0  0  0
   35.4147   20.2785   80.2449 O   0  0  0  0  0  0  0  0  0  0  0  0
   32.9811   19.7723   79.7470 C   0  0  1  0  0  0  0  0  0  0  0  0
   32.9077   20.4365   81.0202 O   0  0  0  0  0  0  0  0  0  0  0  0
   32.2617   20.2937   78.4526 C   0  0  2  0  0  0  0  0  0  0  0  0
   35.7345   17.3994   70.4846 O   0  0  0  0  0  0  0  0  0  0  0  0
   27.2272   20.9984   77.3295 N   0  0  0  0  0  0  0  0  0  0  0  0
   28.1718   21.9220   77.5405 C   0  0  0  0  0  0  0  0  0  0  0  0
   29.4228   21.5831   77.8390 N   0  0  0  0  0  0  0  0  0  0  0  0
   29.7967   20.2932   77.9186 C   0  0  0  0  0  0  0  0  0  0  0  0
   28.8355   19.2728   77.6882 C   0  0  0  0  0  0  0  0  0  0  0  0
   27.5033   19.6816   77.3835 C   0  0  0  0  0  0  0  0  0  0  0  0
   26.5126   18.7494   77.1379 N   0  0  0  0  0  0  0  0  0  0  0  0
   29.4707   18.0857   77.8220 N   0  0  0  0  0  0  0  0  0  0  0  0
   30.7221   18.3003   78.1081 C   0  0  0  0  0  0  0  0  0  0  0  0
   30.9729   19.6486   78.1795 N   0  0  0  0  0  0  0  0  0  0  0  0
  2  1  1  1  0  0  0
  2  3  1  0  0  0  0
  2  5  1  0  0  0  0
  3  4  1  0  0  0  0
  3 17  1  0  0  0  0
  5  6  1  0  0  0  0
  7  6  1  6  0  0  0
  7  8  1  0  0  0  0
  7  9  1  0  0  0  0
 10  9  1  6  0  0  0
 10 11  1  0  0  0  0
 10 12  1  0  0  0  0
 11 16  1  0  0  0  0
 12 13  1  1  0  0  0
 12 14  1  0  0  0  0
 14 15  1  1  0  0  0
 14 16  1  0  0  0  0
 16 27  1  6  0  0  0
 18 19  2  0  0  0  0
 18 23  1  0  0  0  0
 19 20  1  0  0  0  0
 20 21  2  0  0  0  0
 21 22  1  0  0  0  0
 21 27  1  0  0  0  0
 22 23  2  0  0  0  0
 22 25  1  0  0  0  0
 23 24  1  0  0  0  0
 25 26  2  0  0  0  0
 26 27  1  0  0  0  0
M  END
>  <CHROM.1>
-102.36865203,-55.02176809,-85.16424974,-98.23805296,156.82498442,66.28471836
-115.28316940,33.10384072,19.62890353,76.37771697,0.66269100,-0.02175957
-1.82322418

>  <Name>
ligand

>  <RI>
0

>  <Rbt.Current_Directory>
/home/itssahil/PROJECTS/Mol_Feturizer/New_Systems/rnas/2QWY

>  <Rbt.Executable>
rbdock ($Id: //depot/dev/client3/rdock/2013.1/src/exe/rbdock.cxx#4 $)

>  <Rbt.Library>
libRbt.so (2013.1, Build901 2013/11/27)

>  <Rbt.Parameter_File>
/export/apps/rDock/src/rDock_2013.1_src/data/scripts/dock_solv.prm

>  <Rbt.Receptor>
prm/pocket_docking_2.prm

>  <SCORE>
-24.0942

>  <SCORE.INTER>
-23.92

>  <SCORE.INTER.CONST>
1

>  <SCORE.INTER.POLAR>
0

>  <SCORE.INTER.ROT>
7

>  <SCORE.INTER.SOLV>
15.1451

>  <SCORE.INTER.VDW>
-29.2617

>  <SCORE.INTER.norm>
-0.885925

>  <SCORE.INTRA>
-0.174229

>  <SCORE.INTRA.DIHEDRAL>
-2.70907

>  <SCORE.INTRA.DIHEDRAL.0>
10.7382

>  <SCORE.INTRA.POLAR>
0

>  <SCORE.INTRA.POLAR.0>
0

>  <SCORE.INTRA.REPUL>
0

>  <SCORE.INTRA.REPUL.0>
0

>  <SCORE.INTRA.SOLV>
-0.0067568

>  <SCORE.INTRA.SOLV.lig_0>
-49.2501

>  <SCORE.INTRA.VDW>
1.18369

>  <SCORE.INTRA.VDW.0>
-1.75368

>  <SCORE.INTRA.norm>
-0.00645292

>  <SCORE.RESTR>
0

>  <SCORE.RESTR.CAVITY>
0

>  <SCORE.RESTR.norm>
0

>  <SCORE.SYSTEM>
0

>  <SCORE.SYSTEM.CONST>
0

>  <SCORE.SYSTEM.DIHEDRAL>
0

>  <SCORE.SYSTEM.SOLV>
0

>  <SCORE.SYSTEM.norm>
0

>  <SCORE.heavy>
27

>  <SCORE.norm>
-0.892378

>  <RMSD>
0.846

$$$$
ligand
 OpenBabel11021811463D
libRbt.so/2013.1/901 2013/11/27
 27 29  0  0  0  0  0  0  0  0999 V2000
   37.0844   17.0777   73.2167 N   0  0  0  0  0  0  0  0  0  0  0  0
   36.3206   18.1990   72.6423 C   0  0  2  0  0  0  0  0  0  0  0  0
   36.3899   18.1561   71.1299 C   0  0  0  0  0  0  0  0  0  0  0  0
   37.1686   18.8994   70.5241 O   0  0  0  0  0  0  0  0  0  0  0  0
   36.9219   19.5139   73.1279 C   0  0  0  0  0  0  0  0  0  0  0  0
   36.9825   19.5427   74.6402 C   0  0  0  0  0  0  0  0  0  0  0  0
   35.3649   20.0522   75.2477 S   0  0  2  0  0  0  0  0  0  0  0  0
   35.7317   21.8001   75.5670 C   0  0  0  0  0  0  0  0  0  0  0  0
   35.4164   19.3850   76.9459 C   0  0  0  0  0  0  0  0  0  0  0  0
   34.4577   20.1902   77.8189 C   0  0  1  0  0  0  0  0  0  0  0  0
   33.1505   19.9580   77.3482 O   0  0  0  0  0  0  0  0  0  0  0  0
   34.4780   19.7050   79.2724 C   0  0  1  0  0  0  0  0  0  0  0  0
   35.4061   20.2702   80.2111 O   0  0  0  0  0  0  0  0  0  0  0  0
   32.9739   19.7727   79.6982 C   0  0  1  0  0  0  0  0  0  0  0  0
   32.8953   20.4337   80.9728 O   0  0  0  0  0  0  0  0  0  0  0  0
   32.2633   20.2997   78.4013 C   0  0  2  0  0  0  0  0  0  0  0  0
   35.7250   17.3351   70.5163 O   0  0  0  0  0  0  0  0  0  0  0  0
   27.2281   21.0229   77.2932 N   0  0  0  0  0  0  0  0  0  0  0  0
   28.1730   21.9429   77.5177 C   0  0  0  0  0  0  0  0  0  0  0  0
   29.4242   21.5991   77.8099 N   0  0  0  0  0  0  0  0  0  0  0  0
   29.7979   20.3080   77.8693 C   0  0  0  0  0  0  0  0  0  0  0  0
   28.8362   19.2916   77.6239 C   0  0  0  0  0  0  0  0  0  0  0  0
   27.5039   19.7053   77.3265 C   0  0  0  0  0  0  0  0  0  0  0  0
   26.5127   18.7773   77.0674 N   0  0  0  0  0  0  0  0  0  0  0  0
   29.4712   18.1024   77.7388 N   0  0  0  0  0  0  0  0  0  0  0  0
   30.7229   18.3122   78.0272 C   0  0  0  0  0  0  0  0  0  0  0  0
   30.9740   19.6592   78.1192 N   0  0  0  0  0  0  0  0  0  0  0  0
  2  1  1  1  0  0  0
  2  3  1  0  0  0  0
  2  5  1  0  0  0  0
  3  4  1  0  0  0  0
  3 17  1  0  0  0  0
  5  6  1  0  0  0  0
  7  6  1  6  0  0  0
  7  8  1  0  0  0  0
  7  9  1  0  0  0  0
 10  9  1  6  0  0  0
 10 11  1  0  0  0  0
 10 12  1  0  0  0  0
 11 16  1  0  0  0  0
 12 13  1  1  0  0  0
 12 14  1  0  0  0  0
 14 15  1  1  0  0  0
 14 16  1  0  0  0  0
 16 27  1  6  0  0  0
 18 19  2  0  0  0  0
 18 23  1  0  0  0  0
 19 20  1  0  0  0  0
 20 21  2  0  0  0  0
 21 22  1  0  0  0  0
 21 27  1  0  0  0  0
 22 23  2  0  0  0  0
 22 25  1  0  0  0  0
 23 24  1  0  0  0  0
 25 26  2  0  0  0  0
 26 27  1  0  0  0  0
M  END
>  <CHROM.1>
-100.62862832,-54.77129807,-82.90633868,-99.55226394,155.48011886,65.43888458
-116.11934142,33.10556955,19.62403883,76.34289677,0.65749168,-0.01795439
-1.83141980

>  <Name>
ligand

>  <RI>
0

>  <Rbt.Current_Directory>
/home/itssahil/PROJECTS/Mol_Feturizer/New_Systems/rnas/2QWY

>  <Rbt.Executable>
rbdock ($Id: //depot/dev/client3/rdock/2013.1/src/exe/rbdock.cxx#4 $)

>  <Rbt.Library>
libRbt.so (2013.1, Build901 2013/11/27)

>  <Rbt.Parameter_File>
/export/apps/rDock/src/rDock_2013.1_src/data/scripts/dock_solv.prm

>  <Rbt.Receptor>
prm/pocket_docking_2.prm

>  <SCORE>
-24.1832

>  <SCORE.INTER>
-24.0169

>  <SCORE.INTER.CONST>
1

>  <SCORE.INTER.POLAR>
0

>  <SCORE.INTER.ROT>
7

>  <SCORE.INTER.SOLV>
15.202

>  <SCORE.INTER.VDW>
-29.3453

>  <SCORE.INTER.norm>
-0.889515

>  <SCORE.INTRA>
-0.166329

>  <SCORE.INTRA.DIHEDRAL>
-2.8022

>  <SCORE.INTRA.DIHEDRAL.0>
10.7382

>  <SCORE.INTRA.POLAR>
0

>  <SCORE.INTRA.POLAR.0>
0

>  <SCORE.INTRA.REPUL>
0

>  <SCORE.INTRA.REPUL.0>
0

>  <SCORE.INTRA.SOLV>
0.0394605

>  <SCORE.INTRA.SOLV.lig_0>
-49.2501

>  <SCORE.INTRA.VDW>
1.21504

>  <SCORE.INTRA.VDW.0>
-1.75368

>  <SCORE.INTRA.norm>
-0.00616033

>  <SCORE.RESTR>
0

>  <SCORE.RESTR.CAVITY>
0

>  <SCORE.RESTR.norm>
0

>  <SCORE.SYSTEM>
0

>  <SCORE.SYSTEM.CONST>
0

>  <SCORE.SYSTEM.DIHEDRAL>
0

>  <SCORE.SYSTEM.SOLV>
0

>  <SCORE.SYSTEM.norm>
0

>  <SCORE.heavy>
27

>  <SCORE.norm>
-0.895675

>  <RMSD>
0.849

$$$$
ligand
 OpenBabel11021811463D
libRbt.so/2013.1/901 2013/11/27
 27 29  0  0  0  0  0  0  0  0999 V2000
   37.5962   19.3801   72.3529 N   0  0  0  0  0  0  0  0  0  0  0  0
   37.5954   17.9578   72.7373 C   0  0  2  0  0  0  0  0  0  0  0  0
   37.1128   17.1060   71.5817 C   0  0  0  0  0  0  0  0  0  0  0  0
   36.8161   17.6336   70.5049 O   0  0  0  0  0  0  0  0  0  0  0  0
   36.6560   17.7612   73.9228 C   0  0  0  0  0  0  0  0  0  0  0  0
   36.9844   18.7422   75.0278 C   0  0  0  0  0  0  0  0  0  0  0  0
   35.4514   19.1397   75.8865 S   0  0  2  0  0  0  0  0  0  0  0  0
   34.4979   19.7558   74.4712 C   0  0  0  0  0  0  0  0  0  0  0  0
   35.9119   20.7132   76.6888 C   0  0  0  0  0  0  0  0  0  0  0  0
   35.0004   20.9354   77.8927 C   0  0  1  0  0  0  0  0  0  0  0  0
   33.6754   20.6983   77.4777 O   0  0  0  0  0  0  0  0  0  0  0  0
   35.2838   19.9228   79.0075 C   0  0  1  0  0  0  0  0  0  0  0  0
   36.2642   20.2122   80.0160 O   0  0  0  0  0  0  0  0  0  0  0  0
   33.8581   19.5675   79.5456 C   0  0  1  0  0  0  0  0  0  0  0  0
   33.8857   19.6445   80.9812 O   0  0  0  0  0  0  0  0  0  0  0  0
   32.9136   20.4422   78.6469 C   0  0  2  0  0  0  0  0  0  0  0  0
   37.0856   15.8899   71.6957 O   0  0  0  0  0  0  0  0  0  0  0  0
   27.8648   20.9770   77.4949 N   0  0  0  0  0  0  0  0  0  0  0  0
   28.7356   21.9157   77.8827 C   0  0  0  0  0  0  0  0  0  0  0  0
   30.0017   21.6184   78.1615 N   0  0  0  0  0  0  0  0  0  0  0  0
   30.4663   20.3614   78.0424 C   0  0  0  0  0  0  0  0  0  0  0  0
   29.5862   19.3296   77.6193 C   0  0  0  0  0  0  0  0  0  0  0  0
   28.2343   19.6911   77.3431 C   0  0  0  0  0  0  0  0  0  0  0  0
   27.3187   18.7466   76.9183 N   0  0  0  0  0  0  0  0  0  0  0  0
   30.3028   18.1827   77.5786 N   0  0  0  0  0  0  0  0  0  0  0  0
   31.5295   18.4321   77.9350 C   0  0  0  0  0  0  0  0  0  0  0  0
   31.6805   19.7644   78.2322 N   0  0  0  0  0  0  0  0  0  0  0  0
  2  1  1  6  0  0  0
  2  3  1  0  0  0  0
  2  5  1  0  0  0  0
  3  4  1  0  0  0  0
  3 17  1  0  0  0  0
  5  6  1  0  0  0  0
  7  6  1  6  0  0  0
  7  8  1  0  0  0  0
  7  9  1  0  0  0  0
 10  9  1  6  0  0  0
 10 11  1  0  0  0  0
 10 12  1  0  0  0  0
 11 16  1  0  0  0  0
 12 13  1  1  0  0  0
 12 14  1  0  0  0  0
 14 15  1  1  0  0  0
 14 16  1  0  0  0  0
 16 27  1  6  0  0  0
 18 19  2  0  0  0  0
 18 23  1  0  0  0  0
 19 20  1  0  0  0  0
 20 21  2  0  0  0  0
 21 22  1  0  0  0  0
 21 27  1  0  0  0  0
 22 23  2  0  0  0  0
 22 25  1  0  0  0  0
 23 24  1  0  0  0  0
 25 26  2  0  0  0  0
 26 27  1  0  0  0  0
M  END
>  <CHROM.1>
1.41020536,-51.57509508,148.32497148,-57.22521905,-157.03281346,-47.43884278
-97.98995980,33.62725588,19.39296994,76.44130024,0.69199752,0.03073287,-1.92001050

>  <Name>
ligand

>  <RI>
0

>  <Rbt.Current_Directory>
/home/itssahil/PROJECTS/Mol_Feturizer/New_Systems/rnas/2QWY

>  <Rbt.Executable>
rbdock ($Id: //depot/dev/client3/rdock/2013.1/src/exe/rbdock.cxx#4 $)

>  <Rbt.Library>
libRbt.so (2013.1, Build901 2013/11/27)

>  <Rbt.Parameter_File>
/export/apps/rDock/src/rDock_2013.1_src/data/scripts/dock_solv.prm

>  <Rbt.Receptor>
prm/pocket_docking_2.prm

>  <SCORE>
-14.4013

>  <SCORE.INTER>
-15.7085

>  <SCORE.INTER.CONST>
1

>  <SCORE.INTER.POLAR>
0

>  <SCORE.INTER.ROT>
7

>  <SCORE.INTER.SOLV>
17.1693

>  <SCORE.INTER.VDW>
-24.4621

>  <SCORE.INTER.norm>
-0.581796

>  <SCORE.INTRA>
1.28732

>  <SCORE.INTRA.DIHEDRAL>
-0.958919

>  <SCORE.INTRA.DIHEDRAL.0>
10.7382

>  <SCORE.INTRA.POLAR>
0

>  <SCORE.INTRA.POLAR.0>
0

>  <SCORE.INTRA.REPUL>
0

>  <SCORE.INTRA.REPUL.0>
0

>  <SCORE.INTRA.SOLV>
0.842013

>  <SCORE.INTRA.SOLV.lig_0>
-49.2501

>  <SCORE.INTRA.VDW>
1.34578

>  <SCORE.INTRA.VDW.0>
-1.75368

>  <SCORE.INTRA.norm>
0.0476787

>  <SCORE.RESTR>
0.0198266

>  <SCORE.RESTR.CAVITY>
0.0198266

>  <SCORE.RESTR.norm>
0.00073432

>  <SCORE.SYSTEM>
0

>  <SCORE.SYSTEM.CONST>
0

>  <SCORE.SYSTEM.DIHEDRAL>
0

>  <SCORE.SYSTEM.SOLV>
0

>  <SCORE.SYSTEM.norm>
0

>  <SCORE.heavy>
27

>  <SCORE.norm>
-0.533383

>  <RMSD>
0.858

$$$$
ligand
 OpenBabel11021811463D
libRbt.so/2013.1/901 2013/11/27
 27 29  0  0  0  0  0  0  0  0999 V2000
   37.2353   18.8227   70.5334 N   0  0  0  0  0  0  0  0  0  0  0  0
   36.9604   18.2103   71.8449 C   0  0  2  0  0  0  0  0  0  0  0  0
   36.2369   16.8922   71.6630 C   0  0  0  0  0  0  0  0  0  0  0  0
   36.2362   16.0553   72.5716 O   0  0  0  0  0  0  0  0  0  0  0  0
   36.0784   19.1503   72.6603 C   0  0  0  0  0  0  0  0  0  0  0  0
   36.0053   18.6921   74.1011 C   0  0  0  0  0  0  0  0  0  0  0  0
   34.9458   19.8439   74.9934 S   0  0  2  0  0  0  0  0  0  0  0  0
   36.0934   21.2452   75.0978 C   0  0  0  0  0  0  0  0  0  0  0  0
   35.0762   19.1790   76.6883 C   0  0  0  0  0  0  0  0  0  0  0  0
   34.2228   20.0365   77.6189 C   0  0  1  0  0  0  0  0  0  0  0  0
   32.8775   19.8841   77.2300 O   0  0  0  0  0  0  0  0  0  0  0  0
   34.3039   19.5458   79.0684 C   0  0  1  0  0  0  0  0  0  0  0  0
   35.3202   20.0515   79.9479 O   0  0  0  0  0  0  0  0  0  0  0  0
   32.8356   19.7011   79.5865 C   0  0  1  0  0  0  0  0  0  0  0  0
   32.8753   20.3609   80.8634 O   0  0  0  0  0  0  0  0  0  0  0  0
   32.0789   20.2740   78.3359 C   0  0  2  0  0  0  0  0  0  0  0  0
   35.5957   16.6890   70.6431 O   0  0  0  0  0  0  0  0  0  0  0  0
   27.0821   21.2844   77.2798 N   0  0  0  0  0  0  0  0  0  0  0  0
   28.0978   22.1455   77.4088 C   0  0  0  0  0  0  0  0  0  0  0  0
   29.3279   21.7326   77.7013 N   0  0  0  0  0  0  0  0  0  0  0  0
   29.6072   20.4258   77.8574 C   0  0  0  0  0  0  0  0  0  0  0  0
   28.5671   19.4685   77.7158 C   0  0  0  0  0  0  0  0  0  0  0  0
   27.2612   19.9566   77.4141 C   0  0  0  0  0  0  0  0  0  0  0  0
   26.1979   19.0883   77.2522 N   0  0  0  0  0  0  0  0  0  0  0  0
   29.1160   18.2477   77.9134 N   0  0  0  0  0  0  0  0  0  0  0  0
   30.3871   18.3848   78.1571 C   0  0  0  0  0  0  0  0  0  0  0  0
   30.7389   19.7121   78.1342 N   0  0  0  0  0  0  0  0  0  0  0  0
  2  1  1  6  0  0  0
  2  3  1  0  0  0  0
  2  5  1  0  0  0  0
  3  4  1  0  0  0  0
  3 17  1  0  0  0  0
  5  6  1  0  0  0  0
  7  6  1  6  0  0  0
  7  8  1  0  0  0  0
  7  9  1  0  0  0  0
 10  9  1  6  0  0  0
 10 11  1  0  0  0  0
 10 12  1  0  0  0  0
 11 16  1  0  0  0  0
 12 13  1  1  0  0  0
 12 14  1  0  0  0  0
 14 15  1  1  0  0  0
 14 16  1  0  0  0  0
 16 27  1  6  0  0  0
 18 19  2  0  0  0  0
 18 23  1  0  0  0  0
 19 20  1  0  0  0  0
 20 21  2  0  0  0  0
 21 22  1  0  0  0  0
 21 27  1  0  0  0  0
 22 23  2  0  0  0  0
 22 25  1  0  0  0  0
 23 24  1  0  0  0  0
 25 26  2  0  0  0  0
 26 27  1  0  0  0  0
M  END
>  <CHROM.1>
160.12803112,-168.56992375,-179.78907942,-74.23753560,-179.79081279,64.85558384
-110.86768973,32.87060726,19.44464008,76.21652089,0.69591691,0.02703264,-1.88191528

>  <Name>
ligand

>  <RI>
0

>  <Rbt.Current_Directory>
/home/itssahil/PROJECTS/Mol_Feturizer/New_Systems/rnas/2QWY

>  <Rbt.Executable>
rbdock ($Id: //depot/dev/client3/rdock/2013.1/src/exe/rbdock.cxx#4 $)

>  <Rbt.Library>
libRbt.so (2013.1, Build901 2013/11/27)

>  <Rbt.Parameter_File>
/export/apps/rDock/src/rDock_2013.1_src/data/scripts/dock_solv.prm

>  <Rbt.Receptor>
prm/pocket_docking_2.prm

>  <SCORE>
-28.5291

>  <SCORE.INTER>
-24.6569

>  <SCORE.INTER.CONST>
1

>  <SCORE.INTER.POLAR>
0

>  <SCORE.INTER.ROT>
7

>  <SCORE.INTER.SOLV>
17.3856

>  <SCORE.INTER.VDW>
-30.4998

>  <SCORE.INTER.norm>
-0.913217

>  <SCORE.INTRA>
-3.87227

>  <SCORE.INTRA.DIHEDRAL>
-6.71766

>  <SCORE.INTRA.DIHEDRAL.0>
10.7382

>  <SCORE.INTRA.POLAR>
0

>  <SCORE.INTRA.POLAR.0>
0

>  <SCORE.INTRA.REPUL>
0

>  <SCORE.INTRA.REPUL.0>
0

>  <SCORE.INTRA.SOLV>
-1.26135

>  <SCORE.INTRA.SOLV.lig_0>
-49.2501

>  <SCORE.INTRA.VDW>
0.117231

>  <SCORE.INTRA.VDW.0>
-1.75368

>  <SCORE.INTRA.norm>
-0.143418

>  <SCORE.RESTR>
0

>  <SCORE.RESTR.CAVITY>
0

>  <SCORE.RESTR.norm>
0

>  <SCORE.SYSTEM>
0

>  <SCORE.SYSTEM.CONST>
0

>  <SCORE.SYSTEM.DIHEDRAL>
0

>  <SCORE.SYSTEM.SOLV>
0

>  <SCORE.SYSTEM.norm>
0

>  <SCORE.heavy>
27

>  <SCORE.norm>
-1.05663

>  <RMSD>
0.860

$$$$
ligand
 OpenBabel11021811463D
libRbt.so/2013.1/901 2013/11/27
 27 29  0  0  0  0  0  0  0  0999 V2000
   37.2830   18.8266   70.5610 N   0  0  0  0  0  0  0  0  0  0  0  0
   36.9456   18.1991   71.8507 C   0  0  2  0  0  0  0  0  0  0  0  0
   36.1620   16.9237   71.6204 C   0  0  0  0  0  0  0  0  0  0  0  0
   35.6893   16.6798   70.5056 O   0  0  0  0  0  0  0  0  0  0  0  0
   36.0918   19.1637   72.6674 C   0  0  0  0  0  0  0  0  0  0  0  0
   36.0037   18.7049   74.1072 C   0  0  0  0  0  0  0  0  0  0  0  0
   34.9374   19.8581   74.9896 S   0  0  2  0  0  0  0  0  0  0  0  0
   36.0919   21.2515   75.1203 C   0  0  0  0  0  0  0  0  0  0  0  0
   35.0370   19.1825   76.6823 C   0  0  0  0  0  0  0  0  0  0  0  0
   34.1835   20.0467   77.6066 C   0  0  1  0  0  0  0  0  0  0  0  0
   32.8378   19.8874   77.2220 O   0  0  0  0  0  0  0  0  0  0  0  0
   34.2688   19.5696   79.0605 C   0  0  1  0  0  0  0  0  0  0  0  0
   35.2857   20.0859   79.9331 O   0  0  0  0  0  0  0  0  0  0  0  0
   32.8012   19.7264   79.5802 C   0  0  1  0  0  0  0  0  0  0  0  0
   32.8420   20.3982   80.8508 O   0  0  0  0  0  0  0  0  0  0  0  0
   32.0405   20.2858   78.3259 C   0  0  2  0  0  0  0  0  0  0  0  0
   36.0597   16.1048   72.5213 O   0  0  0  0  0  0  0  0  0  0  0  0
   27.0326   21.2784   77.3066 N   0  0  0  0  0  0  0  0  0  0  0  0
   28.0457   22.1433   77.4305 C   0  0  0  0  0  0  0  0  0  0  0  0
   29.2794   21.7348   77.7136 N   0  0  0  0  0  0  0  0  0  0  0  0
   29.5650   20.4288   77.8648 C   0  0  0  0  0  0  0  0  0  0  0  0
   28.5278   19.4676   77.7284 C   0  0  0  0  0  0  0  0  0  0  0  0
   27.2180   19.9510   77.4369 C   0  0  0  0  0  0  0  0  0  0  0  0
   26.1570   19.0788   77.2804 N   0  0  0  0  0  0  0  0  0  0  0  0
   29.0829   18.2486   77.9195 N   0  0  0  0  0  0  0  0  0  0  0  0
   30.3551   18.3903   78.1547 C   0  0  0  0  0  0  0  0  0  0  0  0
   30.7015   19.7190   78.1322 N   0  0  0  0  0  0  0  0  0  0  0  0
  2  1  1  6  0  0  0
  2  3  1  0  0  0  0
  2  5  1  0  0  0  0
  3  4  1  0  0  0  0
  3 17  1  0  0  0  0
  5  6  1  0  0  0  0
  7  6  1  6  0  0  0
  7  8  1  0  0  0  0
  7  9  1  0  0  0  0
 10  9  1  6  0  0  0
 10 11  1  0  0  0  0
 10 12  1  0  0  0  0
 11 16  1  0  0  0  0
 12 13  1  1  0  0  0
 12 14  1  0  0  0  0
 14 15  1  1  0  0  0
 14 16  1  0  0  0  0
 16 27  1  6  0  0  0
 18 19  2  0  0  0  0
 18 23  1  0  0  0  0
 19 20  1  0  0  0  0
 20 21  2  0  0  0  0
 21 22  1  0  0  0  0
 21 27  1  0  0  0  0
 22 23  2  0  0  0  0
 22 25  1  0  0  0  0
 23 24  1  0  0  0  0
 25 26  2  0  0  0  0
 26 27  1  0  0  0  0
M  END
>  <CHROM.1>
-13.21650323,-166.43311166,-178.06874845,-74.76279344,179.74705993,66.36573348
-111.58966455,32.84114252,19.45474183,76.21130423,0.69765327,0.01735365,-1.88954705

>  <Name>
ligand

>  <RI>
0

>  <Rbt.Current_Directory>
/home/itssahil/PROJECTS/Mol_Feturizer/New_Systems/rnas/2QWY

>  <Rbt.Executable>
rbdock ($Id: //depot/dev/client3/rdock/2013.1/src/exe/rbdock.cxx#4 $)

>  <Rbt.Library>
libRbt.so (2013.1, Build901 2013/11/27)

>  <Rbt.Parameter_File>
/export/apps/rDock/src/rDock_2013.1_src/data/scripts/dock_solv.prm

>  <Rbt.Receptor>
prm/pocket_docking_2.prm

>  <SCORE>
-28.4305

>  <SCORE.INTER>
-24.8119

>  <SCORE.INTER.CONST>
1

>  <SCORE.INTER.POLAR>
0

>  <SCORE.INTER.ROT>
7

>  <SCORE.INTER.SOLV>
17.1713

>  <SCORE.INTER.VDW>
-30.5317

>  <SCORE.INTER.norm>
-0.918961

>  <SCORE.INTRA>
-3.61861

>  <SCORE.INTRA.DIHEDRAL>
-6.21268

>  <SCORE.INTRA.DIHEDRAL.0>
10.7382

>  <SCORE.INTRA.POLAR>
0

>  <SCORE.INTRA.POLAR.0>
0

>  <SCORE.INTRA.REPUL>
0

>  <SCORE.INTRA.REPUL.0>
0

>  <SCORE.INTRA.SOLV>
-1.24583

>  <SCORE.INTRA.SOLV.lig_0>
-49.2501

>  <SCORE.INTRA.VDW>
0.110652

>  <SCORE.INTRA.VDW.0>
-1.75368

>  <SCORE.INTRA.norm>
-0.134022

>  <SCORE.RESTR>
0

>  <SCORE.RESTR.CAVITY>
0

>  <SCORE.RESTR.norm>
0

>  <SCORE.SYSTEM>
0

>  <SCORE.SYSTEM.CONST>
0

>  <SCORE.SYSTEM.DIHEDRAL>
0

>  <SCORE.SYSTEM.SOLV>
0

>  <SCORE.SYSTEM.norm>
0

>  <SCORE.heavy>
27

>  <SCORE.norm>
-1.05298

>  <RMSD>
0.865

$$$$
ligand
 OpenBabel11021811463D
libRbt.so/2013.1/901 2013/11/27
 27 29  0  0  0  0  0  0  0  0999 V2000
   37.3400   18.4975   71.5890 N   0  0  0  0  0  0  0  0  0  0  0  0
   36.8468   17.6322   72.6746 C   0  0  2  0  0  0  0  0  0  0  0  0
   36.1335   16.4273   72.0972 C   0  0  0  0  0  0  0  0  0  0  0  0
   35.9609   15.4189   72.7895 O   0  0  0  0  0  0  0  0  0  0  0  0
   35.8665   18.4213   73.5364 C   0  0  0  0  0  0  0  0  0  0  0  0
   36.5583   19.6053   74.1774 C   0  0  0  0  0  0  0  0  0  0  0  0
   35.3325   20.5033   75.1450 S   0  0  2  0  0  0  0  0  0  0  0  0
   36.3574   21.9160   75.6403 C   0  0  0  0  0  0  0  0  0  0  0  0
   35.3401   19.5284   76.6881 C   0  0  0  0  0  0  0  0  0  0  0  0
   34.4649   20.2352   77.7196 C   0  0  1  0  0  0  0  0  0  0  0  0
   33.1238   20.0976   77.3114 O   0  0  0  0  0  0  0  0  0  0  0  0
   34.5613   19.5642   79.0939 C   0  0  1  0  0  0  0  0  0  0  0  0
   35.5646   19.9799   80.0335 O   0  0  0  0  0  0  0  0  0  0  0  0
   33.0901   19.6114   79.6245 C   0  0  1  0  0  0  0  0  0  0  0  0
   33.1135   20.1020   80.9759 O   0  0  0  0  0  0  0  0  0  0  0  0
   32.3163   20.3198   78.4566 C   0  0  2  0  0  0  0  0  0  0  0  0
   35.6678   16.4824   70.9690 O   0  0  0  0  0  0  0  0  0  0  0  0
   27.3240   21.3231   77.3726 N   0  0  0  0  0  0  0  0  0  0  0  0
   28.3201   22.1889   77.5919 C   0  0  0  0  0  0  0  0  0  0  0  0
   29.5515   21.7758   77.8782 N   0  0  0  0  0  0  0  0  0  0  0  0
   29.8526   20.4658   77.9366 C   0  0  0  0  0  0  0  0  0  0  0  0
   28.8344   19.5047   77.6966 C   0  0  0  0  0  0  0  0  0  0  0  0
   27.5259   19.9922   77.4055 C   0  0  0  0  0  0  0  0  0  0  0  0
   26.4831   19.1210   77.1518 N   0  0  0  0  0  0  0  0  0  0  0  0
   29.4024   18.2819   77.8092 N   0  0  0  0  0  0  0  0  0  0  0  0
   30.6653   18.4214   78.0913 C   0  0  0  0  0  0  0  0  0  0  0  0
   30.9919   19.7524   78.1812 N   0  0  0  0  0  0  0  0  0  0  0  0
  2  1  1  6  0  0  0
  2  3  1  0  0  0  0
  2  5  1  0  0  0  0
  3  4  1  0  0  0  0
  3 17  1  0  0  0  0
  5  6  1  0  0  0  0
  7  6  1  6  0  0  0
  7  8  1  0  0  0  0
  7  9  1  0  0  0  0
 10  9  1  6  0  0  0
 10 11  1  0  0  0  0
 10 12  1  0  0  0  0
 11 16  1  0  0  0  0
 12 13  1  1  0  0  0
 12 14  1  0  0  0  0
 14 15  1  1  0  0  0
 14 16  1  0  0  0  0
 16 27  1  6  0  0  0
 18 19  2  0  0  0  0
 18 23  1  0  0  0  0
 19 20  1  0  0  0  0
 20 21  2  0  0  0  0
 21 22  1  0  0  0  0
 21 27  1  0  0  0  0
 22 23  2  0  0  0  0
 22 25  1  0  0  0  0
 23 24  1  0  0  0  0
 25 26  2  0  0  0  0
 26 27  1  0  0  0  0
M  END
>  <CHROM.1>
160.70130497,-62.02618211,178.78136699,-174.51913341,173.48874619,70.91975097
-107.72268030,33.07127672,19.47766554,76.41544647,0.66396695,-0.02731834
-2.01765419

>  <Name>
ligand

>  <RI>
0

>  <Rbt.Current_Directory>
/home/itssahil/PROJECTS/Mol_Feturizer/New_Systems/rnas/2QWY

>  <Rbt.Executable>
rbdock ($Id: //depot/dev/client3/rdock/2013.1/src/exe/rbdock.cxx#4 $)

>  <Rbt.Library>
libRbt.so (2013.1, Build901 2013/11/27)

>  <Rbt.Parameter_File>
/export/apps/rDock/src/rDock_2013.1_src/data/scripts/dock_solv.prm

>  <Rbt.Receptor>
prm/pocket_docking_6.prm

>  <SCORE>
-27.8904

>  <SCORE.INTER>
-24.0265

>  <SCORE.INTER.CONST>
1

>  <SCORE.INTER.POLAR>
0

>  <SCORE.INTER.ROT>
7

>  <SCORE.INTER.SOLV>
14.602

>  <SCORE.INTER.VDW>
-29.1516

>  <SCORE.INTER.norm>
-0.889869

>  <SCORE.INTRA>
-3.864

>  <SCORE.INTRA.DIHEDRAL>
-6.63235

>  <SCORE.INTRA.DIHEDRAL.0>
10.7382

>  <SCORE.INTRA.POLAR>
0

>  <SCORE.INTRA.POLAR.0>
0

>  <SCORE.INTRA.REPUL>
0

>  <SCORE.INTRA.REPUL.0>
0

>  <SCORE.INTRA.SOLV>
-0.533671

>  <SCORE.INTRA.SOLV.lig_0>
-49.2501

>  <SCORE.INTRA.VDW>
-0.280987

>  <SCORE.INTRA.VDW.0>
-1.75368

>  <SCORE.INTRA.norm>
-0.143111

>  <SCORE.RESTR>
0

>  <SCORE.RESTR.CAVITY>
0

>  <SCORE.RESTR.norm>
0

>  <SCORE.SYSTEM>
0

>  <SCORE.SYSTEM.CONST>
0

>  <SCORE.SYSTEM.DIHEDRAL>
0

>  <SCORE.SYSTEM.SOLV>
0

>  <SCORE.SYSTEM.norm>
0

>  <SCORE.heavy>
27

>  <SCORE.norm>
-1.03298

>  <RMSD>
0.867

$$$$
ligand
 OpenBabel11021811463D
libRbt.so/2013.1/901 2013/11/27
 27 29  0  0  0  0  0  0  0  0999 V2000
   37.2698   18.7382   70.5542 N   0  0  0  0  0  0  0  0  0  0  0  0
   36.9384   18.1266   71.8529 C   0  0  2  0  0  0  0  0  0  0  0  0
   36.1626   16.8431   71.6415 C   0  0  0  0  0  0  0  0  0  0  0  0
   36.0612   16.0222   72.5589 O   0  0  0  0  0  0  0  0  0  0  0  0
   36.0796   19.0969   72.6575 C   0  0  0  0  0  0  0  0  0  0  0  0
   35.9991   18.6593   74.1043 C   0  0  0  0  0  0  0  0  0  0  0  0
   34.9339   19.8228   74.9744 S   0  0  2  0  0  0  0  0  0  0  0  0
   36.0869   21.2194   75.0828 C   0  0  0  0  0  0  0  0  0  0  0  0
   35.0395   19.1702   76.6757 C   0  0  0  0  0  0  0  0  0  0  0  0
   34.1968   20.0524   77.5929 C   0  0  1  0  0  0  0  0  0  0  0  0
   32.8469   19.8871   77.2262 O   0  0  0  0  0  0  0  0  0  0  0  0
   34.2978   19.6028   79.0545 C   0  0  1  0  0  0  0  0  0  0  0  0
   35.3246   20.1346   79.9059 O   0  0  0  0  0  0  0  0  0  0  0  0
   32.8361   19.7706   79.5872 C   0  0  1  0  0  0  0  0  0  0  0  0
   32.8914   20.4662   80.8445 O   0  0  0  0  0  0  0  0  0  0  0  0
   32.0621   20.3069   78.3311 C   0  0  2  0  0  0  0  0  0  0  0  0
   35.5788   16.6554   70.5848 O   0  0  0  0  0  0  0  0  0  0  0  0
   27.0431   21.2849   77.3526 N   0  0  0  0  0  0  0  0  0  0  0  0
   28.0580   22.1511   77.4495 C   0  0  0  0  0  0  0  0  0  0  0  0
   29.2947   21.7468   77.7254 N   0  0  0  0  0  0  0  0  0  0  0  0
   29.5814   20.4435   77.8963 C   0  0  0  0  0  0  0  0  0  0  0  0
   28.5423   19.4807   77.7887 C   0  0  0  0  0  0  0  0  0  0  0  0
   27.2293   19.9599   77.5039 C   0  0  0  0  0  0  0  0  0  0  0  0
   26.1662   19.0858   77.3750 N   0  0  0  0  0  0  0  0  0  0  0  0
   29.0990   18.2649   77.9947 N   0  0  0  0  0  0  0  0  0  0  0  0
   30.3739   18.4098   78.2127 C   0  0  0  0  0  0  0  0  0  0  0  0
   30.7206   19.7377   78.1629 N   0  0  0  0  0  0  0  0  0  0  0  0
  2  1  1  6  0  0  0
  2  3  1  0  0  0  0
  2  5  1  0  0  0  0
  3  4  1  0  0  0  0
  3 17  1  0  0  0  0
  5  6  1  0  0  0  0
  7  6  1  6  0  0  0
  7  8  1  0  0  0  0
  7  9  1  0  0  0  0
 10  9  1  6  0  0  0
 10 11  1  0  0  0  0
 10 12  1  0  0  0  0
 11 16  1  0  0  0  0
 12 13  1  1  0  0  0
 12 14  1  0  0  0  0
 14 15  1  1  0  0  0
 14 16  1  0  0  0  0
 16 27  1  6  0  0  0
 18 19  2  0  0  0  0
 18 23  1  0  0  0  0
 19 20  1  0  0  0  0
 20 21  2  0  0  0  0
 21 22  1  0  0  0  0
 21 27  1  0  0  0  0
 22 23  2  0  0  0  0
 22 25  1  0  0  0  0
 23 24  1  0  0  0  0
 25 26  2  0  0  0  0
 26 27  1  0  0  0  0
M  END
>  <CHROM.1>
162.92125065,-166.30283600,-178.37736003,-74.89540046,179.28859997,66.87429697
-111.67156271,32.84703946,19.44606822,76.22825809,0.70327386,0.01457174,-1.90342229

>  <Name>
ligand

>  <RI>
0

>  <Rbt.Current_Directory>
/home/itssahil/PROJECTS/Mol_Feturizer/New_Systems/rnas/2QWY

>  <Rbt.Executable>
rbdock ($Id: //depot/dev/client3/rdock/2013.1/src/exe/rbdock.cxx#4 $)

>  <Rbt.Library>
libRbt.so (2013.1, Build901 2013/11/27)

>  <Rbt.Parameter_File>
/export/apps/rDock/src/rDock_2013.1_src/data/scripts/dock_solv.prm

>  <Rbt.Receptor>
prm/pocket_docking_2.prm

>  <SCORE>
-28.5559

>  <SCORE.INTER>
-24.7943

>  <SCORE.INTER.CONST>
1

>  <SCORE.INTER.POLAR>
0

>  <SCORE.INTER.ROT>
7

>  <SCORE.INTER.SOLV>
17.0309

>  <SCORE.INTER.VDW>
-30.4732

>  <SCORE.INTER.norm>
-0.918308

>  <SCORE.INTRA>
-3.7616

>  <SCORE.INTRA.DIHEDRAL>
-6.4223

>  <SCORE.INTRA.DIHEDRAL.0>
10.7382

>  <SCORE.INTRA.POLAR>
0

>  <SCORE.INTRA.POLAR.0>
0

>  <SCORE.INTRA.REPUL>
0

>  <SCORE.INTRA.REPUL.0>
0

>  <SCORE.INTRA.SOLV>
-1.26138

>  <SCORE.INTRA.SOLV.lig_0>
-49.2501

>  <SCORE.INTRA.VDW>
0.0802429

>  <SCORE.INTRA.VDW.0>
-1.75368

>  <SCORE.INTRA.norm>
-0.139318

>  <SCORE.RESTR>
0

>  <SCORE.RESTR.CAVITY>
0

>  <SCORE.RESTR.norm>
0

>  <SCORE.SYSTEM>
0

>  <SCORE.SYSTEM.CONST>
0

>  <SCORE.SYSTEM.DIHEDRAL>
0

>  <SCORE.SYSTEM.SOLV>
0

>  <SCORE.SYSTEM.norm>
0

>  <SCORE.heavy>
27

>  <SCORE.norm>
-1.05763

>  <RMSD>
0.884

$$$$
ligand
 OpenBabel11021811463D
libRbt.so/2013.1/901 2013/11/27
 27 29  0  0  0  0  0  0  0  0999 V2000
   37.3038   18.5585   70.5176 N   0  0  0  0  0  0  0  0  0  0  0  0
   36.9571   17.9677   71.8220 C   0  0  2  0  0  0  0  0  0  0  0  0
   36.1606   16.6951   71.6224 C   0  0  0  0  0  0  0  0  0  0  0  0
   36.0693   15.8712   72.5382 O   0  0  0  0  0  0  0  0  0  0  0  0
   36.1117   18.9616   72.6118 C   0  0  0  0  0  0  0  0  0  0  0  0
   35.9900   18.5241   74.0559 C   0  0  0  0  0  0  0  0  0  0  0  0
   35.0148   19.7630   74.9275 S   0  0  2  0  0  0  0  0  0  0  0  0
   36.2471   21.0936   74.9786 C   0  0  0  0  0  0  0  0  0  0  0  0
   35.1272   19.1384   76.6389 C   0  0  0  0  0  0  0  0  0  0  0  0
   34.2811   20.0304   77.5434 C   0  0  1  0  0  0  0  0  0  0  0  0
   32.9332   19.8668   77.1684 O   0  0  0  0  0  0  0  0  0  0  0  0
   34.3703   19.5916   79.0090 C   0  0  1  0  0  0  0  0  0  0  0  0
   35.3929   20.1265   79.8636 O   0  0  0  0  0  0  0  0  0  0  0  0
   32.9055   19.7683   79.5302 C   0  0  1  0  0  0  0  0  0  0  0  0
   32.9543   20.4734   80.7824 O   0  0  0  0  0  0  0  0  0  0  0  0
   32.1421   20.2977   78.2646 C   0  0  2  0  0  0  0  0  0  0  0  0
   35.5512   16.5197   70.5781 O   0  0  0  0  0  0  0  0  0  0  0  0
   27.1037   21.3010   77.4207 N   0  0  0  0  0  0  0  0  0  0  0  0
   28.1171   22.1658   77.5430 C   0  0  0  0  0  0  0  0  0  0  0  0
   29.3598   21.7537   77.7777 N   0  0  0  0  0  0  0  0  0  0  0  0
   29.6539   20.4447   77.8791 C   0  0  0  0  0  0  0  0  0  0  0  0
   28.6164   19.4840   77.7418 C   0  0  0  0  0  0  0  0  0  0  0  0
   27.2971   19.9710   77.5033 C   0  0  0  0  0  0  0  0  0  0  0  0
   26.2350   19.0997   77.3496 N   0  0  0  0  0  0  0  0  0  0  0  0
   29.1808   18.2619   77.8782 N   0  0  0  0  0  0  0  0  0  0  0  0
   30.4587   18.4014   78.0814 C   0  0  0  0  0  0  0  0  0  0  0  0
   30.7999   19.7317   78.0913 N   0  0  0  0  0  0  0  0  0  0  0  0
  2  1  1  6  0  0  0
  2  3  1  0  0  0  0
  2  5  1  0  0  0  0
  3  4  1  0  0  0  0
  3 17  1  0  0  0  0
  5  6  1  0  0  0  0
  7  6  1  6  0  0  0
  7  8  1  0  0  0  0
  7  9  1  0  0  0  0
 10  9  1  6  0  0  0
 10 11  1  0  0  0  0
 10 12  1  0  0  0  0
 11 16  1  0  0  0  0
 12 13  1  1  0  0  0
 12 14  1  0  0  0  0
 14 15  1  1  0  0  0
 14 16  1  0  0  0  0
 16 27  1  6  0  0  0
 18 19  2  0  0  0  0
 18 23  1  0  0  0  0
 19 20  1  0  0  0  0
 20 21  2  0  0  0  0
 21 22  1  0  0  0  0
 21 27  1  0  0  0  0
 22 23  2  0  0  0  0
 22 25  1  0  0  0  0
 23 24  1  0  0  0  0
 25 26  2  0  0  0  0
 26 27  1  0  0  0  0
M  END
>  <CHROM.1>
161.14239103,-167.69526588,178.69159119,-72.32340996,-176.88786903,66.00246486
-115.23822557,32.90774025,19.39669779,76.19121066,0.71130170,0.01326874,-1.92826427

>  <Name>
ligand

>  <RI>
0

>  <Rbt.Current_Directory>
/home/itssahil/PROJECTS/Mol_Feturizer/New_Systems/rnas/2QWY

>  <Rbt.Executable>
rbdock ($Id: //depot/dev/client3/rdock/2013.1/src/exe/rbdock.cxx#4 $)

>  <Rbt.Library>
libRbt.so (2013.1, Build901 2013/11/27)

>  <Rbt.Parameter_File>
/export/apps/rDock/src/rDock_2013.1_src/data/scripts/dock_solv.prm

>  <Rbt.Receptor>
prm/pocket_docking_2.prm

>  <SCORE>
-28.5479

>  <SCORE.INTER>
-24.8322

>  <SCORE.INTER.CONST>
1

>  <SCORE.INTER.POLAR>
0

>  <SCORE.INTER.ROT>
7

>  <SCORE.INTER.SOLV>
16.9722

>  <SCORE.INTER.VDW>
-30.4789

>  <SCORE.INTER.norm>
-0.919712

>  <SCORE.INTRA>
-3.71707

>  <SCORE.INTRA.DIHEDRAL>
-6.44833

>  <SCORE.INTRA.DIHEDRAL.0>
10.7382

>  <SCORE.INTRA.POLAR>
0

>  <SCORE.INTRA.POLAR.0>
0

>  <SCORE.INTRA.REPUL>
0

>  <SCORE.INTRA.REPUL.0>
0

>  <SCORE.INTRA.SOLV>
-1.26438

>  <SCORE.INTRA.SOLV.lig_0>
-49.2501

>  <SCORE.INTRA.VDW>
0.139285

>  <SCORE.INTRA.VDW.0>
-1.75368

>  <SCORE.INTRA.norm>
-0.137669

>  <SCORE.RESTR>
0.00135605

>  <SCORE.RESTR.CAVITY>
0.00135605

>  <SCORE.RESTR.norm>
5.02242e-05

>  <SCORE.SYSTEM>
0

>  <SCORE.SYSTEM.CONST>
0

>  <SCORE.SYSTEM.DIHEDRAL>
0

>  <SCORE.SYSTEM.SOLV>
0

>  <SCORE.SYSTEM.norm>
0

>  <SCORE.heavy>
27

>  <SCORE.norm>
-1.05733

>  <RMSD>
0.909

$$$$
ligand
 OpenBabel11021811463D
libRbt.so/2013.1/901 2013/11/27
 27 29  0  0  0  0  0  0  0  0999 V2000
   38.2350   17.9340   72.7656 N   0  0  0  0  0  0  0  0  0  0  0  0
   36.8713   17.9423   72.2079 C   0  0  2  0  0  0  0  0  0  0  0  0
   36.8436   18.7235   70.9107 C   0  0  0  0  0  0  0  0  0  0  0  0
   37.1616   19.9171   70.8994 O   0  0  0  0  0  0  0  0  0  0  0  0
   35.9276   18.6062   73.2054 C   0  0  0  0  0  0  0  0  0  0  0  0
   36.5424   19.8771   73.7517 C   0  0  0  0  0  0  0  0  0  0  0  0
   35.3133   20.6802   74.7956 S   0  0  2  0  0  0  0  0  0  0  0  0
   36.3142   22.0816   75.3666 C   0  0  0  0  0  0  0  0  0  0  0  0
   35.3700   19.6069   76.2709 C   0  0  0  0  0  0  0  0  0  0  0  0
   34.5317   20.2455   77.3750 C   0  0  1  0  0  0  0  0  0  0  0  0
   33.1748   20.0493   77.0518 O   0  0  0  0  0  0  0  0  0  0  0  0
   34.7520   19.5499   78.7225 C   0  0  1  0  0  0  0  0  0  0  0  0
   35.7940   19.9949   79.6049 O   0  0  0  0  0  0  0  0  0  0  0  0
   33.3188   19.5108   79.3491 C   0  0  1  0  0  0  0  0  0  0  0  0
   33.4079   19.9719   80.7082 O   0  0  0  0  0  0  0  0  0  0  0  0
   32.4353   20.2050   78.2526 C   0  0  2  0  0  0  0  0  0  0  0  0
   36.5743   18.1518   69.8651 O   0  0  0  0  0  0  0  0  0  0  0  0
   27.3656   20.9768   77.3542 N   0  0  0  0  0  0  0  0  0  0  0  0
   28.3337   21.8876   77.5065 C   0  0  0  0  0  0  0  0  0  0  0  0
   29.5917   21.5323   77.7517 N   0  0  0  0  0  0  0  0  0  0  0  0
   29.9483   20.2376   77.8340 C   0  0  0  0  0  0  0  0  0  0  0  0
   28.9611   19.2302   77.6647 C   0  0  0  0  0  0  0  0  0  0  0  0
   27.6229   19.6565   77.4160 C   0  0  0  0  0  0  0  0  0  0  0  0
   26.6069   18.7375   77.2315 N   0  0  0  0  0  0  0  0  0  0  0  0
   29.5828   18.0347   77.7874 N   0  0  0  0  0  0  0  0  0  0  0  0
   30.8495   18.2326   78.0115 C   0  0  0  0  0  0  0  0  0  0  0  0
   31.1249   19.5775   78.0499 N   0  0  0  0  0  0  0  0  0  0  0  0
  2  1  1  1  0  0  0
  2  3  1  0  0  0  0
  2  5  1  0  0  0  0
  3  4  1  0  0  0  0
  3 17  1  0  0  0  0
  5  6  1  0  0  0  0
  7  6  1  6  0  0  0
  7  8  1  0  0  0  0
  7  9  1  0  0  0  0
 10  9  1  6  0  0  0
 10 11  1  0  0  0  0
 10 12  1  0  0  0  0
 11 16  1  0  0  0  0
 12 13  1  1  0  0  0
 12 14  1  0  0  0  0
 14 15  1  1  0  0  0
 14 16  1  0  0  0  0
 16 27  1  6  0  0  0
 18 19  2  0  0  0  0
 18 23  1  0  0  0  0
 19 20  1  0  0  0  0
 20 21  2  0  0  0  0
 21 22  1  0  0  0  0
 21 27  1  0  0  0  0
 22 23  2  0  0  0  0
 22 25  1  0  0  0  0
 23 24  1  0  0  0  0
 25 26  2  0  0  0  0
 26 27  1  0  0  0  0
M  END
>  <CHROM.1>
-60.35164370,45.30234700,174.72877911,177.26327231,171.75909283,75.13047694
-104.35296229,33.29014769,19.72639187,76.10568939,-0.64932340,0.02751054
1.40249088

>  <Name>
ligand

>  <RI>
0

>  <Rbt.Current_Directory>
/home/itssahil/PROJECTS/Mol_Feturizer/New_Systems/rnas/2QWY

>  <Rbt.Executable>
rbdock ($Id: //depot/dev/client3/rdock/2013.1/src/exe/rbdock.cxx#4 $)

>  <Rbt.Library>
libRbt.so (2013.1, Build901 2013/11/27)

>  <Rbt.Parameter_File>
/export/apps/rDock/src/rDock_2013.1_src/data/scripts/dock_solv.prm

>  <Rbt.Receptor>
prm/pocket_docking_2.prm

>  <SCORE>
-26.7382

>  <SCORE.INTER>
-24.6968

>  <SCORE.INTER.CONST>
1

>  <SCORE.INTER.POLAR>
0

>  <SCORE.INTER.ROT>
7

>  <SCORE.INTER.SOLV>
15.0381

>  <SCORE.INTER.VDW>
-29.7439

>  <SCORE.INTER.norm>
-0.914698

>  <SCORE.INTRA>
-2.40478

>  <SCORE.INTRA.DIHEDRAL>
-5.73412

>  <SCORE.INTRA.DIHEDRAL.0>
10.7382

>  <SCORE.INTRA.POLAR>
0

>  <SCORE.INTRA.POLAR.0>
0

>  <SCORE.INTRA.REPUL>
0

>  <SCORE.INTRA.REPUL.0>
0

>  <SCORE.INTRA.SOLV>
-0.365545

>  <SCORE.INTRA.SOLV.lig_0>
-49.2501

>  <SCORE.INTRA.VDW>
0.645051

>  <SCORE.INTRA.VDW.0>
-1.75368

>  <SCORE.INTRA.norm>
-0.0890659

>  <SCORE.RESTR>
0.363398

>  <SCORE.RESTR.CAVITY>
0.363398

>  <SCORE.RESTR.norm>
0.0134592

>  <SCORE.SYSTEM>
0

>  <SCORE.SYSTEM.CONST>
0

>  <SCORE.SYSTEM.DIHEDRAL>
0

>  <SCORE.SYSTEM.SOLV>
0

>  <SCORE.SYSTEM.norm>
0

>  <SCORE.heavy>
27

>  <SCORE.norm>
-0.990305

>  <RMSD>
0.955

$$$$
ligand
 OpenBabel11021811463D
libRbt.so/2013.1/901 2013/11/27
 27 29  0  0  0  0  0  0  0  0999 V2000
   38.1193   20.0017   71.8465 N   0  0  0  0  0  0  0  0  0  0  0  0
   37.8005   18.9179   72.7923 C   0  0  2  0  0  0  0  0  0  0  0  0
   36.6752   18.0640   72.2461 C   0  0  0  0  0  0  0  0  0  0  0  0
   35.8946   18.5291   71.4093 O   0  0  0  0  0  0  0  0  0  0  0  0
   37.3601   19.5266   74.1197 C   0  0  0  0  0  0  0  0  0  0  0  0
   36.9276   18.4418   75.0828 C   0  0  0  0  0  0  0  0  0  0  0  0
   35.3970   18.9782   75.8669 S   0  0  2  0  0  0  0  0  0  0  0  0
   34.5344   19.5887   74.3922 C   0  0  0  0  0  0  0  0  0  0  0  0
   35.9349   20.5539   76.6149 C   0  0  0  0  0  0  0  0  0  0  0  0
   35.0135   20.8806   77.7871 C   0  0  1  0  0  0  0  0  0  0  0  0
   33.6911   20.6158   77.3805 O   0  0  0  0  0  0  0  0  0  0  0  0
   35.2809   19.9636   78.9855 C   0  0  1  0  0  0  0  0  0  0  0  0
   36.2535   20.3319   79.9757 O   0  0  0  0  0  0  0  0  0  0  0  0
   33.8483   19.6615   79.5375 C   0  0  1  0  0  0  0  0  0  0  0  0
   33.8630   19.8583   80.9618 O   0  0  0  0  0  0  0  0  0  0  0  0
   32.9171   20.4623   78.5596 C   0  0  2  0  0  0  0  0  0  0  0  0
   36.5852   16.8930   72.5828 O   0  0  0  0  0  0  0  0  0  0  0  0
   27.8564   20.9125   77.4238 N   0  0  0  0  0  0  0  0  0  0  0  0
   28.7255   21.8741   77.7548 C   0  0  0  0  0  0  0  0  0  0  0  0
   29.9953   21.5978   78.0381 N   0  0  0  0  0  0  0  0  0  0  0  0
   30.4654   20.3385   77.9808 C   0  0  0  0  0  0  0  0  0  0  0  0
   29.5872   19.2819   77.6194 C   0  0  0  0  0  0  0  0  0  0  0  0
   28.2313   19.6221   77.3361 C   0  0  0  0  0  0  0  0  0  0  0  0
   27.3171   18.6525   76.9689 N   0  0  0  0  0  0  0  0  0  0  0  0
   30.3094   18.1378   77.6325 N   0  0  0  0  0  0  0  0  0  0  0  0
   31.5376   18.4113   77.9651 C   0  0  0  0  0  0  0  0  0  0  0  0
   31.6842   19.7579   78.1912 N   0  0  0  0  0  0  0  0  0  0  0  0
  2  1  1  6  0  0  0
  2  3  1  0  0  0  0
  2  5  1  0  0  0  0
  3  4  1  0  0  0  0
  3 17  1  0  0  0  0
  5  6  1  0  0  0  0
  7  6  1  6  0  0  0
  7  8  1  0  0  0  0
  7  9  1  0  0  0  0
 10  9  1  6  0  0  0
 10 11  1  0  0  0  0
 10 12  1  0  0  0  0
 11 16  1  0  0  0  0
 12 13  1  1  0  0  0
 12 14  1  0  0  0  0
 14 15  1  1  0  0  0
 14 16  1  0  0  0  0
 16 27  1  6  0  0  0
 18 19  2  0  0  0  0
 18 23  1  0  0  0  0
 19 20  1  0  0  0  0
 20 21  2  0  0  0  0
 21 22  1  0  0  0  0
 21 27  1  0  0  0  0
 22 23  2  0  0  0  0
 22 25  1  0  0  0  0
 23 24  1  0  0  0  0
 25 26  2  0  0  0  0
 26 27  1  0  0  0  0
M  END
>  <CHROM.1>
-23.02316002,175.85709681,-135.47532931,44.73715987,-156.20080010,-43.39944647
-100.15226310,33.60118071,19.58093047,76.49691424,0.60124066,0.00163639,-1.82229570

>  <Name>
ligand

>  <RI>
0

>  <Rbt.Current_Directory>
/home/itssahil/PROJECTS/Mol_Feturizer/New_Systems/rnas/2QWY

>  <Rbt.Executable>
rbdock ($Id: //depot/dev/client3/rdock/2013.1/src/exe/rbdock.cxx#4 $)

>  <Rbt.Library>
libRbt.so (2013.1, Build901 2013/11/27)

>  <Rbt.Parameter_File>
/export/apps/rDock/src/rDock_2013.1_src/data/scripts/dock_solv.prm

>  <Rbt.Receptor>
prm/pocket_docking_2.prm

>  <SCORE>
-12.5984

>  <SCORE.INTER>
-16.4511

>  <SCORE.INTER.CONST>
1

>  <SCORE.INTER.POLAR>
0

>  <SCORE.INTER.ROT>
7

>  <SCORE.INTER.SOLV>
19.0685

>  <SCORE.INTER.VDW>
-25.5903

>  <SCORE.INTER.norm>
-0.609301

>  <SCORE.INTRA>
3.83159

>  <SCORE.INTRA.DIHEDRAL>
0.848721

>  <SCORE.INTRA.DIHEDRAL.0>
10.7382

>  <SCORE.INTRA.POLAR>
0

>  <SCORE.INTRA.POLAR.0>
0

>  <SCORE.INTRA.REPUL>
0

>  <SCORE.INTRA.REPUL.0>
0

>  <SCORE.INTRA.SOLV>
-0.716236

>  <SCORE.INTRA.SOLV.lig_0>
-49.2501

>  <SCORE.INTRA.VDW>
3.76535

>  <SCORE.INTRA.VDW.0>
-1.75368

>  <SCORE.INTRA.norm>
0.141911

>  <SCORE.RESTR>
0.0211158

>  <SCORE.RESTR.CAVITY>
0.0211158

>  <SCORE.RESTR.norm>
0.000782069

>  <SCORE.SYSTEM>
0

>  <SCORE.SYSTEM.CONST>
0

>  <SCORE.SYSTEM.DIHEDRAL>
0

>  <SCORE.SYSTEM.SOLV>
0

>  <SCORE.SYSTEM.norm>
0

>  <SCORE.heavy>
27

>  <SCORE.norm>
-0.466608

>  <RMSD>
0.977

$$$$
ligand
 OpenBabel11021811463D
libRbt.so/2013.1/901 2013/11/27
 27 29  0  0  0  0  0  0  0  0999 V2000
   37.0951   16.9965   72.6557 N   0  0  0  0  0  0  0  0  0  0  0  0
   36.2547   17.9931   71.9692 C   0  0  2  0  0  0  0  0  0  0  0  0
   36.9667   18.5163   70.7391 C   0  0  0  0  0  0  0  0  0  0  0  0
   37.9165   19.2970   70.8581 O   0  0  0  0  0  0  0  0  0  0  0  0
   35.9847   19.1570   72.9171 C   0  0  0  0  0  0  0  0  0  0  0  0
   35.7017   18.6482   74.3144 C   0  0  0  0  0  0  0  0  0  0  0  0
   35.1148   20.0377   75.2994 S   0  0  2  0  0  0  0  0  0  0  0  0
   36.6230   21.0458   75.2748 C   0  0  0  0  0  0  0  0  0  0  0  0
   35.2152   19.3280   76.9781 C   0  0  0  0  0  0  0  0  0  0  0  0
   34.2911   20.1178   77.9009 C   0  0  1  0  0  0  0  0  0  0  0  0
   32.9693   19.9218   77.4552 O   0  0  0  0  0  0  0  0  0  0  0  0
   34.3386   19.5834   79.3364 C   0  0  1  0  0  0  0  0  0  0  0  0
   35.2981   20.1022   80.2704 O   0  0  0  0  0  0  0  0  0  0  0  0
   32.8465   19.6598   79.8013 C   0  0  1  0  0  0  0  0  0  0  0  0
   32.8094   20.2784   81.0989 O   0  0  0  0  0  0  0  0  0  0  0  0
   32.1134   20.2413   78.5407 C   0  0  2  0  0  0  0  0  0  0  0  0
   36.6440   18.1089   69.6334 O   0  0  0  0  0  0  0  0  0  0  0  0
   27.1209   21.0751   77.3227 N   0  0  0  0  0  0  0  0  0  0  0  0
   28.0928   21.9734   77.5182 C   0  0  0  0  0  0  0  0  0  0  0  0
   29.3277   21.6032   77.8454 N   0  0  0  0  0  0  0  0  0  0  0  0
   29.6572   20.3048   77.9711 C   0  0  0  0  0  0  0  0  0  0  0  0
   28.6656   19.3098   77.7590 C   0  0  0  0  0  0  0  0  0  0  0  0
   27.3521   19.7523   77.4221 C   0  0  0  0  0  0  0  0  0  0  0  0
   26.3342   18.8459   77.1916 N   0  0  0  0  0  0  0  0  0  0  0  0
   29.2589   18.1073   77.9394 N   0  0  0  0  0  0  0  0  0  0  0  0
   30.5128   18.2896   78.2368 C   0  0  0  0  0  0  0  0  0  0  0  0
   30.8075   19.6306   78.2693 N   0  0  0  0  0  0  0  0  0  0  0  0
  2  1  1  1  0  0  0
  2  3  1  0  0  0  0
  2  5  1  0  0  0  0
  3  4  1  0  0  0  0
  3 17  1  0  0  0  0
  5  6  1  0  0  0  0
  7  6  1  6  0  0  0
  7  8  1  0  0  0  0
  7  9  1  0  0  0  0
 10  9  1  6  0  0  0
 10 11  1  0  0  0  0
 10 12  1  0  0  0  0
 11 16  1  0  0  0  0
 12 13  1  1  0  0  0
 12 14  1  0  0  0  0
 14 15  1  1  0  0  0
 14 16  1  0  0  0  0
 16 27  1  6  0  0  0
 18 19  2  0  0  0  0
 18 23  1  0  0  0  0
 19 20  1  0  0  0  0
 20 21  2  0  0  0  0
 21 22  1  0  0  0  0
 21 27  1  0  0  0  0
 22 23  2  0  0  0  0
 22 25  1  0  0  0  0
 23 24  1  0  0  0  0
 25 26  2  0  0  0  0
 26 27  1  0  0  0  0
M  END
>  <CHROM.1>
-73.66050019,-41.23369402,-170.27269938,-64.79373791,-158.78763938,64.61388715
-110.87692558,33.03136529,19.57496264,76.30166584,0.69232766,0.01677280,-1.75748486

>  <Name>
ligand

>  <RI>
0

>  <Rbt.Current_Directory>
/home/itssahil/PROJECTS/Mol_Feturizer/New_Systems/rnas/2QWY

>  <Rbt.Executable>
rbdock ($Id: //depot/dev/client3/rdock/2013.1/src/exe/rbdock.cxx#4 $)

>  <Rbt.Library>
libRbt.so (2013.1, Build901 2013/11/27)

>  <Rbt.Parameter_File>
/export/apps/rDock/src/rDock_2013.1_src/data/scripts/dock_solv.prm

>  <Rbt.Receptor>
prm/pocket_docking_2.prm

>  <SCORE>
-25.8744

>  <SCORE.INTER>
-25.2739

>  <SCORE.INTER.CONST>
1

>  <SCORE.INTER.POLAR>
0

>  <SCORE.INTER.ROT>
7

>  <SCORE.INTER.SOLV>
15.2336

>  <SCORE.INTER.VDW>
-30.1938

>  <SCORE.INTER.norm>
-0.936071

>  <SCORE.INTRA>
-0.632731

>  <SCORE.INTRA.DIHEDRAL>
-3.67407

>  <SCORE.INTRA.DIHEDRAL.0>
10.7382

>  <SCORE.INTRA.POLAR>
0

>  <SCORE.INTRA.POLAR.0>
0

>  <SCORE.INTRA.REPUL>
0

>  <SCORE.INTRA.REPUL.0>
0

>  <SCORE.INTRA.SOLV>
-0.326508

>  <SCORE.INTRA.SOLV.lig_0>
-49.2501

>  <SCORE.INTRA.VDW>
1.36756

>  <SCORE.INTRA.VDW.0>
-1.75368

>  <SCORE.INTRA.norm>
-0.0234345

>  <SCORE.RESTR>
0.032232

>  <SCORE.RESTR.CAVITY>
0.032232

>  <SCORE.RESTR.norm>
0.00119378

>  <SCORE.SYSTEM>
0

>  <SCORE.SYSTEM.CONST>
0

>  <SCORE.SYSTEM.DIHEDRAL>
0

>  <SCORE.SYSTEM.SOLV>
0

>  <SCORE.SYSTEM.norm>
0

>  <SCORE.heavy>
27

>  <SCORE.norm>
-0.958311

>  <RMSD>
1.018

$$$$
ligand
 OpenBabel11021811463D
libRbt.so/2013.1/901 2013/11/27
 27 29  0  0  0  0  0  0  0  0999 V2000
   37.2613   18.1074   71.6473 N   0  0  0  0  0  0  0  0  0  0  0  0
   36.8392   17.2722   72.7853 C   0  0  2  0  0  0  0  0  0  0  0  0
   36.1756   16.0062   72.2845 C   0  0  0  0  0  0  0  0  0  0  0  0
   35.7601   15.9423   71.1230 O   0  0  0  0  0  0  0  0  0  0  0  0
   35.8402   18.0520   73.6339 C   0  0  0  0  0  0  0  0  0  0  0  0
   36.4805   19.3069   74.1876 C   0  0  0  0  0  0  0  0  0  0  0  0
   35.2109   20.2311   75.0702 S   0  0  2  0  0  0  0  0  0  0  0  0
   36.1815   21.7096   75.4750 C   0  0  0  0  0  0  0  0  0  0  0  0
   35.2252   19.3715   76.6803 C   0  0  0  0  0  0  0  0  0  0  0  0
   34.3480   20.1477   77.6589 C   0  0  1  0  0  0  0  0  0  0  0  0
   33.0081   19.9868   77.2551 O   0  0  0  0  0  0  0  0  0  0  0  0
   34.4369   19.5690   79.0751 C   0  0  1  0  0  0  0  0  0  0  0  0
   35.4377   20.0435   79.9892 O   0  0  0  0  0  0  0  0  0  0  0  0
   32.9637   19.6554   79.5952 C   0  0  1  0  0  0  0  0  0  0  0  0
   32.9831   20.2346   80.9112 O   0  0  0  0  0  0  0  0  0  0  0  0
   32.1967   20.2868   78.3796 C   0  0  2  0  0  0  0  0  0  0  0  0
   36.1164   15.0255   73.0108 O   0  0  0  0  0  0  0  0  0  0  0  0
   27.1860   21.2371   77.3337 N   0  0  0  0  0  0  0  0  0  0  0  0
   28.1804   22.1131   77.5165 C   0  0  0  0  0  0  0  0  0  0  0  0
   29.4175   21.7136   77.7979 N   0  0  0  0  0  0  0  0  0  0  0  0
   29.7259   20.4072   77.8879 C   0  0  0  0  0  0  0  0  0  0  0  0
   28.7095   19.4351   77.6873 C   0  0  0  0  0  0  0  0  0  0  0  0
   27.3949   19.9085   77.4000 C   0  0  0  0  0  0  0  0  0  0  0  0
   26.3533   19.0259   77.1836 N   0  0  0  0  0  0  0  0  0  0  0  0
   29.2850   18.2185   77.8256 N   0  0  0  0  0  0  0  0  0  0  0  0
   30.5507   18.3715   78.0874 C   0  0  0  0  0  0  0  0  0  0  0  0
   30.8717   19.7059   78.1370 N   0  0  0  0  0  0  0  0  0  0  0  0
  2  1  1  6  0  0  0
  2  3  1  0  0  0  0
  2  5  1  0  0  0  0
  3  4  1  0  0  0  0
  3 17  1  0  0  0  0
  5  6  1  0  0  0  0
  7  6  1  6  0  0  0
  7  8  1  0  0  0  0
  7  9  1  0  0  0  0
 10  9  1  6  0  0  0
 10 11  1  0  0  0  0
 10 12  1  0  0  0  0
 11 16  1  0  0  0  0
 12 13  1  1  0  0  0
 12 14  1  0  0  0  0
 14 15  1  1  0  0  0
 14 16  1  0  0  0  0
 16 27  1  6  0  0  0
 18 19  2  0  0  0  0
 18 23  1  0  0  0  0
 19 20  1  0  0  0  0
 20 21  2  0  0  0  0
 21 22  1  0  0  0  0
 21 27  1  0  0  0  0
 22 23  2  0  0  0  0
 22 25  1  0  0  0  0
 23 24  1  0  0  0  0
 25 26  2  0  0  0  0
 26 27  1  0  0  0  0
M  END
>  <CHROM.1>
-17.87767433,-61.41986045,175.82277173,-174.92498759,171.62094691,70.25681360
-110.21464179,32.98094421,19.31857025,76.41195321,0.66152154,-0.02430665
-2.08122752

>  <Name>
ligand

>  <RI>
0

>  <Rbt.Current_Directory>
/home/itssahil/PROJECTS/Mol_Feturizer/New_Systems/rnas/2QWY

>  <Rbt.Executable>
rbdock ($Id: //depot/dev/client3/rdock/2013.1/src/exe/rbdock.cxx#4 $)

>  <Rbt.Library>
libRbt.so (2013.1, Build901 2013/11/27)

>  <Rbt.Parameter_File>
/export/apps/rDock/src/rDock_2013.1_src/data/scripts/dock_solv.prm

>  <Rbt.Receptor>
prm/pocket_docking_3.prm

>  <SCORE>
-28.1765

>  <SCORE.INTER>
-24.472

>  <SCORE.INTER.CONST>
1

>  <SCORE.INTER.POLAR>
0

>  <SCORE.INTER.ROT>
7

>  <SCORE.INTER.SOLV>
14.2685

>  <SCORE.INTER.VDW>
-29.3375

>  <SCORE.INTER.norm>
-0.906372

>  <SCORE.INTRA>
-3.70444

>  <SCORE.INTRA.DIHEDRAL>
-6.42197

>  <SCORE.INTRA.DIHEDRAL.0>
10.7382

>  <SCORE.INTRA.POLAR>
0

>  <SCORE.INTRA.POLAR.0>
0

>  <SCORE.INTRA.REPUL>
0

>  <SCORE.INTRA.REPUL.0>
0

>  <SCORE.INTRA.SOLV>
-0.488331

>  <SCORE.INTRA.SOLV.lig_0>
-49.2501

>  <SCORE.INTRA.VDW>
-0.249288

>  <SCORE.INTRA.VDW.0>
-1.75368

>  <SCORE.INTRA.norm>
-0.137201

>  <SCORE.RESTR>
0

>  <SCORE.RESTR.CAVITY>
0

>  <SCORE.RESTR.norm>
0

>  <SCORE.SYSTEM>
0

>  <SCORE.SYSTEM.CONST>
0

>  <SCORE.SYSTEM.DIHEDRAL>
0

>  <SCORE.SYSTEM.SOLV>
0

>  <SCORE.SYSTEM.norm>
0

>  <SCORE.heavy>
27

>  <SCORE.norm>
-1.04357

>  <RMSD>
1.027

$$$$
ligand
 OpenBabel11021811463D
libRbt.so/2013.1/901 2013/11/27
 27 29  0  0  0  0  0  0  0  0999 V2000
   37.8936   16.4559   72.4788 N   0  0  0  0  0  0  0  0  0  0  0  0
   36.4754   16.7423   72.2004 C   0  0  2  0  0  0  0  0  0  0  0  0
   36.2486   16.8469   70.7066 C   0  0  0  0  0  0  0  0  0  0  0  0
   35.3564   16.1841   70.1676 O   0  0  0  0  0  0  0  0  0  0  0  0
   36.0961   18.0681   72.8523 C   0  0  0  0  0  0  0  0  0  0  0  0
   36.1256   17.9448   74.3607 C   0  0  0  0  0  0  0  0  0  0  0  0
   35.2948   19.3876   75.0487 S   0  0  2  0  0  0  0  0  0  0  0  0
   36.6510   20.5828   74.8940 C   0  0  0  0  0  0  0  0  0  0  0  0
   35.3844   19.0104   76.8323 C   0  0  0  0  0  0  0  0  0  0  0  0
   34.4635   19.9681   77.5834 C   0  0  1  0  0  0  0  0  0  0  0  0
   33.1412   19.6969   77.1806 O   0  0  0  0  0  0  0  0  0  0  0  0
   34.5060   19.7203   79.0951 C   0  0  1  0  0  0  0  0  0  0  0  0
   35.4673   20.4043   79.9138 O   0  0  0  0  0  0  0  0  0  0  0  0
   33.0138   19.8927   79.5329 C   0  0  1  0  0  0  0  0  0  0  0  0
   32.9785   20.7500   80.6868 O   0  0  0  0  0  0  0  0  0  0  0  0
   32.2857   20.2241   78.1821 C   0  0  2  0  0  0  0  0  0  0  0  0
   36.9038   17.6409   70.0486 O   0  0  0  0  0  0  0  0  0  0  0  0
   27.1872   20.9252   77.3956 N   0  0  0  0  0  0  0  0  0  0  0  0
   28.1499   21.8486   77.4984 C   0  0  0  0  0  0  0  0  0  0  0  0
   29.4173   21.5115   77.7202 N   0  0  0  0  0  0  0  0  0  0  0  0
   29.7886   20.2228   77.8276 C   0  0  0  0  0  0  0  0  0  0  0  0
   28.8073   19.2022   77.7108 C   0  0  0  0  0  0  0  0  0  0  0  0
   27.4590   19.6095   77.4857 C   0  0  0  0  0  0  0  0  0  0  0  0
   26.4477   18.6766   77.3521 N   0  0  0  0  0  0  0  0  0  0  0  0
   29.4437   18.0162   77.8490 N   0  0  0  0  0  0  0  0  0  0  0  0
   30.7137   18.2316   78.0348 C   0  0  0  0  0  0  0  0  0  0  0  0
   30.9768   19.5795   78.0303 N   0  0  0  0  0  0  0  0  0  0  0  0
  2  1  1  6  0  0  0
  2  3  1  0  0  0  0
  2  5  1  0  0  0  0
  3  4  1  0  0  0  0
  3 17  1  0  0  0  0
  5  6  1  0  0  0  0
  7  6  1  6  0  0  0
  7  8  1  0  0  0  0
  7  9  1  0  0  0  0
 10  9  1  6  0  0  0
 10 11  1  0  0  0  0
 10 12  1  0  0  0  0
 11 16  1  0  0  0  0
 12 13  1  1  0  0  0
 12 14  1  0  0  0  0
 14 15  1  1  0  0  0
 14 16  1  0  0  0  0
 16 27  1  1  0  0  0
 18 19  2  0  0  0  0
 18 23  1  0  0  0  0
 19 20  1  0  0  0  0
 20 21  2  0  0  0  0
 21 22  1  0  0  0  0
 21 27  1  0  0  0  0
 22 23  2  0  0  0  0
 22 25  1  0  0  0  0
 23 24  1  0  0  0  0
 25 26  2  0  0  0  0
 26 27  1  0  0  0  0
M  END
>  <CHROM.1>
128.06933074,-67.57193359,-166.43894219,-79.58710992,-167.73007358,64.81404316
-122.73223802,33.07774848,19.16225148,76.14858466,0.74169998,0.00130926,-1.96631306

>  <Name>
ligand

>  <RI>
0

>  <Rbt.Current_Directory>
/home/itssahil/PROJECTS/Mol_Feturizer/New_Systems/rnas/2QWY

>  <Rbt.Executable>
rbdock ($Id: //depot/dev/client3/rdock/2013.1/src/exe/rbdock.cxx#4 $)

>  <Rbt.Library>
libRbt.so (2013.1, Build901 2013/11/27)

>  <Rbt.Parameter_File>
/export/apps/rDock/src/rDock_2013.1_src/data/scripts/dock_solv.prm

>  <Rbt.Receptor>
prm/pocket_docking_3.prm

>  <SCORE>
-27.8255

>  <SCORE.INTER>
-24.7648

>  <SCORE.INTER.CONST>
1

>  <SCORE.INTER.POLAR>
0

>  <SCORE.INTER.ROT>
7

>  <SCORE.INTER.SOLV>
14.118

>  <SCORE.INTER.VDW>
-29.4825

>  <SCORE.INTER.norm>
-0.917213

>  <SCORE.INTRA>
-3.06074

>  <SCORE.INTRA.DIHEDRAL>
-5.00825

>  <SCORE.INTRA.DIHEDRAL.0>
10.7382

>  <SCORE.INTRA.POLAR>
0

>  <SCORE.INTRA.POLAR.0>
0

>  <SCORE.INTRA.REPUL>
0

>  <SCORE.INTRA.REPUL.0>
0

>  <SCORE.INTRA.SOLV>
-0.643013

>  <SCORE.INTRA.SOLV.lig_0>
-49.2501

>  <SCORE.INTRA.VDW>
-0.235114

>  <SCORE.INTRA.VDW.0>
-1.75368

>  <SCORE.INTRA.norm>
-0.113361

>  <SCORE.RESTR>
0

>  <SCORE.RESTR.CAVITY>
0

>  <SCORE.RESTR.norm>
0

>  <SCORE.SYSTEM>
0

>  <SCORE.SYSTEM.CONST>
0

>  <SCORE.SYSTEM.DIHEDRAL>
0

>  <SCORE.SYSTEM.SOLV>
0

>  <SCORE.SYSTEM.norm>
0

>  <SCORE.heavy>
27

>  <SCORE.norm>
-1.03057

>  <RMSD>
1.051

$$$$
ligand
 OpenBabel11021811463D
libRbt.so/2013.1/901 2013/11/27
 27 29  0  0  0  0  0  0  0  0999 V2000
   38.0794   16.7806   73.5096 N   0  0  0  0  0  0  0  0  0  0  0  0
   36.8482   17.0762   72.7563 C   0  0  2  0  0  0  0  0  0  0  0  0
   37.1651   17.9549   71.5641 C   0  0  0  0  0  0  0  0  0  0  0  0
   38.2794   18.4773   71.4583 O   0  0  0  0  0  0  0  0  0  0  0  0
   35.8699   17.8115   73.6666 C   0  0  0  0  0  0  0  0  0  0  0  0
   36.4797   19.1035   74.1667 C   0  0  0  0  0  0  0  0  0  0  0  0
   35.1891   20.0309   75.0150 S   0  0  2  0  0  0  0  0  0  0  0  0
   36.1166   21.5565   75.3374 C   0  0  0  0  0  0  0  0  0  0  0  0
   35.2432   19.2527   76.6652 C   0  0  0  0  0  0  0  0  0  0  0  0
   34.3639   20.0590   77.6172 C   0  0  1  0  0  0  0  0  0  0  0  0
   33.0245   19.8820   77.2183 O   0  0  0  0  0  0  0  0  0  0  0  0
   34.4533   19.5278   79.0519 C   0  0  1  0  0  0  0  0  0  0  0  0
   35.4526   20.0345   79.9502 O   0  0  0  0  0  0  0  0  0  0  0  0
   32.9796   19.6282   79.5682 C   0  0  1  0  0  0  0  0  0  0  0  0
   32.9972   20.2507   80.8642 O   0  0  0  0  0  0  0  0  0  0  0  0
   32.2119   20.2174   78.3320 C   0  0  2  0  0  0  0  0  0  0  0  0
   36.3397   18.0877   70.6732 O   0  0  0  0  0  0  0  0  0  0  0  0
   27.1918   21.1244   77.2927 N   0  0  0  0  0  0  0  0  0  0  0  0
   28.1833   22.0082   77.4523 C   0  0  0  0  0  0  0  0  0  0  0  0
   29.4235   21.6200   77.7355 N   0  0  0  0  0  0  0  0  0  0  0  0
   29.7381   20.3170   77.8506 C   0  0  0  0  0  0  0  0  0  0  0  0
   28.7250   19.3367   77.6752 C   0  0  0  0  0  0  0  0  0  0  0  0
   27.4069   19.7983   77.3852 C   0  0  0  0  0  0  0  0  0  0  0  0
   26.3681   18.9070   77.1923 N   0  0  0  0  0  0  0  0  0  0  0  0
   29.3066   18.1256   77.8355 N   0  0  0  0  0  0  0  0  0  0  0  0
   30.5729   18.2894   78.0876 C   0  0  0  0  0  0  0  0  0  0  0  0
   30.8883   19.6259   78.1081 N   0  0  0  0  0  0  0  0  0  0  0  0
  2  1  1  1  0  0  0
  2  3  1  0  0  0  0
  2  5  1  0  0  0  0
  3  4  1  0  0  0  0
  3 17  1  0  0  0  0
  5  6  1  0  0  0  0
  7  6  1  6  0  0  0
  7  8  1  0  0  0  0
  7  9  1  0  0  0  0
 10  9  1  6  0  0  0
 10 11  1  0  0  0  0
 10 12  1  0  0  0  0
 11 16  1  0  0  0  0
 12 13  1  1  0  0  0
 12 14  1  0  0  0  0
 14 15  1  1  0  0  0
 14 16  1  0  0  0  0
 16 27  1  6  0  0  0
 18 19  2  0  0  0  0
 18 23  1  0  0  0  0
 19 20  1  0  0  0  0
 20 21  2  0  0  0  0
 21 22  1  0  0  0  0
 21 27  1  0  0  0  0
 22 23  2  0  0  0  0
 22 25  1  0  0  0  0
 23 24  1  0  0  0  0
 25 26  2  0  0  0  0
 26 27  1  0  0  0  0
M  END
>  <CHROM.1>
-10.86791194,59.50491547,171.32974580,-174.23518680,170.93115397,68.62896318
-111.01663178,33.15914292,19.46684615,76.34592005,0.59756002,0.04248055,-1.82803013

>  <Name>
ligand

>  <RI>
0

>  <Rbt.Current_Directory>
/home/itssahil/PROJECTS/Mol_Feturizer/New_Systems/rnas/2QWY

>  <Rbt.Executable>
rbdock ($Id: //depot/dev/client3/rdock/2013.1/src/exe/rbdock.cxx#4 $)

>  <Rbt.Library>
libRbt.so (2013.1, Build901 2013/11/27)

>  <Rbt.Parameter_File>
/export/apps/rDock/src/rDock_2013.1_src/data/scripts/dock_solv.prm

>  <Rbt.Receptor>
prm/pocket_docking_7.prm

>  <SCORE>
-27.7778

>  <SCORE.INTER>
-24.5886

>  <SCORE.INTER.CONST>
1

>  <SCORE.INTER.POLAR>
0

>  <SCORE.INTER.ROT>
7

>  <SCORE.INTER.SOLV>
13.9193

>  <SCORE.INTER.VDW>
-29.2989

>  <SCORE.INTER.norm>
-0.91069

>  <SCORE.INTRA>
-3.18912

>  <SCORE.INTRA.DIHEDRAL>
-6.30624

>  <SCORE.INTRA.DIHEDRAL.0>
10.7382

>  <SCORE.INTRA.POLAR>
0

>  <SCORE.INTRA.POLAR.0>
0

>  <SCORE.INTRA.REPUL>
0

>  <SCORE.INTRA.REPUL.0>
0

>  <SCORE.INTRA.SOLV>
-0.533417

>  <SCORE.INTRA.SOLV.lig_0>
-49.2501

>  <SCORE.INTRA.VDW>
0.230706

>  <SCORE.INTRA.VDW.0>
-1.75368

>  <SCORE.INTRA.norm>
-0.118116

>  <SCORE.RESTR>
0

>  <SCORE.RESTR.CAVITY>
0

>  <SCORE.RESTR.norm>
0

>  <SCORE.SYSTEM>
0

>  <SCORE.SYSTEM.CONST>
0

>  <SCORE.SYSTEM.DIHEDRAL>
0

>  <SCORE.SYSTEM.SOLV>
0

>  <SCORE.SYSTEM.norm>
0

>  <SCORE.heavy>
27

>  <SCORE.norm>
-1.02881

>  <RMSD>
1.063

$$$$
ligand
 OpenBabel11021811463D
libRbt.so/2013.1/901 2013/11/27
 27 29  0  0  0  0  0  0  0  0999 V2000
   37.1246   17.0495   73.2706 N   0  0  0  0  0  0  0  0  0  0  0  0
   36.4290   17.9407   72.3259 C   0  0  2  0  0  0  0  0  0  0  0  0
   37.4366   18.7172   71.5040 C   0  0  0  0  0  0  0  0  0  0  0  0
   38.5508   18.9743   71.9713 O   0  0  0  0  0  0  0  0  0  0  0  0
   35.5666   18.9246   73.1098 C   0  0  0  0  0  0  0  0  0  0  0  0
   36.4219   19.7471   74.0497 C   0  0  0  0  0  0  0  0  0  0  0  0
   35.3188   20.6984   75.1098 S   0  0  2  0  0  0  0  0  0  0  0  0
   36.4747   22.0077   75.6010 C   0  0  0  0  0  0  0  0  0  0  0  0
   35.3243   19.6665   76.6154 C   0  0  0  0  0  0  0  0  0  0  0  0
   34.4431   20.3315   77.6694 C   0  0  1  0  0  0  0  0  0  0  0  0
   33.1004   20.1438   77.2869 O   0  0  0  0  0  0  0  0  0  0  0  0
   34.5935   19.6556   79.0365 C   0  0  1  0  0  0  0  0  0  0  0  0
   35.5985   20.1043   79.9589 O   0  0  0  0  0  0  0  0  0  0  0  0
   33.1325   19.6413   79.5966 C   0  0  1  0  0  0  0  0  0  0  0  0
   33.1640   20.1235   80.9509 O   0  0  0  0  0  0  0  0  0  0  0  0
   32.3081   20.3265   78.4496 C   0  0  2  0  0  0  0  0  0  0  0  0
   37.1694   19.0265   70.3526 O   0  0  0  0  0  0  0  0  0  0  0  0
   27.3023   21.1329   77.2681 N   0  0  0  0  0  0  0  0  0  0  0  0
   28.2733   22.0360   77.4454 C   0  0  0  0  0  0  0  0  0  0  0  0
   29.5122   21.6729   77.7653 N   0  0  0  0  0  0  0  0  0  0  0  0
   29.8467   20.3769   77.9017 C   0  0  0  0  0  0  0  0  0  0  0  0
   28.8562   19.3769   77.7091 C   0  0  0  0  0  0  0  0  0  0  0  0
   27.5384   19.8119   77.3795 C   0  0  0  0  0  0  0  0  0  0  0  0
   26.5212   18.9002   77.1678 N   0  0  0  0  0  0  0  0  0  0  0  0
   29.4548   18.1780   77.8967 N   0  0  0  0  0  0  0  0  0  0  0  0
   30.7108   18.3671   78.1808 C   0  0  0  0  0  0  0  0  0  0  0  0
   31.0017   19.7092   78.1965 N   0  0  0  0  0  0  0  0  0  0  0  0
  2  1  1  1  0  0  0
  2  3  1  0  0  0  0
  2  5  1  0  0  0  0
  3  4  1  0  0  0  0
  3 17  1  0  0  0  0
  5  6  1  0  0  0  0
  7  6  1  6  0  0  0
  7  8  1  0  0  0  0
  7  9  1  0  0  0  0
 10  9  1  6  0  0  0
 10 11  1  0  0  0  0
 10 12  1  0  0  0  0
 11 16  1  0  0  0  0
 12 13  1  1  0  0  0
 12 14  1  0  0  0  0
 14 15  1  1  0  0  0
 14 16  1  0  0  0  0
 16 27  1  6  0  0  0
 18 19  2  0  0  0  0
 18 23  1  0  0  0  0
 19 20  1  0  0  0  0
 20 21  2  0  0  0  0
 21 22  1  0  0  0  0
 21 27  1  0  0  0  0
 22 23  2  0  0  0  0
 22 25  1  0  0  0  0
 23 24  1  0  0  0  0
 25 26  2  0  0  0  0
 26 27  1  0  0  0  0
M  END
>  <CHROM.1>
-28.32802937,59.36404794,-171.56572550,-158.25481120,179.06652105,73.93643913
-103.59124396,33.25078424,19.77719352,76.34354816,0.60146702,-0.00756947
-1.76054140

>  <Name>
ligand

>  <RI>
0

>  <Rbt.Current_Directory>
/home/itssahil/PROJECTS/Mol_Feturizer/New_Systems/rnas/2QWY

>  <Rbt.Executable>
rbdock ($Id: //depot/dev/client3/rdock/2013.1/src/exe/rbdock.cxx#4 $)

>  <Rbt.Library>
libRbt.so (2013.1, Build901 2013/11/27)

>  <Rbt.Parameter_File>
/export/apps/rDock/src/rDock_2013.1_src/data/scripts/dock_solv.prm

>  <Rbt.Receptor>
prm/pocket_docking_2.prm

>  <SCORE>
-24.7997

>  <SCORE.INTER>
-22.627

>  <SCORE.INTER.CONST>
1

>  <SCORE.INTER.POLAR>
0

>  <SCORE.INTER.ROT>
7

>  <SCORE.INTER.SOLV>
15.0407

>  <SCORE.INTER.VDW>
-28.3649

>  <SCORE.INTER.norm>
-0.838036

>  <SCORE.INTRA>
-2.20063

>  <SCORE.INTRA.DIHEDRAL>
-4.04814

>  <SCORE.INTRA.DIHEDRAL.0>
10.7382

>  <SCORE.INTRA.POLAR>
0

>  <SCORE.INTRA.POLAR.0>
0

>  <SCORE.INTRA.REPUL>
0

>  <SCORE.INTRA.REPUL.0>
0

>  <SCORE.INTRA.SOLV>
-0.401328

>  <SCORE.INTRA.SOLV.lig_0>
-49.2501

>  <SCORE.INTRA.VDW>
0.0241033

>  <SCORE.INTRA.VDW.0>
-1.75368

>  <SCORE.INTRA.norm>
-0.0815049

>  <SCORE.RESTR>
0.0279375

>  <SCORE.RESTR.CAVITY>
0.0279375

>  <SCORE.RESTR.norm>
0.00103472

>  <SCORE.SYSTEM>
0

>  <SCORE.SYSTEM.CONST>
0

>  <SCORE.SYSTEM.DIHEDRAL>
0

>  <SCORE.SYSTEM.SOLV>
0

>  <SCORE.SYSTEM.norm>
0

>  <SCORE.heavy>
27

>  <SCORE.norm>
-0.918507

>  <RMSD>
1.082

$$$$
ligand
 OpenBabel11021811463D
libRbt.so/2013.1/901 2013/11/27
 27 29  0  0  0  0  0  0  0  0999 V2000
   36.0610   16.6942   72.0777 N   0  0  0  0  0  0  0  0  0  0  0  0
   36.1867   18.0809   72.5593 C   0  0  2  0  0  0  0  0  0  0  0  0
   36.9962   18.9021   71.5773 C   0  0  0  0  0  0  0  0  0  0  0  0
   36.6834   20.0740   71.3440 O   0  0  0  0  0  0  0  0  0  0  0  0
   36.8992   18.0788   73.9078 C   0  0  0  0  0  0  0  0  0  0  0  0
   37.0238   19.4890   74.4438 C   0  0  0  0  0  0  0  0  0  0  0  0
   35.3931   20.0136   75.0014 S   0  0  2  0  0  0  0  0  0  0  0  0
   35.7981   21.7217   75.4597 C   0  0  0  0  0  0  0  0  0  0  0  0
   35.3321   19.2316   76.6496 C   0  0  0  0  0  0  0  0  0  0  0  0
   34.4168   20.0563   77.5505 C   0  0  1  0  0  0  0  0  0  0  0  0
   33.0894   19.8290   77.1374 O   0  0  0  0  0  0  0  0  0  0  0  0
   34.4934   19.5902   79.0083 C   0  0  1  0  0  0  0  0  0  0  0  0
   35.4641   20.1600   79.9002 O   0  0  0  0  0  0  0  0  0  0  0  0
   33.0088   19.6763   79.4951 C   0  0  1  0  0  0  0  0  0  0  0  0
   32.9884   20.3547   80.7627 O   0  0  0  0  0  0  0  0  0  0  0  0
   32.2493   20.1921   78.2216 C   0  0  2  0  0  0  0  0  0  0  0  0
   38.0001   18.4240   71.0710 O   0  0  0  0  0  0  0  0  0  0  0  0
   27.1686   20.9434   77.3692 N   0  0  0  0  0  0  0  0  0  0  0  0
   28.1281   21.8580   77.5498 C   0  0  0  0  0  0  0  0  0  0  0  0
   29.3906   21.5072   77.7778 N   0  0  0  0  0  0  0  0  0  0  0  0
   29.7604   20.2141   77.8134 C   0  0  0  0  0  0  0  0  0  0  0  0
   28.7827   19.2032   77.6124 C   0  0  0  0  0  0  0  0  0  0  0  0
   27.4393   19.6244   77.3836 C   0  0  0  0  0  0  0  0  0  0  0  0
   26.4319   18.7022   77.1706 N   0  0  0  0  0  0  0  0  0  0  0  0
   29.4169   18.0106   77.6908 N   0  0  0  0  0  0  0  0  0  0  0  0
   30.6824   18.2133   77.9171 C   0  0  0  0  0  0  0  0  0  0  0  0
   30.9444   19.5588   78.0017 N   0  0  0  0  0  0  0  0  0  0  0  0
  2  1  1  6  0  0  0
  2  3  1  0  0  0  0
  2  5  1  0  0  0  0
  3  4  1  0  0  0  0
  3 17  1  0  0  0  0
  5  6  1  0  0  0  0
  7  6  1  6  0  0  0
  7  8  1  0  0  0  0
  7  9  1  0  0  0  0
 10  9  1  6  0  0  0
 10 11  1  0  0  0  0
 10 12  1  0  0  0  0
 11 16  1  0  0  0  0
 12 13  1  1  0  0  0
 12 14  1  0  0  0  0
 14 15  1  1  0  0  0
 14 16  1  0  0  0  0
 16 27  1  6  0  0  0
 18 19  2  0  0  0  0
 18 23  1  0  0  0  0
 19 20  1  0  0  0  0
 20 21  2  0  0  0  0
 21 22  1  0  0  0  0
 21 27  1  0  0  0  0
 22 23  2  0  0  0  0
 22 25  1  0  0  0  0
 23 24  1  0  0  0  0
 25 26  2  0  0  0  0
 26 27  1  0  0  0  0
M  END
>  <CHROM.1>
141.66060139,-179.01800195,73.25578865,-176.01914366,152.23464421,73.10127562
-117.24689404,33.14578809,19.59923448,76.29142525,0.59580812,-0.02380037
-1.79765640

>  <Name>
ligand

>  <RI>
0

>  <Rbt.Current_Directory>
/home/itssahil/PROJECTS/Mol_Feturizer/New_Systems/rnas/2QWY

>  <Rbt.Executable>
rbdock ($Id: //depot/dev/client3/rdock/2013.1/src/exe/rbdock.cxx#4 $)

>  <Rbt.Library>
libRbt.so (2013.1, Build901 2013/11/27)

>  <Rbt.Parameter_File>
/export/apps/rDock/src/rDock_2013.1_src/data/scripts/dock_solv.prm

>  <Rbt.Receptor>
prm/pocket_docking_2.prm

>  <SCORE>
-25.7698

>  <SCORE.INTER>
-23.0467

>  <SCORE.INTER.CONST>
1

>  <SCORE.INTER.POLAR>
0

>  <SCORE.INTER.ROT>
7

>  <SCORE.INTER.SOLV>
17.5862

>  <SCORE.INTER.VDW>
-29.4932

>  <SCORE.INTER.norm>
-0.853583

>  <SCORE.INTRA>
-2.72302

>  <SCORE.INTRA.DIHEDRAL>
-5.0518

>  <SCORE.INTRA.DIHEDRAL.0>
10.7382

>  <SCORE.INTRA.POLAR>
0

>  <SCORE.INTRA.POLAR.0>
0

>  <SCORE.INTRA.REPUL>
0

>  <SCORE.INTRA.REPUL.0>
0

>  <SCORE.INTRA.SOLV>
-1.07576

>  <SCORE.INTRA.SOLV.lig_0>
-49.2501

>  <SCORE.INTRA.VDW>
0.340757

>  <SCORE.INTRA.VDW.0>
-1.75368

>  <SCORE.INTRA.norm>
-0.100853

>  <SCORE.RESTR>
0

>  <SCORE.RESTR.CAVITY>
0

>  <SCORE.RESTR.norm>
0

>  <SCORE.SYSTEM>
0

>  <SCORE.SYSTEM.CONST>
0

>  <SCORE.SYSTEM.DIHEDRAL>
0

>  <SCORE.SYSTEM.SOLV>
0

>  <SCORE.SYSTEM.norm>
0

>  <SCORE.heavy>
27

>  <SCORE.norm>
-0.954435

>  <RMSD>
1.122

$$$$
ligand
 OpenBabel11021811463D
libRbt.so/2013.1/901 2013/11/27
 27 29  0  0  0  0  0  0  0  0999 V2000
   37.9930   16.3665   72.2385 N   0  0  0  0  0  0  0  0  0  0  0  0
   36.5535   16.6180   72.0502 C   0  0  2  0  0  0  0  0  0  0  0  0
   36.2159   16.6324   70.5738 C   0  0  0  0  0  0  0  0  0  0  0  0
   36.8303   17.3789   69.8050 O   0  0  0  0  0  0  0  0  0  0  0  0
   36.2005   17.9746   72.6515 C   0  0  0  0  0  0  0  0  0  0  0  0
   36.2587   17.9158   74.1630 C   0  0  0  0  0  0  0  0  0  0  0  0
   35.3201   19.3125   74.8061 S   0  0  2  0  0  0  0  0  0  0  0  0
   36.5992   20.5909   74.6601 C   0  0  0  0  0  0  0  0  0  0  0  0
   35.3923   18.9716   76.5978 C   0  0  0  0  0  0  0  0  0  0  0  0
   34.4891   19.9653   77.3233 C   0  0  1  0  0  0  0  0  0  0  0  0
   33.1557   19.6554   76.9912 O   0  0  0  0  0  0  0  0  0  0  0  0
   34.5938   19.8141   78.8446 C   0  0  1  0  0  0  0  0  0  0  0  0
   35.5774   20.5586   79.5799 O   0  0  0  0  0  0  0  0  0  0  0  0
   33.1177   19.9984   79.3298 C   0  0  1  0  0  0  0  0  0  0  0  0
   33.1164   20.9266   80.4280 O   0  0  0  0  0  0  0  0  0  0  0  0
   32.3332   20.2360   77.9909 C   0  0  2  0  0  0  0  0  0  0  0  0
   35.3836   15.8529   70.1353 O   0  0  0  0  0  0  0  0  0  0  0  0
   27.1893   20.8434   77.4658 N   0  0  0  0  0  0  0  0  0  0  0  0
   28.1421   21.7823   77.4860 C   0  0  0  0  0  0  0  0  0  0  0  0
   29.4247   21.4695   77.6479 N   0  0  0  0  0  0  0  0  0  0  0  0
   29.8207   20.1900   77.7752 C   0  0  0  0  0  0  0  0  0  0  0  0
   28.8500   19.1532   77.7451 C   0  0  0  0  0  0  0  0  0  0  0  0
   27.4853   19.5350   77.5821 C   0  0  0  0  0  0  0  0  0  0  0  0
   26.4824   18.5849   77.5342 N   0  0  0  0  0  0  0  0  0  0  0  0
   29.5107   17.9808   77.8852 N   0  0  0  0  0  0  0  0  0  0  0  0
   30.7857   18.2190   77.9936 C   0  0  0  0  0  0  0  0  0  0  0  0
   31.0278   19.5694   77.9321 N   0  0  0  0  0  0  0  0  0  0  0  0
  2  1  1  6  0  0  0
  2  3  1  0  0  0  0
  2  5  1  0  0  0  0
  3  4  1  0  0  0  0
  3 17  1  0  0  0  0
  5  6  1  0  0  0  0
  7  6  1  6  0  0  0
  7  8  1  0  0  0  0
  7  9  1  0  0  0  0
 10  9  1  6  0  0  0
 10 11  1  0  0  0  0
 10 12  1  0  0  0  0
 11 16  1  0  0  0  0
 12 13  1  1  0  0  0
 12 14  1  0  0  0  0
 14 15  1  1  0  0  0
 14 16  1  0  0  0  0
 16 27  1  1  0  0  0
 18 19  2  0  0  0  0
 18 23  1  0  0  0  0
 19 20  1  0  0  0  0
 20 21  2  0  0  0  0
 21 22  1  0  0  0  0
 21 27  1  0  0  0  0
 22 23  2  0  0  0  0
 22 25  1  0  0  0  0
 23 24  1  0  0  0  0
 25 26  2  0  0  0  0
 26 27  1  0  0  0  0
M  END
>  <CHROM.1>
-54.15421677,-71.11036421,-161.10694791,-82.26326067,-172.83968888,68.82600849
-124.73646342,33.12042050,19.11454550,76.01064254,0.75356256,-0.03497849
-2.01551993

>  <Name>
ligand

>  <RI>
0

>  <Rbt.Current_Directory>
/home/itssahil/PROJECTS/Mol_Feturizer/New_Systems/rnas/2QWY

>  <Rbt.Executable>
rbdock ($Id: //depot/dev/client3/rdock/2013.1/src/exe/rbdock.cxx#4 $)

>  <Rbt.Library>
libRbt.so (2013.1, Build901 2013/11/27)

>  <Rbt.Parameter_File>
/export/apps/rDock/src/rDock_2013.1_src/data/scripts/dock_solv.prm

>  <Rbt.Receptor>
prm/pocket_docking_3.prm

>  <SCORE>
-27.8562

>  <SCORE.INTER>
-25.0368

>  <SCORE.INTER.CONST>
1

>  <SCORE.INTER.POLAR>
0

>  <SCORE.INTER.ROT>
7

>  <SCORE.INTER.SOLV>
14.0081

>  <SCORE.INTER.VDW>
-29.6272

>  <SCORE.INTER.norm>
-0.927289

>  <SCORE.INTRA>
-2.81938

>  <SCORE.INTRA.DIHEDRAL>
-4.19463

>  <SCORE.INTRA.DIHEDRAL.0>
10.7382

>  <SCORE.INTRA.POLAR>
0

>  <SCORE.INTRA.POLAR.0>
0

>  <SCORE.INTRA.REPUL>
0

>  <SCORE.INTRA.REPUL.0>
0

>  <SCORE.INTRA.SOLV>
-0.653461

>  <SCORE.INTRA.SOLV.lig_0>
-49.2501

>  <SCORE.INTRA.VDW>
-0.395333

>  <SCORE.INTRA.VDW.0>
-1.75368

>  <SCORE.INTRA.norm>
-0.104421

>  <SCORE.RESTR>
0

>  <SCORE.RESTR.CAVITY>
0

>  <SCORE.RESTR.norm>
0

>  <SCORE.SYSTEM>
0

>  <SCORE.SYSTEM.CONST>
0

>  <SCORE.SYSTEM.DIHEDRAL>
0

>  <SCORE.SYSTEM.SOLV>
0

>  <SCORE.SYSTEM.norm>
0

>  <SCORE.heavy>
27

>  <SCORE.norm>
-1.03171

>  <RMSD>
1.144

$$$$
ligand
 OpenBabel11021811463D
libRbt.so/2013.1/901 2013/11/27
 27 29  0  0  0  0  0  0  0  0999 V2000
   36.8330   16.9966   72.3939 N   0  0  0  0  0  0  0  0  0  0  0  0
   36.6758   18.3570   71.8506 C   0  0  2  0  0  0  0  0  0  0  0  0
   38.0164   19.0609   71.8126 C   0  0  0  0  0  0  0  0  0  0  0  0
   39.0552   18.4269   72.0236 O   0  0  0  0  0  0  0  0  0  0  0  0
   35.7278   19.1466   72.7474 C   0  0  0  0  0  0  0  0  0  0  0  0
   36.1522   19.0349   74.1961 C   0  0  0  0  0  0  0  0  0  0  0  0
   35.0381   20.0550   75.1778 S   0  0  2  0  0  0  0  0  0  0  0  0
   36.0492   21.5590   75.2628 C   0  0  0  0  0  0  0  0  0  0  0  0
   35.3267   19.3646   76.8426 C   0  0  0  0  0  0  0  0  0  0  0  0
   34.4318   20.0962   77.8393 C   0  0  1  0  0  0  0  0  0  0  0  0
   33.0975   19.9339   77.4179 O   0  0  0  0  0  0  0  0  0  0  0  0
   34.5152   19.4701   79.2355 C   0  0  1  0  0  0  0  0  0  0  0  0
   35.5022   19.9243   80.1745 O   0  0  0  0  0  0  0  0  0  0  0  0
   33.0366   19.5214   79.7448 C   0  0  1  0  0  0  0  0  0  0  0  0
   33.0377   20.0550   81.0800 O   0  0  0  0  0  0  0  0  0  0  0  0
   32.2728   20.1855   78.5447 C   0  0  2  0  0  0  0  0  0  0  0  0
   38.0718   20.2415   71.5031 O   0  0  0  0  0  0  0  0  0  0  0  0
   27.2940   21.1087   77.3347 N   0  0  0  0  0  0  0  0  0  0  0  0
   28.2807   21.9897   77.5354 C   0  0  0  0  0  0  0  0  0  0  0  0
   29.5094   21.5972   77.8596 N   0  0  0  0  0  0  0  0  0  0  0  0
   29.8177   20.2929   77.9768 C   0  0  0  0  0  0  0  0  0  0  0  0
   28.8099   19.3156   77.7590 C   0  0  0  0  0  0  0  0  0  0  0  0
   27.5036   19.7817   77.4256 C   0  0  0  0  0  0  0  0  0  0  0  0
   26.4709   18.8936   77.1899 N   0  0  0  0  0  0  0  0  0  0  0  0
   29.3835   18.1024   77.9313 N   0  0  0  0  0  0  0  0  0  0  0  0
   30.6403   18.2622   78.2292 C   0  0  0  0  0  0  0  0  0  0  0  0
   30.9570   19.5980   78.2701 N   0  0  0  0  0  0  0  0  0  0  0  0
  2  1  1  1  0  0  0
  2  3  1  0  0  0  0
  2  5  1  0  0  0  0
  3  4  1  0  0  0  0
  3 17  1  0  0  0  0
  5  6  1  0  0  0  0
  7  6  1  6  0  0  0
  7  8  1  0  0  0  0
  7  9  1  0  0  0  0
 10  9  1  6  0  0  0
 10 11  1  0  0  0  0
 10 12  1  0  0  0  0
 11 16  1  0  0  0  0
 12 13  1  1  0  0  0
 12 14  1  0  0  0  0
 14 15  1  1  0  0  0
 14 16  1  0  0  0  0
 16 27  1  6  0  0  0
 18 19  2  0  0  0  0
 18 23  1  0  0  0  0
 19 20  1  0  0  0  0
 20 21  2  0  0  0  0
 21 22  1  0  0  0  0
 21 27  1  0  0  0  0
 22 23  2  0  0  0  0
 22 25  1  0  0  0  0
 23 24  1  0  0  0  0
 25 26  2  0  0  0  0
 26 27  1  0  0  0  0
M  END
>  <CHROM.1>
10.31108937,50.26895328,177.24453982,-95.72385135,-178.90984108,58.06619568
-107.14640018,33.25250478,19.66643109,76.40787812,0.59333593,0.02823860,-1.69321749

>  <Name>
ligand

>  <RI>
0

>  <Rbt.Current_Directory>
/home/itssahil/PROJECTS/Mol_Feturizer/New_Systems/rnas/2QWY

>  <Rbt.Executable>
rbdock ($Id: //depot/dev/client3/rdock/2013.1/src/exe/rbdock.cxx#4 $)

>  <Rbt.Library>
libRbt.so (2013.1, Build901 2013/11/27)

>  <Rbt.Parameter_File>
/export/apps/rDock/src/rDock_2013.1_src/data/scripts/dock_solv.prm

>  <Rbt.Receptor>
prm/pocket_docking_2.prm

>  <SCORE>
-26.0308

>  <SCORE.INTER>
-24.7287

>  <SCORE.INTER.CONST>
1

>  <SCORE.INTER.POLAR>
0

>  <SCORE.INTER.ROT>
7

>  <SCORE.INTER.SOLV>
15.9881

>  <SCORE.INTER.VDW>
-30.0819

>  <SCORE.INTER.norm>
-0.915879

>  <SCORE.INTRA>
-2.19673

>  <SCORE.INTRA.DIHEDRAL>
-5.06647

>  <SCORE.INTRA.DIHEDRAL.0>
10.7382

>  <SCORE.INTRA.POLAR>
0

>  <SCORE.INTRA.POLAR.0>
0

>  <SCORE.INTRA.REPUL>
0

>  <SCORE.INTRA.REPUL.0>
0

>  <SCORE.INTRA.SOLV>
-0.377861

>  <SCORE.INTRA.SOLV.lig_0>
-49.2501

>  <SCORE.INTRA.VDW>
0.525436

>  <SCORE.INTRA.VDW.0>
-1.75368

>  <SCORE.INTRA.norm>
-0.0813603

>  <SCORE.RESTR>
0.894667

>  <SCORE.RESTR.CAVITY>
0.894667

>  <SCORE.RESTR.norm>
0.0331358

>  <SCORE.SYSTEM>
0

>  <SCORE.SYSTEM.CONST>
0

>  <SCORE.SYSTEM.DIHEDRAL>
0

>  <SCORE.SYSTEM.SOLV>
0

>  <SCORE.SYSTEM.norm>
0

>  <SCORE.heavy>
27

>  <SCORE.norm>
-0.964103

>  <RMSD>
1.186

$$$$
ligand
 OpenBabel11021811463D
libRbt.so/2013.1/901 2013/11/27
 27 29  0  0  0  0  0  0  0  0999 V2000
   37.1280   17.8136   71.6521 N   0  0  0  0  0  0  0  0  0  0  0  0
   37.1985   17.1787   72.9798 C   0  0  2  0  0  0  0  0  0  0  0  0
   36.9164   15.6952   72.8635 C   0  0  0  0  0  0  0  0  0  0  0  0
   35.7617   15.2967   72.6798 O   0  0  0  0  0  0  0  0  0  0  0  0
   36.1526   17.8111   73.8922 C   0  0  0  0  0  0  0  0  0  0  0  0
   36.5440   19.2306   74.2434 C   0  0  0  0  0  0  0  0  0  0  0  0
   35.1352   20.0070   75.0544 S   0  0  2  0  0  0  0  0  0  0  0  0
   35.8566   21.6463   75.3438 C   0  0  0  0  0  0  0  0  0  0  0  0
   35.2673   19.2847   76.7255 C   0  0  0  0  0  0  0  0  0  0  0  0
   34.3746   20.0787   77.6753 C   0  0  1  0  0  0  0  0  0  0  0  0
   33.0401   19.8981   77.2621 O   0  0  0  0  0  0  0  0  0  0  0  0
   34.4529   19.5364   79.1065 C   0  0  1  0  0  0  0  0  0  0  0  0
   35.4408   20.0408   80.0185 O   0  0  0  0  0  0  0  0  0  0  0  0
   32.9738   19.6250   79.6093 C   0  0  1  0  0  0  0  0  0  0  0  0
   32.9757   20.2371   80.9104 O   0  0  0  0  0  0  0  0  0  0  0  0
   32.2151   20.2203   78.3705 C   0  0  2  0  0  0  0  0  0  0  0  0
   37.8431   14.8993   72.8813 O   0  0  0  0  0  0  0  0  0  0  0  0
   27.1967   21.1109   77.3089 N   0  0  0  0  0  0  0  0  0  0  0  0
   28.1815   21.9986   77.4879 C   0  0  0  0  0  0  0  0  0  0  0  0
   29.4221   21.6140   77.7743 N   0  0  0  0  0  0  0  0  0  0  0  0
   29.7441   20.3114   77.8733 C   0  0  0  0  0  0  0  0  0  0  0  0
   28.7383   19.3275   77.6770 C   0  0  0  0  0  0  0  0  0  0  0  0
   27.4195   19.7851   77.3842 C   0  0  0  0  0  0  0  0  0  0  0  0
   26.3876   18.8902   77.1715 N   0  0  0  0  0  0  0  0  0  0  0  0
   29.3264   18.1179   77.8242 N   0  0  0  0  0  0  0  0  0  0  0  0
   30.5898   18.2859   78.0875 C   0  0  0  0  0  0  0  0  0  0  0  0
   30.8967   19.6239   78.1290 N   0  0  0  0  0  0  0  0  0  0  0  0
  2  1  1  6  0  0  0
  2  3  1  0  0  0  0
  2  5  1  0  0  0  0
  3  4  1  0  0  0  0
  3 17  1  0  0  0  0
  5  6  1  0  0  0  0
  7  6  1  6  0  0  0
  7  8  1  0  0  0  0
  7  9  1  0  0  0  0
 10  9  1  6  0  0  0
 10 11  1  0  0  0  0
 10 12  1  0  0  0  0
 11 16  1  0  0  0  0
 12 13  1  1  0  0  0
 12 14  1  0  0  0  0
 14 15  1  1  0  0  0
 14 16  1  0  0  0  0
 16 27  1  6  0  0  0
 18 19  2  0  0  0  0
 18 23  1  0  0  0  0
 19 20  1  0  0  0  0
 20 21  2  0  0  0  0
 21 22  1  0  0  0  0
 21 27  1  0  0  0  0
 22 23  2  0  0  0  0
 22 25  1  0  0  0  0
 23 24  1  0  0  0  0
 25 26  2  0  0  0  0
 26 27  1  0  0  0  0
M  END
>  <CHROM.1>
-74.85492020,-70.36659056,169.60277604,-179.61676434,165.84250030,64.76821881
-111.40049541,33.08917443,19.18234896,76.50005835,0.61624599,-0.00272368
-2.12651135

>  <Name>
ligand

>  <RI>
0

>  <Rbt.Current_Directory>
/home/itssahil/PROJECTS/Mol_Feturizer/New_Systems/rnas/2QWY

>  <Rbt.Executable>
rbdock ($Id: //depot/dev/client3/rdock/2013.1/src/exe/rbdock.cxx#4 $)

>  <Rbt.Library>
libRbt.so (2013.1, Build901 2013/11/27)

>  <Rbt.Parameter_File>
/export/apps/rDock/src/rDock_2013.1_src/data/scripts/dock_solv.prm

>  <Rbt.Receptor>
prm/pocket_docking_3.prm

>  <SCORE>
-27.8101

>  <SCORE.INTER>
-24.4023

>  <SCORE.INTER.CONST>
1

>  <SCORE.INTER.POLAR>
0

>  <SCORE.INTER.ROT>
7

>  <SCORE.INTER.SOLV>
14.3896

>  <SCORE.INTER.VDW>
-29.3314

>  <SCORE.INTER.norm>
-0.903789

>  <SCORE.INTRA>
-3.40844

>  <SCORE.INTRA.DIHEDRAL>
-6.43853

>  <SCORE.INTRA.DIHEDRAL.0>
10.7382

>  <SCORE.INTRA.POLAR>
0

>  <SCORE.INTRA.POLAR.0>
0

>  <SCORE.INTRA.REPUL>
0

>  <SCORE.INTRA.REPUL.0>
0

>  <SCORE.INTRA.SOLV>
-0.550757

>  <SCORE.INTRA.SOLV.lig_0>
-49.2501

>  <SCORE.INTRA.VDW>
0.0862017

>  <SCORE.INTRA.VDW.0>
-1.75368

>  <SCORE.INTRA.norm>
-0.126239

>  <SCORE.RESTR>
0.000677449

>  <SCORE.RESTR.CAVITY>
0.000677449

>  <SCORE.RESTR.norm>
2.50907e-05

>  <SCORE.SYSTEM>
0

>  <SCORE.SYSTEM.CONST>
0

>  <SCORE.SYSTEM.DIHEDRAL>
0

>  <SCORE.SYSTEM.SOLV>
0

>  <SCORE.SYSTEM.norm>
0

>  <SCORE.heavy>
27

>  <SCORE.norm>
-1.03

>  <RMSD>
1.258

$$$$
ligand
 OpenBabel11021811463D
libRbt.so/2013.1/901 2013/11/27
 27 29  0  0  0  0  0  0  0  0999 V2000
   37.5833   16.5025   71.5489 N   0  0  0  0  0  0  0  0  0  0  0  0
   36.3936   17.3498   71.7427 C   0  0  2  0  0  0  0  0  0  0  0  0
   36.7484   18.8051   71.5188 C   0  0  0  0  0  0  0  0  0  0  0  0
   37.8821   19.1150   71.1387 O   0  0  0  0  0  0  0  0  0  0  0  0
   35.8855   17.1786   73.1705 C   0  0  0  0  0  0  0  0  0  0  0  0
   36.6497   18.0795   74.1169 C   0  0  0  0  0  0  0  0  0  0  0  0
   35.5011   19.3130   74.7529 S   0  0  2  0  0  0  0  0  0  0  0  0
   36.6385   20.7234   74.8443 C   0  0  0  0  0  0  0  0  0  0  0  0
   35.4266   18.8300   76.5116 C   0  0  0  0  0  0  0  0  0  0  0  0
   34.5583   19.8371   77.2608 C   0  0  1  0  0  0  0  0  0  0  0  0
   33.2146   19.5773   76.9274 O   0  0  0  0  0  0  0  0  0  0  0  0
   34.6627   19.6510   78.7783 C   0  0  1  0  0  0  0  0  0  0  0  0
   35.6721   20.3479   79.5251 O   0  0  0  0  0  0  0  0  0  0  0  0
   33.1948   19.8728   79.2727 C   0  0  1  0  0  0  0  0  0  0  0  0
   33.2269   20.7775   80.3899 O   0  0  0  0  0  0  0  0  0  0  0  0
   32.4143   20.1633   77.9419 C   0  0  2  0  0  0  0  0  0  0  0  0
   35.8895   19.6645   71.6471 O   0  0  0  0  0  0  0  0  0  0  0  0
   27.2849   20.9521   77.5286 N   0  0  0  0  0  0  0  0  0  0  0  0
   28.2669   21.8593   77.5758 C   0  0  0  0  0  0  0  0  0  0  0  0
   29.5413   21.5001   77.7024 N   0  0  0  0  0  0  0  0  0  0  0  0
   29.8987   20.2045   77.7652 C   0  0  0  0  0  0  0  0  0  0  0  0
   28.8955   19.2005   77.7040 C   0  0  0  0  0  0  0  0  0  0  0  0
   27.5413   19.6312   77.5807 C   0  0  0  0  0  0  0  0  0  0  0  0
   26.5083   18.7156   77.5062 N   0  0  0  0  0  0  0  0  0  0  0  0
   29.5211   18.0032   77.7802 N   0  0  0  0  0  0  0  0  0  0  0  0
   30.8043   18.1969   77.8785 C   0  0  0  0  0  0  0  0  0  0  0  0
   31.0878   19.5406   77.8742 N   0  0  0  0  0  0  0  0  0  0  0  0
  2  1  1  1  0  0  0
  2  3  1  0  0  0  0
  2  5  1  0  0  0  0
  3  4  1  0  0  0  0
  3 17  1  0  0  0  0
  5  6  1  0  0  0  0
  7  6  1  6  0  0  0
  7  8  1  0  0  0  0
  7  9  1  0  0  0  0
 10  9  1  6  0  0  0
 10 11  1  0  0  0  0
 10 12  1  0  0  0  0
 11 16  1  0  0  0  0
 12 13  1  1  0  0  0
 12 14  1  0  0  0  0
 14 15  1  1  0  0  0
 14 16  1  0  0  0  0
 16 27  1  1  0  0  0
 18 19  2  0  0  0  0
 18 23  1  0  0  0  0
 19 20  1  0  0  0  0
 20 21  2  0  0  0  0
 21 22  1  0  0  0  0
 21 27  1  0  0  0  0
 22 23  2  0  0  0  0
 22 25  1  0  0  0  0
 23 24  1  0  0  0  0
 25 26  2  0  0  0  0
 26 27  1  0  0  0  0
M  END
>  <CHROM.1>
4.51253770,83.64939862,113.72866156,-144.34601805,176.06156680,74.67374999
-126.32080863,33.24266519,19.39713748,76.11867429,0.63494967,-0.01509324
-1.86336817

>  <Name>
ligand

>  <RI>
0

>  <Rbt.Current_Directory>
/home/itssahil/PROJECTS/Mol_Feturizer/New_Systems/rnas/2QWY

>  <Rbt.Executable>
rbdock ($Id: //depot/dev/client3/rdock/2013.1/src/exe/rbdock.cxx#4 $)

>  <Rbt.Library>
libRbt.so (2013.1, Build901 2013/11/27)

>  <Rbt.Parameter_File>
/export/apps/rDock/src/rDock_2013.1_src/data/scripts/dock_solv.prm

>  <Rbt.Receptor>
prm/pocket_docking_2.prm

>  <SCORE>
-21.7556

>  <SCORE.INTER>
-24.647

>  <SCORE.INTER.CONST>
1

>  <SCORE.INTER.POLAR>
0

>  <SCORE.INTER.ROT>
7

>  <SCORE.INTER.SOLV>
14.5013

>  <SCORE.INTER.VDW>
-29.5318

>  <SCORE.INTER.norm>
-0.912853

>  <SCORE.INTRA>
2.85144

>  <SCORE.INTRA.DIHEDRAL>
4.28957

>  <SCORE.INTRA.DIHEDRAL.0>
10.7382

>  <SCORE.INTRA.POLAR>
0

>  <SCORE.INTRA.POLAR.0>
0

>  <SCORE.INTRA.REPUL>
0

>  <SCORE.INTRA.REPUL.0>
0

>  <SCORE.INTRA.SOLV>
-0.703246

>  <SCORE.INTRA.SOLV.lig_0>
-49.2501

>  <SCORE.INTRA.VDW>
1.05828

>  <SCORE.INTRA.VDW.0>
-1.75368

>  <SCORE.INTRA.norm>
0.105609

>  <SCORE.RESTR>
0.0399834

>  <SCORE.RESTR.CAVITY>
0.0399834

>  <SCORE.RESTR.norm>
0.00148087

>  <SCORE.SYSTEM>
0

>  <SCORE.SYSTEM.CONST>
0

>  <SCORE.SYSTEM.DIHEDRAL>
0

>  <SCORE.SYSTEM.SOLV>
0

>  <SCORE.SYSTEM.norm>
0

>  <SCORE.heavy>
27

>  <SCORE.norm>
-0.805763

>  <RMSD>
1.279

$$$$
ligand
 OpenBabel11021811463D
libRbt.so/2013.1/901 2013/11/27
 27 29  0  0  0  0  0  0  0  0999 V2000
   37.6539   19.4325   71.4245 N   0  0  0  0  0  0  0  0  0  0  0  0
   36.8995   18.7707   72.5031 C   0  0  2  0  0  0  0  0  0  0  0  0
   36.1970   17.5401   71.9683 C   0  0  0  0  0  0  0  0  0  0  0  0
   35.9573   16.5884   72.7185 O   0  0  0  0  0  0  0  0  0  0  0  0
   35.8547   19.7387   73.0488 C   0  0  0  0  0  0  0  0  0  0  0  0
   35.2226   19.1827   74.3068 C   0  0  0  0  0  0  0  0  0  0  0  0
   36.4253   19.3293   75.6400 S   0  0  2  0  0  0  0  0  0  0  0  0
   37.2892   17.7517   75.4026 C   0  0  0  0  0  0  0  0  0  0  0  0
   35.3820   18.9246   77.0821 C   0  0  0  0  0  0  0  0  0  0  0  0
   34.4152   20.0797   77.3280 C   0  0  1  0  0  0  0  0  0  0  0  0
   33.1184   19.6287   77.0133 O   0  0  0  0  0  0  0  0  0  0  0  0
   34.3788   20.4777   78.8075 C   0  0  1  0  0  0  0  0  0  0  0  0
   35.2899   21.4657   79.3137 O   0  0  0  0  0  0  0  0  0  0  0  0
   32.8641   20.7721   79.0666 C   0  0  1  0  0  0  0  0  0  0  0  0
   32.7608   22.0271   79.7608 O   0  0  0  0  0  0  0  0  0  0  0  0
   32.2067   20.4967   77.6678 C   0  0  2  0  0  0  0  0  0  0  0  0
   35.8057   17.5210   70.8111 O   0  0  0  0  0  0  0  0  0  0  0  0
   27.0283   21.0029   77.4867 N   0  0  0  0  0  0  0  0  0  0  0  0
   27.9632   21.9553   77.3920 C   0  0  0  0  0  0  0  0  0  0  0  0
   29.2594   21.6694   77.4759 N   0  0  0  0  0  0  0  0  0  0  0  0
   29.6864   20.4038   77.6368 C   0  0  0  0  0  0  0  0  0  0  0  0
   28.7348   19.3529   77.7277 C   0  0  0  0  0  0  0  0  0  0  0  0
   27.3554   19.7064   77.6453 C   0  0  0  0  0  0  0  0  0  0  0  0
   26.3688   18.7407   77.7165 N   0  0  0  0  0  0  0  0  0  0  0  0
   29.4248   18.1987   77.8770 N   0  0  0  0  0  0  0  0  0  0  0  0
   30.6998   18.4603   77.8811 C   0  0  0  0  0  0  0  0  0  0  0  0
   30.9126   19.8093   77.7362 N   0  0  0  0  0  0  0  0  0  0  0  0
  2  1  1  6  0  0  0
  2  3  1  0  0  0  0
  2  5  1  0  0  0  0
  3  4  1  0  0  0  0
  3 17  1  0  0  0  0
  5  6  1  0  0  0  0
  7  6  1  6  0  0  0
  7  8  1  0  0  0  0
  7  9  1  0  0  0  0
 10  9  1  1  0  0  0
 10 11  1  0  0  0  0
 10 12  1  0  0  0  0
 11 16  1  0  0  0  0
 12 13  1  6  0  0  0
 12 14  1  0  0  0  0
 14 15  1  6  0  0  0
 14 16  1  0  0  0  0
 16 27  1  1  0  0  0
 18 19  2  0  0  0  0
 18 23  1  0  0  0  0
 19 20  1  0  0  0  0
 20 21  2  0  0  0  0
 21 22  1  0  0  0  0
 21 27  1  0  0  0  0
 22 23  2  0  0  0  0
 22 25  1  0  0  0  0
 23 24  1  0  0  0  0
 25 26  2  0  0  0  0
 26 27  1  0  0  0  0
M  END
>  <CHROM.1>
152.03995382,-170.38814208,73.83815473,-87.91373602,-71.09167180,110.96425564
-144.90141888,33.07503031,19.56679139,76.24709983,0.58618570,-0.05459820
-2.01714648

>  <Name>
ligand

>  <RI>
0

>  <Rbt.Current_Directory>
/home/itssahil/PROJECTS/Mol_Feturizer/New_Systems/rnas/2QWY

>  <Rbt.Executable>
rbdock ($Id: //depot/dev/client3/rdock/2013.1/src/exe/rbdock.cxx#4 $)

>  <Rbt.Library>
libRbt.so (2013.1, Build901 2013/11/27)

>  <Rbt.Parameter_File>
/export/apps/rDock/src/rDock_2013.1_src/data/scripts/dock_solv.prm

>  <Rbt.Receptor>
prm/pocket_docking_3.prm

>  <SCORE>
-23.7168

>  <SCORE.INTER>
-22.8775

>  <SCORE.INTER.CONST>
1

>  <SCORE.INTER.POLAR>
0

>  <SCORE.INTER.ROT>
7

>  <SCORE.INTER.SOLV>
15.1752

>  <SCORE.INTER.VDW>
-28.5767

>  <SCORE.INTER.norm>
-0.847315

>  <SCORE.INTRA>
-0.839345

>  <SCORE.INTRA.DIHEDRAL>
-0.631579

>  <SCORE.INTRA.DIHEDRAL.0>
10.7382

>  <SCORE.INTRA.POLAR>
0

>  <SCORE.INTRA.POLAR.0>
0

>  <SCORE.INTRA.REPUL>
0

>  <SCORE.INTRA.REPUL.0>
0

>  <SCORE.INTRA.SOLV>
-0.677749

>  <SCORE.INTRA.SOLV.lig_0>
-49.2501

>  <SCORE.INTRA.VDW>
-0.184681

>  <SCORE.INTRA.VDW.0>
-1.75368

>  <SCORE.INTRA.norm>
-0.0310868

>  <SCORE.RESTR>
0

>  <SCORE.RESTR.CAVITY>
0

>  <SCORE.RESTR.norm>
0

>  <SCORE.SYSTEM>
0

>  <SCORE.SYSTEM.CONST>
0

>  <SCORE.SYSTEM.DIHEDRAL>
0

>  <SCORE.SYSTEM.SOLV>
0

>  <SCORE.SYSTEM.norm>
0

>  <SCORE.heavy>
27

>  <SCORE.norm>
-0.878402

>  <RMSD>
1.312

$$$$
ligand
 OpenBabel11021811463D
libRbt.so/2013.1/901 2013/11/27
 27 29  0  0  0  0  0  0  0  0999 V2000
   36.2724   17.7903   70.4783 N   0  0  0  0  0  0  0  0  0  0  0  0
   36.6089   18.3189   71.8117 C   0  0  2  0  0  0  0  0  0  0  0  0
   38.0539   18.7714   71.8433 C   0  0  0  0  0  0  0  0  0  0  0  0
   38.9649   17.9375   71.8184 O   0  0  0  0  0  0  0  0  0  0  0  0
   36.4122   17.2187   72.8496 C   0  0  0  0  0  0  0  0  0  0  0  0
   36.7607   17.7260   74.2325 C   0  0  0  0  0  0  0  0  0  0  0  0
   35.4671   18.8712   74.7425 S   0  0  2  0  0  0  0  0  0  0  0  0
   36.3532   20.4284   74.4568 C   0  0  0  0  0  0  0  0  0  0  0  0
   35.5978   18.7414   76.5585 C   0  0  0  0  0  0  0  0  0  0  0  0
   34.7245   19.8211   77.1919 C   0  0  1  0  0  0  0  0  0  0  0  0
   33.3843   19.5356   76.8655 O   0  0  0  0  0  0  0  0  0  0  0  0
   34.8058   19.7849   78.7217 C   0  0  1  0  0  0  0  0  0  0  0  0
   35.8083   20.5476   79.4114 O   0  0  0  0  0  0  0  0  0  0  0  0
   33.3322   20.0606   79.1698 C   0  0  1  0  0  0  0  0  0  0  0  0
   33.3533   21.0708   80.1929 O   0  0  0  0  0  0  0  0  0  0  0  0
   32.5728   20.2221   77.8053 C   0  0  2  0  0  0  0  0  0  0  0  0
   38.3155   19.9646   71.8222 O   0  0  0  0  0  0  0  0  0  0  0  0
   27.4396   21.0119   77.4437 N   0  0  0  0  0  0  0  0  0  0  0  0
   28.4246   21.9172   77.4447 C   0  0  0  0  0  0  0  0  0  0  0  0
   29.6999   21.5587   77.5641 N   0  0  0  0  0  0  0  0  0  0  0  0
   30.0549   20.2650   77.6658 C   0  0  0  0  0  0  0  0  0  0  0  0
   29.0483   19.2625   77.6544 C   0  0  0  0  0  0  0  0  0  0  0  0
   27.6935   19.6928   77.5372 C   0  0  0  0  0  0  0  0  0  0  0  0
   26.6572   18.7784   77.5098 N   0  0  0  0  0  0  0  0  0  0  0  0
   29.6719   18.0666   77.7620 N   0  0  0  0  0  0  0  0  0  0  0  0
   30.9570   18.2595   77.8339 C   0  0  0  0  0  0  0  0  0  0  0  0
   31.2439   19.6015   77.7793 N   0  0  0  0  0  0  0  0  0  0  0  0
  2  1  1  6  0  0  0
  2  3  1  0  0  0  0
  2  5  1  0  0  0  0
  3  4  1  0  0  0  0
  3 17  1  0  0  0  0
  5  6  1  0  0  0  0
  7  6  1  6  0  0  0
  7  8  1  0  0  0  0
  7  9  1  0  0  0  0
 10  9  1  6  0  0  0
 10 11  1  0  0  0  0
 10 12  1  0  0  0  0
 11 16  1  0  0  0  0
 12 13  1  1  0  0  0
 12 14  1  0  0  0  0
 14 15  1  1  0  0  0
 14 16  1  0  0  0  0
 16 27  1  1  0  0  0
 18 19  2  0  0  0  0
 18 23  1  0  0  0  0
 19 20  1  0  0  0  0
 20 21  2  0  0  0  0
 21 22  1  0  0  0  0
 21 27  1  0  0  0  0
 22 23  2  0  0  0  0
 22 25  1  0  0  0  0
 23 24  1  0  0  0  0
 25 26  2  0  0  0  0
 26 27  1  0  0  0  0
M  END
>  <CHROM.1>
-70.99108904,179.53955355,71.65466177,-102.90389115,170.80721428,64.91985501
-130.39340006,33.49130325,19.42756340,76.05540252,0.60678381,-0.02179710
-1.87689145

>  <Name>
ligand

>  <RI>
0

>  <Rbt.Current_Directory>
/home/itssahil/PROJECTS/Mol_Feturizer/New_Systems/rnas/2QWY

>  <Rbt.Executable>
rbdock ($Id: //depot/dev/client3/rdock/2013.1/src/exe/rbdock.cxx#4 $)

>  <Rbt.Library>
libRbt.so (2013.1, Build901 2013/11/27)

>  <Rbt.Parameter_File>
/export/apps/rDock/src/rDock_2013.1_src/data/scripts/dock_solv.prm

>  <Rbt.Receptor>
prm/pocket_docking_3.prm

>  <SCORE>
-26.3353

>  <SCORE.INTER>
-23.5017

>  <SCORE.INTER.CONST>
1

>  <SCORE.INTER.POLAR>
0

>  <SCORE.INTER.ROT>
7

>  <SCORE.INTER.SOLV>
18.2399

>  <SCORE.INTER.VDW>
-30.0144

>  <SCORE.INTER.norm>
-0.870433

>  <SCORE.INTRA>
-2.83357

>  <SCORE.INTRA.DIHEDRAL>
-4.37604

>  <SCORE.INTRA.DIHEDRAL.0>
10.7382

>  <SCORE.INTRA.POLAR>
0

>  <SCORE.INTRA.POLAR.0>
0

>  <SCORE.INTRA.REPUL>
0

>  <SCORE.INTRA.REPUL.0>
0

>  <SCORE.INTRA.SOLV>
-1.05546

>  <SCORE.INTRA.SOLV.lig_0>
-49.2501

>  <SCORE.INTRA.VDW>
-0.117825

>  <SCORE.INTRA.VDW.0>
-1.75368

>  <SCORE.INTRA.norm>
-0.104947

>  <SCORE.RESTR>
0

>  <SCORE.RESTR.CAVITY>
0

>  <SCORE.RESTR.norm>
0

>  <SCORE.SYSTEM>
0

>  <SCORE.SYSTEM.CONST>
0

>  <SCORE.SYSTEM.DIHEDRAL>
0

>  <SCORE.SYSTEM.SOLV>
0

>  <SCORE.SYSTEM.norm>
0

>  <SCORE.heavy>
27

>  <SCORE.norm>
-0.97538

>  <RMSD>
1.334

$$$$
ligand
 OpenBabel11021811463D
libRbt.so/2013.1/901 2013/11/27
 27 29  0  0  0  0  0  0  0  0999 V2000
   35.9596   15.1469   72.9111 N   0  0  0  0  0  0  0  0  0  0  0  0
   35.9911   16.6193   72.9530 C   0  0  2  0  0  0  0  0  0  0  0  0
   36.5448   17.1657   71.6535 C   0  0  0  0  0  0  0  0  0  0  0  0
   37.5744   16.6858   71.1683 O   0  0  0  0  0  0  0  0  0  0  0  0
   36.8900   17.0673   74.1009 C   0  0  0  0  0  0  0  0  0  0  0  0
   36.9968   18.5770   74.1325 C   0  0  0  0  0  0  0  0  0  0  0  0
   35.4299   19.2285   74.7371 S   0  0  2  0  0  0  0  0  0  0  0  0
   35.8620   20.9902   74.7713 C   0  0  0  0  0  0  0  0  0  0  0  0
   35.5562   18.8195   76.5115 C   0  0  0  0  0  0  0  0  0  0  0  0
   34.7051   19.8075   77.3047 C   0  0  1  0  0  0  0  0  0  0  0  0
   33.3571   19.5849   76.9618 O   0  0  0  0  0  0  0  0  0  0  0  0
   34.8070   19.5540   78.8126 C   0  0  1  0  0  0  0  0  0  0  0  0
   35.8282   20.2009   79.5878 O   0  0  0  0  0  0  0  0  0  0  0  0
   33.3432   19.7785   79.3177 C   0  0  1  0  0  0  0  0  0  0  0  0
   33.3909   20.6332   80.4731 O   0  0  0  0  0  0  0  0  0  0  0  0
   32.5671   20.1396   78.0017 C   0  0  2  0  0  0  0  0  0  0  0  0
   35.9313   18.0339   71.0514 O   0  0  0  0  0  0  0  0  0  0  0  0
   27.4634   21.0270   77.4837 N   0  0  0  0  0  0  0  0  0  0  0  0
   28.4618   21.9150   77.5489 C   0  0  0  0  0  0  0  0  0  0  0  0
   29.7261   21.5314   77.7018 N   0  0  0  0  0  0  0  0  0  0  0  0
   30.0569   20.2293   77.7743 C   0  0  0  0  0  0  0  0  0  0  0  0
   29.0357   19.2448   77.6949 C   0  0  0  0  0  0  0  0  0  0  0  0
   27.6929   19.7015   77.5435 C   0  0  0  0  0  0  0  0  0  0  0  0
   26.6440   18.8059   77.4499 N   0  0  0  0  0  0  0  0  0  0  0  0
   29.6362   18.0358   77.7859 N   0  0  0  0  0  0  0  0  0  0  0  0
   30.9207   18.2047   77.9096 C   0  0  0  0  0  0  0  0  0  0  0  0
   31.2304   19.5426   77.9085 N   0  0  0  0  0  0  0  0  0  0  0  0
  2  1  1  6  0  0  0
  2  3  1  0  0  0  0
  2  5  1  0  0  0  0
  3  4  1  0  0  0  0
  3 17  1  0  0  0  0
  5  6  1  0  0  0  0
  7  6  1  6  0  0  0
  7  8  1  0  0  0  0
  7  9  1  0  0  0  0
 10  9  1  6  0  0  0
 10 11  1  0  0  0  0
 10 12  1  0  0  0  0
 11 16  1  0  0  0  0
 12 13  1  1  0  0  0
 12 14  1  0  0  0  0
 14 15  1  1  0  0  0
 14 16  1  0  0  0  0
 16 27  1  1  0  0  0
 18 19  2  0  0  0  0
 18 23  1  0  0  0  0
 19 20  1  0  0  0  0
 20 21  2  0  0  0  0
 21 22  1  0  0  0  0
 21 27  1  0  0  0  0
 22 23  2  0  0  0  0
 22 25  1  0  0  0  0
 23 24  1  0  0  0  0
 25 26  2  0  0  0  0
 26 27  1  0  0  0  0
M  END
>  <CHROM.1>
-46.98885565,177.35018289,72.97064314,176.70211890,153.67508229,66.09288524
-123.44682462,33.26057606,19.11888618,76.22899928,0.66925041,0.01092028,-2.01484747

>  <Name>
ligand

>  <RI>
0

>  <Rbt.Current_Directory>
/home/itssahil/PROJECTS/Mol_Feturizer/New_Systems/rnas/2QWY

>  <Rbt.Executable>
rbdock ($Id: //depot/dev/client3/rdock/2013.1/src/exe/rbdock.cxx#4 $)

>  <Rbt.Library>
libRbt.so (2013.1, Build901 2013/11/27)

>  <Rbt.Parameter_File>
/export/apps/rDock/src/rDock_2013.1_src/data/scripts/dock_solv.prm

>  <Rbt.Receptor>
prm/pocket_docking_4.prm

>  <SCORE>
-26.115

>  <SCORE.INTER>
-23.1766

>  <SCORE.INTER.CONST>
1

>  <SCORE.INTER.POLAR>
0

>  <SCORE.INTER.ROT>
7

>  <SCORE.INTER.SOLV>
18.3498

>  <SCORE.INTER.VDW>
-29.8344

>  <SCORE.INTER.norm>
-0.858394

>  <SCORE.INTRA>
-2.93839

>  <SCORE.INTRA.DIHEDRAL>
-5.79801

>  <SCORE.INTRA.DIHEDRAL.0>
10.7382

>  <SCORE.INTRA.POLAR>
0

>  <SCORE.INTRA.POLAR.0>
0

>  <SCORE.INTRA.REPUL>
0

>  <SCORE.INTRA.REPUL.0>
0

>  <SCORE.INTRA.SOLV>
-1.05266

>  <SCORE.INTRA.SOLV.lig_0>
-49.2501

>  <SCORE.INTRA.VDW>
0.486941

>  <SCORE.INTRA.VDW.0>
-1.75368

>  <SCORE.INTRA.norm>
-0.108829

>  <SCORE.RESTR>
0

>  <SCORE.RESTR.CAVITY>
0

>  <SCORE.RESTR.norm>
0

>  <SCORE.SYSTEM>
0

>  <SCORE.SYSTEM.CONST>
0

>  <SCORE.SYSTEM.DIHEDRAL>
0

>  <SCORE.SYSTEM.SOLV>
0

>  <SCORE.SYSTEM.norm>
0

>  <SCORE.heavy>
27

>  <SCORE.norm>
-0.967223

>  <RMSD>
1.340

$$$$
ligand
 OpenBabel11021811463D
libRbt.so/2013.1/901 2013/11/27
 27 29  0  0  0  0  0  0  0  0999 V2000
   36.4295   18.2125   71.0726 N   0  0  0  0  0  0  0  0  0  0  0  0
   37.1176   19.2278   71.8890 C   0  0  2  0  0  0  0  0  0  0  0  0
   38.4217   18.6716   72.4217 C   0  0  0  0  0  0  0  0  0  0  0  0
   38.4139   17.7170   73.2056 O   0  0  0  0  0  0  0  0  0  0  0  0
   36.2260   19.6112   73.0656 C   0  0  0  0  0  0  0  0  0  0  0  0
   36.8656   20.7173   73.8771 C   0  0  0  0  0  0  0  0  0  0  0  0
   35.6222   21.3591   75.0118 S   0  0  2  0  0  0  0  0  0  0  0  0
   36.6228   22.6409   75.8163 C   0  0  0  0  0  0  0  0  0  0  0  0
   35.6398   20.0652   76.2991 C   0  0  0  0  0  0  0  0  0  0  0  0
   34.8334   20.5555   77.4987 C   0  0  1  0  0  0  0  0  0  0  0  0
   33.4675   20.4228   77.1811 O   0  0  0  0  0  0  0  0  0  0  0  0
   35.0697   19.6774   78.7323 C   0  0  1  0  0  0  0  0  0  0  0  0
   36.1357   19.9831   79.6447 O   0  0  0  0  0  0  0  0  0  0  0  0
   33.6487   19.5700   79.3785 C   0  0  1  0  0  0  0  0  0  0  0  0
   33.7718   19.8376   80.7859 O   0  0  0  0  0  0  0  0  0  0  0  0
   32.7544   20.4201   78.4077 C   0  0  2  0  0  0  0  0  0  0  0  0
   39.4826   19.1242   72.0188 O   0  0  0  0  0  0  0  0  0  0  0  0
   27.7159   21.3861   77.5221 N   0  0  0  0  0  0  0  0  0  0  0  0
   28.7051   22.2581   77.7479 C   0  0  0  0  0  0  0  0  0  0  0  0
   29.9510   21.8535   77.9781 N   0  0  0  0  0  0  0  0  0  0  0  0
   30.2737   20.5474   77.9705 C   0  0  0  0  0  0  0  0  0  0  0  0
   29.2632   19.5807   77.7206 C   0  0  0  0  0  0  0  0  0  0  0  0
   27.9389   20.0585   77.4912 C   0  0  0  0  0  0  0  0  0  0  0  0
   26.9020   19.1819   77.2323 N   0  0  0  0  0  0  0  0  0  0  0  0
   29.8530   18.3638   77.7627 N   0  0  0  0  0  0  0  0  0  0  0  0
   31.1218   18.5120   78.0117 C   0  0  0  0  0  0  0  0  0  0  0  0
   31.4308   19.8431   78.1489 N   0  0  0  0  0  0  0  0  0  0  0  0
  2  1  1  1  0  0  0
  2  3  1  0  0  0  0
  2  5  1  0  0  0  0
  3  4  1  0  0  0  0
  3 17  1  0  0  0  0
  5  6  1  0  0  0  0
  7  6  1  6  0  0  0
  7  8  1  0  0  0  0
  7  9  1  0  0  0  0
 10  9  1  6  0  0  0
 10 11  1  0  0  0  0
 10 12  1  0  0  0  0
 11 16  1  0  0  0  0
 12 13  1  1  0  0  0
 12 14  1  0  0  0  0
 14 15  1  1  0  0  0
 14 16  1  0  0  0  0
 16 27  1  6  0  0  0
 18 19  2  0  0  0  0
 18 23  1  0  0  0  0
 19 20  1  0  0  0  0
 20 21  2  0  0  0  0
 21 22  1  0  0  0  0
 21 27  1  0  0  0  0
 22 23  2  0  0  0  0
 22 25  1  0  0  0  0
 23 24  1  0  0  0  0
 25 26  2  0  0  0  0
 26 27  1  0  0  0  0
M  END
>  <CHROM.1>
-63.97820447,-176.41743892,167.83247872,-179.35892231,169.37666398,77.21372213
-100.08313539,33.71073473,20.03665568,76.35239328,0.55554546,-0.00279405
-1.73618150

>  <Name>
ligand

>  <RI>
0

>  <Rbt.Current_Directory>
/home/itssahil/PROJECTS/Mol_Feturizer/New_Systems/rnas/2QWY

>  <Rbt.Executable>
rbdock ($Id: //depot/dev/client3/rdock/2013.1/src/exe/rbdock.cxx#4 $)

>  <Rbt.Library>
libRbt.so (2013.1, Build901 2013/11/27)

>  <Rbt.Parameter_File>
/export/apps/rDock/src/rDock_2013.1_src/data/scripts/dock_solv.prm

>  <Rbt.Receptor>
prm/pocket_docking_3.prm

>  <SCORE>
-25.7944

>  <SCORE.INTER>
-22.2846

>  <SCORE.INTER.CONST>
1

>  <SCORE.INTER.POLAR>
0

>  <SCORE.INTER.ROT>
7

>  <SCORE.INTER.SOLV>
17.7214

>  <SCORE.INTER.VDW>
-29.0302

>  <SCORE.INTER.norm>
-0.825354

>  <SCORE.INTRA>
-3.54343

>  <SCORE.INTRA.DIHEDRAL>
-5.74718

>  <SCORE.INTRA.DIHEDRAL.0>
10.7382

>  <SCORE.INTRA.POLAR>
0

>  <SCORE.INTRA.POLAR.0>
0

>  <SCORE.INTRA.REPUL>
0

>  <SCORE.INTRA.REPUL.0>
0

>  <SCORE.INTRA.SOLV>
-1.27467

>  <SCORE.INTRA.SOLV.lig_0>
-49.2501

>  <SCORE.INTRA.VDW>
-0.032506

>  <SCORE.INTRA.VDW.0>
-1.75368

>  <SCORE.INTRA.norm>
-0.131238

>  <SCORE.RESTR>
0.0335618

>  <SCORE.RESTR.CAVITY>
0.0335618

>  <SCORE.RESTR.norm>
0.00124303

>  <SCORE.SYSTEM>
0

>  <SCORE.SYSTEM.CONST>
0

>  <SCORE.SYSTEM.DIHEDRAL>
0

>  <SCORE.SYSTEM.SOLV>
0

>  <SCORE.SYSTEM.norm>
0

>  <SCORE.heavy>
27

>  <SCORE.norm>
-0.955349

>  <RMSD>
1.356

$$$$
ligand
 OpenBabel11021811463D
libRbt.so/2013.1/901 2013/11/27
 27 29  0  0  0  0  0  0  0  0999 V2000
   37.1492   17.5089   71.5781 N   0  0  0  0  0  0  0  0  0  0  0  0
   37.0437   18.9303   71.2049 C   0  0  2  0  0  0  0  0  0  0  0  0
   38.3908   19.6077   71.3472 C   0  0  0  0  0  0  0  0  0  0  0  0
   39.2960   19.0589   71.9839 O   0  0  0  0  0  0  0  0  0  0  0  0
   36.0445   19.6170   72.1302 C   0  0  0  0  0  0  0  0  0  0  0  0
   36.3902   19.3457   73.5788 C   0  0  0  0  0  0  0  0  0  0  0  0
   35.2409   20.2795   74.6047 S   0  0  2  0  0  0  0  0  0  0  0  0
   36.2889   21.7206   74.9459 C   0  0  0  0  0  0  0  0  0  0  0  0
   35.3892   19.3776   76.1847 C   0  0  0  0  0  0  0  0  0  0  0  0
   34.5869   20.1194   77.2503 C   0  0  1  0  0  0  0  0  0  0  0  0
   33.2199   19.9208   76.9745 O   0  0  0  0  0  0  0  0  0  0  0  0
   34.8279   19.5333   78.6456 C   0  0  1  0  0  0  0  0  0  0  0  0
   35.8969   20.0313   79.4650 O   0  0  0  0  0  0  0  0  0  0  0  0
   33.4092   19.5708   79.3047 C   0  0  1  0  0  0  0  0  0  0  0  0
   33.5372   20.1406   80.6187 O   0  0  0  0  0  0  0  0  0  0  0  0
   32.5111   20.1875   78.1743 C   0  0  2  0  0  0  0  0  0  0  0  0
   38.6011   20.6645   70.7713 O   0  0  0  0  0  0  0  0  0  0  0  0
   27.4143   20.9848   77.4742 N   0  0  0  0  0  0  0  0  0  0  0  0
   28.3971   21.8892   77.5498 C   0  0  0  0  0  0  0  0  0  0  0  0
   29.6613   21.5286   77.7518 N   0  0  0  0  0  0  0  0  0  0  0  0
   30.0084   20.2337   77.8656 C   0  0  0  0  0  0  0  0  0  0  0  0
   29.0047   19.2322   77.7773 C   0  0  0  0  0  0  0  0  0  0  0  0
   27.6609   19.6647   77.5727 C   0  0  0  0  0  0  0  0  0  0  0  0
   26.6286   18.7514   77.4673 N   0  0  0  0  0  0  0  0  0  0  0  0
   29.6193   18.0349   77.9159 N   0  0  0  0  0  0  0  0  0  0  0  0
   30.8967   18.2261   78.0762 C   0  0  0  0  0  0  0  0  0  0  0  0
   31.1869   19.5683   78.0531 N   0  0  0  0  0  0  0  0  0  0  0  0
  2  1  1  1  0  0  0
  2  3  1  0  0  0  0
  2  5  1  0  0  0  0
  3  4  1  0  0  0  0
  3 17  1  0  0  0  0
  5  6  1  0  0  0  0
  7  6  1  6  0  0  0
  7  8  1  0  0  0  0
  7  9  1  0  0  0  0
 10  9  1  6  0  0  0
 10 11  1  0  0  0  0
 10 12  1  0  0  0  0
 11 16  1  0  0  0  0
 12 13  1  1  0  0  0
 12 14  1  0  0  0  0
 14 15  1  1  0  0  0
 14 16  1  0  0  0  0
 16 27  1  6  0  0  0
 18 19  2  0  0  0  0
 18 23  1  0  0  0  0
 19 20  1  0  0  0  0
 20 21  2  0  0  0  0
 21 22  1  0  0  0  0
 21 27  1  0  0  0  0
 22 23  2  0  0  0  0
 22 25  1  0  0  0  0
 23 24  1  0  0  0  0
 25 26  2  0  0  0  0
 26 27  1  0  0  0  0
M  END
>  <CHROM.1>
-15.14581752,51.86910855,176.08813259,-97.53958036,173.96797798,72.13204847
-107.29958761,33.50519540,19.80145965,76.05151273,0.61597423,-0.01554716
-1.64934568

>  <Name>
ligand

>  <RI>
0

>  <Rbt.Current_Directory>
/home/itssahil/PROJECTS/Mol_Feturizer/New_Systems/rnas/2QWY

>  <Rbt.Executable>
rbdock ($Id: //depot/dev/client3/rdock/2013.1/src/exe/rbdock.cxx#4 $)

>  <Rbt.Library>
libRbt.so (2013.1, Build901 2013/11/27)

>  <Rbt.Parameter_File>
/export/apps/rDock/src/rDock_2013.1_src/data/scripts/dock_solv.prm

>  <Rbt.Receptor>
prm/pocket_docking_3.prm

>  <SCORE>
-30.1056

>  <SCORE.INTER>
-27.7597

>  <SCORE.INTER.CONST>
1

>  <SCORE.INTER.POLAR>
0

>  <SCORE.INTER.ROT>
7

>  <SCORE.INTER.SOLV>
16.5291

>  <SCORE.INTER.VDW>
-32.2828

>  <SCORE.INTER.norm>
-1.02814

>  <SCORE.INTRA>
-2.34592

>  <SCORE.INTRA.DIHEDRAL>
-4.54027

>  <SCORE.INTRA.DIHEDRAL.0>
10.7382

>  <SCORE.INTRA.POLAR>
0

>  <SCORE.INTRA.POLAR.0>
0

>  <SCORE.INTRA.REPUL>
0

>  <SCORE.INTRA.REPUL.0>
0

>  <SCORE.INTRA.SOLV>
-0.429517

>  <SCORE.INTRA.SOLV.lig_0>
-49.2501

>  <SCORE.INTRA.VDW>
0.138966

>  <SCORE.INTRA.VDW.0>
-1.75368

>  <SCORE.INTRA.norm>
-0.0868861

>  <SCORE.RESTR>
0

>  <SCORE.RESTR.CAVITY>
0

>  <SCORE.RESTR.norm>
0

>  <SCORE.SYSTEM>
0

>  <SCORE.SYSTEM.CONST>
0

>  <SCORE.SYSTEM.DIHEDRAL>
0

>  <SCORE.SYSTEM.SOLV>
0

>  <SCORE.SYSTEM.norm>
0

>  <SCORE.heavy>
27

>  <SCORE.norm>
-1.11502

>  <RMSD>
1.377

$$$$
ligand
 OpenBabel11021811463D
libRbt.so/2013.1/901 2013/11/27
 27 29  0  0  0  0  0  0  0  0999 V2000
   36.3100   15.2477   72.9490 N   0  0  0  0  0  0  0  0  0  0  0  0
   36.1643   16.6585   72.5500 C   0  0  2  0  0  0  0  0  0  0  0  0
   36.2371   16.7837   71.0423 C   0  0  0  0  0  0  0  0  0  0  0  0
   36.0921   17.8862   70.5045 O   0  0  0  0  0  0  0  0  0  0  0  0
   37.2959   17.4723   73.1692 C   0  0  0  0  0  0  0  0  0  0  0  0
   37.1337   17.5478   74.6723 C   0  0  0  0  0  0  0  0  0  0  0  0
   35.7645   18.6644   75.0243 S   0  0  2  0  0  0  0  0  0  0  0  0
   36.6364   20.2410   74.8099 C   0  0  0  0  0  0  0  0  0  0  0  0
   35.7044   18.5615   76.8456 C   0  0  0  0  0  0  0  0  0  0  0  0
   34.8284   19.6948   77.3726 C   0  0  1  0  0  0  0  0  0  0  0  0
   33.4980   19.4168   77.0025 O   0  0  0  0  0  0  0  0  0  0  0  0
   34.8403   19.7497   78.9041 C   0  0  1  0  0  0  0  0  0  0  0  0
   35.8279   20.5326   79.5924 O   0  0  0  0  0  0  0  0  0  0  0  0
   33.3548   20.0814   79.2666 C   0  0  1  0  0  0  0  0  0  0  0  0
   33.3530   21.1511   80.2275 O   0  0  0  0  0  0  0  0  0  0  0  0
   32.6610   20.1750   77.8614 C   0  0  2  0  0  0  0  0  0  0  0  0
   36.5098   15.8036   70.3658 O   0  0  0  0  0  0  0  0  0  0  0  0
   27.5408   21.0751   77.5825 N   0  0  0  0  0  0  0  0  0  0  0  0
   28.5422   21.9612   77.6259 C   0  0  0  0  0  0  0  0  0  0  0  0
   29.8114   21.5739   77.7158 N   0  0  0  0  0  0  0  0  0  0  0  0
   30.1434   20.2704   77.7435 C   0  0  0  0  0  0  0  0  0  0  0  0
   29.1187   19.2883   77.6845 C   0  0  0  0  0  0  0  0  0  0  0  0
   27.7712   19.7485   77.6013 C   0  0  0  0  0  0  0  0  0  0  0  0
   26.7183   18.8556   77.5315 N   0  0  0  0  0  0  0  0  0  0  0  0
   29.7211   18.0773   77.7214 N   0  0  0  0  0  0  0  0  0  0  0  0
   31.0100   18.2430   77.7942 C   0  0  0  0  0  0  0  0  0  0  0  0
   31.3208   19.5806   77.8113 N   0  0  0  0  0  0  0  0  0  0  0  0
  2  1  1  6  0  0  0
  2  3  1  0  0  0  0
  2  5  1  0  0  0  0
  3  4  1  0  0  0  0
  3 17  1  0  0  0  0
  5  6  1  0  0  0  0
  7  6  1  1  0  0  0
  7  8  1  0  0  0  0
  7  9  1  0  0  0  0
 10  9  1  1  0  0  0
 10 11  1  0  0  0  0
 10 12  1  0  0  0  0
 11 16  1  0  0  0  0
 12 13  1  6  0  0  0
 12 14  1  0  0  0  0
 14 15  1  6  0  0  0
 14 16  1  0  0  0  0
 16 27  1  1  0  0  0
 18 19  2  0  0  0  0
 18 23  1  0  0  0  0
 19 20  1  0  0  0  0
 20 21  2  0  0  0  0
 21 22  1  0  0  0  0
 21 27  1  0  0  0  0
 22 23  2  0  0  0  0
 22 25  1  0  0  0  0
 23 24  1  0  0  0  0
 25 26  2  0  0  0  0
 26 27  1  0  0  0  0
M  END
>  <CHROM.1>
177.64327908,-68.43316822,-72.97025824,-79.49937647,166.39592777,69.35503143
-137.65294966,33.35514327,19.01948955,76.15702747,0.73231758,0.02202308,-2.04440383

>  <Name>
ligand

>  <RI>
0

>  <Rbt.Current_Directory>
/home/itssahil/PROJECTS/Mol_Feturizer/New_Systems/rnas/2QWY

>  <Rbt.Executable>
rbdock ($Id: //depot/dev/client3/rdock/2013.1/src/exe/rbdock.cxx#4 $)

>  <Rbt.Library>
libRbt.so (2013.1, Build901 2013/11/27)

>  <Rbt.Parameter_File>
/export/apps/rDock/src/rDock_2013.1_src/data/scripts/dock_solv.prm

>  <Rbt.Receptor>
prm/pocket_docking_4.prm

>  <SCORE>
-26.0942

>  <SCORE.INTER>
-23.1461

>  <SCORE.INTER.CONST>
1

>  <SCORE.INTER.POLAR>
0

>  <SCORE.INTER.ROT>
7

>  <SCORE.INTER.SOLV>
16.2953

>  <SCORE.INTER.VDW>
-29.1291

>  <SCORE.INTER.norm>
-0.857262

>  <SCORE.INTRA>
-2.94812

>  <SCORE.INTRA.DIHEDRAL>
-5.92082

>  <SCORE.INTRA.DIHEDRAL.0>
10.7382

>  <SCORE.INTRA.POLAR>
0

>  <SCORE.INTRA.POLAR.0>
0

>  <SCORE.INTRA.REPUL>
0

>  <SCORE.INTRA.REPUL.0>
0

>  <SCORE.INTRA.SOLV>
-0.123623

>  <SCORE.INTRA.SOLV.lig_0>
-49.2501

>  <SCORE.INTRA.VDW>
0.074107

>  <SCORE.INTRA.VDW.0>
-1.75368

>  <SCORE.INTRA.norm>
-0.109189

>  <SCORE.RESTR>
0

>  <SCORE.RESTR.CAVITY>
0

>  <SCORE.RESTR.norm>
0

>  <SCORE.SYSTEM>
0

>  <SCORE.SYSTEM.CONST>
0

>  <SCORE.SYSTEM.DIHEDRAL>
0

>  <SCORE.SYSTEM.SOLV>
0

>  <SCORE.SYSTEM.norm>
0

>  <SCORE.heavy>
27

>  <SCORE.norm>
-0.966451

>  <RMSD>
1.384

$$$$
ligand
 OpenBabel11021811463D
libRbt.so/2013.1/901 2013/11/27
 27 29  0  0  0  0  0  0  0  0999 V2000
   37.9852   15.7450   72.5278 N   0  0  0  0  0  0  0  0  0  0  0  0
   36.6115   16.1072   72.1372 C   0  0  2  0  0  0  0  0  0  0  0  0
   36.4922   16.1466   70.6278 C   0  0  0  0  0  0  0  0  0  0  0  0
   35.4342   15.8189   70.0812 O   0  0  0  0  0  0  0  0  0  0  0  0
   36.2806   17.4873   72.6958 C   0  0  0  0  0  0  0  0  0  0  0  0
   36.2689   17.4579   74.2092 C   0  0  0  0  0  0  0  0  0  0  0  0
   35.5094   18.9866   74.7851 S   0  0  2  0  0  0  0  0  0  0  0  0
   36.9264   20.0969   74.5596 C   0  0  0  0  0  0  0  0  0  0  0  0
   35.5683   18.7333   76.5917 C   0  0  0  0  0  0  0  0  0  0  0  0
   34.6990   19.7922   77.2644 C   0  0  1  0  0  0  0  0  0  0  0  0
   33.3590   19.5322   76.9163 O   0  0  0  0  0  0  0  0  0  0  0  0
   34.7683   19.6899   78.7918 C   0  0  1  0  0  0  0  0  0  0  0  0
   35.7716   20.4139   79.5209 O   0  0  0  0  0  0  0  0  0  0  0  0
   33.2936   19.9585   79.2406 C   0  0  1  0  0  0  0  0  0  0  0  0
   33.3151   20.9238   80.3061 O   0  0  0  0  0  0  0  0  0  0  0  0
   32.5460   20.1847   77.8787 C   0  0  2  0  0  0  0  0  0  0  0  0
   37.4217   16.5707   69.9579 O   0  0  0  0  0  0  0  0  0  0  0  0
   27.4231   21.0320   77.5016 N   0  0  0  0  0  0  0  0  0  0  0  0
   28.4154   21.9281   77.5469 C   0  0  0  0  0  0  0  0  0  0  0  0
   29.6865   21.5542   77.6638 N   0  0  0  0  0  0  0  0  0  0  0  0
   30.0299   20.2545   77.7182 C   0  0  0  0  0  0  0  0  0  0  0  0
   29.0153   19.2619   77.6585 C   0  0  0  0  0  0  0  0  0  0  0  0
   27.6652   19.7081   77.5458 C   0  0  0  0  0  0  0  0  0  0  0  0
   26.6217   18.8043   77.4734 N   0  0  0  0  0  0  0  0  0  0  0  0
   29.6280   18.0575   77.7250 N   0  0  0  0  0  0  0  0  0  0  0  0
   30.9139   18.2364   77.8161 C   0  0  0  0  0  0  0  0  0  0  0  0
   31.2123   19.5770   77.8165 N   0  0  0  0  0  0  0  0  0  0  0  0
  2  1  1  6  0  0  0
  2  3  1  0  0  0  0
  2  5  1  0  0  0  0
  3  4  1  0  0  0  0
  3 17  1  0  0  0  0
  5  6  1  0  0  0  0
  7  6  1  6  0  0  0
  7  8  1  0  0  0  0
  7  9  1  0  0  0  0
 10  9  1  6  0  0  0
 10 11  1  0  0  0  0
 10 12  1  0  0  0  0
 11 16  1  0  0  0  0
 12 13  1  1  0  0  0
 12 14  1  0  0  0  0
 14 15  1  1  0  0  0
 14 16  1  0  0  0  0
 16 27  1  1  0  0  0
 18 19  2  0  0  0  0
 18 23  1  0  0  0  0
 19 20  1  0  0  0  0
 20 21  2  0  0  0  0
 21 22  1  0  0  0  0
 21 27  1  0  0  0  0
 22 23  2  0  0  0  0
 22 25  1  0  0  0  0
 23 24  1  0  0  0  0
 25 26  2  0  0  0  0
 26 27  1  0  0  0  0
M  END
>  <CHROM.1>
146.60684429,-64.76258467,-167.09162268,-78.46026282,-168.01260074,67.32086367
-130.14971070,33.30783905,18.94976012,75.98678966,0.76396912,0.01170947,-2.05196867

>  <Name>
ligand

>  <RI>
0

>  <Rbt.Current_Directory>
/home/itssahil/PROJECTS/Mol_Feturizer/New_Systems/rnas/2QWY

>  <Rbt.Executable>
rbdock ($Id: //depot/dev/client3/rdock/2013.1/src/exe/rbdock.cxx#4 $)

>  <Rbt.Library>
libRbt.so (2013.1, Build901 2013/11/27)

>  <Rbt.Parameter_File>
/export/apps/rDock/src/rDock_2013.1_src/data/scripts/dock_solv.prm

>  <Rbt.Receptor>
prm/pocket_docking_4.prm

>  <SCORE>
-27.1132

>  <SCORE.INTER>
-23.9144

>  <SCORE.INTER.CONST>
1

>  <SCORE.INTER.POLAR>
0

>  <SCORE.INTER.ROT>
7

>  <SCORE.INTER.SOLV>
13.6282

>  <SCORE.INTER.VDW>
-28.7524

>  <SCORE.INTER.norm>
-0.88572

>  <SCORE.INTRA>
-3.19877

>  <SCORE.INTRA.DIHEDRAL>
-5.2662

>  <SCORE.INTRA.DIHEDRAL.0>
10.7382

>  <SCORE.INTRA.POLAR>
0

>  <SCORE.INTRA.POLAR.0>
0

>  <SCORE.INTRA.REPUL>
0

>  <SCORE.INTRA.REPUL.0>
0

>  <SCORE.INTRA.SOLV>
-0.611598

>  <SCORE.INTRA.SOLV.lig_0>
-49.2501

>  <SCORE.INTRA.VDW>
-0.259869

>  <SCORE.INTRA.VDW.0>
-1.75368

>  <SCORE.INTRA.norm>
-0.118473

>  <SCORE.RESTR>
0

>  <SCORE.RESTR.CAVITY>
0

>  <SCORE.RESTR.norm>
0

>  <SCORE.SYSTEM>
0

>  <SCORE.SYSTEM.CONST>
0

>  <SCORE.SYSTEM.DIHEDRAL>
0

>  <SCORE.SYSTEM.SOLV>
0

>  <SCORE.SYSTEM.norm>
0

>  <SCORE.heavy>
27

>  <SCORE.norm>
-1.00419

>  <RMSD>
1.388

$$$$
ligand
 OpenBabel11021811463D
libRbt.so/2013.1/901 2013/11/27
 27 29  0  0  0  0  0  0  0  0999 V2000
   36.5248   16.3984   72.5609 N   0  0  0  0  0  0  0  0  0  0  0  0
   36.4483   17.7803   73.0660 C   0  0  2  0  0  0  0  0  0  0  0  0
   36.9973   18.7433   72.0339 C   0  0  0  0  0  0  0  0  0  0  0  0
   38.0444   18.4784   71.4346 O   0  0  0  0  0  0  0  0  0  0  0  0
   37.2795   17.8935   74.3397 C   0  0  0  0  0  0  0  0  0  0  0  0
   37.2013   19.2972   74.9009 C   0  0  0  0  0  0  0  0  0  0  0  0
   35.6493   19.4451   75.8035 S   0  0  2  0  0  0  0  0  0  0  0  0
   34.5417   19.7344   74.3959 C   0  0  0  0  0  0  0  0  0  0  0  0
   35.8017   21.1406   76.4620 C   0  0  0  0  0  0  0  0  0  0  0  0
   34.9578   21.2528   77.7288 C   0  0  1  0  0  0  0  0  0  0  0  0
   33.6295   20.9289   77.3899 O   0  0  0  0  0  0  0  0  0  0  0  0
   35.3884   20.2287   78.7844 C   0  0  1  0  0  0  0  0  0  0  0  0
   36.4092   20.5589   79.7389 O   0  0  0  0  0  0  0  0  0  0  0  0
   34.0316   19.7480   79.3979 C   0  0  1  0  0  0  0  0  0  0  0  0
   34.1482   19.7796   80.8308 O   0  0  0  0  0  0  0  0  0  0  0  0
   32.9676   20.5771   78.5946 C   0  0  2  0  0  0  0  0  0  0  0  0
   36.3644   19.7479   71.7459 O   0  0  0  0  0  0  0  0  0  0  0  0
   27.8931   20.8159   77.4561 N   0  0  0  0  0  0  0  0  0  0  0  0
   28.7236   21.8144   77.7773 C   0  0  0  0  0  0  0  0  0  0  0  0
   30.0033   21.5912   78.0628 N   0  0  0  0  0  0  0  0  0  0  0  0
   30.5228   20.3509   78.0179 C   0  0  0  0  0  0  0  0  0  0  0  0
   29.6869   19.2569   77.6673 C   0  0  0  0  0  0  0  0  0  0  0  0
   28.3187   19.5406   77.3811 C   0  0  0  0  0  0  0  0  0  0  0  0
   27.4435   18.5320   77.0238 N   0  0  0  0  0  0  0  0  0  0  0  0
   30.4537   18.1424   77.6915 N   0  0  0  0  0  0  0  0  0  0  0  0
   31.6701   18.4675   78.0209 C   0  0  0  0  0  0  0  0  0  0  0  0
   31.7635   19.8210   78.2336 N   0  0  0  0  0  0  0  0  0  0  0  0
  2  1  1  6  0  0  0
  2  3  1  0  0  0  0
  2  5  1  0  0  0  0
  3  4  1  0  0  0  0
  3 17  1  0  0  0  0
  5  6  1  0  0  0  0
  7  6  1  6  0  0  0
  7  8  1  0  0  0  0
  7  9  1  0  0  0  0
 10  9  1  6  0  0  0
 10 11  1  0  0  0  0
 10 12  1  0  0  0  0
 11 16  1  0  0  0  0
 12 13  1  1  0  0  0
 12 14  1  0  0  0  0
 14 15  1  1  0  0  0
 14 16  1  0  0  0  0
 16 27  1  6  0  0  0
 18 19  2  0  0  0  0
 18 23  1  0  0  0  0
 19 20  1  0  0  0  0
 20 21  2  0  0  0  0
 21 22  1  0  0  0  0
 21 27  1  0  0  0  0
 22 23  2  0  0  0  0
 22 25  1  0  0  0  0
 23 24  1  0  0  0  0
 25 26  2  0  0  0  0
 26 27  1  0  0  0  0
M  END
>  <CHROM.1>
-44.02995672,-178.92243503,80.16321403,-80.57030601,-154.33602631,-58.05387294
-91.26274650,33.66177154,19.62490819,76.46992173,0.61475484,-0.02227696,-1.88595585

>  <Name>
ligand

>  <RI>
0

>  <Rbt.Current_Directory>
/home/itssahil/PROJECTS/Mol_Feturizer/New_Systems/rnas/2QWY

>  <Rbt.Executable>
rbdock ($Id: //depot/dev/client3/rdock/2013.1/src/exe/rbdock.cxx#4 $)

>  <Rbt.Library>
libRbt.so (2013.1, Build901 2013/11/27)

>  <Rbt.Parameter_File>
/export/apps/rDock/src/rDock_2013.1_src/data/scripts/dock_solv.prm

>  <Rbt.Receptor>
prm/pocket_docking_2.prm

>  <SCORE>
-17.3096

>  <SCORE.INTER>
-15.8198

>  <SCORE.INTER.CONST>
1

>  <SCORE.INTER.POLAR>
0

>  <SCORE.INTER.ROT>
7

>  <SCORE.INTER.SOLV>
19.1004

>  <SCORE.INTER.VDW>
-25.18

>  <SCORE.INTER.norm>
-0.585919

>  <SCORE.INTRA>
-1.48978

>  <SCORE.INTRA.DIHEDRAL>
-2.97643

>  <SCORE.INTRA.DIHEDRAL.0>
10.7382

>  <SCORE.INTRA.POLAR>
0

>  <SCORE.INTRA.POLAR.0>
0

>  <SCORE.INTRA.REPUL>
0

>  <SCORE.INTRA.REPUL.0>
0

>  <SCORE.INTRA.SOLV>
-0.491669

>  <SCORE.INTRA.SOLV.lig_0>
-49.2501

>  <SCORE.INTRA.VDW>
0.244267

>  <SCORE.INTRA.VDW.0>
-1.75368

>  <SCORE.INTRA.norm>
-0.0551771

>  <SCORE.RESTR>
0

>  <SCORE.RESTR.CAVITY>
0

>  <SCORE.RESTR.norm>
0

>  <SCORE.SYSTEM>
0

>  <SCORE.SYSTEM.CONST>
0

>  <SCORE.SYSTEM.DIHEDRAL>
0

>  <SCORE.SYSTEM.SOLV>
0

>  <SCORE.SYSTEM.norm>
0

>  <SCORE.heavy>
27

>  <SCORE.norm>
-0.641096

>  <RMSD>
1.393

$$$$
ligand
 OpenBabel11021811463D
libRbt.so/2013.1/901 2013/11/27
 27 29  0  0  0  0  0  0  0  0999 V2000
   36.6467   18.2597   71.6874 N   0  0  0  0  0  0  0  0  0  0  0  0
   36.6945   19.7038   71.9754 C   0  0  2  0  0  0  0  0  0  0  0  0
   37.2939   20.4496   70.8014 C   0  0  0  0  0  0  0  0  0  0  0  0
   37.7104   21.6033   70.9477 O   0  0  0  0  0  0  0  0  0  0  0  0
   37.5634   19.9392   73.2067 C   0  0  0  0  0  0  0  0  0  0  0  0
   37.0107   19.1857   74.3975 C   0  0  0  0  0  0  0  0  0  0  0  0
   35.5599   20.0753   74.9885 S   0  0  2  0  0  0  0  0  0  0  0  0
   36.3832   21.5834   75.5710 C   0  0  0  0  0  0  0  0  0  0  0  0
   35.2640   19.2227   76.5751 C   0  0  0  0  0  0  0  0  0  0  0  0
   34.3639   20.0985   77.4424 C   0  0  1  0  0  0  0  0  0  0  0  0
   33.0309   19.8621   77.0534 O   0  0  0  0  0  0  0  0  0  0  0  0
   34.4509   19.7044   78.9208 C   0  0  1  0  0  0  0  0  0  0  0  0
   35.4345   20.3095   79.7744 O   0  0  0  0  0  0  0  0  0  0  0  0
   32.9717   19.8267   79.4163 C   0  0  1  0  0  0  0  0  0  0  0  0
   32.9687   20.5670   80.6490 O   0  0  0  0  0  0  0  0  0  0  0  0
   32.2041   20.2852   78.1259 C   0  0  2  0  0  0  0  0  0  0  0  0
   37.4284   19.8817   69.7280 O   0  0  0  0  0  0  0  0  0  0  0  0
   27.1192   21.0363   77.2984 N   0  0  0  0  0  0  0  0  0  0  0  0
   28.0873   21.9507   77.4267 C   0  0  0  0  0  0  0  0  0  0  0  0
   29.3498   21.6008   77.6559 N   0  0  0  0  0  0  0  0  0  0  0  0
   29.7109   20.3079   77.7455 C   0  0  0  0  0  0  0  0  0  0  0  0
   28.7237   19.2965   77.6014 C   0  0  0  0  0  0  0  0  0  0  0  0
   27.3807   19.7172   77.3691 C   0  0  0  0  0  0  0  0  0  0  0  0
   26.3643   18.7940   77.2094 N   0  0  0  0  0  0  0  0  0  0  0  0
   29.3502   18.1038   77.7262 N   0  0  0  0  0  0  0  0  0  0  0  0
   30.6197   18.3068   77.9287 C   0  0  0  0  0  0  0  0  0  0  0  0
   30.8923   19.6527   77.9497 N   0  0  0  0  0  0  0  0  0  0  0  0
  2  1  1  6  0  0  0
  2  3  1  0  0  0  0
  2  5  1  0  0  0  0
  3  4  1  0  0  0  0
  3 17  1  0  0  0  0
  5  6  1  0  0  0  0
  7  6  1  6  0  0  0
  7  8  1  0  0  0  0
  7  9  1  0  0  0  0
 10  9  1  6  0  0  0
 10 11  1  0  0  0  0
 10 12  1  0  0  0  0
 11 16  1  0  0  0  0
 12 13  1  1  0  0  0
 12 14  1  0  0  0  0
 14 15  1  1  0  0  0
 14 16  1  0  0  0  0
 16 27  1  6  0  0  0
 18 19  2  0  0  0  0
 18 23  1  0  0  0  0
 19 20  1  0  0  0  0
 20 21  2  0  0  0  0
 21 22  1  0  0  0  0
 21 27  1  0  0  0  0
 22 23  2  0  0  0  0
 22 25  1  0  0  0  0
 23 24  1  0  0  0  0
 25 26  2  0  0  0  0
 26 27  1  0  0  0  0
M  END
>  <CHROM.1>
-163.04499160,-58.63257665,-75.37691581,-66.65445667,162.04157045,83.22790296
-117.53359795,33.24014461,19.99549790,76.09846623,0.62210382,-0.02781759
-1.59073357

>  <Name>
ligand

>  <RI>
0

>  <Rbt.Current_Directory>
/home/itssahil/PROJECTS/Mol_Feturizer/New_Systems/rnas/2QWY

>  <Rbt.Executable>
rbdock ($Id: //depot/dev/client3/rdock/2013.1/src/exe/rbdock.cxx#4 $)

>  <Rbt.Library>
libRbt.so (2013.1, Build901 2013/11/27)

>  <Rbt.Parameter_File>
/export/apps/rDock/src/rDock_2013.1_src/data/scripts/dock_solv.prm

>  <Rbt.Receptor>
prm/pocket_docking_3.prm

>  <SCORE>
-27.7913

>  <SCORE.INTER>
-26.6249

>  <SCORE.INTER.CONST>
1

>  <SCORE.INTER.POLAR>
0

>  <SCORE.INTER.ROT>
7

>  <SCORE.INTER.SOLV>
15.6484

>  <SCORE.INTER.VDW>
-31.2327

>  <SCORE.INTER.norm>
-0.986108

>  <SCORE.INTRA>
-1.16638

>  <SCORE.INTRA.DIHEDRAL>
-4.63025

>  <SCORE.INTRA.DIHEDRAL.0>
10.7382

>  <SCORE.INTRA.POLAR>
0

>  <SCORE.INTRA.POLAR.0>
0

>  <SCORE.INTRA.REPUL>
0

>  <SCORE.INTRA.REPUL.0>
0

>  <SCORE.INTRA.SOLV>
0.0423326

>  <SCORE.INTRA.SOLV.lig_0>
-49.2501

>  <SCORE.INTRA.VDW>
1.12758

>  <SCORE.INTRA.VDW.0>
-1.75368

>  <SCORE.INTRA.norm>
-0.0431992

>  <SCORE.RESTR>
0

>  <SCORE.RESTR.CAVITY>
0

>  <SCORE.RESTR.norm>
0

>  <SCORE.SYSTEM>
0

>  <SCORE.SYSTEM.CONST>
0

>  <SCORE.SYSTEM.DIHEDRAL>
0

>  <SCORE.SYSTEM.SOLV>
0

>  <SCORE.SYSTEM.norm>
0

>  <SCORE.heavy>
27

>  <SCORE.norm>
-1.02931

>  <RMSD>
1.414

$$$$
ligand
 OpenBabel11021811463D
libRbt.so/2013.1/901 2013/11/27
 27 29  0  0  0  0  0  0  0  0999 V2000
   36.5113   15.8739   73.3590 N   0  0  0  0  0  0  0  0  0  0  0  0
   36.3219   17.3100   73.0898 C   0  0  2  0  0  0  0  0  0  0  0  0
   36.5770   17.6038   71.6261 C   0  0  0  0  0  0  0  0  0  0  0  0
   36.2302   18.6859   71.1418 O   0  0  0  0  0  0  0  0  0  0  0  0
   37.3077   18.1109   73.9343 C   0  0  0  0  0  0  0  0  0  0  0  0
   36.8410   18.1784   75.3727 C   0  0  0  0  0  0  0  0  0  0  0  0
   35.3627   19.2066   75.4255 S   0  0  2  0  0  0  0  0  0  0  0  0
   36.1337   20.8111   75.0753 C   0  0  0  0  0  0  0  0  0  0  0  0
   35.1110   19.3439   77.2282 C   0  0  0  0  0  0  0  0  0  0  0  0
   34.0647   20.4221   77.4970 C   0  0  1  0  0  0  0  0  0  0  0  0
   32.8066   19.8977   77.1412 O   0  0  0  0  0  0  0  0  0  0  0  0
   33.9768   20.7613   78.9888 C   0  0  1  0  0  0  0  0  0  0  0  0
   34.8106   21.7881   79.5478 O   0  0  0  0  0  0  0  0  0  0  0  0
   32.4415   20.9444   79.2291 C   0  0  1  0  0  0  0  0  0  0  0  0
   32.2424   22.1629   79.9661 O   0  0  0  0  0  0  0  0  0  0  0  0
   31.8277   20.6781   77.8089 C   0  0  2  0  0  0  0  0  0  0  0  0
   37.1897   16.7961   70.9442 O   0  0  0  0  0  0  0  0  0  0  0  0
   26.6439   20.8192   77.3486 N   0  0  0  0  0  0  0  0  0  0  0  0
   27.5152   21.8320   77.2787 C   0  0  0  0  0  0  0  0  0  0  0  0
   28.8216   21.6388   77.4363 N   0  0  0  0  0  0  0  0  0  0  0  0
   29.3249   20.4096   77.6502 C   0  0  0  0  0  0  0  0  0  0  0  0
   28.4438   19.2972   77.7179 C   0  0  0  0  0  0  0  0  0  0  0  0
   27.0498   19.5522   77.5558 C   0  0  0  0  0  0  0  0  0  0  0  0
   26.1291   18.5220   77.5999 N   0  0  0  0  0  0  0  0  0  0  0  0
   29.2022   18.1972   77.9310 N   0  0  0  0  0  0  0  0  0  0  0  0
   30.4543   18.5468   77.9944 C   0  0  0  0  0  0  0  0  0  0  0  0
   30.5818   19.9040   77.8274 N   0  0  0  0  0  0  0  0  0  0  0  0
  2  1  1  6  0  0  0
  2  3  1  0  0  0  0
  2  5  1  0  0  0  0
  3  4  1  0  0  0  0
  3 17  1  0  0  0  0
  5  6  1  0  0  0  0
  7  6  1  1  0  0  0
  7  8  1  0  0  0  0
  7  9  1  0  0  0  0
 10  9  1  1  0  0  0
 10 11  1  0  0  0  0
 10 12  1  0  0  0  0
 11 16  1  0  0  0  0
 12 13  1  6  0  0  0
 12 14  1  0  0  0  0
 14 15  1  6  0  0  0
 14 16  1  0  0  0  0
 16 27  1  1  0  0  0
 18 19  2  0  0  0  0
 18 23  1  0  0  0  0
 19 20  1  0  0  0  0
 20 21  2  0  0  0  0
 21 22  1  0  0  0  0
 21 27  1  0  0  0  0
 22 23  2  0  0  0  0
 22 25  1  0  0  0  0
 23 24  1  0  0  0  0
 25 26  2  0  0  0  0
 26 27  1  0  0  0  0
M  END
>  <CHROM.1>
166.26139230,-76.59160439,-68.84768821,-70.05183912,168.36100982,73.75247917
-140.95707029,32.84894498,19.51972484,76.34858974,0.58920363,-0.08133212
-2.14220472

>  <Name>
ligand

>  <RI>
0

>  <Rbt.Current_Directory>
/home/itssahil/PROJECTS/Mol_Feturizer/New_Systems/rnas/2QWY

>  <Rbt.Executable>
rbdock ($Id: //depot/dev/client3/rdock/2013.1/src/exe/rbdock.cxx#4 $)

>  <Rbt.Library>
libRbt.so (2013.1, Build901 2013/11/27)

>  <Rbt.Parameter_File>
/export/apps/rDock/src/rDock_2013.1_src/data/scripts/dock_solv.prm

>  <Rbt.Receptor>
prm/pocket_docking_4.prm

>  <SCORE>
-25.3251

>  <SCORE.INTER>
-22.5655

>  <SCORE.INTER.CONST>
1

>  <SCORE.INTER.POLAR>
0

>  <SCORE.INTER.ROT>
7

>  <SCORE.INTER.SOLV>
14.939

>  <SCORE.INTER.VDW>
-28.29

>  <SCORE.INTER.norm>
-0.835759

>  <SCORE.INTRA>
-2.75964

>  <SCORE.INTRA.DIHEDRAL>
-5.57031

>  <SCORE.INTRA.DIHEDRAL.0>
10.7382

>  <SCORE.INTRA.POLAR>
0

>  <SCORE.INTRA.POLAR.0>
0

>  <SCORE.INTRA.REPUL>
0

>  <SCORE.INTRA.REPUL.0>
0

>  <SCORE.INTRA.SOLV>
-0.245241

>  <SCORE.INTRA.SOLV.lig_0>
-49.2501

>  <SCORE.INTRA.VDW>
0.148134

>  <SCORE.INTRA.VDW.0>
-1.75368

>  <SCORE.INTRA.norm>
-0.102209

>  <SCORE.RESTR>
0

>  <SCORE.RESTR.CAVITY>
0

>  <SCORE.RESTR.norm>
0

>  <SCORE.SYSTEM>
0

>  <SCORE.SYSTEM.CONST>
0

>  <SCORE.SYSTEM.DIHEDRAL>
0

>  <SCORE.SYSTEM.SOLV>
0

>  <SCORE.SYSTEM.norm>
0

>  <SCORE.heavy>
27

>  <SCORE.norm>
-0.937968

>  <RMSD>
1.424

$$$$
ligand
 OpenBabel11021811463D
libRbt.so/2013.1/901 2013/11/27
 27 29  0  0  0  0  0  0  0  0999 V2000
   36.2430   15.1838   72.7541 N   0  0  0  0  0  0  0  0  0  0  0  0
   36.0826   16.6063   72.4057 C   0  0  2  0  0  0  0  0  0  0  0  0
   36.1344   16.7836   70.9025 C   0  0  0  0  0  0  0  0  0  0  0  0
   36.0465   15.8008   70.1594 O   0  0  0  0  0  0  0  0  0  0  0  0
   37.2170   17.4064   73.0376 C   0  0  0  0  0  0  0  0  0  0  0  0
   37.0574   17.4553   74.5421 C   0  0  0  0  0  0  0  0  0  0  0  0
   35.7501   18.6356   74.9203 S   0  0  2  0  0  0  0  0  0  0  0  0
   36.6937   20.1689   74.6957 C   0  0  0  0  0  0  0  0  0  0  0  0
   35.7156   18.5291   76.7422 C   0  0  0  0  0  0  0  0  0  0  0  0
   34.8527   19.6655   77.2840 C   0  0  1  0  0  0  0  0  0  0  0  0
   33.5148   19.3902   76.9401 O   0  0  0  0  0  0  0  0  0  0  0  0
   34.8944   19.7230   78.8148 C   0  0  1  0  0  0  0  0  0  0  0  0
   35.8970   20.5046   79.4826 O   0  0  0  0  0  0  0  0  0  0  0  0
   33.4169   20.0589   79.2054 C   0  0  1  0  0  0  0  0  0  0  0  0
   33.4363   21.1302   80.1643 O   0  0  0  0  0  0  0  0  0  0  0  0
   32.6964   20.1519   77.8137 C   0  0  2  0  0  0  0  0  0  0  0  0
   36.1923   17.9075   70.4269 O   0  0  0  0  0  0  0  0  0  0  0  0
   27.5769   21.0607   77.5504 N   0  0  0  0  0  0  0  0  0  0  0  0
   28.5813   21.9444   77.5616 C   0  0  0  0  0  0  0  0  0  0  0  0
   29.8500   21.5556   77.6521 N   0  0  0  0  0  0  0  0  0  0  0  0
   30.1782   20.2523   77.7130 C   0  0  0  0  0  0  0  0  0  0  0  0
   29.1501   19.2722   77.6892 C   0  0  0  0  0  0  0  0  0  0  0  0
   27.8034   19.7344   77.6040 C   0  0  0  0  0  0  0  0  0  0  0  0
   26.7472   18.8433   77.5670 N   0  0  0  0  0  0  0  0  0  0  0  0
   29.7491   18.0608   77.7546 N   0  0  0  0  0  0  0  0  0  0  0  0
   31.0390   18.2242   77.8127 C   0  0  0  0  0  0  0  0  0  0  0  0
   31.3541   19.5607   77.7905 N   0  0  0  0  0  0  0  0  0  0  0  0
  2  1  1  6  0  0  0
  2  3  1  0  0  0  0
  2  5  1  0  0  0  0
  3  4  1  0  0  0  0
  3 17  1  0  0  0  0
  5  6  1  0  0  0  0
  7  6  1  6  0  0  0
  7  8  1  0  0  0  0
  7  9  1  0  0  0  0
 10  9  1  1  0  0  0
 10 11  1  0  0  0  0
 10 12  1  0  0  0  0
 11 16  1  0  0  0  0
 12 13  1  6  0  0  0
 12 14  1  0  0  0  0
 14 15  1  6  0  0  0
 14 16  1  0  0  0  0
 16 27  1  1  0  0  0
 18 19  2  0  0  0  0
 18 23  1  0  0  0  0
 19 20  1  0  0  0  0
 20 21  2  0  0  0  0
 21 22  1  0  0  0  0
 21 27  1  0  0  0  0
 22 23  2  0  0  0  0
 22 25  1  0  0  0  0
 23 24  1  0  0  0  0
 25 26  2  0  0  0  0
 26 27  1  0  0  0  0
M  END
>  <CHROM.1>
13.24769272,-69.69544729,-75.95622035,-77.93791652,168.90444945,69.73696031
-136.03681756,33.35165763,18.99221294,76.08016370,0.75177493,0.01712955,-2.04203264

>  <Name>
ligand

>  <RI>
0

>  <Rbt.Current_Directory>
/home/itssahil/PROJECTS/Mol_Feturizer/New_Systems/rnas/2QWY

>  <Rbt.Executable>
rbdock ($Id: //depot/dev/client3/rdock/2013.1/src/exe/rbdock.cxx#4 $)

>  <Rbt.Library>
libRbt.so (2013.1, Build901 2013/11/27)

>  <Rbt.Parameter_File>
/export/apps/rDock/src/rDock_2013.1_src/data/scripts/dock_solv.prm

>  <Rbt.Receptor>
prm/pocket_docking_3.prm

>  <SCORE>
-26.1383

>  <SCORE.INTER>
-23.3909

>  <SCORE.INTER.CONST>
1

>  <SCORE.INTER.POLAR>
0

>  <SCORE.INTER.ROT>
7

>  <SCORE.INTER.SOLV>
16.5007

>  <SCORE.INTER.VDW>
-29.3609

>  <SCORE.INTER.norm>
-0.866331

>  <SCORE.INTRA>
-2.74739

>  <SCORE.INTRA.DIHEDRAL>
-5.69128

>  <SCORE.INTRA.DIHEDRAL.0>
10.7382

>  <SCORE.INTRA.POLAR>
0

>  <SCORE.INTRA.POLAR.0>
0

>  <SCORE.INTRA.REPUL>
0

>  <SCORE.INTRA.REPUL.0>
0

>  <SCORE.INTRA.SOLV>
-0.196182

>  <SCORE.INTRA.SOLV.lig_0>
-49.2501

>  <SCORE.INTRA.VDW>
0.196339

>  <SCORE.INTRA.VDW.0>
-1.75368

>  <SCORE.INTRA.norm>
-0.101755

>  <SCORE.RESTR>
0

>  <SCORE.RESTR.CAVITY>
0

>  <SCORE.RESTR.norm>
0

>  <SCORE.SYSTEM>
0

>  <SCORE.SYSTEM.CONST>
0

>  <SCORE.SYSTEM.DIHEDRAL>
0

>  <SCORE.SYSTEM.SOLV>
0

>  <SCORE.SYSTEM.norm>
0

>  <SCORE.heavy>
27

>  <SCORE.norm>
-0.968086

>  <RMSD>
1.428

$$$$
ligand
 OpenBabel11021811463D
libRbt.so/2013.1/901 2013/11/27
 27 29  0  0  0  0  0  0  0  0999 V2000
   37.2518   17.6301   71.5222 N   0  0  0  0  0  0  0  0  0  0  0  0
   37.0990   19.0506   71.1622 C   0  0  2  0  0  0  0  0  0  0  0  0
   38.4197   19.7741   71.3240 C   0  0  0  0  0  0  0  0  0  0  0  0
   38.6366   20.8155   70.6961 O   0  0  0  0  0  0  0  0  0  0  0  0
   36.0675   19.6916   72.0849 C   0  0  0  0  0  0  0  0  0  0  0  0
   36.3579   19.3420   73.5288 C   0  0  0  0  0  0  0  0  0  0  0  0
   35.2277   20.2889   74.5640 S   0  0  2  0  0  0  0  0  0  0  0  0
   36.3017   21.7091   74.9120 C   0  0  0  0  0  0  0  0  0  0  0  0
   35.3641   19.3741   76.1375 C   0  0  0  0  0  0  0  0  0  0  0  0
   34.5696   20.1174   77.2079 C   0  0  1  0  0  0  0  0  0  0  0  0
   33.2006   19.9231   76.9389 O   0  0  0  0  0  0  0  0  0  0  0  0
   34.8160   19.5295   78.6015 C   0  0  1  0  0  0  0  0  0  0  0  0
   35.8908   20.0236   79.4157 O   0  0  0  0  0  0  0  0  0  0  0  0
   33.4009   19.5707   79.2679 C   0  0  1  0  0  0  0  0  0  0  0  0
   33.5374   20.1391   80.5816 O   0  0  0  0  0  0  0  0  0  0  0  0
   32.4989   20.1910   78.1426 C   0  0  2  0  0  0  0  0  0  0  0  0
   39.2406   19.3629   72.1301 O   0  0  0  0  0  0  0  0  0  0  0  0
   27.4015   21.0039   77.4645 N   0  0  0  0  0  0  0  0  0  0  0  0
   28.3875   21.9053   77.5351 C   0  0  0  0  0  0  0  0  0  0  0  0
   29.6514   21.5408   77.7317 N   0  0  0  0  0  0  0  0  0  0  0  0
   29.9949   20.2449   77.8450 C   0  0  0  0  0  0  0  0  0  0  0  0
   28.9877   19.2465   77.7619 C   0  0  0  0  0  0  0  0  0  0  0  0
   27.6444   19.6831   77.5630 C   0  0  0  0  0  0  0  0  0  0  0  0
   26.6088   18.7729   77.4628 N   0  0  0  0  0  0  0  0  0  0  0  0
   29.5992   18.0474   77.8987 N   0  0  0  0  0  0  0  0  0  0  0  0
   30.8778   18.2347   78.0531 C   0  0  0  0  0  0  0  0  0  0  0  0
   31.1721   19.5759   78.0277 N   0  0  0  0  0  0  0  0  0  0  0  0
  2  1  1  1  0  0  0
  2  3  1  0  0  0  0
  2  5  1  0  0  0  0
  3  4  1  0  0  0  0
  3 17  1  0  0  0  0
  5  6  1  0  0  0  0
  7  6  1  6  0  0  0
  7  8  1  0  0  0  0
  7  9  1  0  0  0  0
 10  9  1  6  0  0  0
 10 11  1  0  0  0  0
 10 12  1  0  0  0  0
 11 16  1  0  0  0  0
 12 13  1  1  0  0  0
 12 14  1  0  0  0  0
 14 15  1  1  0  0  0
 14 16  1  0  0  0  0
 16 27  1  6  0  0  0
 18 19  2  0  0  0  0
 18 23  1  0  0  0  0
 19 20  1  0  0  0  0
 20 21  2  0  0  0  0
 21 22  1  0  0  0  0
 21 27  1  0  0  0  0
 22 23  2  0  0  0  0
 22 25  1  0  0  0  0
 23 24  1  0  0  0  0
 25 26  2  0  0  0  0
 26 27  1  0  0  0  0
M  END
>  <CHROM.1>
156.73592294,48.15719659,173.28198493,-94.24818784,174.35879275,72.83596355
-107.20282183,33.50117503,19.84069968,76.02501888,0.61353554,-0.01369120
-1.62617367

>  <Name>
ligand

>  <RI>
0

>  <Rbt.Current_Directory>
/home/itssahil/PROJECTS/Mol_Feturizer/New_Systems/rnas/2QWY

>  <Rbt.Executable>
rbdock ($Id: //depot/dev/client3/rdock/2013.1/src/exe/rbdock.cxx#4 $)

>  <Rbt.Library>
libRbt.so (2013.1, Build901 2013/11/27)

>  <Rbt.Parameter_File>
/export/apps/rDock/src/rDock_2013.1_src/data/scripts/dock_solv.prm

>  <Rbt.Receptor>
prm/pocket_docking_4.prm

>  <SCORE>
-30.3936

>  <SCORE.INTER>
-27.9696

>  <SCORE.INTER.CONST>
1

>  <SCORE.INTER.POLAR>
0

>  <SCORE.INTER.ROT>
7

>  <SCORE.INTER.SOLV>
16.5702

>  <SCORE.INTER.VDW>
-32.4365

>  <SCORE.INTER.norm>
-1.03591

>  <SCORE.INTRA>
-2.42395

>  <SCORE.INTRA.DIHEDRAL>
-4.69636

>  <SCORE.INTRA.DIHEDRAL.0>
10.7382

>  <SCORE.INTRA.POLAR>
0

>  <SCORE.INTRA.POLAR.0>
0

>  <SCORE.INTRA.REPUL>
0

>  <SCORE.INTRA.REPUL.0>
0

>  <SCORE.INTRA.SOLV>
-0.414126

>  <SCORE.INTRA.SOLV.lig_0>
-49.2501

>  <SCORE.INTRA.VDW>
0.131299

>  <SCORE.INTRA.VDW.0>
-1.75368

>  <SCORE.INTRA.norm>
-0.0897758

>  <SCORE.RESTR>
0

>  <SCORE.RESTR.CAVITY>
0

>  <SCORE.RESTR.norm>
0

>  <SCORE.SYSTEM>
0

>  <SCORE.SYSTEM.CONST>
0

>  <SCORE.SYSTEM.DIHEDRAL>
0

>  <SCORE.SYSTEM.SOLV>
0

>  <SCORE.SYSTEM.norm>
0

>  <SCORE.heavy>
27

>  <SCORE.norm>
-1.12569

>  <RMSD>
1.429

$$$$
ligand
 OpenBabel11021811463D
libRbt.so/2013.1/901 2013/11/27
 27 29  0  0  0  0  0  0  0  0999 V2000
   35.8187   20.1360   71.9947 N   0  0  0  0  0  0  0  0  0  0  0  0
   36.7341   19.7395   73.0789 C   0  0  2  0  0  0  0  0  0  0  0  0
   37.0462   18.2606   72.9824 C   0  0  0  0  0  0  0  0  0  0  0  0
   36.2581   17.4296   73.4452 O   0  0  0  0  0  0  0  0  0  0  0  0
   36.0675   20.0178   74.4223 C   0  0  0  0  0  0  0  0  0  0  0  0
   37.0197   19.7149   75.5594 C   0  0  0  0  0  0  0  0  0  0  0  0
   36.1072   19.8845   77.1034 S   0  0  2  0  0  0  0  0  0  0  0  0
   34.6652   18.8677   76.6810 C   0  0  0  0  0  0  0  0  0  0  0  0
   35.4067   21.5577   76.8996 C   0  0  0  0  0  0  0  0  0  0  0  0
   34.4098   21.8130   78.0268 C   0  0  1  0  0  0  0  0  0  0  0  0
   33.1570   21.3209   77.6116 O   0  0  0  0  0  0  0  0  0  0  0  0
   34.7765   21.0281   79.2909 C   0  0  1  0  0  0  0  0  0  0  0  0
   35.6496   21.6059   80.2737 O   0  0  0  0  0  0  0  0  0  0  0  0
   33.3904   20.5442   79.8320 C   0  0  1  0  0  0  0  0  0  0  0  0
   33.3299   20.8328   81.2394 O   0  0  0  0  0  0  0  0  0  0  0  0
   32.3788   21.1260   78.7819 C   0  0  2  0  0  0  0  0  0  0  0  0
   38.0447   17.8902   72.3835 O   0  0  0  0  0  0  0  0  0  0  0  0
   27.4324   20.7245   77.2085 N   0  0  0  0  0  0  0  0  0  0  0  0
   28.1439   21.8317   77.4484 C   0  0  0  0  0  0  0  0  0  0  0  0
   29.4048   21.7721   77.8673 N   0  0  0  0  0  0  0  0  0  0  0  0
   30.0264   20.5922   78.0455 C   0  0  0  0  0  0  0  0  0  0  0  0
   29.3202   19.3863   77.7900 C   0  0  0  0  0  0  0  0  0  0  0  0
   27.9665   19.4970   77.3545 C   0  0  0  0  0  0  0  0  0  0  0  0
   27.2149   18.3706   77.0767 N   0  0  0  0  0  0  0  0  0  0  0  0
   30.1702   18.3633   78.0384 N   0  0  0  0  0  0  0  0  0  0  0  0
   31.3192   18.8443   78.4159 C   0  0  0  0  0  0  0  0  0  0  0  0
   31.2805   20.2169   78.4368 N   0  0  0  0  0  0  0  0  0  0  0  0
  2  1  1  6  0  0  0
  2  3  1  0  0  0  0
  2  5  1  0  0  0  0
  3  4  1  0  0  0  0
  3 17  1  0  0  0  0
  5  6  1  0  0  0  0
  7  6  1  6  0  0  0
  7  8  1  0  0  0  0
  7  9  1  0  0  0  0
 10  9  1  6  0  0  0
 10 11  1  0  0  0  0
 10 12  1  0  0  0  0
 11 16  1  0  0  0  0
 12 13  1  1  0  0  0
 12 14  1  0  0  0  0
 14 15  1  1  0  0  0
 14 16  1  0  0  0  0
 16 27  1  6  0  0  0
 18 19  2  0  0  0  0
 18 23  1  0  0  0  0
 19 20  1  0  0  0  0
 20 21  2  0  0  0  0
 21 22  1  0  0  0  0
 21 27  1  0  0  0  0
 22 23  2  0  0  0  0
 22 25  1  0  0  0  0
 23 24  1  0  0  0  0
 25 26  2  0  0  0  0
 26 27  1  0  0  0  0
M  END
>  <CHROM.1>
-82.06265294,-175.92326830,-173.62379513,49.69629319,171.38703479,-87.19830203
-93.93736076,33.31773847,20.03349180,76.93175223,0.50769165,-0.07137516,-1.96071922

>  <Name>
ligand

>  <RI>
0

>  <Rbt.Current_Directory>
/home/itssahil/PROJECTS/Mol_Feturizer/New_Systems/rnas/2QWY

>  <Rbt.Executable>
rbdock ($Id: //depot/dev/client3/rdock/2013.1/src/exe/rbdock.cxx#4 $)

>  <Rbt.Library>
libRbt.so (2013.1, Build901 2013/11/27)

>  <Rbt.Parameter_File>
/export/apps/rDock/src/rDock_2013.1_src/data/scripts/dock_solv.prm

>  <Rbt.Receptor>
prm/pocket_docking_2.prm

>  <SCORE>
-9.74615

>  <SCORE.INTER>
-12.4464

>  <SCORE.INTER.CONST>
1

>  <SCORE.INTER.POLAR>
0

>  <SCORE.INTER.ROT>
7

>  <SCORE.INTER.SOLV>
21.2113

>  <SCORE.INTER.VDW>
-23.6347

>  <SCORE.INTER.norm>
-0.460979

>  <SCORE.INTRA>
2.11324

>  <SCORE.INTRA.DIHEDRAL>
-5.27951

>  <SCORE.INTRA.DIHEDRAL.0>
10.7382

>  <SCORE.INTRA.POLAR>
0

>  <SCORE.INTRA.POLAR.0>
0

>  <SCORE.INTRA.REPUL>
0

>  <SCORE.INTRA.REPUL.0>
0

>  <SCORE.INTRA.SOLV>
-0.863464

>  <SCORE.INTRA.SOLV.lig_0>
-49.2501

>  <SCORE.INTRA.VDW>
5.18472

>  <SCORE.INTRA.VDW.0>
-1.75368

>  <SCORE.INTRA.norm>
0.0782681

>  <SCORE.RESTR>
0.587047

>  <SCORE.RESTR.CAVITY>
0.587047

>  <SCORE.RESTR.norm>
0.0217425

>  <SCORE.SYSTEM>
0

>  <SCORE.SYSTEM.CONST>
0

>  <SCORE.SYSTEM.DIHEDRAL>
0

>  <SCORE.SYSTEM.SOLV>
0

>  <SCORE.SYSTEM.norm>
0

>  <SCORE.heavy>
27

>  <SCORE.norm>
-0.360968

>  <RMSD>
1.442

$$$$
ligand
 OpenBabel11021811463D
libRbt.so/2013.1/901 2013/11/27
 27 29  0  0  0  0  0  0  0  0999 V2000
   37.1989   20.7910   71.0076 N   0  0  0  0  0  0  0  0  0  0  0  0
   37.2798   20.2756   72.3854 C   0  0  2  0  0  0  0  0  0  0  0  0
   38.6263   19.6228   72.6193 C   0  0  0  0  0  0  0  0  0  0  0  0
   39.3208   19.2740   71.6591 O   0  0  0  0  0  0  0  0  0  0  0  0
   36.1832   19.2365   72.5954 C   0  0  0  0  0  0  0  0  0  0  0  0
   36.1475   18.7880   74.0407 C   0  0  0  0  0  0  0  0  0  0  0  0
   35.1107   19.9453   74.9522 S   0  0  2  0  0  0  0  0  0  0  0  0
   36.3214   21.2778   75.1764 C   0  0  0  0  0  0  0  0  0  0  0  0
   35.1376   19.1875   76.6125 C   0  0  0  0  0  0  0  0  0  0  0  0
   34.3080   20.0504   77.5594 C   0  0  1  0  0  0  0  0  0  0  0  0
   32.9553   19.9137   77.1910 O   0  0  0  0  0  0  0  0  0  0  0  0
   34.4064   19.5533   79.0057 C   0  0  1  0  0  0  0  0  0  0  0  0
   35.4416   20.0449   79.8711 O   0  0  0  0  0  0  0  0  0  0  0  0
   32.9481   19.7222   79.5472 C   0  0  1  0  0  0  0  0  0  0  0  0
   33.0147   20.3768   80.8257 O   0  0  0  0  0  0  0  0  0  0  0  0
   32.1782   20.3079   78.3107 C   0  0  2  0  0  0  0  0  0  0  0  0
   39.0536   19.5071   73.7580 O   0  0  0  0  0  0  0  0  0  0  0  0
   27.1635   21.3817   77.4142 N   0  0  0  0  0  0  0  0  0  0  0  0
   28.1886   22.2319   77.5413 C   0  0  0  0  0  0  0  0  0  0  0  0
   29.4226   21.8026   77.7899 N   0  0  0  0  0  0  0  0  0  0  0  0
   29.6962   20.4900   77.9011 C   0  0  0  0  0  0  0  0  0  0  0  0
   28.6457   19.5441   77.7592 C   0  0  0  0  0  0  0  0  0  0  0  0
   27.3362   20.0494   77.5057 C   0  0  0  0  0  0  0  0  0  0  0  0
   26.2626   19.1933   77.3467 N   0  0  0  0  0  0  0  0  0  0  0  0
   29.1904   18.3145   77.9074 N   0  0  0  0  0  0  0  0  0  0  0  0
   30.4683   18.4360   78.1219 C   0  0  0  0  0  0  0  0  0  0  0  0
   30.8293   19.7611   78.1278 N   0  0  0  0  0  0  0  0  0  0  0  0
  2  1  1  6  0  0  0
  2  3  1  0  0  0  0
  2  5  1  0  0  0  0
  3  4  1  0  0  0  0
  3 17  1  0  0  0  0
  5  6  1  0  0  0  0
  7  6  1  6  0  0  0
  7  8  1  0  0  0  0
  7  9  1  0  0  0  0
 10  9  1  6  0  0  0
 10 11  1  0  0  0  0
 10 12  1  0  0  0  0
 11 16  1  0  0  0  0
 12 13  1  1  0  0  0
 12 14  1  0  0  0  0
 14 15  1  1  0  0  0
 14 16  1  0  0  0  0
 16 27  1  6  0  0  0
 18 19  2  0  0  0  0
 18 23  1  0  0  0  0
 19 20  1  0  0  0  0
 20 21  2  0  0  0  0
 21 22  1  0  0  0  0
 21 27  1  0  0  0  0
 22 23  2  0  0  0  0
 22 25  1  0  0  0  0
 23 24  1  0  0  0  0
 25 26  2  0  0  0  0
 26 27  1  0  0  0  0
M  END
>  <CHROM.1>
-18.63312985,-174.27297584,86.03865570,-80.12161375,179.34018661,69.90835650
-112.43238861,33.30954467,19.96147626,76.37057953,0.52208554,0.05968352,-1.54597246

>  <Name>
ligand

>  <RI>
0

>  <Rbt.Current_Directory>
/home/itssahil/PROJECTS/Mol_Feturizer/New_Systems/rnas/2QWY

>  <Rbt.Executable>
rbdock ($Id: //depot/dev/client3/rdock/2013.1/src/exe/rbdock.cxx#4 $)

>  <Rbt.Library>
libRbt.so (2013.1, Build901 2013/11/27)

>  <Rbt.Parameter_File>
/export/apps/rDock/src/rDock_2013.1_src/data/scripts/dock_solv.prm

>  <Rbt.Receptor>
prm/pocket_docking_4.prm

>  <SCORE>
-27.6818

>  <SCORE.INTER>
-25.3711

>  <SCORE.INTER.CONST>
1

>  <SCORE.INTER.POLAR>
0

>  <SCORE.INTER.ROT>
7

>  <SCORE.INTER.SOLV>
17.0586

>  <SCORE.INTER.VDW>
-30.8669

>  <SCORE.INTER.norm>
-0.93967

>  <SCORE.INTRA>
-2.31073

>  <SCORE.INTRA.DIHEDRAL>
-4.1401

>  <SCORE.INTRA.DIHEDRAL.0>
10.7382

>  <SCORE.INTRA.POLAR>
0

>  <SCORE.INTRA.POLAR.0>
0

>  <SCORE.INTRA.REPUL>
0

>  <SCORE.INTRA.REPUL.0>
0

>  <SCORE.INTRA.SOLV>
-0.770307

>  <SCORE.INTRA.SOLV.lig_0>
-49.2501

>  <SCORE.INTRA.VDW>
0.144469

>  <SCORE.INTRA.VDW.0>
-1.75368

>  <SCORE.INTRA.norm>
-0.0855827

>  <SCORE.RESTR>
0

>  <SCORE.RESTR.CAVITY>
0

>  <SCORE.RESTR.norm>
0

>  <SCORE.SYSTEM>
0

>  <SCORE.SYSTEM.CONST>
0

>  <SCORE.SYSTEM.DIHEDRAL>
0

>  <SCORE.SYSTEM.SOLV>
0

>  <SCORE.SYSTEM.norm>
0

>  <SCORE.heavy>
27

>  <SCORE.norm>
-1.02525

>  <RMSD>
1.459

$$$$
ligand
 OpenBabel11021811463D
libRbt.so/2013.1/901 2013/11/27
 27 29  0  0  0  0  0  0  0  0999 V2000
   37.6592   18.2551   72.3708 N   0  0  0  0  0  0  0  0  0  0  0  0
   36.8583   19.3038   71.7153 C   0  0  2  0  0  0  0  0  0  0  0  0
   37.7682   20.3537   71.1122 C   0  0  0  0  0  0  0  0  0  0  0  0
   37.2863   21.3527   70.5685 O   0  0  0  0  0  0  0  0  0  0  0  0
   35.9579   19.9665   72.7528 C   0  0  0  0  0  0  0  0  0  0  0  0
   36.7888   20.6141   73.8398 C   0  0  0  0  0  0  0  0  0  0  0  0
   35.6604   21.4097   74.9969 S   0  0  2  0  0  0  0  0  0  0  0  0
   36.8738   22.3688   75.9453 C   0  0  0  0  0  0  0  0  0  0  0  0
   35.3414   20.0362   76.1560 C   0  0  0  0  0  0  0  0  0  0  0  0
   34.5196   20.5644   77.3287 C   0  0  1  0  0  0  0  0  0  0  0  0
   33.1603   20.3387   77.0366 O   0  0  0  0  0  0  0  0  0  0  0  0
   34.8120   19.7866   78.6163 C   0  0  1  0  0  0  0  0  0  0  0  0
   35.8673   20.2096   79.4935 O   0  0  0  0  0  0  0  0  0  0  0  0
   33.4039   19.6492   79.2846 C   0  0  1  0  0  0  0  0  0  0  0  0
   33.5237   20.0187   80.6691 O   0  0  0  0  0  0  0  0  0  0  0  0
   32.4580   20.3826   78.2686 C   0  0  2  0  0  0  0  0  0  0  0  0
   38.9795   20.2439   71.2278 O   0  0  0  0  0  0  0  0  0  0  0  0
   27.3599   21.0206   77.4280 N   0  0  0  0  0  0  0  0  0  0  0  0
   28.3020   21.9566   77.5896 C   0  0  0  0  0  0  0  0  0  0  0  0
   29.5722   21.6343   77.8173 N   0  0  0  0  0  0  0  0  0  0  0  0
   29.9675   20.3494   77.8717 C   0  0  0  0  0  0  0  0  0  0  0  0
   29.0090   19.3165   77.6913 C   0  0  0  0  0  0  0  0  0  0  0  0
   27.6566   19.7076   77.4620 C   0  0  0  0  0  0  0  0  0  0  0  0
   26.6666   18.7625   77.2684 N   0  0  0  0  0  0  0  0  0  0  0  0
   29.6668   18.1379   77.7856 N   0  0  0  0  0  0  0  0  0  0  0  0
   30.9290   18.3690   78.0028 C   0  0  0  0  0  0  0  0  0  0  0  0
   31.1650   19.7205   78.0649 N   0  0  0  0  0  0  0  0  0  0  0  0
  2  1  1  1  0  0  0
  2  3  1  0  0  0  0
  2  5  1  0  0  0  0
  3  4  1  0  0  0  0
  3 17  1  0  0  0  0
  5  6  1  0  0  0  0
  7  6  1  6  0  0  0
  7  8  1  0  0  0  0
  7  9  1  0  0  0  0
 10  9  1  6  0  0  0
 10 11  1  0  0  0  0
 10 12  1  0  0  0  0
 11 16  1  0  0  0  0
 12 13  1  1  0  0  0
 12 14  1  0  0  0  0
 14 15  1  1  0  0  0
 14 16  1  0  0  0  0
 16 27  1  6  0  0  0
 18 19  2  0  0  0  0
 18 23  1  0  0  0  0
 19 20  1  0  0  0  0
 20 21  2  0  0  0  0
 21 22  1  0  0  0  0
 21 27  1  0  0  0  0
 22 23  2  0  0  0  0
 22 25  1  0  0  0  0
 23 24  1  0  0  0  0
 25 26  2  0  0  0  0
 26 27  1  0  0  0  0
M  END
>  <CHROM.1>
-176.69198161,61.07154759,178.48987194,-168.62100786,173.27405560,93.78409651
-101.09672888,33.48278792,20.22043222,76.14416436,0.59857412,-0.06894799
-1.59125892

>  <Name>
ligand

>  <RI>
0

>  <Rbt.Current_Directory>
/home/itssahil/PROJECTS/Mol_Feturizer/New_Systems/rnas/2QWY

>  <Rbt.Executable>
rbdock ($Id: //depot/dev/client3/rdock/2013.1/src/exe/rbdock.cxx#4 $)

>  <Rbt.Library>
libRbt.so (2013.1, Build901 2013/11/27)

>  <Rbt.Parameter_File>
/export/apps/rDock/src/rDock_2013.1_src/data/scripts/dock_solv.prm

>  <Rbt.Receptor>
prm/pocket_docking_3.prm

>  <SCORE>
-29.4115

>  <SCORE.INTER>
-27.8834

>  <SCORE.INTER.CONST>
1

>  <SCORE.INTER.POLAR>
0

>  <SCORE.INTER.ROT>
7

>  <SCORE.INTER.SOLV>
14.8775

>  <SCORE.INTER.VDW>
-31.8147

>  <SCORE.INTER.norm>
-1.03272

>  <SCORE.INTRA>
-1.52815

>  <SCORE.INTRA.DIHEDRAL>
-3.28681

>  <SCORE.INTRA.DIHEDRAL.0>
10.7382

>  <SCORE.INTRA.POLAR>
0

>  <SCORE.INTRA.POLAR.0>
0

>  <SCORE.INTRA.REPUL>
0

>  <SCORE.INTRA.REPUL.0>
0

>  <SCORE.INTRA.SOLV>
-0.528674

>  <SCORE.INTRA.SOLV.lig_0>
-49.2501

>  <SCORE.INTRA.VDW>
0.379596

>  <SCORE.INTRA.VDW.0>
-1.75368

>  <SCORE.INTRA.norm>
-0.056598

>  <SCORE.RESTR>
0

>  <SCORE.RESTR.CAVITY>
0

>  <SCORE.RESTR.norm>
0

>  <SCORE.SYSTEM>
0

>  <SCORE.SYSTEM.CONST>
0

>  <SCORE.SYSTEM.DIHEDRAL>
0

>  <SCORE.SYSTEM.SOLV>
0

>  <SCORE.SYSTEM.norm>
0

>  <SCORE.heavy>
27

>  <SCORE.norm>
-1.08931

>  <RMSD>
1.495

$$$$
ligand
 OpenBabel11021811463D
libRbt.so/2013.1/901 2013/11/27
 27 29  0  0  0  0  0  0  0  0999 V2000
   37.7005   18.2797   72.3788 N   0  0  0  0  0  0  0  0  0  0  0  0
   36.8562   19.3063   71.7432 C   0  0  2  0  0  0  0  0  0  0  0  0
   37.7219   20.3947   71.1434 C   0  0  0  0  0  0  0  0  0  0  0  0
   38.9461   20.2448   71.0740 O   0  0  0  0  0  0  0  0  0  0  0  0
   35.9431   19.9248   72.7968 C   0  0  0  0  0  0  0  0  0  0  0  0
   36.7610   20.6060   73.8731 C   0  0  0  0  0  0  0  0  0  0  0  0
   35.6165   21.3809   75.0285 S   0  0  2  0  0  0  0  0  0  0  0  0
   36.8100   22.3659   75.9754 C   0  0  0  0  0  0  0  0  0  0  0  0
   35.3249   20.0034   76.1901 C   0  0  0  0  0  0  0  0  0  0  0  0
   34.5261   20.5262   77.3809 C   0  0  1  0  0  0  0  0  0  0  0  0
   33.1582   20.3948   77.0714 O   0  0  0  0  0  0  0  0  0  0  0  0
   34.7616   19.6755   78.6336 C   0  0  1  0  0  0  0  0  0  0  0  0
   35.8328   19.9955   79.5348 O   0  0  0  0  0  0  0  0  0  0  0  0
   33.3423   19.5919   79.2872 C   0  0  1  0  0  0  0  0  0  0  0  0
   33.4724   19.8911   80.6876 O   0  0  0  0  0  0  0  0  0  0  0  0
   32.4497   20.4249   78.3003 C   0  0  2  0  0  0  0  0  0  0  0  0
   37.1988   21.3897   70.6649 O   0  0  0  0  0  0  0  0  0  0  0  0
   27.4087   21.4013   77.4405 N   0  0  0  0  0  0  0  0  0  0  0  0
   28.4034   22.2719   77.6466 C   0  0  0  0  0  0  0  0  0  0  0  0
   29.6493   21.8649   77.8727 N   0  0  0  0  0  0  0  0  0  0  0  0
   29.9662   20.5574   77.8805 C   0  0  0  0  0  0  0  0  0  0  0  0
   28.9495   19.5919   77.6517 C   0  0  0  0  0  0  0  0  0  0  0  0
   27.6256   20.0724   77.4260 C   0  0  0  0  0  0  0  0  0  0  0  0
   26.5829   19.1970   77.1871 N   0  0  0  0  0  0  0  0  0  0  0  0
   29.5343   18.3730   77.7060 N   0  0  0  0  0  0  0  0  0  0  0  0
   30.8057   18.5189   77.9430 C   0  0  0  0  0  0  0  0  0  0  0  0
   31.1216   19.8504   78.0596 N   0  0  0  0  0  0  0  0  0  0  0  0
  2  1  1  1  0  0  0
  2  3  1  0  0  0  0
  2  5  1  0  0  0  0
  3  4  1  0  0  0  0
  3 17  1  0  0  0  0
  5  6  1  0  0  0  0
  7  6  1  6  0  0  0
  7  8  1  0  0  0  0
  7  9  1  0  0  0  0
 10  9  1  6  0  0  0
 10 11  1  0  0  0  0
 10 12  1  0  0  0  0
 11 16  1  0  0  0  0
 12 13  1  1  0  0  0
 12 14  1  0  0  0  0
 14 15  1  1  0  0  0
 14 16  1  0  0  0  0
 16 27  1  6  0  0  0
 18 19  2  0  0  0  0
 18 23  1  0  0  0  0
 19 20  1  0  0  0  0
 20 21  2  0  0  0  0
 21 22  1  0  0  0  0
 21 27  1  0  0  0  0
 22 23  2  0  0  0  0
 22 25  1  0  0  0  0
 23 24  1  0  0  0  0
 25 26  2  0  0  0  0
 26 27  1  0  0  0  0
M  END
>  <CHROM.1>
9.69736495,61.84794071,177.13252661,-169.33290107,171.68885821,89.21889091
-100.68065748,33.45393772,20.29259843,76.15341941,0.60136654,-0.00300801
-1.54207494

>  <Name>
ligand

>  <RI>
0

>  <Rbt.Current_Directory>
/home/itssahil/PROJECTS/Mol_Feturizer/New_Systems/rnas/2QWY

>  <Rbt.Executable>
rbdock ($Id: //depot/dev/client3/rdock/2013.1/src/exe/rbdock.cxx#4 $)

>  <Rbt.Library>
libRbt.so (2013.1, Build901 2013/11/27)

>  <Rbt.Parameter_File>
/export/apps/rDock/src/rDock_2013.1_src/data/scripts/dock_solv.prm

>  <Rbt.Receptor>
prm/pocket_docking_3.prm

>  <SCORE>
-29.5743

>  <SCORE.INTER>
-27.7663

>  <SCORE.INTER.CONST>
1

>  <SCORE.INTER.POLAR>
0

>  <SCORE.INTER.ROT>
7

>  <SCORE.INTER.SOLV>
13.8135

>  <SCORE.INTER.VDW>
-31.382

>  <SCORE.INTER.norm>
-1.02838

>  <SCORE.INTRA>
-1.80799

>  <SCORE.INTRA.DIHEDRAL>
-4.0299

>  <SCORE.INTRA.DIHEDRAL.0>
10.7382

>  <SCORE.INTRA.POLAR>
0

>  <SCORE.INTRA.POLAR.0>
0

>  <SCORE.INTRA.REPUL>
0

>  <SCORE.INTRA.REPUL.0>
0

>  <SCORE.INTRA.SOLV>
-0.550857

>  <SCORE.INTRA.SOLV.lig_0>
-49.2501

>  <SCORE.INTRA.VDW>
0.482386

>  <SCORE.INTRA.VDW.0>
-1.75368

>  <SCORE.INTRA.norm>
-0.0669627

>  <SCORE.RESTR>
0

>  <SCORE.RESTR.CAVITY>
0

>  <SCORE.RESTR.norm>
0

>  <SCORE.SYSTEM>
0

>  <SCORE.SYSTEM.CONST>
0

>  <SCORE.SYSTEM.DIHEDRAL>
0

>  <SCORE.SYSTEM.SOLV>
0

>  <SCORE.SYSTEM.norm>
0

>  <SCORE.heavy>
27

>  <SCORE.norm>
-1.09534

>  <RMSD>
1.515

$$$$
ligand
 OpenBabel11021811463D
libRbt.so/2013.1/901 2013/11/27
 27 29  0  0  0  0  0  0  0  0999 V2000
   36.8771   18.4537   71.3795 N   0  0  0  0  0  0  0  0  0  0  0  0
   37.4591   19.4917   72.2482 C   0  0  2  0  0  0  0  0  0  0  0  0
   38.6931   18.9566   72.9444 C   0  0  0  0  0  0  0  0  0  0  0  0
   39.7914   19.4891   72.7545 O   0  0  0  0  0  0  0  0  0  0  0  0
   36.4324   19.8948   73.3017 C   0  0  0  0  0  0  0  0  0  0  0  0
   36.9623   21.0300   74.1513 C   0  0  0  0  0  0  0  0  0  0  0  0
   35.6217   21.5975   75.2125 S   0  0  2  0  0  0  0  0  0  0  0  0
   36.5144   22.8991   76.1071 C   0  0  0  0  0  0  0  0  0  0  0  0
   35.6063   20.2771   76.4725 C   0  0  0  0  0  0  0  0  0  0  0  0
   34.7566   20.7363   77.6543 C   0  0  1  0  0  0  0  0  0  0  0  0
   33.4034   20.5680   77.3014 O   0  0  0  0  0  0  0  0  0  0  0  0
   34.9862   19.8566   78.8880 C   0  0  1  0  0  0  0  0  0  0  0  0
   36.0198   20.1854   79.8291 O   0  0  0  0  0  0  0  0  0  0  0  0
   33.5529   19.7053   79.4972 C   0  0  1  0  0  0  0  0  0  0  0  0
   33.6330   19.9664   80.9090 O   0  0  0  0  0  0  0  0  0  0  0  0
   32.6599   20.5370   78.5094 C   0  0  2  0  0  0  0  0  0  0  0  0
   38.5867   18.0424   73.7478 O   0  0  0  0  0  0  0  0  0  0  0  0
   27.6206   21.3690   77.5011 N   0  0  0  0  0  0  0  0  0  0  0  0
   28.5790   22.2665   77.7572 C   0  0  0  0  0  0  0  0  0  0  0  0
   29.8295   21.8950   78.0168 N   0  0  0  0  0  0  0  0  0  0  0  0
   30.1885   20.5985   78.0098 C   0  0  0  0  0  0  0  0  0  0  0  0
   29.2119   19.6058   77.7284 C   0  0  0  0  0  0  0  0  0  0  0  0
   27.8812   20.0483   77.4681 C   0  0  0  0  0  0  0  0  0  0  0  0
   26.8759   19.1449   77.1776 N   0  0  0  0  0  0  0  0  0  0  0  0
   29.8342   18.4054   77.7784 N   0  0  0  0  0  0  0  0  0  0  0  0
   31.0917   18.5871   78.0606 C   0  0  0  0  0  0  0  0  0  0  0  0
   31.3599   19.9253   78.2135 N   0  0  0  0  0  0  0  0  0  0  0  0
  2  1  1  6  0  0  0
  2  3  1  0  0  0  0
  2  5  1  0  0  0  0
  3  4  1  0  0  0  0
  3 17  1  0  0  0  0
  5  6  1  0  0  0  0
  7  6  1  6  0  0  0
  7  8  1  0  0  0  0
  7  9  1  0  0  0  0
 10  9  1  6  0  0  0
 10 11  1  0  0  0  0
 10 12  1  0  0  0  0
 11 16  1  0  0  0  0
 12 13  1  1  0  0  0
 12 14  1  0  0  0  0
 14 15  1  1  0  0  0
 14 16  1  0  0  0  0
 16 27  1  6  0  0  0
 18 19  2  0  0  0  0
 18 23  1  0  0  0  0
 19 20  1  0  0  0  0
 20 21  2  0  0  0  0
 21 22  1  0  0  0  0
 21 27  1  0  0  0  0
 22 23  2  0  0  0  0
 22 25  1  0  0  0  0
 23 24  1  0  0  0  0
 25 26  2  0  0  0  0
 26 27  1  0  0  0  0
M  END
>  <CHROM.1>
118.83211757,-176.00183548,172.36550436,179.24838738,166.72343285,78.71824788
-100.05923235,33.72425803,20.19825014,76.53543832,0.49655896,-0.01941610
-1.72488203

>  <Name>
ligand

>  <RI>
0

>  <Rbt.Current_Directory>
/home/itssahil/PROJECTS/Mol_Feturizer/New_Systems/rnas/2QWY

>  <Rbt.Executable>
rbdock ($Id: //depot/dev/client3/rdock/2013.1/src/exe/rbdock.cxx#4 $)

>  <Rbt.Library>
libRbt.so (2013.1, Build901 2013/11/27)

>  <Rbt.Parameter_File>
/export/apps/rDock/src/rDock_2013.1_src/data/scripts/dock_solv.prm

>  <Rbt.Receptor>
prm/pocket_docking_4.prm

>  <SCORE>
-26.1167

>  <SCORE.INTER>
-22.6026

>  <SCORE.INTER.CONST>
1

>  <SCORE.INTER.POLAR>
0

>  <SCORE.INTER.ROT>
7

>  <SCORE.INTER.SOLV>
15.559

>  <SCORE.INTER.VDW>
-28.5214

>  <SCORE.INTER.norm>
-0.837135

>  <SCORE.INTRA>
-3.51405

>  <SCORE.INTRA.DIHEDRAL>
-5.85671

>  <SCORE.INTRA.DIHEDRAL.0>
10.7382

>  <SCORE.INTRA.POLAR>
0

>  <SCORE.INTRA.POLAR.0>
0

>  <SCORE.INTRA.REPUL>
0

>  <SCORE.INTRA.REPUL.0>
0

>  <SCORE.INTRA.SOLV>
-1.30132

>  <SCORE.INTRA.SOLV.lig_0>
-49.2501

>  <SCORE.INTRA.VDW>
0.0649677

>  <SCORE.INTRA.VDW.0>
-1.75368

>  <SCORE.INTRA.norm>
-0.13015

>  <SCORE.RESTR>
0

>  <SCORE.RESTR.CAVITY>
0

>  <SCORE.RESTR.norm>
0

>  <SCORE.SYSTEM>
0

>  <SCORE.SYSTEM.CONST>
0

>  <SCORE.SYSTEM.DIHEDRAL>
0

>  <SCORE.SYSTEM.SOLV>
0

>  <SCORE.SYSTEM.norm>
0

>  <SCORE.heavy>
27

>  <SCORE.norm>
-0.967284

>  <RMSD>
1.528

$$$$
ligand
 OpenBabel11021811463D
libRbt.so/2013.1/901 2013/11/27
 27 29  0  0  0  0  0  0  0  0999 V2000
   36.9833   18.8660   71.2091 N   0  0  0  0  0  0  0  0  0  0  0  0
   37.5890   19.7379   72.2307 C   0  0  2  0  0  0  0  0  0  0  0  0
   38.7249   19.0156   72.9249 C   0  0  0  0  0  0  0  0  0  0  0  0
   38.5004   17.9921   73.5791 O   0  0  0  0  0  0  0  0  0  0  0  0
   36.5305   20.1050   73.2655 C   0  0  0  0  0  0  0  0  0  0  0  0
   37.0529   21.1730   74.2025 C   0  0  0  0  0  0  0  0  0  0  0  0
   35.6724   21.7511   75.2050 S   0  0  2  0  0  0  0  0  0  0  0  0
   36.5611   22.9655   76.2186 C   0  0  0  0  0  0  0  0  0  0  0  0
   35.5179   20.3742   76.3932 C   0  0  0  0  0  0  0  0  0  0  0  0
   34.6477   20.8294   77.5616 C   0  0  1  0  0  0  0  0  0  0  0  0
   33.3015   20.6324   77.1966 O   0  0  0  0  0  0  0  0  0  0  0  0
   34.8807   19.9664   78.8063 C   0  0  1  0  0  0  0  0  0  0  0  0
   35.8983   20.3236   79.7545 O   0  0  0  0  0  0  0  0  0  0  0  0
   33.4442   19.7946   79.4025 C   0  0  1  0  0  0  0  0  0  0  0  0
   33.5049   20.0712   80.8123 O   0  0  0  0  0  0  0  0  0  0  0  0
   32.5464   20.5997   78.3973 C   0  0  2  0  0  0  0  0  0  0  0  0
   39.8724   19.4084   72.7773 O   0  0  0  0  0  0  0  0  0  0  0  0
   27.4815   21.3224   77.4335 N   0  0  0  0  0  0  0  0  0  0  0  0
   28.4178   22.2386   77.7047 C   0  0  0  0  0  0  0  0  0  0  0  0
   29.6789   21.8942   77.9496 N   0  0  0  0  0  0  0  0  0  0  0  0
   30.0714   20.6079   77.9118 C   0  0  0  0  0  0  0  0  0  0  0  0
   29.1193   19.5967   77.6133 C   0  0  0  0  0  0  0  0  0  0  0  0
   27.7760   20.0100   77.3697 C   0  0  0  0  0  0  0  0  0  0  0  0
   26.7929   19.0875   77.0642 N   0  0  0  0  0  0  0  0  0  0  0  0
   29.7727   18.4120   77.6333 N   0  0  0  0  0  0  0  0  0  0  0  0
   31.0266   18.6201   77.9130 C   0  0  0  0  0  0  0  0  0  0  0  0
   31.2609   19.9611   78.0944 N   0  0  0  0  0  0  0  0  0  0  0  0
  2  1  1  6  0  0  0
  2  3  1  0  0  0  0
  2  5  1  0  0  0  0
  3  4  1  0  0  0  0
  3 17  1  0  0  0  0
  5  6  1  0  0  0  0
  7  6  1  6  0  0  0
  7  8  1  0  0  0  0
  7  9  1  0  0  0  0
 10  9  1  6  0  0  0
 10 11  1  0  0  0  0
 10 12  1  0  0  0  0
 11 16  1  0  0  0  0
 12 13  1  1  0  0  0
 12 14  1  0  0  0  0
 14 15  1  1  0  0  0
 14 16  1  0  0  0  0
 16 27  1  6  0  0  0
 18 19  2  0  0  0  0
 18 23  1  0  0  0  0
 19 20  1  0  0  0  0
 20 21  2  0  0  0  0
 21 22  1  0  0  0  0
 21 27  1  0  0  0  0
 22 23  2  0  0  0  0
 22 25  1  0  0  0  0
 23 24  1  0  0  0  0
 25 26  2  0  0  0  0
 26 27  1  0  0  0  0
M  END
>  <CHROM.1>
-62.87748406,-170.90330834,170.51563453,179.21308576,165.07812139,84.88955642
-102.16134559,33.67797743,20.27023941,76.46537098,0.48080074,-0.04533120
-1.75049360

>  <Name>
ligand

>  <RI>
0

>  <Rbt.Current_Directory>
/home/itssahil/PROJECTS/Mol_Feturizer/New_Systems/rnas/2QWY

>  <Rbt.Executable>
rbdock ($Id: //depot/dev/client3/rdock/2013.1/src/exe/rbdock.cxx#4 $)

>  <Rbt.Library>
libRbt.so (2013.1, Build901 2013/11/27)

>  <Rbt.Parameter_File>
/export/apps/rDock/src/rDock_2013.1_src/data/scripts/dock_solv.prm

>  <Rbt.Receptor>
prm/pocket_docking_6.prm

>  <SCORE>
-26.266

>  <SCORE.INTER>
-23.1839

>  <SCORE.INTER.CONST>
1

>  <SCORE.INTER.POLAR>
0

>  <SCORE.INTER.ROT>
7

>  <SCORE.INTER.SOLV>
16.1174

>  <SCORE.INTER.VDW>
-29.0951

>  <SCORE.INTER.norm>
-0.858664

>  <SCORE.INTRA>
-3.08205

>  <SCORE.INTRA.DIHEDRAL>
-4.7281

>  <SCORE.INTRA.DIHEDRAL.0>
10.7382

>  <SCORE.INTRA.POLAR>
0

>  <SCORE.INTRA.POLAR.0>
0

>  <SCORE.INTRA.REPUL>
0

>  <SCORE.INTRA.REPUL.0>
0

>  <SCORE.INTRA.SOLV>
-1.25436

>  <SCORE.INTRA.SOLV.lig_0>
-49.2501

>  <SCORE.INTRA.VDW>
-0.0908231

>  <SCORE.INTRA.VDW.0>
-1.75368

>  <SCORE.INTRA.norm>
-0.11415

>  <SCORE.RESTR>
0

>  <SCORE.RESTR.CAVITY>
0

>  <SCORE.RESTR.norm>
0

>  <SCORE.SYSTEM>
0

>  <SCORE.SYSTEM.CONST>
0

>  <SCORE.SYSTEM.DIHEDRAL>
0

>  <SCORE.SYSTEM.SOLV>
0

>  <SCORE.SYSTEM.norm>
0

>  <SCORE.heavy>
27

>  <SCORE.norm>
-0.972814

>  <RMSD>
1.549

$$$$
ligand
 OpenBabel11021811463D
libRbt.so/2013.1/901 2013/11/27
 27 29  0  0  0  0  0  0  0  0999 V2000
   37.7943   16.5222   71.9424 N   0  0  0  0  0  0  0  0  0  0  0  0
   36.8941   15.9543   72.9612 C   0  0  2  0  0  0  0  0  0  0  0  0
   36.1251   14.7846   72.3830 C   0  0  0  0  0  0  0  0  0  0  0  0
   35.7811   14.7950   71.1967 O   0  0  0  0  0  0  0  0  0  0  0  0
   35.9040   17.0257   73.4062 C   0  0  0  0  0  0  0  0  0  0  0  0
   36.6370   18.2199   73.9790 C   0  0  0  0  0  0  0  0  0  0  0  0
   35.4107   19.3301   74.6923 S   0  0  2  0  0  0  0  0  0  0  0  0
   36.4087   20.8444   74.7401 C   0  0  0  0  0  0  0  0  0  0  0  0
   35.4808   18.8288   76.4460 C   0  0  0  0  0  0  0  0  0  0  0  0
   34.6553   19.8125   77.2710 C   0  0  1  0  0  0  0  0  0  0  0  0
   33.2990   19.6106   76.9490 O   0  0  0  0  0  0  0  0  0  0  0  0
   34.7815   19.5322   78.7723 C   0  0  1  0  0  0  0  0  0  0  0  0
   35.8237   20.1545   79.5397 O   0  0  0  0  0  0  0  0  0  0  0  0
   33.3296   19.7642   79.3077 C   0  0  1  0  0  0  0  0  0  0  0  0
   33.4077   20.5986   80.4762 O   0  0  0  0  0  0  0  0  0  0  0  0
   32.5342   20.1561   78.0122 C   0  0  2  0  0  0  0  0  0  0  0  0
   35.9083   13.8011   73.0748 O   0  0  0  0  0  0  0  0  0  0  0  0
   27.4373   21.1054   77.5382 N   0  0  0  0  0  0  0  0  0  0  0  0
   28.4472   21.9811   77.5913 C   0  0  0  0  0  0  0  0  0  0  0  0
   29.7080   21.5823   77.7339 N   0  0  0  0  0  0  0  0  0  0  0  0
   30.0232   20.2764   77.8077 C   0  0  0  0  0  0  0  0  0  0  0  0
   28.9892   19.3045   77.7408 C   0  0  0  0  0  0  0  0  0  0  0  0
   27.6508   19.7773   77.6003 C   0  0  0  0  0  0  0  0  0  0  0  0
   26.5901   18.8947   77.5193 N   0  0  0  0  0  0  0  0  0  0  0  0
   29.5754   18.0884   77.8303 N   0  0  0  0  0  0  0  0  0  0  0  0
   30.8631   18.2416   77.9417 C   0  0  0  0  0  0  0  0  0  0  0  0
   31.1893   19.5756   77.9333 N   0  0  0  0  0  0  0  0  0  0  0  0
  2  1  1  6  0  0  0
  2  3  1  0  0  0  0
  2  5  1  0  0  0  0
  3  4  1  0  0  0  0
  3 17  1  0  0  0  0
  5  6  1  0  0  0  0
  7  6  1  6  0  0  0
  7  8  1  0  0  0  0
  7  9  1  0  0  0  0
 10  9  1  6  0  0  0
 10 11  1  0  0  0  0
 10 12  1  0  0  0  0
 11 16  1  0  0  0  0
 12 13  1  1  0  0  0
 12 14  1  0  0  0  0
 14 15  1  1  0  0  0
 14 16  1  0  0  0  0
 16 27  1  1  0  0  0
 18 19  2  0  0  0  0
 18 23  1  0  0  0  0
 19 20  1  0  0  0  0
 20 21  2  0  0  0  0
 21 22  1  0  0  0  0
 21 27  1  0  0  0  0
 22 23  2  0  0  0  0
 22 25  1  0  0  0  0
 23 24  1  0  0  0  0
 25 26  2  0  0  0  0
 26 27  1  0  0  0  0
M  END
>  <CHROM.1>
-34.47703194,-59.20970782,-172.05281226,-160.80150659,171.31398358,69.53276870
-122.18230839,33.21848231,18.82748168,76.27308218,0.72857728,-0.05352300
-2.26805017

>  <Name>
ligand

>  <RI>
0

>  <Rbt.Current_Directory>
/home/itssahil/PROJECTS/Mol_Feturizer/New_Systems/rnas/2QWY

>  <Rbt.Executable>
rbdock ($Id: //depot/dev/client3/rdock/2013.1/src/exe/rbdock.cxx#4 $)

>  <Rbt.Library>
libRbt.so (2013.1, Build901 2013/11/27)

>  <Rbt.Parameter_File>
/export/apps/rDock/src/rDock_2013.1_src/data/scripts/dock_solv.prm

>  <Rbt.Receptor>
prm/pocket_docking_4.prm

>  <SCORE>
-29.0734

>  <SCORE.INTER>
-25.9874

>  <SCORE.INTER.CONST>
1

>  <SCORE.INTER.POLAR>
0

>  <SCORE.INTER.ROT>
7

>  <SCORE.INTER.SOLV>
13.5817

>  <SCORE.INTER.VDW>
-30.1188

>  <SCORE.INTER.norm>
-0.962495

>  <SCORE.INTRA>
-3.08607

>  <SCORE.INTRA.DIHEDRAL>
-4.88653

>  <SCORE.INTRA.DIHEDRAL.0>
10.7382

>  <SCORE.INTRA.POLAR>
0

>  <SCORE.INTRA.POLAR.0>
0

>  <SCORE.INTRA.REPUL>
0

>  <SCORE.INTRA.REPUL.0>
0

>  <SCORE.INTRA.SOLV>
-0.5249

>  <SCORE.INTRA.SOLV.lig_0>
-49.2501

>  <SCORE.INTRA.VDW>
-0.380358

>  <SCORE.INTRA.VDW.0>
-1.75368

>  <SCORE.INTRA.norm>
-0.114299

>  <SCORE.RESTR>
0

>  <SCORE.RESTR.CAVITY>
0

>  <SCORE.RESTR.norm>
0

>  <SCORE.SYSTEM>
0

>  <SCORE.SYSTEM.CONST>
0

>  <SCORE.SYSTEM.DIHEDRAL>
0

>  <SCORE.SYSTEM.SOLV>
0

>  <SCORE.SYSTEM.norm>
0

>  <SCORE.heavy>
27

>  <SCORE.norm>
-1.07679

>  <RMSD>
1.575

$$$$
ligand
 OpenBabel11021811463D
libRbt.so/2013.1/901 2013/11/27
 27 29  0  0  0  0  0  0  0  0999 V2000
   39.4800   19.2042   72.8564 N   0  0  0  0  0  0  0  0  0  0  0  0
   38.0353   19.4002   72.6438 C   0  0  2  0  0  0  0  0  0  0  0  0
   37.8031   20.3572   71.4931 C   0  0  0  0  0  0  0  0  0  0  0  0
   38.7428   20.6868   70.7622 O   0  0  0  0  0  0  0  0  0  0  0  0
   37.4196   19.9892   73.9089 C   0  0  0  0  0  0  0  0  0  0  0  0
   37.6239   19.0551   75.0824 C   0  0  0  0  0  0  0  0  0  0  0  0
   36.9086   19.8356   76.5400 S   0  0  2  0  0  0  0  0  0  0  0  0
   37.4446   18.6301   77.7855 C   0  0  0  0  0  0  0  0  0  0  0  0
   35.1559   19.3626   76.3506 C   0  0  0  0  0  0  0  0  0  0  0  0
   34.3208   20.1649   77.3448 C   0  0  1  0  0  0  0  0  0  0  0  0
   32.9630   19.9417   77.0436 O   0  0  0  0  0  0  0  0  0  0  0  0
   34.5244   19.6684   78.7803 C   0  0  1  0  0  0  0  0  0  0  0  0
   35.5678   20.2226   79.5966 O   0  0  0  0  0  0  0  0  0  0  0  0
   33.0875   19.7390   79.3956 C   0  0  1  0  0  0  0  0  0  0  0  0
   33.1759   20.3904   80.6744 O   0  0  0  0  0  0  0  0  0  0  0  0
   32.2195   20.2789   78.2040 C   0  0  2  0  0  0  0  0  0  0  0  0
   36.6712   20.7459   71.2477 O   0  0  0  0  0  0  0  0  0  0  0  0
   27.1280   21.0133   77.4030 N   0  0  0  0  0  0  0  0  0  0  0  0
   28.1032   21.9272   77.4622 C   0  0  0  0  0  0  0  0  0  0  0  0
   29.3668   21.5832   77.6947 N   0  0  0  0  0  0  0  0  0  0  0  0
   29.7213   20.2956   77.8575 C   0  0  0  0  0  0  0  0  0  0  0  0
   28.7261   19.2841   77.7886 C   0  0  0  0  0  0  0  0  0  0  0  0
   27.3825   19.6992   77.5499 C   0  0  0  0  0  0  0  0  0  0  0  0
   26.3585   18.7750   77.4605 N   0  0  0  0  0  0  0  0  0  0  0  0
   29.3472   18.0968   77.9769 N   0  0  0  0  0  0  0  0  0  0  0  0
   30.6206   18.3031   78.1491 C   0  0  0  0  0  0  0  0  0  0  0  0
   30.9016   19.6459   78.0847 N   0  0  0  0  0  0  0  0  0  0  0  0
  2  1  1  1  0  0  0
  2  3  1  0  0  0  0
  2  5  1  0  0  0  0
  3  4  1  0  0  0  0
  3 17  1  0  0  0  0
  5  6  1  0  0  0  0
  7  6  1  6  0  0  0
  7  8  1  0  0  0  0
  7  9  1  0  0  0  0
 10  9  1  6  0  0  0
 10 11  1  0  0  0  0
 10 12  1  0  0  0  0
 11 16  1  0  0  0  0
 12 13  1  1  0  0  0
 12 14  1  0  0  0  0
 14 15  1  1  0  0  0
 14 16  1  0  0  0  0
 16 27  1  6  0  0  0
 18 19  2  0  0  0  0
 18 23  1  0  0  0  0
 19 20  1  0  0  0  0
 20 21  2  0  0  0  0
 21 22  1  0  0  0  0
 21 27  1  0  0  0  0
 22 23  2  0  0  0  0
 22 25  1  0  0  0  0
 23 24  1  0  0  0  0
 25 26  2  0  0  0  0
 26 27  1  0  0  0  0
M  END
>  <CHROM.1>
10.93221090,-60.10742354,178.62485393,-174.04497655,-168.70973631,171.05162726
-109.11808672,33.59656766,19.86852306,76.53110494,0.47143918,0.05887719,-1.47065470

>  <Name>
ligand

>  <RI>
0

>  <Rbt.Current_Directory>
/home/itssahil/PROJECTS/Mol_Feturizer/New_Systems/rnas/2QWY

>  <Rbt.Executable>
rbdock ($Id: //depot/dev/client3/rdock/2013.1/src/exe/rbdock.cxx#4 $)

>  <Rbt.Library>
libRbt.so (2013.1, Build901 2013/11/27)

>  <Rbt.Parameter_File>
/export/apps/rDock/src/rDock_2013.1_src/data/scripts/dock_solv.prm

>  <Rbt.Receptor>
prm/pocket_docking_5.prm

>  <SCORE>
-25.7734

>  <SCORE.INTER>
-23.1018

>  <SCORE.INTER.CONST>
1

>  <SCORE.INTER.POLAR>
0

>  <SCORE.INTER.ROT>
7

>  <SCORE.INTER.SOLV>
14.4435

>  <SCORE.INTER.VDW>
-28.4824

>  <SCORE.INTER.norm>
-0.855623

>  <SCORE.INTRA>
-2.6716

>  <SCORE.INTRA.DIHEDRAL>
-5.59669

>  <SCORE.INTRA.DIHEDRAL.0>
10.7382

>  <SCORE.INTRA.POLAR>
0

>  <SCORE.INTRA.POLAR.0>
0

>  <SCORE.INTRA.REPUL>
0

>  <SCORE.INTRA.REPUL.0>
0

>  <SCORE.INTRA.SOLV>
-0.165695

>  <SCORE.INTRA.SOLV.lig_0>
-49.2501

>  <SCORE.INTRA.VDW>
0.209589

>  <SCORE.INTRA.VDW.0>
-1.75368

>  <SCORE.INTRA.norm>
-0.0989483

>  <SCORE.RESTR>
0

>  <SCORE.RESTR.CAVITY>
0

>  <SCORE.RESTR.norm>
0

>  <SCORE.SYSTEM>
0

>  <SCORE.SYSTEM.CONST>
0

>  <SCORE.SYSTEM.DIHEDRAL>
0

>  <SCORE.SYSTEM.SOLV>
0

>  <SCORE.SYSTEM.norm>
0

>  <SCORE.heavy>
27

>  <SCORE.norm>
-0.954571

>  <RMSD>
1.731

$$$$
ligand
 OpenBabel11021811463D
libRbt.so/2013.1/901 2013/11/27
 27 29  0  0  0  0  0  0  0  0999 V2000
   39.4401   19.1329   72.8756 N   0  0  0  0  0  0  0  0  0  0  0  0
   38.0036   19.3756   72.6560 C   0  0  2  0  0  0  0  0  0  0  0  0
   37.8081   20.3355   71.5008 C   0  0  0  0  0  0  0  0  0  0  0  0
   38.7711   20.6691   70.8028 O   0  0  0  0  0  0  0  0  0  0  0  0
   37.4022   19.9892   73.9162 C   0  0  0  0  0  0  0  0  0  0  0  0
   37.5478   19.0425   75.0883 C   0  0  0  0  0  0  0  0  0  0  0  0
   36.8259   19.8388   76.5340 S   0  0  2  0  0  0  0  0  0  0  0  0
   37.3277   18.6300   77.7904 C   0  0  0  0  0  0  0  0  0  0  0  0
   35.0688   19.3915   76.3238 C   0  0  0  0  0  0  0  0  0  0  0  0
   34.2325   20.2153   77.2993 C   0  0  1  0  0  0  0  0  0  0  0  0
   32.8751   19.9869   77.0003 O   0  0  0  0  0  0  0  0  0  0  0  0
   34.4330   19.7490   78.7453 C   0  0  1  0  0  0  0  0  0  0  0  0
   35.4754   20.3195   79.5517 O   0  0  0  0  0  0  0  0  0  0  0  0
   32.9950   19.8337   79.3563 C   0  0  1  0  0  0  0  0  0  0  0  0
   33.0816   20.5119   80.6213 O   0  0  0  0  0  0  0  0  0  0  0  0
   32.1297   20.3490   78.1520 C   0  0  2  0  0  0  0  0  0  0  0  0
   36.6842   20.7227   71.2188 O   0  0  0  0  0  0  0  0  0  0  0  0
   27.0356   21.0745   77.3596 N   0  0  0  0  0  0  0  0  0  0  0  0
   28.0109   21.9891   77.4060 C   0  0  0  0  0  0  0  0  0  0  0  0
   29.2752   21.6476   77.6380 N   0  0  0  0  0  0  0  0  0  0  0  0
   29.6304   20.3619   77.8133 C   0  0  0  0  0  0  0  0  0  0  0  0
   28.6351   19.3496   77.7583 C   0  0  0  0  0  0  0  0  0  0  0  0
   27.2907   19.7620   77.5195 C   0  0  0  0  0  0  0  0  0  0  0  0
   26.2665   18.8369   77.4432 N   0  0  0  0  0  0  0  0  0  0  0  0
   29.2569   18.1645   77.9570 N   0  0  0  0  0  0  0  0  0  0  0  0
   30.5309   18.3726   78.1230 C   0  0  0  0  0  0  0  0  0  0  0  0
   30.8115   19.7147   78.0435 N   0  0  0  0  0  0  0  0  0  0  0  0
  2  1  1  1  0  0  0
  2  3  1  0  0  0  0
  2  5  1  0  0  0  0
  3  4  1  0  0  0  0
  3 17  1  0  0  0  0
  5  6  1  0  0  0  0
  7  6  1  6  0  0  0
  7  8  1  0  0  0  0
  7  9  1  0  0  0  0
 10  9  1  6  0  0  0
 10 11  1  0  0  0  0
 10 12  1  0  0  0  0
 11 16  1  0  0  0  0
 12 13  1  1  0  0  0
 12 14  1  0  0  0  0
 14 15  1  1  0  0  0
 14 16  1  0  0  0  0
 16 27  1  6  0  0  0
 18 19  2  0  0  0  0
 18 23  1  0  0  0  0
 19 20  1  0  0  0  0
 20 21  2  0  0  0  0
 21 22  1  0  0  0  0
 21 27  1  0  0  0  0
 22 23  2  0  0  0  0
 22 25  1  0  0  0  0
 23 24  1  0  0  0  0
 25 26  2  0  0  0  0
 26 27  1  0  0  0  0
M  END
>  <CHROM.1>
8.29672134,-61.14863300,179.67617252,-172.70936172,-168.40957124,172.36328475
-109.79238163,33.52440604,19.90598828,76.50843586,0.46461763,0.06223721,-1.48132802

>  <Name>
ligand

>  <RI>
0

>  <Rbt.Current_Directory>
/home/itssahil/PROJECTS/Mol_Feturizer/New_Systems/rnas/2QWY

>  <Rbt.Executable>
rbdock ($Id: //depot/dev/client3/rdock/2013.1/src/exe/rbdock.cxx#4 $)

>  <Rbt.Library>
libRbt.so (2013.1, Build901 2013/11/27)

>  <Rbt.Parameter_File>
/export/apps/rDock/src/rDock_2013.1_src/data/scripts/dock_solv.prm

>  <Rbt.Receptor>
prm/pocket_docking_4.prm

>  <SCORE>
-25.7824

>  <SCORE.INTER>
-23.0797

>  <SCORE.INTER.CONST>
1

>  <SCORE.INTER.POLAR>
0

>  <SCORE.INTER.ROT>
7

>  <SCORE.INTER.SOLV>
13.811

>  <SCORE.INTER.VDW>
-28.2568

>  <SCORE.INTER.norm>
-0.854805

>  <SCORE.INTRA>
-2.70267

>  <SCORE.INTRA.DIHEDRAL>
-5.51389

>  <SCORE.INTRA.DIHEDRAL.0>
10.7382

>  <SCORE.INTRA.POLAR>
0

>  <SCORE.INTRA.POLAR.0>
0

>  <SCORE.INTRA.REPUL>
0

>  <SCORE.INTRA.REPUL.0>
0

>  <SCORE.INTRA.SOLV>
-0.180628

>  <SCORE.INTRA.SOLV.lig_0>
-49.2501

>  <SCORE.INTRA.VDW>
0.144586

>  <SCORE.INTRA.VDW.0>
-1.75368

>  <SCORE.INTRA.norm>
-0.100099

>  <SCORE.RESTR>
0

>  <SCORE.RESTR.CAVITY>
0

>  <SCORE.RESTR.norm>
0

>  <SCORE.SYSTEM>
0

>  <SCORE.SYSTEM.CONST>
0

>  <SCORE.SYSTEM.DIHEDRAL>
0

>  <SCORE.SYSTEM.SOLV>
0

>  <SCORE.SYSTEM.norm>
0

>  <SCORE.heavy>
27

>  <SCORE.norm>
-0.954904

>  <RMSD>
1.740

$$$$
ligand
 OpenBabel11021811463D
libRbt.so/2013.1/901 2013/11/27
 27 29  0  0  0  0  0  0  0  0999 V2000
   38.2107   19.0143   71.3750 N   0  0  0  0  0  0  0  0  0  0  0  0
   37.2234   18.2732   72.1791 C   0  0  2  0  0  0  0  0  0  0  0  0
   36.4199   17.3452   71.2919 C   0  0  0  0  0  0  0  0  0  0  0  0
   35.8399   16.3699   71.7798 O   0  0  0  0  0  0  0  0  0  0  0  0
   36.2751   19.2653   72.8445 C   0  0  0  0  0  0  0  0  0  0  0  0
   35.7497   18.7037   74.1483 C   0  0  0  0  0  0  0  0  0  0  0  0
   34.9730   20.0516   75.0567 S   0  0  2  0  0  0  0  0  0  0  0  0
   36.4514   21.0544   75.3736 C   0  0  0  0  0  0  0  0  0  0  0  0
   34.7436   19.2701   76.6902 C   0  0  0  0  0  0  0  0  0  0  0  0
   34.2534   20.3274   77.6757 C   0  0  1  0  0  0  0  0  0  0  0  0
   32.9707   20.7376   77.2626 O   0  0  0  0  0  0  0  0  0  0  0  0
   34.0808   19.7474   79.0836 C   0  0  1  0  0  0  0  0  0  0  0  0
   35.1782   19.7568   80.0098 O   0  0  0  0  0  0  0  0  0  0  0  0
   32.7684   20.4270   79.5973 C   0  0  1  0  0  0  0  0  0  0  0  0
   33.0104   20.9316   80.9219 O   0  0  0  0  0  0  0  0  0  0  0  0
   32.3428   21.3323   78.3874 C   0  0  2  0  0  0  0  0  0  0  0  0
   36.2897   17.6043   70.1050 O   0  0  0  0  0  0  0  0  0  0  0  0
   28.0799   18.4931   77.4541 N   0  0  0  0  0  0  0  0  0  0  0  0
   29.3373   18.0743   77.6366 C   0  0  0  0  0  0  0  0  0  0  0  0
   30.3325   18.9306   77.8495 N   0  0  0  0  0  0  0  0  0  0  0  0
   30.1115   20.2562   77.9133 C   0  0  0  0  0  0  0  0  0  0  0  0
   28.7914   20.7523   77.7415 C   0  0  0  0  0  0  0  0  0  0  0  0
   27.7571   19.7994   77.5031 C   0  0  0  0  0  0  0  0  0  0  0  0
   26.4454   20.2017   77.3343 N   0  0  0  0  0  0  0  0  0  0  0  0
   28.8505   22.0989   77.8586 N   0  0  0  0  0  0  0  0  0  0  0  0
   30.0815   22.4545   78.0870 C   0  0  0  0  0  0  0  0  0  0  0  0
   30.8988   21.3517   78.1293 N   0  0  0  0  0  0  0  0  0  0  0  0
  2  1  1  6  0  0  0
  2  3  1  0  0  0  0
  2  5  1  0  0  0  0
  3  4  1  0  0  0  0
  3 17  1  0  0  0  0
  5  6  1  0  0  0  0
  7  6  1  6  0  0  0
  7  8  1  0  0  0  0
  7  9  1  0  0  0  0
 10  9  1  6  0  0  0
 10 11  1  0  0  0  0
 10 12  1  0  0  0  0
 11 16  1  0  0  0  0
 12 13  1  1  0  0  0
 12 14  1  0  0  0  0
 14 15  1  1  0  0  0
 14 16  1  0  0  0  0
 16 27  1  6  0  0  0
 18 19  2  0  0  0  0
 18 23  1  0  0  0  0
 19 20  1  0  0  0  0
 20 21  2  0  0  0  0
 21 22  1  0  0  0  0
 21 27  1  0  0  0  0
 22 23  2  0  0  0  0
 22 25  1  0  0  0  0
 23 24  1  0  0  0  0
 25 26  2  0  0  0  0
 26 27  1  0  0  0  0
M  END
>  <CHROM.1>
158.33273211,-151.07728413,166.62603856,-65.95263283,172.65948759,65.73032078
60.35290023,33.08119315,19.72337874,76.24936398,-0.74546863,0.05594442,1.18024300

>  <Name>
ligand

>  <RI>
0

>  <Rbt.Current_Directory>
/home/itssahil/PROJECTS/Mol_Feturizer/New_Systems/rnas/2QWY

>  <Rbt.Executable>
rbdock ($Id: //depot/dev/client3/rdock/2013.1/src/exe/rbdock.cxx#4 $)

>  <Rbt.Library>
libRbt.so (2013.1, Build901 2013/11/27)

>  <Rbt.Parameter_File>
/export/apps/rDock/src/rDock_2013.1_src/data/scripts/dock_solv.prm

>  <Rbt.Receptor>
prm/pocket_docking_4.prm

>  <SCORE>
-29.2471

>  <SCORE.INTER>
-26.5158

>  <SCORE.INTER.CONST>
1

>  <SCORE.INTER.POLAR>
0

>  <SCORE.INTER.ROT>
7

>  <SCORE.INTER.SOLV>
15.4359

>  <SCORE.INTER.VDW>
-31.0892

>  <SCORE.INTER.norm>
-0.982068

>  <SCORE.INTRA>
-2.73128

>  <SCORE.INTRA.DIHEDRAL>
-4.07788

>  <SCORE.INTRA.DIHEDRAL.0>
10.7382

>  <SCORE.INTRA.POLAR>
0

>  <SCORE.INTRA.POLAR.0>
0

>  <SCORE.INTRA.REPUL>
0

>  <SCORE.INTRA.REPUL.0>
0

>  <SCORE.INTRA.SOLV>
-1.15446

>  <SCORE.INTRA.SOLV.lig_0>
-49.2501

>  <SCORE.INTRA.VDW>
-0.115113

>  <SCORE.INTRA.VDW.0>
-1.75368

>  <SCORE.INTRA.norm>
-0.101159

>  <SCORE.RESTR>
0

>  <SCORE.RESTR.CAVITY>
0

>  <SCORE.RESTR.norm>
0

>  <SCORE.SYSTEM>
0

>  <SCORE.SYSTEM.CONST>
0

>  <SCORE.SYSTEM.DIHEDRAL>
0

>  <SCORE.SYSTEM.SOLV>
0

>  <SCORE.SYSTEM.norm>
0

>  <SCORE.heavy>
27

>  <SCORE.norm>
-1.08323

>  <RMSD>
1.777

$$$$
ligand
 OpenBabel11021811463D
libRbt.so/2013.1/901 2013/11/27
 27 29  0  0  0  0  0  0  0  0999 V2000
   38.7026   19.9477   71.5099 N   0  0  0  0  0  0  0  0  0  0  0  0
   37.6411   19.1385   72.1337 C   0  0  2  0  0  0  0  0  0  0  0  0
   36.8490   18.4084   71.0691 C   0  0  0  0  0  0  0  0  0  0  0  0
   36.0910   17.4855   71.3846 O   0  0  0  0  0  0  0  0  0  0  0  0
   36.7009   20.0578   72.9066 C   0  0  0  0  0  0  0  0  0  0  0  0
   36.1264   19.3392   74.1086 C   0  0  0  0  0  0  0  0  0  0  0  0
   35.2398   20.5509   75.1042 S   0  0  2  0  0  0  0  0  0  0  0  0
   36.6644   21.4801   75.7355 C   0  0  0  0  0  0  0  0  0  0  0  0
   34.8225   19.5445   76.5686 C   0  0  0  0  0  0  0  0  0  0  0  0
   34.2835   20.4656   77.6598 C   0  0  1  0  0  0  0  0  0  0  0  0
   33.0001   20.8924   77.2661 O   0  0  0  0  0  0  0  0  0  0  0  0
   34.0946   19.7184   78.9843 C   0  0  1  0  0  0  0  0  0  0  0  0
   35.1706   19.6427   79.9323 O   0  0  0  0  0  0  0  0  0  0  0  0
   32.7541   20.3018   79.5418 C   0  0  1  0  0  0  0  0  0  0  0  0
   32.9536   20.6507   80.9224 O   0  0  0  0  0  0  0  0  0  0  0  0
   32.3323   21.3346   78.4372 C   0  0  2  0  0  0  0  0  0  0  0  0
   36.9087   18.7816   69.9073 O   0  0  0  0  0  0  0  0  0  0  0  0
   28.0902   18.4864   77.4389 N   0  0  0  0  0  0  0  0  0  0  0  0
   29.3432   18.0694   77.6534 C   0  0  0  0  0  0  0  0  0  0  0  0
   30.3337   18.9278   77.8795 N   0  0  0  0  0  0  0  0  0  0  0  0
   30.1117   20.2539   77.9250 C   0  0  0  0  0  0  0  0  0  0  0  0
   28.7959   20.7483   77.7189 C   0  0  0  0  0  0  0  0  0  0  0  0
   27.7668   19.7932   77.4675 C   0  0  0  0  0  0  0  0  0  0  0  0
   26.4593   20.1938   77.2657 N   0  0  0  0  0  0  0  0  0  0  0  0
   28.8528   22.0961   77.8237 N   0  0  0  0  0  0  0  0  0  0  0  0
   30.0785   22.4539   78.0756 C   0  0  0  0  0  0  0  0  0  0  0  0
   30.8944   21.3515   78.1471 N   0  0  0  0  0  0  0  0  0  0  0  0
  2  1  1  6  0  0  0
  2  3  1  0  0  0  0
  2  5  1  0  0  0  0
  3  4  1  0  0  0  0
  3 17  1  0  0  0  0
  5  6  1  0  0  0  0
  7  6  1  6  0  0  0
  7  8  1  0  0  0  0
  7  9  1  0  0  0  0
 10  9  1  6  0  0  0
 10 11  1  0  0  0  0
 10 12  1  0  0  0  0
 11 16  1  0  0  0  0
 12 13  1  1  0  0  0
 12 14  1  0  0  0  0
 14 15  1  1  0  0  0
 14 16  1  0  0  0  0
 16 27  1  6  0  0  0
 18 19  2  0  0  0  0
 18 23  1  0  0  0  0
 19 20  1  0  0  0  0
 20 21  2  0  0  0  0
 21 22  1  0  0  0  0
 21 27  1  0  0  0  0
 22 23  2  0  0  0  0
 22 25  1  0  0  0  0
 23 24  1  0  0  0  0
 25 26  2  0  0  0  0
 26 27  1  0  0  0  0
M  END
>  <CHROM.1>
165.96652798,-148.63645856,171.35281827,-70.71044123,169.60983699,71.84339142
67.88508444,33.22398297,20.01940620,76.22496084,-0.68976701,0.07808570,1.30372394

>  <Name>
ligand

>  <RI>
0

>  <Rbt.Current_Directory>
/home/itssahil/PROJECTS/Mol_Feturizer/New_Systems/rnas/2QWY

>  <Rbt.Executable>
rbdock ($Id: //depot/dev/client3/rdock/2013.1/src/exe/rbdock.cxx#4 $)

>  <Rbt.Library>
libRbt.so (2013.1, Build901 2013/11/27)

>  <Rbt.Parameter_File>
/export/apps/rDock/src/rDock_2013.1_src/data/scripts/dock_solv.prm

>  <Rbt.Receptor>
prm/pocket_docking_4.prm

>  <SCORE>
-27.9499

>  <SCORE.INTER>
-25.2933

>  <SCORE.INTER.CONST>
1

>  <SCORE.INTER.POLAR>
0

>  <SCORE.INTER.ROT>
7

>  <SCORE.INTER.SOLV>
16.8874

>  <SCORE.INTER.VDW>
-30.758

>  <SCORE.INTER.norm>
-0.93679

>  <SCORE.INTRA>
-2.65662

>  <SCORE.INTRA.DIHEDRAL>
-3.67381

>  <SCORE.INTRA.DIHEDRAL.0>
10.7382

>  <SCORE.INTRA.POLAR>
0

>  <SCORE.INTRA.POLAR.0>
0

>  <SCORE.INTRA.REPUL>
0

>  <SCORE.INTRA.REPUL.0>
0

>  <SCORE.INTRA.SOLV>
-1.15869

>  <SCORE.INTRA.SOLV.lig_0>
-49.2501

>  <SCORE.INTRA.VDW>
-0.240368

>  <SCORE.INTRA.VDW.0>
-1.75368

>  <SCORE.INTRA.norm>
-0.0983934

>  <SCORE.RESTR>
0

>  <SCORE.RESTR.CAVITY>
0

>  <SCORE.RESTR.norm>
0

>  <SCORE.SYSTEM>
0

>  <SCORE.SYSTEM.CONST>
0

>  <SCORE.SYSTEM.DIHEDRAL>
0

>  <SCORE.SYSTEM.SOLV>
0

>  <SCORE.SYSTEM.norm>
0

>  <SCORE.heavy>
27

>  <SCORE.norm>
-1.03518

>  <RMSD>
1.812

$$$$
ligand
 OpenBabel11021811463D
libRbt.so/2013.1/901 2013/11/27
 27 29  0  0  0  0  0  0  0  0999 V2000
   36.6840   18.7333   71.6818 N   0  0  0  0  0  0  0  0  0  0  0  0
   36.8807   20.1526   72.0248 C   0  0  2  0  0  0  0  0  0  0  0  0
   38.0138   20.7344   71.2054 C   0  0  0  0  0  0  0  0  0  0  0  0
   37.8839   21.8369   70.6636 O   0  0  0  0  0  0  0  0  0  0  0  0
   37.2321   20.2648   73.5047 C   0  0  0  0  0  0  0  0  0  0  0  0
   36.1013   19.7344   74.3599 C   0  0  0  0  0  0  0  0  0  0  0  0
   36.7134   19.5738   76.0466 S   0  0  2  0  0  0  0  0  0  0  0  0
   37.7471   18.0998   75.8224 C   0  0  0  0  0  0  0  0  0  0  0  0
   35.2573   18.8386   76.8657 C   0  0  0  0  0  0  0  0  0  0  0  0
   34.3343   19.9630   77.3278 C   0  0  1  0  0  0  0  0  0  0  0  0
   33.0114   19.5828   77.0287 O   0  0  0  0  0  0  0  0  0  0  0  0
   34.3896   20.1475   78.8481 C   0  0  1  0  0  0  0  0  0  0  0  0
   35.3513   21.0382   79.4345 O   0  0  0  0  0  0  0  0  0  0  0  0
   32.8992   20.4271   79.2338 C   0  0  1  0  0  0  0  0  0  0  0  0
   32.8654   21.5724   80.1027 O   0  0  0  0  0  0  0  0  0  0  0  0
   32.1589   20.3640   77.8508 C   0  0  2  0  0  0  0  0  0  0  0  0
   39.0806   20.1424   71.1409 O   0  0  0  0  0  0  0  0  0  0  0  0
   26.9975   20.9272   77.4670 N   0  0  0  0  0  0  0  0  0  0  0  0
   27.9479   21.8640   77.3726 C   0  0  0  0  0  0  0  0  0  0  0  0
   29.2364   21.5654   77.5127 N   0  0  0  0  0  0  0  0  0  0  0  0
   29.6403   20.3011   77.7329 C   0  0  0  0  0  0  0  0  0  0  0  0
   28.6719   19.2659   77.8265 C   0  0  0  0  0  0  0  0  0  0  0  0
   27.3012   19.6331   77.6825 C   0  0  0  0  0  0  0  0  0  0  0  0
   26.2997   18.6828   77.7522 N   0  0  0  0  0  0  0  0  0  0  0  0
   29.3406   18.1093   78.0407 N   0  0  0  0  0  0  0  0  0  0  0  0
   30.6180   18.3552   78.0813 C   0  0  0  0  0  0  0  0  0  0  0  0
   30.8540   19.6955   77.8969 N   0  0  0  0  0  0  0  0  0  0  0  0
  2  1  1  6  0  0  0
  2  3  1  0  0  0  0
  2  5  1  0  0  0  0
  3  4  1  0  0  0  0
  3 17  1  0  0  0  0
  5  6  1  0  0  0  0
  7  6  1  6  0  0  0
  7  8  1  0  0  0  0
  7  9  1  0  0  0  0
 10  9  1  1  0  0  0
 10 11  1  0  0  0  0
 10 12  1  0  0  0  0
 11 16  1  0  0  0  0
 12 13  1  6  0  0  0
 12 14  1  0  0  0  0
 14 15  1  6  0  0  0
 14 16  1  0  0  0  0
 16 27  1  1  0  0  0
 18 19  2  0  0  0  0
 18 23  1  0  0  0  0
 19 20  1  0  0  0  0
 20 21  2  0  0  0  0
 21 22  1  0  0  0  0
 21 27  1  0  0  0  0
 22 23  2  0  0  0  0
 22 25  1  0  0  0  0
 23 24  1  0  0  0  0
 25 26  2  0  0  0  0
 26 27  1  0  0  0  0
M  END
>  <CHROM.1>
134.66853454,-61.63090146,168.23728790,-74.16667886,-87.09231145,137.47397894
-133.43877184,33.40867477,19.97891962,76.26512635,0.53872957,0.00996144,-1.54485443

>  <Name>
ligand

>  <RI>
0

>  <Rbt.Current_Directory>
/home/itssahil/PROJECTS/Mol_Feturizer/New_Systems/rnas/2QWY

>  <Rbt.Executable>
rbdock ($Id: //depot/dev/client3/rdock/2013.1/src/exe/rbdock.cxx#4 $)

>  <Rbt.Library>
libRbt.so (2013.1, Build901 2013/11/27)

>  <Rbt.Parameter_File>
/export/apps/rDock/src/rDock_2013.1_src/data/scripts/dock_solv.prm

>  <Rbt.Receptor>
prm/pocket_docking_7.prm

>  <SCORE>
-27.3853

>  <SCORE.INTER>
-26.0808

>  <SCORE.INTER.CONST>
1

>  <SCORE.INTER.POLAR>
0

>  <SCORE.INTER.ROT>
7

>  <SCORE.INTER.SOLV>
14.5193

>  <SCORE.INTER.VDW>
-30.4936

>  <SCORE.INTER.norm>
-0.965956

>  <SCORE.INTRA>
-1.30447

>  <SCORE.INTRA.DIHEDRAL>
-1.97436

>  <SCORE.INTRA.DIHEDRAL.0>
10.7382

>  <SCORE.INTRA.POLAR>
0

>  <SCORE.INTRA.POLAR.0>
0

>  <SCORE.INTRA.REPUL>
0

>  <SCORE.INTRA.REPUL.0>
0

>  <SCORE.INTRA.SOLV>
-0.107156

>  <SCORE.INTRA.SOLV.lig_0>
-49.2501

>  <SCORE.INTRA.VDW>
-0.263716

>  <SCORE.INTRA.VDW.0>
-1.75368

>  <SCORE.INTRA.norm>
-0.0483138

>  <SCORE.RESTR>
0

>  <SCORE.RESTR.CAVITY>
0

>  <SCORE.RESTR.norm>
0

>  <SCORE.SYSTEM>
0

>  <SCORE.SYSTEM.CONST>
0

>  <SCORE.SYSTEM.DIHEDRAL>
0

>  <SCORE.SYSTEM.SOLV>
0

>  <SCORE.SYSTEM.norm>
0

>  <SCORE.heavy>
27

>  <SCORE.norm>
-1.01427

>  <RMSD>
1.823

$$$$
ligand
 OpenBabel11021811463D
libRbt.so/2013.1/901 2013/11/27
 27 29  0  0  0  0  0  0  0  0999 V2000
   37.5057   18.6042   71.5764 N   0  0  0  0  0  0  0  0  0  0  0  0
   36.8666   17.7181   72.5649 C   0  0  2  0  0  0  0  0  0  0  0  0
   36.0947   16.6221   71.8599 C   0  0  0  0  0  0  0  0  0  0  0  0
   35.8662   15.5549   72.4383 O   0  0  0  0  0  0  0  0  0  0  0  0
   35.9001   18.5345   73.4167 C   0  0  0  0  0  0  0  0  0  0  0  0
   36.6173   19.7012   74.0615 C   0  0  0  0  0  0  0  0  0  0  0  0
   35.4087   20.6289   75.0228 S   0  0  2  0  0  0  0  0  0  0  0  0
   36.4788   21.9893   75.5666 C   0  0  0  0  0  0  0  0  0  0  0  0
   35.3458   19.6248   76.5458 C   0  0  0  0  0  0  0  0  0  0  0  0
   34.7550   20.4729   77.6688 C   0  0  1  0  0  0  0  0  0  0  0  0
   33.4528   20.8479   77.2841 O   0  0  0  0  0  0  0  0  0  0  0  0
   34.5996   19.6652   78.9618 C   0  0  1  0  0  0  0  0  0  0  0  0
   35.6740   19.6080   79.9129 O   0  0  0  0  0  0  0  0  0  0  0  0
   33.2282   20.1559   79.5333 C   0  0  1  0  0  0  0  0  0  0  0  0
   33.4034   20.4599   80.9278 O   0  0  0  0  0  0  0  0  0  0  0  0
   32.7579   21.2082   78.4674 C   0  0  2  0  0  0  0  0  0  0  0  0
   35.6386   16.8240   70.7446 O   0  0  0  0  0  0  0  0  0  0  0  0
   28.6132   18.1719   77.6268 N   0  0  0  0  0  0  0  0  0  0  0  0
   29.8769   17.8086   77.8736 C   0  0  0  0  0  0  0  0  0  0  0  0
   30.8387   18.7099   78.0508 N   0  0  0  0  0  0  0  0  0  0  0  0
   30.5756   20.0288   78.0120 C   0  0  0  0  0  0  0  0  0  0  0  0
   29.2466   20.4679   77.7684 C   0  0  0  0  0  0  0  0  0  0  0  0
   28.2494   19.4672   77.5717 C   0  0  0  0  0  0  0  0  0  0  0  0
   26.9316   19.8134   77.3382 N   0  0  0  0  0  0  0  0  0  0  0  0
   29.2611   21.8207   77.7888 N   0  0  0  0  0  0  0  0  0  0  0  0
   30.4733   22.2318   78.0244 C   0  0  0  0  0  0  0  0  0  0  0  0
   31.3224   21.1620   78.1691 N   0  0  0  0  0  0  0  0  0  0  0  0
  2  1  1  6  0  0  0
  2  3  1  0  0  0  0
  2  5  1  0  0  0  0
  3  4  1  0  0  0  0
  3 17  1  0  0  0  0
  5  6  1  0  0  0  0
  7  6  1  6  0  0  0
  7  8  1  0  0  0  0
  7  9  1  0  0  0  0
 10  9  1  6  0  0  0
 10 11  1  0  0  0  0
 10 12  1  0  0  0  0
 11 16  1  0  0  0  0
 12 13  1  1  0  0  0
 12 14  1  0  0  0  0
 14 15  1  1  0  0  0
 14 16  1  0  0  0  0
 16 27  1  6  0  0  0
 18 19  2  0  0  0  0
 18 23  1  0  0  0  0
 19 20  1  0  0  0  0
 20 21  2  0  0  0  0
 21 22  1  0  0  0  0
 21 27  1  0  0  0  0
 22 23  2  0  0  0  0
 22 25  1  0  0  0  0
 23 24  1  0  0  0  0
 25 26  2  0  0  0  0
 26 27  1  0  0  0  0
M  END
>  <CHROM.1>
155.90146288,-55.75735250,179.02940675,-176.18547588,160.83499126,60.76032957
73.84810015,33.36072226,19.58512981,76.37426221,0.74909555,-0.16240133,-2.09908879

>  <Name>
ligand

>  <RI>
0

>  <Rbt.Current_Directory>
/home/itssahil/PROJECTS/Mol_Feturizer/New_Systems/rnas/2QWY

>  <Rbt.Executable>
rbdock ($Id: //depot/dev/client3/rdock/2013.1/src/exe/rbdock.cxx#4 $)

>  <Rbt.Library>
libRbt.so (2013.1, Build901 2013/11/27)

>  <Rbt.Parameter_File>
/export/apps/rDock/src/rDock_2013.1_src/data/scripts/dock_solv.prm

>  <Rbt.Receptor>
prm/pocket_docking_2.prm

>  <SCORE>
-26.658

>  <SCORE.INTER>
-23.9005

>  <SCORE.INTER.CONST>
1

>  <SCORE.INTER.POLAR>
0

>  <SCORE.INTER.ROT>
7

>  <SCORE.INTER.SOLV>
14.6674

>  <SCORE.INTER.VDW>
-29.0894

>  <SCORE.INTER.norm>
-0.885203

>  <SCORE.INTRA>
-3.62079

>  <SCORE.INTRA.DIHEDRAL>
-6.84245

>  <SCORE.INTRA.DIHEDRAL.0>
10.7382

>  <SCORE.INTRA.POLAR>
0

>  <SCORE.INTRA.POLAR.0>
0

>  <SCORE.INTRA.REPUL>
0

>  <SCORE.INTRA.REPUL.0>
0

>  <SCORE.INTRA.SOLV>
-0.365488

>  <SCORE.INTRA.SOLV.lig_0>
-49.2501

>  <SCORE.INTRA.VDW>
-0.0168192

>  <SCORE.INTRA.VDW.0>
-1.75368

>  <SCORE.INTRA.norm>
-0.134103

>  <SCORE.RESTR>
0.863222

>  <SCORE.RESTR.CAVITY>
0.863222

>  <SCORE.RESTR.norm>
0.0319712

>  <SCORE.SYSTEM>
0

>  <SCORE.SYSTEM.CONST>
0

>  <SCORE.SYSTEM.DIHEDRAL>
0

>  <SCORE.SYSTEM.SOLV>
0

>  <SCORE.SYSTEM.norm>
0

>  <SCORE.heavy>
27

>  <SCORE.norm>
-0.987335

>  <RMSD>
1.827

$$$$
ligand
 OpenBabel11021811463D
libRbt.so/2013.1/901 2013/11/27
 27 29  0  0  0  0  0  0  0  0999 V2000
   37.6813   18.5918   71.0417 N   0  0  0  0  0  0  0  0  0  0  0  0
   37.0474   17.9975   72.2316 C   0  0  2  0  0  0  0  0  0  0  0  0
   36.1668   16.8338   71.8262 C   0  0  0  0  0  0  0  0  0  0  0  0
   35.6438   16.8129   70.7074 O   0  0  0  0  0  0  0  0  0  0  0  0
   36.1872   19.0527   72.9191 C   0  0  0  0  0  0  0  0  0  0  0  0
   35.8038   18.5994   74.3115 C   0  0  0  0  0  0  0  0  0  0  0  0
   34.9546   19.9656   75.1225 S   0  0  2  0  0  0  0  0  0  0  0  0
   36.3949   21.0108   75.4757 C   0  0  0  0  0  0  0  0  0  0  0  0
   34.6534   19.2445   76.7721 C   0  0  0  0  0  0  0  0  0  0  0  0
   34.1238   20.3376   77.6963 C   0  0  1  0  0  0  0  0  0  0  0  0
   32.8325   20.6855   77.2540 O   0  0  0  0  0  0  0  0  0  0  0  0
   33.9580   19.8287   79.1323 C   0  0  1  0  0  0  0  0  0  0  0  0
   35.0474   19.9214   80.0633 O   0  0  0  0  0  0  0  0  0  0  0  0
   32.6216   20.4944   79.6008 C   0  0  1  0  0  0  0  0  0  0  0  0
   32.8381   21.0764   80.8977 O   0  0  0  0  0  0  0  0  0  0  0  0
   32.1782   21.3201   78.3413 C   0  0  2  0  0  0  0  0  0  0  0  0
   36.0330   15.8835   72.5824 O   0  0  0  0  0  0  0  0  0  0  0  0
   28.0401   18.3120   77.3760 N   0  0  0  0  0  0  0  0  0  0  0  0
   29.3122   17.9443   77.5662 C   0  0  0  0  0  0  0  0  0  0  0  0
   30.2705   18.8399   77.7868 N   0  0  0  0  0  0  0  0  0  0  0  0
   29.9955   20.1553   77.8511 C   0  0  0  0  0  0  0  0  0  0  0  0
   28.6576   20.5977   77.6712 C   0  0  0  0  0  0  0  0  0  0  0  0
   27.6643   19.6042   77.4247 C   0  0  0  0  0  0  0  0  0  0  0  0
   26.3385   19.9532   77.2479 N   0  0  0  0  0  0  0  0  0  0  0  0
   28.6613   21.9455   77.7906 N   0  0  0  0  0  0  0  0  0  0  0  0
   29.8753   22.3503   78.0276 C   0  0  0  0  0  0  0  0  0  0  0  0
   30.7364   21.2814   78.0737 N   0  0  0  0  0  0  0  0  0  0  0  0
  2  1  1  6  0  0  0
  2  3  1  0  0  0  0
  2  5  1  0  0  0  0
  3  4  1  0  0  0  0
  3 17  1  0  0  0  0
  5  6  1  0  0  0  0
  7  6  1  6  0  0  0
  7  8  1  0  0  0  0
  7  9  1  0  0  0  0
 10  9  1  6  0  0  0
 10 11  1  0  0  0  0
 10 12  1  0  0  0  0
 11 16  1  0  0  0  0
 12 13  1  1  0  0  0
 12 14  1  0  0  0  0
 14 15  1  1  0  0  0
 14 16  1  0  0  0  0
 16 27  1  6  0  0  0
 18 19  2  0  0  0  0
 18 23  1  0  0  0  0
 19 20  1  0  0  0  0
 20 21  2  0  0  0  0
 21 22  1  0  0  0  0
 21 27  1  0  0  0  0
 22 23  2  0  0  0  0
 22 25  1  0  0  0  0
 23 24  1  0  0  0  0
 25 26  2  0  0  0  0
 26 27  1  0  0  0  0
M  END
>  <CHROM.1>
-28.33251297,-165.78920391,173.67918047,-75.18762139,171.28833041,68.66667937
57.13618431,32.94718723,19.57753140,76.31267698,0.73270089,-0.07617552,-2.04779963

>  <Name>
ligand

>  <RI>
0

>  <Rbt.Current_Directory>
/home/itssahil/PROJECTS/Mol_Feturizer/New_Systems/rnas/2QWY

>  <Rbt.Executable>
rbdock ($Id: //depot/dev/client3/rdock/2013.1/src/exe/rbdock.cxx#4 $)

>  <Rbt.Library>
libRbt.so (2013.1, Build901 2013/11/27)

>  <Rbt.Parameter_File>
/export/apps/rDock/src/rDock_2013.1_src/data/scripts/dock_solv.prm

>  <Rbt.Receptor>
prm/pocket_docking_2.prm

>  <SCORE>
-29.1464

>  <SCORE.INTER>
-26.0512

>  <SCORE.INTER.CONST>
1

>  <SCORE.INTER.POLAR>
0

>  <SCORE.INTER.ROT>
7

>  <SCORE.INTER.SOLV>
14.8366

>  <SCORE.INTER.VDW>
-30.5797

>  <SCORE.INTER.norm>
-0.96486

>  <SCORE.INTRA>
-3.99332

>  <SCORE.INTRA.DIHEDRAL>
-6.06237

>  <SCORE.INTRA.DIHEDRAL.0>
10.7382

>  <SCORE.INTRA.POLAR>
0

>  <SCORE.INTRA.POLAR.0>
0

>  <SCORE.INTRA.REPUL>
0

>  <SCORE.INTRA.REPUL.0>
0

>  <SCORE.INTRA.SOLV>
-1.18517

>  <SCORE.INTRA.SOLV.lig_0>
-49.2501

>  <SCORE.INTRA.VDW>
-0.369549

>  <SCORE.INTRA.VDW.0>
-1.75368

>  <SCORE.INTRA.norm>
-0.147901

>  <SCORE.RESTR>
0.898136

>  <SCORE.RESTR.CAVITY>
0.898136

>  <SCORE.RESTR.norm>
0.0332643

>  <SCORE.SYSTEM>
0

>  <SCORE.SYSTEM.CONST>
0

>  <SCORE.SYSTEM.DIHEDRAL>
0

>  <SCORE.SYSTEM.SOLV>
0

>  <SCORE.SYSTEM.norm>
0

>  <SCORE.heavy>
27

>  <SCORE.norm>
-1.0795

>  <RMSD>
1.847

$$$$
ligand
 OpenBabel11021811463D
libRbt.so/2013.1/901 2013/11/27
 27 29  0  0  0  0  0  0  0  0999 V2000
   37.6531   16.0660   71.6803 N   0  0  0  0  0  0  0  0  0  0  0  0
   36.8626   15.5995   72.8328 C   0  0  2  0  0  0  0  0  0  0  0  0
   36.0611   14.3721   72.4522 C   0  0  0  0  0  0  0  0  0  0  0  0
   35.7415   14.1815   71.2743 O   0  0  0  0  0  0  0  0  0  0  0  0
   35.9020   16.7046   73.2599 C   0  0  0  0  0  0  0  0  0  0  0  0
   36.6692   17.9329   73.7004 C   0  0  0  0  0  0  0  0  0  0  0  0
   35.4877   19.1019   74.3952 S   0  0  2  0  0  0  0  0  0  0  0  0
   36.5057   20.6013   74.3109 C   0  0  0  0  0  0  0  0  0  0  0  0
   35.6246   18.7051   76.1715 C   0  0  0  0  0  0  0  0  0  0  0  0
   34.8327   19.7388   76.9678 C   0  0  1  0  0  0  0  0  0  0  0  0
   33.4648   19.5242   76.7090 O   0  0  0  0  0  0  0  0  0  0  0  0
   35.0146   19.5462   78.4772 C   0  0  1  0  0  0  0  0  0  0  0  0
   36.0861   20.2079   79.1673 O   0  0  0  0  0  0  0  0  0  0  0  0
   33.5843   19.8152   79.0520 C   0  0  1  0  0  0  0  0  0  0  0  0
   33.7079   20.7161   80.1659 O   0  0  0  0  0  0  0  0  0  0  0  0
   32.7416   20.1342   77.7664 C   0  0  2  0  0  0  0  0  0  0  0  0
   35.7929   13.5364   73.3021 O   0  0  0  0  0  0  0  0  0  0  0  0
   27.6264   21.0916   77.6172 N   0  0  0  0  0  0  0  0  0  0  0  0
   28.6391   21.9658   77.6075 C   0  0  0  0  0  0  0  0  0  0  0  0
   29.9057   21.5649   77.6695 N   0  0  0  0  0  0  0  0  0  0  0  0
   30.2229   20.2584   77.7213 C   0  0  0  0  0  0  0  0  0  0  0  0
   29.1852   19.2881   77.7187 C   0  0  0  0  0  0  0  0  0  0  0  0
   27.8414   19.7632   77.6638 C   0  0  0  0  0  0  0  0  0  0  0  0
   26.7763   18.8822   77.6488 N   0  0  0  0  0  0  0  0  0  0  0  0
   29.7740   18.0710   77.7692 N   0  0  0  0  0  0  0  0  0  0  0  0
   31.0664   18.2222   77.7990 C   0  0  0  0  0  0  0  0  0  0  0  0
   31.3935   19.5557   77.7719 N   0  0  0  0  0  0  0  0  0  0  0  0
  2  1  1  6  0  0  0
  2  3  1  0  0  0  0
  2  5  1  0  0  0  0
  3  4  1  0  0  0  0
  3 17  1  0  0  0  0
  5  6  1  0  0  0  0
  7  6  1  6  0  0  0
  7  8  1  0  0  0  0
  7  9  1  0  0  0  0
 10  9  1  6  0  0  0
 10 11  1  0  0  0  0
 10 12  1  0  0  0  0
 11 16  1  0  0  0  0
 12 13  1  1  0  0  0
 12 14  1  0  0  0  0
 14 15  1  1  0  0  0
 14 16  1  0  0  0  0
 16 27  1  1  0  0  0
 18 19  2  0  0  0  0
 18 23  1  0  0  0  0
 19 20  1  0  0  0  0
 20 21  2  0  0  0  0
 21 22  1  0  0  0  0
 21 27  1  0  0  0  0
 22 23  2  0  0  0  0
 22 25  1  0  0  0  0
 23 24  1  0  0  0  0
 25 26  2  0  0  0  0
 26 27  1  0  0  0  0
M  END
>  <CHROM.1>
-25.89968639,-61.96581224,-172.46447388,-162.07545198,171.98650429,69.45142553
-125.92610809,33.34452918,18.69317593,76.12537133,0.76238320,-0.09251122
-2.34478040

>  <Name>
ligand

>  <RI>
0

>  <Rbt.Current_Directory>
/home/itssahil/PROJECTS/Mol_Feturizer/New_Systems/rnas/2QWY

>  <Rbt.Executable>
rbdock ($Id: //depot/dev/client3/rdock/2013.1/src/exe/rbdock.cxx#4 $)

>  <Rbt.Library>
libRbt.so (2013.1, Build901 2013/11/27)

>  <Rbt.Parameter_File>
/export/apps/rDock/src/rDock_2013.1_src/data/scripts/dock_solv.prm

>  <Rbt.Receptor>
prm/pocket_docking_6.prm

>  <SCORE>
-29.405

>  <SCORE.INTER>
-26.2076

>  <SCORE.INTER.CONST>
1

>  <SCORE.INTER.POLAR>
0

>  <SCORE.INTER.ROT>
7

>  <SCORE.INTER.SOLV>
13.5286

>  <SCORE.INTER.VDW>
-30.2479

>  <SCORE.INTER.norm>
-0.970652

>  <SCORE.INTRA>
-3.19739

>  <SCORE.INTRA.DIHEDRAL>
-5.02383

>  <SCORE.INTRA.DIHEDRAL.0>
10.7382

>  <SCORE.INTRA.POLAR>
0

>  <SCORE.INTRA.POLAR.0>
0

>  <SCORE.INTRA.REPUL>
0

>  <SCORE.INTRA.REPUL.0>
0

>  <SCORE.INTRA.SOLV>
-0.549808

>  <SCORE.INTRA.SOLV.lig_0>
-49.2501

>  <SCORE.INTRA.VDW>
-0.410571

>  <SCORE.INTRA.VDW.0>
-1.75368

>  <SCORE.INTRA.norm>
-0.118422

>  <SCORE.RESTR>
0

>  <SCORE.RESTR.CAVITY>
0

>  <SCORE.RESTR.norm>
0

>  <SCORE.SYSTEM>
0

>  <SCORE.SYSTEM.CONST>
0

>  <SCORE.SYSTEM.DIHEDRAL>
0

>  <SCORE.SYSTEM.SOLV>
0

>  <SCORE.SYSTEM.norm>
0

>  <SCORE.heavy>
27

>  <SCORE.norm>
-1.08907

>  <RMSD>
1.847

$$$$
ligand
 OpenBabel11021811463D
libRbt.so/2013.1/901 2013/11/27
 27 29  0  0  0  0  0  0  0  0999 V2000
   37.6849   18.5880   71.0368 N   0  0  0  0  0  0  0  0  0  0  0  0
   37.0594   18.0021   72.2353 C   0  0  2  0  0  0  0  0  0  0  0  0
   36.1629   16.8462   71.8428 C   0  0  0  0  0  0  0  0  0  0  0  0
   35.6255   16.8289   70.7307 O   0  0  0  0  0  0  0  0  0  0  0  0
   36.2176   19.0670   72.9307 C   0  0  0  0  0  0  0  0  0  0  0  0
   35.8153   18.6045   74.3147 C   0  0  0  0  0  0  0  0  0  0  0  0
   34.9420   19.9603   75.1176 S   0  0  2  0  0  0  0  0  0  0  0  0
   36.3622   21.0374   75.4556 C   0  0  0  0  0  0  0  0  0  0  0  0
   34.6620   19.2476   76.7745 C   0  0  0  0  0  0  0  0  0  0  0  0
   34.1278   20.3413   77.6953 C   0  0  1  0  0  0  0  0  0  0  0  0
   32.8411   20.6930   77.2428 O   0  0  0  0  0  0  0  0  0  0  0  0
   33.9488   19.8316   79.1294 C   0  0  1  0  0  0  0  0  0  0  0  0
   35.0308   19.9206   80.0694 O   0  0  0  0  0  0  0  0  0  0  0  0
   32.6104   20.5004   79.5875 C   0  0  1  0  0  0  0  0  0  0  0  0
   32.8178   21.0807   80.8867 O   0  0  0  0  0  0  0  0  0  0  0  0
   32.1795   21.3284   78.3252 C   0  0  2  0  0  0  0  0  0  0  0  0
   36.0299   15.8981   72.6018 O   0  0  0  0  0  0  0  0  0  0  0  0
   28.0339   18.3297   77.3633 N   0  0  0  0  0  0  0  0  0  0  0  0
   29.3024   17.9578   77.5690 C   0  0  0  0  0  0  0  0  0  0  0  0
   30.2635   18.8511   77.7863 N   0  0  0  0  0  0  0  0  0  0  0  0
   29.9949   20.1687   77.8313 C   0  0  0  0  0  0  0  0  0  0  0  0
   28.6609   20.6157   77.6343 C   0  0  0  0  0  0  0  0  0  0  0  0
   27.6645   19.6243   77.3921 C   0  0  0  0  0  0  0  0  0  0  0  0
   26.3421   19.9779   77.1994 N   0  0  0  0  0  0  0  0  0  0  0  0
   28.6708   21.9649   77.7364 N   0  0  0  0  0  0  0  0  0  0  0  0
   29.8849   22.3664   77.9786 C   0  0  0  0  0  0  0  0  0  0  0  0
   30.7398   21.2938   78.0458 N   0  0  0  0  0  0  0  0  0  0  0  0
  2  1  1  6  0  0  0
  2  3  1  0  0  0  0
  2  5  1  0  0  0  0
  3  4  1  0  0  0  0
  3 17  1  0  0  0  0
  5  6  1  0  0  0  0
  7  6  1  6  0  0  0
  7  8  1  0  0  0  0
  7  9  1  0  0  0  0
 10  9  1  6  0  0  0
 10 11  1  0  0  0  0
 10 12  1  0  0  0  0
 11 16  1  0  0  0  0
 12 13  1  1  0  0  0
 12 14  1  0  0  0  0
 14 15  1  1  0  0  0
 14 16  1  0  0  0  0
 16 27  1  6  0  0  0
 18 19  2  0  0  0  0
 18 23  1  0  0  0  0
 19 20  1  0  0  0  0
 20 21  2  0  0  0  0
 21 22  1  0  0  0  0
 21 27  1  0  0  0  0
 22 23  2  0  0  0  0
 22 25  1  0  0  0  0
 23 24  1  0  0  0  0
 25 26  2  0  0  0  0
 26 27  1  0  0  0  0
M  END
>  <CHROM.1>
-28.40474495,-167.30336491,175.53539870,-73.63465786,170.71294810,67.36489363
57.93977206,32.94477377,19.58729349,76.30323319,0.73034198,-0.07163712,-2.04551504

>  <Name>
ligand

>  <RI>
0

>  <Rbt.Current_Directory>
/home/itssahil/PROJECTS/Mol_Feturizer/New_Systems/rnas/2QWY

>  <Rbt.Executable>
rbdock ($Id: //depot/dev/client3/rdock/2013.1/src/exe/rbdock.cxx#4 $)

>  <Rbt.Library>
libRbt.so (2013.1, Build901 2013/11/27)

>  <Rbt.Parameter_File>
/export/apps/rDock/src/rDock_2013.1_src/data/scripts/dock_solv.prm

>  <Rbt.Receptor>
prm/pocket_docking_2.prm

>  <SCORE>
-29.183

>  <SCORE.INTER>
-25.9759

>  <SCORE.INTER.CONST>
1

>  <SCORE.INTER.POLAR>
0

>  <SCORE.INTER.ROT>
7

>  <SCORE.INTER.SOLV>
14.7873

>  <SCORE.INTER.VDW>
-30.513

>  <SCORE.INTER.norm>
-0.962071

>  <SCORE.INTRA>
-4.11274

>  <SCORE.INTRA.DIHEDRAL>
-6.41257

>  <SCORE.INTRA.DIHEDRAL.0>
10.7382

>  <SCORE.INTRA.POLAR>
0

>  <SCORE.INTRA.POLAR.0>
0

>  <SCORE.INTRA.REPUL>
0

>  <SCORE.INTRA.REPUL.0>
0

>  <SCORE.INTRA.SOLV>
-1.18475

>  <SCORE.INTRA.SOLV.lig_0>
-49.2501

>  <SCORE.INTRA.VDW>
-0.314084

>  <SCORE.INTRA.VDW.0>
-1.75368

>  <SCORE.INTRA.norm>
-0.152324

>  <SCORE.RESTR>
0.905649

>  <SCORE.RESTR.CAVITY>
0.905649

>  <SCORE.RESTR.norm>
0.0335426

>  <SCORE.SYSTEM>
0

>  <SCORE.SYSTEM.CONST>
0

>  <SCORE.SYSTEM.DIHEDRAL>
0

>  <SCORE.SYSTEM.SOLV>
0

>  <SCORE.SYSTEM.norm>
0

>  <SCORE.heavy>
27

>  <SCORE.norm>
-1.08085

>  <RMSD>
1.849

$$$$
ligand
 OpenBabel11021811463D
libRbt.so/2013.1/901 2013/11/27
 27 29  0  0  0  0  0  0  0  0999 V2000
   38.1759   18.0045   72.4998 N   0  0  0  0  0  0  0  0  0  0  0  0
   36.7702   17.8425   72.0896 C   0  0  2  0  0  0  0  0  0  0  0  0
   36.6392   18.0319   70.5926 C   0  0  0  0  0  0  0  0  0  0  0  0
   36.0471   17.1888   69.9110 O   0  0  0  0  0  0  0  0  0  0  0  0
   35.9191   18.8919   72.7973 C   0  0  0  0  0  0  0  0  0  0  0  0
   35.7608   18.5461   74.2624 C   0  0  0  0  0  0  0  0  0  0  0  0
   34.8327   19.8763   75.0464 S   0  0  2  0  0  0  0  0  0  0  0  0
   36.1967   21.0439   75.3067 C   0  0  0  0  0  0  0  0  0  0  0  0
   34.6411   19.2059   76.7332 C   0  0  0  0  0  0  0  0  0  0  0  0
   34.1045   20.3088   77.6417 C   0  0  1  0  0  0  0  0  0  0  0  0
   32.8145   20.6481   77.1892 O   0  0  0  0  0  0  0  0  0  0  0  0
   33.9332   19.8169   79.0829 C   0  0  1  0  0  0  0  0  0  0  0  0
   35.0180   19.9236   80.0178 O   0  0  0  0  0  0  0  0  0  0  0  0
   32.5931   20.4849   79.5371 C   0  0  1  0  0  0  0  0  0  0  0  0
   32.8021   21.0831   80.8279 O   0  0  0  0  0  0  0  0  0  0  0  0
   32.1535   21.2942   78.2656 C   0  0  2  0  0  0  0  0  0  0  0  0
   37.0589   19.0546   70.0725 O   0  0  0  0  0  0  0  0  0  0  0  0
   28.0112   18.2609   77.4032 N   0  0  0  0  0  0  0  0  0  0  0  0
   29.2811   17.8976   77.6155 C   0  0  0  0  0  0  0  0  0  0  0  0
   30.2410   18.7987   77.8041 N   0  0  0  0  0  0  0  0  0  0  0  0
   29.9698   20.1165   77.8121 C   0  0  0  0  0  0  0  0  0  0  0  0
   28.6343   20.5550   77.6066 C   0  0  0  0  0  0  0  0  0  0  0  0
   27.6392   19.5550   77.3961 C   0  0  0  0  0  0  0  0  0  0  0  0
   26.3155   19.9003   77.1975 N   0  0  0  0  0  0  0  0  0  0  0  0
   28.6417   21.9065   77.6699 N   0  0  0  0  0  0  0  0  0  0  0  0
   29.8557   22.3173   77.8966 C   0  0  0  0  0  0  0  0  0  0  0  0
   30.7131   21.2487   77.9919 N   0  0  0  0  0  0  0  0  0  0  0  0
  2  1  1  1  0  0  0
  2  3  1  0  0  0  0
  2  5  1  0  0  0  0
  3  4  1  0  0  0  0
  3 17  1  0  0  0  0
  5  6  1  0  0  0  0
  7  6  1  6  0  0  0
  7  8  1  0  0  0  0
  7  9  1  0  0  0  0
 10  9  1  6  0  0  0
 10 11  1  0  0  0  0
 10 12  1  0  0  0  0
 11 16  1  0  0  0  0
 12 13  1  1  0  0  0
 12 14  1  0  0  0  0
 14 15  1  1  0  0  0
 14 16  1  0  0  0  0
 16 27  1  6  0  0  0
 18 19  2  0  0  0  0
 18 23  1  0  0  0  0
 19 20  1  0  0  0  0
 20 21  2  0  0  0  0
 21 22  1  0  0  0  0
 21 27  1  0  0  0  0
 22 23  2  0  0  0  0
 22 25  1  0  0  0  0
 23 24  1  0  0  0  0
 25 26  2  0  0  0  0
 26 27  1  0  0  0  0
M  END
>  <CHROM.1>
129.20636958,-72.95933141,176.65185737,-81.88615480,169.23977026,64.57354077
58.85456514,32.98457946,19.70044473,76.13693660,-0.74732204,0.04722774,1.23931156

>  <Name>
ligand

>  <RI>
0

>  <Rbt.Current_Directory>
/home/itssahil/PROJECTS/Mol_Feturizer/New_Systems/rnas/2QWY

>  <Rbt.Executable>
rbdock ($Id: //depot/dev/client3/rdock/2013.1/src/exe/rbdock.cxx#4 $)

>  <Rbt.Library>
libRbt.so (2013.1, Build901 2013/11/27)

>  <Rbt.Parameter_File>
/export/apps/rDock/src/rDock_2013.1_src/data/scripts/dock_solv.prm

>  <Rbt.Receptor>
prm/pocket_docking_2.prm

>  <SCORE>
-28.819

>  <SCORE.INTER>
-25.7716

>  <SCORE.INTER.CONST>
1

>  <SCORE.INTER.POLAR>
0

>  <SCORE.INTER.ROT>
7

>  <SCORE.INTER.SOLV>
13.1838

>  <SCORE.INTER.VDW>
-29.8423

>  <SCORE.INTER.norm>
-0.954502

>  <SCORE.INTRA>
-3.92177

>  <SCORE.INTRA.DIHEDRAL>
-6.3106

>  <SCORE.INTRA.DIHEDRAL.0>
10.7382

>  <SCORE.INTRA.POLAR>
0

>  <SCORE.INTRA.POLAR.0>
0

>  <SCORE.INTRA.REPUL>
0

>  <SCORE.INTRA.REPUL.0>
0

>  <SCORE.INTRA.SOLV>
-0.462849

>  <SCORE.INTRA.SOLV.lig_0>
-49.2501

>  <SCORE.INTRA.VDW>
-0.535045

>  <SCORE.INTRA.VDW.0>
-1.75368

>  <SCORE.INTRA.norm>
-0.145251

>  <SCORE.RESTR>
0.874299

>  <SCORE.RESTR.CAVITY>
0.874299

>  <SCORE.RESTR.norm>
0.0323815

>  <SCORE.SYSTEM>
0

>  <SCORE.SYSTEM.CONST>
0

>  <SCORE.SYSTEM.DIHEDRAL>
0

>  <SCORE.SYSTEM.SOLV>
0

>  <SCORE.SYSTEM.norm>
0

>  <SCORE.heavy>
27

>  <SCORE.norm>
-1.06737

>  <RMSD>
1.851

$$$$
ligand
 OpenBabel11021811463D
libRbt.so/2013.1/901 2013/11/27
 27 29  0  0  0  0  0  0  0  0999 V2000
   37.5674   18.5805   70.9590 N   0  0  0  0  0  0  0  0  0  0  0  0
   36.9802   17.9833   72.1711 C   0  0  2  0  0  0  0  0  0  0  0  0
   36.1210   16.7921   71.8013 C   0  0  0  0  0  0  0  0  0  0  0  0
   35.6140   16.7191   70.6773 O   0  0  0  0  0  0  0  0  0  0  0  0
   36.1098   19.0234   72.8691 C   0  0  0  0  0  0  0  0  0  0  0  0
   35.7669   18.5720   74.2727 C   0  0  0  0  0  0  0  0  0  0  0  0
   34.8721   19.9110   75.0799 S   0  0  2  0  0  0  0  0  0  0  0  0
   36.2661   21.0361   75.3674 C   0  0  0  0  0  0  0  0  0  0  0  0
   34.6564   19.2129   76.7526 C   0  0  0  0  0  0  0  0  0  0  0  0
   34.1255   20.3061   77.6759 C   0  0  1  0  0  0  0  0  0  0  0  0
   32.8383   20.6601   77.2265 O   0  0  0  0  0  0  0  0  0  0  0  0
   33.9489   19.7949   79.1098 C   0  0  1  0  0  0  0  0  0  0  0  0
   35.0330   19.8813   80.0476 O   0  0  0  0  0  0  0  0  0  0  0  0
   32.6124   20.4648   79.5716 C   0  0  1  0  0  0  0  0  0  0  0  0
   32.8232   21.0431   80.8710 O   0  0  0  0  0  0  0  0  0  0  0  0
   32.1798   21.2949   78.3112 C   0  0  2  0  0  0  0  0  0  0  0  0
   35.9895   15.8712   72.5933 O   0  0  0  0  0  0  0  0  0  0  0  0
   28.0246   18.3016   77.3741 N   0  0  0  0  0  0  0  0  0  0  0  0
   29.2925   17.9276   77.5795 C   0  0  0  0  0  0  0  0  0  0  0  0
   30.2563   18.8197   77.7899 N   0  0  0  0  0  0  0  0  0  0  0  0
   29.9913   20.1381   77.8280 C   0  0  0  0  0  0  0  0  0  0  0  0
   28.6581   20.5875   77.6312 C   0  0  0  0  0  0  0  0  0  0  0  0
   27.6586   19.5973   77.3964 C   0  0  0  0  0  0  0  0  0  0  0  0
   26.3368   19.9533   77.2043 N   0  0  0  0  0  0  0  0  0  0  0  0
   28.6716   21.9372   77.7257 N   0  0  0  0  0  0  0  0  0  0  0  0
   29.8872   22.3369   77.9632 C   0  0  0  0  0  0  0  0  0  0  0  0
   30.7395   21.2625   78.0348 N   0  0  0  0  0  0  0  0  0  0  0  0
  2  1  1  6  0  0  0
  2  3  1  0  0  0  0
  2  5  1  0  0  0  0
  3  4  1  0  0  0  0
  3 17  1  0  0  0  0
  5  6  1  0  0  0  0
  7  6  1  6  0  0  0
  7  8  1  0  0  0  0
  7  9  1  0  0  0  0
 10  9  1  6  0  0  0
 10 11  1  0  0  0  0
 10 12  1  0  0  0  0
 11 16  1  0  0  0  0
 12 13  1  1  0  0  0
 12 14  1  0  0  0  0
 14 15  1  1  0  0  0
 14 16  1  0  0  0  0
 16 27  1  6  0  0  0
 18 19  2  0  0  0  0
 18 23  1  0  0  0  0
 19 20  1  0  0  0  0
 20 21  2  0  0  0  0
 21 22  1  0  0  0  0
 21 27  1  0  0  0  0
 22 23  2  0  0  0  0
 22 25  1  0  0  0  0
 23 24  1  0  0  0  0
 25 26  2  0  0  0  0
 26 27  1  0  0  0  0
M  END
>  <CHROM.1>
-25.43774400,-166.15693505,174.85791789,-74.08366969,170.12481888,65.18322380
58.34041542,32.91806308,19.55223263,76.27868291,0.74144452,-0.07195914,-2.04336838

>  <Name>
ligand

>  <RI>
0

>  <Rbt.Current_Directory>
/home/itssahil/PROJECTS/Mol_Feturizer/New_Systems/rnas/2QWY

>  <Rbt.Executable>
rbdock ($Id: //depot/dev/client3/rdock/2013.1/src/exe/rbdock.cxx#4 $)

>  <Rbt.Library>
libRbt.so (2013.1, Build901 2013/11/27)

>  <Rbt.Parameter_File>
/export/apps/rDock/src/rDock_2013.1_src/data/scripts/dock_solv.prm

>  <Rbt.Receptor>
prm/pocket_docking_2.prm

>  <SCORE>
-29.0787

>  <SCORE.INTER>
-25.8757

>  <SCORE.INTER.CONST>
1

>  <SCORE.INTER.POLAR>
0

>  <SCORE.INTER.ROT>
7

>  <SCORE.INTER.SOLV>
15.0218

>  <SCORE.INTER.VDW>
-30.5244

>  <SCORE.INTER.norm>
-0.958361

>  <SCORE.INTRA>
-4.07003

>  <SCORE.INTRA.DIHEDRAL>
-6.36064

>  <SCORE.INTRA.DIHEDRAL.0>
10.7382

>  <SCORE.INTRA.POLAR>
0

>  <SCORE.INTRA.POLAR.0>
0

>  <SCORE.INTRA.REPUL>
0

>  <SCORE.INTRA.REPUL.0>
0

>  <SCORE.INTRA.SOLV>
-1.17584

>  <SCORE.INTRA.SOLV.lig_0>
-49.2501

>  <SCORE.INTRA.VDW>
-0.301786

>  <SCORE.INTRA.VDW.0>
-1.75368

>  <SCORE.INTRA.norm>
-0.150742

>  <SCORE.RESTR>
0.86706

>  <SCORE.RESTR.CAVITY>
0.86706

>  <SCORE.RESTR.norm>
0.0321133

>  <SCORE.SYSTEM>
0

>  <SCORE.SYSTEM.CONST>
0

>  <SCORE.SYSTEM.DIHEDRAL>
0

>  <SCORE.SYSTEM.SOLV>
0

>  <SCORE.SYSTEM.norm>
0

>  <SCORE.heavy>
27

>  <SCORE.norm>
-1.07699

>  <RMSD>
1.853

$$$$
ligand
 OpenBabel11021811463D
libRbt.so/2013.1/901 2013/11/27
 27 29  0  0  0  0  0  0  0  0999 V2000
   37.3332   17.7689   71.9733 N   0  0  0  0  0  0  0  0  0  0  0  0
   38.0485   19.0360   72.2046 C   0  0  2  0  0  0  0  0  0  0  0  0
   39.5419   18.7893   72.2561 C   0  0  0  0  0  0  0  0  0  0  0  0
   39.9760   17.6852   72.6003 O   0  0  0  0  0  0  0  0  0  0  0  0
   37.5986   19.6277   73.5365 C   0  0  0  0  0  0  0  0  0  0  0  0
   37.9157   18.6786   74.6723 C   0  0  0  0  0  0  0  0  0  0  0  0
   37.3045   19.4187   76.1968 S   0  0  2  0  0  0  0  0  0  0  0  0
   37.8516   18.1384   77.3600 C   0  0  0  0  0  0  0  0  0  0  0  0
   35.5270   19.0219   76.0759 C   0  0  0  0  0  0  0  0  0  0  0  0
   34.7571   19.9189   77.0415 C   0  0  1  0  0  0  0  0  0  0  0  0
   33.3824   19.7300   76.7995 O   0  0  0  0  0  0  0  0  0  0  0  0
   34.9919   19.5087   78.4992 C   0  0  1  0  0  0  0  0  0  0  0  0
   36.0827   20.0732   79.2432 O   0  0  0  0  0  0  0  0  0  0  0  0
   33.5807   19.6750   79.1544 C   0  0  1  0  0  0  0  0  0  0  0  0
   33.7375   20.4038   80.3841 O   0  0  0  0  0  0  0  0  0  0  0  0
   32.6925   20.1703   77.9585 C   0  0  2  0  0  0  0  0  0  0  0  0
   40.3130   19.6628   71.8886 O   0  0  0  0  0  0  0  0  0  0  0  0
   27.5835   21.0868   77.5555 N   0  0  0  0  0  0  0  0  0  0  0  0
   28.5907   21.9673   77.5621 C   0  0  0  0  0  0  0  0  0  0  0  0
   29.8557   21.5774   77.6921 N   0  0  0  0  0  0  0  0  0  0  0  0
   30.1775   20.2755   77.7995 C   0  0  0  0  0  0  0  0  0  0  0  0
   29.1464   19.2984   77.7825 C   0  0  0  0  0  0  0  0  0  0  0  0
   27.8037   19.7621   77.6538 C   0  0  0  0  0  0  0  0  0  0  0  0
   26.7452   18.8736   77.6204 N   0  0  0  0  0  0  0  0  0  0  0  0
   29.7392   18.0876   77.8975 N   0  0  0  0  0  0  0  0  0  0  0  0
   31.0281   18.2487   77.9789 C   0  0  0  0  0  0  0  0  0  0  0  0
   31.3487   19.5829   77.9236 N   0  0  0  0  0  0  0  0  0  0  0  0
  2  1  1  1  0  0  0
  2  3  1  0  0  0  0
  2  5  1  0  0  0  0
  3  4  1  0  0  0  0
  3 17  1  0  0  0  0
  5  6  1  0  0  0  0
  7  6  1  6  0  0  0
  7  8  1  0  0  0  0
  7  9  1  0  0  0  0
 10  9  1  6  0  0  0
 10 11  1  0  0  0  0
 10 12  1  0  0  0  0
 11 16  1  0  0  0  0
 12 13  1  1  0  0  0
 12 14  1  0  0  0  0
 14 15  1  1  0  0  0
 14 16  1  0  0  0  0
 16 27  1  1  0  0  0
 18 19  2  0  0  0  0
 18 23  1  0  0  0  0
 19 20  1  0  0  0  0
 20 21  2  0  0  0  0
 21 22  1  0  0  0  0
 21 27  1  0  0  0  0
 22 23  2  0  0  0  0
 22 25  1  0  0  0  0
 23 24  1  0  0  0  0
 25 26  2  0  0  0  0
 26 27  1  0  0  0  0
M  END
>  <CHROM.1>
-26.51995969,60.60294849,-178.02378133,-178.21008054,-162.69247001,171.95059030
-114.72427523,34.12072442,19.46846857,76.45672881,0.45250786,0.06135536,-1.70719168

>  <Name>
ligand

>  <RI>
0

>  <Rbt.Current_Directory>
/home/itssahil/PROJECTS/Mol_Feturizer/New_Systems/rnas/2QWY

>  <Rbt.Executable>
rbdock ($Id: //depot/dev/client3/rdock/2013.1/src/exe/rbdock.cxx#4 $)

>  <Rbt.Library>
libRbt.so (2013.1, Build901 2013/11/27)

>  <Rbt.Parameter_File>
/export/apps/rDock/src/rDock_2013.1_src/data/scripts/dock_solv.prm

>  <Rbt.Receptor>
prm/pocket_docking_5.prm

>  <SCORE>
-24.2016

>  <SCORE.INTER>
-21.6074

>  <SCORE.INTER.CONST>
1

>  <SCORE.INTER.POLAR>
0

>  <SCORE.INTER.ROT>
7

>  <SCORE.INTER.SOLV>
13.97

>  <SCORE.INTER.VDW>
-27.3283

>  <SCORE.INTER.norm>
-0.800276

>  <SCORE.INTRA>
-2.59418

>  <SCORE.INTRA.DIHEDRAL>
-5.07609

>  <SCORE.INTRA.DIHEDRAL.0>
10.7382

>  <SCORE.INTRA.POLAR>
0

>  <SCORE.INTRA.POLAR.0>
0

>  <SCORE.INTRA.REPUL>
0

>  <SCORE.INTRA.REPUL.0>
0

>  <SCORE.INTRA.SOLV>
-0.160707

>  <SCORE.INTRA.SOLV.lig_0>
-49.2501

>  <SCORE.INTRA.VDW>
0.0242178

>  <SCORE.INTRA.VDW.0>
-1.75368

>  <SCORE.INTRA.norm>
-0.0960808

>  <SCORE.RESTR>
0

>  <SCORE.RESTR.CAVITY>
0

>  <SCORE.RESTR.norm>
0

>  <SCORE.SYSTEM>
0

>  <SCORE.SYSTEM.CONST>
0

>  <SCORE.SYSTEM.DIHEDRAL>
0

>  <SCORE.SYSTEM.SOLV>
0

>  <SCORE.SYSTEM.norm>
0

>  <SCORE.heavy>
27

>  <SCORE.norm>
-0.896357

>  <RMSD>
1.863

$$$$
ligand
 OpenBabel11021811463D
libRbt.so/2013.1/901 2013/11/27
 27 29  0  0  0  0  0  0  0  0999 V2000
   37.6203   18.5594   70.9413 N   0  0  0  0  0  0  0  0  0  0  0  0
   37.0152   17.9849   72.1556 C   0  0  2  0  0  0  0  0  0  0  0  0
   36.1067   16.8300   71.7887 C   0  0  0  0  0  0  0  0  0  0  0  0
   35.5820   16.7853   70.6713 O   0  0  0  0  0  0  0  0  0  0  0  0
   36.1912   19.0584   72.8591 C   0  0  0  0  0  0  0  0  0  0  0  0
   35.7961   18.5993   74.2464 C   0  0  0  0  0  0  0  0  0  0  0  0
   34.8979   19.9452   75.0382 S   0  0  2  0  0  0  0  0  0  0  0  0
   36.3036   21.0313   75.4071 C   0  0  0  0  0  0  0  0  0  0  0  0
   34.5924   19.2236   76.6867 C   0  0  0  0  0  0  0  0  0  0  0  0
   34.0843   20.3219   77.6168 C   0  0  1  0  0  0  0  0  0  0  0  0
   32.7919   20.6832   77.1888 O   0  0  0  0  0  0  0  0  0  0  0  0
   33.9291   19.8146   79.0545 C   0  0  1  0  0  0  0  0  0  0  0  0
   35.0296   19.8959   79.9734 O   0  0  0  0  0  0  0  0  0  0  0  0
   32.6050   20.4939   79.5377 C   0  0  1  0  0  0  0  0  0  0  0  0
   32.8417   21.0734   80.8322 O   0  0  0  0  0  0  0  0  0  0  0  0
   32.1562   21.3244   78.2833 C   0  0  2  0  0  0  0  0  0  0  0  0
   35.9512   15.9082   72.5753 O   0  0  0  0  0  0  0  0  0  0  0  0
   27.9808   18.3609   77.3410 N   0  0  0  0  0  0  0  0  0  0  0  0
   29.2516   17.9803   77.5139 C   0  0  0  0  0  0  0  0  0  0  0  0
   30.2203   18.8656   77.7308 N   0  0  0  0  0  0  0  0  0  0  0  0
   29.9578   20.1829   77.8085 C   0  0  0  0  0  0  0  0  0  0  0  0
   28.6220   20.6386   77.6473 C   0  0  0  0  0  0  0  0  0  0  0  0
   27.6171   19.6559   77.4041 C   0  0  0  0  0  0  0  0  0  0  0  0
   26.2926   20.0180   77.2450 N   0  0  0  0  0  0  0  0  0  0  0  0
   28.6391   21.9852   77.7772 N   0  0  0  0  0  0  0  0  0  0  0  0
   29.8592   22.3774   78.0037 C   0  0  0  0  0  0  0  0  0  0  0  0
   30.7112   21.3006   78.0317 N   0  0  0  0  0  0  0  0  0  0  0  0
  2  1  1  6  0  0  0
  2  3  1  0  0  0  0
  2  5  1  0  0  0  0
  3  4  1  0  0  0  0
  3 17  1  0  0  0  0
  5  6  1  0  0  0  0
  7  6  1  6  0  0  0
  7  8  1  0  0  0  0
  7  9  1  0  0  0  0
 10  9  1  6  0  0  0
 10 11  1  0  0  0  0
 10 12  1  0  0  0  0
 11 16  1  0  0  0  0
 12 13  1  1  0  0  0
 12 14  1  0  0  0  0
 14 15  1  1  0  0  0
 14 16  1  0  0  0  0
 16 27  1  6  0  0  0
 18 19  2  0  0  0  0
 18 23  1  0  0  0  0
 19 20  1  0  0  0  0
 20 21  2  0  0  0  0
 21 22  1  0  0  0  0
 21 27  1  0  0  0  0
 22 23  2  0  0  0  0
 22 25  1  0  0  0  0
 23 24  1  0  0  0  0
 25 26  2  0  0  0  0
 26 27  1  0  0  0  0
M  END
>  <CHROM.1>
-26.08854173,-168.13257106,177.33627427,-75.00627597,168.53379931,69.19956344
56.68138753,32.90653790,19.58491920,76.25778930,0.73507056,-0.07220858,-2.04736817

>  <Name>
ligand

>  <RI>
0

>  <Rbt.Current_Directory>
/home/itssahil/PROJECTS/Mol_Feturizer/New_Systems/rnas/2QWY

>  <Rbt.Executable>
rbdock ($Id: //depot/dev/client3/rdock/2013.1/src/exe/rbdock.cxx#4 $)

>  <Rbt.Library>
libRbt.so (2013.1, Build901 2013/11/27)

>  <Rbt.Parameter_File>
/export/apps/rDock/src/rDock_2013.1_src/data/scripts/dock_solv.prm

>  <Rbt.Receptor>
prm/pocket_docking_2.prm

>  <SCORE>
-29.166

>  <SCORE.INTER>
-26.0171

>  <SCORE.INTER.CONST>
1

>  <SCORE.INTER.POLAR>
0

>  <SCORE.INTER.ROT>
7

>  <SCORE.INTER.SOLV>
14.9431

>  <SCORE.INTER.VDW>
-30.5925

>  <SCORE.INTER.norm>
-0.963598

>  <SCORE.INTRA>
-4.04001

>  <SCORE.INTRA.DIHEDRAL>
-6.37855

>  <SCORE.INTRA.DIHEDRAL.0>
10.7382

>  <SCORE.INTRA.POLAR>
0

>  <SCORE.INTRA.POLAR.0>
0

>  <SCORE.INTRA.REPUL>
0

>  <SCORE.INTRA.REPUL.0>
0

>  <SCORE.INTRA.SOLV>
-1.18728

>  <SCORE.INTRA.SOLV.lig_0>
-49.2501

>  <SCORE.INTRA.VDW>
-0.257093

>  <SCORE.INTRA.VDW.0>
-1.75368

>  <SCORE.INTRA.norm>
-0.14963

>  <SCORE.RESTR>
0.891161

>  <SCORE.RESTR.CAVITY>
0.891161

>  <SCORE.RESTR.norm>
0.0330059

>  <SCORE.SYSTEM>
0

>  <SCORE.SYSTEM.CONST>
0

>  <SCORE.SYSTEM.DIHEDRAL>
0

>  <SCORE.SYSTEM.SOLV>
0

>  <SCORE.SYSTEM.norm>
0

>  <SCORE.heavy>
27

>  <SCORE.norm>
-1.08022

>  <RMSD>
1.864

$$$$
ligand
 OpenBabel11021811463D
libRbt.so/2013.1/901 2013/11/27
 27 29  0  0  0  0  0  0  0  0999 V2000
   37.5843   18.3892   71.0333 N   0  0  0  0  0  0  0  0  0  0  0  0
   37.0197   17.8376   72.2773 C   0  0  2  0  0  0  0  0  0  0  0  0
   36.1365   16.6473   71.9657 C   0  0  0  0  0  0  0  0  0  0  0  0
   35.8079   15.8673   72.8654 O   0  0  0  0  0  0  0  0  0  0  0  0
   36.1803   18.9102   72.9637 C   0  0  0  0  0  0  0  0  0  0  0  0
   35.8533   18.4996   74.3835 C   0  0  0  0  0  0  0  0  0  0  0  0
   34.9200   19.8395   75.1444 S   0  0  2  0  0  0  0  0  0  0  0  0
   36.2804   21.0145   75.3896 C   0  0  0  0  0  0  0  0  0  0  0  0
   34.7260   19.1950   76.8411 C   0  0  0  0  0  0  0  0  0  0  0  0
   34.2342   20.3246   77.7420 C   0  0  1  0  0  0  0  0  0  0  0  0
   32.9525   20.7023   77.2961 O   0  0  0  0  0  0  0  0  0  0  0  0
   34.0584   19.8537   79.1897 C   0  0  1  0  0  0  0  0  0  0  0  0
   35.1538   19.9336   80.1148 O   0  0  0  0  0  0  0  0  0  0  0  0
   32.7452   20.5709   79.6473 C   0  0  1  0  0  0  0  0  0  0  0  0
   32.9847   21.1751   80.9300 O   0  0  0  0  0  0  0  0  0  0  0  0
   32.3224   21.3813   78.3708 C   0  0  2  0  0  0  0  0  0  0  0  0
   35.6930   16.5014   70.8367 O   0  0  0  0  0  0  0  0  0  0  0  0
   28.1070   18.4873   77.3917 N   0  0  0  0  0  0  0  0  0  0  0  0
   29.3703   18.0860   77.5726 C   0  0  0  0  0  0  0  0  0  0  0  0
   30.3514   18.9552   77.7985 N   0  0  0  0  0  0  0  0  0  0  0  0
   30.1095   20.2763   77.8777 C   0  0  0  0  0  0  0  0  0  0  0  0
   28.7823   20.7537   77.7081 C   0  0  0  0  0  0  0  0  0  0  0  0
   27.7636   19.7878   77.4555 C   0  0  0  0  0  0  0  0  0  0  0  0
   26.4462   20.1715   77.2879 N   0  0  0  0  0  0  0  0  0  0  0  0
   28.8200   22.0996   77.8416 N   0  0  0  0  0  0  0  0  0  0  0  0
   30.0446   22.4716   78.0777 C   0  0  0  0  0  0  0  0  0  0  0  0
   30.8790   21.3813   78.1090 N   0  0  0  0  0  0  0  0  0  0  0  0
  2  1  1  6  0  0  0
  2  3  1  0  0  0  0
  2  5  1  0  0  0  0
  3  4  1  0  0  0  0
  3 17  1  0  0  0  0
  5  6  1  0  0  0  0
  7  6  1  6  0  0  0
  7  8  1  0  0  0  0
  7  9  1  0  0  0  0
 10  9  1  6  0  0  0
 10 11  1  0  0  0  0
 10 12  1  0  0  0  0
 11 16  1  0  0  0  0
 12 13  1  1  0  0  0
 12 14  1  0  0  0  0
 14 15  1  1  0  0  0
 14 16  1  0  0  0  0
 16 27  1  6  0  0  0
 18 19  2  0  0  0  0
 18 23  1  0  0  0  0
 19 20  1  0  0  0  0
 20 21  2  0  0  0  0
 21 22  1  0  0  0  0
 21 27  1  0  0  0  0
 22 23  2  0  0  0  0
 22 25  1  0  0  0  0
 23 24  1  0  0  0  0
 25 26  2  0  0  0  0
 26 27  1  0  0  0  0
M  END
>  <CHROM.1>
163.99407089,-166.80163522,177.82201773,-74.15393128,167.14923231,64.35979755
55.20299594,33.00014402,19.58493901,76.36152474,0.75696810,-0.04842624,-2.06266842

>  <Name>
ligand

>  <RI>
0

>  <Rbt.Current_Directory>
/home/itssahil/PROJECTS/Mol_Feturizer/New_Systems/rnas/2QWY

>  <Rbt.Executable>
rbdock ($Id: //depot/dev/client3/rdock/2013.1/src/exe/rbdock.cxx#4 $)

>  <Rbt.Library>
libRbt.so (2013.1, Build901 2013/11/27)

>  <Rbt.Parameter_File>
/export/apps/rDock/src/rDock_2013.1_src/data/scripts/dock_solv.prm

>  <Rbt.Receptor>
prm/pocket_docking_6.prm

>  <SCORE>
-30.7834

>  <SCORE.INTER>
-26.8094

>  <SCORE.INTER.CONST>
1

>  <SCORE.INTER.POLAR>
0

>  <SCORE.INTER.ROT>
7

>  <SCORE.INTER.SOLV>
14.3586

>  <SCORE.INTER.VDW>
-30.9258

>  <SCORE.INTER.norm>
-0.992942

>  <SCORE.INTRA>
-3.97391

>  <SCORE.INTRA.DIHEDRAL>
-6.76938

>  <SCORE.INTRA.DIHEDRAL.0>
10.7382

>  <SCORE.INTRA.POLAR>
0

>  <SCORE.INTRA.POLAR.0>
0

>  <SCORE.INTRA.REPUL>
0

>  <SCORE.INTRA.REPUL.0>
0

>  <SCORE.INTRA.SOLV>
-1.18262

>  <SCORE.INTRA.SOLV.lig_0>
-49.2501

>  <SCORE.INTRA.VDW>
0.00208989

>  <SCORE.INTRA.VDW.0>
-1.75368

>  <SCORE.INTRA.norm>
-0.147182

>  <SCORE.RESTR>
0

>  <SCORE.RESTR.CAVITY>
0

>  <SCORE.RESTR.norm>
0

>  <SCORE.SYSTEM>
0

>  <SCORE.SYSTEM.CONST>
0

>  <SCORE.SYSTEM.DIHEDRAL>
0

>  <SCORE.SYSTEM.SOLV>
0

>  <SCORE.SYSTEM.norm>
0

>  <SCORE.heavy>
27

>  <SCORE.norm>
-1.14012

>  <RMSD>
1.877

$$$$
ligand
 OpenBabel11021811463D
libRbt.so/2013.1/901 2013/11/27
 27 29  0  0  0  0  0  0  0  0999 V2000
   37.5276   18.3937   70.9820 N   0  0  0  0  0  0  0  0  0  0  0  0
   36.9968   17.8545   72.2462 C   0  0  2  0  0  0  0  0  0  0  0  0
   36.1142   16.6548   71.9710 C   0  0  0  0  0  0  0  0  0  0  0  0
   35.5838   16.5168   70.8640 O   0  0  0  0  0  0  0  0  0  0  0  0
   36.1669   18.9305   72.9389 C   0  0  0  0  0  0  0  0  0  0  0  0
   35.8124   18.5022   74.3468 C   0  0  0  0  0  0  0  0  0  0  0  0
   34.9012   19.8497   75.1208 S   0  0  2  0  0  0  0  0  0  0  0  0
   36.2820   20.9965   75.3848 C   0  0  0  0  0  0  0  0  0  0  0  0
   34.6893   19.1885   76.8088 C   0  0  0  0  0  0  0  0  0  0  0  0
   34.2074   20.3142   77.7200 C   0  0  1  0  0  0  0  0  0  0  0  0
   32.9255   20.7014   77.2830 O   0  0  0  0  0  0  0  0  0  0  0  0
   34.0363   19.8341   79.1652 C   0  0  1  0  0  0  0  0  0  0  0  0
   35.1366   19.9021   80.0855 O   0  0  0  0  0  0  0  0  0  0  0  0
   32.7289   20.5546   79.6342 C   0  0  1  0  0  0  0  0  0  0  0  0
   32.9776   21.1486   80.9199 O   0  0  0  0  0  0  0  0  0  0  0  0
   32.3040   21.3759   78.3655 C   0  0  2  0  0  0  0  0  0  0  0  0
   35.9862   15.7890   72.8234 O   0  0  0  0  0  0  0  0  0  0  0  0
   28.0620   18.5066   77.4293 N   0  0  0  0  0  0  0  0  0  0  0  0
   29.3231   18.0972   77.6071 C   0  0  0  0  0  0  0  0  0  0  0  0
   30.3119   18.9605   77.8216 N   0  0  0  0  0  0  0  0  0  0  0  0
   30.0804   20.2840   77.8917 C   0  0  0  0  0  0  0  0  0  0  0  0
   28.7560   20.7702   77.7249 C   0  0  0  0  0  0  0  0  0  0  0  0
   27.7288   19.8101   77.4847 C   0  0  0  0  0  0  0  0  0  0  0  0
   26.4136   20.2025   77.3205 N   0  0  0  0  0  0  0  0  0  0  0  0
   28.8046   22.1167   77.8477 N   0  0  0  0  0  0  0  0  0  0  0  0
   30.0331   22.4813   78.0750 C   0  0  0  0  0  0  0  0  0  0  0  0
   30.8594   21.3849   78.1107 N   0  0  0  0  0  0  0  0  0  0  0  0
  2  1  1  6  0  0  0
  2  3  1  0  0  0  0
  2  5  1  0  0  0  0
  3  4  1  0  0  0  0
  3 17  1  0  0  0  0
  5  6  1  0  0  0  0
  7  6  1  6  0  0  0
  7  8  1  0  0  0  0
  7  9  1  0  0  0  0
 10  9  1  6  0  0  0
 10 11  1  0  0  0  0
 10 12  1  0  0  0  0
 11 16  1  0  0  0  0
 12 13  1  1  0  0  0
 12 14  1  0  0  0  0
 14 15  1  1  0  0  0
 14 16  1  0  0  0  0
 16 27  1  6  0  0  0
 18 19  2  0  0  0  0
 18 23  1  0  0  0  0
 19 20  1  0  0  0  0
 20 21  2  0  0  0  0
 21 22  1  0  0  0  0
 21 27  1  0  0  0  0
 22 23  2  0  0  0  0
 22 25  1  0  0  0  0
 23 24  1  0  0  0  0
 25 26  2  0  0  0  0
 26 27  1  0  0  0  0
M  END
>  <CHROM.1>
-23.34713640,-169.90139586,177.48274160,-73.46710994,167.46673063,65.15970607
56.06070215,32.97981604,19.58472121,76.35484367,0.75660829,-0.04607463,-2.06017981

>  <Name>
ligand

>  <RI>
0

>  <Rbt.Current_Directory>
/home/itssahil/PROJECTS/Mol_Feturizer/New_Systems/rnas/2QWY

>  <Rbt.Executable>
rbdock ($Id: //depot/dev/client3/rdock/2013.1/src/exe/rbdock.cxx#4 $)

>  <Rbt.Library>
libRbt.so (2013.1, Build901 2013/11/27)

>  <Rbt.Parameter_File>
/export/apps/rDock/src/rDock_2013.1_src/data/scripts/dock_solv.prm

>  <Rbt.Receptor>
prm/pocket_docking_3.prm

>  <SCORE>
-30.8239

>  <SCORE.INTER>
-26.778

>  <SCORE.INTER.CONST>
1

>  <SCORE.INTER.POLAR>
0

>  <SCORE.INTER.ROT>
7

>  <SCORE.INTER.SOLV>
14.4528

>  <SCORE.INTER.VDW>
-30.9363

>  <SCORE.INTER.norm>
-0.991778

>  <SCORE.INTRA>
-4.04589

>  <SCORE.INTRA.DIHEDRAL>
-6.77483

>  <SCORE.INTRA.DIHEDRAL.0>
10.7382

>  <SCORE.INTRA.POLAR>
0

>  <SCORE.INTRA.POLAR.0>
0

>  <SCORE.INTRA.REPUL>
0

>  <SCORE.INTRA.REPUL.0>
0

>  <SCORE.INTRA.SOLV>
-1.17694

>  <SCORE.INTRA.SOLV.lig_0>
-49.2501

>  <SCORE.INTRA.VDW>
-0.0700053

>  <SCORE.INTRA.VDW.0>
-1.75368

>  <SCORE.INTRA.norm>
-0.149848

>  <SCORE.RESTR>
0

>  <SCORE.RESTR.CAVITY>
0

>  <SCORE.RESTR.norm>
0

>  <SCORE.SYSTEM>
0

>  <SCORE.SYSTEM.CONST>
0

>  <SCORE.SYSTEM.DIHEDRAL>
0

>  <SCORE.SYSTEM.SOLV>
0

>  <SCORE.SYSTEM.norm>
0

>  <SCORE.heavy>
27

>  <SCORE.norm>
-1.14163

>  <RMSD>
1.883

$$$$
ligand
 OpenBabel11021811463D
libRbt.so/2013.1/901 2013/11/27
 27 29  0  0  0  0  0  0  0  0999 V2000
   38.0740   17.7204   72.6940 N   0  0  0  0  0  0  0  0  0  0  0  0
   36.7639   17.9920   72.0770 C   0  0  2  0  0  0  0  0  0  0  0  0
   36.9469   18.4408   70.6420 C   0  0  0  0  0  0  0  0  0  0  0  0
   36.4668   17.7752   69.7188 O   0  0  0  0  0  0  0  0  0  0  0  0
   36.0646   19.1007   72.8567 C   0  0  0  0  0  0  0  0  0  0  0  0
   35.8011   18.6619   74.2813 C   0  0  0  0  0  0  0  0  0  0  0  0
   34.9703   20.0158   75.1310 S   0  0  2  0  0  0  0  0  0  0  0  0
   36.4108   21.0793   75.4233 C   0  0  0  0  0  0  0  0  0  0  0  0
   34.7503   19.2886   76.7907 C   0  0  0  0  0  0  0  0  0  0  0  0
   34.2382   20.3711   77.7370 C   0  0  1  0  0  0  0  0  0  0  0  0
   32.9574   20.7566   77.2954 O   0  0  0  0  0  0  0  0  0  0  0  0
   34.0526   19.8329   79.1598 C   0  0  1  0  0  0  0  0  0  0  0  0
   35.1379   19.8809   80.0990 O   0  0  0  0  0  0  0  0  0  0  0  0
   32.7278   20.5160   79.6358 C   0  0  1  0  0  0  0  0  0  0  0  0
   32.9484   21.0632   80.9471 O   0  0  0  0  0  0  0  0  0  0  0  0
   32.3098   21.3797   78.3933 C   0  0  2  0  0  0  0  0  0  0  0  0
   37.5093   19.4993   70.4056 O   0  0  0  0  0  0  0  0  0  0  0  0
   28.0978   18.4771   77.4251 N   0  0  0  0  0  0  0  0  0  0  0  0
   29.3582   18.0766   77.6265 C   0  0  0  0  0  0  0  0  0  0  0  0
   30.3390   18.9476   77.8462 N   0  0  0  0  0  0  0  0  0  0  0  0
   30.0995   20.2705   77.8981 C   0  0  0  0  0  0  0  0  0  0  0  0
   28.7752   20.7476   77.7060 C   0  0  0  0  0  0  0  0  0  0  0  0
   27.7569   19.7793   77.4609 C   0  0  0  0  0  0  0  0  0  0  0  0
   26.4422   20.1627   77.2726 N   0  0  0  0  0  0  0  0  0  0  0  0
   28.8147   22.0956   77.8146 N   0  0  0  0  0  0  0  0  0  0  0  0
   30.0378   22.4694   78.0563 C   0  0  0  0  0  0  0  0  0  0  0  0
   30.8692   21.3780   78.1166 N   0  0  0  0  0  0  0  0  0  0  0  0
  2  1  1  1  0  0  0
  2  3  1  0  0  0  0
  2  5  1  0  0  0  0
  3  4  1  0  0  0  0
  3 17  1  0  0  0  0
  5  6  1  0  0  0  0
  7  6  1  6  0  0  0
  7  8  1  0  0  0  0
  7  9  1  0  0  0  0
 10  9  1  6  0  0  0
 10 11  1  0  0  0  0
 10 12  1  0  0  0  0
 11 16  1  0  0  0  0
 12 13  1  1  0  0  0
 12 14  1  0  0  0  0
 14 15  1  1  0  0  0
 14 16  1  0  0  0  0
 16 27  1  6  0  0  0
 18 19  2  0  0  0  0
 18 23  1  0  0  0  0
 19 20  1  0  0  0  0
 20 21  2  0  0  0  0
 21 22  1  0  0  0  0
 21 27  1  0  0  0  0
 22 23  2  0  0  0  0
 22 25  1  0  0  0  0
 23 24  1  0  0  0  0
 25 26  2  0  0  0  0
 26 27  1  0  0  0  0
M  END
>  <CHROM.1>
118.42990857,-62.58441471,-179.73680160,-77.57007885,171.66627643,64.90174250
58.95761782,33.13379320,19.84759651,76.22056969,-0.74219908,0.01876009,1.28438705

>  <Name>
ligand

>  <RI>
0

>  <Rbt.Current_Directory>
/home/itssahil/PROJECTS/Mol_Feturizer/New_Systems/rnas/2QWY

>  <Rbt.Executable>
rbdock ($Id: //depot/dev/client3/rdock/2013.1/src/exe/rbdock.cxx#4 $)

>  <Rbt.Library>
libRbt.so (2013.1, Build901 2013/11/27)

>  <Rbt.Parameter_File>
/export/apps/rDock/src/rDock_2013.1_src/data/scripts/dock_solv.prm

>  <Rbt.Receptor>
prm/pocket_docking_3.prm

>  <SCORE>
-31.9589

>  <SCORE.INTER>
-27.9889

>  <SCORE.INTER.CONST>
1

>  <SCORE.INTER.POLAR>
0

>  <SCORE.INTER.ROT>
7

>  <SCORE.INTER.SOLV>
12.3906

>  <SCORE.INTER.VDW>
-31.0562

>  <SCORE.INTER.norm>
-1.03663

>  <SCORE.INTRA>
-3.96992

>  <SCORE.INTRA.DIHEDRAL>
-7.15081

>  <SCORE.INTRA.DIHEDRAL.0>
10.7382

>  <SCORE.INTRA.POLAR>
0

>  <SCORE.INTRA.POLAR.0>
0

>  <SCORE.INTRA.REPUL>
0

>  <SCORE.INTRA.REPUL.0>
0

>  <SCORE.INTRA.SOLV>
-0.393786

>  <SCORE.INTRA.SOLV.lig_0>
-49.2501

>  <SCORE.INTRA.VDW>
-0.197628

>  <SCORE.INTRA.VDW.0>
-1.75368

>  <SCORE.INTRA.norm>
-0.147034

>  <SCORE.RESTR>
0

>  <SCORE.RESTR.CAVITY>
0

>  <SCORE.RESTR.norm>
0

>  <SCORE.SYSTEM>
0

>  <SCORE.SYSTEM.CONST>
0

>  <SCORE.SYSTEM.DIHEDRAL>
0

>  <SCORE.SYSTEM.SOLV>
0

>  <SCORE.SYSTEM.norm>
0

>  <SCORE.heavy>
27

>  <SCORE.norm>
-1.18366

>  <RMSD>
1.891

$$$$
ligand
 OpenBabel11021811463D
libRbt.so/2013.1/901 2013/11/27
 27 29  0  0  0  0  0  0  0  0999 V2000
   37.5227   18.3644   70.9950 N   0  0  0  0  0  0  0  0  0  0  0  0
   36.9830   17.8341   72.2592 C   0  0  2  0  0  0  0  0  0  0  0  0
   36.1071   16.6289   71.9868 C   0  0  0  0  0  0  0  0  0  0  0  0
   35.6783   16.4195   70.8474 O   0  0  0  0  0  0  0  0  0  0  0  0
   36.1437   18.9129   72.9358 C   0  0  0  0  0  0  0  0  0  0  0  0
   35.8500   18.5336   74.3715 C   0  0  0  0  0  0  0  0  0  0  0  0
   34.9200   19.8829   75.1197 S   0  0  2  0  0  0  0  0  0  0  0  0
   36.2935   21.0317   75.4120 C   0  0  0  0  0  0  0  0  0  0  0  0
   34.6695   19.2269   76.8045 C   0  0  0  0  0  0  0  0  0  0  0  0
   34.1822   20.3591   77.7046 C   0  0  1  0  0  0  0  0  0  0  0  0
   32.8919   20.7249   77.2739 O   0  0  0  0  0  0  0  0  0  0  0  0
   34.0296   19.8968   79.1576 C   0  0  1  0  0  0  0  0  0  0  0  0
   35.1371   19.9906   80.0670 O   0  0  0  0  0  0  0  0  0  0  0  0
   32.7178   20.6080   79.6286 C   0  0  1  0  0  0  0  0  0  0  0  0
   32.9706   21.2225   80.9037 O   0  0  0  0  0  0  0  0  0  0  0  0
   32.2719   21.4068   78.3527 C   0  0  2  0  0  0  0  0  0  0  0  0
   35.8846   15.8273   72.8816 O   0  0  0  0  0  0  0  0  0  0  0  0
   28.0673   18.4787   77.4300 N   0  0  0  0  0  0  0  0  0  0  0  0
   29.3362   18.0877   77.5932 C   0  0  0  0  0  0  0  0  0  0  0  0
   30.3132   18.9648   77.8061 N   0  0  0  0  0  0  0  0  0  0  0  0
   30.0615   20.2838   77.8894 C   0  0  0  0  0  0  0  0  0  0  0  0
   28.7282   20.7504   77.7385 C   0  0  0  0  0  0  0  0  0  0  0  0
   27.7141   19.7763   77.4993 C   0  0  0  0  0  0  0  0  0  0  0  0
   26.3915   20.1492   77.3501 N   0  0  0  0  0  0  0  0  0  0  0  0
   28.7567   22.0965   77.8722 N   0  0  0  0  0  0  0  0  0  0  0  0
   29.9814   22.4785   78.0916 C   0  0  0  0  0  0  0  0  0  0  0  0
   30.8251   21.3950   78.1108 N   0  0  0  0  0  0  0  0  0  0  0  0
  2  1  1  6  0  0  0
  2  3  1  0  0  0  0
  2  5  1  0  0  0  0
  3  4  1  0  0  0  0
  3 17  1  0  0  0  0
  5  6  1  0  0  0  0
  7  6  1  6  0  0  0
  7  8  1  0  0  0  0
  7  9  1  0  0  0  0
 10  9  1  6  0  0  0
 10 11  1  0  0  0  0
 10 12  1  0  0  0  0
 11 16  1  0  0  0  0
 12 13  1  1  0  0  0
 12 14  1  0  0  0  0
 14 15  1  1  0  0  0
 14 16  1  0  0  0  0
 16 27  1  6  0  0  0
 18 19  2  0  0  0  0
 18 23  1  0  0  0  0
 19 20  1  0  0  0  0
 20 21  2  0  0  0  0
 21 22  1  0  0  0  0
 21 27  1  0  0  0  0
 22 23  2  0  0  0  0
 22 25  1  0  0  0  0
 23 24  1  0  0  0  0
 25 26  2  0  0  0  0
 26 27  1  0  0  0  0
M  END
>  <CHROM.1>
-17.24939316,-166.45254702,177.62104047,-77.80660268,166.77741727,67.31197425
54.78315854,32.96973653,19.59459194,76.35863868,0.75464805,-0.06047623,-2.07814908

>  <Name>
ligand

>  <RI>
0

>  <Rbt.Current_Directory>
/home/itssahil/PROJECTS/Mol_Feturizer/New_Systems/rnas/2QWY

>  <Rbt.Executable>
rbdock ($Id: //depot/dev/client3/rdock/2013.1/src/exe/rbdock.cxx#4 $)

>  <Rbt.Library>
libRbt.so (2013.1, Build901 2013/11/27)

>  <Rbt.Parameter_File>
/export/apps/rDock/src/rDock_2013.1_src/data/scripts/dock_solv.prm

>  <Rbt.Receptor>
prm/pocket_docking_3.prm

>  <SCORE>
-30.7053

>  <SCORE.INTER>
-26.8052

>  <SCORE.INTER.CONST>
1

>  <SCORE.INTER.POLAR>
0

>  <SCORE.INTER.ROT>
7

>  <SCORE.INTER.SOLV>
14.2555

>  <SCORE.INTER.VDW>
-30.8886

>  <SCORE.INTER.norm>
-0.992785

>  <SCORE.INTRA>
-3.9001

>  <SCORE.INTRA.DIHEDRAL>
-6.20911

>  <SCORE.INTRA.DIHEDRAL.0>
10.7382

>  <SCORE.INTRA.POLAR>
0

>  <SCORE.INTRA.POLAR.0>
0

>  <SCORE.INTRA.REPUL>
0

>  <SCORE.INTRA.REPUL.0>
0

>  <SCORE.INTRA.SOLV>
-1.17544

>  <SCORE.INTRA.SOLV.lig_0>
-49.2501

>  <SCORE.INTRA.VDW>
-0.20782

>  <SCORE.INTRA.VDW.0>
-1.75368

>  <SCORE.INTRA.norm>
-0.144448

>  <SCORE.RESTR>
0

>  <SCORE.RESTR.CAVITY>
0

>  <SCORE.RESTR.norm>
0

>  <SCORE.SYSTEM>
0

>  <SCORE.SYSTEM.CONST>
0

>  <SCORE.SYSTEM.DIHEDRAL>
0

>  <SCORE.SYSTEM.SOLV>
0

>  <SCORE.SYSTEM.norm>
0

>  <SCORE.heavy>
27

>  <SCORE.norm>
-1.13723

>  <RMSD>
1.892

$$$$
ligand
 OpenBabel11021811463D
libRbt.so/2013.1/901 2013/11/27
 27 29  0  0  0  0  0  0  0  0999 V2000
   37.7506   20.0841   71.7928 N   0  0  0  0  0  0  0  0  0  0  0  0
   37.0841   19.1712   72.7379 C   0  0  2  0  0  0  0  0  0  0  0  0
   36.3494   18.0839   71.9816 C   0  0  0  0  0  0  0  0  0  0  0  0
   36.2013   18.1717   70.7585 O   0  0  0  0  0  0  0  0  0  0  0  0
   36.0789   19.9604   73.5704 C   0  0  0  0  0  0  0  0  0  0  0  0
   36.7900   20.9825   74.4313 C   0  0  0  0  0  0  0  0  0  0  0  0
   35.5651   21.7412   75.5126 S   0  0  2  0  0  0  0  0  0  0  0  0
   36.6773   22.7860   76.4938 C   0  0  0  0  0  0  0  0  0  0  0  0
   35.2630   20.3787   76.6891 C   0  0  0  0  0  0  0  0  0  0  0  0
   34.5695   20.9431   77.9261 C   0  0  1  0  0  0  0  0  0  0  0  0
   33.2899   21.3851   77.5369 O   0  0  0  0  0  0  0  0  0  0  0  0
   34.3404   19.8603   78.9860 C   0  0  1  0  0  0  0  0  0  0  0  0
   35.3431   19.5965   79.9796 O   0  0  0  0  0  0  0  0  0  0  0  0
   32.9184   20.1961   79.5460 C   0  0  1  0  0  0  0  0  0  0  0  0
   32.9828   20.1751   80.9823 O   0  0  0  0  0  0  0  0  0  0  0  0
   32.5008   21.4600   78.7136 C   0  0  2  0  0  0  0  0  0  0  0  0
   35.9662   17.0868   72.5747 O   0  0  0  0  0  0  0  0  0  0  0  0
   28.3427   18.5915   77.4543 N   0  0  0  0  0  0  0  0  0  0  0  0
   29.5707   18.1785   77.7877 C   0  0  0  0  0  0  0  0  0  0  0  0
   30.5433   19.0413   78.0684 N   0  0  0  0  0  0  0  0  0  0  0  0
   30.3256   20.3688   78.0511 C   0  0  0  0  0  0  0  0  0  0  0  0
   29.0347   20.8596   77.7181 C   0  0  0  0  0  0  0  0  0  0  0  0
   28.0253   19.8994   77.4121 C   0  0  0  0  0  0  0  0  0  0  0  0
   26.7417   20.2966   77.0871 N   0  0  0  0  0  0  0  0  0  0  0  0
   29.0900   22.2100   77.7827 N   0  0  0  0  0  0  0  0  0  0  0  0
   30.2919   22.5727   78.1256 C   0  0  0  0  0  0  0  0  0  0  0  0
   31.0928   21.4711   78.3023 N   0  0  0  0  0  0  0  0  0  0  0  0
  2  1  1  6  0  0  0
  2  3  1  0  0  0  0
  2  5  1  0  0  0  0
  3  4  1  0  0  0  0
  3 17  1  0  0  0  0
  5  6  1  0  0  0  0
  7  6  1  6  0  0  0
  7  8  1  0  0  0  0
  7  9  1  0  0  0  0
 10  9  1  6  0  0  0
 10 11  1  0  0  0  0
 10 12  1  0  0  0  0
 11 16  1  0  0  0  0
 12 13  1  1  0  0  0
 12 14  1  0  0  0  0
 14 15  1  1  0  0  0
 14 16  1  0  0  0  0
 16 27  1  6  0  0  0
 18 19  2  0  0  0  0
 18 23  1  0  0  0  0
 19 20  1  0  0  0  0
 20 21  2  0  0  0  0
 21 22  1  0  0  0  0
 21 27  1  0  0  0  0
 22 23  2  0  0  0  0
 22 25  1  0  0  0  0
 23 24  1  0  0  0  0
 25 26  2  0  0  0  0
 26 27  1  0  0  0  0
M  END
>  <CHROM.1>
-10.95663829,-64.51686401,-173.77536894,175.62526622,163.37523301,66.47152242
85.61656815,33.29307295,20.26490999,76.51615959,0.63243939,-0.17488457,-1.96628155

>  <Name>
ligand

>  <RI>
0

>  <Rbt.Current_Directory>
/home/itssahil/PROJECTS/Mol_Feturizer/New_Systems/rnas/2QWY

>  <Rbt.Executable>
rbdock ($Id: //depot/dev/client3/rdock/2013.1/src/exe/rbdock.cxx#4 $)

>  <Rbt.Library>
libRbt.so (2013.1, Build901 2013/11/27)

>  <Rbt.Parameter_File>
/export/apps/rDock/src/rDock_2013.1_src/data/scripts/dock_solv.prm

>  <Rbt.Receptor>
prm/pocket_docking_3.prm

>  <SCORE>
-29.7331

>  <SCORE.INTER>
-26.0489

>  <SCORE.INTER.CONST>
1

>  <SCORE.INTER.POLAR>
0

>  <SCORE.INTER.ROT>
7

>  <SCORE.INTER.SOLV>
14.2443

>  <SCORE.INTER.VDW>
-30.3807

>  <SCORE.INTER.norm>
-0.964775

>  <SCORE.INTRA>
-3.68435

>  <SCORE.INTRA.DIHEDRAL>
-6.80119

>  <SCORE.INTRA.DIHEDRAL.0>
10.7382

>  <SCORE.INTRA.POLAR>
0

>  <SCORE.INTRA.POLAR.0>
0

>  <SCORE.INTRA.REPUL>
0

>  <SCORE.INTRA.REPUL.0>
0

>  <SCORE.INTRA.SOLV>
-0.509349

>  <SCORE.INTRA.SOLV.lig_0>
-49.2501

>  <SCORE.INTRA.VDW>
-0.0290755

>  <SCORE.INTRA.VDW.0>
-1.75368

>  <SCORE.INTRA.norm>
-0.136457

>  <SCORE.RESTR>
0.000195151

>  <SCORE.RESTR.CAVITY>
0.000195151

>  <SCORE.RESTR.norm>
7.22782e-06

>  <SCORE.SYSTEM>
0

>  <SCORE.SYSTEM.CONST>
0

>  <SCORE.SYSTEM.DIHEDRAL>
0

>  <SCORE.SYSTEM.SOLV>
0

>  <SCORE.SYSTEM.norm>
0

>  <SCORE.heavy>
27

>  <SCORE.norm>
-1.10123

>  <RMSD>
1.910

$$$$
ligand
 OpenBabel11021811463D
libRbt.so/2013.1/901 2013/11/27
 27 29  0  0  0  0  0  0  0  0999 V2000
   37.6098   17.2719   72.4900 N   0  0  0  0  0  0  0  0  0  0  0  0
   36.4829   17.9742   71.8516 C   0  0  2  0  0  0  0  0  0  0  0  0
   36.9033   18.5128   70.4999 C   0  0  0  0  0  0  0  0  0  0  0  0
   36.5206   17.9570   69.4652 O   0  0  0  0  0  0  0  0  0  0  0  0
   36.0544   19.1398   72.7370 C   0  0  0  0  0  0  0  0  0  0  0  0
   35.7112   18.6508   74.1279 C   0  0  0  0  0  0  0  0  0  0  0  0
   35.0473   20.0454   75.0550 S   0  0  2  0  0  0  0  0  0  0  0  0
   36.6073   20.8948   75.4243 C   0  0  0  0  0  0  0  0  0  0  0  0
   34.7107   19.2518   76.6640 C   0  0  0  0  0  0  0  0  0  0  0  0
   34.2332   20.3176   77.6466 C   0  0  1  0  0  0  0  0  0  0  0  0
   32.9497   20.7320   77.2403 O   0  0  0  0  0  0  0  0  0  0  0  0
   34.0677   19.7469   79.0592 C   0  0  1  0  0  0  0  0  0  0  0  0
   35.1718   19.7562   79.9774 O   0  0  0  0  0  0  0  0  0  0  0  0
   32.7626   20.4366   79.5782 C   0  0  1  0  0  0  0  0  0  0  0  0
   33.0169   20.9479   80.8979 O   0  0  0  0  0  0  0  0  0  0  0  0
   32.3330   21.3368   78.3659 C   0  0  2  0  0  0  0  0  0  0  0  0
   37.5631   19.5391   70.4355 O   0  0  0  0  0  0  0  0  0  0  0  0
   28.0548   18.5166   77.4453 N   0  0  0  0  0  0  0  0  0  0  0  0
   29.3121   18.0929   77.6164 C   0  0  0  0  0  0  0  0  0  0  0  0
   30.3115   18.9448   77.8275 N   0  0  0  0  0  0  0  0  0  0  0  0
   30.0951   20.2706   77.9010 C   0  0  0  0  0  0  0  0  0  0  0  0
   28.7754   20.7718   77.7414 C   0  0  0  0  0  0  0  0  0  0  0  0
   27.7364   19.8237   77.5045 C   0  0  0  0  0  0  0  0  0  0  0  0
   26.4249   20.2310   77.3474 N   0  0  0  0  0  0  0  0  0  0  0  0
   28.8396   22.1175   77.8664 N   0  0  0  0  0  0  0  0  0  0  0  0
   30.0732   22.4679   78.0883 C   0  0  0  0  0  0  0  0  0  0  0  0
   30.8874   21.3623   78.1181 N   0  0  0  0  0  0  0  0  0  0  0  0
  2  1  1  1  0  0  0
  2  3  1  0  0  0  0
  2  5  1  0  0  0  0
  3  4  1  0  0  0  0
  3 17  1  0  0  0  0
  5  6  1  0  0  0  0
  7  6  1  6  0  0  0
  7  8  1  0  0  0  0
  7  9  1  0  0  0  0
 10  9  1  6  0  0  0
 10 11  1  0  0  0  0
 10 12  1  0  0  0  0
 11 16  1  0  0  0  0
 12 13  1  1  0  0  0
 12 14  1  0  0  0  0
 14 15  1  1  0  0  0
 14 16  1  0  0  0  0
 16 27  1  6  0  0  0
 18 19  2  0  0  0  0
 18 23  1  0  0  0  0
 19 20  1  0  0  0  0
 20 21  2  0  0  0  0
 21 22  1  0  0  0  0
 21 27  1  0  0  0  0
 22 23  2  0  0  0  0
 22 25  1  0  0  0  0
 23 24  1  0  0  0  0
 25 26  2  0  0  0  0
 26 27  1  0  0  0  0
M  END
>  <CHROM.1>
105.19425203,-56.11253942,-173.94425508,-77.39916189,175.55528770,69.74902629
59.64708138,33.12317138,19.82421755,76.16099739,0.75688288,-0.01162863,-1.84432030

>  <Name>
ligand

>  <RI>
0

>  <Rbt.Current_Directory>
/home/itssahil/PROJECTS/Mol_Feturizer/New_Systems/rnas/2QWY

>  <Rbt.Executable>
rbdock ($Id: //depot/dev/client3/rdock/2013.1/src/exe/rbdock.cxx#4 $)

>  <Rbt.Library>
libRbt.so (2013.1, Build901 2013/11/27)

>  <Rbt.Parameter_File>
/export/apps/rDock/src/rDock_2013.1_src/data/scripts/dock_solv.prm

>  <Rbt.Receptor>
prm/pocket_docking_3.prm

>  <SCORE>
-31.5513

>  <SCORE.INTER>
-28.1678

>  <SCORE.INTER.CONST>
1

>  <SCORE.INTER.POLAR>
0

>  <SCORE.INTER.ROT>
7

>  <SCORE.INTER.SOLV>
12.8181

>  <SCORE.INTER.VDW>
-31.3179

>  <SCORE.INTER.norm>
-1.04325

>  <SCORE.INTRA>
-3.38346

>  <SCORE.INTRA.DIHEDRAL>
-6.58018

>  <SCORE.INTRA.DIHEDRAL.0>
10.7382

>  <SCORE.INTRA.POLAR>
0

>  <SCORE.INTRA.POLAR.0>
0

>  <SCORE.INTRA.REPUL>
0

>  <SCORE.INTRA.REPUL.0>
0

>  <SCORE.INTRA.SOLV>
-0.456138

>  <SCORE.INTRA.SOLV.lig_0>
-49.2501

>  <SCORE.INTRA.VDW>
0.134692

>  <SCORE.INTRA.VDW.0>
-1.75368

>  <SCORE.INTRA.norm>
-0.125314

>  <SCORE.RESTR>
0

>  <SCORE.RESTR.CAVITY>
0

>  <SCORE.RESTR.norm>
0

>  <SCORE.SYSTEM>
0

>  <SCORE.SYSTEM.CONST>
0

>  <SCORE.SYSTEM.DIHEDRAL>
0

>  <SCORE.SYSTEM.SOLV>
0

>  <SCORE.SYSTEM.norm>
0

>  <SCORE.heavy>
27

>  <SCORE.norm>
-1.16856

>  <RMSD>
1.939

$$$$
ligand
 OpenBabel11021811463D
libRbt.so/2013.1/901 2013/11/27
 27 29  0  0  0  0  0  0  0  0999 V2000
   37.8823   18.5047   73.0473 N   0  0  0  0  0  0  0  0  0  0  0  0
   36.9438   17.5240   73.6203 C   0  0  2  0  0  0  0  0  0  0  0  0
   36.3452   16.6717   72.5207 C   0  0  0  0  0  0  0  0  0  0  0  0
   35.7953   17.2063   71.5524 O   0  0  0  0  0  0  0  0  0  0  0  0
   35.8210   18.2668   74.3371 C   0  0  0  0  0  0  0  0  0  0  0  0
   36.3320   18.8926   75.6172 C   0  0  0  0  0  0  0  0  0  0  0  0
   35.1478   20.1506   76.1276 S   0  0  2  0  0  0  0  0  0  0  0  0
   35.5067   21.3946   74.8566 C   0  0  0  0  0  0  0  0  0  0  0  0
   36.0198   20.8746   77.5584 C   0  0  0  0  0  0  0  0  0  0  0  0
   35.0514   20.9519   78.7356 C   0  0  1  0  0  0  0  0  0  0  0  0
   33.8044   21.3787   78.2384 O   0  0  0  0  0  0  0  0  0  0  0  0
   34.8107   19.5722   79.3577 C   0  0  1  0  0  0  0  0  0  0  0  0
   35.6593   19.0966   80.4140 O   0  0  0  0  0  0  0  0  0  0  0  0
   33.2807   19.5841   79.6854 C   0  0  1  0  0  0  0  0  0  0  0  0
   33.1042   19.1132   81.0325 O   0  0  0  0  0  0  0  0  0  0  0  0
   32.8259   21.0046   79.1953 C   0  0  2  0  0  0  0  0  0  0  0  0
   36.4704   15.4570   72.5600 O   0  0  0  0  0  0  0  0  0  0  0  0
   28.7261   18.1930   77.6491 N   0  0  0  0  0  0  0  0  0  0  0  0
   29.8325   17.7786   78.2769 C   0  0  0  0  0  0  0  0  0  0  0  0
   30.8109   18.6222   78.5934 N   0  0  0  0  0  0  0  0  0  0  0  0
   30.7180   19.9352   78.3152 C   0  0  0  0  0  0  0  0  0  0  0  0
   29.5568   20.4296   77.6629 C   0  0  0  0  0  0  0  0  0  0  0  0
   28.5383   19.4878   77.3309 C   0  0  0  0  0  0  0  0  0  0  0  0
   27.3746   19.8913   76.7032 N   0  0  0  0  0  0  0  0  0  0  0  0
   29.7187   21.7645   77.5128 N   0  0  0  0  0  0  0  0  0  0  0  0
   30.8664   22.1153   78.0164 C   0  0  0  0  0  0  0  0  0  0  0  0
   31.5217   21.0203   78.5240 N   0  0  0  0  0  0  0  0  0  0  0  0
  2  1  1  6  0  0  0
  2  3  1  0  0  0  0
  2  5  1  0  0  0  0
  3  4  1  0  0  0  0
  3 17  1  0  0  0  0
  5  6  1  0  0  0  0
  7  6  1  6  0  0  0
  7  8  1  0  0  0  0
  7  9  1  0  0  0  0
 10  9  1  6  0  0  0
 10 11  1  0  0  0  0
 10 12  1  0  0  0  0
 11 16  1  0  0  0  0
 12 13  1  1  0  0  0
 12 14  1  0  0  0  0
 14 15  1  1  0  0  0
 14 16  1  0  0  0  0
 16 27  1  6  0  0  0
 18 19  2  0  0  0  0
 18 23  1  0  0  0  0
 19 20  1  0  0  0  0
 20 21  2  0  0  0  0
 21 22  1  0  0  0  0
 21 27  1  0  0  0  0
 22 23  2  0  0  0  0
 22 25  1  0  0  0  0
 23 24  1  0  0  0  0
 25 26  2  0  0  0  0
 26 27  1  0  0  0  0
M  END
>  <CHROM.1>
-53.61875517,-71.82313800,162.38880399,-72.16469791,-131.07675187,-41.31313344
115.71240328,33.46650323,19.45030380,76.86262509,0.71277338,-0.03446208,-2.02798127

>  <Name>
ligand

>  <RI>
0

>  <Rbt.Current_Directory>
/home/itssahil/PROJECTS/Mol_Feturizer/New_Systems/rnas/2QWY

>  <Rbt.Executable>
rbdock ($Id: //depot/dev/client3/rdock/2013.1/src/exe/rbdock.cxx#4 $)

>  <Rbt.Library>
libRbt.so (2013.1, Build901 2013/11/27)

>  <Rbt.Parameter_File>
/export/apps/rDock/src/rDock_2013.1_src/data/scripts/dock_solv.prm

>  <Rbt.Receptor>
prm/pocket_docking_2.prm

>  <SCORE>
-15.6733

>  <SCORE.INTER>
-16.418

>  <SCORE.INTER.CONST>
1

>  <SCORE.INTER.POLAR>
0

>  <SCORE.INTER.ROT>
7

>  <SCORE.INTER.SOLV>
15.8111

>  <SCORE.INTER.VDW>
-24.4824

>  <SCORE.INTER.norm>
-0.608075

>  <SCORE.INTRA>
0.00283322

>  <SCORE.INTRA.DIHEDRAL>
-0.421078

>  <SCORE.INTRA.DIHEDRAL.0>
10.7382

>  <SCORE.INTRA.POLAR>
0

>  <SCORE.INTRA.POLAR.0>
0

>  <SCORE.INTRA.REPUL>
0

>  <SCORE.INTRA.REPUL.0>
0

>  <SCORE.INTRA.SOLV>
0.241836

>  <SCORE.INTRA.SOLV.lig_0>
-49.2501

>  <SCORE.INTRA.VDW>
0.0924541

>  <SCORE.INTRA.VDW.0>
-1.75368

>  <SCORE.INTRA.norm>
0.000104934

>  <SCORE.RESTR>
0.741922

>  <SCORE.RESTR.CAVITY>
0.741922

>  <SCORE.RESTR.norm>
0.0274786

>  <SCORE.SYSTEM>
0

>  <SCORE.SYSTEM.CONST>
0

>  <SCORE.SYSTEM.DIHEDRAL>
0

>  <SCORE.SYSTEM.SOLV>
0

>  <SCORE.SYSTEM.norm>
0

>  <SCORE.heavy>
27

>  <SCORE.norm>
-0.580492

>  <RMSD>
1.944

$$$$
ligand
 OpenBabel11021811463D
libRbt.so/2013.1/901 2013/11/27
 27 29  0  0  0  0  0  0  0  0999 V2000
   38.0558   18.6665   72.4817 N   0  0  0  0  0  0  0  0  0  0  0  0
   36.9042   17.7712   72.6885 C   0  0  2  0  0  0  0  0  0  0  0  0
   36.2741   17.4168   71.3575 C   0  0  0  0  0  0  0  0  0  0  0  0
   35.6662   16.3498   71.2244 O   0  0  0  0  0  0  0  0  0  0  0  0
   35.8677   18.4818   73.5528 C   0  0  0  0  0  0  0  0  0  0  0  0
   36.4126   18.7216   74.9446 C   0  0  0  0  0  0  0  0  0  0  0  0
   35.6416   20.2168   75.5891 S   0  0  2  0  0  0  0  0  0  0  0  0
   36.7544   20.5152   76.9905 C   0  0  0  0  0  0  0  0  0  0  0  0
   34.1992   19.5071   76.4538 C   0  0  0  0  0  0  0  0  0  0  0  0
   33.6878   20.5236   77.4710 C   0  0  1  0  0  0  0  0  0  0  0  0
   32.3701   20.8665   77.1103 O   0  0  0  0  0  0  0  0  0  0  0  0
   33.5994   19.9180   78.8760 C   0  0  1  0  0  0  0  0  0  0  0  0
   34.7279   19.9776   79.7621 O   0  0  0  0  0  0  0  0  0  0  0  0
   32.2712   20.5172   79.4462 C   0  0  1  0  0  0  0  0  0  0  0  0
   32.5335   21.0186   80.7681 O   0  0  0  0  0  0  0  0  0  0  0  0
   31.7520   21.4118   78.2651 C   0  0  2  0  0  0  0  0  0  0  0  0
   36.3085   18.2207   70.4381 O   0  0  0  0  0  0  0  0  0  0  0  0
   27.6090   18.3449   77.5346 N   0  0  0  0  0  0  0  0  0  0  0  0
   28.8918   17.9934   77.6779 C   0  0  0  0  0  0  0  0  0  0  0  0
   29.8490   18.9025   77.8403 N   0  0  0  0  0  0  0  0  0  0  0  0
   29.5630   20.2162   77.8904 C   0  0  0  0  0  0  0  0  0  0  0  0
   28.2141   20.6420   77.7586 C   0  0  0  0  0  0  0  0  0  0  0  0
   27.2219   19.6341   77.5738 C   0  0  0  0  0  0  0  0  0  0  0  0
   25.8862   19.9666   77.4463 N   0  0  0  0  0  0  0  0  0  0  0  0
   28.2086   21.9918   77.8514 N   0  0  0  0  0  0  0  0  0  0  0  0
   29.4272   22.4131   78.0290 C   0  0  0  0  0  0  0  0  0  0  0  0
   30.3007   21.3538   78.0595 N   0  0  0  0  0  0  0  0  0  0  0  0
  2  1  1  6  0  0  0
  2  3  1  0  0  0  0
  2  5  1  0  0  0  0
  3  4  1  0  0  0  0
  3 17  1  0  0  0  0
  5  6  1  0  0  0  0
  7  6  1  6  0  0  0
  7  8  1  0  0  0  0
  7  9  1  0  0  0  0
 10  9  1  6  0  0  0
 10 11  1  0  0  0  0
 10 12  1  0  0  0  0
 11 16  1  0  0  0  0
 12 13  1  1  0  0  0
 12 14  1  0  0  0  0
 14 15  1  1  0  0  0
 14 16  1  0  0  0  0
 16 27  1  6  0  0  0
 18 19  2  0  0  0  0
 18 23  1  0  0  0  0
 19 20  1  0  0  0  0
 20 21  2  0  0  0  0
 21 22  1  0  0  0  0
 21 27  1  0  0  0  0
 22 23  2  0  0  0  0
 22 25  1  0  0  0  0
 23 24  1  0  0  0  0
 25 26  2  0  0  0  0
 26 27  1  0  0  0  0
M  END
>  <CHROM.1>
152.71582542,-65.76152336,150.10410168,-165.47397003,160.11895843,118.13469292
62.11429368,32.79278896,19.69840057,76.41027093,0.64277625,-0.06373054,-2.02164224

>  <Name>
ligand

>  <RI>
0

>  <Rbt.Current_Directory>
/home/itssahil/PROJECTS/Mol_Feturizer/New_Systems/rnas/2QWY

>  <Rbt.Executable>
rbdock ($Id: //depot/dev/client3/rdock/2013.1/src/exe/rbdock.cxx#4 $)

>  <Rbt.Library>
libRbt.so (2013.1, Build901 2013/11/27)

>  <Rbt.Parameter_File>
/export/apps/rDock/src/rDock_2013.1_src/data/scripts/dock_solv.prm

>  <Rbt.Receptor>
prm/pocket_docking_2.prm

>  <SCORE>
-20.1885

>  <SCORE.INTER>
-21.1737

>  <SCORE.INTER.CONST>
1

>  <SCORE.INTER.POLAR>
0

>  <SCORE.INTER.ROT>
7

>  <SCORE.INTER.SOLV>
11.2377

>  <SCORE.INTER.VDW>
-26.1284

>  <SCORE.INTER.norm>
-0.784211

>  <SCORE.INTRA>
0.348253

>  <SCORE.INTRA.DIHEDRAL>
2.12179

>  <SCORE.INTRA.DIHEDRAL.0>
10.7382

>  <SCORE.INTRA.POLAR>
0

>  <SCORE.INTRA.POLAR.0>
0

>  <SCORE.INTRA.REPUL>
0

>  <SCORE.INTRA.REPUL.0>
0

>  <SCORE.INTRA.SOLV>
-0.150524

>  <SCORE.INTRA.SOLV.lig_0>
-49.2501

>  <SCORE.INTRA.VDW>
-0.637378

>  <SCORE.INTRA.VDW.0>
-1.75368

>  <SCORE.INTRA.norm>
0.0128983

>  <SCORE.RESTR>
0.63695

>  <SCORE.RESTR.CAVITY>
0.63695

>  <SCORE.RESTR.norm>
0.0235908

>  <SCORE.SYSTEM>
0

>  <SCORE.SYSTEM.CONST>
0

>  <SCORE.SYSTEM.DIHEDRAL>
0

>  <SCORE.SYSTEM.SOLV>
0

>  <SCORE.SYSTEM.norm>
0

>  <SCORE.heavy>
27

>  <SCORE.norm>
-0.747722

>  <RMSD>
1.946

$$$$
ligand
 OpenBabel11021811463D
libRbt.so/2013.1/901 2013/11/27
 27 29  0  0  0  0  0  0  0  0999 V2000
   37.7127   17.1862   72.9767 N   0  0  0  0  0  0  0  0  0  0  0  0
   36.6087   17.8140   72.2299 C   0  0  2  0  0  0  0  0  0  0  0  0
   37.0902   18.2591   70.8646 C   0  0  0  0  0  0  0  0  0  0  0  0
   36.5668   17.8015   69.8436 O   0  0  0  0  0  0  0  0  0  0  0  0
   36.1133   19.0329   73.0013 C   0  0  0  0  0  0  0  0  0  0  0  0
   35.7227   18.6451   74.4115 C   0  0  0  0  0  0  0  0  0  0  0  0
   35.0231   20.1004   75.2103 S   0  0  2  0  0  0  0  0  0  0  0  0
   36.5552   21.0412   75.4534 C   0  0  0  0  0  0  0  0  0  0  0  0
   34.7525   19.4616   76.8986 C   0  0  0  0  0  0  0  0  0  0  0  0
   34.2147   20.5926   77.7710 C   0  0  1  0  0  0  0  0  0  0  0  0
   32.9162   20.9017   77.3210 O   0  0  0  0  0  0  0  0  0  0  0  0
   34.0646   20.1540   79.2317 C   0  0  1  0  0  0  0  0  0  0  0  0
   35.1586   20.3068   80.1492 O   0  0  0  0  0  0  0  0  0  0  0  0
   32.7228   20.8252   79.6758 C   0  0  1  0  0  0  0  0  0  0  0  0
   32.9399   21.4739   80.9406 O   0  0  0  0  0  0  0  0  0  0  0  0
   32.2606   21.5814   78.3799 C   0  0  2  0  0  0  0  0  0  0  0  0
   37.9486   19.1241   70.7775 O   0  0  0  0  0  0  0  0  0  0  0  0
   28.1801   18.4830   77.4561 N   0  0  0  0  0  0  0  0  0  0  0  0
   29.4614   18.1431   77.6361 C   0  0  0  0  0  0  0  0  0  0  0  0
   30.4020   19.0595   77.8467 N   0  0  0  0  0  0  0  0  0  0  0  0
   30.0994   20.3689   77.9107 C   0  0  0  0  0  0  0  0  0  0  0  0
   28.7507   20.7821   77.7413 C   0  0  0  0  0  0  0  0  0  0  0  0
   27.7770   19.7669   77.5053 C   0  0  0  0  0  0  0  0  0  0  0  0
   26.4426   20.0870   77.3391 N   0  0  0  0  0  0  0  0  0  0  0  0
   28.7265   22.1298   77.8579 N   0  0  0  0  0  0  0  0  0  0  0  0
   29.9335   22.5612   78.0838 C   0  0  0  0  0  0  0  0  0  0  0  0
   30.8177   21.5112   78.1247 N   0  0  0  0  0  0  0  0  0  0  0  0
  2  1  1  1  0  0  0
  2  3  1  0  0  0  0
  2  5  1  0  0  0  0
  3  4  1  0  0  0  0
  3 17  1  0  0  0  0
  5  6  1  0  0  0  0
  7  6  1  6  0  0  0
  7  8  1  0  0  0  0
  7  9  1  0  0  0  0
 10  9  1  6  0  0  0
 10 11  1  0  0  0  0
 10 12  1  0  0  0  0
 11 16  1  0  0  0  0
 12 13  1  1  0  0  0
 12 14  1  0  0  0  0
 14 15  1  1  0  0  0
 14 16  1  0  0  0  0
 16 27  1  6  0  0  0
 18 19  2  0  0  0  0
 18 23  1  0  0  0  0
 19 20  1  0  0  0  0
 20 21  2  0  0  0  0
 21 22  1  0  0  0  0
 21 27  1  0  0  0  0
 22 23  2  0  0  0  0
 22 25  1  0  0  0  0
 23 24  1  0  0  0  0
 25 26  2  0  0  0  0
 26 27  1  0  0  0  0
M  END
>  <CHROM.1>
119.99257140,-55.38303746,-175.36268457,-73.20126904,177.18910584,68.28471832
54.35547537,33.14773880,19.90272013,76.30104339,0.73131027,-0.05039892,-1.94279703

>  <Name>
ligand

>  <RI>
0

>  <Rbt.Current_Directory>
/home/itssahil/PROJECTS/Mol_Feturizer/New_Systems/rnas/2QWY

>  <Rbt.Executable>
rbdock ($Id: //depot/dev/client3/rdock/2013.1/src/exe/rbdock.cxx#4 $)

>  <Rbt.Library>
libRbt.so (2013.1, Build901 2013/11/27)

>  <Rbt.Parameter_File>
/export/apps/rDock/src/rDock_2013.1_src/data/scripts/dock_solv.prm

>  <Rbt.Receptor>
prm/pocket_docking_6.prm

>  <SCORE>
-30.841

>  <SCORE.INTER>
-27.2071

>  <SCORE.INTER.CONST>
1

>  <SCORE.INTER.POLAR>
0

>  <SCORE.INTER.ROT>
7

>  <SCORE.INTER.SOLV>
11.7365

>  <SCORE.INTER.VDW>
-30.3169

>  <SCORE.INTER.norm>
-1.00767

>  <SCORE.INTRA>
-3.63396

>  <SCORE.INTRA.DIHEDRAL>
-6.9185

>  <SCORE.INTRA.DIHEDRAL.0>
10.7382

>  <SCORE.INTRA.POLAR>
0

>  <SCORE.INTRA.POLAR.0>
0

>  <SCORE.INTRA.REPUL>
0

>  <SCORE.INTRA.REPUL.0>
0

>  <SCORE.INTRA.SOLV>
-0.398755

>  <SCORE.INTRA.SOLV.lig_0>
-49.2501

>  <SCORE.INTRA.VDW>
0.0246647

>  <SCORE.INTRA.VDW.0>
-1.75368

>  <SCORE.INTRA.norm>
-0.134591

>  <SCORE.RESTR>
0

>  <SCORE.RESTR.CAVITY>
0

>  <SCORE.RESTR.norm>
0

>  <SCORE.SYSTEM>
0

>  <SCORE.SYSTEM.CONST>
0

>  <SCORE.SYSTEM.DIHEDRAL>
0

>  <SCORE.SYSTEM.SOLV>
0

>  <SCORE.SYSTEM.norm>
0

>  <SCORE.heavy>
27

>  <SCORE.norm>
-1.14226

>  <RMSD>
1.953

$$$$
ligand
 OpenBabel11021811463D
libRbt.so/2013.1/901 2013/11/27
 27 29  0  0  0  0  0  0  0  0999 V2000
   35.6369   20.0779   72.5101 N   0  0  0  0  0  0  0  0  0  0  0  0
   36.5962   18.9924   72.7785 C   0  0  2  0  0  0  0  0  0  0  0  0
   37.0244   18.3425   71.4792 C   0  0  0  0  0  0  0  0  0  0  0  0
   38.2018   18.0082   71.3123 O   0  0  0  0  0  0  0  0  0  0  0  0
   35.9285   17.9422   73.6603 C   0  0  0  0  0  0  0  0  0  0  0  0
   36.0919   18.2966   75.1229 C   0  0  0  0  0  0  0  0  0  0  0  0
   34.9916   19.6770   75.4825 S   0  0  2  0  0  0  0  0  0  0  0  0
   36.2127   21.0180   75.4370 C   0  0  0  0  0  0  0  0  0  0  0  0
   34.7800   19.4795   77.2847 C   0  0  0  0  0  0  0  0  0  0  0  0
   34.1939   20.7686   77.8542 C   0  0  1  0  0  0  0  0  0  0  0  0
   32.8743   20.8882   77.3762 O   0  0  0  0  0  0  0  0  0  0  0  0
   34.0886   20.7120   79.3820 C   0  0  1  0  0  0  0  0  0  0  0  0
   35.1856   21.1482   80.1997 O   0  0  0  0  0  0  0  0  0  0  0  0
   32.7187   21.4082   79.6770 C   0  0  1  0  0  0  0  0  0  0  0  0
   32.9181   22.3691   80.7280 O   0  0  0  0  0  0  0  0  0  0  0  0
   32.1978   21.7836   78.2444 C   0  0  2  0  0  0  0  0  0  0  0  0
   36.1884   18.0861   70.6259 O   0  0  0  0  0  0  0  0  0  0  0  0
   28.3815   18.3186   77.5138 N   0  0  0  0  0  0  0  0  0  0  0  0
   29.6955   18.0986   77.6358 C   0  0  0  0  0  0  0  0  0  0  0  0
   30.5565   19.0987   77.8015 N   0  0  0  0  0  0  0  0  0  0  0  0
   30.1380   20.3752   77.8767 C   0  0  0  0  0  0  0  0  0  0  0  0
   28.7509   20.6620   77.7683 C   0  0  0  0  0  0  0  0  0  0  0  0
   27.8648   19.5603   77.5790 C   0  0  0  0  0  0  0  0  0  0  0  0
   26.5005   19.7557   77.4732 N   0  0  0  0  0  0  0  0  0  0  0  0
   28.6082   22.0025   77.8833 N   0  0  0  0  0  0  0  0  0  0  0  0
   29.7795   22.5441   78.0530 C   0  0  0  0  0  0  0  0  0  0  0  0
   30.7574   21.5798   78.0555 N   0  0  0  0  0  0  0  0  0  0  0  0
  2  1  1  6  0  0  0
  2  3  1  0  0  0  0
  2  5  1  0  0  0  0
  3  4  1  0  0  0  0
  3 17  1  0  0  0  0
  5  6  1  0  0  0  0
  7  6  1  1  0  0  0
  7  8  1  0  0  0  0
  7  9  1  0  0  0  0
 10  9  1  6  0  0  0
 10 11  1  0  0  0  0
 10 12  1  0  0  0  0
 11 16  1  0  0  0  0
 12 13  1  1  0  0  0
 12 14  1  0  0  0  0
 14 15  1  1  0  0  0
 14 16  1  0  0  0  0
 16 27  1  1  0  0  0
 18 19  2  0  0  0  0
 18 23  1  0  0  0  0
 19 20  1  0  0  0  0
 20 21  2  0  0  0  0
 21 22  1  0  0  0  0
 21 27  1  0  0  0  0
 22 23  2  0  0  0  0
 22 25  1  0  0  0  0
 23 24  1  0  0  0  0
 25 26  2  0  0  0  0
 26 27  1  0  0  0  0
M  END
>  <CHROM.1>
140.06604092,-87.34834559,73.57601182,-100.73894925,164.49678289,68.28934016
39.52853581,33.06869236,20.01858111,76.46403104,0.70355262,-0.11257007,-2.03239405

>  <Name>
ligand

>  <RI>
0

>  <Rbt.Current_Directory>
/home/itssahil/PROJECTS/Mol_Feturizer/New_Systems/rnas/2QWY

>  <Rbt.Executable>
rbdock ($Id: //depot/dev/client3/rdock/2013.1/src/exe/rbdock.cxx#4 $)

>  <Rbt.Library>
libRbt.so (2013.1, Build901 2013/11/27)

>  <Rbt.Parameter_File>
/export/apps/rDock/src/rDock_2013.1_src/data/scripts/dock_solv.prm

>  <Rbt.Receptor>
prm/pocket_docking_3.prm

>  <SCORE>
-26.1947

>  <SCORE.INTER>
-25.4707

>  <SCORE.INTER.CONST>
1

>  <SCORE.INTER.POLAR>
0

>  <SCORE.INTER.ROT>
7

>  <SCORE.INTER.SOLV>
15.7722

>  <SCORE.INTER.VDW>
-30.5045

>  <SCORE.INTER.norm>
-0.943358

>  <SCORE.INTRA>
-0.724072

>  <SCORE.INTRA.DIHEDRAL>
-1.74541

>  <SCORE.INTRA.DIHEDRAL.0>
10.7382

>  <SCORE.INTRA.POLAR>
0

>  <SCORE.INTRA.POLAR.0>
0

>  <SCORE.INTRA.REPUL>
0

>  <SCORE.INTRA.REPUL.0>
0

>  <SCORE.INTRA.SOLV>
1.65911

>  <SCORE.INTRA.SOLV.lig_0>
-49.2501

>  <SCORE.INTRA.VDW>
-0.680921

>  <SCORE.INTRA.VDW.0>
-1.75368

>  <SCORE.INTRA.norm>
-0.0268175

>  <SCORE.RESTR>
0

>  <SCORE.RESTR.CAVITY>
0

>  <SCORE.RESTR.norm>
0

>  <SCORE.SYSTEM>
0

>  <SCORE.SYSTEM.CONST>
0

>  <SCORE.SYSTEM.DIHEDRAL>
0

>  <SCORE.SYSTEM.SOLV>
0

>  <SCORE.SYSTEM.norm>
0

>  <SCORE.heavy>
27

>  <SCORE.norm>
-0.970176

>  <RMSD>
1.962

$$$$
ligand
 OpenBabel11021811463D
libRbt.so/2013.1/901 2013/11/27
 27 29  0  0  0  0  0  0  0  0999 V2000
   36.0934   20.1342   72.6192 N   0  0  0  0  0  0  0  0  0  0  0  0
   36.7496   18.8387   72.8678 C   0  0  2  0  0  0  0  0  0  0  0  0
   37.0018   18.1225   71.5573 C   0  0  0  0  0  0  0  0  0  0  0  0
   36.0958   18.0176   70.7243 O   0  0  0  0  0  0  0  0  0  0  0  0
   35.8393   17.9759   73.7357 C   0  0  0  0  0  0  0  0  0  0  0  0
   36.0055   18.3336   75.1972 C   0  0  0  0  0  0  0  0  0  0  0  0
   34.9572   19.7582   75.5393 S   0  0  2  0  0  0  0  0  0  0  0  0
   36.2269   21.0526   75.4760 C   0  0  0  0  0  0  0  0  0  0  0  0
   34.7401   19.5921   77.3440 C   0  0  0  0  0  0  0  0  0  0  0  0
   34.1261   20.8804   77.8852 C   0  0  1  0  0  0  0  0  0  0  0  0
   32.8062   20.9638   77.4004 O   0  0  0  0  0  0  0  0  0  0  0  0
   34.0162   20.8527   79.4134 C   0  0  1  0  0  0  0  0  0  0  0  0
   35.1011   21.3272   80.2258 O   0  0  0  0  0  0  0  0  0  0  0  0
   32.6315   21.5271   79.6896 C   0  0  1  0  0  0  0  0  0  0  0  0
   32.8076   22.5129   80.7215 O   0  0  0  0  0  0  0  0  0  0  0  0
   32.1086   21.8628   78.2478 C   0  0  2  0  0  0  0  0  0  0  0  0
   38.1227   17.7115   71.2977 O   0  0  0  0  0  0  0  0  0  0  0  0
   28.3721   18.3119   77.5177 N   0  0  0  0  0  0  0  0  0  0  0  0
   29.6906   18.1218   77.6407 C   0  0  0  0  0  0  0  0  0  0  0  0
   30.5287   19.1412   77.8061 N   0  0  0  0  0  0  0  0  0  0  0  0
   30.0815   20.4079   77.8800 C   0  0  0  0  0  0  0  0  0  0  0  0
   28.6883   20.6632   77.7705 C   0  0  0  0  0  0  0  0  0  0  0  0
   27.8275   19.5417   77.5815 C   0  0  0  0  0  0  0  0  0  0  0  0
   26.4591   19.7061   77.4748 N   0  0  0  0  0  0  0  0  0  0  0  0
   28.5153   22.0003   77.8844 N   0  0  0  0  0  0  0  0  0  0  0  0
   29.6739   22.5683   78.0543 C   0  0  0  0  0  0  0  0  0  0  0  0
   30.6734   21.6264   78.0582 N   0  0  0  0  0  0  0  0  0  0  0  0
  2  1  1  6  0  0  0
  2  3  1  0  0  0  0
  2  5  1  0  0  0  0
  3  4  1  0  0  0  0
  3 17  1  0  0  0  0
  5  6  1  0  0  0  0
  7  6  1  1  0  0  0
  7  8  1  0  0  0  0
  7  9  1  0  0  0  0
 10  9  1  6  0  0  0
 10 11  1  0  0  0  0
 10 12  1  0  0  0  0
 11 16  1  0  0  0  0
 12 13  1  1  0  0  0
 12 14  1  0  0  0  0
 14 15  1  1  0  0  0
 14 16  1  0  0  0  0
 16 27  1  1  0  0  0
 18 19  2  0  0  0  0
 18 23  1  0  0  0  0
 19 20  1  0  0  0  0
 20 21  2  0  0  0  0
 21 22  1  0  0  0  0
 21 27  1  0  0  0  0
 22 23  2  0  0  0  0
 22 25  1  0  0  0  0
 23 24  1  0  0  0  0
 25 26  2  0  0  0  0
 26 27  1  0  0  0  0
M  END
>  <CHROM.1>
-48.50044592,-82.81187793,83.60986186,-100.13680800,167.76322742,68.38548938
38.38909891,33.03370830,20.04272366,76.49577366,0.69803454,-0.12761625,-2.07413230

>  <Name>
ligand

>  <RI>
0

>  <Rbt.Current_Directory>
/home/itssahil/PROJECTS/Mol_Feturizer/New_Systems/rnas/2QWY

>  <Rbt.Executable>
rbdock ($Id: //depot/dev/client3/rdock/2013.1/src/exe/rbdock.cxx#4 $)

>  <Rbt.Library>
libRbt.so (2013.1, Build901 2013/11/27)

>  <Rbt.Parameter_File>
/export/apps/rDock/src/rDock_2013.1_src/data/scripts/dock_solv.prm

>  <Rbt.Receptor>
prm/pocket_docking_3.prm

>  <SCORE>
-26.0077

>  <SCORE.INTER>
-25.464

>  <SCORE.INTER.CONST>
1

>  <SCORE.INTER.POLAR>
0

>  <SCORE.INTER.ROT>
7

>  <SCORE.INTER.SOLV>
14.4695

>  <SCORE.INTER.VDW>
-30.0659

>  <SCORE.INTER.norm>
-0.943113

>  <SCORE.INTRA>
-0.543687

>  <SCORE.INTRA.DIHEDRAL>
-1.19024

>  <SCORE.INTRA.DIHEDRAL.0>
10.7382

>  <SCORE.INTRA.POLAR>
0

>  <SCORE.INTRA.POLAR.0>
0

>  <SCORE.INTRA.REPUL>
0

>  <SCORE.INTRA.REPUL.0>
0

>  <SCORE.INTRA.SOLV>
1.72777

>  <SCORE.INTRA.SOLV.lig_0>
-49.2501

>  <SCORE.INTRA.VDW>
-0.812452

>  <SCORE.INTRA.VDW.0>
-1.75368

>  <SCORE.INTRA.norm>
-0.0201366

>  <SCORE.RESTR>
0

>  <SCORE.RESTR.CAVITY>
0

>  <SCORE.RESTR.norm>
0

>  <SCORE.SYSTEM>
0

>  <SCORE.SYSTEM.CONST>
0

>  <SCORE.SYSTEM.DIHEDRAL>
0

>  <SCORE.SYSTEM.SOLV>
0

>  <SCORE.SYSTEM.norm>
0

>  <SCORE.heavy>
27

>  <SCORE.norm>
-0.963249

>  <RMSD>
1.970

$$$$
ligand
 OpenBabel11021811463D
libRbt.so/2013.1/901 2013/11/27
 27 29  0  0  0  0  0  0  0  0999 V2000
   36.1728   17.0153   72.3537 N   0  0  0  0  0  0  0  0  0  0  0  0
   36.1984   18.4875   72.3037 C   0  0  2  0  0  0  0  0  0  0  0  0
   36.8499   18.9539   71.0184 C   0  0  0  0  0  0  0  0  0  0  0  0
   36.7963   18.2490   70.0055 O   0  0  0  0  0  0  0  0  0  0  0  0
   37.0051   19.0137   73.4864 C   0  0  0  0  0  0  0  0  0  0  0  0
   36.3911   18.5566   74.7923 C   0  0  0  0  0  0  0  0  0  0  0  0
   35.1275   19.7537   75.2568 S   0  0  2  0  0  0  0  0  0  0  0  0
   36.2142   21.0927   75.8202 C   0  0  0  0  0  0  0  0  0  0  0  0
   34.5851   19.0678   76.8590 C   0  0  0  0  0  0  0  0  0  0  0  0
   34.0759   20.2096   77.7346 C   0  0  1  0  0  0  0  0  0  0  0  0
   32.7978   20.5723   77.2667 O   0  0  0  0  0  0  0  0  0  0  0  0
   33.8848   19.7622   79.1877 C   0  0  1  0  0  0  0  0  0  0  0  0
   34.9683   19.8639   80.1247 O   0  0  0  0  0  0  0  0  0  0  0  0
   32.5621   20.4794   79.6170 C   0  0  1  0  0  0  0  0  0  0  0  0
   32.7823   21.1065   80.8921 O   0  0  0  0  0  0  0  0  0  0  0  0
   32.1507   21.2657   78.3219 C   0  0  2  0  0  0  0  0  0  0  0  0
   37.3665   20.0599   70.9680 O   0  0  0  0  0  0  0  0  0  0  0  0
   27.9348   18.3267   77.4896 N   0  0  0  0  0  0  0  0  0  0  0  0
   29.1940   17.9343   77.7135 C   0  0  0  0  0  0  0  0  0  0  0  0
   30.1761   18.8133   77.8919 N   0  0  0  0  0  0  0  0  0  0  0  0
   29.9392   20.1375   77.8775 C   0  0  0  0  0  0  0  0  0  0  0  0
   28.6163   20.6070   77.6588 C   0  0  0  0  0  0  0  0  0  0  0  0
   27.5965   19.6298   77.4599 C   0  0  0  0  0  0  0  0  0  0  0  0
   26.2831   20.0059   77.2497 N   0  0  0  0  0  0  0  0  0  0  0  0
   28.6584   21.9588   77.7003 N   0  0  0  0  0  0  0  0  0  0  0  0
   29.8816   22.3417   77.9260 C   0  0  0  0  0  0  0  0  0  0  0  0
   30.7107   21.2530   78.0424 N   0  0  0  0  0  0  0  0  0  0  0  0
  2  1  1  6  0  0  0
  2  3  1  0  0  0  0
  2  5  1  0  0  0  0
  3  4  1  0  0  0  0
  3 17  1  0  0  0  0
  5  6  1  0  0  0  0
  7  6  1  6  0  0  0
  7  8  1  0  0  0  0
  7  9  1  0  0  0  0
 10  9  1  6  0  0  0
 10 11  1  0  0  0  0
 10 12  1  0  0  0  0
 11 16  1  0  0  0  0
 12 13  1  1  0  0  0
 12 14  1  0  0  0  0
 14 15  1  1  0  0  0
 14 16  1  0  0  0  0
 16 27  1  6  0  0  0
 18 19  2  0  0  0  0
 18 23  1  0  0  0  0
 19 20  1  0  0  0  0
 20 21  2  0  0  0  0
 21 22  1  0  0  0  0
 21 27  1  0  0  0  0
 22 23  2  0  0  0  0
 22 25  1  0  0  0  0
 23 24  1  0  0  0  0
 25 26  2  0  0  0  0
 26 27  1  0  0  0  0
M  END
>  <CHROM.1>
28.23167974,-59.22935550,-86.83952494,-74.97377064,151.72342863,76.09069308
58.21228976,33.01033366,19.79534416,76.31974150,0.69381104,-0.04008161,-1.84865660

>  <Name>
ligand

>  <RI>
0

>  <Rbt.Current_Directory>
/home/itssahil/PROJECTS/Mol_Feturizer/New_Systems/rnas/2QWY

>  <Rbt.Executable>
rbdock ($Id: //depot/dev/client3/rdock/2013.1/src/exe/rbdock.cxx#4 $)

>  <Rbt.Library>
libRbt.so (2013.1, Build901 2013/11/27)

>  <Rbt.Parameter_File>
/export/apps/rDock/src/rDock_2013.1_src/data/scripts/dock_solv.prm

>  <Rbt.Receptor>
prm/pocket_docking_2.prm

>  <SCORE>
-24.8332

>  <SCORE.INTER>
-24.9568

>  <SCORE.INTER.CONST>
1

>  <SCORE.INTER.POLAR>
0

>  <SCORE.INTER.ROT>
7

>  <SCORE.INTER.SOLV>
14.4077

>  <SCORE.INTER.VDW>
-29.7071

>  <SCORE.INTER.norm>
-0.924327

>  <SCORE.INTRA>
-0.725082

>  <SCORE.INTRA.DIHEDRAL>
-3.42129

>  <SCORE.INTRA.DIHEDRAL.0>
10.7382

>  <SCORE.INTRA.POLAR>
0

>  <SCORE.INTRA.POLAR.0>
0

>  <SCORE.INTRA.REPUL>
0

>  <SCORE.INTRA.REPUL.0>
0

>  <SCORE.INTRA.SOLV>
-0.0716075

>  <SCORE.INTRA.SOLV.lig_0>
-49.2501

>  <SCORE.INTRA.VDW>
1.02136

>  <SCORE.INTRA.VDW.0>
-1.75368

>  <SCORE.INTRA.norm>
-0.0268549

>  <SCORE.RESTR>
0.848769

>  <SCORE.RESTR.CAVITY>
0.848769

>  <SCORE.RESTR.norm>
0.0314359

>  <SCORE.SYSTEM>
0

>  <SCORE.SYSTEM.CONST>
0

>  <SCORE.SYSTEM.DIHEDRAL>
0

>  <SCORE.SYSTEM.SOLV>
0

>  <SCORE.SYSTEM.norm>
0

>  <SCORE.heavy>
27

>  <SCORE.norm>
-0.919746

>  <RMSD>
1.984

$$$$
ligand
 OpenBabel11021811463D
libRbt.so/2013.1/901 2013/11/27
 27 29  0  0  0  0  0  0  0  0999 V2000
   38.0073   16.9761   73.3838 N   0  0  0  0  0  0  0  0  0  0  0  0
   36.6707   17.1713   72.7955 C   0  0  2  0  0  0  0  0  0  0  0  0
   36.7769   17.2927   71.2896 C   0  0  0  0  0  0  0  0  0  0  0  0
   37.8810   17.2296   70.7393 O   0  0  0  0  0  0  0  0  0  0  0  0
   36.0617   18.4536   73.3534 C   0  0  0  0  0  0  0  0  0  0  0  0
   35.8712   18.3422   74.8510 C   0  0  0  0  0  0  0  0  0  0  0  0
   34.9251   19.7754   75.3951 S   0  0  2  0  0  0  0  0  0  0  0  0
   36.2740   20.9872   75.4519 C   0  0  0  0  0  0  0  0  0  0  0  0
   34.7375   19.4016   77.1718 C   0  0  0  0  0  0  0  0  0  0  0  0
   34.1899   20.6386   77.8785 C   0  0  1  0  0  0  0  0  0  0  0  0
   32.8931   20.8774   77.3830 O   0  0  0  0  0  0  0  0  0  0  0  0
   34.0322   20.4027   79.3845 C   0  0  1  0  0  0  0  0  0  0  0  0
   35.1197   20.6843   80.2789 O   0  0  0  0  0  0  0  0  0  0  0  0
   32.6850   21.1221   79.7250 C   0  0  1  0  0  0  0  0  0  0  0  0
   32.8917   21.9383   80.8907 O   0  0  0  0  0  0  0  0  0  0  0  0
   32.2283   21.6923   78.3354 C   0  0  2  0  0  0  0  0  0  0  0  0
   35.7614   17.3821   70.6161 O   0  0  0  0  0  0  0  0  0  0  0  0
   28.2345   18.4796   77.4225 N   0  0  0  0  0  0  0  0  0  0  0  0
   29.5254   18.1761   77.5994 C   0  0  0  0  0  0  0  0  0  0  0  0
   30.4403   19.1188   77.8075 N   0  0  0  0  0  0  0  0  0  0  0  0
   30.1010   20.4191   77.8719 C   0  0  0  0  0  0  0  0  0  0  0  0
   28.7408   20.7940   77.7058 C   0  0  0  0  0  0  0  0  0  0  0  0
   27.7955   19.7516   77.4725 C   0  0  0  0  0  0  0  0  0  0  0  0
   26.4521   20.0339   77.3095 N   0  0  0  0  0  0  0  0  0  0  0  0
   28.6788   22.1406   77.8222 N   0  0  0  0  0  0  0  0  0  0  0  0
   29.8737   22.6059   78.0449 C   0  0  0  0  0  0  0  0  0  0  0  0
   30.7873   21.5813   78.0839 N   0  0  0  0  0  0  0  0  0  0  0  0
  2  1  1  1  0  0  0
  2  3  1  0  0  0  0
  2  5  1  0  0  0  0
  3  4  1  0  0  0  0
  3 17  1  0  0  0  0
  5  6  1  0  0  0  0
  7  6  1  6  0  0  0
  7  8  1  0  0  0  0
  7  9  1  0  0  0  0
 10  9  1  6  0  0  0
 10 11  1  0  0  0  0
 10 12  1  0  0  0  0
 11 16  1  0  0  0  0
 12 13  1  1  0  0  0
 12 14  1  0  0  0  0
 14 15  1  1  0  0  0
 14 16  1  0  0  0  0
 16 27  1  6  0  0  0
 18 19  2  0  0  0  0
 18 23  1  0  0  0  0
 19 20  1  0  0  0  0
 20 21  2  0  0  0  0
 21 22  1  0  0  0  0
 21 27  1  0  0  0  0
 22 23  2  0  0  0  0
 22 25  1  0  0  0  0
 23 24  1  0  0  0  0
 25 26  2  0  0  0  0
 26 27  1  0  0  0  0
M  END
>  <CHROM.1>
-0.36165440,-62.74106684,-171.45281576,-80.35008232,169.04456152,65.04131912
46.38937884,33.09155761,19.75033216,76.43367774,-0.74462866,0.02968733,1.07242921

>  <Name>
ligand

>  <RI>
0

>  <Rbt.Current_Directory>
/home/itssahil/PROJECTS/Mol_Feturizer/New_Systems/rnas/2QWY

>  <Rbt.Executable>
rbdock ($Id: //depot/dev/client3/rdock/2013.1/src/exe/rbdock.cxx#4 $)

>  <Rbt.Library>
libRbt.so (2013.1, Build901 2013/11/27)

>  <Rbt.Parameter_File>
/export/apps/rDock/src/rDock_2013.1_src/data/scripts/dock_solv.prm

>  <Rbt.Receptor>
prm/pocket_docking_5.prm

>  <SCORE>
-29.6811

>  <SCORE.INTER>
-25.9442

>  <SCORE.INTER.CONST>
1

>  <SCORE.INTER.POLAR>
0

>  <SCORE.INTER.ROT>
7

>  <SCORE.INTER.SOLV>
11.216

>  <SCORE.INTER.VDW>
-29.3014

>  <SCORE.INTER.norm>
-0.960895

>  <SCORE.INTRA>
-3.7369

>  <SCORE.INTRA.DIHEDRAL>
-6.74574

>  <SCORE.INTRA.DIHEDRAL.0>
10.7382

>  <SCORE.INTRA.POLAR>
0

>  <SCORE.INTRA.POLAR.0>
0

>  <SCORE.INTRA.REPUL>
0

>  <SCORE.INTRA.REPUL.0>
0

>  <SCORE.INTRA.SOLV>
-0.485883

>  <SCORE.INTRA.SOLV.lig_0>
-49.2501

>  <SCORE.INTRA.VDW>
-0.121088

>  <SCORE.INTRA.VDW.0>
-1.75368

>  <SCORE.INTRA.norm>
-0.138404

>  <SCORE.RESTR>
0

>  <SCORE.RESTR.CAVITY>
0

>  <SCORE.RESTR.norm>
0

>  <SCORE.SYSTEM>
0

>  <SCORE.SYSTEM.CONST>
0

>  <SCORE.SYSTEM.DIHEDRAL>
0

>  <SCORE.SYSTEM.SOLV>
0

>  <SCORE.SYSTEM.norm>
0

>  <SCORE.heavy>
27

>  <SCORE.norm>
-1.0993

>  <RMSD>
1.990

$$$$
ligand
 OpenBabel11021811463D
libRbt.so/2013.1/901 2013/11/27
 27 29  0  0  0  0  0  0  0  0999 V2000
   37.1072   17.0134   73.4430 N   0  0  0  0  0  0  0  0  0  0  0  0
   36.3797   17.8629   72.4840 C   0  0  2  0  0  0  0  0  0  0  0  0
   37.3591   18.6303   71.6205 C   0  0  0  0  0  0  0  0  0  0  0  0
   37.0541   18.9415   70.4646 O   0  0  0  0  0  0  0  0  0  0  0  0
   35.5143   18.8561   73.2528 C   0  0  0  0  0  0  0  0  0  0  0  0
   36.3612   19.6676   74.2096 C   0  0  0  0  0  0  0  0  0  0  0  0
   35.2644   20.7708   75.1180 S   0  0  2  0  0  0  0  0  0  0  0  0
   36.5171   21.8647   75.8431 C   0  0  0  0  0  0  0  0  0  0  0  0
   34.8562   19.7290   76.5601 C   0  0  0  0  0  0  0  0  0  0  0  0
   34.2608   20.6138   77.6520 C   0  0  1  0  0  0  0  0  0  0  0  0
   32.9552   20.9644   77.2562 O   0  0  0  0  0  0  0  0  0  0  0  0
   34.1137   19.8536   78.9744 C   0  0  1  0  0  0  0  0  0  0  0  0
   35.1901   19.8399   79.9249 O   0  0  0  0  0  0  0  0  0  0  0  0
   32.7395   20.3549   79.5300 C   0  0  1  0  0  0  0  0  0  0  0  0
   32.9147   20.7118   80.9118 O   0  0  0  0  0  0  0  0  0  0  0  0
   32.2595   21.3633   78.4266 C   0  0  2  0  0  0  0  0  0  0  0  0
   38.4224   19.0014   72.0941 O   0  0  0  0  0  0  0  0  0  0  0  0
   28.1990   18.2705   77.4017 N   0  0  0  0  0  0  0  0  0  0  0  0
   29.4743   17.9285   77.6169 C   0  0  0  0  0  0  0  0  0  0  0  0
   30.4108   18.8437   77.8503 N   0  0  0  0  0  0  0  0  0  0  0  0
   30.1092   20.1538   77.9027 C   0  0  0  0  0  0  0  0  0  0  0  0
   28.7664   20.5692   77.6962 C   0  0  0  0  0  0  0  0  0  0  0  0
   27.7973   19.5553   77.4368 C   0  0  0  0  0  0  0  0  0  0  0  0
   26.4685   19.8776   77.2340 N   0  0  0  0  0  0  0  0  0  0  0  0
   28.7418   21.9173   77.8086 N   0  0  0  0  0  0  0  0  0  0  0  0
   29.9432   22.3469   78.0656 C   0  0  0  0  0  0  0  0  0  0  0  0
   30.8239   21.2953   78.1330 N   0  0  0  0  0  0  0  0  0  0  0  0
  2  1  1  1  0  0  0
  2  3  1  0  0  0  0
  2  5  1  0  0  0  0
  3  4  1  0  0  0  0
  3 17  1  0  0  0  0
  5  6  1  0  0  0  0
  7  6  1  6  0  0  0
  7  8  1  0  0  0  0
  7  9  1  0  0  0  0
 10  9  1  6  0  0  0
 10 11  1  0  0  0  0
 10 12  1  0  0  0  0
 11 16  1  0  0  0  0
 12 13  1  1  0  0  0
 12 14  1  0  0  0  0
 14 15  1  1  0  0  0
 14 16  1  0  0  0  0
 16 27  1  6  0  0  0
 18 19  2  0  0  0  0
 18 23  1  0  0  0  0
 19 20  1  0  0  0  0
 20 21  2  0  0  0  0
 21 22  1  0  0  0  0
 21 27  1  0  0  0  0
 22 23  2  0  0  0  0
 22 25  1  0  0  0  0
 23 24  1  0  0  0  0
 25 26  2  0  0  0  0
 26 27  1  0  0  0  0
M  END
>  <CHROM.1>
150.02988226,56.12129380,-178.01519529,-166.77211819,163.83581583,73.58347795
67.68469699,33.19988053,19.92684722,76.38512791,0.62645436,-0.10013297,-1.93112026

>  <Name>
ligand

>  <RI>
0

>  <Rbt.Current_Directory>
/home/itssahil/PROJECTS/Mol_Feturizer/New_Systems/rnas/2QWY

>  <Rbt.Executable>
rbdock ($Id: //depot/dev/client3/rdock/2013.1/src/exe/rbdock.cxx#4 $)

>  <Rbt.Library>
libRbt.so (2013.1, Build901 2013/11/27)

>  <Rbt.Parameter_File>
/export/apps/rDock/src/rDock_2013.1_src/data/scripts/dock_solv.prm

>  <Rbt.Receptor>
prm/pocket_docking_2.prm

>  <SCORE>
-25.2259

>  <SCORE.INTER>
-23.4137

>  <SCORE.INTER.CONST>
1

>  <SCORE.INTER.POLAR>
0

>  <SCORE.INTER.ROT>
7

>  <SCORE.INTER.SOLV>
13.0499

>  <SCORE.INTER.VDW>
-28.2257

>  <SCORE.INTER.norm>
-0.867174

>  <SCORE.INTRA>
-2.96468

>  <SCORE.INTRA.DIHEDRAL>
-5.5255

>  <SCORE.INTRA.DIHEDRAL.0>
10.7382

>  <SCORE.INTRA.POLAR>
0

>  <SCORE.INTRA.POLAR.0>
0

>  <SCORE.INTRA.REPUL>
0

>  <SCORE.INTRA.REPUL.0>
0

>  <SCORE.INTRA.SOLV>
-0.415954

>  <SCORE.INTRA.SOLV.lig_0>
-49.2501

>  <SCORE.INTRA.VDW>
0.00604975

>  <SCORE.INTRA.VDW.0>
-1.75368

>  <SCORE.INTRA.norm>
-0.109803

>  <SCORE.RESTR>
1.15247

>  <SCORE.RESTR.CAVITY>
1.15247

>  <SCORE.RESTR.norm>
0.0426841

>  <SCORE.SYSTEM>
0

>  <SCORE.SYSTEM.CONST>
0

>  <SCORE.SYSTEM.DIHEDRAL>
0

>  <SCORE.SYSTEM.SOLV>
0

>  <SCORE.SYSTEM.norm>
0

>  <SCORE.heavy>
27

>  <SCORE.norm>
-0.934293

>  <RMSD>
1.997

$$$$
ligand
 OpenBabel11021811463D
libRbt.so/2013.1/901 2013/11/27
 27 29  0  0  0  0  0  0  0  0999 V2000
   37.2239   19.6521   72.0377 N   0  0  0  0  0  0  0  0  0  0  0  0
   37.8521   19.3712   73.3404 C   0  0  2  0  0  0  0  0  0  0  0  0
   39.3589   19.3265   73.1933 C   0  0  0  0  0  0  0  0  0  0  0  0
   40.0834   19.5480   74.1689 O   0  0  0  0  0  0  0  0  0  0  0  0
   37.3644   18.0185   73.8489 C   0  0  0  0  0  0  0  0  0  0  0  0
   37.9038   17.7482   75.2373 C   0  0  0  0  0  0  0  0  0  0  0  0
   37.2489   19.0136   76.3397 S   0  0  2  0  0  0  0  0  0  0  0  0
   37.9011   18.3738   77.9072 C   0  0  0  0  0  0  0  0  0  0  0  0
   35.5062   18.4850   76.4631 C   0  0  0  0  0  0  0  0  0  0  0  0
   34.6995   19.6026   77.1187 C   0  0  1  0  0  0  0  0  0  0  0  0
   33.3378   19.3657   76.8468 O   0  0  0  0  0  0  0  0  0  0  0  0
   34.8385   19.5762   78.6446 C   0  0  1  0  0  0  0  0  0  0  0  0
   35.8950   20.3059   79.2877 O   0  0  0  0  0  0  0  0  0  0  0  0
   33.3948   19.9118   79.1461 C   0  0  1  0  0  0  0  0  0  0  0  0
   33.4937   20.9290   80.1575 O   0  0  0  0  0  0  0  0  0  0  0  0
   32.5899   20.0906   77.8101 C   0  0  2  0  0  0  0  0  0  0  0  0
   39.8536   19.0016   72.1245 O   0  0  0  0  0  0  0  0  0  0  0  0
   27.4830   21.0594   77.5175 N   0  0  0  0  0  0  0  0  0  0  0  0
   28.5010   21.9252   77.4550 C   0  0  0  0  0  0  0  0  0  0  0  0
   29.7643   21.5239   77.5649 N   0  0  0  0  0  0  0  0  0  0  0  0
   30.0728   20.2236   77.7209 C   0  0  0  0  0  0  0  0  0  0  0  0
   29.0294   19.2612   77.7781 C   0  0  0  0  0  0  0  0  0  0  0  0
   27.6893   19.7373   77.6685 C   0  0  0  0  0  0  0  0  0  0  0  0
   26.6192   18.8631   77.7062 N   0  0  0  0  0  0  0  0  0  0  0  0
   29.6101   18.0486   77.9297 N   0  0  0  0  0  0  0  0  0  0  0  0
   30.9028   18.1951   77.9657 C   0  0  0  0  0  0  0  0  0  0  0  0
   31.2384   19.5210   77.8412 N   0  0  0  0  0  0  0  0  0  0  0  0
  2  1  1  6  0  0  0
  2  3  1  0  0  0  0
  2  5  1  0  0  0  0
  3  4  1  0  0  0  0
  3 17  1  0  0  0  0
  5  6  1  0  0  0  0
  7  6  1  6  0  0  0
  7  8  1  0  0  0  0
  7  9  1  0  0  0  0
 10  9  1  6  0  0  0
 10 11  1  0  0  0  0
 10 12  1  0  0  0  0
 11 16  1  0  0  0  0
 12 13  1  6  0  0  0
 12 14  1  0  0  0  0
 14 15  1  6  0  0  0
 14 16  1  0  0  0  0
 16 27  1  1  0  0  0
 18 19  2  0  0  0  0
 18 23  1  0  0  0  0
 19 20  1  0  0  0  0
 20 21  2  0  0  0  0
 21 22  1  0  0  0  0
 21 27  1  0  0  0  0
 22 23  2  0  0  0  0
 22 25  1  0  0  0  0
 23 24  1  0  0  0  0
 25 26  2  0  0  0  0
 26 27  1  0  0  0  0
M  END
>  <CHROM.1>
155.93903792,-175.45143588,62.62819807,174.89626647,-167.88253488,162.60331435
-128.00433370,34.00481874,19.47795951,76.66417983,0.37509870,0.07127511,-1.65863569

>  <Name>
ligand

>  <RI>
0

>  <Rbt.Current_Directory>
/home/itssahil/PROJECTS/Mol_Feturizer/New_Systems/rnas/2QWY

>  <Rbt.Executable>
rbdock ($Id: //depot/dev/client3/rdock/2013.1/src/exe/rbdock.cxx#4 $)

>  <Rbt.Library>
libRbt.so (2013.1, Build901 2013/11/27)

>  <Rbt.Parameter_File>
/export/apps/rDock/src/rDock_2013.1_src/data/scripts/dock_solv.prm

>  <Rbt.Receptor>
prm/pocket_docking_4.prm

>  <SCORE>
-24.1405

>  <SCORE.INTER>
-20.9355

>  <SCORE.INTER.CONST>
1

>  <SCORE.INTER.POLAR>
0

>  <SCORE.INTER.ROT>
7

>  <SCORE.INTER.SOLV>
13.7177

>  <SCORE.INTER.VDW>
-26.7962

>  <SCORE.INTER.norm>
-0.77539

>  <SCORE.INTRA>
-3.20498

>  <SCORE.INTRA.DIHEDRAL>
-5.2944

>  <SCORE.INTRA.DIHEDRAL.0>
10.7382

>  <SCORE.INTRA.POLAR>
0

>  <SCORE.INTRA.POLAR.0>
0

>  <SCORE.INTRA.REPUL>
0

>  <SCORE.INTRA.REPUL.0>
0

>  <SCORE.INTRA.SOLV>
-0.674005

>  <SCORE.INTRA.SOLV.lig_0>
-49.2501

>  <SCORE.INTRA.VDW>
-0.220779

>  <SCORE.INTRA.VDW.0>
-1.75368

>  <SCORE.INTRA.norm>
-0.118703

>  <SCORE.RESTR>
0

>  <SCORE.RESTR.CAVITY>
0

>  <SCORE.RESTR.norm>
0

>  <SCORE.SYSTEM>
0

>  <SCORE.SYSTEM.CONST>
0

>  <SCORE.SYSTEM.DIHEDRAL>
0

>  <SCORE.SYSTEM.SOLV>
0

>  <SCORE.SYSTEM.norm>
0

>  <SCORE.heavy>
27

>  <SCORE.norm>
-0.894093

>  <RMSD>
2.014

$$$$
ligand
 OpenBabel11021811463D
libRbt.so/2013.1/901 2013/11/27
 27 29  0  0  0  0  0  0  0  0999 V2000
   36.6427   17.2731   72.5072 N   0  0  0  0  0  0  0  0  0  0  0  0
   36.1140   18.4492   71.7944 C   0  0  2  0  0  0  0  0  0  0  0  0
   37.0525   18.8440   70.6730 C   0  0  0  0  0  0  0  0  0  0  0  0
   38.0646   19.5086   70.9173 O   0  0  0  0  0  0  0  0  0  0  0  0
   35.9939   19.6137   72.7720 C   0  0  0  0  0  0  0  0  0  0  0  0
   35.0837   19.2467   73.9245 C   0  0  0  0  0  0  0  0  0  0  0  0
   35.5279   20.2822   75.3300 S   0  0  2  0  0  0  0  0  0  0  0  0
   37.2209   19.6825   75.5864 C   0  0  0  0  0  0  0  0  0  0  0  0
   34.6582   19.4124   76.6786 C   0  0  0  0  0  0  0  0  0  0  0  0
   34.1190   20.4471   77.6626 C   0  0  1  0  0  0  0  0  0  0  0  0
   32.8235   20.8059   77.2414 O   0  0  0  0  0  0  0  0  0  0  0  0
   33.9604   19.8578   79.0683 C   0  0  1  0  0  0  0  0  0  0  0  0
   35.0502   19.9098   80.0019 O   0  0  0  0  0  0  0  0  0  0  0  0
   32.6181   20.4829   79.5742 C   0  0  1  0  0  0  0  0  0  0  0  0
   32.8306   20.9942   80.9012 O   0  0  0  0  0  0  0  0  0  0  0  0
   32.1645   21.3725   78.3628 C   0  0  2  0  0  0  0  0  0  0  0  0
   36.8423   18.4433   69.5382 O   0  0  0  0  0  0  0  0  0  0  0  0
   28.0171   18.3622   77.4456 N   0  0  0  0  0  0  0  0  0  0  0  0
   29.2879   17.9935   77.6428 C   0  0  0  0  0  0  0  0  0  0  0  0
   30.2490   18.8895   77.8490 N   0  0  0  0  0  0  0  0  0  0  0  0
   29.9783   20.2068   77.8908 C   0  0  0  0  0  0  0  0  0  0  0  0
   28.6419   20.6505   77.7025 C   0  0  0  0  0  0  0  0  0  0  0  0
   27.6455   19.6562   77.4721 C   0  0  0  0  0  0  0  0  0  0  0  0
   26.3210   20.0065   77.2884 N   0  0  0  0  0  0  0  0  0  0  0  0
   28.6500   22.0000   77.7991 N   0  0  0  0  0  0  0  0  0  0  0  0
   29.8652   22.4048   78.0301 C   0  0  0  0  0  0  0  0  0  0  0  0
   30.7227   21.3341   78.0949 N   0  0  0  0  0  0  0  0  0  0  0  0
  2  1  1  1  0  0  0
  2  3  1  0  0  0  0
  2  5  1  0  0  0  0
  3  4  1  0  0  0  0
  3 17  1  0  0  0  0
  5  6  1  0  0  0  0
  7  6  1  6  0  0  0
  7  8  1  0  0  0  0
  7  9  1  0  0  0  0
 10  9  1  6  0  0  0
 10 11  1  0  0  0  0
 10 12  1  0  0  0  0
 11 16  1  0  0  0  0
 12 13  1  1  0  0  0
 12 14  1  0  0  0  0
 14 15  1  1  0  0  0
 14 16  1  0  0  0  0
 16 27  1  6  0  0  0
 18 19  2  0  0  0  0
 18 23  1  0  0  0  0
 19 20  1  0  0  0  0
 20 21  2  0  0  0  0
 21 22  1  0  0  0  0
 21 27  1  0  0  0  0
 22 23  2  0  0  0  0
 22 25  1  0  0  0  0
 23 24  1  0  0  0  0
 25 26  2  0  0  0  0
 26 27  1  0  0  0  0
M  END
>  <CHROM.1>
-80.59686344,-58.61894724,155.64654619,-63.52843731,-143.29809997,89.86771727
61.35654344,33.07770542,19.87125122,76.20479407,0.71700568,-0.03958868,-1.83379802

>  <Name>
ligand

>  <RI>
0

>  <Rbt.Current_Directory>
/home/itssahil/PROJECTS/Mol_Feturizer/New_Systems/rnas/2QWY

>  <Rbt.Executable>
rbdock ($Id: //depot/dev/client3/rdock/2013.1/src/exe/rbdock.cxx#4 $)

>  <Rbt.Library>
libRbt.so (2013.1, Build901 2013/11/27)

>  <Rbt.Parameter_File>
/export/apps/rDock/src/rDock_2013.1_src/data/scripts/dock_solv.prm

>  <Rbt.Receptor>
prm/pocket_docking_2.prm

>  <SCORE>
-23.9856

>  <SCORE.INTER>
-26.0795

>  <SCORE.INTER.CONST>
1

>  <SCORE.INTER.POLAR>
0

>  <SCORE.INTER.ROT>
7

>  <SCORE.INTER.SOLV>
14.2023

>  <SCORE.INTER.VDW>
-30.3871

>  <SCORE.INTER.norm>
-0.965907

>  <SCORE.INTRA>
0.930064

>  <SCORE.INTRA.DIHEDRAL>
0.688704

>  <SCORE.INTRA.DIHEDRAL.0>
10.7382

>  <SCORE.INTRA.POLAR>
0

>  <SCORE.INTRA.POLAR.0>
0

>  <SCORE.INTRA.REPUL>
0

>  <SCORE.INTRA.REPUL.0>
0

>  <SCORE.INTRA.SOLV>
0.296371

>  <SCORE.INTRA.SOLV.lig_0>
-49.2501

>  <SCORE.INTRA.VDW>
0.437526

>  <SCORE.INTRA.VDW.0>
-1.75368

>  <SCORE.INTRA.norm>
0.0344468

>  <SCORE.RESTR>
1.16383

>  <SCORE.RESTR.CAVITY>
1.16383

>  <SCORE.RESTR.norm>
0.0431049

>  <SCORE.SYSTEM>
0

>  <SCORE.SYSTEM.CONST>
0

>  <SCORE.SYSTEM.DIHEDRAL>
0

>  <SCORE.SYSTEM.SOLV>
0

>  <SCORE.SYSTEM.norm>
0

>  <SCORE.heavy>
27

>  <SCORE.norm>
-0.888356

>  <RMSD>
2.060

$$$$
ligand
 OpenBabel11021811463D
libRbt.so/2013.1/901 2013/11/27
 27 29  0  0  0  0  0  0  0  0999 V2000
   36.3444   19.8065   72.6656 N   0  0  0  0  0  0  0  0  0  0  0  0
   36.9337   18.6126   73.2964 C   0  0  2  0  0  0  0  0  0  0  0  0
   36.6472   17.3848   72.4571 C   0  0  0  0  0  0  0  0  0  0  0  0
   35.9181   16.4900   72.8971 O   0  0  0  0  0  0  0  0  0  0  0  0
   36.3173   18.4220   74.6784 C   0  0  0  0  0  0  0  0  0  0  0  0
   36.6400   19.6018   75.5702 C   0  0  0  0  0  0  0  0  0  0  0  0
   35.7202   19.4006   77.1061 S   0  0  2  0  0  0  0  0  0  0  0  0
   34.0465   19.6673   76.4586 C   0  0  0  0  0  0  0  0  0  0  0  0
   36.0317   21.0142   77.9002 C   0  0  0  0  0  0  0  0  0  0  0  0
   35.0432   21.1949   79.0490 C   0  0  1  0  0  0  0  0  0  0  0  0
   33.7853   21.4939   78.4900 O   0  0  0  0  0  0  0  0  0  0  0  0
   34.8578   19.8963   79.8412 C   0  0  1  0  0  0  0  0  0  0  0  0
   35.7118   19.6014   80.9575 O   0  0  0  0  0  0  0  0  0  0  0  0
   33.3242   19.8763   80.1510 C   0  0  1  0  0  0  0  0  0  0  0  0
   33.1497   19.5738   81.5459 O   0  0  0  0  0  0  0  0  0  0  0  0
   32.8110   21.1987   79.4783 C   0  0  2  0  0  0  0  0  0  0  0  0
   37.0818   17.3154   71.3174 O   0  0  0  0  0  0  0  0  0  0  0  0
   29.1702   17.9194   77.7192 N   0  0  0  0  0  0  0  0  0  0  0  0
   30.3268   17.6329   78.3275 C   0  0  0  0  0  0  0  0  0  0  0  0
   31.1700   18.5893   78.7062 N   0  0  0  0  0  0  0  0  0  0  0  0
   30.8832   19.8895   78.5134 C   0  0  0  0  0  0  0  0  0  0  0  0
   29.6605   20.2485   77.8854 C   0  0  0  0  0  0  0  0  0  0  0  0
   28.7921   19.1903   77.4845 C   0  0  0  0  0  0  0  0  0  0  0  0
   27.5805   19.4576   76.8752 N   0  0  0  0  0  0  0  0  0  0  0  0
   29.6227   21.5996   77.8239 N   0  0  0  0  0  0  0  0  0  0  0  0
   30.7066   22.0824   78.3586 C   0  0  0  0  0  0  0  0  0  0  0  0
   31.5177   21.0654   78.7990 N   0  0  0  0  0  0  0  0  0  0  0  0
  2  1  1  6  0  0  0
  2  3  1  0  0  0  0
  2  5  1  0  0  0  0
  3  4  1  0  0  0  0
  3 17  1  0  0  0  0
  5  6  1  0  0  0  0
  7  6  1  6  0  0  0
  7  8  1  0  0  0  0
  7  9  1  0  0  0  0
 10  9  1  6  0  0  0
 10 11  1  0  0  0  0
 10 12  1  0  0  0  0
 11 16  1  0  0  0  0
 12 13  1  1  0  0  0
 12 14  1  0  0  0  0
 14 15  1  1  0  0  0
 14 16  1  0  0  0  0
 16 27  1  6  0  0  0
 18 19  2  0  0  0  0
 18 23  1  0  0  0  0
 19 20  1  0  0  0  0
 20 21  2  0  0  0  0
 21 22  1  0  0  0  0
 21 27  1  0  0  0  0
 22 23  2  0  0  0  0
 22 25  1  0  0  0  0
 23 24  1  0  0  0  0
 25 26  2  0  0  0  0
 26 27  1  0  0  0  0
M  END
>  <CHROM.1>
-114.04122919,-62.48401970,173.29124993,-68.92829340,165.19555385,-74.86885246
103.15041490,33.53494608,19.53695452,77.17396244,0.76352583,-0.04796262,-1.94066189

>  <Name>
ligand

>  <RI>
0

>  <Rbt.Current_Directory>
/home/itssahil/PROJECTS/Mol_Feturizer/New_Systems/rnas/2QWY

>  <Rbt.Executable>
rbdock ($Id: //depot/dev/client3/rdock/2013.1/src/exe/rbdock.cxx#4 $)

>  <Rbt.Library>
libRbt.so (2013.1, Build901 2013/11/27)

>  <Rbt.Parameter_File>
/export/apps/rDock/src/rDock_2013.1_src/data/scripts/dock_solv.prm

>  <Rbt.Receptor>
prm/pocket_docking_2.prm

>  <SCORE>
-15.3758

>  <SCORE.INTER>
-16.1862

>  <SCORE.INTER.CONST>
1

>  <SCORE.INTER.POLAR>
0

>  <SCORE.INTER.ROT>
7

>  <SCORE.INTER.SOLV>
18.4963

>  <SCORE.INTER.VDW>
-25.2229

>  <SCORE.INTER.norm>
-0.59949

>  <SCORE.INTRA>
0.0186245

>  <SCORE.INTRA.DIHEDRAL>
-6.50836

>  <SCORE.INTRA.DIHEDRAL.0>
10.7382

>  <SCORE.INTRA.POLAR>
0

>  <SCORE.INTRA.POLAR.0>
0

>  <SCORE.INTRA.REPUL>
0

>  <SCORE.INTRA.REPUL.0>
0

>  <SCORE.INTRA.SOLV>
0.209529

>  <SCORE.INTRA.SOLV.lig_0>
-49.2501

>  <SCORE.INTRA.VDW>
3.16804

>  <SCORE.INTRA.VDW.0>
-1.75368

>  <SCORE.INTRA.norm>
0.000689795

>  <SCORE.RESTR>
0.791836

>  <SCORE.RESTR.CAVITY>
0.791836

>  <SCORE.RESTR.norm>
0.0293272

>  <SCORE.SYSTEM>
0

>  <SCORE.SYSTEM.CONST>
0

>  <SCORE.SYSTEM.DIHEDRAL>
0

>  <SCORE.SYSTEM.SOLV>
0

>  <SCORE.SYSTEM.norm>
0

>  <SCORE.heavy>
27

>  <SCORE.norm>
-0.569473

>  <RMSD>
2.063

$$$$
ligand
 OpenBabel11021811463D
libRbt.so/2013.1/901 2013/11/27
 27 29  0  0  0  0  0  0  0  0999 V2000
   38.6318   19.0040   72.0077 N   0  0  0  0  0  0  0  0  0  0  0  0
   37.7443   18.1317   72.7965 C   0  0  2  0  0  0  0  0  0  0  0  0
   36.5161   17.7698   71.9876 C   0  0  0  0  0  0  0  0  0  0  0  0
   36.2147   16.5843   71.8155 O   0  0  0  0  0  0  0  0  0  0  0  0
   37.3065   18.8722   74.0561 C   0  0  0  0  0  0  0  0  0  0  0  0
   36.5768   17.9356   74.9950 C   0  0  0  0  0  0  0  0  0  0  0  0
   35.3004   18.8853   75.8402 S   0  0  2  0  0  0  0  0  0  0  0  0
   34.5797   19.7173   74.3980 C   0  0  0  0  0  0  0  0  0  0  0  0
   36.2988   20.2419   76.5434 C   0  0  0  0  0  0  0  0  0  0  0  0
   35.6115   20.7532   77.8066 C   0  0  1  0  0  0  0  0  0  0  0  0
   34.2851   21.0863   77.4690 O   0  0  0  0  0  0  0  0  0  0  0  0
   35.5155   19.6603   78.8766 C   0  0  1  0  0  0  0  0  0  0  0  0
   36.5757   19.4850   79.8291 O   0  0  0  0  0  0  0  0  0  0  0  0
   34.0944   19.8805   79.4933 C   0  0  1  0  0  0  0  0  0  0  0  0
   34.2181   19.8720   80.9259 O   0  0  0  0  0  0  0  0  0  0  0  0
   33.5406   21.1017   78.6766 C   0  0  2  0  0  0  0  0  0  0  0  0
   35.7863   18.6544   71.5661 O   0  0  0  0  0  0  0  0  0  0  0  0
   29.6197   17.9022   77.4545 N   0  0  0  0  0  0  0  0  0  0  0  0
   30.8946   17.5955   77.7195 C   0  0  0  0  0  0  0  0  0  0  0  0
   31.7930   18.5351   78.0003 N   0  0  0  0  0  0  0  0  0  0  0  0
   31.4507   19.8352   78.0523 C   0  0  0  0  0  0  0  0  0  0  0  0
   30.1059   20.2133   77.7939 C   0  0  0  0  0  0  0  0  0  0  0  0
   29.1789   19.1742   77.4849 C   0  0  0  0  0  0  0  0  0  0  0  0
   27.8506   19.4595   77.2298 N   0  0  0  0  0  0  0  0  0  0  0  0
   30.0366   21.5588   77.9178 N   0  0  0  0  0  0  0  0  0  0  0  0
   31.2130   22.0207   78.2286 C   0  0  0  0  0  0  0  0  0  0  0  0
   32.1210   20.9947   78.3228 N   0  0  0  0  0  0  0  0  0  0  0  0
  2  1  1  6  0  0  0
  2  3  1  0  0  0  0
  2  5  1  0  0  0  0
  3  4  1  0  0  0  0
  3 17  1  0  0  0  0
  5  6  1  0  0  0  0
  7  6  1  6  0  0  0
  7  8  1  0  0  0  0
  7  9  1  0  0  0  0
 10  9  1  6  0  0  0
 10 11  1  0  0  0  0
 10 12  1  0  0  0  0
 11 16  1  0  0  0  0
 12 13  1  1  0  0  0
 12 14  1  0  0  0  0
 14 15  1  1  0  0  0
 14 16  1  0  0  0  0
 16 27  1  6  0  0  0
 18 19  2  0  0  0  0
 18 23  1  0  0  0  0
 19 20  1  0  0  0  0
 20 21  2  0  0  0  0
 21 22  1  0  0  0  0
 21 27  1  0  0  0  0
 22 23  2  0  0  0  0
 22 25  1  0  0  0  0
 23 24  1  0  0  0  0
 25 26  2  0  0  0  0
 26 27  1  0  0  0  0
M  END
>  <CHROM.1>
125.18539271,-170.99445554,-146.02351041,47.86435526,-152.37046240,-54.03397861
82.82860584,33.97937825,19.40313318,76.49870877,-0.74833597,0.04477754,1.22583996

>  <Name>
ligand

>  <RI>
0

>  <Rbt.Current_Directory>
/home/itssahil/PROJECTS/Mol_Feturizer/New_Systems/rnas/2QWY

>  <Rbt.Executable>
rbdock ($Id: //depot/dev/client3/rdock/2013.1/src/exe/rbdock.cxx#4 $)

>  <Rbt.Library>
libRbt.so (2013.1, Build901 2013/11/27)

>  <Rbt.Parameter_File>
/export/apps/rDock/src/rDock_2013.1_src/data/scripts/dock_solv.prm

>  <Rbt.Receptor>
prm/pocket_docking_2.prm

>  <SCORE>
-14.3655

>  <SCORE.INTER>
-16.5692

>  <SCORE.INTER.CONST>
1

>  <SCORE.INTER.POLAR>
0

>  <SCORE.INTER.ROT>
7

>  <SCORE.INTER.SOLV>
17.9625

>  <SCORE.INTER.VDW>
-25.3003

>  <SCORE.INTER.norm>
-0.613675

>  <SCORE.INTRA>
1.43163

>  <SCORE.INTRA.DIHEDRAL>
-0.807359

>  <SCORE.INTRA.DIHEDRAL.0>
10.7382

>  <SCORE.INTRA.POLAR>
0

>  <SCORE.INTRA.POLAR.0>
0

>  <SCORE.INTRA.REPUL>
0

>  <SCORE.INTRA.REPUL.0>
0

>  <SCORE.INTRA.SOLV>
-0.967925

>  <SCORE.INTRA.SOLV.lig_0>
-49.2501

>  <SCORE.INTRA.VDW>
2.31928

>  <SCORE.INTRA.VDW.0>
-1.75368

>  <SCORE.INTRA.norm>
0.0530235

>  <SCORE.RESTR>
0.772036

>  <SCORE.RESTR.CAVITY>
0.772036

>  <SCORE.RESTR.norm>
0.0285939

>  <SCORE.SYSTEM>
0

>  <SCORE.SYSTEM.CONST>
0

>  <SCORE.SYSTEM.DIHEDRAL>
0

>  <SCORE.SYSTEM.SOLV>
0

>  <SCORE.SYSTEM.norm>
0

>  <SCORE.heavy>
27

>  <SCORE.norm>
-0.532057

>  <RMSD>
2.084

$$$$
ligand
 OpenBabel11021811463D
libRbt.so/2013.1/901 2013/11/27
 27 29  0  0  0  0  0  0  0  0999 V2000
   37.0631   16.9689   73.1697 N   0  0  0  0  0  0  0  0  0  0  0  0
   36.4389   18.2664   72.8576 C   0  0  2  0  0  0  0  0  0  0  0  0
   37.3291   19.0621   71.9258 C   0  0  0  0  0  0  0  0  0  0  0  0
   38.5575   19.0026   72.0416 O   0  0  0  0  0  0  0  0  0  0  0  0
   36.2478   19.0528   74.1505 C   0  0  0  0  0  0  0  0  0  0  0  0
   35.4955   20.3387   73.8826 C   0  0  0  0  0  0  0  0  0  0  0  0
   35.4182   21.2647   75.4259 S   0  0  2  0  0  0  0  0  0  0  0  0
   37.1928   21.3207   75.7995 C   0  0  0  0  0  0  0  0  0  0  0  0
   34.8760   19.9567   76.5778 C   0  0  0  0  0  0  0  0  0  0  0  0
   34.2316   20.6120   77.7963 C   0  0  1  0  0  0  0  0  0  0  0  0
   32.9535   21.0647   77.4148 O   0  0  0  0  0  0  0  0  0  0  0  0
   34.0044   19.6005   78.9249 C   0  0  1  0  0  0  0  0  0  0  0  0
   35.0272   19.3691   79.9061 O   0  0  0  0  0  0  0  0  0  0  0  0
   32.6075   20.0074   79.5007 C   0  0  1  0  0  0  0  0  0  0  0  0
   32.7110   20.0699   80.9335 O   0  0  0  0  0  0  0  0  0  0  0  0
   32.1994   21.2305   78.6051 C   0  0  2  0  0  0  0  0  0  0  0  0
   36.8305   19.7065   71.0154 O   0  0  0  0  0  0  0  0  0  0  0  0
   28.0157   18.4074   77.3280 N   0  0  0  0  0  0  0  0  0  0  0  0
   29.2527   17.9839   77.6117 C   0  0  0  0  0  0  0  0  0  0  0  0
   30.2305   18.8365   77.9049 N   0  0  0  0  0  0  0  0  0  0  0  0
   30.0099   20.1628   77.9513 C   0  0  0  0  0  0  0  0  0  0  0  0
   28.7100   20.6639   77.6731 C   0  0  0  0  0  0  0  0  0  0  0  0
   27.6949   19.7149   77.3513 C   0  0  0  0  0  0  0  0  0  0  0  0
   26.4027   20.1221   77.0768 N   0  0  0  0  0  0  0  0  0  0  0  0
   28.7644   22.0102   77.7953 N   0  0  0  0  0  0  0  0  0  0  0  0
   29.9741   22.3613   78.1229 C   0  0  0  0  0  0  0  0  0  0  0  0
   30.7812   21.2554   78.2308 N   0  0  0  0  0  0  0  0  0  0  0  0
  2  1  1  1  0  0  0
  2  3  1  0  0  0  0
  2  5  1  0  0  0  0
  3  4  1  0  0  0  0
  3 17  1  0  0  0  0
  5  6  1  0  0  0  0
  7  6  1  6  0  0  0
  7  8  1  0  0  0  0
  7  9  1  0  0  0  0
 10  9  1  6  0  0  0
 10 11  1  0  0  0  0
 10 12  1  0  0  0  0
 11 16  1  0  0  0  0
 12 13  1  1  0  0  0
 12 14  1  0  0  0  0
 14 15  1  1  0  0  0
 14 16  1  0  0  0  0
 16 27  1  6  0  0  0
 18 19  2  0  0  0  0
 18 23  1  0  0  0  0
 19 20  1  0  0  0  0
 20 21  2  0  0  0  0
 21 22  1  0  0  0  0
 21 27  1  0  0  0  0
 22 23  2  0  0  0  0
 22 25  1  0  0  0  0
 23 24  1  0  0  0  0
 25 26  2  0  0  0  0
 26 27  1  0  0  0  0
M  END
>  <CHROM.1>
-36.13314156,-174.90960603,-175.83260137,54.81019969,-158.08273035,75.24561600
79.46535164,33.17428881,20.00193115,76.47356438,0.58022139,-0.05049289,-1.81429112

>  <Name>
ligand

>  <RI>
0

>  <Rbt.Current_Directory>
/home/itssahil/PROJECTS/Mol_Feturizer/New_Systems/rnas/2QWY

>  <Rbt.Executable>
rbdock ($Id: //depot/dev/client3/rdock/2013.1/src/exe/rbdock.cxx#4 $)

>  <Rbt.Library>
libRbt.so (2013.1, Build901 2013/11/27)

>  <Rbt.Parameter_File>
/export/apps/rDock/src/rDock_2013.1_src/data/scripts/dock_solv.prm

>  <Rbt.Receptor>
prm/pocket_docking_2.prm

>  <SCORE>
-23.3278

>  <SCORE.INTER>
-24.6373

>  <SCORE.INTER.CONST>
1

>  <SCORE.INTER.POLAR>
0

>  <SCORE.INTER.ROT>
7

>  <SCORE.INTER.SOLV>
13.018

>  <SCORE.INTER.VDW>
-29.0309

>  <SCORE.INTER.norm>
-0.912493

>  <SCORE.INTRA>
-0.286846

>  <SCORE.INTRA.DIHEDRAL>
-4.07474

>  <SCORE.INTRA.DIHEDRAL.0>
10.7382

>  <SCORE.INTRA.POLAR>
0

>  <SCORE.INTRA.POLAR.0>
0

>  <SCORE.INTRA.REPUL>
0

>  <SCORE.INTRA.REPUL.0>
0

>  <SCORE.INTRA.SOLV>
-1.24137

>  <SCORE.INTRA.SOLV.lig_0>
-49.2501

>  <SCORE.INTRA.VDW>
2.37121

>  <SCORE.INTRA.VDW.0>
-1.75368

>  <SCORE.INTRA.norm>
-0.0106239

>  <SCORE.RESTR>
1.59635

>  <SCORE.RESTR.CAVITY>
1.59635

>  <SCORE.RESTR.norm>
0.0591241

>  <SCORE.SYSTEM>
0

>  <SCORE.SYSTEM.CONST>
0

>  <SCORE.SYSTEM.DIHEDRAL>
0

>  <SCORE.SYSTEM.SOLV>
0

>  <SCORE.SYSTEM.norm>
0

>  <SCORE.heavy>
27

>  <SCORE.norm>
-0.863993

>  <RMSD>
2.087

$$$$
ligand
 OpenBabel11021811463D
libRbt.so/2013.1/901 2013/11/27
 27 29  0  0  0  0  0  0  0  0999 V2000
   38.2326   18.1551   72.6936 N   0  0  0  0  0  0  0  0  0  0  0  0
   37.3099   19.0660   71.9940 C   0  0  2  0  0  0  0  0  0  0  0  0
   38.0505   19.8320   70.9176 C   0  0  0  0  0  0  0  0  0  0  0  0
   37.4769   20.1337   69.8660 O   0  0  0  0  0  0  0  0  0  0  0  0
   36.7307   20.0580   72.9974 C   0  0  0  0  0  0  0  0  0  0  0  0
   36.0379   19.3262   74.1270 C   0  0  0  0  0  0  0  0  0  0  0  0
   35.3149   20.5600   75.2226 S   0  0  2  0  0  0  0  0  0  0  0  0
   36.8471   21.2390   75.9174 C   0  0  0  0  0  0  0  0  0  0  0  0
   34.7621   19.5027   76.6039 C   0  0  0  0  0  0  0  0  0  0  0  0
   34.2426   20.3952   77.7277 C   0  0  1  0  0  0  0  0  0  0  0  0
   32.9874   20.8973   77.3320 O   0  0  0  0  0  0  0  0  0  0  0  0
   33.9946   19.5963   79.0117 C   0  0  1  0  0  0  0  0  0  0  0  0
   35.0471   19.4282   79.9742 O   0  0  0  0  0  0  0  0  0  0  0  0
   32.6703   20.2129   79.5723 C   0  0  1  0  0  0  0  0  0  0  0  0
   32.8574   20.4876   80.9713 O   0  0  0  0  0  0  0  0  0  0  0  0
   32.3165   21.3139   78.5106 C   0  0  2  0  0  0  0  0  0  0  0  0
   39.1937   20.2114   71.1220 O   0  0  0  0  0  0  0  0  0  0  0  0
   27.9514   18.7022   77.4022 N   0  0  0  0  0  0  0  0  0  0  0  0
   29.1771   18.2181   77.6327 C   0  0  0  0  0  0  0  0  0  0  0  0
   30.2065   19.0211   77.8871 N   0  0  0  0  0  0  0  0  0  0  0  0
   30.0526   20.3563   77.9461 C   0  0  0  0  0  0  0  0  0  0  0  0
   28.7680   20.9209   77.7239 C   0  0  0  0  0  0  0  0  0  0  0  0
   27.6955   20.0236   77.4423 C   0  0  0  0  0  0  0  0  0  0  0  0
   26.4143   20.4940   77.2233 N   0  0  0  0  0  0  0  0  0  0  0  0
   28.8926   22.2625   77.8472 N   0  0  0  0  0  0  0  0  0  0  0  0
   30.1305   22.5531   78.1249 C   0  0  0  0  0  0  0  0  0  0  0  0
   30.8869   21.4090   78.1960 N   0  0  0  0  0  0  0  0  0  0  0  0
  2  1  1  1  0  0  0
  2  3  1  0  0  0  0
  2  5  1  0  0  0  0
  3  4  1  0  0  0  0
  3 17  1  0  0  0  0
  5  6  1  0  0  0  0
  7  6  1  6  0  0  0
  7  8  1  0  0  0  0
  7  9  1  0  0  0  0
 10  9  1  6  0  0  0
 10 11  1  0  0  0  0
 10 12  1  0  0  0  0
 11 16  1  0  0  0  0
 12 13  1  1  0  0  0
 12 14  1  0  0  0  0
 14 15  1  1  0  0  0
 14 16  1  0  0  0  0
 16 27  1  6  0  0  0
 18 19  2  0  0  0  0
 18 23  1  0  0  0  0
 19 20  1  0  0  0  0
 20 21  2  0  0  0  0
 21 22  1  0  0  0  0
 21 27  1  0  0  0  0
 22 23  2  0  0  0  0
 22 25  1  0  0  0  0
 23 24  1  0  0  0  0
 25 26  2  0  0  0  0
 26 27  1  0  0  0  0
M  END
>  <CHROM.1>
146.00764846,-57.04574470,-177.30765092,-69.62268180,173.98544831,74.08806932
69.90314145,33.35650604,20.18082452,76.28159074,0.63872627,0.02274982,-1.64323026

>  <Name>
ligand

>  <RI>
0

>  <Rbt.Current_Directory>
/home/itssahil/PROJECTS/Mol_Feturizer/New_Systems/rnas/2QWY

>  <Rbt.Executable>
rbdock ($Id: //depot/dev/client3/rdock/2013.1/src/exe/rbdock.cxx#4 $)

>  <Rbt.Library>
libRbt.so (2013.1, Build901 2013/11/27)

>  <Rbt.Parameter_File>
/export/apps/rDock/src/rDock_2013.1_src/data/scripts/dock_solv.prm

>  <Rbt.Receptor>
prm/pocket_docking_7.prm

>  <SCORE>
-31.547

>  <SCORE.INTER>
-27.9428

>  <SCORE.INTER.CONST>
1

>  <SCORE.INTER.POLAR>
0

>  <SCORE.INTER.ROT>
7

>  <SCORE.INTER.SOLV>
12.9112

>  <SCORE.INTER.VDW>
-31.1989

>  <SCORE.INTER.norm>
-1.03492

>  <SCORE.INTRA>
-3.60421

>  <SCORE.INTRA.DIHEDRAL>
-6.84561

>  <SCORE.INTRA.DIHEDRAL.0>
10.7382

>  <SCORE.INTRA.POLAR>
0

>  <SCORE.INTRA.POLAR.0>
0

>  <SCORE.INTRA.REPUL>
0

>  <SCORE.INTRA.REPUL.0>
0

>  <SCORE.INTRA.SOLV>
-0.374888

>  <SCORE.INTRA.SOLV.lig_0>
-49.2501

>  <SCORE.INTRA.VDW>
0.00603942

>  <SCORE.INTRA.VDW.0>
-1.75368

>  <SCORE.INTRA.norm>
-0.133489

>  <SCORE.RESTR>
0

>  <SCORE.RESTR.CAVITY>
0

>  <SCORE.RESTR.norm>
0

>  <SCORE.SYSTEM>
0

>  <SCORE.SYSTEM.CONST>
0

>  <SCORE.SYSTEM.DIHEDRAL>
0

>  <SCORE.SYSTEM.SOLV>
0

>  <SCORE.SYSTEM.norm>
0

>  <SCORE.heavy>
27

>  <SCORE.norm>
-1.16841

>  <RMSD>
2.141

$$$$
ligand
 OpenBabel11021811463D
libRbt.so/2013.1/901 2013/11/27
 27 29  0  0  0  0  0  0  0  0999 V2000
   37.4222   21.0934   72.3253 N   0  0  0  0  0  0  0  0  0  0  0  0
   38.0293   19.8131   72.7290 C   0  0  2  0  0  0  0  0  0  0  0  0
   37.2825   18.6590   72.0931 C   0  0  0  0  0  0  0  0  0  0  0  0
   36.1581   18.8375   71.6140 O   0  0  0  0  0  0  0  0  0  0  0  0
   37.9488   19.6784   74.2461 C   0  0  0  0  0  0  0  0  0  0  0  0
   36.5106   19.7644   74.7105 C   0  0  0  0  0  0  0  0  0  0  0  0
   36.4559   19.2487   76.4357 S   0  0  2  0  0  0  0  0  0  0  0  0
   36.8614   17.4949   76.2091 C   0  0  0  0  0  0  0  0  0  0  0  0
   34.6529   19.1427   76.6995 C   0  0  0  0  0  0  0  0  0  0  0  0
   34.2139   20.3192   77.5672 C   0  0  1  0  0  0  0  0  0  0  0  0
   32.9145   20.6869   77.1665 O   0  0  0  0  0  0  0  0  0  0  0  0
   34.1062   19.9206   79.0430 C   0  0  1  0  0  0  0  0  0  0  0  0
   35.2464   20.0349   79.9085 O   0  0  0  0  0  0  0  0  0  0  0  0
   32.8221   20.6714   79.5286 C   0  0  1  0  0  0  0  0  0  0  0  0
   33.1286   21.3346   80.7671 O   0  0  0  0  0  0  0  0  0  0  0  0
   32.3428   21.4230   78.2363 C   0  0  2  0  0  0  0  0  0  0  0  0
   37.8248   17.5688   71.9927 O   0  0  0  0  0  0  0  0  0  0  0  0
   28.0816   18.5310   77.4726 N   0  0  0  0  0  0  0  0  0  0  0  0
   29.3520   18.1288   77.5925 C   0  0  0  0  0  0  0  0  0  0  0  0
   30.3438   18.9975   77.7678 N   0  0  0  0  0  0  0  0  0  0  0  0
   30.1073   20.3191   77.8551 C   0  0  0  0  0  0  0  0  0  0  0  0
   28.7738   20.7975   77.7495 C   0  0  0  0  0  0  0  0  0  0  0  0
   27.7431   19.8320   77.5497 C   0  0  0  0  0  0  0  0  0  0  0  0
   26.4194   20.2167   77.4458 N   0  0  0  0  0  0  0  0  0  0  0  0
   28.8193   22.1437   77.8774 N   0  0  0  0  0  0  0  0  0  0  0  0
   30.0544   22.5150   78.0522 C   0  0  0  0  0  0  0  0  0  0  0  0
   30.8883   21.4238   78.0455 N   0  0  0  0  0  0  0  0  0  0  0  0
  2  1  1  1  0  0  0
  2  3  1  0  0  0  0
  2  5  1  0  0  0  0
  3  4  1  0  0  0  0
  3 17  1  0  0  0  0
  5  6  1  0  0  0  0
  7  6  1  6  0  0  0
  7  8  1  0  0  0  0
  7  9  1  0  0  0  0
 10  9  1  6  0  0  0
 10 11  1  0  0  0  0
 10 12  1  0  0  0  0
 11 16  1  0  0  0  0
 12 13  1  1  0  0  0
 12 14  1  0  0  0  0
 14 15  1  1  0  0  0
 14 16  1  0  0  0  0
 16 27  1  6  0  0  0
 18 19  2  0  0  0  0
 18 23  1  0  0  0  0
 19 20  1  0  0  0  0
 20 21  2  0  0  0  0
 21 22  1  0  0  0  0
 21 27  1  0  0  0  0
 22 23  2  0  0  0  0
 22 25  1  0  0  0  0
 23 24  1  0  0  0  0
 25 26  2  0  0  0  0
 26 27  1  0  0  0  0
M  END
>  <CHROM.1>
-16.35962619,57.80657203,168.00999748,-68.05992657,-107.05961893,147.06793221
52.53947191,33.40727877,19.89365551,76.58347786,0.54287081,0.02642003,-1.81469531

>  <Name>
ligand

>  <RI>
0

>  <Rbt.Current_Directory>
/home/itssahil/PROJECTS/Mol_Feturizer/New_Systems/rnas/2QWY

>  <Rbt.Executable>
rbdock ($Id: //depot/dev/client3/rdock/2013.1/src/exe/rbdock.cxx#4 $)

>  <Rbt.Library>
libRbt.so (2013.1, Build901 2013/11/27)

>  <Rbt.Parameter_File>
/export/apps/rDock/src/rDock_2013.1_src/data/scripts/dock_solv.prm

>  <Rbt.Receptor>
prm/pocket_docking_5.prm

>  <SCORE>
-23.694

>  <SCORE.INTER>
-23.0799

>  <SCORE.INTER.CONST>
1

>  <SCORE.INTER.POLAR>
0

>  <SCORE.INTER.ROT>
7

>  <SCORE.INTER.SOLV>
13.7639

>  <SCORE.INTER.VDW>
-28.2413

>  <SCORE.INTER.norm>
-0.854813

>  <SCORE.INTRA>
-0.614102

>  <SCORE.INTRA.DIHEDRAL>
-0.978912

>  <SCORE.INTRA.DIHEDRAL.0>
10.7382

>  <SCORE.INTRA.POLAR>
0

>  <SCORE.INTRA.POLAR.0>
0

>  <SCORE.INTRA.REPUL>
0

>  <SCORE.INTRA.REPUL.0>
0

>  <SCORE.INTRA.SOLV>
-0.43627

>  <SCORE.INTRA.SOLV.lig_0>
-49.2501

>  <SCORE.INTRA.VDW>
0.0934887

>  <SCORE.INTRA.VDW.0>
-1.75368

>  <SCORE.INTRA.norm>
-0.0227445

>  <SCORE.RESTR>
0

>  <SCORE.RESTR.CAVITY>
0

>  <SCORE.RESTR.norm>
0

>  <SCORE.SYSTEM>
0

>  <SCORE.SYSTEM.CONST>
0

>  <SCORE.SYSTEM.DIHEDRAL>
0

>  <SCORE.SYSTEM.SOLV>
0

>  <SCORE.SYSTEM.norm>
0

>  <SCORE.heavy>
27

>  <SCORE.norm>
-0.877557

>  <RMSD>
2.142

$$$$
ligand
 OpenBabel11021811463D
libRbt.so/2013.1/901 2013/11/27
 27 29  0  0  0  0  0  0  0  0999 V2000
   36.9766   17.5868   71.5915 N   0  0  0  0  0  0  0  0  0  0  0  0
   36.9424   19.0216   71.2586 C   0  0  2  0  0  0  0  0  0  0  0  0
   38.3159   19.6324   71.4446 C   0  0  0  0  0  0  0  0  0  0  0  0
   38.6405   20.6348   70.8000 O   0  0  0  0  0  0  0  0  0  0  0  0
   35.9579   19.7264   72.1861 C   0  0  0  0  0  0  0  0  0  0  0  0
   36.1492   19.2618   73.6140 C   0  0  0  0  0  0  0  0  0  0  0  0
   35.2257   20.3771   74.6857 S   0  0  2  0  0  0  0  0  0  0  0  0
   36.5465   21.5688   75.0420 C   0  0  0  0  0  0  0  0  0  0  0  0
   35.2127   19.4191   76.2393 C   0  0  0  0  0  0  0  0  0  0  0  0
   34.7755   20.3366   77.3780 C   0  0  1  0  0  0  0  0  0  0  0  0
   33.4799   20.8024   77.0808 O   0  0  0  0  0  0  0  0  0  0  0  0
   34.6591   19.5738   78.7021 C   0  0  1  0  0  0  0  0  0  0  0  0
   35.7958   19.4557   79.5717 O   0  0  0  0  0  0  0  0  0  0  0  0
   33.3765   20.1828   79.3597 C   0  0  1  0  0  0  0  0  0  0  0  0
   33.6806   20.5048   80.7278 O   0  0  0  0  0  0  0  0  0  0  0  0
   32.9069   21.2432   78.3016 C   0  0  2  0  0  0  0  0  0  0  0  0
   39.0743   19.1726   72.2849 O   0  0  0  0  0  0  0  0  0  0  0  0
   28.5374   18.5241   77.5160 N   0  0  0  0  0  0  0  0  0  0  0  0
   29.7914   18.0724   77.6303 C   0  0  0  0  0  0  0  0  0  0  0  0
   30.8160   18.9007   77.8125 N   0  0  0  0  0  0  0  0  0  0  0  0
   30.6304   20.2295   77.9129 C   0  0  0  0  0  0  0  0  0  0  0  0
   29.3161   20.7596   77.8136 C   0  0  0  0  0  0  0  0  0  0  0  0
   28.2490   19.8363   77.6059 C   0  0  0  0  0  0  0  0  0  0  0  0
   26.9409   20.2724   77.5074 N   0  0  0  0  0  0  0  0  0  0  0  0
   29.4133   22.1018   77.9543 N   0  0  0  0  0  0  0  0  0  0  0  0
   30.6619   22.4238   78.1310 C   0  0  0  0  0  0  0  0  0  0  0  0
   31.4534   21.3016   78.1127 N   0  0  0  0  0  0  0  0  0  0  0  0
  2  1  1  1  0  0  0
  2  3  1  0  0  0  0
  2  5  1  0  0  0  0
  3  4  1  0  0  0  0
  3 17  1  0  0  0  0
  5  6  1  0  0  0  0
  7  6  1  6  0  0  0
  7  8  1  0  0  0  0
  7  9  1  0  0  0  0
 10  9  1  6  0  0  0
 10 11  1  0  0  0  0
 10 12  1  0  0  0  0
 11 16  1  0  0  0  0
 12 13  1  1  0  0  0
 12 14  1  0  0  0  0
 14 15  1  1  0  0  0
 14 16  1  0  0  0  0
 16 27  1  6  0  0  0
 18 19  2  0  0  0  0
 18 23  1  0  0  0  0
 19 20  1  0  0  0  0
 20 21  2  0  0  0  0
 21 22  1  0  0  0  0
 21 27  1  0  0  0  0
 22 23  2  0  0  0  0
 22 25  1  0  0  0  0
 23 24  1  0  0  0  0
 25 26  2  0  0  0  0
 26 27  1  0  0  0  0
M  END
>  <CHROM.1>
153.92134750,44.64028809,167.79044586,-91.80182651,166.11131086,60.45518850
66.96052236,33.67916190,20.05173208,76.12770876,0.67320898,-0.03872323,-1.73806664

>  <Name>
ligand

>  <RI>
0

>  <Rbt.Current_Directory>
/home/itssahil/PROJECTS/Mol_Feturizer/New_Systems/rnas/2QWY

>  <Rbt.Executable>
rbdock ($Id: //depot/dev/client3/rdock/2013.1/src/exe/rbdock.cxx#4 $)

>  <Rbt.Library>
libRbt.so (2013.1, Build901 2013/11/27)

>  <Rbt.Parameter_File>
/export/apps/rDock/src/rDock_2013.1_src/data/scripts/dock_solv.prm

>  <Rbt.Receptor>
prm/pocket_docking_3.prm

>  <SCORE>
-30.1045

>  <SCORE.INTER>
-27.68

>  <SCORE.INTER.CONST>
1

>  <SCORE.INTER.POLAR>
0

>  <SCORE.INTER.ROT>
7

>  <SCORE.INTER.SOLV>
15.216

>  <SCORE.INTER.VDW>
-31.792

>  <SCORE.INTER.norm>
-1.02518

>  <SCORE.INTRA>
-2.42454

>  <SCORE.INTRA.DIHEDRAL>
-4.75899

>  <SCORE.INTRA.DIHEDRAL.0>
10.7382

>  <SCORE.INTRA.POLAR>
0

>  <SCORE.INTRA.POLAR.0>
0

>  <SCORE.INTRA.REPUL>
0

>  <SCORE.INTRA.REPUL.0>
0

>  <SCORE.INTRA.SOLV>
-0.293491

>  <SCORE.INTRA.SOLV.lig_0>
-49.2501

>  <SCORE.INTRA.VDW>
0.1017

>  <SCORE.INTRA.VDW.0>
-1.75368

>  <SCORE.INTRA.norm>
-0.0897978

>  <SCORE.RESTR>
0

>  <SCORE.RESTR.CAVITY>
0

>  <SCORE.RESTR.norm>
0

>  <SCORE.SYSTEM>
0

>  <SCORE.SYSTEM.CONST>
0

>  <SCORE.SYSTEM.DIHEDRAL>
0

>  <SCORE.SYSTEM.SOLV>
0

>  <SCORE.SYSTEM.norm>
0

>  <SCORE.heavy>
27

>  <SCORE.norm>
-1.11498

>  <RMSD>
2.163

$$$$
ligand
 OpenBabel11021811463D
libRbt.so/2013.1/901 2013/11/27
 27 29  0  0  0  0  0  0  0  0999 V2000
   36.0513   18.3563   71.3078 N   0  0  0  0  0  0  0  0  0  0  0  0
   36.5912   18.6285   72.6514 C   0  0  2  0  0  0  0  0  0  0  0  0
   36.4500   17.4014   73.5280 C   0  0  0  0  0  0  0  0  0  0  0  0
   36.9699   17.3772   74.6482 O   0  0  0  0  0  0  0  0  0  0  0  0
   35.8105   19.7780   73.2802 C   0  0  0  0  0  0  0  0  0  0  0  0
   36.6546   20.4875   74.3172 C   0  0  0  0  0  0  0  0  0  0  0  0
   35.5485   21.4462   75.3673 S   0  0  2  0  0  0  0  0  0  0  0  0
   36.7964   22.3609   76.3147 C   0  0  0  0  0  0  0  0  0  0  0  0
   35.0626   20.1811   76.5900 C   0  0  0  0  0  0  0  0  0  0  0  0
   34.4296   20.8774   77.7916 C   0  0  1  0  0  0  0  0  0  0  0  0
   33.1399   21.2990   77.4133 O   0  0  0  0  0  0  0  0  0  0  0  0
   34.2331   19.9097   78.9635 C   0  0  1  0  0  0  0  0  0  0  0  0
   35.2742   19.7303   79.9363 O   0  0  0  0  0  0  0  0  0  0  0  0
   32.8406   20.3229   79.5454 C   0  0  1  0  0  0  0  0  0  0  0  0
   32.9661   20.4445   80.9726 O   0  0  0  0  0  0  0  0  0  0  0  0
   32.4029   21.5039   78.6082 C   0  0  2  0  0  0  0  0  0  0  0  0
   35.7616   16.4647   73.1522 O   0  0  0  0  0  0  0  0  0  0  0  0
   28.2590   18.5857   77.4180 N   0  0  0  0  0  0  0  0  0  0  0  0
   29.5088   18.1900   77.6846 C   0  0  0  0  0  0  0  0  0  0  0  0
   30.4733   19.0647   77.9562 N   0  0  0  0  0  0  0  0  0  0  0  0
   30.2259   20.3865   77.9970 C   0  0  0  0  0  0  0  0  0  0  0  0
   28.9116   20.8585   77.7363 C   0  0  0  0  0  0  0  0  0  0  0  0
   27.9114   19.8865   77.4373 C   0  0  0  0  0  0  0  0  0  0  0  0
   26.6068   20.2649   77.1809 N   0  0  0  0  0  0  0  0  0  0  0  0
   28.9399   22.2066   77.8483 N   0  0  0  0  0  0  0  0  0  0  0  0
   30.1471   22.5849   78.1540 C   0  0  0  0  0  0  0  0  0  0  0  0
   30.9787   21.4967   78.2566 N   0  0  0  0  0  0  0  0  0  0  0  0
  2  1  1  6  0  0  0
  2  3  1  0  0  0  0
  2  5  1  0  0  0  0
  3  4  1  0  0  0  0
  3 17  1  0  0  0  0
  5  6  1  0  0  0  0
  7  6  1  6  0  0  0
  7  8  1  0  0  0  0
  7  9  1  0  0  0  0
 10  9  1  6  0  0  0
 10 11  1  0  0  0  0
 10 12  1  0  0  0  0
 11 16  1  0  0  0  0
 12 13  1  1  0  0  0
 12 14  1  0  0  0  0
 14 15  1  1  0  0  0
 14 16  1  0  0  0  0
 16 27  1  6  0  0  0
 18 19  2  0  0  0  0
 18 23  1  0  0  0  0
 19 20  1  0  0  0  0
 20 21  2  0  0  0  0
 21 22  1  0  0  0  0
 21 27  1  0  0  0  0
 22 23  2  0  0  0  0
 22 25  1  0  0  0  0
 23 24  1  0  0  0  0
 25 26  2  0  0  0  0
 26 27  1  0  0  0  0
M  END
>  <CHROM.1>
172.34943238,-154.82946344,-162.08360969,-171.84116099,164.54078786,74.45402365
77.49615192,33.16307975,20.05299202,76.66972268,0.57028690,-0.12700258,-2.09586009

>  <Name>
ligand

>  <RI>
0

>  <Rbt.Current_Directory>
/home/itssahil/PROJECTS/Mol_Feturizer/New_Systems/rnas/2QWY

>  <Rbt.Executable>
rbdock ($Id: //depot/dev/client3/rdock/2013.1/src/exe/rbdock.cxx#4 $)

>  <Rbt.Library>
libRbt.so (2013.1, Build901 2013/11/27)

>  <Rbt.Parameter_File>
/export/apps/rDock/src/rDock_2013.1_src/data/scripts/dock_solv.prm

>  <Rbt.Receptor>
prm/pocket_docking_3.prm

>  <SCORE>
-27.3053

>  <SCORE.INTER>
-24.7358

>  <SCORE.INTER.CONST>
1

>  <SCORE.INTER.POLAR>
0

>  <SCORE.INTER.ROT>
7

>  <SCORE.INTER.SOLV>
16.5964

>  <SCORE.INTER.VDW>
-30.2894

>  <SCORE.INTER.norm>
-0.916141

>  <SCORE.INTRA>
-2.56954

>  <SCORE.INTRA.DIHEDRAL>
-2.60655

>  <SCORE.INTRA.DIHEDRAL.0>
10.7382

>  <SCORE.INTRA.POLAR>
0

>  <SCORE.INTRA.POLAR.0>
0

>  <SCORE.INTRA.REPUL>
0

>  <SCORE.INTRA.REPUL.0>
0

>  <SCORE.INTRA.SOLV>
-1.17808

>  <SCORE.INTRA.SOLV.lig_0>
-49.2501

>  <SCORE.INTRA.VDW>
-0.677223

>  <SCORE.INTRA.VDW.0>
-1.75368

>  <SCORE.INTRA.norm>
-0.0951681

>  <SCORE.RESTR>
0

>  <SCORE.RESTR.CAVITY>
0

>  <SCORE.RESTR.norm>
0

>  <SCORE.SYSTEM>
0

>  <SCORE.SYSTEM.CONST>
0

>  <SCORE.SYSTEM.DIHEDRAL>
0

>  <SCORE.SYSTEM.SOLV>
0

>  <SCORE.SYSTEM.norm>
0

>  <SCORE.heavy>
27

>  <SCORE.norm>
-1.01131

>  <RMSD>
2.169

$$$$
ligand
 OpenBabel11021811463D
libRbt.so/2013.1/901 2013/11/27
 27 29  0  0  0  0  0  0  0  0999 V2000
   37.5095   18.1714   72.9116 N   0  0  0  0  0  0  0  0  0  0  0  0
   36.6986   19.1596   72.1791 C   0  0  2  0  0  0  0  0  0  0  0  0
   37.5992   20.1299   71.4433 C   0  0  0  0  0  0  0  0  0  0  0  0
   37.1158   21.1138   70.8740 O   0  0  0  0  0  0  0  0  0  0  0  0
   35.8407   19.9368   73.1722 C   0  0  0  0  0  0  0  0  0  0  0  0
   36.7148   20.6878   74.1537 C   0  0  0  0  0  0  0  0  0  0  0  0
   35.6334   21.5723   75.2911 S   0  0  2  0  0  0  0  0  0  0  0  0
   36.9029   22.4298   76.2631 C   0  0  0  0  0  0  0  0  0  0  0  0
   35.1827   20.2292   76.4420 C   0  0  0  0  0  0  0  0  0  0  0  0
   34.5552   20.8429   77.6908 C   0  0  1  0  0  0  0  0  0  0  0  0
   33.2617   21.2835   77.3491 O   0  0  0  0  0  0  0  0  0  0  0  0
   34.3698   19.7997   78.7979 C   0  0  1  0  0  0  0  0  0  0  0  0
   35.4178   19.5608   79.7501 O   0  0  0  0  0  0  0  0  0  0  0  0
   32.9797   20.1685   79.4144 C   0  0  1  0  0  0  0  0  0  0  0  0
   33.1142   20.1967   80.8457 O   0  0  0  0  0  0  0  0  0  0  0  0
   32.5318   21.4068   78.5595 C   0  0  2  0  0  0  0  0  0  0  0  0
   38.8106   19.9746   71.4748 O   0  0  0  0  0  0  0  0  0  0  0  0
   28.3377   18.5388   77.4245 N   0  0  0  0  0  0  0  0  0  0  0  0
   29.5833   18.1272   77.6869 C   0  0  0  0  0  0  0  0  0  0  0  0
   30.5623   18.9902   77.9437 N   0  0  0  0  0  0  0  0  0  0  0  0
   30.3347   20.3158   77.9732 C   0  0  0  0  0  0  0  0  0  0  0  0
   29.0258   20.8047   77.7166 C   0  0  0  0  0  0  0  0  0  0  0  0
   28.0094   19.8447   77.4335 C   0  0  0  0  0  0  0  0  0  0  0  0
   26.7089   20.2399   77.1819 N   0  0  0  0  0  0  0  0  0  0  0  0
   29.0747   22.1532   77.8153 N   0  0  0  0  0  0  0  0  0  0  0  0
   30.2893   22.5166   78.1095 C   0  0  0  0  0  0  0  0  0  0  0  0
   31.1055   21.4173   78.2172 N   0  0  0  0  0  0  0  0  0  0  0  0
  2  1  1  1  0  0  0
  2  3  1  0  0  0  0
  2  5  1  0  0  0  0
  3  4  1  0  0  0  0
  3 17  1  0  0  0  0
  5  6  1  0  0  0  0
  7  6  1  6  0  0  0
  7  8  1  0  0  0  0
  7  9  1  0  0  0  0
 10  9  1  6  0  0  0
 10 11  1  0  0  0  0
 10 12  1  0  0  0  0
 11 16  1  0  0  0  0
 12 13  1  1  0  0  0
 12 14  1  0  0  0  0
 14 15  1  1  0  0  0
 14 16  1  0  0  0  0
 16 27  1  6  0  0  0
 18 19  2  0  0  0  0
 18 23  1  0  0  0  0
 19 20  1  0  0  0  0
 20 21  2  0  0  0  0
 21 22  1  0  0  0  0
 21 27  1  0  0  0  0
 22 23  2  0  0  0  0
 22 25  1  0  0  0  0
 23 24  1  0  0  0  0
 25 26  2  0  0  0  0
 26 27  1  0  0  0  0
M  END
>  <CHROM.1>
-172.98253443,61.50828537,-179.82727864,-177.05119914,165.57663592,73.61591583
81.93584935,33.47416837,20.42255351,76.36476249,0.61347623,-0.08720720,-1.69621544

>  <Name>
ligand

>  <RI>
0

>  <Rbt.Current_Directory>
/home/itssahil/PROJECTS/Mol_Feturizer/New_Systems/rnas/2QWY

>  <Rbt.Executable>
rbdock ($Id: //depot/dev/client3/rdock/2013.1/src/exe/rbdock.cxx#4 $)

>  <Rbt.Library>
libRbt.so (2013.1, Build901 2013/11/27)

>  <Rbt.Parameter_File>
/export/apps/rDock/src/rDock_2013.1_src/data/scripts/dock_solv.prm

>  <Rbt.Receptor>
prm/pocket_docking_8.prm

>  <SCORE>
-31.2641

>  <SCORE.INTER>
-28.3822

>  <SCORE.INTER.CONST>
1

>  <SCORE.INTER.POLAR>
0

>  <SCORE.INTER.ROT>
7

>  <SCORE.INTER.SOLV>
12.6004

>  <SCORE.INTER.VDW>
-31.3883

>  <SCORE.INTER.norm>
-1.05119

>  <SCORE.INTRA>
-2.88189

>  <SCORE.INTRA.DIHEDRAL>
-6.32142

>  <SCORE.INTRA.DIHEDRAL.0>
10.7382

>  <SCORE.INTRA.POLAR>
0

>  <SCORE.INTRA.POLAR.0>
0

>  <SCORE.INTRA.REPUL>
0

>  <SCORE.INTRA.REPUL.0>
0

>  <SCORE.INTRA.SOLV>
-0.486637

>  <SCORE.INTRA.SOLV.lig_0>
-49.2501

>  <SCORE.INTRA.VDW>
0.522137

>  <SCORE.INTRA.VDW.0>
-1.75368

>  <SCORE.INTRA.norm>
-0.106737

>  <SCORE.RESTR>
0

>  <SCORE.RESTR.CAVITY>
0

>  <SCORE.RESTR.norm>
0

>  <SCORE.SYSTEM>
0

>  <SCORE.SYSTEM.CONST>
0

>  <SCORE.SYSTEM.DIHEDRAL>
0

>  <SCORE.SYSTEM.SOLV>
0

>  <SCORE.SYSTEM.norm>
0

>  <SCORE.heavy>
27

>  <SCORE.norm>
-1.15793

>  <RMSD>
2.200

$$$$
ligand
 OpenBabel11021811463D
libRbt.so/2013.1/901 2013/11/27
 27 29  0  0  0  0  0  0  0  0999 V2000
   38.8441   16.7128   76.2057 N   0  0  0  0  0  0  0  0  0  0  0  0
   37.5253   16.2244   75.7664 C   0  0  2  0  0  0  0  0  0  0  0  0
   37.5332   15.9748   74.2726 C   0  0  0  0  0  0  0  0  0  0  0  0
   36.7043   15.2108   73.7677 O   0  0  0  0  0  0  0  0  0  0  0  0
   36.4702   17.2784   76.0863 C   0  0  0  0  0  0  0  0  0  0  0  0
   36.8349   18.6033   75.4515 C   0  0  0  0  0  0  0  0  0  0  0  0
   35.3685   19.6494   75.4765 S   0  0  2  0  0  0  0  0  0  0  0  0
   36.1369   21.2087   74.9573 C   0  0  0  0  0  0  0  0  0  0  0  0
   35.1943   19.9441   77.2693 C   0  0  0  0  0  0  0  0  0  0  0  0
   34.0657   20.9466   77.4946 C   0  0  1  0  0  0  0  0  0  0  0  0
   32.8544   20.3130   77.1545 O   0  0  0  0  0  0  0  0  0  0  0  0
   33.9425   21.3325   78.9726 C   0  0  1  0  0  0  0  0  0  0  0  0
   34.6905   22.4410   79.4958 O   0  0  0  0  0  0  0  0  0  0  0  0
   32.3962   21.4039   79.2010 C   0  0  1  0  0  0  0  0  0  0  0  0
   32.0984   22.6295   79.8916 O   0  0  0  0  0  0  0  0  0  0  0  0
   31.8137   21.0387   77.7896 C   0  0  2  0  0  0  0  0  0  0  0  0
   38.3160   16.5857   73.5607 O   0  0  0  0  0  0  0  0  0  0  0  0
   26.6333   20.7660   77.3499 N   0  0  0  0  0  0  0  0  0  0  0  0
   27.4231   21.8413   77.2513 C   0  0  0  0  0  0  0  0  0  0  0  0
   28.7411   21.7539   77.4076 N   0  0  0  0  0  0  0  0  0  0  0  0
   29.3389   20.5731   77.6492 C   0  0  0  0  0  0  0  0  0  0  0  0
   28.5470   19.3978   77.7481 C   0  0  0  0  0  0  0  0  0  0  0  0
   27.1370   19.5397   77.5862 C   0  0  0  0  0  0  0  0  0  0  0  0
   26.2991   18.4427   77.6597 N   0  0  0  0  0  0  0  0  0  0  0  0
   29.3890   18.3654   77.9845 N   0  0  0  0  0  0  0  0  0  0  0  0
   30.6103   18.8126   78.0336 C   0  0  0  0  0  0  0  0  0  0  0  0
   30.6317   20.1710   77.8328 N   0  0  0  0  0  0  0  0  0  0  0  0
  2  1  1  6  0  0  0
  2  3  1  0  0  0  0
  2  5  1  0  0  0  0
  3  4  1  0  0  0  0
  3 17  1  0  0  0  0
  5  6  1  0  0  0  0
  7  6  1  1  0  0  0
  7  8  1  0  0  0  0
  7  9  1  0  0  0  0
 10  9  1  1  0  0  0
 10 11  1  0  0  0  0
 10 12  1  0  0  0  0
 11 16  1  0  0  0  0
 12 13  1  6  0  0  0
 12 14  1  0  0  0  0
 14 15  1  6  0  0  0
 14 16  1  0  0  0  0
 16 27  1  1  0  0  0
 18 19  2  0  0  0  0
 18 23  1  0  0  0  0
 19 20  1  0  0  0  0
 20 21  2  0  0  0  0
 21 22  1  0  0  0  0
 21 27  1  0  0  0  0
 22 23  2  0  0  0  0
 22 25  1  0  0  0  0
 23 24  1  0  0  0  0
 25 26  2  0  0  0  0
 26 27  1  0  0  0  0
M  END
>  <CHROM.1>
158.35856118,55.94957926,164.68640391,170.52638799,174.26813867,68.82321343
-141.80997800,33.04870610,19.52903440,76.91618649,0.44483007,-0.08534684
-2.57844278

>  <Name>
ligand

>  <RI>
0

>  <Rbt.Current_Directory>
/home/itssahil/PROJECTS/Mol_Feturizer/New_Systems/rnas/2QWY

>  <Rbt.Executable>
rbdock ($Id: //depot/dev/client3/rdock/2013.1/src/exe/rbdock.cxx#4 $)

>  <Rbt.Library>
libRbt.so (2013.1, Build901 2013/11/27)

>  <Rbt.Parameter_File>
/export/apps/rDock/src/rDock_2013.1_src/data/scripts/dock_solv.prm

>  <Rbt.Receptor>
prm/pocket_docking_5.prm

>  <SCORE>
-26.3107

>  <SCORE.INTER>
-23.2294

>  <SCORE.INTER.CONST>
1

>  <SCORE.INTER.POLAR>
0

>  <SCORE.INTER.ROT>
7

>  <SCORE.INTER.SOLV>
13.0645

>  <SCORE.INTER.VDW>
-28.1078

>  <SCORE.INTER.norm>
-0.860348

>  <SCORE.INTRA>
-3.08127

>  <SCORE.INTRA.DIHEDRAL>
-6.38136

>  <SCORE.INTRA.DIHEDRAL.0>
10.7382

>  <SCORE.INTRA.POLAR>
0

>  <SCORE.INTRA.POLAR.0>
0

>  <SCORE.INTRA.REPUL>
0

>  <SCORE.INTRA.REPUL.0>
0

>  <SCORE.INTRA.SOLV>
-0.516141

>  <SCORE.INTRA.SOLV.lig_0>
-49.2501

>  <SCORE.INTRA.VDW>
0.367484

>  <SCORE.INTRA.VDW.0>
-1.75368

>  <SCORE.INTRA.norm>
-0.114121

>  <SCORE.RESTR>
0

>  <SCORE.RESTR.CAVITY>
0

>  <SCORE.RESTR.norm>
0

>  <SCORE.SYSTEM>
0

>  <SCORE.SYSTEM.CONST>
0

>  <SCORE.SYSTEM.DIHEDRAL>
0

>  <SCORE.SYSTEM.SOLV>
0

>  <SCORE.SYSTEM.norm>
0

>  <SCORE.heavy>
27

>  <SCORE.norm>
-0.974469

>  <RMSD>
2.221

$$$$
ligand
 OpenBabel11021811463D
libRbt.so/2013.1/901 2013/11/27
 27 29  0  0  0  0  0  0  0  0999 V2000
   36.3039   18.4804   72.4160 N   0  0  0  0  0  0  0  0  0  0  0  0
   36.5360   19.9339   72.4816 C   0  0  2  0  0  0  0  0  0  0  0  0
   37.2121   20.4113   71.2131 C   0  0  0  0  0  0  0  0  0  0  0  0
   37.5504   21.5938   71.0988 O   0  0  0  0  0  0  0  0  0  0  0  0
   37.4403   20.2424   73.6704 C   0  0  0  0  0  0  0  0  0  0  0  0
   36.8332   19.7098   74.9506 C   0  0  0  0  0  0  0  0  0  0  0  0
   35.5713   20.8768   75.4902 S   0  0  2  0  0  0  0  0  0  0  0  0
   36.6604   22.1931   76.1008 C   0  0  0  0  0  0  0  0  0  0  0  0
   35.0561   20.1126   77.0657 C   0  0  0  0  0  0  0  0  0  0  0  0
   34.3510   21.1666   77.9150 C   0  0  1  0  0  0  0  0  0  0  0  0
   33.0357   21.3002   77.4289 O   0  0  0  0  0  0  0  0  0  0  0  0
   34.2206   20.7181   79.3746 C   0  0  1  0  0  0  0  0  0  0  0  0
   35.2599   21.0174   80.3193 O   0  0  0  0  0  0  0  0  0  0  0  0
   32.7906   21.2087   79.7783 C   0  0  1  0  0  0  0  0  0  0  0  0
   32.8865   21.8856   81.0433 O   0  0  0  0  0  0  0  0  0  0  0  0
   32.2682   21.8921   78.4650 C   0  0  2  0  0  0  0  0  0  0  0  0
   37.4850   19.6086   70.3334 O   0  0  0  0  0  0  0  0  0  0  0  0
   28.6367   18.2726   77.5618 N   0  0  0  0  0  0  0  0  0  0  0  0
   29.9436   18.1033   77.7923 C   0  0  0  0  0  0  0  0  0  0  0  0
   30.7557   19.1381   77.9894 N   0  0  0  0  0  0  0  0  0  0  0  0
   30.2909   20.4006   77.9882 C   0  0  0  0  0  0  0  0  0  0  0  0
   28.9078   20.6345   77.7634 C   0  0  0  0  0  0  0  0  0  0  0  0
   28.0760   19.4967   77.5442 C   0  0  0  0  0  0  0  0  0  0  0  0
   26.7184   19.6402   77.3269 N   0  0  0  0  0  0  0  0  0  0  0  0
   28.7126   21.9721   77.8209 N   0  0  0  0  0  0  0  0  0  0  0  0
   29.8486   22.5600   78.0617 C   0  0  0  0  0  0  0  0  0  0  0  0
   30.8545   21.6315   78.1727 N   0  0  0  0  0  0  0  0  0  0  0  0
  2  1  1  6  0  0  0
  2  3  1  0  0  0  0
  2  5  1  0  0  0  0
  3  4  1  0  0  0  0
  3 17  1  0  0  0  0
  5  6  1  0  0  0  0
  7  6  1  6  0  0  0
  7  8  1  0  0  0  0
  7  9  1  0  0  0  0
 10  9  1  6  0  0  0
 10 11  1  0  0  0  0
 10 12  1  0  0  0  0
 11 16  1  0  0  0  0
 12 13  1  1  0  0  0
 12 14  1  0  0  0  0
 14 15  1  1  0  0  0
 14 16  1  0  0  0  0
 16 27  1  6  0  0  0
 18 19  2  0  0  0  0
 18 23  1  0  0  0  0
 19 20  1  0  0  0  0
 20 21  2  0  0  0  0
 21 22  1  0  0  0  0
 21 27  1  0  0  0  0
 22 23  2  0  0  0  0
 22 25  1  0  0  0  0
 23 24  1  0  0  0  0
 25 26  2  0  0  0  0
 26 27  1  0  0  0  0
M  END
>  <CHROM.1>
-176.56529020,-56.58376951,-79.78344802,-74.12320470,160.68273677,78.99921075
56.43770847,33.35846190,20.56279264,76.47930667,0.64342593,-0.19974134,-1.85789469

>  <Name>
ligand

>  <RI>
0

>  <Rbt.Current_Directory>
/home/itssahil/PROJECTS/Mol_Feturizer/New_Systems/rnas/2QWY

>  <Rbt.Executable>
rbdock ($Id: //depot/dev/client3/rdock/2013.1/src/exe/rbdock.cxx#4 $)

>  <Rbt.Library>
libRbt.so (2013.1, Build901 2013/11/27)

>  <Rbt.Parameter_File>
/export/apps/rDock/src/rDock_2013.1_src/data/scripts/dock_solv.prm

>  <Rbt.Receptor>
prm/pocket_docking_3.prm

>  <SCORE>
-28.3469

>  <SCORE.INTER>
-26.4105

>  <SCORE.INTER.CONST>
1

>  <SCORE.INTER.POLAR>
0

>  <SCORE.INTER.ROT>
7

>  <SCORE.INTER.SOLV>
13.2942

>  <SCORE.INTER.VDW>
-30.3051

>  <SCORE.INTER.norm>
-0.978167

>  <SCORE.INTRA>
-1.93636

>  <SCORE.INTRA.DIHEDRAL>
-4.55804

>  <SCORE.INTRA.DIHEDRAL.0>
10.7382

>  <SCORE.INTRA.POLAR>
0

>  <SCORE.INTRA.POLAR.0>
0

>  <SCORE.INTRA.REPUL>
0

>  <SCORE.INTRA.REPUL.0>
0

>  <SCORE.INTRA.SOLV>
0.071548

>  <SCORE.INTRA.SOLV.lig_0>
-49.2501

>  <SCORE.INTRA.VDW>
0.306889

>  <SCORE.INTRA.VDW.0>
-1.75368

>  <SCORE.INTRA.norm>
-0.0717169

>  <SCORE.RESTR>
0

>  <SCORE.RESTR.CAVITY>
0

>  <SCORE.RESTR.norm>
0

>  <SCORE.SYSTEM>
0

>  <SCORE.SYSTEM.CONST>
0

>  <SCORE.SYSTEM.DIHEDRAL>
0

>  <SCORE.SYSTEM.SOLV>
0

>  <SCORE.SYSTEM.norm>
0

>  <SCORE.heavy>
27

>  <SCORE.norm>
-1.04988

>  <RMSD>
2.247

$$$$
ligand
 OpenBabel11021811463D
libRbt.so/2013.1/901 2013/11/27
 27 29  0  0  0  0  0  0  0  0999 V2000
   38.5084   18.2294   73.8456 N   0  0  0  0  0  0  0  0  0  0  0  0
   37.0827   18.0585   73.5156 C   0  0  2  0  0  0  0  0  0  0  0  0
   36.6229   19.1730   72.5989 C   0  0  0  0  0  0  0  0  0  0  0  0
   37.3844   20.1077   72.3297 O   0  0  0  0  0  0  0  0  0  0  0  0
   36.2631   18.1055   74.8010 C   0  0  0  0  0  0  0  0  0  0  0  0
   36.5744   19.3640   75.5825 C   0  0  0  0  0  0  0  0  0  0  0  0
   35.6483   19.2982   77.1263 S   0  0  2  0  0  0  0  0  0  0  0  0
   33.9946   19.6485   76.4676 C   0  0  0  0  0  0  0  0  0  0  0  0
   36.0723   20.9221   77.8440 C   0  0  0  0  0  0  0  0  0  0  0  0
   35.0997   21.2255   78.9804 C   0  0  1  0  0  0  0  0  0  0  0  0
   33.8418   21.4975   78.4079 O   0  0  0  0  0  0  0  0  0  0  0  0
   34.8983   20.0078   79.8888 C   0  0  1  0  0  0  0  0  0  0  0  0
   35.7584   19.7983   81.0195 O   0  0  0  0  0  0  0  0  0  0  0  0
   33.3680   20.0463   80.2128 C   0  0  1  0  0  0  0  0  0  0  0  0
   33.2027   19.8748   81.6309 O   0  0  0  0  0  0  0  0  0  0  0  0
   32.8727   21.3123   79.4275 C   0  0  2  0  0  0  0  0  0  0  0  0
   35.5229   19.1082   72.0711 O   0  0  0  0  0  0  0  0  0  0  0  0
   29.2748   17.9358   77.7667 N   0  0  0  0  0  0  0  0  0  0  0  0
   30.4492   17.6811   78.3546 C   0  0  0  0  0  0  0  0  0  0  0  0
   31.2774   18.6596   78.7090 N   0  0  0  0  0  0  0  0  0  0  0  0
   30.9572   19.9513   78.5112 C   0  0  0  0  0  0  0  0  0  0  0  0
   29.7147   20.2769   77.9042 C   0  0  0  0  0  0  0  0  0  0  0  0
   28.8633   19.1958   77.5290 C   0  0  0  0  0  0  0  0  0  0  0  0
   27.6343   19.4300   76.9412 N   0  0  0  0  0  0  0  0  0  0  0  0
   29.6447   21.6262   77.8324 N   0  0  0  0  0  0  0  0  0  0  0  0
   30.7274   22.1381   78.3418 C   0  0  0  0  0  0  0  0  0  0  0  0
   31.5699   21.1437   78.7746 N   0  0  0  0  0  0  0  0  0  0  0  0
  2  1  1  1  0  0  0
  2  3  1  0  0  0  0
  2  5  1  0  0  0  0
  3  4  1  0  0  0  0
  3 17  1  0  0  0  0
  5  6  1  0  0  0  0
  7  6  1  6  0  0  0
  7  8  1  0  0  0  0
  7  9  1  0  0  0  0
 10  9  1  6  0  0  0
 10 11  1  0  0  0  0
 10 12  1  0  0  0  0
 11 16  1  0  0  0  0
 12 13  1  1  0  0  0
 12 14  1  0  0  0  0
 14 15  1  1  0  0  0
 14 16  1  0  0  0  0
 16 27  1  6  0  0  0
 18 19  2  0  0  0  0
 18 23  1  0  0  0  0
 19 20  1  0  0  0  0
 20 21  2  0  0  0  0
 21 22  1  0  0  0  0
 21 27  1  0  0  0  0
 22 23  2  0  0  0  0
 22 25  1  0  0  0  0
 23 24  1  0  0  0  0
 25 26  2  0  0  0  0
 26 27  1  0  0  0  0
M  END
>  <CHROM.1>
-5.93269846,53.55212931,-176.60926693,-73.93557133,165.01776448,-71.01138157
97.82139582,33.63815578,19.75308345,77.24856814,-0.65692125,0.03033297,1.34173888

>  <Name>
ligand

>  <RI>
0

>  <Rbt.Current_Directory>
/home/itssahil/PROJECTS/Mol_Feturizer/New_Systems/rnas/2QWY

>  <Rbt.Executable>
rbdock ($Id: //depot/dev/client3/rdock/2013.1/src/exe/rbdock.cxx#4 $)

>  <Rbt.Library>
libRbt.so (2013.1, Build901 2013/11/27)

>  <Rbt.Parameter_File>
/export/apps/rDock/src/rDock_2013.1_src/data/scripts/dock_solv.prm

>  <Rbt.Receptor>
prm/pocket_docking_2.prm

>  <SCORE>
-15.7722

>  <SCORE.INTER>
-16.8387

>  <SCORE.INTER.CONST>
1

>  <SCORE.INTER.POLAR>
0

>  <SCORE.INTER.ROT>
7

>  <SCORE.INTER.SOLV>
15.9444

>  <SCORE.INTER.VDW>
-24.8073

>  <SCORE.INTER.norm>
-0.623656

>  <SCORE.INTRA>
-0.739992

>  <SCORE.INTRA.DIHEDRAL>
-6.63755

>  <SCORE.INTRA.DIHEDRAL.0>
10.7382

>  <SCORE.INTRA.POLAR>
0

>  <SCORE.INTRA.POLAR.0>
0

>  <SCORE.INTRA.REPUL>
0

>  <SCORE.INTRA.REPUL.0>
0

>  <SCORE.INTRA.SOLV>
0.0251332

>  <SCORE.INTRA.SOLV.lig_0>
-49.2501

>  <SCORE.INTRA.VDW>
2.56622

>  <SCORE.INTRA.VDW.0>
-1.75368

>  <SCORE.INTRA.norm>
-0.0274071

>  <SCORE.RESTR>
1.80648

>  <SCORE.RESTR.CAVITY>
1.80648

>  <SCORE.RESTR.norm>
0.0669068

>  <SCORE.SYSTEM>
0

>  <SCORE.SYSTEM.CONST>
0

>  <SCORE.SYSTEM.DIHEDRAL>
0

>  <SCORE.SYSTEM.SOLV>
0

>  <SCORE.SYSTEM.norm>
0

>  <SCORE.heavy>
27

>  <SCORE.norm>
-0.584156

>  <RMSD>
2.269

$$$$
ligand
 OpenBabel11021811463D
libRbt.so/2013.1/901 2013/11/27
 27 29  0  0  0  0  0  0  0  0999 V2000
   37.0465   17.5846   71.8878 N   0  0  0  0  0  0  0  0  0  0  0  0
   36.3283   18.2616   72.9817 C   0  0  2  0  0  0  0  0  0  0  0  0
   36.1043   19.7187   72.6344 C   0  0  0  0  0  0  0  0  0  0  0  0
   36.8407   20.2813   71.8178 O   0  0  0  0  0  0  0  0  0  0  0  0
   37.1646   18.1794   74.2545 C   0  0  0  0  0  0  0  0  0  0  0  0
   36.2707   18.0372   75.4679 C   0  0  0  0  0  0  0  0  0  0  0  0
   35.5302   19.6456   75.7993 S   0  0  2  0  0  0  0  0  0  0  0  0
   37.0130   20.5138   76.3815 C   0  0  0  0  0  0  0  0  0  0  0  0
   34.6941   19.3117   77.3872 C   0  0  0  0  0  0  0  0  0  0  0  0
   34.1526   20.6262   77.9426 C   0  0  1  0  0  0  0  0  0  0  0  0
   32.8524   20.8052   77.4312 O   0  0  0  0  0  0  0  0  0  0  0  0
   34.0058   20.5748   79.4672 C   0  0  1  0  0  0  0  0  0  0  0  0
   35.1002   20.9611   80.3130 O   0  0  0  0  0  0  0  0  0  0  0  0
   32.6617   21.3324   79.7277 C   0  0  1  0  0  0  0  0  0  0  0  0
   32.8775   22.2835   80.7843 O   0  0  0  0  0  0  0  0  0  0  0  0
   32.1952   21.7306   78.2826 C   0  0  2  0  0  0  0  0  0  0  0  0
   35.1504   20.3151   73.1111 O   0  0  0  0  0  0  0  0  0  0  0  0
   28.2395   18.4390   77.4941 N   0  0  0  0  0  0  0  0  0  0  0  0
   29.5377   18.1591   77.6553 C   0  0  0  0  0  0  0  0  0  0  0  0
   30.4406   19.1198   77.8311 N   0  0  0  0  0  0  0  0  0  0  0  0
   30.0814   20.4156   77.8773 C   0  0  0  0  0  0  0  0  0  0  0  0
   28.7129   20.7659   77.7268 C   0  0  0  0  0  0  0  0  0  0  0  0
   27.7809   19.7046   77.5280 C   0  0  0  0  0  0  0  0  0  0  0  0
   26.4307   19.9625   77.3820 N   0  0  0  0  0  0  0  0  0  0  0  0
   28.6312   22.1132   77.8195 N   0  0  0  0  0  0  0  0  0  0  0  0
   29.8218   22.6014   78.0141 C   0  0  0  0  0  0  0  0  0  0  0  0
   30.7523   21.5922   78.0568 N   0  0  0  0  0  0  0  0  0  0  0  0
  2  1  1  6  0  0  0
  2  3  1  0  0  0  0
  2  5  1  0  0  0  0
  3  4  1  0  0  0  0
  3 17  1  0  0  0  0
  5  6  1  0  0  0  0
  7  6  1  1  0  0  0
  7  8  1  0  0  0  0
  7  9  1  0  0  0  0
 10  9  1  6  0  0  0
 10 11  1  0  0  0  0
 10 12  1  0  0  0  0
 11 16  1  0  0  0  0
 12 13  1  1  0  0  0
 12 14  1  0  0  0  0
 14 15  1  1  0  0  0
 14 16  1  0  0  0  0
 16 27  1  1  0  0  0
 18 19  2  0  0  0  0
 18 23  1  0  0  0  0
 19 20  1  0  0  0  0
 20 21  2  0  0  0  0
 21 22  1  0  0  0  0
 21 27  1  0  0  0  0
 22 23  2  0  0  0  0
 22 25  1  0  0  0  0
 23 24  1  0  0  0  0
 25 26  2  0  0  0  0
 26 27  1  0  0  0  0
M  END
>  <CHROM.1>
-23.54380912,-145.01494549,-75.23156049,-70.35351229,172.33753566,89.09016894
40.37883742,33.07416130,20.10402206,76.71580491,0.58254520,-0.05342784,-1.97131280

>  <Name>
ligand

>  <RI>
0

>  <Rbt.Current_Directory>
/home/itssahil/PROJECTS/Mol_Feturizer/New_Systems/rnas/2QWY

>  <Rbt.Executable>
rbdock ($Id: //depot/dev/client3/rdock/2013.1/src/exe/rbdock.cxx#4 $)

>  <Rbt.Library>
libRbt.so (2013.1, Build901 2013/11/27)

>  <Rbt.Parameter_File>
/export/apps/rDock/src/rDock_2013.1_src/data/scripts/dock_solv.prm

>  <Rbt.Receptor>
prm/pocket_docking_3.prm

>  <SCORE>
-25.2608

>  <SCORE.INTER>
-24.1744

>  <SCORE.INTER.CONST>
1

>  <SCORE.INTER.POLAR>
0

>  <SCORE.INTER.ROT>
7

>  <SCORE.INTER.SOLV>
11.332

>  <SCORE.INTER.VDW>
-28.1603

>  <SCORE.INTER.norm>
-0.895348

>  <SCORE.INTRA>
-1.08645

>  <SCORE.INTRA.DIHEDRAL>
-0.373044

>  <SCORE.INTRA.DIHEDRAL.0>
10.7382

>  <SCORE.INTRA.POLAR>
0

>  <SCORE.INTRA.POLAR.0>
0

>  <SCORE.INTRA.REPUL>
0

>  <SCORE.INTRA.REPUL.0>
0

>  <SCORE.INTRA.SOLV>
-0.991425

>  <SCORE.INTRA.SOLV.lig_0>
-49.2501

>  <SCORE.INTRA.VDW>
-0.404214

>  <SCORE.INTRA.VDW.0>
-1.75368

>  <SCORE.INTRA.norm>
-0.0402389

>  <SCORE.RESTR>
0

>  <SCORE.RESTR.CAVITY>
0

>  <SCORE.RESTR.norm>
0

>  <SCORE.SYSTEM>
0

>  <SCORE.SYSTEM.CONST>
0

>  <SCORE.SYSTEM.DIHEDRAL>
0

>  <SCORE.SYSTEM.SOLV>
0

>  <SCORE.SYSTEM.norm>
0

>  <SCORE.heavy>
27

>  <SCORE.norm>
-0.935587

>  <RMSD>
2.275

$$$$
ligand
 OpenBabel11021811463D
libRbt.so/2013.1/901 2013/11/27
 27 29  0  0  0  0  0  0  0  0999 V2000
   37.6256   15.1182   75.8170 N   0  0  0  0  0  0  0  0  0  0  0  0
   37.0571   16.1835   74.9729 C   0  0  2  0  0  0  0  0  0  0  0  0
   37.3325   15.8935   73.5121 C   0  0  0  0  0  0  0  0  0  0  0  0
   38.4170   15.4111   73.1700 O   0  0  0  0  0  0  0  0  0  0  0  0
   37.7044   17.5138   75.3437 C   0  0  0  0  0  0  0  0  0  0  0  0
   37.1478   18.0272   76.6544 C   0  0  0  0  0  0  0  0  0  0  0  0
   35.4844   18.6450   76.3434 S   0  0  2  0  0  0  0  0  0  0  0  0
   35.9143   20.0888   75.3324 C   0  0  0  0  0  0  0  0  0  0  0  0
   35.1199   19.4520   77.9395 C   0  0  0  0  0  0  0  0  0  0  0  0
   34.0372   20.5053   77.7209 C   0  0  1  0  0  0  0  0  0  0  0  0
   32.8423   19.8325   77.3989 O   0  0  0  0  0  0  0  0  0  0  0  0
   33.7492   21.2910   79.0047 C   0  0  1  0  0  0  0  0  0  0  0  0
   34.4921   22.4825   79.3060 O   0  0  0  0  0  0  0  0  0  0  0  0
   32.1940   21.4619   78.9841 C   0  0  1  0  0  0  0  0  0  0  0  0
   31.8877   22.8385   79.2650 O   0  0  0  0  0  0  0  0  0  0  0  0
   31.7763   20.7322   77.6583 C   0  0  2  0  0  0  0  0  0  0  0  0
   36.4531   16.0722   72.6829 O   0  0  0  0  0  0  0  0  0  0  0  0
   26.5756   20.7709   77.4228 N   0  0  0  0  0  0  0  0  0  0  0  0
   27.4251   21.7924   77.2662 C   0  0  0  0  0  0  0  0  0  0  0  0
   28.7404   21.6273   77.3745 N   0  0  0  0  0  0  0  0  0  0  0  0
   29.2741   20.4177   77.6241 C   0  0  0  0  0  0  0  0  0  0  0  0
   28.4164   19.2965   77.7838 C   0  0  0  0  0  0  0  0  0  0  0  0
   27.0124   19.5217   77.6719 C   0  0  0  0  0  0  0  0  0  0  0  0
   26.1128   18.4808   77.8059 N   0  0  0  0  0  0  0  0  0  0  0  0
   29.2026   18.2199   78.0150 N   0  0  0  0  0  0  0  0  0  0  0  0
   30.4499   18.5914   78.0060 C   0  0  0  0  0  0  0  0  0  0  0  0
   30.5462   19.9408   77.7691 N   0  0  0  0  0  0  0  0  0  0  0  0
  2  1  1  1  0  0  0
  2  3  1  0  0  0  0
  2  5  1  0  0  0  0
  3  4  1  0  0  0  0
  3 17  1  0  0  0  0
  5  6  1  0  0  0  0
  7  6  1  1  0  0  0
  7  8  1  0  0  0  0
  7  9  1  0  0  0  0
 10  9  1  1  0  0  0
 10 11  1  0  0  0  0
 10 12  1  0  0  0  0
 11 16  1  0  0  0  0
 12 13  1  6  0  0  0
 12 14  1  0  0  0  0
 14 15  1  6  0  0  0
 14 16  1  0  0  0  0
 16 27  1  1  0  0  0
 18 19  2  0  0  0  0
 18 23  1  0  0  0  0
 19 20  1  0  0  0  0
 20 21  2  0  0  0  0
 21 22  1  0  0  0  0
 21 27  1  0  0  0  0
 22 23  2  0  0  0  0
 22 25  1  0  0  0  0
 23 24  1  0  0  0  0
 25 26  2  0  0  0  0
 26 27  1  0  0  0  0
M  END
>  <CHROM.1>
-38.58450845,-75.35716745,-74.24499489,-68.44447605,157.05060243,67.87061320
-159.60673208,32.96498934,19.23251446,76.89978371,0.50741336,-0.04784148
-2.51619615

>  <Name>
ligand

>  <RI>
0

>  <Rbt.Current_Directory>
/home/itssahil/PROJECTS/Mol_Feturizer/New_Systems/rnas/2QWY

>  <Rbt.Executable>
rbdock ($Id: //depot/dev/client3/rdock/2013.1/src/exe/rbdock.cxx#4 $)

>  <Rbt.Library>
libRbt.so (2013.1, Build901 2013/11/27)

>  <Rbt.Parameter_File>
/export/apps/rDock/src/rDock_2013.1_src/data/scripts/dock_solv.prm

>  <Rbt.Receptor>
prm/pocket_docking_5.prm

>  <SCORE>
-25.3823

>  <SCORE.INTER>
-23.2438

>  <SCORE.INTER.CONST>
1

>  <SCORE.INTER.POLAR>
0

>  <SCORE.INTER.ROT>
7

>  <SCORE.INTER.SOLV>
16.2452

>  <SCORE.INTER.VDW>
-29.1776

>  <SCORE.INTER.norm>
-0.860881

>  <SCORE.INTRA>
-2.13852

>  <SCORE.INTRA.DIHEDRAL>
-4.99335

>  <SCORE.INTRA.DIHEDRAL.0>
10.7382

>  <SCORE.INTRA.POLAR>
0

>  <SCORE.INTRA.POLAR.0>
0

>  <SCORE.INTRA.REPUL>
0

>  <SCORE.INTRA.REPUL.0>
0

>  <SCORE.INTRA.SOLV>
-0.240002

>  <SCORE.INTRA.SOLV.lig_0>
-49.2501

>  <SCORE.INTRA.VDW>
0.478156

>  <SCORE.INTRA.VDW.0>
-1.75368

>  <SCORE.INTRA.norm>
-0.0792045

>  <SCORE.RESTR>
0

>  <SCORE.RESTR.CAVITY>
0

>  <SCORE.RESTR.norm>
0

>  <SCORE.SYSTEM>
0

>  <SCORE.SYSTEM.CONST>
0

>  <SCORE.SYSTEM.DIHEDRAL>
0

>  <SCORE.SYSTEM.SOLV>
0

>  <SCORE.SYSTEM.norm>
0

>  <SCORE.heavy>
27

>  <SCORE.norm>
-0.940085

>  <RMSD>
2.275

$$$$
ligand
 OpenBabel11021811463D
libRbt.so/2013.1/901 2013/11/27
 27 29  0  0  0  0  0  0  0  0999 V2000
   36.5065   17.9443   72.1042 N   0  0  0  0  0  0  0  0  0  0  0  0
   36.5610   19.4158   72.1527 C   0  0  2  0  0  0  0  0  0  0  0  0
   37.9756   19.8935   71.8984 C   0  0  0  0  0  0  0  0  0  0  0  0
   38.9316   19.2946   72.4017 O   0  0  0  0  0  0  0  0  0  0  0  0
   36.1208   19.8868   73.5350 C   0  0  0  0  0  0  0  0  0  0  0  0
   36.8062   19.0764   74.6143 C   0  0  0  0  0  0  0  0  0  0  0  0
   36.5009   19.8895   76.1926 S   0  0  2  0  0  0  0  0  0  0  0  0
   37.1210   18.5881   77.2943 C   0  0  0  0  0  0  0  0  0  0  0  0
   34.7008   19.6381   76.3595 C   0  0  0  0  0  0  0  0  0  0  0  0
   34.1947   20.4758   77.5307 C   0  0  1  0  0  0  0  0  0  0  0  0
   32.9068   20.9413   77.2008 O   0  0  0  0  0  0  0  0  0  0  0  0
   34.0287   19.6296   78.7975 C   0  0  1  0  0  0  0  0  0  0  0  0
   35.1248   19.4729   79.7119 O   0  0  0  0  0  0  0  0  0  0  0  0
   32.7063   20.1780   79.4291 C   0  0  1  0  0  0  0  0  0  0  0  0
   32.9398   20.4174   80.8276 O   0  0  0  0  0  0  0  0  0  0  0  0
   32.2693   21.2963   78.4176 C   0  0  2  0  0  0  0  0  0  0  0  0
   38.1713   20.8292   71.1376 O   0  0  0  0  0  0  0  0  0  0  0  0
   27.9606   18.5537   77.4093 N   0  0  0  0  0  0  0  0  0  0  0  0
   29.2114   18.1099   77.5772 C   0  0  0  0  0  0  0  0  0  0  0  0
   30.2204   18.9437   77.8133 N   0  0  0  0  0  0  0  0  0  0  0  0
   30.0206   20.2701   77.9163 C   0  0  0  0  0  0  0  0  0  0  0  0
   28.7083   20.7919   77.7613 C   0  0  0  0  0  0  0  0  0  0  0  0
   27.6587   19.8630   77.4971 C   0  0  0  0  0  0  0  0  0  0  0  0
   26.3533   20.2908   77.3424 N   0  0  0  0  0  0  0  0  0  0  0  0
   28.7890   22.1335   77.9177 N   0  0  0  0  0  0  0  0  0  0  0  0
   30.0258   22.4627   78.1542 C   0  0  0  0  0  0  0  0  0  0  0  0
   30.8256   21.3462   78.1628 N   0  0  0  0  0  0  0  0  0  0  0  0
  2  1  1  1  0  0  0
  2  3  1  0  0  0  0
  2  5  1  0  0  0  0
  3  4  1  0  0  0  0
  3 17  1  0  0  0  0
  5  6  1  0  0  0  0
  7  6  1  6  0  0  0
  7  8  1  0  0  0  0
  7  9  1  0  0  0  0
 10  9  1  6  0  0  0
 10 11  1  0  0  0  0
 10 12  1  0  0  0  0
 11 16  1  0  0  0  0
 12 13  1  1  0  0  0
 12 14  1  0  0  0  0
 14 15  1  1  0  0  0
 14 16  1  0  0  0  0
 16 27  1  6  0  0  0
 18 19  2  0  0  0  0
 18 23  1  0  0  0  0
 19 20  1  0  0  0  0
 20 21  2  0  0  0  0
 21 22  1  0  0  0  0
 21 27  1  0  0  0  0
 22 23  2  0  0  0  0
 22 25  1  0  0  0  0
 23 24  1  0  0  0  0
 25 26  2  0  0  0  0
 26 27  1  0  0  0  0
M  END
>  <CHROM.1>
-40.82476074,46.49612869,168.91410284,169.59971139,-170.10061300,144.78202090
70.09370312,33.38546494,19.97318701,76.52194051,0.53989529,0.05527894,-1.64091900

>  <Name>
ligand

>  <RI>
0

>  <Rbt.Current_Directory>
/home/itssahil/PROJECTS/Mol_Feturizer/New_Systems/rnas/2QWY

>  <Rbt.Executable>
rbdock ($Id: //depot/dev/client3/rdock/2013.1/src/exe/rbdock.cxx#4 $)

>  <Rbt.Library>
libRbt.so (2013.1, Build901 2013/11/27)

>  <Rbt.Parameter_File>
/export/apps/rDock/src/rDock_2013.1_src/data/scripts/dock_solv.prm

>  <Rbt.Receptor>
prm/pocket_docking_3.prm

>  <SCORE>
-26.5071

>  <SCORE.INTER>
-25.3294

>  <SCORE.INTER.CONST>
1

>  <SCORE.INTER.POLAR>
0

>  <SCORE.INTER.ROT>
7

>  <SCORE.INTER.SOLV>
13.0977

>  <SCORE.INTER.VDW>
-29.5188

>  <SCORE.INTER.norm>
-0.938127

>  <SCORE.INTRA>
-1.17771

>  <SCORE.INTRA.DIHEDRAL>
-1.94075

>  <SCORE.INTRA.DIHEDRAL.0>
10.7382

>  <SCORE.INTRA.POLAR>
0

>  <SCORE.INTRA.POLAR.0>
0

>  <SCORE.INTRA.REPUL>
0

>  <SCORE.INTRA.REPUL.0>
0

>  <SCORE.INTRA.SOLV>
-0.117829

>  <SCORE.INTRA.SOLV.lig_0>
-49.2501

>  <SCORE.INTRA.VDW>
-0.148418

>  <SCORE.INTRA.VDW.0>
-1.75368

>  <SCORE.INTRA.norm>
-0.0436188

>  <SCORE.RESTR>
0

>  <SCORE.RESTR.CAVITY>
0

>  <SCORE.RESTR.norm>
0

>  <SCORE.SYSTEM>
0

>  <SCORE.SYSTEM.CONST>
0

>  <SCORE.SYSTEM.DIHEDRAL>
0

>  <SCORE.SYSTEM.SOLV>
0

>  <SCORE.SYSTEM.norm>
0

>  <SCORE.heavy>
27

>  <SCORE.norm>
-0.981746

>  <RMSD>
2.279

$$$$
ligand
 OpenBabel11021811463D
libRbt.so/2013.1/901 2013/11/27
 27 29  0  0  0  0  0  0  0  0999 V2000
   38.7311   19.1090   72.6337 N   0  0  0  0  0  0  0  0  0  0  0  0
   37.5001   19.7429   72.1301 C   0  0  2  0  0  0  0  0  0  0  0  0
   37.7851   20.4812   70.8387 C   0  0  0  0  0  0  0  0  0  0  0  0
   38.4373   21.5300   70.8556 O   0  0  0  0  0  0  0  0  0  0  0  0
   36.9907   20.7387   73.1671 C   0  0  0  0  0  0  0  0  0  0  0  0
   36.4567   20.0117   74.3826 C   0  0  0  0  0  0  0  0  0  0  0  0
   35.5754   21.2097   75.3992 S   0  0  2  0  0  0  0  0  0  0  0  0
   37.0053   22.1005   76.0724 C   0  0  0  0  0  0  0  0  0  0  0  0
   35.1250   20.1712   76.8311 C   0  0  0  0  0  0  0  0  0  0  0  0
   34.4795   21.0551   77.8948 C   0  0  1  0  0  0  0  0  0  0  0  0
   33.1829   21.3824   77.4522 O   0  0  0  0  0  0  0  0  0  0  0  0
   34.2993   20.3031   79.2178 C   0  0  1  0  0  0  0  0  0  0  0  0
   35.3428   20.3135   80.2042 O   0  0  0  0  0  0  0  0  0  0  0  0
   32.8995   20.7874   79.7224 C   0  0  1  0  0  0  0  0  0  0  0  0
   33.0224   21.1577   81.1064 O   0  0  0  0  0  0  0  0  0  0  0  0
   32.4419   21.7796   78.5951 C   0  0  2  0  0  0  0  0  0  0  0  0
   37.4286   19.9990   69.7742 O   0  0  0  0  0  0  0  0  0  0  0  0
   28.4552   18.6139   77.5051 N   0  0  0  0  0  0  0  0  0  0  0  0
   29.7261   18.2928   77.7725 C   0  0  0  0  0  0  0  0  0  0  0  0
   30.6433   19.2246   78.0160 N   0  0  0  0  0  0  0  0  0  0  0  0
   30.3251   20.5318   78.0264 C   0  0  0  0  0  0  0  0  0  0  0  0
   28.9858   20.9257   77.7637 C   0  0  0  0  0  0  0  0  0  0  0  0
   28.0379   19.8941   77.4954 C   0  0  0  0  0  0  0  0  0  0  0  0
   26.7133   20.1952   77.2391 N   0  0  0  0  0  0  0  0  0  0  0  0
   28.9418   22.2757   77.8427 N   0  0  0  0  0  0  0  0  0  0  0  0
   30.1285   22.7259   78.1307 C   0  0  0  0  0  0  0  0  0  0  0  0
   31.0183   21.6870   78.2538 N   0  0  0  0  0  0  0  0  0  0  0  0
  2  1  1  1  0  0  0
  2  3  1  0  0  0  0
  2  5  1  0  0  0  0
  3  4  1  0  0  0  0
  3 17  1  0  0  0  0
  5  6  1  0  0  0  0
  7  6  1  6  0  0  0
  7  8  1  0  0  0  0
  7  9  1  0  0  0  0
 10  9  1  6  0  0  0
 10 11  1  0  0  0  0
 10 12  1  0  0  0  0
 11 16  1  0  0  0  0
 12 13  1  1  0  0  0
 12 14  1  0  0  0  0
 14 15  1  1  0  0  0
 14 16  1  0  0  0  0
 16 27  1  6  0  0  0
 18 19  2  0  0  0  0
 18 23  1  0  0  0  0
 19 20  1  0  0  0  0
 20 21  2  0  0  0  0
 21 22  1  0  0  0  0
 21 27  1  0  0  0  0
 22 23  2  0  0  0  0
 22 25  1  0  0  0  0
 23 24  1  0  0  0  0
 25 26  2  0  0  0  0
 26 27  1  0  0  0  0
M  END
>  <CHROM.1>
-71.85247077,-70.11033669,-168.55882480,-73.83794192,174.22886717,73.93301582
68.61376800,33.55468883,20.64269891,76.37155475,0.65932309,-0.10212118,-1.71355526

>  <Name>
ligand

>  <RI>
0

>  <Rbt.Current_Directory>
/home/itssahil/PROJECTS/Mol_Feturizer/New_Systems/rnas/2QWY

>  <Rbt.Executable>
rbdock ($Id: //depot/dev/client3/rdock/2013.1/src/exe/rbdock.cxx#4 $)

>  <Rbt.Library>
libRbt.so (2013.1, Build901 2013/11/27)

>  <Rbt.Parameter_File>
/export/apps/rDock/src/rDock_2013.1_src/data/scripts/dock_solv.prm

>  <Rbt.Receptor>
prm/pocket_docking_3.prm

>  <SCORE>
-31.4957

>  <SCORE.INTER>
-28.092

>  <SCORE.INTER.CONST>
1

>  <SCORE.INTER.POLAR>
0

>  <SCORE.INTER.ROT>
7

>  <SCORE.INTER.SOLV>
12.3863

>  <SCORE.INTER.VDW>
-31.1234

>  <SCORE.INTER.norm>
-1.04044

>  <SCORE.INTRA>
-3.40372

>  <SCORE.INTRA.DIHEDRAL>
-5.91889

>  <SCORE.INTRA.DIHEDRAL.0>
10.7382

>  <SCORE.INTRA.POLAR>
0

>  <SCORE.INTRA.POLAR.0>
0

>  <SCORE.INTRA.REPUL>
0

>  <SCORE.INTRA.REPUL.0>
0

>  <SCORE.INTRA.SOLV>
-0.60377

>  <SCORE.INTRA.SOLV.lig_0>
-49.2501

>  <SCORE.INTRA.VDW>
-0.142388

>  <SCORE.INTRA.VDW.0>
-1.75368

>  <SCORE.INTRA.norm>
-0.126064

>  <SCORE.RESTR>
0

>  <SCORE.RESTR.CAVITY>
0

>  <SCORE.RESTR.norm>
0

>  <SCORE.SYSTEM>
0

>  <SCORE.SYSTEM.CONST>
0

>  <SCORE.SYSTEM.DIHEDRAL>
0

>  <SCORE.SYSTEM.SOLV>
0

>  <SCORE.SYSTEM.norm>
0

>  <SCORE.heavy>
27

>  <SCORE.norm>
-1.16651

>  <RMSD>
2.280

$$$$
ligand
 OpenBabel11021811463D
libRbt.so/2013.1/901 2013/11/27
 27 29  0  0  0  0  0  0  0  0999 V2000
   38.1006   18.5116   75.4220 N   0  0  0  0  0  0  0  0  0  0  0  0
   36.7877   18.6420   74.7662 C   0  0  2  0  0  0  0  0  0  0  0  0
   36.5296   17.4452   73.8746 C   0  0  0  0  0  0  0  0  0  0  0  0
   35.3817   17.1910   73.4957 O   0  0  0  0  0  0  0  0  0  0  0  0
   36.7790   19.9059   73.9125 C   0  0  0  0  0  0  0  0  0  0  0  0
   37.1264   21.1159   74.7531 C   0  0  0  0  0  0  0  0  0  0  0  0
   35.6152   21.6861   75.5509 S   0  0  2  0  0  0  0  0  0  0  0  0
   36.3250   23.0152   76.5614 C   0  0  0  0  0  0  0  0  0  0  0  0
   35.3908   20.3891   76.8155 C   0  0  0  0  0  0  0  0  0  0  0  0
   34.6615   20.9922   78.0129 C   0  0  1  0  0  0  0  0  0  0  0  0
   33.3817   21.3908   77.5800 O   0  0  0  0  0  0  0  0  0  0  0  0
   34.4320   19.9517   79.1144 C   0  0  1  0  0  0  0  0  0  0  0  0
   35.4193   19.7515   80.1378 O   0  0  0  0  0  0  0  0  0  0  0  0
   32.9927   20.2823   79.6314 C   0  0  1  0  0  0  0  0  0  0  0  0
   33.0282   20.3247   81.0683 O   0  0  0  0  0  0  0  0  0  0  0  0
   32.5675   21.5003   78.7368 C   0  0  2  0  0  0  0  0  0  0  0  0
   37.4690   16.7744   73.4743 O   0  0  0  0  0  0  0  0  0  0  0  0
   28.5134   18.4954   77.4568 N   0  0  0  0  0  0  0  0  0  0  0  0
   29.7451   18.1227   77.8225 C   0  0  0  0  0  0  0  0  0  0  0  0
   30.6885   19.0169   78.1041 N   0  0  0  0  0  0  0  0  0  0  0  0
   30.4358   20.3375   78.0549 C   0  0  0  0  0  0  0  0  0  0  0  0
   29.1392   20.7863   77.6868 C   0  0  0  0  0  0  0  0  0  0  0  0
   28.1620   19.7931   77.3813 C   0  0  0  0  0  0  0  0  0  0  0  0
   26.8751   20.1488   77.0233 N   0  0  0  0  0  0  0  0  0  0  0  0
   29.1571   22.1387   77.7244 N   0  0  0  0  0  0  0  0  0  0  0  0
   30.3419   22.5407   78.0829 C   0  0  0  0  0  0  0  0  0  0  0  0
   31.1681   21.4650   78.2981 N   0  0  0  0  0  0  0  0  0  0  0  0
  2  1  1  6  0  0  0
  2  3  1  0  0  0  0
  2  5  1  0  0  0  0
  3  4  1  0  0  0  0
  3 17  1  0  0  0  0
  5  6  1  0  0  0  0
  7  6  1  6  0  0  0
  7  8  1  0  0  0  0
  7  9  1  0  0  0  0
 10  9  1  6  0  0  0
 10 11  1  0  0  0  0
 10 12  1  0  0  0  0
 11 16  1  0  0  0  0
 12 13  1  1  0  0  0
 12 14  1  0  0  0  0
 14 15  1  1  0  0  0
 14 16  1  0  0  0  0
 16 27  1  6  0  0  0
 18 19  2  0  0  0  0
 18 23  1  0  0  0  0
 19 20  1  0  0  0  0
 20 21  2  0  0  0  0
 21 22  1  0  0  0  0
 21 27  1  0  0  0  0
 22 23  2  0  0  0  0
 22 25  1  0  0  0  0
 23 24  1  0  0  0  0
 25 26  2  0  0  0  0
 26 27  1  0  0  0  0
M  END
>  <CHROM.1>
162.29534668,-55.93336139,-84.33200521,175.85931825,150.99901724,63.64524660
84.24547535,33.42020482,20.12572001,76.97283078,0.41702506,-0.16874781,-2.26910596

>  <Name>
ligand

>  <RI>
0

>  <Rbt.Current_Directory>
/home/itssahil/PROJECTS/Mol_Feturizer/New_Systems/rnas/2QWY

>  <Rbt.Executable>
rbdock ($Id: //depot/dev/client3/rdock/2013.1/src/exe/rbdock.cxx#4 $)

>  <Rbt.Library>
libRbt.so (2013.1, Build901 2013/11/27)

>  <Rbt.Parameter_File>
/export/apps/rDock/src/rDock_2013.1_src/data/scripts/dock_solv.prm

>  <Rbt.Receptor>
prm/pocket_docking_3.prm

>  <SCORE>
-24.9487

>  <SCORE.INTER>
-23.98

>  <SCORE.INTER.CONST>
1

>  <SCORE.INTER.POLAR>
0

>  <SCORE.INTER.ROT>
7

>  <SCORE.INTER.SOLV>
11.7956

>  <SCORE.INTER.VDW>
-28.1852

>  <SCORE.INTER.norm>
-0.888147

>  <SCORE.INTRA>
-0.968966

>  <SCORE.INTRA.DIHEDRAL>
-4.46186

>  <SCORE.INTRA.DIHEDRAL.0>
10.7382

>  <SCORE.INTRA.POLAR>
0

>  <SCORE.INTRA.POLAR.0>
0

>  <SCORE.INTRA.REPUL>
0

>  <SCORE.INTRA.REPUL.0>
0

>  <SCORE.INTRA.SOLV>
0.865095

>  <SCORE.INTRA.SOLV.lig_0>
-49.2501

>  <SCORE.INTRA.VDW>
0.829419

>  <SCORE.INTRA.VDW.0>
-1.75368

>  <SCORE.INTRA.norm>
-0.0358876

>  <SCORE.RESTR>
0.000240427

>  <SCORE.RESTR.CAVITY>
0.000240427

>  <SCORE.RESTR.norm>
8.90471e-06

>  <SCORE.SYSTEM>
0

>  <SCORE.SYSTEM.CONST>
0

>  <SCORE.SYSTEM.DIHEDRAL>
0

>  <SCORE.SYSTEM.SOLV>
0

>  <SCORE.SYSTEM.norm>
0

>  <SCORE.heavy>
27

>  <SCORE.norm>
-0.924026

>  <RMSD>
2.317

$$$$
ligand
 OpenBabel11021811463D
libRbt.so/2013.1/901 2013/11/27
 27 29  0  0  0  0  0  0  0  0999 V2000
   36.5414   19.0026   71.5260 N   0  0  0  0  0  0  0  0  0  0  0  0
   36.7328   19.2366   72.9680 C   0  0  2  0  0  0  0  0  0  0  0  0
   38.2090   19.2214   73.3068 C   0  0  0  0  0  0  0  0  0  0  0  0
   39.0096   18.6470   72.5620 O   0  0  0  0  0  0  0  0  0  0  0  0
   36.0342   18.1296   73.7508 C   0  0  0  0  0  0  0  0  0  0  0  0
   36.0778   18.4216   75.2355 C   0  0  0  0  0  0  0  0  0  0  0  0
   34.9086   19.7503   75.5713 S   0  0  2  0  0  0  0  0  0  0  0  0
   36.0555   21.1529   75.4778 C   0  0  0  0  0  0  0  0  0  0  0  0
   34.7250   19.5895   77.3802 C   0  0  0  0  0  0  0  0  0  0  0  0
   34.1127   20.8759   77.9276 C   0  0  1  0  0  0  0  0  0  0  0  0
   32.7964   20.9686   77.4348 O   0  0  0  0  0  0  0  0  0  0  0  0
   33.9924   20.8364   79.4549 C   0  0  1  0  0  0  0  0  0  0  0  0
   35.0738   21.2999   80.2782 O   0  0  0  0  0  0  0  0  0  0  0  0
   32.6087   21.5142   79.7273 C   0  0  1  0  0  0  0  0  0  0  0  0
   32.7819   22.4909   80.7682 O   0  0  0  0  0  0  0  0  0  0  0  0
   32.0968   21.8636   78.2848 C   0  0  2  0  0  0  0  0  0  0  0  0
   38.6131   19.8386   74.2806 O   0  0  0  0  0  0  0  0  0  0  0  0
   28.3477   18.3319   77.5261 N   0  0  0  0  0  0  0  0  0  0  0  0
   29.6642   18.1350   77.6598 C   0  0  0  0  0  0  0  0  0  0  0  0
   30.5063   19.1501   77.8315 N   0  0  0  0  0  0  0  0  0  0  0  0
   30.0651   20.4192   77.9013 C   0  0  0  0  0  0  0  0  0  0  0  0
   28.6742   20.6817   77.7806 C   0  0  0  0  0  0  0  0  0  0  0  0
   27.8090   19.5646   77.5851 C   0  0  0  0  0  0  0  0  0  0  0  0
   26.4425   19.7361   77.4673 N   0  0  0  0  0  0  0  0  0  0  0  0
   28.5073   22.0197   77.8925 N   0  0  0  0  0  0  0  0  0  0  0  0
   29.6674   22.5818   78.0715 C   0  0  0  0  0  0  0  0  0  0  0  0
   30.6619   21.6346   78.0838 N   0  0  0  0  0  0  0  0  0  0  0  0
  2  1  1  6  0  0  0
  2  3  1  0  0  0  0
  2  5  1  0  0  0  0
  3  4  1  0  0  0  0
  3 17  1  0  0  0  0
  5  6  1  0  0  0  0
  7  6  1  1  0  0  0
  7  8  1  0  0  0  0
  7  9  1  0  0  0  0
 10  9  1  6  0  0  0
 10 11  1  0  0  0  0
 10 12  1  0  0  0  0
 11 16  1  0  0  0  0
 12 13  1  1  0  0  0
 12 14  1  0  0  0  0
 14 15  1  1  0  0  0
 14 16  1  0  0  0  0
 16 27  1  1  0  0  0
 18 19  2  0  0  0  0
 18 23  1  0  0  0  0
 19 20  1  0  0  0  0
 20 21  2  0  0  0  0
 21 22  1  0  0  0  0
 21 27  1  0  0  0  0
 22 23  2  0  0  0  0
 22 25  1  0  0  0  0
 23 24  1  0  0  0  0
 25 26  2  0  0  0  0
 26 27  1  0  0  0  0
M  END
>  <CHROM.1>
-22.16702802,-173.66620041,73.74289390,-94.31185225,162.89852026,66.71082599
38.88575450,33.21390158,20.17660789,76.73233394,0.52222842,-0.13039660,-2.08751503

>  <Name>
ligand

>  <RI>
0

>  <Rbt.Current_Directory>
/home/itssahil/PROJECTS/Mol_Feturizer/New_Systems/rnas/2QWY

>  <Rbt.Executable>
rbdock ($Id: //depot/dev/client3/rdock/2013.1/src/exe/rbdock.cxx#4 $)

>  <Rbt.Library>
libRbt.so (2013.1, Build901 2013/11/27)

>  <Rbt.Parameter_File>
/export/apps/rDock/src/rDock_2013.1_src/data/scripts/dock_solv.prm

>  <Rbt.Receptor>
prm/pocket_docking_3.prm

>  <SCORE>
-27.4193

>  <SCORE.INTER>
-24.4773

>  <SCORE.INTER.CONST>
1

>  <SCORE.INTER.POLAR>
0

>  <SCORE.INTER.ROT>
7

>  <SCORE.INTER.SOLV>
14.0277

>  <SCORE.INTER.VDW>
-29.2607

>  <SCORE.INTER.norm>
-0.906565

>  <SCORE.INTRA>
-2.94205

>  <SCORE.INTRA.DIHEDRAL>
-4.59203

>  <SCORE.INTRA.DIHEDRAL.0>
10.7382

>  <SCORE.INTRA.POLAR>
0

>  <SCORE.INTRA.POLAR.0>
0

>  <SCORE.INTRA.REPUL>
0

>  <SCORE.INTRA.REPUL.0>
0

>  <SCORE.INTRA.SOLV>
-0.747314

>  <SCORE.INTRA.SOLV.lig_0>
-49.2501

>  <SCORE.INTRA.VDW>
-0.272383

>  <SCORE.INTRA.VDW.0>
-1.75368

>  <SCORE.INTRA.norm>
-0.108965

>  <SCORE.RESTR>
0

>  <SCORE.RESTR.CAVITY>
0

>  <SCORE.RESTR.norm>
0

>  <SCORE.SYSTEM>
0

>  <SCORE.SYSTEM.CONST>
0

>  <SCORE.SYSTEM.DIHEDRAL>
0

>  <SCORE.SYSTEM.SOLV>
0

>  <SCORE.SYSTEM.norm>
0

>  <SCORE.heavy>
27

>  <SCORE.norm>
-1.01553

>  <RMSD>
2.317

$$$$
ligand
 OpenBabel11021811463D
libRbt.so/2013.1/901 2013/11/27
 27 29  0  0  0  0  0  0  0  0999 V2000
   36.5796   20.1830   71.6327 N   0  0  0  0  0  0  0  0  0  0  0  0
   37.4933   20.2609   72.7859 C   0  0  2  0  0  0  0  0  0  0  0  0
   38.5831   19.2169   72.6585 C   0  0  0  0  0  0  0  0  0  0  0  0
   38.3185   18.0966   72.2104 O   0  0  0  0  0  0  0  0  0  0  0  0
   36.7057   20.0002   74.0658 C   0  0  0  0  0  0  0  0  0  0  0  0
   37.5712   20.2532   75.2817 C   0  0  0  0  0  0  0  0  0  0  0  0
   36.6436   19.7358   76.7367 S   0  0  2  0  0  0  0  0  0  0  0  0
   36.3164   18.0175   76.2548 C   0  0  0  0  0  0  0  0  0  0  0  0
   35.0201   20.4944   76.3896 C   0  0  0  0  0  0  0  0  0  0  0  0
   34.3649   20.8788   77.7135 C   0  0  1  0  0  0  0  0  0  0  0  0
   33.0840   21.3897   77.4262 O   0  0  0  0  0  0  0  0  0  0  0  0
   34.1429   19.6544   78.6079 C   0  0  1  0  0  0  0  0  0  0  0  0
   35.1640   19.2342   79.5260 O   0  0  0  0  0  0  0  0  0  0  0  0
   32.7400   19.9220   79.2472 C   0  0  1  0  0  0  0  0  0  0  0  0
   32.8375   19.6885   80.6627 O   0  0  0  0  0  0  0  0  0  0  0  0
   32.3238   21.3001   78.6209 C   0  0  2  0  0  0  0  0  0  0  0  0
   39.7370   19.5093   72.9339 O   0  0  0  0  0  0  0  0  0  0  0  0
   28.0103   18.6709   77.3623 N   0  0  0  0  0  0  0  0  0  0  0  0
   29.2275   18.1913   77.6419 C   0  0  0  0  0  0  0  0  0  0  0  0
   30.2445   18.9983   77.9306 N   0  0  0  0  0  0  0  0  0  0  0  0
   30.0853   20.3335   77.9762 C   0  0  0  0  0  0  0  0  0  0  0  0
   28.8087   20.8934   77.7022 C   0  0  0  0  0  0  0  0  0  0  0  0
   27.7499   19.9918   77.3851 C   0  0  0  0  0  0  0  0  0  0  0  0
   26.4768   20.4577   77.1149 N   0  0  0  0  0  0  0  0  0  0  0  0
   28.9253   22.2360   77.8226 N   0  0  0  0  0  0  0  0  0  0  0  0
   30.1511   22.5314   78.1454 C   0  0  0  0  0  0  0  0  0  0  0  0
   30.9070   21.3898   78.2517 N   0  0  0  0  0  0  0  0  0  0  0  0
  2  1  1  6  0  0  0
  2  3  1  0  0  0  0
  2  5  1  0  0  0  0
  3  4  1  0  0  0  0
  3 17  1  0  0  0  0
  5  6  1  0  0  0  0
  7  6  1  6  0  0  0
  7  8  1  0  0  0  0
  7  9  1  0  0  0  0
 10  9  1  6  0  0  0
 10 11  1  0  0  0  0
 10 12  1  0  0  0  0
 11 16  1  0  0  0  0
 12 13  1  1  0  0  0
 12 14  1  0  0  0  0
 14 15  1  1  0  0  0
 14 16  1  0  0  0  0
 16 27  1  6  0  0  0
 18 19  2  0  0  0  0
 18 23  1  0  0  0  0
 19 20  1  0  0  0  0
 20 21  2  0  0  0  0
 21 22  1  0  0  0  0
 21 27  1  0  0  0  0
 22 23  2  0  0  0  0
 22 25  1  0  0  0  0
 23 24  1  0  0  0  0
 25 26  2  0  0  0  0
 26 27  1  0  0  0  0
M  END
>  <CHROM.1>
-38.33474176,-172.47425152,-173.24987622,56.40055122,-148.06930477,-176.65174674
91.84523126,33.56185530,20.01582639,76.65186876,0.46588360,0.08341714,-1.61472685

>  <Name>
ligand

>  <RI>
0

>  <Rbt.Current_Directory>
/home/itssahil/PROJECTS/Mol_Feturizer/New_Systems/rnas/2QWY

>  <Rbt.Executable>
rbdock ($Id: //depot/dev/client3/rdock/2013.1/src/exe/rbdock.cxx#4 $)

>  <Rbt.Library>
libRbt.so (2013.1, Build901 2013/11/27)

>  <Rbt.Parameter_File>
/export/apps/rDock/src/rDock_2013.1_src/data/scripts/dock_solv.prm

>  <Rbt.Receptor>
prm/pocket_docking_5.prm

>  <SCORE>
-22.7535

>  <SCORE.INTER>
-22.9891

>  <SCORE.INTER.CONST>
1

>  <SCORE.INTER.POLAR>
0

>  <SCORE.INTER.ROT>
7

>  <SCORE.INTER.SOLV>
14.8358

>  <SCORE.INTER.VDW>
-28.538

>  <SCORE.INTER.norm>
-0.851449

>  <SCORE.INTRA>
0.235612

>  <SCORE.INTRA.DIHEDRAL>
-3.53536

>  <SCORE.INTRA.DIHEDRAL.0>
10.7382

>  <SCORE.INTRA.POLAR>
0

>  <SCORE.INTRA.POLAR.0>
0

>  <SCORE.INTRA.REPUL>
0

>  <SCORE.INTRA.REPUL.0>
0

>  <SCORE.INTRA.SOLV>
-0.92277

>  <SCORE.INTRA.SOLV.lig_0>
-49.2501

>  <SCORE.INTRA.VDW>
2.46467

>  <SCORE.INTRA.VDW.0>
-1.75368

>  <SCORE.INTRA.norm>
0.00872636

>  <SCORE.RESTR>
0

>  <SCORE.RESTR.CAVITY>
0

>  <SCORE.RESTR.norm>
0

>  <SCORE.SYSTEM>
0

>  <SCORE.SYSTEM.CONST>
0

>  <SCORE.SYSTEM.DIHEDRAL>
0

>  <SCORE.SYSTEM.SOLV>
0

>  <SCORE.SYSTEM.norm>
0

>  <SCORE.heavy>
27

>  <SCORE.norm>
-0.842722

>  <RMSD>
2.338

$$$$
ligand
 OpenBabel11021811463D
libRbt.so/2013.1/901 2013/11/27
 27 29  0  0  0  0  0  0  0  0999 V2000
   38.8337   17.7945   75.0541 N   0  0  0  0  0  0  0  0  0  0  0  0
   37.4936   17.2015   74.9022 C   0  0  2  0  0  0  0  0  0  0  0  0
   36.6892   17.9852   73.8859 C   0  0  0  0  0  0  0  0  0  0  0  0
   35.5378   17.6370   73.6054 O   0  0  0  0  0  0  0  0  0  0  0  0
   36.7721   17.2465   76.2452 C   0  0  0  0  0  0  0  0  0  0  0  0
   36.7291   18.6632   76.7767 C   0  0  0  0  0  0  0  0  0  0  0  0
   35.1481   19.3836   76.3008 S   0  0  2  0  0  0  0  0  0  0  0  0
   35.7672   20.8563   75.4408 C   0  0  0  0  0  0  0  0  0  0  0  0
   34.6214   20.1197   77.8858 C   0  0  0  0  0  0  0  0  0  0  0  0
   33.4643   21.0791   77.6210 C   0  0  1  0  0  0  0  0  0  0  0  0
   32.3273   20.3061   77.3142 O   0  0  0  0  0  0  0  0  0  0  0  0
   33.1040   21.8854   78.8734 C   0  0  1  0  0  0  0  0  0  0  0  0
   33.7511   23.1399   79.1374 O   0  0  0  0  0  0  0  0  0  0  0  0
   31.5406   21.9364   78.8346 C   0  0  1  0  0  0  0  0  0  0  0  0
   31.1278   23.2946   79.0632 O   0  0  0  0  0  0  0  0  0  0  0  0
   31.1935   21.1305   77.5327 C   0  0  2  0  0  0  0  0  0  0  0  0
   37.1571   19.0028   73.3978 O   0  0  0  0  0  0  0  0  0  0  0  0
   25.9991   20.8000   77.4200 N   0  0  0  0  0  0  0  0  0  0  0  0
   26.7696   21.8813   77.2564 C   0  0  0  0  0  0  0  0  0  0  0  0
   28.0956   21.8094   77.3317 N   0  0  0  0  0  0  0  0  0  0  0  0
   28.7199   20.6384   77.5533 C   0  0  0  0  0  0  0  0  0  0  0  0
   27.9484   19.4571   77.7190 C   0  0  0  0  0  0  0  0  0  0  0  0
   26.5296   19.5826   77.6429 C   0  0  0  0  0  0  0  0  0  0  0  0
   25.7099   18.4786   77.7848 N   0  0  0  0  0  0  0  0  0  0  0  0
   28.8146   18.4369   77.9180 N   0  0  0  0  0  0  0  0  0  0  0  0
   30.0317   18.8968   77.8844 C   0  0  0  0  0  0  0  0  0  0  0  0
   30.0259   20.2520   77.6623 N   0  0  0  0  0  0  0  0  0  0  0  0
  2  1  1  1  0  0  0
  2  3  1  0  0  0  0
  2  5  1  0  0  0  0
  3  4  1  0  0  0  0
  3 17  1  0  0  0  0
  5  6  1  0  0  0  0
  7  6  1  1  0  0  0
  7  8  1  0  0  0  0
  7  9  1  0  0  0  0
 10  9  1  1  0  0  0
 10 11  1  0  0  0  0
 10 12  1  0  0  0  0
 11 16  1  0  0  0  0
 12 13  1  6  0  0  0
 12 14  1  0  0  0  0
 14 15  1  6  0  0  0
 14 16  1  0  0  0  0
 16 27  1  1  0  0  0
 18 19  2  0  0  0  0
 18 23  1  0  0  0  0
 19 20  1  0  0  0  0
 20 21  2  0  0  0  0
 21 22  1  0  0  0  0
 21 27  1  0  0  0  0
 22 23  2  0  0  0  0
 22 25  1  0  0  0  0
 23 24  1  0  0  0  0
 25 26  2  0  0  0  0
 26 27  1  0  0  0  0
M  END
>  <CHROM.1>
179.25644721,55.45199313,95.60153997,-124.82966891,166.05206264,72.20389206
-162.93511865,32.47953056,19.95095935,76.90988287,0.33828008,-0.11375969
-2.53555674

>  <Name>
ligand

>  <RI>
0

>  <Rbt.Current_Directory>
/home/itssahil/PROJECTS/Mol_Feturizer/New_Systems/rnas/2QWY

>  <Rbt.Executable>
rbdock ($Id: //depot/dev/client3/rdock/2013.1/src/exe/rbdock.cxx#4 $)

>  <Rbt.Library>
libRbt.so (2013.1, Build901 2013/11/27)

>  <Rbt.Parameter_File>
/export/apps/rDock/src/rDock_2013.1_src/data/scripts/dock_solv.prm

>  <Rbt.Receptor>
prm/pocket_docking_4.prm

>  <SCORE>
-22.8363

>  <SCORE.INTER>
-23.2645

>  <SCORE.INTER.CONST>
1

>  <SCORE.INTER.POLAR>
0

>  <SCORE.INTER.ROT>
7

>  <SCORE.INTER.SOLV>
11.8615

>  <SCORE.INTER.VDW>
-27.7302

>  <SCORE.INTER.norm>
-0.861649

>  <SCORE.INTRA>
0.428234

>  <SCORE.INTRA.DIHEDRAL>
0.981377

>  <SCORE.INTRA.DIHEDRAL.0>
10.7382

>  <SCORE.INTRA.POLAR>
0

>  <SCORE.INTRA.POLAR.0>
0

>  <SCORE.INTRA.REPUL>
0

>  <SCORE.INTRA.REPUL.0>
0

>  <SCORE.INTRA.SOLV>
0.231078

>  <SCORE.INTRA.SOLV.lig_0>
-49.2501

>  <SCORE.INTRA.VDW>
-0.177994

>  <SCORE.INTRA.VDW.0>
-1.75368

>  <SCORE.INTRA.norm>
0.0158605

>  <SCORE.RESTR>
0

>  <SCORE.RESTR.CAVITY>
0

>  <SCORE.RESTR.norm>
0

>  <SCORE.SYSTEM>
0

>  <SCORE.SYSTEM.CONST>
0

>  <SCORE.SYSTEM.DIHEDRAL>
0

>  <SCORE.SYSTEM.SOLV>
0

>  <SCORE.SYSTEM.norm>
0

>  <SCORE.heavy>
27

>  <SCORE.norm>
-0.845789

>  <RMSD>
2.345

$$$$
ligand
 OpenBabel11021811463D
libRbt.so/2013.1/901 2013/11/27
 27 29  0  0  0  0  0  0  0  0999 V2000
   37.4524   18.8400   71.7721 N   0  0  0  0  0  0  0  0  0  0  0  0
   36.9237   20.2152   71.7684 C   0  0  2  0  0  0  0  0  0  0  0  0
   37.7460   21.0870   70.8423 C   0  0  0  0  0  0  0  0  0  0  0  0
   38.8188   20.6725   70.3915 O   0  0  0  0  0  0  0  0  0  0  0  0
   37.0010   20.7840   73.1815 C   0  0  0  0  0  0  0  0  0  0  0  0
   36.1317   19.9803   74.1248 C   0  0  0  0  0  0  0  0  0  0  0  0
   35.5801   21.0811   75.4398 S   0  0  2  0  0  0  0  0  0  0  0  0
   37.1902   21.4225   76.2031 C   0  0  0  0  0  0  0  0  0  0  0  0
   34.8975   19.8740   76.6267 C   0  0  0  0  0  0  0  0  0  0  0  0
   34.2840   20.6327   77.8004 C   0  0  1  0  0  0  0  0  0  0  0  0
   33.0108   21.0843   77.4013 O   0  0  0  0  0  0  0  0  0  0  0  0
   34.0503   19.7135   79.0041 C   0  0  1  0  0  0  0  0  0  0  0  0
   35.0810   19.5329   79.9876 O   0  0  0  0  0  0  0  0  0  0  0  0
   32.6704   20.1936   79.5643 C   0  0  1  0  0  0  0  0  0  0  0  0
   32.7947   20.3604   80.9871 O   0  0  0  0  0  0  0  0  0  0  0  0
   32.2767   21.3555   78.5847 C   0  0  2  0  0  0  0  0  0  0  0  0
   37.3110   22.1720   70.4870 O   0  0  0  0  0  0  0  0  0  0  0  0
   28.0678   18.5434   77.3677 N   0  0  0  0  0  0  0  0  0  0  0  0
   29.3062   18.1162   77.6390 C   0  0  0  0  0  0  0  0  0  0  0  0
   30.2907   18.9662   77.9174 N   0  0  0  0  0  0  0  0  0  0  0  0
   30.0758   20.2936   77.9605 C   0  0  0  0  0  0  0  0  0  0  0  0
   28.7747   20.7985   77.6950 C   0  0  0  0  0  0  0  0  0  0  0  0
   27.7523   19.8523   77.3889 C   0  0  0  0  0  0  0  0  0  0  0  0
   26.4587   20.2633   77.1274 N   0  0  0  0  0  0  0  0  0  0  0  0
   28.8357   22.1452   77.8107 N   0  0  0  0  0  0  0  0  0  0  0  0
   30.0505   22.4929   78.1230 C   0  0  0  0  0  0  0  0  0  0  0  0
   30.8545   21.3843   78.2265 N   0  0  0  0  0  0  0  0  0  0  0  0
  2  1  1  1  0  0  0
  2  3  1  0  0  0  0
  2  5  1  0  0  0  0
  3  4  1  0  0  0  0
  3 17  1  0  0  0  0
  5  6  1  0  0  0  0
  7  6  1  6  0  0  0
  7  8  1  0  0  0  0
  7  9  1  0  0  0  0
 10  9  1  6  0  0  0
 10 11  1  0  0  0  0
 10 12  1  0  0  0  0
 11 16  1  0  0  0  0
 12 13  1  1  0  0  0
 12 14  1  0  0  0  0
 14 15  1  1  0  0  0
 14 16  1  0  0  0  0
 16 27  1  6  0  0  0
 18 19  2  0  0  0  0
 18 23  1  0  0  0  0
 19 20  1  0  0  0  0
 20 21  2  0  0  0  0
 21 22  1  0  0  0  0
 21 27  1  0  0  0  0
 22 23  2  0  0  0  0
 22 25  1  0  0  0  0
 23 24  1  0  0  0  0
 25 26  2  0  0  0  0
 26 27  1  0  0  0  0
M  END
>  <CHROM.1>
-11.36211920,-62.71108623,-151.20120058,-65.28811088,-176.36204523,80.01874913
75.29524411,33.34848441,20.47988430,76.27304437,0.65927891,-0.04006264,-1.54473576

>  <Name>
ligand

>  <RI>
0

>  <Rbt.Current_Directory>
/home/itssahil/PROJECTS/Mol_Feturizer/New_Systems/rnas/2QWY

>  <Rbt.Executable>
rbdock ($Id: //depot/dev/client3/rdock/2013.1/src/exe/rbdock.cxx#4 $)

>  <Rbt.Library>
libRbt.so (2013.1, Build901 2013/11/27)

>  <Rbt.Parameter_File>
/export/apps/rDock/src/rDock_2013.1_src/data/scripts/dock_solv.prm

>  <Rbt.Receptor>
prm/pocket_docking_4.prm

>  <SCORE>
-31.4218

>  <SCORE.INTER>
-29.9078

>  <SCORE.INTER.CONST>
1

>  <SCORE.INTER.POLAR>
0

>  <SCORE.INTER.ROT>
7

>  <SCORE.INTER.SOLV>
13.2932

>  <SCORE.INTER.VDW>
-32.6363

>  <SCORE.INTER.norm>
-1.1077

>  <SCORE.INTRA>
-1.524

>  <SCORE.INTRA.DIHEDRAL>
-2.94034

>  <SCORE.INTRA.DIHEDRAL.0>
10.7382

>  <SCORE.INTRA.POLAR>
0

>  <SCORE.INTRA.POLAR.0>
0

>  <SCORE.INTRA.REPUL>
0

>  <SCORE.INTRA.REPUL.0>
0

>  <SCORE.INTRA.SOLV>
-0.552414

>  <SCORE.INTRA.SOLV.lig_0>
-49.2501

>  <SCORE.INTRA.VDW>
0.222379

>  <SCORE.INTRA.VDW.0>
-1.75368

>  <SCORE.INTRA.norm>
-0.0564444

>  <SCORE.RESTR>
0.00998908

>  <SCORE.RESTR.CAVITY>
0.00998908

>  <SCORE.RESTR.norm>
0.000369966

>  <SCORE.SYSTEM>
0

>  <SCORE.SYSTEM.CONST>
0

>  <SCORE.SYSTEM.DIHEDRAL>
0

>  <SCORE.SYSTEM.SOLV>
0

>  <SCORE.SYSTEM.norm>
0

>  <SCORE.heavy>
27

>  <SCORE.norm>
-1.16377

>  <RMSD>
2.351

$$$$
ligand
 OpenBabel11021811463D
libRbt.so/2013.1/901 2013/11/27
 27 29  0  0  0  0  0  0  0  0999 V2000
   37.4916   18.8312   71.8258 N   0  0  0  0  0  0  0  0  0  0  0  0
   36.9445   20.1988   71.7945 C   0  0  2  0  0  0  0  0  0  0  0  0
   37.7558   21.0630   70.8517 C   0  0  0  0  0  0  0  0  0  0  0  0
   37.3731   22.2039   70.5729 O   0  0  0  0  0  0  0  0  0  0  0  0
   37.0131   20.7966   73.1960 C   0  0  0  0  0  0  0  0  0  0  0  0
   36.1730   19.9861   74.1598 C   0  0  0  0  0  0  0  0  0  0  0  0
   35.6449   21.0823   75.4882 S   0  0  2  0  0  0  0  0  0  0  0  0
   37.2646   21.3954   76.2435 C   0  0  0  0  0  0  0  0  0  0  0  0
   34.9543   19.8738   76.6690 C   0  0  0  0  0  0  0  0  0  0  0  0
   34.3514   20.6304   77.8495 C   0  0  1  0  0  0  0  0  0  0  0  0
   33.0878   21.1096   77.4522 O   0  0  0  0  0  0  0  0  0  0  0  0
   34.0976   19.7023   79.0422 C   0  0  1  0  0  0  0  0  0  0  0  0
   35.1221   19.4919   80.0263 O   0  0  0  0  0  0  0  0  0  0  0  0
   32.7252   20.2011   79.6042 C   0  0  1  0  0  0  0  0  0  0  0  0
   32.8484   20.3498   81.0291 O   0  0  0  0  0  0  0  0  0  0  0  0
   32.3554   21.3809   78.6367 C   0  0  2  0  0  0  0  0  0  0  0  0
   38.8249   20.6544   70.4243 O   0  0  0  0  0  0  0  0  0  0  0  0
   28.0874   18.6574   77.4241 N   0  0  0  0  0  0  0  0  0  0  0  0
   29.3154   18.2041   77.7004 C   0  0  0  0  0  0  0  0  0  0  0  0
   30.3179   19.0332   77.9767 N   0  0  0  0  0  0  0  0  0  0  0  0
   30.1327   20.3653   78.0127 C   0  0  0  0  0  0  0  0  0  0  0  0
   28.8438   20.8979   77.7418 C   0  0  0  0  0  0  0  0  0  0  0  0
   27.8012   19.9731   77.4380 C   0  0  0  0  0  0  0  0  0  0  0  0
   26.5176   20.4117   77.1716 N   0  0  0  0  0  0  0  0  0  0  0  0
   28.9347   22.2434   77.8509 N   0  0  0  0  0  0  0  0  0  0  0  0
   30.1562   22.5654   78.1642 C   0  0  0  0  0  0  0  0  0  0  0  0
   30.9350   21.4397   78.2751 N   0  0  0  0  0  0  0  0  0  0  0  0
  2  1  1  1  0  0  0
  2  3  1  0  0  0  0
  2  5  1  0  0  0  0
  3  4  1  0  0  0  0
  3 17  1  0  0  0  0
  5  6  1  0  0  0  0
  7  6  1  6  0  0  0
  7  8  1  0  0  0  0
  7  9  1  0  0  0  0
 10  9  1  6  0  0  0
 10 11  1  0  0  0  0
 10 12  1  0  0  0  0
 11 16  1  0  0  0  0
 12 13  1  1  0  0  0
 12 14  1  0  0  0  0
 14 15  1  1  0  0  0
 14 16  1  0  0  0  0
 16 27  1  6  0  0  0
 18 19  2  0  0  0  0
 18 23  1  0  0  0  0
 19 20  1  0  0  0  0
 20 21  2  0  0  0  0
 21 22  1  0  0  0  0
 21 27  1  0  0  0  0
 22 23  2  0  0  0  0
 22 25  1  0  0  0  0
 23 24  1  0  0  0  0
 25 26  2  0  0  0  0
 26 27  1  0  0  0  0
M  END
>  <CHROM.1>
172.12495349,-61.72795577,-153.17082495,-66.92321190,-176.02502465,79.36992489
76.25357902,33.40030472,20.50938389,76.31782309,0.66164798,-0.02048743,-1.53259460

>  <Name>
ligand

>  <RI>
0

>  <Rbt.Current_Directory>
/home/itssahil/PROJECTS/Mol_Feturizer/New_Systems/rnas/2QWY

>  <Rbt.Executable>
rbdock ($Id: //depot/dev/client3/rdock/2013.1/src/exe/rbdock.cxx#4 $)

>  <Rbt.Library>
libRbt.so (2013.1, Build901 2013/11/27)

>  <Rbt.Parameter_File>
/export/apps/rDock/src/rDock_2013.1_src/data/scripts/dock_solv.prm

>  <Rbt.Receptor>
prm/pocket_docking_4.prm

>  <SCORE>
-31.5144

>  <SCORE.INTER>
-29.718

>  <SCORE.INTER.CONST>
1

>  <SCORE.INTER.POLAR>
0

>  <SCORE.INTER.ROT>
7

>  <SCORE.INTER.SOLV>
13.2171

>  <SCORE.INTER.VDW>
-32.4844

>  <SCORE.INTER.norm>
-1.10067

>  <SCORE.INTRA>
-1.7967

>  <SCORE.INTRA.DIHEDRAL>
-3.48026

>  <SCORE.INTRA.DIHEDRAL.0>
10.7382

>  <SCORE.INTRA.POLAR>
0

>  <SCORE.INTRA.POLAR.0>
0

>  <SCORE.INTRA.REPUL>
0

>  <SCORE.INTRA.REPUL.0>
0

>  <SCORE.INTRA.SOLV>
-0.552811

>  <SCORE.INTRA.SOLV.lig_0>
-49.2501

>  <SCORE.INTRA.VDW>
0.219829

>  <SCORE.INTRA.VDW.0>
-1.75368

>  <SCORE.INTRA.norm>
-0.0665446

>  <SCORE.RESTR>
0.000325871

>  <SCORE.RESTR.CAVITY>
0.000325871

>  <SCORE.RESTR.norm>
1.20693e-05

>  <SCORE.SYSTEM>
0

>  <SCORE.SYSTEM.CONST>
0

>  <SCORE.SYSTEM.DIHEDRAL>
0

>  <SCORE.SYSTEM.SOLV>
0

>  <SCORE.SYSTEM.norm>
0

>  <SCORE.heavy>
27

>  <SCORE.norm>
-1.1672

>  <RMSD>
2.356

$$$$
ligand
 OpenBabel11021811463D
libRbt.so/2013.1/901 2013/11/27
 27 29  0  0  0  0  0  0  0  0999 V2000
   37.5016   18.4439   73.2436 N   0  0  0  0  0  0  0  0  0  0  0  0
   37.2940   17.2369   74.0627 C   0  0  2  0  0  0  0  0  0  0  0  0
   36.7126   16.1252   73.2142 C   0  0  0  0  0  0  0  0  0  0  0  0
   37.3275   15.0624   73.0795 O   0  0  0  0  0  0  0  0  0  0  0  0
   36.3193   17.5600   75.1904 C   0  0  0  0  0  0  0  0  0  0  0  0
   36.8548   18.6869   76.0475 C   0  0  0  0  0  0  0  0  0  0  0  0
   35.6309   19.0413   77.3210 S   0  0  2  0  0  0  0  0  0  0  0  0
   34.3223   19.7165   76.2612 C   0  0  0  0  0  0  0  0  0  0  0  0
   36.3144   20.5792   78.0277 C   0  0  0  0  0  0  0  0  0  0  0  0
   35.3872   21.0629   79.1394 C   0  0  1  0  0  0  0  0  0  0  0  0
   34.1681   21.4446   78.5460 O   0  0  0  0  0  0  0  0  0  0  0  0
   35.0476   19.9349   80.1195 C   0  0  1  0  0  0  0  0  0  0  0  0
   35.8806   19.6958   81.2646 O   0  0  0  0  0  0  0  0  0  0  0  0
   33.5332   20.1716   80.4341 C   0  0  1  0  0  0  0  0  0  0  0  0
   33.3531   20.1075   81.8592 O   0  0  0  0  0  0  0  0  0  0  0  0
   33.1870   21.4365   79.5709 C   0  0  2  0  0  0  0  0  0  0  0  0
   35.6021   16.2566   72.7221 O   0  0  0  0  0  0  0  0  0  0  0  0
   29.4186   18.3754   77.6912 N   0  0  0  0  0  0  0  0  0  0  0  0
   30.5853   18.0199   78.2409 C   0  0  0  0  0  0  0  0  0  0  0  0
   31.4619   18.9272   78.6620 N   0  0  0  0  0  0  0  0  0  0  0  0
   31.2010   20.2441   78.5734 C   0  0  0  0  0  0  0  0  0  0  0  0
   29.9694   20.6748   78.0113 C   0  0  0  0  0  0  0  0  0  0  0  0
   29.0645   19.6681   77.5615 C   0  0  0  0  0  0  0  0  0  0  0  0
   27.8423   20.0057   77.0110 N   0  0  0  0  0  0  0  0  0  0  0  0
   29.9622   22.0272   78.0495 N   0  0  0  0  0  0  0  0  0  0  0  0
   31.0726   22.4457   78.5841 C   0  0  0  0  0  0  0  0  0  0  0  0
   31.8715   21.3817   78.9240 N   0  0  0  0  0  0  0  0  0  0  0  0
  2  1  1  6  0  0  0
  2  3  1  0  0  0  0
  2  5  1  0  0  0  0
  3  4  1  0  0  0  0
  3 17  1  0  0  0  0
  5  6  1  0  0  0  0
  7  6  1  6  0  0  0
  7  8  1  0  0  0  0
  7  9  1  0  0  0  0
 10  9  1  6  0  0  0
 10 11  1  0  0  0  0
 10 12  1  0  0  0  0
 11 16  1  0  0  0  0
 12 13  1  1  0  0  0
 12 14  1  0  0  0  0
 14 15  1  1  0  0  0
 14 16  1  0  0  0  0
 16 27  1  6  0  0  0
 18 19  2  0  0  0  0
 18 23  1  0  0  0  0
 19 20  1  0  0  0  0
 20 21  2  0  0  0  0
 21 22  1  0  0  0  0
 21 27  1  0  0  0  0
 22 23  2  0  0  0  0
 22 25  1  0  0  0  0
 23 24  1  0  0  0  0
 25 26  2  0  0  0  0
 26 27  1  0  0  0  0
M  END
>  <CHROM.1>
119.62387986,-58.70712056,178.33795145,-67.84396072,179.24603257,-66.68167814
88.69790234,33.77763771,19.36947884,77.43855159,0.79938542,0.09190851,-2.10323398

>  <Name>
ligand

>  <RI>
0

>  <Rbt.Current_Directory>
/home/itssahil/PROJECTS/Mol_Feturizer/New_Systems/rnas/2QWY

>  <Rbt.Executable>
rbdock ($Id: //depot/dev/client3/rdock/2013.1/src/exe/rbdock.cxx#4 $)

>  <Rbt.Library>
libRbt.so (2013.1, Build901 2013/11/27)

>  <Rbt.Parameter_File>
/export/apps/rDock/src/rDock_2013.1_src/data/scripts/dock_solv.prm

>  <Rbt.Receptor>
prm/pocket_docking_3.prm

>  <SCORE>
-21.175

>  <SCORE.INTER>
-18.2938

>  <SCORE.INTER.CONST>
1

>  <SCORE.INTER.POLAR>
0

>  <SCORE.INTER.ROT>
7

>  <SCORE.INTER.SOLV>
14.3999

>  <SCORE.INTER.VDW>
-25.2625

>  <SCORE.INTER.norm>
-0.677547

>  <SCORE.INTRA>
-2.88126

>  <SCORE.INTRA.DIHEDRAL>
-7.07157

>  <SCORE.INTRA.DIHEDRAL.0>
10.7382

>  <SCORE.INTRA.POLAR>
0

>  <SCORE.INTRA.POLAR.0>
0

>  <SCORE.INTRA.REPUL>
0

>  <SCORE.INTRA.REPUL.0>
0

>  <SCORE.INTRA.SOLV>
0.0166812

>  <SCORE.INTRA.SOLV.lig_0>
-49.2501

>  <SCORE.INTRA.VDW>
0.646184

>  <SCORE.INTRA.VDW.0>
-1.75368

>  <SCORE.INTRA.norm>
-0.106713

>  <SCORE.RESTR>
0

>  <SCORE.RESTR.CAVITY>
0

>  <SCORE.RESTR.norm>
0

>  <SCORE.SYSTEM>
0

>  <SCORE.SYSTEM.CONST>
0

>  <SCORE.SYSTEM.DIHEDRAL>
0

>  <SCORE.SYSTEM.SOLV>
0

>  <SCORE.SYSTEM.norm>
0

>  <SCORE.heavy>
27

>  <SCORE.norm>
-0.78426

>  <RMSD>
2.370

$$$$
ligand
 OpenBabel11021811463D
libRbt.so/2013.1/901 2013/11/27
 27 29  0  0  0  0  0  0  0  0999 V2000
   36.7320   18.6922   71.6304 N   0  0  0  0  0  0  0  0  0  0  0  0
   36.8104   20.1442   71.8677 C   0  0  2  0  0  0  0  0  0  0  0  0
   37.9804   20.7339   71.1077 C   0  0  0  0  0  0  0  0  0  0  0  0
   37.8609   21.8202   70.5321 O   0  0  0  0  0  0  0  0  0  0  0  0
   37.0111   20.3967   73.3584 C   0  0  0  0  0  0  0  0  0  0  0  0
   35.8077   19.9206   74.1435 C   0  0  0  0  0  0  0  0  0  0  0  0
   36.2005   20.0626   75.8959 S   0  0  2  0  0  0  0  0  0  0  0  0
   37.2567   18.5964   76.0584 C   0  0  0  0  0  0  0  0  0  0  0  0
   34.6532   19.4432   76.6402 C   0  0  0  0  0  0  0  0  0  0  0  0
   34.1484   20.4708   77.6495 C   0  0  1  0  0  0  0  0  0  0  0  0
   32.8569   20.8665   77.2500 O   0  0  0  0  0  0  0  0  0  0  0  0
   33.9920   19.8585   79.0456 C   0  0  1  0  0  0  0  0  0  0  0  0
   35.0929   19.8683   79.9676 O   0  0  0  0  0  0  0  0  0  0  0  0
   32.6698   20.5037   79.5784 C   0  0  1  0  0  0  0  0  0  0  0  0
   32.9084   20.9848   80.9123 O   0  0  0  0  0  0  0  0  0  0  0  0
   32.2231   21.4263   78.3893 C   0  0  2  0  0  0  0  0  0  0  0  0
   39.0620   20.1661   71.1254 O   0  0  0  0  0  0  0  0  0  0  0  0
   28.0044   18.5299   77.4318 N   0  0  0  0  0  0  0  0  0  0  0  0
   29.2693   18.1296   77.6033 C   0  0  0  0  0  0  0  0  0  0  0  0
   30.2510   18.9993   77.8246 N   0  0  0  0  0  0  0  0  0  0  0  0
   30.0082   20.3199   77.9085 C   0  0  0  0  0  0  0  0  0  0  0  0
   28.6793   20.7963   77.7490 C   0  0  0  0  0  0  0  0  0  0  0  0
   27.6600   19.8298   77.5009 C   0  0  0  0  0  0  0  0  0  0  0  0
   26.3411   20.2125   77.3431 N   0  0  0  0  0  0  0  0  0  0  0  0
   28.7164   22.1419   77.8853 N   0  0  0  0  0  0  0  0  0  0  0  0
   29.9422   22.5148   78.1140 C   0  0  0  0  0  0  0  0  0  0  0  0
   30.7780   21.4253   78.1372 N   0  0  0  0  0  0  0  0  0  0  0  0
  2  1  1  1  0  0  0
  2  3  1  0  0  0  0
  2  5  1  0  0  0  0
  3  4  1  0  0  0  0
  3 17  1  0  0  0  0
  5  6  1  0  0  0  0
  7  6  1  6  0  0  0
  7  8  1  0  0  0  0
  7  9  1  0  0  0  0
 10  9  1  6  0  0  0
 10 11  1  0  0  0  0
 10 12  1  0  0  0  0
 11 16  1  0  0  0  0
 12 13  1  1  0  0  0
 12 14  1  0  0  0  0
 14 15  1  1  0  0  0
 14 16  1  0  0  0  0
 16 27  1  6  0  0  0
 18 19  2  0  0  0  0
 18 23  1  0  0  0  0
 19 20  1  0  0  0  0
 20 21  2  0  0  0  0
 21 22  1  0  0  0  0
 21 27  1  0  0  0  0
 22 23  2  0  0  0  0
 22 25  1  0  0  0  0
 23 24  1  0  0  0  0
 25 26  2  0  0  0  0
 26 27  1  0  0  0  0
M  END
>  <CHROM.1>
139.09692222,-64.32034249,173.11446566,-77.21801433,-127.36370646,121.28085560
60.73188387,33.35534202,20.24607110,76.33928874,0.61726679,0.01600027,-1.57764740

>  <Name>
ligand

>  <RI>
0

>  <Rbt.Current_Directory>
/home/itssahil/PROJECTS/Mol_Feturizer/New_Systems/rnas/2QWY

>  <Rbt.Executable>
rbdock ($Id: //depot/dev/client3/rdock/2013.1/src/exe/rbdock.cxx#4 $)

>  <Rbt.Library>
libRbt.so (2013.1, Build901 2013/11/27)

>  <Rbt.Parameter_File>
/export/apps/rDock/src/rDock_2013.1_src/data/scripts/dock_solv.prm

>  <Rbt.Receptor>
prm/pocket_docking_3.prm

>  <SCORE>
-29.1302

>  <SCORE.INTER>
-29.41

>  <SCORE.INTER.CONST>
1

>  <SCORE.INTER.POLAR>
0

>  <SCORE.INTER.ROT>
7

>  <SCORE.INTER.SOLV>
13.6075

>  <SCORE.INTER.VDW>
-32.4092

>  <SCORE.INTER.norm>
-1.08926

>  <SCORE.INTRA>
0.275908

>  <SCORE.INTRA.DIHEDRAL>
2.22608

>  <SCORE.INTRA.DIHEDRAL.0>
10.7382

>  <SCORE.INTRA.POLAR>
0

>  <SCORE.INTRA.POLAR.0>
0

>  <SCORE.INTRA.REPUL>
0

>  <SCORE.INTRA.REPUL.0>
0

>  <SCORE.INTRA.SOLV>
-0.279303

>  <SCORE.INTRA.SOLV.lig_0>
-49.2501

>  <SCORE.INTRA.VDW>
-0.697482

>  <SCORE.INTRA.VDW.0>
-1.75368

>  <SCORE.INTRA.norm>
0.0102188

>  <SCORE.RESTR>
0.00391483

>  <SCORE.RESTR.CAVITY>
0.00391483

>  <SCORE.RESTR.norm>
0.000144994

>  <SCORE.SYSTEM>
0

>  <SCORE.SYSTEM.CONST>
0

>  <SCORE.SYSTEM.DIHEDRAL>
0

>  <SCORE.SYSTEM.SOLV>
0

>  <SCORE.SYSTEM.norm>
0

>  <SCORE.heavy>
27

>  <SCORE.norm>
-1.0789

>  <RMSD>
2.375

$$$$
ligand
 OpenBabel11021811463D
libRbt.so/2013.1/901 2013/11/27
 27 29  0  0  0  0  0  0  0  0999 V2000
   38.8282   19.2506   73.6059 N   0  0  0  0  0  0  0  0  0  0  0  0
   37.6469   19.6889   72.8423 C   0  0  2  0  0  0  0  0  0  0  0  0
   38.0741   20.2753   71.5128 C   0  0  0  0  0  0  0  0  0  0  0  0
   37.2947   20.9863   70.8703 O   0  0  0  0  0  0  0  0  0  0  0  0
   36.9053   20.7574   73.6389 C   0  0  0  0  0  0  0  0  0  0  0  0
   36.4079   20.1905   74.9514 C   0  0  0  0  0  0  0  0  0  0  0  0
   35.5022   21.4918   75.8067 S   0  0  2  0  0  0  0  0  0  0  0  0
   36.9110   22.5160   76.3147 C   0  0  0  0  0  0  0  0  0  0  0  0
   35.1138   20.6542   77.3813 C   0  0  0  0  0  0  0  0  0  0  0  0
   34.3451   21.6228   78.2759 C   0  0  1  0  0  0  0  0  0  0  0  0
   33.0553   21.7786   77.7315 O   0  0  0  0  0  0  0  0  0  0  0  0
   34.1455   21.0509   79.6836 C   0  0  1  0  0  0  0  0  0  0  0  0
   35.1273   21.2838   80.7053 O   0  0  0  0  0  0  0  0  0  0  0  0
   32.6873   21.4856   80.0482 C   0  0  1  0  0  0  0  0  0  0  0  0
   32.7031   22.0545   81.3687 O   0  0  0  0  0  0  0  0  0  0  0  0
   32.2229   22.2701   78.7700 C   0  0  2  0  0  0  0  0  0  0  0  0
   39.2151   20.1009   71.1126 O   0  0  0  0  0  0  0  0  0  0  0  0
   28.6680   18.6705   77.5411 N   0  0  0  0  0  0  0  0  0  0  0  0
   29.9578   18.4970   77.8512 C   0  0  0  0  0  0  0  0  0  0  0  0
   30.7524   19.5273   78.1270 N   0  0  0  0  0  0  0  0  0  0  0  0
   30.2850   20.7889   78.1281 C   0  0  0  0  0  0  0  0  0  0  0  0
   28.9186   21.0268   77.8203 C   0  0  0  0  0  0  0  0  0  0  0  0
   28.1060   19.8940   77.5186 C   0  0  0  0  0  0  0  0  0  0  0  0
   26.7649   20.0413   77.2177 N   0  0  0  0  0  0  0  0  0  0  0  0
   28.7162   22.3622   77.8994 N   0  0  0  0  0  0  0  0  0  0  0  0
   29.8325   22.9451   78.2282 C   0  0  0  0  0  0  0  0  0  0  0  0
   30.8318   22.0154   78.3802 N   0  0  0  0  0  0  0  0  0  0  0  0
  2  1  1  1  0  0  0
  2  3  1  0  0  0  0
  2  5  1  0  0  0  0
  3  4  1  0  0  0  0
  3 17  1  0  0  0  0
  5  6  1  0  0  0  0
  7  6  1  6  0  0  0
  7  8  1  0  0  0  0
  7  9  1  0  0  0  0
 10  9  1  6  0  0  0
 10 11  1  0  0  0  0
 10 12  1  0  0  0  0
 11 16  1  0  0  0  0
 12 13  1  1  0  0  0
 12 14  1  0  0  0  0
 14 15  1  1  0  0  0
 14 16  1  0  0  0  0
 16 27  1  6  0  0  0
 18 19  2  0  0  0  0
 18 23  1  0  0  0  0
 19 20  1  0  0  0  0
 20 21  2  0  0  0  0
 21 22  1  0  0  0  0
 21 27  1  0  0  0  0
 22 23  2  0  0  0  0
 22 25  1  0  0  0  0
 23 24  1  0  0  0  0
 25 26  2  0  0  0  0
 26 27  1  0  0  0  0
M  END
>  <CHROM.1>
-162.37435344,-62.25499864,-178.23911329,-73.33518616,179.21099163,71.41975861
59.93472979,33.52777136,20.90775073,76.71609567,-0.59657201,0.14987387,1.28001107

>  <Name>
ligand

>  <RI>
0

>  <Rbt.Current_Directory>
/home/itssahil/PROJECTS/Mol_Feturizer/New_Systems/rnas/2QWY

>  <Rbt.Executable>
rbdock ($Id: //depot/dev/client3/rdock/2013.1/src/exe/rbdock.cxx#4 $)

>  <Rbt.Library>
libRbt.so (2013.1, Build901 2013/11/27)

>  <Rbt.Parameter_File>
/export/apps/rDock/src/rDock_2013.1_src/data/scripts/dock_solv.prm

>  <Rbt.Receptor>
prm/pocket_docking_8.prm

>  <SCORE>
-29.3

>  <SCORE.INTER>
-26.0197

>  <SCORE.INTER.CONST>
1

>  <SCORE.INTER.POLAR>
0

>  <SCORE.INTER.ROT>
7

>  <SCORE.INTER.SOLV>
11.0626

>  <SCORE.INTER.VDW>
-29.3007

>  <SCORE.INTER.norm>
-0.963692

>  <SCORE.INTRA>
-3.28115

>  <SCORE.INTRA.DIHEDRAL>
-6.64104

>  <SCORE.INTRA.DIHEDRAL.0>
10.7382

>  <SCORE.INTRA.POLAR>
0

>  <SCORE.INTRA.POLAR.0>
0

>  <SCORE.INTRA.REPUL>
0

>  <SCORE.INTRA.REPUL.0>
0

>  <SCORE.INTRA.SOLV>
-0.397638

>  <SCORE.INTRA.SOLV.lig_0>
-49.2501

>  <SCORE.INTRA.VDW>
0.238186

>  <SCORE.INTRA.VDW.0>
-1.75368

>  <SCORE.INTRA.norm>
-0.121524

>  <SCORE.RESTR>
0.000875346

>  <SCORE.RESTR.CAVITY>
0.000875346

>  <SCORE.RESTR.norm>
3.24202e-05

>  <SCORE.SYSTEM>
0

>  <SCORE.SYSTEM.CONST>
0

>  <SCORE.SYSTEM.DIHEDRAL>
0

>  <SCORE.SYSTEM.SOLV>
0

>  <SCORE.SYSTEM.norm>
0

>  <SCORE.heavy>
27

>  <SCORE.norm>
-1.08518

>  <RMSD>
2.434

$$$$
ligand
 OpenBabel11021811463D
libRbt.so/2013.1/901 2013/11/27
 27 29  0  0  0  0  0  0  0  0999 V2000
   36.5977   18.7590   72.0345 N   0  0  0  0  0  0  0  0  0  0  0  0
   36.1467   18.6113   73.4294 C   0  0  2  0  0  0  0  0  0  0  0  0
   35.1733   19.7168   73.7820 C   0  0  0  0  0  0  0  0  0  0  0  0
   34.0776   19.4414   74.2812 O   0  0  0  0  0  0  0  0  0  0  0  0
   37.3542   18.7009   74.3570 C   0  0  0  0  0  0  0  0  0  0  0  0
   36.9401   18.4527   75.7917 C   0  0  0  0  0  0  0  0  0  0  0  0
   36.0961   19.9292   76.3858 S   0  0  2  0  0  0  0  0  0  0  0  0
   37.5497   20.8885   76.8940 C   0  0  0  0  0  0  0  0  0  0  0  0
   35.4973   19.3461   78.0084 C   0  0  0  0  0  0  0  0  0  0  0  0
   34.7804   20.4968   78.7095 C   0  0  1  0  0  0  0  0  0  0  0  0
   33.5614   20.7158   78.0386 O   0  0  0  0  0  0  0  0  0  0  0  0
   34.4119   20.1346   80.1522 C   0  0  1  0  0  0  0  0  0  0  0  0
   35.3350   20.3926   81.2216 O   0  0  0  0  0  0  0  0  0  0  0  0
   32.9902   20.7631   80.3320 C   0  0  1  0  0  0  0  0  0  0  0  0
   32.9728   21.4921   81.5713 O   0  0  0  0  0  0  0  0  0  0  0  0
   32.7159   21.4212   78.9333 C   0  0  2  0  0  0  0  0  0  0  0  0
   35.5039   20.8840   73.6365 O   0  0  0  0  0  0  0  0  0  0  0  0
   28.9084   18.0803   77.7310 N   0  0  0  0  0  0  0  0  0  0  0  0
   30.1479   17.8136   78.1581 C   0  0  0  0  0  0  0  0  0  0  0  0
   31.0220   18.7842   78.4087 N   0  0  0  0  0  0  0  0  0  0  0  0
   30.6876   20.0794   78.2648 C   0  0  0  0  0  0  0  0  0  0  0  0
   29.3786   20.4174   77.8284 C   0  0  0  0  0  0  0  0  0  0  0  0
   28.4780   19.3446   77.5593 C   0  0  0  0  0  0  0  0  0  0  0  0
   27.1843   19.5912   77.1394 N   0  0  0  0  0  0  0  0  0  0  0  0
   29.3091   21.7677   77.7771 N   0  0  0  0  0  0  0  0  0  0  0  0
   30.4527   22.2689   78.1444 C   0  0  0  0  0  0  0  0  0  0  0  0
   31.3378   21.2659   78.4553 N   0  0  0  0  0  0  0  0  0  0  0  0
  2  1  1  6  0  0  0
  2  3  1  0  0  0  0
  2  5  1  0  0  0  0
  3  4  1  0  0  0  0
  3 17  1  0  0  0  0
  5  6  1  0  0  0  0
  7  6  1  6  0  0  0
  7  8  1  0  0  0  0
  7  9  1  0  0  0  0
 10  9  1  6  0  0  0
 10 11  1  0  0  0  0
 10 12  1  0  0  0  0
 11 16  1  0  0  0  0
 12 13  1  1  0  0  0
 12 14  1  0  0  0  0
 14 15  1  1  0  0  0
 14 16  1  0  0  0  0
 16 27  1  6  0  0  0
 18 19  2  0  0  0  0
 18 23  1  0  0  0  0
 19 20  1  0  0  0  0
 20 21  2  0  0  0  0
 21 22  1  0  0  0  0
 21 27  1  0  0  0  0
 22 23  2  0  0  0  0
 22 25  1  0  0  0  0
 23 24  1  0  0  0  0
 25 26  2  0  0  0  0
 26 27  1  0  0  0  0
M  END
>  <CHROM.1>
128.34540208,-175.89627952,-75.08475600,-84.73059672,177.96512808,71.42724935
57.78265647,33.37284583,19.99623926,77.25279540,0.53768553,-0.04977363,-1.83684705

>  <Name>
ligand

>  <RI>
0

>  <Rbt.Current_Directory>
/home/itssahil/PROJECTS/Mol_Feturizer/New_Systems/rnas/2QWY

>  <Rbt.Executable>
rbdock ($Id: //depot/dev/client3/rdock/2013.1/src/exe/rbdock.cxx#4 $)

>  <Rbt.Library>
libRbt.so (2013.1, Build901 2013/11/27)

>  <Rbt.Parameter_File>
/export/apps/rDock/src/rDock_2013.1_src/data/scripts/dock_solv.prm

>  <Rbt.Receptor>
prm/pocket_docking_2.prm

>  <SCORE>
-18.2423

>  <SCORE.INTER>
-18.0836

>  <SCORE.INTER.CONST>
1

>  <SCORE.INTER.POLAR>
0

>  <SCORE.INTER.ROT>
7

>  <SCORE.INTER.SOLV>
15.2859

>  <SCORE.INTER.VDW>
-25.4177

>  <SCORE.INTER.norm>
-0.669763

>  <SCORE.INTRA>
-2.51723

>  <SCORE.INTRA.DIHEDRAL>
-5.35604

>  <SCORE.INTRA.DIHEDRAL.0>
10.7382

>  <SCORE.INTRA.POLAR>
0

>  <SCORE.INTRA.POLAR.0>
0

>  <SCORE.INTRA.REPUL>
0

>  <SCORE.INTRA.REPUL.0>
0

>  <SCORE.INTRA.SOLV>
-1.03558

>  <SCORE.INTRA.SOLV.lig_0>
-49.2501

>  <SCORE.INTRA.VDW>
0.678585

>  <SCORE.INTRA.VDW.0>
-1.75368

>  <SCORE.INTRA.norm>
-0.0932307

>  <SCORE.RESTR>
2.35856

>  <SCORE.RESTR.CAVITY>
2.35856

>  <SCORE.RESTR.norm>
0.0873541

>  <SCORE.SYSTEM>
0

>  <SCORE.SYSTEM.CONST>
0

>  <SCORE.SYSTEM.DIHEDRAL>
0

>  <SCORE.SYSTEM.SOLV>
0

>  <SCORE.SYSTEM.norm>
0

>  <SCORE.heavy>
27

>  <SCORE.norm>
-0.67564

>  <RMSD>
2.435

$$$$
ligand
 OpenBabel11021811463D
libRbt.so/2013.1/901 2013/11/27
 27 29  0  0  0  0  0  0  0  0999 V2000
   36.4183   18.3395   72.2235 N   0  0  0  0  0  0  0  0  0  0  0  0
   37.0814   19.1783   73.2372 C   0  0  2  0  0  0  0  0  0  0  0  0
   37.5195   18.3280   74.4115 C   0  0  0  0  0  0  0  0  0  0  0  0
   38.6016   18.5470   74.9653 O   0  0  0  0  0  0  0  0  0  0  0  0
   36.0991   20.2355   73.7311 C   0  0  0  0  0  0  0  0  0  0  0  0
   36.8107   21.2619   74.5864 C   0  0  0  0  0  0  0  0  0  0  0  0
   35.5860   22.0280   75.6627 S   0  0  2  0  0  0  0  0  0  0  0  0
   36.7118   22.9649   76.7334 C   0  0  0  0  0  0  0  0  0  0  0  0
   35.1741   20.6265   76.7570 C   0  0  0  0  0  0  0  0  0  0  0  0
   34.4515   21.1623   77.9900 C   0  0  1  0  0  0  0  0  0  0  0  0
   33.1624   21.5658   77.5907 O   0  0  0  0  0  0  0  0  0  0  0  0
   34.2467   20.0673   79.0424 C   0  0  1  0  0  0  0  0  0  0  0  0
   35.2477   19.8301   80.0443 O   0  0  0  0  0  0  0  0  0  0  0  0
   32.8096   20.3553   79.5903 C   0  0  1  0  0  0  0  0  0  0  0  0
   32.8610   20.3290   81.0270 O   0  0  0  0  0  0  0  0  0  0  0  0
   32.3602   21.6097   78.7601 C   0  0  2  0  0  0  0  0  0  0  0  0
   36.7680   17.4719   74.8530 O   0  0  0  0  0  0  0  0  0  0  0  0
   28.3051   18.6182   77.4521 N   0  0  0  0  0  0  0  0  0  0  0  0
   29.5421   18.2423   77.7961 C   0  0  0  0  0  0  0  0  0  0  0  0
   30.4848   19.1338   78.0887 N   0  0  0  0  0  0  0  0  0  0  0  0
   30.2262   20.4540   78.0734 C   0  0  0  0  0  0  0  0  0  0  0  0
   28.9239   20.9058   77.7295 C   0  0  0  0  0  0  0  0  0  0  0  0
   27.9477   19.9158   77.4109 C   0  0  0  0  0  0  0  0  0  0  0  0
   26.6556   20.2742   77.0748 N   0  0  0  0  0  0  0  0  0  0  0  0
   28.9368   22.2569   77.7987 N   0  0  0  0  0  0  0  0  0  0  0  0
   30.1236   22.6555   78.1543 C   0  0  0  0  0  0  0  0  0  0  0  0
   30.9565   21.5787   78.3354 N   0  0  0  0  0  0  0  0  0  0  0  0
  2  1  1  6  0  0  0
  2  3  1  0  0  0  0
  2  5  1  0  0  0  0
  3  4  1  0  0  0  0
  3 17  1  0  0  0  0
  5  6  1  0  0  0  0
  7  6  1  6  0  0  0
  7  8  1  0  0  0  0
  7  9  1  0  0  0  0
 10  9  1  6  0  0  0
 10 11  1  0  0  0  0
 10 12  1  0  0  0  0
 11 16  1  0  0  0  0
 12 13  1  1  0  0  0
 12 14  1  0  0  0  0
 14 15  1  1  0  0  0
 14 16  1  0  0  0  0
 16 27  1  6  0  0  0
 18 19  2  0  0  0  0
 18 23  1  0  0  0  0
 19 20  1  0  0  0  0
 20 21  2  0  0  0  0
 21 22  1  0  0  0  0
 21 27  1  0  0  0  0
 22 23  2  0  0  0  0
 22 25  1  0  0  0  0
 23 24  1  0  0  0  0
 25 26  2  0  0  0  0
 26 27  1  0  0  0  0
M  END
>  <CHROM.1>
140.98536217,-170.02154180,-156.67591834,170.89470174,163.96139734,71.81411522
85.72495303,33.35240611,20.36637637,76.94199414,0.41561309,-0.12801170,-2.06840345

>  <Name>
ligand

>  <RI>
0

>  <Rbt.Current_Directory>
/home/itssahil/PROJECTS/Mol_Feturizer/New_Systems/rnas/2QWY

>  <Rbt.Executable>
rbdock ($Id: //depot/dev/client3/rdock/2013.1/src/exe/rbdock.cxx#4 $)

>  <Rbt.Library>
libRbt.so (2013.1, Build901 2013/11/27)

>  <Rbt.Parameter_File>
/export/apps/rDock/src/rDock_2013.1_src/data/scripts/dock_solv.prm

>  <Rbt.Receptor>
prm/pocket_docking_7.prm

>  <SCORE>
-27.5083

>  <SCORE.INTER>
-24.0949

>  <SCORE.INTER.CONST>
1

>  <SCORE.INTER.POLAR>
0

>  <SCORE.INTER.ROT>
7

>  <SCORE.INTER.SOLV>
12.9039

>  <SCORE.INTER.VDW>
-28.6312

>  <SCORE.INTER.norm>
-0.892402

>  <SCORE.INTRA>
-3.41345

>  <SCORE.INTRA.DIHEDRAL>
-4.77354

>  <SCORE.INTRA.DIHEDRAL.0>
10.7382

>  <SCORE.INTRA.POLAR>
0

>  <SCORE.INTRA.POLAR.0>
0

>  <SCORE.INTRA.REPUL>
0

>  <SCORE.INTRA.REPUL.0>
0

>  <SCORE.INTRA.SOLV>
-1.22411

>  <SCORE.INTRA.SOLV.lig_0>
-49.2501

>  <SCORE.INTRA.VDW>
-0.414622

>  <SCORE.INTRA.VDW.0>
-1.75368

>  <SCORE.INTRA.norm>
-0.126424

>  <SCORE.RESTR>
0

>  <SCORE.RESTR.CAVITY>
0

>  <SCORE.RESTR.norm>
0

>  <SCORE.SYSTEM>
0

>  <SCORE.SYSTEM.CONST>
0

>  <SCORE.SYSTEM.DIHEDRAL>
0

>  <SCORE.SYSTEM.SOLV>
0

>  <SCORE.SYSTEM.norm>
0

>  <SCORE.heavy>
27

>  <SCORE.norm>
-1.01883

>  <RMSD>
2.438

$$$$
ligand
 OpenBabel11021811463D
libRbt.so/2013.1/901 2013/11/27
 27 29  0  0  0  0  0  0  0  0999 V2000
   36.9864   18.9653   71.9246 N   0  0  0  0  0  0  0  0  0  0  0  0
   37.5574   19.8894   72.9200 C   0  0  2  0  0  0  0  0  0  0  0  0
   38.4886   19.1415   73.8513 C   0  0  0  0  0  0  0  0  0  0  0  0
   39.4984   19.6973   74.2954 O   0  0  0  0  0  0  0  0  0  0  0  0
   36.4263   20.5027   73.7390 C   0  0  0  0  0  0  0  0  0  0  0  0
   36.9649   21.5614   74.6773 C   0  0  0  0  0  0  0  0  0  0  0  0
   35.5913   22.1662   75.6738 S   0  0  2  0  0  0  0  0  0  0  0  0
   36.5271   23.2174   76.8187 C   0  0  0  0  0  0  0  0  0  0  0  0
   35.2784   20.7140   76.7343 C   0  0  0  0  0  0  0  0  0  0  0  0
   34.5466   21.1736   77.9924 C   0  0  1  0  0  0  0  0  0  0  0  0
   33.2566   21.5909   77.6105 O   0  0  0  0  0  0  0  0  0  0  0  0
   34.3444   20.0187   78.9793 C   0  0  1  0  0  0  0  0  0  0  0  0
   35.3425   19.7310   79.9709 O   0  0  0  0  0  0  0  0  0  0  0  0
   32.9029   20.2655   79.5357 C   0  0  1  0  0  0  0  0  0  0  0  0
   32.9480   20.1572   80.9689 O   0  0  0  0  0  0  0  0  0  0  0  0
   32.4488   21.5625   78.7766 C   0  0  2  0  0  0  0  0  0  0  0  0
   38.2005   18.0120   74.2172 O   0  0  0  0  0  0  0  0  0  0  0  0
   28.3743   18.6158   77.4279 N   0  0  0  0  0  0  0  0  0  0  0  0
   29.6059   18.2266   77.7765 C   0  0  0  0  0  0  0  0  0  0  0  0
   30.5549   19.1077   78.0798 N   0  0  0  0  0  0  0  0  0  0  0  0
   30.3084   20.4303   78.0710 C   0  0  0  0  0  0  0  0  0  0  0  0
   29.0122   20.8959   77.7227 C   0  0  0  0  0  0  0  0  0  0  0  0
   28.0289   19.9168   77.3927 C   0  0  0  0  0  0  0  0  0  0  0  0
   26.7420   20.2889   77.0516 N   0  0  0  0  0  0  0  0  0  0  0  0
   29.0368   22.2465   77.8002 N   0  0  0  0  0  0  0  0  0  0  0  0
   30.2252   22.6322   78.1648 C   0  0  0  0  0  0  0  0  0  0  0  0
   31.0473   21.5467   78.3439 N   0  0  0  0  0  0  0  0  0  0  0  0
  2  1  1  6  0  0  0
  2  3  1  0  0  0  0
  2  5  1  0  0  0  0
  3  4  1  0  0  0  0
  3 17  1  0  0  0  0
  5  6  1  0  0  0  0
  7  6  1  6  0  0  0
  7  8  1  0  0  0  0
  7  9  1  0  0  0  0
 10  9  1  6  0  0  0
 10 11  1  0  0  0  0
 10 12  1  0  0  0  0
 11 16  1  0  0  0  0
 12 13  1  1  0  0  0
 12 14  1  0  0  0  0
 14 15  1  1  0  0  0
 14 16  1  0  0  0  0
 16 27  1  6  0  0  0
 18 19  2  0  0  0  0
 18 23  1  0  0  0  0
 19 20  1  0  0  0  0
 20 21  2  0  0  0  0
 21 22  1  0  0  0  0
 21 27  1  0  0  0  0
 22 23  2  0  0  0  0
 22 25  1  0  0  0  0
 23 24  1  0  0  0  0
 25 26  2  0  0  0  0
 26 27  1  0  0  0  0
M  END
>  <CHROM.1>
145.49412929,-174.30195247,-176.70477813,172.90339641,158.05182703,68.24415452
88.79742531,33.57989231,20.53132450,76.84622200,0.42754955,-0.11837380,-1.90135578

>  <Name>
ligand

>  <RI>
0

>  <Rbt.Current_Directory>
/home/itssahil/PROJECTS/Mol_Feturizer/New_Systems/rnas/2QWY

>  <Rbt.Executable>
rbdock ($Id: //depot/dev/client3/rdock/2013.1/src/exe/rbdock.cxx#4 $)

>  <Rbt.Library>
libRbt.so (2013.1, Build901 2013/11/27)

>  <Rbt.Parameter_File>
/export/apps/rDock/src/rDock_2013.1_src/data/scripts/dock_solv.prm

>  <Rbt.Receptor>
prm/pocket_docking_5.prm

>  <SCORE>
-28.9309

>  <SCORE.INTER>
-25.0995

>  <SCORE.INTER.CONST>
1

>  <SCORE.INTER.POLAR>
0

>  <SCORE.INTER.ROT>
7

>  <SCORE.INTER.SOLV>
12.4935

>  <SCORE.INTER.VDW>
-29.1642

>  <SCORE.INTER.norm>
-0.929612

>  <SCORE.INTRA>
-3.83133

>  <SCORE.INTRA.DIHEDRAL>
-6.75284

>  <SCORE.INTRA.DIHEDRAL.0>
10.7382

>  <SCORE.INTRA.POLAR>
0

>  <SCORE.INTRA.POLAR.0>
0

>  <SCORE.INTRA.REPUL>
0

>  <SCORE.INTRA.REPUL.0>
0

>  <SCORE.INTRA.SOLV>
-1.21283

>  <SCORE.INTRA.SOLV.lig_0>
-49.2501

>  <SCORE.INTRA.VDW>
0.151509

>  <SCORE.INTRA.VDW.0>
-1.75368

>  <SCORE.INTRA.norm>
-0.141901

>  <SCORE.RESTR>
0

>  <SCORE.RESTR.CAVITY>
0

>  <SCORE.RESTR.norm>
0

>  <SCORE.SYSTEM>
0

>  <SCORE.SYSTEM.CONST>
0

>  <SCORE.SYSTEM.DIHEDRAL>
0

>  <SCORE.SYSTEM.SOLV>
0

>  <SCORE.SYSTEM.norm>
0

>  <SCORE.heavy>
27

>  <SCORE.norm>
-1.07151

>  <RMSD>
2.463

$$$$
ligand
 OpenBabel11021811463D
libRbt.so/2013.1/901 2013/11/27
 27 29  0  0  0  0  0  0  0  0999 V2000
   36.7469   18.1470   71.9419 N   0  0  0  0  0  0  0  0  0  0  0  0
   36.1510   18.2439   73.2859 C   0  0  2  0  0  0  0  0  0  0  0  0
   35.6306   19.6460   73.5251 C   0  0  0  0  0  0  0  0  0  0  0  0
   34.4858   19.8166   73.9567 O   0  0  0  0  0  0  0  0  0  0  0  0
   37.2176   17.9274   74.3293 C   0  0  0  0  0  0  0  0  0  0  0  0
   36.5792   17.6595   75.6755 C   0  0  0  0  0  0  0  0  0  0  0  0
   36.2716   19.2485   76.4664 S   0  0  2  0  0  0  0  0  0  0  0  0
   37.0024   18.8920   78.0883 C   0  0  0  0  0  0  0  0  0  0  0  0
   34.4959   19.0922   76.8591 C   0  0  0  0  0  0  0  0  0  0  0  0
   34.0521   20.3337   77.6280 C   0  0  1  0  0  0  0  0  0  0  0  0
   32.7495   20.6595   77.2023 O   0  0  0  0  0  0  0  0  0  0  0  0
   33.9506   20.0577   79.1320 C   0  0  1  0  0  0  0  0  0  0  0  0
   35.0923   20.2497   79.9816 O   0  0  0  0  0  0  0  0  0  0  0  0
   32.6633   20.8387   79.5579 C   0  0  1  0  0  0  0  0  0  0  0  0
   32.9691   21.6037   80.7364 O   0  0  0  0  0  0  0  0  0  0  0  0
   32.1761   21.4782   78.2094 C   0  0  2  0  0  0  0  0  0  0  0  0
   36.3706   20.6035   73.3571 O   0  0  0  0  0  0  0  0  0  0  0  0
   27.9602   18.5154   77.4664 N   0  0  0  0  0  0  0  0  0  0  0  0
   29.2373   18.1343   77.5826 C   0  0  0  0  0  0  0  0  0  0  0  0
   30.2155   19.0194   77.7527 N   0  0  0  0  0  0  0  0  0  0  0  0
   29.9577   20.3371   77.8382 C   0  0  0  0  0  0  0  0  0  0  0  0
   28.6162   20.7935   77.7363 C   0  0  0  0  0  0  0  0  0  0  0  0
   27.6007   19.8109   77.5420 C   0  0  0  0  0  0  0  0  0  0  0  0
   26.2706   20.1737   77.4419 N   0  0  0  0  0  0  0  0  0  0  0  0
   28.6402   22.1405   77.8613 N   0  0  0  0  0  0  0  0  0  0  0  0
   29.8696   22.5323   78.0310 C   0  0  0  0  0  0  0  0  0  0  0  0
   30.7212   21.4549   78.0236 N   0  0  0  0  0  0  0  0  0  0  0  0
  2  1  1  6  0  0  0
  2  3  1  0  0  0  0
  2  5  1  0  0  0  0
  3  4  1  0  0  0  0
  3 17  1  0  0  0  0
  5  6  1  0  0  0  0
  7  6  1  6  0  0  0
  7  8  1  0  0  0  0
  7  9  1  0  0  0  0
 10  9  1  6  0  0  0
 10 11  1  0  0  0  0
 10 12  1  0  0  0  0
 11 16  1  0  0  0  0
 12 13  1  1  0  0  0
 12 14  1  0  0  0  0
 14 15  1  1  0  0  0
 14 16  1  0  0  0  0
 16 27  1  1  0  0  0
 18 19  2  0  0  0  0
 18 23  1  0  0  0  0
 19 20  1  0  0  0  0
 20 21  2  0  0  0  0
 21 22  1  0  0  0  0
 21 27  1  0  0  0  0
 22 23  2  0  0  0  0
 22 25  1  0  0  0  0
 23 24  1  0  0  0  0
 25 26  2  0  0  0  0
 26 27  1  0  0  0  0
M  END
>  <CHROM.1>
130.73143666,-165.14071688,-82.95275210,-130.71162806,176.55128048,142.63565120
47.87976728,33.01146043,19.87527113,76.90647477,0.45393525,0.06461735,-1.88519229

>  <Name>
ligand

>  <RI>
0

>  <Rbt.Current_Directory>
/home/itssahil/PROJECTS/Mol_Feturizer/New_Systems/rnas/2QWY

>  <Rbt.Executable>
rbdock ($Id: //depot/dev/client3/rdock/2013.1/src/exe/rbdock.cxx#4 $)

>  <Rbt.Library>
libRbt.so (2013.1, Build901 2013/11/27)

>  <Rbt.Parameter_File>
/export/apps/rDock/src/rDock_2013.1_src/data/scripts/dock_solv.prm

>  <Rbt.Receptor>
prm/pocket_docking_3.prm

>  <SCORE>
-25.1192

>  <SCORE.INTER>
-24.7645

>  <SCORE.INTER.CONST>
1

>  <SCORE.INTER.POLAR>
0

>  <SCORE.INTER.ROT>
7

>  <SCORE.INTER.SOLV>
12.2009

>  <SCORE.INTER.VDW>
-28.8433

>  <SCORE.INTER.norm>
-0.917205

>  <SCORE.INTRA>
-0.354688

>  <SCORE.INTRA.DIHEDRAL>
2.95004

>  <SCORE.INTRA.DIHEDRAL.0>
10.7382

>  <SCORE.INTRA.POLAR>
0

>  <SCORE.INTRA.POLAR.0>
0

>  <SCORE.INTRA.REPUL>
0

>  <SCORE.INTRA.REPUL.0>
0

>  <SCORE.INTRA.SOLV>
-0.808735

>  <SCORE.INTRA.SOLV.lig_0>
-49.2501

>  <SCORE.INTRA.VDW>
-1.42534

>  <SCORE.INTRA.VDW.0>
-1.75368

>  <SCORE.INTRA.norm>
-0.0131366

>  <SCORE.RESTR>
0

>  <SCORE.RESTR.CAVITY>
0

>  <SCORE.RESTR.norm>
0

>  <SCORE.SYSTEM>
0

>  <SCORE.SYSTEM.CONST>
0

>  <SCORE.SYSTEM.DIHEDRAL>
0

>  <SCORE.SYSTEM.SOLV>
0

>  <SCORE.SYSTEM.norm>
0

>  <SCORE.heavy>
27

>  <SCORE.norm>
-0.930342

>  <RMSD>
2.492

$$$$
ligand
 OpenBabel11021811463D
libRbt.so/2013.1/901 2013/11/27
 27 29  0  0  0  0  0  0  0  0999 V2000
   36.3124   17.6283   73.9776 N   0  0  0  0  0  0  0  0  0  0  0  0
   37.2523   17.0943   74.9787 C   0  0  2  0  0  0  0  0  0  0  0  0
   37.1853   15.5814   75.0013 C   0  0  0  0  0  0  0  0  0  0  0  0
   36.8156   14.9626   73.9982 O   0  0  0  0  0  0  0  0  0  0  0  0
   36.8711   17.6270   76.3561 C   0  0  0  0  0  0  0  0  0  0  0  0
   37.0019   19.1345   76.3963 C   0  0  0  0  0  0  0  0  0  0  0  0
   35.3734   19.8383   76.0830 S   0  0  2  0  0  0  0  0  0  0  0  0
   35.8929   21.4618   75.4617 C   0  0  0  0  0  0  0  0  0  0  0  0
   34.8634   20.2780   77.7795 C   0  0  0  0  0  0  0  0  0  0  0  0
   33.6995   21.2624   77.7025 C   0  0  1  0  0  0  0  0  0  0  0  0
   32.5497   20.5396   77.3287 O   0  0  0  0  0  0  0  0  0  0  0  0
   33.3891   21.8750   79.0724 C   0  0  1  0  0  0  0  0  0  0  0  0
   34.0490   23.0791   79.4931 O   0  0  0  0  0  0  0  0  0  0  0  0
   31.8255   21.9265   79.1007 C   0  0  1  0  0  0  0  0  0  0  0  0
   31.4251   23.2352   79.5419 O   0  0  0  0  0  0  0  0  0  0  0  0
   31.4271   21.3196   77.7087 C   0  0  2  0  0  0  0  0  0  0  0  0
   37.5653   14.9731   75.9904 O   0  0  0  0  0  0  0  0  0  0  0  0
   26.2406   20.9661   77.4280 N   0  0  0  0  0  0  0  0  0  0  0  0
   27.0073   22.0598   77.3515 C   0  0  0  0  0  0  0  0  0  0  0  0
   28.3311   21.9912   77.4603 N   0  0  0  0  0  0  0  0  0  0  0  0
   28.9577   20.8127   77.6291 C   0  0  0  0  0  0  0  0  0  0  0  0
   28.1908   19.6190   77.7015 C   0  0  0  0  0  0  0  0  0  0  0  0
   26.7738   19.7406   77.5926 C   0  0  0  0  0  0  0  0  0  0  0  0
   25.9588   18.6254   77.6446 N   0  0  0  0  0  0  0  0  0  0  0  0
   29.0587   18.5938   77.8638 N   0  0  0  0  0  0  0  0  0  0  0  0
   30.2728   19.0620   77.8926 C   0  0  0  0  0  0  0  0  0  0  0  0
   30.2630   20.4281   77.7521 N   0  0  0  0  0  0  0  0  0  0  0  0
  2  1  1  6  0  0  0
  2  3  1  0  0  0  0
  2  5  1  0  0  0  0
  3  4  1  0  0  0  0
  3 17  1  0  0  0  0
  5  6  1  0  0  0  0
  7  6  1  1  0  0  0
  7  8  1  0  0  0  0
  7  9  1  0  0  0  0
 10  9  1  1  0  0  0
 10 11  1  0  0  0  0
 10 12  1  0  0  0  0
 11 16  1  0  0  0  0
 12 13  1  6  0  0  0
 12 14  1  0  0  0  0
 14 15  1  6  0  0  0
 14 16  1  0  0  0  0
 16 27  1  1  0  0  0
 18 19  2  0  0  0  0
 18 23  1  0  0  0  0
 19 20  1  0  0  0  0
 20 21  2  0  0  0  0
 21 22  1  0  0  0  0
 21 27  1  0  0  0  0
 22 23  2  0  0  0  0
 22 25  1  0  0  0  0
 23 24  1  0  0  0  0
 25 26  2  0  0  0  0
 26 27  1  0  0  0  0
M  END
>  <CHROM.1>
25.42391986,-62.94667692,96.31110446,-156.15299142,163.14160852,74.55286821
-156.63483638,32.65927292,19.76151696,77.06336108,0.45923460,-0.08085822
-2.68418094

>  <Name>
ligand

>  <RI>
0

>  <Rbt.Current_Directory>
/home/itssahil/PROJECTS/Mol_Feturizer/New_Systems/rnas/2QWY

>  <Rbt.Executable>
rbdock ($Id: //depot/dev/client3/rdock/2013.1/src/exe/rbdock.cxx#4 $)

>  <Rbt.Library>
libRbt.so (2013.1, Build901 2013/11/27)

>  <Rbt.Parameter_File>
/export/apps/rDock/src/rDock_2013.1_src/data/scripts/dock_solv.prm

>  <Rbt.Receptor>
prm/pocket_docking_5.prm

>  <SCORE>
-24.0685

>  <SCORE.INTER>
-24.4576

>  <SCORE.INTER.CONST>
1

>  <SCORE.INTER.POLAR>
0

>  <SCORE.INTER.ROT>
7

>  <SCORE.INTER.SOLV>
13.4761

>  <SCORE.INTER.VDW>
-29.0638

>  <SCORE.INTER.norm>
-0.905837

>  <SCORE.INTRA>
0.389129

>  <SCORE.INTRA.DIHEDRAL>
-0.589379

>  <SCORE.INTRA.DIHEDRAL.0>
10.7382

>  <SCORE.INTRA.POLAR>
0

>  <SCORE.INTRA.POLAR.0>
0

>  <SCORE.INTRA.REPUL>
0

>  <SCORE.INTRA.REPUL.0>
0

>  <SCORE.INTRA.SOLV>
0.956253

>  <SCORE.INTRA.SOLV.lig_0>
-49.2501

>  <SCORE.INTRA.VDW>
0.205692

>  <SCORE.INTRA.VDW.0>
-1.75368

>  <SCORE.INTRA.norm>
0.0144122

>  <SCORE.RESTR>
0

>  <SCORE.RESTR.CAVITY>
0

>  <SCORE.RESTR.norm>
0

>  <SCORE.SYSTEM>
0

>  <SCORE.SYSTEM.CONST>
0

>  <SCORE.SYSTEM.DIHEDRAL>
0

>  <SCORE.SYSTEM.SOLV>
0

>  <SCORE.SYSTEM.norm>
0

>  <SCORE.heavy>
27

>  <SCORE.norm>
-0.891424

>  <RMSD>
2.505

$$$$
ligand
 OpenBabel11021811463D
libRbt.so/2013.1/901 2013/11/27
 27 29  0  0  0  0  0  0  0  0999 V2000
   36.9876   15.3013   74.1929 N   0  0  0  0  0  0  0  0  0  0  0  0
   37.9259   16.2960   74.7415 C   0  0  2  0  0  0  0  0  0  0  0  0
   38.7985   15.6591   75.8031 C   0  0  0  0  0  0  0  0  0  0  0  0
   39.9613   16.0441   75.9621 O   0  0  0  0  0  0  0  0  0  0  0  0
   37.1330   17.4364   75.3717 C   0  0  0  0  0  0  0  0  0  0  0  0
   36.1448   18.0078   74.3775 C   0  0  0  0  0  0  0  0  0  0  0  0
   35.3595   19.4386   75.1401 S   0  0  2  0  0  0  0  0  0  0  0  0
   36.8147   20.5152   75.2629 C   0  0  0  0  0  0  0  0  0  0  0  0
   35.2209   18.8668   76.8680 C   0  0  0  0  0  0  0  0  0  0  0  0
   34.3867   19.8752   77.6532 C   0  0  1  0  0  0  0  0  0  0  0  0
   33.0483   19.7446   77.2337 O   0  0  0  0  0  0  0  0  0  0  0  0
   34.3935   19.5641   79.1538 C   0  0  1  0  0  0  0  0  0  0  0  0
   35.4072   20.1223   80.0040 O   0  0  0  0  0  0  0  0  0  0  0  0
   32.9201   19.8570   79.5915 C   0  0  1  0  0  0  0  0  0  0  0  0
   32.9549   20.6669   80.7792 O   0  0  0  0  0  0  0  0  0  0  0  0
   32.2371   20.3086   78.2520 C   0  0  2  0  0  0  0  0  0  0  0  0
   38.3264   14.8132   76.5476 O   0  0  0  0  0  0  0  0  0  0  0  0
   27.2311   21.5125   77.4808 N   0  0  0  0  0  0  0  0  0  0  0  0
   28.2743   22.3373   77.6266 C   0  0  0  0  0  0  0  0  0  0  0  0
   29.5035   21.8750   77.8375 N   0  0  0  0  0  0  0  0  0  0  0  0
   29.7532   20.5541   77.8899 C   0  0  0  0  0  0  0  0  0  0  0  0
   28.6826   19.6348   77.7258 C   0  0  0  0  0  0  0  0  0  0  0  0
   27.3794   20.1746   77.5143 C   0  0  0  0  0  0  0  0  0  0  0  0
   26.2871   19.3461   77.3371 N   0  0  0  0  0  0  0  0  0  0  0  0
   29.2056   18.3900   77.8142 N   0  0  0  0  0  0  0  0  0  0  0  0
   30.4887   18.4786   78.0132 C   0  0  0  0  0  0  0  0  0  0  0  0
   30.8753   19.7952   78.0682 N   0  0  0  0  0  0  0  0  0  0  0  0
  2  1  1  1  0  0  0
  2  3  1  0  0  0  0
  2  5  1  0  0  0  0
  3  4  1  0  0  0  0
  3 17  1  0  0  0  0
  5  6  1  0  0  0  0
  7  6  1  6  0  0  0
  7  8  1  0  0  0  0
  7  9  1  0  0  0  0
 10  9  1  6  0  0  0
 10 11  1  0  0  0  0
 10 12  1  0  0  0  0
 11 16  1  0  0  0  0
 12 13  1  1  0  0  0
 12 14  1  0  0  0  0
 14 15  1  1  0  0  0
 14 16  1  0  0  0  0
 16 27  1  1  0  0  0
 18 19  2  0  0  0  0
 18 23  1  0  0  0  0
 19 20  1  0  0  0  0
 20 21  2  0  0  0  0
 21 22  1  0  0  0  0
 21 27  1  0  0  0  0
 22 23  2  0  0  0  0
 22 25  1  0  0  0  0
 23 24  1  0  0  0  0
 25 26  2  0  0  0  0
 26 27  1  0  0  0  0
M  END
>  <CHROM.1>
147.53673126,-54.00034641,-174.86749813,65.51313338,-171.92478585,71.99492280
-122.91394833,33.42077382,19.04687637,77.10124110,0.41848290,0.16739922,-2.20507873

>  <Name>
ligand

>  <RI>
0

>  <Rbt.Current_Directory>
/home/itssahil/PROJECTS/Mol_Feturizer/New_Systems/rnas/2QWY

>  <Rbt.Executable>
rbdock ($Id: //depot/dev/client3/rdock/2013.1/src/exe/rbdock.cxx#4 $)

>  <Rbt.Library>
libRbt.so (2013.1, Build901 2013/11/27)

>  <Rbt.Parameter_File>
/export/apps/rDock/src/rDock_2013.1_src/data/scripts/dock_solv.prm

>  <Rbt.Receptor>
prm/pocket_docking_6.prm

>  <SCORE>
-25.3736

>  <SCORE.INTER>
-25.3928

>  <SCORE.INTER.CONST>
1

>  <SCORE.INTER.POLAR>
0

>  <SCORE.INTER.ROT>
7

>  <SCORE.INTER.SOLV>
14.5096

>  <SCORE.INTER.VDW>
-30.0317

>  <SCORE.INTER.norm>
-0.940475

>  <SCORE.INTRA>
0.01922

>  <SCORE.INTRA.DIHEDRAL>
-5.49597

>  <SCORE.INTRA.DIHEDRAL.0>
10.7382

>  <SCORE.INTRA.POLAR>
0

>  <SCORE.INTRA.POLAR.0>
0

>  <SCORE.INTRA.REPUL>
0

>  <SCORE.INTRA.REPUL.0>
0

>  <SCORE.INTRA.SOLV>
-0.477138

>  <SCORE.INTRA.SOLV.lig_0>
-49.2501

>  <SCORE.INTRA.VDW>
3.00577

>  <SCORE.INTRA.VDW.0>
-1.75368

>  <SCORE.INTRA.norm>
0.000711854

>  <SCORE.RESTR>
0

>  <SCORE.RESTR.CAVITY>
0

>  <SCORE.RESTR.norm>
0

>  <SCORE.SYSTEM>
0

>  <SCORE.SYSTEM.CONST>
0

>  <SCORE.SYSTEM.DIHEDRAL>
0

>  <SCORE.SYSTEM.SOLV>
0

>  <SCORE.SYSTEM.norm>
0

>  <SCORE.heavy>
27

>  <SCORE.norm>
-0.939763

>  <RMSD>
2.539

$$$$
ligand
 OpenBabel11021811463D
libRbt.so/2013.1/901 2013/11/27
 27 29  0  0  0  0  0  0  0  0999 V2000
   38.5919   16.4039   76.1909 N   0  0  0  0  0  0  0  0  0  0  0  0
   37.3018   16.1629   75.5214 C   0  0  2  0  0  0  0  0  0  0  0  0
   37.5223   15.4332   74.2126 C   0  0  0  0  0  0  0  0  0  0  0  0
   36.5821   14.8519   73.6614 O   0  0  0  0  0  0  0  0  0  0  0  0
   36.6301   17.5018   75.2342 C   0  0  0  0  0  0  0  0  0  0  0  0
   36.2388   18.1866   76.5262 C   0  0  0  0  0  0  0  0  0  0  0  0
   35.1250   19.5421   76.1170 S   0  0  2  0  0  0  0  0  0  0  0  0
   36.3616   20.7642   75.5985 C   0  0  0  0  0  0  0  0  0  0  0  0
   34.7216   20.1631   77.7854 C   0  0  0  0  0  0  0  0  0  0  0  0
   33.5787   21.1683   77.6718 C   0  0  1  0  0  0  0  0  0  0  0  0
   32.4129   20.4560   77.3284 O   0  0  0  0  0  0  0  0  0  0  0  0
   33.2847   21.8403   79.0173 C   0  0  1  0  0  0  0  0  0  0  0  0
   33.9710   23.0456   79.3895 O   0  0  0  0  0  0  0  0  0  0  0  0
   31.7226   21.9261   79.0461 C   0  0  1  0  0  0  0  0  0  0  0  0
   31.3512   23.2593   79.4364 O   0  0  0  0  0  0  0  0  0  0  0  0
   31.3081   21.2739   77.6795 C   0  0  2  0  0  0  0  0  0  0  0  0
   38.6154   15.4814   73.6691 O   0  0  0  0  0  0  0  0  0  0  0  0
   26.1173   21.0124   77.3774 N   0  0  0  0  0  0  0  0  0  0  0  0
   26.9070   22.0849   77.2508 C   0  0  0  0  0  0  0  0  0  0  0  0
   28.2284   21.9950   77.3731 N   0  0  0  0  0  0  0  0  0  0  0  0
   28.8292   20.8142   77.6070 C   0  0  0  0  0  0  0  0  0  0  0  0
   28.0372   19.6417   77.7346 C   0  0  0  0  0  0  0  0  0  0  0  0
   26.6238   19.7864   77.6087 C   0  0  0  0  0  0  0  0  0  0  0  0
   25.7854   18.6922   77.7116 N   0  0  0  0  0  0  0  0  0  0  0  0
   28.8826   18.6087   77.9560 N   0  0  0  0  0  0  0  0  0  0  0  0
   30.1059   19.0528   77.9700 C   0  0  0  0  0  0  0  0  0  0  0  0
   30.1254   20.4098   77.7596 N   0  0  0  0  0  0  0  0  0  0  0  0
  2  1  1  6  0  0  0
  2  3  1  0  0  0  0
  2  5  1  0  0  0  0
  3  4  1  0  0  0  0
  3 17  1  0  0  0  0
  5  6  1  0  0  0  0
  7  6  1  1  0  0  0
  7  8  1  0  0  0  0
  7  9  1  0  0  0  0
 10  9  1  1  0  0  0
 10 11  1  0  0  0  0
 10 12  1  0  0  0  0
 11 16  1  0  0  0  0
 12 13  1  6  0  0  0
 12 14  1  0  0  0  0
 14 15  1  6  0  0  0
 14 16  1  0  0  0  0
 16 27  1  1  0  0  0
 18 19  2  0  0  0  0
 18 23  1  0  0  0  0
 19 20  1  0  0  0  0
 20 21  2  0  0  0  0
 21 22  1  0  0  0  0
 21 27  1  0  0  0  0
 22 23  2  0  0  0  0
 22 25  1  0  0  0  0
 23 24  1  0  0  0  0
 25 26  2  0  0  0  0
 26 27  1  0  0  0  0
M  END
>  <CHROM.1>
162.26701899,-66.68666566,-166.85279004,-80.12097511,-169.82810472,69.89872533
-155.75448187,32.66918072,19.60144797,76.98722032,0.49545532,-0.05724571
-2.63011220

>  <Name>
ligand

>  <RI>
0

>  <Rbt.Current_Directory>
/home/itssahil/PROJECTS/Mol_Feturizer/New_Systems/rnas/2QWY

>  <Rbt.Executable>
rbdock ($Id: //depot/dev/client3/rdock/2013.1/src/exe/rbdock.cxx#4 $)

>  <Rbt.Library>
libRbt.so (2013.1, Build901 2013/11/27)

>  <Rbt.Parameter_File>
/export/apps/rDock/src/rDock_2013.1_src/data/scripts/dock_solv.prm

>  <Rbt.Receptor>
prm/pocket_docking_5.prm

>  <SCORE>
-27.687

>  <SCORE.INTER>
-24.6627

>  <SCORE.INTER.CONST>
1

>  <SCORE.INTER.POLAR>
0

>  <SCORE.INTER.ROT>
7

>  <SCORE.INTER.SOLV>
12.571

>  <SCORE.INTER.VDW>
-28.8988

>  <SCORE.INTER.norm>
-0.913433

>  <SCORE.INTRA>
-3.02435

>  <SCORE.INTRA.DIHEDRAL>
-5.04495

>  <SCORE.INTRA.DIHEDRAL.0>
10.7382

>  <SCORE.INTRA.POLAR>
0

>  <SCORE.INTRA.POLAR.0>
0

>  <SCORE.INTRA.REPUL>
0

>  <SCORE.INTRA.REPUL.0>
0

>  <SCORE.INTRA.SOLV>
-0.61755

>  <SCORE.INTRA.SOLV.lig_0>
-49.2501

>  <SCORE.INTRA.VDW>
-0.193098

>  <SCORE.INTRA.VDW.0>
-1.75368

>  <SCORE.INTRA.norm>
-0.112013

>  <SCORE.RESTR>
0

>  <SCORE.RESTR.CAVITY>
0

>  <SCORE.RESTR.norm>
0

>  <SCORE.SYSTEM>
0

>  <SCORE.SYSTEM.CONST>
0

>  <SCORE.SYSTEM.DIHEDRAL>
0

>  <SCORE.SYSTEM.SOLV>
0

>  <SCORE.SYSTEM.norm>
0

>  <SCORE.heavy>
27

>  <SCORE.norm>
-1.02545

>  <RMSD>
2.563

$$$$
ligand
 OpenBabel11021811463D
libRbt.so/2013.1/901 2013/11/27
 27 29  0  0  0  0  0  0  0  0999 V2000
   38.4979   16.8254   75.1983 N   0  0  0  0  0  0  0  0  0  0  0  0
   37.1185   16.4776   74.8152 C   0  0  2  0  0  0  0  0  0  0  0  0
   37.0961   15.9030   73.4140 C   0  0  0  0  0  0  0  0  0  0  0  0
   38.1494   15.7676   72.7831 O   0  0  0  0  0  0  0  0  0  0  0  0
   36.2585   17.7369   74.8472 C   0  0  0  0  0  0  0  0  0  0  0  0
   36.0307   18.1872   76.2743 C   0  0  0  0  0  0  0  0  0  0  0  0
   34.8790   19.5720   76.2389 S   0  0  2  0  0  0  0  0  0  0  0  0
   36.0498   20.8896   75.8091 C   0  0  0  0  0  0  0  0  0  0  0  0
   34.6688   19.8822   78.0253 C   0  0  0  0  0  0  0  0  0  0  0  0
   33.9354   21.2079   78.2103 C   0  0  1  0  0  0  0  0  0  0  0  0
   32.6487   21.0679   77.6544 O   0  0  0  0  0  0  0  0  0  0  0  0
   33.7242   21.5320   79.6931 C   0  0  1  0  0  0  0  0  0  0  0  0
   34.7177   22.2704   80.4212 O   0  0  0  0  0  0  0  0  0  0  0  0
   32.2823   22.1384   79.7300 C   0  0  1  0  0  0  0  0  0  0  0  0
   32.3222   23.3503   80.5028 O   0  0  0  0  0  0  0  0  0  0  0  0
   31.8371   22.0819   78.2255 C   0  0  2  0  0  0  0  0  0  0  0  0
   36.0422   15.5088   72.9379 O   0  0  0  0  0  0  0  0  0  0  0  0
   28.4929   18.1403   77.6058 N   0  0  0  0  0  0  0  0  0  0  0  0
   29.8214   18.0911   77.7559 C   0  0  0  0  0  0  0  0  0  0  0  0
   30.5489   19.1968   77.8864 N   0  0  0  0  0  0  0  0  0  0  0  0
   29.9746   20.4135   77.8960 C   0  0  0  0  0  0  0  0  0  0  0  0
   28.5650   20.5205   77.7553 C   0  0  0  0  0  0  0  0  0  0  0  0
   27.8257   19.3100   77.6057 C   0  0  0  0  0  0  0  0  0  0  0  0
   26.4499   19.3294   77.4722 N   0  0  0  0  0  0  0  0  0  0  0  0
   28.2557   21.8367   77.8055 N   0  0  0  0  0  0  0  0  0  0  0  0
   29.3476   22.5267   77.9656 C   0  0  0  0  0  0  0  0  0  0  0  0
   30.4369   21.6925   78.0267 N   0  0  0  0  0  0  0  0  0  0  0  0
  2  1  1  6  0  0  0
  2  3  1  0  0  0  0
  2  5  1  0  0  0  0
  3  4  1  0  0  0  0
  3 17  1  0  0  0  0
  5  6  1  0  0  0  0
  7  6  1  1  0  0  0
  7  8  1  0  0  0  0
  7  9  1  0  0  0  0
 10  9  1  1  0  0  0
 10 11  1  0  0  0  0
 10 12  1  0  0  0  0
 11 16  1  0  0  0  0
 12 13  1  6  0  0  0
 12 14  1  0  0  0  0
 14 15  1  6  0  0  0
 14 16  1  0  0  0  0
 16 27  1  1  0  0  0
 18 19  2  0  0  0  0
 18 23  1  0  0  0  0
 19 20  1  0  0  0  0
 20 21  2  0  0  0  0
 21 22  1  0  0  0  0
 21 27  1  0  0  0  0
 22 23  2  0  0  0  0
 22 25  1  0  0  0  0
 23 24  1  0  0  0  0
 25 26  2  0  0  0  0
 26 27  1  0  0  0  0
M  END
>  <CHROM.1>
1.19522942,-70.92100107,-174.42766614,-80.80114003,168.85571649,63.95355109
26.82792808,33.02916570,19.67324462,77.06921020,-0.65544830,0.06735905,0.69386576

>  <Name>
ligand

>  <RI>
0

>  <Rbt.Current_Directory>
/home/itssahil/PROJECTS/Mol_Feturizer/New_Systems/rnas/2QWY

>  <Rbt.Executable>
rbdock ($Id: //depot/dev/client3/rdock/2013.1/src/exe/rbdock.cxx#4 $)

>  <Rbt.Library>
libRbt.so (2013.1, Build901 2013/11/27)

>  <Rbt.Parameter_File>
/export/apps/rDock/src/rDock_2013.1_src/data/scripts/dock_solv.prm

>  <Rbt.Receptor>
prm/pocket_docking_4.prm

>  <SCORE>
-29.9825

>  <SCORE.INTER>
-26.3136

>  <SCORE.INTER.CONST>
1

>  <SCORE.INTER.POLAR>
0

>  <SCORE.INTER.ROT>
7

>  <SCORE.INTER.SOLV>
11.0413

>  <SCORE.INTER.VDW>
-29.4895

>  <SCORE.INTER.norm>
-0.974579

>  <SCORE.INTRA>
-3.66882

>  <SCORE.INTRA.DIHEDRAL>
-6.49287

>  <SCORE.INTRA.DIHEDRAL.0>
10.7382

>  <SCORE.INTRA.POLAR>
0

>  <SCORE.INTRA.POLAR.0>
0

>  <SCORE.INTRA.REPUL>
0

>  <SCORE.INTRA.REPUL.0>
0

>  <SCORE.INTRA.SOLV>
-0.536813

>  <SCORE.INTRA.SOLV.lig_0>
-49.2501

>  <SCORE.INTRA.VDW>
-0.153981

>  <SCORE.INTRA.VDW.0>
-1.75368

>  <SCORE.INTRA.norm>
-0.135882

>  <SCORE.RESTR>
0

>  <SCORE.RESTR.CAVITY>
0

>  <SCORE.RESTR.norm>
0

>  <SCORE.SYSTEM>
0

>  <SCORE.SYSTEM.CONST>
0

>  <SCORE.SYSTEM.DIHEDRAL>
0

>  <SCORE.SYSTEM.SOLV>
0

>  <SCORE.SYSTEM.norm>
0

>  <SCORE.heavy>
27

>  <SCORE.norm>
-1.11046

>  <RMSD>
2.594

$$$$
ligand
 OpenBabel11021811463D
libRbt.so/2013.1/901 2013/11/27
 27 29  0  0  0  0  0  0  0  0999 V2000
   37.1053   19.2805   74.0984 N   0  0  0  0  0  0  0  0  0  0  0  0
   37.6763   17.9540   74.3902 C   0  0  2  0  0  0  0  0  0  0  0  0
   36.8679   16.8754   73.6996 C   0  0  0  0  0  0  0  0  0  0  0  0
   37.3546   15.7539   73.5229 O   0  0  0  0  0  0  0  0  0  0  0  0
   37.6375   17.7136   75.8959 C   0  0  0  0  0  0  0  0  0  0  0  0
   36.2103   17.7354   76.3997 C   0  0  0  0  0  0  0  0  0  0  0  0
   35.8607   19.3991   76.9958 S   0  0  2  0  0  0  0  0  0  0  0  0
   36.4253   19.1994   78.7083 C   0  0  0  0  0  0  0  0  0  0  0  0
   34.0527   19.3020   77.2272 C   0  0  0  0  0  0  0  0  0  0  0  0
   33.5390   20.6726   77.6597 C   0  0  1  0  0  0  0  0  0  0  0  0
   32.2006   20.7832   77.2348 O   0  0  0  0  0  0  0  0  0  0  0  0
   33.5124   20.8076   79.1860 C   0  0  1  0  0  0  0  0  0  0  0  0
   34.6642   21.2982   79.8893 O   0  0  0  0  0  0  0  0  0  0  0  0
   32.1829   21.5866   79.4579 C   0  0  1  0  0  0  0  0  0  0  0  0
   32.4680   22.6605   80.3706 O   0  0  0  0  0  0  0  0  0  0  0  0
   31.5997   21.8033   78.0165 C   0  0  2  0  0  0  0  0  0  0  0  0
   35.7092   17.0969   73.3819 O   0  0  0  0  0  0  0  0  0  0  0  0
   27.6615   18.4259   77.5838 N   0  0  0  0  0  0  0  0  0  0  0  0
   28.9749   18.1747   77.6237 C   0  0  0  0  0  0  0  0  0  0  0  0
   29.8688   19.1550   77.7191 N   0  0  0  0  0  0  0  0  0  0  0  0
   29.4870   20.4424   77.8029 C   0  0  0  0  0  0  0  0  0  0  0  0
   28.1031   20.7624   77.7803 C   0  0  0  0  0  0  0  0  0  0  0  0
   27.1803   19.6810   77.6644 C   0  0  0  0  0  0  0  0  0  0  0  0
   25.8170   19.9091   77.6443 N   0  0  0  0  0  0  0  0  0  0  0  0
   28.0006   22.1074   77.8851 N   0  0  0  0  0  0  0  0  0  0  0  0
   29.1932   22.6216   77.9710 C   0  0  0  0  0  0  0  0  0  0  0  0
   30.1456   21.6333   77.9241 N   0  0  0  0  0  0  0  0  0  0  0  0
  2  1  1  1  0  0  0
  2  3  1  0  0  0  0
  2  5  1  0  0  0  0
  3  4  1  0  0  0  0
  3 17  1  0  0  0  0
  5  6  1  0  0  0  0
  7  6  1  6  0  0  0
  7  8  1  0  0  0  0
  7  9  1  0  0  0  0
 10  9  1  1  0  0  0
 10 11  1  0  0  0  0
 10 12  1  0  0  0  0
 11 16  1  0  0  0  0
 12 13  1  6  0  0  0
 12 14  1  0  0  0  0
 14 15  1  6  0  0  0
 14 16  1  0  0  0  0
 16 27  1  1  0  0  0
 18 19  2  0  0  0  0
 18 23  1  0  0  0  0
 19 20  1  0  0  0  0
 20 21  2  0  0  0  0
 21 22  1  0  0  0  0
 21 27  1  0  0  0  0
 22 23  2  0  0  0  0
 22 25  1  0  0  0  0
 23 24  1  0  0  0  0
 25 26  2  0  0  0  0
 26 27  1  0  0  0  0
M  END
>  <CHROM.1>
161.24899248,61.13692921,-95.06483891,-88.35922537,-176.58553120,152.60698958
33.13373631,32.85099389,19.70068693,77.15883263,0.46481960,0.00610041,-2.32852082

>  <Name>
ligand

>  <RI>
0

>  <Rbt.Current_Directory>
/home/itssahil/PROJECTS/Mol_Feturizer/New_Systems/rnas/2QWY

>  <Rbt.Executable>
rbdock ($Id: //depot/dev/client3/rdock/2013.1/src/exe/rbdock.cxx#4 $)

>  <Rbt.Library>
libRbt.so (2013.1, Build901 2013/11/27)

>  <Rbt.Parameter_File>
/export/apps/rDock/src/rDock_2013.1_src/data/scripts/dock_solv.prm

>  <Rbt.Receptor>
prm/pocket_docking_6.prm

>  <SCORE>
-22.8794

>  <SCORE.INTER>
-23.1266

>  <SCORE.INTER.CONST>
1

>  <SCORE.INTER.POLAR>
0

>  <SCORE.INTER.ROT>
7

>  <SCORE.INTER.SOLV>
9.0546

>  <SCORE.INTER.VDW>
-26.7026

>  <SCORE.INTER.norm>
-0.85654

>  <SCORE.INTRA>
0.247174

>  <SCORE.INTRA.DIHEDRAL>
-0.480303

>  <SCORE.INTRA.DIHEDRAL.0>
10.7382

>  <SCORE.INTRA.POLAR>
0

>  <SCORE.INTRA.POLAR.0>
0

>  <SCORE.INTRA.REPUL>
0

>  <SCORE.INTRA.REPUL.0>
0

>  <SCORE.INTRA.SOLV>
1.18425

>  <SCORE.INTRA.SOLV.lig_0>
-49.2501

>  <SCORE.INTRA.VDW>
-0.1048

>  <SCORE.INTRA.VDW.0>
-1.75368

>  <SCORE.INTRA.norm>
0.00915459

>  <SCORE.RESTR>
0

>  <SCORE.RESTR.CAVITY>
0

>  <SCORE.RESTR.norm>
0

>  <SCORE.SYSTEM>
0

>  <SCORE.SYSTEM.CONST>
0

>  <SCORE.SYSTEM.DIHEDRAL>
0

>  <SCORE.SYSTEM.SOLV>
0

>  <SCORE.SYSTEM.norm>
0

>  <SCORE.heavy>
27

>  <SCORE.norm>
-0.847386

>  <RMSD>
2.602

$$$$
ligand
 OpenBabel11021811463D
libRbt.so/2013.1/901 2013/11/27
 27 29  0  0  0  0  0  0  0  0999 V2000
   38.2692   16.3421   74.0439 N   0  0  0  0  0  0  0  0  0  0  0  0
   38.0085   16.5372   75.4808 C   0  0  2  0  0  0  0  0  0  0  0  0
   37.8782   15.1965   76.1734 C   0  0  0  0  0  0  0  0  0  0  0  0
   36.9603   14.4283   75.8683 O   0  0  0  0  0  0  0  0  0  0  0  0
   36.7052   17.3109   75.6517 C   0  0  0  0  0  0  0  0  0  0  0  0
   36.8634   18.7321   75.1551 C   0  0  0  0  0  0  0  0  0  0  0  0
   35.2808   19.5678   75.3604 S   0  0  2  0  0  0  0  0  0  0  0  0
   35.8144   21.2596   74.9799 C   0  0  0  0  0  0  0  0  0  0  0  0
   35.1772   19.6523   77.1808 C   0  0  0  0  0  0  0  0  0  0  0  0
   34.1172   20.6812   77.5648 C   0  0  1  0  0  0  0  0  0  0  0  0
   32.8616   20.1645   77.1900 O   0  0  0  0  0  0  0  0  0  0  0  0
   34.0561   20.8865   79.0823 C   0  0  1  0  0  0  0  0  0  0  0  0
   34.8829   21.8771   79.7125 O   0  0  0  0  0  0  0  0  0  0  0  0
   32.5233   21.0164   79.3690 C   0  0  1  0  0  0  0  0  0  0  0  0
   32.3180   22.1613   80.2144 O   0  0  0  0  0  0  0  0  0  0  0  0
   31.8834   20.8632   77.9437 C   0  0  2  0  0  0  0  0  0  0  0  0
   38.7241   14.8485   76.9833 O   0  0  0  0  0  0  0  0  0  0  0  0
   26.7222   20.8973   77.2618 N   0  0  0  0  0  0  0  0  0  0  0  0
   27.5762   21.9260   77.2159 C   0  0  0  0  0  0  0  0  0  0  0  0
   28.8782   21.7603   77.4313 N   0  0  0  0  0  0  0  0  0  0  0  0
   29.3952   20.5439   77.6824 C   0  0  0  0  0  0  0  0  0  0  0  0
   28.5333   19.4154   77.7271 C   0  0  0  0  0  0  0  0  0  0  0  0
   27.1429   19.6410   77.5026 C   0  0  0  0  0  0  0  0  0  0  0  0
   26.2409   18.5937   77.5210 N   0  0  0  0  0  0  0  0  0  0  0  0
   29.3027   18.3331   77.9865 N   0  0  0  0  0  0  0  0  0  0  0  0
   30.5440   18.7079   78.0985 C   0  0  0  0  0  0  0  0  0  0  0  0
   30.6527   20.0652   77.9194 N   0  0  0  0  0  0  0  0  0  0  0  0
  2  1  1  6  0  0  0
  2  3  1  0  0  0  0
  2  5  1  0  0  0  0
  3  4  1  0  0  0  0
  3 17  1  0  0  0  0
  5  6  1  0  0  0  0
  7  6  1  1  0  0  0
  7  8  1  0  0  0  0
  7  9  1  0  0  0  0
 10  9  1  1  0  0  0
 10 11  1  0  0  0  0
 10 12  1  0  0  0  0
 11 16  1  0  0  0  0
 12 13  1  6  0  0  0
 12 14  1  0  0  0  0
 14 15  1  6  0  0  0
 14 16  1  0  0  0  0
 16 27  1  1  0  0  0
 18 19  2  0  0  0  0
 18 23  1  0  0  0  0
 19 20  1  0  0  0  0
 20 21  2  0  0  0  0
 21 22  1  0  0  0  0
 21 27  1  0  0  0  0
 22 23  2  0  0  0  0
 22 25  1  0  0  0  0
 23 24  1  0  0  0  0
 25 26  2  0  0  0  0
 26 27  1  0  0  0  0
M  END
>  <CHROM.1>
-63.35928425,-68.18626387,178.94132054,170.78700784,163.45392355,68.55120080
-134.12793848,33.10835103,19.30618295,77.11075718,0.44089856,-0.06157155
-2.73759854

>  <Name>
ligand

>  <RI>
0

>  <Rbt.Current_Directory>
/home/itssahil/PROJECTS/Mol_Feturizer/New_Systems/rnas/2QWY

>  <Rbt.Executable>
rbdock ($Id: //depot/dev/client3/rdock/2013.1/src/exe/rbdock.cxx#4 $)

>  <Rbt.Library>
libRbt.so (2013.1, Build901 2013/11/27)

>  <Rbt.Parameter_File>
/export/apps/rDock/src/rDock_2013.1_src/data/scripts/dock_solv.prm

>  <Rbt.Receptor>
prm/pocket_docking_7.prm

>  <SCORE>
-30.2347

>  <SCORE.INTER>
-26.617

>  <SCORE.INTER.CONST>
1

>  <SCORE.INTER.POLAR>
0

>  <SCORE.INTER.ROT>
7

>  <SCORE.INTER.SOLV>
12.6526

>  <SCORE.INTER.VDW>
-30.2288

>  <SCORE.INTER.norm>
-0.985813

>  <SCORE.INTRA>
-3.61771

>  <SCORE.INTRA.DIHEDRAL>
-6.84698

>  <SCORE.INTRA.DIHEDRAL.0>
10.7382

>  <SCORE.INTRA.POLAR>
0

>  <SCORE.INTRA.POLAR.0>
0

>  <SCORE.INTRA.REPUL>
0

>  <SCORE.INTRA.REPUL.0>
0

>  <SCORE.INTRA.SOLV>
-0.586779

>  <SCORE.INTRA.SOLV.lig_0>
-49.2501

>  <SCORE.INTRA.VDW>
0.0991687

>  <SCORE.INTRA.VDW.0>
-1.75368

>  <SCORE.INTRA.norm>
-0.133989

>  <SCORE.RESTR>
0

>  <SCORE.RESTR.CAVITY>
0

>  <SCORE.RESTR.norm>
0

>  <SCORE.SYSTEM>
0

>  <SCORE.SYSTEM.CONST>
0

>  <SCORE.SYSTEM.DIHEDRAL>
0

>  <SCORE.SYSTEM.SOLV>
0

>  <SCORE.SYSTEM.norm>
0

>  <SCORE.heavy>
27

>  <SCORE.norm>
-1.1198

>  <RMSD>
2.622

$$$$
ligand
 OpenBabel11021811463D
libRbt.so/2013.1/901 2013/11/27
 27 29  0  0  0  0  0  0  0  0999 V2000
   36.3568   17.2068   74.3227 N   0  0  0  0  0  0  0  0  0  0  0  0
   35.6702   18.4754   74.0228 C   0  0  2  0  0  0  0  0  0  0  0  0
   36.1769   19.0453   72.7143 C   0  0  0  0  0  0  0  0  0  0  0  0
   37.0915   18.4808   72.1055 O   0  0  0  0  0  0  0  0  0  0  0  0
   35.9545   19.4737   75.1403 C   0  0  0  0  0  0  0  0  0  0  0  0
   35.1089   19.1629   76.3567 C   0  0  0  0  0  0  0  0  0  0  0  0
   35.6264   20.2647   77.6848 S   0  0  2  0  0  0  0  0  0  0  0  0
   36.6548   19.0994   78.6207 C   0  0  0  0  0  0  0  0  0  0  0  0
   34.1200   20.2822   78.7154 C   0  0  0  0  0  0  0  0  0  0  0  0
   33.0400   21.0827   77.9925 C   0  0  1  0  0  0  0  0  0  0  0  0
   31.9911   20.1982   77.6736 O   0  0  0  0  0  0  0  0  0  0  0  0
   32.4300   22.1543   78.9024 C   0  0  1  0  0  0  0  0  0  0  0  0
   33.0075   23.4677   78.9616 O   0  0  0  0  0  0  0  0  0  0  0  0
   30.9075   22.1105   78.5439 C   0  0  1  0  0  0  0  0  0  0  0  0
   30.4546   23.4590   78.3340 O   0  0  0  0  0  0  0  0  0  0  0  0
   30.8353   20.9894   77.4473 C   0  0  2  0  0  0  0  0  0  0  0  0
   35.6308   20.0243   72.2283 O   0  0  0  0  0  0  0  0  0  0  0  0
   25.6403   20.6655   77.3389 N   0  0  0  0  0  0  0  0  0  0  0  0
   26.4115   21.7491   77.1944 C   0  0  0  0  0  0  0  0  0  0  0  0
   27.7376   21.6746   77.2656 N   0  0  0  0  0  0  0  0  0  0  0  0
   28.3613   20.4991   77.4635 C   0  0  0  0  0  0  0  0  0  0  0  0
   27.5891   19.3155   77.6081 C   0  0  0  0  0  0  0  0  0  0  0  0
   26.1703   19.4436   77.5374 C   0  0  0  0  0  0  0  0  0  0  0  0
   25.3498   18.3379   77.6598 N   0  0  0  0  0  0  0  0  0  0  0  0
   28.4548   18.2909   77.7858 N   0  0  0  0  0  0  0  0  0  0  0  0
   29.6722   18.7503   77.7585 C   0  0  0  0  0  0  0  0  0  0  0  0
   29.6671   20.1096   77.5624 N   0  0  0  0  0  0  0  0  0  0  0  0
  2  1  1  1  0  0  0
  2  3  1  0  0  0  0
  2  5  1  0  0  0  0
  3  4  1  0  0  0  0
  3 17  1  0  0  0  0
  5  6  1  0  0  0  0
  7  6  1  6  0  0  0
  7  8  1  0  0  0  0
  7  9  1  0  0  0  0
 10  9  1  1  0  0  0
 10 11  1  0  0  0  0
 10 12  1  0  0  0  0
 11 16  1  0  0  0  0
 12 13  1  6  0  0  0
 12 14  1  0  0  0  0
 14 15  1  6  0  0  0
 14 16  1  0  0  0  0
 16 27  1  1  0  0  0
 18 19  2  0  0  0  0
 18 23  1  0  0  0  0
 19 20  1  0  0  0  0
 20 21  2  0  0  0  0
 21 22  1  0  0  0  0
 21 27  1  0  0  0  0
 22 23  2  0  0  0  0
 22 25  1  0  0  0  0
 23 24  1  0  0  0  0
 25 26  2  0  0  0  0
 26 27  1  0  0  0  0
M  END
>  <CHROM.1>
-3.56975826,-77.29156349,173.96798132,-101.25263641,-71.76587304,115.10987610
177.29243387,32.02188970,20.16932591,76.86515849,0.33359756,-0.08257647,-2.20483844

>  <Name>
ligand

>  <RI>
0

>  <Rbt.Current_Directory>
/home/itssahil/PROJECTS/Mol_Feturizer/New_Systems/rnas/2QWY

>  <Rbt.Executable>
rbdock ($Id: //depot/dev/client3/rdock/2013.1/src/exe/rbdock.cxx#4 $)

>  <Rbt.Library>
libRbt.so (2013.1, Build901 2013/11/27)

>  <Rbt.Parameter_File>
/export/apps/rDock/src/rDock_2013.1_src/data/scripts/dock_solv.prm

>  <Rbt.Receptor>
prm/pocket_docking_4.prm

>  <SCORE>
-24.4611

>  <SCORE.INTER>
-24.3181

>  <SCORE.INTER.CONST>
1

>  <SCORE.INTER.POLAR>
0

>  <SCORE.INTER.ROT>
7

>  <SCORE.INTER.SOLV>
14.9458

>  <SCORE.INTER.VDW>
-29.4607

>  <SCORE.INTER.norm>
-0.900671

>  <SCORE.INTRA>
-0.142978

>  <SCORE.INTRA.DIHEDRAL>
1.34865

>  <SCORE.INTRA.DIHEDRAL.0>
10.7382

>  <SCORE.INTRA.POLAR>
0

>  <SCORE.INTRA.POLAR.0>
0

>  <SCORE.INTRA.REPUL>
0

>  <SCORE.INTRA.REPUL.0>
0

>  <SCORE.INTRA.SOLV>
-0.520406

>  <SCORE.INTRA.SOLV.lig_0>
-49.2501

>  <SCORE.INTRA.VDW>
-0.557103

>  <SCORE.INTRA.VDW.0>
-1.75368

>  <SCORE.INTRA.norm>
-0.0052955

>  <SCORE.RESTR>
0

>  <SCORE.RESTR.CAVITY>
0

>  <SCORE.RESTR.norm>
0

>  <SCORE.SYSTEM>
0

>  <SCORE.SYSTEM.CONST>
0

>  <SCORE.SYSTEM.DIHEDRAL>
0

>  <SCORE.SYSTEM.SOLV>
0

>  <SCORE.SYSTEM.norm>
0

>  <SCORE.heavy>
27

>  <SCORE.norm>
-0.905967

>  <RMSD>
2.637

$$$$
ligand
 OpenBabel11021811463D
libRbt.so/2013.1/901 2013/11/27
 27 29  0  0  0  0  0  0  0  0999 V2000
   37.9254   17.1113   72.8253 N   0  0  0  0  0  0  0  0  0  0  0  0
   37.5245   17.1033   74.2430 C   0  0  2  0  0  0  0  0  0  0  0  0
   37.1437   15.7006   74.6688 C   0  0  0  0  0  0  0  0  0  0  0  0
   36.6599   14.9140   73.8484 O   0  0  0  0  0  0  0  0  0  0  0  0
   36.3197   18.0203   74.4266 C   0  0  0  0  0  0  0  0  0  0  0  0
   36.0477   18.2502   75.8979 C   0  0  0  0  0  0  0  0  0  0  0  0
   34.8414   19.5811   76.0348 S   0  0  2  0  0  0  0  0  0  0  0  0
   35.9295   20.9774   75.6371 C   0  0  0  0  0  0  0  0  0  0  0  0
   34.7303   19.7510   77.8488 C   0  0  0  0  0  0  0  0  0  0  0  0
   34.0433   21.0738   78.1767 C   0  0  1  0  0  0  0  0  0  0  0  0
   32.7538   21.0398   77.6108 O   0  0  0  0  0  0  0  0  0  0  0  0
   33.8402   21.2434   79.6862 C   0  0  1  0  0  0  0  0  0  0  0  0
   34.8572   21.8637   80.4881 O   0  0  0  0  0  0  0  0  0  0  0  0
   32.4202   21.8924   79.7903 C   0  0  1  0  0  0  0  0  0  0  0  0
   32.5008   23.0118   80.6892 O   0  0  0  0  0  0  0  0  0  0  0  0
   31.9768   22.0141   78.2892 C   0  0  2  0  0  0  0  0  0  0  0  0
   37.3818   15.3278   75.8076 O   0  0  0  0  0  0  0  0  0  0  0  0
   28.4647   18.2556   77.4876 N   0  0  0  0  0  0  0  0  0  0  0  0
   29.7859   18.1389   77.6621 C   0  0  0  0  0  0  0  0  0  0  0  0
   30.5618   19.2045   77.8395 N   0  0  0  0  0  0  0  0  0  0  0  0
   30.0453   20.4463   77.8740 C   0  0  0  0  0  0  0  0  0  0  0  0
   28.6455   20.6244   77.7091 C   0  0  0  0  0  0  0  0  0  0  0  0
   27.8533   19.4552   77.5092 C   0  0  0  0  0  0  0  0  0  0  0  0
   26.4831   19.5439   77.3496 N   0  0  0  0  0  0  0  0  0  0  0  0
   28.3974   21.9519   77.7923 N   0  0  0  0  0  0  0  0  0  0  0  0
   29.5170   22.5842   77.9941 C   0  0  0  0  0  0  0  0  0  0  0  0
   30.5643   21.6977   78.0516 N   0  0  0  0  0  0  0  0  0  0  0  0
  2  1  1  6  0  0  0
  2  3  1  0  0  0  0
  2  5  1  0  0  0  0
  3  4  1  0  0  0  0
  3 17  1  0  0  0  0
  5  6  1  0  0  0  0
  7  6  1  1  0  0  0
  7  8  1  0  0  0  0
  7  9  1  0  0  0  0
 10  9  1  1  0  0  0
 10 11  1  0  0  0  0
 10 12  1  0  0  0  0
 11 16  1  0  0  0  0
 12 13  1  6  0  0  0
 12 14  1  0  0  0  0
 14 15  1  6  0  0  0
 14 16  1  0  0  0  0
 16 27  1  1  0  0  0
 18 19  2  0  0  0  0
 18 23  1  0  0  0  0
 19 20  1  0  0  0  0
 20 21  2  0  0  0  0
 21 22  1  0  0  0  0
 21 27  1  0  0  0  0
 22 23  2  0  0  0  0
 22 25  1  0  0  0  0
 23 24  1  0  0  0  0
 25 26  2  0  0  0  0
 26 27  1  0  0  0  0
M  END
>  <CHROM.1>
-30.27341974,-168.95280571,168.92340114,-74.59646125,164.94452144,60.52226521
31.53660565,33.06876802,19.63969205,77.10091172,0.63359167,-0.05193471,-2.47114002

>  <Name>
ligand

>  <RI>
0

>  <Rbt.Current_Directory>
/home/itssahil/PROJECTS/Mol_Feturizer/New_Systems/rnas/2QWY

>  <Rbt.Executable>
rbdock ($Id: //depot/dev/client3/rdock/2013.1/src/exe/rbdock.cxx#4 $)

>  <Rbt.Library>
libRbt.so (2013.1, Build901 2013/11/27)

>  <Rbt.Parameter_File>
/export/apps/rDock/src/rDock_2013.1_src/data/scripts/dock_solv.prm

>  <Rbt.Receptor>
prm/pocket_docking_5.prm

>  <SCORE>
-30.812

>  <SCORE.INTER>
-27.0244

>  <SCORE.INTER.CONST>
1

>  <SCORE.INTER.POLAR>
0

>  <SCORE.INTER.ROT>
7

>  <SCORE.INTER.SOLV>
10.4844

>  <SCORE.INTER.VDW>
-29.7777

>  <SCORE.INTER.norm>
-1.0009

>  <SCORE.INTRA>
-3.78754

>  <SCORE.INTRA.DIHEDRAL>
-6.30507

>  <SCORE.INTRA.DIHEDRAL.0>
10.7382

>  <SCORE.INTRA.POLAR>
0

>  <SCORE.INTRA.POLAR.0>
0

>  <SCORE.INTRA.REPUL>
0

>  <SCORE.INTRA.REPUL.0>
0

>  <SCORE.INTRA.SOLV>
-1.14583

>  <SCORE.INTRA.SOLV.lig_0>
-49.2501

>  <SCORE.INTRA.VDW>
-0.0620898

>  <SCORE.INTRA.VDW.0>
-1.75368

>  <SCORE.INTRA.norm>
-0.140279

>  <SCORE.RESTR>
0

>  <SCORE.RESTR.CAVITY>
0

>  <SCORE.RESTR.norm>
0

>  <SCORE.SYSTEM>
0

>  <SCORE.SYSTEM.CONST>
0

>  <SCORE.SYSTEM.DIHEDRAL>
0

>  <SCORE.SYSTEM.SOLV>
0

>  <SCORE.SYSTEM.norm>
0

>  <SCORE.heavy>
27

>  <SCORE.norm>
-1.14118

>  <RMSD>
2.640

$$$$
ligand
 OpenBabel11021811463D
libRbt.so/2013.1/901 2013/11/27
 27 29  0  0  0  0  0  0  0  0999 V2000
   37.9182   19.3282   73.4312 N   0  0  0  0  0  0  0  0  0  0  0  0
   37.1564   20.0811   74.4429 C   0  0  2  0  0  0  0  0  0  0  0  0
   35.7063   19.6439   74.4350 C   0  0  0  0  0  0  0  0  0  0  0  0
   34.9168   20.1313   73.6195 O   0  0  0  0  0  0  0  0  0  0  0  0
   37.2262   21.5692   74.1158 C   0  0  0  0  0  0  0  0  0  0  0  0
   37.3311   22.3868   75.3854 C   0  0  0  0  0  0  0  0  0  0  0  0
   35.6635   22.6393   76.0185 S   0  0  2  0  0  0  0  0  0  0  0  0
   36.0529   23.8005   77.3570 C   0  0  0  0  0  0  0  0  0  0  0  0
   35.4270   21.1001   76.9706 C   0  0  0  0  0  0  0  0  0  0  0  0
   34.5941   21.4131   78.2107 C   0  0  1  0  0  0  0  0  0  0  0  0
   33.3034   21.7776   77.7803 O   0  0  0  0  0  0  0  0  0  0  0  0
   34.4129   20.1742   79.0942 C   0  0  1  0  0  0  0  0  0  0  0  0
   35.3688   19.8726   80.1226 O   0  0  0  0  0  0  0  0  0  0  0  0
   32.9283   20.2860   79.5755 C   0  0  1  0  0  0  0  0  0  0  0  0
   32.8971   20.0688   80.9965 O   0  0  0  0  0  0  0  0  0  0  0  0
   32.4330   21.6076   78.8878 C   0  0  2  0  0  0  0  0  0  0  0  0
   35.3369   18.7573   75.1901 O   0  0  0  0  0  0  0  0  0  0  0  0
   28.5081   18.5049   77.4480 N   0  0  0  0  0  0  0  0  0  0  0  0
   29.7210   18.1619   77.8962 C   0  0  0  0  0  0  0  0  0  0  0  0
   30.6325   19.0784   78.2098 N   0  0  0  0  0  0  0  0  0  0  0  0
   30.3636   20.3929   78.1109 C   0  0  0  0  0  0  0  0  0  0  0  0
   29.0848   20.8109   77.6545 C   0  0  0  0  0  0  0  0  0  0  0  0
   28.1427   19.7944   77.3175 C   0  0  0  0  0  0  0  0  0  0  0  0
   26.8744   20.1196   76.8742 N   0  0  0  0  0  0  0  0  0  0  0  0
   29.0804   22.1639   77.6575 N   0  0  0  0  0  0  0  0  0  0  0  0
   30.2354   22.5943   78.0753 C   0  0  0  0  0  0  0  0  0  0  0  0
   31.0631   21.5381   78.3675 N   0  0  0  0  0  0  0  0  0  0  0  0
  2  1  1  6  0  0  0
  2  3  1  0  0  0  0
  2  5  1  0  0  0  0
  3  4  1  0  0  0  0
  3 17  1  0  0  0  0
  5  6  1  0  0  0  0
  7  6  1  6  0  0  0
  7  8  1  0  0  0  0
  7  9  1  0  0  0  0
 10  9  1  6  0  0  0
 10 11  1  0  0  0  0
 10 12  1  0  0  0  0
 11 16  1  0  0  0  0
 12 13  1  1  0  0  0
 12 14  1  0  0  0  0
 14 15  1  1  0  0  0
 14 16  1  0  0  0  0
 16 27  1  6  0  0  0
 18 19  2  0  0  0  0
 18 23  1  0  0  0  0
 19 20  1  0  0  0  0
 20 21  2  0  0  0  0
 21 22  1  0  0  0  0
 21 27  1  0  0  0  0
 22 23  2  0  0  0  0
 22 25  1  0  0  0  0
 23 24  1  0  0  0  0
 25 26  2  0  0  0  0
 26 27  1  0  0  0  0
M  END
>  <CHROM.1>
-83.37586402,-142.42215946,-84.31685243,-172.61584091,144.74978006,66.68766018
96.80364221,33.27496702,20.75782317,77.10065428,0.31363834,-0.23766772,-1.90541466

>  <Name>
ligand

>  <RI>
0

>  <Rbt.Current_Directory>
/home/itssahil/PROJECTS/Mol_Feturizer/New_Systems/rnas/2QWY

>  <Rbt.Executable>
rbdock ($Id: //depot/dev/client3/rdock/2013.1/src/exe/rbdock.cxx#4 $)

>  <Rbt.Library>
libRbt.so (2013.1, Build901 2013/11/27)

>  <Rbt.Parameter_File>
/export/apps/rDock/src/rDock_2013.1_src/data/scripts/dock_solv.prm

>  <Rbt.Receptor>
prm/pocket_docking_8.prm

>  <SCORE>
-25.0924

>  <SCORE.INTER>
-26.1463

>  <SCORE.INTER.CONST>
1

>  <SCORE.INTER.POLAR>
0

>  <SCORE.INTER.ROT>
7

>  <SCORE.INTER.SOLV>
12.6106

>  <SCORE.INTER.VDW>
-29.9011

>  <SCORE.INTER.norm>
-0.968382

>  <SCORE.INTRA>
1.05393

>  <SCORE.INTRA.DIHEDRAL>
0.939083

>  <SCORE.INTRA.DIHEDRAL.0>
10.7382

>  <SCORE.INTRA.POLAR>
0

>  <SCORE.INTRA.POLAR.0>
0

>  <SCORE.INTRA.REPUL>
0

>  <SCORE.INTRA.REPUL.0>
0

>  <SCORE.INTRA.SOLV>
-0.916902

>  <SCORE.INTRA.SOLV.lig_0>
-49.2501

>  <SCORE.INTRA.VDW>
1.04284

>  <SCORE.INTRA.VDW.0>
-1.75368

>  <SCORE.INTRA.norm>
0.0390345

>  <SCORE.RESTR>
0

>  <SCORE.RESTR.CAVITY>
0

>  <SCORE.RESTR.norm>
0

>  <SCORE.SYSTEM>
0

>  <SCORE.SYSTEM.CONST>
0

>  <SCORE.SYSTEM.DIHEDRAL>
0

>  <SCORE.SYSTEM.SOLV>
0

>  <SCORE.SYSTEM.norm>
0

>  <SCORE.heavy>
27

>  <SCORE.norm>
-0.929347

>  <RMSD>
2.673

$$$$
ligand
 OpenBabel11021811463D
libRbt.so/2013.1/901 2013/11/27
 27 29  0  0  0  0  0  0  0  0999 V2000
   38.2071   17.0808   74.6576 N   0  0  0  0  0  0  0  0  0  0  0  0
   36.7359   17.1284   74.7208 C   0  0  2  0  0  0  0  0  0  0  0  0
   36.1568   17.2105   73.3238 C   0  0  0  0  0  0  0  0  0  0  0  0
   36.2803   18.2461   72.6618 O   0  0  0  0  0  0  0  0  0  0  0  0
   36.3093   18.3641   75.5066 C   0  0  0  0  0  0  0  0  0  0  0  0
   36.6385   18.1986   76.9748 C   0  0  0  0  0  0  0  0  0  0  0  0
   36.1409   19.7066   77.8254 S   0  0  2  0  0  0  0  0  0  0  0  0
   36.3156   19.1257   79.5352 C   0  0  0  0  0  0  0  0  0  0  0  0
   34.3282   19.6231   77.6283 C   0  0  0  0  0  0  0  0  0  0  0  0
   33.7357   20.9918   77.9526 C   0  0  1  0  0  0  0  0  0  0  0  0
   32.4187   21.0187   77.4537 O   0  0  0  0  0  0  0  0  0  0  0  0
   33.6212   21.2113   79.4650 C   0  0  1  0  0  0  0  0  0  0  0  0
   34.7122   21.7914   80.1967 O   0  0  0  0  0  0  0  0  0  0  0  0
   32.2479   21.9446   79.6220 C   0  0  1  0  0  0  0  0  0  0  0  0
   32.4388   23.0799   80.4836 O   0  0  0  0  0  0  0  0  0  0  0  0
   31.7349   22.0537   78.1423 C   0  0  2  0  0  0  0  0  0  0  0  0
   35.6297   16.2262   72.8279 O   0  0  0  0  0  0  0  0  0  0  0  0
   27.9874   18.4930   77.5241 N   0  0  0  0  0  0  0  0  0  0  0  0
   29.3084   18.3052   77.6209 C   0  0  0  0  0  0  0  0  0  0  0  0
   30.1488   19.3268   77.7592 N   0  0  0  0  0  0  0  0  0  0  0  0
   29.7019   20.5938   77.8308 C   0  0  0  0  0  0  0  0  0  0  0  0
   28.3064   20.8469   77.7485 C   0  0  0  0  0  0  0  0  0  0  0  0
   27.4430   19.7229   77.5881 C   0  0  0  0  0  0  0  0  0  0  0  0
   26.0725   19.8852   77.5088 N   0  0  0  0  0  0  0  0  0  0  0  0
   28.1345   22.1848   77.8536 N   0  0  0  0  0  0  0  0  0  0  0  0
   29.2959   22.7553   77.9938 C   0  0  0  0  0  0  0  0  0  0  0  0
   30.2961   21.8143   77.9853 N   0  0  0  0  0  0  0  0  0  0  0  0
  2  1  1  6  0  0  0
  2  3  1  0  0  0  0
  2  5  1  0  0  0  0
  3  4  1  0  0  0  0
  3 17  1  0  0  0  0
  5  6  1  0  0  0  0
  7  6  1  6  0  0  0
  7  8  1  0  0  0  0
  7  9  1  0  0  0  0
 10  9  1  1  0  0  0
 10 11  1  0  0  0  0
 10 12  1  0  0  0  0
 11 16  1  0  0  0  0
 12 13  1  6  0  0  0
 12 14  1  0  0  0  0
 14 15  1  6  0  0  0
 14 16  1  0  0  0  0
 16 27  1  1  0  0  0
 18 19  2  0  0  0  0
 18 23  1  0  0  0  0
 19 20  1  0  0  0  0
 20 21  2  0  0  0  0
 21 22  1  0  0  0  0
 21 27  1  0  0  0  0
 22 23  2  0  0  0  0
 22 25  1  0  0  0  0
 23 24  1  0  0  0  0
 25 26  2  0  0  0  0
 26 27  1  0  0  0  0
M  END
>  <CHROM.1>
-70.71808892,-70.60524355,178.74456393,169.05459765,-164.98001259,164.22568651
29.51474784,32.88839902,19.87008350,77.29001902,0.50439119,0.05988925,-2.25209686

>  <Name>
ligand

>  <RI>
0

>  <Rbt.Current_Directory>
/home/itssahil/PROJECTS/Mol_Feturizer/New_Systems/rnas/2QWY

>  <Rbt.Executable>
rbdock ($Id: //depot/dev/client3/rdock/2013.1/src/exe/rbdock.cxx#4 $)

>  <Rbt.Library>
libRbt.so (2013.1, Build901 2013/11/27)

>  <Rbt.Parameter_File>
/export/apps/rDock/src/rDock_2013.1_src/data/scripts/dock_solv.prm

>  <Rbt.Receptor>
prm/pocket_docking_4.prm

>  <SCORE>
-27.9294

>  <SCORE.INTER>
-24.9463

>  <SCORE.INTER.CONST>
1

>  <SCORE.INTER.POLAR>
0

>  <SCORE.INTER.ROT>
7

>  <SCORE.INTER.SOLV>
9.84714

>  <SCORE.INTER.VDW>
-28.1799

>  <SCORE.INTER.norm>
-0.923937

>  <SCORE.INTRA>
-2.98315

>  <SCORE.INTRA.DIHEDRAL>
-4.86101

>  <SCORE.INTRA.DIHEDRAL.0>
10.7382

>  <SCORE.INTRA.POLAR>
0

>  <SCORE.INTRA.POLAR.0>
0

>  <SCORE.INTRA.REPUL>
0

>  <SCORE.INTRA.REPUL.0>
0

>  <SCORE.INTRA.SOLV>
-0.27835

>  <SCORE.INTRA.SOLV.lig_0>
-49.2501

>  <SCORE.INTRA.VDW>
-0.413474

>  <SCORE.INTRA.VDW.0>
-1.75368

>  <SCORE.INTRA.norm>
-0.110487

>  <SCORE.RESTR>
0

>  <SCORE.RESTR.CAVITY>
0

>  <SCORE.RESTR.norm>
0

>  <SCORE.SYSTEM>
0

>  <SCORE.SYSTEM.CONST>
0

>  <SCORE.SYSTEM.DIHEDRAL>
0

>  <SCORE.SYSTEM.SOLV>
0

>  <SCORE.SYSTEM.norm>
0

>  <SCORE.heavy>
27

>  <SCORE.norm>
-1.03442

>  <RMSD>
2.687

$$$$
ligand
 OpenBabel11021811463D
libRbt.so/2013.1/901 2013/11/27
 27 29  0  0  0  0  0  0  0  0999 V2000
   36.1490   18.8124   75.3653 N   0  0  0  0  0  0  0  0  0  0  0  0
   35.3737   19.6834   74.4647 C   0  0  2  0  0  0  0  0  0  0  0  0
   35.7104   19.3719   73.0213 C   0  0  0  0  0  0  0  0  0  0  0  0
   36.1550   18.2610   72.7147 O   0  0  0  0  0  0  0  0  0  0  0  0
   35.7263   21.1393   74.7518 C   0  0  0  0  0  0  0  0  0  0  0  0
   35.4531   21.4748   76.2024 C   0  0  0  0  0  0  0  0  0  0  0  0
   35.8370   23.2177   76.4475 S   0  0  2  0  0  0  0  0  0  0  0  0
   37.6199   23.1532   76.1179 C   0  0  0  0  0  0  0  0  0  0  0  0
   35.8379   23.3103   78.2704 C   0  0  0  0  0  0  0  0  0  0  0  0
   34.4211   23.6185   78.7469 C   0  0  1  0  0  0  0  0  0  0  0  0
   33.5541   22.6828   78.1494 O   0  0  0  0  0  0  0  0  0  0  0  0
   34.2809   23.4211   80.2601 C   0  0  1  0  0  0  0  0  0  0  0  0
   34.5482   24.5082   81.1596 O   0  0  0  0  0  0  0  0  0  0  0  0
   32.8696   22.7623   80.4107 C   0  0  1  0  0  0  0  0  0  0  0  0
   32.1552   23.4581   81.4466 O   0  0  0  0  0  0  0  0  0  0  0  0
   32.3673   22.6610   78.9267 C   0  0  2  0  0  0  0  0  0  0  0  0
   35.4745   20.1980   72.1526 O   0  0  0  0  0  0  0  0  0  0  0  0
   27.9238   20.5185   77.2628 N   0  0  0  0  0  0  0  0  0  0  0  0
   28.2080   21.8128   77.4464 C   0  0  0  0  0  0  0  0  0  0  0  0
   29.3947   22.2078   77.8990 N   0  0  0  0  0  0  0  0  0  0  0  0
   30.3693   21.3208   78.1699 C   0  0  0  0  0  0  0  0  0  0  0  0
   30.1242   19.9348   77.9773 C   0  0  0  0  0  0  0  0  0  0  0  0
   28.8338   19.5553   77.5024 C   0  0  0  0  0  0  0  0  0  0  0  0
   28.5201   18.2273   77.2813 N   0  0  0  0  0  0  0  0  0  0  0  0
   31.2574   19.2765   78.3134 N   0  0  0  0  0  0  0  0  0  0  0  0
   32.1582   20.1388   78.6863 C   0  0  0  0  0  0  0  0  0  0  0  0
   31.6573   21.4156   78.6156 N   0  0  0  0  0  0  0  0  0  0  0  0
  2  1  1  1  0  0  0
  2  3  1  0  0  0  0
  2  5  1  0  0  0  0
  3  4  1  0  0  0  0
  3 17  1  0  0  0  0
  5  6  1  0  0  0  0
  7  6  1  1  0  0  0
  7  8  1  0  0  0  0
  7  9  1  0  0  0  0
 10  9  1  6  0  0  0
 10 11  1  0  0  0  0
 10 12  1  0  0  0  0
 11 16  1  0  0  0  0
 12 13  1  1  0  0  0
 12 14  1  0  0  0  0
 14 15  1  1  0  0  0
 14 16  1  0  0  0  0
 16 27  1  1  0  0  0
 18 19  2  0  0  0  0
 18 23  1  0  0  0  0
 19 20  1  0  0  0  0
 20 21  2  0  0  0  0
 21 22  1  0  0  0  0
 21 27  1  0  0  0  0
 22 23  2  0  0  0  0
 22 25  1  0  0  0  0
 23 24  1  0  0  0  0
 25 26  2  0  0  0  0
 26 27  1  0  0  0  0
M  END
>  <CHROM.1>
24.04446787,-57.57845016,-178.02506077,-64.48521555,-88.79667292,51.96233789
-124.16806521,33.26758311,21.45906142,77.26575868,0.55239982,-0.34349269
-2.23278614

>  <Name>
ligand

>  <RI>
0

>  <Rbt.Current_Directory>
/home/itssahil/PROJECTS/Mol_Feturizer/New_Systems/rnas/2QWY

>  <Rbt.Executable>
rbdock ($Id: //depot/dev/client3/rdock/2013.1/src/exe/rbdock.cxx#4 $)

>  <Rbt.Library>
libRbt.so (2013.1, Build901 2013/11/27)

>  <Rbt.Parameter_File>
/export/apps/rDock/src/rDock_2013.1_src/data/scripts/dock_solv.prm

>  <Rbt.Receptor>
prm/pocket_docking_5.prm

>  <SCORE>
-22.2826

>  <SCORE.INTER>
-20.281

>  <SCORE.INTER.CONST>
1

>  <SCORE.INTER.POLAR>
0

>  <SCORE.INTER.ROT>
7

>  <SCORE.INTER.SOLV>
19.2997

>  <SCORE.INTER.VDW>
-28.2206

>  <SCORE.INTER.norm>
-0.751149

>  <SCORE.INTRA>
-2.00161

>  <SCORE.INTRA.DIHEDRAL>
-6.34694

>  <SCORE.INTRA.DIHEDRAL.0>
10.7382

>  <SCORE.INTRA.POLAR>
0

>  <SCORE.INTRA.POLAR.0>
0

>  <SCORE.INTRA.REPUL>
0

>  <SCORE.INTRA.REPUL.0>
0

>  <SCORE.INTRA.SOLV>
-0.250538

>  <SCORE.INTRA.SOLV.lig_0>
-49.2501

>  <SCORE.INTRA.VDW>
1.29713

>  <SCORE.INTRA.VDW.0>
-1.75368

>  <SCORE.INTRA.norm>
-0.0741337

>  <SCORE.RESTR>
0

>  <SCORE.RESTR.CAVITY>
0

>  <SCORE.RESTR.norm>
0

>  <SCORE.SYSTEM>
0

>  <SCORE.SYSTEM.CONST>
0

>  <SCORE.SYSTEM.DIHEDRAL>
0

>  <SCORE.SYSTEM.SOLV>
0

>  <SCORE.SYSTEM.norm>
0

>  <SCORE.heavy>
27

>  <SCORE.norm>
-0.825283

>  <RMSD>
2.702

$$$$
ligand
 OpenBabel11021811463D
libRbt.so/2013.1/901 2013/11/27
 27 29  0  0  0  0  0  0  0  0999 V2000
   38.2303   17.8800   74.5658 N   0  0  0  0  0  0  0  0  0  0  0  0
   37.5165   17.1175   75.6049 C   0  0  2  0  0  0  0  0  0  0  0  0
   37.3325   15.6806   75.1627 C   0  0  0  0  0  0  0  0  0  0  0  0
   37.2047   14.7851   76.0039 O   0  0  0  0  0  0  0  0  0  0  0  0
   36.1449   17.7448   75.8314 C   0  0  0  0  0  0  0  0  0  0  0  0
   36.2813   19.0782   76.5350 C   0  0  0  0  0  0  0  0  0  0  0  0
   34.8791   20.1019   76.0544 S   0  0  2  0  0  0  0  0  0  0  0  0
   35.4384   20.5676   74.3924 C   0  0  0  0  0  0  0  0  0  0  0  0
   35.2497   21.6351   76.9728 C   0  0  0  0  0  0  0  0  0  0  0  0
   34.4123   21.6575   78.2487 C   0  0  1  0  0  0  0  0  0  0  0  0
   33.0975   22.0167   77.8931 O   0  0  0  0  0  0  0  0  0  0  0  0
   34.3154   20.2657   78.8827 C   0  0  1  0  0  0  0  0  0  0  0  0
   35.2983   19.8352   79.8370 O   0  0  0  0  0  0  0  0  0  0  0  0
   32.8318   20.1938   79.3745 C   0  0  1  0  0  0  0  0  0  0  0  0
   32.8285   19.7116   80.7292 O   0  0  0  0  0  0  0  0  0  0  0  0
   32.2504   21.5882   78.9476 C   0  0  2  0  0  0  0  0  0  0  0  0
   37.2402   15.4203   73.9726 O   0  0  0  0  0  0  0  0  0  0  0  0
   28.2924   18.5298   77.5037 N   0  0  0  0  0  0  0  0  0  0  0  0
   29.4990   18.1732   77.9585 C   0  0  0  0  0  0  0  0  0  0  0  0
   30.4207   19.0793   78.2722 N   0  0  0  0  0  0  0  0  0  0  0  0
   30.1690   20.3968   78.1669 C   0  0  0  0  0  0  0  0  0  0  0  0
   28.8976   20.8291   77.7034 C   0  0  0  0  0  0  0  0  0  0  0  0
   27.9440   19.8232   77.3666 C   0  0  0  0  0  0  0  0  0  0  0  0
   26.6818   20.1627   76.9166 N   0  0  0  0  0  0  0  0  0  0  0  0
   28.9103   22.1820   77.7009 N   0  0  0  0  0  0  0  0  0  0  0  0
   30.0690   22.5995   78.1218 C   0  0  0  0  0  0  0  0  0  0  0  0
   30.8820   21.5340   78.4218 N   0  0  0  0  0  0  0  0  0  0  0  0
  2  1  1  6  0  0  0
  2  3  1  0  0  0  0
  2  5  1  0  0  0  0
  3  4  1  0  0  0  0
  3 17  1  0  0  0  0
  5  6  1  0  0  0  0
  7  6  1  1  0  0  0
  7  8  1  0  0  0  0
  7  9  1  0  0  0  0
 10  9  1  6  0  0  0
 10 11  1  0  0  0  0
 10 12  1  0  0  0  0
 11 16  1  0  0  0  0
 12 13  1  1  0  0  0
 12 14  1  0  0  0  0
 14 15  1  1  0  0  0
 14 16  1  0  0  0  0
 16 27  1  6  0  0  0
 18 19  2  0  0  0  0
 18 23  1  0  0  0  0
 19 20  1  0  0  0  0
 20 21  2  0  0  0  0
 21 22  1  0  0  0  0
 21 27  1  0  0  0  0
 22 23  2  0  0  0  0
 22 25  1  0  0  0  0
 23 24  1  0  0  0  0
 25 26  2  0  0  0  0
 26 27  1  0  0  0  0
M  END
>  <CHROM.1>
154.48197810,-71.11244339,151.94087561,-76.61140083,-99.45669908,-77.16015673
108.69117639,33.25154227,19.56538124,77.23095716,0.50432660,-0.07098155,-2.60988478

>  <Name>
ligand

>  <RI>
0

>  <Rbt.Current_Directory>
/home/itssahil/PROJECTS/Mol_Feturizer/New_Systems/rnas/2QWY

>  <Rbt.Executable>
rbdock ($Id: //depot/dev/client3/rdock/2013.1/src/exe/rbdock.cxx#4 $)

>  <Rbt.Library>
libRbt.so (2013.1, Build901 2013/11/27)

>  <Rbt.Parameter_File>
/export/apps/rDock/src/rDock_2013.1_src/data/scripts/dock_solv.prm

>  <Rbt.Receptor>
prm/pocket_docking_5.prm

>  <SCORE>
-26.942

>  <SCORE.INTER>
-27.1672

>  <SCORE.INTER.CONST>
1

>  <SCORE.INTER.POLAR>
0

>  <SCORE.INTER.ROT>
7

>  <SCORE.INTER.SOLV>
11.853

>  <SCORE.INTER.VDW>
-30.3291

>  <SCORE.INTER.norm>
-1.00619

>  <SCORE.INTRA>
0.107376

>  <SCORE.INTRA.DIHEDRAL>
-1.42683

>  <SCORE.INTRA.DIHEDRAL.0>
10.7382

>  <SCORE.INTRA.POLAR>
0

>  <SCORE.INTRA.POLAR.0>
0

>  <SCORE.INTRA.REPUL>
0

>  <SCORE.INTRA.REPUL.0>
0

>  <SCORE.INTRA.SOLV>
0.735837

>  <SCORE.INTRA.SOLV.lig_0>
-49.2501

>  <SCORE.INTRA.VDW>
0.452873

>  <SCORE.INTRA.VDW.0>
-1.75368

>  <SCORE.INTRA.norm>
0.00397691

>  <SCORE.RESTR>
0.117793

>  <SCORE.RESTR.CAVITY>
0.117793

>  <SCORE.RESTR.norm>
0.00436272

>  <SCORE.SYSTEM>
0

>  <SCORE.SYSTEM.CONST>
0

>  <SCORE.SYSTEM.DIHEDRAL>
0

>  <SCORE.SYSTEM.SOLV>
0

>  <SCORE.SYSTEM.norm>
0

>  <SCORE.heavy>
27

>  <SCORE.norm>
-0.997853

>  <RMSD>
2.713

$$$$
ligand
 OpenBabel11021811463D
libRbt.so/2013.1/901 2013/11/27
 27 29  0  0  0  0  0  0  0  0999 V2000
   37.8913   16.0302   74.7150 N   0  0  0  0  0  0  0  0  0  0  0  0
   37.8513   17.2498   75.5407 C   0  0  2  0  0  0  0  0  0  0  0  0
   38.6717   17.0544   76.7987 C   0  0  0  0  0  0  0  0  0  0  0  0
   39.3618   17.9798   77.2382 O   0  0  0  0  0  0  0  0  0  0  0  0
   36.4063   17.5405   75.9327 C   0  0  0  0  0  0  0  0  0  0  0  0
   36.2965   18.9050   76.5788 C   0  0  0  0  0  0  0  0  0  0  0  0
   34.7308   19.6340   76.0665 S   0  0  2  0  0  0  0  0  0  0  0  0
   35.1673   20.0414   74.3533 C   0  0  0  0  0  0  0  0  0  0  0  0
   34.8549   21.2811   76.8430 C   0  0  0  0  0  0  0  0  0  0  0  0
   33.9931   21.2961   78.1027 C   0  0  1  0  0  0  0  0  0  0  0  0
   32.6616   21.0496   77.7149 O   0  0  0  0  0  0  0  0  0  0  0  0
   34.3740   20.1605   79.0586 C   0  0  1  0  0  0  0  0  0  0  0  0
   35.3878   20.3629   80.0553 O   0  0  0  0  0  0  0  0  0  0  0  0
   32.9928   19.6660   79.6027 C   0  0  1  0  0  0  0  0  0  0  0  0
   33.0856   19.5536   81.0332 O   0  0  0  0  0  0  0  0  0  0  0  0
   31.9687   20.6032   78.8697 C   0  0  2  0  0  0  0  0  0  0  0  0
   38.5935   16.0026   77.4154 O   0  0  0  0  0  0  0  0  0  0  0  0
   27.0865   21.1770   77.1552 N   0  0  0  0  0  0  0  0  0  0  0  0
   27.9624   22.1239   77.5102 C   0  0  0  0  0  0  0  0  0  0  0  0
   29.1794   21.8170   77.9504 N   0  0  0  0  0  0  0  0  0  0  0  0
   29.5894   20.5384   78.0352 C   0  0  0  0  0  0  0  0  0  0  0  0
   28.7031   19.4951   77.6558 C   0  0  0  0  0  0  0  0  0  0  0  0
   27.4037   19.8692   77.2016 C   0  0  0  0  0  0  0  0  0  0  0  0
   26.4866   18.9135   76.8063 N   0  0  0  0  0  0  0  0  0  0  0  0
   29.3617   18.3261   77.8298 N   0  0  0  0  0  0  0  0  0  0  0  0
   30.5596   18.5725   78.2751 C   0  0  0  0  0  0  0  0  0  0  0  0
   30.7484   19.9251   78.4191 N   0  0  0  0  0  0  0  0  0  0  0  0
  2  1  1  6  0  0  0
  2  3  1  0  0  0  0
  2  5  1  0  0  0  0
  3  4  1  0  0  0  0
  3 17  1  0  0  0  0
  5  6  1  0  0  0  0
  7  6  1  1  0  0  0
  7  8  1  0  0  0  0
  7  9  1  0  0  0  0
 10  9  1  6  0  0  0
 10 11  1  0  0  0  0
 10 12  1  0  0  0  0
 11 16  1  0  0  0  0
 12 13  1  1  0  0  0
 12 14  1  0  0  0  0
 14 15  1  1  0  0  0
 14 16  1  0  0  0  0
 16 27  1  6  0  0  0
 18 19  2  0  0  0  0
 18 23  1  0  0  0  0
 19 20  1  0  0  0  0
 20 21  2  0  0  0  0
 21 22  1  0  0  0  0
 21 27  1  0  0  0  0
 22 23  2  0  0  0  0
 22 25  1  0  0  0  0
 23 24  1  0  0  0  0
 25 26  2  0  0  0  0
 26 27  1  0  0  0  0
M  END
>  <CHROM.1>
141.06479271,-170.40997578,143.87041133,-73.69946267,-102.44148317,-60.99097171
-80.17068884,33.23300126,19.43971118,77.45318664,0.25205965,0.17845164,-2.09137984

>  <Name>
ligand

>  <RI>
0

>  <Rbt.Current_Directory>
/home/itssahil/PROJECTS/Mol_Feturizer/New_Systems/rnas/2QWY

>  <Rbt.Executable>
rbdock ($Id: //depot/dev/client3/rdock/2013.1/src/exe/rbdock.cxx#4 $)

>  <Rbt.Library>
libRbt.so (2013.1, Build901 2013/11/27)

>  <Rbt.Parameter_File>
/export/apps/rDock/src/rDock_2013.1_src/data/scripts/dock_solv.prm

>  <Rbt.Receptor>
prm/pocket_docking_5.prm

>  <SCORE>
-24.4511

>  <SCORE.INTER>
-23.2521

>  <SCORE.INTER.CONST>
1

>  <SCORE.INTER.POLAR>
0

>  <SCORE.INTER.ROT>
7

>  <SCORE.INTER.SOLV>
15.3646

>  <SCORE.INTER.VDW>
-28.8896

>  <SCORE.INTER.norm>
-0.861189

>  <SCORE.INTRA>
-1.19905

>  <SCORE.INTRA.DIHEDRAL>
-1.18701

>  <SCORE.INTRA.DIHEDRAL.0>
10.7382

>  <SCORE.INTRA.POLAR>
0

>  <SCORE.INTRA.POLAR.0>
0

>  <SCORE.INTRA.REPUL>
0

>  <SCORE.INTRA.REPUL.0>
0

>  <SCORE.INTRA.SOLV>
-0.901392

>  <SCORE.INTRA.SOLV.lig_0>
-49.2501

>  <SCORE.INTRA.VDW>
-0.15485

>  <SCORE.INTRA.VDW.0>
-1.75368

>  <SCORE.INTRA.norm>
-0.0444093

>  <SCORE.RESTR>
0

>  <SCORE.RESTR.CAVITY>
0

>  <SCORE.RESTR.norm>
0

>  <SCORE.SYSTEM>
0

>  <SCORE.SYSTEM.CONST>
0

>  <SCORE.SYSTEM.DIHEDRAL>
0

>  <SCORE.SYSTEM.SOLV>
0

>  <SCORE.SYSTEM.norm>
0

>  <SCORE.heavy>
27

>  <SCORE.norm>
-0.905598

>  <RMSD>
2.748

$$$$
ligand
 OpenBabel11021811463D
libRbt.so/2013.1/901 2013/11/27
 27 29  0  0  0  0  0  0  0  0999 V2000
   38.1729   19.5371   73.8599 N   0  0  0  0  0  0  0  0  0  0  0  0
   37.3085   19.0752   74.9600 C   0  0  2  0  0  0  0  0  0  0  0  0
   37.1343   17.5723   74.8898 C   0  0  0  0  0  0  0  0  0  0  0  0
   37.0790   16.9058   75.9283 O   0  0  0  0  0  0  0  0  0  0  0  0
   35.9408   19.7382   74.8328 C   0  0  0  0  0  0  0  0  0  0  0  0
   35.0486   19.3391   75.9887 C   0  0  0  0  0  0  0  0  0  0  0  0
   35.5992   20.2410   77.4478 S   0  0  2  0  0  0  0  0  0  0  0  0
   36.6330   18.9496   78.1928 C   0  0  0  0  0  0  0  0  0  0  0  0
   34.1111   20.1245   78.4983 C   0  0  0  0  0  0  0  0  0  0  0  0
   33.0070   20.9791   77.8819 C   0  0  1  0  0  0  0  0  0  0  0  0
   31.9352   20.1255   77.5551 O   0  0  0  0  0  0  0  0  0  0  0  0
   32.4512   21.9921   78.8885 C   0  0  1  0  0  0  0  0  0  0  0  0
   33.0444   23.2945   79.0071 O   0  0  0  0  0  0  0  0  0  0  0  0
   30.9133   21.9834   78.6002 C   0  0  1  0  0  0  0  0  0  0  0  0
   30.4651   23.3461   78.5016 O   0  0  0  0  0  0  0  0  0  0  0  0
   30.7783   20.9383   77.4365 C   0  0  2  0  0  0  0  0  0  0  0  0
   36.9779   17.0308   73.8058 O   0  0  0  0  0  0  0  0  0  0  0  0
   25.5811   20.6380   77.3830 N   0  0  0  0  0  0  0  0  0  0  0  0
   26.3553   21.7210   77.2504 C   0  0  0  0  0  0  0  0  0  0  0  0
   27.6817   21.6397   77.3046 N   0  0  0  0  0  0  0  0  0  0  0  0
   28.3026   20.4580   77.4724 C   0  0  0  0  0  0  0  0  0  0  0  0
   27.5270   19.2749   77.6030 C   0  0  0  0  0  0  0  0  0  0  0  0
   26.1080   19.4103   77.5514 C   0  0  0  0  0  0  0  0  0  0  0  0
   25.2842   18.3057   77.6621 N   0  0  0  0  0  0  0  0  0  0  0  0
   28.3902   18.2436   77.7507 N   0  0  0  0  0  0  0  0  0  0  0  0
   29.6093   18.6984   77.7179 C   0  0  0  0  0  0  0  0  0  0  0  0
   29.6078   20.0612   77.5483 N   0  0  0  0  0  0  0  0  0  0  0  0
  2  1  1  6  0  0  0
  2  3  1  0  0  0  0
  2  5  1  0  0  0  0
  3  4  1  0  0  0  0
  3 17  1  0  0  0  0
  5  6  1  0  0  0  0
  7  6  1  6  0  0  0
  7  8  1  0  0  0  0
  7  9  1  0  0  0  0
 10  9  1  1  0  0  0
 10 11  1  0  0  0  0
 10 12  1  0  0  0  0
 11 16  1  0  0  0  0
 12 13  1  6  0  0  0
 12 14  1  0  0  0  0
 14 15  1  6  0  0  0
 14 16  1  0  0  0  0
 16 27  1  1  0  0  0
 18 19  2  0  0  0  0
 18 23  1  0  0  0  0
 19 20  1  0  0  0  0
 20 21  2  0  0  0  0
 21 22  1  0  0  0  0
 21 27  1  0  0  0  0
 22 23  2  0  0  0  0
 22 25  1  0  0  0  0
 23 24  1  0  0  0  0
 25 26  2  0  0  0  0
 26 27  1  0  0  0  0
M  END
>  <CHROM.1>
143.22142967,-177.13931271,74.96740924,-97.28593444,-69.39906539,118.29375971
-179.32872503,32.19711450,20.00047688,77.10362316,0.24989819,-0.09803543
-2.58577002

>  <Name>
ligand

>  <RI>
0

>  <Rbt.Current_Directory>
/home/itssahil/PROJECTS/Mol_Feturizer/New_Systems/rnas/2QWY

>  <Rbt.Executable>
rbdock ($Id: //depot/dev/client3/rdock/2013.1/src/exe/rbdock.cxx#4 $)

>  <Rbt.Library>
libRbt.so (2013.1, Build901 2013/11/27)

>  <Rbt.Parameter_File>
/export/apps/rDock/src/rDock_2013.1_src/data/scripts/dock_solv.prm

>  <Rbt.Receptor>
prm/pocket_docking_3.prm

>  <SCORE>
-23.0366

>  <SCORE.INTER>
-23.0904

>  <SCORE.INTER.CONST>
1

>  <SCORE.INTER.POLAR>
0

>  <SCORE.INTER.ROT>
7

>  <SCORE.INTER.SOLV>
11.7057

>  <SCORE.INTER.VDW>
-27.5622

>  <SCORE.INTER.norm>
-0.855202

>  <SCORE.INTRA>
-0.654198

>  <SCORE.INTRA.DIHEDRAL>
0.369554

>  <SCORE.INTRA.DIHEDRAL.0>
10.7382

>  <SCORE.INTRA.POLAR>
0

>  <SCORE.INTRA.POLAR.0>
0

>  <SCORE.INTRA.REPUL>
0

>  <SCORE.INTRA.REPUL.0>
0

>  <SCORE.INTRA.SOLV>
-0.882824

>  <SCORE.INTRA.SOLV.lig_0>
-49.2501

>  <SCORE.INTRA.VDW>
-0.397563

>  <SCORE.INTRA.VDW.0>
-1.75368

>  <SCORE.INTRA.norm>
-0.0242295

>  <SCORE.RESTR>
0.708075

>  <SCORE.RESTR.CAVITY>
0.708075

>  <SCORE.RESTR.norm>
0.026225

>  <SCORE.SYSTEM>
0

>  <SCORE.SYSTEM.CONST>
0

>  <SCORE.SYSTEM.DIHEDRAL>
0

>  <SCORE.SYSTEM.SOLV>
0

>  <SCORE.SYSTEM.norm>
0

>  <SCORE.heavy>
27

>  <SCORE.norm>
-0.853206

>  <RMSD>
2.757

$$$$
ligand
 OpenBabel11021811463D
libRbt.so/2013.1/901 2013/11/27
 27 29  0  0  0  0  0  0  0  0999 V2000
   37.2492   22.2092   74.2414 N   0  0  0  0  0  0  0  0  0  0  0  0
   37.3849   20.8411   74.7713 C   0  0  2  0  0  0  0  0  0  0  0  0
   37.8879   19.9102   73.6877 C   0  0  0  0  0  0  0  0  0  0  0  0
   37.7794   20.2275   72.4988 O   0  0  0  0  0  0  0  0  0  0  0  0
   36.0212   20.3528   75.2490 C   0  0  0  0  0  0  0  0  0  0  0  0
   36.1713   19.1103   76.1004 C   0  0  0  0  0  0  0  0  0  0  0  0
   35.2788   19.3856   77.6409 S   0  0  2  0  0  0  0  0  0  0  0  0
   33.6445   19.7574   76.9465 C   0  0  0  0  0  0  0  0  0  0  0  0
   35.8504   21.0660   78.0667 C   0  0  0  0  0  0  0  0  0  0  0  0
   34.9679   21.6162   79.1838 C   0  0  1  0  0  0  0  0  0  0  0  0
   33.7831   22.1006   78.5959 O   0  0  0  0  0  0  0  0  0  0  0  0
   34.5387   20.5129   80.1569 C   0  0  1  0  0  0  0  0  0  0  0  0
   35.3513   20.1983   81.2984 O   0  0  0  0  0  0  0  0  0  0  0  0
   33.0494   20.8707   80.4766 C   0  0  1  0  0  0  0  0  0  0  0  0
   32.8671   20.8114   81.9017 O   0  0  0  0  0  0  0  0  0  0  0  0
   32.8064   22.1657   79.6230 C   0  0  2  0  0  0  0  0  0  0  0  0
   38.4644   18.8780   73.9957 O   0  0  0  0  0  0  0  0  0  0  0  0
   28.9411   19.4482   77.4370 N   0  0  0  0  0  0  0  0  0  0  0  0
   30.0958   18.9981   77.9408 C   0  0  0  0  0  0  0  0  0  0  0  0
   31.0013   19.8260   78.4543 N   0  0  0  0  0  0  0  0  0  0  0  0
   30.7828   21.1524   78.5096 C   0  0  0  0  0  0  0  0  0  0  0  0
   29.5656   21.6806   78.0020 C   0  0  0  0  0  0  0  0  0  0  0  0
   28.6287   20.7580   77.4492 C   0  0  0  0  0  0  0  0  0  0  0  0
   27.4179   21.1921   76.9430 N   0  0  0  0  0  0  0  0  0  0  0  0
   29.6020   23.0205   78.1863 N   0  0  0  0  0  0  0  0  0  0  0  0
   30.7254   23.3429   78.7590 C   0  0  0  0  0  0  0  0  0  0  0  0
   31.4898   22.2233   78.9788 N   0  0  0  0  0  0  0  0  0  0  0  0
  2  1  1  6  0  0  0
  2  3  1  0  0  0  0
  2  5  1  0  0  0  0
  3  4  1  0  0  0  0
  3 17  1  0  0  0  0
  5  6  1  0  0  0  0
  7  6  1  6  0  0  0
  7  8  1  0  0  0  0
  7  9  1  0  0  0  0
 10  9  1  6  0  0  0
 10 11  1  0  0  0  0
 10 12  1  0  0  0  0
 11 16  1  0  0  0  0
 12 13  1  1  0  0  0
 12 14  1  0  0  0  0
 14 15  1  1  0  0  0
 14 16  1  0  0  0  0
 16 27  1  6  0  0  0
 18 19  2  0  0  0  0
 18 23  1  0  0  0  0
 19 20  1  0  0  0  0
 20 21  2  0  0  0  0
 21 22  1  0  0  0  0
 21 27  1  0  0  0  0
 22 23  2  0  0  0  0
 22 25  1  0  0  0  0
 23 24  1  0  0  0  0
 25 26  2  0  0  0  0
 26 27  1  0  0  0  0
M  END
>  <CHROM.1>
-19.60215701,-166.05066422,128.46044952,56.53790607,167.34254535,-80.92685614
82.22201223,33.57952595,20.71424195,77.58838025,0.51055791,0.10025954,-1.67109935

>  <Name>
ligand

>  <RI>
0

>  <Rbt.Current_Directory>
/home/itssahil/PROJECTS/Mol_Feturizer/New_Systems/rnas/2QWY

>  <Rbt.Executable>
rbdock ($Id: //depot/dev/client3/rdock/2013.1/src/exe/rbdock.cxx#4 $)

>  <Rbt.Library>
libRbt.so (2013.1, Build901 2013/11/27)

>  <Rbt.Parameter_File>
/export/apps/rDock/src/rDock_2013.1_src/data/scripts/dock_solv.prm

>  <Rbt.Receptor>
prm/pocket_docking_3.prm

>  <SCORE>
-12.5349

>  <SCORE.INTER>
-16.1886

>  <SCORE.INTER.CONST>
1

>  <SCORE.INTER.POLAR>
0

>  <SCORE.INTER.ROT>
7

>  <SCORE.INTER.SOLV>
16.4681

>  <SCORE.INTER.VDW>
-24.5485

>  <SCORE.INTER.norm>
-0.59958

>  <SCORE.INTRA>
3.63672

>  <SCORE.INTRA.DIHEDRAL>
0.153828

>  <SCORE.INTRA.DIHEDRAL.0>
10.7382

>  <SCORE.INTRA.POLAR>
0

>  <SCORE.INTRA.POLAR.0>
0

>  <SCORE.INTRA.REPUL>
0

>  <SCORE.INTRA.REPUL.0>
0

>  <SCORE.INTRA.SOLV>
-0.439062

>  <SCORE.INTRA.SOLV.lig_0>
-49.2501

>  <SCORE.INTRA.VDW>
3.77933

>  <SCORE.INTRA.VDW.0>
-1.75368

>  <SCORE.INTRA.norm>
0.134693

>  <SCORE.RESTR>
0.016999

>  <SCORE.RESTR.CAVITY>
0.016999

>  <SCORE.RESTR.norm>
0.000629594

>  <SCORE.SYSTEM>
0

>  <SCORE.SYSTEM.CONST>
0

>  <SCORE.SYSTEM.DIHEDRAL>
0

>  <SCORE.SYSTEM.SOLV>
0

>  <SCORE.SYSTEM.norm>
0

>  <SCORE.heavy>
27

>  <SCORE.norm>
-0.464257

>  <RMSD>
2.767

$$$$
ligand
 OpenBabel11021811463D
libRbt.so/2013.1/901 2013/11/27
 27 29  0  0  0  0  0  0  0  0999 V2000
   38.2514   16.2691   73.7442 N   0  0  0  0  0  0  0  0  0  0  0  0
   37.9933   16.9065   75.0472 C   0  0  2  0  0  0  0  0  0  0  0  0
   37.8916   15.8536   76.1311 C   0  0  0  0  0  0  0  0  0  0  0  0
   37.1212   14.8975   75.9958 O   0  0  0  0  0  0  0  0  0  0  0  0
   36.6763   17.6725   74.9765 C   0  0  0  0  0  0  0  0  0  0  0  0
   36.4107   18.3920   76.2816 C   0  0  0  0  0  0  0  0  0  0  0  0
   34.9711   19.4490   76.0461 S   0  0  2  0  0  0  0  0  0  0  0  0
   35.7870   20.8397   75.2144 C   0  0  0  0  0  0  0  0  0  0  0  0
   34.7761   20.1335   77.7269 C   0  0  0  0  0  0  0  0  0  0  0  0
   33.6610   21.1755   77.7062 C   0  0  1  0  0  0  0  0  0  0  0  0
   32.4725   20.5249   77.3212 O   0  0  0  0  0  0  0  0  0  0  0  0
   33.3987   21.7468   79.1038 C   0  0  1  0  0  0  0  0  0  0  0  0
   34.1222   22.8995   79.5619 O   0  0  0  0  0  0  0  0  0  0  0  0
   31.8400   21.8728   79.1572 C   0  0  1  0  0  0  0  0  0  0  0  0
   31.5101   23.1806   79.6557 O   0  0  0  0  0  0  0  0  0  0  0  0
   31.3945   21.3425   77.7484 C   0  0  2  0  0  0  0  0  0  0  0  0
   38.6249   15.9157   77.1064 O   0  0  0  0  0  0  0  0  0  0  0  0
   26.2035   21.2333   77.3661 N   0  0  0  0  0  0  0  0  0  0  0  0
   27.0227   22.2888   77.2985 C   0  0  0  0  0  0  0  0  0  0  0  0
   28.3393   22.1584   77.4341 N   0  0  0  0  0  0  0  0  0  0  0  0
   28.9058   20.9526   77.6224 C   0  0  0  0  0  0  0  0  0  0  0  0
   28.0818   19.7972   77.6865 C   0  0  0  0  0  0  0  0  0  0  0  0
   26.6746   19.9851   77.5485 C   0  0  0  0  0  0  0  0  0  0  0  0
   25.8066   18.9101   77.5908 N   0  0  0  0  0  0  0  0  0  0  0  0
   28.8966   18.7332   77.8721 N   0  0  0  0  0  0  0  0  0  0  0  0
   30.1307   19.1434   77.9224 C   0  0  0  0  0  0  0  0  0  0  0  0
   30.1886   20.5075   77.7737 N   0  0  0  0  0  0  0  0  0  0  0  0
  2  1  1  6  0  0  0
  2  3  1  0  0  0  0
  2  5  1  0  0  0  0
  3  4  1  0  0  0  0
  3 17  1  0  0  0  0
  5  6  1  0  0  0  0
  7  6  1  1  0  0  0
  7  8  1  0  0  0  0
  7  9  1  0  0  0  0
 10  9  1  1  0  0  0
 10 11  1  0  0  0  0
 10 12  1  0  0  0  0
 11 16  1  0  0  0  0
 12 13  1  6  0  0  0
 12 14  1  0  0  0  0
 14 15  1  6  0  0  0
 14 16  1  0  0  0  0
 16 27  1  1  0  0  0
 18 19  2  0  0  0  0
 18 23  1  0  0  0  0
 19 20  1  0  0  0  0
 20 21  2  0  0  0  0
 21 22  1  0  0  0  0
 21 27  1  0  0  0  0
 22 23  2  0  0  0  0
 22 25  1  0  0  0  0
 23 24  1  0  0  0  0
 25 26  2  0  0  0  0
 26 27  1  0  0  0  0
M  END
>  <CHROM.1>
-52.45943728,-177.46260331,172.25869903,-80.46650999,174.78568471,61.32263976
-153.35345666,32.73761346,19.70675478,77.15630546,0.44761506,-0.02819522
-2.69113113

>  <Name>
ligand

>  <RI>
0

>  <Rbt.Current_Directory>
/home/itssahil/PROJECTS/Mol_Feturizer/New_Systems/rnas/2QWY

>  <Rbt.Executable>
rbdock ($Id: //depot/dev/client3/rdock/2013.1/src/exe/rbdock.cxx#4 $)

>  <Rbt.Library>
libRbt.so (2013.1, Build901 2013/11/27)

>  <Rbt.Parameter_File>
/export/apps/rDock/src/rDock_2013.1_src/data/scripts/dock_solv.prm

>  <Rbt.Receptor>
prm/pocket_docking_5.prm

>  <SCORE>
-30.0422

>  <SCORE.INTER>
-26.2173

>  <SCORE.INTER.CONST>
1

>  <SCORE.INTER.POLAR>
0

>  <SCORE.INTER.ROT>
7

>  <SCORE.INTER.SOLV>
10.9426

>  <SCORE.INTER.VDW>
-29.3924

>  <SCORE.INTER.norm>
-0.971011

>  <SCORE.INTRA>
-3.83691

>  <SCORE.INTRA.DIHEDRAL>
-6.7297

>  <SCORE.INTRA.DIHEDRAL.0>
10.7382

>  <SCORE.INTRA.POLAR>
0

>  <SCORE.INTRA.POLAR.0>
0

>  <SCORE.INTRA.REPUL>
0

>  <SCORE.INTRA.REPUL.0>
0

>  <SCORE.INTRA.SOLV>
-1.23624

>  <SCORE.INTRA.SOLV.lig_0>
-49.2501

>  <SCORE.INTRA.VDW>
0.146058

>  <SCORE.INTRA.VDW.0>
-1.75368

>  <SCORE.INTRA.norm>
-0.142108

>  <SCORE.RESTR>
0.0120203

>  <SCORE.RESTR.CAVITY>
0.0120203

>  <SCORE.RESTR.norm>
0.000445196

>  <SCORE.SYSTEM>
0

>  <SCORE.SYSTEM.CONST>
0

>  <SCORE.SYSTEM.DIHEDRAL>
0

>  <SCORE.SYSTEM.SOLV>
0

>  <SCORE.SYSTEM.norm>
0

>  <SCORE.heavy>
27

>  <SCORE.norm>
-1.11267

>  <RMSD>
2.818

$$$$
ligand
 OpenBabel11021811463D
libRbt.so/2013.1/901 2013/11/27
 27 29  0  0  0  0  0  0  0  0999 V2000
   37.9521   17.5390   73.3615 N   0  0  0  0  0  0  0  0  0  0  0  0
   37.8992   17.1958   74.7933 C   0  0  2  0  0  0  0  0  0  0  0  0
   37.2900   15.8214   74.9774 C   0  0  0  0  0  0  0  0  0  0  0  0
   36.6923   15.2784   74.0426 O   0  0  0  0  0  0  0  0  0  0  0  0
   37.0359   18.2210   75.5213 C   0  0  0  0  0  0  0  0  0  0  0  0
   37.1132   18.0117   77.0185 C   0  0  0  0  0  0  0  0  0  0  0  0
   36.6037   19.5441   77.8169 S   0  0  2  0  0  0  0  0  0  0  0  0
   36.7157   19.0017   79.5446 C   0  0  0  0  0  0  0  0  0  0  0  0
   34.7977   19.4737   77.5617 C   0  0  0  0  0  0  0  0  0  0  0  0
   34.1873   20.8006   78.0047 C   0  0  1  0  0  0  0  0  0  0  0  0
   32.8810   20.8681   77.4821 O   0  0  0  0  0  0  0  0  0  0  0  0
   34.0392   20.8710   79.5284 C   0  0  1  0  0  0  0  0  0  0  0  0
   35.1097   21.3837   80.3366 O   0  0  0  0  0  0  0  0  0  0  0  0
   32.6569   21.5772   79.7260 C   0  0  1  0  0  0  0  0  0  0  0  0
   32.8203   22.6243   80.6979 O   0  0  0  0  0  0  0  0  0  0  0  0
   32.1743   21.8269   78.2531 C   0  0  2  0  0  0  0  0  0  0  0  0
   37.4527   15.2229   76.0300 O   0  0  0  0  0  0  0  0  0  0  0  0
   28.4315   18.2853   77.5097 N   0  0  0  0  0  0  0  0  0  0  0  0
   29.7467   18.0902   77.6581 C   0  0  0  0  0  0  0  0  0  0  0  0
   30.5874   19.1075   77.8233 N   0  0  0  0  0  0  0  0  0  0  0  0
   30.1459   20.3775   77.8713 C   0  0  0  0  0  0  0  0  0  0  0  0
   28.7562   20.6384   77.7342 C   0  0  0  0  0  0  0  0  0  0  0  0
   27.8926   19.5188   77.5465 C   0  0  0  0  0  0  0  0  0  0  0  0
   26.5272   19.6888   77.4138 N   0  0  0  0  0  0  0  0  0  0  0  0
   28.5886   21.9779   77.8259 N   0  0  0  0  0  0  0  0  0  0  0  0
   29.7472   22.5422   78.0076 C   0  0  0  0  0  0  0  0  0  0  0  0
   30.7412   21.5953   78.0422 N   0  0  0  0  0  0  0  0  0  0  0  0
  2  1  1  6  0  0  0
  2  3  1  0  0  0  0
  2  5  1  0  0  0  0
  3  4  1  0  0  0  0
  3 17  1  0  0  0  0
  5  6  1  0  0  0  0
  7  6  1  6  0  0  0
  7  8  1  0  0  0  0
  7  9  1  0  0  0  0
 10  9  1  1  0  0  0
 10 11  1  0  0  0  0
 10 12  1  0  0  0  0
 11 16  1  0  0  0  0
 12 13  1  1  0  0  0
 12 14  1  0  0  0  0
 14 15  1  1  0  0  0
 14 16  1  0  0  0  0
 16 27  1  1  0  0  0
 18 19  2  0  0  0  0
 18 23  1  0  0  0  0
 19 20  1  0  0  0  0
 20 21  2  0  0  0  0
 21 22  1  0  0  0  0
 21 27  1  0  0  0  0
 22 23  2  0  0  0  0
 22 25  1  0  0  0  0
 23 24  1  0  0  0  0
 25 26  2  0  0  0  0
 26 27  1  0  0  0  0
M  END
>  <CHROM.1>
-14.02381922,-172.22736620,159.67512353,177.63807132,-172.12748614,164.63811651
35.52652569,33.41508202,19.49866894,77.51123606,0.48793701,0.07011120,-2.41016703

>  <Name>
ligand

>  <RI>
0

>  <Rbt.Current_Directory>
/home/itssahil/PROJECTS/Mol_Feturizer/New_Systems/rnas/2QWY

>  <Rbt.Executable>
rbdock ($Id: //depot/dev/client3/rdock/2013.1/src/exe/rbdock.cxx#4 $)

>  <Rbt.Library>
libRbt.so (2013.1, Build901 2013/11/27)

>  <Rbt.Parameter_File>
/export/apps/rDock/src/rDock_2013.1_src/data/scripts/dock_solv.prm

>  <Rbt.Receptor>
prm/pocket_docking_6.prm

>  <SCORE>
-27.2161

>  <SCORE.INTER>
-24.6786

>  <SCORE.INTER.CONST>
1

>  <SCORE.INTER.POLAR>
0

>  <SCORE.INTER.ROT>
7

>  <SCORE.INTER.SOLV>
10.0015

>  <SCORE.INTER.VDW>
-28.0529

>  <SCORE.INTER.norm>
-0.914023

>  <SCORE.INTRA>
-2.53747

>  <SCORE.INTRA.DIHEDRAL>
-4.08636

>  <SCORE.INTRA.DIHEDRAL.0>
10.7382

>  <SCORE.INTRA.POLAR>
0

>  <SCORE.INTRA.POLAR.0>
0

>  <SCORE.INTRA.REPUL>
0

>  <SCORE.INTRA.REPUL.0>
0

>  <SCORE.INTRA.SOLV>
-0.863824

>  <SCORE.INTRA.SOLV.lig_0>
-49.2501

>  <SCORE.INTRA.VDW>
-0.0623728

>  <SCORE.INTRA.VDW.0>
-1.75368

>  <SCORE.INTRA.norm>
-0.0939803

>  <SCORE.RESTR>
0

>  <SCORE.RESTR.CAVITY>
0

>  <SCORE.RESTR.norm>
0

>  <SCORE.SYSTEM>
0

>  <SCORE.SYSTEM.CONST>
0

>  <SCORE.SYSTEM.DIHEDRAL>
0

>  <SCORE.SYSTEM.SOLV>
0

>  <SCORE.SYSTEM.norm>
0

>  <SCORE.heavy>
27

>  <SCORE.norm>
-1.008

>  <RMSD>
2.893

$$$$
ligand
 OpenBabel11021811463D
libRbt.so/2013.1/901 2013/11/27
 27 29  0  0  0  0  0  0  0  0999 V2000
   36.9703   19.7086   72.8387 N   0  0  0  0  0  0  0  0  0  0  0  0
   36.1174   19.8982   74.0250 C   0  0  2  0  0  0  0  0  0  0  0  0
   36.4027   21.2422   74.6624 C   0  0  0  0  0  0  0  0  0  0  0  0
   35.4740   21.9327   75.0943 O   0  0  0  0  0  0  0  0  0  0  0  0
   36.4172   18.7972   75.0371 C   0  0  0  0  0  0  0  0  0  0  0  0
   35.3480   18.7559   76.1079 C   0  0  0  0  0  0  0  0  0  0  0  0
   35.8069   19.9336   77.3916 S   0  0  2  0  0  0  0  0  0  0  0  0
   36.9644   18.8887   78.3191 C   0  0  0  0  0  0  0  0  0  0  0  0
   34.3383   19.8449   78.4719 C   0  0  0  0  0  0  0  0  0  0  0  0
   33.2943   20.8351   77.9631 C   0  0  1  0  0  0  0  0  0  0  0  0
   32.1601   20.0986   77.5690 O   0  0  0  0  0  0  0  0  0  0  0  0
   32.8229   21.7772   79.0761 C   0  0  1  0  0  0  0  0  0  0  0  0
   33.5108   23.0147   79.3164 O   0  0  0  0  0  0  0  0  0  0  0  0
   31.2860   21.9085   78.8133 C   0  0  1  0  0  0  0  0  0  0  0  0
   30.9378   23.3028   78.8606 O   0  0  0  0  0  0  0  0  0  0  0  0
   31.0648   21.0003   77.5520 C   0  0  2  0  0  0  0  0  0  0  0  0
   37.5587   21.6086   74.8114 O   0  0  0  0  0  0  0  0  0  0  0  0
   25.8651   21.0591   77.2991 N   0  0  0  0  0  0  0  0  0  0  0  0
   26.7151   22.0898   77.2291 C   0  0  0  0  0  0  0  0  0  0  0  0
   28.0300   21.9161   77.3292 N   0  0  0  0  0  0  0  0  0  0  0  0
   28.5627   20.6902   77.4822 C   0  0  0  0  0  0  0  0  0  0  0  0
   27.7046   19.5599   77.5472 C   0  0  0  0  0  0  0  0  0  0  0  0
   26.3010   19.7938   77.4481 C   0  0  0  0  0  0  0  0  0  0  0  0
   25.4009   18.7457   77.4937 N   0  0  0  0  0  0  0  0  0  0  0  0
   28.4899   18.4679   77.6938 N   0  0  0  0  0  0  0  0  0  0  0  0
   29.7372   18.8387   77.7200 C   0  0  0  0  0  0  0  0  0  0  0  0
   29.8343   20.2028   77.5934 N   0  0  0  0  0  0  0  0  0  0  0  0
  2  1  1  6  0  0  0
  2  3  1  0  0  0  0
  2  5  1  0  0  0  0
  3  4  1  0  0  0  0
  3 17  1  0  0  0  0
  5  6  1  0  0  0  0
  7  6  1  6  0  0  0
  7  8  1  0  0  0  0
  7  9  1  0  0  0  0
 10  9  1  1  0  0  0
 10 11  1  0  0  0  0
 10 12  1  0  0  0  0
 11 16  1  0  0  0  0
 12 13  1  6  0  0  0
 12 14  1  0  0  0  0
 14 15  1  6  0  0  0
 14 16  1  0  0  0  0
 16 27  1  1  0  0  0
 18 19  2  0  0  0  0
 18 23  1  0  0  0  0
 19 20  1  0  0  0  0
 20 21  2  0  0  0  0
 21 22  1  0  0  0  0
 21 27  1  0  0  0  0
 22 23  2  0  0  0  0
 22 25  1  0  0  0  0
 23 24  1  0  0  0  0
 25 26  2  0  0  0  0
 26 27  1  0  0  0  0
M  END
>  <CHROM.1>
139.33441905,-166.41468823,-86.37894373,-82.71619036,-87.09489087,117.01251651
-174.30287862,32.28026880,20.51882882,77.08086384,0.17666903,-0.12460201
-2.28571025

>  <Name>
ligand

>  <RI>
0

>  <Rbt.Current_Directory>
/home/itssahil/PROJECTS/Mol_Feturizer/New_Systems/rnas/2QWY

>  <Rbt.Executable>
rbdock ($Id: //depot/dev/client3/rdock/2013.1/src/exe/rbdock.cxx#4 $)

>  <Rbt.Library>
libRbt.so (2013.1, Build901 2013/11/27)

>  <Rbt.Parameter_File>
/export/apps/rDock/src/rDock_2013.1_src/data/scripts/dock_solv.prm

>  <Rbt.Receptor>
prm/pocket_docking_3.prm

>  <SCORE>
-24.1478

>  <SCORE.INTER>
-23.9198

>  <SCORE.INTER.CONST>
1

>  <SCORE.INTER.POLAR>
0

>  <SCORE.INTER.ROT>
7

>  <SCORE.INTER.SOLV>
10.8473

>  <SCORE.INTER.VDW>
-27.829

>  <SCORE.INTER.norm>
-0.885917

>  <SCORE.INTRA>
-0.721807

>  <SCORE.INTRA.DIHEDRAL>
1.88595

>  <SCORE.INTRA.DIHEDRAL.0>
10.7382

>  <SCORE.INTRA.POLAR>
0

>  <SCORE.INTRA.POLAR.0>
0

>  <SCORE.INTRA.REPUL>
0

>  <SCORE.INTRA.REPUL.0>
0

>  <SCORE.INTRA.SOLV>
-1.07926

>  <SCORE.INTRA.SOLV.lig_0>
-49.2501

>  <SCORE.INTRA.VDW>
-1.12515

>  <SCORE.INTRA.VDW.0>
-1.75368

>  <SCORE.INTRA.norm>
-0.0267336

>  <SCORE.RESTR>
0.493817

>  <SCORE.RESTR.CAVITY>
0.493817

>  <SCORE.RESTR.norm>
0.0182895

>  <SCORE.SYSTEM>
0

>  <SCORE.SYSTEM.CONST>
0

>  <SCORE.SYSTEM.DIHEDRAL>
0

>  <SCORE.SYSTEM.SOLV>
0

>  <SCORE.SYSTEM.norm>
0

>  <SCORE.heavy>
27

>  <SCORE.norm>
-0.894361

>  <RMSD>
2.928

$$$$
ligand
 OpenBabel11021811463D
libRbt.so/2013.1/901 2013/11/27
 27 29  0  0  0  0  0  0  0  0999 V2000
   37.5715   15.9036   73.6822 N   0  0  0  0  0  0  0  0  0  0  0  0
   37.6045   16.7522   74.8861 C   0  0  2  0  0  0  0  0  0  0  0  0
   37.7976   15.8970   76.1211 C   0  0  0  0  0  0  0  0  0  0  0  0
   38.4034   16.3481   77.0985 O   0  0  0  0  0  0  0  0  0  0  0  0
   36.2817   17.5019   75.0054 C   0  0  0  0  0  0  0  0  0  0  0  0
   36.4178   18.6689   75.9598 C   0  0  0  0  0  0  0  0  0  0  0  0
   34.9321   19.6772   75.8141 S   0  0  2  0  0  0  0  0  0  0  0  0
   35.1370   20.2180   74.0945 C   0  0  0  0  0  0  0  0  0  0  0  0
   35.4574   21.1829   76.7022 C   0  0  0  0  0  0  0  0  0  0  0  0
   34.6842   21.2734   78.0150 C   0  0  1  0  0  0  0  0  0  0  0  0
   33.3863   21.7333   77.7182 O   0  0  0  0  0  0  0  0  0  0  0  0
   34.5087   19.8948   78.6608 C   0  0  1  0  0  0  0  0  0  0  0  0
   35.4982   19.3909   79.5714 O   0  0  0  0  0  0  0  0  0  0  0  0
   33.0483   19.9399   79.2207 C   0  0  1  0  0  0  0  0  0  0  0  0
   33.0702   19.4623   80.5768 O   0  0  0  0  0  0  0  0  0  0  0  0
   32.5582   21.3746   78.8129 C   0  0  2  0  0  0  0  0  0  0  0  0
   37.2913   14.7863   76.1738 O   0  0  0  0  0  0  0  0  0  0  0  0
   28.3772   18.6275   77.3719 N   0  0  0  0  0  0  0  0  0  0  0  0
   29.5812   18.1796   77.7451 C   0  0  0  0  0  0  0  0  0  0  0  0
   30.5646   19.0140   78.0704 N   0  0  0  0  0  0  0  0  0  0  0  0
   30.3815   20.3468   78.0599 C   0  0  0  0  0  0  0  0  0  0  0  0
   29.1166   20.8742   77.6859 C   0  0  0  0  0  0  0  0  0  0  0  0
   28.0949   19.9436   77.3328 C   0  0  0  0  0  0  0  0  0  0  0  0
   26.8346   20.3771   76.9659 N   0  0  0  0  0  0  0  0  0  0  0  0
   29.2038   22.2219   77.7673 N   0  0  0  0  0  0  0  0  0  0  0  0
   30.4013   22.5500   78.1576 C   0  0  0  0  0  0  0  0  0  0  0  0
   31.1669   21.4263   78.3510 N   0  0  0  0  0  0  0  0  0  0  0  0
  2  1  1  6  0  0  0
  2  3  1  0  0  0  0
  2  5  1  0  0  0  0
  3  4  1  0  0  0  0
  3 17  1  0  0  0  0
  5  6  1  0  0  0  0
  7  6  1  1  0  0  0
  7  8  1  0  0  0  0
  7  9  1  0  0  0  0
 10  9  1  6  0  0  0
 10 11  1  0  0  0  0
 10 12  1  0  0  0  0
 11 16  1  0  0  0  0
 12 13  1  1  0  0  0
 12 14  1  0  0  0  0
 14 15  1  1  0  0  0
 14 16  1  0  0  0  0
 16 27  1  6  0  0  0
 18 19  2  0  0  0  0
 18 23  1  0  0  0  0
 19 20  1  0  0  0  0
 20 21  2  0  0  0  0
 21 22  1  0  0  0  0
 21 27  1  0  0  0  0
 22 23  2  0  0  0  0
 22 25  1  0  0  0  0
 23 24  1  0  0  0  0
 25 26  2  0  0  0  0
 26 27  1  0  0  0  0
M  END
>  <CHROM.1>
148.87359776,-163.05648408,169.54497600,-64.59591186,-110.23746503,-77.42415738
104.56406298,33.43444442,19.36682452,77.17876845,0.49840273,0.04562015,-2.50943241

>  <Name>
ligand

>  <RI>
0

>  <Rbt.Current_Directory>
/home/itssahil/PROJECTS/Mol_Feturizer/New_Systems/rnas/2QWY

>  <Rbt.Executable>
rbdock ($Id: //depot/dev/client3/rdock/2013.1/src/exe/rbdock.cxx#4 $)

>  <Rbt.Library>
libRbt.so (2013.1, Build901 2013/11/27)

>  <Rbt.Parameter_File>
/export/apps/rDock/src/rDock_2013.1_src/data/scripts/dock_solv.prm

>  <Rbt.Receptor>
prm/pocket_docking_6.prm

>  <SCORE>
-27.6998

>  <SCORE.INTER>
-27.3925

>  <SCORE.INTER.CONST>
1

>  <SCORE.INTER.POLAR>
0

>  <SCORE.INTER.ROT>
7

>  <SCORE.INTER.SOLV>
13.6574

>  <SCORE.INTER.VDW>
-31.0808

>  <SCORE.INTER.norm>
-1.01454

>  <SCORE.INTRA>
-0.307335

>  <SCORE.INTRA.DIHEDRAL>
-1.87208

>  <SCORE.INTRA.DIHEDRAL.0>
10.7382

>  <SCORE.INTRA.POLAR>
0

>  <SCORE.INTRA.POLAR.0>
0

>  <SCORE.INTRA.REPUL>
0

>  <SCORE.INTRA.REPUL.0>
0

>  <SCORE.INTRA.SOLV>
-0.824481

>  <SCORE.INTRA.SOLV.lig_0>
-49.2501

>  <SCORE.INTRA.VDW>
1.04095

>  <SCORE.INTRA.VDW.0>
-1.75368

>  <SCORE.INTRA.norm>
-0.0113828

>  <SCORE.RESTR>
0

>  <SCORE.RESTR.CAVITY>
0

>  <SCORE.RESTR.norm>
0

>  <SCORE.SYSTEM>
0

>  <SCORE.SYSTEM.CONST>
0

>  <SCORE.SYSTEM.DIHEDRAL>
0

>  <SCORE.SYSTEM.SOLV>
0

>  <SCORE.SYSTEM.norm>
0

>  <SCORE.heavy>
27

>  <SCORE.norm>
-1.02592

>  <RMSD>
2.981

$$$$
ligand
 OpenBabel11021811463D
libRbt.so/2013.1/901 2013/11/27
 27 29  0  0  0  0  0  0  0  0999 V2000
   37.6245   19.1954   75.0993 N   0  0  0  0  0  0  0  0  0  0  0  0
   36.1647   19.1704   75.2968 C   0  0  2  0  0  0  0  0  0  0  0  0
   35.4650   19.7484   74.0843 C   0  0  0  0  0  0  0  0  0  0  0  0
   34.2398   19.6435   73.9675 O   0  0  0  0  0  0  0  0  0  0  0  0
   35.8115   20.0113   76.5193 C   0  0  0  0  0  0  0  0  0  0  0  0
   36.3795   19.3857   77.7752 C   0  0  0  0  0  0  0  0  0  0  0  0
   35.7979   20.3480   79.1828 S   0  0  2  0  0  0  0  0  0  0  0  0
   36.5933   19.3993   80.5090 C   0  0  0  0  0  0  0  0  0  0  0  0
   34.0821   19.7408   79.3212 C   0  0  0  0  0  0  0  0  0  0  0  0
   33.1930   20.5669   78.3957 C   0  0  1  0  0  0  0  0  0  0  0  0
   32.0830   19.7735   78.0458 O   0  0  0  0  0  0  0  0  0  0  0  0
   32.6263   21.7980   79.1110 C   0  0  1  0  0  0  0  0  0  0  0  0
   33.3521   23.0371   79.1039 O   0  0  0  0  0  0  0  0  0  0  0  0
   31.1573   21.8823   78.5788 C   0  0  1  0  0  0  0  0  0  0  0  0
   30.8996   23.2392   78.1787 O   0  0  0  0  0  0  0  0  0  0  0  0
   31.0648   20.6564   77.6024 C   0  0  2  0  0  0  0  0  0  0  0  0
   36.1069   20.3795   73.2583 O   0  0  0  0  0  0  0  0  0  0  0  0
   25.8756   21.0046   77.3667 N   0  0  0  0  0  0  0  0  0  0  0  0
   26.7823   21.9835   77.2701 C   0  0  0  0  0  0  0  0  0  0  0  0
   28.0857   21.7378   77.3694 N   0  0  0  0  0  0  0  0  0  0  0  0
   28.5488   20.4874   77.5486 C   0  0  0  0  0  0  0  0  0  0  0  0
   27.6284   19.4094   77.6424 C   0  0  0  0  0  0  0  0  0  0  0  0
   26.2398   19.7202   77.5430 C   0  0  0  0  0  0  0  0  0  0  0  0
   25.2820   18.7262   77.6158 N   0  0  0  0  0  0  0  0  0  0  0  0
   28.3512   18.2782   77.8112 N   0  0  0  0  0  0  0  0  0  0  0  0
   29.6176   18.5781   77.8244 C   0  0  0  0  0  0  0  0  0  0  0  0
   29.7912   19.9312   77.6663 N   0  0  0  0  0  0  0  0  0  0  0  0
  2  1  1  6  0  0  0
  2  3  1  0  0  0  0
  2  5  1  0  0  0  0
  3  4  1  0  0  0  0
  3 17  1  0  0  0  0
  5  6  1  0  0  0  0
  7  6  1  6  0  0  0
  7  8  1  0  0  0  0
  7  9  1  0  0  0  0
 10  9  1  1  0  0  0
 10 11  1  0  0  0  0
 10 12  1  0  0  0  0
 11 16  1  0  0  0  0
 12 13  1  6  0  0  0
 12 14  1  0  0  0  0
 14 15  1  6  0  0  0
 14 16  1  0  0  0  0
 16 27  1  1  0  0  0
 18 19  2  0  0  0  0
 18 23  1  0  0  0  0
 19 20  1  0  0  0  0
 20 21  2  0  0  0  0
 21 22  1  0  0  0  0
 21 27  1  0  0  0  0
 22 23  2  0  0  0  0
 22 25  1  0  0  0  0
 23 24  1  0  0  0  0
 25 26  2  0  0  0  0
 26 27  1  0  0  0  0
M  END
>  <CHROM.1>
169.61538110,-65.40800357,-174.96989555,179.60770088,-86.54117213,154.10256153
167.92204548,32.11731378,20.31655932,77.47167520,0.10629485,0.01220328,-1.86911354

>  <Name>
ligand

>  <RI>
0

>  <Rbt.Current_Directory>
/home/itssahil/PROJECTS/Mol_Feturizer/New_Systems/rnas/2QWY

>  <Rbt.Executable>
rbdock ($Id: //depot/dev/client3/rdock/2013.1/src/exe/rbdock.cxx#4 $)

>  <Rbt.Library>
libRbt.so (2013.1, Build901 2013/11/27)

>  <Rbt.Parameter_File>
/export/apps/rDock/src/rDock_2013.1_src/data/scripts/dock_solv.prm

>  <Rbt.Receptor>
prm/pocket_docking_4.prm

>  <SCORE>
-27.9118

>  <SCORE.INTER>
-24.8564

>  <SCORE.INTER.CONST>
1

>  <SCORE.INTER.POLAR>
0

>  <SCORE.INTER.ROT>
7

>  <SCORE.INTER.SOLV>
10.2182

>  <SCORE.INTER.VDW>
-28.2437

>  <SCORE.INTER.norm>
-0.920607

>  <SCORE.INTRA>
-3.05541

>  <SCORE.INTRA.DIHEDRAL>
-4.41429

>  <SCORE.INTRA.DIHEDRAL.0>
10.7382

>  <SCORE.INTRA.POLAR>
0

>  <SCORE.INTRA.POLAR.0>
0

>  <SCORE.INTRA.REPUL>
0

>  <SCORE.INTRA.REPUL.0>
0

>  <SCORE.INTRA.SOLV>
-0.332414

>  <SCORE.INTRA.SOLV.lig_0>
-49.2501

>  <SCORE.INTRA.VDW>
-0.682054

>  <SCORE.INTRA.VDW.0>
-1.75368

>  <SCORE.INTRA.norm>
-0.113163

>  <SCORE.RESTR>
0

>  <SCORE.RESTR.CAVITY>
0

>  <SCORE.RESTR.norm>
0

>  <SCORE.SYSTEM>
0

>  <SCORE.SYSTEM.CONST>
0

>  <SCORE.SYSTEM.DIHEDRAL>
0

>  <SCORE.SYSTEM.SOLV>
0

>  <SCORE.SYSTEM.norm>
0

>  <SCORE.heavy>
27

>  <SCORE.norm>
-1.03377

>  <RMSD>
3.003

$$$$
ligand
 OpenBabel11021811463D
libRbt.so/2013.1/901 2013/11/27
 27 29  0  0  0  0  0  0  0  0999 V2000
   37.3555   20.5355   72.7368 N   0  0  0  0  0  0  0  0  0  0  0  0
   37.0808   20.3410   74.1712 C   0  0  2  0  0  0  0  0  0  0  0  0
   36.0202   19.2763   74.3589 C   0  0  0  0  0  0  0  0  0  0  0  0
   36.2051   18.3516   75.1568 O   0  0  0  0  0  0  0  0  0  0  0  0
   36.5763   21.6520   74.7655 C   0  0  0  0  0  0  0  0  0  0  0  0
   36.5527   21.5745   76.2771 C   0  0  0  0  0  0  0  0  0  0  0  0
   35.3801   22.8047   76.8745 S   0  0  2  0  0  0  0  0  0  0  0  0
   36.4748   24.2515   76.8662 C   0  0  0  0  0  0  0  0  0  0  0  0
   35.3585   22.4131   78.6572 C   0  0  0  0  0  0  0  0  0  0  0  0
   34.3312   21.3119   78.9054 C   0  0  1  0  0  0  0  0  0  0  0  0
   33.0621   21.9182   78.9828 O   0  0  0  0  0  0  0  0  0  0  0  0
   34.2622   20.3314   77.7297 C   0  0  1  0  0  0  0  0  0  0  0  0
   35.1167   19.1776   77.6985 O   0  0  0  0  0  0  0  0  0  0  0  0
   32.7322   20.0321   77.5964 C   0  0  1  0  0  0  0  0  0  0  0  0
   32.5584   18.6085   77.4923 O   0  0  0  0  0  0  0  0  0  0  0  0
   32.1013   20.9027   78.7405 C   0  0  2  0  0  0  0  0  0  0  0  0
   34.9534   19.3740   73.7716 O   0  0  0  0  0  0  0  0  0  0  0  0
   27.2126   20.2611   77.0693 N   0  0  0  0  0  0  0  0  0  0  0  0
   28.1468   19.3297   77.2922 C   0  0  0  0  0  0  0  0  0  0  0  0
   29.3689   19.6539   77.7049 N   0  0  0  0  0  0  0  0  0  0  0  0
   29.7104   20.9341   77.9382 C   0  0  0  0  0  0  0  0  0  0  0  0
   28.7505   21.9608   77.7317 C   0  0  0  0  0  0  0  0  0  0  0  0
   27.4566   21.5690   77.2769 C   0  0  0  0  0  0  0  0  0  0  0  0
   26.4649   22.5075   77.0607 N   0  0  0  0  0  0  0  0  0  0  0  0
   29.3458   23.1352   78.0433 N   0  0  0  0  0  0  0  0  0  0  0  0
   30.5707   22.9070   78.4195 C   0  0  0  0  0  0  0  0  0  0  0  0
   30.8441   21.5620   78.3710 N   0  0  0  0  0  0  0  0  0  0  0  0
  2  1  1  6  0  0  0
  2  3  1  0  0  0  0
  2  5  1  0  0  0  0
  3  4  1  0  0  0  0
  3 17  1  0  0  0  0
  5  6  1  0  0  0  0
  7  6  1  6  0  0  0
  7  8  1  0  0  0  0
  7  9  1  0  0  0  0
 10  9  1  6  0  0  0
 10 11  1  0  0  0  0
 10 12  1  0  0  0  0
 11 16  1  0  0  0  0
 12 13  1  1  0  0  0
 12 14  1  0  0  0  0
 14 15  1  1  0  0  0
 14 16  1  0  0  0  0
 16 27  1  6  0  0  0
 18 19  2  0  0  0  0
 18 23  1  0  0  0  0
 19 20  1  0  0  0  0
 20 21  2  0  0  0  0
 21 22  1  0  0  0  0
 21 27  1  0  0  0  0
 22 23  2  0  0  0  0
 22 25  1  0  0  0  0
 23 24  1  0  0  0  0
 25 26  2  0  0  0  0
 26 27  1  0  0  0  0
M  END
>  <CHROM.1>
130.46557092,-168.46606433,-157.57413804,-83.84543549,-86.29412465,-81.96528043
173.42577029,32.97821256,21.04730146,76.92642888,0.21838368,-0.20120217,-2.49160630

>  <Name>
ligand

>  <RI>
0

>  <Rbt.Current_Directory>
/home/itssahil/PROJECTS/Mol_Feturizer/New_Systems/rnas/2QWY

>  <Rbt.Executable>
rbdock ($Id: //depot/dev/client3/rdock/2013.1/src/exe/rbdock.cxx#4 $)

>  <Rbt.Library>
libRbt.so (2013.1, Build901 2013/11/27)

>  <Rbt.Parameter_File>
/export/apps/rDock/src/rDock_2013.1_src/data/scripts/dock_solv.prm

>  <Rbt.Receptor>
prm/pocket_docking_4.prm

>  <SCORE>
-23.9556

>  <SCORE.INTER>
-23.0107

>  <SCORE.INTER.CONST>
1

>  <SCORE.INTER.POLAR>
0

>  <SCORE.INTER.ROT>
7

>  <SCORE.INTER.SOLV>
12.085

>  <SCORE.INTER.VDW>
-27.6355

>  <SCORE.INTER.norm>
-0.852249

>  <SCORE.INTRA>
-0.944842

>  <SCORE.INTRA.DIHEDRAL>
-2.47039

>  <SCORE.INTRA.DIHEDRAL.0>
10.7382

>  <SCORE.INTRA.POLAR>
0

>  <SCORE.INTRA.POLAR.0>
0

>  <SCORE.INTRA.REPUL>
0

>  <SCORE.INTRA.REPUL.0>
0

>  <SCORE.INTRA.SOLV>
-0.434644

>  <SCORE.INTRA.SOLV.lig_0>
-49.2501

>  <SCORE.INTRA.VDW>
0.507678

>  <SCORE.INTRA.VDW.0>
-1.75368

>  <SCORE.INTRA.norm>
-0.0349941

>  <SCORE.RESTR>
0

>  <SCORE.RESTR.CAVITY>
0

>  <SCORE.RESTR.norm>
0

>  <SCORE.SYSTEM>
0

>  <SCORE.SYSTEM.CONST>
0

>  <SCORE.SYSTEM.DIHEDRAL>
0

>  <SCORE.SYSTEM.SOLV>
0

>  <SCORE.SYSTEM.norm>
0

>  <SCORE.heavy>
27

>  <SCORE.norm>
-0.887243

>  <RMSD>
3.018

$$$$
ligand
 OpenBabel11021811463D
libRbt.so/2013.1/901 2013/11/27
 27 29  0  0  0  0  0  0  0  0999 V2000
   37.3811   20.3493   72.3604 N   0  0  0  0  0  0  0  0  0  0  0  0
   36.5930   20.6672   73.5640 C   0  0  2  0  0  0  0  0  0  0  0  0
   37.4756   21.3203   74.6072 C   0  0  0  0  0  0  0  0  0  0  0  0
   37.0814   22.3219   75.2131 O   0  0  0  0  0  0  0  0  0  0  0  0
   36.0181   19.3771   74.1399 C   0  0  0  0  0  0  0  0  0  0  0  0
   35.0655   19.6820   75.2761 C   0  0  0  0  0  0  0  0  0  0  0  0
   36.0426   19.8862   76.7757 S   0  0  2  0  0  0  0  0  0  0  0  0
   36.7566   18.2208   76.8649 C   0  0  0  0  0  0  0  0  0  0  0  0
   34.7397   19.7591   78.0477 C   0  0  0  0  0  0  0  0  0  0  0  0
   34.0656   21.1202   78.1976 C   0  0  1  0  0  0  0  0  0  0  0  0
   32.7702   21.0201   77.6533 O   0  0  0  0  0  0  0  0  0  0  0  0
   33.8789   21.4965   79.6713 C   0  0  1  0  0  0  0  0  0  0  0  0
   34.9084   22.2120   80.3716 O   0  0  0  0  0  0  0  0  0  0  0  0
   32.4649   22.1658   79.6984 C   0  0  1  0  0  0  0  0  0  0  0  0
   32.5626   23.3970   80.4348 O   0  0  0  0  0  0  0  0  0  0  0  0
   32.0073   22.0847   78.1988 C   0  0  2  0  0  0  0  0  0  0  0  0
   38.5481   20.8120   74.8971 O   0  0  0  0  0  0  0  0  0  0  0  0
   28.5122   18.2835   77.5361 N   0  0  0  0  0  0  0  0  0  0  0  0
   29.8409   18.1832   77.6553 C   0  0  0  0  0  0  0  0  0  0  0  0
   30.6100   19.2582   77.8025 N   0  0  0  0  0  0  0  0  0  0  0  0
   30.0799   20.4934   77.8610 C   0  0  0  0  0  0  0  0  0  0  0  0
   28.6724   20.6540   77.7549 C   0  0  0  0  0  0  0  0  0  0  0  0
   27.8872   19.4752   77.5856 C   0  0  0  0  0  0  0  0  0  0  0  0
   26.5106   19.5469   77.4833 N   0  0  0  0  0  0  0  0  0  0  0  0
   28.4113   21.9781   77.8510 N   0  0  0  0  0  0  0  0  0  0  0  0
   29.5303   22.6242   78.0074 C   0  0  0  0  0  0  0  0  0  0  0  0
   30.5901   21.7509   78.0195 N   0  0  0  0  0  0  0  0  0  0  0  0
  2  1  1  6  0  0  0
  2  3  1  0  0  0  0
  2  5  1  0  0  0  0
  3  4  1  0  0  0  0
  3 17  1  0  0  0  0
  5  6  1  0  0  0  0
  7  6  1  6  0  0  0
  7  8  1  0  0  0  0
  7  9  1  0  0  0  0
 10  9  1  1  0  0  0
 10 11  1  0  0  0  0
 10 12  1  0  0  0  0
 11 16  1  0  0  0  0
 12 13  1  6  0  0  0
 12 14  1  0  0  0  0
 14 15  1  6  0  0  0
 14 16  1  0  0  0  0
 16 27  1  1  0  0  0
 18 19  2  0  0  0  0
 18 23  1  0  0  0  0
 19 20  1  0  0  0  0
 20 21  2  0  0  0  0
 21 22  1  0  0  0  0
 21 27  1  0  0  0  0
 22 23  2  0  0  0  0
 22 25  1  0  0  0  0
 23 24  1  0  0  0  0
 25 26  2  0  0  0  0
 26 27  1  0  0  0  0
M  END
>  <CHROM.1>
134.94391361,-173.07055135,-83.99361954,-62.00657539,-82.82488935,109.03310244
23.27223703,33.19889978,20.65757197,77.15131930,0.30402248,-0.20497022,-2.16669530

>  <Name>
ligand

>  <RI>
0

>  <Rbt.Current_Directory>
/home/itssahil/PROJECTS/Mol_Feturizer/New_Systems/rnas/2QWY

>  <Rbt.Executable>
rbdock ($Id: //depot/dev/client3/rdock/2013.1/src/exe/rbdock.cxx#4 $)

>  <Rbt.Library>
libRbt.so (2013.1, Build901 2013/11/27)

>  <Rbt.Parameter_File>
/export/apps/rDock/src/rDock_2013.1_src/data/scripts/dock_solv.prm

>  <Rbt.Receptor>
prm/pocket_docking_5.prm

>  <SCORE>
-24.5135

>  <SCORE.INTER>
-23.9046

>  <SCORE.INTER.CONST>
1

>  <SCORE.INTER.POLAR>
0

>  <SCORE.INTER.ROT>
7

>  <SCORE.INTER.SOLV>
12.8232

>  <SCORE.INTER.VDW>
-28.4775

>  <SCORE.INTER.norm>
-0.885357

>  <SCORE.INTRA>
-0.608867

>  <SCORE.INTRA.DIHEDRAL>
-0.135459

>  <SCORE.INTRA.DIHEDRAL.0>
10.7382

>  <SCORE.INTRA.POLAR>
0

>  <SCORE.INTRA.POLAR.0>
0

>  <SCORE.INTRA.REPUL>
0

>  <SCORE.INTRA.REPUL.0>
0

>  <SCORE.INTRA.SOLV>
-1.09785

>  <SCORE.INTRA.SOLV.lig_0>
-49.2501

>  <SCORE.INTRA.VDW>
0.00778601

>  <SCORE.INTRA.VDW.0>
-1.75368

>  <SCORE.INTRA.norm>
-0.0225506

>  <SCORE.RESTR>
0

>  <SCORE.RESTR.CAVITY>
0

>  <SCORE.RESTR.norm>
0

>  <SCORE.SYSTEM>
0

>  <SCORE.SYSTEM.CONST>
0

>  <SCORE.SYSTEM.DIHEDRAL>
0

>  <SCORE.SYSTEM.SOLV>
0

>  <SCORE.SYSTEM.norm>
0

>  <SCORE.heavy>
27

>  <SCORE.norm>
-0.907908

>  <RMSD>
3.018

$$$$
ligand
 OpenBabel11021811463D
libRbt.so/2013.1/901 2013/11/27
 27 29  0  0  0  0  0  0  0  0999 V2000
   37.5532   15.0336   76.0606 N   0  0  0  0  0  0  0  0  0  0  0  0
   37.8803   16.4537   75.8435 C   0  0  2  0  0  0  0  0  0  0  0  0
   38.8266   16.9411   76.9210 C   0  0  0  0  0  0  0  0  0  0  0  0
   39.6948   17.7772   76.6511 O   0  0  0  0  0  0  0  0  0  0  0  0
   36.5974   17.2766   75.9027 C   0  0  0  0  0  0  0  0  0  0  0  0
   36.8639   18.7053   75.4797 C   0  0  0  0  0  0  0  0  0  0  0  0
   35.3001   19.5980   75.5343 S   0  0  2  0  0  0  0  0  0  0  0  0
   35.8931   21.2210   74.9814 C   0  0  0  0  0  0  0  0  0  0  0  0
   35.1426   19.8940   77.3286 C   0  0  0  0  0  0  0  0  0  0  0  0
   34.0268   20.9087   77.5625 C   0  0  1  0  0  0  0  0  0  0  0  0
   32.8105   20.3025   77.1921 O   0  0  0  0  0  0  0  0  0  0  0  0
   33.8900   21.2623   79.0473 C   0  0  1  0  0  0  0  0  0  0  0  0
   34.6482   22.3465   79.6059 O   0  0  0  0  0  0  0  0  0  0  0  0
   32.3421   21.3530   79.2574 C   0  0  1  0  0  0  0  0  0  0  0  0
   32.0543   22.5668   79.9725 O   0  0  0  0  0  0  0  0  0  0  0  0
   31.7728   21.0296   77.8305 C   0  0  2  0  0  0  0  0  0  0  0  0
   38.6827   16.5576   78.0720 O   0  0  0  0  0  0  0  0  0  0  0  0
   26.6011   20.8403   77.2634 N   0  0  0  0  0  0  0  0  0  0  0  0
   27.4094   21.9039   77.1924 C   0  0  0  0  0  0  0  0  0  0  0  0
   28.7217   21.7951   77.3798 N   0  0  0  0  0  0  0  0  0  0  0  0
   29.2953   20.6034   77.6265 C   0  0  0  0  0  0  0  0  0  0  0  0
   28.4834   19.4397   77.6970 C   0  0  0  0  0  0  0  0  0  0  0  0
   27.0801   19.6046   77.5021 C   0  0  0  0  0  0  0  0  0  0  0  0
   26.2241   18.5201   77.5467 N   0  0  0  0  0  0  0  0  0  0  0  0
   29.3036   18.3928   77.9456 N   0  0  0  0  0  0  0  0  0  0  0  0
   30.5301   18.8206   78.0277 C   0  0  0  0  0  0  0  0  0  0  0  0
   30.5770   20.1800   77.8383 N   0  0  0  0  0  0  0  0  0  0  0  0
  2  1  1  1  0  0  0
  2  3  1  0  0  0  0
  2  5  1  0  0  0  0
  3  4  1  0  0  0  0
  3 17  1  0  0  0  0
  5  6  1  0  0  0  0
  7  6  1  1  0  0  0
  7  8  1  0  0  0  0
  7  9  1  0  0  0  0
 10  9  1  1  0  0  0
 10 11  1  0  0  0  0
 10 12  1  0  0  0  0
 11 16  1  0  0  0  0
 12 13  1  6  0  0  0
 12 14  1  0  0  0  0
 14 15  1  6  0  0  0
 14 16  1  0  0  0  0
 16 27  1  1  0  0  0
 18 19  2  0  0  0  0
 18 23  1  0  0  0  0
 19 20  1  0  0  0  0
 20 21  2  0  0  0  0
 21 22  1  0  0  0  0
 21 27  1  0  0  0  0
 22 23  2  0  0  0  0
 22 25  1  0  0  0  0
 23 24  1  0  0  0  0
 25 26  2  0  0  0  0
 26 27  1  0  0  0  0
M  END
>  <CHROM.1>
145.33210601,-171.51709029,178.54381185,-179.42112045,167.71054388,67.03996008
-140.71379289,33.15130558,19.61038286,77.30150861,0.31650111,-0.01477406
-2.73973033

>  <Name>
ligand

>  <RI>
0

>  <Rbt.Current_Directory>
/home/itssahil/PROJECTS/Mol_Feturizer/New_Systems/rnas/2QWY

>  <Rbt.Executable>
rbdock ($Id: //depot/dev/client3/rdock/2013.1/src/exe/rbdock.cxx#4 $)

>  <Rbt.Library>
libRbt.so (2013.1, Build901 2013/11/27)

>  <Rbt.Parameter_File>
/export/apps/rDock/src/rDock_2013.1_src/data/scripts/dock_solv.prm

>  <Rbt.Receptor>
prm/pocket_docking_5.prm

>  <SCORE>
-26.962

>  <SCORE.INTER>
-22.6346

>  <SCORE.INTER.CONST>
1

>  <SCORE.INTER.POLAR>
0

>  <SCORE.INTER.ROT>
7

>  <SCORE.INTER.SOLV>
17.678

>  <SCORE.INTER.VDW>
-29.2491

>  <SCORE.INTER.norm>
-0.838317

>  <SCORE.INTRA>
-4.33417

>  <SCORE.INTRA.DIHEDRAL>
-6.86614

>  <SCORE.INTRA.DIHEDRAL.0>
10.7382

>  <SCORE.INTRA.POLAR>
0

>  <SCORE.INTRA.POLAR.0>
0

>  <SCORE.INTRA.REPUL>
0

>  <SCORE.INTRA.REPUL.0>
0

>  <SCORE.INTRA.SOLV>
-1.25976

>  <SCORE.INTRA.SOLV.lig_0>
-49.2501

>  <SCORE.INTRA.VDW>
-0.271215

>  <SCORE.INTRA.VDW.0>
-1.75368

>  <SCORE.INTRA.norm>
-0.160525

>  <SCORE.RESTR>
0.00675275

>  <SCORE.RESTR.CAVITY>
0.00675275

>  <SCORE.RESTR.norm>
0.000250102

>  <SCORE.SYSTEM>
0

>  <SCORE.SYSTEM.CONST>
0

>  <SCORE.SYSTEM.DIHEDRAL>
0

>  <SCORE.SYSTEM.SOLV>
0

>  <SCORE.SYSTEM.norm>
0

>  <SCORE.heavy>
27

>  <SCORE.norm>
-0.998592

>  <RMSD>
3.018

$$$$
ligand
 OpenBabel11021811463D
libRbt.so/2013.1/901 2013/11/27
 27 29  0  0  0  0  0  0  0  0999 V2000
   37.5015   19.5439   75.4720 N   0  0  0  0  0  0  0  0  0  0  0  0
   36.3698   20.3846   75.0439 C   0  0  2  0  0  0  0  0  0  0  0  0
   35.5441   19.6565   74.0037 C   0  0  0  0  0  0  0  0  0  0  0  0
   34.3106   19.6824   74.0628 O   0  0  0  0  0  0  0  0  0  0  0  0
   36.9084   21.6745   74.4338 C   0  0  0  0  0  0  0  0  0  0  0  0
   37.3396   22.6356   75.5209 C   0  0  0  0  0  0  0  0  0  0  0  0
   35.8548   23.2494   76.3357 S   0  0  2  0  0  0  0  0  0  0  0  0
   36.6084   24.5836   77.3070 C   0  0  0  0  0  0  0  0  0  0  0  0
   35.6304   21.9811   77.6290 C   0  0  0  0  0  0  0  0  0  0  0  0
   34.6811   22.5270   78.6923 C   0  0  1  0  0  0  0  0  0  0  0  0
   33.3986   22.6178   78.1169 O   0  0  0  0  0  0  0  0  0  0  0  0
   34.5480   21.5630   79.8761 C   0  0  1  0  0  0  0  0  0  0  0  0
   35.4471   21.6584   80.9917 O   0  0  0  0  0  0  0  0  0  0  0  0
   33.0273   21.6391   80.2365 C   0  0  1  0  0  0  0  0  0  0  0  0
   32.9090   21.8145   81.6587 O   0  0  0  0  0  0  0  0  0  0  0  0
   32.4663   22.6617   79.1856 C   0  0  2  0  0  0  0  0  0  0  0  0
   36.1007   19.1036   73.0672 O   0  0  0  0  0  0  0  0  0  0  0  0
   29.3355   18.8048   77.6276 N   0  0  0  0  0  0  0  0  0  0  0  0
   30.5883   18.7266   78.0905 C   0  0  0  0  0  0  0  0  0  0  0  0
   31.2726   19.8139   78.4349 N   0  0  0  0  0  0  0  0  0  0  0  0
   30.7235   21.0394   78.3535 C   0  0  0  0  0  0  0  0  0  0  0  0
   29.3902   21.1765   77.8826 C   0  0  0  0  0  0  0  0  0  0  0  0
   28.6981   19.9854   77.5126 C   0  0  0  0  0  0  0  0  0  0  0  0
   27.3952   20.0341   77.0534 N   0  0  0  0  0  0  0  0  0  0  0  0
   29.0894   22.4954   77.9081 N   0  0  0  0  0  0  0  0  0  0  0  0
   30.1166   23.1597   78.3526 C   0  0  0  0  0  0  0  0  0  0  0  0
   31.1518   22.3046   78.6411 N   0  0  0  0  0  0  0  0  0  0  0  0
  2  1  1  6  0  0  0
  2  3  1  0  0  0  0
  2  5  1  0  0  0  0
  3  4  1  0  0  0  0
  3 17  1  0  0  0  0
  5  6  1  0  0  0  0
  7  6  1  6  0  0  0
  7  8  1  0  0  0  0
  7  9  1  0  0  0  0
 10  9  1  6  0  0  0
 10 11  1  0  0  0  0
 10 12  1  0  0  0  0
 11 16  1  0  0  0  0
 12 13  1  1  0  0  0
 12 14  1  0  0  0  0
 14 15  1  1  0  0  0
 14 16  1  0  0  0  0
 16 27  1  6  0  0  0
 18 19  2  0  0  0  0
 18 23  1  0  0  0  0
 19 20  1  0  0  0  0
 20 21  2  0  0  0  0
 21 22  1  0  0  0  0
 21 27  1  0  0  0  0
 22 23  2  0  0  0  0
 22 25  1  0  0  0  0
 23 24  1  0  0  0  0
 25 26  2  0  0  0  0
 26 27  1  0  0  0  0
M  END
>  <CHROM.1>
136.84238829,-78.27303772,-70.94384287,-168.95298327,163.03500248,69.19461293
78.25379915,33.42340686,21.38469097,77.40131570,0.31592868,-0.29352949,-2.10429389

>  <Name>
ligand

>  <RI>
0

>  <Rbt.Current_Directory>
/home/itssahil/PROJECTS/Mol_Feturizer/New_Systems/rnas/2QWY

>  <Rbt.Executable>
rbdock ($Id: //depot/dev/client3/rdock/2013.1/src/exe/rbdock.cxx#4 $)

>  <Rbt.Library>
libRbt.so (2013.1, Build901 2013/11/27)

>  <Rbt.Parameter_File>
/export/apps/rDock/src/rDock_2013.1_src/data/scripts/dock_solv.prm

>  <Rbt.Receptor>
prm/pocket_docking_7.prm

>  <SCORE>
-27.0138

>  <SCORE.INTER>
-24.4568

>  <SCORE.INTER.CONST>
1

>  <SCORE.INTER.POLAR>
0

>  <SCORE.INTER.ROT>
7

>  <SCORE.INTER.SOLV>
12.2087

>  <SCORE.INTER.VDW>
-28.6408

>  <SCORE.INTER.norm>
-0.905809

>  <SCORE.INTRA>
-2.5569

>  <SCORE.INTRA.DIHEDRAL>
-4.37599

>  <SCORE.INTRA.DIHEDRAL.0>
10.7382

>  <SCORE.INTRA.POLAR>
0

>  <SCORE.INTRA.POLAR.0>
0

>  <SCORE.INTRA.REPUL>
0

>  <SCORE.INTRA.REPUL.0>
0

>  <SCORE.INTRA.SOLV>
0.436576

>  <SCORE.INTRA.SOLV.lig_0>
-49.2501

>  <SCORE.INTRA.VDW>
-0.587199

>  <SCORE.INTRA.VDW.0>
-1.75368

>  <SCORE.INTRA.norm>
-0.0947002

>  <SCORE.RESTR>
0

>  <SCORE.RESTR.CAVITY>
0

>  <SCORE.RESTR.norm>
0

>  <SCORE.SYSTEM>
0

>  <SCORE.SYSTEM.CONST>
0

>  <SCORE.SYSTEM.DIHEDRAL>
0

>  <SCORE.SYSTEM.SOLV>
0

>  <SCORE.SYSTEM.norm>
0

>  <SCORE.heavy>
27

>  <SCORE.norm>
-1.00051

>  <RMSD>
3.036

$$$$
ligand
 OpenBabel11021811463D
libRbt.so/2013.1/901 2013/11/27
 27 29  0  0  0  0  0  0  0  0999 V2000
   39.4779   16.1157   76.0217 N   0  0  0  0  0  0  0  0  0  0  0  0
   38.0124   16.2644   75.9946 C   0  0  2  0  0  0  0  0  0  0  0  0
   37.4928   16.0495   74.5882 C   0  0  0  0  0  0  0  0  0  0  0  0
   37.7715   16.8558   73.6949 O   0  0  0  0  0  0  0  0  0  0  0  0
   37.6447   17.6735   76.4478 C   0  0  0  0  0  0  0  0  0  0  0  0
   36.1413   17.8274   76.5340 C   0  0  0  0  0  0  0  0  0  0  0  0
   35.7914   19.4626   77.2041 S   0  0  2  0  0  0  0  0  0  0  0  0
   36.2142   19.1425   78.9392 C   0  0  0  0  0  0  0  0  0  0  0  0
   33.9689   19.4096   77.2898 C   0  0  0  0  0  0  0  0  0  0  0  0
   33.4554   20.7931   77.6791 C   0  0  1  0  0  0  0  0  0  0  0  0
   32.1206   20.8948   77.2406 O   0  0  0  0  0  0  0  0  0  0  0  0
   33.4171   20.9715   79.2006 C   0  0  1  0  0  0  0  0  0  0  0  0
   34.5647   21.4792   79.8988 O   0  0  0  0  0  0  0  0  0  0  0  0
   32.0876   21.7611   79.4398 C   0  0  1  0  0  0  0  0  0  0  0  0
   32.3684   22.8599   80.3238 O   0  0  0  0  0  0  0  0  0  0  0  0
   31.5163   21.9383   77.9883 C   0  0  2  0  0  0  0  0  0  0  0  0
   36.8569   15.0400   74.3252 O   0  0  0  0  0  0  0  0  0  0  0  0
   27.5787   18.5643   77.5239 N   0  0  0  0  0  0  0  0  0  0  0  0
   28.8919   18.3125   77.5680 C   0  0  0  0  0  0  0  0  0  0  0  0
   29.7857   19.2919   77.6715 N   0  0  0  0  0  0  0  0  0  0  0  0
   29.4041   20.5791   77.7598 C   0  0  0  0  0  0  0  0  0  0  0  0
   28.0203   20.8997   77.7332 C   0  0  0  0  0  0  0  0  0  0  0  0
   27.0976   19.8191   77.6085 C   0  0  0  0  0  0  0  0  0  0  0  0
   25.7345   20.0478   77.5840 N   0  0  0  0  0  0  0  0  0  0  0  0
   27.9179   22.2442   77.8439 N   0  0  0  0  0  0  0  0  0  0  0  0
   29.1102   22.7576   77.9369 C   0  0  0  0  0  0  0  0  0  0  0  0
   30.0625   21.7692   77.8892 N   0  0  0  0  0  0  0  0  0  0  0  0
  2  1  1  6  0  0  0
  2  3  1  0  0  0  0
  2  5  1  0  0  0  0
  3  4  1  0  0  0  0
  3 17  1  0  0  0  0
  5  6  1  0  0  0  0
  7  6  1  6  0  0  0
  7  8  1  0  0  0  0
  7  9  1  0  0  0  0
 10  9  1  1  0  0  0
 10 11  1  0  0  0  0
 10 12  1  0  0  0  0
 11 16  1  0  0  0  0
 12 13  1  6  0  0  0
 12 14  1  0  0  0  0
 14 15  1  6  0  0  0
 14 16  1  0  0  0  0
 16 27  1  1  0  0  0
 18 19  2  0  0  0  0
 18 23  1  0  0  0  0
 19 20  1  0  0  0  0
 20 21  2  0  0  0  0
 21 22  1  0  0  0  0
 21 27  1  0  0  0  0
 22 23  2  0  0  0  0
 22 25  1  0  0  0  0
 23 24  1  0  0  0  0
 25 26  2  0  0  0  0
 26 27  1  0  0  0  0
M  END
>  <CHROM.1>
-66.97214246,-175.65052090,175.34161442,-75.16094144,-172.97727210,157.20775136
31.21972142,32.96065915,19.56070631,77.38960319,0.46653197,0.06555684,-2.48702396

>  <Name>
ligand

>  <RI>
0

>  <Rbt.Current_Directory>
/home/itssahil/PROJECTS/Mol_Feturizer/New_Systems/rnas/2QWY

>  <Rbt.Executable>
rbdock ($Id: //depot/dev/client3/rdock/2013.1/src/exe/rbdock.cxx#4 $)

>  <Rbt.Library>
libRbt.so (2013.1, Build901 2013/11/27)

>  <Rbt.Parameter_File>
/export/apps/rDock/src/rDock_2013.1_src/data/scripts/dock_solv.prm

>  <Rbt.Receptor>
prm/pocket_docking_5.prm

>  <SCORE>
-26.9082

>  <SCORE.INTER>
-24.0263

>  <SCORE.INTER.CONST>
1

>  <SCORE.INTER.POLAR>
0

>  <SCORE.INTER.ROT>
7

>  <SCORE.INTER.SOLV>
10.9334

>  <SCORE.INTER.VDW>
-27.9286

>  <SCORE.INTER.norm>
-0.889862

>  <SCORE.INTRA>
-2.8819

>  <SCORE.INTRA.DIHEDRAL>
-4.99366

>  <SCORE.INTRA.DIHEDRAL.0>
10.7382

>  <SCORE.INTRA.POLAR>
0

>  <SCORE.INTRA.POLAR.0>
0

>  <SCORE.INTRA.REPUL>
0

>  <SCORE.INTRA.REPUL.0>
0

>  <SCORE.INTRA.SOLV>
-0.911231

>  <SCORE.INTRA.SOLV.lig_0>
-49.2501

>  <SCORE.INTRA.VDW>
0.0705453

>  <SCORE.INTRA.VDW.0>
-1.75368

>  <SCORE.INTRA.norm>
-0.106737

>  <SCORE.RESTR>
0

>  <SCORE.RESTR.CAVITY>
0

>  <SCORE.RESTR.norm>
0

>  <SCORE.SYSTEM>
0

>  <SCORE.SYSTEM.CONST>
0

>  <SCORE.SYSTEM.DIHEDRAL>
0

>  <SCORE.SYSTEM.SOLV>
0

>  <SCORE.SYSTEM.norm>
0

>  <SCORE.heavy>
27

>  <SCORE.norm>
-0.996599

>  <RMSD>
3.091

$$$$
ligand
 OpenBabel11021811463D
libRbt.so/2013.1/901 2013/11/27
 27 29  0  0  0  0  0  0  0  0999 V2000
   38.7791   18.2924   74.3069 N   0  0  0  0  0  0  0  0  0  0  0  0
   38.2353   17.8055   75.5867 C   0  0  2  0  0  0  0  0  0  0  0  0
   37.2179   16.7114   75.3379 C   0  0  0  0  0  0  0  0  0  0  0  0
   36.4046   16.8200   74.4146 O   0  0  0  0  0  0  0  0  0  0  0  0
   37.5520   18.9609   76.3110 C   0  0  0  0  0  0  0  0  0  0  0  0
   37.2482   18.5823   77.7448 C   0  0  0  0  0  0  0  0  0  0  0  0
   36.5108   20.0154   78.5496 S   0  0  2  0  0  0  0  0  0  0  0  0
   36.3579   19.3381   80.2258 C   0  0  0  0  0  0  0  0  0  0  0  0
   34.7843   19.8747   77.9743 C   0  0  0  0  0  0  0  0  0  0  0  0
   34.0698   21.1974   78.2380 C   0  0  1  0  0  0  0  0  0  0  0  0
   32.7836   21.1114   77.6701 O   0  0  0  0  0  0  0  0  0  0  0  0
   33.8570   21.4329   79.7372 C   0  0  1  0  0  0  0  0  0  0  0  0
   34.8581   22.1101   80.5127 O   0  0  0  0  0  0  0  0  0  0  0  0
   32.4240   22.0576   79.8063 C   0  0  1  0  0  0  0  0  0  0  0  0
   32.4786   23.2190   80.6524 O   0  0  0  0  0  0  0  0  0  0  0  0
   31.9847   22.1005   78.2997 C   0  0  2  0  0  0  0  0  0  0  0  0
   37.2505   15.6905   76.0082 O   0  0  0  0  0  0  0  0  0  0  0  0
   28.5683   18.2449   77.5470 N   0  0  0  0  0  0  0  0  0  0  0  0
   29.8931   18.1642   77.7150 C   0  0  0  0  0  0  0  0  0  0  0  0
   30.6416   19.2512   77.8798 N   0  0  0  0  0  0  0  0  0  0  0  0
   30.0928   20.4793   77.9075 C   0  0  0  0  0  0  0  0  0  0  0  0
   28.6880   20.6192   77.7490 C   0  0  0  0  0  0  0  0  0  0  0  0
   27.9257   19.4281   77.5626 C   0  0  0  0  0  0  0  0  0  0  0  0
   26.5528   19.4796   77.4099 N   0  0  0  0  0  0  0  0  0  0  0  0
   28.4056   21.9404   77.8232 N   0  0  0  0  0  0  0  0  0  0  0  0
   29.5091   22.6034   78.0139 C   0  0  0  0  0  0  0  0  0  0  0  0
   30.5797   21.7452   78.0725 N   0  0  0  0  0  0  0  0  0  0  0  0
  2  1  1  6  0  0  0
  2  3  1  0  0  0  0
  2  5  1  0  0  0  0
  3  4  1  0  0  0  0
  3 17  1  0  0  0  0
  5  6  1  0  0  0  0
  7  6  1  6  0  0  0
  7  8  1  0  0  0  0
  7  9  1  0  0  0  0
 10  9  1  1  0  0  0
 10 11  1  0  0  0  0
 10 12  1  0  0  0  0
 11 16  1  0  0  0  0
 12 13  1  6  0  0  0
 12 14  1  0  0  0  0
 14 15  1  6  0  0  0
 14 16  1  0  0  0  0
 16 27  1  1  0  0  0
 18 19  2  0  0  0  0
 18 23  1  0  0  0  0
 19 20  1  0  0  0  0
 20 21  2  0  0  0  0
 21 22  1  0  0  0  0
 21 27  1  0  0  0  0
 22 23  2  0  0  0  0
 22 25  1  0  0  0  0
 23 24  1  0  0  0  0
 25 26  2  0  0  0  0
 26 27  1  0  0  0  0
M  END
>  <CHROM.1>
-41.56761389,-167.73329357,177.59369796,-176.46887612,-164.96762745,174.34905858
29.22820773,33.37266429,19.89429663,77.79303470,0.37185805,0.05523855,-2.42523205

>  <Name>
ligand

>  <RI>
0

>  <Rbt.Current_Directory>
/home/itssahil/PROJECTS/Mol_Feturizer/New_Systems/rnas/2QWY

>  <Rbt.Executable>
rbdock ($Id: //depot/dev/client3/rdock/2013.1/src/exe/rbdock.cxx#4 $)

>  <Rbt.Library>
libRbt.so (2013.1, Build901 2013/11/27)

>  <Rbt.Parameter_File>
/export/apps/rDock/src/rDock_2013.1_src/data/scripts/dock_solv.prm

>  <Rbt.Receptor>
prm/pocket_docking_5.prm

>  <SCORE>
-27.1408

>  <SCORE.INTER>
-23.5778

>  <SCORE.INTER.CONST>
1

>  <SCORE.INTER.POLAR>
0

>  <SCORE.INTER.ROT>
7

>  <SCORE.INTER.SOLV>
10.3857

>  <SCORE.INTER.VDW>
-27.4471

>  <SCORE.INTER.norm>
-0.873251

>  <SCORE.INTRA>
-3.563

>  <SCORE.INTRA.DIHEDRAL>
-4.80162

>  <SCORE.INTRA.DIHEDRAL.0>
10.7382

>  <SCORE.INTRA.POLAR>
0

>  <SCORE.INTRA.POLAR.0>
0

>  <SCORE.INTRA.REPUL>
0

>  <SCORE.INTRA.REPUL.0>
0

>  <SCORE.INTRA.SOLV>
-0.853717

>  <SCORE.INTRA.SOLV.lig_0>
-49.2501

>  <SCORE.INTRA.VDW>
-0.735335

>  <SCORE.INTRA.VDW.0>
-1.75368

>  <SCORE.INTRA.norm>
-0.131963

>  <SCORE.RESTR>
0

>  <SCORE.RESTR.CAVITY>
0

>  <SCORE.RESTR.norm>
0

>  <SCORE.SYSTEM>
0

>  <SCORE.SYSTEM.CONST>
0

>  <SCORE.SYSTEM.DIHEDRAL>
0

>  <SCORE.SYSTEM.SOLV>
0

>  <SCORE.SYSTEM.norm>
0

>  <SCORE.heavy>
27

>  <SCORE.norm>
-1.00521

>  <RMSD>
3.094

$$$$
ligand
 OpenBabel11021811463D
libRbt.so/2013.1/901 2013/11/27
 27 29  0  0  0  0  0  0  0  0999 V2000
   36.0069   17.3071   74.2432 N   0  0  0  0  0  0  0  0  0  0  0  0
   36.4077   18.7233   74.1775 C   0  0  2  0  0  0  0  0  0  0  0  0
   37.9087   18.8479   74.3362 C   0  0  0  0  0  0  0  0  0  0  0  0
   38.4973   19.8427   73.9006 O   0  0  0  0  0  0  0  0  0  0  0  0
   35.7257   19.4885   75.3070 C   0  0  0  0  0  0  0  0  0  0  0  0
   36.0846   18.8854   76.6482 C   0  0  0  0  0  0  0  0  0  0  0  0
   35.5621   20.0388   77.9296 S   0  0  2  0  0  0  0  0  0  0  0  0
   35.9818   19.0390   79.3841 C   0  0  0  0  0  0  0  0  0  0  0  0
   33.7525   19.8063   77.8758 C   0  0  0  0  0  0  0  0  0  0  0  0
   33.0808   21.1767   77.8932 C   0  0  1  0  0  0  0  0  0  0  0  0
   31.7692   21.0183   77.4045 O   0  0  0  0  0  0  0  0  0  0  0  0
   32.9397   21.7161   79.3206 C   0  0  1  0  0  0  0  0  0  0  0  0
   33.9893   22.5040   79.9035 O   0  0  0  0  0  0  0  0  0  0  0  0
   31.5259   22.3866   79.3168 C   0  0  1  0  0  0  0  0  0  0  0  0
   31.6443   23.6924   79.9071 O   0  0  0  0  0  0  0  0  0  0  0  0
   31.0217   22.1386   77.8508 C   0  0  2  0  0  0  0  0  0  0  0  0
   38.5247   17.9956   74.9581 O   0  0  0  0  0  0  0  0  0  0  0  0
   27.5246   18.2905   77.5924 N   0  0  0  0  0  0  0  0  0  0  0  0
   28.8577   18.2026   77.6614 C   0  0  0  0  0  0  0  0  0  0  0  0
   29.6259   19.2875   77.7037 N   0  0  0  0  0  0  0  0  0  0  0  0
   29.0913   20.5221   77.7022 C   0  0  0  0  0  0  0  0  0  0  0  0
   27.6796   20.6708   77.6456 C   0  0  0  0  0  0  0  0  0  0  0  0
   26.8952   19.4809   77.5889 C   0  0  0  0  0  0  0  0  0  0  0  0
   25.5150   19.5412   77.5406 N   0  0  0  0  0  0  0  0  0  0  0  0
   27.4150   21.9976   77.6642 N   0  0  0  0  0  0  0  0  0  0  0  0
   28.5356   22.6562   77.7294 C   0  0  0  0  0  0  0  0  0  0  0  0
   29.6003   21.7890   77.7546 N   0  0  0  0  0  0  0  0  0  0  0  0
  2  1  1  1  0  0  0
  2  3  1  0  0  0  0
  2  5  1  0  0  0  0
  3  4  1  0  0  0  0
  3 17  1  0  0  0  0
  5  6  1  0  0  0  0
  7  6  1  6  0  0  0
  7  8  1  0  0  0  0
  7  9  1  0  0  0  0
 10  9  1  1  0  0  0
 10 11  1  0  0  0  0
 10 12  1  0  0  0  0
 11 16  1  0  0  0  0
 12 13  1  6  0  0  0
 12 14  1  0  0  0  0
 14 15  1  6  0  0  0
 14 16  1  0  0  0  0
 16 27  1  1  0  0  0
 18 19  2  0  0  0  0
 18 23  1  0  0  0  0
 19 20  1  0  0  0  0
 20 21  2  0  0  0  0
 21 22  1  0  0  0  0
 21 27  1  0  0  0  0
 22 23  2  0  0  0  0
 22 25  1  0  0  0  0
 23 24  1  0  0  0  0
 25 26  2  0  0  0  0
 26 27  1  0  0  0  0
M  END
>  <CHROM.1>
156.85737285,57.71451494,167.45246644,175.92533812,-134.40508513,160.41551419
20.57744657,32.56039868,20.26027723,77.32717468,0.31124656,-0.06383857,-2.38192972

>  <Name>
ligand

>  <RI>
0

>  <Rbt.Current_Directory>
/home/itssahil/PROJECTS/Mol_Feturizer/New_Systems/rnas/2QWY

>  <Rbt.Executable>
rbdock ($Id: //depot/dev/client3/rdock/2013.1/src/exe/rbdock.cxx#4 $)

>  <Rbt.Library>
libRbt.so (2013.1, Build901 2013/11/27)

>  <Rbt.Parameter_File>
/export/apps/rDock/src/rDock_2013.1_src/data/scripts/dock_solv.prm

>  <Rbt.Receptor>
prm/pocket_docking_3.prm

>  <SCORE>
-20.4062

>  <SCORE.INTER>
-19.8925

>  <SCORE.INTER.CONST>
1

>  <SCORE.INTER.POLAR>
0

>  <SCORE.INTER.ROT>
7

>  <SCORE.INTER.SOLV>
13.2291

>  <SCORE.INTER.VDW>
-25.938

>  <SCORE.INTER.norm>
-0.73676

>  <SCORE.INTRA>
-1.21239

>  <SCORE.INTRA.DIHEDRAL>
-1.66241

>  <SCORE.INTRA.DIHEDRAL.0>
10.7382

>  <SCORE.INTRA.POLAR>
0

>  <SCORE.INTRA.POLAR.0>
0

>  <SCORE.INTRA.REPUL>
0

>  <SCORE.INTRA.REPUL.0>
0

>  <SCORE.INTRA.SOLV>
-0.307234

>  <SCORE.INTRA.SOLV.lig_0>
-49.2501

>  <SCORE.INTRA.VDW>
-0.227562

>  <SCORE.INTRA.VDW.0>
-1.75368

>  <SCORE.INTRA.norm>
-0.0449032

>  <SCORE.RESTR>
0.698724

>  <SCORE.RESTR.CAVITY>
0.698724

>  <SCORE.RESTR.norm>
0.0258787

>  <SCORE.SYSTEM>
0

>  <SCORE.SYSTEM.CONST>
0

>  <SCORE.SYSTEM.DIHEDRAL>
0

>  <SCORE.SYSTEM.SOLV>
0

>  <SCORE.SYSTEM.norm>
0

>  <SCORE.heavy>
27

>  <SCORE.norm>
-0.755785

>  <RMSD>
3.113

$$$$
ligand
 OpenBabel11021811463D
libRbt.so/2013.1/901 2013/11/27
 27 29  0  0  0  0  0  0  0  0999 V2000
   38.7556   15.7014   77.2026 N   0  0  0  0  0  0  0  0  0  0  0  0
   38.2101   16.3827   76.0156 C   0  0  2  0  0  0  0  0  0  0  0  0
   39.3074   17.1450   75.3023 C   0  0  0  0  0  0  0  0  0  0  0  0
   39.2957   17.2404   74.0709 O   0  0  0  0  0  0  0  0  0  0  0  0
   37.1305   17.3659   76.4560 C   0  0  0  0  0  0  0  0  0  0  0  0
   36.5076   18.0427   75.2538 C   0  0  0  0  0  0  0  0  0  0  0  0
   35.1604   19.0836   75.8429 S   0  0  2  0  0  0  0  0  0  0  0  0
   34.7117   19.8659   74.2686 C   0  0  0  0  0  0  0  0  0  0  0  0
   36.0986   20.4359   76.6319 C   0  0  0  0  0  0  0  0  0  0  0  0
   35.3863   20.8414   77.9194 C   0  0  1  0  0  0  0  0  0  0  0  0
   34.0957   21.2876   77.5739 O   0  0  0  0  0  0  0  0  0  0  0  0
   35.1853   19.6427   78.8527 C   0  0  1  0  0  0  0  0  0  0  0  0
   36.1926   19.2994   79.8170 O   0  0  0  0  0  0  0  0  0  0  0  0
   33.7530   19.8751   79.4382 C   0  0  1  0  0  0  0  0  0  0  0  0
   33.8143   19.6982   80.8639 O   0  0  0  0  0  0  0  0  0  0  0  0
   33.3018   21.2107   78.7473 C   0  0  2  0  0  0  0  0  0  0  0  0
   40.1640   17.7241   75.9531 O   0  0  0  0  0  0  0  0  0  0  0  0
   29.1007   18.3605   77.5937 N   0  0  0  0  0  0  0  0  0  0  0  0
   30.3211   17.9417   77.9472 C   0  0  0  0  0  0  0  0  0  0  0  0
   31.3069   18.7995   78.1954 N   0  0  0  0  0  0  0  0  0  0  0  0
   31.1107   20.1285   78.1234 C   0  0  0  0  0  0  0  0  0  0  0  0
   29.8287   20.6260   77.7670 C   0  0  0  0  0  0  0  0  0  0  0  0
   28.8045   19.6705   77.4974 C   0  0  0  0  0  0  0  0  0  0  0  0
   27.5283   20.0747   77.1528 N   0  0  0  0  0  0  0  0  0  0  0  0
   29.9056   21.9768   77.7767 N   0  0  0  0  0  0  0  0  0  0  0  0
   31.1125   22.3339   78.1081 C   0  0  0  0  0  0  0  0  0  0  0  0
   31.8951   21.2277   78.3318 N   0  0  0  0  0  0  0  0  0  0  0  0
  2  1  1  1  0  0  0
  2  3  1  0  0  0  0
  2  5  1  0  0  0  0
  3  4  1  0  0  0  0
  3 17  1  0  0  0  0
  5  6  1  0  0  0  0
  7  6  1  6  0  0  0
  7  8  1  0  0  0  0
  7  9  1  0  0  0  0
 10  9  1  6  0  0  0
 10 11  1  0  0  0  0
 10 12  1  0  0  0  0
 11 16  1  0  0  0  0
 12 13  1  1  0  0  0
 12 14  1  0  0  0  0
 14 15  1  1  0  0  0
 14 16  1  0  0  0  0
 16 27  1  6  0  0  0
 18 19  2  0  0  0  0
 18 23  1  0  0  0  0
 19 20  1  0  0  0  0
 20 21  2  0  0  0  0
 21 22  1  0  0  0  0
 21 27  1  0  0  0  0
 22 23  2  0  0  0  0
 22 25  1  0  0  0  0
 23 24  1  0  0  0  0
 25 26  2  0  0  0  0
 26 27  1  0  0  0  0
M  END
>  <CHROM.1>
145.55985184,-177.64641944,175.54877600,175.08315973,-140.57967011,-60.77531010
94.62247389,34.17895994,19.30252061,77.27492238,-0.36485865,-0.16843086,1.06951830

>  <Name>
ligand

>  <RI>
0

>  <Rbt.Current_Directory>
/home/itssahil/PROJECTS/Mol_Feturizer/New_Systems/rnas/2QWY

>  <Rbt.Executable>
rbdock ($Id: //depot/dev/client3/rdock/2013.1/src/exe/rbdock.cxx#4 $)

>  <Rbt.Library>
libRbt.so (2013.1, Build901 2013/11/27)

>  <Rbt.Parameter_File>
/export/apps/rDock/src/rDock_2013.1_src/data/scripts/dock_solv.prm

>  <Rbt.Receptor>
prm/pocket_docking_7.prm

>  <SCORE>
-21.2642

>  <SCORE.INTER>
-18.4832

>  <SCORE.INTER.CONST>
1

>  <SCORE.INTER.POLAR>
0

>  <SCORE.INTER.ROT>
7

>  <SCORE.INTER.SOLV>
19.3916

>  <SCORE.INTER.VDW>
-27.0527

>  <SCORE.INTER.norm>
-0.684563

>  <SCORE.INTRA>
-2.78102

>  <SCORE.INTRA.DIHEDRAL>
-3.59895

>  <SCORE.INTRA.DIHEDRAL.0>
10.7382

>  <SCORE.INTRA.POLAR>
0

>  <SCORE.INTRA.POLAR.0>
0

>  <SCORE.INTRA.REPUL>
0

>  <SCORE.INTRA.REPUL.0>
0

>  <SCORE.INTRA.SOLV>
-0.879695

>  <SCORE.INTRA.SOLV.lig_0>
-49.2501

>  <SCORE.INTRA.VDW>
-0.541695

>  <SCORE.INTRA.VDW.0>
-1.75368

>  <SCORE.INTRA.norm>
-0.103001

>  <SCORE.RESTR>
0

>  <SCORE.RESTR.CAVITY>
0

>  <SCORE.RESTR.norm>
0

>  <SCORE.SYSTEM>
0

>  <SCORE.SYSTEM.CONST>
0

>  <SCORE.SYSTEM.DIHEDRAL>
0

>  <SCORE.SYSTEM.SOLV>
0

>  <SCORE.SYSTEM.norm>
0

>  <SCORE.heavy>
27

>  <SCORE.norm>
-0.787563

>  <RMSD>
3.131

$$$$
ligand
 OpenBabel11021811463D
libRbt.so/2013.1/901 2013/11/27
 27 29  0  0  0  0  0  0  0  0999 V2000
   39.3328   18.5052   74.3325 N   0  0  0  0  0  0  0  0  0  0  0  0
   37.9892   18.8542   74.8260 C   0  0  2  0  0  0  0  0  0  0  0  0
   37.9110   20.3381   75.1191 C   0  0  0  0  0  0  0  0  0  0  0  0
   38.7187   20.8597   75.8946 O   0  0  0  0  0  0  0  0  0  0  0  0
   37.7124   18.0808   76.1111 C   0  0  0  0  0  0  0  0  0  0  0  0
   36.2312   18.0840   76.4232 C   0  0  0  0  0  0  0  0  0  0  0  0
   35.8229   19.6827   77.1462 S   0  0  2  0  0  0  0  0  0  0  0  0
   36.3355   19.3486   78.8542 C   0  0  0  0  0  0  0  0  0  0  0  0
   34.0112   19.5286   77.3055 C   0  0  0  0  0  0  0  0  0  0  0  0
   33.4340   20.8902   77.6827 C   0  0  1  0  0  0  0  0  0  0  0  0
   32.0990   20.9297   77.2351 O   0  0  0  0  0  0  0  0  0  0  0  0
   33.3778   21.0759   79.2028 C   0  0  1  0  0  0  0  0  0  0  0  0
   34.4969   21.6384   79.9051 O   0  0  0  0  0  0  0  0  0  0  0  0
   32.0128   21.8070   79.4285 C   0  0  1  0  0  0  0  0  0  0  0  0
   32.2385   22.9225   80.3073 O   0  0  0  0  0  0  0  0  0  0  0  0
   31.4439   21.9497   77.9723 C   0  0  2  0  0  0  0  0  0  0  0  0
   37.0919   21.0290   74.5323 O   0  0  0  0  0  0  0  0  0  0  0  0
   27.6537   18.3953   77.6495 N   0  0  0  0  0  0  0  0  0  0  0  0
   28.9752   18.2008   77.7237 C   0  0  0  0  0  0  0  0  0  0  0  0
   29.8269   19.2206   77.7832 N   0  0  0  0  0  0  0  0  0  0  0  0
   29.3921   20.4938   77.7944 C   0  0  0  0  0  0  0  0  0  0  0  0
   27.9971   20.7550   77.7329 C   0  0  0  0  0  0  0  0  0  0  0  0
   27.1209   19.6320   77.6577 C   0  0  0  0  0  0  0  0  0  0  0  0
   25.7501   19.8024   77.6036 N   0  0  0  0  0  0  0  0  0  0  0  0
   27.8386   22.0982   77.7667 N   0  0  0  0  0  0  0  0  0  0  0  0
   29.0076   22.6648   77.8454 C   0  0  0  0  0  0  0  0  0  0  0  0
   29.9998   21.7155   77.8649 N   0  0  0  0  0  0  0  0  0  0  0  0
  2  1  1  1  0  0  0
  2  3  1  0  0  0  0
  2  5  1  0  0  0  0
  3  4  1  0  0  0  0
  3 17  1  0  0  0  0
  5  6  1  0  0  0  0
  7  6  1  6  0  0  0
  7  8  1  0  0  0  0
  7  9  1  0  0  0  0
 10  9  1  1  0  0  0
 10 11  1  0  0  0  0
 10 12  1  0  0  0  0
 11 16  1  0  0  0  0
 12 13  1  6  0  0  0
 12 14  1  0  0  0  0
 14 15  1  6  0  0  0
 14 16  1  0  0  0  0
 16 27  1  1  0  0  0
 18 19  2  0  0  0  0
 18 23  1  0  0  0  0
 19 20  1  0  0  0  0
 20 21  2  0  0  0  0
 21 22  1  0  0  0  0
 21 27  1  0  0  0  0
 22 23  2  0  0  0  0
 22 25  1  0  0  0  0
 23 24  1  0  0  0  0
 25 26  2  0  0  0  0
 26 27  1  0  0  0  0
M  END
>  <CHROM.1>
-55.63684553,-163.19910694,-78.48228389,-82.13550942,-170.26281902,154.30024736
34.09988631,33.01319985,20.30390547,77.39021301,0.22359119,-0.09700823,-2.42548366

>  <Name>
ligand

>  <RI>
0

>  <Rbt.Current_Directory>
/home/itssahil/PROJECTS/Mol_Feturizer/New_Systems/rnas/2QWY

>  <Rbt.Executable>
rbdock ($Id: //depot/dev/client3/rdock/2013.1/src/exe/rbdock.cxx#4 $)

>  <Rbt.Library>
libRbt.so (2013.1, Build901 2013/11/27)

>  <Rbt.Parameter_File>
/export/apps/rDock/src/rDock_2013.1_src/data/scripts/dock_solv.prm

>  <Rbt.Receptor>
prm/pocket_docking_4.prm

>  <SCORE>
-24.5355

>  <SCORE.INTER>
-22.1549

>  <SCORE.INTER.CONST>
1

>  <SCORE.INTER.POLAR>
0

>  <SCORE.INTER.ROT>
7

>  <SCORE.INTER.SOLV>
9.05593

>  <SCORE.INTER.VDW>
-26.0552

>  <SCORE.INTER.norm>
-0.820552

>  <SCORE.INTRA>
-2.38061

>  <SCORE.INTRA.DIHEDRAL>
-1.80193

>  <SCORE.INTRA.DIHEDRAL.0>
10.7382

>  <SCORE.INTRA.POLAR>
0

>  <SCORE.INTRA.POLAR.0>
0

>  <SCORE.INTRA.REPUL>
0

>  <SCORE.INTRA.REPUL.0>
0

>  <SCORE.INTRA.SOLV>
-0.77415

>  <SCORE.INTRA.SOLV.lig_0>
-49.2501

>  <SCORE.INTRA.VDW>
-1.09257

>  <SCORE.INTRA.VDW.0>
-1.75368

>  <SCORE.INTRA.norm>
-0.0881709

>  <SCORE.RESTR>
0

>  <SCORE.RESTR.CAVITY>
0

>  <SCORE.RESTR.norm>
0

>  <SCORE.SYSTEM>
0

>  <SCORE.SYSTEM.CONST>
0

>  <SCORE.SYSTEM.DIHEDRAL>
0

>  <SCORE.SYSTEM.SOLV>
0

>  <SCORE.SYSTEM.norm>
0

>  <SCORE.heavy>
27

>  <SCORE.norm>
-0.908723

>  <RMSD>
3.179

$$$$
ligand
 OpenBabel11021811463D
libRbt.so/2013.1/901 2013/11/27
 27 29  0  0  0  0  0  0  0  0999 V2000
   37.2862   19.1192   73.8418 N   0  0  0  0  0  0  0  0  0  0  0  0
   37.7901   19.5918   75.1432 C   0  0  2  0  0  0  0  0  0  0  0  0
   39.2355   20.0260   75.0156 C   0  0  0  0  0  0  0  0  0  0  0  0
   40.0285   19.3518   74.3506 O   0  0  0  0  0  0  0  0  0  0  0  0
   37.7028   18.4544   76.1557 C   0  0  0  0  0  0  0  0  0  0  0  0
   36.2751   18.2693   76.6233 C   0  0  0  0  0  0  0  0  0  0  0  0
   35.7969   19.7475   77.5352 S   0  0  2  0  0  0  0  0  0  0  0  0
   36.1087   19.1430   79.2172 C   0  0  0  0  0  0  0  0  0  0  0  0
   33.9779   19.6142   77.4647 C   0  0  0  0  0  0  0  0  0  0  0  0
   33.3735   20.9834   77.7639 C   0  0  1  0  0  0  0  0  0  0  0  0
   32.0413   20.9740   77.3065 O   0  0  0  0  0  0  0  0  0  0  0  0
   33.3029   21.2500   79.2714 C   0  0  1  0  0  0  0  0  0  0  0  0
   34.4066   21.8702   79.9491 O   0  0  0  0  0  0  0  0  0  0  0  0
   31.9234   21.9669   79.4485 C   0  0  1  0  0  0  0  0  0  0  0  0
   32.1225   23.1323   80.2669 O   0  0  0  0  0  0  0  0  0  0  0  0
   31.3625   22.0201   77.9832 C   0  0  2  0  0  0  0  0  0  0  0  0
   39.5969   21.0815   75.5137 O   0  0  0  0  0  0  0  0  0  0  0  0
   27.6588   18.3863   77.5567 N   0  0  0  0  0  0  0  0  0  0  0  0
   28.9855   18.2225   77.6116 C   0  0  0  0  0  0  0  0  0  0  0  0
   29.8121   19.2604   77.7029 N   0  0  0  0  0  0  0  0  0  0  0  0
   29.3459   20.5208   77.7673 C   0  0  0  0  0  0  0  0  0  0  0  0
   27.9443   20.7489   77.7283 C   0  0  0  0  0  0  0  0  0  0  0  0
   27.0956   19.6079   77.6175 C   0  0  0  0  0  0  0  0  0  0  0  0
   25.7206   19.7456   77.5822 N   0  0  0  0  0  0  0  0  0  0  0  0
   27.7527   22.0854   77.8156 N   0  0  0  0  0  0  0  0  0  0  0  0
   28.9080   22.6779   77.9058 C   0  0  0  0  0  0  0  0  0  0  0  0
   29.9237   21.7538   77.8797 N   0  0  0  0  0  0  0  0  0  0  0  0
  2  1  1  6  0  0  0
  2  3  1  0  0  0  0
  2  5  1  0  0  0  0
  3  4  1  0  0  0  0
  3 17  1  0  0  0  0
  5  6  1  0  0  0  0
  7  6  1  6  0  0  0
  7  8  1  0  0  0  0
  7  9  1  0  0  0  0
 10  9  1  1  0  0  0
 10 11  1  0  0  0  0
 10 12  1  0  0  0  0
 11 16  1  0  0  0  0
 12 13  1  6  0  0  0
 12 14  1  0  0  0  0
 14 15  1  6  0  0  0
 14 16  1  0  0  0  0
 16 27  1  1  0  0  0
 18 19  2  0  0  0  0
 18 23  1  0  0  0  0
 19 20  1  0  0  0  0
 20 21  2  0  0  0  0
 21 22  1  0  0  0  0
 21 27  1  0  0  0  0
 22 23  2  0  0  0  0
 22 25  1  0  0  0  0
 23 24  1  0  0  0  0
 25 26  2  0  0  0  0
 26 27  1  0  0  0  0
M  END
>  <CHROM.1>
-42.01374781,-76.69274997,-65.62502623,-97.26621542,-161.21179684,161.97482975
28.68944221,33.08456192,20.33930503,77.41798621,0.22233909,-0.08970178,-2.36053970

>  <Name>
ligand

>  <RI>
0

>  <Rbt.Current_Directory>
/home/itssahil/PROJECTS/Mol_Feturizer/New_Systems/rnas/2QWY

>  <Rbt.Executable>
rbdock ($Id: //depot/dev/client3/rdock/2013.1/src/exe/rbdock.cxx#4 $)

>  <Rbt.Library>
libRbt.so (2013.1, Build901 2013/11/27)

>  <Rbt.Parameter_File>
/export/apps/rDock/src/rDock_2013.1_src/data/scripts/dock_solv.prm

>  <Rbt.Receptor>
prm/pocket_docking_5.prm

>  <SCORE>
-24.008

>  <SCORE.INTER>
-22.3096

>  <SCORE.INTER.CONST>
1

>  <SCORE.INTER.POLAR>
0

>  <SCORE.INTER.ROT>
7

>  <SCORE.INTER.SOLV>
9.10063

>  <SCORE.INTER.VDW>
-26.1733

>  <SCORE.INTER.norm>
-0.82628

>  <SCORE.INTRA>
-1.69845

>  <SCORE.INTRA.DIHEDRAL>
-1.32275

>  <SCORE.INTRA.DIHEDRAL.0>
10.7382

>  <SCORE.INTRA.POLAR>
0

>  <SCORE.INTRA.POLAR.0>
0

>  <SCORE.INTRA.REPUL>
0

>  <SCORE.INTRA.REPUL.0>
0

>  <SCORE.INTRA.SOLV>
0.136451

>  <SCORE.INTRA.SOLV.lig_0>
-49.2501

>  <SCORE.INTRA.VDW>
-1.1053

>  <SCORE.INTRA.VDW.0>
-1.75368

>  <SCORE.INTRA.norm>
-0.0629055

>  <SCORE.RESTR>
0

>  <SCORE.RESTR.CAVITY>
0

>  <SCORE.RESTR.norm>
0

>  <SCORE.SYSTEM>
0

>  <SCORE.SYSTEM.CONST>
0

>  <SCORE.SYSTEM.DIHEDRAL>
0

>  <SCORE.SYSTEM.SOLV>
0

>  <SCORE.SYSTEM.norm>
0

>  <SCORE.heavy>
27

>  <SCORE.norm>
-0.889186

>  <RMSD>
3.251

$$$$
ligand
 OpenBabel11021811463D
libRbt.so/2013.1/901 2013/11/27
 27 29  0  0  0  0  0  0  0  0999 V2000
   38.5760   19.8574   75.5160 N   0  0  0  0  0  0  0  0  0  0  0  0
   37.8683   18.8154   76.2803 C   0  0  2  0  0  0  0  0  0  0  0  0
   36.6415   18.3549   75.5208 C   0  0  0  0  0  0  0  0  0  0  0  0
   36.2772   18.9596   74.5072 O   0  0  0  0  0  0  0  0  0  0  0  0
   37.4314   19.3909   77.6235 C   0  0  0  0  0  0  0  0  0  0  0  0
   37.3203   20.8984   77.5434 C   0  0  0  0  0  0  0  0  0  0  0  0
   36.0836   21.2951   76.2950 S   0  0  2  0  0  0  0  0  0  0  0  0
   36.9870   22.6045   75.4226 C   0  0  0  0  0  0  0  0  0  0  0  0
   34.9171   22.2947   77.2808 C   0  0  0  0  0  0  0  0  0  0  0  0
   33.9915   21.3543   78.0478 C   0  0  1  0  0  0  0  0  0  0  0  0
   32.7565   22.0105   78.2166 O   0  0  0  0  0  0  0  0  0  0  0  0
   33.6908   20.0833   77.2462 C   0  0  1  0  0  0  0  0  0  0  0  0
   34.5426   18.9334   77.3663 O   0  0  0  0  0  0  0  0  0  0  0  0
   32.1748   19.8233   77.5339 C   0  0  1  0  0  0  0  0  0  0  0  0
   32.0130   18.4377   77.8825 O   0  0  0  0  0  0  0  0  0  0  0  0
   31.7880   21.0096   78.4867 C   0  0  2  0  0  0  0  0  0  0  0  0
   36.0556   17.3424   75.8734 O   0  0  0  0  0  0  0  0  0  0  0  0
   26.8571   20.0735   77.1032 N   0  0  0  0  0  0  0  0  0  0  0  0
   27.8658   19.2045   77.2339 C   0  0  0  0  0  0  0  0  0  0  0  0
   29.0869   19.6020   77.5805 N   0  0  0  0  0  0  0  0  0  0  0  0
   29.3535   20.8954   77.8374 C   0  0  0  0  0  0  0  0  0  0  0  0
   28.3135   21.8570   77.7280 C   0  0  0  0  0  0  0  0  0  0  0  0
   27.0230   21.3883   77.3415 C   0  0  0  0  0  0  0  0  0  0  0  0
   25.9569   22.2600   77.2213 N   0  0  0  0  0  0  0  0  0  0  0  0
   28.8452   23.0606   78.0433 N   0  0  0  0  0  0  0  0  0  0  0  0
   30.1048   22.9087   78.3336 C   0  0  0  0  0  0  0  0  0  0  0  0
   30.4668   21.5887   78.2204 N   0  0  0  0  0  0  0  0  0  0  0  0
  2  1  1  6  0  0  0
  2  3  1  0  0  0  0
  2  5  1  0  0  0  0
  3  4  1  0  0  0  0
  3 17  1  0  0  0  0
  5  6  1  0  0  0  0
  7  6  1  1  0  0  0
  7  8  1  0  0  0  0
  7  9  1  0  0  0  0
 10  9  1  6  0  0  0
 10 11  1  0  0  0  0
 10 12  1  0  0  0  0
 11 16  1  0  0  0  0
 12 13  1  1  0  0  0
 12 14  1  0  0  0  0
 14 15  1  1  0  0  0
 14 16  1  0  0  0  0
 16 27  1  6  0  0  0
 18 19  2  0  0  0  0
 18 23  1  0  0  0  0
 19 20  1  0  0  0  0
 20 21  2  0  0  0  0
 21 22  1  0  0  0  0
 21 27  1  0  0  0  0
 22 23  2  0  0  0  0
 22 25  1  0  0  0  0
 23 24  1  0  0  0  0
 25 26  2  0  0  0  0
 26 27  1  0  0  0  0
M  END
>  <CHROM.1>
-8.81726508,23.55670038,60.58798571,-134.66266799,-82.14968475,-150.13702205
152.22929492,32.98430872,20.53177435,77.09444590,-0.18312058,0.12967955,0.20517993

>  <Name>
ligand

>  <RI>
0

>  <Rbt.Current_Directory>
/home/itssahil/PROJECTS/Mol_Feturizer/New_Systems/rnas/2QWY

>  <Rbt.Executable>
rbdock ($Id: //depot/dev/client3/rdock/2013.1/src/exe/rbdock.cxx#4 $)

>  <Rbt.Library>
libRbt.so (2013.1, Build901 2013/11/27)

>  <Rbt.Parameter_File>
/export/apps/rDock/src/rDock_2013.1_src/data/scripts/dock_solv.prm

>  <Rbt.Receptor>
prm/pocket_docking_3.prm

>  <SCORE>
-14.406

>  <SCORE.INTER>
-20.2141

>  <SCORE.INTER.CONST>
1

>  <SCORE.INTER.POLAR>
0

>  <SCORE.INTER.ROT>
7

>  <SCORE.INTER.SOLV>
9.34189

>  <SCORE.INTER.VDW>
-24.8567

>  <SCORE.INTER.norm>
-0.748672

>  <SCORE.INTRA>
5.80148

>  <SCORE.INTRA.DIHEDRAL>
3.68182

>  <SCORE.INTRA.DIHEDRAL.0>
10.7382

>  <SCORE.INTRA.POLAR>
0

>  <SCORE.INTRA.POLAR.0>
0

>  <SCORE.INTRA.REPUL>
0

>  <SCORE.INTRA.REPUL.0>
0

>  <SCORE.INTRA.SOLV>
3.26173

>  <SCORE.INTRA.SOLV.lig_0>
-49.2501

>  <SCORE.INTRA.VDW>
2.32971

>  <SCORE.INTRA.VDW.0>
-1.75368

>  <SCORE.INTRA.norm>
0.21487

>  <SCORE.RESTR>
0.00670168

>  <SCORE.RESTR.CAVITY>
0.00670168

>  <SCORE.RESTR.norm>
0.000248211

>  <SCORE.SYSTEM>
0

>  <SCORE.SYSTEM.CONST>
0

>  <SCORE.SYSTEM.DIHEDRAL>
0

>  <SCORE.SYSTEM.SOLV>
0

>  <SCORE.SYSTEM.norm>
0

>  <SCORE.heavy>
27

>  <SCORE.norm>
-0.533554

>  <RMSD>
3.252

$$$$
ligand
 OpenBabel11021811463D
libRbt.so/2013.1/901 2013/11/27
 27 29  0  0  0  0  0  0  0  0999 V2000
   36.6733   19.7256   73.8771 N   0  0  0  0  0  0  0  0  0  0  0  0
   35.5850   20.5399   74.4458 C   0  0  2  0  0  0  0  0  0  0  0  0
   36.1587   21.7041   75.2264 C   0  0  0  0  0  0  0  0  0  0  0  0
   37.3821   21.8583   75.2992 O   0  0  0  0  0  0  0  0  0  0  0  0
   34.7533   19.6749   75.3873 C   0  0  0  0  0  0  0  0  0  0  0  0
   35.6380   19.0217   76.4275 C   0  0  0  0  0  0  0  0  0  0  0  0
   35.8031   20.1663   77.8089 S   0  0  2  0  0  0  0  0  0  0  0  0
   36.8630   19.1531   78.8774 C   0  0  0  0  0  0  0  0  0  0  0  0
   34.1885   19.9402   78.6297 C   0  0  0  0  0  0  0  0  0  0  0  0
   33.1689   20.8648   77.9701 C   0  0  1  0  0  0  0  0  0  0  0  0
   32.0494   20.0866   77.6162 O   0  0  0  0  0  0  0  0  0  0  0  0
   32.6558   21.9261   78.9492 C   0  0  1  0  0  0  0  0  0  0  0  0
   33.3371   23.1839   79.0756 O   0  0  0  0  0  0  0  0  0  0  0  0
   31.1311   22.0244   78.6112 C   0  0  1  0  0  0  0  0  0  0  0  0
   30.7855   23.4145   78.4861 O   0  0  0  0  0  0  0  0  0  0  0  0
   30.9584   20.9788   77.4529 C   0  0  2  0  0  0  0  0  0  0  0  0
   35.4070   22.5288   75.7237 O   0  0  0  0  0  0  0  0  0  0  0  0
   25.7535   21.0731   77.3879 N   0  0  0  0  0  0  0  0  0  0  0  0
   26.6074   22.0986   77.2927 C   0  0  0  0  0  0  0  0  0  0  0  0
   27.9238   21.9157   77.3444 N   0  0  0  0  0  0  0  0  0  0  0  0
   28.4534   20.6855   77.4717 C   0  0  0  0  0  0  0  0  0  0  0  0
   27.5905   19.5606   77.5615 C   0  0  0  0  0  0  0  0  0  0  0  0
   26.1859   19.8042   77.5143 C   0  0  0  0  0  0  0  0  0  0  0  0
   25.2810   18.7617   77.5867 N   0  0  0  0  0  0  0  0  0  0  0  0
   28.3732   18.4626   77.6739 N   0  0  0  0  0  0  0  0  0  0  0  0
   29.6231   18.8251   77.6571 C   0  0  0  0  0  0  0  0  0  0  0  0
   29.7248   20.1892   77.5343 N   0  0  0  0  0  0  0  0  0  0  0  0
  2  1  1  1  0  0  0
  2  3  1  0  0  0  0
  2  5  1  0  0  0  0
  3  4  1  0  0  0  0
  3 17  1  0  0  0  0
  5  6  1  0  0  0  0
  7  6  1  6  0  0  0
  7  8  1  0  0  0  0
  7  9  1  0  0  0  0
 10  9  1  1  0  0  0
 10 11  1  0  0  0  0
 10 12  1  0  0  0  0
 11 16  1  0  0  0  0
 12 13  1  6  0  0  0
 12 14  1  0  0  0  0
 14 15  1  6  0  0  0
 14 16  1  0  0  0  0
 16 27  1  1  0  0  0
 18 19  2  0  0  0  0
 18 23  1  0  0  0  0
 19 20  1  0  0  0  0
 20 21  2  0  0  0  0
 21 22  1  0  0  0  0
 21 27  1  0  0  0  0
 22 23  2  0  0  0  0
 22 25  1  0  0  0  0
 23 24  1  0  0  0  0
 25 26  2  0  0  0  0
 26 27  1  0  0  0  0
M  END
>  <CHROM.1>
0.58095363,54.04248517,87.15526566,179.47081947,-85.85980524,128.42247856
177.58237403,32.10157066,20.68408132,77.24990185,0.04621622,-0.13790465,-2.62913032

>  <Name>
ligand

>  <RI>
0

>  <Rbt.Current_Directory>
/home/itssahil/PROJECTS/Mol_Feturizer/New_Systems/rnas/2QWY

>  <Rbt.Executable>
rbdock ($Id: //depot/dev/client3/rdock/2013.1/src/exe/rbdock.cxx#4 $)

>  <Rbt.Library>
libRbt.so (2013.1, Build901 2013/11/27)

>  <Rbt.Parameter_File>
/export/apps/rDock/src/rDock_2013.1_src/data/scripts/dock_solv.prm

>  <Rbt.Receptor>
prm/pocket_docking_4.prm

>  <SCORE>
-25.6445

>  <SCORE.INTER>
-25.5069

>  <SCORE.INTER.CONST>
1

>  <SCORE.INTER.POLAR>
0

>  <SCORE.INTER.ROT>
7

>  <SCORE.INTER.SOLV>
10.8506

>  <SCORE.INTER.VDW>
-28.8881

>  <SCORE.INTER.norm>
-0.9447

>  <SCORE.INTRA>
-0.137593

>  <SCORE.INTRA.DIHEDRAL>
0.840379

>  <SCORE.INTRA.DIHEDRAL.0>
10.7382

>  <SCORE.INTRA.POLAR>
0

>  <SCORE.INTRA.POLAR.0>
0

>  <SCORE.INTRA.REPUL>
0

>  <SCORE.INTRA.REPUL.0>
0

>  <SCORE.INTRA.SOLV>
0.270119

>  <SCORE.INTRA.SOLV.lig_0>
-49.2501

>  <SCORE.INTRA.VDW>
-0.692842

>  <SCORE.INTRA.VDW.0>
-1.75368

>  <SCORE.INTRA.norm>
-0.00509604

>  <SCORE.RESTR>
0

>  <SCORE.RESTR.CAVITY>
0

>  <SCORE.RESTR.norm>
0

>  <SCORE.SYSTEM>
0

>  <SCORE.SYSTEM.CONST>
0

>  <SCORE.SYSTEM.DIHEDRAL>
0

>  <SCORE.SYSTEM.SOLV>
0

>  <SCORE.SYSTEM.norm>
0

>  <SCORE.heavy>
27

>  <SCORE.norm>
-0.949796

>  <RMSD>
3.273

$$$$
ligand
 OpenBabel11021811463D
libRbt.so/2013.1/901 2013/11/27
 27 29  0  0  0  0  0  0  0  0999 V2000
   36.7935   19.5411   73.1808 N   0  0  0  0  0  0  0  0  0  0  0  0
   37.4011   20.5725   74.0397 C   0  0  2  0  0  0  0  0  0  0  0  0
   38.4208   19.9441   74.9668 C   0  0  0  0  0  0  0  0  0  0  0  0
   38.1668   18.8772   75.5351 O   0  0  0  0  0  0  0  0  0  0  0  0
   36.3101   21.2309   74.8779 C   0  0  0  0  0  0  0  0  0  0  0  0
   36.8775   22.3874   75.6728 C   0  0  0  0  0  0  0  0  0  0  0  0
   35.5383   23.0980   76.6459 S   0  0  2  0  0  0  0  0  0  0  0  0
   36.2095   24.7707   76.8531 C   0  0  0  0  0  0  0  0  0  0  0  0
   35.9001   22.3876   78.2879 C   0  0  0  0  0  0  0  0  0  0  0  0
   34.8773   21.2948   78.5861 C   0  0  1  0  0  0  0  0  0  0  0  0
   33.6275   21.9164   78.7752 O   0  0  0  0  0  0  0  0  0  0  0  0
   34.7038   20.3463   77.3950 C   0  0  1  0  0  0  0  0  0  0  0  0
   35.5350   19.1820   77.2698 O   0  0  0  0  0  0  0  0  0  0  0  0
   33.1635   20.0719   77.3714 C   0  0  1  0  0  0  0  0  0  0  0  0
   32.9597   18.6541   77.2452 O   0  0  0  0  0  0  0  0  0  0  0  0
   32.6351   20.9210   78.5816 C   0  0  2  0  0  0  0  0  0  0  0  0
   39.5211   20.4593   75.0950 O   0  0  0  0  0  0  0  0  0  0  0  0
   27.6558   20.4049   77.1518 N   0  0  0  0  0  0  0  0  0  0  0  0
   28.5941   19.4577   77.2628 C   0  0  0  0  0  0  0  0  0  0  0  0
   29.8398   19.7505   77.6255 N   0  0  0  0  0  0  0  0  0  0  0  0
   30.2033   21.0122   77.9190 C   0  0  0  0  0  0  0  0  0  0  0  0
   29.2409   22.0536   77.8317 C   0  0  0  0  0  0  0  0  0  0  0  0
   27.9207   21.6962   77.4269 C   0  0  0  0  0  0  0  0  0  0  0  0
   26.9255   22.6503   77.3263 N   0  0  0  0  0  0  0  0  0  0  0  0
   29.8615   23.2036   78.1823 N   0  0  0  0  0  0  0  0  0  0  0  0
   31.1038   22.9475   78.4737 C   0  0  0  0  0  0  0  0  0  0  0  0
   31.3641   21.6071   78.3257 N   0  0  0  0  0  0  0  0  0  0  0  0
  2  1  1  6  0  0  0
  2  3  1  0  0  0  0
  2  5  1  0  0  0  0
  3  4  1  0  0  0  0
  3 17  1  0  0  0  0
  5  6  1  0  0  0  0
  7  6  1  6  0  0  0
  7  8  1  0  0  0  0
  7  9  1  0  0  0  0
 10  9  1  6  0  0  0
 10 11  1  0  0  0  0
 10 12  1  0  0  0  0
 11 16  1  0  0  0  0
 12 13  1  1  0  0  0
 12 14  1  0  0  0  0
 14 15  1  1  0  0  0
 14 16  1  0  0  0  0
 16 27  1  6  0  0  0
 18 19  2  0  0  0  0
 18 23  1  0  0  0  0
 19 20  1  0  0  0  0
 20 21  2  0  0  0  0
 21 22  1  0  0  0  0
 21 27  1  0  0  0  0
 22 23  2  0  0  0  0
 22 25  1  0  0  0  0
 23 24  1  0  0  0  0
 25 26  2  0  0  0  0
 26 27  1  0  0  0  0
M  END
>  <CHROM.1>
-43.03412676,-174.46040921,-179.38331334,-155.59824309,-106.34069983,-68.88422441
170.94605086,33.61762856,21.19917693,76.92624054,0.15400891,-0.22597006,-2.78610347

>  <Name>
ligand

>  <RI>
0

>  <Rbt.Current_Directory>
/home/itssahil/PROJECTS/Mol_Feturizer/New_Systems/rnas/2QWY

>  <Rbt.Executable>
rbdock ($Id: //depot/dev/client3/rdock/2013.1/src/exe/rbdock.cxx#4 $)

>  <Rbt.Library>
libRbt.so (2013.1, Build901 2013/11/27)

>  <Rbt.Parameter_File>
/export/apps/rDock/src/rDock_2013.1_src/data/scripts/dock_solv.prm

>  <Rbt.Receptor>
prm/pocket_docking_5.prm

>  <SCORE>
-23.5366

>  <SCORE.INTER>
-21.6906

>  <SCORE.INTER.CONST>
1

>  <SCORE.INTER.POLAR>
0

>  <SCORE.INTER.ROT>
7

>  <SCORE.INTER.SOLV>
12.9772

>  <SCORE.INTER.VDW>
-27.0528

>  <SCORE.INTER.norm>
-0.803354

>  <SCORE.INTRA>
-1.84607

>  <SCORE.INTRA.DIHEDRAL>
-1.69904

>  <SCORE.INTRA.DIHEDRAL.0>
10.7382

>  <SCORE.INTRA.POLAR>
0

>  <SCORE.INTRA.POLAR.0>
0

>  <SCORE.INTRA.REPUL>
0

>  <SCORE.INTRA.REPUL.0>
0

>  <SCORE.INTRA.SOLV>
-0.376255

>  <SCORE.INTRA.SOLV.lig_0>
-49.2501

>  <SCORE.INTRA.VDW>
-0.808422

>  <SCORE.INTRA.VDW.0>
-1.75368

>  <SCORE.INTRA.norm>
-0.0683729

>  <SCORE.RESTR>
0

>  <SCORE.RESTR.CAVITY>
0

>  <SCORE.RESTR.norm>
0

>  <SCORE.SYSTEM>
0

>  <SCORE.SYSTEM.CONST>
0

>  <SCORE.SYSTEM.DIHEDRAL>
0

>  <SCORE.SYSTEM.SOLV>
0

>  <SCORE.SYSTEM.norm>
0

>  <SCORE.heavy>
27

>  <SCORE.norm>
-0.871727

>  <RMSD>
3.310

$$$$
ligand
 OpenBabel11021811463D
libRbt.so/2013.1/901 2013/11/27
 27 29  0  0  0  0  0  0  0  0999 V2000
   36.6411   21.8100   74.9574 N   0  0  0  0  0  0  0  0  0  0  0  0
   37.0088   20.9110   76.0653 C   0  0  2  0  0  0  0  0  0  0  0  0
   38.3354   20.2408   75.7741 C   0  0  0  0  0  0  0  0  0  0  0  0
   38.9551   19.6740   76.6799 O   0  0  0  0  0  0  0  0  0  0  0  0
   35.9351   19.8382   76.2156 C   0  0  0  0  0  0  0  0  0  0  0  0
   36.1567   19.0401   77.4826 C   0  0  0  0  0  0  0  0  0  0  0  0
   35.8611   20.1342   78.8829 S   0  0  2  0  0  0  0  0  0  0  0  0
   36.7068   19.1697   80.1659 C   0  0  0  0  0  0  0  0  0  0  0  0
   34.1200   19.7369   79.2602 C   0  0  0  0  0  0  0  0  0  0  0  0
   33.2185   20.5768   78.3594 C   0  0  1  0  0  0  0  0  0  0  0  0
   32.1132   19.7823   77.9973 O   0  0  0  0  0  0  0  0  0  0  0  0
   32.6457   21.7859   79.1065 C   0  0  1  0  0  0  0  0  0  0  0  0
   33.3610   23.0310   79.1244 O   0  0  0  0  0  0  0  0  0  0  0  0
   31.1730   21.8701   78.5848 C   0  0  1  0  0  0  0  0  0  0  0  0
   30.9016   23.2338   78.2182 O   0  0  0  0  0  0  0  0  0  0  0  0
   31.0850   20.6667   77.5805 C   0  0  2  0  0  0  0  0  0  0  0  0
   38.7554   20.2019   74.6275 O   0  0  0  0  0  0  0  0  0  0  0  0
   25.8908   20.9806   77.4203 N   0  0  0  0  0  0  0  0  0  0  0  0
   26.7886   21.9696   77.3468 C   0  0  0  0  0  0  0  0  0  0  0  0
   28.0950   21.7312   77.4216 N   0  0  0  0  0  0  0  0  0  0  0  0
   28.5700   20.4792   77.5515 C   0  0  0  0  0  0  0  0  0  0  0  0
   27.6591   19.3911   77.6189 C   0  0  0  0  0  0  0  0  0  0  0  0
   26.2670   19.6939   77.5473 C   0  0  0  0  0  0  0  0  0  0  0  0
   25.3179   18.6902   77.5971 N   0  0  0  0  0  0  0  0  0  0  0  0
   28.3927   18.2606   77.7393 N   0  0  0  0  0  0  0  0  0  0  0  0
   29.6568   18.5702   77.7476 C   0  0  0  0  0  0  0  0  0  0  0  0
   29.8180   19.9294   77.6346 N   0  0  0  0  0  0  0  0  0  0  0  0
  2  1  1  6  0  0  0
  2  3  1  0  0  0  0
  2  5  1  0  0  0  0
  3  4  1  0  0  0  0
  3 17  1  0  0  0  0
  5  6  1  0  0  0  0
  7  6  1  6  0  0  0
  7  8  1  0  0  0  0
  7  9  1  0  0  0  0
 10  9  1  1  0  0  0
 10 11  1  0  0  0  0
 10 12  1  0  0  0  0
 11 16  1  0  0  0  0
 12 13  1  6  0  0  0
 12 14  1  0  0  0  0
 14 15  1  6  0  0  0
 14 16  1  0  0  0  0
 16 27  1  1  0  0  0
 18 19  2  0  0  0  0
 18 23  1  0  0  0  0
 19 20  1  0  0  0  0
 20 21  2  0  0  0  0
 21 22  1  0  0  0  0
 21 27  1  0  0  0  0
 22 23  2  0  0  0  0
 22 25  1  0  0  0  0
 23 24  1  0  0  0  0
 25 26  2  0  0  0  0
 26 27  1  0  0  0  0
M  END
>  <CHROM.1>
164.84066118,-170.52423925,67.41992027,-161.87501935,-84.62548102,142.99133853
167.16933142,32.52048425,20.42673529,77.64750990,-0.03881824,0.06600713,0.46136609

>  <Name>
ligand

>  <RI>
0

>  <Rbt.Current_Directory>
/home/itssahil/PROJECTS/Mol_Feturizer/New_Systems/rnas/2QWY

>  <Rbt.Executable>
rbdock ($Id: //depot/dev/client3/rdock/2013.1/src/exe/rbdock.cxx#4 $)

>  <Rbt.Library>
libRbt.so (2013.1, Build901 2013/11/27)

>  <Rbt.Parameter_File>
/export/apps/rDock/src/rDock_2013.1_src/data/scripts/dock_solv.prm

>  <Rbt.Receptor>
prm/pocket_docking_5.prm

>  <SCORE>
-24.3143

>  <SCORE.INTER>
-22.5981

>  <SCORE.INTER.CONST>
1

>  <SCORE.INTER.POLAR>
0

>  <SCORE.INTER.ROT>
7

>  <SCORE.INTER.SOLV>
12.0925

>  <SCORE.INTER.VDW>
-27.3629

>  <SCORE.INTER.norm>
-0.836968

>  <SCORE.INTRA>
-1.71619

>  <SCORE.INTRA.DIHEDRAL>
-1.16545

>  <SCORE.INTRA.DIHEDRAL.0>
10.7382

>  <SCORE.INTRA.POLAR>
0

>  <SCORE.INTRA.POLAR.0>
0

>  <SCORE.INTRA.REPUL>
0

>  <SCORE.INTRA.REPUL.0>
0

>  <SCORE.INTRA.SOLV>
-0.757036

>  <SCORE.INTRA.SOLV.lig_0>
-49.2501

>  <SCORE.INTRA.VDW>
-0.754946

>  <SCORE.INTRA.VDW.0>
-1.75368

>  <SCORE.INTRA.norm>
-0.0635626

>  <SCORE.RESTR>
0

>  <SCORE.RESTR.CAVITY>
0

>  <SCORE.RESTR.norm>
0

>  <SCORE.SYSTEM>
0

>  <SCORE.SYSTEM.CONST>
0

>  <SCORE.SYSTEM.DIHEDRAL>
0

>  <SCORE.SYSTEM.SOLV>
0

>  <SCORE.SYSTEM.norm>
0

>  <SCORE.heavy>
27

>  <SCORE.norm>
-0.900531

>  <RMSD>
3.327

$$$$
ligand
 OpenBabel11021811463D
libRbt.so/2013.1/901 2013/11/27
 27 29  0  0  0  0  0  0  0  0999 V2000
   37.4765   15.5686   76.1162 N   0  0  0  0  0  0  0  0  0  0  0  0
   37.8637   16.7474   75.3216 C   0  0  2  0  0  0  0  0  0  0  0  0
   39.3581   16.7415   75.0751 C   0  0  0  0  0  0  0  0  0  0  0  0
   39.7975   16.5465   73.9373 O   0  0  0  0  0  0  0  0  0  0  0  0
   37.4942   18.0116   76.0907 C   0  0  0  0  0  0  0  0  0  0  0  0
   36.0046   18.0541   76.3566 C   0  0  0  0  0  0  0  0  0  0  0  0
   35.6281   19.6335   77.1370 S   0  0  2  0  0  0  0  0  0  0  0  0
   36.1418   19.2306   78.8298 C   0  0  0  0  0  0  0  0  0  0  0  0
   33.8146   19.5062   77.2995 C   0  0  0  0  0  0  0  0  0  0  0  0
   33.2541   20.8850   77.6376 C   0  0  1  0  0  0  0  0  0  0  0  0
   31.9143   20.9219   77.2042 O   0  0  0  0  0  0  0  0  0  0  0  0
   33.2174   21.1218   79.1512 C   0  0  1  0  0  0  0  0  0  0  0  0
   34.3497   21.6969   79.8214 O   0  0  0  0  0  0  0  0  0  0  0  0
   31.8618   21.8726   79.3680 C   0  0  1  0  0  0  0  0  0  0  0  0
   32.1077   23.0147   80.2063 O   0  0  0  0  0  0  0  0  0  0  0  0
   31.2770   21.9720   77.9144 C   0  0  2  0  0  0  0  0  0  0  0  0
   40.1240   17.0002   75.9912 O   0  0  0  0  0  0  0  0  0  0  0  0
   27.4635   18.4479   77.5385 N   0  0  0  0  0  0  0  0  0  0  0  0
   28.7854   18.2455   77.5740 C   0  0  0  0  0  0  0  0  0  0  0  0
   29.6432   19.2589   77.6542 N   0  0  0  0  0  0  0  0  0  0  0  0
   29.2148   20.5322   77.7265 C   0  0  0  0  0  0  0  0  0  0  0  0
   27.8199   20.8010   77.7080 C   0  0  0  0  0  0  0  0  0  0  0  0
   26.9369   19.6852   77.6085 C   0  0  0  0  0  0  0  0  0  0  0  0
   25.5661   19.8629   77.5932 N   0  0  0  0  0  0  0  0  0  0  0  0
   27.6686   22.1424   77.7991 N   0  0  0  0  0  0  0  0  0  0  0  0
   28.8418   22.7009   77.8731 C   0  0  0  0  0  0  0  0  0  0  0  0
   29.8297   21.7478   77.8315 N   0  0  0  0  0  0  0  0  0  0  0  0
  2  1  1  1  0  0  0
  2  3  1  0  0  0  0
  2  5  1  0  0  0  0
  3  4  1  0  0  0  0
  3 17  1  0  0  0  0
  5  6  1  0  0  0  0
  7  6  1  6  0  0  0
  7  8  1  0  0  0  0
  7  9  1  0  0  0  0
 10  9  1  1  0  0  0
 10 11  1  0  0  0  0
 10 12  1  0  0  0  0
 11 16  1  0  0  0  0
 12 13  1  6  0  0  0
 12 14  1  0  0  0  0
 14 15  1  6  0  0  0
 14 16  1  0  0  0  0
 16 27  1  1  0  0  0
 18 19  2  0  0  0  0
 18 23  1  0  0  0  0
 19 20  1  0  0  0  0
 20 21  2  0  0  0  0
 21 22  1  0  0  0  0
 21 27  1  0  0  0  0
 22 23  2  0  0  0  0
 22 25  1  0  0  0  0
 23 24  1  0  0  0  0
 25 26  2  0  0  0  0
 26 27  1  0  0  0  0
M  END
>  <CHROM.1>
111.02274837,-59.76531334,-175.19067825,-79.78022496,-166.60224499,155.07042523
29.83137831,33.00826041,19.68781374,77.41076632,0.39223826,0.01665285,-2.54929654

>  <Name>
ligand

>  <RI>
0

>  <Rbt.Current_Directory>
/home/itssahil/PROJECTS/Mol_Feturizer/New_Systems/rnas/2QWY

>  <Rbt.Executable>
rbdock ($Id: //depot/dev/client3/rdock/2013.1/src/exe/rbdock.cxx#4 $)

>  <Rbt.Library>
libRbt.so (2013.1, Build901 2013/11/27)

>  <Rbt.Parameter_File>
/export/apps/rDock/src/rDock_2013.1_src/data/scripts/dock_solv.prm

>  <Rbt.Receptor>
prm/pocket_docking_5.prm

>  <SCORE>
-24.3443

>  <SCORE.INTER>
-22.1076

>  <SCORE.INTER.CONST>
1

>  <SCORE.INTER.POLAR>
0

>  <SCORE.INTER.ROT>
7

>  <SCORE.INTER.SOLV>
12.8066

>  <SCORE.INTER.VDW>
-27.2739

>  <SCORE.INTER.norm>
-0.818799

>  <SCORE.INTRA>
-2.26761

>  <SCORE.INTRA.DIHEDRAL>
-3.81466

>  <SCORE.INTRA.DIHEDRAL.0>
10.7382

>  <SCORE.INTRA.POLAR>
0

>  <SCORE.INTRA.POLAR.0>
0

>  <SCORE.INTRA.REPUL>
0

>  <SCORE.INTRA.REPUL.0>
0

>  <SCORE.INTRA.SOLV>
-0.211064

>  <SCORE.INTRA.SOLV.lig_0>
-49.2501

>  <SCORE.INTRA.VDW>
-0.254754

>  <SCORE.INTRA.VDW.0>
-1.75368

>  <SCORE.INTRA.norm>
-0.0839857

>  <SCORE.RESTR>
0.0308653

>  <SCORE.RESTR.CAVITY>
0.0308653

>  <SCORE.RESTR.norm>
0.00114316

>  <SCORE.SYSTEM>
0

>  <SCORE.SYSTEM.CONST>
0

>  <SCORE.SYSTEM.DIHEDRAL>
0

>  <SCORE.SYSTEM.SOLV>
0

>  <SCORE.SYSTEM.norm>
0

>  <SCORE.heavy>
27

>  <SCORE.norm>
-0.901641

>  <RMSD>
3.337

$$$$
ligand
 OpenBabel11021811463D
libRbt.so/2013.1/901 2013/11/27
 27 29  0  0  0  0  0  0  0  0999 V2000
   36.2565   17.2808   76.1164 N   0  0  0  0  0  0  0  0  0  0  0  0
   37.7079   17.5313   76.0793 C   0  0  2  0  0  0  0  0  0  0  0  0
   38.4051   16.7141   77.1470 C   0  0  0  0  0  0  0  0  0  0  0  0
   38.9219   15.6299   76.8584 O   0  0  0  0  0  0  0  0  0  0  0  0
   37.9663   19.0114   76.3419 C   0  0  0  0  0  0  0  0  0  0  0  0
   37.1350   19.4956   77.5106 C   0  0  0  0  0  0  0  0  0  0  0  0
   35.5217   19.9845   76.8753 S   0  0  2  0  0  0  0  0  0  0  0  0
   36.0268   21.4675   75.9604 C   0  0  0  0  0  0  0  0  0  0  0  0
   34.7886   20.7445   78.3641 C   0  0  0  0  0  0  0  0  0  0  0  0
   33.5874   21.5873   77.9441 C   0  0  1  0  0  0  0  0  0  0  0  0
   32.5425   20.7060   77.6040 O   0  0  0  0  0  0  0  0  0  0  0  0
   33.0636   22.4386   79.1058 C   0  0  1  0  0  0  0  0  0  0  0  0
   33.5885   23.7560   79.3317 O   0  0  0  0  0  0  0  0  0  0  0  0
   31.5095   22.3587   78.9418 C   0  0  1  0  0  0  0  0  0  0  0  0
   30.9763   23.6903   79.0429 O   0  0  0  0  0  0  0  0  0  0  0  0
   31.3346   21.4469   77.6759 C   0  0  2  0  0  0  0  0  0  0  0  0
   38.5158   17.1634   78.2777 O   0  0  0  0  0  0  0  0  0  0  0  0
   26.1805   20.7457   77.4586 N   0  0  0  0  0  0  0  0  0  0  0  0
   26.8742   21.8811   77.3197 C   0  0  0  0  0  0  0  0  0  0  0  0
   28.2002   21.9038   77.4203 N   0  0  0  0  0  0  0  0  0  0  0  0
   28.9029   20.7784   77.6437 C   0  0  0  0  0  0  0  0  0  0  0  0
   28.2154   19.5431   77.7836 C   0  0  0  0  0  0  0  0  0  0  0  0
   26.7929   19.5672   77.6809 C   0  0  0  0  0  0  0  0  0  0  0  0
   26.0522   18.4059   77.7969 N   0  0  0  0  0  0  0  0  0  0  0  0
   29.1488   18.5857   77.9905 N   0  0  0  0  0  0  0  0  0  0  0  0
   30.3301   19.1320   77.9847 C   0  0  0  0  0  0  0  0  0  0  0  0
   30.2310   20.4856   77.7748 N   0  0  0  0  0  0  0  0  0  0  0  0
  2  1  1  1  0  0  0
  2  3  1  0  0  0  0
  2  5  1  0  0  0  0
  3  4  1  0  0  0  0
  3 17  1  0  0  0  0
  5  6  1  0  0  0  0
  7  6  1  1  0  0  0
  7  8  1  0  0  0  0
  7  9  1  0  0  0  0
 10  9  1  1  0  0  0
 10 11  1  0  0  0  0
 10 12  1  0  0  0  0
 11 16  1  0  0  0  0
 12 13  1  6  0  0  0
 12 14  1  0  0  0  0
 14 15  1  6  0  0  0
 14 16  1  0  0  0  0
 16 27  1  1  0  0  0
 18 19  2  0  0  0  0
 18 23  1  0  0  0  0
 19 20  1  0  0  0  0
 20 21  2  0  0  0  0
 21 22  1  0  0  0  0
 21 27  1  0  0  0  0
 22 23  2  0  0  0  0
 22 25  1  0  0  0  0
 23 24  1  0  0  0  0
 25 26  2  0  0  0  0
 26 27  1  0  0  0  0
M  END
>  <CHROM.1>
96.80737624,45.45681795,-86.37327267,-69.68181919,163.49181229,73.40498933
-168.54985614,32.82418505,20.07957025,77.60364024,0.28289479,-0.02343860
-2.89897921

>  <Name>
ligand

>  <RI>
0

>  <Rbt.Current_Directory>
/home/itssahil/PROJECTS/Mol_Feturizer/New_Systems/rnas/2QWY

>  <Rbt.Executable>
rbdock ($Id: //depot/dev/client3/rdock/2013.1/src/exe/rbdock.cxx#4 $)

>  <Rbt.Library>
libRbt.so (2013.1, Build901 2013/11/27)

>  <Rbt.Parameter_File>
/export/apps/rDock/src/rDock_2013.1_src/data/scripts/dock_solv.prm

>  <Rbt.Receptor>
prm/pocket_docking_7.prm

>  <SCORE>
-21.227

>  <SCORE.INTER>
-22.5597

>  <SCORE.INTER.CONST>
1

>  <SCORE.INTER.POLAR>
0

>  <SCORE.INTER.ROT>
7

>  <SCORE.INTER.SOLV>
16.5781

>  <SCORE.INTER.VDW>
-28.8325

>  <SCORE.INTER.norm>
-0.835544

>  <SCORE.INTRA>
1.33272

>  <SCORE.INTRA.DIHEDRAL>
-3.52989

>  <SCORE.INTRA.DIHEDRAL.0>
10.7382

>  <SCORE.INTRA.POLAR>
0

>  <SCORE.INTRA.POLAR.0>
0

>  <SCORE.INTRA.REPUL>
0

>  <SCORE.INTRA.REPUL.0>
0

>  <SCORE.INTRA.SOLV>
1.46482

>  <SCORE.INTRA.SOLV.lig_0>
-49.2501

>  <SCORE.INTRA.VDW>
2.36525

>  <SCORE.INTRA.VDW.0>
-1.75368

>  <SCORE.INTRA.norm>
0.0493599

>  <SCORE.RESTR>
0

>  <SCORE.RESTR.CAVITY>
0

>  <SCORE.RESTR.norm>
0

>  <SCORE.SYSTEM>
0

>  <SCORE.SYSTEM.CONST>
0

>  <SCORE.SYSTEM.DIHEDRAL>
0

>  <SCORE.SYSTEM.SOLV>
0

>  <SCORE.SYSTEM.norm>
0

>  <SCORE.heavy>
27

>  <SCORE.norm>
-0.786184

>  <RMSD>
3.360

$$$$
ligand
 OpenBabel11021811463D
libRbt.so/2013.1/901 2013/11/27
 27 29  0  0  0  0  0  0  0  0999 V2000
   37.4030   15.3482   76.0618 N   0  0  0  0  0  0  0  0  0  0  0  0
   37.7258   16.7770   75.9036 C   0  0  2  0  0  0  0  0  0  0  0  0
   38.6784   17.2198   76.9947 C   0  0  0  0  0  0  0  0  0  0  0  0
   38.6570   16.6653   78.0983 O   0  0  0  0  0  0  0  0  0  0  0  0
   36.4418   17.5937   76.0065 C   0  0  0  0  0  0  0  0  0  0  0  0
   36.7070   19.0439   75.6632 C   0  0  0  0  0  0  0  0  0  0  0  0
   35.1594   19.9471   75.8496 S   0  0  2  0  0  0  0  0  0  0  0  0
   35.8003   21.6318   75.6433 C   0  0  0  0  0  0  0  0  0  0  0  0
   34.9508   19.8892   77.6620 C   0  0  0  0  0  0  0  0  0  0  0  0
   34.2090   21.1452   78.1111 C   0  0  1  0  0  0  0  0  0  0  0  0
   32.9126   21.0975   77.5622 O   0  0  0  0  0  0  0  0  0  0  0  0
   34.0251   21.1766   79.6321 C   0  0  1  0  0  0  0  0  0  0  0  0
   35.0263   21.7748   80.4699 O   0  0  0  0  0  0  0  0  0  0  0  0
   32.5786   21.7459   79.8108 C   0  0  1  0  0  0  0  0  0  0  0  0
   32.6230   22.7878   80.8008 O   0  0  0  0  0  0  0  0  0  0  0  0
   32.1034   21.9727   78.3318 C   0  0  2  0  0  0  0  0  0  0  0  0
   39.5146   18.0782   76.7570 O   0  0  0  0  0  0  0  0  0  0  0  0
   28.7130   18.0987   77.5567 N   0  0  0  0  0  0  0  0  0  0  0  0
   30.0356   18.0244   77.7434 C   0  0  0  0  0  0  0  0  0  0  0  0
   30.7775   19.1155   77.9115 N   0  0  0  0  0  0  0  0  0  0  0  0
   30.2235   20.3415   77.9240 C   0  0  0  0  0  0  0  0  0  0  0  0
   28.8205   20.4747   77.7454 C   0  0  0  0  0  0  0  0  0  0  0  0
   28.0656   19.2794   77.5561 C   0  0  0  0  0  0  0  0  0  0  0  0
   26.6947   19.3243   77.3842 N   0  0  0  0  0  0  0  0  0  0  0  0
   28.5318   21.7951   77.8073 N   0  0  0  0  0  0  0  0  0  0  0  0
   29.6300   22.4638   78.0089 C   0  0  0  0  0  0  0  0  0  0  0  0
   30.7031   21.6103   78.0876 N   0  0  0  0  0  0  0  0  0  0  0  0
  2  1  1  1  0  0  0
  2  3  1  0  0  0  0
  2  5  1  0  0  0  0
  3  4  1  0  0  0  0
  3 17  1  0  0  0  0
  5  6  1  0  0  0  0
  7  6  1  1  0  0  0
  7  8  1  0  0  0  0
  7  9  1  0  0  0  0
 10  9  1  1  0  0  0
 10 11  1  0  0  0  0
 10 12  1  0  0  0  0
 11 16  1  0  0  0  0
 12 13  1  1  0  0  0
 12 14  1  0  0  0  0
 14 15  1  1  0  0  0
 14 16  1  0  0  0  0
 16 27  1  1  0  0  0
 18 19  2  0  0  0  0
 18 23  1  0  0  0  0
 19 20  1  0  0  0  0
 20 21  2  0  0  0  0
 21 22  1  0  0  0  0
 21 27  1  0  0  0  0
 22 23  2  0  0  0  0
 22 25  1  0  0  0  0
 23 24  1  0  0  0  0
 25 26  2  0  0  0  0
 26 27  1  0  0  0  0
M  END
>  <CHROM.1>
-29.42612284,-172.35055723,-178.51289724,171.71028738,149.41098490,65.17042537
37.47710731,33.43261331,19.80770453,77.59887260,0.35599961,0.01040570,-2.62214270

>  <Name>
ligand

>  <RI>
0

>  <Rbt.Current_Directory>
/home/itssahil/PROJECTS/Mol_Feturizer/New_Systems/rnas/2QWY

>  <Rbt.Executable>
rbdock ($Id: //depot/dev/client3/rdock/2013.1/src/exe/rbdock.cxx#4 $)

>  <Rbt.Library>
libRbt.so (2013.1, Build901 2013/11/27)

>  <Rbt.Parameter_File>
/export/apps/rDock/src/rDock_2013.1_src/data/scripts/dock_solv.prm

>  <Rbt.Receptor>
prm/pocket_docking_6.prm

>  <SCORE>
-27.7583

>  <SCORE.INTER>
-24.6113

>  <SCORE.INTER.CONST>
1

>  <SCORE.INTER.POLAR>
0

>  <SCORE.INTER.ROT>
7

>  <SCORE.INTER.SOLV>
16.2835

>  <SCORE.INTER.VDW>
-30.1021

>  <SCORE.INTER.norm>
-0.911531

>  <SCORE.INTRA>
-3.14699

>  <SCORE.INTRA.DIHEDRAL>
-5.91873

>  <SCORE.INTRA.DIHEDRAL.0>
10.7382

>  <SCORE.INTRA.POLAR>
0

>  <SCORE.INTRA.POLAR.0>
0

>  <SCORE.INTRA.REPUL>
0

>  <SCORE.INTRA.REPUL.0>
0

>  <SCORE.INTRA.SOLV>
-1.13464

>  <SCORE.INTRA.SOLV.lig_0>
-49.2501

>  <SCORE.INTRA.VDW>
0.379701

>  <SCORE.INTRA.VDW.0>
-1.75368

>  <SCORE.INTRA.norm>
-0.116555

>  <SCORE.RESTR>
0

>  <SCORE.RESTR.CAVITY>
0

>  <SCORE.RESTR.norm>
0

>  <SCORE.SYSTEM>
0

>  <SCORE.SYSTEM.CONST>
0

>  <SCORE.SYSTEM.DIHEDRAL>
0

>  <SCORE.SYSTEM.SOLV>
0

>  <SCORE.SYSTEM.norm>
0

>  <SCORE.heavy>
27

>  <SCORE.norm>
-1.02809

>  <RMSD>
3.375

$$$$
ligand
 OpenBabel11021811463D
libRbt.so/2013.1/901 2013/11/27
 27 29  0  0  0  0  0  0  0  0999 V2000
   39.0130   18.0559   77.4543 N   0  0  0  0  0  0  0  0  0  0  0  0
   37.6467   17.7376   77.0042 C   0  0  2  0  0  0  0  0  0  0  0  0
   37.6426   17.4455   75.5181 C   0  0  0  0  0  0  0  0  0  0  0  0
   38.5784   17.8287   74.8088 O   0  0  0  0  0  0  0  0  0  0  0  0
   36.7399   18.9336   77.2758 C   0  0  0  0  0  0  0  0  0  0  0  0
   36.6790   19.2267   78.7596 C   0  0  0  0  0  0  0  0  0  0  0  0
   35.5169   20.5807   79.0075 S   0  0  2  0  0  0  0  0  0  0  0  0
   35.5009   20.5977   80.8216 C   0  0  0  0  0  0  0  0  0  0  0  0
   33.9355   19.7349   78.6679 C   0  0  0  0  0  0  0  0  0  0  0  0
   32.9937   20.7153   77.9740 C   0  0  1  0  0  0  0  0  0  0  0  0
   31.8251   20.0121   77.6220 O   0  0  0  0  0  0  0  0  0  0  0  0
   32.5471   21.8334   78.9221 C   0  0  1  0  0  0  0  0  0  0  0  0
   33.3164   23.0412   79.0299 O   0  0  0  0  0  0  0  0  0  0  0  0
   31.0379   22.0337   78.5610 C   0  0  1  0  0  0  0  0  0  0  0  0
   30.7956   23.4419   78.4003 O   0  0  0  0  0  0  0  0  0  0  0  0
   30.8038   20.9768   77.4239 C   0  0  2  0  0  0  0  0  0  0  0  0
   36.7463   16.7692   75.0364 O   0  0  0  0  0  0  0  0  0  0  0  0
   25.6201   21.4581   77.3825 N   0  0  0  0  0  0  0  0  0  0  0  0
   26.5475   22.4179   77.2901 C   0  0  0  0  0  0  0  0  0  0  0  0
   27.8468   22.1374   77.3347 N   0  0  0  0  0  0  0  0  0  0  0  0
   28.2840   20.8704   77.4519 C   0  0  0  0  0  0  0  0  0  0  0  0
   27.3403   19.8121   77.5384 C   0  0  0  0  0  0  0  0  0  0  0  0
   25.9575   20.1597   77.4990 C   0  0  0  0  0  0  0  0  0  0  0  0
   24.9779   19.1869   77.5689 N   0  0  0  0  0  0  0  0  0  0  0  0
   28.0396   18.6583   77.6405 N   0  0  0  0  0  0  0  0  0  0  0  0
   29.3129   18.9270   77.6204 C   0  0  0  0  0  0  0  0  0  0  0  0
   29.5152   20.2805   77.5058 N   0  0  0  0  0  0  0  0  0  0  0  0
  2  1  1  6  0  0  0
  2  3  1  0  0  0  0
  2  5  1  0  0  0  0
  3  4  1  0  0  0  0
  3 17  1  0  0  0  0
  5  6  1  0  0  0  0
  7  6  1  1  0  0  0
  7  8  1  0  0  0  0
  7  9  1  0  0  0  0
 10  9  1  1  0  0  0
 10 11  1  0  0  0  0
 10 12  1  0  0  0  0
 11 16  1  0  0  0  0
 12 13  1  6  0  0  0
 12 14  1  0  0  0  0
 14 15  1  6  0  0  0
 14 16  1  0  0  0  0
 16 27  1  1  0  0  0
 18 19  2  0  0  0  0
 18 23  1  0  0  0  0
 19 20  1  0  0  0  0
 20 21  2  0  0  0  0
 21 22  1  0  0  0  0
 21 27  1  0  0  0  0
 22 23  2  0  0  0  0
 22 25  1  0  0  0  0
 23 24  1  0  0  0  0
 25 26  2  0  0  0  0
 26 27  1  0  0  0  0
M  END
>  <CHROM.1>
-19.29887854,-61.76018940,-176.62820949,174.20288897,-144.62673239,175.17183864
175.64063200,32.33099360,20.13051936,77.73563751,0.20308481,0.09668765,-2.49841688

>  <Name>
ligand

>  <RI>
0

>  <Rbt.Current_Directory>
/home/itssahil/PROJECTS/Mol_Feturizer/New_Systems/rnas/2QWY

>  <Rbt.Executable>
rbdock ($Id: //depot/dev/client3/rdock/2013.1/src/exe/rbdock.cxx#4 $)

>  <Rbt.Library>
libRbt.so (2013.1, Build901 2013/11/27)

>  <Rbt.Parameter_File>
/export/apps/rDock/src/rDock_2013.1_src/data/scripts/dock_solv.prm

>  <Rbt.Receptor>
prm/pocket_docking_4.prm

>  <SCORE>
-24.7285

>  <SCORE.INTER>
-22.3466

>  <SCORE.INTER.CONST>
1

>  <SCORE.INTER.POLAR>
0

>  <SCORE.INTER.ROT>
7

>  <SCORE.INTER.SOLV>
8.94969

>  <SCORE.INTER.VDW>
-26.1476

>  <SCORE.INTER.norm>
-0.827653

>  <SCORE.INTRA>
-2.38988

>  <SCORE.INTRA.DIHEDRAL>
-3.6556

>  <SCORE.INTRA.DIHEDRAL.0>
10.7382

>  <SCORE.INTRA.POLAR>
0

>  <SCORE.INTRA.POLAR.0>
0

>  <SCORE.INTRA.REPUL>
0

>  <SCORE.INTRA.REPUL.0>
0

>  <SCORE.INTRA.SOLV>
-0.186016

>  <SCORE.INTRA.SOLV.lig_0>
-49.2501

>  <SCORE.INTRA.VDW>
-0.469072

>  <SCORE.INTRA.VDW.0>
-1.75368

>  <SCORE.INTRA.norm>
-0.088514

>  <SCORE.RESTR>
0.00801283

>  <SCORE.RESTR.CAVITY>
0.00801283

>  <SCORE.RESTR.norm>
0.000296771

>  <SCORE.SYSTEM>
0

>  <SCORE.SYSTEM.CONST>
0

>  <SCORE.SYSTEM.DIHEDRAL>
0

>  <SCORE.SYSTEM.SOLV>
0

>  <SCORE.SYSTEM.norm>
0

>  <SCORE.heavy>
27

>  <SCORE.norm>
-0.91587

>  <RMSD>
3.428

$$$$
ligand
 OpenBabel11021811463D
libRbt.so/2013.1/901 2013/11/27
 27 29  0  0  0  0  0  0  0  0999 V2000
   37.8149   20.0302   74.6234 N   0  0  0  0  0  0  0  0  0  0  0  0
   36.4215   19.5701   74.7554 C   0  0  2  0  0  0  0  0  0  0  0  0
   35.9058   19.0798   73.4184 C   0  0  0  0  0  0  0  0  0  0  0  0
   35.9447   19.8198   72.4302 O   0  0  0  0  0  0  0  0  0  0  0  0
   35.5535   20.7335   75.2238 C   0  0  0  0  0  0  0  0  0  0  0  0
   35.8746   21.0901   76.6595 C   0  0  0  0  0  0  0  0  0  0  0  0
   34.3164   21.2629   77.5470 S   0  0  2  0  0  0  0  0  0  0  0  0
   34.8933   20.8000   79.2036 C   0  0  0  0  0  0  0  0  0  0  0  0
   33.4703   19.7249   77.0465 C   0  0  0  0  0  0  0  0  0  0  0  0
   32.3063   19.4723   78.0008 C   0  0  1  0  0  0  0  0  0  0  0  0
   31.4768   20.6106   77.9771 O   0  0  0  0  0  0  0  0  0  0  0  0
   31.4356   18.3027   77.5291 C   0  0  1  0  0  0  0  0  0  0  0  0
   31.7373   16.9619   77.9455 O   0  0  0  0  0  0  0  0  0  0  0  0
   29.9801   18.7860   77.8394 C   0  0  1  0  0  0  0  0  0  0  0  0
   29.2858   17.7225   78.5135 O   0  0  0  0  0  0  0  0  0  0  0  0
   30.2062   20.2086   78.4638 C   0  0  2  0  0  0  0  0  0  0  0  0
   35.5172   17.9270   73.3051 O   0  0  0  0  0  0  0  0  0  0  0  0
   25.5638   21.0690   76.2701 N   0  0  0  0  0  0  0  0  0  0  0  0
   26.1755   19.9010   76.4964 C   0  0  0  0  0  0  0  0  0  0  0  0
   27.3813   19.8431   77.0549 N   0  0  0  0  0  0  0  0  0  0  0  0
   28.0278   20.9591   77.4377 C   0  0  0  0  0  0  0  0  0  0  0  0
   27.4154   22.2247   77.2338 C   0  0  0  0  0  0  0  0  0  0  0  0
   26.1277   22.2405   76.6204 C   0  0  0  0  0  0  0  0  0  0  0  0
   25.4622   23.4310   76.3958 N   0  0  0  0  0  0  0  0  0  0  0  0
   28.2661   23.1632   77.7093 N   0  0  0  0  0  0  0  0  0  0  0  0
   29.3285   22.5777   78.1808 C   0  0  0  0  0  0  0  0  0  0  0  0
   29.2293   21.2157   78.0355 N   0  0  0  0  0  0  0  0  0  0  0  0
  2  1  1  6  0  0  0
  2  3  1  0  0  0  0
  2  5  1  0  0  0  0
  3  4  1  0  0  0  0
  3 17  1  0  0  0  0
  5  6  1  0  0  0  0
  7  6  1  6  0  0  0
  7  8  1  0  0  0  0
  7  9  1  0  0  0  0
 10  9  1  6  0  0  0
 10 11  1  0  0  0  0
 10 12  1  0  0  0  0
 11 16  1  0  0  0  0
 12 13  1  1  0  0  0
 12 14  1  0  0  0  0
 14 15  1  1  0  0  0
 14 16  1  0  0  0  0
 16 27  1  6  0  0  0
 18 19  2  0  0  0  0
 18 23  1  0  0  0  0
 19 20  1  0  0  0  0
 20 21  2  0  0  0  0
 21 22  1  0  0  0  0
 21 27  1  0  0  0  0
 22 23  2  0  0  0  0
 22 25  1  0  0  0  0
 23 24  1  0  0  0  0
 25 26  2  0  0  0  0
 26 27  1  0  0  0  0
M  END
>  <CHROM.1>
-55.42134026,-69.91534806,-133.11358678,151.53187408,163.51965067,56.22370614
131.67393582,31.55428452,20.31179502,76.76153523,0.11744761,0.26786588,-1.03827677

>  <Name>
ligand

>  <RI>
0

>  <Rbt.Current_Directory>
/home/itssahil/PROJECTS/Mol_Feturizer/New_Systems/rnas/2QWY

>  <Rbt.Executable>
rbdock ($Id: //depot/dev/client3/rdock/2013.1/src/exe/rbdock.cxx#4 $)

>  <Rbt.Library>
libRbt.so (2013.1, Build901 2013/11/27)

>  <Rbt.Parameter_File>
/export/apps/rDock/src/rDock_2013.1_src/data/scripts/dock_solv.prm

>  <Rbt.Receptor>
prm/pocket_docking_2.prm

>  <SCORE>
-13.413

>  <SCORE.INTER>
-17.9117

>  <SCORE.INTER.CONST>
1

>  <SCORE.INTER.POLAR>
0

>  <SCORE.INTER.ROT>
7

>  <SCORE.INTER.SOLV>
12.8612

>  <SCORE.INTER.VDW>
-24.4949

>  <SCORE.INTER.norm>
-0.663397

>  <SCORE.INTRA>
0.404578

>  <SCORE.INTRA.DIHEDRAL>
-1.00818

>  <SCORE.INTRA.DIHEDRAL.0>
10.7382

>  <SCORE.INTRA.POLAR>
0

>  <SCORE.INTRA.POLAR.0>
0

>  <SCORE.INTRA.REPUL>
0

>  <SCORE.INTRA.REPUL.0>
0

>  <SCORE.INTRA.SOLV>
-0.399871

>  <SCORE.INTRA.SOLV.lig_0>
-49.2501

>  <SCORE.INTRA.VDW>
1.1086

>  <SCORE.INTRA.VDW.0>
-1.75368

>  <SCORE.INTRA.norm>
0.0149844

>  <SCORE.RESTR>
4.09418

>  <SCORE.RESTR.CAVITY>
4.09418

>  <SCORE.RESTR.norm>
0.151636

>  <SCORE.SYSTEM>
0

>  <SCORE.SYSTEM.CONST>
0

>  <SCORE.SYSTEM.DIHEDRAL>
0

>  <SCORE.SYSTEM.SOLV>
0

>  <SCORE.SYSTEM.norm>
0

>  <SCORE.heavy>
27

>  <SCORE.norm>
-0.496776

>  <RMSD>
3.516

$$$$
ligand
 OpenBabel11021811463D
libRbt.so/2013.1/901 2013/11/27
 27 29  0  0  0  0  0  0  0  0999 V2000
   36.8203   22.1447   76.4193 N   0  0  0  0  0  0  0  0  0  0  0  0
   38.1528   21.6039   76.7397 C   0  0  2  0  0  0  0  0  0  0  0  0
   39.2175   22.3448   75.9578 C   0  0  0  0  0  0  0  0  0  0  0  0
   40.4060   22.0307   76.0786 O   0  0  0  0  0  0  0  0  0  0  0  0
   38.1975   20.1275   76.3596 C   0  0  0  0  0  0  0  0  0  0  0  0
   37.2080   19.3365   77.1884 C   0  0  0  0  0  0  0  0  0  0  0  0
   37.7654   19.3775   78.9010 S   0  0  2  0  0  0  0  0  0  0  0  0
   38.6942   17.8192   78.9229 C   0  0  0  0  0  0  0  0  0  0  0  0
   36.2401   18.8688   79.7649 C   0  0  0  0  0  0  0  0  0  0  0  0
   35.2454   20.0258   79.7267 C   0  0  1  0  0  0  0  0  0  0  0  0
   34.1487   19.6235   78.9395 O   0  0  0  0  0  0  0  0  0  0  0  0
   34.6804   20.3282   81.1188 C   0  0  1  0  0  0  0  0  0  0  0  0
   35.3464   21.2620   81.9829 O   0  0  0  0  0  0  0  0  0  0  0  0
   33.1722   20.6372   80.8387 C   0  0  1  0  0  0  0  0  0  0  0  0
   32.8230   21.8467   81.5336 O   0  0  0  0  0  0  0  0  0  0  0  0
   33.0602   20.4665   79.2821 C   0  0  2  0  0  0  0  0  0  0  0  0
   38.8903   23.2059   75.1552 O   0  0  0  0  0  0  0  0  0  0  0  0
   28.2574   21.0977   77.3746 N   0  0  0  0  0  0  0  0  0  0  0  0
   29.1568   22.0345   77.6961 C   0  0  0  0  0  0  0  0  0  0  0  0
   30.3475   21.7146   78.1949 N   0  0  0  0  0  0  0  0  0  0  0  0
   30.7067   20.4307   78.3759 C   0  0  0  0  0  0  0  0  0  0  0  0
   29.7940   19.3965   78.0361 C   0  0  0  0  0  0  0  0  0  0  0  0
   28.5239   19.7854   77.5161 C   0  0  0  0  0  0  0  0  0  0  0  0
   27.5842   18.8387   77.1537 N   0  0  0  0  0  0  0  0  0  0  0  0
   30.4029   18.2190   78.3070 N   0  0  0  0  0  0  0  0  0  0  0  0
   31.5950   18.4519   78.7745 C   0  0  0  0  0  0  0  0  0  0  0  0
   31.8297   19.8036   78.8367 N   0  0  0  0  0  0  0  0  0  0  0  0
  2  1  1  6  0  0  0
  2  3  1  0  0  0  0
  2  5  1  0  0  0  0
  3  4  1  0  0  0  0
  3 17  1  0  0  0  0
  5  6  1  0  0  0  0
  7  6  1  6  0  0  0
  7  8  1  0  0  0  0
  7  9  1  0  0  0  0
 10  9  1  1  0  0  0
 10 11  1  0  0  0  0
 10 12  1  0  0  0  0
 11 16  1  0  0  0  0
 12 13  1  6  0  0  0
 12 14  1  0  0  0  0
 14 15  1  6  0  0  0
 14 16  1  0  0  0  0
 16 27  1  1  0  0  0
 18 19  2  0  0  0  0
 18 23  1  0  0  0  0
 19 20  1  0  0  0  0
 20 21  2  0  0  0  0
 21 22  1  0  0  0  0
 21 27  1  0  0  0  0
 22 23  2  0  0  0  0
 22 25  1  0  0  0  0
 23 24  1  0  0  0  0
 25 26  2  0  0  0  0
 26 27  1  0  0  0  0
M  END
>  <CHROM.1>
-179.35112194,-63.48858813,-66.38670769,-94.55592164,-73.28354480,114.05732683
-146.55794054,34.32166098,20.37412260,78.38100468,0.14482914,-0.03270238
-1.15307045

>  <Name>
ligand

>  <RI>
0

>  <Rbt.Current_Directory>
/home/itssahil/PROJECTS/Mol_Feturizer/New_Systems/rnas/2QWY

>  <Rbt.Executable>
rbdock ($Id: //depot/dev/client3/rdock/2013.1/src/exe/rbdock.cxx#4 $)

>  <Rbt.Library>
libRbt.so (2013.1, Build901 2013/11/27)

>  <Rbt.Parameter_File>
/export/apps/rDock/src/rDock_2013.1_src/data/scripts/dock_solv.prm

>  <Rbt.Receptor>
prm/pocket_docking_6.prm

>  <SCORE>
-19.6535

>  <SCORE.INTER>
-19.226

>  <SCORE.INTER.CONST>
1

>  <SCORE.INTER.POLAR>
0

>  <SCORE.INTER.ROT>
7

>  <SCORE.INTER.SOLV>
16.1872

>  <SCORE.INTER.VDW>
-26.4798

>  <SCORE.INTER.norm>
-0.712076

>  <SCORE.INTRA>
-0.427458

>  <SCORE.INTRA.DIHEDRAL>
-0.470296

>  <SCORE.INTRA.DIHEDRAL.0>
10.7382

>  <SCORE.INTRA.POLAR>
0

>  <SCORE.INTRA.POLAR.0>
0

>  <SCORE.INTRA.REPUL>
0

>  <SCORE.INTRA.REPUL.0>
0

>  <SCORE.INTRA.SOLV>
0.338256

>  <SCORE.INTRA.SOLV.lig_0>
-49.2501

>  <SCORE.INTRA.VDW>
-0.361438

>  <SCORE.INTRA.VDW.0>
-1.75368

>  <SCORE.INTRA.norm>
-0.0158318

>  <SCORE.RESTR>
0

>  <SCORE.RESTR.CAVITY>
0

>  <SCORE.RESTR.norm>
0

>  <SCORE.SYSTEM>
0

>  <SCORE.SYSTEM.CONST>
0

>  <SCORE.SYSTEM.DIHEDRAL>
0

>  <SCORE.SYSTEM.SOLV>
0

>  <SCORE.SYSTEM.norm>
0

>  <SCORE.heavy>
27

>  <SCORE.norm>
-0.727908

>  <RMSD>
3.573

$$$$
ligand
 OpenBabel11021811463D
libRbt.so/2013.1/901 2013/11/27
 27 29  0  0  0  0  0  0  0  0999 V2000
   40.6159   20.1054   78.1345 N   0  0  0  0  0  0  0  0  0  0  0  0
   39.4936   20.0384   77.1824 C   0  0  2  0  0  0  0  0  0  0  0  0
   39.6098   21.1506   76.1609 C   0  0  0  0  0  0  0  0  0  0  0  0
   40.5550   21.9441   76.2139 O   0  0  0  0  0  0  0  0  0  0  0  0
   38.1821   20.2010   77.9437 C   0  0  0  0  0  0  0  0  0  0  0  0
   37.0156   19.7445   77.0939 C   0  0  0  0  0  0  0  0  0  0  0  0
   35.4975   20.1807   77.9603 S   0  0  2  0  0  0  0  0  0  0  0  0
   34.3023   19.5197   76.7660 C   0  0  0  0  0  0  0  0  0  0  0  0
   35.3941   21.9637   77.5837 C   0  0  0  0  0  0  0  0  0  0  0  0
   34.1654   22.5420   78.2805 C   0  0  1  0  0  0  0  0  0  0  0  0
   33.0305   21.8878   77.7628 O   0  0  0  0  0  0  0  0  0  0  0  0
   34.1785   22.2438   79.7837 C   0  0  1  0  0  0  0  0  0  0  0  0
   34.8114   23.1540   80.6965 O   0  0  0  0  0  0  0  0  0  0  0  0
   32.6823   21.9135   80.1009 C   0  0  1  0  0  0  0  0  0  0  0  0
   32.2945   22.6559   81.2696 O   0  0  0  0  0  0  0  0  0  0  0  0
   31.9833   22.0661   78.7034 C   0  0  2  0  0  0  0  0  0  0  0  0
   38.8053   21.2171   75.2439 O   0  0  0  0  0  0  0  0  0  0  0  0
   27.0703   21.1605   77.2383 N   0  0  0  0  0  0  0  0  0  0  0  0
   27.6877   22.3355   77.4052 C   0  0  0  0  0  0  0  0  0  0  0  0
   28.9541   22.4062   77.8053 N   0  0  0  0  0  0  0  0  0  0  0  0
   29.6762   21.2950   78.0373 C   0  0  0  0  0  0  0  0  0  0  0  0
   29.0724   20.0213   77.8601 C   0  0  0  0  0  0  0  0  0  0  0  0
   27.7090   19.9926   77.4421 C   0  0  0  0  0  0  0  0  0  0  0  0
   27.0529   18.7930   77.2392 N   0  0  0  0  0  0  0  0  0  0  0  0
   30.0096   19.0894   78.1497 N   0  0  0  0  0  0  0  0  0  0  0  0
   31.1179   19.6861   78.4808 C   0  0  0  0  0  0  0  0  0  0  0  0
   30.9624   21.0495   78.4273 N   0  0  0  0  0  0  0  0  0  0  0  0
  2  1  1  1  0  0  0
  2  3  1  0  0  0  0
  2  5  1  0  0  0  0
  3  4  1  0  0  0  0
  3 17  1  0  0  0  0
  5  6  1  0  0  0  0
  7  6  1  6  0  0  0
  7  8  1  0  0  0  0
  7  9  1  0  0  0  0
 10  9  1  6  0  0  0
 10 11  1  0  0  0  0
 10 12  1  0  0  0  0
 11 16  1  0  0  0  0
 12 13  1  1  0  0  0
 12 14  1  0  0  0  0
 14 15  1  1  0  0  0
 14 16  1  0  0  0  0
 16 27  1  6  0  0  0
 18 19  2  0  0  0  0
 18 23  1  0  0  0  0
 19 20  1  0  0  0  0
 20 21  2  0  0  0  0
 21 22  1  0  0  0  0
 21 27  1  0  0  0  0
 22 23  2  0  0  0  0
 22 25  1  0  0  0  0
 23 24  1  0  0  0  0
 25 26  2  0  0  0  0
 26 27  1  0  0  0  0
M  END
>  <CHROM.1>
0.06815040,-163.56953793,-172.12438281,-179.31561409,-178.31593900,-61.50588960
-117.04867931,33.63382176,21.03490570,77.96691662,0.06243336,-0.05959061
-2.27806858

>  <Name>
ligand

>  <RI>
0

>  <Rbt.Current_Directory>
/home/itssahil/PROJECTS/Mol_Feturizer/New_Systems/rnas/2QWY

>  <Rbt.Executable>
rbdock ($Id: //depot/dev/client3/rdock/2013.1/src/exe/rbdock.cxx#4 $)

>  <Rbt.Library>
libRbt.so (2013.1, Build901 2013/11/27)

>  <Rbt.Parameter_File>
/export/apps/rDock/src/rDock_2013.1_src/data/scripts/dock_solv.prm

>  <Rbt.Receptor>
prm/pocket_docking_7.prm

>  <SCORE>
-18.7631

>  <SCORE.INTER>
-15.5659

>  <SCORE.INTER.CONST>
1

>  <SCORE.INTER.POLAR>
0

>  <SCORE.INTER.ROT>
7

>  <SCORE.INTER.SOLV>
13.4081

>  <SCORE.INTER.VDW>
-23.1133

>  <SCORE.INTER.norm>
-0.576516

>  <SCORE.INTRA>
-3.19716

>  <SCORE.INTRA.DIHEDRAL>
-5.64607

>  <SCORE.INTRA.DIHEDRAL.0>
10.7382

>  <SCORE.INTRA.POLAR>
0

>  <SCORE.INTRA.POLAR.0>
0

>  <SCORE.INTRA.REPUL>
0

>  <SCORE.INTRA.REPUL.0>
0

>  <SCORE.INTRA.SOLV>
-0.919954

>  <SCORE.INTRA.SOLV.lig_0>
-49.2501

>  <SCORE.INTRA.VDW>
0.0858483

>  <SCORE.INTRA.VDW.0>
-1.75368

>  <SCORE.INTRA.norm>
-0.118413

>  <SCORE.RESTR>
0

>  <SCORE.RESTR.CAVITY>
0

>  <SCORE.RESTR.norm>
0

>  <SCORE.SYSTEM>
0

>  <SCORE.SYSTEM.CONST>
0

>  <SCORE.SYSTEM.DIHEDRAL>
0

>  <SCORE.SYSTEM.SOLV>
0

>  <SCORE.SYSTEM.norm>
0

>  <SCORE.heavy>
27

>  <SCORE.norm>
-0.69493

>  <RMSD>
3.578

$$$$
ligand
 OpenBabel11021811463D
libRbt.so/2013.1/901 2013/11/27
 27 29  0  0  0  0  0  0  0  0999 V2000
   36.3226   20.6070   74.5623 N   0  0  0  0  0  0  0  0  0  0  0  0
   36.4253   21.9438   75.1730 C   0  0  2  0  0  0  0  0  0  0  0  0
   37.8766   22.3691   75.2548 C   0  0  0  0  0  0  0  0  0  0  0  0
   38.7608   21.5245   75.4299 O   0  0  0  0  0  0  0  0  0  0  0  0
   35.8438   21.8954   76.5822 C   0  0  0  0  0  0  0  0  0  0  0  0
   36.5206   20.8148   77.3981 C   0  0  0  0  0  0  0  0  0  0  0  0
   35.7594   20.7978   79.0308 S   0  0  2  0  0  0  0  0  0  0  0  0
   36.7723   19.4983   79.7904 C   0  0  0  0  0  0  0  0  0  0  0  0
   34.2294   19.8662   78.6804 C   0  0  0  0  0  0  0  0  0  0  0  0
   33.2315   20.7994   78.0001 C   0  0  1  0  0  0  0  0  0  0  0  0
   32.0999   20.0367   77.6506 O   0  0  0  0  0  0  0  0  0  0  0  0
   32.7320   21.8850   78.9594 C   0  0  1  0  0  0  0  0  0  0  0  0
   33.4359   23.1317   79.0711 O   0  0  0  0  0  0  0  0  0  0  0  0
   31.2117   22.0064   78.6097 C   0  0  1  0  0  0  0  0  0  0  0  0
   30.8929   23.4006   78.4611 O   0  0  0  0  0  0  0  0  0  0  0  0
   31.0268   20.9465   77.4664 C   0  0  2  0  0  0  0  0  0  0  0  0
   38.1754   23.5403   75.0766 O   0  0  0  0  0  0  0  0  0  0  0  0
   25.8254   21.1341   77.3476 N   0  0  0  0  0  0  0  0  0  0  0  0
   26.6989   22.1417   77.2401 C   0  0  0  0  0  0  0  0  0  0  0  0
   28.0112   21.9361   77.3086 N   0  0  0  0  0  0  0  0  0  0  0  0
   28.5168   20.6993   77.4662 C   0  0  0  0  0  0  0  0  0  0  0  0
   27.6326   19.5923   77.5702 C   0  0  0  0  0  0  0  0  0  0  0  0
   26.2332   19.8604   77.5041 C   0  0  0  0  0  0  0  0  0  0  0  0
   25.3086   18.8363   77.5888 N   0  0  0  0  0  0  0  0  0  0  0  0
   28.3938   18.4828   77.7128 N   0  0  0  0  0  0  0  0  0  0  0  0
   29.6503   18.8221   77.7010 C   0  0  0  0  0  0  0  0  0  0  0  0
   29.7782   20.1813   77.5516 N   0  0  0  0  0  0  0  0  0  0  0  0
  2  1  1  1  0  0  0
  2  3  1  0  0  0  0
  2  5  1  0  0  0  0
  3  4  1  0  0  0  0
  3 17  1  0  0  0  0
  5  6  1  0  0  0  0
  7  6  1  6  0  0  0
  7  8  1  0  0  0  0
  7  9  1  0  0  0  0
 10  9  1  1  0  0  0
 10 11  1  0  0  0  0
 10 12  1  0  0  0  0
 11 16  1  0  0  0  0
 12 13  1  6  0  0  0
 12 14  1  0  0  0  0
 14 15  1  6  0  0  0
 14 16  1  0  0  0  0
 16 27  1  1  0  0  0
 18 19  2  0  0  0  0
 18 23  1  0  0  0  0
 19 20  1  0  0  0  0
 20 21  2  0  0  0  0
 21 22  1  0  0  0  0
 21 27  1  0  0  0  0
 22 23  2  0  0  0  0
 22 25  1  0  0  0  0
 23 24  1  0  0  0  0
 25 26  2  0  0  0  0
 26 27  1  0  0  0  0
M  END
>  <CHROM.1>
-32.60212593,54.97884099,-178.85788009,-177.99010472,-78.02805830,175.72264568
177.93069889,32.44294858,21.01789454,77.49439840,0.15569805,-0.04021600,-0.90275215

>  <Name>
ligand

>  <RI>
0

>  <Rbt.Current_Directory>
/home/itssahil/PROJECTS/Mol_Feturizer/New_Systems/rnas/2QWY

>  <Rbt.Executable>
rbdock ($Id: //depot/dev/client3/rdock/2013.1/src/exe/rbdock.cxx#4 $)

>  <Rbt.Library>
libRbt.so (2013.1, Build901 2013/11/27)

>  <Rbt.Parameter_File>
/export/apps/rDock/src/rDock_2013.1_src/data/scripts/dock_solv.prm

>  <Rbt.Receptor>
prm/pocket_docking_8.prm

>  <SCORE>
-28.2874

>  <SCORE.INTER>
-24.8012

>  <SCORE.INTER.CONST>
1

>  <SCORE.INTER.POLAR>
0

>  <SCORE.INTER.ROT>
7

>  <SCORE.INTER.SOLV>
10.7469

>  <SCORE.INTER.VDW>
-28.3831

>  <SCORE.INTER.norm>
-0.918562

>  <SCORE.INTRA>
-3.4862

>  <SCORE.INTRA.DIHEDRAL>
-6.6822

>  <SCORE.INTRA.DIHEDRAL.0>
10.7382

>  <SCORE.INTRA.POLAR>
0

>  <SCORE.INTRA.POLAR.0>
0

>  <SCORE.INTRA.REPUL>
0

>  <SCORE.INTRA.REPUL.0>
0

>  <SCORE.INTRA.SOLV>
0.0482616

>  <SCORE.INTRA.SOLV.lig_0>
-49.2501

>  <SCORE.INTRA.VDW>
-0.169228

>  <SCORE.INTRA.VDW.0>
-1.75368

>  <SCORE.INTRA.norm>
-0.129118

>  <SCORE.RESTR>
0

>  <SCORE.RESTR.CAVITY>
0

>  <SCORE.RESTR.norm>
0

>  <SCORE.SYSTEM>
0

>  <SCORE.SYSTEM.CONST>
0

>  <SCORE.SYSTEM.DIHEDRAL>
0

>  <SCORE.SYSTEM.SOLV>
0

>  <SCORE.SYSTEM.norm>
0

>  <SCORE.heavy>
27

>  <SCORE.norm>
-1.04768

>  <RMSD>
3.580

$$$$
ligand
 OpenBabel11021811463D
libRbt.so/2013.1/901 2013/11/27
 27 29  0  0  0  0  0  0  0  0999 V2000
   38.6027   18.7309   77.4207 N   0  0  0  0  0  0  0  0  0  0  0  0
   37.1758   18.3866   77.2937 C   0  0  2  0  0  0  0  0  0  0  0  0
   36.7616   18.4112   75.8371 C   0  0  0  0  0  0  0  0  0  0  0  0
   35.9048   17.6235   75.4233 O   0  0  0  0  0  0  0  0  0  0  0  0
   36.3448   19.4094   78.0616 C   0  0  0  0  0  0  0  0  0  0  0  0
   36.5909   19.2826   79.5498 C   0  0  0  0  0  0  0  0  0  0  0  0
   35.5828   20.5213   80.3834 S   0  0  2  0  0  0  0  0  0  0  0  0
   35.9217   20.0391   82.0993 C   0  0  0  0  0  0  0  0  0  0  0  0
   33.9176   19.8082   80.1592 C   0  0  0  0  0  0  0  0  0  0  0  0
   33.2187   20.5427   79.0184 C   0  0  1  0  0  0  0  0  0  0  0  0
   32.1468   19.7391   78.5831 O   0  0  0  0  0  0  0  0  0  0  0  0
   32.5959   21.8594   79.4949 C   0  0  1  0  0  0  0  0  0  0  0  0
   33.3624   23.0734   79.4696 O   0  0  0  0  0  0  0  0  0  0  0  0
   31.2334   21.9146   78.7275 C   0  0  1  0  0  0  0  0  0  0  0  0
   31.0960   23.2224   78.1459 O   0  0  0  0  0  0  0  0  0  0  0  0
   31.2469   20.5878   77.8883 C   0  0  2  0  0  0  0  0  0  0  0  0
   37.2259   19.2588   75.0897 O   0  0  0  0  0  0  0  0  0  0  0  0
   26.1062   21.1117   77.2539 N   0  0  0  0  0  0  0  0  0  0  0  0
   27.0464   22.0633   77.2642 C   0  0  0  0  0  0  0  0  0  0  0  0
   28.3297   21.7723   77.4580 N   0  0  0  0  0  0  0  0  0  0  0  0
   28.7396   20.5024   77.6291 C   0  0  0  0  0  0  0  0  0  0  0  0
   27.7829   19.4523   77.6115 C   0  0  0  0  0  0  0  0  0  0  0  0
   26.4167   19.8112   77.4132 C   0  0  0  0  0  0  0  0  0  0  0  0
   25.4270   18.8469   77.3746 N   0  0  0  0  0  0  0  0  0  0  0  0
   28.4559   18.2933   77.7970 N   0  0  0  0  0  0  0  0  0  0  0  0
   29.7255   18.5514   77.9213 C   0  0  0  0  0  0  0  0  0  0  0  0
   29.9514   19.9026   77.8254 N   0  0  0  0  0  0  0  0  0  0  0  0
  2  1  1  6  0  0  0
  2  3  1  0  0  0  0
  2  5  1  0  0  0  0
  3  4  1  0  0  0  0
  3 17  1  0  0  0  0
  5  6  1  0  0  0  0
  7  6  1  6  0  0  0
  7  8  1  0  0  0  0
  7  9  1  0  0  0  0
 10  9  1  1  0  0  0
 10 11  1  0  0  0  0
 10 12  1  0  0  0  0
 11 16  1  0  0  0  0
 12 13  1  6  0  0  0
 12 14  1  0  0  0  0
 14 15  1  6  0  0  0
 14 16  1  0  0  0  0
 16 27  1  1  0  0  0
 18 19  2  0  0  0  0
 18 23  1  0  0  0  0
 19 20  1  0  0  0  0
 20 21  2  0  0  0  0
 21 22  1  0  0  0  0
 21 27  1  0  0  0  0
 22 23  2  0  0  0  0
 22 25  1  0  0  0  0
 23 24  1  0  0  0  0
 25 26  2  0  0  0  0
 26 27  1  0  0  0  0
M  END
>  <CHROM.1>
146.46845848,-67.59389258,179.82375081,174.26200452,-101.26750226,161.86316027
158.37529059,32.39623079,20.13440416,78.19911175,0.02174756,0.13008922,-2.23933190

>  <Name>
ligand

>  <RI>
0

>  <Rbt.Current_Directory>
/home/itssahil/PROJECTS/Mol_Feturizer/New_Systems/rnas/2QWY

>  <Rbt.Executable>
rbdock ($Id: //depot/dev/client3/rdock/2013.1/src/exe/rbdock.cxx#4 $)

>  <Rbt.Library>
libRbt.so (2013.1, Build901 2013/11/27)

>  <Rbt.Parameter_File>
/export/apps/rDock/src/rDock_2013.1_src/data/scripts/dock_solv.prm

>  <Rbt.Receptor>
prm/pocket_docking_4.prm

>  <SCORE>
-27.136

>  <SCORE.INTER>
-24.1628

>  <SCORE.INTER.CONST>
1

>  <SCORE.INTER.POLAR>
0

>  <SCORE.INTER.ROT>
7

>  <SCORE.INTER.SOLV>
10.2258

>  <SCORE.INTER.VDW>
-27.7838

>  <SCORE.INTER.norm>
-0.894918

>  <SCORE.INTRA>
-2.97594

>  <SCORE.INTRA.DIHEDRAL>
-4.07641

>  <SCORE.INTRA.DIHEDRAL.0>
10.7382

>  <SCORE.INTRA.POLAR>
0

>  <SCORE.INTRA.POLAR.0>
0

>  <SCORE.INTRA.REPUL>
0

>  <SCORE.INTRA.REPUL.0>
0

>  <SCORE.INTRA.SOLV>
-0.369658

>  <SCORE.INTRA.SOLV.lig_0>
-49.2501

>  <SCORE.INTRA.VDW>
-0.752902

>  <SCORE.INTRA.VDW.0>
-1.75368

>  <SCORE.INTRA.norm>
-0.11022

>  <SCORE.RESTR>
0.00272978

>  <SCORE.RESTR.CAVITY>
0.00272978

>  <SCORE.RESTR.norm>
0.000101103

>  <SCORE.SYSTEM>
0

>  <SCORE.SYSTEM.CONST>
0

>  <SCORE.SYSTEM.DIHEDRAL>
0

>  <SCORE.SYSTEM.SOLV>
0

>  <SCORE.SYSTEM.norm>
0

>  <SCORE.heavy>
27

>  <SCORE.norm>
-1.00504

>  <RMSD>
3.585

$$$$
ligand
 OpenBabel11021811463D
libRbt.so/2013.1/901 2013/11/27
 27 29  0  0  0  0  0  0  0  0999 V2000
   35.2956   18.1863   74.0144 N   0  0  0  0  0  0  0  0  0  0  0  0
   35.2985   19.5083   74.6648 C   0  0  2  0  0  0  0  0  0  0  0  0
   36.5663   20.2589   74.3138 C   0  0  0  0  0  0  0  0  0  0  0  0
   36.5673   21.4938   74.2848 O   0  0  0  0  0  0  0  0  0  0  0  0
   35.2372   19.3211   76.1773 C   0  0  0  0  0  0  0  0  0  0  0  0
   35.5161   20.6297   76.8852 C   0  0  0  0  0  0  0  0  0  0  0  0
   33.9570   21.2414   77.5489 S   0  0  2  0  0  0  0  0  0  0  0  0
   34.5551   22.8013   78.2565 C   0  0  0  0  0  0  0  0  0  0  0  0
   33.8104   20.2251   79.0579 C   0  0  0  0  0  0  0  0  0  0  0  0
   32.4548   19.5239   79.0476 C   0  0  1  0  0  0  0  0  0  0  0  0
   31.4570   20.5182   79.0405 O   0  0  0  0  0  0  0  0  0  0  0  0
   32.2520   18.7099   77.7651 C   0  0  1  0  0  0  0  0  0  0  0  0
   32.6773   17.3398   77.7027 O   0  0  0  0  0  0  0  0  0  0  0  0
   30.7481   18.9583   77.4120 C   0  0  1  0  0  0  0  0  0  0  0  0
   30.1377   17.6894   77.1205 O   0  0  0  0  0  0  0  0  0  0  0  0
   30.2672   19.9091   78.5650 C   0  0  2  0  0  0  0  0  0  0  0  0
   37.6042   19.6413   74.1290 O   0  0  0  0  0  0  0  0  0  0  0  0
   25.6890   21.0838   76.3823 N   0  0  0  0  0  0  0  0  0  0  0  0
   26.2119   19.8766   76.6248 C   0  0  0  0  0  0  0  0  0  0  0  0
   27.4134   19.7363   77.1777 N   0  0  0  0  0  0  0  0  0  0  0  0
   28.1453   20.8061   77.5383 C   0  0  0  0  0  0  0  0  0  0  0  0
   27.6293   22.1110   77.3166 C   0  0  0  0  0  0  0  0  0  0  0  0
   26.3425   22.2147   76.7099 C   0  0  0  0  0  0  0  0  0  0  0  0
   25.7677   23.4485   76.4690 N   0  0  0  0  0  0  0  0  0  0  0  0
   28.5519   22.9899   77.7717 N   0  0  0  0  0  0  0  0  0  0  0  0
   29.5699   22.3331   78.2472 C   0  0  0  0  0  0  0  0  0  0  0  0
   29.3667   20.9804   78.1252 N   0  0  0  0  0  0  0  0  0  0  0  0
  2  1  1  6  0  0  0
  2  3  1  0  0  0  0
  2  5  1  0  0  0  0
  3  4  1  0  0  0  0
  3 17  1  0  0  0  0
  5  6  1  0  0  0  0
  7  6  1  6  0  0  0
  7  8  1  0  0  0  0
  7  9  1  0  0  0  0
 10  9  1  6  0  0  0
 10 11  1  0  0  0  0
 10 12  1  0  0  0  0
 11 16  1  0  0  0  0
 12 13  1  1  0  0  0
 12 14  1  0  0  0  0
 14 15  1  1  0  0  0
 14 16  1  0  0  0  0
 16 27  1  6  0  0  0
 18 19  2  0  0  0  0
 18 23  1  0  0  0  0
 19 20  1  0  0  0  0
 20 21  2  0  0  0  0
 21 22  1  0  0  0  0
 21 27  1  0  0  0  0
 22 23  2  0  0  0  0
 22 25  1  0  0  0  0
 23 24  1  0  0  0  0
 25 26  2  0  0  0  0
 26 27  1  0  0  0  0
M  END
>  <CHROM.1>
151.53284886,168.68198597,106.36070390,-177.71622702,-126.28355402,-60.92029782
176.42614027,31.69284228,20.43149807,76.99166270,0.15673084,-0.18335762,-3.11078371

>  <Name>
ligand

>  <RI>
0

>  <Rbt.Current_Directory>
/home/itssahil/PROJECTS/Mol_Feturizer/New_Systems/rnas/2QWY

>  <Rbt.Executable>
rbdock ($Id: //depot/dev/client3/rdock/2013.1/src/exe/rbdock.cxx#4 $)

>  <Rbt.Library>
libRbt.so (2013.1, Build901 2013/11/27)

>  <Rbt.Parameter_File>
/export/apps/rDock/src/rDock_2013.1_src/data/scripts/dock_solv.prm

>  <Rbt.Receptor>
prm/pocket_docking_2.prm

>  <SCORE>
10.0856

>  <SCORE.INTER>
4.60199

>  <SCORE.INTER.CONST>
1

>  <SCORE.INTER.POLAR>
0

>  <SCORE.INTER.ROT>
7

>  <SCORE.INTER.SOLV>
17.3708

>  <SCORE.INTER.VDW>
-10.9889

>  <SCORE.INTER.norm>
0.170444

>  <SCORE.INTRA>
0.712756

>  <SCORE.INTRA.DIHEDRAL>
2.20964

>  <SCORE.INTRA.DIHEDRAL.0>
10.7382

>  <SCORE.INTRA.POLAR>
0

>  <SCORE.INTRA.POLAR.0>
0

>  <SCORE.INTRA.REPUL>
0

>  <SCORE.INTRA.REPUL.0>
0

>  <SCORE.INTRA.SOLV>
-0.699188

>  <SCORE.INTRA.SOLV.lig_0>
-49.2501

>  <SCORE.INTRA.VDW>
-0.0424702

>  <SCORE.INTRA.VDW.0>
-1.75368

>  <SCORE.INTRA.norm>
0.0263984

>  <SCORE.RESTR>
4.77084

>  <SCORE.RESTR.CAVITY>
4.77084

>  <SCORE.RESTR.norm>
0.176698

>  <SCORE.SYSTEM>
0

>  <SCORE.SYSTEM.CONST>
0

>  <SCORE.SYSTEM.DIHEDRAL>
0

>  <SCORE.SYSTEM.SOLV>
0

>  <SCORE.SYSTEM.norm>
0

>  <SCORE.heavy>
27

>  <SCORE.norm>
0.37354

>  <RMSD>
3.643

$$$$
ligand
 OpenBabel11021811463D
libRbt.so/2013.1/901 2013/11/27
 27 29  0  0  0  0  0  0  0  0999 V2000
   37.2894   23.9691   78.4596 N   0  0  0  0  0  0  0  0  0  0  0  0
   37.6679   22.9581   77.4569 C   0  0  2  0  0  0  0  0  0  0  0  0
   37.0807   23.3172   76.1077 C   0  0  0  0  0  0  0  0  0  0  0  0
   37.7097   23.0723   75.0733 O   0  0  0  0  0  0  0  0  0  0  0  0
   37.1243   21.5996   77.8872 C   0  0  0  0  0  0  0  0  0  0  0  0
   37.6393   20.5087   76.9729 C   0  0  0  0  0  0  0  0  0  0  0  0
   36.9999   18.9360   77.5755 S   0  0  2  0  0  0  0  0  0  0  0  0
   37.8469   17.8328   76.4105 C   0  0  0  0  0  0  0  0  0  0  0  0
   35.3223   18.9557   76.8566 C   0  0  0  0  0  0  0  0  0  0  0  0
   34.4421   19.8833   77.6899 C   0  0  1  0  0  0  0  0  0  0  0  0
   33.1112   19.7116   77.2617 O   0  0  0  0  0  0  0  0  0  0  0  0
   34.4641   19.4978   79.1729 C   0  0  1  0  0  0  0  0  0  0  0  0
   35.4509   20.0593   80.0521 O   0  0  0  0  0  0  0  0  0  0  0  0
   32.9788   19.6992   79.6219 C   0  0  1  0  0  0  0  0  0  0  0  0
   32.9762   20.4491   80.8488 O   0  0  0  0  0  0  0  0  0  0  0  0
   32.2749   20.1852   78.3054 C   0  0  2  0  0  0  0  0  0  0  0  0
   35.9538   23.7847   76.0428 O   0  0  0  0  0  0  0  0  0  0  0  0
   27.2618   21.1866   77.3207 N   0  0  0  0  0  0  0  0  0  0  0  0
   28.2707   22.0518   77.4728 C   0  0  0  0  0  0  0  0  0  0  0  0
   29.5065   21.6401   77.7420 N   0  0  0  0  0  0  0  0  0  0  0  0
   29.7985   20.3313   77.8499 C   0  0  0  0  0  0  0  0  0  0  0  0
   28.7660   19.3701   77.6820 C   0  0  0  0  0  0  0  0  0  0  0  0
   27.4536   19.8566   77.4069 C   0  0  0  0  0  0  0  0  0  0  0  0
   26.3968   18.9849   77.2219 N   0  0  0  0  0  0  0  0  0  0  0  0
   29.3270   18.1481   77.8325 N   0  0  0  0  0  0  0  0  0  0  0  0
   30.5986   18.2881   78.0720 C   0  0  0  0  0  0  0  0  0  0  0  0
   30.9385   19.6186   78.0934 N   0  0  0  0  0  0  0  0  0  0  0  0
  2  1  1  1  0  0  0
  2  3  1  0  0  0  0
  2  5  1  0  0  0  0
  3  4  1  0  0  0  0
  3 17  1  0  0  0  0
  5  6  1  0  0  0  0
  7  6  1  6  0  0  0
  7  8  1  0  0  0  0
  7  9  1  0  0  0  0
 10  9  1  6  0  0  0
 10 11  1  0  0  0  0
 10 12  1  0  0  0  0
 11 16  1  0  0  0  0
 12 13  1  1  0  0  0
 12 14  1  0  0  0  0
 14 15  1  1  0  0  0
 14 16  1  0  0  0  0
 16 27  1  6  0  0  0
 18 19  2  0  0  0  0
 18 23  1  0  0  0  0
 19 20  1  0  0  0  0
 20 21  2  0  0  0  0
 21 22  1  0  0  0  0
 21 27  1  0  0  0  0
 22 23  2  0  0  0  0
 22 25  1  0  0  0  0
 23 24  1  0  0  0  0
 25 26  2  0  0  0  0
 26 27  1  0  0  0  0
M  END
>  <CHROM.1>
144.86339764,-172.93844685,178.18137243,-176.04868172,-77.41335138,-170.25089641
-117.60383604,33.44605585,20.45779570,77.71465829,0.17371428,0.02175879,-0.29408855

>  <Name>
ligand

>  <RI>
0

>  <Rbt.Current_Directory>
/home/itssahil/PROJECTS/Mol_Feturizer/New_Systems/rnas/2QWY

>  <Rbt.Executable>
rbdock ($Id: //depot/dev/client3/rdock/2013.1/src/exe/rbdock.cxx#4 $)

>  <Rbt.Library>
libRbt.so (2013.1, Build901 2013/11/27)

>  <Rbt.Parameter_File>
/export/apps/rDock/src/rDock_2013.1_src/data/scripts/dock_solv.prm

>  <Rbt.Receptor>
prm/pocket_docking_7.prm

>  <SCORE>
-26.2557

>  <SCORE.INTER>
-22.1032

>  <SCORE.INTER.CONST>
1

>  <SCORE.INTER.POLAR>
0

>  <SCORE.INTER.ROT>
7

>  <SCORE.INTER.SOLV>
12.4668

>  <SCORE.INTER.VDW>
-27.1577

>  <SCORE.INTER.norm>
-0.818637

>  <SCORE.INTRA>
-4.15247

>  <SCORE.INTRA.DIHEDRAL>
-6.47028

>  <SCORE.INTRA.DIHEDRAL.0>
10.7382

>  <SCORE.INTRA.POLAR>
0

>  <SCORE.INTRA.POLAR.0>
0

>  <SCORE.INTRA.REPUL>
0

>  <SCORE.INTRA.REPUL.0>
0

>  <SCORE.INTRA.SOLV>
-0.750392

>  <SCORE.INTRA.SOLV.lig_0>
-49.2501

>  <SCORE.INTRA.VDW>
-0.542134

>  <SCORE.INTRA.VDW.0>
-1.75368

>  <SCORE.INTRA.norm>
-0.153795

>  <SCORE.RESTR>
0

>  <SCORE.RESTR.CAVITY>
0

>  <SCORE.RESTR.norm>
0

>  <SCORE.SYSTEM>
0

>  <SCORE.SYSTEM.CONST>
0

>  <SCORE.SYSTEM.DIHEDRAL>
0

>  <SCORE.SYSTEM.SOLV>
0

>  <SCORE.SYSTEM.norm>
0

>  <SCORE.heavy>
27

>  <SCORE.norm>
-0.972433

>  <RMSD>
3.684

$$$$
ligand
 OpenBabel11021811463D
libRbt.so/2013.1/901 2013/11/27
 27 29  0  0  0  0  0  0  0  0999 V2000
   38.6403   21.5877   78.3249 N   0  0  0  0  0  0  0  0  0  0  0  0
   38.5577   21.1416   76.9232 C   0  0  2  0  0  0  0  0  0  0  0  0
   39.5582   21.8994   76.0754 C   0  0  0  0  0  0  0  0  0  0  0  0
   40.4610   21.2918   75.4911 O   0  0  0  0  0  0  0  0  0  0  0  0
   37.1535   21.4146   76.3938 C   0  0  0  0  0  0  0  0  0  0  0  0
   36.1980   20.3292   76.8410 C   0  0  0  0  0  0  0  0  0  0  0  0
   35.8063   20.6188   78.5754 S   0  0  2  0  0  0  0  0  0  0  0  0
   36.8378   19.3188   79.3087 C   0  0  0  0  0  0  0  0  0  0  0  0
   34.1595   19.8392   78.6846 C   0  0  0  0  0  0  0  0  0  0  0  0
   33.1477   20.7267   77.9648 C   0  0  1  0  0  0  0  0  0  0  0  0
   32.0252   19.9341   77.6550 O   0  0  0  0  0  0  0  0  0  0  0  0
   32.6368   21.8494   78.8741 C   0  0  1  0  0  0  0  0  0  0  0  0
   33.3247   23.1089   78.9253 O   0  0  0  0  0  0  0  0  0  0  0  0
   31.1140   21.9348   78.5242 C   0  0  1  0  0  0  0  0  0  0  0  0
   30.7768   23.3163   78.3118 O   0  0  0  0  0  0  0  0  0  0  0  0
   30.9399   20.8204   77.4321 C   0  0  2  0  0  0  0  0  0  0  0  0
   39.4269   23.1034   75.9149 O   0  0  0  0  0  0  0  0  0  0  0  0
   25.7356   20.9438   77.3684 N   0  0  0  0  0  0  0  0  0  0  0  0
   26.5957   21.9574   77.2176 C   0  0  0  0  0  0  0  0  0  0  0  0
   27.9110   21.7693   77.2774 N   0  0  0  0  0  0  0  0  0  0  0  0
   28.4332   20.5443   77.4695 C   0  0  0  0  0  0  0  0  0  0  0  0
   27.5635   19.4311   77.6202 C   0  0  0  0  0  0  0  0  0  0  0  0
   26.1603   19.6807   77.5618 C   0  0  0  0  0  0  0  0  0  0  0  0
   25.2491   18.6493   77.6909 N   0  0  0  0  0  0  0  0  0  0  0  0
   28.3395   18.3359   77.7902 N   0  0  0  0  0  0  0  0  0  0  0  0
   29.5916   18.6891   77.7525 C   0  0  0  0  0  0  0  0  0  0  0  0
   29.7016   20.0440   77.5570 N   0  0  0  0  0  0  0  0  0  0  0  0
  2  1  1  1  0  0  0
  2  3  1  0  0  0  0
  2  5  1  0  0  0  0
  3  4  1  0  0  0  0
  3 17  1  0  0  0  0
  5  6  1  0  0  0  0
  7  6  1  6  0  0  0
  7  8  1  0  0  0  0
  7  9  1  0  0  0  0
 10  9  1  1  0  0  0
 10 11  1  0  0  0  0
 10 12  1  0  0  0  0
 11 16  1  0  0  0  0
 12 13  1  6  0  0  0
 12 14  1  0  0  0  0
 14 15  1  6  0  0  0
 14 16  1  0  0  0  0
 16 27  1  1  0  0  0
 18 19  2  0  0  0  0
 18 23  1  0  0  0  0
 19 20  1  0  0  0  0
 20 21  2  0  0  0  0
 21 22  1  0  0  0  0
 21 27  1  0  0  0  0
 22 23  2  0  0  0  0
 22 25  1  0  0  0  0
 23 24  1  0  0  0  0
 25 26  2  0  0  0  0
 26 27  1  0  0  0  0
M  END
>  <CHROM.1>
118.33418378,-80.68261074,76.21126339,-104.03781018,-72.74944429,160.12563894
176.99999317,32.75920329,20.85358934,77.65795125,-0.11215321,-0.04092407
3.02783718

>  <Name>
ligand

>  <RI>
0

>  <Rbt.Current_Directory>
/home/itssahil/PROJECTS/Mol_Feturizer/New_Systems/rnas/2QWY

>  <Rbt.Executable>
rbdock ($Id: //depot/dev/client3/rdock/2013.1/src/exe/rbdock.cxx#4 $)

>  <Rbt.Library>
libRbt.so (2013.1, Build901 2013/11/27)

>  <Rbt.Parameter_File>
/export/apps/rDock/src/rDock_2013.1_src/data/scripts/dock_solv.prm

>  <Rbt.Receptor>
prm/pocket_docking_6.prm

>  <SCORE>
-23.0302

>  <SCORE.INTER>
-22.941

>  <SCORE.INTER.CONST>
1

>  <SCORE.INTER.POLAR>
0

>  <SCORE.INTER.ROT>
7

>  <SCORE.INTER.SOLV>
10.0838

>  <SCORE.INTER.VDW>
-26.9219

>  <SCORE.INTER.norm>
-0.849668

>  <SCORE.INTRA>
-0.0891345

>  <SCORE.INTRA.DIHEDRAL>
-0.966465

>  <SCORE.INTRA.DIHEDRAL.0>
10.7382

>  <SCORE.INTRA.POLAR>
0

>  <SCORE.INTRA.POLAR.0>
0

>  <SCORE.INTRA.REPUL>
0

>  <SCORE.INTRA.REPUL.0>
0

>  <SCORE.INTRA.SOLV>
1.91321

>  <SCORE.INTRA.SOLV.lig_0>
-49.2501

>  <SCORE.INTRA.VDW>
-0.562508

>  <SCORE.INTRA.VDW.0>
-1.75368

>  <SCORE.INTRA.norm>
-0.00330128

>  <SCORE.RESTR>
0

>  <SCORE.RESTR.CAVITY>
0

>  <SCORE.RESTR.norm>
0

>  <SCORE.SYSTEM>
0

>  <SCORE.SYSTEM.CONST>
0

>  <SCORE.SYSTEM.DIHEDRAL>
0

>  <SCORE.SYSTEM.SOLV>
0

>  <SCORE.SYSTEM.norm>
0

>  <SCORE.heavy>
27

>  <SCORE.norm>
-0.852969

>  <RMSD>
3.913

$$$$
ligand
 OpenBabel11021811463D
libRbt.so/2013.1/901 2013/11/27
 27 29  0  0  0  0  0  0  0  0999 V2000
   38.2421   22.5680   75.4682 N   0  0  0  0  0  0  0  0  0  0  0  0
   39.0192   22.2173   76.6699 C   0  0  2  0  0  0  0  0  0  0  0  0
   40.4947   22.1497   76.3347 C   0  0  0  0  0  0  0  0  0  0  0  0
   40.9224   21.2546   75.5988 O   0  0  0  0  0  0  0  0  0  0  0  0
   38.5644   20.8532   77.1785 C   0  0  0  0  0  0  0  0  0  0  0  0
   37.4049   21.0053   78.1395 C   0  0  0  0  0  0  0  0  0  0  0  0
   35.9709   21.5465   77.1930 S   0  0  2  0  0  0  0  0  0  0  0  0
   36.0982   23.3299   77.5008 C   0  0  0  0  0  0  0  0  0  0  0  0
   34.6222   21.1053   78.3410 C   0  0  0  0  0  0  0  0  0  0  0  0
   33.3690   21.8829   77.9480 C   0  0  1  0  0  0  0  0  0  0  0  0
   32.3703   20.9473   77.6140 O   0  0  0  0  0  0  0  0  0  0  0  0
   32.8161   22.6918   79.1263 C   0  0  1  0  0  0  0  0  0  0  0  0
   33.2692   24.0345   79.3585 O   0  0  0  0  0  0  0  0  0  0  0  0
   31.2666   22.5258   78.9847 C   0  0  1  0  0  0  0  0  0  0  0  0
   30.6608   23.8240   79.1079 O   0  0  0  0  0  0  0  0  0  0  0  0
   31.1238   21.6180   77.7118 C   0  0  2  0  0  0  0  0  0  0  0  0
   41.2477   23.0236   76.7371 O   0  0  0  0  0  0  0  0  0  0  0  0
   26.0170   20.6225   77.5283 N   0  0  0  0  0  0  0  0  0  0  0  0
   26.6435   21.7960   77.3863 C   0  0  0  0  0  0  0  0  0  0  0  0
   27.9667   21.8946   77.4780 N   0  0  0  0  0  0  0  0  0  0  0  0
   28.7343   20.8111   77.6951 C   0  0  0  0  0  0  0  0  0  0  0  0
   28.1197   19.5383   77.8380 C   0  0  0  0  0  0  0  0  0  0  0  0
   26.6976   19.4809   77.7450 C   0  0  0  0  0  0  0  0  0  0  0  0
   26.0254   18.2789   77.8644 N   0  0  0  0  0  0  0  0  0  0  0  0
   29.1079   18.6358   78.0373 N   0  0  0  0  0  0  0  0  0  0  0  0
   30.2558   19.2490   78.0244 C   0  0  0  0  0  0  0  0  0  0  0  0
   30.0778   20.5949   77.8169 N   0  0  0  0  0  0  0  0  0  0  0  0
  2  1  1  6  0  0  0
  2  3  1  0  0  0  0
  2  5  1  0  0  0  0
  3  4  1  0  0  0  0
  3 17  1  0  0  0  0
  5  6  1  0  0  0  0
  7  6  1  1  0  0  0
  7  8  1  0  0  0  0
  7  9  1  0  0  0  0
 10  9  1  1  0  0  0
 10 11  1  0  0  0  0
 10 12  1  0  0  0  0
 11 16  1  0  0  0  0
 12 13  1  6  0  0  0
 12 14  1  0  0  0  0
 14 15  1  6  0  0  0
 14 16  1  0  0  0  0
 16 27  1  1  0  0  0
 18 19  2  0  0  0  0
 18 23  1  0  0  0  0
 19 20  1  0  0  0  0
 20 21  2  0  0  0  0
 21 22  1  0  0  0  0
 21 27  1  0  0  0  0
 22 23  2  0  0  0  0
 22 25  1  0  0  0  0
 23 24  1  0  0  0  0
 25 26  2  0  0  0  0
 26 27  1  0  0  0  0
M  END
>  <CHROM.1>
-68.07224247,-88.38994654,69.38739011,-96.50846449,161.49914883,119.00220683
-167.83791503,33.15590962,21.44887770,77.62386365,-0.09900213,-0.14879447
-2.77745045

>  <Name>
ligand

>  <RI>
0

>  <Rbt.Current_Directory>
/home/itssahil/PROJECTS/Mol_Feturizer/New_Systems/rnas/2QWY

>  <Rbt.Executable>
rbdock ($Id: //depot/dev/client3/rdock/2013.1/src/exe/rbdock.cxx#4 $)

>  <Rbt.Library>
libRbt.so (2013.1, Build901 2013/11/27)

>  <Rbt.Parameter_File>
/export/apps/rDock/src/rDock_2013.1_src/data/scripts/dock_solv.prm

>  <Rbt.Receptor>
prm/pocket_docking_7.prm

>  <SCORE>
-17.7744

>  <SCORE.INTER>
-20.3164

>  <SCORE.INTER.CONST>
1

>  <SCORE.INTER.POLAR>
0

>  <SCORE.INTER.ROT>
7

>  <SCORE.INTER.SOLV>
15.811

>  <SCORE.INTER.VDW>
-27.0813

>  <SCORE.INTER.norm>
-0.752461

>  <SCORE.INTRA>
2.54201

>  <SCORE.INTRA.DIHEDRAL>
2.78636

>  <SCORE.INTRA.DIHEDRAL.0>
10.7382

>  <SCORE.INTRA.POLAR>
0

>  <SCORE.INTRA.POLAR.0>
0

>  <SCORE.INTRA.REPUL>
0

>  <SCORE.INTRA.REPUL.0>
0

>  <SCORE.INTRA.SOLV>
1.86331

>  <SCORE.INTRA.SOLV.lig_0>
-49.2501

>  <SCORE.INTRA.VDW>
0.217174

>  <SCORE.INTRA.VDW.0>
-1.75368

>  <SCORE.INTRA.norm>
0.0941486

>  <SCORE.RESTR>
0

>  <SCORE.RESTR.CAVITY>
0

>  <SCORE.RESTR.norm>
0

>  <SCORE.SYSTEM>
0

>  <SCORE.SYSTEM.CONST>
0

>  <SCORE.SYSTEM.DIHEDRAL>
0

>  <SCORE.SYSTEM.SOLV>
0

>  <SCORE.SYSTEM.norm>
0

>  <SCORE.heavy>
27

>  <SCORE.norm>
-0.658312

>  <RMSD>
3.999

$$$$
ligand
 OpenBabel11021811463D
libRbt.so/2013.1/901 2013/11/27
 27 29  0  0  0  0  0  0  0  0999 V2000
   37.7423   20.7123   75.2094 N   0  0  0  0  0  0  0  0  0  0  0  0
   37.0163   21.8096   75.8724 C   0  0  2  0  0  0  0  0  0  0  0  0
   37.8093   23.0958   75.7697 C   0  0  0  0  0  0  0  0  0  0  0  0
   39.0172   23.0602   75.5133 O   0  0  0  0  0  0  0  0  0  0  0  0
   36.8241   21.4633   77.3453 C   0  0  0  0  0  0  0  0  0  0  0  0
   35.6808   20.4859   77.5153 C   0  0  0  0  0  0  0  0  0  0  0  0
   35.1689   20.5303   79.2419 S   0  0  2  0  0  0  0  0  0  0  0  0
   36.1465   19.1292   79.8525 C   0  0  0  0  0  0  0  0  0  0  0  0
   33.5184   19.7596   79.1248 C   0  0  0  0  0  0  0  0  0  0  0  0
   32.6294   20.6346   78.2454 C   0  0  1  0  0  0  0  0  0  0  0  0
   31.4905   19.8806   77.9012 O   0  0  0  0  0  0  0  0  0  0  0  0
   32.1132   21.8590   79.0089 C   0  0  1  0  0  0  0  0  0  0  0  0
   32.8713   23.0785   79.0183 O   0  0  0  0  0  0  0  0  0  0  0  0
   30.6344   21.9966   78.5162 C   0  0  1  0  0  0  0  0  0  0  0  0
   30.4034   23.3706   78.1609 O   0  0  0  0  0  0  0  0  0  0  0  0
   30.4856   20.8020   77.5084 C   0  0  2  0  0  0  0  0  0  0  0  0
   37.2365   24.1702   75.8712 O   0  0  0  0  0  0  0  0  0  0  0  0
   25.3033   21.2956   77.4509 N   0  0  0  0  0  0  0  0  0  0  0  0
   26.2332   22.2534   77.3645 C   0  0  0  0  0  0  0  0  0  0  0  0
   27.5317   21.9698   77.4128 N   0  0  0  0  0  0  0  0  0  0  0  0
   27.9656   20.7014   77.5276 C   0  0  0  0  0  0  0  0  0  0  0  0
   27.0191   19.6450   77.6077 C   0  0  0  0  0  0  0  0  0  0  0  0
   25.6372   19.9960   77.5647 C   0  0  0  0  0  0  0  0  0  0  0  0
   24.6551   19.0254   77.6283 N   0  0  0  0  0  0  0  0  0  0  0  0
   27.7153   18.4894   77.7087 N   0  0  0  0  0  0  0  0  0  0  0  0
   28.9893   18.7551   77.6937 C   0  0  0  0  0  0  0  0  0  0  0  0
   29.1952   20.1085   77.5839 N   0  0  0  0  0  0  0  0  0  0  0  0
  2  1  1  6  0  0  0
  2  3  1  0  0  0  0
  2  5  1  0  0  0  0
  3  4  1  0  0  0  0
  3 17  1  0  0  0  0
  5  6  1  0  0  0  0
  7  6  1  6  0  0  0
  7  8  1  0  0  0  0
  7  9  1  0  0  0  0
 10  9  1  1  0  0  0
 10 11  1  0  0  0  0
 10 12  1  0  0  0  0
 11 16  1  0  0  0  0
 12 13  1  6  0  0  0
 12 14  1  0  0  0  0
 14 15  1  6  0  0  0
 14 16  1  0  0  0  0
 16 27  1  1  0  0  0
 18 19  2  0  0  0  0
 18 23  1  0  0  0  0
 19 20  1  0  0  0  0
 20 21  2  0  0  0  0
 21 22  1  0  0  0  0
 21 27  1  0  0  0  0
 22 23  2  0  0  0  0
 22 25  1  0  0  0  0
 23 24  1  0  0  0  0
 25 26  2  0  0  0  0
 26 27  1  0  0  0  0
M  END
>  <CHROM.1>
-18.75288212,-78.73387309,-162.10451313,-95.08360367,-62.33168398,165.93559443
167.15891809,32.05077869,21.05828173,77.68240707,0.16006591,-0.00833153,-0.52448779

>  <Name>
ligand

>  <RI>
0

>  <Rbt.Current_Directory>
/home/itssahil/PROJECTS/Mol_Feturizer/New_Systems/rnas/2QWY

>  <Rbt.Executable>
rbdock ($Id: //depot/dev/client3/rdock/2013.1/src/exe/rbdock.cxx#4 $)

>  <Rbt.Library>
libRbt.so (2013.1, Build901 2013/11/27)

>  <Rbt.Parameter_File>
/export/apps/rDock/src/rDock_2013.1_src/data/scripts/dock_solv.prm

>  <Rbt.Receptor>
prm/pocket_docking_4.prm

>  <SCORE>
-25.876

>  <SCORE.INTER>
-23.789

>  <SCORE.INTER.CONST>
1

>  <SCORE.INTER.POLAR>
0

>  <SCORE.INTER.ROT>
7

>  <SCORE.INTER.SOLV>
8.7849

>  <SCORE.INTER.VDW>
-27.0543

>  <SCORE.INTER.norm>
-0.881073

>  <SCORE.INTRA>
-2.08703

>  <SCORE.INTRA.DIHEDRAL>
-2.44422

>  <SCORE.INTRA.DIHEDRAL.0>
10.7382

>  <SCORE.INTRA.POLAR>
0

>  <SCORE.INTRA.POLAR.0>
0

>  <SCORE.INTRA.REPUL>
0

>  <SCORE.INTRA.REPUL.0>
0

>  <SCORE.INTRA.SOLV>
-0.392658

>  <SCORE.INTRA.SOLV.lig_0>
-49.2501

>  <SCORE.INTRA.VDW>
-0.668592

>  <SCORE.INTRA.VDW.0>
-1.75368

>  <SCORE.INTRA.norm>
-0.0772975

>  <SCORE.RESTR>
0

>  <SCORE.RESTR.CAVITY>
0

>  <SCORE.RESTR.norm>
0

>  <SCORE.SYSTEM>
0

>  <SCORE.SYSTEM.CONST>
0

>  <SCORE.SYSTEM.DIHEDRAL>
0

>  <SCORE.SYSTEM.SOLV>
0

>  <SCORE.SYSTEM.norm>
0

>  <SCORE.heavy>
27

>  <SCORE.norm>
-0.958371

>  <RMSD>
4.071

$$$$
ligand
 OpenBabel11021811463D
libRbt.so/2013.1/901 2013/11/27
 27 29  0  0  0  0  0  0  0  0999 V2000
   36.2669   20.4159   76.0550 N   0  0  0  0  0  0  0  0  0  0  0  0
   36.6563   20.4274   77.4759 C   0  0  2  0  0  0  0  0  0  0  0  0
   38.1654   20.4508   77.6023 C   0  0  0  0  0  0  0  0  0  0  0  0
   38.8639   19.8196   76.8026 O   0  0  0  0  0  0  0  0  0  0  0  0
   36.1229   19.1676   78.1502 C   0  0  0  0  0  0  0  0  0  0  0  0
   36.4661   19.1696   79.6246 C   0  0  0  0  0  0  0  0  0  0  0  0
   35.5827   20.5376   80.3949 S   0  0  2  0  0  0  0  0  0  0  0  0
   35.9439   20.1527   82.1307 C   0  0  0  0  0  0  0  0  0  0  0  0
   33.8622   19.9406   80.2719 C   0  0  0  0  0  0  0  0  0  0  0  0
   33.1797   20.6474   79.1039 C   0  0  1  0  0  0  0  0  0  0  0  0
   32.1335   19.8191   78.6528 O   0  0  0  0  0  0  0  0  0  0  0  0
   32.5220   21.9589   79.5466 C   0  0  1  0  0  0  0  0  0  0  0  0
   33.2675   23.1860   79.5240 O   0  0  0  0  0  0  0  0  0  0  0  0
   31.1787   21.9796   78.7444 C   0  0  1  0  0  0  0  0  0  0  0  0
   31.0332   23.2770   78.1417 O   0  0  0  0  0  0  0  0  0  0  0  0
   31.2368   20.6424   77.9240 C   0  0  2  0  0  0  0  0  0  0  0  0
   38.6910   21.1521   78.4535 O   0  0  0  0  0  0  0  0  0  0  0  0
   26.0962   21.0742   77.2233 N   0  0  0  0  0  0  0  0  0  0  0  0
   27.0179   22.0434   77.2541 C   0  0  0  0  0  0  0  0  0  0  0  0
   28.3038   21.7750   77.4631 N   0  0  0  0  0  0  0  0  0  0  0  0
   28.7353   20.5117   77.6297 C   0  0  0  0  0  0  0  0  0  0  0  0
   27.7991   19.4439   77.5905 C   0  0  0  0  0  0  0  0  0  0  0  0
   26.4292   19.7785   77.3763 C   0  0  0  0  0  0  0  0  0  0  0  0
   25.4586   18.7960   77.3165 N   0  0  0  0  0  0  0  0  0  0  0  0
   28.4914   18.2964   77.7761 N   0  0  0  0  0  0  0  0  0  0  0  0
   29.7541   18.5773   77.9198 C   0  0  0  0  0  0  0  0  0  0  0  0
   29.9556   19.9333   77.8378 N   0  0  0  0  0  0  0  0  0  0  0  0
  2  1  1  6  0  0  0
  2  3  1  0  0  0  0
  2  5  1  0  0  0  0
  3  4  1  0  0  0  0
  3 17  1  0  0  0  0
  5  6  1  0  0  0  0
  7  6  1  6  0  0  0
  7  8  1  0  0  0  0
  7  9  1  0  0  0  0
 10  9  1  1  0  0  0
 10 11  1  0  0  0  0
 10 12  1  0  0  0  0
 11 16  1  0  0  0  0
 12 13  1  6  0  0  0
 12 14  1  0  0  0  0
 14 15  1  6  0  0  0
 14 16  1  0  0  0  0
 16 27  1  1  0  0  0
 18 19  2  0  0  0  0
 18 23  1  0  0  0  0
 19 20  1  0  0  0  0
 20 21  2  0  0  0  0
 21 22  1  0  0  0  0
 21 27  1  0  0  0  0
 22 23  2  0  0  0  0
 22 25  1  0  0  0  0
 23 24  1  0  0  0  0
 25 26  2  0  0  0  0
 26 27  1  0  0  0  0
M  END
>  <CHROM.1>
-36.69991526,-178.10395883,65.20136294,171.43886737,-101.41679429,154.79576109
156.96810342,32.49510053,20.50929750,78.42277955,-0.09275756,0.08019251,-2.32429855

>  <Name>
ligand

>  <RI>
0

>  <Rbt.Current_Directory>
/home/itssahil/PROJECTS/Mol_Feturizer/New_Systems/rnas/2QWY

>  <Rbt.Executable>
rbdock ($Id: //depot/dev/client3/rdock/2013.1/src/exe/rbdock.cxx#4 $)

>  <Rbt.Library>
libRbt.so (2013.1, Build901 2013/11/27)

>  <Rbt.Parameter_File>
/export/apps/rDock/src/rDock_2013.1_src/data/scripts/dock_solv.prm

>  <Rbt.Receptor>
prm/pocket_docking_5.prm

>  <SCORE>
-25.4477

>  <SCORE.INTER>
-22.9415

>  <SCORE.INTER.CONST>
1

>  <SCORE.INTER.POLAR>
0

>  <SCORE.INTER.ROT>
7

>  <SCORE.INTER.SOLV>
10.2643

>  <SCORE.INTER.VDW>
-26.9824

>  <SCORE.INTER.norm>
-0.849684

>  <SCORE.INTRA>
-2.50619

>  <SCORE.INTRA.DIHEDRAL>
-3.06817

>  <SCORE.INTRA.DIHEDRAL.0>
10.7382

>  <SCORE.INTRA.POLAR>
0

>  <SCORE.INTRA.POLAR.0>
0

>  <SCORE.INTRA.REPUL>
0

>  <SCORE.INTRA.REPUL.0>
0

>  <SCORE.INTRA.SOLV>
-0.526889

>  <SCORE.INTRA.SOLV.lig_0>
-49.2501

>  <SCORE.INTRA.VDW>
-0.708666

>  <SCORE.INTRA.VDW.0>
-1.75368

>  <SCORE.INTRA.norm>
-0.092822

>  <SCORE.RESTR>
0

>  <SCORE.RESTR.CAVITY>
0

>  <SCORE.RESTR.norm>
0

>  <SCORE.SYSTEM>
0

>  <SCORE.SYSTEM.CONST>
0

>  <SCORE.SYSTEM.DIHEDRAL>
0

>  <SCORE.SYSTEM.SOLV>
0

>  <SCORE.SYSTEM.norm>
0

>  <SCORE.heavy>
27

>  <SCORE.norm>
-0.942506

>  <RMSD>
4.120

$$$$
ligand
 OpenBabel11021811463D
libRbt.so/2013.1/901 2013/11/27
 27 29  0  0  0  0  0  0  0  0999 V2000
   38.3779   23.1762   75.6197 N   0  0  0  0  0  0  0  0  0  0  0  0
   36.9251   23.1583   75.8636 C   0  0  2  0  0  0  0  0  0  0  0  0
   36.5115   24.3928   76.6376 C   0  0  0  0  0  0  0  0  0  0  0  0
   37.2019   24.7930   77.5804 O   0  0  0  0  0  0  0  0  0  0  0  0
   36.5709   21.9203   76.6811 C   0  0  0  0  0  0  0  0  0  0  0  0
   36.8725   20.6621   75.8954 C   0  0  0  0  0  0  0  0  0  0  0  0
   36.3528   19.2526   76.8897 S   0  0  2  0  0  0  0  0  0  0  0  0
   36.6937   17.9333   75.6919 C   0  0  0  0  0  0  0  0  0  0  0  0
   34.5386   19.3818   76.7365 C   0  0  0  0  0  0  0  0  0  0  0  0
   34.0452   20.4888   77.6641 C   0  0  1  0  0  0  0  0  0  0  0  0
   32.7475   20.8486   77.2510 O   0  0  0  0  0  0  0  0  0  0  0  0
   33.9092   19.9940   79.1081 C   0  0  1  0  0  0  0  0  0  0  0  0
   35.0226   20.0813   80.0109 O   0  0  0  0  0  0  0  0  0  0  0  0
   32.5930   20.6796   79.6039 C   0  0  1  0  0  0  0  0  0  0  0  0
   32.8486   21.2698   80.8900 O   0  0  0  0  0  0  0  0  0  0  0  0
   32.1281   21.5001   78.3487 C   0  0  2  0  0  0  0  0  0  0  0  0
   35.5323   25.0308   76.2817 O   0  0  0  0  0  0  0  0  0  0  0  0
   27.9303   18.5337   77.5220 N   0  0  0  0  0  0  0  0  0  0  0  0
   29.2022   18.1521   77.6849 C   0  0  0  0  0  0  0  0  0  0  0  0
   30.1767   19.0379   77.8711 N   0  0  0  0  0  0  0  0  0  0  0  0
   29.9196   20.3574   77.9265 C   0  0  0  0  0  0  0  0  0  0  0  0
   28.5832   20.8146   77.7747 C   0  0  0  0  0  0  0  0  0  0  0  0
   27.5719   19.8309   77.5646 C   0  0  0  0  0  0  0  0  0  0  0  0
   26.2465   20.1947   77.4165 N   0  0  0  0  0  0  0  0  0  0  0  0
   28.6065   22.1635   77.8779 N   0  0  0  0  0  0  0  0  0  0  0  0
   29.8310   22.5557   78.0800 C   0  0  0  0  0  0  0  0  0  0  0  0
   30.6797   21.4766   78.1174 N   0  0  0  0  0  0  0  0  0  0  0  0
  2  1  1  1  0  0  0
  2  3  1  0  0  0  0
  2  5  1  0  0  0  0
  3  4  1  0  0  0  0
  3 17  1  0  0  0  0
  5  6  1  0  0  0  0
  7  6  1  6  0  0  0
  7  8  1  0  0  0  0
  7  9  1  0  0  0  0
 10  9  1  6  0  0  0
 10 11  1  0  0  0  0
 10 12  1  0  0  0  0
 11 16  1  0  0  0  0
 12 13  1  1  0  0  0
 12 14  1  0  0  0  0
 14 15  1  1  0  0  0
 14 16  1  0  0  0  0
 16 27  1  6  0  0  0
 18 19  2  0  0  0  0
 18 23  1  0  0  0  0
 19 20  1  0  0  0  0
 20 21  2  0  0  0  0
 21 22  1  0  0  0  0
 21 27  1  0  0  0  0
 22 23  2  0  0  0  0
 22 25  1  0  0  0  0
 23 24  1  0  0  0  0
 25 26  2  0  0  0  0
 26 27  1  0  0  0  0
M  END
>  <CHROM.1>
-42.26045751,-64.06433673,-177.20344961,175.74422311,-77.69669197,162.56300713
57.32366575,33.15868079,20.96874112,77.55364251,0.23160609,0.16054072,0.01112938

>  <Name>
ligand

>  <RI>
0

>  <Rbt.Current_Directory>
/home/itssahil/PROJECTS/Mol_Feturizer/New_Systems/rnas/2QWY

>  <Rbt.Executable>
rbdock ($Id: //depot/dev/client3/rdock/2013.1/src/exe/rbdock.cxx#4 $)

>  <Rbt.Library>
libRbt.so (2013.1, Build901 2013/11/27)

>  <Rbt.Parameter_File>
/export/apps/rDock/src/rDock_2013.1_src/data/scripts/dock_solv.prm

>  <Rbt.Receptor>
prm/pocket_docking_6.prm

>  <SCORE>
-31.3752

>  <SCORE.INTER>
-27.3422

>  <SCORE.INTER.CONST>
1

>  <SCORE.INTER.POLAR>
0

>  <SCORE.INTER.ROT>
7

>  <SCORE.INTER.SOLV>
13.6121

>  <SCORE.INTER.VDW>
-31.0321

>  <SCORE.INTER.norm>
-1.01267

>  <SCORE.INTRA>
-4.03302

>  <SCORE.INTRA.DIHEDRAL>
-6.08448

>  <SCORE.INTRA.DIHEDRAL.0>
10.7382

>  <SCORE.INTRA.POLAR>
0

>  <SCORE.INTRA.POLAR.0>
0

>  <SCORE.INTRA.REPUL>
0

>  <SCORE.INTRA.REPUL.0>
0

>  <SCORE.INTRA.SOLV>
-0.248094

>  <SCORE.INTRA.SOLV.lig_0>
-49.2501

>  <SCORE.INTRA.VDW>
-0.866733

>  <SCORE.INTRA.VDW.0>
-1.75368

>  <SCORE.INTRA.norm>
-0.149371

>  <SCORE.RESTR>
0

>  <SCORE.RESTR.CAVITY>
0

>  <SCORE.RESTR.norm>
0

>  <SCORE.SYSTEM>
0

>  <SCORE.SYSTEM.CONST>
0

>  <SCORE.SYSTEM.DIHEDRAL>
0

>  <SCORE.SYSTEM.SOLV>
0

>  <SCORE.SYSTEM.norm>
0

>  <SCORE.heavy>
27

>  <SCORE.norm>
-1.16204

>  <RMSD>
4.145

$$$$
ligand
 OpenBabel11021811463D
libRbt.so/2013.1/901 2013/11/27
 27 29  0  0  0  0  0  0  0  0999 V2000
   39.6703   18.3069   79.6386 N   0  0  0  0  0  0  0  0  0  0  0  0
   38.5058   17.7062   78.9649 C   0  0  2  0  0  0  0  0  0  0  0  0
   38.9239   17.1043   77.6394 C   0  0  0  0  0  0  0  0  0  0  0  0
   39.6679   17.7337   76.8804 O   0  0  0  0  0  0  0  0  0  0  0  0
   37.4629   18.7894   78.7093 C   0  0  0  0  0  0  0  0  0  0  0  0
   36.9138   19.3161   80.0179 C   0  0  0  0  0  0  0  0  0  0  0  0
   35.7557   20.6423   79.6366 S   0  0  2  0  0  0  0  0  0  0  0  0
   35.3248   21.1239   81.3319 C   0  0  0  0  0  0  0  0  0  0  0  0
   34.2760   19.6770   79.1778 C   0  0  0  0  0  0  0  0  0  0  0  0
   33.3557   20.5588   78.3382 C   0  0  1  0  0  0  0  0  0  0  0  0
   32.2341   19.7872   77.9766 O   0  0  0  0  0  0  0  0  0  0  0  0
   32.8142   21.7405   79.1499 C   0  0  1  0  0  0  0  0  0  0  0  0
   33.5396   22.9790   79.1971 O   0  0  0  0  0  0  0  0  0  0  0  0
   31.3277   21.8558   78.6750 C   0  0  1  0  0  0  0  0  0  0  0  0
   31.0567   23.2349   78.3717 O   0  0  0  0  0  0  0  0  0  0  0  0
   31.2014   20.6947   77.6259 C   0  0  2  0  0  0  0  0  0  0  0  0
   38.5803   15.9667   77.3557 O   0  0  0  0  0  0  0  0  0  0  0  0
   26.0106   21.0250   77.4007 N   0  0  0  0  0  0  0  0  0  0  0  0
   26.9135   22.0079   77.3091 C   0  0  0  0  0  0  0  0  0  0  0  0
   28.2179   21.7664   77.4047 N   0  0  0  0  0  0  0  0  0  0  0  0
   28.6860   20.5166   77.5750 C   0  0  0  0  0  0  0  0  0  0  0  0
   27.7697   19.4346   77.6632 C   0  0  0  0  0  0  0  0  0  0  0  0
   26.3799   19.7409   77.5680 C   0  0  0  0  0  0  0  0  0  0  0  0
   25.4259   18.7428   77.6358 N   0  0  0  0  0  0  0  0  0  0  0  0
   28.4970   18.3050   77.8234 N   0  0  0  0  0  0  0  0  0  0  0  0
   29.7623   18.6095   77.8366 C   0  0  0  0  0  0  0  0  0  0  0  0
   29.9307   19.9643   77.6871 N   0  0  0  0  0  0  0  0  0  0  0  0
  2  1  1  6  0  0  0
  2  3  1  0  0  0  0
  2  5  1  0  0  0  0
  3  4  1  0  0  0  0
  3 17  1  0  0  0  0
  5  6  1  0  0  0  0
  7  6  1  1  0  0  0
  7  8  1  0  0  0  0
  7  9  1  0  0  0  0
 10  9  1  1  0  0  0
 10 11  1  0  0  0  0
 10 12  1  0  0  0  0
 11 16  1  0  0  0  0
 12 13  1  6  0  0  0
 12 14  1  0  0  0  0
 14 15  1  6  0  0  0
 14 16  1  0  0  0  0
 16 27  1  1  0  0  0
 18 19  2  0  0  0  0
 18 23  1  0  0  0  0
 19 20  1  0  0  0  0
 20 21  2  0  0  0  0
 21 22  1  0  0  0  0
 21 27  1  0  0  0  0
 22 23  2  0  0  0  0
 22 25  1  0  0  0  0
 23 24  1  0  0  0  0
 25 26  2  0  0  0  0
 26 27  1  0  0  0  0
M  END
>  <CHROM.1>
-44.90533571,-65.63346217,177.19868893,-177.57538214,-159.19689220,178.97996293
171.71915725,32.82083731,19.94198717,78.39712112,0.14044778,0.16690719,-2.74170924

>  <Name>
ligand

>  <RI>
0

>  <Rbt.Current_Directory>
/home/itssahil/PROJECTS/Mol_Feturizer/New_Systems/rnas/2QWY

>  <Rbt.Executable>
rbdock ($Id: //depot/dev/client3/rdock/2013.1/src/exe/rbdock.cxx#4 $)

>  <Rbt.Library>
libRbt.so (2013.1, Build901 2013/11/27)

>  <Rbt.Parameter_File>
/export/apps/rDock/src/rDock_2013.1_src/data/scripts/dock_solv.prm

>  <Rbt.Receptor>
prm/pocket_docking_7.prm

>  <SCORE>
-28.304

>  <SCORE.INTER>
-25.3173

>  <SCORE.INTER.CONST>
1

>  <SCORE.INTER.POLAR>
0

>  <SCORE.INTER.ROT>
7

>  <SCORE.INTER.SOLV>
11.888

>  <SCORE.INTER.VDW>
-29.1075

>  <SCORE.INTER.norm>
-0.937678

>  <SCORE.INTRA>
-2.9867

>  <SCORE.INTRA.DIHEDRAL>
-4.78962

>  <SCORE.INTRA.DIHEDRAL.0>
10.7382

>  <SCORE.INTRA.POLAR>
0

>  <SCORE.INTRA.POLAR.0>
0

>  <SCORE.INTRA.REPUL>
0

>  <SCORE.INTRA.REPUL.0>
0

>  <SCORE.INTRA.SOLV>
-0.131934

>  <SCORE.INTRA.SOLV.lig_0>
-49.2501

>  <SCORE.INTRA.VDW>
-0.525927

>  <SCORE.INTRA.VDW.0>
-1.75368

>  <SCORE.INTRA.norm>
-0.110619

>  <SCORE.RESTR>
0

>  <SCORE.RESTR.CAVITY>
0

>  <SCORE.RESTR.norm>
0

>  <SCORE.SYSTEM>
0

>  <SCORE.SYSTEM.CONST>
0

>  <SCORE.SYSTEM.DIHEDRAL>
0

>  <SCORE.SYSTEM.SOLV>
0

>  <SCORE.SYSTEM.norm>
0

>  <SCORE.heavy>
27

>  <SCORE.norm>
-1.0483

>  <RMSD>
4.151

$$$$
ligand
 OpenBabel11021811463D
libRbt.so/2013.1/901 2013/11/27
 27 29  0  0  0  0  0  0  0  0999 V2000
   38.3643   23.2033   77.5426 N   0  0  0  0  0  0  0  0  0  0  0  0
   37.1577   23.0694   76.7077 C   0  0  2  0  0  0  0  0  0  0  0  0
   37.5472   22.8375   75.2626 C   0  0  0  0  0  0  0  0  0  0  0  0
   38.4580   23.4981   74.7528 O   0  0  0  0  0  0  0  0  0  0  0  0
   36.3412   24.3543   76.7999 C   0  0  0  0  0  0  0  0  0  0  0  0
   35.8345   24.5604   78.2114 C   0  0  0  0  0  0  0  0  0  0  0  0
   34.4252   23.4655   78.4572 S   0  0  2  0  0  0  0  0  0  0  0  0
   33.4126   24.5538   79.4973 C   0  0  0  0  0  0  0  0  0  0  0  0
   35.0963   22.3290   79.7179 C   0  0  0  0  0  0  0  0  0  0  0  0
   34.7719   20.8949   79.3083 C   0  0  1  0  0  0  0  0  0  0  0  0
   33.3726   20.7404   79.3576 O   0  0  0  0  0  0  0  0  0  0  0  0
   35.1786   20.6185   77.8569 C   0  0  1  0  0  0  0  0  0  0  0  0
   36.4976   20.1383   77.5539 O   0  0  0  0  0  0  0  0  0  0  0  0
   34.0063   19.7361   77.3135 C   0  0  1  0  0  0  0  0  0  0  0  0
   34.5725   18.6026   76.6337 O   0  0  0  0  0  0  0  0  0  0  0  0
   33.0504   19.6169   78.5532 C   0  0  2  0  0  0  0  0  0  0  0  0
   37.0057   21.9471   74.6249 O   0  0  0  0  0  0  0  0  0  0  0  0
   28.9314   22.7464   77.9667 N   0  0  0  0  0  0  0  0  0  0  0  0
   30.1794   23.0688   78.3248 C   0  0  0  0  0  0  0  0  0  0  0  0
   31.1283   22.1454   78.4509 N   0  0  0  0  0  0  0  0  0  0  0  0
   30.8774   20.8476   78.2003 C   0  0  0  0  0  0  0  0  0  0  0  0
   29.5718   20.4539   77.8019 C   0  0  0  0  0  0  0  0  0  0  0  0
   28.5823   21.4753   77.6915 C   0  0  0  0  0  0  0  0  0  0  0  0
   27.2909   21.1744   77.3010 N   0  0  0  0  0  0  0  0  0  0  0  0
   29.5976   19.1147   77.6105 N   0  0  0  0  0  0  0  0  0  0  0  0
   30.7965   18.6710   77.8544 C   0  0  0  0  0  0  0  0  0  0  0  0
   31.6237   19.7034   78.2233 N   0  0  0  0  0  0  0  0  0  0  0  0
  2  1  1  1  0  0  0
  2  3  1  0  0  0  0
  2  5  1  0  0  0  0
  3  4  1  0  0  0  0
  3 17  1  0  0  0  0
  5  6  1  0  0  0  0
  7  6  1  1  0  0  0
  7  8  1  0  0  0  0
  7  9  1  0  0  0  0
 10  9  1  6  0  0  0
 10 11  1  0  0  0  0
 10 12  1  0  0  0  0
 11 16  1  0  0  0  0
 12 13  1  1  0  0  0
 12 14  1  0  0  0  0
 14 15  1  1  0  0  0
 14 16  1  0  0  0  0
 16 27  1  6  0  0  0
 18 19  2  0  0  0  0
 18 23  1  0  0  0  0
 19 20  1  0  0  0  0
 20 21  2  0  0  0  0
 21 22  1  0  0  0  0
 21 27  1  0  0  0  0
 22 23  2  0  0  0  0
 22 25  1  0  0  0  0
 23 24  1  0  0  0  0
 25 26  2  0  0  0  0
 26 27  1  0  0  0  0
M  END
>  <CHROM.1>
-43.30764377,-64.47781009,-77.54689377,-143.55039919,-133.55680862,-65.72394666
24.15852016,33.62841373,21.71362508,77.70205648,0.22381080,0.23221349,0.21343951

>  <Name>
ligand

>  <RI>
0

>  <Rbt.Current_Directory>
/home/itssahil/PROJECTS/Mol_Feturizer/New_Systems/rnas/2QWY

>  <Rbt.Executable>
rbdock ($Id: //depot/dev/client3/rdock/2013.1/src/exe/rbdock.cxx#4 $)

>  <Rbt.Library>
libRbt.so (2013.1, Build901 2013/11/27)

>  <Rbt.Parameter_File>
/export/apps/rDock/src/rDock_2013.1_src/data/scripts/dock_solv.prm

>  <Rbt.Receptor>
prm/pocket_docking_6.prm

>  <SCORE>
-24.4653

>  <SCORE.INTER>
-23.8787

>  <SCORE.INTER.CONST>
1

>  <SCORE.INTER.POLAR>
0

>  <SCORE.INTER.ROT>
7

>  <SCORE.INTER.SOLV>
12.5482

>  <SCORE.INTER.VDW>
-28.3685

>  <SCORE.INTER.norm>
-0.884396

>  <SCORE.INTRA>
-0.586609

>  <SCORE.INTRA.DIHEDRAL>
1.67209

>  <SCORE.INTRA.DIHEDRAL.0>
10.7382

>  <SCORE.INTRA.POLAR>
0

>  <SCORE.INTRA.POLAR.0>
0

>  <SCORE.INTRA.REPUL>
0

>  <SCORE.INTRA.REPUL.0>
0

>  <SCORE.INTRA.SOLV>
1.97221

>  <SCORE.INTRA.SOLV.lig_0>
-49.2501

>  <SCORE.INTRA.VDW>
-2.40876

>  <SCORE.INTRA.VDW.0>
-1.75368

>  <SCORE.INTRA.norm>
-0.0217263

>  <SCORE.RESTR>
0

>  <SCORE.RESTR.CAVITY>
0

>  <SCORE.RESTR.norm>
0

>  <SCORE.SYSTEM>
0

>  <SCORE.SYSTEM.CONST>
0

>  <SCORE.SYSTEM.DIHEDRAL>
0

>  <SCORE.SYSTEM.SOLV>
0

>  <SCORE.SYSTEM.norm>
0

>  <SCORE.heavy>
27

>  <SCORE.norm>
-0.906122

>  <RMSD>
4.163

$$$$
ligand
 OpenBabel11021811463D
libRbt.so/2013.1/901 2013/11/27
 27 29  0  0  0  0  0  0  0  0999 V2000
   38.4295   23.1353   75.9031 N   0  0  0  0  0  0  0  0  0  0  0  0
   36.9599   23.1938   75.9911 C   0  0  2  0  0  0  0  0  0  0  0  0
   36.5286   24.4871   76.6508 C   0  0  0  0  0  0  0  0  0  0  0  0
   35.5093   25.0690   76.2659 O   0  0  0  0  0  0  0  0  0  0  0  0
   36.4625   22.0209   76.8297 C   0  0  0  0  0  0  0  0  0  0  0  0
   36.7851   20.7079   76.1490 C   0  0  0  0  0  0  0  0  0  0  0  0
   36.2000   19.3766   77.2123 S   0  0  2  0  0  0  0  0  0  0  0  0
   36.6157   17.9710   76.1431 C   0  0  0  0  0  0  0  0  0  0  0  0
   34.3997   19.4874   76.9327 C   0  0  0  0  0  0  0  0  0  0  0  0
   33.8590   20.6974   77.6898 C   0  0  1  0  0  0  0  0  0  0  0  0
   32.5382   20.9212   77.2546 O   0  0  0  0  0  0  0  0  0  0  0  0
   33.7696   20.4252   79.1953 C   0  0  1  0  0  0  0  0  0  0  0  0
   34.8884   20.7086   80.0497 O   0  0  0  0  0  0  0  0  0  0  0  0
   32.4246   21.1099   79.6082 C   0  0  1  0  0  0  0  0  0  0  0  0
   32.6647   21.9041   80.7826 O   0  0  0  0  0  0  0  0  0  0  0  0
   31.8988   21.7013   78.2523 C   0  0  2  0  0  0  0  0  0  0  0  0
   37.1524   24.9149   77.6103 O   0  0  0  0  0  0  0  0  0  0  0  0
   27.9193   18.4225   77.5330 N   0  0  0  0  0  0  0  0  0  0  0  0
   29.2204   18.1391   77.6626 C   0  0  0  0  0  0  0  0  0  0  0  0
   30.1290   19.0970   77.8240 N   0  0  0  0  0  0  0  0  0  0  0  0
   29.7736   20.3930   77.8870 C   0  0  0  0  0  0  0  0  0  0  0  0
   28.4027   20.7469   77.7702 C   0  0  0  0  0  0  0  0  0  0  0  0
   27.4642   19.6887   77.5859 C   0  0  0  0  0  0  0  0  0  0  0  0
   26.1116   19.9501   77.4726 N   0  0  0  0  0  0  0  0  0  0  0  0
   28.3259   22.0937   77.8738 N   0  0  0  0  0  0  0  0  0  0  0  0
   29.5217   22.5784   78.0442 C   0  0  0  0  0  0  0  0  0  0  0  0
   30.4509   21.5672   78.0588 N   0  0  0  0  0  0  0  0  0  0  0  0
  2  1  1  1  0  0  0
  2  3  1  0  0  0  0
  2  5  1  0  0  0  0
  3  4  1  0  0  0  0
  3 17  1  0  0  0  0
  5  6  1  0  0  0  0
  7  6  1  6  0  0  0
  7  8  1  0  0  0  0
  7  9  1  0  0  0  0
 10  9  1  6  0  0  0
 10 11  1  0  0  0  0
 10 12  1  0  0  0  0
 11 16  1  0  0  0  0
 12 13  1  1  0  0  0
 12 14  1  0  0  0  0
 14 15  1  1  0  0  0
 14 16  1  0  0  0  0
 16 27  1  1  0  0  0
 18 19  2  0  0  0  0
 18 23  1  0  0  0  0
 19 20  1  0  0  0  0
 20 21  2  0  0  0  0
 21 22  1  0  0  0  0
 21 27  1  0  0  0  0
 22 23  2  0  0  0  0
 22 25  1  0  0  0  0
 23 24  1  0  0  0  0
 25 26  2  0  0  0  0
 26 27  1  0  0  0  0
M  END
>  <CHROM.1>
143.22484636,-63.95346796,178.82354528,176.97462021,-75.21189905,168.53825551
48.37094234,33.03838096,21.08071936,77.62843463,0.24508655,0.14268130,0.05281623

>  <Name>
ligand

>  <RI>
0

>  <Rbt.Current_Directory>
/home/itssahil/PROJECTS/Mol_Feturizer/New_Systems/rnas/2QWY

>  <Rbt.Executable>
rbdock ($Id: //depot/dev/client3/rdock/2013.1/src/exe/rbdock.cxx#4 $)

>  <Rbt.Library>
libRbt.so (2013.1, Build901 2013/11/27)

>  <Rbt.Parameter_File>
/export/apps/rDock/src/rDock_2013.1_src/data/scripts/dock_solv.prm

>  <Rbt.Receptor>
prm/pocket_docking_6.prm

>  <SCORE>
-31.4013

>  <SCORE.INTER>
-27.0499

>  <SCORE.INTER.CONST>
1

>  <SCORE.INTER.POLAR>
0

>  <SCORE.INTER.ROT>
7

>  <SCORE.INTER.SOLV>
12.4305

>  <SCORE.INTER.VDW>
-30.4434

>  <SCORE.INTER.norm>
-1.00185

>  <SCORE.INTRA>
-4.35143

>  <SCORE.INTRA.DIHEDRAL>
-6.98177

>  <SCORE.INTRA.DIHEDRAL.0>
10.7382

>  <SCORE.INTRA.POLAR>
0

>  <SCORE.INTRA.POLAR.0>
0

>  <SCORE.INTRA.REPUL>
0

>  <SCORE.INTRA.REPUL.0>
0

>  <SCORE.INTRA.SOLV>
-0.165157

>  <SCORE.INTRA.SOLV.lig_0>
-49.2501

>  <SCORE.INTRA.VDW>
-0.777966

>  <SCORE.INTRA.VDW.0>
-1.75368

>  <SCORE.INTRA.norm>
-0.161164

>  <SCORE.RESTR>
0

>  <SCORE.RESTR.CAVITY>
0

>  <SCORE.RESTR.norm>
0

>  <SCORE.SYSTEM>
0

>  <SCORE.SYSTEM.CONST>
0

>  <SCORE.SYSTEM.DIHEDRAL>
0

>  <SCORE.SYSTEM.SOLV>
0

>  <SCORE.SYSTEM.norm>
0

>  <SCORE.heavy>
27

>  <SCORE.norm>
-1.16301

>  <RMSD>
4.225

$$$$
ligand
 OpenBabel11021811463D
libRbt.so/2013.1/901 2013/11/27
 27 29  0  0  0  0  0  0  0  0999 V2000
   35.6282   18.2488   76.5814 N   0  0  0  0  0  0  0  0  0  0  0  0
   35.5991   19.3037   77.6095 C   0  0  2  0  0  0  0  0  0  0  0  0
   35.6102   20.6695   76.9551 C   0  0  0  0  0  0  0  0  0  0  0  0
   35.9608   21.6628   77.6003 O   0  0  0  0  0  0  0  0  0  0  0  0
   36.8323   19.1705   78.4971 C   0  0  0  0  0  0  0  0  0  0  0  0
   36.4266   18.9720   79.9419 C   0  0  0  0  0  0  0  0  0  0  0  0
   35.7076   20.5154   80.5303 S   0  0  2  0  0  0  0  0  0  0  0  0
   35.7377   20.1689   82.3110 C   0  0  0  0  0  0  0  0  0  0  0  0
   33.9428   20.2270   80.1642 C   0  0  0  0  0  0  0  0  0  0  0  0
   33.4498   21.3268   79.2276 C   0  0  1  0  0  0  0  0  0  0  0  0
   32.2489   20.8837   78.6398 O   0  0  0  0  0  0  0  0  0  0  0  0
   33.0998   22.6054   79.9963 C   0  0  1  0  0  0  0  0  0  0  0  0
   34.1028   23.6057   80.2320 O   0  0  0  0  0  0  0  0  0  0  0  0
   31.8044   23.1150   79.2817 C   0  0  1  0  0  0  0  0  0  0  0  0
   31.9616   24.5182   79.0099 O   0  0  0  0  0  0  0  0  0  0  0  0
   31.5687   22.0354   78.1665 C   0  0  2  0  0  0  0  0  0  0  0  0
   35.3393   20.7747   75.7684 O   0  0  0  0  0  0  0  0  0  0  0  0
   28.1548   18.1494   77.5759 N   0  0  0  0  0  0  0  0  0  0  0  0
   29.4824   18.0777   77.7254 C   0  0  0  0  0  0  0  0  0  0  0  0
   30.2294   19.1713   77.8478 N   0  0  0  0  0  0  0  0  0  0  0  0
   29.6767   20.3979   77.8497 C   0  0  0  0  0  0  0  0  0  0  0  0
   28.2691   20.5289   77.7094 C   0  0  0  0  0  0  0  0  0  0  0  0
   27.5083   19.3306   77.5685 C   0  0  0  0  0  0  0  0  0  0  0  0
   26.1331   19.3734   77.4359 N   0  0  0  0  0  0  0  0  0  0  0  0
   27.9831   21.8507   77.7509 N   0  0  0  0  0  0  0  0  0  0  0  0
   29.0872   22.5223   77.9056 C   0  0  0  0  0  0  0  0  0  0  0  0
   30.1616   21.6694   77.9714 N   0  0  0  0  0  0  0  0  0  0  0  0
  2  1  1  6  0  0  0
  2  3  1  0  0  0  0
  2  5  1  0  0  0  0
  3  4  1  0  0  0  0
  3 17  1  0  0  0  0
  5  6  1  0  0  0  0
  7  6  1  6  0  0  0
  7  8  1  0  0  0  0
  7  9  1  0  0  0  0
 10  9  1  1  0  0  0
 10 11  1  0  0  0  0
 10 12  1  0  0  0  0
 11 16  1  0  0  0  0
 12 13  1  6  0  0  0
 12 14  1  0  0  0  0
 14 15  1  6  0  0  0
 14 16  1  0  0  0  0
 16 27  1  1  0  0  0
 18 19  2  0  0  0  0
 18 23  1  0  0  0  0
 19 20  1  0  0  0  0
 20 21  2  0  0  0  0
 21 22  1  0  0  0  0
 21 27  1  0  0  0  0
 22 23  2  0  0  0  0
 22 25  1  0  0  0  0
 23 24  1  0  0  0  0
 25 26  2  0  0  0  0
 26 27  1  0  0  0  0
M  END
>  <CHROM.1>
-159.74287282,-121.52631035,-69.32713741,-165.54499761,-121.50685665,162.42093278
-18.89998178,32.55671866,20.73083974,78.56114815,-0.10106169,0.16468173,-2.68697827

>  <Name>
ligand

>  <RI>
0

>  <Rbt.Current_Directory>
/home/itssahil/PROJECTS/Mol_Feturizer/New_Systems/rnas/2QWY

>  <Rbt.Executable>
rbdock ($Id: //depot/dev/client3/rdock/2013.1/src/exe/rbdock.cxx#4 $)

>  <Rbt.Library>
libRbt.so (2013.1, Build901 2013/11/27)

>  <Rbt.Parameter_File>
/export/apps/rDock/src/rDock_2013.1_src/data/scripts/dock_solv.prm

>  <Rbt.Receptor>
prm/pocket_docking_5.prm

>  <SCORE>
-24.1359

>  <SCORE.INTER>
-25.091

>  <SCORE.INTER.CONST>
1

>  <SCORE.INTER.POLAR>
0

>  <SCORE.INTER.ROT>
7

>  <SCORE.INTER.SOLV>
16.2552

>  <SCORE.INTER.VDW>
-30.4124

>  <SCORE.INTER.norm>
-0.929296

>  <SCORE.INTRA>
0.955075

>  <SCORE.INTRA.DIHEDRAL>
5.27488

>  <SCORE.INTRA.DIHEDRAL.0>
10.7382

>  <SCORE.INTRA.POLAR>
0

>  <SCORE.INTRA.POLAR.0>
0

>  <SCORE.INTRA.REPUL>
0

>  <SCORE.INTRA.REPUL.0>
0

>  <SCORE.INTRA.SOLV>
-0.274295

>  <SCORE.INTRA.SOLV.lig_0>
-49.2501

>  <SCORE.INTRA.VDW>
-1.54522

>  <SCORE.INTRA.VDW.0>
-1.75368

>  <SCORE.INTRA.norm>
0.0353731

>  <SCORE.RESTR>
0

>  <SCORE.RESTR.CAVITY>
0

>  <SCORE.RESTR.norm>
0

>  <SCORE.SYSTEM>
0

>  <SCORE.SYSTEM.CONST>
0

>  <SCORE.SYSTEM.DIHEDRAL>
0

>  <SCORE.SYSTEM.SOLV>
0

>  <SCORE.SYSTEM.norm>
0

>  <SCORE.heavy>
27

>  <SCORE.norm>
-0.893923

>  <RMSD>
4.361

$$$$
ligand
 OpenBabel11021811463D
libRbt.so/2013.1/901 2013/11/27
 27 29  0  0  0  0  0  0  0  0999 V2000
   39.5819   18.3819   80.1670 N   0  0  0  0  0  0  0  0  0  0  0  0
   38.4759   17.8468   79.3539 C   0  0  2  0  0  0  0  0  0  0  0  0
   38.9890   17.4160   77.9955 C   0  0  0  0  0  0  0  0  0  0  0  0
   39.8504   18.0867   77.4175 O   0  0  0  0  0  0  0  0  0  0  0  0
   37.4242   18.9349   79.1631 C   0  0  0  0  0  0  0  0  0  0  0  0
   36.8277   19.3351   80.4955 C   0  0  0  0  0  0  0  0  0  0  0  0
   35.6343   20.6503   80.1931 S   0  0  2  0  0  0  0  0  0  0  0  0
   35.1449   20.9745   81.9098 C   0  0  0  0  0  0  0  0  0  0  0  0
   34.2008   19.6793   79.6154 C   0  0  0  0  0  0  0  0  0  0  0  0
   33.3800   20.5384   78.6574 C   0  0  1  0  0  0  0  0  0  0  0  0
   32.2830   19.7689   78.2231 O   0  0  0  0  0  0  0  0  0  0  0  0
   32.7870   21.7612   79.3656 C   0  0  1  0  0  0  0  0  0  0  0  0
   33.5278   22.9896   79.4308 O   0  0  0  0  0  0  0  0  0  0  0  0
   31.3540   21.8783   78.7481 C   0  0  1  0  0  0  0  0  0  0  0  0
   31.1386   23.2474   78.3648 O   0  0  0  0  0  0  0  0  0  0  0  0
   31.3049   20.6760   77.7398 C   0  0  2  0  0  0  0  0  0  0  0  0
   38.5999   16.3664   77.5062 O   0  0  0  0  0  0  0  0  0  0  0  0
   26.1391   21.1105   77.2600 N   0  0  0  0  0  0  0  0  0  0  0  0
   27.0621   22.0789   77.2491 C   0  0  0  0  0  0  0  0  0  0  0  0
   28.3555   21.8100   77.4031 N   0  0  0  0  0  0  0  0  0  0  0  0
   28.7930   20.5467   77.5536 C   0  0  0  0  0  0  0  0  0  0  0  0
   27.8552   19.4795   77.5570 C   0  0  0  0  0  0  0  0  0  0  0  0
   26.4775   19.8148   77.4013 C   0  0  0  0  0  0  0  0  0  0  0  0
   25.5046   18.8330   77.3853 N   0  0  0  0  0  0  0  0  0  0  0  0
   28.5540   18.3318   77.7150 N   0  0  0  0  0  0  0  0  0  0  0  0
   29.8219   18.6121   77.8037 C   0  0  0  0  0  0  0  0  0  0  0  0
   30.0206   19.9678   77.7102 N   0  0  0  0  0  0  0  0  0  0  0  0
  2  1  1  1  0  0  0
  2  3  1  0  0  0  0
  2  5  1  0  0  0  0
  3  4  1  0  0  0  0
  3 17  1  0  0  0  0
  5  6  1  0  0  0  0
  7  6  1  1  0  0  0
  7  8  1  0  0  0  0
  7  9  1  0  0  0  0
 10  9  1  1  0  0  0
 10 11  1  0  0  0  0
 10 12  1  0  0  0  0
 11 16  1  0  0  0  0
 12 13  1  6  0  0  0
 12 14  1  0  0  0  0
 14 15  1  6  0  0  0
 14 16  1  0  0  0  0
 16 27  1  1  0  0  0
 18 19  2  0  0  0  0
 18 23  1  0  0  0  0
 19 20  1  0  0  0  0
 20 21  2  0  0  0  0
 21 22  1  0  0  0  0
 21 27  1  0  0  0  0
 22 23  2  0  0  0  0
 22 25  1  0  0  0  0
 23 24  1  0  0  0  0
 25 26  2  0  0  0  0
 26 27  1  0  0  0  0
M  END
>  <CHROM.1>
-38.60251316,-63.07032591,178.41797064,-177.73794122,-150.89553797,179.87340767
166.73575193,32.84496708,20.00683517,78.59975091,0.09264932,0.21673505,-2.67173938

>  <Name>
ligand

>  <RI>
0

>  <Rbt.Current_Directory>
/home/itssahil/PROJECTS/Mol_Feturizer/New_Systems/rnas/2QWY

>  <Rbt.Executable>
rbdock ($Id: //depot/dev/client3/rdock/2013.1/src/exe/rbdock.cxx#4 $)

>  <Rbt.Library>
libRbt.so (2013.1, Build901 2013/11/27)

>  <Rbt.Parameter_File>
/export/apps/rDock/src/rDock_2013.1_src/data/scripts/dock_solv.prm

>  <Rbt.Receptor>
prm/pocket_docking_6.prm

>  <SCORE>
-28.7192

>  <SCORE.INTER>
-26.075

>  <SCORE.INTER.CONST>
1

>  <SCORE.INTER.POLAR>
0

>  <SCORE.INTER.ROT>
7

>  <SCORE.INTER.SOLV>
12.4439

>  <SCORE.INTER.VDW>
-29.798

>  <SCORE.INTER.norm>
-0.965742

>  <SCORE.INTRA>
-2.64415

>  <SCORE.INTRA.DIHEDRAL>
-4.00582

>  <SCORE.INTRA.DIHEDRAL.0>
10.7382

>  <SCORE.INTRA.POLAR>
0

>  <SCORE.INTRA.POLAR.0>
0

>  <SCORE.INTRA.REPUL>
0

>  <SCORE.INTRA.REPUL.0>
0

>  <SCORE.INTRA.SOLV>
-0.123828

>  <SCORE.INTRA.SOLV.lig_0>
-49.2501

>  <SCORE.INTRA.VDW>
-0.579323

>  <SCORE.INTRA.VDW.0>
-1.75368

>  <SCORE.INTRA.norm>
-0.0979315

>  <SCORE.RESTR>
0

>  <SCORE.RESTR.CAVITY>
0

>  <SCORE.RESTR.norm>
0

>  <SCORE.SYSTEM>
0

>  <SCORE.SYSTEM.CONST>
0

>  <SCORE.SYSTEM.DIHEDRAL>
0

>  <SCORE.SYSTEM.SOLV>
0

>  <SCORE.SYSTEM.norm>
0

>  <SCORE.heavy>
27

>  <SCORE.norm>
-1.06367

>  <RMSD>
4.368

$$$$
ligand
 OpenBabel11021811463D
libRbt.so/2013.1/901 2013/11/27
 27 29  0  0  0  0  0  0  0  0999 V2000
   37.3191   20.9535   70.8871 N   0  0  0  0  0  0  0  0  0  0  0  0
   37.1982   19.9237   71.9338 C   0  0  2  0  0  0  0  0  0  0  0  0
   37.5327   18.5606   71.3647 C   0  0  0  0  0  0  0  0  0  0  0  0
   38.3026   17.8082   71.9706 O   0  0  0  0  0  0  0  0  0  0  0  0
   35.7641   19.9047   72.4528 C   0  0  0  0  0  0  0  0  0  0  0  0
   35.6817   19.1381   73.7554 C   0  0  0  0  0  0  0  0  0  0  0  0
   36.1907   20.2466   75.0812 S   0  0  2  0  0  0  0  0  0  0  0  0
   37.9883   20.0804   74.9005 C   0  0  0  0  0  0  0  0  0  0  0  0
   35.9024   19.1854   76.5380 C   0  0  0  0  0  0  0  0  0  0  0  0
   36.7625   19.6924   77.6925 C   0  0  1  0  0  0  0  0  0  0  0  0
   35.9285   20.4243   78.5601 O   0  0  0  0  0  0  0  0  0  0  0  0
   37.3282   18.5354   78.5230 C   0  0  1  0  0  0  0  0  0  0  0  0
   38.5902   17.9446   78.1757 O   0  0  0  0  0  0  0  0  0  0  0  0
   37.2184   19.0574   79.9940 C   0  0  1  0  0  0  0  0  0  0  0  0
   38.4752   18.8212   80.6515 O   0  0  0  0  0  0  0  0  0  0  0  0
   36.5856   20.4832   79.8162 C   0  0  2  0  0  0  0  0  0  0  0  0
   36.9840   18.1803   70.3415 O   0  0  0  0  0  0  0  0  0  0  0  0
   32.2337   23.1451   80.8551 N   0  0  0  0  0  0  0  0  0  0  0  0
   32.9264   23.0927   79.7117 C   0  0  0  0  0  0  0  0  0  0  0  0
   34.0409   22.3748   79.6050 N   0  0  0  0  0  0  0  0  0  0  0  0
   34.5068   21.6507   80.6388 C   0  0  0  0  0  0  0  0  0  0  0  0
   33.8001   21.6596   81.8712 C   0  0  0  0  0  0  0  0  0  0  0  0
   32.6171   22.4530   81.9447 C   0  0  0  0  0  0  0  0  0  0  0  0
   31.8689   22.5074   83.1058 N   0  0  0  0  0  0  0  0  0  0  0  0
   34.4726   20.8537   82.7250 N   0  0  0  0  0  0  0  0  0  0  0  0
   35.5135   20.3616   82.1181 C   0  0  0  0  0  0  0  0  0  0  0  0
   35.5788   20.8248   80.8269 N   0  0  0  0  0  0  0  0  0  0  0  0
  2  1  1  6  0  0  0
  2  3  1  0  0  0  0
  2  5  1  0  0  0  0
  3  4  1  0  0  0  0
  3 17  1  0  0  0  0
  5  6  1  0  0  0  0
  7  6  1  6  0  0  0
  7  8  1  0  0  0  0
  7  9  1  0  0  0  0
 10  9  1  6  0  0  0
 10 11  1  0  0  0  0
 10 12  1  0  0  0  0
 11 16  1  0  0  0  0
 12 13  1  6  0  0  0
 12 14  1  0  0  0  0
 14 15  1  6  0  0  0
 14 16  1  0  0  0  0
 16 27  1  1  0  0  0
 18 19  2  0  0  0  0
 18 23  1  0  0  0  0
 19 20  1  0  0  0  0
 20 21  2  0  0  0  0
 21 22  1  0  0  0  0
 21 27  1  0  0  0  0
 22 23  2  0  0  0  0
 22 25  1  0  0  0  0
 23 24  1  0  0  0  0
 25 26  2  0  0  0  0
 26 27  1  0  0  0  0
M  END
>  <CHROM.1>
132.66163781,-165.06345884,81.59879460,-81.49016743,157.66821143,101.84213270
-34.63569448,35.92171817,20.22491872,77.40219042,1.16703256,0.66796152,-1.56783897

>  <Name>
ligand

>  <RI>
0

>  <Rbt.Current_Directory>
/home/itssahil/PROJECTS/Mol_Feturizer/New_Systems/rnas/2QWY

>  <Rbt.Executable>
rbdock ($Id: //depot/dev/client3/rdock/2013.1/src/exe/rbdock.cxx#4 $)

>  <Rbt.Library>
libRbt.so (2013.1, Build901 2013/11/27)

>  <Rbt.Parameter_File>
/export/apps/rDock/src/rDock_2013.1_src/data/scripts/dock_solv.prm

>  <Rbt.Receptor>
prm/pocket_docking_4.prm

>  <SCORE>
-4.64264

>  <SCORE.INTER>
-4.89139

>  <SCORE.INTER.CONST>
1

>  <SCORE.INTER.POLAR>
0

>  <SCORE.INTER.ROT>
7

>  <SCORE.INTER.SOLV>
12.7438

>  <SCORE.INTER.VDW>
-15.7755

>  <SCORE.INTER.norm>
-0.181163

>  <SCORE.INTRA>
0.248755

>  <SCORE.INTRA.DIHEDRAL>
-0.0635595

>  <SCORE.INTRA.DIHEDRAL.0>
10.7382

>  <SCORE.INTRA.POLAR>
0

>  <SCORE.INTRA.POLAR.0>
0

>  <SCORE.INTRA.REPUL>
0

>  <SCORE.INTRA.REPUL.0>
0

>  <SCORE.INTRA.SOLV>
-0.442029

>  <SCORE.INTRA.SOLV.lig_0>
-49.2501

>  <SCORE.INTRA.VDW>
0.50155

>  <SCORE.INTRA.VDW.0>
-1.75368

>  <SCORE.INTRA.norm>
0.00921316

>  <SCORE.RESTR>
0

>  <SCORE.RESTR.CAVITY>
0

>  <SCORE.RESTR.norm>
0

>  <SCORE.SYSTEM>
0

>  <SCORE.SYSTEM.CONST>
0

>  <SCORE.SYSTEM.DIHEDRAL>
0

>  <SCORE.SYSTEM.SOLV>
0

>  <SCORE.SYSTEM.norm>
0

>  <SCORE.heavy>
27

>  <SCORE.norm>
-0.17195

>  <RMSD>
4.505

$$$$
ligand
 OpenBabel11021811463D
libRbt.so/2013.1/901 2013/11/27
 27 29  0  0  0  0  0  0  0  0999 V2000
   35.9051   15.5157   70.7328 N   0  0  0  0  0  0  0  0  0  0  0  0
   36.2611   16.8821   70.3121 C   0  0  2  0  0  0  0  0  0  0  0  0
   36.7728   16.8717   68.8867 C   0  0  0  0  0  0  0  0  0  0  0  0
   37.4802   15.9403   68.4892 O   0  0  0  0  0  0  0  0  0  0  0  0
   37.3576   17.4169   71.2275 C   0  0  0  0  0  0  0  0  0  0  0  0
   36.7780   17.8315   72.5630 C   0  0  0  0  0  0  0  0  0  0  0  0
   35.8672   19.3662   72.3169 S   0  0  2  0  0  0  0  0  0  0  0  0
   37.2419   20.5337   72.5138 C   0  0  0  0  0  0  0  0  0  0  0  0
   35.0492   19.5373   73.9396 C   0  0  0  0  0  0  0  0  0  0  0  0
   36.1196   19.5805   75.0268 C   0  0  1  0  0  0  0  0  0  0  0  0
   35.7088   20.5155   75.9969 O   0  0  0  0  0  0  0  0  0  0  0  0
   36.2368   18.2370   75.7547 C   0  0  1  0  0  0  0  0  0  0  0  0
   37.1321   17.2255   75.2674 O   0  0  0  0  0  0  0  0  0  0  0  0
   36.4482   18.6514   77.2487 C   0  0  1  0  0  0  0  0  0  0  0  0
   37.5511   17.8938   77.7752 O   0  0  0  0  0  0  0  0  0  0  0  0
   36.4228   20.2199   77.1869 C   0  0  2  0  0  0  0  0  0  0  0  0
   36.4257   17.7505   68.1122 O   0  0  0  0  0  0  0  0  0  0  0  0
   31.8074   21.7335   79.0606 N   0  0  0  0  0  0  0  0  0  0  0  0
   32.0805   21.1487   77.8888 C   0  0  0  0  0  0  0  0  0  0  0  0
   33.3252   20.8349   77.5405 N   0  0  0  0  0  0  0  0  0  0  0  0
   34.3618   21.0723   78.3646 C   0  0  0  0  0  0  0  0  0  0  0  0
   34.1243   21.6778   79.6276 C   0  0  0  0  0  0  0  0  0  0  0  0
   32.7760   22.0088   79.9546 C   0  0  0  0  0  0  0  0  0  0  0  0
   32.4616   22.5923   81.1677 N   0  0  0  0  0  0  0  0  0  0  0  0
   35.3210   21.7936   80.2483 N   0  0  0  0  0  0  0  0  0  0  0  0
   36.2514   21.3118   79.4763 C   0  0  0  0  0  0  0  0  0  0  0  0
   35.7091   20.8544   78.3004 N   0  0  0  0  0  0  0  0  0  0  0  0
  2  1  1  1  0  0  0
  2  3  1  0  0  0  0
  2  5  1  0  0  0  0
  3  4  1  0  0  0  0
  3 17  1  0  0  0  0
  5  6  1  0  0  0  0
  7  6  1  1  0  0  0
  7  8  1  0  0  0  0
  7  9  1  0  0  0  0
 10  9  1  6  0  0  0
 10 11  1  0  0  0  0
 10 12  1  0  0  0  0
 11 16  1  0  0  0  0
 12 13  1  6  0  0  0
 12 14  1  0  0  0  0
 14 15  1  6  0  0  0
 14 16  1  0  0  0  0
 16 27  1  1  0  0  0
 18 19  2  0  0  0  0
 18 23  1  0  0  0  0
 19 20  1  0  0  0  0
 20 21  2  0  0  0  0
 21 22  1  0  0  0  0
 21 27  1  0  0  0  0
 22 23  2  0  0  0  0
 22 25  1  0  0  0  0
 23 24  1  0  0  0  0
 25 26  2  0  0  0  0
 26 27  1  0  0  0  0
M  END
>  <CHROM.1>
-37.83832861,-76.59425062,-73.44652284,-86.09089803,58.42145142,141.64801266
30.53424083,35.59732534,19.37439165,75.10536478,-1.24846486,-0.59353501,1.32602336

>  <Name>
ligand

>  <RI>
0

>  <Rbt.Current_Directory>
/home/itssahil/PROJECTS/Mol_Feturizer/New_Systems/rnas/2QWY

>  <Rbt.Executable>
rbdock ($Id: //depot/dev/client3/rdock/2013.1/src/exe/rbdock.cxx#4 $)

>  <Rbt.Library>
libRbt.so (2013.1, Build901 2013/11/27)

>  <Rbt.Parameter_File>
/export/apps/rDock/src/rDock_2013.1_src/data/scripts/dock_solv.prm

>  <Rbt.Receptor>
prm/pocket_docking_3.prm

>  <SCORE>
-5.89052

>  <SCORE.INTER>
-6.66609

>  <SCORE.INTER.CONST>
1

>  <SCORE.INTER.POLAR>
0

>  <SCORE.INTER.ROT>
7

>  <SCORE.INTER.SOLV>
11.8258

>  <SCORE.INTER.VDW>
-16.6527

>  <SCORE.INTER.norm>
-0.246892

>  <SCORE.INTRA>
0.765555

>  <SCORE.INTRA.DIHEDRAL>
-1.05268

>  <SCORE.INTRA.DIHEDRAL.0>
10.7382

>  <SCORE.INTRA.POLAR>
0

>  <SCORE.INTRA.POLAR.0>
0

>  <SCORE.INTRA.REPUL>
0

>  <SCORE.INTRA.REPUL.0>
0

>  <SCORE.INTRA.SOLV>
0.25167

>  <SCORE.INTRA.SOLV.lig_0>
-49.2501

>  <SCORE.INTRA.VDW>
1.16606

>  <SCORE.INTRA.VDW.0>
-1.75368

>  <SCORE.INTRA.norm>
0.0283539

>  <SCORE.RESTR>
0.0100096

>  <SCORE.RESTR.CAVITY>
0.0100096

>  <SCORE.RESTR.norm>
0.000370727

>  <SCORE.SYSTEM>
0

>  <SCORE.SYSTEM.CONST>
0

>  <SCORE.SYSTEM.DIHEDRAL>
0

>  <SCORE.SYSTEM.SOLV>
0

>  <SCORE.SYSTEM.norm>
0

>  <SCORE.heavy>
27

>  <SCORE.norm>
-0.218167

>  <RMSD>
4.573

$$$$
ligand
 OpenBabel11021811463D
libRbt.so/2013.1/901 2013/11/27
 27 29  0  0  0  0  0  0  0  0999 V2000
   36.9230   23.1122   75.4888 N   0  0  0  0  0  0  0  0  0  0  0  0
   36.1967   23.1177   76.7706 C   0  0  2  0  0  0  0  0  0  0  0  0
   35.5899   24.4829   77.0197 C   0  0  0  0  0  0  0  0  0  0  0  0
   34.7246   24.6269   77.8893 O   0  0  0  0  0  0  0  0  0  0  0  0
   37.1716   22.7964   77.8987 C   0  0  0  0  0  0  0  0  0  0  0  0
   37.5485   21.3306   77.8723 C   0  0  0  0  0  0  0  0  0  0  0  0
   36.5025   20.4704   79.0603 S   0  0  2  0  0  0  0  0  0  0  0  0
   37.1467   18.7907   78.8248 C   0  0  0  0  0  0  0  0  0  0  0  0
   34.9413   20.3637   78.1206 C   0  0  0  0  0  0  0  0  0  0  0  0
   34.1124   21.6139   78.4024 C   0  0  1  0  0  0  0  0  0  0  0  0
   32.8561   21.4435   77.7886 O   0  0  0  0  0  0  0  0  0  0  0  0
   33.8342   21.7788   79.9003 C   0  0  1  0  0  0  0  0  0  0  0  0
   34.7515   22.5075   80.7308 O   0  0  0  0  0  0  0  0  0  0  0  0
   32.3533   22.2822   79.9408 C   0  0  1  0  0  0  0  0  0  0  0  0
   32.2855   23.4138   80.8253 O   0  0  0  0  0  0  0  0  0  0  0  0
   31.9591   22.3418   78.4223 C   0  0  2  0  0  0  0  0  0  0  0  0
   36.0095   25.4531   76.4070 O   0  0  0  0  0  0  0  0  0  0  0  0
   28.8821   18.2414   77.5153 N   0  0  0  0  0  0  0  0  0  0  0  0
   30.2012   18.2612   77.7374 C   0  0  0  0  0  0  0  0  0  0  0  0
   30.8568   19.4011   77.9369 N   0  0  0  0  0  0  0  0  0  0  0  0
   30.2147   20.5834   77.9465 C   0  0  0  0  0  0  0  0  0  0  0  0
   28.8109   20.6165   77.7309 C   0  0  0  0  0  0  0  0  0  0  0  0
   28.1505   19.3719   77.5088 C   0  0  0  0  0  0  0  0  0  0  0  0
   26.7851   19.3192   77.2999 N   0  0  0  0  0  0  0  0  0  0  0  0
   28.4252   21.9116   77.7983 N   0  0  0  0  0  0  0  0  0  0  0  0
   29.4660   22.6558   78.0367 C   0  0  0  0  0  0  0  0  0  0  0  0
   30.5960   21.8816   78.1361 N   0  0  0  0  0  0  0  0  0  0  0  0
  2  1  1  6  0  0  0
  2  3  1  0  0  0  0
  2  5  1  0  0  0  0
  3  4  1  0  0  0  0
  3 17  1  0  0  0  0
  5  6  1  0  0  0  0
  7  6  1  6  0  0  0
  7  8  1  0  0  0  0
  7  9  1  0  0  0  0
 10  9  1  1  0  0  0
 10 11  1  0  0  0  0
 10 12  1  0  0  0  0
 11 16  1  0  0  0  0
 12 13  1  6  0  0  0
 12 14  1  0  0  0  0
 14 15  1  6  0  0  0
 14 16  1  0  0  0  0
 16 27  1  1  0  0  0
 18 19  2  0  0  0  0
 18 23  1  0  0  0  0
 19 20  1  0  0  0  0
 20 21  2  0  0  0  0
 21 22  1  0  0  0  0
 21 27  1  0  0  0  0
 22 23  2  0  0  0  0
 22 25  1  0  0  0  0
 23 24  1  0  0  0  0
 25 26  2  0  0  0  0
 26 27  1  0  0  0  0
M  END
>  <CHROM.1>
165.31120156,-73.16712657,-97.07878936,179.91702947,-89.16319262,-173.61372567
30.94732965,33.14007272,21.56222778,78.17939300,0.30100822,-0.05156675,-0.13981430

>  <Name>
ligand

>  <RI>
0

>  <Rbt.Current_Directory>
/home/itssahil/PROJECTS/Mol_Feturizer/New_Systems/rnas/2QWY

>  <Rbt.Executable>
rbdock ($Id: //depot/dev/client3/rdock/2013.1/src/exe/rbdock.cxx#4 $)

>  <Rbt.Library>
libRbt.so (2013.1, Build901 2013/11/27)

>  <Rbt.Parameter_File>
/export/apps/rDock/src/rDock_2013.1_src/data/scripts/dock_solv.prm

>  <Rbt.Receptor>
prm/pocket_docking_5.prm

>  <SCORE>
-25.9803

>  <SCORE.INTER>
-23.4641

>  <SCORE.INTER.CONST>
1

>  <SCORE.INTER.POLAR>
0

>  <SCORE.INTER.ROT>
7

>  <SCORE.INTER.SOLV>
14.5195

>  <SCORE.INTER.VDW>
-28.7493

>  <SCORE.INTER.norm>
-0.869042

>  <SCORE.INTRA>
-2.51612

>  <SCORE.INTRA.DIHEDRAL>
-1.85459

>  <SCORE.INTRA.DIHEDRAL.0>
10.7382

>  <SCORE.INTRA.POLAR>
0

>  <SCORE.INTRA.POLAR.0>
0

>  <SCORE.INTRA.REPUL>
0

>  <SCORE.INTRA.REPUL.0>
0

>  <SCORE.INTRA.SOLV>
0.71713

>  <SCORE.INTRA.SOLV.lig_0>
-49.2501

>  <SCORE.INTRA.VDW>
-1.94739

>  <SCORE.INTRA.VDW.0>
-1.75368

>  <SCORE.INTRA.norm>
-0.0931898

>  <SCORE.RESTR>
0

>  <SCORE.RESTR.CAVITY>
0

>  <SCORE.RESTR.norm>
0

>  <SCORE.SYSTEM>
0

>  <SCORE.SYSTEM.CONST>
0

>  <SCORE.SYSTEM.DIHEDRAL>
0

>  <SCORE.SYSTEM.SOLV>
0

>  <SCORE.SYSTEM.norm>
0

>  <SCORE.heavy>
27

>  <SCORE.norm>
-0.962232

>  <RMSD>
4.591

$$$$
ligand
 OpenBabel11021811463D
libRbt.so/2013.1/901 2013/11/27
 27 29  0  0  0  0  0  0  0  0999 V2000
   35.7886   16.3684   71.8425 N   0  0  0  0  0  0  0  0  0  0  0  0
   36.6300   15.1932   72.1283 C   0  0  2  0  0  0  0  0  0  0  0  0
   35.8901   13.9223   71.7662 C   0  0  0  0  0  0  0  0  0  0  0  0
   35.0382   13.4615   72.5328 O   0  0  0  0  0  0  0  0  0  0  0  0
   36.9610   15.1658   73.6170 C   0  0  0  0  0  0  0  0  0  0  0  0
   38.0609   16.1563   73.9339 C   0  0  0  0  0  0  0  0  0  0  0  0
   37.3510   17.8106   73.8638 S   0  0  2  0  0  0  0  0  0  0  0  0
   38.8437   18.7647   74.2553 C   0  0  0  0  0  0  0  0  0  0  0  0
   36.4840   17.8742   75.4688 C   0  0  0  0  0  0  0  0  0  0  0  0
   35.5588   19.0881   75.4790 C   0  0  1  0  0  0  0  0  0  0  0  0
   34.9097   19.1228   76.7287 O   0  0  0  0  0  0  0  0  0  0  0  0
   36.3476   20.3977   75.3739 C   0  0  1  0  0  0  0  0  0  0  0  0
   36.6522   20.9578   74.0871 O   0  0  0  0  0  0  0  0  0  0  0  0
   35.5944   21.3546   76.3565 C   0  0  1  0  0  0  0  0  0  0  0  0
   35.3684   22.6052   75.6838 O   0  0  0  0  0  0  0  0  0  0  0  0
   34.4409   20.4487   76.9164 C   0  0  2  0  0  0  0  0  0  0  0  0
   36.0882   13.3941   70.6824 O   0  0  0  0  0  0  0  0  0  0  0  0
   31.9179   23.2104   80.5374 N   0  0  0  0  0  0  0  0  0  0  0  0
   31.9179   23.3785   79.2102 C   0  0  0  0  0  0  0  0  0  0  0  0
   32.6350   22.5955   78.4090 N   0  0  0  0  0  0  0  0  0  0  0  0
   33.3743   21.5843   78.8998 C   0  0  0  0  0  0  0  0  0  0  0  0
   33.3969   21.3531   80.3013 C   0  0  0  0  0  0  0  0  0  0  0  0
   32.6231   22.2245   81.1238 C   0  0  0  0  0  0  0  0  0  0  0  0
   32.5858   22.0598   82.4958 N   0  0  0  0  0  0  0  0  0  0  0  0
   34.2011   20.2870   80.5191 N   0  0  0  0  0  0  0  0  0  0  0  0
   34.6593   19.8572   79.3793 C   0  0  0  0  0  0  0  0  0  0  0  0
   34.1777   20.6265   78.3485 N   0  0  0  0  0  0  0  0  0  0  0  0
  2  1  1  1  0  0  0
  2  3  1  0  0  0  0
  2  5  1  0  0  0  0
  3  4  1  0  0  0  0
  3 17  1  0  0  0  0
  5  6  1  0  0  0  0
  7  6  1  1  0  0  0
  7  8  1  0  0  0  0
  7  9  1  0  0  0  0
 10  9  1  1  0  0  0
 10 11  1  0  0  0  0
 10 12  1  0  0  0  0
 11 16  1  0  0  0  0
 12 13  1  6  0  0  0
 12 14  1  0  0  0  0
 14 15  1  6  0  0  0
 14 16  1  0  0  0  0
 16 27  1  1  0  0  0
 18 19  2  0  0  0  0
 18 23  1  0  0  0  0
 19 20  1  0  0  0  0
 20 21  2  0  0  0  0
 21 22  1  0  0  0  0
 21 27  1  0  0  0  0
 22 23  2  0  0  0  0
 22 25  1  0  0  0  0
 23 24  1  0  0  0  0
 25 26  2  0  0  0  0
 26 27  1  0  0  0  0
M  END
>  <CHROM.1>
-79.46759046,-78.19379885,73.90227234,-179.51099892,-167.76575142,-179.53788354
-159.88763872,35.25694086,19.09452277,76.06318772,1.04067269,-0.85681640
-2.72417452

>  <Name>
ligand

>  <RI>
0

>  <Rbt.Current_Directory>
/home/itssahil/PROJECTS/Mol_Feturizer/New_Systems/rnas/2QWY

>  <Rbt.Executable>
rbdock ($Id: //depot/dev/client3/rdock/2013.1/src/exe/rbdock.cxx#4 $)

>  <Rbt.Library>
libRbt.so (2013.1, Build901 2013/11/27)

>  <Rbt.Parameter_File>
/export/apps/rDock/src/rDock_2013.1_src/data/scripts/dock_solv.prm

>  <Rbt.Receptor>
prm/pocket_docking_4.prm

>  <SCORE>
-9.40317

>  <SCORE.INTER>
-8.43208

>  <SCORE.INTER.CONST>
1

>  <SCORE.INTER.POLAR>
0

>  <SCORE.INTER.ROT>
7

>  <SCORE.INTER.SOLV>
10.4351

>  <SCORE.INTER.VDW>
-17.3664

>  <SCORE.INTER.norm>
-0.312299

>  <SCORE.INTRA>
-0.976966

>  <SCORE.INTRA.DIHEDRAL>
-4.20155

>  <SCORE.INTRA.DIHEDRAL.0>
10.7382

>  <SCORE.INTRA.POLAR>
0

>  <SCORE.INTRA.POLAR.0>
0

>  <SCORE.INTRA.REPUL>
0

>  <SCORE.INTRA.REPUL.0>
0

>  <SCORE.INTRA.SOLV>
1.62432

>  <SCORE.INTRA.SOLV.lig_0>
-49.2501

>  <SCORE.INTRA.VDW>
0.311646

>  <SCORE.INTRA.VDW.0>
-1.75368

>  <SCORE.INTRA.norm>
-0.0361839

>  <SCORE.RESTR>
0.00587228

>  <SCORE.RESTR.CAVITY>
0.00587228

>  <SCORE.RESTR.norm>
0.000217492

>  <SCORE.SYSTEM>
0

>  <SCORE.SYSTEM.CONST>
0

>  <SCORE.SYSTEM.DIHEDRAL>
0

>  <SCORE.SYSTEM.SOLV>
0

>  <SCORE.SYSTEM.norm>
0

>  <SCORE.heavy>
27

>  <SCORE.norm>
-0.348266

>  <RMSD>
4.597

$$$$
ligand
 OpenBabel11021811463D
libRbt.so/2013.1/901 2013/11/27
 27 29  0  0  0  0  0  0  0  0999 V2000
   38.5023   24.0941   78.5528 N   0  0  0  0  0  0  0  0  0  0  0  0
   37.5044   23.5902   77.5931 C   0  0  2  0  0  0  0  0  0  0  0  0
   36.3038   24.5128   77.5573 C   0  0  0  0  0  0  0  0  0  0  0  0
   35.9225   24.9919   76.4846 O   0  0  0  0  0  0  0  0  0  0  0  0
   37.0484   22.2016   78.0294 C   0  0  0  0  0  0  0  0  0  0  0  0
   36.1091   21.6053   77.0030 C   0  0  0  0  0  0  0  0  0  0  0  0
   35.6916   19.9372   77.5402 S   0  0  2  0  0  0  0  0  0  0  0  0
   34.7112   19.4249   76.1022 C   0  0  0  0  0  0  0  0  0  0  0  0
   34.3631   20.2916   78.7407 C   0  0  0  0  0  0  0  0  0  0  0  0
   33.2903   21.1309   78.0519 C   0  0  1  0  0  0  0  0  0  0  0  0
   32.2247   20.2735   77.7151 O   0  0  0  0  0  0  0  0  0  0  0  0
   32.7050   22.1836   78.9995 C   0  0  1  0  0  0  0  0  0  0  0  0
   33.3041   23.4852   79.0939 O   0  0  0  0  0  0  0  0  0  0  0  0
   31.1792   22.1750   78.6528 C   0  0  1  0  0  0  0  0  0  0  0  0
   30.7464   23.5363   78.4882 O   0  0  0  0  0  0  0  0  0  0  0  0
   31.0800   21.0894   77.5231 C   0  0  2  0  0  0  0  0  0  0  0  0
   35.6721   24.7246   78.5814 O   0  0  0  0  0  0  0  0  0  0  0  0
   25.8796   20.8529   77.4593 N   0  0  0  0  0  0  0  0  0  0  0  0
   26.6670   21.9282   77.3428 C   0  0  0  0  0  0  0  0  0  0  0  0
   27.9923   21.8301   77.3974 N   0  0  0  0  0  0  0  0  0  0  0  0
   28.5986   20.6387   77.5494 C   0  0  0  0  0  0  0  0  0  0  0  0
   27.8086   19.4634   77.6626 C   0  0  0  0  0  0  0  0  0  0  0  0
   26.3914   19.6167   77.6113 C   0  0  0  0  0  0  0  0  0  0  0  0
   25.5542   18.5208   77.7055 N   0  0  0  0  0  0  0  0  0  0  0  0
   28.6591   18.4198   77.7968 N   0  0  0  0  0  0  0  0  0  0  0  0
   29.8836   18.8602   77.7718 C   0  0  0  0  0  0  0  0  0  0  0  0
   29.8988   20.2252   77.6213 N   0  0  0  0  0  0  0  0  0  0  0  0
  2  1  1  1  0  0  0
  2  3  1  0  0  0  0
  2  5  1  0  0  0  0
  3  4  1  0  0  0  0
  3 17  1  0  0  0  0
  5  6  1  0  0  0  0
  7  6  1  6  0  0  0
  7  8  1  0  0  0  0
  7  9  1  0  0  0  0
 10  9  1  1  0  0  0
 10 11  1  0  0  0  0
 10 12  1  0  0  0  0
 11 16  1  0  0  0  0
 12 13  1  6  0  0  0
 12 14  1  0  0  0  0
 14 15  1  6  0  0  0
 14 16  1  0  0  0  0
 16 27  1  1  0  0  0
 18 19  2  0  0  0  0
 18 23  1  0  0  0  0
 19 20  1  0  0  0  0
 20 21  2  0  0  0  0
 21 22  1  0  0  0  0
 21 27  1  0  0  0  0
 22 23  2  0  0  0  0
 22 25  1  0  0  0  0
 23 24  1  0  0  0  0
 25 26  2  0  0  0  0
 26 27  1  0  0  0  0
M  END
>  <CHROM.1>
125.31202733,-175.26115561,176.81541314,-175.31154229,54.49715796,101.33192076
177.09574546,32.27656920,21.45225254,77.79354929,0.30773888,0.02669658,0.13496977

>  <Name>
ligand

>  <RI>
0

>  <Rbt.Current_Directory>
/home/itssahil/PROJECTS/Mol_Feturizer/New_Systems/rnas/2QWY

>  <Rbt.Executable>
rbdock ($Id: //depot/dev/client3/rdock/2013.1/src/exe/rbdock.cxx#4 $)

>  <Rbt.Library>
libRbt.so (2013.1, Build901 2013/11/27)

>  <Rbt.Parameter_File>
/export/apps/rDock/src/rDock_2013.1_src/data/scripts/dock_solv.prm

>  <Rbt.Receptor>
prm/pocket_docking_6.prm

>  <SCORE>
-25.5455

>  <SCORE.INTER>
-24.2786

>  <SCORE.INTER.CONST>
1

>  <SCORE.INTER.POLAR>
0

>  <SCORE.INTER.ROT>
7

>  <SCORE.INTER.SOLV>
11.913

>  <SCORE.INTER.VDW>
-28.4234

>  <SCORE.INTER.norm>
-0.899206

>  <SCORE.INTRA>
-1.26693

>  <SCORE.INTRA.DIHEDRAL>
-2.79495

>  <SCORE.INTRA.DIHEDRAL.0>
10.7382

>  <SCORE.INTRA.POLAR>
0

>  <SCORE.INTRA.POLAR.0>
0

>  <SCORE.INTRA.REPUL>
0

>  <SCORE.INTRA.REPUL.0>
0

>  <SCORE.INTRA.SOLV>
-0.771685

>  <SCORE.INTRA.SOLV.lig_0>
-49.2501

>  <SCORE.INTRA.VDW>
0.516385

>  <SCORE.INTRA.VDW.0>
-1.75368

>  <SCORE.INTRA.norm>
-0.0469235

>  <SCORE.RESTR>
0

>  <SCORE.RESTR.CAVITY>
0

>  <SCORE.RESTR.norm>
0

>  <SCORE.SYSTEM>
0

>  <SCORE.SYSTEM.CONST>
0

>  <SCORE.SYSTEM.DIHEDRAL>
0

>  <SCORE.SYSTEM.SOLV>
0

>  <SCORE.SYSTEM.norm>
0

>  <SCORE.heavy>
27

>  <SCORE.norm>
-0.94613

>  <RMSD>
4.625

$$$$
ligand
 OpenBabel11021811463D
libRbt.so/2013.1/901 2013/11/27
 27 29  0  0  0  0  0  0  0  0999 V2000
   37.5007   19.4106   78.2461 N   0  0  0  0  0  0  0  0  0  0  0  0
   36.3666   18.6637   77.6744 C   0  0  2  0  0  0  0  0  0  0  0  0
   36.7512   18.0808   76.3305 C   0  0  0  0  0  0  0  0  0  0  0  0
   36.3777   16.9457   76.0178 O   0  0  0  0  0  0  0  0  0  0  0  0
   35.1886   19.6134   77.4829 C   0  0  0  0  0  0  0  0  0  0  0  0
   34.7631   20.2047   78.8099 C   0  0  0  0  0  0  0  0  0  0  0  0
   33.4076   21.3487   78.4950 S   0  0  2  0  0  0  0  0  0  0  0  0
   33.1793   21.9723   80.1834 C   0  0  0  0  0  0  0  0  0  0  0  0
   32.0053   20.1863   78.3763 C   0  0  0  0  0  0  0  0  0  0  0  0
   30.8778   20.8556   77.5951 C   0  0  1  0  0  0  0  0  0  0  0  0
   29.8127   19.9380   77.5072 O   0  0  0  0  0  0  0  0  0  0  0  0
   30.3259   22.0767   78.3385 C   0  0  1  0  0  0  0  0  0  0  0  0
   30.9022   23.3748   78.1261 O   0  0  0  0  0  0  0  0  0  0  0  0
   28.7832   21.9836   78.0935 C   0  0  1  0  0  0  0  0  0  0  0  0
   28.3136   23.2776   77.6779 O   0  0  0  0  0  0  0  0  0  0  0  0
   28.6422   20.6867   77.2201 C   0  0  2  0  0  0  0  0  0  0  0  0
   37.3715   18.7636   75.5294 O   0  0  0  0  0  0  0  0  0  0  0  0
   23.5871   20.6018   78.4622 N   0  0  0  0  0  0  0  0  0  0  0  0
   24.3664   21.6597   78.2109 C   0  0  0  0  0  0  0  0  0  0  0  0
   25.6574   21.5209   77.9224 N   0  0  0  0  0  0  0  0  0  0  0  0
   26.2296   20.3055   77.8485 C   0  0  0  0  0  0  0  0  0  0  0  0
   25.4425   19.1481   78.0917 C   0  0  0  0  0  0  0  0  0  0  0  0
   24.0659   19.3443   78.4097 C   0  0  0  0  0  0  0  0  0  0  0  0
   23.2319   18.2686   78.6510 N   0  0  0  0  0  0  0  0  0  0  0  0
   26.2528   18.0743   77.9472 N   0  0  0  0  0  0  0  0  0  0  0  0
   27.4499   18.4806   77.6378 C   0  0  0  0  0  0  0  0  0  0  0  0
   27.4868   19.8515   77.5654 N   0  0  0  0  0  0  0  0  0  0  0  0
  2  1  1  6  0  0  0
  2  3  1  0  0  0  0
  2  5  1  0  0  0  0
  3  4  1  0  0  0  0
  3 17  1  0  0  0  0
  5  6  1  0  0  0  0
  7  6  1  1  0  0  0
  7  8  1  0  0  0  0
  7  9  1  0  0  0  0
 10  9  1  1  0  0  0
 10 11  1  0  0  0  0
 10 12  1  0  0  0  0
 11 16  1  0  0  0  0
 12 13  1  6  0  0  0
 12 14  1  0  0  0  0
 14 15  1  6  0  0  0
 14 16  1  0  0  0  0
 16 27  1  1  0  0  0
 18 19  2  0  0  0  0
 18 23  1  0  0  0  0
 19 20  1  0  0  0  0
 20 21  2  0  0  0  0
 21 22  1  0  0  0  0
 21 27  1  0  0  0  0
 22 23  2  0  0  0  0
 22 25  1  0  0  0  0
 23 24  1  0  0  0  0
 25 26  2  0  0  0  0
 26 27  1  0  0  0  0
M  END
>  <CHROM.1>
140.21685248,-60.44658174,178.27159339,-176.49236768,-158.24703472,179.54060430
157.77635376,30.45511116,20.25017059,77.88534762,0.09697920,-0.04451359,-2.84200129

>  <Name>
ligand

>  <RI>
0

>  <Rbt.Current_Directory>
/home/itssahil/PROJECTS/Mol_Feturizer/New_Systems/rnas/2QWY

>  <Rbt.Executable>
rbdock ($Id: //depot/dev/client3/rdock/2013.1/src/exe/rbdock.cxx#4 $)

>  <Rbt.Library>
libRbt.so (2013.1, Build901 2013/11/27)

>  <Rbt.Parameter_File>
/export/apps/rDock/src/rDock_2013.1_src/data/scripts/dock_solv.prm

>  <Rbt.Receptor>
prm/pocket_docking_8.prm

>  <SCORE>
-21.4229

>  <SCORE.INTER>
-18.4617

>  <SCORE.INTER.CONST>
1

>  <SCORE.INTER.POLAR>
0

>  <SCORE.INTER.ROT>
7

>  <SCORE.INTER.SOLV>
10.3585

>  <SCORE.INTER.VDW>
-24.0273

>  <SCORE.INTER.norm>
-0.683768

>  <SCORE.INTRA>
-2.96115

>  <SCORE.INTRA.DIHEDRAL>
-4.99595

>  <SCORE.INTRA.DIHEDRAL.0>
10.7382

>  <SCORE.INTRA.POLAR>
0

>  <SCORE.INTRA.POLAR.0>
0

>  <SCORE.INTRA.REPUL>
0

>  <SCORE.INTRA.REPUL.0>
0

>  <SCORE.INTRA.SOLV>
-0.0718443

>  <SCORE.INTRA.SOLV.lig_0>
-49.2501

>  <SCORE.INTRA.VDW>
-0.427256

>  <SCORE.INTRA.VDW.0>
-1.75368

>  <SCORE.INTRA.norm>
-0.109672

>  <SCORE.RESTR>
0

>  <SCORE.RESTR.CAVITY>
0

>  <SCORE.RESTR.norm>
0

>  <SCORE.SYSTEM>
0

>  <SCORE.SYSTEM.CONST>
0

>  <SCORE.SYSTEM.DIHEDRAL>
0

>  <SCORE.SYSTEM.SOLV>
0

>  <SCORE.SYSTEM.norm>
0

>  <SCORE.heavy>
27

>  <SCORE.norm>
-0.793441

>  <RMSD>
4.666

$$$$
ligand
 OpenBabel11021811463D
libRbt.so/2013.1/901 2013/11/27
 27 29  0  0  0  0  0  0  0  0999 V2000
   37.3787   20.6527   71.8462 N   0  0  0  0  0  0  0  0  0  0  0  0
   37.3948   19.2930   72.4132 C   0  0  2  0  0  0  0  0  0  0  0  0
   37.5839   18.2712   71.3113 C   0  0  0  0  0  0  0  0  0  0  0  0
   36.8752   18.3120   70.3004 O   0  0  0  0  0  0  0  0  0  0  0  0
   36.0652   19.0271   73.1116 C   0  0  0  0  0  0  0  0  0  0  0  0
   36.1196   17.7216   73.8760 C   0  0  0  0  0  0  0  0  0  0  0  0
   37.1953   17.9610   75.3011 S   0  0  2  0  0  0  0  0  0  0  0  0
   37.5277   16.2197   75.6874 C   0  0  0  0  0  0  0  0  0  0  0  0
   35.9654   18.3596   76.5895 C   0  0  0  0  0  0  0  0  0  0  0  0
   35.3906   19.7451   76.3074 C   0  0  1  0  0  0  0  0  0  0  0  0
   34.4242   20.0183   77.2951 O   0  0  0  0  0  0  0  0  0  0  0  0
   36.4582   20.8359   76.4448 C   0  0  1  0  0  0  0  0  0  0  0  0
   37.2562   21.2142   75.3125 O   0  0  0  0  0  0  0  0  0  0  0  0
   35.6912   22.0081   77.1419 C   0  0  1  0  0  0  0  0  0  0  0  0
   35.9762   23.2223   76.4262 O   0  0  0  0  0  0  0  0  0  0  0  0
   34.2446   21.4254   77.3223 C   0  0  2  0  0  0  0  0  0  0  0  0
   38.4857   17.4511   71.3941 O   0  0  0  0  0  0  0  0  0  0  0  0
   34.2486   20.6866   82.4758 N   0  0  0  0  0  0  0  0  0  0  0  0
   35.0443   20.1335   81.5535 C   0  0  0  0  0  0  0  0  0  0  0  0
   34.9079   20.4104   80.2597 N   0  0  0  0  0  0  0  0  0  0  0  0
   33.9761   21.2785   79.8259 C   0  0  0  0  0  0  0  0  0  0  0  0
   33.1152   21.9053   80.7661 C   0  0  0  0  0  0  0  0  0  0  0  0
   33.2886   21.5697   82.1416 C   0  0  0  0  0  0  0  0  0  0  0  0
   32.4964   22.1433   83.1184 N   0  0  0  0  0  0  0  0  0  0  0  0
   32.2909   22.7235   80.0721 N   0  0  0  0  0  0  0  0  0  0  0  0
   32.5798   22.6469   78.8054 C   0  0  0  0  0  0  0  0  0  0  0  0
   33.6140   21.7665   78.6021 N   0  0  0  0  0  0  0  0  0  0  0  0
  2  1  1  6  0  0  0
  2  3  1  0  0  0  0
  2  5  1  0  0  0  0
  3  4  1  0  0  0  0
  3 17  1  0  0  0  0
  5  6  1  0  0  0  0
  7  6  1  6  0  0  0
  7  8  1  0  0  0  0
  7  9  1  0  0  0  0
 10  9  1  1  0  0  0
 10 11  1  0  0  0  0
 10 12  1  0  0  0  0
 11 16  1  0  0  0  0
 12 13  1  6  0  0  0
 12 14  1  0  0  0  0
 14 15  1  6  0  0  0
 14 16  1  0  0  0  0
 16 27  1  1  0  0  0
 18 19  2  0  0  0  0
 18 23  1  0  0  0  0
 19 20  1  0  0  0  0
 20 21  2  0  0  0  0
 21 22  1  0  0  0  0
 21 27  1  0  0  0  0
 22 23  2  0  0  0  0
 22 25  1  0  0  0  0
 23 24  1  0  0  0  0
 25 26  2  0  0  0  0
 26 27  1  0  0  0  0
M  END
>  <CHROM.1>
-49.81162965,-171.78920587,71.09809665,-162.13454611,-70.53933134,178.70550199
45.01184797,35.54139727,20.10981176,76.67656598,0.51768691,1.10488181,-0.93530078

>  <Name>
ligand

>  <RI>
0

>  <Rbt.Current_Directory>
/home/itssahil/PROJECTS/Mol_Feturizer/New_Systems/rnas/2QWY

>  <Rbt.Executable>
rbdock ($Id: //depot/dev/client3/rdock/2013.1/src/exe/rbdock.cxx#4 $)

>  <Rbt.Library>
libRbt.so (2013.1, Build901 2013/11/27)

>  <Rbt.Parameter_File>
/export/apps/rDock/src/rDock_2013.1_src/data/scripts/dock_solv.prm

>  <Rbt.Receptor>
prm/pocket_docking_5.prm

>  <SCORE>
-11.7065

>  <SCORE.INTER>
-7.72595

>  <SCORE.INTER.CONST>
1

>  <SCORE.INTER.POLAR>
0

>  <SCORE.INTER.ROT>
7

>  <SCORE.INTER.SOLV>
9.11979

>  <SCORE.INTER.VDW>
-16.4572

>  <SCORE.INTER.norm>
-0.286146

>  <SCORE.INTRA>
-3.98055

>  <SCORE.INTRA.DIHEDRAL>
-4.99486

>  <SCORE.INTRA.DIHEDRAL.0>
10.7382

>  <SCORE.INTRA.POLAR>
0

>  <SCORE.INTRA.POLAR.0>
0

>  <SCORE.INTRA.REPUL>
0

>  <SCORE.INTRA.REPUL.0>
0

>  <SCORE.INTRA.SOLV>
0.276989

>  <SCORE.INTRA.SOLV.lig_0>
-49.2501

>  <SCORE.INTRA.VDW>
-1.62161

>  <SCORE.INTRA.VDW.0>
-1.75368

>  <SCORE.INTRA.norm>
-0.147428

>  <SCORE.RESTR>
0

>  <SCORE.RESTR.CAVITY>
0

>  <SCORE.RESTR.norm>
0

>  <SCORE.SYSTEM>
0

>  <SCORE.SYSTEM.CONST>
0

>  <SCORE.SYSTEM.DIHEDRAL>
0

>  <SCORE.SYSTEM.SOLV>
0

>  <SCORE.SYSTEM.norm>
0

>  <SCORE.heavy>
27

>  <SCORE.norm>
-0.433574

>  <RMSD>
4.695

$$$$
ligand
 OpenBabel11021811463D
libRbt.so/2013.1/901 2013/11/27
 27 29  0  0  0  0  0  0  0  0999 V2000
   39.5032   18.3976   78.8596 N   0  0  0  0  0  0  0  0  0  0  0  0
   39.0381   19.7280   79.2890 C   0  0  2  0  0  0  0  0  0  0  0  0
   39.5662   20.0429   80.6732 C   0  0  0  0  0  0  0  0  0  0  0  0
   39.9273   21.1907   80.9521 O   0  0  0  0  0  0  0  0  0  0  0  0
   37.5133   19.7357   79.3277 C   0  0  0  0  0  0  0  0  0  0  0  0
   36.9466   19.4155   77.9611 C   0  0  0  0  0  0  0  0  0  0  0  0
   35.2183   19.9234   77.9475 S   0  0  2  0  0  0  0  0  0  0  0  0
   34.7920   19.3949   76.2650 C   0  0  0  0  0  0  0  0  0  0  0  0
   35.3969   21.7225   77.6968 C   0  0  0  0  0  0  0  0  0  0  0  0
   34.1348   22.4162   78.2020 C   0  0  1  0  0  0  0  0  0  0  0  0
   33.0255   21.7272   77.6739 O   0  0  0  0  0  0  0  0  0  0  0  0
   34.0099   22.3169   79.7261 C   0  0  1  0  0  0  0  0  0  0  0  0
   34.5947   23.3233   80.5672 O   0  0  0  0  0  0  0  0  0  0  0  0
   32.4815   22.0668   79.9492 C   0  0  1  0  0  0  0  0  0  0  0  0
   32.0223   22.9648   80.9741 O   0  0  0  0  0  0  0  0  0  0  0  0
   31.9093   22.0520   78.4873 C   0  0  2  0  0  0  0  0  0  0  0  0
   39.5673   19.1747   81.5328 O   0  0  0  0  0  0  0  0  0  0  0  0
   26.9396   21.1335   77.2369 N   0  0  0  0  0  0  0  0  0  0  0  0
   27.5601   22.3103   77.3786 C   0  0  0  0  0  0  0  0  0  0  0  0
   28.8427   22.3842   77.7231 N   0  0  0  0  0  0  0  0  0  0  0  0
   29.5775   21.2748   77.9214 C   0  0  0  0  0  0  0  0  0  0  0  0
   28.9704   19.9995   77.7686 C   0  0  0  0  0  0  0  0  0  0  0  0
   27.5901   19.9674   77.4106 C   0  0  0  0  0  0  0  0  0  0  0  0
   26.9294   18.7660   77.2346 N   0  0  0  0  0  0  0  0  0  0  0  0
   29.9222   19.0701   78.0154 N   0  0  0  0  0  0  0  0  0  0  0  0
   31.0420   19.6696   78.2987 C   0  0  0  0  0  0  0  0  0  0  0  0
   30.8803   21.0327   78.2543 N   0  0  0  0  0  0  0  0  0  0  0  0
  2  1  1  1  0  0  0
  2  3  1  0  0  0  0
  2  5  1  0  0  0  0
  3  4  1  0  0  0  0
  3 17  1  0  0  0  0
  5  6  1  0  0  0  0
  7  6  1  6  0  0  0
  7  8  1  0  0  0  0
  7  9  1  0  0  0  0
 10  9  1  6  0  0  0
 10 11  1  0  0  0  0
 10 12  1  0  0  0  0
 11 16  1  0  0  0  0
 12 13  1  1  0  0  0
 12 14  1  0  0  0  0
 14 15  1  1  0  0  0
 14 16  1  0  0  0  0
 16 27  1  1  0  0  0
 18 19  2  0  0  0  0
 18 23  1  0  0  0  0
 19 20  1  0  0  0  0
 20 21  2  0  0  0  0
 21 22  1  0  0  0  0
 21 27  1  0  0  0  0
 22 23  2  0  0  0  0
 22 25  1  0  0  0  0
 23 24  1  0  0  0  0
 25 26  2  0  0  0  0
 26 27  1  0  0  0  0
M  END
>  <CHROM.1>
141.99307877,-59.38658926,-163.07586185,-178.44103737,-157.47119323,-47.80354888
-127.84815258,33.48104292,20.76000301,78.65275172,-0.04421117,0.21284820
-2.55111797

>  <Name>
ligand

>  <RI>
0

>  <Rbt.Current_Directory>
/home/itssahil/PROJECTS/Mol_Feturizer/New_Systems/rnas/2QWY

>  <Rbt.Executable>
rbdock ($Id: //depot/dev/client3/rdock/2013.1/src/exe/rbdock.cxx#4 $)

>  <Rbt.Library>
libRbt.so (2013.1, Build901 2013/11/27)

>  <Rbt.Parameter_File>
/export/apps/rDock/src/rDock_2013.1_src/data/scripts/dock_solv.prm

>  <Rbt.Receptor>
prm/pocket_docking_5.prm

>  <SCORE>
-19.6278

>  <SCORE.INTER>
-17.0966

>  <SCORE.INTER.CONST>
1

>  <SCORE.INTER.POLAR>
0

>  <SCORE.INTER.ROT>
7

>  <SCORE.INTER.SOLV>
14.2167

>  <SCORE.INTER.VDW>
-24.4033

>  <SCORE.INTER.norm>
-0.633208

>  <SCORE.INTRA>
-2.5312

>  <SCORE.INTRA.DIHEDRAL>
-3.4449

>  <SCORE.INTRA.DIHEDRAL.0>
10.7382

>  <SCORE.INTRA.POLAR>
0

>  <SCORE.INTRA.POLAR.0>
0

>  <SCORE.INTRA.REPUL>
0

>  <SCORE.INTRA.REPUL.0>
0

>  <SCORE.INTRA.SOLV>
-0.292587

>  <SCORE.INTRA.SOLV.lig_0>
-49.2501

>  <SCORE.INTRA.VDW>
-0.662458

>  <SCORE.INTRA.VDW.0>
-1.75368

>  <SCORE.INTRA.norm>
-0.0937482

>  <SCORE.RESTR>
0

>  <SCORE.RESTR.CAVITY>
0

>  <SCORE.RESTR.norm>
0

>  <SCORE.SYSTEM>
0

>  <SCORE.SYSTEM.CONST>
0

>  <SCORE.SYSTEM.DIHEDRAL>
0

>  <SCORE.SYSTEM.SOLV>
0

>  <SCORE.SYSTEM.norm>
0

>  <SCORE.heavy>
27

>  <SCORE.norm>
-0.726957

>  <RMSD>
4.714

$$$$
ligand
 OpenBabel11021811463D
libRbt.so/2013.1/901 2013/11/27
 27 29  0  0  0  0  0  0  0  0999 V2000
   39.4881   18.4397   80.1693 N   0  0  0  0  0  0  0  0  0  0  0  0
   38.3266   18.0584   79.3469 C   0  0  2  0  0  0  0  0  0  0  0  0
   38.7556   17.8339   77.9118 C   0  0  0  0  0  0  0  0  0  0  0  0
   38.1466   17.0268   77.2022 O   0  0  0  0  0  0  0  0  0  0  0  0
   37.2966   19.1826   79.3852 C   0  0  0  0  0  0  0  0  0  0  0  0
   36.7197   19.3258   80.7774 C   0  0  0  0  0  0  0  0  0  0  0  0
   35.7380   20.8358   80.8153 S   0  0  2  0  0  0  0  0  0  0  0  0
   35.2464   20.7978   82.5613 C   0  0  0  0  0  0  0  0  0  0  0  0
   34.1986   20.2579   80.0227 C   0  0  0  0  0  0  0  0  0  0  0  0
   33.6531   21.3750   79.1373 C   0  0  1  0  0  0  0  0  0  0  0  0
   32.4570   20.9145   78.5530 O   0  0  0  0  0  0  0  0  0  0  0  0
   33.2751   22.6114   79.9601 C   0  0  1  0  0  0  0  0  0  0  0  0
   34.2489   23.6351   80.2171 O   0  0  0  0  0  0  0  0  0  0  0  0
   31.9512   23.1039   79.2871 C   0  0  1  0  0  0  0  0  0  0  0  0
   32.0572   24.5208   79.0667 O   0  0  0  0  0  0  0  0  0  0  0  0
   31.7310   22.0598   78.1356 C   0  0  2  0  0  0  0  0  0  0  0  0
   39.6602   18.5048   77.4381 O   0  0  0  0  0  0  0  0  0  0  0  0
   28.4375   18.0875   77.4444 N   0  0  0  0  0  0  0  0  0  0  0  0
   29.7692   18.0549   77.5675 C   0  0  0  0  0  0  0  0  0  0  0  0
   30.4818   19.1673   77.7221 N   0  0  0  0  0  0  0  0  0  0  0  0
   29.8888   20.3733   77.7843 C   0  0  0  0  0  0  0  0  0  0  0  0
   28.4752   20.4621   77.6741 C   0  0  0  0  0  0  0  0  0  0  0  0
   27.7521   19.2454   77.4970 C   0  0  0  0  0  0  0  0  0  0  0  0
   26.3739   19.2469   77.3904 N   0  0  0  0  0  0  0  0  0  0  0  0
   28.1464   21.7706   77.7753 N   0  0  0  0  0  0  0  0  0  0  0  0
   29.2302   22.4725   77.9383 C   0  0  0  0  0  0  0  0  0  0  0  0
   30.3334   21.6546   77.9500 N   0  0  0  0  0  0  0  0  0  0  0  0
  2  1  1  1  0  0  0
  2  3  1  0  0  0  0
  2  5  1  0  0  0  0
  3  4  1  0  0  0  0
  3 17  1  0  0  0  0
  5  6  1  0  0  0  0
  7  6  1  1  0  0  0
  7  8  1  0  0  0  0
  7  9  1  0  0  0  0
 10  9  1  1  0  0  0
 10 11  1  0  0  0  0
 10 12  1  0  0  0  0
 11 16  1  0  0  0  0
 12 13  1  6  0  0  0
 12 14  1  0  0  0  0
 14 15  1  6  0  0  0
 14 16  1  0  0  0  0
 16 27  1  1  0  0  0
 18 19  2  0  0  0  0
 18 23  1  0  0  0  0
 19 20  1  0  0  0  0
 20 21  2  0  0  0  0
 21 22  1  0  0  0  0
 21 27  1  0  0  0  0
 22 23  2  0  0  0  0
 22 25  1  0  0  0  0
 23 24  1  0  0  0  0
 25 26  2  0  0  0  0
 26 27  1  0  0  0  0
M  END
>  <CHROM.1>
150.33673007,-66.55755999,170.38100767,-177.61431752,-142.33185542,-179.13159751
-19.08367947,33.28443278,20.37751309,78.89245423,0.08453722,0.22709800,-2.66840155

>  <Name>
ligand

>  <RI>
0

>  <Rbt.Current_Directory>
/home/itssahil/PROJECTS/Mol_Feturizer/New_Systems/rnas/2QWY

>  <Rbt.Executable>
rbdock ($Id: //depot/dev/client3/rdock/2013.1/src/exe/rbdock.cxx#4 $)

>  <Rbt.Library>
libRbt.so (2013.1, Build901 2013/11/27)

>  <Rbt.Parameter_File>
/export/apps/rDock/src/rDock_2013.1_src/data/scripts/dock_solv.prm

>  <Rbt.Receptor>
prm/pocket_docking_7.prm

>  <SCORE>
-28.1659

>  <SCORE.INTER>
-26.1427

>  <SCORE.INTER.CONST>
1

>  <SCORE.INTER.POLAR>
0

>  <SCORE.INTER.ROT>
7

>  <SCORE.INTER.SOLV>
14.9613

>  <SCORE.INTER.VDW>
-30.6822

>  <SCORE.INTER.norm>
-0.968247

>  <SCORE.INTRA>
-2.02326

>  <SCORE.INTRA.DIHEDRAL>
-2.99179

>  <SCORE.INTRA.DIHEDRAL.0>
10.7382

>  <SCORE.INTRA.POLAR>
0

>  <SCORE.INTRA.POLAR.0>
0

>  <SCORE.INTRA.REPUL>
0

>  <SCORE.INTRA.REPUL.0>
0

>  <SCORE.INTRA.SOLV>
-0.184626

>  <SCORE.INTRA.SOLV.lig_0>
-49.2501

>  <SCORE.INTRA.VDW>
-0.435053

>  <SCORE.INTRA.VDW.0>
-1.75368

>  <SCORE.INTRA.norm>
-0.0749356

>  <SCORE.RESTR>
0

>  <SCORE.RESTR.CAVITY>
0

>  <SCORE.RESTR.norm>
0

>  <SCORE.SYSTEM>
0

>  <SCORE.SYSTEM.CONST>
0

>  <SCORE.SYSTEM.DIHEDRAL>
0

>  <SCORE.SYSTEM.SOLV>
0

>  <SCORE.SYSTEM.norm>
0

>  <SCORE.heavy>
27

>  <SCORE.norm>
-1.04318

>  <RMSD>
4.717

$$$$
ligand
 OpenBabel11021811463D
libRbt.so/2013.1/901 2013/11/27
 27 29  0  0  0  0  0  0  0  0999 V2000
   38.0741   14.5572   70.4392 N   0  0  0  0  0  0  0  0  0  0  0  0
   37.0949   15.2812   71.2684 C   0  0  2  0  0  0  0  0  0  0  0  0
   36.2229   16.1606   70.3964 C   0  0  0  0  0  0  0  0  0  0  0  0
   36.0285   15.8621   69.2137 O   0  0  0  0  0  0  0  0  0  0  0  0
   37.8395   16.1594   72.2687 C   0  0  0  0  0  0  0  0  0  0  0  0
   37.0008   16.3777   73.5098 C   0  0  0  0  0  0  0  0  0  0  0  0
   37.7256   17.7448   74.4323 S   0  0  2  0  0  0  0  0  0  0  0  0
   39.1976   16.8954   75.0673 C   0  0  0  0  0  0  0  0  0  0  0  0
   36.6711   17.7436   75.9221 C   0  0  0  0  0  0  0  0  0  0  0  0
   35.6739   18.8945   75.8186 C   0  0  1  0  0  0  0  0  0  0  0  0
   34.8247   18.8290   76.9405 O   0  0  0  0  0  0  0  0  0  0  0  0
   36.3749   20.2550   75.8956 C   0  0  1  0  0  0  0  0  0  0  0  0
   36.8496   20.8932   74.6999 O   0  0  0  0  0  0  0  0  0  0  0  0
   35.4028   21.1148   76.7697 C   0  0  1  0  0  0  0  0  0  0  0  0
   35.2047   22.3788   76.1135 O   0  0  0  0  0  0  0  0  0  0  0  0
   34.2389   20.1122   77.0932 C   0  0  2  0  0  0  0  0  0  0  0  0
   35.6563   17.1264   70.8852 O   0  0  0  0  0  0  0  0  0  0  0  0
   34.3846   22.7303   81.5908 N   0  0  0  0  0  0  0  0  0  0  0  0
   35.0713   22.9647   80.4668 C   0  0  0  0  0  0  0  0  0  0  0  0
   34.9385   22.1885   79.3949 N   0  0  0  0  0  0  0  0  0  0  0  0
   34.0882   21.1459   79.3889 C   0  0  0  0  0  0  0  0  0  0  0  0
   33.3236   20.8626   80.5522 C   0  0  0  0  0  0  0  0  0  0  0  0
   33.5069   21.7133   81.6824 C   0  0  0  0  0  0  0  0  0  0  0  0
   32.7937   21.5090   82.8488 N   0  0  0  0  0  0  0  0  0  0  0  0
   32.5569   19.7828   80.2753 N   0  0  0  0  0  0  0  0  0  0  0  0
   32.7892   19.3952   79.0547 C   0  0  0  0  0  0  0  0  0  0  0  0
   33.7286   20.2054   78.4654 N   0  0  0  0  0  0  0  0  0  0  0  0
  2  1  1  6  0  0  0
  2  3  1  0  0  0  0
  2  5  1  0  0  0  0
  3  4  1  0  0  0  0
  3 17  1  0  0  0  0
  5  6  1  0  0  0  0
  7  6  1  6  0  0  0
  7  8  1  0  0  0  0
  7  9  1  0  0  0  0
 10  9  1  1  0  0  0
 10 11  1  0  0  0  0
 10 12  1  0  0  0  0
 11 16  1  0  0  0  0
 12 13  1  6  0  0  0
 12 14  1  0  0  0  0
 14 15  1  6  0  0  0
 14 16  1  0  0  0  0
 16 27  1  1  0  0  0
 18 19  2  0  0  0  0
 18 23  1  0  0  0  0
 19 20  1  0  0  0  0
 20 21  2  0  0  0  0
 21 22  1  0  0  0  0
 21 27  1  0  0  0  0
 22 23  2  0  0  0  0
 22 25  1  0  0  0  0
 23 24  1  0  0  0  0
 25 26  2  0  0  0  0
 26 27  1  0  0  0  0
M  END
>  <CHROM.1>
26.73017422,-152.61585701,-165.16876226,-72.93677591,-103.36776297,176.80148136
122.02777263,35.61157089,19.10382446,76.09456905,1.17684034,-0.64614839,-2.35626997

>  <Name>
ligand

>  <RI>
0

>  <Rbt.Current_Directory>
/home/itssahil/PROJECTS/Mol_Feturizer/New_Systems/rnas/2QWY

>  <Rbt.Executable>
rbdock ($Id: //depot/dev/client3/rdock/2013.1/src/exe/rbdock.cxx#4 $)

>  <Rbt.Library>
libRbt.so (2013.1, Build901 2013/11/27)

>  <Rbt.Parameter_File>
/export/apps/rDock/src/rDock_2013.1_src/data/scripts/dock_solv.prm

>  <Rbt.Receptor>
prm/pocket_docking_4.prm

>  <SCORE>
-3.17621

>  <SCORE.INTER>
-2.52045

>  <SCORE.INTER.CONST>
1

>  <SCORE.INTER.POLAR>
0

>  <SCORE.INTER.ROT>
7

>  <SCORE.INTER.SOLV>
7.56301

>  <SCORE.INTER.VDW>
-12.468

>  <SCORE.INTER.norm>
-0.0933501

>  <SCORE.INTRA>
-0.660405

>  <SCORE.INTRA.DIHEDRAL>
-1.7207

>  <SCORE.INTRA.DIHEDRAL.0>
10.7382

>  <SCORE.INTRA.POLAR>
0

>  <SCORE.INTRA.POLAR.0>
0

>  <SCORE.INTRA.REPUL>
0

>  <SCORE.INTRA.REPUL.0>
0

>  <SCORE.INTRA.SOLV>
-0.974097

>  <SCORE.INTRA.SOLV.lig_0>
-49.2501

>  <SCORE.INTRA.VDW>
0.686991

>  <SCORE.INTRA.VDW.0>
-1.75368

>  <SCORE.INTRA.norm>
-0.0244595

>  <SCORE.RESTR>
0.00464756

>  <SCORE.RESTR.CAVITY>
0.00464756

>  <SCORE.RESTR.norm>
0.000172132

>  <SCORE.SYSTEM>
0

>  <SCORE.SYSTEM.CONST>
0

>  <SCORE.SYSTEM.DIHEDRAL>
0

>  <SCORE.SYSTEM.SOLV>
0

>  <SCORE.SYSTEM.norm>
0

>  <SCORE.heavy>
27

>  <SCORE.norm>
-0.117637

>  <RMSD>
4.757

$$$$
ligand
 OpenBabel11021811463D
libRbt.so/2013.1/901 2013/11/27
 27 29  0  0  0  0  0  0  0  0999 V2000
   39.0722   19.5307   77.8607 N   0  0  0  0  0  0  0  0  0  0  0  0
   39.2642   18.7878   79.1184 C   0  0  2  0  0  0  0  0  0  0  0  0
   38.8605   17.3396   78.9349 C   0  0  0  0  0  0  0  0  0  0  0  0
   38.9295   16.5522   79.8842 O   0  0  0  0  0  0  0  0  0  0  0  0
   38.3928   19.4104   80.2045 C   0  0  0  0  0  0  0  0  0  0  0  0
   36.9340   19.3683   79.8027 C   0  0  0  0  0  0  0  0  0  0  0  0
   36.0736   20.6640   80.7117 S   0  0  2  0  0  0  0  0  0  0  0  0
   36.1367   19.9239   82.3669 C   0  0  0  0  0  0  0  0  0  0  0  0
   34.3436   20.3071   80.2523 C   0  0  0  0  0  0  0  0  0  0  0  0
   33.8619   21.3816   79.2813 C   0  0  1  0  0  0  0  0  0  0  0  0
   32.6456   20.9419   78.7232 O   0  0  0  0  0  0  0  0  0  0  0  0
   33.5464   22.6944   80.0061 C   0  0  1  0  0  0  0  0  0  0  0  0
   34.5718   23.6820   80.1938 O   0  0  0  0  0  0  0  0  0  0  0  0
   32.2533   23.2038   79.2871 C   0  0  1  0  0  0  0  0  0  0  0  0
   32.4353   24.5926   78.9621 O   0  0  0  0  0  0  0  0  0  0  0  0
   31.9831   22.0891   78.2151 C   0  0  2  0  0  0  0  0  0  0  0  0
   38.4002   16.9701   77.8652 O   0  0  0  0  0  0  0  0  0  0  0  0
   28.5093   18.2626   77.5868 N   0  0  0  0  0  0  0  0  0  0  0  0
   29.8398   18.1718   77.6940 C   0  0  0  0  0  0  0  0  0  0  0  0
   30.6025   19.2524   77.8335 N   0  0  0  0  0  0  0  0  0  0  0  0
   30.0641   20.4838   77.8959 C   0  0  0  0  0  0  0  0  0  0  0  0
   28.6546   20.6343   77.8023 C   0  0  0  0  0  0  0  0  0  0  0  0
   27.8764   19.4499   77.6410 C   0  0  0  0  0  0  0  0  0  0  0  0
   26.4984   19.5117   77.5510 N   0  0  0  0  0  0  0  0  0  0  0  0
   28.3850   21.9566   77.8999 N   0  0  0  0  0  0  0  0  0  0  0  0
   29.5007   22.6108   78.0457 C   0  0  0  0  0  0  0  0  0  0  0  0
   30.5668   21.7450   78.0488 N   0  0  0  0  0  0  0  0  0  0  0  0
  2  1  1  6  0  0  0
  2  3  1  0  0  0  0
  2  5  1  0  0  0  0
  3  4  1  0  0  0  0
  3 17  1  0  0  0  0
  5  6  1  0  0  0  0
  7  6  1  6  0  0  0
  7  8  1  0  0  0  0
  7  9  1  0  0  0  0
 10  9  1  1  0  0  0
 10 11  1  0  0  0  0
 10 12  1  0  0  0  0
 11 16  1  0  0  0  0
 12 13  1  6  0  0  0
 12 14  1  0  0  0  0
 14 15  1  6  0  0  0
 14 16  1  0  0  0  0
 16 27  1  1  0  0  0
 18 19  2  0  0  0  0
 18 23  1  0  0  0  0
 19 20  1  0  0  0  0
 20 21  2  0  0  0  0
 21 22  1  0  0  0  0
 21 27  1  0  0  0  0
 22 23  2  0  0  0  0
 22 25  1  0  0  0  0
 23 24  1  0  0  0  0
 25 26  2  0  0  0  0
 26 27  1  0  0  0  0
M  END
>  <CHROM.1>
-178.93659867,59.21982185,-156.61880215,-70.74560372,-107.28986471,167.71596516
-23.24045349,33.52310559,20.37201913,79.00018788,0.15119396,0.23679615,-2.84702789

>  <Name>
ligand

>  <RI>
0

>  <Rbt.Current_Directory>
/home/itssahil/PROJECTS/Mol_Feturizer/New_Systems/rnas/2QWY

>  <Rbt.Executable>
rbdock ($Id: //depot/dev/client3/rdock/2013.1/src/exe/rbdock.cxx#4 $)

>  <Rbt.Library>
libRbt.so (2013.1, Build901 2013/11/27)

>  <Rbt.Parameter_File>
/export/apps/rDock/src/rDock_2013.1_src/data/scripts/dock_solv.prm

>  <Rbt.Receptor>
prm/pocket_docking_6.prm

>  <SCORE>
-28.445

>  <SCORE.INTER>
-28.1739

>  <SCORE.INTER.CONST>
1

>  <SCORE.INTER.POLAR>
0

>  <SCORE.INTER.ROT>
7

>  <SCORE.INTER.SOLV>
12.2238

>  <SCORE.INTER.VDW>
-31.1239

>  <SCORE.INTER.norm>
-1.04348

>  <SCORE.INTRA>
-0.271146

>  <SCORE.INTRA.DIHEDRAL>
-2.19631

>  <SCORE.INTRA.DIHEDRAL.0>
10.7382

>  <SCORE.INTRA.POLAR>
0

>  <SCORE.INTRA.POLAR.0>
0

>  <SCORE.INTRA.REPUL>
0

>  <SCORE.INTRA.REPUL.0>
0

>  <SCORE.INTRA.SOLV>
-0.124117

>  <SCORE.INTRA.SOLV.lig_0>
-49.2501

>  <SCORE.INTRA.VDW>
0.88907

>  <SCORE.INTRA.VDW.0>
-1.75368

>  <SCORE.INTRA.norm>
-0.0100424

>  <SCORE.RESTR>
0

>  <SCORE.RESTR.CAVITY>
0

>  <SCORE.RESTR.norm>
0

>  <SCORE.SYSTEM>
0

>  <SCORE.SYSTEM.CONST>
0

>  <SCORE.SYSTEM.DIHEDRAL>
0

>  <SCORE.SYSTEM.SOLV>
0

>  <SCORE.SYSTEM.norm>
0

>  <SCORE.heavy>
27

>  <SCORE.norm>
-1.05352

>  <RMSD>
4.813

$$$$
ligand
 OpenBabel11021811463D
libRbt.so/2013.1/901 2013/11/27
 27 29  0  0  0  0  0  0  0  0999 V2000
   39.1425   19.6743   78.1252 N   0  0  0  0  0  0  0  0  0  0  0  0
   39.3619   19.4500   79.5648 C   0  0  2  0  0  0  0  0  0  0  0  0
   39.4176   17.9651   79.8581 C   0  0  0  0  0  0  0  0  0  0  0  0
   38.5414   17.2135   79.4185 O   0  0  0  0  0  0  0  0  0  0  0  0
   38.2073   20.0660   80.3481 C   0  0  0  0  0  0  0  0  0  0  0  0
   36.8829   19.5234   79.8551 C   0  0  0  0  0  0  0  0  0  0  0  0
   35.5755   20.5658   80.5253 S   0  0  2  0  0  0  0  0  0  0  0  0
   35.7040   20.0779   82.2680 C   0  0  0  0  0  0  0  0  0  0  0  0
   34.0978   19.6197   80.0221 C   0  0  0  0  0  0  0  0  0  0  0  0
   33.3688   20.3938   78.9272 C   0  0  1  0  0  0  0  0  0  0  0  0
   32.2599   19.6248   78.5233 O   0  0  0  0  0  0  0  0  0  0  0  0
   32.7996   21.7148   79.4557 C   0  0  1  0  0  0  0  0  0  0  0  0
   33.5939   22.9106   79.4208 O   0  0  0  0  0  0  0  0  0  0  0  0
   31.4071   21.8180   78.7494 C   0  0  1  0  0  0  0  0  0  0  0  0
   31.2771   23.1403   78.1998 O   0  0  0  0  0  0  0  0  0  0  0  0
   31.3521   20.5087   77.8849 C   0  0  2  0  0  0  0  0  0  0  0  0
   40.3689   17.5041   80.4705 O   0  0  0  0  0  0  0  0  0  0  0  0
   26.2161   21.1462   77.3193 N   0  0  0  0  0  0  0  0  0  0  0  0
   27.1804   22.0730   77.2842 C   0  0  0  0  0  0  0  0  0  0  0  0
   28.4590   21.7548   77.4657 N   0  0  0  0  0  0  0  0  0  0  0  0
   28.8393   20.4805   77.6699 C   0  0  0  0  0  0  0  0  0  0  0  0
   27.8559   19.4557   77.7011 C   0  0  0  0  0  0  0  0  0  0  0  0
   26.4961   19.8436   77.5142 C   0  0  0  0  0  0  0  0  0  0  0  0
   25.4817   18.9047   77.5224 N   0  0  0  0  0  0  0  0  0  0  0  0
   28.5023   18.2859   77.9119 N   0  0  0  0  0  0  0  0  0  0  0  0
   29.7800   18.5145   78.0070 C   0  0  0  0  0  0  0  0  0  0  0  0
   30.0386   19.8558   77.8649 N   0  0  0  0  0  0  0  0  0  0  0  0
  2  1  1  6  0  0  0
  2  3  1  0  0  0  0
  2  5  1  0  0  0  0
  3  4  1  0  0  0  0
  3 17  1  0  0  0  0
  5  6  1  0  0  0  0
  7  6  1  6  0  0  0
  7  8  1  0  0  0  0
  7  9  1  0  0  0  0
 10  9  1  1  0  0  0
 10 11  1  0  0  0  0
 10 12  1  0  0  0  0
 11 16  1  0  0  0  0
 12 13  1  6  0  0  0
 12 14  1  0  0  0  0
 14 15  1  6  0  0  0
 14 16  1  0  0  0  0
 16 27  1  1  0  0  0
 18 19  2  0  0  0  0
 18 23  1  0  0  0  0
 19 20  1  0  0  0  0
 20 21  2  0  0  0  0
 21 22  1  0  0  0  0
 21 27  1  0  0  0  0
 22 23  2  0  0  0  0
 22 25  1  0  0  0  0
 23 24  1  0  0  0  0
 25 26  2  0  0  0  0
 26 27  1  0  0  0  0
M  END
>  <CHROM.1>
-48.97561935,54.91222882,-166.48180560,-69.82990259,-109.70294834,178.02754524
161.67126205,32.95355112,20.10186880,78.93233701,-0.09263415,-0.23630633
0.14278949

>  <Name>
ligand

>  <RI>
0

>  <Rbt.Current_Directory>
/home/itssahil/PROJECTS/Mol_Feturizer/New_Systems/rnas/2QWY

>  <Rbt.Executable>
rbdock ($Id: //depot/dev/client3/rdock/2013.1/src/exe/rbdock.cxx#4 $)

>  <Rbt.Library>
libRbt.so (2013.1, Build901 2013/11/27)

>  <Rbt.Parameter_File>
/export/apps/rDock/src/rDock_2013.1_src/data/scripts/dock_solv.prm

>  <Rbt.Receptor>
prm/pocket_docking_7.prm

>  <SCORE>
-27.1427

>  <SCORE.INTER>
-26.234

>  <SCORE.INTER.CONST>
1

>  <SCORE.INTER.POLAR>
0

>  <SCORE.INTER.ROT>
7

>  <SCORE.INTER.SOLV>
10.0191

>  <SCORE.INTER.VDW>
-29.0957

>  <SCORE.INTER.norm>
-0.971631

>  <SCORE.INTRA>
-0.908613

>  <SCORE.INTRA.DIHEDRAL>
-3.52963

>  <SCORE.INTRA.DIHEDRAL.0>
10.7382

>  <SCORE.INTRA.POLAR>
0

>  <SCORE.INTRA.POLAR.0>
0

>  <SCORE.INTRA.REPUL>
0

>  <SCORE.INTRA.REPUL.0>
0

>  <SCORE.INTRA.SOLV>
-0.0799288

>  <SCORE.INTRA.SOLV.lig_0>
-49.2501

>  <SCORE.INTRA.VDW>
0.896167

>  <SCORE.INTRA.VDW.0>
-1.75368

>  <SCORE.INTRA.norm>
-0.0336523

>  <SCORE.RESTR>
0

>  <SCORE.RESTR.CAVITY>
0

>  <SCORE.RESTR.norm>
0

>  <SCORE.SYSTEM>
0

>  <SCORE.SYSTEM.CONST>
0

>  <SCORE.SYSTEM.DIHEDRAL>
0

>  <SCORE.SYSTEM.SOLV>
0

>  <SCORE.SYSTEM.norm>
0

>  <SCORE.heavy>
27

>  <SCORE.norm>
-1.00528

>  <RMSD>
4.819

$$$$
ligand
 OpenBabel11021811463D
libRbt.so/2013.1/901 2013/11/27
 27 29  0  0  0  0  0  0  0  0999 V2000
   36.0564   20.1271   72.1000 N   0  0  0  0  0  0  0  0  0  0  0  0
   37.3216   19.4531   72.4405 C   0  0  2  0  0  0  0  0  0  0  0  0
   38.3670   19.7426   71.3835 C   0  0  0  0  0  0  0  0  0  0  0  0
   38.0332   20.2327   70.2999 O   0  0  0  0  0  0  0  0  0  0  0  0
   37.0847   17.9477   72.5028 C   0  0  0  0  0  0  0  0  0  0  0  0
   36.2107   17.5971   73.6879 C   0  0  0  0  0  0  0  0  0  0  0  0
   37.1988   17.7978   75.1809 S   0  0  2  0  0  0  0  0  0  0  0  0
   37.5777   16.0514   75.4939 C   0  0  0  0  0  0  0  0  0  0  0  0
   35.8873   18.0815   76.4182 C   0  0  0  0  0  0  0  0  0  0  0  0
   35.2942   19.4701   76.1953 C   0  0  1  0  0  0  0  0  0  0  0  0
   34.3605   19.7083   77.2227 O   0  0  0  0  0  0  0  0  0  0  0  0
   36.3589   20.5644   76.3271 C   0  0  1  0  0  0  0  0  0  0  0  0
   37.1152   20.9803   75.1794 O   0  0  0  0  0  0  0  0  0  0  0  0
   35.6088   21.7109   77.0829 C   0  0  1  0  0  0  0  0  0  0  0  0
   35.8613   22.9468   76.3926 O   0  0  0  0  0  0  0  0  0  0  0  0
   34.1730   21.1127   77.2959 C   0  0  2  0  0  0  0  0  0  0  0  0
   39.5483   19.5556   71.6330 O   0  0  0  0  0  0  0  0  0  0  0  0
   34.5578   20.4978   82.4513 N   0  0  0  0  0  0  0  0  0  0  0  0
   35.3542   20.0130   81.4919 C   0  0  0  0  0  0  0  0  0  0  0  0
   35.1132   20.2435   80.2043 N   0  0  0  0  0  0  0  0  0  0  0  0
   34.0684   20.9955   79.8132 C   0  0  0  0  0  0  0  0  0  0  0  0
   33.2003   21.5470   80.7932 C   0  0  0  0  0  0  0  0  0  0  0  0
   33.4892   21.2640   82.1611 C   0  0  0  0  0  0  0  0  0  0  0  0
   32.6972   21.7710   83.1743 N   0  0  0  0  0  0  0  0  0  0  0  0
   32.2525   22.2550   80.1367 N   0  0  0  0  0  0  0  0  0  0  0  0
   32.4737   22.1808   78.8563 C   0  0  0  0  0  0  0  0  0  0  0  0
   33.5844   21.4130   78.6056 N   0  0  0  0  0  0  0  0  0  0  0  0
  2  1  1  6  0  0  0
  2  3  1  0  0  0  0
  2  5  1  0  0  0  0
  3  4  1  0  0  0  0
  3 17  1  0  0  0  0
  5  6  1  0  0  0  0
  7  6  1  6  0  0  0
  7  8  1  0  0  0  0
  7  9  1  0  0  0  0
 10  9  1  1  0  0  0
 10 11  1  0  0  0  0
 10 12  1  0  0  0  0
 11 16  1  0  0  0  0
 12 13  1  6  0  0  0
 12 14  1  0  0  0  0
 14 15  1  6  0  0  0
 14 16  1  0  0  0  0
 16 27  1  1  0  0  0
 18 19  2  0  0  0  0
 18 23  1  0  0  0  0
 19 20  1  0  0  0  0
 20 21  2  0  0  0  0
 21 22  1  0  0  0  0
 21 27  1  0  0  0  0
 22 23  2  0  0  0  0
 22 25  1  0  0  0  0
 23 24  1  0  0  0  0
 25 26  2  0  0  0  0
 26 27  1  0  0  0  0
M  END
>  <CHROM.1>
-13.83138036,-68.55143484,-72.46786890,-101.73487910,-71.69250405,-175.47293739
51.64272384,35.66228571,20.05845838,76.62844312,0.51019152,1.06548625,-0.83323129

>  <Name>
ligand

>  <RI>
0

>  <Rbt.Current_Directory>
/home/itssahil/PROJECTS/Mol_Feturizer/New_Systems/rnas/2QWY

>  <Rbt.Executable>
rbdock ($Id: //depot/dev/client3/rdock/2013.1/src/exe/rbdock.cxx#4 $)

>  <Rbt.Library>
libRbt.so (2013.1, Build901 2013/11/27)

>  <Rbt.Parameter_File>
/export/apps/rDock/src/rDock_2013.1_src/data/scripts/dock_solv.prm

>  <Rbt.Receptor>
prm/pocket_docking_4.prm

>  <SCORE>
-11.5063

>  <SCORE.INTER>
-8.98179

>  <SCORE.INTER.CONST>
1

>  <SCORE.INTER.POLAR>
0

>  <SCORE.INTER.ROT>
7

>  <SCORE.INTER.SOLV>
11.4624

>  <SCORE.INTER.VDW>
-18.0753

>  <SCORE.INTER.norm>
-0.332659

>  <SCORE.INTRA>
-2.52455

>  <SCORE.INTRA.DIHEDRAL>
-3.99678

>  <SCORE.INTRA.DIHEDRAL.0>
10.7382

>  <SCORE.INTRA.POLAR>
0

>  <SCORE.INTRA.POLAR.0>
0

>  <SCORE.INTRA.REPUL>
0

>  <SCORE.INTRA.REPUL.0>
0

>  <SCORE.INTRA.SOLV>
1.70153

>  <SCORE.INTRA.SOLV.lig_0>
-49.2501

>  <SCORE.INTRA.VDW>
-1.37692

>  <SCORE.INTRA.VDW.0>
-1.75368

>  <SCORE.INTRA.norm>
-0.0935019

>  <SCORE.RESTR>
0

>  <SCORE.RESTR.CAVITY>
0

>  <SCORE.RESTR.norm>
0

>  <SCORE.SYSTEM>
0

>  <SCORE.SYSTEM.CONST>
0

>  <SCORE.SYSTEM.DIHEDRAL>
0

>  <SCORE.SYSTEM.SOLV>
0

>  <SCORE.SYSTEM.norm>
0

>  <SCORE.heavy>
27

>  <SCORE.norm>
-0.426161

>  <RMSD>
4.823

$$$$
ligand
 OpenBabel11021811463D
libRbt.so/2013.1/901 2013/11/27
 27 29  0  0  0  0  0  0  0  0999 V2000
   38.6844   16.9726   79.6095 N   0  0  0  0  0  0  0  0  0  0  0  0
   38.9364   18.3286   79.0912 C   0  0  2  0  0  0  0  0  0  0  0  0
   40.4045   18.6743   79.2283 C   0  0  0  0  0  0  0  0  0  0  0  0
   40.9678   19.3425   78.3554 O   0  0  0  0  0  0  0  0  0  0  0  0
   38.1148   19.3313   79.8948 C   0  0  0  0  0  0  0  0  0  0  0  0
   36.6358   19.0463   79.7447 C   0  0  0  0  0  0  0  0  0  0  0  0
   35.7317   20.3995   80.5174 S   0  0  2  0  0  0  0  0  0  0  0  0
   36.0620   19.9914   82.2541 C   0  0  0  0  0  0  0  0  0  0  0  0
   34.0166   19.7969   80.3535 C   0  0  0  0  0  0  0  0  0  0  0  0
   33.3562   20.5099   79.1766 C   0  0  1  0  0  0  0  0  0  0  0  0
   32.2901   19.7048   78.7302 O   0  0  0  0  0  0  0  0  0  0  0  0
   32.7318   21.8423   79.6046 C   0  0  1  0  0  0  0  0  0  0  0  0
   33.5092   23.0493   79.5726 O   0  0  0  0  0  0  0  0  0  0  0  0
   31.3918   21.8904   78.7981 C   0  0  1  0  0  0  0  0  0  0  0  0
   31.2821   23.1852   78.1824 O   0  0  0  0  0  0  0  0  0  0  0  0
   31.4173   20.5442   77.9908 C   0  0  2  0  0  0  0  0  0  0  0  0
   41.0111   18.3507   80.2383 O   0  0  0  0  0  0  0  0  0  0  0  0
   26.2908   21.1043   77.2772 N   0  0  0  0  0  0  0  0  0  0  0  0
   27.2374   22.0493   77.3026 C   0  0  0  0  0  0  0  0  0  0  0  0
   28.5155   21.7492   77.5160 N   0  0  0  0  0  0  0  0  0  0  0  0
   28.9138   20.4764   77.6927 C   0  0  0  0  0  0  0  0  0  0  0  0
   27.9501   19.4330   77.6596 C   0  0  0  0  0  0  0  0  0  0  0  0
   26.5897   19.8015   77.4404 C   0  0  0  0  0  0  0  0  0  0  0  0
   25.5941   18.8442   77.3859 N   0  0  0  0  0  0  0  0  0  0  0  0
   28.6121   18.2693   77.8549 N   0  0  0  0  0  0  0  0  0  0  0  0
   29.8814   18.5184   77.9990 C   0  0  0  0  0  0  0  0  0  0  0  0
   30.1182   19.8680   77.9073 N   0  0  0  0  0  0  0  0  0  0  0  0
  2  1  1  1  0  0  0
  2  3  1  0  0  0  0
  2  5  1  0  0  0  0
  3  4  1  0  0  0  0
  3 17  1  0  0  0  0
  5  6  1  0  0  0  0
  7  6  1  6  0  0  0
  7  8  1  0  0  0  0
  7  9  1  0  0  0  0
 10  9  1  1  0  0  0
 10 11  1  0  0  0  0
 10 12  1  0  0  0  0
 11 16  1  0  0  0  0
 12 13  1  6  0  0  0
 12 14  1  0  0  0  0
 14 15  1  6  0  0  0
 14 16  1  0  0  0  0
 16 27  1  1  0  0  0
 18 19  2  0  0  0  0
 18 23  1  0  0  0  0
 19 20  1  0  0  0  0
 20 21  2  0  0  0  0
 21 22  1  0  0  0  0
 21 27  1  0  0  0  0
 22 23  2  0  0  0  0
 22 25  1  0  0  0  0
 23 24  1  0  0  0  0
 25 26  2  0  0  0  0
 26 27  1  0  0  0  0
M  END
>  <CHROM.1>
143.36994527,-61.65464922,-171.95071027,-72.91415952,-101.01433688,157.03545728
156.81970422,33.11599210,20.07289487,78.91257448,0.08275660,0.21623319,-2.92052013

>  <Name>
ligand

>  <RI>
0

>  <Rbt.Current_Directory>
/home/itssahil/PROJECTS/Mol_Feturizer/New_Systems/rnas/2QWY

>  <Rbt.Executable>
rbdock ($Id: //depot/dev/client3/rdock/2013.1/src/exe/rbdock.cxx#4 $)

>  <Rbt.Library>
libRbt.so (2013.1, Build901 2013/11/27)

>  <Rbt.Parameter_File>
/export/apps/rDock/src/rDock_2013.1_src/data/scripts/dock_solv.prm

>  <Rbt.Receptor>
prm/pocket_docking_8.prm

>  <SCORE>
-26.6095

>  <SCORE.INTER>
-24.5329

>  <SCORE.INTER.CONST>
1

>  <SCORE.INTER.POLAR>
0

>  <SCORE.INTER.ROT>
7

>  <SCORE.INTER.SOLV>
16.7975

>  <SCORE.INTER.VDW>
-30.2211

>  <SCORE.INTER.norm>
-0.908624

>  <SCORE.INTRA>
-2.07659

>  <SCORE.INTRA.DIHEDRAL>
-3.47599

>  <SCORE.INTRA.DIHEDRAL.0>
10.7382

>  <SCORE.INTRA.POLAR>
0

>  <SCORE.INTRA.POLAR.0>
0

>  <SCORE.INTRA.REPUL>
0

>  <SCORE.INTRA.REPUL.0>
0

>  <SCORE.INTRA.SOLV>
-0.38168

>  <SCORE.INTRA.SOLV.lig_0>
-49.2501

>  <SCORE.INTRA.VDW>
-0.147757

>  <SCORE.INTRA.VDW.0>
-1.75368

>  <SCORE.INTRA.norm>
-0.0769109

>  <SCORE.RESTR>
0

>  <SCORE.RESTR.CAVITY>
0

>  <SCORE.RESTR.norm>
0

>  <SCORE.SYSTEM>
0

>  <SCORE.SYSTEM.CONST>
0

>  <SCORE.SYSTEM.DIHEDRAL>
0

>  <SCORE.SYSTEM.SOLV>
0

>  <SCORE.SYSTEM.norm>
0

>  <SCORE.heavy>
27

>  <SCORE.norm>
-0.985535

>  <RMSD>
4.854

$$$$
ligand
 OpenBabel11021811463D
libRbt.so/2013.1/901 2013/11/27
 27 29  0  0  0  0  0  0  0  0999 V2000
   37.2259   16.0174   70.6461 N   0  0  0  0  0  0  0  0  0  0  0  0
   36.2407   16.7700   71.4421 C   0  0  2  0  0  0  0  0  0  0  0  0
   36.7002   18.2021   71.6211 C   0  0  0  0  0  0  0  0  0  0  0  0
   37.7969   18.5605   71.1800 O   0  0  0  0  0  0  0  0  0  0  0  0
   36.1049   16.1189   72.8146 C   0  0  0  0  0  0  0  0  0  0  0  0
   37.4655   15.9404   73.4537 C   0  0  0  0  0  0  0  0  0  0  0  0
   37.9052   17.4912   74.2580 S   0  0  2  0  0  0  0  0  0  0  0  0
   39.4611   16.9666   75.0297 C   0  0  0  0  0  0  0  0  0  0  0  0
   36.7876   17.4522   75.7006 C   0  0  0  0  0  0  0  0  0  0  0  0
   35.7862   18.5974   75.5768 C   0  0  1  0  0  0  0  0  0  0  0  0
   34.9496   18.5606   76.7095 O   0  0  0  0  0  0  0  0  0  0  0  0
   36.4843   19.9612   75.6087 C   0  0  1  0  0  0  0  0  0  0  0  0
   36.9440   20.5676   74.3908 O   0  0  0  0  0  0  0  0  0  0  0  0
   35.5196   20.8423   76.4698 C   0  0  1  0  0  0  0  0  0  0  0  0
   35.3107   22.0874   75.7815 O   0  0  0  0  0  0  0  0  0  0  0  0
   34.3620   19.8461   76.8335 C   0  0  2  0  0  0  0  0  0  0  0  0
   35.9529   19.0174   72.1402 O   0  0  0  0  0  0  0  0  0  0  0  0
   35.2705   21.7468   81.5944 N   0  0  0  0  0  0  0  0  0  0  0  0
   36.0390   21.8301   80.5026 C   0  0  0  0  0  0  0  0  0  0  0  0
   35.6760   21.2721   79.3512 N   0  0  0  0  0  0  0  0  0  0  0  0
   34.5064   20.6183   79.2302 C   0  0  0  0  0  0  0  0  0  0  0  0
   33.6460   20.5140   80.3559 C   0  0  0  0  0  0  0  0  0  0  0  0
   34.0807   21.1164   81.5735 C   0  0  0  0  0  0  0  0  0  0  0  0
   33.2967   21.0661   82.7108 N   0  0  0  0  0  0  0  0  0  0  0  0
   32.5513   19.8234   79.9615 N   0  0  0  0  0  0  0  0  0  0  0  0
   32.6751   19.5072   78.7050 C   0  0  0  0  0  0  0  0  0  0  0  0
   33.8667   19.9755   78.2082 N   0  0  0  0  0  0  0  0  0  0  0  0
  2  1  1  6  0  0  0
  2  3  1  0  0  0  0
  2  5  1  0  0  0  0
  3  4  1  0  0  0  0
  3 17  1  0  0  0  0
  5  6  1  0  0  0  0
  7  6  1  6  0  0  0
  7  8  1  0  0  0  0
  7  9  1  0  0  0  0
 10  9  1  1  0  0  0
 10 11  1  0  0  0  0
 10 12  1  0  0  0  0
 11 16  1  0  0  0  0
 12 13  1  6  0  0  0
 12 14  1  0  0  0  0
 14 15  1  6  0  0  0
 14 16  1  0  0  0  0
 16 27  1  1  0  0  0
 18 19  2  0  0  0  0
 18 23  1  0  0  0  0
 19 20  1  0  0  0  0
 20 21  2  0  0  0  0
 21 22  1  0  0  0  0
 21 27  1  0  0  0  0
 22 23  2  0  0  0  0
 22 25  1  0  0  0  0
 23 24  1  0  0  0  0
 25 26  2  0  0  0  0
 26 27  1  0  0  0  0
M  END
>  <CHROM.1>
-3.40527846,51.74406041,83.89791297,175.68830600,-114.78185733,-179.06684046
99.03087457,35.81191092,19.16945226,76.14852403,-0.14370535,-1.22824367,2.56478779

>  <Name>
ligand

>  <RI>
0

>  <Rbt.Current_Directory>
/home/itssahil/PROJECTS/Mol_Feturizer/New_Systems/rnas/2QWY

>  <Rbt.Executable>
rbdock ($Id: //depot/dev/client3/rdock/2013.1/src/exe/rbdock.cxx#4 $)

>  <Rbt.Library>
libRbt.so (2013.1, Build901 2013/11/27)

>  <Rbt.Parameter_File>
/export/apps/rDock/src/rDock_2013.1_src/data/scripts/dock_solv.prm

>  <Rbt.Receptor>
prm/pocket_docking_4.prm

>  <SCORE>
-5.51407

>  <SCORE.INTER>
-4.18772

>  <SCORE.INTER.CONST>
1

>  <SCORE.INTER.POLAR>
0

>  <SCORE.INTER.ROT>
7

>  <SCORE.INTER.SOLV>
8.51083

>  <SCORE.INTER.VDW>
-13.8954

>  <SCORE.INTER.norm>
-0.155101

>  <SCORE.INTRA>
-1.32635

>  <SCORE.INTRA.DIHEDRAL>
-1.59148

>  <SCORE.INTRA.DIHEDRAL.0>
10.7382

>  <SCORE.INTRA.POLAR>
0

>  <SCORE.INTRA.POLAR.0>
0

>  <SCORE.INTRA.REPUL>
0

>  <SCORE.INTRA.REPUL.0>
0

>  <SCORE.INTRA.SOLV>
0.545181

>  <SCORE.INTRA.SOLV.lig_0>
-49.2501

>  <SCORE.INTRA.VDW>
-0.8032

>  <SCORE.INTRA.VDW.0>
-1.75368

>  <SCORE.INTRA.norm>
-0.0491241

>  <SCORE.RESTR>
0

>  <SCORE.RESTR.CAVITY>
0

>  <SCORE.RESTR.norm>
0

>  <SCORE.SYSTEM>
0

>  <SCORE.SYSTEM.CONST>
0

>  <SCORE.SYSTEM.DIHEDRAL>
0

>  <SCORE.SYSTEM.SOLV>
0

>  <SCORE.SYSTEM.norm>
0

>  <SCORE.heavy>
27

>  <SCORE.norm>
-0.204225

>  <RMSD>
4.904

$$$$
ligand
 OpenBabel11021811463D
libRbt.so/2013.1/901 2013/11/27
 27 29  0  0  0  0  0  0  0  0999 V2000
   37.6370   20.6793   74.4744 N   0  0  0  0  0  0  0  0  0  0  0  0
   38.0689   19.5155   73.6808 C   0  0  2  0  0  0  0  0  0  0  0  0
   38.1049   19.8727   72.2094 C   0  0  0  0  0  0  0  0  0  0  0  0
   37.2048   20.5604   71.7167 O   0  0  0  0  0  0  0  0  0  0  0  0
   37.0791   18.3739   73.8886 C   0  0  0  0  0  0  0  0  0  0  0  0
   37.1067   17.9035   75.3272 C   0  0  0  0  0  0  0  0  0  0  0  0
   38.7269   17.1811   75.6406 S   0  0  2  0  0  0  0  0  0  0  0  0
   38.4213   15.5239   74.9684 C   0  0  0  0  0  0  0  0  0  0  0  0
   38.6053   16.8427   77.4302 C   0  0  0  0  0  0  0  0  0  0  0  0
   38.7340   18.1608   78.1888 C   0  0  1  0  0  0  0  0  0  0  0  0
   37.5206   18.8610   78.0419 O   0  0  0  0  0  0  0  0  0  0  0  0
   38.9112   17.9292   79.6932 C   0  0  1  0  0  0  0  0  0  0  0  0
   40.2248   17.7717   80.2515 O   0  0  0  0  0  0  0  0  0  0  0  0
   38.0432   19.0598   80.3388 C   0  0  1  0  0  0  0  0  0  0  0  0
   38.8246   19.6995   81.3625 O   0  0  0  0  0  0  0  0  0  0  0  0
   37.4619   19.8145   79.0909 C   0  0  2  0  0  0  0  0  0  0  0  0
   39.0624   19.5382   71.5283 O   0  0  0  0  0  0  0  0  0  0  0  0
   34.0116   23.6717   78.5235 N   0  0  0  0  0  0  0  0  0  0  0  0
   35.3263   23.6857   78.2760 C   0  0  0  0  0  0  0  0  0  0  0  0
   36.0866   22.6156   78.4900 N   0  0  0  0  0  0  0  0  0  0  0  0
   35.5595   21.4639   78.9438 C   0  0  0  0  0  0  0  0  0  0  0  0
   34.1656   21.3913   79.2081 C   0  0  0  0  0  0  0  0  0  0  0  0
   33.3905   22.5661   78.9763 C   0  0  0  0  0  0  0  0  0  0  0  0
   32.0266   22.5735   79.2011 N   0  0  0  0  0  0  0  0  0  0  0  0
   33.9042   20.1362   79.6408 N   0  0  0  0  0  0  0  0  0  0  0  0
   35.0104   19.4507   79.6575 C   0  0  0  0  0  0  0  0  0  0  0  0
   36.0618   20.2274   79.2360 N   0  0  0  0  0  0  0  0  0  0  0  0
  2  1  1  1  0  0  0
  2  3  1  0  0  0  0
  2  5  1  0  0  0  0
  3  4  1  0  0  0  0
  3 17  1  0  0  0  0
  5  6  1  0  0  0  0
  7  6  1  6  0  0  0
  7  8  1  0  0  0  0
  7  9  1  0  0  0  0
 10  9  1  6  0  0  0
 10 11  1  0  0  0  0
 10 12  1  0  0  0  0
 11 16  1  0  0  0  0
 12 13  1  1  0  0  0
 12 14  1  0  0  0  0
 14 15  1  6  0  0  0
 14 16  1  0  0  0  0
 16 27  1  1  0  0  0
 18 19  2  0  0  0  0
 18 23  1  0  0  0  0
 19 20  1  0  0  0  0
 20 21  2  0  0  0  0
 21 22  1  0  0  0  0
 21 27  1  0  0  0  0
 22 23  2  0  0  0  0
 22 25  1  0  0  0  0
 23 24  1  0  0  0  0
 25 26  2  0  0  0  0
 26 27  1  0  0  0  0
M  END
>  <CHROM.1>
-41.22198338,-64.86790509,-65.68790137,-82.83065739,-74.82903497,74.89559886
-111.93819639,37.02790519,19.63325589,77.20112744,0.80976199,0.81583431,-1.48872797

>  <Name>
ligand

>  <RI>
0

>  <Rbt.Current_Directory>
/home/itssahil/PROJECTS/Mol_Feturizer/New_Systems/rnas/2QWY

>  <Rbt.Executable>
rbdock ($Id: //depot/dev/client3/rdock/2013.1/src/exe/rbdock.cxx#4 $)

>  <Rbt.Library>
libRbt.so (2013.1, Build901 2013/11/27)

>  <Rbt.Parameter_File>
/export/apps/rDock/src/rDock_2013.1_src/data/scripts/dock_solv.prm

>  <Rbt.Receptor>
prm/pocket_docking_8.prm

>  <SCORE>
-9.19632

>  <SCORE.INTER>
-6.01453

>  <SCORE.INTER.CONST>
1

>  <SCORE.INTER.POLAR>
0

>  <SCORE.INTER.ROT>
7

>  <SCORE.INTER.SOLV>
8.85384

>  <SCORE.INTER.VDW>
-15.2276

>  <SCORE.INTER.norm>
-0.222761

>  <SCORE.INTRA>
-3.18178

>  <SCORE.INTRA.DIHEDRAL>
-5.79888

>  <SCORE.INTRA.DIHEDRAL.0>
10.7382

>  <SCORE.INTRA.POLAR>
0

>  <SCORE.INTRA.POLAR.0>
0

>  <SCORE.INTRA.REPUL>
0

>  <SCORE.INTRA.REPUL.0>
0

>  <SCORE.INTRA.SOLV>
0.37071

>  <SCORE.INTRA.SOLV.lig_0>
-49.2501

>  <SCORE.INTRA.VDW>
-0.467694

>  <SCORE.INTRA.VDW.0>
-1.75368

>  <SCORE.INTRA.norm>
-0.117844

>  <SCORE.RESTR>
0

>  <SCORE.RESTR.CAVITY>
0

>  <SCORE.RESTR.norm>
0

>  <SCORE.SYSTEM>
0

>  <SCORE.SYSTEM.CONST>
0

>  <SCORE.SYSTEM.DIHEDRAL>
0

>  <SCORE.SYSTEM.SOLV>
0

>  <SCORE.SYSTEM.norm>
0

>  <SCORE.heavy>
27

>  <SCORE.norm>
-0.340604

>  <RMSD>
4.990

$$$$
ligand
 OpenBabel11021811463D
libRbt.so/2013.1/901 2013/11/27
 27 29  0  0  0  0  0  0  0  0999 V2000
   38.0834   18.0057   77.6602 N   0  0  0  0  0  0  0  0  0  0  0  0
   38.9489   18.6256   78.6786 C   0  0  2  0  0  0  0  0  0  0  0  0
   39.3381   17.6019   79.7248 C   0  0  0  0  0  0  0  0  0  0  0  0
   38.7913   16.4944   79.7413 O   0  0  0  0  0  0  0  0  0  0  0  0
   38.1888   19.7610   79.3564 C   0  0  0  0  0  0  0  0  0  0  0  0
   36.8127   19.2969   79.7835 C   0  0  0  0  0  0  0  0  0  0  0  0
   36.0112   20.6632   80.6416 S   0  0  2  0  0  0  0  0  0  0  0  0
   36.1021   20.0138   82.3332 C   0  0  0  0  0  0  0  0  0  0  0  0
   34.2604   20.3278   80.2492 C   0  0  0  0  0  0  0  0  0  0  0  0
   33.7575   21.4037   79.2905 C   0  0  1  0  0  0  0  0  0  0  0  0
   32.5586   20.9395   78.7149 O   0  0  0  0  0  0  0  0  0  0  0  0
   33.3997   22.6959   80.0325 C   0  0  1  0  0  0  0  0  0  0  0  0
   34.3959   23.7082   80.2445 O   0  0  0  0  0  0  0  0  0  0  0  0
   32.0992   23.1807   79.3100 C   0  0  1  0  0  0  0  0  0  0  0  0
   32.2456   24.5789   79.0079 O   0  0  0  0  0  0  0  0  0  0  0  0
   31.8690   22.0758   78.2187 C   0  0  2  0  0  0  0  0  0  0  0  0
   40.2434   17.8494   80.5070 O   0  0  0  0  0  0  0  0  0  0  0  0
   28.4949   18.1573   77.6151 N   0  0  0  0  0  0  0  0  0  0  0  0
   29.8248   18.0995   77.7486 C   0  0  0  0  0  0  0  0  0  0  0  0
   30.5602   19.2003   77.8772 N   0  0  0  0  0  0  0  0  0  0  0  0
   29.9931   20.4200   77.9015 C   0  0  0  0  0  0  0  0  0  0  0  0
   28.5825   20.5360   77.7788 C   0  0  0  0  0  0  0  0  0  0  0  0
   27.8344   19.3306   77.6305 C   0  0  0  0  0  0  0  0  0  0  0  0
   26.4573   19.3587   77.5140 N   0  0  0  0  0  0  0  0  0  0  0  0
   28.2814   21.8536   77.8410 N   0  0  0  0  0  0  0  0  0  0  0  0
   29.3791   22.5363   77.9921 C   0  0  0  0  0  0  0  0  0  0  0  0
   30.4642   21.6956   78.0345 N   0  0  0  0  0  0  0  0  0  0  0  0
  2  1  1  6  0  0  0
  2  3  1  0  0  0  0
  2  5  1  0  0  0  0
  3  4  1  0  0  0  0
  3 17  1  0  0  0  0
  5  6  1  0  0  0  0
  7  6  1  6  0  0  0
  7  8  1  0  0  0  0
  7  9  1  0  0  0  0
 10  9  1  1  0  0  0
 10 11  1  0  0  0  0
 10 12  1  0  0  0  0
 11 16  1  0  0  0  0
 12 13  1  6  0  0  0
 12 14  1  0  0  0  0
 14 15  1  6  0  0  0
 14 16  1  0  0  0  0
 16 27  1  1  0  0  0
 18 19  2  0  0  0  0
 18 23  1  0  0  0  0
 19 20  1  0  0  0  0
 20 21  2  0  0  0  0
 21 22  1  0  0  0  0
 21 27  1  0  0  0  0
 22 23  2  0  0  0  0
 22 25  1  0  0  0  0
 23 24  1  0  0  0  0
 25 26  2  0  0  0  0
 26 27  1  0  0  0  0
M  END
>  <CHROM.1>
-9.75537988,48.81906112,177.34183733,-107.38846853,-110.27847217,163.97056635
-20.96510232,33.48387475,20.33800200,79.07019804,0.14832606,0.25574670,-2.87717509

>  <Name>
ligand

>  <RI>
0

>  <Rbt.Current_Directory>
/home/itssahil/PROJECTS/Mol_Feturizer/New_Systems/rnas/2QWY

>  <Rbt.Executable>
rbdock ($Id: //depot/dev/client3/rdock/2013.1/src/exe/rbdock.cxx#4 $)

>  <Rbt.Library>
libRbt.so (2013.1, Build901 2013/11/27)

>  <Rbt.Parameter_File>
/export/apps/rDock/src/rDock_2013.1_src/data/scripts/dock_solv.prm

>  <Rbt.Receptor>
prm/pocket_docking_8.prm

>  <SCORE>
-28.8007

>  <SCORE.INTER>
-28.8993

>  <SCORE.INTER.CONST>
1

>  <SCORE.INTER.POLAR>
0

>  <SCORE.INTER.ROT>
7

>  <SCORE.INTER.SOLV>
13.9674

>  <SCORE.INTER.VDW>
-32.1887

>  <SCORE.INTER.norm>
-1.07034

>  <SCORE.INTRA>
0.0986089

>  <SCORE.INTRA.DIHEDRAL>
0.297925

>  <SCORE.INTRA.DIHEDRAL.0>
10.7382

>  <SCORE.INTRA.POLAR>
0

>  <SCORE.INTRA.POLAR.0>
0

>  <SCORE.INTRA.REPUL>
0

>  <SCORE.INTRA.REPUL.0>
0

>  <SCORE.INTRA.SOLV>
-0.190428

>  <SCORE.INTRA.SOLV.lig_0>
-49.2501

>  <SCORE.INTRA.VDW>
0.0448604

>  <SCORE.INTRA.VDW.0>
-1.75368

>  <SCORE.INTRA.norm>
0.00365218

>  <SCORE.RESTR>
0

>  <SCORE.RESTR.CAVITY>
0

>  <SCORE.RESTR.norm>
0

>  <SCORE.SYSTEM>
0

>  <SCORE.SYSTEM.CONST>
0

>  <SCORE.SYSTEM.DIHEDRAL>
0

>  <SCORE.SYSTEM.SOLV>
0

>  <SCORE.SYSTEM.norm>
0

>  <SCORE.heavy>
27

>  <SCORE.norm>
-1.06669

>  <RMSD>
5.000

$$$$
ligand
 OpenBabel11021811463D
libRbt.so/2013.1/901 2013/11/27
 27 29  0  0  0  0  0  0  0  0999 V2000
   37.9726   21.0478   79.3335 N   0  0  0  0  0  0  0  0  0  0  0  0
   37.7994   22.3967   78.7668 C   0  0  2  0  0  0  0  0  0  0  0  0
   38.2848   23.4412   79.7503 C   0  0  0  0  0  0  0  0  0  0  0  0
   38.6820   24.5379   79.3436 O   0  0  0  0  0  0  0  0  0  0  0  0
   36.3195   22.6335   78.4839 C   0  0  0  0  0  0  0  0  0  0  0  0
   35.8525   21.7612   77.3383 C   0  0  0  0  0  0  0  0  0  0  0  0
   35.6199   20.0921   77.9749 S   0  0  2  0  0  0  0  0  0  0  0  0
   34.8901   19.3354   76.4963 C   0  0  0  0  0  0  0  0  0  0  0  0
   34.1283   20.3265   79.0004 C   0  0  0  0  0  0  0  0  0  0  0  0
   33.0877   21.0901   78.1859 C   0  0  1  0  0  0  0  0  0  0  0  0
   32.0616   20.1871   77.8455 O   0  0  0  0  0  0  0  0  0  0  0  0
   32.4235   22.1944   79.0152 C   0  0  1  0  0  0  0  0  0  0  0  0
   32.9919   23.5127   79.0524 O   0  0  0  0  0  0  0  0  0  0  0  0
   30.9238   22.1269   78.5741 C   0  0  1  0  0  0  0  0  0  0  0  0
   30.4784   23.4629   78.2838 O   0  0  0  0  0  0  0  0  0  0  0  0
   30.9174   20.9613   77.5224 C   0  0  2  0  0  0  0  0  0  0  0  0
   38.2158   23.2216   80.9502 O   0  0  0  0  0  0  0  0  0  0  0  0
   25.7241   20.6409   77.3467 N   0  0  0  0  0  0  0  0  0  0  0  0
   26.4970   21.7266   77.2304 C   0  0  0  0  0  0  0  0  0  0  0  0
   27.8222   21.6506   77.3161 N   0  0  0  0  0  0  0  0  0  0  0  0
   28.4434   20.4715   77.5007 C   0  0  0  0  0  0  0  0  0  0  0  0
   27.6694   19.2857   77.6152 C   0  0  0  0  0  0  0  0  0  0  0  0
   26.2516   19.4155   77.5299 C   0  0  0  0  0  0  0  0  0  0  0  0
   25.4296   18.3080   77.6231 N   0  0  0  0  0  0  0  0  0  0  0  0
   28.5329   18.2580   77.7851 N   0  0  0  0  0  0  0  0  0  0  0  0
   29.7506   18.7174   77.7803 C   0  0  0  0  0  0  0  0  0  0  0  0
   29.7480   20.0800   77.6082 N   0  0  0  0  0  0  0  0  0  0  0  0
  2  1  1  1  0  0  0
  2  3  1  0  0  0  0
  2  5  1  0  0  0  0
  3  4  1  0  0  0  0
  3 17  1  0  0  0  0
  5  6  1  0  0  0  0
  7  6  1  6  0  0  0
  7  8  1  0  0  0  0
  7  9  1  0  0  0  0
 10  9  1  1  0  0  0
 10 11  1  0  0  0  0
 10 12  1  0  0  0  0
 11 16  1  0  0  0  0
 12 13  1  6  0  0  0
 12 14  1  0  0  0  0
 14 15  1  6  0  0  0
 14 16  1  0  0  0  0
 16 27  1  1  0  0  0
 18 19  2  0  0  0  0
 18 23  1  0  0  0  0
 19 20  1  0  0  0  0
 20 21  2  0  0  0  0
 21 22  1  0  0  0  0
 21 27  1  0  0  0  0
 22 23  2  0  0  0  0
 22 25  1  0  0  0  0
 23 24  1  0  0  0  0
 25 26  2  0  0  0  0
 26 27  1  0  0  0  0
M  END
>  <CHROM.1>
153.84657929,-69.14815733,77.59986274,173.56691303,47.91669823,108.03309697
173.06834266,32.39354051,21.14922141,78.20917727,-0.26886467,0.08081122,-2.85976051

>  <Name>
ligand

>  <RI>
0

>  <Rbt.Current_Directory>
/home/itssahil/PROJECTS/Mol_Feturizer/New_Systems/rnas/2QWY

>  <Rbt.Executable>
rbdock ($Id: //depot/dev/client3/rdock/2013.1/src/exe/rbdock.cxx#4 $)

>  <Rbt.Library>
libRbt.so (2013.1, Build901 2013/11/27)

>  <Rbt.Parameter_File>
/export/apps/rDock/src/rDock_2013.1_src/data/scripts/dock_solv.prm

>  <Rbt.Receptor>
prm/pocket_docking_6.prm

>  <SCORE>
-20.3614

>  <SCORE.INTER>
-21.1263

>  <SCORE.INTER.CONST>
1

>  <SCORE.INTER.POLAR>
0

>  <SCORE.INTER.ROT>
7

>  <SCORE.INTER.SOLV>
10.9564

>  <SCORE.INTER.VDW>
-26.003

>  <SCORE.INTER.norm>
-0.782455

>  <SCORE.INTRA>
0.764881

>  <SCORE.INTRA.DIHEDRAL>
-1.5025

>  <SCORE.INTRA.DIHEDRAL.0>
10.7382

>  <SCORE.INTRA.POLAR>
0

>  <SCORE.INTRA.POLAR.0>
0

>  <SCORE.INTRA.REPUL>
0

>  <SCORE.INTRA.REPUL.0>
0

>  <SCORE.INTRA.SOLV>
1.85866

>  <SCORE.INTRA.SOLV.lig_0>
-49.2501

>  <SCORE.INTRA.VDW>
0.586802

>  <SCORE.INTRA.VDW.0>
-1.75368

>  <SCORE.INTRA.norm>
0.0283289

>  <SCORE.RESTR>
0

>  <SCORE.RESTR.CAVITY>
0

>  <SCORE.RESTR.norm>
0

>  <SCORE.SYSTEM>
0

>  <SCORE.SYSTEM.CONST>
0

>  <SCORE.SYSTEM.DIHEDRAL>
0

>  <SCORE.SYSTEM.SOLV>
0

>  <SCORE.SYSTEM.norm>
0

>  <SCORE.heavy>
27

>  <SCORE.norm>
-0.754126

>  <RMSD>
5.038

$$$$
ligand
 OpenBabel11021811463D
libRbt.so/2013.1/901 2013/11/27
 27 29  0  0  0  0  0  0  0  0999 V2000
   36.4236   24.4948   79.2502 N   0  0  0  0  0  0  0  0  0  0  0  0
   35.4340   23.8253   78.3882 C   0  0  2  0  0  0  0  0  0  0  0  0
   35.7800   24.0449   76.9301 C   0  0  0  0  0  0  0  0  0  0  0  0
   36.2145   25.1384   76.5544 O   0  0  0  0  0  0  0  0  0  0  0  0
   34.0535   24.4127   78.6629 C   0  0  0  0  0  0  0  0  0  0  0  0
   33.6992   24.2716   80.1278 C   0  0  0  0  0  0  0  0  0  0  0  0
   32.7988   22.7246   80.3312 S   0  0  2  0  0  0  0  0  0  0  0  0
   32.2499   22.9519   82.0455 C   0  0  0  0  0  0  0  0  0  0  0  0
   34.1817   21.5585   80.5756 C   0  0  0  0  0  0  0  0  0  0  0  0
   34.0556   20.4276   79.5584 C   0  0  1  0  0  0  0  0  0  0  0  0
   32.7118   20.0054   79.5500 O   0  0  0  0  0  0  0  0  0  0  0  0
   34.3568   20.9135   78.1366 C   0  0  1  0  0  0  0  0  0  0  0  0
   35.6999   20.8796   77.6295 O   0  0  0  0  0  0  0  0  0  0  0  0
   33.2955   20.1639   77.2648 C   0  0  1  0  0  0  0  0  0  0  0  0
   33.9685   19.5854   76.1333 O   0  0  0  0  0  0  0  0  0  0  0  0
   32.4986   19.3232   78.3244 C   0  0  2  0  0  0  0  0  0  0  0  0
   35.6948   23.1160   76.1410 O   0  0  0  0  0  0  0  0  0  0  0  0
   28.1282   22.0837   77.7054 N   0  0  0  0  0  0  0  0  0  0  0  0
   29.3688   22.5272   77.9372 C   0  0  0  0  0  0  0  0  0  0  0  0
   30.3902   21.6895   78.0924 N   0  0  0  0  0  0  0  0  0  0  0  0
   30.2216   20.3579   77.9993 C   0  0  0  0  0  0  0  0  0  0  0  0
   28.9264   19.8354   77.7391 C   0  0  0  0  0  0  0  0  0  0  0  0
   27.8583   20.7693   77.5921 C   0  0  0  0  0  0  0  0  0  0  0  0
   26.5707   20.3407   77.3289 N   0  0  0  0  0  0  0  0  0  0  0  0
   29.0399   18.4881   77.6893 N   0  0  0  0  0  0  0  0  0  0  0  0
   30.2818   18.1559   77.8926 C   0  0  0  0  0  0  0  0  0  0  0  0
   31.0513   19.2762   78.0899 N   0  0  0  0  0  0  0  0  0  0  0  0
  2  1  1  1  0  0  0
  2  3  1  0  0  0  0
  2  5  1  0  0  0  0
  3  4  1  0  0  0  0
  3 17  1  0  0  0  0
  5  6  1  0  0  0  0
  7  6  1  1  0  0  0
  7  8  1  0  0  0  0
  7  9  1  0  0  0  0
 10  9  1  1  0  0  0
 10 11  1  0  0  0  0
 10 12  1  0  0  0  0
 11 16  1  0  0  0  0
 12 13  1  6  0  0  0
 12 14  1  0  0  0  0
 14 15  1  6  0  0  0
 14 16  1  0  0  0  0
 16 27  1  6  0  0  0
 18 19  2  0  0  0  0
 18 23  1  0  0  0  0
 19 20  1  0  0  0  0
 20 21  2  0  0  0  0
 21 22  1  0  0  0  0
 21 27  1  0  0  0  0
 22 23  2  0  0  0  0
 22 25  1  0  0  0  0
 23 24  1  0  0  0  0
 25 26  2  0  0  0  0
 26 27  1  0  0  0  0
M  END
>  <CHROM.1>
-38.79934685,-57.04792569,-92.23129881,-170.23636907,-125.68378212,-45.67642066
58.13154843,32.52838654,21.62202657,78.37908597,0.43702571,0.24695711,0.60625181

>  <Name>
ligand

>  <RI>
0

>  <Rbt.Current_Directory>
/home/itssahil/PROJECTS/Mol_Feturizer/New_Systems/rnas/2QWY

>  <Rbt.Executable>
rbdock ($Id: //depot/dev/client3/rdock/2013.1/src/exe/rbdock.cxx#4 $)

>  <Rbt.Library>
libRbt.so (2013.1, Build901 2013/11/27)

>  <Rbt.Parameter_File>
/export/apps/rDock/src/rDock_2013.1_src/data/scripts/dock_solv.prm

>  <Rbt.Receptor>
prm/pocket_docking_5.prm

>  <SCORE>
-27.5707

>  <SCORE.INTER>
-26.5078

>  <SCORE.INTER.CONST>
1

>  <SCORE.INTER.POLAR>
0

>  <SCORE.INTER.ROT>
7

>  <SCORE.INTER.SOLV>
11.817

>  <SCORE.INTER.VDW>
-29.8775

>  <SCORE.INTER.norm>
-0.981769

>  <SCORE.INTRA>
-1.06297

>  <SCORE.INTRA.DIHEDRAL>
1.53612

>  <SCORE.INTRA.DIHEDRAL.0>
10.7382

>  <SCORE.INTRA.POLAR>
0

>  <SCORE.INTRA.POLAR.0>
0

>  <SCORE.INTRA.REPUL>
0

>  <SCORE.INTRA.REPUL.0>
0

>  <SCORE.INTRA.SOLV>
1.76852

>  <SCORE.INTRA.SOLV.lig_0>
-49.2501

>  <SCORE.INTRA.VDW>
-2.71529

>  <SCORE.INTRA.VDW.0>
-1.75368

>  <SCORE.INTRA.norm>
-0.0393692

>  <SCORE.RESTR>
0

>  <SCORE.RESTR.CAVITY>
0

>  <SCORE.RESTR.norm>
0

>  <SCORE.SYSTEM>
0

>  <SCORE.SYSTEM.CONST>
0

>  <SCORE.SYSTEM.DIHEDRAL>
0

>  <SCORE.SYSTEM.SOLV>
0

>  <SCORE.SYSTEM.norm>
0

>  <SCORE.heavy>
27

>  <SCORE.norm>
-1.02114

>  <RMSD>
5.080

$$$$
ligand
 OpenBabel11021811463D
libRbt.so/2013.1/901 2013/11/27
 27 29  0  0  0  0  0  0  0  0999 V2000
   38.2316   16.0584   69.6492 N   0  0  0  0  0  0  0  0  0  0  0  0
   36.8668   15.8008   69.1577 C   0  0  2  0  0  0  0  0  0  0  0  0
   36.5530   16.7122   67.9894 C   0  0  0  0  0  0  0  0  0  0  0  0
   36.2245   16.2320   66.8998 O   0  0  0  0  0  0  0  0  0  0  0  0
   35.8714   16.0750   70.2803 C   0  0  0  0  0  0  0  0  0  0  0  0
   36.3460   15.4493   71.5743 C   0  0  0  0  0  0  0  0  0  0  0  0
   37.2862   16.6932   72.4766 S   0  0  2  0  0  0  0  0  0  0  0  0
   38.3904   15.5862   73.3968 C   0  0  0  0  0  0  0  0  0  0  0  0
   36.0923   17.1362   73.7843 C   0  0  0  0  0  0  0  0  0  0  0  0
   36.4613   18.5084   74.3414 C   0  0  1  0  0  0  0  0  0  0  0  0
   35.6440   18.7505   75.4628 O   0  0  0  0  0  0  0  0  0  0  0  0
   37.9051   18.5380   74.8540 C   0  0  1  0  0  0  0  0  0  0  0  0
   38.9803   18.8887   73.9690 O   0  0  0  0  0  0  0  0  0  0  0  0
   37.8090   19.3955   76.1593 C   0  0  1  0  0  0  0  0  0  0  0  0
   38.8584   20.3780   76.1319 O   0  0  0  0  0  0  0  0  0  0  0  0
   36.2829   19.7565   76.2328 C   0  0  2  0  0  0  0  0  0  0  0  0
   36.5574   17.9236   68.1483 O   0  0  0  0  0  0  0  0  0  0  0  0
   32.1141   20.6786   79.2119 N   0  0  0  0  0  0  0  0  0  0  0  0
   32.2642   20.8895   77.8994 C   0  0  0  0  0  0  0  0  0  0  0  0
   33.4076   20.6178   77.2767 N   0  0  0  0  0  0  0  0  0  0  0  0
   34.4564   20.0962   77.9386 C   0  0  0  0  0  0  0  0  0  0  0  0
   34.3442   19.8387   79.3312 C   0  0  0  0  0  0  0  0  0  0  0  0
   33.1043   20.1568   79.9606 C   0  0  0  0  0  0  0  0  0  0  0  0
   32.9131   19.9277   81.3103 N   0  0  0  0  0  0  0  0  0  0  0  0
   35.5238   19.3163   79.7389 N   0  0  0  0  0  0  0  0  0  0  0  0
   36.3300   19.2348   78.7205 C   0  0  0  0  0  0  0  0  0  0  0  0
   35.7169   19.7051   77.5851 N   0  0  0  0  0  0  0  0  0  0  0  0
  2  1  1  1  0  0  0
  2  3  1  0  0  0  0
  2  5  1  0  0  0  0
  3  4  1  0  0  0  0
  3 17  1  0  0  0  0
  5  6  1  0  0  0  0
  7  6  1  6  0  0  0
  7  8  1  0  0  0  0
  7  9  1  0  0  0  0
 10  9  1  1  0  0  0
 10 11  1  0  0  0  0
 10 12  1  0  0  0  0
 11 16  1  0  0  0  0
 12 13  1  6  0  0  0
 12 14  1  0  0  0  0
 14 15  1  6  0  0  0
 14 16  1  0  0  0  0
 16 27  1  1  0  0  0
 18 19  2  0  0  0  0
 18 23  1  0  0  0  0
 19 20  1  0  0  0  0
 20 21  2  0  0  0  0
 21 22  1  0  0  0  0
 21 27  1  0  0  0  0
 22 23  2  0  0  0  0
 22 25  1  0  0  0  0
 23 24  1  0  0  0  0
 25 26  2  0  0  0  0
 26 27  1  0  0  0  0
M  END
>  <CHROM.1>
122.47038333,-45.69809452,92.88725458,-151.95999438,-159.26561661,-172.24246351
-71.27335347,36.07749041,18.33623281,74.55736147,-1.29861037,-0.11488386
1.23296348

>  <Name>
ligand

>  <RI>
0

>  <Rbt.Current_Directory>
/home/itssahil/PROJECTS/Mol_Feturizer/New_Systems/rnas/2QWY

>  <Rbt.Executable>
rbdock ($Id: //depot/dev/client3/rdock/2013.1/src/exe/rbdock.cxx#4 $)

>  <Rbt.Library>
libRbt.so (2013.1, Build901 2013/11/27)

>  <Rbt.Parameter_File>
/export/apps/rDock/src/rDock_2013.1_src/data/scripts/dock_solv.prm

>  <Rbt.Receptor>
prm/pocket_docking_4.prm

>  <SCORE>
-2.75137

>  <SCORE.INTER>
-4.62398

>  <SCORE.INTER.CONST>
1

>  <SCORE.INTER.POLAR>
0

>  <SCORE.INTER.ROT>
7

>  <SCORE.INTER.SOLV>
13.2683

>  <SCORE.INTER.VDW>
-15.7721

>  <SCORE.INTER.norm>
-0.171259

>  <SCORE.INTRA>
1.87245

>  <SCORE.INTRA.DIHEDRAL>
1.66545

>  <SCORE.INTRA.DIHEDRAL.0>
10.7382

>  <SCORE.INTRA.POLAR>
0

>  <SCORE.INTRA.POLAR.0>
0

>  <SCORE.INTRA.REPUL>
0

>  <SCORE.INTRA.REPUL.0>
0

>  <SCORE.INTRA.SOLV>
1.77671

>  <SCORE.INTRA.SOLV.lig_0>
-49.2501

>  <SCORE.INTRA.VDW>
0.151368

>  <SCORE.INTRA.VDW.0>
-1.75368

>  <SCORE.INTRA.norm>
0.0693498

>  <SCORE.RESTR>
0.000161214

>  <SCORE.RESTR.CAVITY>
0.000161214

>  <SCORE.RESTR.norm>
5.97088e-06

>  <SCORE.SYSTEM>
0

>  <SCORE.SYSTEM.CONST>
0

>  <SCORE.SYSTEM.DIHEDRAL>
0

>  <SCORE.SYSTEM.SOLV>
0

>  <SCORE.SYSTEM.norm>
0

>  <SCORE.heavy>
27

>  <SCORE.norm>
-0.101903

>  <RMSD>
5.163

$$$$
ligand
 OpenBabel11021811463D
libRbt.so/2013.1/901 2013/11/27
 27 29  0  0  0  0  0  0  0  0999 V2000
   37.4060   16.0636   68.6542 N   0  0  0  0  0  0  0  0  0  0  0  0
   37.0055   16.0577   70.0720 C   0  0  2  0  0  0  0  0  0  0  0  0
   35.7337   15.2549   70.2508 C   0  0  0  0  0  0  0  0  0  0  0  0
   34.7809   15.4245   69.4833 O   0  0  0  0  0  0  0  0  0  0  0  0
   36.7530   17.4918   70.5259 C   0  0  0  0  0  0  0  0  0  0  0  0
   36.2350   17.5144   71.9480 C   0  0  0  0  0  0  0  0  0  0  0  0
   37.6499   17.3667   73.0532 S   0  0  2  0  0  0  0  0  0  0  0  0
   37.8102   15.5595   73.0509 C   0  0  0  0  0  0  0  0  0  0  0  0
   36.8443   17.6281   74.6701 C   0  0  0  0  0  0  0  0  0  0  0  0
   36.2447   19.0314   74.6986 C   0  0  1  0  0  0  0  0  0  0  0  0
   35.6572   19.2217   75.9645 O   0  0  0  0  0  0  0  0  0  0  0  0
   37.3268   20.1084   74.5665 C   0  0  1  0  0  0  0  0  0  0  0  0
   37.7250   20.5791   73.2696 O   0  0  0  0  0  0  0  0  0  0  0  0
   36.8569   21.2188   75.5638 C   0  0  1  0  0  0  0  0  0  0  0  0
   36.9259   22.4878   74.8912 O   0  0  0  0  0  0  0  0  0  0  0  0
   35.5321   20.6217   76.1580 C   0  0  2  0  0  0  0  0  0  0  0  0
   35.6797   14.3898   71.1119 O   0  0  0  0  0  0  0  0  0  0  0  0
   32.6332   19.6625   80.3747 N   0  0  0  0  0  0  0  0  0  0  0  0
   32.4420   19.2440   79.1185 C   0  0  0  0  0  0  0  0  0  0  0  0
   33.2680   19.5911   78.1355 N   0  0  0  0  0  0  0  0  0  0  0  0
   34.3464   20.3611   78.3688 C   0  0  0  0  0  0  0  0  0  0  0  0
   34.6036   20.8198   79.6885 C   0  0  0  0  0  0  0  0  0  0  0  0
   33.6851   20.4337   80.7092 C   0  0  0  0  0  0  0  0  0  0  0  0
   33.8705   20.8321   82.0199 N   0  0  0  0  0  0  0  0  0  0  0  0
   35.7372   21.5571   79.6431 N   0  0  0  0  0  0  0  0  0  0  0  0
   36.1835   21.5801   78.4208 C   0  0  0  0  0  0  0  0  0  0  0  0
   35.3583   20.8560   77.5956 N   0  0  0  0  0  0  0  0  0  0  0  0
  2  1  1  6  0  0  0
  2  3  1  0  0  0  0
  2  5  1  0  0  0  0
  3  4  1  0  0  0  0
  3 17  1  0  0  0  0
  5  6  1  0  0  0  0
  7  6  1  6  0  0  0
  7  8  1  0  0  0  0
  7  9  1  0  0  0  0
 10  9  1  1  0  0  0
 10 11  1  0  0  0  0
 10 12  1  0  0  0  0
 11 16  1  0  0  0  0
 12 13  1  6  0  0  0
 12 14  1  0  0  0  0
 14 15  1  6  0  0  0
 14 16  1  0  0  0  0
 16 27  1  1  0  0  0
 18 19  2  0  0  0  0
 18 23  1  0  0  0  0
 19 20  1  0  0  0  0
 20 21  2  0  0  0  0
 21 22  1  0  0  0  0
 21 27  1  0  0  0  0
 22 23  2  0  0  0  0
 22 25  1  0  0  0  0
 23 24  1  0  0  0  0
 25 26  2  0  0  0  0
 26 27  1  0  0  0  0
M  END
>  <CHROM.1>
-46.28884554,175.58460527,81.49456408,-84.36903370,-62.33824802,-178.63721885
-59.61256040,35.84715232,18.80306678,75.02869456,-1.23438663,0.81178410,0.84564052

>  <Name>
ligand

>  <RI>
0

>  <Rbt.Current_Directory>
/home/itssahil/PROJECTS/Mol_Feturizer/New_Systems/rnas/2QWY

>  <Rbt.Executable>
rbdock ($Id: //depot/dev/client3/rdock/2013.1/src/exe/rbdock.cxx#4 $)

>  <Rbt.Library>
libRbt.so (2013.1, Build901 2013/11/27)

>  <Rbt.Parameter_File>
/export/apps/rDock/src/rDock_2013.1_src/data/scripts/dock_solv.prm

>  <Rbt.Receptor>
prm/pocket_docking_3.prm

>  <SCORE>
-6.22253

>  <SCORE.INTER>
-3.93955

>  <SCORE.INTER.CONST>
1

>  <SCORE.INTER.POLAR>
0

>  <SCORE.INTER.ROT>
7

>  <SCORE.INTER.SOLV>
8.35204

>  <SCORE.INTER.VDW>
-13.677

>  <SCORE.INTER.norm>
-0.145909

>  <SCORE.INTRA>
-2.29316

>  <SCORE.INTRA.DIHEDRAL>
-4.95139

>  <SCORE.INTRA.DIHEDRAL.0>
10.7382

>  <SCORE.INTRA.POLAR>
0

>  <SCORE.INTRA.POLAR.0>
0

>  <SCORE.INTRA.REPUL>
0

>  <SCORE.INTRA.REPUL.0>
0

>  <SCORE.INTRA.SOLV>
-0.518554

>  <SCORE.INTRA.SOLV.lig_0>
-49.2501

>  <SCORE.INTRA.VDW>
0.441817

>  <SCORE.INTRA.VDW.0>
-1.75368

>  <SCORE.INTRA.norm>
-0.0849317

>  <SCORE.RESTR>
0.0101717

>  <SCORE.RESTR.CAVITY>
0.0101717

>  <SCORE.RESTR.norm>
0.000376728

>  <SCORE.SYSTEM>
0

>  <SCORE.SYSTEM.CONST>
0

>  <SCORE.SYSTEM.DIHEDRAL>
0

>  <SCORE.SYSTEM.SOLV>
0

>  <SCORE.SYSTEM.norm>
0

>  <SCORE.heavy>
27

>  <SCORE.norm>
-0.230464

>  <RMSD>
5.249

$$$$
ligand
 OpenBabel11021811463D
libRbt.so/2013.1/901 2013/11/27
 27 29  0  0  0  0  0  0  0  0999 V2000
   39.3732   22.1876   81.0961 N   0  0  0  0  0  0  0  0  0  0  0  0
   37.9871   21.6882   81.0889 C   0  0  2  0  0  0  0  0  0  0  0  0
   37.9366   20.2830   81.6518 C   0  0  0  0  0  0  0  0  0  0  0  0
   38.7712   19.4437   81.2984 O   0  0  0  0  0  0  0  0  0  0  0  0
   37.4719   21.6649   79.6536 C   0  0  0  0  0  0  0  0  0  0  0  0
   35.9808   21.4047   79.6296 C   0  0  0  0  0  0  0  0  0  0  0  0
   35.7302   19.6226   79.7116 S   0  0  2  0  0  0  0  0  0  0  0  0
   35.8067   19.2545   77.9367 C   0  0  0  0  0  0  0  0  0  0  0  0
   33.9279   19.5475   79.9904 C   0  0  0  0  0  0  0  0  0  0  0  0
   33.2288   20.3592   78.9033 C   0  0  1  0  0  0  0  0  0  0  0  0
   32.1208   19.6133   78.4560 O   0  0  0  0  0  0  0  0  0  0  0  0
   32.6620   21.6709   79.4571 C   0  0  1  0  0  0  0  0  0  0  0  0
   33.4685   22.8589   79.4715 O   0  0  0  0  0  0  0  0  0  0  0  0
   31.2852   21.8081   78.7264 C   0  0  1  0  0  0  0  0  0  0  0  0
   31.1792   23.1464   78.2115 O   0  0  0  0  0  0  0  0  0  0  0  0
   31.2348   20.5240   77.8246 C   0  0  2  0  0  0  0  0  0  0  0  0
   37.1119   20.0032   82.5087 O   0  0  0  0  0  0  0  0  0  0  0  0
   26.1113   21.2375   77.2376 N   0  0  0  0  0  0  0  0  0  0  0  0
   27.0843   22.1554   77.2564 C   0  0  0  0  0  0  0  0  0  0  0  0
   28.3579   21.8166   77.4357 N   0  0  0  0  0  0  0  0  0  0  0  0
   28.7242   20.5304   77.5829 C   0  0  0  0  0  0  0  0  0  0  0  0
   27.7312   19.5148   77.5552 C   0  0  0  0  0  0  0  0  0  0  0  0
   26.3771   19.9244   77.3732 C   0  0  0  0  0  0  0  0  0  0  0  0
   25.3540   18.9960   77.3263 N   0  0  0  0  0  0  0  0  0  0  0  0
   28.3645   18.3301   77.7167 N   0  0  0  0  0  0  0  0  0  0  0  0
   29.6432   18.5416   77.8357 C   0  0  0  0  0  0  0  0  0  0  0  0
   29.9156   19.8855   77.7602 N   0  0  0  0  0  0  0  0  0  0  0  0
  2  1  1  6  0  0  0
  2  3  1  0  0  0  0
  2  5  1  0  0  0  0
  3  4  1  0  0  0  0
  3 17  1  0  0  0  0
  5  6  1  0  0  0  0
  7  6  1  6  0  0  0
  7  8  1  0  0  0  0
  7  9  1  0  0  0  0
 10  9  1  1  0  0  0
 10 11  1  0  0  0  0
 10 12  1  0  0  0  0
 11 16  1  0  0  0  0
 12 13  1  6  0  0  0
 12 14  1  0  0  0  0
 14 15  1  6  0  0  0
 14 16  1  0  0  0  0
 16 27  1  1  0  0  0
 18 19  2  0  0  0  0
 18 23  1  0  0  0  0
 19 20  1  0  0  0  0
 20 21  2  0  0  0  0
 21 22  1  0  0  0  0
 21 27  1  0  0  0  0
 22 23  2  0  0  0  0
 22 25  1  0  0  0  0
 23 24  1  0  0  0  0
 25 26  2  0  0  0  0
 26 27  1  0  0  0  0
M  END
>  <CHROM.1>
-44.79483135,-169.54366358,-84.33719383,-87.73228994,53.44083653,136.29941698
160.41641671,32.62644586,20.56096636,78.99453477,0.03019732,-0.31642962,-0.01207993

>  <Name>
ligand

>  <RI>
0

>  <Rbt.Current_Directory>
/home/itssahil/PROJECTS/Mol_Feturizer/New_Systems/rnas/2QWY

>  <Rbt.Executable>
rbdock ($Id: //depot/dev/client3/rdock/2013.1/src/exe/rbdock.cxx#4 $)

>  <Rbt.Library>
libRbt.so (2013.1, Build901 2013/11/27)

>  <Rbt.Parameter_File>
/export/apps/rDock/src/rDock_2013.1_src/data/scripts/dock_solv.prm

>  <Rbt.Receptor>
prm/pocket_docking_5.prm

>  <SCORE>
-22.6465

>  <SCORE.INTER>
-23.1444

>  <SCORE.INTER.CONST>
1

>  <SCORE.INTER.POLAR>
0

>  <SCORE.INTER.ROT>
7

>  <SCORE.INTER.SOLV>
8.8958

>  <SCORE.INTER.VDW>
-26.6615

>  <SCORE.INTER.norm>
-0.8572

>  <SCORE.INTRA>
0.497926

>  <SCORE.INTRA.DIHEDRAL>
0.210929

>  <SCORE.INTRA.DIHEDRAL.0>
10.7382

>  <SCORE.INTRA.POLAR>
0

>  <SCORE.INTRA.POLAR.0>
0

>  <SCORE.INTRA.REPUL>
0

>  <SCORE.INTRA.REPUL.0>
0

>  <SCORE.INTRA.SOLV>
-0.569994

>  <SCORE.INTRA.SOLV.lig_0>
-49.2501

>  <SCORE.INTRA.VDW>
0.677458

>  <SCORE.INTRA.VDW.0>
-1.75368

>  <SCORE.INTRA.norm>
0.0184417

>  <SCORE.RESTR>
0

>  <SCORE.RESTR.CAVITY>
0

>  <SCORE.RESTR.norm>
0

>  <SCORE.SYSTEM>
0

>  <SCORE.SYSTEM.CONST>
0

>  <SCORE.SYSTEM.DIHEDRAL>
0

>  <SCORE.SYSTEM.SOLV>
0

>  <SCORE.SYSTEM.norm>
0

>  <SCORE.heavy>
27

>  <SCORE.norm>
-0.838758

>  <RMSD>
5.381

$$$$
ligand
 OpenBabel11021811463D
libRbt.so/2013.1/901 2013/11/27
 27 29  0  0  0  0  0  0  0  0999 V2000
   37.8676   14.9566   72.7714 N   0  0  0  0  0  0  0  0  0  0  0  0
   36.8502   15.5907   71.9150 C   0  0  2  0  0  0  0  0  0  0  0  0
   37.5183   16.3578   70.7929 C   0  0  0  0  0  0  0  0  0  0  0  0
   36.8533   16.7490   69.8282 O   0  0  0  0  0  0  0  0  0  0  0  0
   36.0249   16.5607   72.7543 C   0  0  0  0  0  0  0  0  0  0  0  0
   36.9232   17.5762   73.4275 C   0  0  0  0  0  0  0  0  0  0  0  0
   35.9182   19.0123   73.8433 S   0  0  2  0  0  0  0  0  0  0  0  0
   35.8528   19.7837   72.2025 C   0  0  0  0  0  0  0  0  0  0  0  0
   37.1617   20.0699   74.6598 C   0  0  0  0  0  0  0  0  0  0  0  0
   36.5151   21.4075   75.0092 C   0  0  1  0  0  0  0  0  0  0  0  0
   35.5885   21.1789   76.0453 O   0  0  0  0  0  0  0  0  0  0  0  0
   37.5409   22.3994   75.5683 C   0  0  1  0  0  0  0  0  0  0  0  0
   38.2645   23.2682   74.6830 O   0  0  0  0  0  0  0  0  0  0  0  0
   36.7605   23.1185   76.7182 C   0  0  1  0  0  0  0  0  0  0  0  0
   36.9575   24.5360   76.5791 O   0  0  0  0  0  0  0  0  0  0  0  0
   35.3508   22.4289   76.6730 C   0  0  2  0  0  0  0  0  0  0  0  0
   38.7017   16.6490   70.8791 O   0  0  0  0  0  0  0  0  0  0  0  0
   35.7378   19.6934   81.0856 N   0  0  0  0  0  0  0  0  0  0  0  0
   36.5231   19.6462   80.0036 C   0  0  0  0  0  0  0  0  0  0  0  0
   36.2829   20.4013   78.9353 N   0  0  0  0  0  0  0  0  0  0  0  0
   35.2506   21.2635   78.9075 C   0  0  0  0  0  0  0  0  0  0  0  0
   34.3948   21.3637   80.0370 C   0  0  0  0  0  0  0  0  0  0  0  0
   34.6821   20.5264   81.1555 C   0  0  0  0  0  0  0  0  0  0  0  0
   33.9017   20.5710   82.2957 N   0  0  0  0  0  0  0  0  0  0  0  0
   33.4579   22.2964   79.7491 N   0  0  0  0  0  0  0  0  0  0  0  0
   33.6746   22.7653   78.5545 C   0  0  0  0  0  0  0  0  0  0  0  0
   34.7710   22.1582   77.9930 N   0  0  0  0  0  0  0  0  0  0  0  0
  2  1  1  1  0  0  0
  2  3  1  0  0  0  0
  2  5  1  0  0  0  0
  3  4  1  0  0  0  0
  3 17  1  0  0  0  0
  5  6  1  0  0  0  0
  7  6  1  6  0  0  0
  7  8  1  0  0  0  0
  7  9  1  0  0  0  0
 10  9  1  1  0  0  0
 10 11  1  0  0  0  0
 10 12  1  0  0  0  0
 11 16  1  0  0  0  0
 12 13  1  6  0  0  0
 12 14  1  0  0  0  0
 14 15  1  6  0  0  0
 14 16  1  0  0  0  0
 16 27  1  1  0  0  0
 18 19  2  0  0  0  0
 18 23  1  0  0  0  0
 19 20  1  0  0  0  0
 20 21  2  0  0  0  0
 21 22  1  0  0  0  0
 21 27  1  0  0  0  0
 22 23  2  0  0  0  0
 22 25  1  0  0  0  0
 23 24  1  0  0  0  0
 25 26  2  0  0  0  0
 26 27  1  0  0  0  0
M  END
>  <CHROM.1>
166.37729250,56.04432608,158.31803625,-78.69987494,176.07051327,69.81196050
48.17763813,36.16036940,20.02681796,75.80863925,0.77253260,-1.24578677,-2.88254078

>  <Name>
ligand

>  <RI>
0

>  <Rbt.Current_Directory>
/home/itssahil/PROJECTS/Mol_Feturizer/New_Systems/rnas/2QWY

>  <Rbt.Executable>
rbdock ($Id: //depot/dev/client3/rdock/2013.1/src/exe/rbdock.cxx#4 $)

>  <Rbt.Library>
libRbt.so (2013.1, Build901 2013/11/27)

>  <Rbt.Parameter_File>
/export/apps/rDock/src/rDock_2013.1_src/data/scripts/dock_solv.prm

>  <Rbt.Receptor>
prm/pocket_docking_4.prm

>  <SCORE>
-8.7852

>  <SCORE.INTER>
-5.74029

>  <SCORE.INTER.CONST>
1

>  <SCORE.INTER.POLAR>
0

>  <SCORE.INTER.ROT>
7

>  <SCORE.INTER.SOLV>
10.6733

>  <SCORE.INTER.VDW>
-15.6513

>  <SCORE.INTER.norm>
-0.212603

>  <SCORE.INTRA>
-3.05031

>  <SCORE.INTRA.DIHEDRAL>
-5.27289

>  <SCORE.INTRA.DIHEDRAL.0>
10.7382

>  <SCORE.INTRA.POLAR>
0

>  <SCORE.INTRA.POLAR.0>
0

>  <SCORE.INTRA.REPUL>
0

>  <SCORE.INTRA.REPUL.0>
0

>  <SCORE.INTRA.SOLV>
-0.46411

>  <SCORE.INTRA.SOLV.lig_0>
-49.2501

>  <SCORE.INTRA.VDW>
-0.181811

>  <SCORE.INTRA.VDW.0>
-1.75368

>  <SCORE.INTRA.norm>
-0.112974

>  <SCORE.RESTR>
0.0053992

>  <SCORE.RESTR.CAVITY>
0.0053992

>  <SCORE.RESTR.norm>
0.00019997

>  <SCORE.SYSTEM>
0

>  <SCORE.SYSTEM.CONST>
0

>  <SCORE.SYSTEM.DIHEDRAL>
0

>  <SCORE.SYSTEM.SOLV>
0

>  <SCORE.SYSTEM.norm>
0

>  <SCORE.heavy>
27

>  <SCORE.norm>
-0.325378

>  <RMSD>
5.391

$$$$
ligand
 OpenBabel11021811463D
libRbt.so/2013.1/901 2013/11/27
 27 29  0  0  0  0  0  0  0  0999 V2000
   39.8386   16.7071   75.2912 N   0  0  0  0  0  0  0  0  0  0  0  0
   38.8947   16.2176   76.3110 C   0  0  2  0  0  0  0  0  0  0  0  0
   37.7409   15.4939   75.6484 C   0  0  0  0  0  0  0  0  0  0  0  0
   37.2400   14.5021   76.1880 O   0  0  0  0  0  0  0  0  0  0  0  0
   38.3479   17.4051   77.0967 C   0  0  0  0  0  0  0  0  0  0  0  0
   37.7211   18.4165   76.1610 C   0  0  0  0  0  0  0  0  0  0  0  0
   35.9546   18.4708   76.5101 S   0  0  2  0  0  0  0  0  0  0  0  0
   35.4436   19.5710   75.1610 C   0  0  0  0  0  0  0  0  0  0  0  0
   35.9240   19.6326   77.9176 C   0  0  0  0  0  0  0  0  0  0  0  0
   34.6251   19.4301   78.6930 C   0  0  1  0  0  0  0  0  0  0  0  0
   34.5966   20.3751   79.7372 O   0  0  0  0  0  0  0  0  0  0  0  0
   33.3985   19.7226   77.8221 C   0  0  1  0  0  0  0  0  0  0  0  0
   32.7992   18.6768   77.0415 O   0  0  0  0  0  0  0  0  0  0  0  0
   32.4282   20.4647   78.8000 C   0  0  1  0  0  0  0  0  0  0  0  0
   31.1245   19.8702   78.6793 O   0  0  0  0  0  0  0  0  0  0  0  0
   33.2429   20.5066   80.1413 C   0  0  2  0  0  0  0  0  0  0  0  0
   37.2622   15.9360   74.6150 O   0  0  0  0  0  0  0  0  0  0  0  0
   32.1749   22.7541   84.7143 N   0  0  0  0  0  0  0  0  0  0  0  0
   32.1635   21.4534   84.4015 C   0  0  0  0  0  0  0  0  0  0  0  0
   32.4443   21.0303   83.1722 N   0  0  0  0  0  0  0  0  0  0  0  0
   32.7749   21.8939   82.1950 C   0  0  0  0  0  0  0  0  0  0  0  0
   32.8167   23.2854   82.4785 C   0  0  0  0  0  0  0  0  0  0  0  0
   32.4964   23.6954   83.8066 C   0  0  0  0  0  0  0  0  0  0  0  0
   32.5229   25.0304   84.1641 N   0  0  0  0  0  0  0  0  0  0  0  0
   33.1786   23.9165   81.3378 N   0  0  0  0  0  0  0  0  0  0  0  0
   33.3598   23.0330   80.3994 C   0  0  0  0  0  0  0  0  0  0  0  0
   33.1219   21.7685   80.8795 N   0  0  0  0  0  0  0  0  0  0  0  0
  2  1  1  6  0  0  0
  2  3  1  0  0  0  0
  2  5  1  0  0  0  0
  3  4  1  0  0  0  0
  3 17  1  0  0  0  0
  5  6  1  0  0  0  0
  7  6  1  6  0  0  0
  7  8  1  0  0  0  0
  7  9  1  0  0  0  0
 10  9  1  6  0  0  0
 10 11  1  0  0  0  0
 10 12  1  0  0  0  0
 11 16  1  0  0  0  0
 12 13  1  1  0  0  0
 12 14  1  0  0  0  0
 14 15  1  1  0  0  0
 14 16  1  0  0  0  0
 16 27  1  6  0  0  0
 18 19  2  0  0  0  0
 18 23  1  0  0  0  0
 19 20  1  0  0  0  0
 20 21  2  0  0  0  0
 21 22  1  0  0  0  0
 21 27  1  0  0  0  0
 22 23  2  0  0  0  0
 22 25  1  0  0  0  0
 23 24  1  0  0  0  0
 25 26  2  0  0  0  0
 26 27  1  0  0  0  0
M  END
>  <CHROM.1>
143.90446373,55.65596863,114.34006941,-173.68972068,-159.13228530,-177.45946919
-116.79248228,34.67816894,19.81101607,78.98999151,-1.04843161,-0.28977599
1.02410694

>  <Name>
ligand

>  <RI>
0

>  <Rbt.Current_Directory>
/home/itssahil/PROJECTS/Mol_Feturizer/New_Systems/rnas/2QWY

>  <Rbt.Executable>
rbdock ($Id: //depot/dev/client3/rdock/2013.1/src/exe/rbdock.cxx#4 $)

>  <Rbt.Library>
libRbt.so (2013.1, Build901 2013/11/27)

>  <Rbt.Parameter_File>
/export/apps/rDock/src/rDock_2013.1_src/data/scripts/dock_solv.prm

>  <Rbt.Receptor>
prm/pocket_docking_6.prm

>  <SCORE>
-8.79792

>  <SCORE.INTER>
-8.88321

>  <SCORE.INTER.CONST>
1

>  <SCORE.INTER.POLAR>
0

>  <SCORE.INTER.ROT>
7

>  <SCORE.INTER.SOLV>
8.291

>  <SCORE.INTER.VDW>
-16.9525

>  <SCORE.INTER.norm>
-0.329008

>  <SCORE.INTRA>
-0.0033662

>  <SCORE.INTRA.DIHEDRAL>
0.627112

>  <SCORE.INTRA.DIHEDRAL.0>
10.7382

>  <SCORE.INTRA.POLAR>
0

>  <SCORE.INTRA.POLAR.0>
0

>  <SCORE.INTRA.REPUL>
0

>  <SCORE.INTRA.REPUL.0>
0

>  <SCORE.INTRA.SOLV>
-0.0261335

>  <SCORE.INTRA.SOLV.lig_0>
-49.2501

>  <SCORE.INTRA.VDW>
-0.303856

>  <SCORE.INTRA.VDW.0>
-1.75368

>  <SCORE.INTRA.norm>
-0.000124674

>  <SCORE.RESTR>
0.0886495

>  <SCORE.RESTR.CAVITY>
0.0886495

>  <SCORE.RESTR.norm>
0.00328332

>  <SCORE.SYSTEM>
0

>  <SCORE.SYSTEM.CONST>
0

>  <SCORE.SYSTEM.DIHEDRAL>
0

>  <SCORE.SYSTEM.SOLV>
0

>  <SCORE.SYSTEM.norm>
0

>  <SCORE.heavy>
27

>  <SCORE.norm>
-0.325849

>  <RMSD>
5.412

$$$$
ligand
 OpenBabel11021811463D
libRbt.so/2013.1/901 2013/11/27
 27 29  0  0  0  0  0  0  0  0999 V2000
   38.1365   13.9940   70.6990 N   0  0  0  0  0  0  0  0  0  0  0  0
   37.2033   14.7803   71.5247 C   0  0  2  0  0  0  0  0  0  0  0  0
   36.5285   15.8417   70.6809 C   0  0  0  0  0  0  0  0  0  0  0  0
   37.1576   16.8439   70.3264 O   0  0  0  0  0  0  0  0  0  0  0  0
   37.9806   15.4607   72.6468 C   0  0  0  0  0  0  0  0  0  0  0  0
   37.0311   16.0944   73.6409 C   0  0  0  0  0  0  0  0  0  0  0  0
   38.0201   16.8687   74.9323 S   0  0  2  0  0  0  0  0  0  0  0  0
   38.4848   15.3756   75.8522 C   0  0  0  0  0  0  0  0  0  0  0  0
   36.7063   17.5308   76.0126 C   0  0  0  0  0  0  0  0  0  0  0  0
   36.1993   18.8432   75.4210 C   0  0  1  0  0  0  0  0  0  0  0  0
   35.2105   19.3507   76.2864 O   0  0  0  0  0  0  0  0  0  0  0  0
   37.3052   19.9029   75.3722 C   0  0  1  0  0  0  0  0  0  0  0  0
   38.1578   20.0067   74.2213 O   0  0  0  0  0  0  0  0  0  0  0  0
   36.5629   21.2205   75.7735 C   0  0  1  0  0  0  0  0  0  0  0  0
   36.9228   22.2457   74.8317 O   0  0  0  0  0  0  0  0  0  0  0  0
   35.0881   20.7368   76.0095 C   0  0  2  0  0  0  0  0  0  0  0  0
   35.3827   15.6694   70.2935 O   0  0  0  0  0  0  0  0  0  0  0  0
   35.2572   24.5566   79.5428 N   0  0  0  0  0  0  0  0  0  0  0  0
   36.1358   24.2781   78.5732 C   0  0  0  0  0  0  0  0  0  0  0  0
   35.9624   23.2467   77.7515 N   0  0  0  0  0  0  0  0  0  0  0  0
   34.8810   22.4520   77.8471 C   0  0  0  0  0  0  0  0  0  0  0  0
   33.9096   22.7136   78.8502 C   0  0  0  0  0  0  0  0  0  0  0  0
   34.1422   23.8221   79.7171 C   0  0  0  0  0  0  0  0  0  0  0  0
   33.2399   24.1473   80.7125 N   0  0  0  0  0  0  0  0  0  0  0  0
   32.9375   21.7815   78.7200 N   0  0  0  0  0  0  0  0  0  0  0  0
   33.2349   20.9888   77.7315 C   0  0  0  0  0  0  0  0  0  0  0  0
   34.4270   21.3615   77.1604 N   0  0  0  0  0  0  0  0  0  0  0  0
  2  1  1  6  0  0  0
  2  3  1  0  0  0  0
  2  5  1  0  0  0  0
  3  4  1  0  0  0  0
  3 17  1  0  0  0  0
  5  6  1  0  0  0  0
  7  6  1  6  0  0  0
  7  8  1  0  0  0  0
  7  9  1  0  0  0  0
 10  9  1  1  0  0  0
 10 11  1  0  0  0  0
 10 12  1  0  0  0  0
 11 16  1  0  0  0  0
 12 13  1  6  0  0  0
 12 14  1  0  0  0  0
 14 15  1  6  0  0  0
 14 16  1  0  0  0  0
 16 27  1  1  0  0  0
 18 19  2  0  0  0  0
 18 23  1  0  0  0  0
 19 20  1  0  0  0  0
 20 21  2  0  0  0  0
 21 22  1  0  0  0  0
 21 27  1  0  0  0  0
 22 23  2  0  0  0  0
 22 25  1  0  0  0  0
 23 24  1  0  0  0  0
 25 26  2  0  0  0  0
 26 27  1  0  0  0  0
M  END
>  <CHROM.1>
-74.07175033,-170.96008408,179.80473850,-76.59364292,-80.71688767,-178.62531066
128.03210569,36.15266106,19.41752312,75.46537401,-0.99632564,-1.04980277
1.23904120

>  <Name>
ligand

>  <RI>
0

>  <Rbt.Current_Directory>
/home/itssahil/PROJECTS/Mol_Feturizer/New_Systems/rnas/2QWY

>  <Rbt.Executable>
rbdock ($Id: //depot/dev/client3/rdock/2013.1/src/exe/rbdock.cxx#4 $)

>  <Rbt.Library>
libRbt.so (2013.1, Build901 2013/11/27)

>  <Rbt.Parameter_File>
/export/apps/rDock/src/rDock_2013.1_src/data/scripts/dock_solv.prm

>  <Rbt.Receptor>
prm/pocket_docking_5.prm

>  <SCORE>
-10.3145

>  <SCORE.INTER>
-6.82539

>  <SCORE.INTER.CONST>
1

>  <SCORE.INTER.POLAR>
0

>  <SCORE.INTER.ROT>
7

>  <SCORE.INTER.SOLV>
5.01941

>  <SCORE.INTER.VDW>
-14.4901

>  <SCORE.INTER.norm>
-0.252792

>  <SCORE.INTRA>
-3.50503

>  <SCORE.INTRA.DIHEDRAL>
-6.78299

>  <SCORE.INTRA.DIHEDRAL.0>
10.7382

>  <SCORE.INTRA.POLAR>
0

>  <SCORE.INTRA.POLAR.0>
0

>  <SCORE.INTRA.REPUL>
0

>  <SCORE.INTRA.REPUL.0>
0

>  <SCORE.INTRA.SOLV>
-0.922015

>  <SCORE.INTRA.SOLV.lig_0>
-49.2501

>  <SCORE.INTRA.VDW>
0.347476

>  <SCORE.INTRA.VDW.0>
-1.75368

>  <SCORE.INTRA.norm>
-0.129816

>  <SCORE.RESTR>
0.0159388

>  <SCORE.RESTR.CAVITY>
0.0159388

>  <SCORE.RESTR.norm>
0.000590326

>  <SCORE.SYSTEM>
0

>  <SCORE.SYSTEM.CONST>
0

>  <SCORE.SYSTEM.DIHEDRAL>
0

>  <SCORE.SYSTEM.SOLV>
0

>  <SCORE.SYSTEM.norm>
0

>  <SCORE.heavy>
27

>  <SCORE.norm>
-0.382018

>  <RMSD>
5.460

$$$$
ligand
 OpenBabel11021811463D
libRbt.so/2013.1/901 2013/11/27
 27 29  0  0  0  0  0  0  0  0999 V2000
   35.9435   14.6336   69.0031 N   0  0  0  0  0  0  0  0  0  0  0  0
   36.4711   15.9502   68.6045 C   0  0  2  0  0  0  0  0  0  0  0  0
   37.4024   15.8013   67.4195 C   0  0  0  0  0  0  0  0  0  0  0  0
   38.2312   14.8857   67.3941 O   0  0  0  0  0  0  0  0  0  0  0  0
   37.2477   16.5514   69.7715 C   0  0  0  0  0  0  0  0  0  0  0  0
   36.3023   16.9765   70.8746 C   0  0  0  0  0  0  0  0  0  0  0  0
   37.2647   17.8564   72.1176 S   0  0  2  0  0  0  0  0  0  0  0  0
   37.9084   16.4249   73.0277 C   0  0  0  0  0  0  0  0  0  0  0  0
   35.9389   18.4013   73.2477 C   0  0  0  0  0  0  0  0  0  0  0  0
   36.3054   19.7725   73.8091 C   0  0  1  0  0  0  0  0  0  0  0  0
   35.2404   20.2009   74.6255 O   0  0  0  0  0  0  0  0  0  0  0  0
   37.5351   19.6970   74.7205 C   0  0  1  0  0  0  0  0  0  0  0  0
   38.8532   19.8502   74.1716 O   0  0  0  0  0  0  0  0  0  0  0  0
   37.1812   20.6759   75.8888 C   0  0  1  0  0  0  0  0  0  0  0  0
   38.3111   21.5360   76.1146 O   0  0  0  0  0  0  0  0  0  0  0  0
   35.7562   21.2005   75.4902 C   0  0  2  0  0  0  0  0  0  0  0  0
   37.2835   16.5461   66.4584 O   0  0  0  0  0  0  0  0  0  0  0  0
   33.9808   24.2863   79.2889 N   0  0  0  0  0  0  0  0  0  0  0  0
   34.9354   24.5395   78.3865 C   0  0  0  0  0  0  0  0  0  0  0  0
   35.2950   23.6345   77.4805 N   0  0  0  0  0  0  0  0  0  0  0  0
   34.6957   22.4315   77.4193 C   0  0  0  0  0  0  0  0  0  0  0  0
   33.6650   22.1178   78.3452 C   0  0  0  0  0  0  0  0  0  0  0  0
   33.3202   23.1130   79.3070 C   0  0  0  0  0  0  0  0  0  0  0  0
   32.3220   22.8877   80.2363 N   0  0  0  0  0  0  0  0  0  0  0  0
   33.2367   20.8664   78.0600 N   0  0  0  0  0  0  0  0  0  0  0  0
   33.9126   20.4034   77.0487 C   0  0  0  0  0  0  0  0  0  0  0  0
   34.8269   21.3330   76.6175 N   0  0  0  0  0  0  0  0  0  0  0  0
  2  1  1  1  0  0  0
  2  3  1  0  0  0  0
  2  5  1  0  0  0  0
  3  4  1  0  0  0  0
  3 17  1  0  0  0  0
  5  6  1  0  0  0  0
  7  6  1  6  0  0  0
  7  8  1  0  0  0  0
  7  9  1  0  0  0  0
 10  9  1  1  0  0  0
 10 11  1  0  0  0  0
 10 12  1  0  0  0  0
 11 16  1  0  0  0  0
 12 13  1  6  0  0  0
 12 14  1  0  0  0  0
 14 15  1  6  0  0  0
 14 16  1  0  0  0  0
 16 27  1  1  0  0  0
 18 19  2  0  0  0  0
 18 23  1  0  0  0  0
 19 20  1  0  0  0  0
 20 21  2  0  0  0  0
 21 22  1  0  0  0  0
 21 27  1  0  0  0  0
 22 23  2  0  0  0  0
 22 25  1  0  0  0  0
 23 24  1  0  0  0  0
 25 26  2  0  0  0  0
 26 27  1  0  0  0  0
M  END
>  <CHROM.1>
-43.51806086,-71.24341694,-173.07983347,-82.44531870,-144.90001515,177.18587936
-157.13973057,36.04256310,19.55278996,74.03378371,1.31355541,-0.20460324
-2.24027844

>  <Name>
ligand

>  <RI>
0

>  <Rbt.Current_Directory>
/home/itssahil/PROJECTS/Mol_Feturizer/New_Systems/rnas/2QWY

>  <Rbt.Executable>
rbdock ($Id: //depot/dev/client3/rdock/2013.1/src/exe/rbdock.cxx#4 $)

>  <Rbt.Library>
libRbt.so (2013.1, Build901 2013/11/27)

>  <Rbt.Parameter_File>
/export/apps/rDock/src/rDock_2013.1_src/data/scripts/dock_solv.prm

>  <Rbt.Receptor>
prm/pocket_docking_5.prm

>  <SCORE>
-10.374

>  <SCORE.INTER>
-8.32381

>  <SCORE.INTER.CONST>
1

>  <SCORE.INTER.POLAR>
0

>  <SCORE.INTER.ROT>
7

>  <SCORE.INTER.SOLV>
7.95437

>  <SCORE.INTER.VDW>
-16.4673

>  <SCORE.INTER.norm>
-0.308289

>  <SCORE.INTRA>
-2.05607

>  <SCORE.INTRA.DIHEDRAL>
-2.5782

>  <SCORE.INTRA.DIHEDRAL.0>
10.7382

>  <SCORE.INTRA.POLAR>
0

>  <SCORE.INTRA.POLAR.0>
0

>  <SCORE.INTRA.REPUL>
0

>  <SCORE.INTRA.REPUL.0>
0

>  <SCORE.INTRA.SOLV>
-0.383687

>  <SCORE.INTRA.SOLV.lig_0>
-49.2501

>  <SCORE.INTRA.VDW>
-0.575126

>  <SCORE.INTRA.VDW.0>
-1.75368

>  <SCORE.INTRA.norm>
-0.0761508

>  <SCORE.RESTR>
0.00586843

>  <SCORE.RESTR.CAVITY>
0.00586843

>  <SCORE.RESTR.norm>
0.000217349

>  <SCORE.SYSTEM>
0

>  <SCORE.SYSTEM.CONST>
0

>  <SCORE.SYSTEM.DIHEDRAL>
0

>  <SCORE.SYSTEM.SOLV>
0

>  <SCORE.SYSTEM.norm>
0

>  <SCORE.heavy>
27

>  <SCORE.norm>
-0.384223

>  <RMSD>
5.477

$$$$
ligand
 OpenBabel11021811463D
libRbt.so/2013.1/901 2013/11/27
 27 29  0  0  0  0  0  0  0  0999 V2000
   39.8218   21.3683   80.1105 N   0  0  0  0  0  0  0  0  0  0  0  0
   38.7039   20.6127   80.7021 C   0  0  2  0  0  0  0  0  0  0  0  0
   39.2203   19.6639   81.7637 C   0  0  0  0  0  0  0  0  0  0  0  0
   38.7109   19.6567   82.8890 O   0  0  0  0  0  0  0  0  0  0  0  0
   38.0138   19.8034   79.6088 C   0  0  0  0  0  0  0  0  0  0  0  0
   36.7342   19.1874   80.1327 C   0  0  0  0  0  0  0  0  0  0  0  0
   35.5963   20.5280   80.5242 S   0  0  2  0  0  0  0  0  0  0  0  0
   35.6478   20.4099   82.3339 C   0  0  0  0  0  0  0  0  0  0  0  0
   33.9946   19.7220   80.1828 C   0  0  0  0  0  0  0  0  0  0  0  0
   33.2980   20.4739   79.0519 C   0  0  1  0  0  0  0  0  0  0  0  0
   32.2190   19.6828   78.6111 O   0  0  0  0  0  0  0  0  0  0  0  0
   32.6862   21.7899   79.5442 C   0  0  1  0  0  0  0  0  0  0  0  0
   33.4616   22.9985   79.5298 O   0  0  0  0  0  0  0  0  0  0  0  0
   31.3220   21.8633   78.7813 C   0  0  1  0  0  0  0  0  0  0  0  0
   31.1927   23.1783   78.2141 O   0  0  0  0  0  0  0  0  0  0  0  0
   31.3235   20.5456   77.9279 C   0  0  2  0  0  0  0  0  0  0  0  0
   40.0940   18.8577   81.4821 O   0  0  0  0  0  0  0  0  0  0  0  0
   26.1864   21.1126   77.3010 N   0  0  0  0  0  0  0  0  0  0  0  0
   27.1338   22.0570   77.3171 C   0  0  0  0  0  0  0  0  0  0  0  0
   28.4150   21.7550   77.5079 N   0  0  0  0  0  0  0  0  0  0  0  0
   28.8154   20.4808   77.6700 C   0  0  0  0  0  0  0  0  0  0  0  0
   27.8508   19.4381   77.6459 C   0  0  0  0  0  0  0  0  0  0  0  0
   26.4872   19.8086   77.4511 C   0  0  0  0  0  0  0  0  0  0  0  0
   25.4903   18.8521   77.4067 N   0  0  0  0  0  0  0  0  0  0  0  0
   28.5152   18.2729   77.8230 N   0  0  0  0  0  0  0  0  0  0  0  0
   29.7868   18.5205   77.9481 C   0  0  0  0  0  0  0  0  0  0  0  0
   30.0228   19.8706   77.8612 N   0  0  0  0  0  0  0  0  0  0  0  0
  2  1  1  6  0  0  0
  2  3  1  0  0  0  0
  2  5  1  0  0  0  0
  3  4  1  0  0  0  0
  3 17  1  0  0  0  0
  5  6  1  0  0  0  0
  7  6  1  6  0  0  0
  7  8  1  0  0  0  0
  7  9  1  0  0  0  0
 10  9  1  1  0  0  0
 10 11  1  0  0  0  0
 10 12  1  0  0  0  0
 11 16  1  0  0  0  0
 12 13  1  6  0  0  0
 12 14  1  0  0  0  0
 14 15  1  6  0  0  0
 14 16  1  0  0  0  0
 16 27  1  1  0  0  0
 18 19  2  0  0  0  0
 18 23  1  0  0  0  0
 19 20  1  0  0  0  0
 20 21  2  0  0  0  0
 21 22  1  0  0  0  0
 21 27  1  0  0  0  0
 22 23  2  0  0  0  0
 22 25  1  0  0  0  0
 23 24  1  0  0  0  0
 25 26  2  0  0  0  0
 26 27  1  0  0  0  0
M  END
>  <CHROM.1>
128.81489089,-171.12241141,65.33210404,-108.69635608,-117.82655672,167.55176463
158.62433739,32.90381230,20.41166133,79.28266859,-0.05641466,-0.32177822
-0.10195398

>  <Name>
ligand

>  <RI>
0

>  <Rbt.Current_Directory>
/home/itssahil/PROJECTS/Mol_Feturizer/New_Systems/rnas/2QWY

>  <Rbt.Executable>
rbdock ($Id: //depot/dev/client3/rdock/2013.1/src/exe/rbdock.cxx#4 $)

>  <Rbt.Library>
libRbt.so (2013.1, Build901 2013/11/27)

>  <Rbt.Parameter_File>
/export/apps/rDock/src/rDock_2013.1_src/data/scripts/dock_solv.prm

>  <Rbt.Receptor>
prm/pocket_docking_6.prm

>  <SCORE>
-26.6204

>  <SCORE.INTER>
-25.6316

>  <SCORE.INTER.CONST>
1

>  <SCORE.INTER.POLAR>
0

>  <SCORE.INTER.ROT>
7

>  <SCORE.INTER.SOLV>
10.2763

>  <SCORE.INTER.VDW>
-28.7799

>  <SCORE.INTER.norm>
-0.94932

>  <SCORE.INTRA>
-0.988726

>  <SCORE.INTRA.DIHEDRAL>
0.380638

>  <SCORE.INTRA.DIHEDRAL.0>
10.7382

>  <SCORE.INTRA.POLAR>
0

>  <SCORE.INTRA.POLAR.0>
0

>  <SCORE.INTRA.REPUL>
0

>  <SCORE.INTRA.REPUL.0>
0

>  <SCORE.INTRA.SOLV>
-0.733396

>  <SCORE.INTRA.SOLV.lig_0>
-49.2501

>  <SCORE.INTRA.VDW>
-0.812347

>  <SCORE.INTRA.VDW.0>
-1.75368

>  <SCORE.INTRA.norm>
-0.0366195

>  <SCORE.RESTR>
0

>  <SCORE.RESTR.CAVITY>
0

>  <SCORE.RESTR.norm>
0

>  <SCORE.SYSTEM>
0

>  <SCORE.SYSTEM.CONST>
0

>  <SCORE.SYSTEM.DIHEDRAL>
0

>  <SCORE.SYSTEM.SOLV>
0

>  <SCORE.SYSTEM.norm>
0

>  <SCORE.heavy>
27

>  <SCORE.norm>
-0.98594

>  <RMSD>
5.497

$$$$
ligand
 OpenBabel11021811463D
libRbt.so/2013.1/901 2013/11/27
 27 29  0  0  0  0  0  0  0  0999 V2000
   37.4196   14.9431   69.7747 N   0  0  0  0  0  0  0  0  0  0  0  0
   37.1703   15.9410   70.8296 C   0  0  2  0  0  0  0  0  0  0  0  0
   36.4545   17.1435   70.2506 C   0  0  0  0  0  0  0  0  0  0  0  0
   36.5907   17.4300   69.0567 O   0  0  0  0  0  0  0  0  0  0  0  0
   38.5043   16.3936   71.4145 C   0  0  0  0  0  0  0  0  0  0  0  0
   38.3261   16.8581   72.8441 C   0  0  0  0  0  0  0  0  0  0  0  0
   37.8669   18.5997   72.8054 S   0  0  2  0  0  0  0  0  0  0  0  0
   39.4083   19.2730   72.1253 C   0  0  0  0  0  0  0  0  0  0  0  0
   38.0595   19.0390   74.5665 C   0  0  0  0  0  0  0  0  0  0  0  0
   36.7896   18.6401   75.3135 C   0  0  1  0  0  0  0  0  0  0  0  0
   37.0874   18.6273   76.6902 O   0  0  0  0  0  0  0  0  0  0  0  0
   35.6784   19.6792   75.1291 C   0  0  1  0  0  0  0  0  0  0  0  0
   34.7620   19.5712   74.0289 O   0  0  0  0  0  0  0  0  0  0  0  0
   35.0155   19.7560   76.5444 C   0  0  1  0  0  0  0  0  0  0  0  0
   33.5894   19.6744   76.3795 O   0  0  0  0  0  0  0  0  0  0  0  0
   35.8532   18.7265   77.3829 C   0  0  2  0  0  0  0  0  0  0  0  0
   35.6873   17.7867   70.9508 O   0  0  0  0  0  0  0  0  0  0  0  0
   33.8876   20.4085   81.9008 N   0  0  0  0  0  0  0  0  0  0  0  0
   33.2387   20.1003   80.7722 C   0  0  0  0  0  0  0  0  0  0  0  0
   33.8878   19.6978   79.6834 N   0  0  0  0  0  0  0  0  0  0  0  0
   35.2262   19.5612   79.6789 C   0  0  0  0  0  0  0  0  0  0  0  0
   35.9619   19.8610   80.8566 C   0  0  0  0  0  0  0  0  0  0  0  0
   35.2264   20.3011   81.9968 C   0  0  0  0  0  0  0  0  0  0  0  0
   35.8683   20.6040   83.1830 N   0  0  0  0  0  0  0  0  0  0  0  0
   37.2674   19.6346   80.5826 N   0  0  0  0  0  0  0  0  0  0  0  0
   37.3813   19.2251   79.3525 C   0  0  0  0  0  0  0  0  0  0  0  0
   36.1478   19.1638   78.7518 N   0  0  0  0  0  0  0  0  0  0  0  0
  2  1  1  6  0  0  0
  2  3  1  0  0  0  0
  2  5  1  0  0  0  0
  3  4  1  0  0  0  0
  3 17  1  0  0  0  0
  5  6  1  0  0  0  0
  7  6  1  1  0  0  0
  7  8  1  0  0  0  0
  7  9  1  0  0  0  0
 10  9  1  6  0  0  0
 10 11  1  0  0  0  0
 10 12  1  0  0  0  0
 11 16  1  0  0  0  0
 12 13  1  6  0  0  0
 12 14  1  0  0  0  0
 14 15  1  6  0  0  0
 14 16  1  0  0  0  0
 16 27  1  1  0  0  0
 18 19  2  0  0  0  0
 18 23  1  0  0  0  0
 19 20  1  0  0  0  0
 20 21  2  0  0  0  0
 21 22  1  0  0  0  0
 21 27  1  0  0  0  0
 22 23  2  0  0  0  0
 22 25  1  0  0  0  0
 23 24  1  0  0  0  0
 25 26  2  0  0  0  0
 26 27  1  0  0  0  0
M  END
>  <CHROM.1>
-26.63985801,-153.10441282,-86.68609093,-65.77157954,-83.16951470,163.59151025
170.07478063,36.32364225,18.73851106,75.73179475,-1.35736605,-0.16524521
1.33065830

>  <Name>
ligand

>  <RI>
0

>  <Rbt.Current_Directory>
/home/itssahil/PROJECTS/Mol_Feturizer/New_Systems/rnas/2QWY

>  <Rbt.Executable>
rbdock ($Id: //depot/dev/client3/rdock/2013.1/src/exe/rbdock.cxx#4 $)

>  <Rbt.Library>
libRbt.so (2013.1, Build901 2013/11/27)

>  <Rbt.Parameter_File>
/export/apps/rDock/src/rDock_2013.1_src/data/scripts/dock_solv.prm

>  <Rbt.Receptor>
prm/pocket_docking_4.prm

>  <SCORE>
-5.70567

>  <SCORE.INTER>
-3.97122

>  <SCORE.INTER.CONST>
1

>  <SCORE.INTER.POLAR>
0

>  <SCORE.INTER.ROT>
7

>  <SCORE.INTER.SOLV>
14.9107

>  <SCORE.INTER.VDW>
-15.8844

>  <SCORE.INTER.norm>
-0.147082

>  <SCORE.INTRA>
-1.73444

>  <SCORE.INTRA.DIHEDRAL>
-1.2293

>  <SCORE.INTRA.DIHEDRAL.0>
10.7382

>  <SCORE.INTRA.POLAR>
0

>  <SCORE.INTRA.POLAR.0>
0

>  <SCORE.INTRA.REPUL>
0

>  <SCORE.INTRA.REPUL.0>
0

>  <SCORE.INTRA.SOLV>
-0.870808

>  <SCORE.INTRA.SOLV.lig_0>
-49.2501

>  <SCORE.INTRA.VDW>
-0.684391

>  <SCORE.INTRA.VDW.0>
-1.75368

>  <SCORE.INTRA.norm>
-0.0642386

>  <SCORE.RESTR>
0

>  <SCORE.RESTR.CAVITY>
0

>  <SCORE.RESTR.norm>
0

>  <SCORE.SYSTEM>
0

>  <SCORE.SYSTEM.CONST>
0

>  <SCORE.SYSTEM.DIHEDRAL>
0

>  <SCORE.SYSTEM.SOLV>
0

>  <SCORE.SYSTEM.norm>
0

>  <SCORE.heavy>
27

>  <SCORE.norm>
-0.211321

>  <RMSD>
5.498

$$$$
ligand
 OpenBabel11021811463D
libRbt.so/2013.1/901 2013/11/27
 27 29  0  0  0  0  0  0  0  0999 V2000
   34.3075   19.7079   80.5719 N   0  0  0  0  0  0  0  0  0  0  0  0
   35.7466   19.6168   80.8742 C   0  0  2  0  0  0  0  0  0  0  0  0
   36.2205   20.8913   81.5413 C   0  0  0  0  0  0  0  0  0  0  0  0
   37.3816   20.9801   81.9532 O   0  0  0  0  0  0  0  0  0  0  0  0
   36.5190   19.4226   79.5735 C   0  0  0  0  0  0  0  0  0  0  0  0
   36.3564   20.6300   78.6750 C   0  0  0  0  0  0  0  0  0  0  0  0
   35.4151   20.1176   77.2270 S   0  0  2  0  0  0  0  0  0  0  0  0
   36.3837   20.9748   75.9547 C   0  0  0  0  0  0  0  0  0  0  0  0
   33.9719   21.2281   77.3521 C   0  0  0  0  0  0  0  0  0  0  0  0
   32.9010   20.5475   78.2004 C   0  0  1  0  0  0  0  0  0  0  0  0
   31.7360   21.3366   78.1354 O   0  0  0  0  0  0  0  0  0  0  0  0
   32.5182   19.1775   77.6304 C   0  0  1  0  0  0  0  0  0  0  0  0
   33.2307   17.9992   78.0382 O   0  0  0  0  0  0  0  0  0  0  0  0
   30.9673   19.1220   77.8306 C   0  0  1  0  0  0  0  0  0  0  0  0
   30.6336   17.8533   78.4194 O   0  0  0  0  0  0  0  0  0  0  0  0
   30.6490   20.5033   78.5054 C   0  0  2  0  0  0  0  0  0  0  0  0
   35.4722   21.8549   81.6070 O   0  0  0  0  0  0  0  0  0  0  0  0
   25.9095   19.7677   76.4804 N   0  0  0  0  0  0  0  0  0  0  0  0
   26.8309   18.8521   76.8004 C   0  0  0  0  0  0  0  0  0  0  0  0
   28.0148   19.1996   77.2971 N   0  0  0  0  0  0  0  0  0  0  0  0
   28.3271   20.4890   77.5206 C   0  0  0  0  0  0  0  0  0  0  0  0
   27.3779   21.5001   77.2122 C   0  0  0  0  0  0  0  0  0  0  0  0
   26.1263   21.0832   76.6700 C   0  0  0  0  0  0  0  0  0  0  0  0
   25.1469   22.0054   76.3521 N   0  0  0  0  0  0  0  0  0  0  0  0
   27.9380   22.6883   77.5363 N   0  0  0  0  0  0  0  0  0  0  0  0
   29.1319   22.4827   78.0120 C   0  0  0  0  0  0  0  0  0  0  0  0
   29.4189   21.1397   78.0220 N   0  0  0  0  0  0  0  0  0  0  0  0
  2  1  1  6  0  0  0
  2  3  1  0  0  0  0
  2  5  1  0  0  0  0
  3  4  1  0  0  0  0
  3 17  1  0  0  0  0
  5  6  1  0  0  0  0
  7  6  1  1  0  0  0
  7  8  1  0  0  0  0
  7  9  1  0  0  0  0
 10  9  1  6  0  0  0
 10 11  1  0  0  0  0
 10 12  1  0  0  0  0
 11 16  1  0  0  0  0
 12 13  1  1  0  0  0
 12 14  1  0  0  0  0
 14 15  1  1  0  0  0
 14 16  1  0  0  0  0
 16 27  1  6  0  0  0
 18 19  2  0  0  0  0
 18 23  1  0  0  0  0
 19 20  1  0  0  0  0
 20 21  2  0  0  0  0
 21 22  1  0  0  0  0
 21 27  1  0  0  0  0
 22 23  2  0  0  0  0
 22 25  1  0  0  0  0
 23 24  1  0  0  0  0
 25 26  2  0  0  0  0
 26 27  1  0  0  0  0
M  END
>  <CHROM.1>
175.31911458,63.79945437,-113.09769530,-137.12589742,-89.20895320,-172.24836696
143.24993381,31.96200048,20.38455443,78.28090370,0.21721068,-0.18807856,0.98517392

>  <Name>
ligand

>  <RI>
0

>  <Rbt.Current_Directory>
/home/itssahil/PROJECTS/Mol_Feturizer/New_Systems/rnas/2QWY

>  <Rbt.Executable>
rbdock ($Id: //depot/dev/client3/rdock/2013.1/src/exe/rbdock.cxx#4 $)

>  <Rbt.Library>
libRbt.so (2013.1, Build901 2013/11/27)

>  <Rbt.Parameter_File>
/export/apps/rDock/src/rDock_2013.1_src/data/scripts/dock_solv.prm

>  <Rbt.Receptor>
prm/pocket_docking_2.prm

>  <SCORE>
5.95217

>  <SCORE.INTER>
-0.565289

>  <SCORE.INTER.CONST>
1

>  <SCORE.INTER.POLAR>
0

>  <SCORE.INTER.ROT>
7

>  <SCORE.INTER.SOLV>
11.4153

>  <SCORE.INTER.VDW>
-12.4486

>  <SCORE.INTER.norm>
-0.0209366

>  <SCORE.INTRA>
3.38435

>  <SCORE.INTRA.DIHEDRAL>
3.13491

>  <SCORE.INTRA.DIHEDRAL.0>
10.7382

>  <SCORE.INTRA.POLAR>
0

>  <SCORE.INTRA.POLAR.0>
0

>  <SCORE.INTRA.REPUL>
0

>  <SCORE.INTRA.REPUL.0>
0

>  <SCORE.INTRA.SOLV>
4.52065

>  <SCORE.INTRA.SOLV.lig_0>
-49.2501

>  <SCORE.INTRA.VDW>
-0.443433

>  <SCORE.INTRA.VDW.0>
-1.75368

>  <SCORE.INTRA.norm>
0.125346

>  <SCORE.RESTR>
3.13311

>  <SCORE.RESTR.CAVITY>
3.13311

>  <SCORE.RESTR.norm>
0.116041

>  <SCORE.SYSTEM>
0

>  <SCORE.SYSTEM.CONST>
0

>  <SCORE.SYSTEM.DIHEDRAL>
0

>  <SCORE.SYSTEM.SOLV>
0

>  <SCORE.SYSTEM.norm>
0

>  <SCORE.heavy>
27

>  <SCORE.norm>
0.220451

>  <RMSD>
5.502

$$$$
ligand
 OpenBabel11021811463D
libRbt.so/2013.1/901 2013/11/27
 27 29  0  0  0  0  0  0  0  0999 V2000
   35.7111   15.0008   69.5052 N   0  0  0  0  0  0  0  0  0  0  0  0
   35.9824   16.1874   70.3353 C   0  0  2  0  0  0  0  0  0  0  0  0
   36.5461   17.3034   69.4805 C   0  0  0  0  0  0  0  0  0  0  0  0
   36.6135   17.1709   68.2542 O   0  0  0  0  0  0  0  0  0  0  0  0
   37.0026   15.8233   71.4091 C   0  0  0  0  0  0  0  0  0  0  0  0
   36.4962   16.2224   72.7786 C   0  0  0  0  0  0  0  0  0  0  0  0
   36.5358   18.0206   72.8793 S   0  0  2  0  0  0  0  0  0  0  0  0
   38.3188   18.2404   73.1325 C   0  0  0  0  0  0  0  0  0  0  0  0
   35.9233   18.2773   74.5795 C   0  0  0  0  0  0  0  0  0  0  0  0
   35.5899   19.7554   74.7632 C   0  0  1  0  0  0  0  0  0  0  0  0
   34.8489   19.8836   75.9542 O   0  0  0  0  0  0  0  0  0  0  0  0
   36.8553   20.5977   74.9576 C   0  0  1  0  0  0  0  0  0  0  0  0
   37.5367   21.1529   73.8220 O   0  0  0  0  0  0  0  0  0  0  0  0
   36.4377   21.6310   76.0559 C   0  0  1  0  0  0  0  0  0  0  0  0
   36.8425   22.9403   75.6205 O   0  0  0  0  0  0  0  0  0  0  0  0
   34.9485   21.2391   76.3612 C   0  0  2  0  0  0  0  0  0  0  0  0
   36.8677   18.3612   70.0005 O   0  0  0  0  0  0  0  0  0  0  0  0
   36.0404   19.5808   81.1739 N   0  0  0  0  0  0  0  0  0  0  0  0
   36.6407   19.2554   80.0235 C   0  0  0  0  0  0  0  0  0  0  0  0
   36.2319   19.7528   78.8596 N   0  0  0  0  0  0  0  0  0  0  0  0
   35.2093   20.6245   78.7934 C   0  0  0  0  0  0  0  0  0  0  0  0
   34.5471   21.0149   79.9881 C   0  0  0  0  0  0  0  0  0  0  0  0
   35.0105   20.4474   81.2119 C   0  0  0  0  0  0  0  0  0  0  0  0
   34.4244   20.7834   82.4179 N   0  0  0  0  0  0  0  0  0  0  0  0
   33.5767   21.8915   79.6408 N   0  0  0  0  0  0  0  0  0  0  0  0
   33.5981   22.0641   78.3510 C   0  0  0  0  0  0  0  0  0  0  0  0
   34.5891   21.3022   77.7821 N   0  0  0  0  0  0  0  0  0  0  0  0
  2  1  1  6  0  0  0
  2  3  1  0  0  0  0
  2  5  1  0  0  0  0
  3  4  1  0  0  0  0
  3 17  1  0  0  0  0
  5  6  1  0  0  0  0
  7  6  1  1  0  0  0
  7  8  1  0  0  0  0
  7  9  1  0  0  0  0
 10  9  1  1  0  0  0
 10 11  1  0  0  0  0
 10 12  1  0  0  0  0
 11 16  1  0  0  0  0
 12 13  1  6  0  0  0
 12 14  1  0  0  0  0
 14 15  1  6  0  0  0
 14 16  1  0  0  0  0
 16 27  1  1  0  0  0
 18 19  2  0  0  0  0
 18 23  1  0  0  0  0
 19 20  1  0  0  0  0
 20 21  2  0  0  0  0
 21 22  1  0  0  0  0
 21 27  1  0  0  0  0
 22 23  2  0  0  0  0
 22 25  1  0  0  0  0
 23 24  1  0  0  0  0
 25 26  2  0  0  0  0
 26 27  1  0  0  0  0
M  END
>  <CHROM.1>
5.77204996,-128.07408415,-70.91451507,-76.69001755,-167.67139288,167.05620384
58.34570515,35.95767241,19.34343902,75.22505466,0.55559513,-1.38650329,-2.97678052

>  <Name>
ligand

>  <RI>
0

>  <Rbt.Current_Directory>
/home/itssahil/PROJECTS/Mol_Feturizer/New_Systems/rnas/2QWY

>  <Rbt.Executable>
rbdock ($Id: //depot/dev/client3/rdock/2013.1/src/exe/rbdock.cxx#4 $)

>  <Rbt.Library>
libRbt.so (2013.1, Build901 2013/11/27)

>  <Rbt.Parameter_File>
/export/apps/rDock/src/rDock_2013.1_src/data/scripts/dock_solv.prm

>  <Rbt.Receptor>
prm/pocket_docking_3.prm

>  <SCORE>
-6.24429

>  <SCORE.INTER>
-5.46954

>  <SCORE.INTER.CONST>
1

>  <SCORE.INTER.POLAR>
0

>  <SCORE.INTER.ROT>
7

>  <SCORE.INTER.SOLV>
9.34548

>  <SCORE.INTER.VDW>
-15.0282

>  <SCORE.INTER.norm>
-0.202576

>  <SCORE.INTRA>
-0.774743

>  <SCORE.INTRA.DIHEDRAL>
0.479537

>  <SCORE.INTRA.DIHEDRAL.0>
10.7382

>  <SCORE.INTRA.POLAR>
0

>  <SCORE.INTRA.POLAR.0>
0

>  <SCORE.INTRA.REPUL>
0

>  <SCORE.INTRA.REPUL.0>
0

>  <SCORE.INTRA.SOLV>
-0.613493

>  <SCORE.INTRA.SOLV.lig_0>
-49.2501

>  <SCORE.INTRA.VDW>
-0.707765

>  <SCORE.INTRA.VDW.0>
-1.75368

>  <SCORE.INTRA.norm>
-0.0286942

>  <SCORE.RESTR>
0

>  <SCORE.RESTR.CAVITY>
0

>  <SCORE.RESTR.norm>
0

>  <SCORE.SYSTEM>
0

>  <SCORE.SYSTEM.CONST>
0

>  <SCORE.SYSTEM.DIHEDRAL>
0

>  <SCORE.SYSTEM.SOLV>
0

>  <SCORE.SYSTEM.norm>
0

>  <SCORE.heavy>
27

>  <SCORE.norm>
-0.23127

>  <RMSD>
5.503

$$$$
ligand
 OpenBabel11021811463D
libRbt.so/2013.1/901 2013/11/27
 27 29  0  0  0  0  0  0  0  0999 V2000
   37.4215   15.2366   73.5578 N   0  0  0  0  0  0  0  0  0  0  0  0
   38.2386   15.9039   74.5863 C   0  0  2  0  0  0  0  0  0  0  0  0
   38.0071   15.2572   75.9361 C   0  0  0  0  0  0  0  0  0  0  0  0
   38.7903   15.4696   76.8674 O   0  0  0  0  0  0  0  0  0  0  0  0
   37.8381   17.3734   74.6667 C   0  0  0  0  0  0  0  0  0  0  0  0
   38.9325   18.1859   75.3253 C   0  0  0  0  0  0  0  0  0  0  0  0
   38.5185   19.9285   75.1319 S   0  0  2  0  0  0  0  0  0  0  0  0
   39.9965   20.6468   75.9008 C   0  0  0  0  0  0  0  0  0  0  0  0
   37.3056   20.1391   76.4795 C   0  0  0  0  0  0  0  0  0  0  0  0
   36.5121   21.4188   76.2302 C   0  0  1  0  0  0  0  0  0  0  0  0
   35.5095   21.5014   77.2161 O   0  0  0  0  0  0  0  0  0  0  0  0
   37.3853   22.6657   76.4071 C   0  0  1  0  0  0  0  0  0  0  0  0
   38.1153   23.2020   75.2928 O   0  0  0  0  0  0  0  0  0  0  0  0
   36.4329   23.6758   77.1289 C   0  0  1  0  0  0  0  0  0  0  0  0
   36.5176   24.9402   76.4493 O   0  0  0  0  0  0  0  0  0  0  0  0
   35.1009   22.8586   77.2801 C   0  0  2  0  0  0  0  0  0  0  0  0
   37.0055   14.5822   76.1204 O   0  0  0  0  0  0  0  0  0  0  0  0
   33.3263   20.6006   81.6225 N   0  0  0  0  0  0  0  0  0  0  0  0
   33.9383   20.0324   80.5773 C   0  0  0  0  0  0  0  0  0  0  0  0
   34.3208   20.7459   79.5220 N   0  0  0  0  0  0  0  0  0  0  0  0
   34.1282   22.0765   79.4718 C   0  0  0  0  0  0  0  0  0  0  0  0
   33.4964   22.7315   80.5626 C   0  0  0  0  0  0  0  0  0  0  0  0
   33.0915   21.9258   81.6678 C   0  0  0  0  0  0  0  0  0  0  0  0
   32.4782   22.4892   82.7711 N   0  0  0  0  0  0  0  0  0  0  0  0
   33.4360   24.0487   80.2592 N   0  0  0  0  0  0  0  0  0  0  0  0
   33.9748   24.2433   79.0906 C   0  0  0  0  0  0  0  0  0  0  0  0
   34.4170   23.0549   78.5630 N   0  0  0  0  0  0  0  0  0  0  0  0
  2  1  1  6  0  0  0
  2  3  1  0  0  0  0
  2  5  1  0  0  0  0
  3  4  1  0  0  0  0
  3 17  1  0  0  0  0
  5  6  1  0  0  0  0
  7  6  1  1  0  0  0
  7  8  1  0  0  0  0
  7  9  1  0  0  0  0
 10  9  1  1  0  0  0
 10 11  1  0  0  0  0
 10 12  1  0  0  0  0
 11 16  1  0  0  0  0
 12 13  1  6  0  0  0
 12 14  1  0  0  0  0
 14 15  1  6  0  0  0
 14 16  1  0  0  0  0
 16 27  1  1  0  0  0
 18 19  2  0  0  0  0
 18 23  1  0  0  0  0
 19 20  1  0  0  0  0
 20 21  2  0  0  0  0
 21 22  1  0  0  0  0
 21 27  1  0  0  0  0
 22 23  2  0  0  0  0
 22 25  1  0  0  0  0
 23 24  1  0  0  0  0
 25 26  2  0  0  0  0
 26 27  1  0  0  0  0
M  END
>  <CHROM.1>
164.63321214,-160.26351716,170.48268664,-176.95579892,-162.72308553,175.08988547
-5.17855567,36.27641384,20.48393228,77.38793647,0.70049605,-0.87030499,3.08499913

>  <Name>
ligand

>  <RI>
0

>  <Rbt.Current_Directory>
/home/itssahil/PROJECTS/Mol_Feturizer/New_Systems/rnas/2QWY

>  <Rbt.Executable>
rbdock ($Id: //depot/dev/client3/rdock/2013.1/src/exe/rbdock.cxx#4 $)

>  <Rbt.Library>
libRbt.so (2013.1, Build901 2013/11/27)

>  <Rbt.Parameter_File>
/export/apps/rDock/src/rDock_2013.1_src/data/scripts/dock_solv.prm

>  <Rbt.Receptor>
prm/pocket_docking_6.prm

>  <SCORE>
-10.1805

>  <SCORE.INTER>
-7.56434

>  <SCORE.INTER.CONST>
1

>  <SCORE.INTER.POLAR>
0

>  <SCORE.INTER.ROT>
7

>  <SCORE.INTER.SOLV>
8.44613

>  <SCORE.INTER.VDW>
-16.1249

>  <SCORE.INTER.norm>
-0.280161

>  <SCORE.INTRA>
-2.61614

>  <SCORE.INTRA.DIHEDRAL>
-3.6206

>  <SCORE.INTRA.DIHEDRAL.0>
10.7382

>  <SCORE.INTRA.POLAR>
0

>  <SCORE.INTRA.POLAR.0>
0

>  <SCORE.INTRA.REPUL>
0

>  <SCORE.INTRA.REPUL.0>
0

>  <SCORE.INTRA.SOLV>
-0.831839

>  <SCORE.INTRA.SOLV.lig_0>
-49.2501

>  <SCORE.INTRA.VDW>
-0.389918

>  <SCORE.INTRA.VDW.0>
-1.75368

>  <SCORE.INTRA.norm>
-0.096894

>  <SCORE.RESTR>
0

>  <SCORE.RESTR.CAVITY>
0

>  <SCORE.RESTR.norm>
0

>  <SCORE.SYSTEM>
0

>  <SCORE.SYSTEM.CONST>
0

>  <SCORE.SYSTEM.DIHEDRAL>
0

>  <SCORE.SYSTEM.SOLV>
0

>  <SCORE.SYSTEM.norm>
0

>  <SCORE.heavy>
27

>  <SCORE.norm>
-0.377055

>  <RMSD>
5.537

$$$$
ligand
 OpenBabel11021811463D
libRbt.so/2013.1/901 2013/11/27
 27 29  0  0  0  0  0  0  0  0999 V2000
   38.2182   19.5266   81.3469 N   0  0  0  0  0  0  0  0  0  0  0  0
   38.1936   20.8159   80.6343 C   0  0  2  0  0  0  0  0  0  0  0  0
   37.6281   21.8967   81.5320 C   0  0  0  0  0  0  0  0  0  0  0  0
   37.9992   23.0676   81.4013 O   0  0  0  0  0  0  0  0  0  0  0  0
   37.3094   20.6868   79.3982 C   0  0  0  0  0  0  0  0  0  0  0  0
   37.4073   21.9326   78.5439 C   0  0  0  0  0  0  0  0  0  0  0  0
   36.1785   21.8009   77.2331 S   0  0  2  0  0  0  0  0  0  0  0  0
   36.7707   23.1450   76.1681 C   0  0  0  0  0  0  0  0  0  0  0  0
   34.7486   22.6104   78.0279 C   0  0  0  0  0  0  0  0  0  0  0  0
   33.7951   21.5328   78.5371 C   0  0  1  0  0  0  0  0  0  0  0  0
   32.5116   22.1053   78.6323 O   0  0  0  0  0  0  0  0  0  0  0  0
   33.6707   20.3751   77.5407 C   0  0  1  0  0  0  0  0  0  0  0  0
   34.5693   19.2574   77.6140 O   0  0  0  0  0  0  0  0  0  0  0  0
   32.1495   20.0127   77.5941 C   0  0  1  0  0  0  0  0  0  0  0  0
   32.0302   18.5862   77.7305 O   0  0  0  0  0  0  0  0  0  0  0  0
   31.5794   21.0358   78.6396 C   0  0  2  0  0  0  0  0  0  0  0  0
   36.7526   21.6183   82.3374 O   0  0  0  0  0  0  0  0  0  0  0  0
   26.7744   20.0070   76.9199 N   0  0  0  0  0  0  0  0  0  0  0  0
   27.7895   19.1580   77.1159 C   0  0  0  0  0  0  0  0  0  0  0  0
   28.9757   19.5784   77.5464 N   0  0  0  0  0  0  0  0  0  0  0  0
   29.1976   20.8757   77.8255 C   0  0  0  0  0  0  0  0  0  0  0  0
   28.1480   21.8166   77.6489 C   0  0  0  0  0  0  0  0  0  0  0  0
   26.8966   21.3238   77.1737 C   0  0  0  0  0  0  0  0  0  0  0  0
   25.8235   22.1743   76.9843 N   0  0  0  0  0  0  0  0  0  0  0  0
   28.6322   23.0290   78.0040 N   0  0  0  0  0  0  0  0  0  0  0  0
   29.8719   22.9012   78.3790 C   0  0  0  0  0  0  0  0  0  0  0  0
   30.2678   21.5894   78.2859 N   0  0  0  0  0  0  0  0  0  0  0  0
  2  1  1  1  0  0  0
  2  3  1  0  0  0  0
  2  5  1  0  0  0  0
  3  4  1  0  0  0  0
  3 17  1  0  0  0  0
  5  6  1  0  0  0  0
  7  6  1  1  0  0  0
  7  8  1  0  0  0  0
  7  9  1  0  0  0  0
 10  9  1  6  0  0  0
 10 11  1  0  0  0  0
 10 12  1  0  0  0  0
 11 16  1  0  0  0  0
 12 13  1  1  0  0  0
 12 14  1  0  0  0  0
 14 15  1  1  0  0  0
 14 16  1  0  0  0  0
 16 27  1  6  0  0  0
 18 19  2  0  0  0  0
 18 23  1  0  0  0  0
 19 20  1  0  0  0  0
 20 21  2  0  0  0  0
 21 22  1  0  0  0  0
 21 27  1  0  0  0  0
 22 23  2  0  0  0  0
 22 25  1  0  0  0  0
 23 24  1  0  0  0  0
 25 26  2  0  0  0  0
 26 27  1  0  0  0  0
M  END
>  <CHROM.1>
149.95035358,-172.47240878,-172.48775478,-166.75512749,-100.87376020,-156.25389712
160.75142895,33.03088234,21.22985406,78.44225990,0.23958536,-0.09918399,0.98438380

>  <Name>
ligand

>  <RI>
0

>  <Rbt.Current_Directory>
/home/itssahil/PROJECTS/Mol_Feturizer/New_Systems/rnas/2QWY

>  <Rbt.Executable>
rbdock ($Id: //depot/dev/client3/rdock/2013.1/src/exe/rbdock.cxx#4 $)

>  <Rbt.Library>
libRbt.so (2013.1, Build901 2013/11/27)

>  <Rbt.Parameter_File>
/export/apps/rDock/src/rDock_2013.1_src/data/scripts/dock_solv.prm

>  <Rbt.Receptor>
prm/pocket_docking_4.prm

>  <SCORE>
-19.6106

>  <SCORE.INTER>
-18.4412

>  <SCORE.INTER.CONST>
1

>  <SCORE.INTER.POLAR>
0

>  <SCORE.INTER.ROT>
7

>  <SCORE.INTER.SOLV>
10.8819

>  <SCORE.INTER.VDW>
-24.1881

>  <SCORE.INTER.norm>
-0.683007

>  <SCORE.INTRA>
-1.19175

>  <SCORE.INTRA.DIHEDRAL>
-1.94722

>  <SCORE.INTRA.DIHEDRAL.0>
10.7382

>  <SCORE.INTRA.POLAR>
0

>  <SCORE.INTRA.POLAR.0>
0

>  <SCORE.INTRA.REPUL>
0

>  <SCORE.INTRA.REPUL.0>
0

>  <SCORE.INTRA.SOLV>
-0.702378

>  <SCORE.INTRA.SOLV.lig_0>
-49.2501

>  <SCORE.INTRA.VDW>
0.133047

>  <SCORE.INTRA.VDW.0>
-1.75368

>  <SCORE.INTRA.norm>
-0.0441389

>  <SCORE.RESTR>
0.0223366

>  <SCORE.RESTR.CAVITY>
0.0223366

>  <SCORE.RESTR.norm>
0.000827283

>  <SCORE.SYSTEM>
0

>  <SCORE.SYSTEM.CONST>
0

>  <SCORE.SYSTEM.DIHEDRAL>
0

>  <SCORE.SYSTEM.SOLV>
0

>  <SCORE.SYSTEM.norm>
0

>  <SCORE.heavy>
27

>  <SCORE.norm>
-0.726319

>  <RMSD>
5.562

$$$$
ligand
 OpenBabel11021811463D
libRbt.so/2013.1/901 2013/11/27
 27 29  0  0  0  0  0  0  0  0999 V2000
   35.2765   22.0925   82.0351 N   0  0  0  0  0  0  0  0  0  0  0  0
   35.8769   21.3900   80.8876 C   0  0  2  0  0  0  0  0  0  0  0  0
   36.1944   19.9572   81.2620 C   0  0  0  0  0  0  0  0  0  0  0  0
   36.2761   19.0912   80.3849 O   0  0  0  0  0  0  0  0  0  0  0  0
   37.1695   22.0955   80.4904 C   0  0  0  0  0  0  0  0  0  0  0  0
   36.8696   23.4491   79.8829 C   0  0  0  0  0  0  0  0  0  0  0  0
   36.2583   23.1799   78.2098 S   0  0  2  0  0  0  0  0  0  0  0  0
   36.7588   24.7630   77.4785 C   0  0  0  0  0  0  0  0  0  0  0  0
   34.4730   23.4737   78.4512 C   0  0  0  0  0  0  0  0  0  0  0  0
   33.7967   22.1449   78.7777 C   0  0  1  0  0  0  0  0  0  0  0  0
   32.4066   22.3690   78.8174 O   0  0  0  0  0  0  0  0  0  0  0  0
   34.0283   21.1091   77.6723 C   0  0  1  0  0  0  0  0  0  0  0  0
   35.1756   20.2466   77.7176 O   0  0  0  0  0  0  0  0  0  0  0  0
   32.6486   20.3788   77.5649 C   0  0  1  0  0  0  0  0  0  0  0  0
   32.8880   18.9610   77.5593 O   0  0  0  0  0  0  0  0  0  0  0  0
   31.7779   21.1084   78.6485 C   0  0  2  0  0  0  0  0  0  0  0  0
   36.4389   19.6752   82.4253 O   0  0  0  0  0  0  0  0  0  0  0  0
   27.2439   18.9812   77.2264 N   0  0  0  0  0  0  0  0  0  0  0  0
   28.3922   18.3682   77.5353 C   0  0  0  0  0  0  0  0  0  0  0  0
   29.4819   19.0558   77.8652 N   0  0  0  0  0  0  0  0  0  0  0  0
   29.4681   20.3998   77.9244 C   0  0  0  0  0  0  0  0  0  0  0  0
   28.2695   21.0991   77.6205 C   0  0  0  0  0  0  0  0  0  0  0  0
   27.1288   20.3224   77.2597 C   0  0  0  0  0  0  0  0  0  0  0  0
   25.9232   20.9278   76.9584 N   0  0  0  0  0  0  0  0  0  0  0  0
   28.5283   22.4195   77.7628 N   0  0  0  0  0  0  0  0  0  0  0  0
   29.7684   22.5754   78.1258 C   0  0  0  0  0  0  0  0  0  0  0  0
   30.3914   21.3566   78.2387 N   0  0  0  0  0  0  0  0  0  0  0  0
  2  1  1  1  0  0  0
  2  3  1  0  0  0  0
  2  5  1  0  0  0  0
  3  4  1  0  0  0  0
  3 17  1  0  0  0  0
  5  6  1  0  0  0  0
  7  6  1  1  0  0  0
  7  8  1  0  0  0  0
  7  9  1  0  0  0  0
 10  9  1  6  0  0  0
 10 11  1  0  0  0  0
 10 12  1  0  0  0  0
 11 16  1  0  0  0  0
 12 13  1  1  0  0  0
 12 14  1  0  0  0  0
 14 15  1  1  0  0  0
 14 16  1  0  0  0  0
 16 27  1  6  0  0  0
 18 19  2  0  0  0  0
 18 23  1  0  0  0  0
 19 20  1  0  0  0  0
 20 21  2  0  0  0  0
 21 22  1  0  0  0  0
 21 27  1  0  0  0  0
 22 23  2  0  0  0  0
 22 25  1  0  0  0  0
 23 24  1  0  0  0  0
 25 26  2  0  0  0  0
 26 27  1  0  0  0  0
M  END
>  <CHROM.1>
155.92637040,-69.54652468,-75.56922574,-153.38040757,-91.37276443,-173.78767679
177.26107640,32.85713281,21.24434440,78.69992929,-0.04321629,0.33475068,2.67716362

>  <Name>
ligand

>  <RI>
0

>  <Rbt.Current_Directory>
/home/itssahil/PROJECTS/Mol_Feturizer/New_Systems/rnas/2QWY

>  <Rbt.Executable>
rbdock ($Id: //depot/dev/client3/rdock/2013.1/src/exe/rbdock.cxx#4 $)

>  <Rbt.Library>
libRbt.so (2013.1, Build901 2013/11/27)

>  <Rbt.Parameter_File>
/export/apps/rDock/src/rDock_2013.1_src/data/scripts/dock_solv.prm

>  <Rbt.Receptor>
prm/pocket_docking_6.prm

>  <SCORE>
-25.855

>  <SCORE.INTER>
-23.9465

>  <SCORE.INTER.CONST>
1

>  <SCORE.INTER.POLAR>
0

>  <SCORE.INTER.ROT>
7

>  <SCORE.INTER.SOLV>
8.46183

>  <SCORE.INTER.VDW>
-27.0516

>  <SCORE.INTER.norm>
-0.886909

>  <SCORE.INTRA>
-1.90848

>  <SCORE.INTRA.DIHEDRAL>
-2.31209

>  <SCORE.INTRA.DIHEDRAL.0>
10.7382

>  <SCORE.INTRA.POLAR>
0

>  <SCORE.INTRA.POLAR.0>
0

>  <SCORE.INTRA.REPUL>
0

>  <SCORE.INTRA.REPUL.0>
0

>  <SCORE.INTRA.SOLV>
1.86385

>  <SCORE.INTRA.SOLV.lig_0>
-49.2501

>  <SCORE.INTRA.VDW>
-1.68436

>  <SCORE.INTRA.VDW.0>
-1.75368

>  <SCORE.INTRA.norm>
-0.0706843

>  <SCORE.RESTR>
0

>  <SCORE.RESTR.CAVITY>
0

>  <SCORE.RESTR.norm>
0

>  <SCORE.SYSTEM>
0

>  <SCORE.SYSTEM.CONST>
0

>  <SCORE.SYSTEM.DIHEDRAL>
0

>  <SCORE.SYSTEM.SOLV>
0

>  <SCORE.SYSTEM.norm>
0

>  <SCORE.heavy>
27

>  <SCORE.norm>
-0.957593

>  <RMSD>
5.591

$$$$
ligand
 OpenBabel11021811463D
libRbt.so/2013.1/901 2013/11/27
 27 29  0  0  0  0  0  0  0  0999 V2000
   37.3397   15.1988   73.3194 N   0  0  0  0  0  0  0  0  0  0  0  0
   37.7323   16.0608   74.4478 C   0  0  2  0  0  0  0  0  0  0  0  0
   37.8725   15.2354   75.7099 C   0  0  0  0  0  0  0  0  0  0  0  0
   36.9999   14.4157   76.0141 O   0  0  0  0  0  0  0  0  0  0  0  0
   36.6559   17.1192   74.6660 C   0  0  0  0  0  0  0  0  0  0  0  0
   37.1122   18.1361   75.6904 C   0  0  0  0  0  0  0  0  0  0  0  0
   35.8746   19.4433   75.7595 S   0  0  2  0  0  0  0  0  0  0  0  0
   36.1606   20.1764   74.1247 C   0  0  0  0  0  0  0  0  0  0  0  0
   36.7256   20.6582   76.8233 C   0  0  0  0  0  0  0  0  0  0  0  0
   36.0373   22.0118   76.6702 C   0  0  1  0  0  0  0  0  0  0  0  0
   35.1719   22.1801   77.7688 O   0  0  0  0  0  0  0  0  0  0  0  0
   37.0432   23.1658   76.7415 C   0  0  1  0  0  0  0  0  0  0  0  0
   37.6847   23.6413   75.5480 O   0  0  0  0  0  0  0  0  0  0  0  0
   36.2868   24.2553   77.5717 C   0  0  1  0  0  0  0  0  0  0  0  0
   36.4137   25.5131   76.8867 O   0  0  0  0  0  0  0  0  0  0  0  0
   34.9087   23.5698   77.8809 C   0  0  2  0  0  0  0  0  0  0  0  0
   38.8843   15.3324   76.3877 O   0  0  0  0  0  0  0  0  0  0  0  0
   32.9051   21.4613   82.1988 N   0  0  0  0  0  0  0  0  0  0  0  0
   33.2545   20.8542   81.0590 C   0  0  0  0  0  0  0  0  0  0  0  0
   33.7406   21.5376   80.0266 N   0  0  0  0  0  0  0  0  0  0  0  0
   33.9233   22.8688   80.0943 C   0  0  0  0  0  0  0  0  0  0  0  0
   33.5825   23.5599   81.2878 C   0  0  0  0  0  0  0  0  0  0  0  0
   33.0530   22.7893   82.3650 C   0  0  0  0  0  0  0  0  0  0  0  0
   32.7054   23.3865   83.5623 N   0  0  0  0  0  0  0  0  0  0  0  0
   33.8691   24.8673   81.0901 N   0  0  0  0  0  0  0  0  0  0  0  0
   34.3518   25.0226   79.8914 C   0  0  0  0  0  0  0  0  0  0  0  0
   34.4046   23.8169   79.2362 N   0  0  0  0  0  0  0  0  0  0  0  0
  2  1  1  6  0  0  0
  2  3  1  0  0  0  0
  2  5  1  0  0  0  0
  3  4  1  0  0  0  0
  3 17  1  0  0  0  0
  5  6  1  0  0  0  0
  7  6  1  6  0  0  0
  7  8  1  0  0  0  0
  7  9  1  0  0  0  0
 10  9  1  1  0  0  0
 10 11  1  0  0  0  0
 10 12  1  0  0  0  0
 11 16  1  0  0  0  0
 12 13  1  6  0  0  0
 12 14  1  0  0  0  0
 14 15  1  6  0  0  0
 14 16  1  0  0  0  0
 16 27  1  1  0  0  0
 18 19  2  0  0  0  0
 18 23  1  0  0  0  0
 19 20  1  0  0  0  0
 20 21  2  0  0  0  0
 21 22  1  0  0  0  0
 21 27  1  0  0  0  0
 22 23  2  0  0  0  0
 22 25  1  0  0  0  0
 23 24  1  0  0  0  0
 25 26  2  0  0  0  0
 26 27  1  0  0  0  0
M  END
>  <CHROM.1>
-46.38462886,-172.26604934,173.88174270,-69.02486510,163.03393523,99.54631874
-16.69990343,35.66125952,20.84714232,77.68753572,0.78711404,-1.05128997,3.08313859

>  <Name>
ligand

>  <RI>
0

>  <Rbt.Current_Directory>
/home/itssahil/PROJECTS/Mol_Feturizer/New_Systems/rnas/2QWY

>  <Rbt.Executable>
rbdock ($Id: //depot/dev/client3/rdock/2013.1/src/exe/rbdock.cxx#4 $)

>  <Rbt.Library>
libRbt.so (2013.1, Build901 2013/11/27)

>  <Rbt.Parameter_File>
/export/apps/rDock/src/rDock_2013.1_src/data/scripts/dock_solv.prm

>  <Rbt.Receptor>
prm/pocket_docking_8.prm

>  <SCORE>
-11.5484

>  <SCORE.INTER>
-10.1226

>  <SCORE.INTER.CONST>
1

>  <SCORE.INTER.POLAR>
0

>  <SCORE.INTER.ROT>
7

>  <SCORE.INTER.SOLV>
6.93322

>  <SCORE.INTER.VDW>
-17.3262

>  <SCORE.INTER.norm>
-0.374912

>  <SCORE.INTRA>
-1.42578

>  <SCORE.INTRA.DIHEDRAL>
-2.99402

>  <SCORE.INTRA.DIHEDRAL.0>
10.7382

>  <SCORE.INTRA.POLAR>
0

>  <SCORE.INTRA.POLAR.0>
0

>  <SCORE.INTRA.REPUL>
0

>  <SCORE.INTRA.REPUL.0>
0

>  <SCORE.INTRA.SOLV>
-1.12987

>  <SCORE.INTRA.SOLV.lig_0>
-49.2501

>  <SCORE.INTRA.VDW>
0.636166

>  <SCORE.INTRA.VDW.0>
-1.75368

>  <SCORE.INTRA.norm>
-0.0528067

>  <SCORE.RESTR>
0

>  <SCORE.RESTR.CAVITY>
0

>  <SCORE.RESTR.norm>
0

>  <SCORE.SYSTEM>
0

>  <SCORE.SYSTEM.CONST>
0

>  <SCORE.SYSTEM.DIHEDRAL>
0

>  <SCORE.SYSTEM.SOLV>
0

>  <SCORE.SYSTEM.norm>
0

>  <SCORE.heavy>
27

>  <SCORE.norm>
-0.427719

>  <RMSD>
5.655

$$$$
ligand
 OpenBabel11021811463D
libRbt.so/2013.1/901 2013/11/27
 27 29  0  0  0  0  0  0  0  0999 V2000
   38.9079   19.8091   81.1642 N   0  0  0  0  0  0  0  0  0  0  0  0
   37.5471   19.4385   80.7381 C   0  0  2  0  0  0  0  0  0  0  0  0
   37.5180   19.1919   79.2440 C   0  0  0  0  0  0  0  0  0  0  0  0
   38.5528   19.2994   78.5781 O   0  0  0  0  0  0  0  0  0  0  0  0
   36.5914   20.5800   81.0698 C   0  0  0  0  0  0  0  0  0  0  0  0
   36.3477   20.6507   82.5621 C   0  0  0  0  0  0  0  0  0  0  0  0
   35.2646   22.0551   82.8784 S   0  0  2  0  0  0  0  0  0  0  0  0
   34.8513   21.6965   84.6082 C   0  0  0  0  0  0  0  0  0  0  0  0
   33.7376   21.4977   82.0482 C   0  0  0  0  0  0  0  0  0  0  0  0
   33.7026   22.0845   80.6397 C   0  0  1  0  0  0  0  0  0  0  0  0
   32.5842   21.5427   79.9765 O   0  0  0  0  0  0  0  0  0  0  0  0
   33.4861   23.6013   80.6672 C   0  0  1  0  0  0  0  0  0  0  0  0
   34.6106   24.4917   80.7369 O   0  0  0  0  0  0  0  0  0  0  0  0
   32.5114   23.8503   79.4688 C   0  0  1  0  0  0  0  0  0  0  0  0
   33.0231   24.9464   78.6914 O   0  0  0  0  0  0  0  0  0  0  0  0
   32.2851   22.4077   78.8924 C   0  0  2  0  0  0  0  0  0  0  0  0
   36.4837   18.8179   78.7120 O   0  0  0  0  0  0  0  0  0  0  0  0
   28.8205   18.7712   77.5224 N   0  0  0  0  0  0  0  0  0  0  0  0
   30.1092   18.6154   77.8460 C   0  0  0  0  0  0  0  0  0  0  0  0
   30.8791   19.6538   78.1591 N   0  0  0  0  0  0  0  0  0  0  0  0
   30.3863   20.9054   78.1858 C   0  0  0  0  0  0  0  0  0  0  0  0
   29.0197   21.1240   77.8652 C   0  0  0  0  0  0  0  0  0  0  0  0
   28.2343   19.9834   77.5234 C   0  0  0  0  0  0  0  0  0  0  0  0
   26.8946   20.1118   77.2076 N   0  0  0  0  0  0  0  0  0  0  0  0
   28.7893   22.4526   77.9755 N   0  0  0  0  0  0  0  0  0  0  0  0
   29.8891   23.0489   78.3346 C   0  0  0  0  0  0  0  0  0  0  0  0
   30.9048   22.1355   78.4768 N   0  0  0  0  0  0  0  0  0  0  0  0
  2  1  1  6  0  0  0
  2  3  1  0  0  0  0
  2  5  1  0  0  0  0
  3  4  1  0  0  0  0
  3 17  1  0  0  0  0
  5  6  1  0  0  0  0
  7  6  1  6  0  0  0
  7  8  1  0  0  0  0
  7  9  1  0  0  0  0
 10  9  1  1  0  0  0
 10 11  1  0  0  0  0
 10 12  1  0  0  0  0
 11 16  1  0  0  0  0
 12 13  1  6  0  0  0
 12 14  1  0  0  0  0
 14 15  1  6  0  0  0
 14 16  1  0  0  0  0
 16 27  1  1  0  0  0
 18 19  2  0  0  0  0
 18 23  1  0  0  0  0
 19 20  1  0  0  0  0
 20 21  2  0  0  0  0
 21 22  1  0  0  0  0
 21 27  1  0  0  0  0
 22 23  2  0  0  0  0
 22 25  1  0  0  0  0
 23 24  1  0  0  0  0
 25 26  2  0  0  0  0
 26 27  1  0  0  0  0
M  END
>  <CHROM.1>
0.78888914,-72.71922134,177.89346650,168.23547082,-95.67046921,174.58634853
-51.41622321,33.24998956,21.27818597,79.81692313,-0.20429456,0.37220066,-2.55390491

>  <Name>
ligand

>  <RI>
0

>  <Rbt.Current_Directory>
/home/itssahil/PROJECTS/Mol_Feturizer/New_Systems/rnas/2QWY

>  <Rbt.Executable>
rbdock ($Id: //depot/dev/client3/rdock/2013.1/src/exe/rbdock.cxx#4 $)

>  <Rbt.Library>
libRbt.so (2013.1, Build901 2013/11/27)

>  <Rbt.Parameter_File>
/export/apps/rDock/src/rDock_2013.1_src/data/scripts/dock_solv.prm

>  <Rbt.Receptor>
prm/pocket_docking_7.prm

>  <SCORE>
-26.3409

>  <SCORE.INTER>
-23.3993

>  <SCORE.INTER.CONST>
1

>  <SCORE.INTER.POLAR>
0

>  <SCORE.INTER.ROT>
7

>  <SCORE.INTER.SOLV>
14.2104

>  <SCORE.INTER.VDW>
-28.603

>  <SCORE.INTER.norm>
-0.866642

>  <SCORE.INTRA>
-2.94152

>  <SCORE.INTRA.DIHEDRAL>
-5.03611

>  <SCORE.INTRA.DIHEDRAL.0>
10.7382

>  <SCORE.INTRA.POLAR>
0

>  <SCORE.INTRA.POLAR.0>
0

>  <SCORE.INTRA.REPUL>
0

>  <SCORE.INTRA.REPUL.0>
0

>  <SCORE.INTRA.SOLV>
-0.371051

>  <SCORE.INTRA.SOLV.lig_0>
-49.2501

>  <SCORE.INTRA.VDW>
-0.237946

>  <SCORE.INTRA.VDW.0>
-1.75368

>  <SCORE.INTRA.norm>
-0.108945

>  <SCORE.RESTR>
0

>  <SCORE.RESTR.CAVITY>
0

>  <SCORE.RESTR.norm>
0

>  <SCORE.SYSTEM>
0

>  <SCORE.SYSTEM.CONST>
0

>  <SCORE.SYSTEM.DIHEDRAL>
0

>  <SCORE.SYSTEM.SOLV>
0

>  <SCORE.SYSTEM.norm>
0

>  <SCORE.heavy>
27

>  <SCORE.norm>
-0.975587

>  <RMSD>
5.675

$$$$
ligand
 OpenBabel11021811463D
libRbt.so/2013.1/901 2013/11/27
 27 29  0  0  0  0  0  0  0  0999 V2000
   35.2597   21.8962   80.2360 N   0  0  0  0  0  0  0  0  0  0  0  0
   34.4115   20.6974   80.1173 C   0  0  2  0  0  0  0  0  0  0  0  0
   33.7312   20.4076   81.4391 C   0  0  0  0  0  0  0  0  0  0  0  0
   34.0077   21.0790   82.4384 O   0  0  0  0  0  0  0  0  0  0  0  0
   35.2828   19.5045   79.7375 C   0  0  0  0  0  0  0  0  0  0  0  0
   35.8613   19.6906   78.3511 C   0  0  0  0  0  0  0  0  0  0  0  0
   34.7344   18.9213   77.1749 S   0  0  2  0  0  0  0  0  0  0  0  0
   35.6802   19.2197   75.6557 C   0  0  0  0  0  0  0  0  0  0  0  0
   33.4575   20.2179   77.0329 C   0  0  0  0  0  0  0  0  0  0  0  0
   32.2946   19.8647   77.9562 C   0  0  1  0  0  0  0  0  0  0  0  0
   31.4023   20.9547   77.9591 O   0  0  0  0  0  0  0  0  0  0  0  0
   31.4995   18.6665   77.4266 C   0  0  1  0  0  0  0  0  0  0  0  0
   31.8702   17.3302   77.7993 O   0  0  0  0  0  0  0  0  0  0  0  0
   30.0141   19.0553   77.7280 C   0  0  1  0  0  0  0  0  0  0  0  0
   29.3707   17.9300   78.3504 O   0  0  0  0  0  0  0  0  0  0  0  0
   30.1490   20.4640   78.4078 C   0  0  2  0  0  0  0  0  0  0  0  0
   32.8577   19.5553   81.4966 O   0  0  0  0  0  0  0  0  0  0  0  0
   25.4339   21.1320   76.3040 N   0  0  0  0  0  0  0  0  0  0  0  0
   26.0975   19.9902   76.5178 C   0  0  0  0  0  0  0  0  0  0  0  0
   27.3151   19.9821   77.0531 N   0  0  0  0  0  0  0  0  0  0  0  0
   27.9223   21.1239   77.4242 C   0  0  0  0  0  0  0  0  0  0  0  0
   27.2544   22.3631   77.2329 C   0  0  0  0  0  0  0  0  0  0  0  0
   25.9557   22.3258   76.6442 C   0  0  0  0  0  0  0  0  0  0  0  0
   25.2374   23.4878   76.4332 N   0  0  0  0  0  0  0  0  0  0  0  0
   28.0746   23.3360   77.6926 N   0  0  0  0  0  0  0  0  0  0  0  0
   29.1691   22.7949   78.1433 C   0  0  0  0  0  0  0  0  0  0  0  0
   29.1234   21.4299   77.9990 N   0  0  0  0  0  0  0  0  0  0  0  0
  2  1  1  1  0  0  0
  2  3  1  0  0  0  0
  2  5  1  0  0  0  0
  3  4  1  0  0  0  0
  3 17  1  0  0  0  0
  5  6  1  0  0  0  0
  7  6  1  1  0  0  0
  7  8  1  0  0  0  0
  7  9  1  0  0  0  0
 10  9  1  6  0  0  0
 10 11  1  0  0  0  0
 10 12  1  0  0  0  0
 11 16  1  0  0  0  0
 12 13  1  1  0  0  0
 12 14  1  0  0  0  0
 14 15  1  1  0  0  0
 14 16  1  0  0  0  0
 16 27  1  6  0  0  0
 18 19  2  0  0  0  0
 18 23  1  0  0  0  0
 19 20  1  0  0  0  0
 20 21  2  0  0  0  0
 21 22  1  0  0  0  0
 21 27  1  0  0  0  0
 22 23  2  0  0  0  0
 22 25  1  0  0  0  0
 23 24  1  0  0  0  0
 25 26  2  0  0  0  0
 26 27  1  0  0  0  0
M  END
>  <CHROM.1>
-5.38391983,-65.92078859,-92.05394841,-177.67120286,-97.47026656,172.74164120
134.75183218,31.15451585,20.37059395,78.16619019,0.06304822,-0.33340146,0.91583609

>  <Name>
ligand

>  <RI>
0

>  <Rbt.Current_Directory>
/home/itssahil/PROJECTS/Mol_Feturizer/New_Systems/rnas/2QWY

>  <Rbt.Executable>
rbdock ($Id: //depot/dev/client3/rdock/2013.1/src/exe/rbdock.cxx#4 $)

>  <Rbt.Library>
libRbt.so (2013.1, Build901 2013/11/27)

>  <Rbt.Parameter_File>
/export/apps/rDock/src/rDock_2013.1_src/data/scripts/dock_solv.prm

>  <Rbt.Receptor>
prm/pocket_docking_4.prm

>  <SCORE>
-17.0139

>  <SCORE.INTER>
-15.3133

>  <SCORE.INTER.CONST>
1

>  <SCORE.INTER.POLAR>
0

>  <SCORE.INTER.ROT>
7

>  <SCORE.INTER.SOLV>
12.2047

>  <SCORE.INTER.VDW>
-22.5438

>  <SCORE.INTER.norm>
-0.567161

>  <SCORE.INTRA>
-1.86312

>  <SCORE.INTRA.DIHEDRAL>
-1.8891

>  <SCORE.INTRA.DIHEDRAL.0>
10.7382

>  <SCORE.INTRA.POLAR>
0

>  <SCORE.INTRA.POLAR.0>
0

>  <SCORE.INTRA.REPUL>
0

>  <SCORE.INTRA.REPUL.0>
0

>  <SCORE.INTRA.SOLV>
0.867684

>  <SCORE.INTRA.SOLV.lig_0>
-49.2501

>  <SCORE.INTRA.VDW>
-1.35241

>  <SCORE.INTRA.VDW.0>
-1.75368

>  <SCORE.INTRA.norm>
-0.0690046

>  <SCORE.RESTR>
0.162564

>  <SCORE.RESTR.CAVITY>
0.162564

>  <SCORE.RESTR.norm>
0.00602089

>  <SCORE.SYSTEM>
0

>  <SCORE.SYSTEM.CONST>
0

>  <SCORE.SYSTEM.DIHEDRAL>
0

>  <SCORE.SYSTEM.SOLV>
0

>  <SCORE.SYSTEM.norm>
0

>  <SCORE.heavy>
27

>  <SCORE.norm>
-0.630144

>  <RMSD>
5.781

$$$$
ligand
 OpenBabel11021811463D
libRbt.so/2013.1/901 2013/11/27
 27 29  0  0  0  0  0  0  0  0999 V2000
   34.3372   20.3865   82.3978 N   0  0  0  0  0  0  0  0  0  0  0  0
   35.4242   20.8850   81.5371 C   0  0  2  0  0  0  0  0  0  0  0  0
   36.5878   19.9156   81.5534 C   0  0  0  0  0  0  0  0  0  0  0  0
   36.9647   19.3825   80.5048 O   0  0  0  0  0  0  0  0  0  0  0  0
   35.8983   22.2358   82.0631 C   0  0  0  0  0  0  0  0  0  0  0  0
   34.7792   23.2529   81.9971 C   0  0  0  0  0  0  0  0  0  0  0  0
   34.5967   23.7622   80.2788 S   0  0  2  0  0  0  0  0  0  0  0  0
   34.1041   25.4862   80.5561 C   0  0  0  0  0  0  0  0  0  0  0  0
   32.9814   23.0146   79.8746 C   0  0  0  0  0  0  0  0  0  0  0  0
   33.2025   21.5622   79.4607 C   0  0  1  0  0  0  0  0  0  0  0  0
   31.9480   20.9217   79.4547 O   0  0  0  0  0  0  0  0  0  0  0  0
   33.7380   21.4606   78.0285 C   0  0  1  0  0  0  0  0  0  0  0  0
   35.1525   21.4814   77.7815 O   0  0  0  0  0  0  0  0  0  0  0  0
   32.9767   20.2250   77.4436 C   0  0  1  0  0  0  0  0  0  0  0  0
   33.9343   19.3715   76.7936 O   0  0  0  0  0  0  0  0  0  0  0  0
   32.0768   19.7641   78.6446 C   0  0  2  0  0  0  0  0  0  0  0  0
   37.1964   19.7175   82.5941 O   0  0  0  0  0  0  0  0  0  0  0  0
   27.3125   21.3004   77.2145 N   0  0  0  0  0  0  0  0  0  0  0  0
   28.3724   22.0539   77.5288 C   0  0  0  0  0  0  0  0  0  0  0  0
   29.5291   21.5099   77.8964 N   0  0  0  0  0  0  0  0  0  0  0  0
   29.6886   20.1748   77.9453 C   0  0  0  0  0  0  0  0  0  0  0  0
   28.5984   19.3293   77.6064 C   0  0  0  0  0  0  0  0  0  0  0  0
   27.3733   19.9554   77.2301 C   0  0  0  0  0  0  0  0  0  0  0  0
   26.2691   19.2020   76.8778 N   0  0  0  0  0  0  0  0  0  0  0  0
   29.0274   18.0522   77.7314 N   0  0  0  0  0  0  0  0  0  0  0  0
   30.2724   18.0546   78.1106 C   0  0  0  0  0  0  0  0  0  0  0  0
   30.7262   19.3425   78.2571 N   0  0  0  0  0  0  0  0  0  0  0  0
  2  1  1  1  0  0  0
  2  3  1  0  0  0  0
  2  5  1  0  0  0  0
  3  4  1  0  0  0  0
  3 17  1  0  0  0  0
  5  6  1  0  0  0  0
  7  6  1  1  0  0  0
  7  8  1  0  0  0  0
  7  9  1  0  0  0  0
 10  9  1  6  0  0  0
 10 11  1  0  0  0  0
 10 12  1  0  0  0  0
 11 16  1  0  0  0  0
 12 13  1  1  0  0  0
 12 14  1  0  0  0  0
 14 15  1  1  0  0  0
 14 16  1  0  0  0  0
 16 27  1  6  0  0  0
 18 19  2  0  0  0  0
 18 23  1  0  0  0  0
 19 20  1  0  0  0  0
 20 21  2  0  0  0  0
 21 22  1  0  0  0  0
 21 27  1  0  0  0  0
 22 23  2  0  0  0  0
 22 25  1  0  0  0  0
 23 24  1  0  0  0  0
 25 26  2  0  0  0  0
 26 27  1  0  0  0  0
M  END
>  <CHROM.1>
119.69690470,-62.59018610,-75.89226748,-146.69230150,-84.78984085,166.62656766
37.70938781,32.56698103,20.96830555,79.25127277,-0.30575047,0.43048429,-2.94626874

>  <Name>
ligand

>  <RI>
0

>  <Rbt.Current_Directory>
/home/itssahil/PROJECTS/Mol_Feturizer/New_Systems/rnas/2QWY

>  <Rbt.Executable>
rbdock ($Id: //depot/dev/client3/rdock/2013.1/src/exe/rbdock.cxx#4 $)

>  <Rbt.Library>
libRbt.so (2013.1, Build901 2013/11/27)

>  <Rbt.Parameter_File>
/export/apps/rDock/src/rDock_2013.1_src/data/scripts/dock_solv.prm

>  <Rbt.Receptor>
prm/pocket_docking_6.prm

>  <SCORE>
-23.4977

>  <SCORE.INTER>
-21.7862

>  <SCORE.INTER.CONST>
1

>  <SCORE.INTER.POLAR>
0

>  <SCORE.INTER.ROT>
7

>  <SCORE.INTER.SOLV>
14.9358

>  <SCORE.INTER.VDW>
-27.7694

>  <SCORE.INTER.norm>
-0.806896

>  <SCORE.INTRA>
-1.71151

>  <SCORE.INTRA.DIHEDRAL>
-1.96041

>  <SCORE.INTRA.DIHEDRAL.0>
10.7382

>  <SCORE.INTRA.POLAR>
0

>  <SCORE.INTRA.POLAR.0>
0

>  <SCORE.INTRA.REPUL>
0

>  <SCORE.INTRA.REPUL.0>
0

>  <SCORE.INTRA.SOLV>
2.23881

>  <SCORE.INTRA.SOLV.lig_0>
-49.2501

>  <SCORE.INTRA.VDW>
-1.8507

>  <SCORE.INTRA.VDW.0>
-1.75368

>  <SCORE.INTRA.norm>
-0.0633891

>  <SCORE.RESTR>
0

>  <SCORE.RESTR.CAVITY>
0

>  <SCORE.RESTR.norm>
0

>  <SCORE.SYSTEM>
0

>  <SCORE.SYSTEM.CONST>
0

>  <SCORE.SYSTEM.DIHEDRAL>
0

>  <SCORE.SYSTEM.SOLV>
0

>  <SCORE.SYSTEM.norm>
0

>  <SCORE.heavy>
27

>  <SCORE.norm>
-0.870285

>  <RMSD>
5.828

$$$$
ligand
 OpenBabel11021811463D
libRbt.so/2013.1/901 2013/11/27
 27 29  0  0  0  0  0  0  0  0999 V2000
   40.2922   20.3737   83.0688 N   0  0  0  0  0  0  0  0  0  0  0  0
   39.1235   19.7731   82.4025 C   0  0  2  0  0  0  0  0  0  0  0  0
   39.4384   19.4967   80.9471 C   0  0  0  0  0  0  0  0  0  0  0  0
   40.0682   20.3250   80.2814 O   0  0  0  0  0  0  0  0  0  0  0  0
   37.9506   20.7452   82.4788 C   0  0  0  0  0  0  0  0  0  0  0  0
   36.6968   20.1082   81.9188 C   0  0  0  0  0  0  0  0  0  0  0  0
   35.4629   21.4048   81.7149 S   0  0  2  0  0  0  0  0  0  0  0  0
   34.9707   21.5885   83.4514 C   0  0  0  0  0  0  0  0  0  0  0  0
   34.0572   20.4350   81.0705 C   0  0  0  0  0  0  0  0  0  0  0  0
   33.5133   21.1278   79.8240 C   0  0  1  0  0  0  0  0  0  0  0  0
   32.5596   20.2721   79.2388 O   0  0  0  0  0  0  0  0  0  0  0  0
   32.7656   22.4177   80.1782 C   0  0  1  0  0  0  0  0  0  0  0  0
   33.4718   23.6658   80.2549 O   0  0  0  0  0  0  0  0  0  0  0  0
   31.5388   22.4041   79.2071 C   0  0  1  0  0  0  0  0  0  0  0  0
   31.4360   23.6997   78.5920 O   0  0  0  0  0  0  0  0  0  0  0  0
   31.7426   21.0731   78.3998 C   0  0  2  0  0  0  0  0  0  0  0  0
   39.1294   18.4224   80.4541 O   0  0  0  0  0  0  0  0  0  0  0  0
   26.6895   21.3731   77.1832 N   0  0  0  0  0  0  0  0  0  0  0  0
   27.5660   22.3688   77.3567 C   0  0  0  0  0  0  0  0  0  0  0  0
   28.8324   22.1320   77.6870 N   0  0  0  0  0  0  0  0  0  0  0  0
   29.2916   20.8765   77.8380 C   0  0  0  0  0  0  0  0  0  0  0  0
   28.4053   19.7823   77.6499 C   0  0  0  0  0  0  0  0  0  0  0  0
   27.0533   20.0827   77.3088 C   0  0  0  0  0  0  0  0  0  0  0  0
   26.1318   19.0736   77.1006 N   0  0  0  0  0  0  0  0  0  0  0  0
   29.1174   18.6498   77.8527 N   0  0  0  0  0  0  0  0  0  0  0  0
   30.3469   18.9639   78.1417 C   0  0  0  0  0  0  0  0  0  0  0  0
   30.5047   20.3281   78.1457 N   0  0  0  0  0  0  0  0  0  0  0  0
  2  1  1  6  0  0  0
  2  3  1  0  0  0  0
  2  5  1  0  0  0  0
  3  4  1  0  0  0  0
  3 17  1  0  0  0  0
  5  6  1  0  0  0  0
  7  6  1  1  0  0  0
  7  8  1  0  0  0  0
  7  9  1  0  0  0  0
 10  9  1  1  0  0  0
 10 11  1  0  0  0  0
 10 12  1  0  0  0  0
 11 16  1  0  0  0  0
 12 13  1  6  0  0  0
 12 14  1  0  0  0  0
 14 15  1  6  0  0  0
 14 16  1  0  0  0  0
 16 27  1  1  0  0  0
 18 19  2  0  0  0  0
 18 23  1  0  0  0  0
 19 20  1  0  0  0  0
 20 21  2  0  0  0  0
 21 22  1  0  0  0  0
 21 27  1  0  0  0  0
 22 23  2  0  0  0  0
 22 25  1  0  0  0  0
 23 24  1  0  0  0  0
 25 26  2  0  0  0  0
 26 27  1  0  0  0  0
M  END
>  <CHROM.1>
-41.69411213,-174.69385828,-168.09806747,-76.60354134,-130.45105071,171.88672745
153.88651821,33.14906841,20.82877202,79.76976504,-0.09340991,0.38035929,-2.78624364

>  <Name>
ligand

>  <RI>
0

>  <Rbt.Current_Directory>
/home/itssahil/PROJECTS/Mol_Feturizer/New_Systems/rnas/2QWY

>  <Rbt.Executable>
rbdock ($Id: //depot/dev/client3/rdock/2013.1/src/exe/rbdock.cxx#4 $)

>  <Rbt.Library>
libRbt.so (2013.1, Build901 2013/11/27)

>  <Rbt.Parameter_File>
/export/apps/rDock/src/rDock_2013.1_src/data/scripts/dock_solv.prm

>  <Rbt.Receptor>
prm/pocket_docking_8.prm

>  <SCORE>
-25.8068

>  <SCORE.INTER>
-23.9687

>  <SCORE.INTER.CONST>
1

>  <SCORE.INTER.POLAR>
0

>  <SCORE.INTER.ROT>
7

>  <SCORE.INTER.SOLV>
16.035

>  <SCORE.INTER.VDW>
-29.5908

>  <SCORE.INTER.norm>
-0.887731

>  <SCORE.INTRA>
-1.83803

>  <SCORE.INTRA.DIHEDRAL>
-2.21056

>  <SCORE.INTRA.DIHEDRAL.0>
10.7382

>  <SCORE.INTRA.POLAR>
0

>  <SCORE.INTRA.POLAR.0>
0

>  <SCORE.INTRA.REPUL>
0

>  <SCORE.INTRA.REPUL.0>
0

>  <SCORE.INTRA.SOLV>
-0.944131

>  <SCORE.INTRA.SOLV.lig_0>
-49.2501

>  <SCORE.INTRA.VDW>
-0.260689

>  <SCORE.INTRA.VDW.0>
-1.75368

>  <SCORE.INTRA.norm>
-0.0680753

>  <SCORE.RESTR>
0

>  <SCORE.RESTR.CAVITY>
0

>  <SCORE.RESTR.norm>
0

>  <SCORE.SYSTEM>
0

>  <SCORE.SYSTEM.CONST>
0

>  <SCORE.SYSTEM.DIHEDRAL>
0

>  <SCORE.SYSTEM.SOLV>
0

>  <SCORE.SYSTEM.norm>
0

>  <SCORE.heavy>
27

>  <SCORE.norm>
-0.955807

>  <RMSD>
5.844

$$$$
ligand
 OpenBabel11021811463D
libRbt.so/2013.1/901 2013/11/27
 27 29  0  0  0  0  0  0  0  0999 V2000
   35.0677   23.6494   77.7278 N   0  0  0  0  0  0  0  0  0  0  0  0
   34.2707   23.4888   78.9565 C   0  0  2  0  0  0  0  0  0  0  0  0
   33.7525   24.8341   79.4209 C   0  0  0  0  0  0  0  0  0  0  0  0
   34.4413   25.5402   80.1645 O   0  0  0  0  0  0  0  0  0  0  0  0
   35.1525   22.8942   80.0498 C   0  0  0  0  0  0  0  0  0  0  0  0
   34.4288   22.9055   81.3793 C   0  0  0  0  0  0  0  0  0  0  0  0
   33.0112   21.8019   81.2454 S   0  0  2  0  0  0  0  0  0  0  0  0
   32.3678   21.9784   82.9326 C   0  0  0  0  0  0  0  0  0  0  0  0
   33.8346   20.1777   81.3707 C   0  0  0  0  0  0  0  0  0  0  0  0
   33.6054   19.4097   80.0718 C   0  0  1  0  0  0  0  0  0  0  0  0
   32.2158   19.3454   79.8505 O   0  0  0  0  0  0  0  0  0  0  0  0
   34.1932   20.1530   78.8674 C   0  0  1  0  0  0  0  0  0  0  0  0
   35.5530   19.9221   78.4677 O   0  0  0  0  0  0  0  0  0  0  0  0
   33.1223   19.9333   77.7479 C   0  0  1  0  0  0  0  0  0  0  0  0
   33.8005   19.5159   76.5507 O   0  0  0  0  0  0  0  0  0  0  0  0
   32.0273   19.0716   78.4712 C   0  0  2  0  0  0  0  0  0  0  0  0
   32.6827   25.2486   79.0012 O   0  0  0  0  0  0  0  0  0  0  0  0
   28.6198   22.9604   77.8625 N   0  0  0  0  0  0  0  0  0  0  0  0
   29.9043   23.0271   78.2307 C   0  0  0  0  0  0  0  0  0  0  0  0
   30.6489   21.9328   78.3614 N   0  0  0  0  0  0  0  0  0  0  0  0
   30.1462   20.7114   78.1055 C   0  0  0  0  0  0  0  0  0  0  0  0
   28.7915   20.5864   77.6963 C   0  0  0  0  0  0  0  0  0  0  0  0
   28.0265   21.7848   77.5813 C   0  0  0  0  0  0  0  0  0  0  0  0
   26.7041   21.7480   77.1803 N   0  0  0  0  0  0  0  0  0  0  0  0
   28.5511   19.2693   77.5014 N   0  0  0  0  0  0  0  0  0  0  0  0
   29.6356   18.5950   77.7531 C   0  0  0  0  0  0  0  0  0  0  0  0
   30.6491   19.4413   78.1309 N   0  0  0  0  0  0  0  0  0  0  0  0
  2  1  1  6  0  0  0
  2  3  1  0  0  0  0
  2  5  1  0  0  0  0
  3  4  1  0  0  0  0
  3 17  1  0  0  0  0
  5  6  1  0  0  0  0
  7  6  1  1  0  0  0
  7  8  1  0  0  0  0
  7  9  1  0  0  0  0
 10  9  1  1  0  0  0
 10 11  1  0  0  0  0
 10 12  1  0  0  0  0
 11 16  1  0  0  0  0
 12 13  1  6  0  0  0
 12 14  1  0  0  0  0
 14 15  1  6  0  0  0
 14 16  1  0  0  0  0
 16 27  1  6  0  0  0
 18 19  2  0  0  0  0
 18 23  1  0  0  0  0
 19 20  1  0  0  0  0
 20 21  2  0  0  0  0
 21 22  1  0  0  0  0
 21 27  1  0  0  0  0
 22 23  2  0  0  0  0
 22 25  1  0  0  0  0
 23 24  1  0  0  0  0
 25 26  2  0  0  0  0
 26 27  1  0  0  0  0
M  END
>  <CHROM.1>
-87.57197444,171.62067254,65.01415063,178.99544282,-117.53432290,-55.31318153
68.08452898,32.17747356,21.51630716,79.05518551,0.43440479,-0.35491819,0.17160356

>  <Name>
ligand

>  <RI>
0

>  <Rbt.Current_Directory>
/home/itssahil/PROJECTS/Mol_Feturizer/New_Systems/rnas/2QWY

>  <Rbt.Executable>
rbdock ($Id: //depot/dev/client3/rdock/2013.1/src/exe/rbdock.cxx#4 $)

>  <Rbt.Library>
libRbt.so (2013.1, Build901 2013/11/27)

>  <Rbt.Parameter_File>
/export/apps/rDock/src/rDock_2013.1_src/data/scripts/dock_solv.prm

>  <Rbt.Receptor>
prm/pocket_docking_6.prm

>  <SCORE>
-25.9387

>  <SCORE.INTER>
-24.0555

>  <SCORE.INTER.CONST>
1

>  <SCORE.INTER.POLAR>
0

>  <SCORE.INTER.ROT>
7

>  <SCORE.INTER.SOLV>
14.7388

>  <SCORE.INTER.VDW>
-29.2166

>  <SCORE.INTER.norm>
-0.890946

>  <SCORE.INTRA>
-1.88316

>  <SCORE.INTRA.DIHEDRAL>
-3.19997

>  <SCORE.INTRA.DIHEDRAL.0>
10.7382

>  <SCORE.INTRA.POLAR>
0

>  <SCORE.INTRA.POLAR.0>
0

>  <SCORE.INTRA.REPUL>
0

>  <SCORE.INTRA.REPUL.0>
0

>  <SCORE.INTRA.SOLV>
0.935906

>  <SCORE.INTRA.SOLV.lig_0>
-49.2501

>  <SCORE.INTRA.VDW>
-0.751126

>  <SCORE.INTRA.VDW.0>
-1.75368

>  <SCORE.INTRA.norm>
-0.0697465

>  <SCORE.RESTR>
0

>  <SCORE.RESTR.CAVITY>
0

>  <SCORE.RESTR.norm>
0

>  <SCORE.SYSTEM>
0

>  <SCORE.SYSTEM.CONST>
0

>  <SCORE.SYSTEM.DIHEDRAL>
0

>  <SCORE.SYSTEM.SOLV>
0

>  <SCORE.SYSTEM.norm>
0

>  <SCORE.heavy>
27

>  <SCORE.norm>
-0.960693

>  <RMSD>
5.848

$$$$
ligand
 OpenBabel11021811463D
libRbt.so/2013.1/901 2013/11/27
 27 29  0  0  0  0  0  0  0  0999 V2000
   36.6348   12.7515   70.5900 N   0  0  0  0  0  0  0  0  0  0  0  0
   35.3712   13.5090   70.5716 C   0  0  2  0  0  0  0  0  0  0  0  0
   34.5375   13.1028   69.3742 C   0  0  0  0  0  0  0  0  0  0  0  0
   34.9282   12.2025   68.6241 O   0  0  0  0  0  0  0  0  0  0  0  0
   35.6832   14.9989   70.4746 C   0  0  0  0  0  0  0  0  0  0  0  0
   36.1508   15.5308   71.8125 C   0  0  0  0  0  0  0  0  0  0  0  0
   36.2958   17.3211   71.6743 S   0  0  2  0  0  0  0  0  0  0  0  0
   38.1016   17.4392   71.5441 C   0  0  0  0  0  0  0  0  0  0  0  0
   36.0540   17.8149   73.4148 C   0  0  0  0  0  0  0  0  0  0  0  0
   35.9231   19.3341   73.4804 C   0  0  1  0  0  0  0  0  0  0  0  0
   35.2754   19.6576   74.6887 O   0  0  0  0  0  0  0  0  0  0  0  0
   37.2948   20.0150   73.5385 C   0  0  1  0  0  0  0  0  0  0  0  0
   37.9739   20.3791   72.3267 O   0  0  0  0  0  0  0  0  0  0  0  0
   37.0774   21.1821   74.5578 C   0  0  1  0  0  0  0  0  0  0  0  0
   37.6197   22.3857   73.9878 O   0  0  0  0  0  0  0  0  0  0  0  0
   35.5707   21.0171   74.9670 C   0  0  2  0  0  0  0  0  0  0  0  0
   33.4453   13.6194   69.1934 O   0  0  0  0  0  0  0  0  0  0  0  0
   32.6420   19.7399   79.0774 N   0  0  0  0  0  0  0  0  0  0  0  0
   32.5615   19.2841   77.8222 C   0  0  0  0  0  0  0  0  0  0  0  0
   33.3770   19.7240   76.8680 N   0  0  0  0  0  0  0  0  0  0  0  0
   34.3347   20.6314   77.1315 C   0  0  0  0  0  0  0  0  0  0  0  0
   34.4726   21.1365   78.4521 C   0  0  0  0  0  0  0  0  0  0  0  0
   33.5690   20.6464   79.4409 C   0  0  0  0  0  0  0  0  0  0  0  0
   33.6441   21.0821   80.7506 N   0  0  0  0  0  0  0  0  0  0  0  0
   35.5013   22.0153   78.4401 N   0  0  0  0  0  0  0  0  0  0  0  0
   35.9933   22.0812   77.2369 C   0  0  0  0  0  0  0  0  0  0  0  0
   35.3059   21.2449   76.3918 N   0  0  0  0  0  0  0  0  0  0  0  0
  2  1  1  6  0  0  0
  2  3  1  0  0  0  0
  2  5  1  0  0  0  0
  3  4  1  0  0  0  0
  3 17  1  0  0  0  0
  5  6  1  0  0  0  0
  7  6  1  1  0  0  0
  7  8  1  0  0  0  0
  7  9  1  0  0  0  0
 10  9  1  1  0  0  0
 10 11  1  0  0  0  0
 10 12  1  0  0  0  0
 11 16  1  0  0  0  0
 12 13  1  6  0  0  0
 12 14  1  0  0  0  0
 14 15  1  6  0  0  0
 14 16  1  0  0  0  0
 16 27  1  1  0  0  0
 18 19  2  0  0  0  0
 18 23  1  0  0  0  0
 19 20  1  0  0  0  0
 20 21  2  0  0  0  0
 21 22  1  0  0  0  0
 21 27  1  0  0  0  0
 22 23  2  0  0  0  0
 22 25  1  0  0  0  0
 23 24  1  0  0  0  0
 25 26  2  0  0  0  0
 26 27  1  0  0  0  0
M  END
>  <CHROM.1>
3.38769170,-76.27663145,-172.89722453,-103.57054016,-171.17644619,159.19095917
-33.07005968,35.46824212,18.39648026,74.05939844,1.45238234,-0.76215958,-2.38091145

>  <Name>
ligand

>  <RI>
0

>  <Rbt.Current_Directory>
/home/itssahil/PROJECTS/Mol_Feturizer/New_Systems/rnas/2QWY

>  <Rbt.Executable>
rbdock ($Id: //depot/dev/client3/rdock/2013.1/src/exe/rbdock.cxx#4 $)

>  <Rbt.Library>
libRbt.so (2013.1, Build901 2013/11/27)

>  <Rbt.Parameter_File>
/export/apps/rDock/src/rDock_2013.1_src/data/scripts/dock_solv.prm

>  <Rbt.Receptor>
prm/pocket_docking_6.prm

>  <SCORE>
-12.2354

>  <SCORE.INTER>
-11.2406

>  <SCORE.INTER.CONST>
1

>  <SCORE.INTER.POLAR>
0

>  <SCORE.INTER.ROT>
7

>  <SCORE.INTER.SOLV>
8.94054

>  <SCORE.INTER.VDW>
-18.7406

>  <SCORE.INTER.norm>
-0.416319

>  <SCORE.INTRA>
-0.994795

>  <SCORE.INTRA.DIHEDRAL>
-1.32605

>  <SCORE.INTRA.DIHEDRAL.0>
10.7382

>  <SCORE.INTRA.POLAR>
0

>  <SCORE.INTRA.POLAR.0>
0

>  <SCORE.INTRA.REPUL>
0

>  <SCORE.INTRA.REPUL.0>
0

>  <SCORE.INTRA.SOLV>
-0.307346

>  <SCORE.INTRA.SOLV.lig_0>
-49.2501

>  <SCORE.INTRA.VDW>
-0.1781

>  <SCORE.INTRA.VDW.0>
-1.75368

>  <SCORE.INTRA.norm>
-0.0368443

>  <SCORE.RESTR>
0

>  <SCORE.RESTR.CAVITY>
0

>  <SCORE.RESTR.norm>
0

>  <SCORE.SYSTEM>
0

>  <SCORE.SYSTEM.CONST>
0

>  <SCORE.SYSTEM.DIHEDRAL>
0

>  <SCORE.SYSTEM.SOLV>
0

>  <SCORE.SYSTEM.norm>
0

>  <SCORE.heavy>
27

>  <SCORE.norm>
-0.453163

>  <RMSD>
5.870

$$$$
ligand
 OpenBabel11021811463D
libRbt.so/2013.1/901 2013/11/27
 27 29  0  0  0  0  0  0  0  0999 V2000
   36.3659   19.2156   75.5748 N   0  0  0  0  0  0  0  0  0  0  0  0
   35.4488   20.3681   75.5356 C   0  0  2  0  0  0  0  0  0  0  0  0
   36.2186   21.6364   75.2311 C   0  0  0  0  0  0  0  0  0  0  0  0
   35.6474   22.7311   75.2653 O   0  0  0  0  0  0  0  0  0  0  0  0
   34.7719   20.5144   76.8945 C   0  0  0  0  0  0  0  0  0  0  0  0
   33.7333   19.4305   77.0889 C   0  0  0  0  0  0  0  0  0  0  0  0
   32.7246   19.8815   78.5118 S   0  0  2  0  0  0  0  0  0  0  0  0
   31.4004   18.6585   78.3061 C   0  0  0  0  0  0  0  0  0  0  0  0
   31.8966   21.3795   77.8777 C   0  0  0  0  0  0  0  0  0  0  0  0
   32.3203   22.5726   78.7301 C   0  0  1  0  0  0  0  0  0  0  0  0
   31.8164   22.3720   80.0301 O   0  0  0  0  0  0  0  0  0  0  0  0
   33.8442   22.6494   78.8726 C   0  0  1  0  0  0  0  0  0  0  0  0
   34.6248   23.3798   77.9138 O   0  0  0  0  0  0  0  0  0  0  0  0
   34.0477   23.0778   80.3638 C   0  0  1  0  0  0  0  0  0  0  0  0
   34.9943   24.1597   80.3971 O   0  0  0  0  0  0  0  0  0  0  0  0
   32.5773   23.1933   80.9016 C   0  0  2  0  0  0  0  0  0  0  0  0
   37.4209   21.5795   75.0214 O   0  0  0  0  0  0  0  0  0  0  0  0
   29.7650   23.4591   85.2747 N   0  0  0  0  0  0  0  0  0  0  0  0
   29.6203   24.1627   84.1461 C   0  0  0  0  0  0  0  0  0  0  0  0
   30.4371   23.9932   83.1102 N   0  0  0  0  0  0  0  0  0  0  0  0
   31.4317   23.0879   83.1461 C   0  0  0  0  0  0  0  0  0  0  0  0
   31.6191   22.3036   84.3157 C   0  0  0  0  0  0  0  0  0  0  0  0
   30.7281   22.5273   85.4068 C   0  0  0  0  0  0  0  0  0  0  0  0
   30.8394   21.7987   86.5762 N   0  0  0  0  0  0  0  0  0  0  0  0
   32.6680   21.4811   84.0833 N   0  0  0  0  0  0  0  0  0  0  0  0
   33.1236   21.6978   82.8836 C   0  0  0  0  0  0  0  0  0  0  0  0
   32.3933   22.6823   82.2643 N   0  0  0  0  0  0  0  0  0  0  0  0
  2  1  1  1  0  0  0
  2  3  1  0  0  0  0
  2  5  1  0  0  0  0
  3  4  1  0  0  0  0
  3 17  1  0  0  0  0
  5  6  1  0  0  0  0
  7  6  1  6  0  0  0
  7  8  1  0  0  0  0
  7  9  1  0  0  0  0
 10  9  1  6  0  0  0
 10 11  1  0  0  0  0
 10 12  1  0  0  0  0
 11 16  1  0  0  0  0
 12 13  1  6  0  0  0
 12 14  1  0  0  0  0
 14 15  1  6  0  0  0
 14 16  1  0  0  0  0
 16 27  1  1  0  0  0
 18 19  2  0  0  0  0
 18 23  1  0  0  0  0
 19 20  1  0  0  0  0
 20 21  2  0  0  0  0
 21 22  1  0  0  0  0
 21 27  1  0  0  0  0
 22 23  2  0  0  0  0
 22 25  1  0  0  0  0
 23 24  1  0  0  0  0
 25 26  2  0  0  0  0
 26 27  1  0  0  0  0
M  END
>  <CHROM.1>
-173.93452522,-73.51429984,-167.04351804,168.70378330,-116.96054442,-65.55384041
-91.06855420,33.10340968,21.89213171,79.93864207,0.81649282,-0.84435548,-2.40392277

>  <Name>
ligand

>  <RI>
0

>  <Rbt.Current_Directory>
/home/itssahil/PROJECTS/Mol_Feturizer/New_Systems/rnas/2QWY

>  <Rbt.Executable>
rbdock ($Id: //depot/dev/client3/rdock/2013.1/src/exe/rbdock.cxx#4 $)

>  <Rbt.Library>
libRbt.so (2013.1, Build901 2013/11/27)

>  <Rbt.Parameter_File>
/export/apps/rDock/src/rDock_2013.1_src/data/scripts/dock_solv.prm

>  <Rbt.Receptor>
prm/pocket_docking_8.prm

>  <SCORE>
-15.1857

>  <SCORE.INTER>
-13.9654

>  <SCORE.INTER.CONST>
1

>  <SCORE.INTER.POLAR>
0

>  <SCORE.INTER.ROT>
7

>  <SCORE.INTER.SOLV>
10.144

>  <SCORE.INTER.VDW>
-20.9583

>  <SCORE.INTER.norm>
-0.517237

>  <SCORE.INTRA>
-1.22029

>  <SCORE.INTRA.DIHEDRAL>
-2.31766

>  <SCORE.INTRA.DIHEDRAL.0>
10.7382

>  <SCORE.INTRA.POLAR>
0

>  <SCORE.INTRA.POLAR.0>
0

>  <SCORE.INTRA.REPUL>
0

>  <SCORE.INTRA.REPUL.0>
0

>  <SCORE.INTRA.SOLV>
0.148805

>  <SCORE.INTRA.SOLV.lig_0>
-49.2501

>  <SCORE.INTRA.VDW>
-0.135862

>  <SCORE.INTRA.VDW.0>
-1.75368

>  <SCORE.INTRA.norm>
-0.0451959

>  <SCORE.RESTR>
0

>  <SCORE.RESTR.CAVITY>
0

>  <SCORE.RESTR.norm>
0

>  <SCORE.SYSTEM>
0

>  <SCORE.SYSTEM.CONST>
0

>  <SCORE.SYSTEM.DIHEDRAL>
0

>  <SCORE.SYSTEM.SOLV>
0

>  <SCORE.SYSTEM.norm>
0

>  <SCORE.heavy>
27

>  <SCORE.norm>
-0.562433

>  <RMSD>
5.893

$$$$
ligand
 OpenBabel11021811463D
libRbt.so/2013.1/901 2013/11/27
 27 29  0  0  0  0  0  0  0  0999 V2000
   36.3374   19.2062   75.7321 N   0  0  0  0  0  0  0  0  0  0  0  0
   35.4917   20.4124   75.7040 C   0  0  2  0  0  0  0  0  0  0  0  0
   36.3474   21.6438   75.4914 C   0  0  0  0  0  0  0  0  0  0  0  0
   35.8165   22.7497   75.3468 O   0  0  0  0  0  0  0  0  0  0  0  0
   34.7614   20.5416   77.0367 C   0  0  0  0  0  0  0  0  0  0  0  0
   33.6588   19.5094   77.1394 C   0  0  0  0  0  0  0  0  0  0  0  0
   32.6199   19.9494   78.5438 S   0  0  2  0  0  0  0  0  0  0  0  0
   31.2750   18.7629   78.2704 C   0  0  0  0  0  0  0  0  0  0  0  0
   31.8446   21.4811   77.9237 C   0  0  0  0  0  0  0  0  0  0  0  0
   32.2885   22.6468   78.8033 C   0  0  1  0  0  0  0  0  0  0  0  0
   31.7925   22.4181   80.1017 O   0  0  0  0  0  0  0  0  0  0  0  0
   33.8142   22.7029   78.9355 C   0  0  1  0  0  0  0  0  0  0  0  0
   34.5956   23.4492   77.9897 O   0  0  0  0  0  0  0  0  0  0  0  0
   34.0342   23.0899   80.4355 C   0  0  1  0  0  0  0  0  0  0  0  0
   34.9932   24.1600   80.4892 O   0  0  0  0  0  0  0  0  0  0  0  0
   32.5694   23.2078   80.9880 C   0  0  2  0  0  0  0  0  0  0  0  0
   37.5648   21.5501   75.5340 O   0  0  0  0  0  0  0  0  0  0  0  0
   29.7296   23.3155   85.3502 N   0  0  0  0  0  0  0  0  0  0  0  0
   29.5746   24.0397   84.2361 C   0  0  0  0  0  0  0  0  0  0  0  0
   30.4003   23.9112   83.2013 N   0  0  0  0  0  0  0  0  0  0  0  0
   31.4152   23.0282   83.2234 C   0  0  0  0  0  0  0  0  0  0  0  0
   31.6146   22.2234   84.3770 C   0  0  0  0  0  0  0  0  0  0  0  0
   30.7131   22.4033   85.4676 C   0  0  0  0  0  0  0  0  0  0  0  0
   30.8352   21.6523   86.6218 N   0  0  0  0  0  0  0  0  0  0  0  0
   32.6831   21.4301   84.1329 N   0  0  0  0  0  0  0  0  0  0  0  0
   33.1398   21.6830   82.9406 C   0  0  0  0  0  0  0  0  0  0  0  0
   32.3903   22.6637   82.3385 N   0  0  0  0  0  0  0  0  0  0  0  0
  2  1  1  1  0  0  0
  2  3  1  0  0  0  0
  2  5  1  0  0  0  0
  3  4  1  0  0  0  0
  3 17  1  0  0  0  0
  5  6  1  0  0  0  0
  7  6  1  6  0  0  0
  7  8  1  0  0  0  0
  7  9  1  0  0  0  0
 10  9  1  6  0  0  0
 10 11  1  0  0  0  0
 10 12  1  0  0  0  0
 11 16  1  0  0  0  0
 12 13  1  6  0  0  0
 12 14  1  0  0  0  0
 14 15  1  6  0  0  0
 14 16  1  0  0  0  0
 16 27  1  1  0  0  0
 18 19  2  0  0  0  0
 18 23  1  0  0  0  0
 19 20  1  0  0  0  0
 20 21  2  0  0  0  0
 21 22  1  0  0  0  0
 21 27  1  0  0  0  0
 22 23  2  0  0  0  0
 22 25  1  0  0  0  0
 23 24  1  0  0  0  0
 25 26  2  0  0  0  0
 26 27  1  0  0  0  0
M  END
>  <CHROM.1>
175.07479588,-73.17812431,-167.57989796,171.03942282,-116.04819213,-63.82230085
-88.95624150,33.09293496,21.89180689,80.03443072,0.84734967,-0.79059428,-2.33936269

>  <Name>
ligand

>  <RI>
0

>  <Rbt.Current_Directory>
/home/itssahil/PROJECTS/Mol_Feturizer/New_Systems/rnas/2QWY

>  <Rbt.Executable>
rbdock ($Id: //depot/dev/client3/rdock/2013.1/src/exe/rbdock.cxx#4 $)

>  <Rbt.Library>
libRbt.so (2013.1, Build901 2013/11/27)

>  <Rbt.Parameter_File>
/export/apps/rDock/src/rDock_2013.1_src/data/scripts/dock_solv.prm

>  <Rbt.Receptor>
prm/pocket_docking_8.prm

>  <SCORE>
-15.1816

>  <SCORE.INTER>
-13.5845

>  <SCORE.INTER.CONST>
1

>  <SCORE.INTER.POLAR>
0

>  <SCORE.INTER.ROT>
7

>  <SCORE.INTER.SOLV>
10.7505

>  <SCORE.INTER.VDW>
-20.9065

>  <SCORE.INTER.norm>
-0.503131

>  <SCORE.INTRA>
-1.59702

>  <SCORE.INTRA.DIHEDRAL>
-2.61878

>  <SCORE.INTRA.DIHEDRAL.0>
10.7382

>  <SCORE.INTRA.POLAR>
0

>  <SCORE.INTRA.POLAR.0>
0

>  <SCORE.INTRA.REPUL>
0

>  <SCORE.INTRA.REPUL.0>
0

>  <SCORE.INTRA.SOLV>
0.145473

>  <SCORE.INTRA.SOLV.lig_0>
-49.2501

>  <SCORE.INTRA.VDW>
-0.360372

>  <SCORE.INTRA.VDW.0>
-1.75368

>  <SCORE.INTRA.norm>
-0.059149

>  <SCORE.RESTR>
0

>  <SCORE.RESTR.CAVITY>
0

>  <SCORE.RESTR.norm>
0

>  <SCORE.SYSTEM>
0

>  <SCORE.SYSTEM.CONST>
0

>  <SCORE.SYSTEM.DIHEDRAL>
0

>  <SCORE.SYSTEM.SOLV>
0

>  <SCORE.SYSTEM.norm>
0

>  <SCORE.heavy>
27

>  <SCORE.norm>
-0.56228

>  <RMSD>
5.951

$$$$
ligand
 OpenBabel11021811463D
libRbt.so/2013.1/901 2013/11/27
 27 29  0  0  0  0  0  0  0  0999 V2000
   35.5238   24.5218   82.2745 N   0  0  0  0  0  0  0  0  0  0  0  0
   35.7952   23.9341   80.9510 C   0  0  2  0  0  0  0  0  0  0  0  0
   37.2875   23.7717   80.7492 C   0  0  0  0  0  0  0  0  0  0  0  0
   37.7187   22.8922   79.9966 O   0  0  0  0  0  0  0  0  0  0  0  0
   35.2480   24.8616   79.8708 C   0  0  0  0  0  0  0  0  0  0  0  0
   33.7343   24.8511   79.8800 C   0  0  0  0  0  0  0  0  0  0  0  0
   33.1879   23.3460   79.0545 S   0  0  2  0  0  0  0  0  0  0  0  0
   31.3960   23.5937   79.1941 C   0  0  0  0  0  0  0  0  0  0  0  0
   33.4589   22.1178   80.3772 C   0  0  0  0  0  0  0  0  0  0  0  0
   33.4854   20.7243   79.7551 C   0  0  1  0  0  0  0  0  0  0  0  0
   32.1558   20.2675   79.6681 O   0  0  0  0  0  0  0  0  0  0  0  0
   34.0171   20.7596   78.3183 C   0  0  1  0  0  0  0  0  0  0  0  0
   35.4238   20.6238   78.0636 O   0  0  0  0  0  0  0  0  0  0  0  0
   33.1016   19.7365   77.5677 C   0  0  1  0  0  0  0  0  0  0  0  0
   33.9413   18.8643   76.7919 O   0  0  0  0  0  0  0  0  0  0  0  0
   32.1349   19.2328   78.6975 C   0  0  2  0  0  0  0  0  0  0  0  0
   38.0591   24.5579   81.2775 O   0  0  0  0  0  0  0  0  0  0  0  0
   27.7177   21.6014   77.2897 N   0  0  0  0  0  0  0  0  0  0  0  0
   28.8775   22.1536   77.6637 C   0  0  0  0  0  0  0  0  0  0  0  0
   29.9218   21.4089   78.0158 N   0  0  0  0  0  0  0  0  0  0  0  0
   29.8622   20.0651   77.9882 C   0  0  0  0  0  0  0  0  0  0  0  0
   28.6583   19.4285   77.5837 C   0  0  0  0  0  0  0  0  0  0  0  0
   27.5600   20.2656   77.2268 C   0  0  0  0  0  0  0  0  0  0  0  0
   26.3574   19.7229   76.8143 N   0  0  0  0  0  0  0  0  0  0  0  0
   28.8721   18.0936   77.6395 N   0  0  0  0  0  0  0  0  0  0  0  0
   30.0916   17.8722   78.0368 C   0  0  0  0  0  0  0  0  0  0  0  0
   30.7438   19.0589   78.2657 N   0  0  0  0  0  0  0  0  0  0  0  0
  2  1  1  1  0  0  0
  2  3  1  0  0  0  0
  2  5  1  0  0  0  0
  3  4  1  0  0  0  0
  3 17  1  0  0  0  0
  5  6  1  0  0  0  0
  7  6  1  1  0  0  0
  7  8  1  0  0  0  0
  7  9  1  0  0  0  0
 10  9  1  6  0  0  0
 10 11  1  0  0  0  0
 10 12  1  0  0  0  0
 11 16  1  0  0  0  0
 12 13  1  1  0  0  0
 12 14  1  0  0  0  0
 14 15  1  1  0  0  0
 14 16  1  0  0  0  0
 16 27  1  6  0  0  0
 18 19  2  0  0  0  0
 18 23  1  0  0  0  0
 19 20  1  0  0  0  0
 20 21  2  0  0  0  0
 21 22  1  0  0  0  0
 21 27  1  0  0  0  0
 22 23  2  0  0  0  0
 22 25  1  0  0  0  0
 23 24  1  0  0  0  0
 25 26  2  0  0  0  0
 26 27  1  0  0  0  0
M  END
>  <CHROM.1>
152.88933460,-70.07403331,-78.22718245,-179.58472280,-161.95533421,-85.88164884
43.09063709,32.54050125,21.54751609,78.88772591,0.56968669,-0.18572668,0.35295336

>  <Name>
ligand

>  <RI>
0

>  <Rbt.Current_Directory>
/home/itssahil/PROJECTS/Mol_Feturizer/New_Systems/rnas/2QWY

>  <Rbt.Executable>
rbdock ($Id: //depot/dev/client3/rdock/2013.1/src/exe/rbdock.cxx#4 $)

>  <Rbt.Library>
libRbt.so (2013.1, Build901 2013/11/27)

>  <Rbt.Parameter_File>
/export/apps/rDock/src/rDock_2013.1_src/data/scripts/dock_solv.prm

>  <Rbt.Receptor>
prm/pocket_docking_6.prm

>  <SCORE>
-23.4803

>  <SCORE.INTER>
-23.4122

>  <SCORE.INTER.CONST>
1

>  <SCORE.INTER.POLAR>
0

>  <SCORE.INTER.ROT>
7

>  <SCORE.INTER.SOLV>
12.1878

>  <SCORE.INTER.VDW>
-27.9374

>  <SCORE.INTER.norm>
-0.867118

>  <SCORE.INTRA>
-0.0681559

>  <SCORE.INTRA.DIHEDRAL>
-2.03572

>  <SCORE.INTRA.DIHEDRAL.0>
10.7382

>  <SCORE.INTRA.POLAR>
0

>  <SCORE.INTRA.POLAR.0>
0

>  <SCORE.INTRA.REPUL>
0

>  <SCORE.INTRA.REPUL.0>
0

>  <SCORE.INTRA.SOLV>
0.938773

>  <SCORE.INTRA.SOLV.lig_0>
-49.2501

>  <SCORE.INTRA.VDW>
0.480319

>  <SCORE.INTRA.VDW.0>
-1.75368

>  <SCORE.INTRA.norm>
-0.00252429

>  <SCORE.RESTR>
0

>  <SCORE.RESTR.CAVITY>
0

>  <SCORE.RESTR.norm>
0

>  <SCORE.SYSTEM>
0

>  <SCORE.SYSTEM.CONST>
0

>  <SCORE.SYSTEM.DIHEDRAL>
0

>  <SCORE.SYSTEM.SOLV>
0

>  <SCORE.SYSTEM.norm>
0

>  <SCORE.heavy>
27

>  <SCORE.norm>
-0.869642

>  <RMSD>
5.955

$$$$
ligand
 OpenBabel11021811463D
libRbt.so/2013.1/901 2013/11/27
 27 29  0  0  0  0  0  0  0  0999 V2000
   37.4240   21.9610   80.6848 N   0  0  0  0  0  0  0  0  0  0  0  0
   36.2604   21.1989   81.1705 C   0  0  2  0  0  0  0  0  0  0  0  0
   36.5716   20.5729   82.5141 C   0  0  0  0  0  0  0  0  0  0  0  0
   35.7402   20.6191   83.4265 O   0  0  0  0  0  0  0  0  0  0  0  0
   35.9361   20.0921   80.1724 C   0  0  0  0  0  0  0  0  0  0  0  0
   35.1555   20.6473   79.0003 C   0  0  0  0  0  0  0  0  0  0  0  0
   35.0109   19.3430   77.7660 S   0  0  2  0  0  0  0  0  0  0  0  0
   36.2125   19.9729   76.5615 C   0  0  0  0  0  0  0  0  0  0  0  0
   33.4459   19.8173   76.9552 C   0  0  0  0  0  0  0  0  0  0  0  0
   32.2927   19.5459   77.9175 C   0  0  1  0  0  0  0  0  0  0  0  0
   31.4554   20.6786   77.9146 O   0  0  0  0  0  0  0  0  0  0  0  0
   31.4255   18.3758   77.4407 C   0  0  1  0  0  0  0  0  0  0  0  0
   31.7402   17.0325   77.8390 O   0  0  0  0  0  0  0  0  0  0  0  0
   29.9698   18.8455   77.7702 C   0  0  1  0  0  0  0  0  0  0  0  0
   29.2891   17.7697   78.4388 O   0  0  0  0  0  0  0  0  0  0  0  0
   30.1921   20.2624   78.4086 C   0  0  2  0  0  0  0  0  0  0  0  0
   37.6178   19.9614   82.6695 O   0  0  0  0  0  0  0  0  0  0  0  0
   25.4996   21.1133   76.3203 N   0  0  0  0  0  0  0  0  0  0  0  0
   26.1179   19.9464   76.5346 C   0  0  0  0  0  0  0  0  0  0  0  0
   27.3362   19.8910   77.0655 N   0  0  0  0  0  0  0  0  0  0  0  0
   27.9899   21.0085   77.4314 C   0  0  0  0  0  0  0  0  0  0  0  0
   27.3714   22.2729   77.2394 C   0  0  0  0  0  0  0  0  0  0  0  0
   26.0700   22.2861   76.6556 C   0  0  0  0  0  0  0  0  0  0  0  0
   25.3980   23.4754   76.4441 N   0  0  0  0  0  0  0  0  0  0  0  0
   28.2315   23.2134   77.6936 N   0  0  0  0  0  0  0  0  0  0  0  0
   29.3052   22.6300   78.1417 C   0  0  0  0  0  0  0  0  0  0  0  0
   29.2045   21.2676   78.0010 N   0  0  0  0  0  0  0  0  0  0  0  0
  2  1  1  6  0  0  0
  2  3  1  0  0  0  0
  2  5  1  0  0  0  0
  3  4  1  0  0  0  0
  3 17  1  0  0  0  0
  5  6  1  0  0  0  0
  7  6  1  1  0  0  0
  7  8  1  0  0  0  0
  7  9  1  0  0  0  0
 10  9  1  6  0  0  0
 10 11  1  0  0  0  0
 10 12  1  0  0  0  0
 11 16  1  0  0  0  0
 12 13  1  1  0  0  0
 12 14  1  0  0  0  0
 14 15  1  1  0  0  0
 14 16  1  0  0  0  0
 16 27  1  6  0  0  0
 18 19  2  0  0  0  0
 18 23  1  0  0  0  0
 19 20  1  0  0  0  0
 20 21  2  0  0  0  0
 21 22  1  0  0  0  0
 21 27  1  0  0  0  0
 22 23  2  0  0  0  0
 22 25  1  0  0  0  0
 23 24  1  0  0  0  0
 25 26  2  0  0  0  0
 26 27  1  0  0  0  0
M  END
>  <CHROM.1>
135.88196170,-80.08001197,172.24568378,-105.64792415,-71.05830206,133.56361532
132.79618613,31.71058744,20.40455910,78.46547071,0.14197673,-0.35758113,0.65400005

>  <Name>
ligand

>  <RI>
0

>  <Rbt.Current_Directory>
/home/itssahil/PROJECTS/Mol_Feturizer/New_Systems/rnas/2QWY

>  <Rbt.Executable>
rbdock ($Id: //depot/dev/client3/rdock/2013.1/src/exe/rbdock.cxx#4 $)

>  <Rbt.Library>
libRbt.so (2013.1, Build901 2013/11/27)

>  <Rbt.Parameter_File>
/export/apps/rDock/src/rDock_2013.1_src/data/scripts/dock_solv.prm

>  <Rbt.Receptor>
prm/pocket_docking_4.prm

>  <SCORE>
-18.5453

>  <SCORE.INTER>
-18.3862

>  <SCORE.INTER.CONST>
1

>  <SCORE.INTER.POLAR>
0

>  <SCORE.INTER.ROT>
7

>  <SCORE.INTER.SOLV>
12.5296

>  <SCORE.INTER.VDW>
-24.7007

>  <SCORE.INTER.norm>
-0.680972

>  <SCORE.INTRA>
-0.161063

>  <SCORE.INTRA.DIHEDRAL>
1.54056

>  <SCORE.INTRA.DIHEDRAL.0>
10.7382

>  <SCORE.INTRA.POLAR>
0

>  <SCORE.INTRA.POLAR.0>
0

>  <SCORE.INTRA.REPUL>
0

>  <SCORE.INTRA.REPUL.0>
0

>  <SCORE.INTRA.SOLV>
-0.526857

>  <SCORE.INTRA.SOLV.lig_0>
-49.2501

>  <SCORE.INTRA.VDW>
-0.667914

>  <SCORE.INTRA.VDW.0>
-1.75368

>  <SCORE.INTRA.norm>
-0.00596528

>  <SCORE.RESTR>
0.00203831

>  <SCORE.RESTR.CAVITY>
0.00203831

>  <SCORE.RESTR.norm>
7.54931e-05

>  <SCORE.SYSTEM>
0

>  <SCORE.SYSTEM.CONST>
0

>  <SCORE.SYSTEM.DIHEDRAL>
0

>  <SCORE.SYSTEM.SOLV>
0

>  <SCORE.SYSTEM.norm>
0

>  <SCORE.heavy>
27

>  <SCORE.norm>
-0.686862

>  <RMSD>
6.023

$$$$
ligand
 OpenBabel11021811463D
libRbt.so/2013.1/901 2013/11/27
 27 29  0  0  0  0  0  0  0  0999 V2000
   36.0339   19.7248   80.6545 N   0  0  0  0  0  0  0  0  0  0  0  0
   36.1050   20.8307   81.6254 C   0  0  2  0  0  0  0  0  0  0  0  0
   37.4736   20.8682   82.2730 C   0  0  0  0  0  0  0  0  0  0  0  0
   37.9749   21.9487   82.6000 O   0  0  0  0  0  0  0  0  0  0  0  0
   35.0517   20.6144   82.7070 C   0  0  0  0  0  0  0  0  0  0  0  0
   33.6722   20.9416   82.1766 C   0  0  0  0  0  0  0  0  0  0  0  0
   33.5768   22.7263   81.9505 S   0  0  2  0  0  0  0  0  0  0  0  0
   31.9899   23.0217   82.7789 C   0  0  0  0  0  0  0  0  0  0  0  0
   33.0622   22.8181   80.2017 C   0  0  0  0  0  0  0  0  0  0  0  0
   33.3244   21.4673   79.5414 C   0  0  1  0  0  0  0  0  0  0  0  0
   32.1206   20.7363   79.5664 O   0  0  0  0  0  0  0  0  0  0  0  0
   33.6940   21.6261   78.0626 C   0  0  1  0  0  0  0  0  0  0  0  0
   35.0658   21.7974   77.6739 O   0  0  0  0  0  0  0  0  0  0  0  0
   32.9489   20.4356   77.3728 C   0  0  1  0  0  0  0  0  0  0  0  0
   33.8756   19.7696   76.4980 O   0  0  0  0  0  0  0  0  0  0  0  0
   32.2264   19.7281   78.5737 C   0  0  2  0  0  0  0  0  0  0  0  0
   38.0485   19.8224   82.5348 O   0  0  0  0  0  0  0  0  0  0  0  0
   27.3679   21.1032   77.3054 N   0  0  0  0  0  0  0  0  0  0  0  0
   28.4242   21.8910   77.5361 C   0  0  0  0  0  0  0  0  0  0  0  0
   29.6085   21.3873   77.8718 N   0  0  0  0  0  0  0  0  0  0  0  0
   29.7998   20.0592   77.9710 C   0  0  0  0  0  0  0  0  0  0  0  0
   28.7141   19.1776   77.7211 C   0  0  0  0  0  0  0  0  0  0  0  0
   27.4593   19.7616   77.3763 C   0  0  0  0  0  0  0  0  0  0  0  0
   26.3569   18.9712   77.1098 N   0  0  0  0  0  0  0  0  0  0  0  0
   29.1767   17.9163   77.8809 N   0  0  0  0  0  0  0  0  0  0  0  0
   30.4376   17.9606   78.2004 C   0  0  0  0  0  0  0  0  0  0  0  0
   30.8690   19.2626   78.2692 N   0  0  0  0  0  0  0  0  0  0  0  0
  2  1  1  6  0  0  0
  2  3  1  0  0  0  0
  2  5  1  0  0  0  0
  3  4  1  0  0  0  0
  3 17  1  0  0  0  0
  5  6  1  0  0  0  0
  7  6  1  1  0  0  0
  7  8  1  0  0  0  0
  7  9  1  0  0  0  0
 10  9  1  6  0  0  0
 10 11  1  0  0  0  0
 10 12  1  0  0  0  0
 11 16  1  0  0  0  0
 12 13  1  1  0  0  0
 12 14  1  0  0  0  0
 14 15  1  1  0  0  0
 14 16  1  0  0  0  0
 16 27  1  6  0  0  0
 18 19  2  0  0  0  0
 18 23  1  0  0  0  0
 19 20  1  0  0  0  0
 20 21  2  0  0  0  0
 21 22  1  0  0  0  0
 21 27  1  0  0  0  0
 22 23  2  0  0  0  0
 22 25  1  0  0  0  0
 23 24  1  0  0  0  0
 25 26  2  0  0  0  0
 26 27  1  0  0  0  0
M  END
>  <CHROM.1>
146.59480711,-75.11092082,-70.32487074,-131.71525759,-16.74033828,96.35052827
50.09841681,32.56421675,20.73343665,79.57695921,-0.52273019,0.17547439,-2.18072769

>  <Name>
ligand

>  <RI>
0

>  <Rbt.Current_Directory>
/home/itssahil/PROJECTS/Mol_Feturizer/New_Systems/rnas/2QWY

>  <Rbt.Executable>
rbdock ($Id: //depot/dev/client3/rdock/2013.1/src/exe/rbdock.cxx#4 $)

>  <Rbt.Library>
libRbt.so (2013.1, Build901 2013/11/27)

>  <Rbt.Parameter_File>
/export/apps/rDock/src/rDock_2013.1_src/data/scripts/dock_solv.prm

>  <Rbt.Receptor>
prm/pocket_docking_4.prm

>  <SCORE>
-18.4202

>  <SCORE.INTER>
-23.163

>  <SCORE.INTER.CONST>
1

>  <SCORE.INTER.POLAR>
0

>  <SCORE.INTER.ROT>
7

>  <SCORE.INTER.SOLV>
15.7158

>  <SCORE.INTER.VDW>
-28.9473

>  <SCORE.INTER.norm>
-0.857888

>  <SCORE.INTRA>
4.74277

>  <SCORE.INTRA.DIHEDRAL>
5.40473

>  <SCORE.INTRA.DIHEDRAL.0>
10.7382

>  <SCORE.INTRA.POLAR>
0

>  <SCORE.INTRA.POLAR.0>
0

>  <SCORE.INTRA.REPUL>
0

>  <SCORE.INTRA.REPUL.0>
0

>  <SCORE.INTRA.SOLV>
2.22212

>  <SCORE.INTRA.SOLV.lig_0>
-49.2501

>  <SCORE.INTRA.VDW>
0.929345

>  <SCORE.INTRA.VDW.0>
-1.75368

>  <SCORE.INTRA.norm>
0.175658

>  <SCORE.RESTR>
0

>  <SCORE.RESTR.CAVITY>
0

>  <SCORE.RESTR.norm>
0

>  <SCORE.SYSTEM>
0

>  <SCORE.SYSTEM.CONST>
0

>  <SCORE.SYSTEM.DIHEDRAL>
0

>  <SCORE.SYSTEM.SOLV>
0

>  <SCORE.SYSTEM.norm>
0

>  <SCORE.heavy>
27

>  <SCORE.norm>
-0.68223

>  <RMSD>
6.092

$$$$
ligand
 OpenBabel11021811463D
libRbt.so/2013.1/901 2013/11/27
 27 29  0  0  0  0  0  0  0  0999 V2000
   37.4285   21.3228   78.3253 N   0  0  0  0  0  0  0  0  0  0  0  0
   36.9055   22.6755   78.5849 C   0  0  2  0  0  0  0  0  0  0  0  0
   37.7821   23.3882   79.5936 C   0  0  0  0  0  0  0  0  0  0  0  0
   38.3799   22.7425   80.4605 O   0  0  0  0  0  0  0  0  0  0  0  0
   35.4924   22.5652   79.1481 C   0  0  0  0  0  0  0  0  0  0  0  0
   34.5850   21.8530   78.1678 C   0  0  0  0  0  0  0  0  0  0  0  0
   32.9456   21.7504   78.9076 S   0  0  2  0  0  0  0  0  0  0  0  0
   33.3001   20.5124   80.1856 C   0  0  0  0  0  0  0  0  0  0  0  0
   32.0825   20.7185   77.6740 C   0  0  0  0  0  0  0  0  0  0  0  0
   30.7706   20.2251   78.2784 C   0  0  1  0  0  0  0  0  0  0  0  0
   29.7527   21.1125   77.8777 O   0  0  0  0  0  0  0  0  0  0  0  0
   30.3779   18.8510   77.7252 C   0  0  1  0  0  0  0  0  0  0  0  0
   30.8335   17.6530   78.3729 O   0  0  0  0  0  0  0  0  0  0  0  0
   28.8278   18.9628   77.5434 C   0  0  1  0  0  0  0  0  0  0  0  0
   28.2208   17.7920   78.1164 O   0  0  0  0  0  0  0  0  0  0  0  0
   28.5205   20.4249   78.0257 C   0  0  2  0  0  0  0  0  0  0  0  0
   37.9514   24.5948   79.5032 O   0  0  0  0  0  0  0  0  0  0  0  0
   24.2814   19.9700   75.0379 N   0  0  0  0  0  0  0  0  0  0  0  0
   24.9811   19.0050   75.6452 C   0  0  0  0  0  0  0  0  0  0  0  0
   26.0637   19.2791   76.3675 N   0  0  0  0  0  0  0  0  0  0  0  0
   26.4881   20.5445   76.5369 C   0  0  0  0  0  0  0  0  0  0  0  0
   25.7718   21.6081   75.9257 C   0  0  0  0  0  0  0  0  0  0  0  0
   24.6243   21.2674   75.1500 C   0  0  0  0  0  0  0  0  0  0  0  0
   23.8691   22.2456   74.5307 N   0  0  0  0  0  0  0  0  0  0  0  0
   26.4005   22.7589   76.2591 N   0  0  0  0  0  0  0  0  0  0  0  0
   27.4239   22.4836   77.0145 C   0  0  0  0  0  0  0  0  0  0  0  0
   27.5209   21.1283   77.2146 N   0  0  0  0  0  0  0  0  0  0  0  0
  2  1  1  1  0  0  0
  2  3  1  0  0  0  0
  2  5  1  0  0  0  0
  3  4  1  0  0  0  0
  3 17  1  0  0  0  0
  5  6  1  0  0  0  0
  7  6  1  6  0  0  0
  7  8  1  0  0  0  0
  7  9  1  0  0  0  0
 10  9  1  6  0  0  0
 10 11  1  0  0  0  0
 10 12  1  0  0  0  0
 11 16  1  0  0  0  0
 12 13  1  1  0  0  0
 12 14  1  0  0  0  0
 14 15  1  1  0  0  0
 14 16  1  0  0  0  0
 16 27  1  6  0  0  0
 18 19  2  0  0  0  0
 18 23  1  0  0  0  0
 19 20  1  0  0  0  0
 20 21  2  0  0  0  0
 21 22  1  0  0  0  0
 21 27  1  0  0  0  0
 22 23  2  0  0  0  0
 22 25  1  0  0  0  0
 23 24  1  0  0  0  0
 25 26  2  0  0  0  0
 26 27  1  0  0  0  0
M  END
>  <CHROM.1>
-30.40877860,-59.58306900,179.53206834,-71.52012628,166.19622208,95.07647319
145.23031667,30.69081070,21.04152389,77.75845955,-0.10199806,0.32588236,2.89583047

>  <Name>
ligand

>  <RI>
0

>  <Rbt.Current_Directory>
/home/itssahil/PROJECTS/Mol_Feturizer/New_Systems/rnas/2QWY

>  <Rbt.Executable>
rbdock ($Id: //depot/dev/client3/rdock/2013.1/src/exe/rbdock.cxx#4 $)

>  <Rbt.Library>
libRbt.so (2013.1, Build901 2013/11/27)

>  <Rbt.Parameter_File>
/export/apps/rDock/src/rDock_2013.1_src/data/scripts/dock_solv.prm

>  <Rbt.Receptor>
prm/pocket_docking_5.prm

>  <SCORE>
-18.6055

>  <SCORE.INTER>
-16.8696

>  <SCORE.INTER.CONST>
1

>  <SCORE.INTER.POLAR>
0

>  <SCORE.INTER.ROT>
7

>  <SCORE.INTER.SOLV>
10.0647

>  <SCORE.INTER.VDW>
-22.868

>  <SCORE.INTER.norm>
-0.624799

>  <SCORE.INTRA>
-1.76282

>  <SCORE.INTRA.DIHEDRAL>
-4.03587

>  <SCORE.INTRA.DIHEDRAL.0>
10.7382

>  <SCORE.INTRA.POLAR>
0

>  <SCORE.INTRA.POLAR.0>
0

>  <SCORE.INTRA.REPUL>
0

>  <SCORE.INTRA.REPUL.0>
0

>  <SCORE.INTRA.SOLV>
-0.187463

>  <SCORE.INTRA.SOLV.lig_0>
-49.2501

>  <SCORE.INTRA.VDW>
0.348847

>  <SCORE.INTRA.VDW.0>
-1.75368

>  <SCORE.INTRA.norm>
-0.0652896

>  <SCORE.RESTR>
0.0268431

>  <SCORE.RESTR.CAVITY>
0.0268431

>  <SCORE.RESTR.norm>
0.000994187

>  <SCORE.SYSTEM>
0

>  <SCORE.SYSTEM.CONST>
0

>  <SCORE.SYSTEM.DIHEDRAL>
0

>  <SCORE.SYSTEM.SOLV>
0

>  <SCORE.SYSTEM.norm>
0

>  <SCORE.heavy>
27

>  <SCORE.norm>
-0.689094

>  <RMSD>
6.113

$$$$
ligand
 OpenBabel11021811463D
libRbt.so/2013.1/901 2013/11/27
 27 29  0  0  0  0  0  0  0  0999 V2000
   35.9639   21.4382   79.5366 N   0  0  0  0  0  0  0  0  0  0  0  0
   35.4320   20.8440   80.7755 C   0  0  2  0  0  0  0  0  0  0  0  0
   36.3537   19.7460   81.2642 C   0  0  0  0  0  0  0  0  0  0  0  0
   36.5761   19.6159   82.4723 O   0  0  0  0  0  0  0  0  0  0  0  0
   34.0573   20.2466   80.4930 C   0  0  0  0  0  0  0  0  0  0  0  0
   33.0002   21.3301   80.4832 C   0  0  0  0  0  0  0  0  0  0  0  0
   33.1240   22.2078   78.9150 S   0  0  2  0  0  0  0  0  0  0  0  0
   31.6792   23.2905   79.0935 C   0  0  0  0  0  0  0  0  0  0  0  0
   32.4594   20.9505   77.7708 C   0  0  0  0  0  0  0  0  0  0  0  0
   31.2020   20.3426   78.3863 C   0  0  1  0  0  0  0  0  0  0  0  0
   30.1083   21.1473   78.0116 O   0  0  0  0  0  0  0  0  0  0  0  0
   30.9163   18.9475   77.8201 C   0  0  1  0  0  0  0  0  0  0  0  0
   31.4790   17.7836   78.4453 O   0  0  0  0  0  0  0  0  0  0  0  0
   29.3598   18.9326   77.6610 C   0  0  1  0  0  0  0  0  0  0  0  0
   28.8603   17.7085   78.2264 O   0  0  0  0  0  0  0  0  0  0  0  0
   28.9395   20.3580   78.1671 C   0  0  2  0  0  0  0  0  0  0  0  0
   36.8197   18.9467   80.4663 O   0  0  0  0  0  0  0  0  0  0  0  0
   24.6332   19.5989   75.3416 N   0  0  0  0  0  0  0  0  0  0  0  0
   25.4084   18.6883   75.9414 C   0  0  0  0  0  0  0  0  0  0  0  0
   26.4976   19.0390   76.6194 N   0  0  0  0  0  0  0  0  0  0  0  0
   26.8534   20.3299   76.7499 C   0  0  0  0  0  0  0  0  0  0  0  0
   26.0557   21.3379   76.1450 C   0  0  0  0  0  0  0  0  0  0  0  0
   24.9038   20.9158   75.4173 C   0  0  0  0  0  0  0  0  0  0  0  0
   24.0720   21.8361   74.8072 N   0  0  0  0  0  0  0  0  0  0  0  0
   26.6276   22.5295   76.4343 N   0  0  0  0  0  0  0  0  0  0  0  0
   27.6908   22.3290   77.1576 C   0  0  0  0  0  0  0  0  0  0  0  0
   27.8733   20.9860   77.3793 N   0  0  0  0  0  0  0  0  0  0  0  0
  2  1  1  6  0  0  0
  2  3  1  0  0  0  0
  2  5  1  0  0  0  0
  3  4  1  0  0  0  0
  3 17  1  0  0  0  0
  5  6  1  0  0  0  0
  7  6  1  1  0  0  0
  7  8  1  0  0  0  0
  7  9  1  0  0  0  0
 10  9  1  6  0  0  0
 10 11  1  0  0  0  0
 10 12  1  0  0  0  0
 11 16  1  0  0  0  0
 12 13  1  1  0  0  0
 12 14  1  0  0  0  0
 14 15  1  1  0  0  0
 14 16  1  0  0  0  0
 16 27  1  6  0  0  0
 18 19  2  0  0  0  0
 18 23  1  0  0  0  0
 19 20  1  0  0  0  0
 20 21  2  0  0  0  0
 21 22  1  0  0  0  0
 21 27  1  0  0  0  0
 22 23  2  0  0  0  0
 22 25  1  0  0  0  0
 23 24  1  0  0  0  0
 25 26  2  0  0  0  0
 26 27  1  0  0  0  0
M  END
>  <CHROM.1>
140.55682166,-79.80160533,77.11443908,174.36756339,44.71208667,87.32775644
147.87663606,30.51960159,20.48074828,78.24731683,-0.04348206,-0.43858895
-0.07483513

>  <Name>
ligand

>  <RI>
0

>  <Rbt.Current_Directory>
/home/itssahil/PROJECTS/Mol_Feturizer/New_Systems/rnas/2QWY

>  <Rbt.Executable>
rbdock ($Id: //depot/dev/client3/rdock/2013.1/src/exe/rbdock.cxx#4 $)

>  <Rbt.Library>
libRbt.so (2013.1, Build901 2013/11/27)

>  <Rbt.Parameter_File>
/export/apps/rDock/src/rDock_2013.1_src/data/scripts/dock_solv.prm

>  <Rbt.Receptor>
prm/pocket_docking_5.prm

>  <SCORE>
-22.9138

>  <SCORE.INTER>
-23.2389

>  <SCORE.INTER.CONST>
1

>  <SCORE.INTER.POLAR>
0

>  <SCORE.INTER.ROT>
7

>  <SCORE.INTER.SOLV>
11.717

>  <SCORE.INTER.VDW>
-27.665

>  <SCORE.INTER.norm>
-0.860702

>  <SCORE.INTRA>
0.325143

>  <SCORE.INTRA.DIHEDRAL>
-2.81889

>  <SCORE.INTRA.DIHEDRAL.0>
10.7382

>  <SCORE.INTRA.POLAR>
0

>  <SCORE.INTRA.POLAR.0>
0

>  <SCORE.INTRA.REPUL>
0

>  <SCORE.INTRA.REPUL.0>
0

>  <SCORE.INTRA.SOLV>
1.48229

>  <SCORE.INTRA.SOLV.lig_0>
-49.2501

>  <SCORE.INTRA.VDW>
0.993445

>  <SCORE.INTRA.VDW.0>
-1.75368

>  <SCORE.INTRA.norm>
0.0120423

>  <SCORE.RESTR>
0

>  <SCORE.RESTR.CAVITY>
0

>  <SCORE.RESTR.norm>
0

>  <SCORE.SYSTEM>
0

>  <SCORE.SYSTEM.CONST>
0

>  <SCORE.SYSTEM.DIHEDRAL>
0

>  <SCORE.SYSTEM.SOLV>
0

>  <SCORE.SYSTEM.norm>
0

>  <SCORE.heavy>
27

>  <SCORE.norm>
-0.848659

>  <RMSD>
6.119

$$$$
ligand
 OpenBabel11021811463D
libRbt.so/2013.1/901 2013/11/27
 27 29  0  0  0  0  0  0  0  0999 V2000
   37.1807   22.6898   82.9702 N   0  0  0  0  0  0  0  0  0  0  0  0
   37.6880   22.7341   81.5877 C   0  0  2  0  0  0  0  0  0  0  0  0
   39.1033   23.2731   81.5691 C   0  0  0  0  0  0  0  0  0  0  0  0
   39.9186   22.8444   80.7461 O   0  0  0  0  0  0  0  0  0  0  0  0
   36.7976   23.6534   80.7580 C   0  0  0  0  0  0  0  0  0  0  0  0
   35.3929   23.0959   80.6730 C   0  0  0  0  0  0  0  0  0  0  0  0
   34.4625   24.1177   79.5173 S   0  0  2  0  0  0  0  0  0  0  0  0
   34.1056   25.5165   80.6161 C   0  0  0  0  0  0  0  0  0  0  0  0
   32.8503   23.2620   79.5321 C   0  0  0  0  0  0  0  0  0  0  0  0
   33.0809   21.7759   79.2714 C   0  0  1  0  0  0  0  0  0  0  0  0
   31.8286   21.1327   79.3164 O   0  0  0  0  0  0  0  0  0  0  0  0
   33.6337   21.5309   77.8632 C   0  0  1  0  0  0  0  0  0  0  0  0
   35.0509   21.5325   77.6316 O   0  0  0  0  0  0  0  0  0  0  0  0
   32.8833   20.2387   77.3990 C   0  0  1  0  0  0  0  0  0  0  0  0
   33.8512   19.3275   76.8507 O   0  0  0  0  0  0  0  0  0  0  0  0
   31.9706   19.8989   78.6303 C   0  0  2  0  0  0  0  0  0  0  0  0
   39.4150   24.1823   82.3233 O   0  0  0  0  0  0  0  0  0  0  0  0
   27.1671   21.2763   77.1701 N   0  0  0  0  0  0  0  0  0  0  0  0
   28.2139   22.0636   77.4422 C   0  0  0  0  0  0  0  0  0  0  0  0
   29.3837   21.5593   77.8247 N   0  0  0  0  0  0  0  0  0  0  0  0
   29.5700   20.2312   77.9319 C   0  0  0  0  0  0  0  0  0  0  0  0
   28.4946   19.3501   77.6395 C   0  0  0  0  0  0  0  0  0  0  0  0
   27.2547   19.9347   77.2451 C   0  0  0  0  0  0  0  0  0  0  0  0
   26.1634   19.1449   76.9354 N   0  0  0  0  0  0  0  0  0  0  0  0
   28.9498   18.0886   77.8180 N   0  0  0  0  0  0  0  0  0  0  0  0
   30.1971   18.1323   78.1871 C   0  0  0  0  0  0  0  0  0  0  0  0
   30.6261   19.4341   78.2725 N   0  0  0  0  0  0  0  0  0  0  0  0
  2  1  1  1  0  0  0
  2  3  1  0  0  0  0
  2  5  1  0  0  0  0
  3  4  1  0  0  0  0
  3 17  1  0  0  0  0
  5  6  1  0  0  0  0
  7  6  1  1  0  0  0
  7  8  1  0  0  0  0
  7  9  1  0  0  0  0
 10  9  1  6  0  0  0
 10 11  1  0  0  0  0
 10 12  1  0  0  0  0
 11 16  1  0  0  0  0
 12 13  1  1  0  0  0
 12 14  1  0  0  0  0
 14 15  1  1  0  0  0
 14 16  1  0  0  0  0
 16 27  1  6  0  0  0
 18 19  2  0  0  0  0
 18 23  1  0  0  0  0
 19 20  1  0  0  0  0
 20 21  2  0  0  0  0
 21 22  1  0  0  0  0
 21 27  1  0  0  0  0
 22 23  2  0  0  0  0
 22 25  1  0  0  0  0
 23 24  1  0  0  0  0
 25 26  2  0  0  0  0
 26 27  1  0  0  0  0
M  END
>  <CHROM.1>
145.50509072,-63.66317643,-173.03700801,-78.87873945,-51.42850976,178.73832180
34.11408230,33.00764511,21.65659440,79.08482885,-0.46531919,0.23023327,-2.77621366

>  <Name>
ligand

>  <RI>
0

>  <Rbt.Current_Directory>
/home/itssahil/PROJECTS/Mol_Feturizer/New_Systems/rnas/2QWY

>  <Rbt.Executable>
rbdock ($Id: //depot/dev/client3/rdock/2013.1/src/exe/rbdock.cxx#4 $)

>  <Rbt.Library>
libRbt.so (2013.1, Build901 2013/11/27)

>  <Rbt.Parameter_File>
/export/apps/rDock/src/rDock_2013.1_src/data/scripts/dock_solv.prm

>  <Rbt.Receptor>
prm/pocket_docking_7.prm

>  <SCORE>
-23.7526

>  <SCORE.INTER>
-20.2945

>  <SCORE.INTER.CONST>
1

>  <SCORE.INTER.POLAR>
0

>  <SCORE.INTER.ROT>
7

>  <SCORE.INTER.SOLV>
11.8779

>  <SCORE.INTER.VDW>
-25.7556

>  <SCORE.INTER.norm>
-0.751647

>  <SCORE.INTRA>
-3.45813

>  <SCORE.INTRA.DIHEDRAL>
-6.2922

>  <SCORE.INTRA.DIHEDRAL.0>
10.7382

>  <SCORE.INTRA.POLAR>
0

>  <SCORE.INTRA.POLAR.0>
0

>  <SCORE.INTRA.REPUL>
0

>  <SCORE.INTRA.REPUL.0>
0

>  <SCORE.INTRA.SOLV>
-0.142346

>  <SCORE.INTRA.SOLV.lig_0>
-49.2501

>  <SCORE.INTRA.VDW>
-0.240853

>  <SCORE.INTRA.VDW.0>
-1.75368

>  <SCORE.INTRA.norm>
-0.128079

>  <SCORE.RESTR>
0

>  <SCORE.RESTR.CAVITY>
0

>  <SCORE.RESTR.norm>
0

>  <SCORE.SYSTEM>
0

>  <SCORE.SYSTEM.CONST>
0

>  <SCORE.SYSTEM.DIHEDRAL>
0

>  <SCORE.SYSTEM.SOLV>
0

>  <SCORE.SYSTEM.norm>
0

>  <SCORE.heavy>
27

>  <SCORE.norm>
-0.879726

>  <RMSD>
6.173

$$$$
ligand
 OpenBabel11021811463D
libRbt.so/2013.1/901 2013/11/27
 27 29  0  0  0  0  0  0  0  0999 V2000
   38.4172   21.6850   81.2955 N   0  0  0  0  0  0  0  0  0  0  0  0
   37.4454   21.8884   82.3840 C   0  0  2  0  0  0  0  0  0  0  0  0
   36.4786   20.7240   82.4437 C   0  0  0  0  0  0  0  0  0  0  0  0
   35.5721   20.7138   83.2828 O   0  0  0  0  0  0  0  0  0  0  0  0
   36.6609   23.1696   82.1205 C   0  0  0  0  0  0  0  0  0  0  0  0
   35.9053   23.0691   80.8127 C   0  0  0  0  0  0  0  0  0  0  0  0
   34.8366   24.5133   80.6804 S   0  0  2  0  0  0  0  0  0  0  0  0
   33.6120   24.0628   81.9409 C   0  0  0  0  0  0  0  0  0  0  0  0
   33.9124   24.1113   79.1587 C   0  0  0  0  0  0  0  0  0  0  0  0
   33.4804   22.6486   79.2187 C   0  0  1  0  0  0  0  0  0  0  0  0
   32.0730   22.6143   79.1722 O   0  0  0  0  0  0  0  0  0  0  0  0
   33.9649   21.8681   77.9921 C   0  0  1  0  0  0  0  0  0  0  0  0
   35.2494   21.2261   78.0038 O   0  0  0  0  0  0  0  0  0  0  0  0
   32.7554   20.9341   77.6558 C   0  0  1  0  0  0  0  0  0  0  0  0
   33.2569   19.6016   77.4542 O   0  0  0  0  0  0  0  0  0  0  0  0
   31.7030   21.3084   78.7590 C   0  0  2  0  0  0  0  0  0  0  0  0
   36.5553   19.8301   81.6144 O   0  0  0  0  0  0  0  0  0  0  0  0
   27.5366   18.6006   77.2058 N   0  0  0  0  0  0  0  0  0  0  0  0
   28.7322   18.1421   77.5930 C   0  0  0  0  0  0  0  0  0  0  0  0
   29.7131   18.9674   77.9475 N   0  0  0  0  0  0  0  0  0  0  0  0
   29.5356   20.3010   77.9535 C   0  0  0  0  0  0  0  0  0  0  0  0
   28.2794   20.8392   77.5655 C   0  0  0  0  0  0  0  0  0  0  0  0
   27.2603   19.9183   77.1812 C   0  0  0  0  0  0  0  0  0  0  0  0
   26.0083   20.3625   76.7991 N   0  0  0  0  0  0  0  0  0  0  0  0
   28.3707   22.1852   77.6683 N   0  0  0  0  0  0  0  0  0  0  0  0
   29.5625   22.5024   78.0840 C   0  0  0  0  0  0  0  0  0  0  0  0
   30.3201   21.3728   78.2740 N   0  0  0  0  0  0  0  0  0  0  0  0
  2  1  1  6  0  0  0
  2  3  1  0  0  0  0
  2  5  1  0  0  0  0
  3  4  1  0  0  0  0
  3 17  1  0  0  0  0
  5  6  1  0  0  0  0
  7  6  1  1  0  0  0
  7  8  1  0  0  0  0
  7  9  1  0  0  0  0
 10  9  1  6  0  0  0
 10 11  1  0  0  0  0
 10 12  1  0  0  0  0
 11 16  1  0  0  0  0
 12 13  1  1  0  0  0
 12 14  1  0  0  0  0
 14 15  1  1  0  0  0
 14 16  1  0  0  0  0
 16 27  1  6  0  0  0
 18 19  2  0  0  0  0
 18 23  1  0  0  0  0
 19 20  1  0  0  0  0
 20 21  2  0  0  0  0
 21 22  1  0  0  0  0
 21 27  1  0  0  0  0
 22 23  2  0  0  0  0
 22 25  1  0  0  0  0
 23 24  1  0  0  0  0
 25 26  2  0  0  0  0
 26 27  1  0  0  0  0
M  END
>  <CHROM.1>
-179.09436667,60.70755218,172.46393509,-71.86682070,44.58187645,119.26090069
-170.80752222,32.71283805,21.53931797,79.38307867,-0.28907161,0.44693493
-3.02825963

>  <Name>
ligand

>  <RI>
0

>  <Rbt.Current_Directory>
/home/itssahil/PROJECTS/Mol_Feturizer/New_Systems/rnas/2QWY

>  <Rbt.Executable>
rbdock ($Id: //depot/dev/client3/rdock/2013.1/src/exe/rbdock.cxx#4 $)

>  <Rbt.Library>
libRbt.so (2013.1, Build901 2013/11/27)

>  <Rbt.Parameter_File>
/export/apps/rDock/src/rDock_2013.1_src/data/scripts/dock_solv.prm

>  <Rbt.Receptor>
prm/pocket_docking_5.prm

>  <SCORE>
-23.4502

>  <SCORE.INTER>
-23.9338

>  <SCORE.INTER.CONST>
1

>  <SCORE.INTER.POLAR>
0

>  <SCORE.INTER.ROT>
7

>  <SCORE.INTER.SOLV>
8.31675

>  <SCORE.INTER.VDW>
-26.9948

>  <SCORE.INTER.norm>
-0.886439

>  <SCORE.INTRA>
0.483629

>  <SCORE.INTRA.DIHEDRAL>
-1.96348

>  <SCORE.INTRA.DIHEDRAL.0>
10.7382

>  <SCORE.INTRA.POLAR>
0

>  <SCORE.INTRA.POLAR.0>
0

>  <SCORE.INTRA.REPUL>
0

>  <SCORE.INTRA.REPUL.0>
0

>  <SCORE.INTRA.SOLV>
-0.246331

>  <SCORE.INTRA.SOLV.lig_0>
-49.2501

>  <SCORE.INTRA.VDW>
1.58853

>  <SCORE.INTRA.VDW.0>
-1.75368

>  <SCORE.INTRA.norm>
0.0179122

>  <SCORE.RESTR>
0

>  <SCORE.RESTR.CAVITY>
0

>  <SCORE.RESTR.norm>
0

>  <SCORE.SYSTEM>
0

>  <SCORE.SYSTEM.CONST>
0

>  <SCORE.SYSTEM.DIHEDRAL>
0

>  <SCORE.SYSTEM.SOLV>
0

>  <SCORE.SYSTEM.norm>
0

>  <SCORE.heavy>
27

>  <SCORE.norm>
-0.868527

>  <RMSD>
6.282

$$$$
ligand
 OpenBabel11021811463D
libRbt.so/2013.1/901 2013/11/27
 27 29  0  0  0  0  0  0  0  0999 V2000
   38.3087   20.6610   75.5438 N   0  0  0  0  0  0  0  0  0  0  0  0
   37.3173   19.9853   76.3990 C   0  0  2  0  0  0  0  0  0  0  0  0
   37.8838   18.6824   76.9237 C   0  0  0  0  0  0  0  0  0  0  0  0
   37.6600   18.3335   78.0873 O   0  0  0  0  0  0  0  0  0  0  0  0
   36.0687   19.6860   75.5758 C   0  0  0  0  0  0  0  0  0  0  0  0
   34.9966   19.0649   76.4455 C   0  0  0  0  0  0  0  0  0  0  0  0
   34.1216   20.3999   77.2808 S   0  0  2  0  0  0  0  0  0  0  0  0
   35.2592   20.6424   78.6732 C   0  0  0  0  0  0  0  0  0  0  0  0
   32.7848   19.4662   78.1010 C   0  0  0  0  0  0  0  0  0  0  0  0
   31.8325   20.4555   78.7673 C   0  0  1  0  0  0  0  0  0  0  0  0
   32.6109   21.3797   79.4912 O   0  0  0  0  0  0  0  0  0  0  0  0
   31.0562   21.2746   77.7305 C   0  0  1  0  0  0  0  0  0  0  0  0
   29.8006   20.7966   77.2233 O   0  0  0  0  0  0  0  0  0  0  0  0
   31.0210   22.7092   78.3542 C   0  0  1  0  0  0  0  0  0  0  0  0
   29.6723   23.2016   78.2771 O   0  0  0  0  0  0  0  0  0  0  0  0
   31.8033   22.5268   79.7031 C   0  0  2  0  0  0  0  0  0  0  0  0
   38.5028   17.9448   76.1717 O   0  0  0  0  0  0  0  0  0  0  0  0
   34.8337   24.7019   83.3348 N   0  0  0  0  0  0  0  0  0  0  0  0
   34.0982   23.5877   83.4205 C   0  0  0  0  0  0  0  0  0  0  0  0
   33.3537   23.1648   82.4026 N   0  0  0  0  0  0  0  0  0  0  0  0
   33.3275   23.8295   81.2332 C   0  0  0  0  0  0  0  0  0  0  0  0
   34.1027   25.0107   81.0847 C   0  0  0  0  0  0  0  0  0  0  0  0
   34.8762   25.4344   82.2057 C   0  0  0  0  0  0  0  0  0  0  0  0
   35.6636   26.5685   82.1380 N   0  0  0  0  0  0  0  0  0  0  0  0
   33.9009   25.4675   79.8273 N   0  0  0  0  0  0  0  0  0  0  0  0
   33.0799   24.6691   79.2089 C   0  0  0  0  0  0  0  0  0  0  0  0
   32.6967   23.6417   80.0359 N   0  0  0  0  0  0  0  0  0  0  0  0
  2  1  1  6  0  0  0
  2  3  1  0  0  0  0
  2  5  1  0  0  0  0
  3  4  1  0  0  0  0
  3 17  1  0  0  0  0
  5  6  1  0  0  0  0
  7  6  1  6  0  0  0
  7  8  1  0  0  0  0
  7  9  1  0  0  0  0
 10  9  1  6  0  0  0
 10 11  1  0  0  0  0
 10 12  1  0  0  0  0
 11 16  1  0  0  0  0
 12 13  1  1  0  0  0
 12 14  1  0  0  0  0
 14 15  1  1  0  0  0
 14 16  1  0  0  0  0
 16 27  1  6  0  0  0
 18 19  2  0  0  0  0
 18 23  1  0  0  0  0
 19 20  1  0  0  0  0
 20 21  2  0  0  0  0
 21 22  1  0  0  0  0
 21 27  1  0  0  0  0
 22 23  2  0  0  0  0
 22 25  1  0  0  0  0
 23 24  1  0  0  0  0
 25 26  2  0  0  0  0
 26 27  1  0  0  0  0
M  END
>  <CHROM.1>
140.37852267,-176.63865666,83.21599644,-83.65564157,-174.51326861,-47.65896263
-75.23342456,34.09499454,21.81442368,78.87161469,-1.11308454,-0.10783648
0.77922926

>  <Name>
ligand

>  <RI>
0

>  <Rbt.Current_Directory>
/home/itssahil/PROJECTS/Mol_Feturizer/New_Systems/rnas/2QWY

>  <Rbt.Executable>
rbdock ($Id: //depot/dev/client3/rdock/2013.1/src/exe/rbdock.cxx#4 $)

>  <Rbt.Library>
libRbt.so (2013.1, Build901 2013/11/27)

>  <Rbt.Parameter_File>
/export/apps/rDock/src/rDock_2013.1_src/data/scripts/dock_solv.prm

>  <Rbt.Receptor>
prm/pocket_docking_8.prm

>  <SCORE>
-13.43

>  <SCORE.INTER>
-11.5032

>  <SCORE.INTER.CONST>
1

>  <SCORE.INTER.POLAR>
0

>  <SCORE.INTER.ROT>
7

>  <SCORE.INTER.SOLV>
9.46543

>  <SCORE.INTER.VDW>
-19.0906

>  <SCORE.INTER.norm>
-0.426045

>  <SCORE.INTRA>
-1.92679

>  <SCORE.INTRA.DIHEDRAL>
-4.05035

>  <SCORE.INTRA.DIHEDRAL.0>
10.7382

>  <SCORE.INTRA.POLAR>
0

>  <SCORE.INTRA.POLAR.0>
0

>  <SCORE.INTRA.REPUL>
0

>  <SCORE.INTRA.REPUL.0>
0

>  <SCORE.INTRA.SOLV>
-0.539706

>  <SCORE.INTRA.SOLV.lig_0>
-49.2501

>  <SCORE.INTRA.VDW>
0.368238

>  <SCORE.INTRA.VDW.0>
-1.75368

>  <SCORE.INTRA.norm>
-0.0713625

>  <SCORE.RESTR>
0

>  <SCORE.RESTR.CAVITY>
0

>  <SCORE.RESTR.norm>
0

>  <SCORE.SYSTEM>
0

>  <SCORE.SYSTEM.CONST>
0

>  <SCORE.SYSTEM.DIHEDRAL>
0

>  <SCORE.SYSTEM.SOLV>
0

>  <SCORE.SYSTEM.norm>
0

>  <SCORE.heavy>
27

>  <SCORE.norm>
-0.497407

>  <RMSD>
6.301

$$$$
ligand
 OpenBabel11021811463D
libRbt.so/2013.1/901 2013/11/27
 27 29  0  0  0  0  0  0  0  0999 V2000
   35.1392   15.2137   67.8882 N   0  0  0  0  0  0  0  0  0  0  0  0
   36.0055   16.3967   68.0325 C   0  0  2  0  0  0  0  0  0  0  0  0
   36.9294   16.5147   66.8382 C   0  0  0  0  0  0  0  0  0  0  0  0
   37.1224   15.5392   66.1055 O   0  0  0  0  0  0  0  0  0  0  0  0
   36.8468   16.2487   69.2961 C   0  0  0  0  0  0  0  0  0  0  0  0
   36.0273   16.5910   70.5219 C   0  0  0  0  0  0  0  0  0  0  0  0
   37.0166   16.1969   71.9749 S   0  0  2  0  0  0  0  0  0  0  0  0
   36.4352   14.5003   72.2487 C   0  0  0  0  0  0  0  0  0  0  0  0
   36.0830   17.0825   73.2695 C   0  0  0  0  0  0  0  0  0  0  0  0
   36.6296   18.5029   73.3841 C   0  0  1  0  0  0  0  0  0  0  0  0
   35.7334   19.2451   74.1779 O   0  0  0  0  0  0  0  0  0  0  0  0
   37.9729   18.5310   74.1211 C   0  0  1  0  0  0  0  0  0  0  0  0
   39.2017   18.3879   73.3919 O   0  0  0  0  0  0  0  0  0  0  0  0
   37.8712   19.8136   75.0116 C   0  0  1  0  0  0  0  0  0  0  0  0
   39.0826   20.5714   74.8510 O   0  0  0  0  0  0  0  0  0  0  0  0
   36.4453   20.3716   74.6650 C   0  0  2  0  0  0  0  0  0  0  0  0
   37.4268   17.5959   66.5619 O   0  0  0  0  0  0  0  0  0  0  0  0
   35.3661   24.5574   77.5665 N   0  0  0  0  0  0  0  0  0  0  0  0
   36.1739   24.4649   76.5041 C   0  0  0  0  0  0  0  0  0  0  0  0
   36.3639   23.3100   75.8722 N   0  0  0  0  0  0  0  0  0  0  0  0
   35.7317   22.1883   76.2624 C   0  0  0  0  0  0  0  0  0  0  0  0
   34.8509   22.2355   77.3760 C   0  0  0  0  0  0  0  0  0  0  0  0
   34.6866   23.4918   78.0312 C   0  0  0  0  0  0  0  0  0  0  0  0
   33.8406   23.6219   79.1167 N   0  0  0  0  0  0  0  0  0  0  0  0
   34.3512   20.9896   77.5452 N   0  0  0  0  0  0  0  0  0  0  0  0
   34.8484   20.2024   76.6359 C   0  0  0  0  0  0  0  0  0  0  0  0
   35.7076   20.8961   75.8194 N   0  0  0  0  0  0  0  0  0  0  0  0
  2  1  1  6  0  0  0
  2  3  1  0  0  0  0
  2  5  1  0  0  0  0
  3  4  1  0  0  0  0
  3 17  1  0  0  0  0
  5  6  1  0  0  0  0
  7  6  1  6  0  0  0
  7  8  1  0  0  0  0
  7  9  1  0  0  0  0
 10  9  1  1  0  0  0
 10 11  1  0  0  0  0
 10 12  1  0  0  0  0
 11 16  1  0  0  0  0
 12 13  1  6  0  0  0
 12 14  1  0  0  0  0
 14 15  1  6  0  0  0
 14 16  1  0  0  0  0
 16 27  1  1  0  0  0
 18 19  2  0  0  0  0
 18 23  1  0  0  0  0
 19 20  1  0  0  0  0
 20 21  2  0  0  0  0
 21 22  1  0  0  0  0
 21 27  1  0  0  0  0
 22 23  2  0  0  0  0
 22 25  1  0  0  0  0
 23 24  1  0  0  0  0
 25 26  2  0  0  0  0
 26 27  1  0  0  0  0
M  END
>  <CHROM.1>
-17.93134837,-78.78350190,173.04131057,-92.32486800,-89.64338123,168.18000579
-153.91063629,36.37676830,19.13395359,73.26244873,-0.25426808,1.44692044
-0.39728637

>  <Name>
ligand

>  <RI>
0

>  <Rbt.Current_Directory>
/home/itssahil/PROJECTS/Mol_Feturizer/New_Systems/rnas/2QWY

>  <Rbt.Executable>
rbdock ($Id: //depot/dev/client3/rdock/2013.1/src/exe/rbdock.cxx#4 $)

>  <Rbt.Library>
libRbt.so (2013.1, Build901 2013/11/27)

>  <Rbt.Parameter_File>
/export/apps/rDock/src/rDock_2013.1_src/data/scripts/dock_solv.prm

>  <Rbt.Receptor>
prm/pocket_docking_5.prm

>  <SCORE>
-15.072

>  <SCORE.INTER>
-12.6523

>  <SCORE.INTER.CONST>
1

>  <SCORE.INTER.POLAR>
0

>  <SCORE.INTER.ROT>
7

>  <SCORE.INTER.SOLV>
9.3378

>  <SCORE.INTER.VDW>
-19.8141

>  <SCORE.INTER.norm>
-0.468602

>  <SCORE.INTRA>
-2.41972

>  <SCORE.INTRA.DIHEDRAL>
-2.87813

>  <SCORE.INTRA.DIHEDRAL.0>
10.7382

>  <SCORE.INTRA.POLAR>
0

>  <SCORE.INTRA.POLAR.0>
0

>  <SCORE.INTRA.REPUL>
0

>  <SCORE.INTRA.REPUL.0>
0

>  <SCORE.INTRA.SOLV>
-0.454398

>  <SCORE.INTRA.SOLV.lig_0>
-49.2501

>  <SCORE.INTRA.VDW>
-0.753459

>  <SCORE.INTRA.VDW.0>
-1.75368

>  <SCORE.INTRA.norm>
-0.0896193

>  <SCORE.RESTR>
0

>  <SCORE.RESTR.CAVITY>
0

>  <SCORE.RESTR.norm>
0

>  <SCORE.SYSTEM>
0

>  <SCORE.SYSTEM.CONST>
0

>  <SCORE.SYSTEM.DIHEDRAL>
0

>  <SCORE.SYSTEM.SOLV>
0

>  <SCORE.SYSTEM.norm>
0

>  <SCORE.heavy>
27

>  <SCORE.norm>
-0.558221

>  <RMSD>
6.368

$$$$
ligand
 OpenBabel11021811463D
libRbt.so/2013.1/901 2013/11/27
 27 29  0  0  0  0  0  0  0  0999 V2000
   34.2468   25.0883   82.5124 N   0  0  0  0  0  0  0  0  0  0  0  0
   33.9230   23.7245   82.0585 C   0  0  2  0  0  0  0  0  0  0  0  0
   35.1567   22.8481   82.1208 C   0  0  0  0  0  0  0  0  0  0  0  0
   36.2581   23.3459   82.3754 O   0  0  0  0  0  0  0  0  0  0  0  0
   33.4292   23.7818   80.6166 C   0  0  0  0  0  0  0  0  0  0  0  0
   34.4067   24.5483   79.7515 C   0  0  0  0  0  0  0  0  0  0  0  0
   35.7376   23.4240   79.2934 S   0  0  2  0  0  0  0  0  0  0  0  0
   36.8095   24.6070   78.4314 C   0  0  0  0  0  0  0  0  0  0  0  0
   34.9795   22.5642   77.8729 C   0  0  0  0  0  0  0  0  0  0  0  0
   34.0464   21.4768   78.3985 C   0  0  1  0  0  0  0  0  0  0  0  0
   32.7611   22.0388   78.5264 O   0  0  0  0  0  0  0  0  0  0  0  0
   33.9078   20.3231   77.3993 C   0  0  1  0  0  0  0  0  0  0  0  0
   34.8164   19.2121   77.4461 O   0  0  0  0  0  0  0  0  0  0  0  0
   32.3910   19.9485   77.4862 C   0  0  1  0  0  0  0  0  0  0  0  0
   32.2859   18.5205   77.6179 O   0  0  0  0  0  0  0  0  0  0  0  0
   31.8375   20.9620   78.5497 C   0  0  2  0  0  0  0  0  0  0  0  0
   35.0475   21.6384   81.9884 O   0  0  0  0  0  0  0  0  0  0  0  0
   26.9316   19.8794   77.1844 N   0  0  0  0  0  0  0  0  0  0  0  0
   27.9472   19.0323   77.3867 C   0  0  0  0  0  0  0  0  0  0  0  0
   29.1604   19.4660   77.7171 N   0  0  0  0  0  0  0  0  0  0  0  0
   29.4117   20.7770   77.8847 C   0  0  0  0  0  0  0  0  0  0  0  0
   28.3637   21.7177   77.6968 C   0  0  0  0  0  0  0  0  0  0  0  0
   27.0822   21.2094   77.3310 C   0  0  0  0  0  0  0  0  0  0  0  0
   26.0091   22.0593   77.1384 N   0  0  0  0  0  0  0  0  0  0  0  0
   28.8803   22.9459   77.9319 N   0  0  0  0  0  0  0  0  0  0  0  0
   30.1379   22.8280   78.2453 C   0  0  0  0  0  0  0  0  0  0  0  0
   30.5139   21.5072   78.2294 N   0  0  0  0  0  0  0  0  0  0  0  0
  2  1  1  6  0  0  0
  2  3  1  0  0  0  0
  2  5  1  0  0  0  0
  3  4  1  0  0  0  0
  3 17  1  0  0  0  0
  5  6  1  0  0  0  0
  7  6  1  6  0  0  0
  7  8  1  0  0  0  0
  7  9  1  0  0  0  0
 10  9  1  6  0  0  0
 10 11  1  0  0  0  0
 10 12  1  0  0  0  0
 11 16  1  0  0  0  0
 12 13  1  1  0  0  0
 12 14  1  0  0  0  0
 14 15  1  1  0  0  0
 14 16  1  0  0  0  0
 16 27  1  6  0  0  0
 18 19  2  0  0  0  0
 18 23  1  0  0  0  0
 19 20  1  0  0  0  0
 20 21  2  0  0  0  0
 21 22  1  0  0  0  0
 21 27  1  0  0  0  0
 22 23  2  0  0  0  0
 22 25  1  0  0  0  0
 23 24  1  0  0  0  0
 25 26  2  0  0  0  0
 26 27  1  0  0  0  0
M  END
>  <CHROM.1>
-7.69501100,51.63008564,81.64674311,-174.77057938,-80.46921426,91.41960960
165.86469194,32.38744629,21.91118232,78.91041320,0.51354215,-0.11295821,0.65074810

>  <Name>
ligand

>  <RI>
0

>  <Rbt.Current_Directory>
/home/itssahil/PROJECTS/Mol_Feturizer/New_Systems/rnas/2QWY

>  <Rbt.Executable>
rbdock ($Id: //depot/dev/client3/rdock/2013.1/src/exe/rbdock.cxx#4 $)

>  <Rbt.Library>
libRbt.so (2013.1, Build901 2013/11/27)

>  <Rbt.Parameter_File>
/export/apps/rDock/src/rDock_2013.1_src/data/scripts/dock_solv.prm

>  <Rbt.Receptor>
prm/pocket_docking_6.prm

>  <SCORE>
-22.209

>  <SCORE.INTER>
-21.1926

>  <SCORE.INTER.CONST>
1

>  <SCORE.INTER.POLAR>
0

>  <SCORE.INTER.ROT>
7

>  <SCORE.INTER.SOLV>
9.26213

>  <SCORE.INTER.VDW>
-25.4825

>  <SCORE.INTER.norm>
-0.784912

>  <SCORE.INTRA>
-1.0164

>  <SCORE.INTRA.DIHEDRAL>
-1.90655

>  <SCORE.INTRA.DIHEDRAL.0>
10.7382

>  <SCORE.INTRA.POLAR>
0

>  <SCORE.INTRA.POLAR.0>
0

>  <SCORE.INTRA.REPUL>
0

>  <SCORE.INTRA.REPUL.0>
0

>  <SCORE.INTRA.SOLV>
0.524832

>  <SCORE.INTRA.SOLV.lig_0>
-49.2501

>  <SCORE.INTRA.VDW>
-0.325543

>  <SCORE.INTRA.VDW.0>
-1.75368

>  <SCORE.INTRA.norm>
-0.0376445

>  <SCORE.RESTR>
0

>  <SCORE.RESTR.CAVITY>
0

>  <SCORE.RESTR.norm>
0

>  <SCORE.SYSTEM>
0

>  <SCORE.SYSTEM.CONST>
0

>  <SCORE.SYSTEM.DIHEDRAL>
0

>  <SCORE.SYSTEM.SOLV>
0

>  <SCORE.SYSTEM.norm>
0

>  <SCORE.heavy>
27

>  <SCORE.norm>
-0.822557

>  <RMSD>
6.393

$$$$
ligand
 OpenBabel11021811463D
libRbt.so/2013.1/901 2013/11/27
 27 29  0  0  0  0  0  0  0  0999 V2000
   36.7422   23.0985   80.4942 N   0  0  0  0  0  0  0  0  0  0  0  0
   36.7875   22.7659   81.9288 C   0  0  2  0  0  0  0  0  0  0  0  0
   38.0033   21.9136   82.2278 C   0  0  0  0  0  0  0  0  0  0  0  0
   39.0058   21.9911   81.5104 O   0  0  0  0  0  0  0  0  0  0  0  0
   35.5318   21.9839   82.3002 C   0  0  0  0  0  0  0  0  0  0  0  0
   34.2922   22.7247   81.8463 C   0  0  0  0  0  0  0  0  0  0  0  0
   32.8703   21.6628   82.1556 S   0  0  2  0  0  0  0  0  0  0  0  0
   32.9606   21.6066   83.9668 C   0  0  0  0  0  0  0  0  0  0  0  0
   33.5704   20.0302   81.7360 C   0  0  0  0  0  0  0  0  0  0  0  0
   33.4485   19.8164   80.2297 C   0  0  1  0  0  0  0  0  0  0  0  0
   32.0969   19.9994   79.8779 O   0  0  0  0  0  0  0  0  0  0  0  0
   34.2376   20.8707   79.4460 C   0  0  1  0  0  0  0  0  0  0  0  0
   35.6154   20.6427   79.1114 O   0  0  0  0  0  0  0  0  0  0  0  0
   33.3023   21.1976   78.2350 C   0  0  1  0  0  0  0  0  0  0  0  0
   34.0919   21.1653   77.0337 O   0  0  0  0  0  0  0  0  0  0  0  0
   32.0629   20.2670   78.4850 C   0  0  2  0  0  0  0  0  0  0  0  0
   38.0148   21.2025   83.2212 O   0  0  0  0  0  0  0  0  0  0  0  0
   27.0659   19.4891   77.2485 N   0  0  0  0  0  0  0  0  0  0  0  0
   28.0285   18.5803   77.4413 C   0  0  0  0  0  0  0  0  0  0  0  0
   29.2749   18.9381   77.7372 N   0  0  0  0  0  0  0  0  0  0  0  0
   29.6151   20.2321   77.8781 C   0  0  0  0  0  0  0  0  0  0  0  0
   28.6267   21.2366   77.6989 C   0  0  0  0  0  0  0  0  0  0  0  0
   27.3064   20.8084   77.3703 C   0  0  0  0  0  0  0  0  0  0  0  0
   26.2869   21.7240   77.1885 N   0  0  0  0  0  0  0  0  0  0  0  0
   29.2277   22.4316   77.9025 N   0  0  0  0  0  0  0  0  0  0  0  0
   30.4820   22.2359   78.1893 C   0  0  0  0  0  0  0  0  0  0  0  0
   30.7704   20.8932   78.1860 N   0  0  0  0  0  0  0  0  0  0  0  0
  2  1  1  6  0  0  0
  2  3  1  0  0  0  0
  2  5  1  0  0  0  0
  3  4  1  0  0  0  0
  3 17  1  0  0  0  0
  5  6  1  0  0  0  0
  7  6  1  6  0  0  0
  7  8  1  0  0  0  0
  7  9  1  0  0  0  0
 10  9  1  1  0  0  0
 10 11  1  0  0  0  0
 10 12  1  0  0  0  0
 11 16  1  0  0  0  0
 12 13  1  6  0  0  0
 12 14  1  0  0  0  0
 14 15  1  6  0  0  0
 14 16  1  0  0  0  0
 16 27  1  1  0  0  0
 18 19  2  0  0  0  0
 18 23  1  0  0  0  0
 19 20  1  0  0  0  0
 20 21  2  0  0  0  0
 21 22  1  0  0  0  0
 21 27  1  0  0  0  0
 22 23  2  0  0  0  0
 22 25  1  0  0  0  0
 23 24  1  0  0  0  0
 25 26  2  0  0  0  0
 26 27  1  0  0  0  0
M  END
>  <CHROM.1>
26.45738436,-52.20475102,173.91343635,64.75847048,-84.85985214,-54.40530357
-88.06691061,32.71481772,21.12762084,79.82993354,-0.49584566,-0.08067638
-1.72477696

>  <Name>
ligand

>  <RI>
0

>  <Rbt.Current_Directory>
/home/itssahil/PROJECTS/Mol_Feturizer/New_Systems/rnas/2QWY

>  <Rbt.Executable>
rbdock ($Id: //depot/dev/client3/rdock/2013.1/src/exe/rbdock.cxx#4 $)

>  <Rbt.Library>
libRbt.so (2013.1, Build901 2013/11/27)

>  <Rbt.Parameter_File>
/export/apps/rDock/src/rDock_2013.1_src/data/scripts/dock_solv.prm

>  <Rbt.Receptor>
prm/pocket_docking_4.prm

>  <SCORE>
-17.6069

>  <SCORE.INTER>
-19.4133

>  <SCORE.INTER.CONST>
1

>  <SCORE.INTER.POLAR>
0

>  <SCORE.INTER.ROT>
7

>  <SCORE.INTER.SOLV>
9.77775

>  <SCORE.INTER.VDW>
-24.4681

>  <SCORE.INTER.norm>
-0.71901

>  <SCORE.INTRA>
1.38979

>  <SCORE.INTRA.DIHEDRAL>
-6.04844

>  <SCORE.INTRA.DIHEDRAL.0>
10.7382

>  <SCORE.INTRA.POLAR>
0

>  <SCORE.INTRA.POLAR.0>
0

>  <SCORE.INTRA.REPUL>
0

>  <SCORE.INTRA.REPUL.0>
0

>  <SCORE.INTRA.SOLV>
2.14481

>  <SCORE.INTRA.SOLV.lig_0>
-49.2501

>  <SCORE.INTRA.VDW>
3.3416

>  <SCORE.INTRA.VDW.0>
-1.75368

>  <SCORE.INTRA.norm>
0.0514736

>  <SCORE.RESTR>
0.416563

>  <SCORE.RESTR.CAVITY>
0.416563

>  <SCORE.RESTR.norm>
0.0154282

>  <SCORE.SYSTEM>
0

>  <SCORE.SYSTEM.CONST>
0

>  <SCORE.SYSTEM.DIHEDRAL>
0

>  <SCORE.SYSTEM.SOLV>
0

>  <SCORE.SYSTEM.norm>
0

>  <SCORE.heavy>
27

>  <SCORE.norm>
-0.652108

>  <RMSD>
6.396

$$$$
ligand
 OpenBabel11021811463D
libRbt.so/2013.1/901 2013/11/27
 27 29  0  0  0  0  0  0  0  0999 V2000
   34.7682   13.8721   70.1265 N   0  0  0  0  0  0  0  0  0  0  0  0
   36.2216   13.8845   70.3678 C   0  0  2  0  0  0  0  0  0  0  0  0
   36.5508   13.0788   71.6074 C   0  0  0  0  0  0  0  0  0  0  0  0
   35.7432   13.0193   72.5401 O   0  0  0  0  0  0  0  0  0  0  0  0
   36.6812   15.3237   70.5769 C   0  0  0  0  0  0  0  0  0  0  0  0
   36.0659   15.8993   71.8345 C   0  0  0  0  0  0  0  0  0  0  0  0
   36.5022   17.6454   71.9130 S   0  0  2  0  0  0  0  0  0  0  0  0
   38.2688   17.4686   72.2865 C   0  0  0  0  0  0  0  0  0  0  0  0
   35.8545   18.0815   73.5628 C   0  0  0  0  0  0  0  0  0  0  0  0
   35.8053   19.6022   73.6845 C   0  0  1  0  0  0  0  0  0  0  0  0
   35.2843   19.9146   74.9554 O   0  0  0  0  0  0  0  0  0  0  0  0
   37.2087   20.2161   73.6384 C   0  0  1  0  0  0  0  0  0  0  0  0
   37.7946   20.5887   72.3815 O   0  0  0  0  0  0  0  0  0  0  0  0
   37.1406   21.3570   74.7071 C   0  0  1  0  0  0  0  0  0  0  0  0
   37.6890   22.5525   74.1260 O   0  0  0  0  0  0  0  0  0  0  0  0
   35.6699   21.2487   75.2457 C   0  0  2  0  0  0  0  0  0  0  0  0
   37.5860   12.4314   71.6516 O   0  0  0  0  0  0  0  0  0  0  0  0
   36.5373   19.2277   79.9646 N   0  0  0  0  0  0  0  0  0  0  0  0
   36.8022   18.6935   78.7670 C   0  0  0  0  0  0  0  0  0  0  0  0
   36.5026   19.3306   77.6386 N   0  0  0  0  0  0  0  0  0  0  0  0
   35.9401   20.5526   77.6548 C   0  0  0  0  0  0  0  0  0  0  0  0
   35.6521   21.1714   78.9008 C   0  0  0  0  0  0  0  0  0  0  0  0
   35.9786   20.4470   80.0853 C   0  0  0  0  0  0  0  0  0  0  0  0
   35.7377   20.9842   81.3360 N   0  0  0  0  0  0  0  0  0  0  0  0
   35.1049   22.3792   78.6318 N   0  0  0  0  0  0  0  0  0  0  0  0
   35.0409   22.5420   77.3421 C   0  0  0  0  0  0  0  0  0  0  0  0
   35.5443   21.4404   76.6946 N   0  0  0  0  0  0  0  0  0  0  0  0
  2  1  1  1  0  0  0
  2  3  1  0  0  0  0
  2  5  1  0  0  0  0
  3  4  1  0  0  0  0
  3 17  1  0  0  0  0
  5  6  1  0  0  0  0
  7  6  1  1  0  0  0
  7  8  1  0  0  0  0
  7  9  1  0  0  0  0
 10  9  1  1  0  0  0
 10 11  1  0  0  0  0
 10 12  1  0  0  0  0
 11 16  1  0  0  0  0
 12 13  1  6  0  0  0
 12 14  1  0  0  0  0
 14 15  1  6  0  0  0
 14 16  1  0  0  0  0
 16 27  1  1  0  0  0
 18 19  2  0  0  0  0
 18 23  1  0  0  0  0
 19 20  1  0  0  0  0
 20 21  2  0  0  0  0
 21 22  1  0  0  0  0
 21 27  1  0  0  0  0
 22 23  2  0  0  0  0
 22 25  1  0  0  0  0
 23 24  1  0  0  0  0
 25 26  2  0  0  0  0
 26 27  1  0  0  0  0
M  END
>  <CHROM.1>
-31.29113308,64.82806728,-173.71089951,-70.90790737,-165.72876419,179.12105480
43.10668439,36.32055113,18.52326818,74.64744015,1.24843457,-1.41602525,-2.64131394

>  <Name>
ligand

>  <RI>
0

>  <Rbt.Current_Directory>
/home/itssahil/PROJECTS/Mol_Feturizer/New_Systems/rnas/2QWY

>  <Rbt.Executable>
rbdock ($Id: //depot/dev/client3/rdock/2013.1/src/exe/rbdock.cxx#4 $)

>  <Rbt.Library>
libRbt.so (2013.1, Build901 2013/11/27)

>  <Rbt.Parameter_File>
/export/apps/rDock/src/rDock_2013.1_src/data/scripts/dock_solv.prm

>  <Rbt.Receptor>
prm/pocket_docking_5.prm

>  <SCORE>
-9.93708

>  <SCORE.INTER>
-7.75141

>  <SCORE.INTER.CONST>
1

>  <SCORE.INTER.POLAR>
0

>  <SCORE.INTER.ROT>
7

>  <SCORE.INTER.SOLV>
8.9484

>  <SCORE.INTER.VDW>
-16.4171

>  <SCORE.INTER.norm>
-0.287089

>  <SCORE.INTRA>
-2.18566

>  <SCORE.INTRA.DIHEDRAL>
-5.72498

>  <SCORE.INTRA.DIHEDRAL.0>
10.7382

>  <SCORE.INTRA.POLAR>
0

>  <SCORE.INTRA.POLAR.0>
0

>  <SCORE.INTRA.REPUL>
0

>  <SCORE.INTRA.REPUL.0>
0

>  <SCORE.INTRA.SOLV>
-0.121876

>  <SCORE.INTRA.SOLV.lig_0>
-49.2501

>  <SCORE.INTRA.VDW>
0.737766

>  <SCORE.INTRA.VDW.0>
-1.75368

>  <SCORE.INTRA.norm>
-0.0809505

>  <SCORE.RESTR>
0

>  <SCORE.RESTR.CAVITY>
0

>  <SCORE.RESTR.norm>
0

>  <SCORE.SYSTEM>
0

>  <SCORE.SYSTEM.CONST>
0

>  <SCORE.SYSTEM.DIHEDRAL>
0

>  <SCORE.SYSTEM.SOLV>
0

>  <SCORE.SYSTEM.norm>
0

>  <SCORE.heavy>
27

>  <SCORE.norm>
-0.36804

>  <RMSD>
6.470

$$$$
ligand
 OpenBabel11021811463D
libRbt.so/2013.1/901 2013/11/27
 27 29  0  0  0  0  0  0  0  0999 V2000
   37.5545   22.8089   80.8422 N   0  0  0  0  0  0  0  0  0  0  0  0
   37.9540   24.2113   81.0528 C   0  0  2  0  0  0  0  0  0  0  0  0
   38.0286   24.5148   82.5348 C   0  0  0  0  0  0  0  0  0  0  0  0
   38.8119   25.3736   82.9526 O   0  0  0  0  0  0  0  0  0  0  0  0
   36.9171   25.1279   80.4117 C   0  0  0  0  0  0  0  0  0  0  0  0
   37.1146   25.1844   78.9120 C   0  0  0  0  0  0  0  0  0  0  0  0
   36.5111   23.6358   78.2170 S   0  0  2  0  0  0  0  0  0  0  0  0
   36.6926   24.0376   76.4571 C   0  0  0  0  0  0  0  0  0  0  0  0
   34.7106   23.8515   78.4245 C   0  0  0  0  0  0  0  0  0  0  0  0
   34.0904   22.4993   78.7656 C   0  0  1  0  0  0  0  0  0  0  0  0
   32.6936   22.6707   78.8269 O   0  0  0  0  0  0  0  0  0  0  0  0
   34.3435   21.4690   77.6597 C   0  0  1  0  0  0  0  0  0  0  0  0
   35.5232   20.6508   77.6892 O   0  0  0  0  0  0  0  0  0  0  0  0
   32.9909   20.6867   77.5765 C   0  0  1  0  0  0  0  0  0  0  0  0
   33.2837   19.2789   77.5712 O   0  0  0  0  0  0  0  0  0  0  0  0
   32.1104   21.3866   78.6718 C   0  0  2  0  0  0  0  0  0  0  0  0
   37.2619   23.9582   83.3062 O   0  0  0  0  0  0  0  0  0  0  0  0
   27.6433   19.0851   77.3108 N   0  0  0  0  0  0  0  0  0  0  0  0
   28.8195   18.5173   77.6007 C   0  0  0  0  0  0  0  0  0  0  0  0
   29.8859   19.2467   77.9164 N   0  0  0  0  0  0  0  0  0  0  0  0
   29.8199   20.5889   77.9801 C   0  0  0  0  0  0  0  0  0  0  0  0
   28.5901   21.2410   77.6962 C   0  0  0  0  0  0  0  0  0  0  0  0
   27.4758   20.4206   77.3501 C   0  0  0  0  0  0  0  0  0  0  0  0
   26.2428   20.9785   77.0687 N   0  0  0  0  0  0  0  0  0  0  0  0
   28.7986   22.5702   77.8388 N   0  0  0  0  0  0  0  0  0  0  0  0
   30.0369   22.7742   78.1838 C   0  0  0  0  0  0  0  0  0  0  0  0
   30.7092   21.5808   78.2835 N   0  0  0  0  0  0  0  0  0  0  0  0
  2  1  1  1  0  0  0
  2  3  1  0  0  0  0
  2  5  1  0  0  0  0
  3  4  1  0  0  0  0
  3 17  1  0  0  0  0
  5  6  1  0  0  0  0
  7  6  1  1  0  0  0
  7  8  1  0  0  0  0
  7  9  1  0  0  0  0
 10  9  1  6  0  0  0
 10 11  1  0  0  0  0
 10 12  1  0  0  0  0
 11 16  1  0  0  0  0
 12 13  1  1  0  0  0
 12 14  1  0  0  0  0
 14 15  1  1  0  0  0
 14 16  1  0  0  0  0
 16 27  1  6  0  0  0
 18 19  2  0  0  0  0
 18 23  1  0  0  0  0
 19 20  1  0  0  0  0
 20 21  2  0  0  0  0
 21 22  1  0  0  0  0
 21 27  1  0  0  0  0
 22 23  2  0  0  0  0
 22 25  1  0  0  0  0
 23 24  1  0  0  0  0
 25 26  2  0  0  0  0
 26 27  1  0  0  0  0
M  END
>  <CHROM.1>
150.86725095,-77.90629558,74.78458975,174.22776896,-143.91436326,-175.88755195
176.89655090,33.42793243,22.26687370,78.78955913,0.47997436,0.20272183,1.04767790

>  <Name>
ligand

>  <RI>
0

>  <Rbt.Current_Directory>
/home/itssahil/PROJECTS/Mol_Feturizer/New_Systems/rnas/2QWY

>  <Rbt.Executable>
rbdock ($Id: //depot/dev/client3/rdock/2013.1/src/exe/rbdock.cxx#4 $)

>  <Rbt.Library>
libRbt.so (2013.1, Build901 2013/11/27)

>  <Rbt.Parameter_File>
/export/apps/rDock/src/rDock_2013.1_src/data/scripts/dock_solv.prm

>  <Rbt.Receptor>
prm/pocket_docking_8.prm

>  <SCORE>
-23.6227

>  <SCORE.INTER>
-22.9968

>  <SCORE.INTER.CONST>
1

>  <SCORE.INTER.POLAR>
0

>  <SCORE.INTER.ROT>
7

>  <SCORE.INTER.SOLV>
8.02785

>  <SCORE.INTER.VDW>
-26.2738

>  <SCORE.INTER.norm>
-0.851735

>  <SCORE.INTRA>
-0.625887

>  <SCORE.INTRA.DIHEDRAL>
-1.95026

>  <SCORE.INTRA.DIHEDRAL.0>
10.7382

>  <SCORE.INTRA.POLAR>
0

>  <SCORE.INTRA.POLAR.0>
0

>  <SCORE.INTRA.REPUL>
0

>  <SCORE.INTRA.REPUL.0>
0

>  <SCORE.INTRA.SOLV>
1.94821

>  <SCORE.INTRA.SOLV.lig_0>
-49.2501

>  <SCORE.INTRA.VDW>
-0.624859

>  <SCORE.INTRA.VDW.0>
-1.75368

>  <SCORE.INTRA.norm>
-0.023181

>  <SCORE.RESTR>
0

>  <SCORE.RESTR.CAVITY>
0

>  <SCORE.RESTR.norm>
0

>  <SCORE.SYSTEM>
0

>  <SCORE.SYSTEM.CONST>
0

>  <SCORE.SYSTEM.DIHEDRAL>
0

>  <SCORE.SYSTEM.SOLV>
0

>  <SCORE.SYSTEM.norm>
0

>  <SCORE.heavy>
27

>  <SCORE.norm>
-0.874916

>  <RMSD>
6.489

$$$$
ligand
 OpenBabel11021811463D
libRbt.so/2013.1/901 2013/11/27
 27 29  0  0  0  0  0  0  0  0999 V2000
   35.5468   22.6908   78.6368 N   0  0  0  0  0  0  0  0  0  0  0  0
   35.0584   21.4529   78.0047 C   0  0  2  0  0  0  0  0  0  0  0  0
   35.2106   21.5410   76.5003 C   0  0  0  0  0  0  0  0  0  0  0  0
   35.1804   20.5148   75.8135 O   0  0  0  0  0  0  0  0  0  0  0  0
   33.5826   21.2680   78.3426 C   0  0  0  0  0  0  0  0  0  0  0  0
   33.1004   19.9078   77.8857 C   0  0  0  0  0  0  0  0  0  0  0  0
   31.4502   19.6517   78.5614 S   0  0  2  0  0  0  0  0  0  0  0  0
   31.1009   18.0323   77.8217 C   0  0  0  0  0  0  0  0  0  0  0  0
   30.4667   20.7356   77.4707 C   0  0  0  0  0  0  0  0  0  0  0  0
   29.0172   20.7278   77.9486 C   0  0  1  0  0  0  0  0  0  0  0  0
   28.4025   21.9033   77.4748 O   0  0  0  0  0  0  0  0  0  0  0  0
   28.2303   19.5622   77.3398 C   0  0  1  0  0  0  0  0  0  0  0  0
   28.1908   18.2900   78.0046 O   0  0  0  0  0  0  0  0  0  0  0  0
   26.8338   20.1934   77.0238 C   0  0  1  0  0  0  0  0  0  0  0  0
   25.8157   19.3080   77.5211 O   0  0  0  0  0  0  0  0  0  0  0  0
   27.0017   21.6793   77.5019 C   0  0  2  0  0  0  0  0  0  0  0  0
   35.2922   22.6352   75.9630 O   0  0  0  0  0  0  0  0  0  0  0  0
   24.7048   26.3397   77.1720 N   0  0  0  0  0  0  0  0  0  0  0  0
   25.1671   25.7129   78.2598 C   0  0  0  0  0  0  0  0  0  0  0  0
   25.7180   24.5046   78.1859 N   0  0  0  0  0  0  0  0  0  0  0  0
   25.8545   23.8703   77.0073 C   0  0  0  0  0  0  0  0  0  0  0  0
   25.3937   24.4988   75.8195 C   0  0  0  0  0  0  0  0  0  0  0  0
   24.7984   25.7887   75.9469 C   0  0  0  0  0  0  0  0  0  0  0  0
   24.3334   26.4695   74.8373 N   0  0  0  0  0  0  0  0  0  0  0  0
   25.6568   23.6578   74.7927 N   0  0  0  0  0  0  0  0  0  0  0  0
   26.2341   22.5867   75.2546 C   0  0  0  0  0  0  0  0  0  0  0  0
   26.3779   22.6698   76.6178 N   0  0  0  0  0  0  0  0  0  0  0  0
  2  1  1  1  0  0  0
  2  3  1  0  0  0  0
  2  5  1  0  0  0  0
  3  4  1  0  0  0  0
  3 17  1  0  0  0  0
  5  6  1  0  0  0  0
  7  6  1  6  0  0  0
  7  8  1  0  0  0  0
  7  9  1  0  0  0  0
 10  9  1  6  0  0  0
 10 11  1  0  0  0  0
 10 12  1  0  0  0  0
 11 16  1  0  0  0  0
 12 13  1  1  0  0  0
 12 14  1  0  0  0  0
 14 15  1  1  0  0  0
 14 16  1  0  0  0  0
 16 27  1  6  0  0  0
 18 19  2  0  0  0  0
 18 23  1  0  0  0  0
 19 20  1  0  0  0  0
 20 21  2  0  0  0  0
 21 22  1  0  0  0  0
 21 27  1  0  0  0  0
 22 23  2  0  0  0  0
 22 25  1  0  0  0  0
 23 24  1  0  0  0  0
 25 26  2  0  0  0  0
 26 27  1  0  0  0  0
M  END
>  <CHROM.1>
161.91269721,-171.55267207,170.49031513,177.75449899,-176.32571429,157.57907166
-95.08623968,29.24052470,21.87670802,77.17985071,-0.40154818,-0.01513624
-0.24024366

>  <Name>
ligand

>  <RI>
0

>  <Rbt.Current_Directory>
/home/itssahil/PROJECTS/Mol_Feturizer/New_Systems/rnas/2QWY

>  <Rbt.Executable>
rbdock ($Id: //depot/dev/client3/rdock/2013.1/src/exe/rbdock.cxx#4 $)

>  <Rbt.Library>
libRbt.so (2013.1, Build901 2013/11/27)

>  <Rbt.Parameter_File>
/export/apps/rDock/src/rDock_2013.1_src/data/scripts/dock_solv.prm

>  <Rbt.Receptor>
prm/pocket_docking_8.prm

>  <SCORE>
-24.6534

>  <SCORE.INTER>
-22.0239

>  <SCORE.INTER.CONST>
1

>  <SCORE.INTER.POLAR>
0

>  <SCORE.INTER.ROT>
7

>  <SCORE.INTER.SOLV>
9.80469

>  <SCORE.INTER.VDW>
-26.2175

>  <SCORE.INTER.norm>
-0.815699

>  <SCORE.INTRA>
-2.62951

>  <SCORE.INTRA.DIHEDRAL>
-4.89512

>  <SCORE.INTRA.DIHEDRAL.0>
10.7382

>  <SCORE.INTRA.POLAR>
0

>  <SCORE.INTRA.POLAR.0>
0

>  <SCORE.INTRA.REPUL>
0

>  <SCORE.INTRA.REPUL.0>
0

>  <SCORE.INTRA.SOLV>
-0.955564

>  <SCORE.INTRA.SOLV.lig_0>
-49.2501

>  <SCORE.INTRA.VDW>
0.29583

>  <SCORE.INTRA.VDW.0>
-1.75368

>  <SCORE.INTRA.norm>
-0.0973894

>  <SCORE.RESTR>
0

>  <SCORE.RESTR.CAVITY>
0

>  <SCORE.RESTR.norm>
0

>  <SCORE.SYSTEM>
0

>  <SCORE.SYSTEM.CONST>
0

>  <SCORE.SYSTEM.DIHEDRAL>
0

>  <SCORE.SYSTEM.SOLV>
0

>  <SCORE.SYSTEM.norm>
0

>  <SCORE.heavy>
27

>  <SCORE.norm>
-0.913088

>  <RMSD>
6.577

$$$$
ligand
 OpenBabel11021811463D
libRbt.so/2013.1/901 2013/11/27
 27 29  0  0  0  0  0  0  0  0999 V2000
   34.9853   15.3295   67.8306 N   0  0  0  0  0  0  0  0  0  0  0  0
   36.1926   16.1711   67.9016 C   0  0  2  0  0  0  0  0  0  0  0  0
   37.0840   15.9052   66.7063 C   0  0  0  0  0  0  0  0  0  0  0  0
   38.2618   16.2772   66.7170 O   0  0  0  0  0  0  0  0  0  0  0  0
   36.9609   15.8362   69.1759 C   0  0  0  0  0  0  0  0  0  0  0  0
   36.1809   16.2760   70.3963 C   0  0  0  0  0  0  0  0  0  0  0  0
   37.1037   15.7624   71.8557 S   0  0  2  0  0  0  0  0  0  0  0  0
   36.5535   14.0352   71.9324 C   0  0  0  0  0  0  0  0  0  0  0  0
   36.0816   16.4971   73.1775 C   0  0  0  0  0  0  0  0  0  0  0  0
   35.9657   17.9988   72.9310 C   0  0  1  0  0  0  0  0  0  0  0  0
   35.2344   18.5542   73.9992 O   0  0  0  0  0  0  0  0  0  0  0  0
   37.3379   18.6807   72.9561 C   0  0  1  0  0  0  0  0  0  0  0  0
   38.1096   18.7986   71.7508 O   0  0  0  0  0  0  0  0  0  0  0  0
   37.0605   20.0263   73.7050 C   0  0  1  0  0  0  0  0  0  0  0  0
   37.6590   21.0941   72.9504 O   0  0  0  0  0  0  0  0  0  0  0  0
   35.5257   19.9426   74.0243 C   0  0  2  0  0  0  0  0  0  0  0  0
   36.6542   15.2602   65.7619 O   0  0  0  0  0  0  0  0  0  0  0  0
   35.8914   23.8891   77.3999 N   0  0  0  0  0  0  0  0  0  0  0  0
   36.4265   23.7844   76.1782 C   0  0  0  0  0  0  0  0  0  0  0  0
   36.2576   22.6943   75.4351 N   0  0  0  0  0  0  0  0  0  0  0  0
   35.5199   21.6580   75.8732 C   0  0  0  0  0  0  0  0  0  0  0  0
   34.9168   21.7248   77.1577 C   0  0  0  0  0  0  0  0  0  0  0  0
   35.1345   22.9071   77.9253 C   0  0  0  0  0  0  0  0  0  0  0  0
   34.5747   23.0525   79.1808 N   0  0  0  0  0  0  0  0  0  0  0  0
   34.2365   20.5699   77.3420 N   0  0  0  0  0  0  0  0  0  0  0  0
   34.3739   19.8198   76.2873 C   0  0  0  0  0  0  0  0  0  0  0  0
   35.1590   20.4478   75.3517 N   0  0  0  0  0  0  0  0  0  0  0  0
  2  1  1  6  0  0  0
  2  3  1  0  0  0  0
  2  5  1  0  0  0  0
  3  4  1  0  0  0  0
  3 17  1  0  0  0  0
  5  6  1  0  0  0  0
  7  6  1  6  0  0  0
  7  8  1  0  0  0  0
  7  9  1  0  0  0  0
 10  9  1  1  0  0  0
 10 11  1  0  0  0  0
 10 12  1  0  0  0  0
 11 16  1  0  0  0  0
 12 13  1  6  0  0  0
 12 14  1  0  0  0  0
 14 15  1  6  0  0  0
 14 16  1  0  0  0  0
 16 27  1  1  0  0  0
 18 19  2  0  0  0  0
 18 23  1  0  0  0  0
 19 20  1  0  0  0  0
 20 21  2  0  0  0  0
 21 22  1  0  0  0  0
 21 27  1  0  0  0  0
 22 23  2  0  0  0  0
 22 25  1  0  0  0  0
 23 24  1  0  0  0  0
 25 26  2  0  0  0  0
 26 27  1  0  0  0  0
M  END
>  <CHROM.1>
-164.09013884,-67.95267557,176.75823817,-81.92062730,-56.78227866,-176.92964656
166.22227558,36.21403127,18.75610514,72.85260396,1.23193026,-1.15972972,-2.53741073

>  <Name>
ligand

>  <RI>
0

>  <Rbt.Current_Directory>
/home/itssahil/PROJECTS/Mol_Feturizer/New_Systems/rnas/2QWY

>  <Rbt.Executable>
rbdock ($Id: //depot/dev/client3/rdock/2013.1/src/exe/rbdock.cxx#4 $)

>  <Rbt.Library>
libRbt.so (2013.1, Build901 2013/11/27)

>  <Rbt.Parameter_File>
/export/apps/rDock/src/rDock_2013.1_src/data/scripts/dock_solv.prm

>  <Rbt.Receptor>
prm/pocket_docking_6.prm

>  <SCORE>
-16.0623

>  <SCORE.INTER>
-13.4207

>  <SCORE.INTER.CONST>
1

>  <SCORE.INTER.POLAR>
0

>  <SCORE.INTER.ROT>
7

>  <SCORE.INTER.SOLV>
9.4551

>  <SCORE.INTER.VDW>
-20.3655

>  <SCORE.INTER.norm>
-0.497063

>  <SCORE.INTRA>
-2.64156

>  <SCORE.INTRA.DIHEDRAL>
-6.18333

>  <SCORE.INTRA.DIHEDRAL.0>
10.7382

>  <SCORE.INTRA.POLAR>
0

>  <SCORE.INTRA.POLAR.0>
0

>  <SCORE.INTRA.REPUL>
0

>  <SCORE.INTRA.REPUL.0>
0

>  <SCORE.INTRA.SOLV>
0.0883871

>  <SCORE.INTRA.SOLV.lig_0>
-49.2501

>  <SCORE.INTRA.VDW>
0.40591

>  <SCORE.INTRA.VDW.0>
-1.75368

>  <SCORE.INTRA.norm>
-0.0978355

>  <SCORE.RESTR>
0

>  <SCORE.RESTR.CAVITY>
0

>  <SCORE.RESTR.norm>
0

>  <SCORE.SYSTEM>
0

>  <SCORE.SYSTEM.CONST>
0

>  <SCORE.SYSTEM.DIHEDRAL>
0

>  <SCORE.SYSTEM.SOLV>
0

>  <SCORE.SYSTEM.norm>
0

>  <SCORE.heavy>
27

>  <SCORE.norm>
-0.594898

>  <RMSD>
6.617

$$$$
ligand
 OpenBabel11021811463D
libRbt.so/2013.1/901 2013/11/27
 27 29  0  0  0  0  0  0  0  0999 V2000
   35.7214   26.5031   81.0031 N   0  0  0  0  0  0  0  0  0  0  0  0
   36.4260   25.2094   80.9827 C   0  0  2  0  0  0  0  0  0  0  0  0
   36.8480   24.8238   82.3852 C   0  0  0  0  0  0  0  0  0  0  0  0
   36.9360   23.6326   82.7002 O   0  0  0  0  0  0  0  0  0  0  0  0
   37.6695   25.3316   80.1080 C   0  0  0  0  0  0  0  0  0  0  0  0
   37.2873   25.3556   78.6435 C   0  0  0  0  0  0  0  0  0  0  0  0
   36.6511   23.7263   78.2123 S   0  0  2  0  0  0  0  0  0  0  0  0
   36.7400   23.8682   76.4057 C   0  0  0  0  0  0  0  0  0  0  0  0
   34.8634   23.9803   78.4792 C   0  0  0  0  0  0  0  0  0  0  0  0
   34.2227   22.6380   78.8216 C   0  0  1  0  0  0  0  0  0  0  0  0
   32.8295   22.8331   78.8934 O   0  0  0  0  0  0  0  0  0  0  0  0
   34.4503   21.6064   77.7114 C   0  0  1  0  0  0  0  0  0  0  0  0
   35.6160   20.7681   77.7304 O   0  0  0  0  0  0  0  0  0  0  0  0
   33.0840   20.8475   77.6361 C   0  0  1  0  0  0  0  0  0  0  0  0
   33.3527   19.4349   77.6252 O   0  0  0  0  0  0  0  0  0  0  0  0
   32.2235   21.5595   78.7394 C   0  0  2  0  0  0  0  0  0  0  0  0
   37.1689   25.6930   83.1816 O   0  0  0  0  0  0  0  0  0  0  0  0
   27.7435   19.3459   77.2786 N   0  0  0  0  0  0  0  0  0  0  0  0
   28.9169   18.7593   77.5410 C   0  0  0  0  0  0  0  0  0  0  0  0
   29.9873   19.4679   77.8888 N   0  0  0  0  0  0  0  0  0  0  0  0
   29.9283   20.8062   78.0140 C   0  0  0  0  0  0  0  0  0  0  0  0
   28.7018   21.4769   77.7614 C   0  0  0  0  0  0  0  0  0  0  0  0
   27.5829   20.6790   77.3791 C   0  0  0  0  0  0  0  0  0  0  0  0
   26.3526   21.2556   77.1247 N   0  0  0  0  0  0  0  0  0  0  0  0
   28.9173   22.7971   77.9645 N   0  0  0  0  0  0  0  0  0  0  0  0
   30.1568   22.9786   78.3174 C   0  0  0  0  0  0  0  0  0  0  0  0
   30.8230   21.7785   78.3617 N   0  0  0  0  0  0  0  0  0  0  0  0
  2  1  1  1  0  0  0
  2  3  1  0  0  0  0
  2  5  1  0  0  0  0
  3  4  1  0  0  0  0
  3 17  1  0  0  0  0
  5  6  1  0  0  0  0
  7  6  1  1  0  0  0
  7  8  1  0  0  0  0
  7  9  1  0  0  0  0
 10  9  1  6  0  0  0
 10 11  1  0  0  0  0
 10 12  1  0  0  0  0
 11 16  1  0  0  0  0
 12 13  1  1  0  0  0
 12 14  1  0  0  0  0
 14 15  1  1  0  0  0
 14 16  1  0  0  0  0
 16 27  1  6  0  0  0
 18 19  2  0  0  0  0
 18 23  1  0  0  0  0
 19 20  1  0  0  0  0
 20 21  2  0  0  0  0
 21 22  1  0  0  0  0
 21 27  1  0  0  0  0
 22 23  2  0  0  0  0
 22 25  1  0  0  0  0
 23 24  1  0  0  0  0
 25 26  2  0  0  0  0
 26 27  1  0  0  0  0
M  END
>  <CHROM.1>
150.17720179,-74.53061896,-68.25015510,-164.33884977,-153.18544505,-174.31872430
174.29622446,33.30955460,22.57727365,78.77983014,0.54256753,0.15234052,0.83924972

>  <Name>
ligand

>  <RI>
0

>  <Rbt.Current_Directory>
/home/itssahil/PROJECTS/Mol_Feturizer/New_Systems/rnas/2QWY

>  <Rbt.Executable>
rbdock ($Id: //depot/dev/client3/rdock/2013.1/src/exe/rbdock.cxx#4 $)

>  <Rbt.Library>
libRbt.so (2013.1, Build901 2013/11/27)

>  <Rbt.Parameter_File>
/export/apps/rDock/src/rDock_2013.1_src/data/scripts/dock_solv.prm

>  <Rbt.Receptor>
prm/pocket_docking_8.prm

>  <SCORE>
-24.6217

>  <SCORE.INTER>
-23.2292

>  <SCORE.INTER.CONST>
1

>  <SCORE.INTER.POLAR>
0

>  <SCORE.INTER.ROT>
7

>  <SCORE.INTER.SOLV>
10.7758

>  <SCORE.INTER.VDW>
-27.3447

>  <SCORE.INTER.norm>
-0.860339

>  <SCORE.INTRA>
-1.39252

>  <SCORE.INTRA.DIHEDRAL>
-2.16905

>  <SCORE.INTRA.DIHEDRAL.0>
10.7382

>  <SCORE.INTRA.POLAR>
0

>  <SCORE.INTRA.POLAR.0>
0

>  <SCORE.INTRA.REPUL>
0

>  <SCORE.INTRA.REPUL.0>
0

>  <SCORE.INTRA.SOLV>
0.983365

>  <SCORE.INTRA.SOLV.lig_0>
-49.2501

>  <SCORE.INTRA.VDW>
-0.79967

>  <SCORE.INTRA.VDW.0>
-1.75368

>  <SCORE.INTRA.norm>
-0.0515746

>  <SCORE.RESTR>
0

>  <SCORE.RESTR.CAVITY>
0

>  <SCORE.RESTR.norm>
0

>  <SCORE.SYSTEM>
0

>  <SCORE.SYSTEM.CONST>
0

>  <SCORE.SYSTEM.DIHEDRAL>
0

>  <SCORE.SYSTEM.SOLV>
0

>  <SCORE.SYSTEM.norm>
0

>  <SCORE.heavy>
27

>  <SCORE.norm>
-0.911914

>  <RMSD>
6.617

$$$$
ligand
 OpenBabel11021811463D
libRbt.so/2013.1/901 2013/11/27
 27 29  0  0  0  0  0  0  0  0999 V2000
   42.4656   14.5397   75.2684 N   0  0  0  0  0  0  0  0  0  0  0  0
   41.2022   13.8751   74.9039 C   0  0  2  0  0  0  0  0  0  0  0  0
   41.4255   12.9353   73.7374 C   0  0  0  0  0  0  0  0  0  0  0  0
   42.0811   13.3073   72.7588 O   0  0  0  0  0  0  0  0  0  0  0  0
   40.1803   14.9324   74.4987 C   0  0  0  0  0  0  0  0  0  0  0  0
   39.6524   15.6549   75.7196 C   0  0  0  0  0  0  0  0  0  0  0  0
   38.6236   17.0201   75.1512 S   0  0  2  0  0  0  0  0  0  0  0  0
   37.8903   17.4901   76.7427 C   0  0  0  0  0  0  0  0  0  0  0  0
   37.2336   16.1058   74.4005 C   0  0  0  0  0  0  0  0  0  0  0  0
   36.2755   17.1073   73.7614 C   0  0  1  0  0  0  0  0  0  0  0  0
   35.8457   17.9933   74.7686 O   0  0  0  0  0  0  0  0  0  0  0  0
   36.9821   17.9700   72.7103 C   0  0  1  0  0  0  0  0  0  0  0  0
   37.0425   17.5389   71.3419 O   0  0  0  0  0  0  0  0  0  0  0  0
   36.3677   19.3914   72.9353 C   0  0  1  0  0  0  0  0  0  0  0  0
   35.9815   19.9235   71.6565 O   0  0  0  0  0  0  0  0  0  0  0  0
   35.3625   19.1581   74.1185 C   0  0  2  0  0  0  0  0  0  0  0  0
   41.0155   11.7860   73.7986 O   0  0  0  0  0  0  0  0  0  0  0  0
   33.4977   20.7823   78.6998 N   0  0  0  0  0  0  0  0  0  0  0  0
   33.2556   19.6318   78.0615 C   0  0  0  0  0  0  0  0  0  0  0  0
   33.7973   19.3656   76.8763 N   0  0  0  0  0  0  0  0  0  0  0  0
   34.6321   20.2353   76.2789 C   0  0  0  0  0  0  0  0  0  0  0  0
   34.9345   21.4656   76.9217 C   0  0  0  0  0  0  0  0  0  0  0  0
   34.3218   21.7148   78.1855 C   0  0  0  0  0  0  0  0  0  0  0  0
   34.5721   22.8845   78.8783 N   0  0  0  0  0  0  0  0  0  0  0  0
   35.7909   22.1380   76.1185 N   0  0  0  0  0  0  0  0  0  0  0  0
   36.0311   21.4242   75.0570 C   0  0  0  0  0  0  0  0  0  0  0  0
   35.3378   20.2399   75.1090 N   0  0  0  0  0  0  0  0  0  0  0  0
  2  1  1  6  0  0  0
  2  3  1  0  0  0  0
  2  5  1  0  0  0  0
  3  4  1  0  0  0  0
  3 17  1  0  0  0  0
  5  6  1  0  0  0  0
  7  6  1  1  0  0  0
  7  8  1  0  0  0  0
  7  9  1  0  0  0  0
 10  9  1  1  0  0  0
 10 11  1  0  0  0  0
 10 12  1  0  0  0  0
 11 16  1  0  0  0  0
 12 13  1  6  0  0  0
 12 14  1  0  0  0  0
 14 15  1  6  0  0  0
 14 16  1  0  0  0  0
 16 27  1  1  0  0  0
 18 19  2  0  0  0  0
 18 23  1  0  0  0  0
 19 20  1  0  0  0  0
 20 21  2  0  0  0  0
 21 22  1  0  0  0  0
 21 27  1  0  0  0  0
 22 23  2  0  0  0  0
 22 25  1  0  0  0  0
 23 24  1  0  0  0  0
 25 26  2  0  0  0  0
 26 27  1  0  0  0  0
M  END
>  <CHROM.1>
-45.68281245,-74.90343930,172.74094841,169.75615373,-176.11867438,-58.22895066
-59.24785163,37.24854377,17.88487505,75.05565713,-0.33152284,-0.82882238
1.51270902

>  <Name>
ligand

>  <RI>
0

>  <Rbt.Current_Directory>
/home/itssahil/PROJECTS/Mol_Feturizer/New_Systems/rnas/2QWY

>  <Rbt.Executable>
rbdock ($Id: //depot/dev/client3/rdock/2013.1/src/exe/rbdock.cxx#4 $)

>  <Rbt.Library>
libRbt.so (2013.1, Build901 2013/11/27)

>  <Rbt.Parameter_File>
/export/apps/rDock/src/rDock_2013.1_src/data/scripts/dock_solv.prm

>  <Rbt.Receptor>
prm/pocket_docking_8.prm

>  <SCORE>
-11.4712

>  <SCORE.INTER>
-8.34782

>  <SCORE.INTER.CONST>
1

>  <SCORE.INTER.POLAR>
0

>  <SCORE.INTER.ROT>
7

>  <SCORE.INTER.SOLV>
9.94336

>  <SCORE.INTER.VDW>
-17.1463

>  <SCORE.INTER.norm>
-0.309179

>  <SCORE.INTRA>
-3.12339

>  <SCORE.INTRA.DIHEDRAL>
-5.86665

>  <SCORE.INTRA.DIHEDRAL.0>
10.7382

>  <SCORE.INTRA.POLAR>
0

>  <SCORE.INTRA.POLAR.0>
0

>  <SCORE.INTRA.REPUL>
0

>  <SCORE.INTRA.REPUL.0>
0

>  <SCORE.INTRA.SOLV>
-0.28123

>  <SCORE.INTRA.SOLV.lig_0>
-49.2501

>  <SCORE.INTRA.VDW>
-0.0494509

>  <SCORE.INTRA.VDW.0>
-1.75368

>  <SCORE.INTRA.norm>
-0.115681

>  <SCORE.RESTR>
0

>  <SCORE.RESTR.CAVITY>
0

>  <SCORE.RESTR.norm>
0

>  <SCORE.SYSTEM>
0

>  <SCORE.SYSTEM.CONST>
0

>  <SCORE.SYSTEM.DIHEDRAL>
0

>  <SCORE.SYSTEM.SOLV>
0

>  <SCORE.SYSTEM.norm>
0

>  <SCORE.heavy>
27

>  <SCORE.norm>
-0.42486

>  <RMSD>
6.644

$$$$
ligand
 OpenBabel11021811463D
libRbt.so/2013.1/901 2013/11/27
 27 29  0  0  0  0  0  0  0  0999 V2000
   36.5990   12.6493   70.4755 N   0  0  0  0  0  0  0  0  0  0  0  0
   35.3538   13.4369   70.4783 C   0  0  2  0  0  0  0  0  0  0  0  0
   34.5002   13.0660   69.2834 C   0  0  0  0  0  0  0  0  0  0  0  0
   33.3242   13.4391   69.2225 O   0  0  0  0  0  0  0  0  0  0  0  0
   35.7005   14.9200   70.3973 C   0  0  0  0  0  0  0  0  0  0  0  0
   36.2016   15.4211   71.7349 C   0  0  0  0  0  0  0  0  0  0  0  0
   36.2811   17.2191   71.6560 S   0  0  2  0  0  0  0  0  0  0  0  0
   38.0734   17.4037   71.4434 C   0  0  0  0  0  0  0  0  0  0  0  0
   36.1095   17.6426   73.4232 C   0  0  0  0  0  0  0  0  0  0  0  0
   35.8839   19.1470   73.5477 C   0  0  1  0  0  0  0  0  0  0  0  0
   35.3589   19.3977   74.8305 O   0  0  0  0  0  0  0  0  0  0  0  0
   37.2035   19.9222   73.4700 C   0  0  1  0  0  0  0  0  0  0  0  0
   37.7123   20.3594   72.2004 O   0  0  0  0  0  0  0  0  0  0  0  0
   37.0257   21.0488   74.5412 C   0  0  1  0  0  0  0  0  0  0  0  0
   37.4156   22.2998   73.9491 O   0  0  0  0  0  0  0  0  0  0  0  0
   35.5909   20.7686   75.1134 C   0  0  2  0  0  0  0  0  0  0  0  0
   34.9987   12.4575   68.3485 O   0  0  0  0  0  0  0  0  0  0  0  0
   37.0588   19.0582   79.8064 N   0  0  0  0  0  0  0  0  0  0  0  0
   37.3948   18.5814   78.6024 C   0  0  0  0  0  0  0  0  0  0  0  0
   36.9193   19.1195   77.4829 N   0  0  0  0  0  0  0  0  0  0  0  0
   36.0965   20.1835   77.5141 C   0  0  0  0  0  0  0  0  0  0  0  0
   35.7208   20.7381   78.7669 C   0  0  0  0  0  0  0  0  0  0  0  0
   36.2442   20.1218   79.9420 C   0  0  0  0  0  0  0  0  0  0  0  0
   35.9328   20.6076   81.1981 N   0  0  0  0  0  0  0  0  0  0  0  0
   34.9060   21.7879   78.5127 N   0  0  0  0  0  0  0  0  0  0  0  0
   34.7612   21.9148   77.2255 C   0  0  0  0  0  0  0  0  0  0  0  0
   35.4768   20.9464   76.5651 N   0  0  0  0  0  0  0  0  0  0  0  0
  2  1  1  6  0  0  0
  2  3  1  0  0  0  0
  2  5  1  0  0  0  0
  3  4  1  0  0  0  0
  3 17  1  0  0  0  0
  5  6  1  0  0  0  0
  7  6  1  1  0  0  0
  7  8  1  0  0  0  0
  7  9  1  0  0  0  0
 10  9  1  1  0  0  0
 10 11  1  0  0  0  0
 10 12  1  0  0  0  0
 11 16  1  0  0  0  0
 12 13  1  6  0  0  0
 12 14  1  0  0  0  0
 14 15  1  6  0  0  0
 14 16  1  0  0  0  0
 16 27  1  1  0  0  0
 18 19  2  0  0  0  0
 18 23  1  0  0  0  0
 19 20  1  0  0  0  0
 20 21  2  0  0  0  0
 21 22  1  0  0  0  0
 21 27  1  0  0  0  0
 22 23  2  0  0  0  0
 22 25  1  0  0  0  0
 23 24  1  0  0  0  0
 25 26  2  0  0  0  0
 26 27  1  0  0  0  0
M  END
>  <CHROM.1>
167.61126888,-75.88061708,-169.10821634,-102.96130857,-169.22639904,162.49144512
49.42902237,36.08242747,18.18162229,74.16560790,1.83572146,-1.30396254,-1.98887141

>  <Name>
ligand

>  <RI>
0

>  <Rbt.Current_Directory>
/home/itssahil/PROJECTS/Mol_Feturizer/New_Systems/rnas/2QWY

>  <Rbt.Executable>
rbdock ($Id: //depot/dev/client3/rdock/2013.1/src/exe/rbdock.cxx#4 $)

>  <Rbt.Library>
libRbt.so (2013.1, Build901 2013/11/27)

>  <Rbt.Parameter_File>
/export/apps/rDock/src/rDock_2013.1_src/data/scripts/dock_solv.prm

>  <Rbt.Receptor>
prm/pocket_docking_7.prm

>  <SCORE>
-11.4566

>  <SCORE.INTER>
-9.67905

>  <SCORE.INTER.CONST>
1

>  <SCORE.INTER.POLAR>
0

>  <SCORE.INTER.ROT>
7

>  <SCORE.INTER.SOLV>
7.56052

>  <SCORE.INTER.VDW>
-17.2395

>  <SCORE.INTER.norm>
-0.358483

>  <SCORE.INTRA>
-1.77754

>  <SCORE.INTRA.DIHEDRAL>
-1.54317

>  <SCORE.INTRA.DIHEDRAL.0>
10.7382

>  <SCORE.INTRA.POLAR>
0

>  <SCORE.INTRA.POLAR.0>
0

>  <SCORE.INTRA.REPUL>
0

>  <SCORE.INTRA.REPUL.0>
0

>  <SCORE.INTRA.SOLV>
-0.333692

>  <SCORE.INTRA.SOLV.lig_0>
-49.2501

>  <SCORE.INTRA.VDW>
-0.839107

>  <SCORE.INTRA.VDW.0>
-1.75368

>  <SCORE.INTRA.norm>
-0.0658348

>  <SCORE.RESTR>
0

>  <SCORE.RESTR.CAVITY>
0

>  <SCORE.RESTR.norm>
0

>  <SCORE.SYSTEM>
0

>  <SCORE.SYSTEM.CONST>
0

>  <SCORE.SYSTEM.DIHEDRAL>
0

>  <SCORE.SYSTEM.SOLV>
0

>  <SCORE.SYSTEM.norm>
0

>  <SCORE.heavy>
27

>  <SCORE.norm>
-0.424318

>  <RMSD>
6.681

$$$$
ligand
 OpenBabel11021811463D
libRbt.so/2013.1/901 2013/11/27
 27 29  0  0  0  0  0  0  0  0999 V2000
   37.0214   13.8286   67.6220 N   0  0  0  0  0  0  0  0  0  0  0  0
   36.6812   15.2337   67.9056 C   0  0  2  0  0  0  0  0  0  0  0  0
   37.2821   16.1385   66.8500 C   0  0  0  0  0  0  0  0  0  0  0  0
   36.6118   17.0565   66.3664 O   0  0  0  0  0  0  0  0  0  0  0  0
   37.2472   15.6196   69.2683 C   0  0  0  0  0  0  0  0  0  0  0  0
   36.5039   16.8112   69.8330 C   0  0  0  0  0  0  0  0  0  0  0  0
   37.5222   17.5315   71.1329 S   0  0  2  0  0  0  0  0  0  0  0  0
   37.4293   16.1757   72.3349 C   0  0  0  0  0  0  0  0  0  0  0  0
   36.3424   18.7127   71.8707 C   0  0  0  0  0  0  0  0  0  0  0  0
   37.1277   19.8094   72.5850 C   0  0  1  0  0  0  0  0  0  0  0  0
   36.2347   20.4951   73.4314 O   0  0  0  0  0  0  0  0  0  0  0  0
   38.2110   19.2229   73.4966 C   0  0  1  0  0  0  0  0  0  0  0  0
   39.5273   18.9656   72.9833 O   0  0  0  0  0  0  0  0  0  0  0  0
   38.1563   20.1415   74.7621 C   0  0  1  0  0  0  0  0  0  0  0  0
   39.4998   20.5312   75.0950 O   0  0  0  0  0  0  0  0  0  0  0  0
   37.0181   21.1631   74.4077 C   0  0  2  0  0  0  0  0  0  0  0  0
   38.4532   16.0014   66.5303 O   0  0  0  0  0  0  0  0  0  0  0  0
   35.5147   24.8264   77.7876 N   0  0  0  0  0  0  0  0  0  0  0  0
   36.4469   24.9061   76.8313 C   0  0  0  0  0  0  0  0  0  0  0  0
   36.7343   23.8683   76.0508 N   0  0  0  0  0  0  0  0  0  0  0  0
   36.0814   22.6986   76.1757 C   0  0  0  0  0  0  0  0  0  0  0  0
   35.0714   22.5659   77.1659 C   0  0  0  0  0  0  0  0  0  0  0  0
   34.8046   23.7001   77.9887 C   0  0  0  0  0  0  0  0  0  0  0  0
   33.8310   23.6538   78.9689 N   0  0  0  0  0  0  0  0  0  0  0  0
   34.5791   21.3093   77.0709 N   0  0  0  0  0  0  0  0  0  0  0  0
   35.1979   20.6788   76.1151 C   0  0  0  0  0  0  0  0  0  0  0  0
   36.1360   21.4948   75.5319 N   0  0  0  0  0  0  0  0  0  0  0  0
  2  1  1  6  0  0  0
  2  3  1  0  0  0  0
  2  5  1  0  0  0  0
  3  4  1  0  0  0  0
  3 17  1  0  0  0  0
  5  6  1  0  0  0  0
  7  6  1  6  0  0  0
  7  8  1  0  0  0  0
  7  9  1  0  0  0  0
 10  9  1  1  0  0  0
 10 11  1  0  0  0  0
 10 12  1  0  0  0  0
 11 16  1  0  0  0  0
 12 13  1  6  0  0  0
 12 14  1  0  0  0  0
 14 15  1  6  0  0  0
 14 16  1  0  0  0  0
 16 27  1  1  0  0  0
 18 19  2  0  0  0  0
 18 23  1  0  0  0  0
 19 20  1  0  0  0  0
 20 21  2  0  0  0  0
 21 22  1  0  0  0  0
 21 27  1  0  0  0  0
 22 23  2  0  0  0  0
 22 25  1  0  0  0  0
 23 24  1  0  0  0  0
 25 26  2  0  0  0  0
 26 27  1  0  0  0  0
M  END
>  <CHROM.1>
136.19251682,-158.12372608,-162.06842694,-67.37735031,-156.95758295,-164.66360045
-134.33189314,36.80579529,19.55027485,72.98017480,1.42385892,0.10353231,-2.23429490

>  <Name>
ligand

>  <RI>
0

>  <Rbt.Current_Directory>
/home/itssahil/PROJECTS/Mol_Feturizer/New_Systems/rnas/2QWY

>  <Rbt.Executable>
rbdock ($Id: //depot/dev/client3/rdock/2013.1/src/exe/rbdock.cxx#4 $)

>  <Rbt.Library>
libRbt.so (2013.1, Build901 2013/11/27)

>  <Rbt.Parameter_File>
/export/apps/rDock/src/rDock_2013.1_src/data/scripts/dock_solv.prm

>  <Rbt.Receptor>
prm/pocket_docking_7.prm

>  <SCORE>
-14.0204

>  <SCORE.INTER>
-13.3029

>  <SCORE.INTER.CONST>
1

>  <SCORE.INTER.POLAR>
0

>  <SCORE.INTER.ROT>
7

>  <SCORE.INTER.SOLV>
8.2401

>  <SCORE.INTER.VDW>
-19.8819

>  <SCORE.INTER.norm>
-0.492699

>  <SCORE.INTRA>
-0.717535

>  <SCORE.INTRA.DIHEDRAL>
-1.52533

>  <SCORE.INTRA.DIHEDRAL.0>
10.7382

>  <SCORE.INTRA.POLAR>
0

>  <SCORE.INTRA.POLAR.0>
0

>  <SCORE.INTRA.REPUL>
0

>  <SCORE.INTRA.REPUL.0>
0

>  <SCORE.INTRA.SOLV>
-0.913571

>  <SCORE.INTRA.SOLV.lig_0>
-49.2501

>  <SCORE.INTRA.VDW>
0.501913

>  <SCORE.INTRA.VDW.0>
-1.75368

>  <SCORE.INTRA.norm>
-0.0265754

>  <SCORE.RESTR>
0

>  <SCORE.RESTR.CAVITY>
0

>  <SCORE.RESTR.norm>
0

>  <SCORE.SYSTEM>
0

>  <SCORE.SYSTEM.CONST>
0

>  <SCORE.SYSTEM.DIHEDRAL>
0

>  <SCORE.SYSTEM.SOLV>
0

>  <SCORE.SYSTEM.norm>
0

>  <SCORE.heavy>
27

>  <SCORE.norm>
-0.519274

>  <RMSD>
6.687

$$$$
ligand
 OpenBabel11021811463D
libRbt.so/2013.1/901 2013/11/27
 27 29  0  0  0  0  0  0  0  0999 V2000
   37.7595   23.8446   83.7884 N   0  0  0  0  0  0  0  0  0  0  0  0
   36.7347   23.4124   82.8221 C   0  0  2  0  0  0  0  0  0  0  0  0
   36.6505   21.9004   82.7934 C   0  0  0  0  0  0  0  0  0  0  0  0
   35.5758   21.3444   82.5453 O   0  0  0  0  0  0  0  0  0  0  0  0
   37.1154   23.9131   81.4326 C   0  0  0  0  0  0  0  0  0  0  0  0
   36.0064   23.6258   80.4433 C   0  0  0  0  0  0  0  0  0  0  0  0
   34.7822   24.9393   80.5897 S   0  0  2  0  0  0  0  0  0  0  0  0
   33.8502   24.2872   82.0031 C   0  0  0  0  0  0  0  0  0  0  0  0
   33.6566   24.5062   79.2196 C   0  0  0  0  0  0  0  0  0  0  0  0
   33.3180   23.0209   79.3134 C   0  0  1  0  0  0  0  0  0  0  0  0
   31.9183   22.8929   79.2202 O   0  0  0  0  0  0  0  0  0  0  0  0
   33.8958   22.2362   78.1307 C   0  0  1  0  0  0  0  0  0  0  0  0
   35.2177   21.6805   78.2075 O   0  0  0  0  0  0  0  0  0  0  0  0
   32.7620   21.2150   77.7845 C   0  0  1  0  0  0  0  0  0  0  0  0
   33.3553   19.9126   77.6445 O   0  0  0  0  0  0  0  0  0  0  0  0
   31.6484   21.5534   78.8382 C   0  0  2  0  0  0  0  0  0  0  0  0
   37.6633   21.2345   82.9464 O   0  0  0  0  0  0  0  0  0  0  0  0
   27.7118   18.5308   77.2662 N   0  0  0  0  0  0  0  0  0  0  0  0
   28.9180   18.1636   77.7133 C   0  0  0  0  0  0  0  0  0  0  0  0
   29.8339   19.0621   78.0640 N   0  0  0  0  0  0  0  0  0  0  0  0
   29.5763   20.3813   78.0053 C   0  0  0  0  0  0  0  0  0  0  0  0
   28.3049   20.8242   77.5518 C   0  0  0  0  0  0  0  0  0  0  0  0
   27.3577   19.8268   77.1743 C   0  0  0  0  0  0  0  0  0  0  0  0
   26.0960   20.1764   76.7310 N   0  0  0  0  0  0  0  0  0  0  0  0
   28.3111   22.1764   77.5983 N   0  0  0  0  0  0  0  0  0  0  0  0
   29.4659   22.5837   78.0395 C   0  0  0  0  0  0  0  0  0  0  0  0
   30.2827   21.5119   78.3045 N   0  0  0  0  0  0  0  0  0  0  0  0
  2  1  1  1  0  0  0
  2  3  1  0  0  0  0
  2  5  1  0  0  0  0
  3  4  1  0  0  0  0
  3 17  1  0  0  0  0
  5  6  1  0  0  0  0
  7  6  1  6  0  0  0
  7  8  1  0  0  0  0
  7  9  1  0  0  0  0
 10  9  1  6  0  0  0
 10 11  1  0  0  0  0
 10 12  1  0  0  0  0
 11 16  1  0  0  0  0
 12 13  1  1  0  0  0
 12 14  1  0  0  0  0
 14 15  1  1  0  0  0
 14 16  1  0  0  0  0
 16 27  1  6  0  0  0
 18 19  2  0  0  0  0
 18 23  1  0  0  0  0
 19 20  1  0  0  0  0
 20 21  2  0  0  0  0
 21 22  1  0  0  0  0
 21 27  1  0  0  0  0
 22 23  2  0  0  0  0
 22 25  1  0  0  0  0
 23 24  1  0  0  0  0
 25 26  2  0  0  0  0
 26 27  1  0  0  0  0
M  END
>  <CHROM.1>
149.01624538,-173.45605191,82.81010815,-83.24612134,48.77185799,130.52484120
-170.14192388,32.73699952,21.97803068,79.51999208,-0.34072124,0.51140958
-3.12230861

>  <Name>
ligand

>  <RI>
0

>  <Rbt.Current_Directory>
/home/itssahil/PROJECTS/Mol_Feturizer/New_Systems/rnas/2QWY

>  <Rbt.Executable>
rbdock ($Id: //depot/dev/client3/rdock/2013.1/src/exe/rbdock.cxx#4 $)

>  <Rbt.Library>
libRbt.so (2013.1, Build901 2013/11/27)

>  <Rbt.Parameter_File>
/export/apps/rDock/src/rDock_2013.1_src/data/scripts/dock_solv.prm

>  <Rbt.Receptor>
prm/pocket_docking_8.prm

>  <SCORE>
-23.216

>  <SCORE.INTER>
-23.7508

>  <SCORE.INTER.CONST>
1

>  <SCORE.INTER.POLAR>
0

>  <SCORE.INTER.ROT>
7

>  <SCORE.INTER.SOLV>
8.41233

>  <SCORE.INTER.VDW>
-26.9046

>  <SCORE.INTER.norm>
-0.879658

>  <SCORE.INTRA>
0.53478

>  <SCORE.INTRA.DIHEDRAL>
-0.322706

>  <SCORE.INTRA.DIHEDRAL.0>
10.7382

>  <SCORE.INTRA.POLAR>
0

>  <SCORE.INTRA.POLAR.0>
0

>  <SCORE.INTRA.REPUL>
0

>  <SCORE.INTRA.REPUL.0>
0

>  <SCORE.INTRA.SOLV>
-0.3791

>  <SCORE.INTRA.SOLV.lig_0>
-49.2501

>  <SCORE.INTRA.VDW>
0.885683

>  <SCORE.INTRA.VDW.0>
-1.75368

>  <SCORE.INTRA.norm>
0.0198067

>  <SCORE.RESTR>
0

>  <SCORE.RESTR.CAVITY>
0

>  <SCORE.RESTR.norm>
0

>  <SCORE.SYSTEM>
0

>  <SCORE.SYSTEM.CONST>
0

>  <SCORE.SYSTEM.DIHEDRAL>
0

>  <SCORE.SYSTEM.SOLV>
0

>  <SCORE.SYSTEM.norm>
0

>  <SCORE.heavy>
27

>  <SCORE.norm>
-0.859852

>  <RMSD>
6.690

$$$$
ligand
 OpenBabel11021811463D
libRbt.so/2013.1/901 2013/11/27
 27 29  0  0  0  0  0  0  0  0999 V2000
   35.9496   23.3719   80.8609 N   0  0  0  0  0  0  0  0  0  0  0  0
   35.0361   23.3773   79.7050 C   0  0  2  0  0  0  0  0  0  0  0  0
   35.6561   24.1427   78.5545 C   0  0  0  0  0  0  0  0  0  0  0  0
   36.5675   24.9491   78.7666 O   0  0  0  0  0  0  0  0  0  0  0  0
   33.7297   24.0562   80.1038 C   0  0  0  0  0  0  0  0  0  0  0  0
   32.6917   23.8897   79.0147 C   0  0  0  0  0  0  0  0  0  0  0  0
   32.0184   22.2238   79.1440 S   0  0  2  0  0  0  0  0  0  0  0  0
   33.2374   21.3565   78.1176 C   0  0  0  0  0  0  0  0  0  0  0  0
   30.6185   22.3339   77.9780 C   0  0  0  0  0  0  0  0  0  0  0  0
   29.6111   21.2380   78.3156 C   0  0  1  0  0  0  0  0  0  0  0  0
   28.3820   21.5872   77.7228 O   0  0  0  0  0  0  0  0  0  0  0  0
   30.0135   19.8942   77.6986 C   0  0  1  0  0  0  0  0  0  0  0  0
   30.8596   18.9890   78.4245 O   0  0  0  0  0  0  0  0  0  0  0  0
   28.6511   19.2935   77.2178 C   0  0  1  0  0  0  0  0  0  0  0  0
   28.5778   17.9283   77.6632 O   0  0  0  0  0  0  0  0  0  0  0  0
   27.6138   20.3980   77.6287 C   0  0  2  0  0  0  0  0  0  0  0  0
   35.3005   23.9080   77.4095 O   0  0  0  0  0  0  0  0  0  0  0  0
   23.6405   18.3257   74.9787 N   0  0  0  0  0  0  0  0  0  0  0  0
   24.4499   17.7352   75.8653 C   0  0  0  0  0  0  0  0  0  0  0  0
   25.4424   18.3984   76.4517 N   0  0  0  0  0  0  0  0  0  0  0  0
   25.6599   19.7009   76.1942 C   0  0  0  0  0  0  0  0  0  0  0  0
   24.8192   20.3794   75.2716 C   0  0  0  0  0  0  0  0  0  0  0  0
   23.7754   19.6263   74.6570 C   0  0  0  0  0  0  0  0  0  0  0  0
   22.9097   20.2162   73.7551 N   0  0  0  0  0  0  0  0  0  0  0  0
   25.2481   21.6609   75.2055 N   0  0  0  0  0  0  0  0  0  0  0  0
   26.2646   21.8133   76.0039 C   0  0  0  0  0  0  0  0  0  0  0  0
   26.5580   20.6304   76.6371 N   0  0  0  0  0  0  0  0  0  0  0  0
  2  1  1  1  0  0  0
  2  3  1  0  0  0  0
  2  5  1  0  0  0  0
  3  4  1  0  0  0  0
  3 17  1  0  0  0  0
  5  6  1  0  0  0  0
  7  6  1  6  0  0  0
  7  8  1  0  0  0  0
  7  9  1  0  0  0  0
 10  9  1  6  0  0  0
 10 11  1  0  0  0  0
 10 12  1  0  0  0  0
 11 16  1  0  0  0  0
 12 13  1  1  0  0  0
 12 14  1  0  0  0  0
 14 15  1  1  0  0  0
 14 16  1  0  0  0  0
 16 27  1  6  0  0  0
 18 19  2  0  0  0  0
 18 23  1  0  0  0  0
 19 20  1  0  0  0  0
 20 21  2  0  0  0  0
 21 22  1  0  0  0  0
 21 27  1  0  0  0  0
 22 23  2  0  0  0  0
 22 25  1  0  0  0  0
 23 24  1  0  0  0  0
 25 26  2  0  0  0  0
 26 27  1  0  0  0  0
M  END
>  <CHROM.1>
-20.21840912,-171.18881005,78.35274599,-87.12795839,-158.70199294,161.46840851
175.51116382,29.64855447,21.24402150,77.51287804,-0.23954235,0.44599274,2.81631207

>  <Name>
ligand

>  <RI>
0

>  <Rbt.Current_Directory>
/home/itssahil/PROJECTS/Mol_Feturizer/New_Systems/rnas/2QWY

>  <Rbt.Executable>
rbdock ($Id: //depot/dev/client3/rdock/2013.1/src/exe/rbdock.cxx#4 $)

>  <Rbt.Library>
libRbt.so (2013.1, Build901 2013/11/27)

>  <Rbt.Parameter_File>
/export/apps/rDock/src/rDock_2013.1_src/data/scripts/dock_solv.prm

>  <Rbt.Receptor>
prm/pocket_docking_7.prm

>  <SCORE>
-21.9002

>  <SCORE.INTER>
-20.4532

>  <SCORE.INTER.CONST>
1

>  <SCORE.INTER.POLAR>
0

>  <SCORE.INTER.ROT>
7

>  <SCORE.INTER.SOLV>
10.0733

>  <SCORE.INTER.VDW>
-25.2599

>  <SCORE.INTER.norm>
-0.757526

>  <SCORE.INTRA>
-1.44698

>  <SCORE.INTRA.DIHEDRAL>
-1.68382

>  <SCORE.INTRA.DIHEDRAL.0>
10.7382

>  <SCORE.INTRA.POLAR>
0

>  <SCORE.INTRA.POLAR.0>
0

>  <SCORE.INTRA.REPUL>
0

>  <SCORE.INTRA.REPUL.0>
0

>  <SCORE.INTRA.SOLV>
-0.376158

>  <SCORE.INTRA.SOLV.lig_0>
-49.2501

>  <SCORE.INTRA.VDW>
-0.416997

>  <SCORE.INTRA.VDW.0>
-1.75368

>  <SCORE.INTRA.norm>
-0.053592

>  <SCORE.RESTR>
0

>  <SCORE.RESTR.CAVITY>
0

>  <SCORE.RESTR.norm>
0

>  <SCORE.SYSTEM>
0

>  <SCORE.SYSTEM.CONST>
0

>  <SCORE.SYSTEM.DIHEDRAL>
0

>  <SCORE.SYSTEM.SOLV>
0

>  <SCORE.SYSTEM.norm>
0

>  <SCORE.heavy>
27

>  <SCORE.norm>
-0.811118

>  <RMSD>
6.706

$$$$
ligand
 OpenBabel11021811463D
libRbt.so/2013.1/901 2013/11/27
 27 29  0  0  0  0  0  0  0  0999 V2000
   34.1190   22.6717   81.1061 N   0  0  0  0  0  0  0  0  0  0  0  0
   34.8478   23.5004   80.1299 C   0  0  2  0  0  0  0  0  0  0  0  0
   34.9758   24.9194   80.6436 C   0  0  0  0  0  0  0  0  0  0  0  0
   36.0686   25.4942   80.6099 O   0  0  0  0  0  0  0  0  0  0  0  0
   34.0757   23.5183   78.8146 C   0  0  0  0  0  0  0  0  0  0  0  0
   34.3263   22.2449   78.0353 C   0  0  0  0  0  0  0  0  0  0  0  0
   33.1573   21.0033   78.6161 S   0  0  2  0  0  0  0  0  0  0  0  0
   33.6416   19.6398   77.5216 C   0  0  0  0  0  0  0  0  0  0  0  0
   31.6293   21.5662   77.7915 C   0  0  0  0  0  0  0  0  0  0  0  0
   30.4498   20.7756   78.3512 C   0  0  1  0  0  0  0  0  0  0  0  0
   29.2680   21.3532   77.8473 O   0  0  0  0  0  0  0  0  0  0  0  0
   30.4585   19.3256   77.8555 C   0  0  1  0  0  0  0  0  0  0  0  0
   31.1607   18.3129   78.5928 O   0  0  0  0  0  0  0  0  0  0  0  0
   28.9468   19.0259   77.5846 C   0  0  1  0  0  0  0  0  0  0  0  0
   28.6221   17.7621   78.1887 O   0  0  0  0  0  0  0  0  0  0  0  0
   28.2451   20.3772   77.9671 C   0  0  2  0  0  0  0  0  0  0  0  0
   33.9811   25.5172   81.0254 O   0  0  0  0  0  0  0  0  0  0  0  0
   24.0654   18.7857   75.3022 N   0  0  0  0  0  0  0  0  0  0  0  0
   24.8889   18.0640   76.0708 C   0  0  0  0  0  0  0  0  0  0  0  0
   25.9359   18.6149   76.6786 N   0  0  0  0  0  0  0  0  0  0  0  0
   26.1976   19.9296   76.5639 C   0  0  0  0  0  0  0  0  0  0  0  0
   25.3450   20.7441   75.7715 C   0  0  0  0  0  0  0  0  0  0  0  0
   24.2417   20.1092   75.1280 C   0  0  0  0  0  0  0  0  0  0  0  0
   23.3612   20.8343   74.3470 N   0  0  0  0  0  0  0  0  0  0  0  0
   25.8258   22.0073   75.8333 N   0  0  0  0  0  0  0  0  0  0  0  0
   26.8843   22.0253   76.5904 C   0  0  0  0  0  0  0  0  0  0  0  0
   27.1552   20.7654   77.0653 N   0  0  0  0  0  0  0  0  0  0  0  0
  2  1  1  1  0  0  0
  2  3  1  0  0  0  0
  2  5  1  0  0  0  0
  3  4  1  0  0  0  0
  3 17  1  0  0  0  0
  5  6  1  0  0  0  0
  7  6  1  6  0  0  0
  7  8  1  0  0  0  0
  7  9  1  0  0  0  0
 10  9  1  6  0  0  0
 10 11  1  0  0  0  0
 10 12  1  0  0  0  0
 11 16  1  0  0  0  0
 12 13  1  1  0  0  0
 12 14  1  0  0  0  0
 14 15  1  1  0  0  0
 14 16  1  0  0  0  0
 16 27  1  6  0  0  0
 18 19  2  0  0  0  0
 18 23  1  0  0  0  0
 19 20  1  0  0  0  0
 20 21  2  0  0  0  0
 21 22  1  0  0  0  0
 21 27  1  0  0  0  0
 22 23  2  0  0  0  0
 22 25  1  0  0  0  0
 23 24  1  0  0  0  0
 25 26  2  0  0  0  0
 26 27  1  0  0  0  0
M  END
>  <CHROM.1>
132.12238546,-79.26671299,85.82692165,178.77783274,-170.28201327,171.70706383
158.27895004,29.99286923,21.08820746,77.87731604,-0.38637441,0.37391310,-3.05881391

>  <Name>
ligand

>  <RI>
0

>  <Rbt.Current_Directory>
/home/itssahil/PROJECTS/Mol_Feturizer/New_Systems/rnas/2QWY

>  <Rbt.Executable>
rbdock ($Id: //depot/dev/client3/rdock/2013.1/src/exe/rbdock.cxx#4 $)

>  <Rbt.Library>
libRbt.so (2013.1, Build901 2013/11/27)

>  <Rbt.Parameter_File>
/export/apps/rDock/src/rDock_2013.1_src/data/scripts/dock_solv.prm

>  <Rbt.Receptor>
prm/pocket_docking_6.prm

>  <SCORE>
-20.4618

>  <SCORE.INTER>
-19.3016

>  <SCORE.INTER.CONST>
1

>  <SCORE.INTER.POLAR>
0

>  <SCORE.INTER.ROT>
7

>  <SCORE.INTER.SOLV>
9.70972

>  <SCORE.INTER.VDW>
-24.3709

>  <SCORE.INTER.norm>
-0.714872

>  <SCORE.INTRA>
-1.16028

>  <SCORE.INTRA.DIHEDRAL>
-2.72482

>  <SCORE.INTRA.DIHEDRAL.0>
10.7382

>  <SCORE.INTRA.POLAR>
0

>  <SCORE.INTRA.POLAR.0>
0

>  <SCORE.INTRA.REPUL>
0

>  <SCORE.INTRA.REPUL.0>
0

>  <SCORE.INTRA.SOLV>
1.19161

>  <SCORE.INTRA.SOLV.lig_0>
-49.2501

>  <SCORE.INTRA.VDW>
-0.393671

>  <SCORE.INTRA.VDW.0>
-1.75368

>  <SCORE.INTRA.norm>
-0.0429732

>  <SCORE.RESTR>
0

>  <SCORE.RESTR.CAVITY>
0

>  <SCORE.RESTR.norm>
0

>  <SCORE.SYSTEM>
0

>  <SCORE.SYSTEM.CONST>
0

>  <SCORE.SYSTEM.DIHEDRAL>
0

>  <SCORE.SYSTEM.SOLV>
0

>  <SCORE.SYSTEM.norm>
0

>  <SCORE.heavy>
27

>  <SCORE.norm>
-0.757846

>  <RMSD>
6.768

$$$$
ligand
 OpenBabel11021811463D
libRbt.so/2013.1/901 2013/11/27
 27 29  0  0  0  0  0  0  0  0999 V2000
   35.9560   24.2808   78.0074 N   0  0  0  0  0  0  0  0  0  0  0  0
   35.4626   24.2918   79.3956 C   0  0  2  0  0  0  0  0  0  0  0  0
   36.6272   24.2452   80.3628 C   0  0  0  0  0  0  0  0  0  0  0  0
   37.7272   23.8262   79.9882 O   0  0  0  0  0  0  0  0  0  0  0  0
   34.5818   23.0675   79.6225 C   0  0  0  0  0  0  0  0  0  0  0  0
   33.3115   23.1695   78.8057 C   0  0  0  0  0  0  0  0  0  0  0  0
   32.3957   21.6324   79.0152 S   0  0  2  0  0  0  0  0  0  0  0  0
   33.3962   20.5698   77.9374 C   0  0  0  0  0  0  0  0  0  0  0  0
   30.9587   21.9453   77.9341 C   0  0  0  0  0  0  0  0  0  0  0  0
   29.8336   20.9908   78.3247 C   0  0  1  0  0  0  0  0  0  0  0  0
   28.6458   21.4616   77.7317 O   0  0  0  0  0  0  0  0  0  0  0  0
   30.0642   19.5865   77.7561 C   0  0  1  0  0  0  0  0  0  0  0  0
   30.8077   18.6146   78.5076 O   0  0  0  0  0  0  0  0  0  0  0  0
   28.6330   19.1350   77.3133 C   0  0  1  0  0  0  0  0  0  0  0  0
   28.4049   17.8058   77.8120 O   0  0  0  0  0  0  0  0  0  0  0  0
   27.7405   20.3699   77.6919 C   0  0  2  0  0  0  0  0  0  0  0  0
   36.4937   24.6889   81.4933 O   0  0  0  0  0  0  0  0  0  0  0  0
   23.7077   18.5846   74.9254 N   0  0  0  0  0  0  0  0  0  0  0  0
   24.4828   17.9227   75.7919 C   0  0  0  0  0  0  0  0  0  0  0  0
   25.4972   18.5172   76.4138 N   0  0  0  0  0  0  0  0  0  0  0  0
   25.7723   19.8189   76.2140 C   0  0  0  0  0  0  0  0  0  0  0  0
   24.9700   20.5715   75.3151 C   0  0  0  0  0  0  0  0  0  0  0  0
   23.9008   19.8907   74.6608 C   0  0  0  0  0  0  0  0  0  0  0  0
   23.0696   20.5551   73.7785 N   0  0  0  0  0  0  0  0  0  0  0  0
   25.4536   21.8351   75.3073 N   0  0  0  0  0  0  0  0  0  0  0  0
   26.4681   21.9095   76.1191 C   0  0  0  0  0  0  0  0  0  0  0  0
   26.7050   20.6894   76.7032 N   0  0  0  0  0  0  0  0  0  0  0  0
  2  1  1  6  0  0  0
  2  3  1  0  0  0  0
  2  5  1  0  0  0  0
  3  4  1  0  0  0  0
  3 17  1  0  0  0  0
  5  6  1  0  0  0  0
  7  6  1  6  0  0  0
  7  8  1  0  0  0  0
  7  9  1  0  0  0  0
 10  9  1  6  0  0  0
 10 11  1  0  0  0  0
 10 12  1  0  0  0  0
 11 16  1  0  0  0  0
 12 13  1  1  0  0  0
 12 14  1  0  0  0  0
 14 15  1  1  0  0  0
 14 16  1  0  0  0  0
 16 27  1  6  0  0  0
 18 19  2  0  0  0  0
 18 23  1  0  0  0  0
 19 20  1  0  0  0  0
 20 21  2  0  0  0  0
 21 22  1  0  0  0  0
 21 27  1  0  0  0  0
 22 23  2  0  0  0  0
 22 25  1  0  0  0  0
 23 24  1  0  0  0  0
 25 26  2  0  0  0  0
 26 27  1  0  0  0  0
M  END
>  <CHROM.1>
-20.88510031,-67.29271170,175.20846896,-75.99279047,-160.76964691,165.34624192
169.01608884,29.94785351,21.15227437,77.65367877,0.23405433,-0.43554194,-0.24153081

>  <Name>
ligand

>  <RI>
0

>  <Rbt.Current_Directory>
/home/itssahil/PROJECTS/Mol_Feturizer/New_Systems/rnas/2QWY

>  <Rbt.Executable>
rbdock ($Id: //depot/dev/client3/rdock/2013.1/src/exe/rbdock.cxx#4 $)

>  <Rbt.Library>
libRbt.so (2013.1, Build901 2013/11/27)

>  <Rbt.Parameter_File>
/export/apps/rDock/src/rDock_2013.1_src/data/scripts/dock_solv.prm

>  <Rbt.Receptor>
prm/pocket_docking_6.prm

>  <SCORE>
-20.1548

>  <SCORE.INTER>
-17.6697

>  <SCORE.INTER.CONST>
1

>  <SCORE.INTER.POLAR>
0

>  <SCORE.INTER.ROT>
7

>  <SCORE.INTER.SOLV>
11.6632

>  <SCORE.INTER.VDW>
-23.9342

>  <SCORE.INTER.norm>
-0.654435

>  <SCORE.INTRA>
-2.48508

>  <SCORE.INTRA.DIHEDRAL>
-4.2799

>  <SCORE.INTRA.DIHEDRAL.0>
10.7382

>  <SCORE.INTRA.POLAR>
0

>  <SCORE.INTRA.POLAR.0>
0

>  <SCORE.INTRA.REPUL>
0

>  <SCORE.INTRA.REPUL.0>
0

>  <SCORE.INTRA.SOLV>
0.0288581

>  <SCORE.INTRA.SOLV.lig_0>
-49.2501

>  <SCORE.INTRA.VDW>
-0.359557

>  <SCORE.INTRA.VDW.0>
-1.75368

>  <SCORE.INTRA.norm>
-0.0920398

>  <SCORE.RESTR>
0

>  <SCORE.RESTR.CAVITY>
0

>  <SCORE.RESTR.norm>
0

>  <SCORE.SYSTEM>
0

>  <SCORE.SYSTEM.CONST>
0

>  <SCORE.SYSTEM.DIHEDRAL>
0

>  <SCORE.SYSTEM.SOLV>
0

>  <SCORE.SYSTEM.norm>
0

>  <SCORE.heavy>
27

>  <SCORE.norm>
-0.746475

>  <RMSD>
6.773

$$$$
ligand
 OpenBabel11021811463D
libRbt.so/2013.1/901 2013/11/27
 27 29  0  0  0  0  0  0  0  0999 V2000
   34.1188   25.4155   84.2355 N   0  0  0  0  0  0  0  0  0  0  0  0
   33.6458   25.1100   82.8740 C   0  0  2  0  0  0  0  0  0  0  0  0
   33.4724   23.6149   82.7059 C   0  0  0  0  0  0  0  0  0  0  0  0
   32.3939   23.1563   82.3154 O   0  0  0  0  0  0  0  0  0  0  0  0
   34.6763   25.6050   81.8644 C   0  0  0  0  0  0  0  0  0  0  0  0
   34.1493   25.4571   80.4530 C   0  0  0  0  0  0  0  0  0  0  0  0
   34.5690   23.8023   79.8779 S   0  0  2  0  0  0  0  0  0  0  0  0
   35.2424   24.2415   78.2515 C   0  0  0  0  0  0  0  0  0  0  0  0
   32.9201   23.1826   79.3998 C   0  0  0  0  0  0  0  0  0  0  0  0
   32.9978   21.6689   79.2199 C   0  0  1  0  0  0  0  0  0  0  0  0
   31.6804   21.1707   79.1999 O   0  0  0  0  0  0  0  0  0  0  0  0
   33.6141   21.2939   77.8679 C   0  0  1  0  0  0  0  0  0  0  0  0
   35.0349   21.1277   77.7414 O   0  0  0  0  0  0  0  0  0  0  0  0
   32.7555   20.0705   77.4048 C   0  0  1  0  0  0  0  0  0  0  0  0
   33.6489   19.0318   76.9683 O   0  0  0  0  0  0  0  0  0  0  0  0
   31.7281   19.8958   78.5790 C   0  0  2  0  0  0  0  0  0  0  0  0
   34.4235   22.8704   82.8900 O   0  0  0  0  0  0  0  0  0  0  0  0
   27.0690   21.7453   77.1733 N   0  0  0  0  0  0  0  0  0  0  0  0
   28.1565   22.4258   77.5526 C   0  0  0  0  0  0  0  0  0  0  0  0
   29.2793   21.8050   77.9032 N   0  0  0  0  0  0  0  0  0  0  0  0
   29.3756   20.4635   77.8687 C   0  0  0  0  0  0  0  0  0  0  0  0
   28.2540   19.6941   77.4584 C   0  0  0  0  0  0  0  0  0  0  0  0
   27.0669   20.4005   77.1032 C   0  0  0  0  0  0  0  0  0  0  0  0
   25.9358   19.7246   76.6853 N   0  0  0  0  0  0  0  0  0  0  0  0
   28.6206   18.3927   77.5080 N   0  0  0  0  0  0  0  0  0  0  0  0
   29.8569   18.3116   77.9068 C   0  0  0  0  0  0  0  0  0  0  0  0
   30.3671   19.5645   78.1432 N   0  0  0  0  0  0  0  0  0  0  0  0
  2  1  1  1  0  0  0
  2  3  1  0  0  0  0
  2  5  1  0  0  0  0
  3  4  1  0  0  0  0
  3 17  1  0  0  0  0
  5  6  1  0  0  0  0
  7  6  1  1  0  0  0
  7  8  1  0  0  0  0
  7  9  1  0  0  0  0
 10  9  1  6  0  0  0
 10 11  1  0  0  0  0
 10 12  1  0  0  0  0
 11 16  1  0  0  0  0
 12 13  1  1  0  0  0
 12 14  1  0  0  0  0
 14 15  1  1  0  0  0
 14 16  1  0  0  0  0
 16 27  1  6  0  0  0
 18 19  2  0  0  0  0
 18 23  1  0  0  0  0
 19 20  1  0  0  0  0
 20 21  2  0  0  0  0
 21 22  1  0  0  0  0
 21 27  1  0  0  0  0
 22 23  2  0  0  0  0
 22 25  1  0  0  0  0
 23 24  1  0  0  0  0
 25 26  2  0  0  0  0
 26 27  1  0  0  0  0
M  END
>  <CHROM.1>
125.94673225,-173.25939892,-87.64337363,-132.58740643,-165.51898915,164.90244673
24.49061508,31.91216306,21.94669065,79.22383976,0.81061099,0.03527971,0.80370481

>  <Name>
ligand

>  <RI>
0

>  <Rbt.Current_Directory>
/home/itssahil/PROJECTS/Mol_Feturizer/New_Systems/rnas/2QWY

>  <Rbt.Executable>
rbdock ($Id: //depot/dev/client3/rdock/2013.1/src/exe/rbdock.cxx#4 $)

>  <Rbt.Library>
libRbt.so (2013.1, Build901 2013/11/27)

>  <Rbt.Parameter_File>
/export/apps/rDock/src/rDock_2013.1_src/data/scripts/dock_solv.prm

>  <Rbt.Receptor>
prm/pocket_docking_7.prm

>  <SCORE>
-24.1965

>  <SCORE.INTER>
-23.1125

>  <SCORE.INTER.CONST>
1

>  <SCORE.INTER.POLAR>
0

>  <SCORE.INTER.ROT>
7

>  <SCORE.INTER.SOLV>
10.1119

>  <SCORE.INTER.VDW>
-27.0456

>  <SCORE.INTER.norm>
-0.856017

>  <SCORE.INTRA>
-1.08401

>  <SCORE.INTRA.DIHEDRAL>
1.47647

>  <SCORE.INTRA.DIHEDRAL.0>
10.7382

>  <SCORE.INTRA.POLAR>
0

>  <SCORE.INTRA.POLAR.0>
0

>  <SCORE.INTRA.REPUL>
0

>  <SCORE.INTRA.REPUL.0>
0

>  <SCORE.INTRA.SOLV>
-0.771263

>  <SCORE.INTRA.SOLV.lig_0>
-49.2501

>  <SCORE.INTRA.VDW>
-1.43661

>  <SCORE.INTRA.VDW.0>
-1.75368

>  <SCORE.INTRA.norm>
-0.0401485

>  <SCORE.RESTR>
0

>  <SCORE.RESTR.CAVITY>
0

>  <SCORE.RESTR.norm>
0

>  <SCORE.SYSTEM>
0

>  <SCORE.SYSTEM.CONST>
0

>  <SCORE.SYSTEM.DIHEDRAL>
0

>  <SCORE.SYSTEM.SOLV>
0

>  <SCORE.SYSTEM.norm>
0

>  <SCORE.heavy>
27

>  <SCORE.norm>
-0.896166

>  <RMSD>
6.853

$$$$
ligand
 OpenBabel11021811463D
libRbt.so/2013.1/901 2013/11/27
 27 29  0  0  0  0  0  0  0  0999 V2000
   34.5018   13.2799   70.2557 N   0  0  0  0  0  0  0  0  0  0  0  0
   35.9652   13.2472   70.0874 C   0  0  2  0  0  0  0  0  0  0  0  0
   36.3523   12.1625   69.1038 C   0  0  0  0  0  0  0  0  0  0  0  0
   35.4857   11.4279   68.6188 O   0  0  0  0  0  0  0  0  0  0  0  0
   36.6164   12.9491   71.4340 C   0  0  0  0  0  0  0  0  0  0  0  0
   36.2169   13.9898   72.4581 C   0  0  0  0  0  0  0  0  0  0  0  0
   36.7775   15.5946   71.8617 S   0  0  2  0  0  0  0  0  0  0  0  0
   38.5516   15.4027   72.1894 C   0  0  0  0  0  0  0  0  0  0  0  0
   36.2936   16.6627   73.2605 C   0  0  0  0  0  0  0  0  0  0  0  0
   36.0868   18.0840   72.7441 C   0  0  1  0  0  0  0  0  0  0  0  0
   35.6074   18.8642   73.8144 O   0  0  0  0  0  0  0  0  0  0  0  0
   37.4106   18.7238   72.3120 C   0  0  1  0  0  0  0  0  0  0  0  0
   37.8810   18.5732   70.9636 O   0  0  0  0  0  0  0  0  0  0  0  0
   37.2796   20.2008   72.8117 C   0  0  1  0  0  0  0  0  0  0  0  0
   37.6617   21.0762   71.7368 O   0  0  0  0  0  0  0  0  0  0  0  0
   35.8620   20.2208   73.4860 C   0  0  2  0  0  0  0  0  0  0  0  0
   37.5139   12.0629   68.7383 O   0  0  0  0  0  0  0  0  0  0  0  0
   33.8682   20.5397   78.2847 N   0  0  0  0  0  0  0  0  0  0  0  0
   33.6583   19.6007   77.3551 C   0  0  0  0  0  0  0  0  0  0  0  0
   34.2310   19.6671   76.1565 N   0  0  0  0  0  0  0  0  0  0  0  0
   35.0660   20.6723   75.8363 C   0  0  0  0  0  0  0  0  0  0  0  0
   35.3348   21.6874   76.7931 C   0  0  0  0  0  0  0  0  0  0  0  0
   34.6896   21.5830   78.0609 C   0  0  0  0  0  0  0  0  0  0  0  0
   34.9061   22.5259   79.0483 N   0  0  0  0  0  0  0  0  0  0  0  0
   36.1990   22.5580   76.2223 N   0  0  0  0  0  0  0  0  0  0  0  0
   36.4744   22.1574   75.0149 C   0  0  0  0  0  0  0  0  0  0  0  0
   35.7981   20.9967   74.7293 N   0  0  0  0  0  0  0  0  0  0  0  0
  2  1  1  1  0  0  0
  2  3  1  0  0  0  0
  2  5  1  0  0  0  0
  3  4  1  0  0  0  0
  3 17  1  0  0  0  0
  5  6  1  0  0  0  0
  7  6  1  1  0  0  0
  7  8  1  0  0  0  0
  7  9  1  0  0  0  0
 10  9  1  1  0  0  0
 10 11  1  0  0  0  0
 10 12  1  0  0  0  0
 11 16  1  0  0  0  0
 12 13  1  6  0  0  0
 12 14  1  0  0  0  0
 14 15  1  6  0  0  0
 14 16  1  0  0  0  0
 16 27  1  1  0  0  0
 18 19  2  0  0  0  0
 18 23  1  0  0  0  0
 19 20  1  0  0  0  0
 20 21  2  0  0  0  0
 21 22  1  0  0  0  0
 21 27  1  0  0  0  0
 22 23  2  0  0  0  0
 22 25  1  0  0  0  0
 23 24  1  0  0  0  0
 25 26  2  0  0  0  0
 26 27  1  0  0  0  0
M  END
>  <CHROM.1>
-2.96141443,-57.96747468,-60.37167140,-74.30121975,-154.50051770,175.18450481
-27.35752996,36.09034305,17.73549811,73.26901862,1.38258333,-0.90555976,-2.62165993

>  <Name>
ligand

>  <RI>
0

>  <Rbt.Current_Directory>
/home/itssahil/PROJECTS/Mol_Feturizer/New_Systems/rnas/2QWY

>  <Rbt.Executable>
rbdock ($Id: //depot/dev/client3/rdock/2013.1/src/exe/rbdock.cxx#4 $)

>  <Rbt.Library>
libRbt.so (2013.1, Build901 2013/11/27)

>  <Rbt.Parameter_File>
/export/apps/rDock/src/rDock_2013.1_src/data/scripts/dock_solv.prm

>  <Rbt.Receptor>
prm/pocket_docking_6.prm

>  <SCORE>
-11.0501

>  <SCORE.INTER>
-9.45519

>  <SCORE.INTER.CONST>
1

>  <SCORE.INTER.POLAR>
0

>  <SCORE.INTER.ROT>
7

>  <SCORE.INTER.SOLV>
10.4196

>  <SCORE.INTER.VDW>
-18.0433

>  <SCORE.INTER.norm>
-0.350192

>  <SCORE.INTRA>
-1.59489

>  <SCORE.INTRA.DIHEDRAL>
-4.59958

>  <SCORE.INTRA.DIHEDRAL.0>
10.7382

>  <SCORE.INTRA.POLAR>
0

>  <SCORE.INTRA.POLAR.0>
0

>  <SCORE.INTRA.REPUL>
0

>  <SCORE.INTRA.REPUL.0>
0

>  <SCORE.INTRA.SOLV>
0.646578

>  <SCORE.INTRA.SOLV.lig_0>
-49.2501

>  <SCORE.INTRA.VDW>
0.381613

>  <SCORE.INTRA.VDW.0>
-1.75368

>  <SCORE.INTRA.norm>
-0.0590699

>  <SCORE.RESTR>
0

>  <SCORE.RESTR.CAVITY>
0

>  <SCORE.RESTR.norm>
0

>  <SCORE.SYSTEM>
0

>  <SCORE.SYSTEM.CONST>
0

>  <SCORE.SYSTEM.DIHEDRAL>
0

>  <SCORE.SYSTEM.SOLV>
0

>  <SCORE.SYSTEM.norm>
0

>  <SCORE.heavy>
27

>  <SCORE.norm>
-0.409262

>  <RMSD>
6.886

$$$$
ligand
 OpenBabel11021811463D
libRbt.so/2013.1/901 2013/11/27
 27 29  0  0  0  0  0  0  0  0999 V2000
   36.5299   23.3273   79.2899 N   0  0  0  0  0  0  0  0  0  0  0  0
   35.3660   24.0772   79.7938 C   0  0  2  0  0  0  0  0  0  0  0  0
   35.6591   24.6284   81.1737 C   0  0  0  0  0  0  0  0  0  0  0  0
   35.3372   25.7862   81.4596 O   0  0  0  0  0  0  0  0  0  0  0  0
   34.1665   23.1391   79.8803 C   0  0  0  0  0  0  0  0  0  0  0  0
   33.8727   22.5281   78.5269 C   0  0  0  0  0  0  0  0  0  0  0  0
   32.7413   21.1489   78.7780 S   0  0  2  0  0  0  0  0  0  0  0  0
   33.4188   20.0111   77.5378 C   0  0  0  0  0  0  0  0  0  0  0  0
   31.2634   21.7598   77.8981 C   0  0  0  0  0  0  0  0  0  0  0  0
   30.0557   20.9358   78.3362 C   0  0  1  0  0  0  0  0  0  0  0  0
   28.9072   21.5223   77.7694 O   0  0  0  0  0  0  0  0  0  0  0  0
   30.1192   19.5074   77.7847 C   0  0  1  0  0  0  0  0  0  0  0  0
   30.7776   18.4721   78.5309 O   0  0  0  0  0  0  0  0  0  0  0  0
   28.6355   19.2048   77.3902 C   0  0  1  0  0  0  0  0  0  0  0  0
   28.2829   17.9143   77.9173 O   0  0  0  0  0  0  0  0  0  0  0  0
   27.8906   20.5326   77.7734 C   0  0  2  0  0  0  0  0  0  0  0  0
   36.1503   23.9018   82.0243 O   0  0  0  0  0  0  0  0  0  0  0  0
   23.8376   19.0430   74.8651 N   0  0  0  0  0  0  0  0  0  0  0  0
   24.5964   18.3016   75.6802 C   0  0  0  0  0  0  0  0  0  0  0  0
   25.6188   18.8270   76.3492 N   0  0  0  0  0  0  0  0  0  0  0  0
   25.9191   20.1348   76.2515 C   0  0  0  0  0  0  0  0  0  0  0  0
   25.1349   20.9696   75.4111 C   0  0  0  0  0  0  0  0  0  0  0  0
   24.0562   20.3618   74.7029 C   0  0  0  0  0  0  0  0  0  0  0  0
   23.2414   21.1079   73.8722 N   0  0  0  0  0  0  0  0  0  0  0  0
   25.6420   22.2206   75.5024 N   0  0  0  0  0  0  0  0  0  0  0  0
   26.6542   22.2129   76.3206 C   0  0  0  0  0  0  0  0  0  0  0  0
   26.8656   20.9470   76.8093 N   0  0  0  0  0  0  0  0  0  0  0  0
  2  1  1  1  0  0  0
  2  3  1  0  0  0  0
  2  5  1  0  0  0  0
  3  4  1  0  0  0  0
  3 17  1  0  0  0  0
  5  6  1  0  0  0  0
  7  6  1  6  0  0  0
  7  8  1  0  0  0  0
  7  9  1  0  0  0  0
 10  9  1  6  0  0  0
 10 11  1  0  0  0  0
 10 12  1  0  0  0  0
 11 16  1  0  0  0  0
 12 13  1  1  0  0  0
 12 14  1  0  0  0  0
 14 15  1  1  0  0  0
 14 16  1  0  0  0  0
 16 27  1  6  0  0  0
 18 19  2  0  0  0  0
 18 23  1  0  0  0  0
 19 20  1  0  0  0  0
 20 21  2  0  0  0  0
 21 22  1  0  0  0  0
 21 27  1  0  0  0  0
 22 23  2  0  0  0  0
 22 25  1  0  0  0  0
 23 24  1  0  0  0  0
 25 26  2  0  0  0  0
 26 27  1  0  0  0  0
M  END
>  <CHROM.1>
136.52680237,-57.72328081,166.07275472,-142.41357751,-163.19705395,173.18836073
161.48071765,29.93897251,21.21471665,77.81437626,-0.31701037,0.42620077,-3.11568969

>  <Name>
ligand

>  <RI>
0

>  <Rbt.Current_Directory>
/home/itssahil/PROJECTS/Mol_Feturizer/New_Systems/rnas/2QWY

>  <Rbt.Executable>
rbdock ($Id: //depot/dev/client3/rdock/2013.1/src/exe/rbdock.cxx#4 $)

>  <Rbt.Library>
libRbt.so (2013.1, Build901 2013/11/27)

>  <Rbt.Parameter_File>
/export/apps/rDock/src/rDock_2013.1_src/data/scripts/dock_solv.prm

>  <Rbt.Receptor>
prm/pocket_docking_6.prm

>  <SCORE>
-19.4064

>  <SCORE.INTER>
-18.295

>  <SCORE.INTER.CONST>
1

>  <SCORE.INTER.POLAR>
0

>  <SCORE.INTER.ROT>
7

>  <SCORE.INTER.SOLV>
9.83857

>  <SCORE.INTER.VDW>
-23.7428

>  <SCORE.INTER.norm>
-0.677591

>  <SCORE.INTRA>
-1.1202

>  <SCORE.INTRA.DIHEDRAL>
-1.3028

>  <SCORE.INTRA.DIHEDRAL.0>
10.7382

>  <SCORE.INTRA.POLAR>
0

>  <SCORE.INTRA.POLAR.0>
0

>  <SCORE.INTRA.REPUL>
0

>  <SCORE.INTRA.REPUL.0>
0

>  <SCORE.INTRA.SOLV>
0.0338487

>  <SCORE.INTRA.SOLV.lig_0>
-49.2501

>  <SCORE.INTRA.VDW>
-0.485725

>  <SCORE.INTRA.VDW.0>
-1.75368

>  <SCORE.INTRA.norm>
-0.0414889

>  <SCORE.RESTR>
0.00879734

>  <SCORE.RESTR.CAVITY>
0.00879734

>  <SCORE.RESTR.norm>
0.000325827

>  <SCORE.SYSTEM>
0

>  <SCORE.SYSTEM.CONST>
0

>  <SCORE.SYSTEM.DIHEDRAL>
0

>  <SCORE.SYSTEM.SOLV>
0

>  <SCORE.SYSTEM.norm>
0

>  <SCORE.heavy>
27

>  <SCORE.norm>
-0.718754

>  <RMSD>
6.935

$$$$
ligand
 OpenBabel11021811463D
libRbt.so/2013.1/901 2013/11/27
 27 29  0  0  0  0  0  0  0  0999 V2000
   34.2353   25.2318   80.1661 N   0  0  0  0  0  0  0  0  0  0  0  0
   34.7106   25.4202   81.5479 C   0  0  2  0  0  0  0  0  0  0  0  0
   35.2654   26.8188   81.7218 C   0  0  0  0  0  0  0  0  0  0  0  0
   34.9168   27.5081   82.6857 O   0  0  0  0  0  0  0  0  0  0  0  0
   35.8158   24.4100   81.8382 C   0  0  0  0  0  0  0  0  0  0  0  0
   35.2229   23.0773   82.2430 C   0  0  0  0  0  0  0  0  0  0  0  0
   34.3778   22.3905   80.8079 S   0  0  2  0  0  0  0  0  0  0  0  0
   32.6695   22.7595   81.2949 C   0  0  0  0  0  0  0  0  0  0  0  0
   34.4562   20.6076   81.1910 C   0  0  0  0  0  0  0  0  0  0  0  0
   33.9118   19.8251   79.9990 C   0  0  1  0  0  0  0  0  0  0  0  0
   32.5562   20.1732   79.8398 O   0  0  0  0  0  0  0  0  0  0  0  0
   34.6095   20.2280   78.6954 C   0  0  1  0  0  0  0  0  0  0  0  0
   35.8025   19.5492   78.2733 O   0  0  0  0  0  0  0  0  0  0  0  0
   33.4450   20.2424   77.6503 C   0  0  1  0  0  0  0  0  0  0  0  0
   33.8765   19.5203   76.4842 O   0  0  0  0  0  0  0  0  0  0  0  0
   32.1949   19.8376   78.5094 C   0  0  2  0  0  0  0  0  0  0  0  0
   36.1116   27.2355   80.9453 O   0  0  0  0  0  0  0  0  0  0  0  0
   27.1555   19.5272   77.2393 N   0  0  0  0  0  0  0  0  0  0  0  0
   28.0216   18.5327   77.4643 C   0  0  0  0  0  0  0  0  0  0  0  0
   29.2949   18.7727   77.7647 N   0  0  0  0  0  0  0  0  0  0  0  0
   29.7607   20.0298   77.8776 C   0  0  0  0  0  0  0  0  0  0  0  0
   28.8783   21.1224   77.6636 C   0  0  0  0  0  0  0  0  0  0  0  0
   27.5248   20.8188   77.3316 C   0  0  0  0  0  0  0  0  0  0  0  0
   26.6027   21.8260   77.1168 N   0  0  0  0  0  0  0  0  0  0  0  0
   29.5933   22.2568   77.8445 N   0  0  0  0  0  0  0  0  0  0  0  0
   30.8196   21.9452   78.1492 C   0  0  0  0  0  0  0  0  0  0  0  0
   30.9734   20.5809   78.1816 N   0  0  0  0  0  0  0  0  0  0  0  0
  2  1  1  6  0  0  0
  2  3  1  0  0  0  0
  2  5  1  0  0  0  0
  3  4  1  0  0  0  0
  3 17  1  0  0  0  0
  5  6  1  0  0  0  0
  7  6  1  1  0  0  0
  7  8  1  0  0  0  0
  7  9  1  0  0  0  0
 10  9  1  1  0  0  0
 10 11  1  0  0  0  0
 10 12  1  0  0  0  0
 11 16  1  0  0  0  0
 12 13  1  6  0  0  0
 12 14  1  0  0  0  0
 14 15  1  6  0  0  0
 14 16  1  0  0  0  0
 16 27  1  6  0  0  0
 18 19  2  0  0  0  0
 18 23  1  0  0  0  0
 19 20  1  0  0  0  0
 20 21  2  0  0  0  0
 21 22  1  0  0  0  0
 21 27  1  0  0  0  0
 22 23  2  0  0  0  0
 22 25  1  0  0  0  0
 23 24  1  0  0  0  0
 25 26  2  0  0  0  0
 26 27  1  0  0  0  0
M  END
>  <CHROM.1>
131.62994196,-83.32235190,67.14118952,-103.23394904,-173.98345991,-63.35634340
-117.20845818,32.53329667,21.93110542,79.39243678,0.77130856,-0.27482897
0.39101627

>  <Name>
ligand

>  <RI>
0

>  <Rbt.Current_Directory>
/home/itssahil/PROJECTS/Mol_Feturizer/New_Systems/rnas/2QWY

>  <Rbt.Executable>
rbdock ($Id: //depot/dev/client3/rdock/2013.1/src/exe/rbdock.cxx#4 $)

>  <Rbt.Library>
libRbt.so (2013.1, Build901 2013/11/27)

>  <Rbt.Parameter_File>
/export/apps/rDock/src/rDock_2013.1_src/data/scripts/dock_solv.prm

>  <Rbt.Receptor>
prm/pocket_docking_8.prm

>  <SCORE>
-20.3558

>  <SCORE.INTER>
-20.105

>  <SCORE.INTER.CONST>
1

>  <SCORE.INTER.POLAR>
0

>  <SCORE.INTER.ROT>
7

>  <SCORE.INTER.SOLV>
13.5079

>  <SCORE.INTER.VDW>
-26.1726

>  <SCORE.INTER.norm>
-0.74463

>  <SCORE.INTRA>
-0.250836

>  <SCORE.INTRA.DIHEDRAL>
-2.12209

>  <SCORE.INTRA.DIHEDRAL.0>
10.7382

>  <SCORE.INTRA.POLAR>
0

>  <SCORE.INTRA.POLAR.0>
0

>  <SCORE.INTRA.REPUL>
0

>  <SCORE.INTRA.REPUL.0>
0

>  <SCORE.INTRA.SOLV>
2.01462

>  <SCORE.INTRA.SOLV.lig_0>
-49.2501

>  <SCORE.INTRA.VDW>
-0.197102

>  <SCORE.INTRA.VDW.0>
-1.75368

>  <SCORE.INTRA.norm>
-0.00929022

>  <SCORE.RESTR>
0

>  <SCORE.RESTR.CAVITY>
0

>  <SCORE.RESTR.norm>
0

>  <SCORE.SYSTEM>
0

>  <SCORE.SYSTEM.CONST>
0

>  <SCORE.SYSTEM.DIHEDRAL>
0

>  <SCORE.SYSTEM.SOLV>
0

>  <SCORE.SYSTEM.norm>
0

>  <SCORE.heavy>
27

>  <SCORE.norm>
-0.75392

>  <RMSD>
6.952

$$$$
ligand
 OpenBabel11021811463D
libRbt.so/2013.1/901 2013/11/27
 27 29  0  0  0  0  0  0  0  0999 V2000
   35.2858   23.6991   80.6939 N   0  0  0  0  0  0  0  0  0  0  0  0
   33.8292   23.9183   80.6626 C   0  0  2  0  0  0  0  0  0  0  0  0
   33.1240   22.8494   81.4715 C   0  0  0  0  0  0  0  0  0  0  0  0
   31.9481   23.0075   81.8151 O   0  0  0  0  0  0  0  0  0  0  0  0
   33.3441   23.8463   79.2184 C   0  0  0  0  0  0  0  0  0  0  0  0
   33.8602   22.5913   78.5476 C   0  0  0  0  0  0  0  0  0  0  0  0
   32.7136   21.2535   78.9228 S   0  0  2  0  0  0  0  0  0  0  0  0
   33.4388   19.9685   77.8671 C   0  0  0  0  0  0  0  0  0  0  0  0
   31.2771   21.7458   77.9099 C   0  0  0  0  0  0  0  0  0  0  0  0
   30.0645   20.9291   78.3481 C   0  0  1  0  0  0  0  0  0  0  0  0
   28.9209   21.5148   77.7709 O   0  0  0  0  0  0  0  0  0  0  0  0
   30.1262   19.4963   77.8080 C   0  0  1  0  0  0  0  0  0  0  0  0
   30.7774   18.4646   78.5655 O   0  0  0  0  0  0  0  0  0  0  0  0
   28.6436   19.1954   77.4082 C   0  0  1  0  0  0  0  0  0  0  0  0
   28.2841   17.9101   77.9433 O   0  0  0  0  0  0  0  0  0  0  0  0
   27.9011   20.5285   77.7773 C   0  0  2  0  0  0  0  0  0  0  0  0
   33.6994   21.8012   81.7219 O   0  0  0  0  0  0  0  0  0  0  0  0
   23.8516   19.0320   74.8676 N   0  0  0  0  0  0  0  0  0  0  0  0
   24.6029   18.2947   75.6933 C   0  0  0  0  0  0  0  0  0  0  0  0
   25.6255   18.8212   76.3612 N   0  0  0  0  0  0  0  0  0  0  0  0
   25.9336   20.1262   76.2514 C   0  0  0  0  0  0  0  0  0  0  0  0
   25.1575   20.9568   75.3992 C   0  0  0  0  0  0  0  0  0  0  0  0
   24.0783   20.3478   74.6929 C   0  0  0  0  0  0  0  0  0  0  0  0
   23.2712   21.0900   73.8511 N   0  0  0  0  0  0  0  0  0  0  0  0
   25.6713   22.2058   75.4799 N   0  0  0  0  0  0  0  0  0  0  0  0
   26.6801   22.2008   76.3023 C   0  0  0  0  0  0  0  0  0  0  0  0
   26.8824   20.9388   76.8048 N   0  0  0  0  0  0  0  0  0  0  0  0
  2  1  1  6  0  0  0
  2  3  1  0  0  0  0
  2  5  1  0  0  0  0
  3  4  1  0  0  0  0
  3 17  1  0  0  0  0
  5  6  1  0  0  0  0
  7  6  1  6  0  0  0
  7  8  1  0  0  0  0
  7  9  1  0  0  0  0
 10  9  1  6  0  0  0
 10 11  1  0  0  0  0
 10 12  1  0  0  0  0
 11 16  1  0  0  0  0
 12 13  1  1  0  0  0
 12 14  1  0  0  0  0
 14 15  1  1  0  0  0
 14 16  1  0  0  0  0
 16 27  1  6  0  0  0
 18 19  2  0  0  0  0
 18 23  1  0  0  0  0
 19 20  1  0  0  0  0
 20 21  2  0  0  0  0
 21 22  1  0  0  0  0
 21 27  1  0  0  0  0
 22 23  2  0  0  0  0
 22 25  1  0  0  0  0
 23 24  1  0  0  0  0
 25 26  2  0  0  0  0
 26 27  1  0  0  0  0
M  END
>  <CHROM.1>
164.22769088,50.26114341,85.69012766,173.63127381,-166.12615665,167.50374832
161.68738950,29.50274501,20.99658435,77.90942290,0.25559490,-0.49839434,0.02278934

>  <Name>
ligand

>  <RI>
0

>  <Rbt.Current_Directory>
/home/itssahil/PROJECTS/Mol_Feturizer/New_Systems/rnas/2QWY

>  <Rbt.Executable>
rbdock ($Id: //depot/dev/client3/rdock/2013.1/src/exe/rbdock.cxx#4 $)

>  <Rbt.Library>
libRbt.so (2013.1, Build901 2013/11/27)

>  <Rbt.Parameter_File>
/export/apps/rDock/src/rDock_2013.1_src/data/scripts/dock_solv.prm

>  <Rbt.Receptor>
prm/pocket_docking_6.prm

>  <SCORE>
-22.4367

>  <SCORE.INTER>
-20.9521

>  <SCORE.INTER.CONST>
1

>  <SCORE.INTER.POLAR>
0

>  <SCORE.INTER.ROT>
7

>  <SCORE.INTER.SOLV>
10.088

>  <SCORE.INTER.VDW>
-25.5974

>  <SCORE.INTER.norm>
-0.776005

>  <SCORE.INTRA>
-1.48455

>  <SCORE.INTRA.DIHEDRAL>
-3.22749

>  <SCORE.INTRA.DIHEDRAL.0>
10.7382

>  <SCORE.INTRA.POLAR>
0

>  <SCORE.INTRA.POLAR.0>
0

>  <SCORE.INTRA.REPUL>
0

>  <SCORE.INTRA.REPUL.0>
0

>  <SCORE.INTRA.SOLV>
0.557511

>  <SCORE.INTRA.SOLV.lig_0>
-49.2501

>  <SCORE.INTRA.VDW>
-0.149558

>  <SCORE.INTRA.VDW.0>
-1.75368

>  <SCORE.INTRA.norm>
-0.0549833

>  <SCORE.RESTR>
0

>  <SCORE.RESTR.CAVITY>
0

>  <SCORE.RESTR.norm>
0

>  <SCORE.SYSTEM>
0

>  <SCORE.SYSTEM.CONST>
0

>  <SCORE.SYSTEM.DIHEDRAL>
0

>  <SCORE.SYSTEM.SOLV>
0

>  <SCORE.SYSTEM.norm>
0

>  <SCORE.heavy>
27

>  <SCORE.norm>
-0.830989

>  <RMSD>
6.983

$$$$
ligand
 OpenBabel11021811463D
libRbt.so/2013.1/901 2013/11/27
 27 29  0  0  0  0  0  0  0  0999 V2000
   36.1336   17.1640   67.3550 N   0  0  0  0  0  0  0  0  0  0  0  0
   37.1709   16.4279   68.0986 C   0  0  2  0  0  0  0  0  0  0  0  0
   37.9897   15.5791   67.1483 C   0  0  0  0  0  0  0  0  0  0  0  0
   39.1849   15.3687   67.3787 O   0  0  0  0  0  0  0  0  0  0  0  0
   36.5006   15.5176   69.1225 C   0  0  0  0  0  0  0  0  0  0  0  0
   37.5336   14.6745   69.8390 C   0  0  0  0  0  0  0  0  0  0  0  0
   38.7092   15.7912   70.6241 S   0  0  2  0  0  0  0  0  0  0  0  0
   40.0640   14.6151   70.8943 C   0  0  0  0  0  0  0  0  0  0  0  0
   38.0106   15.8877   72.3077 C   0  0  0  0  0  0  0  0  0  0  0  0
   36.8334   16.8591   72.2957 C   0  0  1  0  0  0  0  0  0  0  0  0
   36.4389   17.0722   73.6310 O   0  0  0  0  0  0  0  0  0  0  0  0
   37.2419   18.2315   71.7495 C   0  0  1  0  0  0  0  0  0  0  0  0
   37.1554   18.5054   70.3425 O   0  0  0  0  0  0  0  0  0  0  0  0
   36.4718   19.2330   72.6727 C   0  0  1  0  0  0  0  0  0  0  0  0
   35.8242   20.2088   71.8384 O   0  0  0  0  0  0  0  0  0  0  0  0
   35.7012   18.2839   73.6577 C   0  0  2  0  0  0  0  0  0  0  0  0
   37.4474   15.0459   66.1921 O   0  0  0  0  0  0  0  0  0  0  0  0
   35.5218   22.4157   76.8200 N   0  0  0  0  0  0  0  0  0  0  0  0
   35.5520   22.3897   75.4827 C   0  0  0  0  0  0  0  0  0  0  0  0
   35.6162   21.2443   74.8098 N   0  0  0  0  0  0  0  0  0  0  0  0
   35.6302   20.0596   75.4474 C   0  0  0  0  0  0  0  0  0  0  0  0
   35.5843   20.0310   76.8670 C   0  0  0  0  0  0  0  0  0  0  0  0
   35.5286   21.2830   77.5481 C   0  0  0  0  0  0  0  0  0  0  0  0
   35.4729   21.3393   78.9282 N   0  0  0  0  0  0  0  0  0  0  0  0
   35.6030   18.7314   77.2428 N   0  0  0  0  0  0  0  0  0  0  0  0
   35.6530   17.9800   76.1812 C   0  0  0  0  0  0  0  0  0  0  0  0
   35.6723   18.7540   75.0469 N   0  0  0  0  0  0  0  0  0  0  0  0
  2  1  1  6  0  0  0
  2  3  1  0  0  0  0
  2  5  1  0  0  0  0
  3  4  1  0  0  0  0
  3 17  1  0  0  0  0
  5  6  1  0  0  0  0
  7  6  1  6  0  0  0
  7  8  1  0  0  0  0
  7  9  1  0  0  0  0
 10  9  1  1  0  0  0
 10 11  1  0  0  0  0
 10 12  1  0  0  0  0
 11 16  1  0  0  0  0
 12 13  1  6  0  0  0
 12 14  1  0  0  0  0
 14 15  1  6  0  0  0
 14 16  1  0  0  0  0
 16 27  1  1  0  0  0
 18 19  2  0  0  0  0
 18 23  1  0  0  0  0
 19 20  1  0  0  0  0
 20 21  2  0  0  0  0
 21 22  1  0  0  0  0
 21 27  1  0  0  0  0
 22 23  2  0  0  0  0
 22 25  1  0  0  0  0
 23 24  1  0  0  0  0
 25 26  2  0  0  0  0
 26 27  1  0  0  0  0
M  END
>  <CHROM.1>
147.87170226,176.07345151,58.07870053,-162.00873080,-79.36810766,-171.33965772
148.73299965,36.81340568,17.92057357,72.35455178,1.00397121,1.10177063,-1.60901999

>  <Name>
ligand

>  <RI>
0

>  <Rbt.Current_Directory>
/home/itssahil/PROJECTS/Mol_Feturizer/New_Systems/rnas/2QWY

>  <Rbt.Executable>
rbdock ($Id: //depot/dev/client3/rdock/2013.1/src/exe/rbdock.cxx#4 $)

>  <Rbt.Library>
libRbt.so (2013.1, Build901 2013/11/27)

>  <Rbt.Parameter_File>
/export/apps/rDock/src/rDock_2013.1_src/data/scripts/dock_solv.prm

>  <Rbt.Receptor>
prm/pocket_docking_7.prm

>  <SCORE>
-12.2528

>  <SCORE.INTER>
-9.44987

>  <SCORE.INTER.CONST>
1

>  <SCORE.INTER.POLAR>
0

>  <SCORE.INTER.ROT>
7

>  <SCORE.INTER.SOLV>
13.1711

>  <SCORE.INTER.VDW>
-18.9569

>  <SCORE.INTER.norm>
-0.349995

>  <SCORE.INTRA>
-2.80293

>  <SCORE.INTRA.DIHEDRAL>
-5.29826

>  <SCORE.INTRA.DIHEDRAL.0>
10.7382

>  <SCORE.INTRA.POLAR>
0

>  <SCORE.INTRA.POLAR.0>
0

>  <SCORE.INTRA.REPUL>
0

>  <SCORE.INTRA.REPUL.0>
0

>  <SCORE.INTRA.SOLV>
0.548539

>  <SCORE.INTRA.SOLV.lig_0>
-49.2501

>  <SCORE.INTRA.VDW>
-0.428075

>  <SCORE.INTRA.VDW.0>
-1.75368

>  <SCORE.INTRA.norm>
-0.103812

>  <SCORE.RESTR>
0

>  <SCORE.RESTR.CAVITY>
0

>  <SCORE.RESTR.norm>
0

>  <SCORE.SYSTEM>
0

>  <SCORE.SYSTEM.CONST>
0

>  <SCORE.SYSTEM.DIHEDRAL>
0

>  <SCORE.SYSTEM.SOLV>
0

>  <SCORE.SYSTEM.norm>
0

>  <SCORE.heavy>
27

>  <SCORE.norm>
-0.453808

>  <RMSD>
7.001

$$$$
ligand
 OpenBabel11021811463D
libRbt.so/2013.1/901 2013/11/27
 27 29  0  0  0  0  0  0  0  0999 V2000
   33.6768   13.8158   68.7236 N   0  0  0  0  0  0  0  0  0  0  0  0
   34.9158   14.2503   69.3920 C   0  0  2  0  0  0  0  0  0  0  0  0
   35.4786   15.4750   68.7011 C   0  0  0  0  0  0  0  0  0  0  0  0
   35.4564   15.5561   67.4688 O   0  0  0  0  0  0  0  0  0  0  0  0
   35.9434   13.1255   69.3197 C   0  0  0  0  0  0  0  0  0  0  0  0
   36.6944   13.0085   70.6288 C   0  0  0  0  0  0  0  0  0  0  0  0
   37.5428   14.5708   70.9199 S   0  0  2  0  0  0  0  0  0  0  0  0
   39.0384   13.9244   71.7181 C   0  0  0  0  0  0  0  0  0  0  0  0
   36.6278   15.1862   72.3745 C   0  0  0  0  0  0  0  0  0  0  0  0
   36.5122   16.7048   72.2751 C   0  0  1  0  0  0  0  0  0  0  0  0
   35.8317   17.1595   73.4215 O   0  0  0  0  0  0  0  0  0  0  0  0
   37.8891   17.3770   72.3043 C   0  0  1  0  0  0  0  0  0  0  0  0
   38.6089   17.6054   71.0828 O   0  0  0  0  0  0  0  0  0  0  0  0
   37.6538   18.6471   73.1874 C   0  0  1  0  0  0  0  0  0  0  0  0
   38.2269   19.7793   72.5110 O   0  0  0  0  0  0  0  0  0  0  0  0
   36.1336   18.5385   73.5640 C   0  0  2  0  0  0  0  0  0  0  0  0
   35.8897   16.4118   69.3690 O   0  0  0  0  0  0  0  0  0  0  0  0
   35.1932   22.4522   76.8660 N   0  0  0  0  0  0  0  0  0  0  0  0
   35.4711   22.5125   75.5587 C   0  0  0  0  0  0  0  0  0  0  0  0
   35.7084   21.4150   74.8458 N   0  0  0  0  0  0  0  0  0  0  0  0
   35.6559   20.1932   75.4066 C   0  0  0  0  0  0  0  0  0  0  0  0
   35.3498   20.0726   76.7886 C   0  0  0  0  0  0  0  0  0  0  0  0
   35.1147   21.2761   77.5171 C   0  0  0  0  0  0  0  0  0  0  0  0
   34.8026   21.2425   78.8634 N   0  0  0  0  0  0  0  0  0  0  0  0
   35.3554   18.7529   77.0870 N   0  0  0  0  0  0  0  0  0  0  0  0
   35.6334   18.0729   76.0127 C   0  0  0  0  0  0  0  0  0  0  0  0
   35.8281   18.9178   74.9477 N   0  0  0  0  0  0  0  0  0  0  0  0
  2  1  1  6  0  0  0
  2  3  1  0  0  0  0
  2  5  1  0  0  0  0
  3  4  1  0  0  0  0
  3 17  1  0  0  0  0
  5  6  1  0  0  0  0
  7  6  1  1  0  0  0
  7  8  1  0  0  0  0
  7  9  1  0  0  0  0
 10  9  1  1  0  0  0
 10 11  1  0  0  0  0
 10 12  1  0  0  0  0
 11 16  1  0  0  0  0
 12 13  1  6  0  0  0
 12 14  1  0  0  0  0
 14 15  1  6  0  0  0
 14 16  1  0  0  0  0
 16 27  1  1  0  0  0
 18 19  2  0  0  0  0
 18 23  1  0  0  0  0
 19 20  1  0  0  0  0
 20 21  2  0  0  0  0
 21 22  1  0  0  0  0
 21 27  1  0  0  0  0
 22 23  2  0  0  0  0
 22 25  1  0  0  0  0
 23 24  1  0  0  0  0
 25 26  2  0  0  0  0
 26 27  1  0  0  0  0
M  END
>  <CHROM.1>
-40.14779119,-139.41059243,-60.63735135,-145.00174496,-144.46149095,-178.63625811
-162.49077882,36.26077707,17.41724740,72.78753594,1.43586890,0.92206524,-2.20912729

>  <Name>
ligand

>  <RI>
0

>  <Rbt.Current_Directory>
/home/itssahil/PROJECTS/Mol_Feturizer/New_Systems/rnas/2QWY

>  <Rbt.Executable>
rbdock ($Id: //depot/dev/client3/rdock/2013.1/src/exe/rbdock.cxx#4 $)

>  <Rbt.Library>
libRbt.so (2013.1, Build901 2013/11/27)

>  <Rbt.Parameter_File>
/export/apps/rDock/src/rDock_2013.1_src/data/scripts/dock_solv.prm

>  <Rbt.Receptor>
prm/pocket_docking_7.prm

>  <SCORE>
-6.87756

>  <SCORE.INTER>
-7.29453

>  <SCORE.INTER.CONST>
1

>  <SCORE.INTER.POLAR>
0

>  <SCORE.INTER.ROT>
7

>  <SCORE.INTER.SOLV>
8.49372

>  <SCORE.INTER.VDW>
-15.9609

>  <SCORE.INTER.norm>
-0.270168

>  <SCORE.INTRA>
0.416961

>  <SCORE.INTRA.DIHEDRAL>
4.3027

>  <SCORE.INTRA.DIHEDRAL.0>
10.7382

>  <SCORE.INTRA.POLAR>
0

>  <SCORE.INTRA.POLAR.0>
0

>  <SCORE.INTRA.REPUL>
0

>  <SCORE.INTRA.REPUL.0>
0

>  <SCORE.INTRA.SOLV>
-0.53292

>  <SCORE.INTRA.SOLV.lig_0>
-49.2501

>  <SCORE.INTRA.VDW>
-1.46793

>  <SCORE.INTRA.VDW.0>
-1.75368

>  <SCORE.INTRA.norm>
0.015443

>  <SCORE.RESTR>
0

>  <SCORE.RESTR.CAVITY>
0

>  <SCORE.RESTR.norm>
0

>  <SCORE.SYSTEM>
0

>  <SCORE.SYSTEM.CONST>
0

>  <SCORE.SYSTEM.DIHEDRAL>
0

>  <SCORE.SYSTEM.SOLV>
0

>  <SCORE.SYSTEM.norm>
0

>  <SCORE.heavy>
27

>  <SCORE.norm>
-0.254725

>  <RMSD>
7.026

$$$$
ligand
 OpenBabel11021811463D
libRbt.so/2013.1/901 2013/11/27
 27 29  0  0  0  0  0  0  0  0999 V2000
   36.0820   14.3354   68.2770 N   0  0  0  0  0  0  0  0  0  0  0  0
   36.6213   15.7058   68.3192 C   0  0  2  0  0  0  0  0  0  0  0  0
   37.1258   16.1096   66.9494 C   0  0  0  0  0  0  0  0  0  0  0  0
   38.0115   15.4499   66.3962 O   0  0  0  0  0  0  0  0  0  0  0  0
   37.7814   15.7560   69.3082 C   0  0  0  0  0  0  0  0  0  0  0  0
   37.2760   15.5996   70.7265 C   0  0  0  0  0  0  0  0  0  0  0  0
   38.6507   15.9331   71.8421 S   0  0  2  0  0  0  0  0  0  0  0  0
   39.3630   14.2657   71.9032 C   0  0  0  0  0  0  0  0  0  0  0  0
   37.7800   15.9828   73.4455 C   0  0  0  0  0  0  0  0  0  0  0  0
   36.7942   17.1480   73.4328 C   0  0  1  0  0  0  0  0  0  0  0  0
   36.2556   17.2689   74.7287 O   0  0  0  0  0  0  0  0  0  0  0  0
   37.4980   18.4773   73.1398 C   0  0  1  0  0  0  0  0  0  0  0  0
   37.6582   18.9284   71.7859 O   0  0  0  0  0  0  0  0  0  0  0  0
   36.7821   19.4856   74.0986 C   0  0  1  0  0  0  0  0  0  0  0  0
   36.4303   20.6561   73.3411 O   0  0  0  0  0  0  0  0  0  0  0  0
   35.7331   18.5833   74.8402 C   0  0  2  0  0  0  0  0  0  0  0  0
   36.6048   17.0471   66.3643 O   0  0  0  0  0  0  0  0  0  0  0  0
   37.8685   18.2166   79.5741 N   0  0  0  0  0  0  0  0  0  0  0  0
   38.3450   17.7680   78.4073 C   0  0  0  0  0  0  0  0  0  0  0  0
   37.6682   17.9229   77.2729 N   0  0  0  0  0  0  0  0  0  0  0  0
   36.4832   18.5595   77.2482 C   0  0  0  0  0  0  0  0  0  0  0  0
   35.9396   19.0687   78.4579 C   0  0  0  0  0  0  0  0  0  0  0  0
   36.6933   18.8693   79.6523 C   0  0  0  0  0  0  0  0  0  0  0  0
   36.2366   19.3425   80.8682 N   0  0  0  0  0  0  0  0  0  0  0  0
   34.7618   19.6597   78.1510 N   0  0  0  0  0  0  0  0  0  0  0  0
   34.5512   19.5540   76.8710 C   0  0  0  0  0  0  0  0  0  0  0  0
   35.5863   18.8815   76.2690 N   0  0  0  0  0  0  0  0  0  0  0  0
  2  1  1  6  0  0  0
  2  3  1  0  0  0  0
  2  5  1  0  0  0  0
  3  4  1  0  0  0  0
  3 17  1  0  0  0  0
  5  6  1  0  0  0  0
  7  6  1  6  0  0  0
  7  8  1  0  0  0  0
  7  9  1  0  0  0  0
 10  9  1  1  0  0  0
 10 11  1  0  0  0  0
 10 12  1  0  0  0  0
 11 16  1  0  0  0  0
 12 13  1  6  0  0  0
 12 14  1  0  0  0  0
 14 15  1  6  0  0  0
 14 16  1  0  0  0  0
 16 27  1  1  0  0  0
 18 19  2  0  0  0  0
 18 23  1  0  0  0  0
 19 20  1  0  0  0  0
 20 21  2  0  0  0  0
 21 22  1  0  0  0  0
 21 27  1  0  0  0  0
 22 23  2  0  0  0  0
 22 25  1  0  0  0  0
 23 24  1  0  0  0  0
 25 26  2  0  0  0  0
 26 27  1  0  0  0  0
M  END
>  <CHROM.1>
-58.89311907,-69.76049676,-171.01662734,-86.91713917,-63.43249467,-172.90565786
41.42526436,37.01429396,17.47265296,73.52455389,-1.41123897,-0.92862105,1.39652618

>  <Name>
ligand

>  <RI>
0

>  <Rbt.Current_Directory>
/home/itssahil/PROJECTS/Mol_Feturizer/New_Systems/rnas/2QWY

>  <Rbt.Executable>
rbdock ($Id: //depot/dev/client3/rdock/2013.1/src/exe/rbdock.cxx#4 $)

>  <Rbt.Library>
libRbt.so (2013.1, Build901 2013/11/27)

>  <Rbt.Parameter_File>
/export/apps/rDock/src/rDock_2013.1_src/data/scripts/dock_solv.prm

>  <Rbt.Receptor>
prm/pocket_docking_6.prm

>  <SCORE>
-11.7651

>  <SCORE.INTER>
-8.21709

>  <SCORE.INTER.CONST>
1

>  <SCORE.INTER.POLAR>
0

>  <SCORE.INTER.ROT>
7

>  <SCORE.INTER.SOLV>
10.28

>  <SCORE.INTER.VDW>
-17.1714

>  <SCORE.INTER.norm>
-0.304337

>  <SCORE.INTRA>
-3.55184

>  <SCORE.INTRA.DIHEDRAL>
-5.69453

>  <SCORE.INTRA.DIHEDRAL.0>
10.7382

>  <SCORE.INTRA.POLAR>
0

>  <SCORE.INTRA.POLAR.0>
0

>  <SCORE.INTRA.REPUL>
0

>  <SCORE.INTRA.REPUL.0>
0

>  <SCORE.INTRA.SOLV>
-0.167173

>  <SCORE.INTRA.SOLV.lig_0>
-49.2501

>  <SCORE.INTRA.VDW>
-0.620984

>  <SCORE.INTRA.VDW.0>
-1.75368

>  <SCORE.INTRA.norm>
-0.131549

>  <SCORE.RESTR>
0.00379695

>  <SCORE.RESTR.CAVITY>
0.00379695

>  <SCORE.RESTR.norm>
0.000140628

>  <SCORE.SYSTEM>
0

>  <SCORE.SYSTEM.CONST>
0

>  <SCORE.SYSTEM.DIHEDRAL>
0

>  <SCORE.SYSTEM.SOLV>
0

>  <SCORE.SYSTEM.norm>
0

>  <SCORE.heavy>
27

>  <SCORE.norm>
-0.435746

>  <RMSD>
7.034

$$$$
ligand
 OpenBabel11021811463D
libRbt.so/2013.1/901 2013/11/27
 27 29  0  0  0  0  0  0  0  0999 V2000
   35.7255   14.4316   67.0146 N   0  0  0  0  0  0  0  0  0  0  0  0
   36.2700   15.4947   67.8771 C   0  0  2  0  0  0  0  0  0  0  0  0
   37.2537   16.3440   67.0992 C   0  0  0  0  0  0  0  0  0  0  0  0
   38.2285   15.8185   66.5520 O   0  0  0  0  0  0  0  0  0  0  0  0
   36.9932   14.8577   69.0593 C   0  0  0  0  0  0  0  0  0  0  0  0
   35.9962   14.3232   70.0652 C   0  0  0  0  0  0  0  0  0  0  0  0
   36.9232   13.5982   71.4291 S   0  0  2  0  0  0  0  0  0  0  0  0
   35.5531   13.3620   72.5948 C   0  0  0  0  0  0  0  0  0  0  0  0
   37.7077   15.0879   72.1339 C   0  0  0  0  0  0  0  0  0  0  0  0
   36.6184   16.0998   72.4788 C   0  0  1  0  0  0  0  0  0  0  0  0
   36.6302   16.2842   73.8753 O   0  0  0  0  0  0  0  0  0  0  0  0
   36.9123   17.4736   71.8667 C   0  0  1  0  0  0  0  0  0  0  0  0
   36.4401   17.7948   70.5491 O   0  0  0  0  0  0  0  0  0  0  0  0
   36.4806   18.4717   72.9917 C   0  0  1  0  0  0  0  0  0  0  0  0
   35.6642   19.4955   72.3975 O   0  0  0  0  0  0  0  0  0  0  0  0
   35.9830   17.5195   74.1364 C   0  0  2  0  0  0  0  0  0  0  0  0
   37.0414   17.5386   66.9559 O   0  0  0  0  0  0  0  0  0  0  0  0
   34.6435   20.2570   78.3573 N   0  0  0  0  0  0  0  0  0  0  0  0
   33.9686   20.1067   77.2121 C   0  0  0  0  0  0  0  0  0  0  0  0
   34.4544   19.3833   76.2072 N   0  0  0  0  0  0  0  0  0  0  0  0
   35.6379   18.7517   76.3098 C   0  0  0  0  0  0  0  0  0  0  0  0
   36.3879   18.8664   77.5110 C   0  0  0  0  0  0  0  0  0  0  0  0
   35.8348   19.6620   78.5577 C   0  0  0  0  0  0  0  0  0  0  0  0
   36.4990   19.8158   79.7602 N   0  0  0  0  0  0  0  0  0  0  0  0
   37.5166   18.1379   77.3502 N   0  0  0  0  0  0  0  0  0  0  0  0
   37.5109   17.5962   76.1668 C   0  0  0  0  0  0  0  0  0  0  0  0
   36.3712   17.9461   75.4852 N   0  0  0  0  0  0  0  0  0  0  0  0
  2  1  1  6  0  0  0
  2  3  1  0  0  0  0
  2  5  1  0  0  0  0
  3  4  1  0  0  0  0
  3 17  1  0  0  0  0
  5  6  1  0  0  0  0
  7  6  1  6  0  0  0
  7  8  1  0  0  0  0
  7  9  1  0  0  0  0
 10  9  1  1  0  0  0
 10 11  1  0  0  0  0
 10 12  1  0  0  0  0
 11 16  1  0  0  0  0
 12 13  1  6  0  0  0
 12 14  1  0  0  0  0
 14 15  1  6  0  0  0
 14 16  1  0  0  0  0
 16 27  1  1  0  0  0
 18 19  2  0  0  0  0
 18 23  1  0  0  0  0
 19 20  1  0  0  0  0
 20 21  2  0  0  0  0
 21 22  1  0  0  0  0
 21 27  1  0  0  0  0
 22 23  2  0  0  0  0
 22 25  1  0  0  0  0
 23 24  1  0  0  0  0
 25 26  2  0  0  0  0
 26 27  1  0  0  0  0
M  END
>  <CHROM.1>
-56.59614436,-75.34290940,-179.69359066,169.12459414,55.84311733,115.99271082
-153.59806907,36.38508878,16.99278406,72.82500474,0.80340782,1.41556639,-1.21526309

>  <Name>
ligand

>  <RI>
0

>  <Rbt.Current_Directory>
/home/itssahil/PROJECTS/Mol_Feturizer/New_Systems/rnas/2QWY

>  <Rbt.Executable>
rbdock ($Id: //depot/dev/client3/rdock/2013.1/src/exe/rbdock.cxx#4 $)

>  <Rbt.Library>
libRbt.so (2013.1, Build901 2013/11/27)

>  <Rbt.Parameter_File>
/export/apps/rDock/src/rDock_2013.1_src/data/scripts/dock_solv.prm

>  <Rbt.Receptor>
prm/pocket_docking_8.prm

>  <SCORE>
-14.495

>  <SCORE.INTER>
-14.2503

>  <SCORE.INTER.CONST>
1

>  <SCORE.INTER.POLAR>
0

>  <SCORE.INTER.ROT>
7

>  <SCORE.INTER.SOLV>
8.77165

>  <SCORE.INTER.VDW>
-20.6908

>  <SCORE.INTER.norm>
-0.527789

>  <SCORE.INTRA>
-0.261559

>  <SCORE.INTRA.DIHEDRAL>
-1.31649

>  <SCORE.INTRA.DIHEDRAL.0>
10.7382

>  <SCORE.INTRA.POLAR>
0

>  <SCORE.INTRA.POLAR.0>
0

>  <SCORE.INTRA.REPUL>
0

>  <SCORE.INTRA.REPUL.0>
0

>  <SCORE.INTRA.SOLV>
-0.0578946

>  <SCORE.INTRA.SOLV.lig_0>
-49.2501

>  <SCORE.INTRA.VDW>
0.425631

>  <SCORE.INTRA.VDW.0>
-1.75368

>  <SCORE.INTRA.norm>
-0.00968739

>  <SCORE.RESTR>
0.0168209

>  <SCORE.RESTR.CAVITY>
0.0168209

>  <SCORE.RESTR.norm>
0.000622996

>  <SCORE.SYSTEM>
0

>  <SCORE.SYSTEM.CONST>
0

>  <SCORE.SYSTEM.DIHEDRAL>
0

>  <SCORE.SYSTEM.SOLV>
0

>  <SCORE.SYSTEM.norm>
0

>  <SCORE.heavy>
27

>  <SCORE.norm>
-0.536854

>  <RMSD>
7.121

$$$$
ligand
 OpenBabel11021811463D
libRbt.so/2013.1/901 2013/11/27
 27 29  0  0  0  0  0  0  0  0999 V2000
   36.3872   14.4571   69.6196 N   0  0  0  0  0  0  0  0  0  0  0  0
   36.7718   14.5137   71.0407 C   0  0  2  0  0  0  0  0  0  0  0  0
   36.1923   13.3288   71.7850 C   0  0  0  0  0  0  0  0  0  0  0  0
   36.8725   12.3122   71.9568 O   0  0  0  0  0  0  0  0  0  0  0  0
   36.2263   15.7987   71.6552 C   0  0  0  0  0  0  0  0  0  0  0  0
   36.7794   15.9957   73.0504 C   0  0  0  0  0  0  0  0  0  0  0  0
   35.9747   17.4408   73.7642 S   0  0  2  0  0  0  0  0  0  0  0  0
   36.9137   18.7305   72.9002 C   0  0  0  0  0  0  0  0  0  0  0  0
   36.7694   17.4932   75.4065 C   0  0  0  0  0  0  0  0  0  0  0  0
   35.8030   18.1338   76.3992 C   0  0  1  0  0  0  0  0  0  0  0  0
   36.4604   18.2231   77.6418 O   0  0  0  0  0  0  0  0  0  0  0  0
   35.4557   19.5716   75.9983 C   0  0  1  0  0  0  0  0  0  0  0  0
   34.3404   19.8320   75.1321 O   0  0  0  0  0  0  0  0  0  0  0  0
   35.4311   20.3331   77.3650 C   0  0  1  0  0  0  0  0  0  0  0  0
   34.2306   21.1228   77.4197 O   0  0  0  0  0  0  0  0  0  0  0  0
   35.7781   19.2072   78.4027 C   0  0  2  0  0  0  0  0  0  0  0  0
   35.0761   13.4087   72.2754 O   0  0  0  0  0  0  0  0  0  0  0  0
   40.2447   18.3067   80.9211 N   0  0  0  0  0  0  0  0  0  0  0  0
   39.7063   17.6204   79.9068 C   0  0  0  0  0  0  0  0  0  0  0  0
   38.5372   17.9661   79.3751 N   0  0  0  0  0  0  0  0  0  0  0  0
   37.8565   19.0374   79.8213 C   0  0  0  0  0  0  0  0  0  0  0  0
   38.3919   19.8097   80.8868 C   0  0  0  0  0  0  0  0  0  0  0  0
   39.6418   19.3956   81.4352 C   0  0  0  0  0  0  0  0  0  0  0  0
   40.2329   20.0992   82.4678 N   0  0  0  0  0  0  0  0  0  0  0  0
   37.5218   20.8171   81.1286 N   0  0  0  0  0  0  0  0  0  0  0  0
   36.5176   20.7215   80.3061 C   0  0  0  0  0  0  0  0  0  0  0  0
   36.6778   19.6373   79.4785 N   0  0  0  0  0  0  0  0  0  0  0  0
  2  1  1  6  0  0  0
  2  3  1  0  0  0  0
  2  5  1  0  0  0  0
  3  4  1  0  0  0  0
  3 17  1  0  0  0  0
  5  6  1  0  0  0  0
  7  6  1  6  0  0  0
  7  8  1  0  0  0  0
  7  9  1  0  0  0  0
 10  9  1  6  0  0  0
 10 11  1  0  0  0  0
 10 12  1  0  0  0  0
 11 16  1  0  0  0  0
 12 13  1  1  0  0  0
 12 14  1  0  0  0  0
 14 15  1  1  0  0  0
 14 16  1  0  0  0  0
 16 27  1  1  0  0  0
 18 19  2  0  0  0  0
 18 23  1  0  0  0  0
 19 20  1  0  0  0  0
 20 21  2  0  0  0  0
 21 22  1  0  0  0  0
 21 27  1  0  0  0  0
 22 23  2  0  0  0  0
 22 25  1  0  0  0  0
 23 24  1  0  0  0  0
 25 26  2  0  0  0  0
 26 27  1  0  0  0  0
M  END
>  <CHROM.1>
95.21405208,-171.25946235,-174.76570461,-77.52295079,-151.49225200,-177.17975618
-10.28576002,36.81443609,17.83916230,76.32642089,-1.83899985,-0.76214648
0.86967265

>  <Name>
ligand

>  <RI>
0

>  <Rbt.Current_Directory>
/home/itssahil/PROJECTS/Mol_Feturizer/New_Systems/rnas/2QWY

>  <Rbt.Executable>
rbdock ($Id: //depot/dev/client3/rdock/2013.1/src/exe/rbdock.cxx#4 $)

>  <Rbt.Library>
libRbt.so (2013.1, Build901 2013/11/27)

>  <Rbt.Parameter_File>
/export/apps/rDock/src/rDock_2013.1_src/data/scripts/dock_solv.prm

>  <Rbt.Receptor>
prm/pocket_docking_8.prm

>  <SCORE>
-13.572

>  <SCORE.INTER>
-11.9784

>  <SCORE.INTER.CONST>
1

>  <SCORE.INTER.POLAR>
0

>  <SCORE.INTER.ROT>
7

>  <SCORE.INTER.SOLV>
9.84436

>  <SCORE.INTER.VDW>
-19.5337

>  <SCORE.INTER.norm>
-0.443644

>  <SCORE.INTRA>
-1.5936

>  <SCORE.INTRA.DIHEDRAL>
-3.72477

>  <SCORE.INTRA.DIHEDRAL.0>
10.7382

>  <SCORE.INTRA.POLAR>
0

>  <SCORE.INTRA.POLAR.0>
0

>  <SCORE.INTRA.REPUL>
0

>  <SCORE.INTRA.REPUL.0>
0

>  <SCORE.INTRA.SOLV>
-0.920203

>  <SCORE.INTRA.SOLV.lig_0>
-49.2501

>  <SCORE.INTRA.VDW>
0.728889

>  <SCORE.INTRA.VDW.0>
-1.75368

>  <SCORE.INTRA.norm>
-0.0590222

>  <SCORE.RESTR>
0

>  <SCORE.RESTR.CAVITY>
0

>  <SCORE.RESTR.norm>
0

>  <SCORE.SYSTEM>
0

>  <SCORE.SYSTEM.CONST>
0

>  <SCORE.SYSTEM.DIHEDRAL>
0

>  <SCORE.SYSTEM.SOLV>
0

>  <SCORE.SYSTEM.norm>
0

>  <SCORE.heavy>
27

>  <SCORE.norm>
-0.502666

>  <RMSD>
7.166

$$$$
ligand
 OpenBabel11021811463D
libRbt.so/2013.1/901 2013/11/27
 27 29  0  0  0  0  0  0  0  0999 V2000
   36.4592   23.6937   85.1676 N   0  0  0  0  0  0  0  0  0  0  0  0
   37.1535   22.5626   84.5279 C   0  0  2  0  0  0  0  0  0  0  0  0
   38.6048   22.9161   84.2779 C   0  0  0  0  0  0  0  0  0  0  0  0
   38.9955   24.0774   84.4351 O   0  0  0  0  0  0  0  0  0  0  0  0
   36.4824   22.2547   83.1933 C   0  0  0  0  0  0  0  0  0  0  0  0
   35.1387   21.5940   83.4154 C   0  0  0  0  0  0  0  0  0  0  0  0
   34.3998   21.2894   81.8009 S   0  0  2  0  0  0  0  0  0  0  0  0
   33.0023   20.2607   82.3303 C   0  0  0  0  0  0  0  0  0  0  0  0
   35.5274   20.0104   81.1493 C   0  0  0  0  0  0  0  0  0  0  0  0
   35.3195   19.8947   79.6417 C   0  0  1  0  0  0  0  0  0  0  0  0
   34.0058   19.4358   79.4234 O   0  0  0  0  0  0  0  0  0  0  0  0
   35.4115   21.2614   78.9545 C   0  0  1  0  0  0  0  0  0  0  0  0
   36.6773   21.7526   78.4870 O   0  0  0  0  0  0  0  0  0  0  0  0
   34.2794   21.2018   77.8759 C   0  0  1  0  0  0  0  0  0  0  0  0
   34.8240   21.6559   76.6250 O   0  0  0  0  0  0  0  0  0  0  0  0
   33.6647   19.7729   78.0881 C   0  0  2  0  0  0  0  0  0  0  0  0
   39.4015   22.0360   83.9891 O   0  0  0  0  0  0  0  0  0  0  0  0
   29.2381   22.5130   78.0812 N   0  0  0  0  0  0  0  0  0  0  0  0
   30.4914   22.9538   78.2379 C   0  0  0  0  0  0  0  0  0  0  0  0
   31.5282   22.1206   78.2343 N   0  0  0  0  0  0  0  0  0  0  0  0
   31.3609   20.7986   78.0493 C   0  0  0  0  0  0  0  0  0  0  0  0
   30.0513   20.2806   77.8629 C   0  0  0  0  0  0  0  0  0  0  0  0
   28.9681   21.2083   77.8864 C   0  0  0  0  0  0  0  0  0  0  0  0
   27.6651   20.7842   77.7040 N   0  0  0  0  0  0  0  0  0  0  0  0
   30.1690   18.9432   77.6948 N   0  0  0  0  0  0  0  0  0  0  0  0
   31.4263   18.6131   77.7604 C   0  0  0  0  0  0  0  0  0  0  0  0
   32.2027   19.7247   77.9790 N   0  0  0  0  0  0  0  0  0  0  0  0
  2  1  1  6  0  0  0
  2  3  1  0  0  0  0
  2  5  1  0  0  0  0
  3  4  1  0  0  0  0
  3 17  1  0  0  0  0
  5  6  1  0  0  0  0
  7  6  1  1  0  0  0
  7  8  1  0  0  0  0
  7  9  1  0  0  0  0
 10  9  1  1  0  0  0
 10 11  1  0  0  0  0
 10 12  1  0  0  0  0
 11 16  1  0  0  0  0
 12 13  1  6  0  0  0
 12 14  1  0  0  0  0
 14 15  1  6  0  0  0
 14 16  1  0  0  0  0
 16 27  1  1  0  0  0
 18 19  2  0  0  0  0
 18 23  1  0  0  0  0
 19 20  1  0  0  0  0
 20 21  2  0  0  0  0
 21 22  1  0  0  0  0
 21 27  1  0  0  0  0
 22 23  2  0  0  0  0
 22 25  1  0  0  0  0
 23 24  1  0  0  0  0
 25 26  2  0  0  0  0
 26 27  1  0  0  0  0
M  END
>  <CHROM.1>
-9.80005096,-72.80331933,179.03590722,170.43808062,-163.98824489,-64.33680596
98.17360643,33.94012090,21.26569331,80.24060031,0.72185520,-0.04933399,1.20683352

>  <Name>
ligand

>  <RI>
0

>  <Rbt.Current_Directory>
/home/itssahil/PROJECTS/Mol_Feturizer/New_Systems/rnas/2QWY

>  <Rbt.Executable>
rbdock ($Id: //depot/dev/client3/rdock/2013.1/src/exe/rbdock.cxx#4 $)

>  <Rbt.Library>
libRbt.so (2013.1, Build901 2013/11/27)

>  <Rbt.Parameter_File>
/export/apps/rDock/src/rDock_2013.1_src/data/scripts/dock_solv.prm

>  <Rbt.Receptor>
prm/pocket_docking_7.prm

>  <SCORE>
-19.7153

>  <SCORE.INTER>
-16.718

>  <SCORE.INTER.CONST>
1

>  <SCORE.INTER.POLAR>
0

>  <SCORE.INTER.ROT>
7

>  <SCORE.INTER.SOLV>
14.1751

>  <SCORE.INTER.VDW>
-24.137

>  <SCORE.INTER.norm>
-0.619184

>  <SCORE.INTRA>
-2.99732

>  <SCORE.INTRA.DIHEDRAL>
-5.07181

>  <SCORE.INTRA.DIHEDRAL.0>
10.7382

>  <SCORE.INTRA.POLAR>
0

>  <SCORE.INTRA.POLAR.0>
0

>  <SCORE.INTRA.REPUL>
0

>  <SCORE.INTRA.REPUL.0>
0

>  <SCORE.INTRA.SOLV>
-0.278938

>  <SCORE.INTRA.SOLV.lig_0>
-49.2501

>  <SCORE.INTRA.VDW>
-0.321945

>  <SCORE.INTRA.VDW.0>
-1.75368

>  <SCORE.INTRA.norm>
-0.111012

>  <SCORE.RESTR>
0

>  <SCORE.RESTR.CAVITY>
0

>  <SCORE.RESTR.norm>
0

>  <SCORE.SYSTEM>
0

>  <SCORE.SYSTEM.CONST>
0

>  <SCORE.SYSTEM.DIHEDRAL>
0

>  <SCORE.SYSTEM.SOLV>
0

>  <SCORE.SYSTEM.norm>
0

>  <SCORE.heavy>
27

>  <SCORE.norm>
-0.730196

>  <RMSD>
7.251

$$$$
ligand
 OpenBabel11021811463D
libRbt.so/2013.1/901 2013/11/27
 27 29  0  0  0  0  0  0  0  0999 V2000
   38.9779   24.0816   83.7465 N   0  0  0  0  0  0  0  0  0  0  0  0
   37.5450   23.8666   83.4792 C   0  0  2  0  0  0  0  0  0  0  0  0
   36.9014   23.1404   84.6421 C   0  0  0  0  0  0  0  0  0  0  0  0
   35.6736   23.1526   84.7770 O   0  0  0  0  0  0  0  0  0  0  0  0
   37.3933   23.0179   82.2211 C   0  0  0  0  0  0  0  0  0  0  0  0
   35.9410   22.9488   81.8001 C   0  0  0  0  0  0  0  0  0  0  0  0
   35.7419   23.9764   80.3338 S   0  0  2  0  0  0  0  0  0  0  0  0
   35.8570   25.6052   81.1246 C   0  0  0  0  0  0  0  0  0  0  0  0
   33.9385   23.8559   80.0793 C   0  0  0  0  0  0  0  0  0  0  0  0
   33.5882   22.4134   79.7244 C   0  0  1  0  0  0  0  0  0  0  0  0
   32.1870   22.3279   79.6080 O   0  0  0  0  0  0  0  0  0  0  0  0
   34.1528   22.0176   78.3558 C   0  0  1  0  0  0  0  0  0  0  0  0
   35.4705   21.4565   78.2514 O   0  0  0  0  0  0  0  0  0  0  0  0
   33.0087   21.1549   77.7273 C   0  0  1  0  0  0  0  0  0  0  0  0
   33.5905   19.9515   77.1971 O   0  0  0  0  0  0  0  0  0  0  0  0
   31.9040   21.1672   78.8427 C   0  0  2  0  0  0  0  0  0  0  0  0
   37.5946   22.4846   85.4050 O   0  0  0  0  0  0  0  0  0  0  0  0
   27.5974   18.6600   77.3355 N   0  0  0  0  0  0  0  0  0  0  0  0
   28.7561   18.1450   77.7621 C   0  0  0  0  0  0  0  0  0  0  0  0
   29.7820   18.9221   78.0978 N   0  0  0  0  0  0  0  0  0  0  0  0
   29.6889   20.2632   78.0441 C   0  0  0  0  0  0  0  0  0  0  0  0
   28.4749   20.8614   77.6123 C   0  0  0  0  0  0  0  0  0  0  0  0
   27.4052   19.9901   77.2503 C   0  0  0  0  0  0  0  0  0  0  0  0
   26.1894   20.4946   76.8285 N   0  0  0  0  0  0  0  0  0  0  0  0
   28.6495   22.2023   77.6593 N   0  0  0  0  0  0  0  0  0  0  0  0
   29.8530   22.4622   78.0813 C   0  0  0  0  0  0  0  0  0  0  0  0
   30.5349   21.2967   78.3320 N   0  0  0  0  0  0  0  0  0  0  0  0
  2  1  1  1  0  0  0
  2  3  1  0  0  0  0
  2  5  1  0  0  0  0
  3  4  1  0  0  0  0
  3 17  1  0  0  0  0
  5  6  1  0  0  0  0
  7  6  1  1  0  0  0
  7  8  1  0  0  0  0
  7  9  1  0  0  0  0
 10  9  1  6  0  0  0
 10 11  1  0  0  0  0
 10 12  1  0  0  0  0
 11 16  1  0  0  0  0
 12 13  1  1  0  0  0
 12 14  1  0  0  0  0
 14 15  1  1  0  0  0
 14 16  1  0  0  0  0
 16 27  1  6  0  0  0
 18 19  2  0  0  0  0
 18 23  1  0  0  0  0
 19 20  1  0  0  0  0
 20 21  2  0  0  0  0
 21 22  1  0  0  0  0
 21 27  1  0  0  0  0
 22 23  2  0  0  0  0
 22 25  1  0  0  0  0
 23 24  1  0  0  0  0
 25 26  2  0  0  0  0
 26 27  1  0  0  0  0
M  END
>  <CHROM.1>
162.06880968,-171.59689782,106.79889544,-73.38203155,-65.62833294,176.70161985
-151.46898822,33.09153002,21.98628689,79.88001933,0.53625898,0.41456128,1.61570202

>  <Name>
ligand

>  <RI>
0

>  <Rbt.Current_Directory>
/home/itssahil/PROJECTS/Mol_Feturizer/New_Systems/rnas/2QWY

>  <Rbt.Executable>
rbdock ($Id: //depot/dev/client3/rdock/2013.1/src/exe/rbdock.cxx#4 $)

>  <Rbt.Library>
libRbt.so (2013.1, Build901 2013/11/27)

>  <Rbt.Parameter_File>
/export/apps/rDock/src/rDock_2013.1_src/data/scripts/dock_solv.prm

>  <Rbt.Receptor>
prm/pocket_docking_7.prm

>  <SCORE>
-21.0792

>  <SCORE.INTER>
-19.6225

>  <SCORE.INTER.CONST>
1

>  <SCORE.INTER.POLAR>
0

>  <SCORE.INTER.ROT>
7

>  <SCORE.INTER.SOLV>
7.92806

>  <SCORE.INTER.VDW>
-23.991

>  <SCORE.INTER.norm>
-0.726759

>  <SCORE.INTRA>
-1.46187

>  <SCORE.INTRA.DIHEDRAL>
-2.29313

>  <SCORE.INTRA.DIHEDRAL.0>
10.7382

>  <SCORE.INTRA.POLAR>
0

>  <SCORE.INTRA.POLAR.0>
0

>  <SCORE.INTRA.REPUL>
0

>  <SCORE.INTRA.REPUL.0>
0

>  <SCORE.INTRA.SOLV>
-0.629753

>  <SCORE.INTRA.SOLV.lig_0>
-49.2501

>  <SCORE.INTRA.VDW>
-0.00042516

>  <SCORE.INTRA.VDW.0>
-1.75368

>  <SCORE.INTRA.norm>
-0.0541433

>  <SCORE.RESTR>
0.00515069

>  <SCORE.RESTR.CAVITY>
0.00515069

>  <SCORE.RESTR.norm>
0.000190766

>  <SCORE.SYSTEM>
0

>  <SCORE.SYSTEM.CONST>
0

>  <SCORE.SYSTEM.DIHEDRAL>
0

>  <SCORE.SYSTEM.SOLV>
0

>  <SCORE.SYSTEM.norm>
0

>  <SCORE.heavy>
27

>  <SCORE.norm>
-0.780711

>  <RMSD>
7.279

$$$$
ligand
 OpenBabel11021811463D
libRbt.so/2013.1/901 2013/11/27
 27 29  0  0  0  0  0  0  0  0999 V2000
   36.2157   14.3850   69.1020 N   0  0  0  0  0  0  0  0  0  0  0  0
   36.7386   15.7623   69.1230 C   0  0  2  0  0  0  0  0  0  0  0  0
   36.9992   16.2423   67.7104 C   0  0  0  0  0  0  0  0  0  0  0  0
   37.7954   15.6354   66.9869 O   0  0  0  0  0  0  0  0  0  0  0  0
   38.0487   15.7874   69.9036 C   0  0  0  0  0  0  0  0  0  0  0  0
   37.8028   15.4675   71.3626 C   0  0  0  0  0  0  0  0  0  0  0  0
   36.8456   16.8197   72.0703 S   0  0  2  0  0  0  0  0  0  0  0  0
   37.9814   18.1837   71.6946 C   0  0  0  0  0  0  0  0  0  0  0  0
   37.1872   16.5813   73.8475 C   0  0  0  0  0  0  0  0  0  0  0  0
   36.2029   17.4242   74.6538 C   0  0  1  0  0  0  0  0  0  0  0  0
   36.5573   17.3155   76.0128 O   0  0  0  0  0  0  0  0  0  0  0  0
   36.3169   18.9117   74.3030 C   0  0  1  0  0  0  0  0  0  0  0  0
   35.5290   19.4666   73.2384 O   0  0  0  0  0  0  0  0  0  0  0  0
   36.1629   19.6236   75.6879 C   0  0  1  0  0  0  0  0  0  0  0  0
   35.2107   20.6912   75.5428 O   0  0  0  0  0  0  0  0  0  0  0  0
   35.9774   18.4235   76.6829 C   0  0  2  0  0  0  0  0  0  0  0  0
   36.3671   17.1887   67.2661 O   0  0  0  0  0  0  0  0  0  0  0  0
   40.5815   18.4091   79.1132 N   0  0  0  0  0  0  0  0  0  0  0  0
   40.3198   18.1809   77.8212 C   0  0  0  0  0  0  0  0  0  0  0  0
   39.0769   18.2017   77.3482 N   0  0  0  0  0  0  0  0  0  0  0  0
   38.0302   18.4768   78.1475 C   0  0  0  0  0  0  0  0  0  0  0  0
   38.2550   18.7415   79.5250 C   0  0  0  0  0  0  0  0  0  0  0  0
   39.6022   18.6964   79.9916 C   0  0  0  0  0  0  0  0  0  0  0  0
   39.9044   18.9510   81.3162 N   0  0  0  0  0  0  0  0  0  0  0  0
   37.0500   18.9908   80.0875 N   0  0  0  0  0  0  0  0  0  0  0  0
   36.1259   18.9027   79.1752 C   0  0  0  0  0  0  0  0  0  0  0  0
   36.6813   18.5864   77.9597 N   0  0  0  0  0  0  0  0  0  0  0  0
  2  1  1  6  0  0  0
  2  3  1  0  0  0  0
  2  5  1  0  0  0  0
  3  4  1  0  0  0  0
  3 17  1  0  0  0  0
  5  6  1  0  0  0  0
  7  6  1  6  0  0  0
  7  8  1  0  0  0  0
  7  9  1  0  0  0  0
 10  9  1  6  0  0  0
 10 11  1  0  0  0  0
 10 12  1  0  0  0  0
 11 16  1  0  0  0  0
 12 13  1  6  0  0  0
 12 14  1  0  0  0  0
 14 15  1  6  0  0  0
 14 16  1  0  0  0  0
 16 27  1  1  0  0  0
 18 19  2  0  0  0  0
 18 23  1  0  0  0  0
 19 20  1  0  0  0  0
 20 21  2  0  0  0  0
 21 22  1  0  0  0  0
 21 27  1  0  0  0  0
 22 23  2  0  0  0  0
 22 25  1  0  0  0  0
 23 24  1  0  0  0  0
 25 26  2  0  0  0  0
 26 27  1  0  0  0  0
M  END
>  <CHROM.1>
-59.57292035,-66.27077020,-66.86935686,-57.45696071,-166.60413822,-175.03068194
41.71225220,37.32821000,17.72679320,74.38749733,-1.70993684,-0.52703640,1.24433808

>  <Name>
ligand

>  <RI>
0

>  <Rbt.Current_Directory>
/home/itssahil/PROJECTS/Mol_Feturizer/New_Systems/rnas/2QWY

>  <Rbt.Executable>
rbdock ($Id: //depot/dev/client3/rdock/2013.1/src/exe/rbdock.cxx#4 $)

>  <Rbt.Library>
libRbt.so (2013.1, Build901 2013/11/27)

>  <Rbt.Parameter_File>
/export/apps/rDock/src/rDock_2013.1_src/data/scripts/dock_solv.prm

>  <Rbt.Receptor>
prm/pocket_docking_7.prm

>  <SCORE>
-10.4372

>  <SCORE.INTER>
-9.11845

>  <SCORE.INTER.CONST>
1

>  <SCORE.INTER.POLAR>
0

>  <SCORE.INTER.ROT>
7

>  <SCORE.INTER.SOLV>
9.37207

>  <SCORE.INTER.VDW>
-17.4697

>  <SCORE.INTER.norm>
-0.33772

>  <SCORE.INTRA>
-1.31875

>  <SCORE.INTRA.DIHEDRAL>
-5.4351

>  <SCORE.INTRA.DIHEDRAL.0>
10.7382

>  <SCORE.INTRA.POLAR>
0

>  <SCORE.INTRA.POLAR.0>
0

>  <SCORE.INTRA.REPUL>
0

>  <SCORE.INTRA.REPUL.0>
0

>  <SCORE.INTRA.SOLV>
0.426501

>  <SCORE.INTRA.SOLV.lig_0>
-49.2501

>  <SCORE.INTRA.VDW>
1.18555

>  <SCORE.INTRA.VDW.0>
-1.75368

>  <SCORE.INTRA.norm>
-0.0488425

>  <SCORE.RESTR>
0

>  <SCORE.RESTR.CAVITY>
0

>  <SCORE.RESTR.norm>
0

>  <SCORE.SYSTEM>
0

>  <SCORE.SYSTEM.CONST>
0

>  <SCORE.SYSTEM.DIHEDRAL>
0

>  <SCORE.SYSTEM.SOLV>
0

>  <SCORE.SYSTEM.norm>
0

>  <SCORE.heavy>
27

>  <SCORE.norm>
-0.386563

>  <RMSD>
7.387

$$$$
ligand
 OpenBabel11021811463D
libRbt.so/2013.1/901 2013/11/27
 27 29  0  0  0  0  0  0  0  0999 V2000
   37.1320   23.9839   85.3820 N   0  0  0  0  0  0  0  0  0  0  0  0
   36.6896   22.7438   84.7209 C   0  0  2  0  0  0  0  0  0  0  0  0
   37.5412   22.4729   83.4980 C   0  0  0  0  0  0  0  0  0  0  0  0
   38.1784   23.3907   82.9712 O   0  0  0  0  0  0  0  0  0  0  0  0
   35.2359   22.9003   84.2867 C   0  0  0  0  0  0  0  0  0  0  0  0
   34.6222   21.5483   83.9919 C   0  0  0  0  0  0  0  0  0  0  0  0
   33.6514   21.7003   82.4821 S   0  0  2  0  0  0  0  0  0  0  0  0
   32.9844   20.0143   82.4158 C   0  0  0  0  0  0  0  0  0  0  0  0
   34.9670   21.5883   81.2219 C   0  0  0  0  0  0  0  0  0  0  0  0
   34.5355   22.3797   79.9901 C   0  0  1  0  0  0  0  0  0  0  0  0
   33.4361   21.7129   79.4149 O   0  0  0  0  0  0  0  0  0  0  0  0
   34.0342   23.7780   80.3669 C   0  0  1  0  0  0  0  0  0  0  0  0
   34.9518   24.8801   80.4410 O   0  0  0  0  0  0  0  0  0  0  0  0
   32.8095   23.9923   79.4168 C   0  0  1  0  0  0  0  0  0  0  0  0
   32.9288   25.2920   78.8134 O   0  0  0  0  0  0  0  0  0  0  0  0
   32.7613   22.6548   78.5961 C   0  0  2  0  0  0  0  0  0  0  0  0
   37.6512   21.3311   83.0775 O   0  0  0  0  0  0  0  0  0  0  0  0
   29.8078   18.4408   77.8066 N   0  0  0  0  0  0  0  0  0  0  0  0
   31.1320   18.5097   77.9840 C   0  0  0  0  0  0  0  0  0  0  0  0
   31.7517   19.6737   78.1576 N   0  0  0  0  0  0  0  0  0  0  0  0
   31.0675   20.8318   78.1851 C   0  0  0  0  0  0  0  0  0  0  0  0
   29.6570   20.8127   78.0168 C   0  0  0  0  0  0  0  0  0  0  0  0
   29.0356   19.5438   77.8212 C   0  0  0  0  0  0  0  0  0  0  0  0
   27.6667   19.4404   77.6587 N   0  0  0  0  0  0  0  0  0  0  0  0
   29.2265   22.0931   78.0931 N   0  0  0  0  0  0  0  0  0  0  0  0
   30.2468   22.8759   78.2938 C   0  0  0  0  0  0  0  0  0  0  0  0
   31.4070   22.1439   78.3575 N   0  0  0  0  0  0  0  0  0  0  0  0
  2  1  1  6  0  0  0
  2  3  1  0  0  0  0
  2  5  1  0  0  0  0
  3  4  1  0  0  0  0
  3 17  1  0  0  0  0
  5  6  1  0  0  0  0
  7  6  1  1  0  0  0
  7  8  1  0  0  0  0
  7  9  1  0  0  0  0
 10  9  1  1  0  0  0
 10 11  1  0  0  0  0
 10 12  1  0  0  0  0
 11 16  1  0  0  0  0
 12 13  1  6  0  0  0
 12 14  1  0  0  0  0
 14 15  1  6  0  0  0
 14 16  1  0  0  0  0
 16 27  1  1  0  0  0
 18 19  2  0  0  0  0
 18 23  1  0  0  0  0
 19 20  1  0  0  0  0
 20 21  2  0  0  0  0
 21 22  1  0  0  0  0
 21 27  1  0  0  0  0
 22 23  2  0  0  0  0
 22 25  1  0  0  0  0
 23 24  1  0  0  0  0
 25 26  2  0  0  0  0
 26 27  1  0  0  0  0
M  END
>  <CHROM.1>
-20.39287591,-162.96872302,-137.14397954,-177.31431999,-150.88792822,-67.19283832
-36.37480932,33.27272509,21.91879898,80.58084551,0.05631464,0.74271052,2.65592951

>  <Name>
ligand

>  <RI>
0

>  <Rbt.Current_Directory>
/home/itssahil/PROJECTS/Mol_Feturizer/New_Systems/rnas/2QWY

>  <Rbt.Executable>
rbdock ($Id: //depot/dev/client3/rdock/2013.1/src/exe/rbdock.cxx#4 $)

>  <Rbt.Library>
libRbt.so (2013.1, Build901 2013/11/27)

>  <Rbt.Parameter_File>
/export/apps/rDock/src/rDock_2013.1_src/data/scripts/dock_solv.prm

>  <Rbt.Receptor>
prm/pocket_docking_7.prm

>  <SCORE>
-19.664

>  <SCORE.INTER>
-18.8874

>  <SCORE.INTER.CONST>
1

>  <SCORE.INTER.POLAR>
0

>  <SCORE.INTER.ROT>
7

>  <SCORE.INTER.SOLV>
15.6559

>  <SCORE.INTER.VDW>
-26.0769

>  <SCORE.INTER.norm>
-0.699532

>  <SCORE.INTRA>
-0.776634

>  <SCORE.INTRA.DIHEDRAL>
1.8038

>  <SCORE.INTRA.DIHEDRAL.0>
10.7382

>  <SCORE.INTRA.POLAR>
0

>  <SCORE.INTRA.POLAR.0>
0

>  <SCORE.INTRA.REPUL>
0

>  <SCORE.INTRA.REPUL.0>
0

>  <SCORE.INTRA.SOLV>
-0.801209

>  <SCORE.INTRA.SOLV.lig_0>
-49.2501

>  <SCORE.INTRA.VDW>
-1.27793

>  <SCORE.INTRA.VDW.0>
-1.75368

>  <SCORE.INTRA.norm>
-0.0287642

>  <SCORE.RESTR>
0

>  <SCORE.RESTR.CAVITY>
0

>  <SCORE.RESTR.norm>
0

>  <SCORE.SYSTEM>
0

>  <SCORE.SYSTEM.CONST>
0

>  <SCORE.SYSTEM.DIHEDRAL>
0

>  <SCORE.SYSTEM.SOLV>
0

>  <SCORE.SYSTEM.norm>
0

>  <SCORE.heavy>
27

>  <SCORE.norm>
-0.728296

>  <RMSD>
7.424

$$$$
ligand
 OpenBabel11021811463D
libRbt.so/2013.1/901 2013/11/27
 27 29  0  0  0  0  0  0  0  0999 V2000
   32.6628   20.9828   84.0486 N   0  0  0  0  0  0  0  0  0  0  0  0
   32.6162   22.2381   83.2787 C   0  0  2  0  0  0  0  0  0  0  0  0
   31.2194   22.8223   83.3187 C   0  0  0  0  0  0  0  0  0  0  0  0
   30.8836   23.6816   82.4974 O   0  0  0  0  0  0  0  0  0  0  0  0
   32.9901   21.9489   81.8285 C   0  0  0  0  0  0  0  0  0  0  0  0
   33.4885   23.2062   81.1487 C   0  0  0  0  0  0  0  0  0  0  0  0
   33.8560   22.7973   79.4331 S   0  0  2  0  0  0  0  0  0  0  0  0
   34.6904   24.3368   78.9585 C   0  0  0  0  0  0  0  0  0  0  0  0
   32.2196   23.0549   78.6666 C   0  0  0  0  0  0  0  0  0  0  0  0
   31.3903   21.7855   78.8415 C   0  0  1  0  0  0  0  0  0  0  0  0
   30.0500   22.1044   78.5486 O   0  0  0  0  0  0  0  0  0  0  0  0
   31.7988   20.7035   77.8361 C   0  0  1  0  0  0  0  0  0  0  0  0
   32.8372   19.7670   78.1627 O   0  0  0  0  0  0  0  0  0  0  0  0
   30.4334   20.0656   77.4152 C   0  0  1  0  0  0  0  0  0  0  0  0
   30.5632   18.6353   77.4851 O   0  0  0  0  0  0  0  0  0  0  0  0
   29.3882   20.8849   78.2525 C   0  0  2  0  0  0  0  0  0  0  0  0
   30.4049   22.3900   84.1202 O   0  0  0  0  0  0  0  0  0  0  0  0
   25.1341   19.0309   75.8925 N   0  0  0  0  0  0  0  0  0  0  0  0
   26.1244   18.3509   76.4813 C   0  0  0  0  0  0  0  0  0  0  0  0
   27.1647   18.9714   77.0306 N   0  0  0  0  0  0  0  0  0  0  0  0
   27.2531   20.3139   77.0374 C   0  0  0  0  0  0  0  0  0  0  0  0
   26.2202   21.0839   76.4388 C   0  0  0  0  0  0  0  0  0  0  0  0
   25.1299   20.3768   75.8507 C   0  0  0  0  0  0  0  0  0  0  0  0
   24.0816   21.0539   75.2563 N   0  0  0  0  0  0  0  0  0  0  0  0
   26.5519   22.3868   76.5904 N   0  0  0  0  0  0  0  0  0  0  0  0
   27.6848   22.4684   77.2258 C   0  0  0  0  0  0  0  0  0  0  0  0
   28.1586   21.2142   77.5234 N   0  0  0  0  0  0  0  0  0  0  0  0
  2  1  1  1  0  0  0
  2  3  1  0  0  0  0
  2  5  1  0  0  0  0
  3  4  1  0  0  0  0
  3 17  1  0  0  0  0
  5  6  1  0  0  0  0
  7  6  1  1  0  0  0
  7  8  1  0  0  0  0
  7  9  1  0  0  0  0
 10  9  1  6  0  0  0
 10 11  1  0  0  0  0
 10 12  1  0  0  0  0
 11 16  1  0  0  0  0
 12 13  1  1  0  0  0
 12 14  1  0  0  0  0
 14 15  1  1  0  0  0
 14 16  1  0  0  0  0
 16 27  1  6  0  0  0
 18 19  2  0  0  0  0
 18 23  1  0  0  0  0
 19 20  1  0  0  0  0
 20 21  2  0  0  0  0
 21 22  1  0  0  0  0
 21 27  1  0  0  0  0
 22 23  2  0  0  0  0
 22 25  1  0  0  0  0
 23 24  1  0  0  0  0
 25 26  2  0  0  0  0
 26 27  1  0  0  0  0
M  END
>  <CHROM.1>
-162.86450917,-157.43290474,-178.14614390,-170.30640432,-84.40533259,165.82242158
178.75226003,30.10519663,21.44796293,78.94986177,0.69981017,0.15776574,1.32683740

>  <Name>
ligand

>  <RI>
0

>  <Rbt.Current_Directory>
/home/itssahil/PROJECTS/Mol_Feturizer/New_Systems/rnas/2QWY

>  <Rbt.Executable>
rbdock ($Id: //depot/dev/client3/rdock/2013.1/src/exe/rbdock.cxx#4 $)

>  <Rbt.Library>
libRbt.so (2013.1, Build901 2013/11/27)

>  <Rbt.Parameter_File>
/export/apps/rDock/src/rDock_2013.1_src/data/scripts/dock_solv.prm

>  <Rbt.Receptor>
prm/pocket_docking_5.prm

>  <SCORE>
-20.3027

>  <SCORE.INTER>
-17.5902

>  <SCORE.INTER.CONST>
1

>  <SCORE.INTER.POLAR>
0

>  <SCORE.INTER.ROT>
7

>  <SCORE.INTER.SOLV>
12.3111

>  <SCORE.INTER.VDW>
-24.0972

>  <SCORE.INTER.norm>
-0.651489

>  <SCORE.INTRA>
-2.72977

>  <SCORE.INTRA.DIHEDRAL>
-3.3818

>  <SCORE.INTRA.DIHEDRAL.0>
10.7382

>  <SCORE.INTRA.POLAR>
0

>  <SCORE.INTRA.POLAR.0>
0

>  <SCORE.INTRA.REPUL>
0

>  <SCORE.INTRA.REPUL.0>
0

>  <SCORE.INTRA.SOLV>
-0.944426

>  <SCORE.INTRA.SOLV.lig_0>
-49.2501

>  <SCORE.INTRA.VDW>
-0.566657

>  <SCORE.INTRA.VDW.0>
-1.75368

>  <SCORE.INTRA.norm>
-0.101103

>  <SCORE.RESTR>
0.01726

>  <SCORE.RESTR.CAVITY>
0.01726

>  <SCORE.RESTR.norm>
0.000639259

>  <SCORE.SYSTEM>
0

>  <SCORE.SYSTEM.CONST>
0

>  <SCORE.SYSTEM.DIHEDRAL>
0

>  <SCORE.SYSTEM.SOLV>
0

>  <SCORE.SYSTEM.norm>
0

>  <SCORE.heavy>
27

>  <SCORE.norm>
-0.751952

>  <RMSD>
7.456

$$$$
ligand
 OpenBabel11021811463D
libRbt.so/2013.1/901 2013/11/27
 27 29  0  0  0  0  0  0  0  0999 V2000
   33.1817   23.3579   81.4688 N   0  0  0  0  0  0  0  0  0  0  0  0
   33.4639   21.9427   81.1715 C   0  0  2  0  0  0  0  0  0  0  0  0
   34.4258   21.3770   82.1955 C   0  0  0  0  0  0  0  0  0  0  0  0
   35.0030   22.1307   82.9860 O   0  0  0  0  0  0  0  0  0  0  0  0
   34.0973   21.8395   79.7879 C   0  0  0  0  0  0  0  0  0  0  0  0
   33.0671   22.1082   78.7118 C   0  0  0  0  0  0  0  0  0  0  0  0
   31.8362   20.7949   78.7860 S   0  0  2  0  0  0  0  0  0  0  0  0
   32.6778   19.5729   77.7420 C   0  0  0  0  0  0  0  0  0  0  0  0
   30.5904   21.4330   77.6145 C   0  0  0  0  0  0  0  0  0  0  0  0
   29.2175   20.9057   78.0225 C   0  0  1  0  0  0  0  0  0  0  0  0
   28.2468   21.6473   77.3209 O   0  0  0  0  0  0  0  0  0  0  0  0
   29.0261   19.4461   77.5968 C   0  0  1  0  0  0  0  0  0  0  0  0
   29.4165   18.3790   78.4750 O   0  0  0  0  0  0  0  0  0  0  0  0
   27.5386   19.4015   77.1132 C   0  0  1  0  0  0  0  0  0  0  0  0
   26.9026   18.2610   77.7151 O   0  0  0  0  0  0  0  0  0  0  0  0
   27.0538   20.8794   77.3263 C   0  0  2  0  0  0  0  0  0  0  0  0
   34.5748   20.1676   82.2832 O   0  0  0  0  0  0  0  0  0  0  0  0
   23.4034   19.7333   73.7957 N   0  0  0  0  0  0  0  0  0  0  0  0
   24.0093   18.9159   74.6643 C   0  0  0  0  0  0  0  0  0  0  0  0
   24.9451   19.3576   75.4998 N   0  0  0  0  0  0  0  0  0  0  0  0
   25.3059   20.6535   75.5221 C   0  0  0  0  0  0  0  0  0  0  0  0
   24.6821   21.5667   74.6303 C   0  0  0  0  0  0  0  0  0  0  0  0
   23.6931   21.0473   73.7433 C   0  0  0  0  0  0  0  0  0  0  0  0
   23.0343   21.8729   72.8516 N   0  0  0  0  0  0  0  0  0  0  0  0
   25.2184   22.7864   74.8651 N   0  0  0  0  0  0  0  0  0  0  0  0
   26.1023   22.6891   75.8154 C   0  0  0  0  0  0  0  0  0  0  0  0
   26.1934   21.3908   76.2539 N   0  0  0  0  0  0  0  0  0  0  0  0
  2  1  1  1  0  0  0
  2  3  1  0  0  0  0
  2  5  1  0  0  0  0
  3  4  1  0  0  0  0
  3 17  1  0  0  0  0
  5  6  1  0  0  0  0
  7  6  1  6  0  0  0
  7  8  1  0  0  0  0
  7  9  1  0  0  0  0
 10  9  1  6  0  0  0
 10 11  1  0  0  0  0
 10 12  1  0  0  0  0
 11 16  1  0  0  0  0
 12 13  1  1  0  0  0
 12 14  1  0  0  0  0
 14 15  1  1  0  0  0
 14 16  1  0  0  0  0
 16 27  1  6  0  0  0
 18 19  2  0  0  0  0
 18 23  1  0  0  0  0
 19 20  1  0  0  0  0
 20 21  2  0  0  0  0
 21 22  1  0  0  0  0
 21 27  1  0  0  0  0
 22 23  2  0  0  0  0
 22 25  1  0  0  0  0
 23 24  1  0  0  0  0
 25 26  2  0  0  0  0
 26 27  1  0  0  0  0
M  END
>  <CHROM.1>
-10.72810087,-72.09170385,-64.83672935,-85.59700969,-151.53113628,166.25119495
148.53835211,29.04685853,20.84928909,77.70386722,-0.02034589,-0.59781228
-0.15253954

>  <Name>
ligand

>  <RI>
0

>  <Rbt.Current_Directory>
/home/itssahil/PROJECTS/Mol_Feturizer/New_Systems/rnas/2QWY

>  <Rbt.Executable>
rbdock ($Id: //depot/dev/client3/rdock/2013.1/src/exe/rbdock.cxx#4 $)

>  <Rbt.Library>
libRbt.so (2013.1, Build901 2013/11/27)

>  <Rbt.Parameter_File>
/export/apps/rDock/src/rDock_2013.1_src/data/scripts/dock_solv.prm

>  <Rbt.Receptor>
prm/pocket_docking_8.prm

>  <SCORE>
-20.5446

>  <SCORE.INTER>
-18.9436

>  <SCORE.INTER.CONST>
1

>  <SCORE.INTER.POLAR>
0

>  <SCORE.INTER.ROT>
7

>  <SCORE.INTER.SOLV>
12.1162

>  <SCORE.INTER.VDW>
-24.9344

>  <SCORE.INTER.norm>
-0.701614

>  <SCORE.INTRA>
-1.60104

>  <SCORE.INTRA.DIHEDRAL>
-2.44096

>  <SCORE.INTRA.DIHEDRAL.0>
10.7382

>  <SCORE.INTRA.POLAR>
0

>  <SCORE.INTRA.POLAR.0>
0

>  <SCORE.INTRA.REPUL>
0

>  <SCORE.INTRA.REPUL.0>
0

>  <SCORE.INTRA.SOLV>
0.289745

>  <SCORE.INTRA.SOLV.lig_0>
-49.2501

>  <SCORE.INTRA.VDW>
-0.525428

>  <SCORE.INTRA.VDW.0>
-1.75368

>  <SCORE.INTRA.norm>
-0.0592976

>  <SCORE.RESTR>
0

>  <SCORE.RESTR.CAVITY>
0

>  <SCORE.RESTR.norm>
0

>  <SCORE.SYSTEM>
0

>  <SCORE.SYSTEM.CONST>
0

>  <SCORE.SYSTEM.DIHEDRAL>
0

>  <SCORE.SYSTEM.SOLV>
0

>  <SCORE.SYSTEM.norm>
0

>  <SCORE.heavy>
27

>  <SCORE.norm>
-0.760911

>  <RMSD>
7.475

$$$$
ligand
 OpenBabel11021811463D
libRbt.so/2013.1/901 2013/11/27
 27 29  0  0  0  0  0  0  0  0999 V2000
   35.5023   25.3630   81.7360 N   0  0  0  0  0  0  0  0  0  0  0  0
   35.4376   25.2241   80.2707 C   0  0  2  0  0  0  0  0  0  0  0  0
   34.1388   24.5576   79.8673 C   0  0  0  0  0  0  0  0  0  0  0  0
   33.7714   23.5231   80.4336 O   0  0  0  0  0  0  0  0  0  0  0  0
   36.6037   24.3617   79.7986 C   0  0  0  0  0  0  0  0  0  0  0  0
   36.7595   24.4573   78.2959 C   0  0  0  0  0  0  0  0  0  0  0  0
   36.8979   22.7821   77.6478 S   0  0  2  0  0  0  0  0  0  0  0  0
   37.2209   23.1882   75.9093 C   0  0  0  0  0  0  0  0  0  0  0  0
   35.1376   22.3082   77.5581 C   0  0  0  0  0  0  0  0  0  0  0  0
   34.9274   21.0424   78.3848 C   0  0  1  0  0  0  0  0  0  0  0  0
   35.4134   21.2919   79.6831 O   0  0  0  0  0  0  0  0  0  0  0  0
   33.4387   20.7153   78.5443 C   0  0  1  0  0  0  0  0  0  0  0  0
   32.7713   19.8903   77.5769 O   0  0  0  0  0  0  0  0  0  0  0  0
   33.3321   20.2249   80.0264 C   0  0  1  0  0  0  0  0  0  0  0  0
   32.5745   19.0029   80.0436 O   0  0  0  0  0  0  0  0  0  0  0  0
   34.8104   20.3376   80.5426 C   0  0  2  0  0  0  0  0  0  0  0  0
   33.4222   25.0847   79.0299 O   0  0  0  0  0  0  0  0  0  0  0  0
   32.2844   21.6843   84.8911 N   0  0  0  0  0  0  0  0  0  0  0  0
   31.7767   21.2464   83.7335 C   0  0  0  0  0  0  0  0  0  0  0  0
   32.5570   20.9572   82.6959 N   0  0  0  0  0  0  0  0  0  0  0  0
   33.8952   21.0713   82.7754 C   0  0  0  0  0  0  0  0  0  0  0  0
   34.4864   21.5176   83.9877 C   0  0  0  0  0  0  0  0  0  0  0  0
   33.6112   21.8284   85.0702 C   0  0  0  0  0  0  0  0  0  0  0  0
   34.1093   22.2605   86.2852 N   0  0  0  0  0  0  0  0  0  0  0  0
   35.8260   21.5338   83.7985 N   0  0  0  0  0  0  0  0  0  0  0  0
   36.0917   21.1365   82.5879 C   0  0  0  0  0  0  0  0  0  0  0  0
   34.9315   20.8397   81.9156 N   0  0  0  0  0  0  0  0  0  0  0  0
  2  1  1  1  0  0  0
  2  3  1  0  0  0  0
  2  5  1  0  0  0  0
  3  4  1  0  0  0  0
  3 17  1  0  0  0  0
  5  6  1  0  0  0  0
  7  6  1  1  0  0  0
  7  8  1  0  0  0  0
  7  9  1  0  0  0  0
 10  9  1  6  0  0  0
 10 11  1  0  0  0  0
 10 12  1  0  0  0  0
 11 16  1  0  0  0  0
 12 13  1  6  0  0  0
 12 14  1  0  0  0  0
 14 15  1  6  0  0  0
 14 16  1  0  0  0  0
 16 27  1  1  0  0  0
 18 19  2  0  0  0  0
 18 23  1  0  0  0  0
 19 20  1  0  0  0  0
 20 21  2  0  0  0  0
 21 22  1  0  0  0  0
 21 27  1  0  0  0  0
 22 23  2  0  0  0  0
 22 25  1  0  0  0  0
 23 24  1  0  0  0  0
 25 26  2  0  0  0  0
 26 27  1  0  0  0  0
M  END
>  <CHROM.1>
-48.66231968,-166.94637869,-131.30876470,-175.07657603,-122.95375855,54.62485380
122.28460615,34.62007138,22.16600726,80.60570427,-0.89337138,0.99908370,1.22202146

>  <Name>
ligand

>  <RI>
0

>  <Rbt.Current_Directory>
/home/itssahil/PROJECTS/Mol_Feturizer/New_Systems/rnas/2QWY

>  <Rbt.Executable>
rbdock ($Id: //depot/dev/client3/rdock/2013.1/src/exe/rbdock.cxx#4 $)

>  <Rbt.Library>
libRbt.so (2013.1, Build901 2013/11/27)

>  <Rbt.Parameter_File>
/export/apps/rDock/src/rDock_2013.1_src/data/scripts/dock_solv.prm

>  <Rbt.Receptor>
prm/pocket_docking_7.prm

>  <SCORE>
-8.49274

>  <SCORE.INTER>
-6.47989

>  <SCORE.INTER.CONST>
1

>  <SCORE.INTER.POLAR>
0

>  <SCORE.INTER.ROT>
7

>  <SCORE.INTER.SOLV>
8.13965

>  <SCORE.INTER.VDW>
-15.2998

>  <SCORE.INTER.norm>
-0.239996

>  <SCORE.INTRA>
-2.01286

>  <SCORE.INTRA.DIHEDRAL>
2.97124

>  <SCORE.INTRA.DIHEDRAL.0>
10.7382

>  <SCORE.INTRA.POLAR>
0

>  <SCORE.INTRA.POLAR.0>
0

>  <SCORE.INTRA.REPUL>
0

>  <SCORE.INTRA.REPUL.0>
0

>  <SCORE.INTRA.SOLV>
-0.78231

>  <SCORE.INTRA.SOLV.lig_0>
-49.2501

>  <SCORE.INTRA.VDW>
-3.10732

>  <SCORE.INTRA.VDW.0>
-1.75368

>  <SCORE.INTRA.norm>
-0.0745502

>  <SCORE.RESTR>
0

>  <SCORE.RESTR.CAVITY>
0

>  <SCORE.RESTR.norm>
0

>  <SCORE.SYSTEM>
0

>  <SCORE.SYSTEM.CONST>
0

>  <SCORE.SYSTEM.DIHEDRAL>
0

>  <SCORE.SYSTEM.SOLV>
0

>  <SCORE.SYSTEM.norm>
0

>  <SCORE.heavy>
27

>  <SCORE.norm>
-0.314546

>  <RMSD>
7.542

$$$$
ligand
 OpenBabel11021811463D
libRbt.so/2013.1/901 2013/11/27
 27 29  0  0  0  0  0  0  0  0999 V2000
   33.9306   22.1564   80.1395 N   0  0  0  0  0  0  0  0  0  0  0  0
   33.3264   20.8471   80.4421 C   0  0  2  0  0  0  0  0  0  0  0  0
   33.8153   20.3456   81.7850 C   0  0  0  0  0  0  0  0  0  0  0  0
   33.0354   19.7752   82.5546 O   0  0  0  0  0  0  0  0  0  0  0  0
   33.7324   19.8482   79.3633 C   0  0  0  0  0  0  0  0  0  0  0  0
   32.8699   20.0189   78.1311 C   0  0  0  0  0  0  0  0  0  0  0  0
   31.1809   19.5756   78.5738 S   0  0  2  0  0  0  0  0  0  0  0  0
   31.0586   18.0159   77.6551 C   0  0  0  0  0  0  0  0  0  0  0  0
   30.2404   20.6863   77.4722 C   0  0  0  0  0  0  0  0  0  0  0  0
   28.7682   20.6432   77.8725 C   0  0  1  0  0  0  0  0  0  0  0  0
   28.1319   21.7565   77.2895 O   0  0  0  0  0  0  0  0  0  0  0  0
   28.0660   19.4061   77.3023 C   0  0  1  0  0  0  0  0  0  0  0  0
   28.0432   18.1789   78.0477 O   0  0  0  0  0  0  0  0  0  0  0  0
   26.6639   19.9513   76.8718 C   0  0  1  0  0  0  0  0  0  0  0  0
   25.6579   19.0543   77.3727 O   0  0  0  0  0  0  0  0  0  0  0  0
   26.7425   21.4710   77.2576 C   0  0  2  0  0  0  0  0  0  0  0  0
   34.9982   20.4441   82.0741 O   0  0  0  0  0  0  0  0  0  0  0  0
   24.0617   21.8420   72.8102 N   0  0  0  0  0  0  0  0  0  0  0  0
   24.4909   20.7400   73.4358 C   0  0  0  0  0  0  0  0  0  0  0  0
   25.1869   20.8080   74.5671 N   0  0  0  0  0  0  0  0  0  0  0  0
   25.4692   21.9905   75.1434 C   0  0  0  0  0  0  0  0  0  0  0  0
   25.0232   23.1905   74.5276 C   0  0  0  0  0  0  0  0  0  0  0  0
   24.2911   23.0714   73.3093 C   0  0  0  0  0  0  0  0  0  0  0  0
   23.8153   24.1915   72.6536 N   0  0  0  0  0  0  0  0  0  0  0  0
   25.4309   24.2176   75.3084 N   0  0  0  0  0  0  0  0  0  0  0  0
   26.0765   23.7443   76.3347 C   0  0  0  0  0  0  0  0  0  0  0  0
   26.1277   22.3731   76.2777 N   0  0  0  0  0  0  0  0  0  0  0  0
  2  1  1  6  0  0  0
  2  3  1  0  0  0  0
  2  5  1  0  0  0  0
  3  4  1  0  0  0  0
  3 17  1  0  0  0  0
  5  6  1  0  0  0  0
  7  6  1  6  0  0  0
  7  8  1  0  0  0  0
  7  9  1  0  0  0  0
 10  9  1  6  0  0  0
 10 11  1  0  0  0  0
 10 12  1  0  0  0  0
 11 16  1  0  0  0  0
 12 13  1  1  0  0  0
 12 14  1  0  0  0  0
 14 15  1  1  0  0  0
 14 16  1  0  0  0  0
 16 27  1  6  0  0  0
 18 19  2  0  0  0  0
 18 23  1  0  0  0  0
 19 20  1  0  0  0  0
 20 21  2  0  0  0  0
 21 22  1  0  0  0  0
 21 27  1  0  0  0  0
 22 23  2  0  0  0  0
 22 25  1  0  0  0  0
 23 24  1  0  0  0  0
 25 26  2  0  0  0  0
 26 27  1  0  0  0  0
M  END
>  <CHROM.1>
140.26128153,-80.34190618,-65.51536321,-109.08230765,-169.95392820,163.66908366
118.62536536,28.75308659,20.91535306,77.36380672,-0.30073281,-0.59136544
-0.15926732

>  <Name>
ligand

>  <RI>
0

>  <Rbt.Current_Directory>
/home/itssahil/PROJECTS/Mol_Feturizer/New_Systems/rnas/2QWY

>  <Rbt.Executable>
rbdock ($Id: //depot/dev/client3/rdock/2013.1/src/exe/rbdock.cxx#4 $)

>  <Rbt.Library>
libRbt.so (2013.1, Build901 2013/11/27)

>  <Rbt.Parameter_File>
/export/apps/rDock/src/rDock_2013.1_src/data/scripts/dock_solv.prm

>  <Rbt.Receptor>
prm/pocket_docking_8.prm

>  <SCORE>
-23.8166

>  <SCORE.INTER>
-23.0713

>  <SCORE.INTER.CONST>
1

>  <SCORE.INTER.POLAR>
0

>  <SCORE.INTER.ROT>
7

>  <SCORE.INTER.SOLV>
10.8264

>  <SCORE.INTER.VDW>
-27.2563

>  <SCORE.INTER.norm>
-0.854492

>  <SCORE.INTRA>
-0.745289

>  <SCORE.INTRA.DIHEDRAL>
-0.852835

>  <SCORE.INTRA.DIHEDRAL.0>
10.7382

>  <SCORE.INTRA.POLAR>
0

>  <SCORE.INTRA.POLAR.0>
0

>  <SCORE.INTRA.REPUL>
0

>  <SCORE.INTRA.REPUL.0>
0

>  <SCORE.INTRA.SOLV>
0.133249

>  <SCORE.INTRA.SOLV.lig_0>
-49.2501

>  <SCORE.INTRA.VDW>
-0.385496

>  <SCORE.INTRA.VDW.0>
-1.75368

>  <SCORE.INTRA.norm>
-0.0276033

>  <SCORE.RESTR>
0

>  <SCORE.RESTR.CAVITY>
0

>  <SCORE.RESTR.norm>
0

>  <SCORE.SYSTEM>
0

>  <SCORE.SYSTEM.CONST>
0

>  <SCORE.SYSTEM.DIHEDRAL>
0

>  <SCORE.SYSTEM.SOLV>
0

>  <SCORE.SYSTEM.norm>
0

>  <SCORE.heavy>
27

>  <SCORE.norm>
-0.882096

>  <RMSD>
7.600

$$$$
ligand
 OpenBabel11021811463D
libRbt.so/2013.1/901 2013/11/27
 27 29  0  0  0  0  0  0  0  0999 V2000
   31.1425   20.8434   77.7353 N   0  0  0  0  0  0  0  0  0  0  0  0
   31.6947   19.4913   77.9290 C   0  0  2  0  0  0  0  0  0  0  0  0
   30.6124   18.4520   77.7231 C   0  0  0  0  0  0  0  0  0  0  0  0
   29.4496   18.6927   78.0635 O   0  0  0  0  0  0  0  0  0  0  0  0
   32.2325   19.3703   79.3512 C   0  0  0  0  0  0  0  0  0  0  0  0
   33.4103   20.2994   79.5534 C   0  0  0  0  0  0  0  0  0  0  0  0
   33.8812   20.2235   81.2906 S   0  0  2  0  0  0  0  0  0  0  0  0
   33.1117   21.7685   81.8496 C   0  0  0  0  0  0  0  0  0  0  0  0
   35.6293   20.7390   81.1895 C   0  0  0  0  0  0  0  0  0  0  0  0
   36.4649   19.5512   80.7199 C   0  0  1  0  0  0  0  0  0  0  0  0
   36.0658   19.2382   79.4058 O   0  0  0  0  0  0  0  0  0  0  0  0
   37.9531   19.9075   80.6381 C   0  0  1  0  0  0  0  0  0  0  0  0
   38.8037   19.7298   81.7814 O   0  0  0  0  0  0  0  0  0  0  0  0
   38.4280   19.1840   79.3345 C   0  0  1  0  0  0  0  0  0  0  0  0
   39.6427   18.4734   79.6299 O   0  0  0  0  0  0  0  0  0  0  0  0
   37.1181   18.4884   78.8197 C   0  0  2  0  0  0  0  0  0  0  0  0
   30.8796   17.4037   77.1554 O   0  0  0  0  0  0  0  0  0  0  0  0
   39.3146   19.6161   74.2363 N   0  0  0  0  0  0  0  0  0  0  0  0
   39.8402   19.7235   75.4618 C   0  0  0  0  0  0  0  0  0  0  0  0
   39.1411   19.4108   76.5493 N   0  0  0  0  0  0  0  0  0  0  0  0
   37.8802   18.9501   76.4602 C   0  0  0  0  0  0  0  0  0  0  0  0
   37.2802   18.8027   75.1810 C   0  0  0  0  0  0  0  0  0  0  0  0
   38.0618   19.1616   74.0431 C   0  0  0  0  0  0  0  0  0  0  0  0
   37.5528   19.0387   72.7638 N   0  0  0  0  0  0  0  0  0  0  0  0
   36.0307   18.3219   75.3769 N   0  0  0  0  0  0  0  0  0  0  0  0
   35.8281   18.1654   76.6530 C   0  0  0  0  0  0  0  0  0  0  0  0
   36.9414   18.5404   77.3644 N   0  0  0  0  0  0  0  0  0  0  0  0
  2  1  1  1  0  0  0
  2  3  1  0  0  0  0
  2  5  1  0  0  0  0
  3  4  1  0  0  0  0
  3 17  1  0  0  0  0
  5  6  1  0  0  0  0
  7  6  1  6  0  0  0
  7  8  1  0  0  0  0
  7  9  1  0  0  0  0
 10  9  1  6  0  0  0
 10 11  1  0  0  0  0
 10 12  1  0  0  0  0
 11 16  1  0  0  0  0
 12 13  1  1  0  0  0
 12 14  1  0  0  0  0
 14 15  1  1  0  0  0
 14 16  1  0  0  0  0
 16 27  1  6  0  0  0
 18 19  2  0  0  0  0
 18 23  1  0  0  0  0
 19 20  1  0  0  0  0
 20 21  2  0  0  0  0
 21 22  1  0  0  0  0
 21 27  1  0  0  0  0
 22 23  2  0  0  0  0
 22 25  1  0  0  0  0
 23 24  1  0  0  0  0
 25 26  2  0  0  0  0
 26 27  1  0  0  0  0
M  END
>  <CHROM.1>
-34.69214493,-65.36985222,174.38451600,-101.51132257,-78.82845474,65.04441506
125.40678551,35.57261196,19.36440320,78.24771597,2.71839118,0.01894606,1.36260186

>  <Name>
ligand

>  <RI>
0

>  <Rbt.Current_Directory>
/home/itssahil/PROJECTS/Mol_Feturizer/New_Systems/rnas/2QWY

>  <Rbt.Executable>
rbdock ($Id: //depot/dev/client3/rdock/2013.1/src/exe/rbdock.cxx#4 $)

>  <Rbt.Library>
libRbt.so (2013.1, Build901 2013/11/27)

>  <Rbt.Parameter_File>
/export/apps/rDock/src/rDock_2013.1_src/data/scripts/dock_solv.prm

>  <Rbt.Receptor>
prm/pocket_docking_7.prm

>  <SCORE>
-13.5983

>  <SCORE.INTER>
-10.9424

>  <SCORE.INTER.CONST>
1

>  <SCORE.INTER.POLAR>
0

>  <SCORE.INTER.ROT>
7

>  <SCORE.INTER.SOLV>
11.576

>  <SCORE.INTER.VDW>
-19.4203

>  <SCORE.INTER.norm>
-0.405276

>  <SCORE.INTRA>
-2.65586

>  <SCORE.INTRA.DIHEDRAL>
-4.35435

>  <SCORE.INTRA.DIHEDRAL.0>
10.7382

>  <SCORE.INTRA.POLAR>
0

>  <SCORE.INTRA.POLAR.0>
0

>  <SCORE.INTRA.REPUL>
0

>  <SCORE.INTRA.REPUL.0>
0

>  <SCORE.INTRA.SOLV>
-0.154933

>  <SCORE.INTRA.SOLV.lig_0>
-49.2501

>  <SCORE.INTRA.VDW>
-0.401219

>  <SCORE.INTRA.VDW.0>
-1.75368

>  <SCORE.INTRA.norm>
-0.0983652

>  <SCORE.RESTR>
0

>  <SCORE.RESTR.CAVITY>
0

>  <SCORE.RESTR.norm>
0

>  <SCORE.SYSTEM>
0

>  <SCORE.SYSTEM.CONST>
0

>  <SCORE.SYSTEM.DIHEDRAL>
0

>  <SCORE.SYSTEM.SOLV>
0

>  <SCORE.SYSTEM.norm>
0

>  <SCORE.heavy>
27

>  <SCORE.norm>
-0.503641

>  <RMSD>
7.744

$$$$
ligand
 OpenBabel11021811463D
libRbt.so/2013.1/901 2013/11/27
 27 29  0  0  0  0  0  0  0  0999 V2000
   27.9496   19.3012   77.0074 N   0  0  0  0  0  0  0  0  0  0  0  0
   28.1240   20.5348   77.7939 C   0  0  2  0  0  0  0  0  0  0  0  0
   27.3194   21.6619   77.1805 C   0  0  0  0  0  0  0  0  0  0  0  0
   26.4233   21.4123   76.3677 O   0  0  0  0  0  0  0  0  0  0  0  0
   29.5990   20.9230   77.7937 C   0  0  0  0  0  0  0  0  0  0  0  0
   30.4363   19.8251   78.4140 C   0  0  0  0  0  0  0  0  0  0  0  0
   31.9821   20.5602   78.9755 S   0  0  2  0  0  0  0  0  0  0  0  0
   32.8189   20.6943   77.3713 C   0  0  0  0  0  0  0  0  0  0  0  0
   32.8212   19.0945   79.6678 C   0  0  0  0  0  0  0  0  0  0  0  0
   34.3297   19.3201   79.6110 C   0  0  1  0  0  0  0  0  0  0  0  0
   34.7224   19.2591   78.2596 O   0  0  0  0  0  0  0  0  0  0  0  0
   34.7078   20.7223   80.1001 C   0  0  1  0  0  0  0  0  0  0  0  0
   34.9806   20.9546   81.4907 O   0  0  0  0  0  0  0  0  0  0  0  0
   35.8445   21.1553   79.1159 C   0  0  1  0  0  0  0  0  0  0  0  0
   36.9353   21.6824   79.8905 O   0  0  0  0  0  0  0  0  0  0  0  0
   35.9763   19.9157   78.1615 C   0  0  2  0  0  0  0  0  0  0  0  0
   27.5122   22.8118   77.5452 O   0  0  0  0  0  0  0  0  0  0  0  0
   36.5935   18.1170   73.3151 N   0  0  0  0  0  0  0  0  0  0  0  0
   36.4296   17.4236   74.4474 C   0  0  0  0  0  0  0  0  0  0  0  0
   36.3019   18.0311   75.6237 N   0  0  0  0  0  0  0  0  0  0  0  0
   36.3092   19.3729   75.7211 C   0  0  0  0  0  0  0  0  0  0  0  0
   36.4651   20.1567   74.5465 C   0  0  0  0  0  0  0  0  0  0  0  0
   36.6111   19.4635   73.3085 C   0  0  0  0  0  0  0  0  0  0  0  0
   36.7586   20.1543   72.1202 N   0  0  0  0  0  0  0  0  0  0  0  0
   36.4301   21.4557   74.9234 N   0  0  0  0  0  0  0  0  0  0  0  0
   36.2653   21.5224   76.2127 C   0  0  0  0  0  0  0  0  0  0  0  0
   36.1856   20.2617   76.7514 N   0  0  0  0  0  0  0  0  0  0  0  0
  2  1  1  6  0  0  0
  2  3  1  0  0  0  0
  2  5  1  0  0  0  0
  3  4  1  0  0  0  0
  3 17  1  0  0  0  0
  5  6  1  0  0  0  0
  7  6  1  6  0  0  0
  7  8  1  0  0  0  0
  7  9  1  0  0  0  0
 10  9  1  6  0  0  0
 10 11  1  0  0  0  0
 10 12  1  0  0  0  0
 11 16  1  0  0  0  0
 12 13  1  1  0  0  0
 12 14  1  0  0  0  0
 14 15  1  1  0  0  0
 14 16  1  0  0  0  0
 16 27  1  6  0  0  0
 18 19  2  0  0  0  0
 18 23  1  0  0  0  0
 19 20  1  0  0  0  0
 20 21  2  0  0  0  0
 21 22  1  0  0  0  0
 21 27  1  0  0  0  0
 22 23  2  0  0  0  0
 22 25  1  0  0  0  0
 23 24  1  0  0  0  0
 25 26  2  0  0  0  0
 26 27  1  0  0  0  0
M  END
>  <CHROM.1>
16.52870397,-60.34608089,-157.94671806,-77.30050200,154.12873728,-70.63593703
-63.49082305,33.42925076,20.26450007,77.26306626,2.86311615,-0.11621000,1.40297975

>  <Name>
ligand

>  <RI>
0

>  <Rbt.Current_Directory>
/home/itssahil/PROJECTS/Mol_Feturizer/New_Systems/rnas/2QWY

>  <Rbt.Executable>
rbdock ($Id: //depot/dev/client3/rdock/2013.1/src/exe/rbdock.cxx#4 $)

>  <Rbt.Library>
libRbt.so (2013.1, Build901 2013/11/27)

>  <Rbt.Parameter_File>
/export/apps/rDock/src/rDock_2013.1_src/data/scripts/dock_solv.prm

>  <Rbt.Receptor>
prm/pocket_docking_2.prm

>  <SCORE>
-0.998882

>  <SCORE.INTER>
-4.89213

>  <SCORE.INTER.CONST>
1

>  <SCORE.INTER.POLAR>
0

>  <SCORE.INTER.ROT>
7

>  <SCORE.INTER.SOLV>
16.8201

>  <SCORE.INTER.VDW>
-17.1348

>  <SCORE.INTER.norm>
-0.18119

>  <SCORE.INTRA>
3.14809

>  <SCORE.INTRA.DIHEDRAL>
-4.66683

>  <SCORE.INTRA.DIHEDRAL.0>
10.7382

>  <SCORE.INTRA.POLAR>
0

>  <SCORE.INTRA.POLAR.0>
0

>  <SCORE.INTRA.REPUL>
0

>  <SCORE.INTRA.REPUL.0>
0

>  <SCORE.INTRA.SOLV>
-0.087115

>  <SCORE.INTRA.SOLV.lig_0>
-49.2501

>  <SCORE.INTRA.VDW>
5.52507

>  <SCORE.INTRA.VDW.0>
-1.75368

>  <SCORE.INTRA.norm>
0.116596

>  <SCORE.RESTR>
0.745152

>  <SCORE.RESTR.CAVITY>
0.745152

>  <SCORE.RESTR.norm>
0.0275982

>  <SCORE.SYSTEM>
0

>  <SCORE.SYSTEM.CONST>
0

>  <SCORE.SYSTEM.DIHEDRAL>
0

>  <SCORE.SYSTEM.SOLV>
0

>  <SCORE.SYSTEM.norm>
0

>  <SCORE.heavy>
27

>  <SCORE.norm>
-0.0369956

>  <RMSD>
7.775

$$$$
ligand
 OpenBabel11021811463D
libRbt.so/2013.1/901 2013/11/27
 27 29  0  0  0  0  0  0  0  0999 V2000
   33.4363   23.3148   84.2818 N   0  0  0  0  0  0  0  0  0  0  0  0
   32.4939   23.4522   83.1576 C   0  0  2  0  0  0  0  0  0  0  0  0
   31.1842   22.7676   83.4890 C   0  0  0  0  0  0  0  0  0  0  0  0
   31.1820   21.6108   83.9220 O   0  0  0  0  0  0  0  0  0  0  0  0
   33.0952   22.7966   81.9187 C   0  0  0  0  0  0  0  0  0  0  0  0
   32.1831   22.9825   80.7250 C   0  0  0  0  0  0  0  0  0  0  0  0
   32.9576   22.1826   79.3088 S   0  0  2  0  0  0  0  0  0  0  0  0
   33.9595   23.5768   78.7223 C   0  0  0  0  0  0  0  0  0  0  0  0
   31.5868   22.2269   78.1044 C   0  0  0  0  0  0  0  0  0  0  0  0
   30.5421   21.1913   78.5114 C   0  0  1  0  0  0  0  0  0  0  0  0
   29.2932   21.6286   78.0287 O   0  0  0  0  0  0  0  0  0  0  0  0
   30.8039   19.8362   77.8454 C   0  0  1  0  0  0  0  0  0  0  0  0
   31.6469   18.8659   78.4857 O   0  0  0  0  0  0  0  0  0  0  0  0
   29.3701   19.3322   77.4732 C   0  0  1  0  0  0  0  0  0  0  0  0
   29.2458   17.9664   77.9054 O   0  0  0  0  0  0  0  0  0  0  0  0
   28.4444   20.4926   77.9842 C   0  0  2  0  0  0  0  0  0  0  0  0
   30.1357   23.3875   83.3934 O   0  0  0  0  0  0  0  0  0  0  0  0
   24.2946   18.6565   75.4323 N   0  0  0  0  0  0  0  0  0  0  0  0
   25.1572   17.9916   76.2092 C   0  0  0  0  0  0  0  0  0  0  0  0
   26.1897   18.6018   76.7842 N   0  0  0  0  0  0  0  0  0  0  0  0
   26.3968   19.9218   76.6266 C   0  0  0  0  0  0  0  0  0  0  0  0
   25.5011   20.6774   75.8235 C   0  0  0  0  0  0  0  0  0  0  0  0
   24.4151   19.9801   75.2161 C   0  0  0  0  0  0  0  0  0  0  0  0
   23.4953   20.6457   74.4276 N   0  0  0  0  0  0  0  0  0  0  0  0
   25.9316   21.9600   75.8404 N   0  0  0  0  0  0  0  0  0  0  0  0
   26.9991   22.0429   76.5803 C   0  0  0  0  0  0  0  0  0  0  0  0
   27.3271   20.8097   77.0881 N   0  0  0  0  0  0  0  0  0  0  0  0
  2  1  1  1  0  0  0
  2  3  1  0  0  0  0
  2  5  1  0  0  0  0
  3  4  1  0  0  0  0
  3 17  1  0  0  0  0
  5  6  1  0  0  0  0
  7  6  1  1  0  0  0
  7  8  1  0  0  0  0
  7  9  1  0  0  0  0
 10  9  1  6  0  0  0
 10 11  1  0  0  0  0
 10 12  1  0  0  0  0
 11 16  1  0  0  0  0
 12 13  1  1  0  0  0
 12 14  1  0  0  0  0
 14 15  1  1  0  0  0
 14 16  1  0  0  0  0
 16 27  1  6  0  0  0
 18 19  2  0  0  0  0
 18 23  1  0  0  0  0
 19 20  1  0  0  0  0
 20 21  2  0  0  0  0
 21 22  1  0  0  0  0
 21 27  1  0  0  0  0
 22 23  2  0  0  0  0
 22 25  1  0  0  0  0
 23 24  1  0  0  0  0
 25 26  2  0  0  0  0
 26 27  1  0  0  0  0
M  END
>  <CHROM.1>
-49.61869366,-177.06950809,-179.92560090,-88.20421007,-73.63675963,152.72298452
170.02054395,29.43944688,21.13714953,78.75103669,0.77218708,0.04641194,1.16713938

>  <Name>
ligand

>  <RI>
0

>  <Rbt.Current_Directory>
/home/itssahil/PROJECTS/Mol_Feturizer/New_Systems/rnas/2QWY

>  <Rbt.Executable>
rbdock ($Id: //depot/dev/client3/rdock/2013.1/src/exe/rbdock.cxx#4 $)

>  <Rbt.Library>
libRbt.so (2013.1, Build901 2013/11/27)

>  <Rbt.Parameter_File>
/export/apps/rDock/src/rDock_2013.1_src/data/scripts/dock_solv.prm

>  <Rbt.Receptor>
prm/pocket_docking_7.prm

>  <SCORE>
-23.02

>  <SCORE.INTER>
-20.075

>  <SCORE.INTER.CONST>
1

>  <SCORE.INTER.POLAR>
0

>  <SCORE.INTER.ROT>
7

>  <SCORE.INTER.SOLV>
10.0449

>  <SCORE.INTER.VDW>
-24.9983

>  <SCORE.INTER.norm>
-0.743519

>  <SCORE.INTRA>
-2.94499

>  <SCORE.INTRA.DIHEDRAL>
-4.16841

>  <SCORE.INTRA.DIHEDRAL.0>
10.7382

>  <SCORE.INTRA.POLAR>
0

>  <SCORE.INTRA.POLAR.0>
0

>  <SCORE.INTRA.REPUL>
0

>  <SCORE.INTRA.REPUL.0>
0

>  <SCORE.INTRA.SOLV>
-1.07751

>  <SCORE.INTRA.SOLV.lig_0>
-49.2501

>  <SCORE.INTRA.VDW>
-0.322034

>  <SCORE.INTRA.VDW.0>
-1.75368

>  <SCORE.INTRA.norm>
-0.109074

>  <SCORE.RESTR>
0

>  <SCORE.RESTR.CAVITY>
0

>  <SCORE.RESTR.norm>
0

>  <SCORE.SYSTEM>
0

>  <SCORE.SYSTEM.CONST>
0

>  <SCORE.SYSTEM.DIHEDRAL>
0

>  <SCORE.SYSTEM.SOLV>
0

>  <SCORE.SYSTEM.norm>
0

>  <SCORE.heavy>
27

>  <SCORE.norm>
-0.852593

>  <RMSD>
7.789

$$$$
ligand
 OpenBabel11021811463D
libRbt.so/2013.1/901 2013/11/27
 27 29  0  0  0  0  0  0  0  0999 V2000
   35.2935   23.4719   84.4044 N   0  0  0  0  0  0  0  0  0  0  0  0
   33.9211   23.0199   84.6922 C   0  0  2  0  0  0  0  0  0  0  0  0
   33.9525   21.7810   85.5630 C   0  0  0  0  0  0  0  0  0  0  0  0
   35.0200   21.3903   86.0461 O   0  0  0  0  0  0  0  0  0  0  0  0
   33.2200   22.6844   83.3799 C   0  0  0  0  0  0  0  0  0  0  0  0
   32.9168   23.9476   82.6028 C   0  0  0  0  0  0  0  0  0  0  0  0
   34.4229   24.4451   81.7488 S   0  0  2  0  0  0  0  0  0  0  0  0
   34.2745   26.2412   81.9581 C   0  0  0  0  0  0  0  0  0  0  0  0
   33.8992   24.2676   80.0093 C   0  0  0  0  0  0  0  0  0  0  0  0
   33.6354   22.7916   79.7243 C   0  0  1  0  0  0  0  0  0  0  0  0
   32.2418   22.6176   79.6156 O   0  0  0  0  0  0  0  0  0  0  0  0
   34.2230   22.3653   78.3747 C   0  0  1  0  0  0  0  0  0  0  0  0
   35.5718   21.8791   78.2938 O   0  0  0  0  0  0  0  0  0  0  0  0
   33.1323   21.4071   77.7908 C   0  0  1  0  0  0  0  0  0  0  0  0
   33.7848   20.2166   77.3171 O   0  0  0  0  0  0  0  0  0  0  0  0
   32.0285   21.4070   78.9072 C   0  0  2  0  0  0  0  0  0  0  0  0
   32.9087   21.2112   85.8432 O   0  0  0  0  0  0  0  0  0  0  0  0
   27.9421   18.5750   77.3628 N   0  0  0  0  0  0  0  0  0  0  0  0
   29.1380   18.1511   77.7869 C   0  0  0  0  0  0  0  0  0  0  0  0
   30.0969   19.0052   78.1334 N   0  0  0  0  0  0  0  0  0  0  0  0
   29.8955   20.3348   78.0935 C   0  0  0  0  0  0  0  0  0  0  0  0
   28.6377   20.8372   77.6649 C   0  0  0  0  0  0  0  0  0  0  0  0
   27.6428   19.8859   77.2910 C   0  0  0  0  0  0  0  0  0  0  0  0
   26.3907   20.2946   76.8714 N   0  0  0  0  0  0  0  0  0  0  0  0
   28.7028   22.1872   77.7265 N   0  0  0  0  0  0  0  0  0  0  0  0
   29.8805   22.5394   78.1542 C   0  0  0  0  0  0  0  0  0  0  0  0
   30.6543   21.4305   78.3944 N   0  0  0  0  0  0  0  0  0  0  0  0
  2  1  1  6  0  0  0
  2  3  1  0  0  0  0
  2  5  1  0  0  0  0
  3  4  1  0  0  0  0
  3 17  1  0  0  0  0
  5  6  1  0  0  0  0
  7  6  1  1  0  0  0
  7  8  1  0  0  0  0
  7  9  1  0  0  0  0
 10  9  1  6  0  0  0
 10 11  1  0  0  0  0
 10 12  1  0  0  0  0
 11 16  1  0  0  0  0
 12 13  1  1  0  0  0
 12 14  1  0  0  0  0
 14 15  1  1  0  0  0
 14 16  1  0  0  0  0
 16 27  1  6  0  0  0
 18 19  2  0  0  0  0
 18 23  1  0  0  0  0
 19 20  1  0  0  0  0
 20 21  2  0  0  0  0
 21 22  1  0  0  0  0
 21 27  1  0  0  0  0
 22 23  2  0  0  0  0
 22 25  1  0  0  0  0
 23 24  1  0  0  0  0
 25 26  2  0  0  0  0
 26 27  1  0  0  0  0
M  END
>  <CHROM.1>
8.16879589,-71.25240675,80.67604182,-141.56782483,-65.72169908,107.51350001
-155.03733147,32.19451324,21.95012342,80.28637110,0.74113679,0.61097680,1.67943139

>  <Name>
ligand

>  <RI>
0

>  <Rbt.Current_Directory>
/home/itssahil/PROJECTS/Mol_Feturizer/New_Systems/rnas/2QWY

>  <Rbt.Executable>
rbdock ($Id: //depot/dev/client3/rdock/2013.1/src/exe/rbdock.cxx#4 $)

>  <Rbt.Library>
libRbt.so (2013.1, Build901 2013/11/27)

>  <Rbt.Parameter_File>
/export/apps/rDock/src/rDock_2013.1_src/data/scripts/dock_solv.prm

>  <Rbt.Receptor>
prm/pocket_docking_8.prm

>  <SCORE>
-22.0342

>  <SCORE.INTER>
-23.621

>  <SCORE.INTER.CONST>
1

>  <SCORE.INTER.POLAR>
0

>  <SCORE.INTER.ROT>
7

>  <SCORE.INTER.SOLV>
9.49977

>  <SCORE.INTER.VDW>
-27.1806

>  <SCORE.INTER.norm>
-0.874852

>  <SCORE.INTRA>
1.58675

>  <SCORE.INTRA.DIHEDRAL>
3.00004

>  <SCORE.INTRA.DIHEDRAL.0>
10.7382

>  <SCORE.INTRA.POLAR>
0

>  <SCORE.INTRA.POLAR.0>
0

>  <SCORE.INTRA.REPUL>
0

>  <SCORE.INTRA.REPUL.0>
0

>  <SCORE.INTRA.SOLV>
1.37104

>  <SCORE.INTRA.SOLV.lig_0>
-49.2501

>  <SCORE.INTRA.VDW>
-0.598788

>  <SCORE.INTRA.VDW.0>
-1.75368

>  <SCORE.INTRA.norm>
0.0587686

>  <SCORE.RESTR>
0

>  <SCORE.RESTR.CAVITY>
0

>  <SCORE.RESTR.norm>
0

>  <SCORE.SYSTEM>
0

>  <SCORE.SYSTEM.CONST>
0

>  <SCORE.SYSTEM.DIHEDRAL>
0

>  <SCORE.SYSTEM.SOLV>
0

>  <SCORE.SYSTEM.norm>
0

>  <SCORE.heavy>
27

>  <SCORE.norm>
-0.816083

>  <RMSD>
7.791

$$$$
ligand
 OpenBabel11021811463D
libRbt.so/2013.1/901 2013/11/27
 27 29  0  0  0  0  0  0  0  0999 V2000
   40.2856   13.8266   70.4154 N   0  0  0  0  0  0  0  0  0  0  0  0
   39.1122   14.6020   69.9766 C   0  0  2  0  0  0  0  0  0  0  0  0
   39.3856   15.2453   68.6329 C   0  0  0  0  0  0  0  0  0  0  0  0
   40.5387   15.2950   68.1930 O   0  0  0  0  0  0  0  0  0  0  0  0
   38.8253   15.6962   70.9997 C   0  0  0  0  0  0  0  0  0  0  0  0
   38.4005   15.0895   72.3198 C   0  0  0  0  0  0  0  0  0  0  0  0
   37.9559   16.4375   73.4291 S   0  0  2  0  0  0  0  0  0  0  0  0
   37.5732   15.4588   74.9080 C   0  0  0  0  0  0  0  0  0  0  0  0
   36.2722   16.8204   72.8376 C   0  0  0  0  0  0  0  0  0  0  0  0
   36.1874   18.3131   72.5306 C   0  0  1  0  0  0  0  0  0  0  0  0
   36.5214   19.0130   73.7065 O   0  0  0  0  0  0  0  0  0  0  0  0
   37.2215   18.7310   71.4796 C   0  0  1  0  0  0  0  0  0  0  0  0
   36.8934   18.6829   70.0824 O   0  0  0  0  0  0  0  0  0  0  0  0
   37.7260   20.1182   71.9990 C   0  0  1  0  0  0  0  0  0  0  0  0
   37.7135   21.0435   70.8985 O   0  0  0  0  0  0  0  0  0  0  0  0
   36.8977   20.3242   73.3166 C   0  0  2  0  0  0  0  0  0  0  0  0
   38.4536   15.6509   67.9550 O   0  0  0  0  0  0  0  0  0  0  0  0
   36.9696   23.8982   77.1015 N   0  0  0  0  0  0  0  0  0  0  0  0
   36.0092   23.6548   76.2025 C   0  0  0  0  0  0  0  0  0  0  0  0
   36.1456   22.7102   75.2762 N   0  0  0  0  0  0  0  0  0  0  0  0
   37.2489   21.9423   75.2192 C   0  0  0  0  0  0  0  0  0  0  0  0
   38.2924   22.1496   76.1606 C   0  0  0  0  0  0  0  0  0  0  0  0
   38.1092   23.1814   77.1282 C   0  0  0  0  0  0  0  0  0  0  0  0
   39.0745   23.4393   78.0835 N   0  0  0  0  0  0  0  0  0  0  0  0
   39.2654   21.2505   75.8854 N   0  0  0  0  0  0  0  0  0  0  0  0
   38.9006   20.5233   74.8696 C   0  0  0  0  0  0  0  0  0  0  0  0
   37.6620   20.9125   74.4219 N   0  0  0  0  0  0  0  0  0  0  0  0
  2  1  1  1  0  0  0
  2  3  1  0  0  0  0
  2  5  1  0  0  0  0
  3  4  1  0  0  0  0
  3 17  1  0  0  0  0
  5  6  1  0  0  0  0
  7  6  1  6  0  0  0
  7  8  1  0  0  0  0
  7  9  1  0  0  0  0
 10  9  1  1  0  0  0
 10 11  1  0  0  0  0
 10 12  1  0  0  0  0
 11 16  1  0  0  0  0
 12 13  1  6  0  0  0
 12 14  1  0  0  0  0
 14 15  1  6  0  0  0
 14 16  1  0  0  0  0
 16 27  1  1  0  0  0
 18 19  2  0  0  0  0
 18 23  1  0  0  0  0
 19 20  1  0  0  0  0
 20 21  2  0  0  0  0
 21 22  1  0  0  0  0
 21 27  1  0  0  0  0
 22 23  2  0  0  0  0
 22 25  1  0  0  0  0
 23 24  1  0  0  0  0
 25 26  2  0  0  0  0
 26 27  1  0  0  0  0
M  END
>  <CHROM.1>
-13.81848301,-65.86560458,-175.59692392,-177.61085347,-127.16597843,-57.61273730
-111.19207003,37.92029101,18.82326479,73.02328980,-0.88432500,-1.34696832
1.37800389

>  <Name>
ligand

>  <RI>
0

>  <Rbt.Current_Directory>
/home/itssahil/PROJECTS/Mol_Feturizer/New_Systems/rnas/2QWY

>  <Rbt.Executable>
rbdock ($Id: //depot/dev/client3/rdock/2013.1/src/exe/rbdock.cxx#4 $)

>  <Rbt.Library>
libRbt.so (2013.1, Build901 2013/11/27)

>  <Rbt.Parameter_File>
/export/apps/rDock/src/rDock_2013.1_src/data/scripts/dock_solv.prm

>  <Rbt.Receptor>
prm/pocket_docking_8.prm

>  <SCORE>
-14.4282

>  <SCORE.INTER>
-11.9638

>  <SCORE.INTER.CONST>
1

>  <SCORE.INTER.POLAR>
0

>  <SCORE.INTER.ROT>
7

>  <SCORE.INTER.SOLV>
7.32547

>  <SCORE.INTER.VDW>
-18.6843

>  <SCORE.INTER.norm>
-0.443102

>  <SCORE.INTRA>
-2.46446

>  <SCORE.INTRA.DIHEDRAL>
-2.64231

>  <SCORE.INTRA.DIHEDRAL.0>
10.7382

>  <SCORE.INTRA.POLAR>
0

>  <SCORE.INTRA.POLAR.0>
0

>  <SCORE.INTRA.REPUL>
0

>  <SCORE.INTRA.REPUL.0>
0

>  <SCORE.INTRA.SOLV>
-0.179937

>  <SCORE.INTRA.SOLV.lig_0>
-49.2501

>  <SCORE.INTRA.VDW>
-1.05334

>  <SCORE.INTRA.VDW.0>
-1.75368

>  <SCORE.INTRA.norm>
-0.0912762

>  <SCORE.RESTR>
0

>  <SCORE.RESTR.CAVITY>
0

>  <SCORE.RESTR.norm>
0

>  <SCORE.SYSTEM>
0

>  <SCORE.SYSTEM.CONST>
0

>  <SCORE.SYSTEM.DIHEDRAL>
0

>  <SCORE.SYSTEM.SOLV>
0

>  <SCORE.SYSTEM.norm>
0

>  <SCORE.heavy>
27

>  <SCORE.norm>
-0.534379

>  <RMSD>
7.895

$$$$
ligand
 OpenBabel11021811463D
libRbt.so/2013.1/901 2013/11/27
 27 29  0  0  0  0  0  0  0  0999 V2000
   29.7308   22.3367   85.6670 N   0  0  0  0  0  0  0  0  0  0  0  0
   30.8962   22.8285   84.9115 C   0  0  2  0  0  0  0  0  0  0  0  0
   30.4675   23.9024   83.9333 C   0  0  0  0  0  0  0  0  0  0  0  0
   29.4126   23.7803   83.3023 O   0  0  0  0  0  0  0  0  0  0  0  0
   31.5133   21.6699   84.1349 C   0  0  0  0  0  0  0  0  0  0  0  0
   32.9356   21.9982   83.7341 C   0  0  0  0  0  0  0  0  0  0  0  0
   33.5171   20.6894   82.6413 S   0  0  2  0  0  0  0  0  0  0  0  0
   35.3022   20.9039   82.8846 C   0  0  0  0  0  0  0  0  0  0  0  0
   33.3039   21.4884   81.0141 C   0  0  0  0  0  0  0  0  0  0  0  0
   33.3968   20.4209   79.9272 C   0  0  1  0  0  0  0  0  0  0  0  0
   32.1143   19.8620   79.7635 O   0  0  0  0  0  0  0  0  0  0  0  0
   33.7709   21.0295   78.5714 C   0  0  1  0  0  0  0  0  0  0  0  0
   35.1502   21.1701   78.1971 O   0  0  0  0  0  0  0  0  0  0  0  0
   32.8829   20.2328   77.5590 C   0  0  1  0  0  0  0  0  0  0  0  0
   33.7160   19.8047   76.4680 O   0  0  0  0  0  0  0  0  0  0  0  0
   32.0904   19.2446   78.4863 C   0  0  2  0  0  0  0  0  0  0  0  0
   31.1323   24.9215   83.8231 O   0  0  0  0  0  0  0  0  0  0  0  0
   27.5812   21.5857   77.3501 N   0  0  0  0  0  0  0  0  0  0  0  0
   28.7478   22.1441   77.6923 C   0  0  0  0  0  0  0  0  0  0  0  0
   29.8174   21.4055   77.9739 N   0  0  0  0  0  0  0  0  0  0  0  0
   29.7768   20.0625   77.9036 C   0  0  0  0  0  0  0  0  0  0  0  0
   28.5661   19.4200   77.5301 C   0  0  0  0  0  0  0  0  0  0  0  0
   27.4409   20.2503   77.2490 C   0  0  0  0  0  0  0  0  0  0  0  0
   26.2298   19.7018   76.8705 N   0  0  0  0  0  0  0  0  0  0  0  0
   28.8020   18.0877   77.5317 N   0  0  0  0  0  0  0  0  0  0  0  0
   30.0408   17.8733   77.8685 C   0  0  0  0  0  0  0  0  0  0  0  0
   30.6845   19.0623   78.1091 N   0  0  0  0  0  0  0  0  0  0  0  0
  2  1  1  6  0  0  0
  2  3  1  0  0  0  0
  2  5  1  0  0  0  0
  3  4  1  0  0  0  0
  3 17  1  0  0  0  0
  5  6  1  0  0  0  0
  7  6  1  1  0  0  0
  7  8  1  0  0  0  0
  7  9  1  0  0  0  0
 10  9  1  1  0  0  0
 10 11  1  0  0  0  0
 10 12  1  0  0  0  0
 11 16  1  0  0  0  0
 12 13  1  6  0  0  0
 12 14  1  0  0  0  0
 14 15  1  6  0  0  0
 14 16  1  0  0  0  0
 16 27  1  6  0  0  0
 18 19  2  0  0  0  0
 18 23  1  0  0  0  0
 19 20  1  0  0  0  0
 20 21  2  0  0  0  0
 21 22  1  0  0  0  0
 21 27  1  0  0  0  0
 22 23  2  0  0  0  0
 22 25  1  0  0  0  0
 23 24  1  0  0  0  0
 25 26  2  0  0  0  0
 26 27  1  0  0  0  0
M  END
>  <CHROM.1>
-40.35100382,-160.97589260,-172.52814989,-157.35352931,-165.34528094,86.07353739
63.23388135,31.26947174,20.98351921,80.21889138,1.23888344,-0.14997305,1.12069670

>  <Name>
ligand

>  <RI>
0

>  <Rbt.Current_Directory>
/home/itssahil/PROJECTS/Mol_Feturizer/New_Systems/rnas/2QWY

>  <Rbt.Executable>
rbdock ($Id: //depot/dev/client3/rdock/2013.1/src/exe/rbdock.cxx#4 $)

>  <Rbt.Library>
libRbt.so (2013.1, Build901 2013/11/27)

>  <Rbt.Parameter_File>
/export/apps/rDock/src/rDock_2013.1_src/data/scripts/dock_solv.prm

>  <Rbt.Receptor>
prm/pocket_docking_7.prm

>  <SCORE>
-28.8809

>  <SCORE.INTER>
-26.9887

>  <SCORE.INTER.CONST>
1

>  <SCORE.INTER.POLAR>
0

>  <SCORE.INTER.ROT>
7

>  <SCORE.INTER.SOLV>
16.4132

>  <SCORE.INTER.VDW>
-31.7302

>  <SCORE.INTER.norm>
-0.999583

>  <SCORE.INTRA>
-1.89219

>  <SCORE.INTRA.DIHEDRAL>
0.0276285

>  <SCORE.INTRA.DIHEDRAL.0>
10.7382

>  <SCORE.INTRA.POLAR>
0

>  <SCORE.INTRA.POLAR.0>
0

>  <SCORE.INTRA.REPUL>
0

>  <SCORE.INTRA.REPUL.0>
0

>  <SCORE.INTRA.SOLV>
-1.2423

>  <SCORE.INTRA.SOLV.lig_0>
-49.2501

>  <SCORE.INTRA.VDW>
-1.28486

>  <SCORE.INTRA.VDW.0>
-1.75368

>  <SCORE.INTRA.norm>
-0.0700813

>  <SCORE.RESTR>
0

>  <SCORE.RESTR.CAVITY>
0

>  <SCORE.RESTR.norm>
0

>  <SCORE.SYSTEM>
0

>  <SCORE.SYSTEM.CONST>
0

>  <SCORE.SYSTEM.DIHEDRAL>
0

>  <SCORE.SYSTEM.SOLV>
0

>  <SCORE.SYSTEM.norm>
0

>  <SCORE.heavy>
27

>  <SCORE.norm>
-1.06966

>  <RMSD>
7.899

$$$$
ligand
 OpenBabel11021811463D
libRbt.so/2013.1/901 2013/11/27
 27 29  0  0  0  0  0  0  0  0999 V2000
   40.0271   15.4097   74.2992 N   0  0  0  0  0  0  0  0  0  0  0  0
   39.2576   15.4799   75.5536 C   0  0  2  0  0  0  0  0  0  0  0  0
   37.7938   15.2004   75.2831 C   0  0  0  0  0  0  0  0  0  0  0  0
   37.1046   14.6290   76.1341 O   0  0  0  0  0  0  0  0  0  0  0  0
   39.3929   16.8792   76.1451 C   0  0  0  0  0  0  0  0  0  0  0  0
   38.8561   16.9108   77.5601 C   0  0  0  0  0  0  0  0  0  0  0  0
   38.7240   18.6359   78.0619 S   0  0  2  0  0  0  0  0  0  0  0  0
   38.8205   18.4054   79.8589 C   0  0  0  0  0  0  0  0  0  0  0  0
   36.9313   18.9110   77.8567 C   0  0  0  0  0  0  0  0  0  0  0  0
   36.6897   19.5894   76.5109 C   0  0  1  0  0  0  0  0  0  0  0  0
   37.6526   19.1022   75.6055 O   0  0  0  0  0  0  0  0  0  0  0  0
   35.3256   19.2085   75.9256 C   0  0  1  0  0  0  0  0  0  0  0  0
   34.1603   19.9861   76.2408 O   0  0  0  0  0  0  0  0  0  0  0  0
   35.6211   19.0383   74.3985 C   0  0  1  0  0  0  0  0  0  0  0  0
   34.6152   19.7547   73.6619 O   0  0  0  0  0  0  0  0  0  0  0  0
   37.1567   19.3491   74.2993 C   0  0  2  0  0  0  0  0  0  0  0  0
   37.2808   15.6047   74.2506 O   0  0  0  0  0  0  0  0  0  0  0  0
   36.8131   16.0051   70.3240 N   0  0  0  0  0  0  0  0  0  0  0  0
   35.8270   16.6432   70.9645 C   0  0  0  0  0  0  0  0  0  0  0  0
   36.0737   17.4609   71.9841 N   0  0  0  0  0  0  0  0  0  0  0  0
   37.3309   17.6987   72.4001 C   0  0  0  0  0  0  0  0  0  0  0  0
   38.4157   17.0578   71.7438 C   0  0  0  0  0  0  0  0  0  0  0  0
   38.1043   16.1798   70.6637 C   0  0  0  0  0  0  0  0  0  0  0  0
   39.1042   15.5254   69.9688 N   0  0  0  0  0  0  0  0  0  0  0  0
   39.5524   17.4731   72.3488 N   0  0  0  0  0  0  0  0  0  0  0  0
   39.2495   18.3042   73.3035 C   0  0  0  0  0  0  0  0  0  0  0  0
   37.8888   18.4758   73.3756 N   0  0  0  0  0  0  0  0  0  0  0  0
  2  1  1  6  0  0  0
  2  3  1  0  0  0  0
  2  5  1  0  0  0  0
  3  4  1  0  0  0  0
  3 17  1  0  0  0  0
  5  6  1  0  0  0  0
  7  6  1  6  0  0  0
  7  8  1  0  0  0  0
  7  9  1  0  0  0  0
 10  9  1  1  0  0  0
 10 11  1  0  0  0  0
 10 12  1  0  0  0  0
 11 16  1  0  0  0  0
 12 13  1  6  0  0  0
 12 14  1  0  0  0  0
 14 15  1  6  0  0  0
 14 16  1  0  0  0  0
 16 27  1  6  0  0  0
 18 19  2  0  0  0  0
 18 23  1  0  0  0  0
 19 20  1  0  0  0  0
 20 21  2  0  0  0  0
 21 22  1  0  0  0  0
 21 27  1  0  0  0  0
 22 23  2  0  0  0  0
 22 25  1  0  0  0  0
 23 24  1  0  0  0  0
 25 26  2  0  0  0  0
 26 27  1  0  0  0  0
M  END
>  <CHROM.1>
147.28365856,-168.55214768,-168.20193811,-155.78685983,-98.16115664,33.81566764
132.70416488,37.57156894,17.58492916,74.65095573,-1.56517750,-0.71914654
1.26807687

>  <Name>
ligand

>  <RI>
0

>  <Rbt.Current_Directory>
/home/itssahil/PROJECTS/Mol_Feturizer/New_Systems/rnas/2QWY

>  <Rbt.Executable>
rbdock ($Id: //depot/dev/client3/rdock/2013.1/src/exe/rbdock.cxx#4 $)

>  <Rbt.Library>
libRbt.so (2013.1, Build901 2013/11/27)

>  <Rbt.Parameter_File>
/export/apps/rDock/src/rDock_2013.1_src/data/scripts/dock_solv.prm

>  <Rbt.Receptor>
prm/pocket_docking_7.prm

>  <SCORE>
-9.47695

>  <SCORE.INTER>
-7.12245

>  <SCORE.INTER.CONST>
1

>  <SCORE.INTER.POLAR>
0

>  <SCORE.INTER.ROT>
7

>  <SCORE.INTER.SOLV>
10.1138

>  <SCORE.INTER.VDW>
-16.3862

>  <SCORE.INTER.norm>
-0.263794

>  <SCORE.INTRA>
-2.3545

>  <SCORE.INTRA.DIHEDRAL>
-0.162212

>  <SCORE.INTRA.DIHEDRAL.0>
10.7382

>  <SCORE.INTRA.POLAR>
0

>  <SCORE.INTRA.POLAR.0>
0

>  <SCORE.INTRA.REPUL>
0

>  <SCORE.INTRA.REPUL.0>
0

>  <SCORE.INTRA.SOLV>
0.788299

>  <SCORE.INTRA.SOLV.lig_0>
-49.2501

>  <SCORE.INTRA.VDW>
-2.66754

>  <SCORE.INTRA.VDW.0>
-1.75368

>  <SCORE.INTRA.norm>
-0.0872035

>  <SCORE.RESTR>
0

>  <SCORE.RESTR.CAVITY>
0

>  <SCORE.RESTR.norm>
0

>  <SCORE.SYSTEM>
0

>  <SCORE.SYSTEM.CONST>
0

>  <SCORE.SYSTEM.DIHEDRAL>
0

>  <SCORE.SYSTEM.SOLV>
0

>  <SCORE.SYSTEM.norm>
0

>  <SCORE.heavy>
27

>  <SCORE.norm>
-0.350998

>  <RMSD>
7.908

$$$$
ligand
 OpenBabel11021811463D
libRbt.so/2013.1/901 2013/11/27
 27 29  0  0  0  0  0  0  0  0999 V2000
   26.7235   19.8857   77.2817 N   0  0  0  0  0  0  0  0  0  0  0  0
   27.9075   20.5157   77.8916 C   0  0  2  0  0  0  0  0  0  0  0  0
   28.0021   21.9666   77.4676 C   0  0  0  0  0  0  0  0  0  0  0  0
   28.8539   22.7053   77.9723 O   0  0  0  0  0  0  0  0  0  0  0  0
   29.1603   19.7814   77.4251 C   0  0  0  0  0  0  0  0  0  0  0  0
   30.3696   20.2459   78.2081 C   0  0  0  0  0  0  0  0  0  0  0  0
   31.7575   19.1890   77.7585 S   0  0  2  0  0  0  0  0  0  0  0  0
   31.0918   17.6037   78.3375 C   0  0  0  0  0  0  0  0  0  0  0  0
   32.9254   19.5731   79.1077 C   0  0  0  0  0  0  0  0  0  0  0  0
   34.2108   20.1289   78.5008 C   0  0  1  0  0  0  0  0  0  0  0  0
   34.8223   19.0932   77.7676 O   0  0  0  0  0  0  0  0  0  0  0  0
   33.9201   21.2472   77.4942 C   0  0  1  0  0  0  0  0  0  0  0  0
   33.8365   22.6121   77.9329 O   0  0  0  0  0  0  0  0  0  0  0  0
   34.9480   20.9775   76.3457 C   0  0  1  0  0  0  0  0  0  0  0  0
   35.5947   22.2193   76.0183 O   0  0  0  0  0  0  0  0  0  0  0  0
   35.7161   19.7050   76.8511 C   0  0  2  0  0  0  0  0  0  0  0  0
   27.2806   22.3849   76.5747 O   0  0  0  0  0  0  0  0  0  0  0  0
   36.2424   18.8727   71.7390 N   0  0  0  0  0  0  0  0  0  0  0  0
   35.9183   20.0068   72.3702 C   0  0  0  0  0  0  0  0  0  0  0  0
   35.8035   20.0585   73.6943 N   0  0  0  0  0  0  0  0  0  0  0  0
   36.0320   18.9746   74.4578 C   0  0  0  0  0  0  0  0  0  0  0  0
   36.3942   17.7487   73.8381 C   0  0  0  0  0  0  0  0  0  0  0  0
   36.4935   17.7357   72.4152 C   0  0  0  0  0  0  0  0  0  0  0  0
   36.8492   16.5842   71.7381 N   0  0  0  0  0  0  0  0  0  0  0  0
   36.5697   16.8377   74.8230 N   0  0  0  0  0  0  0  0  0  0  0  0
   36.3490   17.4044   75.9737 C   0  0  0  0  0  0  0  0  0  0  0  0
   36.0128   18.7247   75.8009 N   0  0  0  0  0  0  0  0  0  0  0  0
  2  1  1  6  0  0  0
  2  3  1  0  0  0  0
  2  5  1  0  0  0  0
  3  4  1  0  0  0  0
  3 17  1  0  0  0  0
  5  6  1  0  0  0  0
  7  6  1  1  0  0  0
  7  8  1  0  0  0  0
  7  9  1  0  0  0  0
 10  9  1  6  0  0  0
 10 11  1  0  0  0  0
 10 12  1  0  0  0  0
 11 16  1  0  0  0  0
 12 13  1  1  0  0  0
 12 14  1  0  0  0  0
 14 15  1  1  0  0  0
 14 16  1  0  0  0  0
 16 27  1  6  0  0  0
 18 19  2  0  0  0  0
 18 23  1  0  0  0  0
 19 20  1  0  0  0  0
 20 21  2  0  0  0  0
 21 22  1  0  0  0  0
 21 27  1  0  0  0  0
 22 23  2  0  0  0  0
 22 25  1  0  0  0  0
 23 24  1  0  0  0  0
 25 26  2  0  0  0  0
 26 27  1  0  0  0  0
M  END
>  <CHROM.1>
173.09550640,-170.41877331,172.64522549,-61.96778363,-120.68904285,-66.49274973
134.92726474,33.16734898,19.76822308,76.28617805,2.59310436,-0.06809407,1.11797385

>  <Name>
ligand

>  <RI>
0

>  <Rbt.Current_Directory>
/home/itssahil/PROJECTS/Mol_Feturizer/New_Systems/rnas/2QWY

>  <Rbt.Executable>
rbdock ($Id: //depot/dev/client3/rdock/2013.1/src/exe/rbdock.cxx#4 $)

>  <Rbt.Library>
libRbt.so (2013.1, Build901 2013/11/27)

>  <Rbt.Parameter_File>
/export/apps/rDock/src/rDock_2013.1_src/data/scripts/dock_solv.prm

>  <Rbt.Receptor>
prm/pocket_docking_2.prm

>  <SCORE>
-15.6311

>  <SCORE.INTER>
-17.8184

>  <SCORE.INTER.CONST>
1

>  <SCORE.INTER.POLAR>
0

>  <SCORE.INTER.ROT>
7

>  <SCORE.INTER.SOLV>
14.0095

>  <SCORE.INTER.VDW>
-24.8155

>  <SCORE.INTER.norm>
-0.659941

>  <SCORE.INTRA>
-0.431691

>  <SCORE.INTRA.DIHEDRAL>
-2.78248

>  <SCORE.INTRA.DIHEDRAL.0>
10.7382

>  <SCORE.INTRA.POLAR>
0

>  <SCORE.INTRA.POLAR.0>
0

>  <SCORE.INTRA.REPUL>
0

>  <SCORE.INTRA.REPUL.0>
0

>  <SCORE.INTRA.SOLV>
-0.830569

>  <SCORE.INTRA.SOLV.lig_0>
-49.2501

>  <SCORE.INTRA.VDW>
1.37483

>  <SCORE.INTRA.VDW.0>
-1.75368

>  <SCORE.INTRA.norm>
-0.0159886

>  <SCORE.RESTR>
2.61905

>  <SCORE.RESTR.CAVITY>
2.61905

>  <SCORE.RESTR.norm>
0.0970017

>  <SCORE.SYSTEM>
0

>  <SCORE.SYSTEM.CONST>
0

>  <SCORE.SYSTEM.DIHEDRAL>
0

>  <SCORE.SYSTEM.SOLV>
0

>  <SCORE.SYSTEM.norm>
0

>  <SCORE.heavy>
27

>  <SCORE.norm>
-0.578928

>  <RMSD>
7.957

$$$$
ligand
 OpenBabel11021811463D
libRbt.so/2013.1/901 2013/11/27
 27 29  0  0  0  0  0  0  0  0999 V2000
   31.4553   22.9692   85.6328 N   0  0  0  0  0  0  0  0  0  0  0  0
   31.2351   23.4339   84.2521 C   0  0  2  0  0  0  0  0  0  0  0  0
   29.7532   23.4581   83.9406 C   0  0  0  0  0  0  0  0  0  0  0  0
   29.1911   24.5280   83.6855 O   0  0  0  0  0  0  0  0  0  0  0  0
   31.9280   22.4778   83.2867 C   0  0  0  0  0  0  0  0  0  0  0  0
   33.4263   22.5014   83.5010 C   0  0  0  0  0  0  0  0  0  0  0  0
   34.1332   21.1034   82.6115 S   0  0  2  0  0  0  0  0  0  0  0  0
   35.8494   21.2587   83.1788 C   0  0  0  0  0  0  0  0  0  0  0  0
   34.2719   21.8065   80.9327 C   0  0  0  0  0  0  0  0  0  0  0  0
   33.7837   20.7697   79.9245 C   0  0  1  0  0  0  0  0  0  0  0  0
   32.3894   20.9212   79.7939 O   0  0  0  0  0  0  0  0  0  0  0  0
   34.3704   21.0201   78.5311 C   0  0  1  0  0  0  0  0  0  0  0  0
   35.6221   20.4250   78.1552 O   0  0  0  0  0  0  0  0  0  0  0  0
   33.1719   20.7143   77.5728 C   0  0  1  0  0  0  0  0  0  0  0  0
   33.6441   19.8571   76.5193 O   0  0  0  0  0  0  0  0  0  0  0  0
   32.0199   20.3191   78.5635 C   0  0  2  0  0  0  0  0  0  0  0  0
   29.1313   22.4086   83.8732 O   0  0  0  0  0  0  0  0  0  0  0  0
   27.1368   19.1549   77.1834 N   0  0  0  0  0  0  0  0  0  0  0  0
   28.1496   18.3220   77.4484 C   0  0  0  0  0  0  0  0  0  0  0  0
   29.3572   18.7751   77.7733 N   0  0  0  0  0  0  0  0  0  0  0  0
   29.6049   20.0938   77.8717 C   0  0  0  0  0  0  0  0  0  0  0  0
   28.5595   21.0210   77.6152 C   0  0  0  0  0  0  0  0  0  0  0  0
   27.2842   20.4913   77.2581 C   0  0  0  0  0  0  0  0  0  0  0  0
   26.2138   21.3276   77.0017 N   0  0  0  0  0  0  0  0  0  0  0  0
   29.0715   22.2612   77.7897 N   0  0  0  0  0  0  0  0  0  0  0  0
   30.3241   22.1627   78.1290 C   0  0  0  0  0  0  0  0  0  0  0  0
   30.7011   20.8436   78.1925 N   0  0  0  0  0  0  0  0  0  0  0  0
  2  1  1  1  0  0  0
  2  3  1  0  0  0  0
  2  5  1  0  0  0  0
  3  4  1  0  0  0  0
  3 17  1  0  0  0  0
  5  6  1  0  0  0  0
  7  6  1  1  0  0  0
  7  8  1  0  0  0  0
  7  9  1  0  0  0  0
 10  9  1  1  0  0  0
 10 11  1  0  0  0  0
 10 12  1  0  0  0  0
 11 16  1  0  0  0  0
 12 13  1  6  0  0  0
 12 14  1  0  0  0  0
 14 15  1  6  0  0  0
 14 16  1  0  0  0  0
 16 27  1  6  0  0  0
 18 19  2  0  0  0  0
 18 23  1  0  0  0  0
 19 20  1  0  0  0  0
 20 21  2  0  0  0  0
 21 22  1  0  0  0  0
 21 27  1  0  0  0  0
 22 23  2  0  0  0  0
 22 25  1  0  0  0  0
 23 24  1  0  0  0  0
 25 26  2  0  0  0  0
 26 27  1  0  0  0  0
M  END
>  <CHROM.1>
116.48045100,-63.82514576,167.34721805,-173.96711663,-135.90278913,87.04057155
-127.33391849,31.39366248,21.28723283,80.19020406,1.03088187,-0.11513762
1.16221426

>  <Name>
ligand

>  <RI>
0

>  <Rbt.Current_Directory>
/home/itssahil/PROJECTS/Mol_Feturizer/New_Systems/rnas/2QWY

>  <Rbt.Executable>
rbdock ($Id: //depot/dev/client3/rdock/2013.1/src/exe/rbdock.cxx#4 $)

>  <Rbt.Library>
libRbt.so (2013.1, Build901 2013/11/27)

>  <Rbt.Parameter_File>
/export/apps/rDock/src/rDock_2013.1_src/data/scripts/dock_solv.prm

>  <Rbt.Receptor>
prm/pocket_docking_7.prm

>  <SCORE>
-26.6813

>  <SCORE.INTER>
-25.9418

>  <SCORE.INTER.CONST>
1

>  <SCORE.INTER.POLAR>
0

>  <SCORE.INTER.ROT>
7

>  <SCORE.INTER.SOLV>
10.475

>  <SCORE.INTER.VDW>
-29.0529

>  <SCORE.INTER.norm>
-0.960808

>  <SCORE.INTRA>
-0.73953

>  <SCORE.INTRA.DIHEDRAL>
0.119014

>  <SCORE.INTRA.DIHEDRAL.0>
10.7382

>  <SCORE.INTRA.POLAR>
0

>  <SCORE.INTRA.POLAR.0>
0

>  <SCORE.INTRA.REPUL>
0

>  <SCORE.INTRA.REPUL.0>
0

>  <SCORE.INTRA.SOLV>
-0.495787

>  <SCORE.INTRA.SOLV.lig_0>
-49.2501

>  <SCORE.INTRA.VDW>
-0.551144

>  <SCORE.INTRA.VDW.0>
-1.75368

>  <SCORE.INTRA.norm>
-0.02739

>  <SCORE.RESTR>
0

>  <SCORE.RESTR.CAVITY>
0

>  <SCORE.RESTR.norm>
0

>  <SCORE.SYSTEM>
0

>  <SCORE.SYSTEM.CONST>
0

>  <SCORE.SYSTEM.DIHEDRAL>
0

>  <SCORE.SYSTEM.SOLV>
0

>  <SCORE.SYSTEM.norm>
0

>  <SCORE.heavy>
27

>  <SCORE.norm>
-0.988198

>  <RMSD>
7.959

$$$$
ligand
 OpenBabel11021811463D
libRbt.so/2013.1/901 2013/11/27
 27 29  0  0  0  0  0  0  0  0999 V2000
   34.8606   12.1390   68.5475 N   0  0  0  0  0  0  0  0  0  0  0  0
   34.5486   13.4202   69.2046 C   0  0  2  0  0  0  0  0  0  0  0  0
   33.5201   14.1835   68.3961 C   0  0  0  0  0  0  0  0  0  0  0  0
   32.7011   14.9121   68.9653 O   0  0  0  0  0  0  0  0  0  0  0  0
   35.8212   14.2554   69.3008 C   0  0  0  0  0  0  0  0  0  0  0  0
   35.6477   15.3720   70.3080 C   0  0  0  0  0  0  0  0  0  0  0  0
   36.6450   14.9712   71.7537 S   0  0  2  0  0  0  0  0  0  0  0  0
   35.6407   13.6096   72.4087 C   0  0  0  0  0  0  0  0  0  0  0  0
   36.1579   16.3188   72.8842 C   0  0  0  0  0  0  0  0  0  0  0  0
   36.9762   17.5623   72.5470 C   0  0  1  0  0  0  0  0  0  0  0  0
   36.3213   18.6737   73.1127 O   0  0  0  0  0  0  0  0  0  0  0  0
   38.3652   17.5140   73.1925 C   0  0  1  0  0  0  0  0  0  0  0  0
   39.4663   16.9100   72.4962 O   0  0  0  0  0  0  0  0  0  0  0  0
   38.5995   18.9890   73.6594 C   0  0  1  0  0  0  0  0  0  0  0  0
   39.9125   19.3932   73.2350 O   0  0  0  0  0  0  0  0  0  0  0  0
   37.2807   19.7142   73.2128 C   0  0  2  0  0  0  0  0  0  0  0  0
   33.5487   14.1311   67.1758 O   0  0  0  0  0  0  0  0  0  0  0  0
   38.5104   23.3019   76.7794 N   0  0  0  0  0  0  0  0  0  0  0  0
   39.3298   22.5375   76.0485 C   0  0  0  0  0  0  0  0  0  0  0  0
   38.8605   21.6438   75.1823 N   0  0  0  0  0  0  0  0  0  0  0  0
   37.5384   21.4873   74.9879 C   0  0  0  0  0  0  0  0  0  0  0  0
   36.6253   22.2852   75.7279 C   0  0  0  0  0  0  0  0  0  0  0  0
   37.1721   23.2217   76.6545 C   0  0  0  0  0  0  0  0  0  0  0  0
   36.3501   24.0407   77.4058 N   0  0  0  0  0  0  0  0  0  0  0  0
   35.3782   21.9339   75.3380 N   0  0  0  0  0  0  0  0  0  0  0  0
   35.4599   21.0028   74.4324 C   0  0  0  0  0  0  0  0  0  0  0  0
   36.7739   20.6918   74.1820 N   0  0  0  0  0  0  0  0  0  0  0  0
  2  1  1  6  0  0  0
  2  3  1  0  0  0  0
  2  5  1  0  0  0  0
  3  4  1  0  0  0  0
  3 17  1  0  0  0  0
  5  6  1  0  0  0  0
  7  6  1  6  0  0  0
  7  8  1  0  0  0  0
  7  9  1  0  0  0  0
 10  9  1  1  0  0  0
 10 11  1  0  0  0  0
 10 12  1  0  0  0  0
 11 16  1  0  0  0  0
 12 13  1  6  0  0  0
 12 14  1  0  0  0  0
 14 15  1  6  0  0  0
 14 16  1  0  0  0  0
 16 27  1  1  0  0  0
 18 19  2  0  0  0  0
 18 23  1  0  0  0  0
 19 20  1  0  0  0  0
 20 21  2  0  0  0  0
 21 22  1  0  0  0  0
 21 27  1  0  0  0  0
 22 23  2  0  0  0  0
 22 25  1  0  0  0  0
 23 24  1  0  0  0  0
 25 26  2  0  0  0  0
 26 27  1  0  0  0  0
M  END
>  <CHROM.1>
147.67028740,-163.32731167,108.52937847,-71.66892355,-82.50685604,161.93647701
150.09006255,36.58009672,18.03382767,72.71670286,-1.85077271,-0.28270355
0.57883790

>  <Name>
ligand

>  <RI>
0

>  <Rbt.Current_Directory>
/home/itssahil/PROJECTS/Mol_Feturizer/New_Systems/rnas/2QWY

>  <Rbt.Executable>
rbdock ($Id: //depot/dev/client3/rdock/2013.1/src/exe/rbdock.cxx#4 $)

>  <Rbt.Library>
libRbt.so (2013.1, Build901 2013/11/27)

>  <Rbt.Parameter_File>
/export/apps/rDock/src/rDock_2013.1_src/data/scripts/dock_solv.prm

>  <Rbt.Receptor>
prm/pocket_docking_7.prm

>  <SCORE>
-14.4044

>  <SCORE.INTER>
-13.7192

>  <SCORE.INTER.CONST>
1

>  <SCORE.INTER.POLAR>
0

>  <SCORE.INTER.ROT>
7

>  <SCORE.INTER.SOLV>
8.84748

>  <SCORE.INTER.VDW>
-20.362

>  <SCORE.INTER.norm>
-0.50812

>  <SCORE.INTRA>
-0.685124

>  <SCORE.INTRA.DIHEDRAL>
-0.0689913

>  <SCORE.INTRA.DIHEDRAL.0>
10.7382

>  <SCORE.INTRA.POLAR>
0

>  <SCORE.INTRA.POLAR.0>
0

>  <SCORE.INTRA.REPUL>
0

>  <SCORE.INTRA.REPUL.0>
0

>  <SCORE.INTRA.SOLV>
-0.539791

>  <SCORE.INTRA.SOLV.lig_0>
-49.2501

>  <SCORE.INTRA.VDW>
-0.380733

>  <SCORE.INTRA.VDW.0>
-1.75368

>  <SCORE.INTRA.norm>
-0.025375

>  <SCORE.RESTR>
0

>  <SCORE.RESTR.CAVITY>
0

>  <SCORE.RESTR.norm>
0

>  <SCORE.SYSTEM>
0

>  <SCORE.SYSTEM.CONST>
0

>  <SCORE.SYSTEM.DIHEDRAL>
0

>  <SCORE.SYSTEM.SOLV>
0

>  <SCORE.SYSTEM.norm>
0

>  <SCORE.heavy>
27

>  <SCORE.norm>
-0.533495

>  <RMSD>
7.978

$$$$
ligand
 OpenBabel11021811463D
libRbt.so/2013.1/901 2013/11/27
 27 29  0  0  0  0  0  0  0  0999 V2000
   38.7124   18.5918   80.2099 N   0  0  0  0  0  0  0  0  0  0  0  0
   39.7178   19.4288   80.8878 C   0  0  2  0  0  0  0  0  0  0  0  0
   39.3357   19.6291   82.3396 C   0  0  0  0  0  0  0  0  0  0  0  0
   38.1895   19.9819   82.6355 O   0  0  0  0  0  0  0  0  0  0  0  0
   39.7808   20.7890   80.2007 C   0  0  0  0  0  0  0  0  0  0  0  0
   40.2780   20.6420   78.7785 C   0  0  0  0  0  0  0  0  0  0  0  0
   38.8862   20.1256   77.7579 S   0  0  2  0  0  0  0  0  0  0  0  0
   39.7597   19.9413   76.1785 C   0  0  0  0  0  0  0  0  0  0  0  0
   38.0501   21.7262   77.4919 C   0  0  0  0  0  0  0  0  0  0  0  0
   36.6937   21.4692   76.8411 C   0  0  1  0  0  0  0  0  0  0  0  0
   36.9171   20.7420   75.6556 O   0  0  0  0  0  0  0  0  0  0  0  0
   35.8059   20.5831   77.7216 C   0  0  1  0  0  0  0  0  0  0  0  0
   34.9395   21.1743   78.7025 O   0  0  0  0  0  0  0  0  0  0  0  0
   35.1015   19.6386   76.6921 C   0  0  1  0  0  0  0  0  0  0  0  0
   33.6948   19.6163   76.9894 O   0  0  0  0  0  0  0  0  0  0  0  0
   35.6911   20.1135   75.3167 C   0  0  2  0  0  0  0  0  0  0  0  0
   40.1436   19.3725   83.2194 O   0  0  0  0  0  0  0  0  0  0  0  0
   37.3744   15.2146   74.7961 N   0  0  0  0  0  0  0  0  0  0  0  0
   37.2360   15.9343   75.9153 C   0  0  0  0  0  0  0  0  0  0  0  0
   36.8067   17.1928   75.8853 N   0  0  0  0  0  0  0  0  0  0  0  0
   36.4708   17.7886   74.7267 C   0  0  0  0  0  0  0  0  0  0  0  0
   36.5849   17.0631   73.5106 C   0  0  0  0  0  0  0  0  0  0  0  0
   37.0612   15.7208   73.5883 C   0  0  0  0  0  0  0  0  0  0  0  0
   37.1919   14.9462   72.4509 N   0  0  0  0  0  0  0  0  0  0  0  0
   36.1815   17.8846   72.5141 N   0  0  0  0  0  0  0  0  0  0  0  0
   35.8343   19.0322   73.0203 C   0  0  0  0  0  0  0  0  0  0  0  0
   35.9957   19.0229   74.3841 N   0  0  0  0  0  0  0  0  0  0  0  0
  2  1  1  6  0  0  0
  2  3  1  0  0  0  0
  2  5  1  0  0  0  0
  3  4  1  0  0  0  0
  3 17  1  0  0  0  0
  5  6  1  0  0  0  0
  7  6  1  1  0  0  0
  7  8  1  0  0  0  0
  7  9  1  0  0  0  0
 10  9  1  1  0  0  0
 10 11  1  0  0  0  0
 10 12  1  0  0  0  0
 11 16  1  0  0  0  0
 12 13  1  6  0  0  0
 12 14  1  0  0  0  0
 14 15  1  6  0  0  0
 14 16  1  0  0  0  0
 16 27  1  6  0  0  0
 18 19  2  0  0  0  0
 18 23  1  0  0  0  0
 19 20  1  0  0  0  0
 20 21  2  0  0  0  0
 21 22  1  0  0  0  0
 21 27  1  0  0  0  0
 22 23  2  0  0  0  0
 22 25  1  0  0  0  0
 23 24  1  0  0  0  0
 25 26  2  0  0  0  0
 26 27  1  0  0  0  0
M  END
>  <CHROM.1>
-48.97201486,-64.71236156,80.98462241,-177.04316538,-170.19434720,-56.27483670
79.84112646,37.43004437,19.12738534,77.11357955,-1.08391522,0.77962334,-2.29409362

>  <Name>
ligand

>  <RI>
0

>  <Rbt.Current_Directory>
/home/itssahil/PROJECTS/Mol_Feturizer/New_Systems/rnas/2QWY

>  <Rbt.Executable>
rbdock ($Id: //depot/dev/client3/rdock/2013.1/src/exe/rbdock.cxx#4 $)

>  <Rbt.Library>
libRbt.so (2013.1, Build901 2013/11/27)

>  <Rbt.Parameter_File>
/export/apps/rDock/src/rDock_2013.1_src/data/scripts/dock_solv.prm

>  <Rbt.Receptor>
prm/pocket_docking_7.prm

>  <SCORE>
-8.09453

>  <SCORE.INTER>
-5.78282

>  <SCORE.INTER.CONST>
1

>  <SCORE.INTER.POLAR>
0

>  <SCORE.INTER.ROT>
7

>  <SCORE.INTER.SOLV>
7.26751

>  <SCORE.INTER.VDW>
-14.5444

>  <SCORE.INTER.norm>
-0.214178

>  <SCORE.INTRA>
-2.31172

>  <SCORE.INTRA.DIHEDRAL>
-4.38542

>  <SCORE.INTRA.DIHEDRAL.0>
10.7382

>  <SCORE.INTRA.POLAR>
0

>  <SCORE.INTRA.POLAR.0>
0

>  <SCORE.INTRA.REPUL>
0

>  <SCORE.INTRA.REPUL.0>
0

>  <SCORE.INTRA.SOLV>
1.83491

>  <SCORE.INTRA.SOLV.lig_0>
-49.2501

>  <SCORE.INTRA.VDW>
-1.03646

>  <SCORE.INTRA.VDW.0>
-1.75368

>  <SCORE.INTRA.norm>
-0.0856191

>  <SCORE.RESTR>
0

>  <SCORE.RESTR.CAVITY>
0

>  <SCORE.RESTR.norm>
0

>  <SCORE.SYSTEM>
0

>  <SCORE.SYSTEM.CONST>
0

>  <SCORE.SYSTEM.DIHEDRAL>
0

>  <SCORE.SYSTEM.SOLV>
0

>  <SCORE.SYSTEM.norm>
0

>  <SCORE.heavy>
27

>  <SCORE.norm>
-0.299798

>  <RMSD>
7.994

$$$$
ligand
 OpenBabel11021811463D
libRbt.so/2013.1/901 2013/11/27
 27 29  0  0  0  0  0  0  0  0999 V2000
   35.8656   22.1306   80.8848 N   0  0  0  0  0  0  0  0  0  0  0  0
   34.4517   21.7167   80.9035 C   0  0  2  0  0  0  0  0  0  0  0  0
   34.2691   20.5273   81.8233 C   0  0  0  0  0  0  0  0  0  0  0  0
   35.2519   19.9915   82.3456 O   0  0  0  0  0  0  0  0  0  0  0  0
   34.0283   21.3207   79.4928 C   0  0  0  0  0  0  0  0  0  0  0  0
   34.1573   22.4982   78.5503 C   0  0  0  0  0  0  0  0  0  0  0  0
   35.8570   22.5450   77.9551 S   0  0  2  0  0  0  0  0  0  0  0  0
   35.7969   24.1348   77.0831 C   0  0  0  0  0  0  0  0  0  0  0  0
   35.7538   21.3881   76.5471 C   0  0  0  0  0  0  0  0  0  0  0  0
   35.9622   19.9669   77.0633 C   0  0  1  0  0  0  0  0  0  0  0  0
   35.7879   19.0861   75.9780 O   0  0  0  0  0  0  0  0  0  0  0  0
   37.3967   19.7526   77.5578 C   0  0  1  0  0  0  0  0  0  0  0  0
   37.7398   20.0285   78.9247 O   0  0  0  0  0  0  0  0  0  0  0  0
   37.7390   18.3083   77.0627 C   0  0  1  0  0  0  0  0  0  0  0  0
   38.3190   17.5811   78.1592 O   0  0  0  0  0  0  0  0  0  0  0  0
   36.4245   17.8669   76.3264 C   0  0  2  0  0  0  0  0  0  0  0  0
   33.1429   20.1447   82.1021 O   0  0  0  0  0  0  0  0  0  0  0  0
   36.2634   17.9633   71.1236 N   0  0  0  0  0  0  0  0  0  0  0  0
   35.9322   18.9307   71.9862 C   0  0  0  0  0  0  0  0  0  0  0  0
   36.0105   18.7479   73.3013 N   0  0  0  0  0  0  0  0  0  0  0  0
   36.4493   17.5866   73.8200 C   0  0  0  0  0  0  0  0  0  0  0  0
   36.8282   16.5319   72.9470 C   0  0  0  0  0  0  0  0  0  0  0  0
   36.7165   16.7672   71.5446 C   0  0  0  0  0  0  0  0  0  0  0  0
   37.0737   15.7942   70.6300 N   0  0  0  0  0  0  0  0  0  0  0  0
   37.2315   15.4970   73.7196 N   0  0  0  0  0  0  0  0  0  0  0  0
   37.1319   15.8347   74.9726 C   0  0  0  0  0  0  0  0  0  0  0  0
   36.6524   17.1165   75.0867 N   0  0  0  0  0  0  0  0  0  0  0  0
  2  1  1  6  0  0  0
  2  3  1  0  0  0  0
  2  5  1  0  0  0  0
  3  4  1  0  0  0  0
  3 17  1  0  0  0  0
  5  6  1  0  0  0  0
  7  6  1  1  0  0  0
  7  8  1  0  0  0  0
  7  9  1  0  0  0  0
 10  9  1  6  0  0  0
 10 11  1  0  0  0  0
 10 12  1  0  0  0  0
 11 16  1  0  0  0  0
 12 13  1  1  0  0  0
 12 14  1  0  0  0  0
 14 15  1  1  0  0  0
 14 16  1  0  0  0  0
 16 27  1  6  0  0  0
 18 19  2  0  0  0  0
 18 23  1  0  0  0  0
 19 20  1  0  0  0  0
 20 21  2  0  0  0  0
 21 22  1  0  0  0  0
 21 27  1  0  0  0  0
 22 23  2  0  0  0  0
 22 25  1  0  0  0  0
 23 24  1  0  0  0  0
 25 26  2  0  0  0  0
 26 27  1  0  0  0  0
M  END
>  <CHROM.1>
-5.33541487,-61.44906255,85.47217299,-172.03545812,-85.89503687,176.05396885
7.87104078,36.06222781,19.46309564,76.77616776,2.35620263,-1.28722026,1.80658023

>  <Name>
ligand

>  <RI>
0

>  <Rbt.Current_Directory>
/home/itssahil/PROJECTS/Mol_Feturizer/New_Systems/rnas/2QWY

>  <Rbt.Executable>
rbdock ($Id: //depot/dev/client3/rdock/2013.1/src/exe/rbdock.cxx#4 $)

>  <Rbt.Library>
libRbt.so (2013.1, Build901 2013/11/27)

>  <Rbt.Parameter_File>
/export/apps/rDock/src/rDock_2013.1_src/data/scripts/dock_solv.prm

>  <Rbt.Receptor>
prm/pocket_docking_6.prm

>  <SCORE>
-9.28679

>  <SCORE.INTER>
-7.71361

>  <SCORE.INTER.CONST>
1

>  <SCORE.INTER.POLAR>
0

>  <SCORE.INTER.ROT>
7

>  <SCORE.INTER.SOLV>
3.41289

>  <SCORE.INTER.VDW>
-14.5467

>  <SCORE.INTER.norm>
-0.285689

>  <SCORE.INTRA>
-1.57318

>  <SCORE.INTRA.DIHEDRAL>
-3.81172

>  <SCORE.INTRA.DIHEDRAL.0>
10.7382

>  <SCORE.INTRA.POLAR>
0

>  <SCORE.INTRA.POLAR.0>
0

>  <SCORE.INTRA.REPUL>
0

>  <SCORE.INTRA.REPUL.0>
0

>  <SCORE.INTRA.SOLV>
2.52149

>  <SCORE.INTRA.SOLV.lig_0>
-49.2501

>  <SCORE.INTRA.VDW>
-0.928064

>  <SCORE.INTRA.VDW.0>
-1.75368

>  <SCORE.INTRA.norm>
-0.058266

>  <SCORE.RESTR>
0

>  <SCORE.RESTR.CAVITY>
0

>  <SCORE.RESTR.norm>
0

>  <SCORE.SYSTEM>
0

>  <SCORE.SYSTEM.CONST>
0

>  <SCORE.SYSTEM.DIHEDRAL>
0

>  <SCORE.SYSTEM.SOLV>
0

>  <SCORE.SYSTEM.norm>
0

>  <SCORE.heavy>
27

>  <SCORE.norm>
-0.343955

>  <RMSD>
8.032

$$$$
ligand
 OpenBabel11021811463D
libRbt.so/2013.1/901 2013/11/27
 27 29  0  0  0  0  0  0  0  0999 V2000
   26.7841   20.9577   77.8312 N   0  0  0  0  0  0  0  0  0  0  0  0
   27.2710   19.8948   76.9347 C   0  0  2  0  0  0  0  0  0  0  0  0
   26.1658   18.8956   76.6628 C   0  0  0  0  0  0  0  0  0  0  0  0
   25.9064   18.0177   77.4922 O   0  0  0  0  0  0  0  0  0  0  0  0
   28.4370   19.1731   77.6025 C   0  0  0  0  0  0  0  0  0  0  0  0
   29.4707   20.1685   78.0844 C   0  0  0  0  0  0  0  0  0  0  0  0
   31.0992   19.5098   77.6853 S   0  0  2  0  0  0  0  0  0  0  0  0
   30.9252   17.8722   78.4468 C   0  0  0  0  0  0  0  0  0  0  0  0
   32.1217   20.3539   78.9397 C   0  0  0  0  0  0  0  0  0  0  0  0
   33.5151   19.7311   78.9373 C   0  0  1  0  0  0  0  0  0  0  0  0
   33.9714   19.7051   77.6049 O   0  0  0  0  0  0  0  0  0  0  0  0
   34.5178   20.5924   79.7127 C   0  0  1  0  0  0  0  0  0  0  0  0
   34.7066   20.3914   81.1220 O   0  0  0  0  0  0  0  0  0  0  0  0
   35.8177   20.5043   78.8462 C   0  0  1  0  0  0  0  0  0  0  0  0
   36.9222   20.2099   79.7186 O   0  0  0  0  0  0  0  0  0  0  0  0
   35.3841   19.5818   77.6522 C   0  0  2  0  0  0  0  0  0  0  0  0
   25.4858   19.0045   75.6536 O   0  0  0  0  0  0  0  0  0  0  0  0
   36.5793   18.1147   72.8021 N   0  0  0  0  0  0  0  0  0  0  0  0
   36.0911   17.3716   73.8017 C   0  0  0  0  0  0  0  0  0  0  0  0
   35.8516   17.8907   75.0026 N   0  0  0  0  0  0  0  0  0  0  0  0
   36.0692   19.1940   75.2560 C   0  0  0  0  0  0  0  0  0  0  0  0
   36.5728   20.0306   74.2242 C   0  0  0  0  0  0  0  0  0  0  0  0
   36.8270   19.4293   72.9559 C   0  0  0  0  0  0  0  0  0  0  0  0
   37.3092   20.1778   71.8985 N   0  0  0  0  0  0  0  0  0  0  0  0
   36.6900   21.2763   74.7391 N   0  0  0  0  0  0  0  0  0  0  0  0
   36.3013   21.2638   75.9811 C   0  0  0  0  0  0  0  0  0  0  0  0
   35.9088   19.9999   76.3477 N   0  0  0  0  0  0  0  0  0  0  0  0
  2  1  1  1  0  0  0
  2  3  1  0  0  0  0
  2  5  1  0  0  0  0
  3  4  1  0  0  0  0
  3 17  1  0  0  0  0
  5  6  1  0  0  0  0
  7  6  1  1  0  0  0
  7  8  1  0  0  0  0
  7  9  1  0  0  0  0
 10  9  1  6  0  0  0
 10 11  1  0  0  0  0
 10 12  1  0  0  0  0
 11 16  1  0  0  0  0
 12 13  1  1  0  0  0
 12 14  1  0  0  0  0
 14 15  1  1  0  0  0
 14 16  1  0  0  0  0
 16 27  1  6  0  0  0
 18 19  2  0  0  0  0
 18 23  1  0  0  0  0
 19 20  1  0  0  0  0
 20 21  2  0  0  0  0
 21 22  1  0  0  0  0
 21 27  1  0  0  0  0
 22 23  2  0  0  0  0
 22 25  1  0  0  0  0
 23 24  1  0  0  0  0
 25 26  2  0  0  0  0
 26 27  1  0  0  0  0
M  END
>  <CHROM.1>
-80.23700800,-50.98319198,-137.73046743,-52.61078079,169.64448956,50.37451340
-87.42095418,32.87128835,19.59333918,76.86501511,2.93309716,0.08730706,1.36891200

>  <Name>
ligand

>  <RI>
0

>  <Rbt.Current_Directory>
/home/itssahil/PROJECTS/Mol_Feturizer/New_Systems/rnas/2QWY

>  <Rbt.Executable>
rbdock ($Id: //depot/dev/client3/rdock/2013.1/src/exe/rbdock.cxx#4 $)

>  <Rbt.Library>
libRbt.so (2013.1, Build901 2013/11/27)

>  <Rbt.Parameter_File>
/export/apps/rDock/src/rDock_2013.1_src/data/scripts/dock_solv.prm

>  <Rbt.Receptor>
prm/pocket_docking_2.prm

>  <SCORE>
-11.7569

>  <SCORE.INTER>
-14.1423

>  <SCORE.INTER.CONST>
1

>  <SCORE.INTER.POLAR>
0

>  <SCORE.INTER.ROT>
7

>  <SCORE.INTER.SOLV>
14.5175

>  <SCORE.INTER.VDW>
-22.534

>  <SCORE.INTER.norm>
-0.523787

>  <SCORE.INTRA>
1.68952

>  <SCORE.INTRA.DIHEDRAL>
-1.92955

>  <SCORE.INTRA.DIHEDRAL.0>
10.7382

>  <SCORE.INTRA.POLAR>
0

>  <SCORE.INTRA.POLAR.0>
0

>  <SCORE.INTRA.REPUL>
0

>  <SCORE.INTRA.REPUL.0>
0

>  <SCORE.INTRA.SOLV>
-0.358611

>  <SCORE.INTRA.SOLV.lig_0>
-49.2501

>  <SCORE.INTRA.VDW>
2.8336

>  <SCORE.INTRA.VDW.0>
-1.75368

>  <SCORE.INTRA.norm>
0.0625748

>  <SCORE.RESTR>
0.695823

>  <SCORE.RESTR.CAVITY>
0.695823

>  <SCORE.RESTR.norm>
0.0257712

>  <SCORE.SYSTEM>
0

>  <SCORE.SYSTEM.CONST>
0

>  <SCORE.SYSTEM.DIHEDRAL>
0

>  <SCORE.SYSTEM.SOLV>
0

>  <SCORE.SYSTEM.norm>
0

>  <SCORE.heavy>
27

>  <SCORE.norm>
-0.435441

>  <RMSD>
8.034

$$$$
ligand
 OpenBabel11021811463D
libRbt.so/2013.1/901 2013/11/27
 27 29  0  0  0  0  0  0  0  0999 V2000
   26.0890   18.5700   76.9723 N   0  0  0  0  0  0  0  0  0  0  0  0
   27.0301   19.4882   77.6370 C   0  0  2  0  0  0  0  0  0  0  0  0
   26.8727   20.8881   77.0807 C   0  0  0  0  0  0  0  0  0  0  0  0
   26.3036   21.0644   75.9987 O   0  0  0  0  0  0  0  0  0  0  0  0
   28.4566   19.0122   77.3822 C   0  0  0  0  0  0  0  0  0  0  0  0
   29.4500   19.9181   78.0778 C   0  0  0  0  0  0  0  0  0  0  0  0
   31.1048   19.3093   77.7085 S   0  0  2  0  0  0  0  0  0  0  0  0
   30.9673   17.6676   78.4685 C   0  0  0  0  0  0  0  0  0  0  0  0
   32.0785   20.1849   78.9800 C   0  0  0  0  0  0  0  0  0  0  0  0
   33.5017   19.6336   78.9744 C   0  0  1  0  0  0  0  0  0  0  0  0
   33.9524   19.6218   77.6400 O   0  0  0  0  0  0  0  0  0  0  0  0
   34.4630   20.5497   79.7392 C   0  0  1  0  0  0  0  0  0  0  0  0
   34.6685   20.3680   81.1488 O   0  0  0  0  0  0  0  0  0  0  0  0
   35.7616   20.5219   78.8667 C   0  0  1  0  0  0  0  0  0  0  0  0
   36.8837   20.2897   79.7353 O   0  0  0  0  0  0  0  0  0  0  0  0
   35.3697   19.5706   77.6809 C   0  0  2  0  0  0  0  0  0  0  0  0
   27.2474   21.8469   77.7388 O   0  0  0  0  0  0  0  0  0  0  0  0
   36.5321   18.1511   72.8087 N   0  0  0  0  0  0  0  0  0  0  0  0
   36.0754   17.3928   73.8118 C   0  0  0  0  0  0  0  0  0  0  0  0
   35.8404   17.9014   75.0181 N   0  0  0  0  0  0  0  0  0  0  0  0
   36.0307   19.2085   75.2740 C   0  0  0  0  0  0  0  0  0  0  0  0
   36.5000   20.0607   74.2388 C   0  0  0  0  0  0  0  0  0  0  0  0
   36.7508   19.4706   72.9647 C   0  0  0  0  0  0  0  0  0  0  0  0
   37.2006   20.2343   71.9039 N   0  0  0  0  0  0  0  0  0  0  0  0
   36.5949   21.3068   74.7573 N   0  0  0  0  0  0  0  0  0  0  0  0
   36.2238   21.2804   76.0045 C   0  0  0  0  0  0  0  0  0  0  0  0
   35.8664   20.0060   76.3710 N   0  0  0  0  0  0  0  0  0  0  0  0
  2  1  1  6  0  0  0
  2  3  1  0  0  0  0
  2  5  1  0  0  0  0
  3  4  1  0  0  0  0
  3 17  1  0  0  0  0
  5  6  1  0  0  0  0
  7  6  1  1  0  0  0
  7  8  1  0  0  0  0
  7  9  1  0  0  0  0
 10  9  1  6  0  0  0
 10 11  1  0  0  0  0
 10 12  1  0  0  0  0
 11 16  1  0  0  0  0
 12 13  1  1  0  0  0
 12 14  1  0  0  0  0
 14 15  1  1  0  0  0
 14 16  1  0  0  0  0
 16 27  1  6  0  0  0
 18 19  2  0  0  0  0
 18 23  1  0  0  0  0
 19 20  1  0  0  0  0
 20 21  2  0  0  0  0
 21 22  1  0  0  0  0
 21 27  1  0  0  0  0
 22 23  2  0  0  0  0
 22 25  1  0  0  0  0
 23 24  1  0  0  0  0
 25 26  2  0  0  0  0
 26 27  1  0  0  0  0
M  END
>  <CHROM.1>
-17.89158381,-178.76771601,-179.07917275,-61.79242336,171.31072543,49.03058375
-85.67807335,32.92092505,19.75485168,76.90252910,2.87867756,-0.00395204,1.43535076

>  <Name>
ligand

>  <RI>
0

>  <Rbt.Current_Directory>
/home/itssahil/PROJECTS/Mol_Feturizer/New_Systems/rnas/2QWY

>  <Rbt.Executable>
rbdock ($Id: //depot/dev/client3/rdock/2013.1/src/exe/rbdock.cxx#4 $)

>  <Rbt.Library>
libRbt.so (2013.1, Build901 2013/11/27)

>  <Rbt.Parameter_File>
/export/apps/rDock/src/rDock_2013.1_src/data/scripts/dock_solv.prm

>  <Rbt.Receptor>
prm/pocket_docking_2.prm

>  <SCORE>
-16.6317

>  <SCORE.INTER>
-14.52

>  <SCORE.INTER.CONST>
1

>  <SCORE.INTER.POLAR>
0

>  <SCORE.INTER.ROT>
7

>  <SCORE.INTER.SOLV>
14.9166

>  <SCORE.INTER.VDW>
-22.9189

>  <SCORE.INTER.norm>
-0.537779

>  <SCORE.INTRA>
-2.33267

>  <SCORE.INTRA.DIHEDRAL>
-6.88634

>  <SCORE.INTRA.DIHEDRAL.0>
10.7382

>  <SCORE.INTRA.POLAR>
0

>  <SCORE.INTRA.POLAR.0>
0

>  <SCORE.INTRA.REPUL>
0

>  <SCORE.INTRA.REPUL.0>
0

>  <SCORE.INTRA.SOLV>
-1.17991

>  <SCORE.INTRA.SOLV.lig_0>
-49.2501

>  <SCORE.INTRA.VDW>
1.70045

>  <SCORE.INTRA.VDW.0>
-1.75368

>  <SCORE.INTRA.norm>
-0.0863953

>  <SCORE.RESTR>
0.220984

>  <SCORE.RESTR.CAVITY>
0.220984

>  <SCORE.RESTR.norm>
0.0081846

>  <SCORE.SYSTEM>
0

>  <SCORE.SYSTEM.CONST>
0

>  <SCORE.SYSTEM.DIHEDRAL>
0

>  <SCORE.SYSTEM.SOLV>
0

>  <SCORE.SYSTEM.norm>
0

>  <SCORE.heavy>
27

>  <SCORE.norm>
-0.61599

>  <RMSD>
8.041

$$$$
ligand
 OpenBabel11021811463D
libRbt.so/2013.1/901 2013/11/27
 27 29  0  0  0  0  0  0  0  0999 V2000
   26.5173   19.9433   77.0315 N   0  0  0  0  0  0  0  0  0  0  0  0
   27.6370   20.5841   77.7432 C   0  0  2  0  0  0  0  0  0  0  0  0
   27.7301   22.0461   77.3590 C   0  0  0  0  0  0  0  0  0  0  0  0
   26.9249   22.5280   76.5557 O   0  0  0  0  0  0  0  0  0  0  0  0
   28.9380   19.8876   77.3579 C   0  0  0  0  0  0  0  0  0  0  0  0
   30.0753   20.3655   78.2351 C   0  0  0  0  0  0  0  0  0  0  0  0
   31.5411   19.4094   77.8081 S   0  0  2  0  0  0  0  0  0  0  0  0
   30.9158   17.7554   78.2144 C   0  0  0  0  0  0  0  0  0  0  0  0
   32.5929   19.7353   79.2638 C   0  0  0  0  0  0  0  0  0  0  0  0
   33.9614   20.2111   78.7840 C   0  0  1  0  0  0  0  0  0  0  0  0
   34.4177   19.2974   77.8138 O   0  0  0  0  0  0  0  0  0  0  0  0
   33.8698   21.5686   78.0789 C   0  0  1  0  0  0  0  0  0  0  0  0
   33.9922   22.7850   78.8321 O   0  0  0  0  0  0  0  0  0  0  0  0
   34.8655   21.4228   76.8807 C   0  0  1  0  0  0  0  0  0  0  0  0
   35.7053   22.5895   76.8476 O   0  0  0  0  0  0  0  0  0  0  0  0
   35.4145   19.9622   77.0538 C   0  0  2  0  0  0  0  0  0  0  0  0
   28.5591   22.7627   77.8993 O   0  0  0  0  0  0  0  0  0  0  0  0
   37.3720   15.7292   74.7399 N   0  0  0  0  0  0  0  0  0  0  0  0
   37.4544   16.0902   76.0255 C   0  0  0  0  0  0  0  0  0  0  0  0
   36.9129   17.2219   76.4671 N   0  0  0  0  0  0  0  0  0  0  0  0
   36.2378   18.0418   75.6411 C   0  0  0  0  0  0  0  0  0  0  0  0
   36.1079   17.6972   74.2691 C   0  0  0  0  0  0  0  0  0  0  0  0
   36.7147   16.4810   73.8366 C   0  0  0  0  0  0  0  0  0  0  0  0
   36.6256   16.0714   72.5193 N   0  0  0  0  0  0  0  0  0  0  0  0
   35.3874   18.6769   73.6759 N   0  0  0  0  0  0  0  0  0  0  0  0
   35.0720   19.5736   74.5649 C   0  0  0  0  0  0  0  0  0  0  0  0
   35.5751   19.2267   75.7948 N   0  0  0  0  0  0  0  0  0  0  0  0
  2  1  1  6  0  0  0
  2  3  1  0  0  0  0
  2  5  1  0  0  0  0
  3  4  1  0  0  0  0
  3 17  1  0  0  0  0
  5  6  1  0  0  0  0
  7  6  1  1  0  0  0
  7  8  1  0  0  0  0
  7  9  1  0  0  0  0
 10  9  1  6  0  0  0
 10 11  1  0  0  0  0
 10 12  1  0  0  0  0
 11 16  1  0  0  0  0
 12 13  1  1  0  0  0
 12 14  1  0  0  0  0
 14 15  1  1  0  0  0
 14 16  1  0  0  0  0
 16 27  1  6  0  0  0
 18 19  2  0  0  0  0
 18 23  1  0  0  0  0
 19 20  1  0  0  0  0
 20 21  2  0  0  0  0
 21 22  1  0  0  0  0
 21 27  1  0  0  0  0
 22 23  2  0  0  0  0
 22 25  1  0  0  0  0
 23 24  1  0  0  0  0
 25 26  2  0  0  0  0
 26 27  1  0  0  0  0
M  END
>  <CHROM.1>
0.21227188,-170.75491810,175.65632589,-60.52511884,-128.49212944,-50.26442866
-76.42212500,33.05884671,19.61700707,76.75125250,2.62645250,0.01846293,0.59781064

>  <Name>
ligand

>  <RI>
0

>  <Rbt.Current_Directory>
/home/itssahil/PROJECTS/Mol_Feturizer/New_Systems/rnas/2QWY

>  <Rbt.Executable>
rbdock ($Id: //depot/dev/client3/rdock/2013.1/src/exe/rbdock.cxx#4 $)

>  <Rbt.Library>
libRbt.so (2013.1, Build901 2013/11/27)

>  <Rbt.Parameter_File>
/export/apps/rDock/src/rDock_2013.1_src/data/scripts/dock_solv.prm

>  <Rbt.Receptor>
prm/pocket_docking_4.prm

>  <SCORE>
-21.5029

>  <SCORE.INTER>
-21.1846

>  <SCORE.INTER.CONST>
1

>  <SCORE.INTER.POLAR>
0

>  <SCORE.INTER.ROT>
7

>  <SCORE.INTER.SOLV>
13.2719

>  <SCORE.INTER.VDW>
-26.8137

>  <SCORE.INTER.norm>
-0.784614

>  <SCORE.INTRA>
-0.318284

>  <SCORE.INTRA.DIHEDRAL>
-2.384

>  <SCORE.INTRA.DIHEDRAL.0>
10.7382

>  <SCORE.INTRA.POLAR>
0

>  <SCORE.INTRA.POLAR.0>
0

>  <SCORE.INTRA.REPUL>
0

>  <SCORE.INTRA.REPUL.0>
0

>  <SCORE.INTRA.SOLV>
-1.00856

>  <SCORE.INTRA.SOLV.lig_0>
-49.2501

>  <SCORE.INTRA.VDW>
1.378

>  <SCORE.INTRA.VDW.0>
-1.75368

>  <SCORE.INTRA.norm>
-0.0117883

>  <SCORE.RESTR>
0

>  <SCORE.RESTR.CAVITY>
0

>  <SCORE.RESTR.norm>
0

>  <SCORE.SYSTEM>
0

>  <SCORE.SYSTEM.CONST>
0

>  <SCORE.SYSTEM.DIHEDRAL>
0

>  <SCORE.SYSTEM.SOLV>
0

>  <SCORE.SYSTEM.norm>
0

>  <SCORE.heavy>
27

>  <SCORE.norm>
-0.796403

>  <RMSD>
8.062

$$$$
ligand
 OpenBabel11021811463D
libRbt.so/2013.1/901 2013/11/27
 27 29  0  0  0  0  0  0  0  0999 V2000
   37.8661   19.2244   79.9470 N   0  0  0  0  0  0  0  0  0  0  0  0
   36.8350   20.1438   79.4348 C   0  0  2  0  0  0  0  0  0  0  0  0
   35.7390   19.3626   78.7403 C   0  0  0  0  0  0  0  0  0  0  0  0
   34.5545   19.5764   79.0180 O   0  0  0  0  0  0  0  0  0  0  0  0
   37.4722   21.1003   78.4321 C   0  0  0  0  0  0  0  0  0  0  0  0
   36.4635   22.1277   77.9647 C   0  0  0  0  0  0  0  0  0  0  0  0
   37.1396   22.9414   76.5066 S   0  0  2  0  0  0  0  0  0  0  0  0
   36.0649   24.4030   76.4870 C   0  0  0  0  0  0  0  0  0  0  0  0
   36.3751   21.9475   75.1802 C   0  0  0  0  0  0  0  0  0  0  0  0
   36.8706   20.5086   75.2974 C   0  0  1  0  0  0  0  0  0  0  0  0
   36.2406   19.7540   74.2885 O   0  0  0  0  0  0  0  0  0  0  0  0
   38.3754   20.4078   75.0258 C   0  0  1  0  0  0  0  0  0  0  0  0
   39.3161   20.5519   76.1012 O   0  0  0  0  0  0  0  0  0  0  0  0
   38.5066   19.0870   74.1972 C   0  0  1  0  0  0  0  0  0  0  0  0
   39.5730   18.3047   74.7614 O   0  0  0  0  0  0  0  0  0  0  0  0
   37.0223   18.5861   74.0943 C   0  0  2  0  0  0  0  0  0  0  0  0
   36.0270   18.5716   77.8548 O   0  0  0  0  0  0  0  0  0  0  0  0
   35.8155   14.2900   71.4125 N   0  0  0  0  0  0  0  0  0  0  0  0
   36.1219   14.4048   72.7097 C   0  0  0  0  0  0  0  0  0  0  0  0
   36.4287   15.5801   73.2514 N   0  0  0  0  0  0  0  0  0  0  0  0
   36.4212   16.7094   72.5201 C   0  0  0  0  0  0  0  0  0  0  0  0
   36.0878   16.6448   71.1407 C   0  0  0  0  0  0  0  0  0  0  0  0
   35.7777   15.3623   70.5988 C   0  0  0  0  0  0  0  0  0  0  0  0
   35.4349   15.2172   69.2675 N   0  0  0  0  0  0  0  0  0  0  0  0
   36.1493   17.9056   70.6537 N   0  0  0  0  0  0  0  0  0  0  0  0
   36.4855   18.7185   71.6129 C   0  0  0  0  0  0  0  0  0  0  0  0
   36.6654   18.0271   72.7858 N   0  0  0  0  0  0  0  0  0  0  0  0
  2  1  1  6  0  0  0
  2  3  1  0  0  0  0
  2  5  1  0  0  0  0
  3  4  1  0  0  0  0
  3 17  1  0  0  0  0
  5  6  1  0  0  0  0
  7  6  1  1  0  0  0
  7  8  1  0  0  0  0
  7  9  1  0  0  0  0
 10  9  1  6  0  0  0
 10 11  1  0  0  0  0
 10 12  1  0  0  0  0
 11 16  1  0  0  0  0
 12 13  1  1  0  0  0
 12 14  1  0  0  0  0
 14 15  1  1  0  0  0
 14 16  1  0  0  0  0
 16 27  1  6  0  0  0
 18 19  2  0  0  0  0
 18 23  1  0  0  0  0
 19 20  1  0  0  0  0
 20 21  2  0  0  0  0
 21 22  1  0  0  0  0
 21 27  1  0  0  0  0
 22 23  2  0  0  0  0
 22 25  1  0  0  0  0
 23 24  1  0  0  0  0
 25 26  2  0  0  0  0
 26 27  1  0  0  0  0
M  END
>  <CHROM.1>
130.57378791,-175.67302758,-165.92565343,-162.75254141,-62.78068983,178.42138316
-134.86646179,36.77114093,19.13481558,74.96180653,1.04509877,1.40781449,1.38874318

>  <Name>
ligand

>  <RI>
0

>  <Rbt.Current_Directory>
/home/itssahil/PROJECTS/Mol_Feturizer/New_Systems/rnas/2QWY

>  <Rbt.Executable>
rbdock ($Id: //depot/dev/client3/rdock/2013.1/src/exe/rbdock.cxx#4 $)

>  <Rbt.Library>
libRbt.so (2013.1, Build901 2013/11/27)

>  <Rbt.Parameter_File>
/export/apps/rDock/src/rDock_2013.1_src/data/scripts/dock_solv.prm

>  <Rbt.Receptor>
prm/pocket_docking_4.prm

>  <SCORE>
-11.419

>  <SCORE.INTER>
-7.21362

>  <SCORE.INTER.CONST>
1

>  <SCORE.INTER.POLAR>
0

>  <SCORE.INTER.ROT>
7

>  <SCORE.INTER.SOLV>
6.62393

>  <SCORE.INTER.VDW>
-15.2837

>  <SCORE.INTER.norm>
-0.267171

>  <SCORE.INTRA>
-4.20656

>  <SCORE.INTRA.DIHEDRAL>
-4.91983

>  <SCORE.INTRA.DIHEDRAL.0>
10.7382

>  <SCORE.INTRA.POLAR>
0

>  <SCORE.INTRA.POLAR.0>
0

>  <SCORE.INTRA.REPUL>
0

>  <SCORE.INTRA.REPUL.0>
0

>  <SCORE.INTRA.SOLV>
-0.665968

>  <SCORE.INTRA.SOLV.lig_0>
-49.2501

>  <SCORE.INTRA.VDW>
-1.41366

>  <SCORE.INTRA.VDW.0>
-1.75368

>  <SCORE.INTRA.norm>
-0.155798

>  <SCORE.RESTR>
0.00120986

>  <SCORE.RESTR.CAVITY>
0.00120986

>  <SCORE.RESTR.norm>
4.48097e-05

>  <SCORE.SYSTEM>
0

>  <SCORE.SYSTEM.CONST>
0

>  <SCORE.SYSTEM.DIHEDRAL>
0

>  <SCORE.SYSTEM.SOLV>
0

>  <SCORE.SYSTEM.norm>
0

>  <SCORE.heavy>
27

>  <SCORE.norm>
-0.422925

>  <RMSD>
8.077

$$$$
ligand
 OpenBabel11021811463D
libRbt.so/2013.1/901 2013/11/27
 27 29  0  0  0  0  0  0  0  0999 V2000
   36.1523   12.1322   68.2299 N   0  0  0  0  0  0  0  0  0  0  0  0
   35.5792   13.0821   69.1995 C   0  0  2  0  0  0  0  0  0  0  0  0
   34.1540   13.4220   68.8157 C   0  0  0  0  0  0  0  0  0  0  0  0
   33.9137   13.9362   67.7186 O   0  0  0  0  0  0  0  0  0  0  0  0
   36.4104   14.3609   69.1973 C   0  0  0  0  0  0  0  0  0  0  0  0
   35.9370   15.3029   70.2835 C   0  0  0  0  0  0  0  0  0  0  0  0
   36.8112   14.8796   71.8007 S   0  0  2  0  0  0  0  0  0  0  0  0
   35.7158   13.5576   72.3870 C   0  0  0  0  0  0  0  0  0  0  0  0
   36.2887   16.2514   72.8855 C   0  0  0  0  0  0  0  0  0  0  0  0
   37.0824   17.5009   72.5136 C   0  0  1  0  0  0  0  0  0  0  0  0
   36.4459   18.6072   73.1096 O   0  0  0  0  0  0  0  0  0  0  0  0
   38.4992   17.4617   73.0964 C   0  0  1  0  0  0  0  0  0  0  0  0
   39.5722   16.8661   72.3507 O   0  0  0  0  0  0  0  0  0  0  0  0
   38.7439   18.9378   73.5543 C   0  0  1  0  0  0  0  0  0  0  0  0
   40.0339   19.3516   73.0722 O   0  0  0  0  0  0  0  0  0  0  0  0
   37.4015   19.6542   73.1680 C   0  0  2  0  0  0  0  0  0  0  0  0
   33.2370   13.1213   69.5650 O   0  0  0  0  0  0  0  0  0  0  0  0
   38.7633   23.0724   76.8512 N   0  0  0  0  0  0  0  0  0  0  0  0
   39.5527   22.2899   76.1068 C   0  0  0  0  0  0  0  0  0  0  0  0
   39.0505   21.4459   75.2099 N   0  0  0  0  0  0  0  0  0  0  0  0
   37.7248   21.3605   74.9971 C   0  0  0  0  0  0  0  0  0  0  0  0
   36.8432   22.1808   75.7507 C   0  0  0  0  0  0  0  0  0  0  0  0
   37.4242   23.0621   76.7101 C   0  0  0  0  0  0  0  0  0  0  0  0
   36.6345   23.8986   77.4765 N   0  0  0  0  0  0  0  0  0  0  0  0
   35.5851   21.9029   75.3376 N   0  0  0  0  0  0  0  0  0  0  0  0
   35.6317   20.9954   74.4059 C   0  0  0  0  0  0  0  0  0  0  0  0
   36.9318   20.6273   74.1602 N   0  0  0  0  0  0  0  0  0  0  0  0
  2  1  1  6  0  0  0
  2  3  1  0  0  0  0
  2  5  1  0  0  0  0
  3  4  1  0  0  0  0
  3 17  1  0  0  0  0
  5  6  1  0  0  0  0
  7  6  1  6  0  0  0
  7  8  1  0  0  0  0
  7  9  1  0  0  0  0
 10  9  1  1  0  0  0
 10 11  1  0  0  0  0
 10 12  1  0  0  0  0
 11 16  1  0  0  0  0
 12 13  1  6  0  0  0
 12 14  1  0  0  0  0
 14 15  1  6  0  0  0
 14 16  1  0  0  0  0
 16 27  1  1  0  0  0
 18 19  2  0  0  0  0
 18 23  1  0  0  0  0
 19 20  1  0  0  0  0
 20 21  2  0  0  0  0
 21 22  1  0  0  0  0
 21 27  1  0  0  0  0
 22 23  2  0  0  0  0
 22 25  1  0  0  0  0
 23 24  1  0  0  0  0
 25 26  2  0  0  0  0
 26 27  1  0  0  0  0
M  END
>  <CHROM.1>
-59.44809124,-174.13346674,87.36446538,-85.19802880,-77.29542826,165.48119904
145.27537954,36.87283905,17.84940039,72.75024481,-1.80319608,-0.09828038
0.60981855

>  <Name>
ligand

>  <RI>
0

>  <Rbt.Current_Directory>
/home/itssahil/PROJECTS/Mol_Feturizer/New_Systems/rnas/2QWY

>  <Rbt.Executable>
rbdock ($Id: //depot/dev/client3/rdock/2013.1/src/exe/rbdock.cxx#4 $)

>  <Rbt.Library>
libRbt.so (2013.1, Build901 2013/11/27)

>  <Rbt.Parameter_File>
/export/apps/rDock/src/rDock_2013.1_src/data/scripts/dock_solv.prm

>  <Rbt.Receptor>
prm/pocket_docking_7.prm

>  <SCORE>
-14.3964

>  <SCORE.INTER>
-11.92

>  <SCORE.INTER.CONST>
1

>  <SCORE.INTER.POLAR>
0

>  <SCORE.INTER.ROT>
7

>  <SCORE.INTER.SOLV>
5.72666

>  <SCORE.INTER.VDW>
-18.1222

>  <SCORE.INTER.norm>
-0.441482

>  <SCORE.INTRA>
-2.47643

>  <SCORE.INTRA.DIHEDRAL>
-3.43573

>  <SCORE.INTRA.DIHEDRAL.0>
10.7382

>  <SCORE.INTRA.POLAR>
0

>  <SCORE.INTRA.POLAR.0>
0

>  <SCORE.INTRA.REPUL>
0

>  <SCORE.INTRA.REPUL.0>
0

>  <SCORE.INTRA.SOLV>
-0.61297

>  <SCORE.INTRA.SOLV.lig_0>
-49.2501

>  <SCORE.INTRA.VDW>
-0.452082

>  <SCORE.INTRA.VDW.0>
-1.75368

>  <SCORE.INTRA.norm>
-0.0917197

>  <SCORE.RESTR>
0

>  <SCORE.RESTR.CAVITY>
0

>  <SCORE.RESTR.norm>
0

>  <SCORE.SYSTEM>
0

>  <SCORE.SYSTEM.CONST>
0

>  <SCORE.SYSTEM.DIHEDRAL>
0

>  <SCORE.SYSTEM.SOLV>
0

>  <SCORE.SYSTEM.norm>
0

>  <SCORE.heavy>
27

>  <SCORE.norm>
-0.533201

>  <RMSD>
8.084

$$$$
ligand
 OpenBabel11021811463D
libRbt.so/2013.1/901 2013/11/27
 27 29  0  0  0  0  0  0  0  0999 V2000
   28.5249   20.6953   78.0104 N   0  0  0  0  0  0  0  0  0  0  0  0
   29.7414   20.0173   77.5299 C   0  0  2  0  0  0  0  0  0  0  0  0
   29.5859   18.5161   77.6569 C   0  0  0  0  0  0  0  0  0  0  0  0
   28.5289   18.0363   78.0794 O   0  0  0  0  0  0  0  0  0  0  0  0
   30.9297   20.4647   78.3749 C   0  0  0  0  0  0  0  0  0  0  0  0
   32.2257   20.2512   77.6225 C   0  0  0  0  0  0  0  0  0  0  0  0
   33.5791   20.7502   78.7017 S   0  0  2  0  0  0  0  0  0  0  0  0
   33.2191   22.5263   78.7873 C   0  0  0  0  0  0  0  0  0  0  0  0
   34.9709   20.7484   77.5209 C   0  0  0  0  0  0  0  0  0  0  0  0
   35.4106   19.3064   77.2825 C   0  0  1  0  0  0  0  0  0  0  0  0
   35.1818   19.0065   75.9254 O   0  0  0  0  0  0  0  0  0  0  0  0
   36.9164   19.1327   77.5078 C   0  0  1  0  0  0  0  0  0  0  0  0
   37.4199   18.8037   78.8118 O   0  0  0  0  0  0  0  0  0  0  0  0
   37.3442   18.1569   76.3618 C   0  0  1  0  0  0  0  0  0  0  0  0
   38.1548   17.1164   76.9346 O   0  0  0  0  0  0  0  0  0  0  0  0
   35.9955   17.8894   75.6042 C   0  0  2  0  0  0  0  0  0  0  0  0
   30.4825   17.7798   77.2739 O   0  0  0  0  0  0  0  0  0  0  0  0
   36.6612   14.8633   71.4205 N   0  0  0  0  0  0  0  0  0  0  0  0
   36.6060   14.5053   72.7083 C   0  0  0  0  0  0  0  0  0  0  0  0
   36.4481   15.4050   73.6750 N   0  0  0  0  0  0  0  0  0  0  0  0
   36.3137   16.7142   73.3954 C   0  0  0  0  0  0  0  0  0  0  0  0
   36.3498   17.1456   72.0423 C   0  0  0  0  0  0  0  0  0  0  0  0
   36.5335   16.1484   71.0392 C   0  0  0  0  0  0  0  0  0  0  0  0
   36.5710   16.4865   69.6993 N   0  0  0  0  0  0  0  0  0  0  0  0
   36.1861   18.4887   72.0450 N   0  0  0  0  0  0  0  0  0  0  0  0
   36.0528   18.9006   73.2724 C   0  0  0  0  0  0  0  0  0  0  0  0
   36.1251   17.8416   74.1438 N   0  0  0  0  0  0  0  0  0  0  0  0
  2  1  1  1  0  0  0
  2  3  1  0  0  0  0
  2  5  1  0  0  0  0
  3  4  1  0  0  0  0
  3 17  1  0  0  0  0
  5  6  1  0  0  0  0
  7  6  1  6  0  0  0
  7  8  1  0  0  0  0
  7  9  1  0  0  0  0
 10  9  1  6  0  0  0
 10 11  1  0  0  0  0
 10 12  1  0  0  0  0
 11 16  1  0  0  0  0
 12 13  1  1  0  0  0
 12 14  1  0  0  0  0
 14 15  1  1  0  0  0
 14 16  1  0  0  0  0
 16 27  1  6  0  0  0
 18 19  2  0  0  0  0
 18 23  1  0  0  0  0
 19 20  1  0  0  0  0
 20 21  2  0  0  0  0
 21 22  1  0  0  0  0
 21 27  1  0  0  0  0
 22 23  2  0  0  0  0
 22 25  1  0  0  0  0
 23 24  1  0  0  0  0
 25 26  2  0  0  0  0
 26 27  1  0  0  0  0
M  END
>  <CHROM.1>
1.93689541,-157.78240024,-178.16718217,-66.35500038,-77.69348245,116.44874260
-150.97577670,34.42979225,18.51083835,75.85943895,2.27915364,0.00272707,1.00292409

>  <Name>
ligand

>  <RI>
0

>  <Rbt.Current_Directory>
/home/itssahil/PROJECTS/Mol_Feturizer/New_Systems/rnas/2QWY

>  <Rbt.Executable>
rbdock ($Id: //depot/dev/client3/rdock/2013.1/src/exe/rbdock.cxx#4 $)

>  <Rbt.Library>
libRbt.so (2013.1, Build901 2013/11/27)

>  <Rbt.Parameter_File>
/export/apps/rDock/src/rDock_2013.1_src/data/scripts/dock_solv.prm

>  <Rbt.Receptor>
prm/pocket_docking_4.prm

>  <SCORE>
-16.9477

>  <SCORE.INTER>
-16.5561

>  <SCORE.INTER.CONST>
1

>  <SCORE.INTER.POLAR>
0

>  <SCORE.INTER.ROT>
7

>  <SCORE.INTER.SOLV>
15.311

>  <SCORE.INTER.VDW>
-24.4077

>  <SCORE.INTER.norm>
-0.613187

>  <SCORE.INTRA>
-0.394402

>  <SCORE.INTRA.DIHEDRAL>
-0.31947

>  <SCORE.INTRA.DIHEDRAL.0>
10.7382

>  <SCORE.INTRA.POLAR>
0

>  <SCORE.INTRA.POLAR.0>
0

>  <SCORE.INTRA.REPUL>
0

>  <SCORE.INTRA.REPUL.0>
0

>  <SCORE.INTRA.SOLV>
-1.22675

>  <SCORE.INTRA.SOLV.lig_0>
-49.2501

>  <SCORE.INTRA.VDW>
0.378709

>  <SCORE.INTRA.VDW.0>
-1.75368

>  <SCORE.INTRA.norm>
-0.0146075

>  <SCORE.RESTR>
0.00278133

>  <SCORE.RESTR.CAVITY>
0.00278133

>  <SCORE.RESTR.norm>
0.000103012

>  <SCORE.SYSTEM>
0

>  <SCORE.SYSTEM.CONST>
0

>  <SCORE.SYSTEM.DIHEDRAL>
0

>  <SCORE.SYSTEM.SOLV>
0

>  <SCORE.SYSTEM.norm>
0

>  <SCORE.heavy>
27

>  <SCORE.norm>
-0.627692

>  <RMSD>
8.093

$$$$
ligand
 OpenBabel11021811463D
libRbt.so/2013.1/901 2013/11/27
 27 29  0  0  0  0  0  0  0  0999 V2000
   29.3339   21.2086   78.1810 N   0  0  0  0  0  0  0  0  0  0  0  0
   29.6980   19.9508   77.5057 C   0  0  2  0  0  0  0  0  0  0  0  0
   28.4779   19.0652   77.3608 C   0  0  0  0  0  0  0  0  0  0  0  0
   28.6097   17.8713   77.0725 O   0  0  0  0  0  0  0  0  0  0  0  0
   30.7435   19.2195   78.3415 C   0  0  0  0  0  0  0  0  0  0  0  0
   31.7828   20.1909   78.8588 C   0  0  0  0  0  0  0  0  0  0  0  0
   33.3892   19.6636   78.2367 S   0  0  2  0  0  0  0  0  0  0  0  0
   34.3429   19.8266   79.7714 C   0  0  0  0  0  0  0  0  0  0  0  0
   33.9200   21.1696   77.3526 C   0  0  0  0  0  0  0  0  0  0  0  0
   35.3396   20.9592   76.8331 C   0  0  1  0  0  0  0  0  0  0  0  0
   35.3422   19.7858   76.0539 O   0  0  0  0  0  0  0  0  0  0  0  0
   35.7695   22.0925   75.8954 C   0  0  1  0  0  0  0  0  0  0  0  0
   36.4076   23.2657   76.4232 O   0  0  0  0  0  0  0  0  0  0  0  0
   36.5637   21.3503   74.7699 C   0  0  1  0  0  0  0  0  0  0  0  0
   37.7999   22.0518   74.5525 O   0  0  0  0  0  0  0  0  0  0  0  0
   36.4850   19.8468   75.2152 C   0  0  2  0  0  0  0  0  0  0  0  0
   27.3687   19.5186   77.5991 O   0  0  0  0  0  0  0  0  0  0  0  0
   37.1260   18.9290   70.1308 N   0  0  0  0  0  0  0  0  0  0  0  0
   37.4671   20.0164   70.8314 C   0  0  0  0  0  0  0  0  0  0  0  0
   37.2190   20.1114   72.1347 N   0  0  0  0  0  0  0  0  0  0  0  0
   36.6336   19.1052   72.8091 C   0  0  0  0  0  0  0  0  0  0  0  0
   36.2651   17.9216   72.1150 C   0  0  0  0  0  0  0  0  0  0  0  0
   36.5387   17.8680   70.7162 C   0  0  0  0  0  0  0  0  0  0  0  0
   36.2184   16.7480   69.9719 N   0  0  0  0  0  0  0  0  0  0  0  0
   35.7111   17.0820   73.0198 N   0  0  0  0  0  0  0  0  0  0  0  0
   35.7160   17.6511   74.1903 C   0  0  0  0  0  0  0  0  0  0  0  0
   36.2753   18.9029   74.1120 N   0  0  0  0  0  0  0  0  0  0  0  0
  2  1  1  1  0  0  0
  2  3  1  0  0  0  0
  2  5  1  0  0  0  0
  3  4  1  0  0  0  0
  3 17  1  0  0  0  0
  5  6  1  0  0  0  0
  7  6  1  1  0  0  0
  7  8  1  0  0  0  0
  7  9  1  0  0  0  0
 10  9  1  6  0  0  0
 10 11  1  0  0  0  0
 10 12  1  0  0  0  0
 11 16  1  0  0  0  0
 12 13  1  1  0  0  0
 12 14  1  0  0  0  0
 14 15  1  1  0  0  0
 14 16  1  0  0  0  0
 16 27  1  6  0  0  0
 18 19  2  0  0  0  0
 18 23  1  0  0  0  0
 19 20  1  0  0  0  0
 20 21  2  0  0  0  0
 21 22  1  0  0  0  0
 21 27  1  0  0  0  0
 22 23  2  0  0  0  0
 22 25  1  0  0  0  0
 23 24  1  0  0  0  0
 25 26  2  0  0  0  0
 26 27  1  0  0  0  0
M  END
>  <CHROM.1>
-165.35600239,-42.77988096,-120.68845641,-134.67119274,175.57168818,55.03002659
141.43820370,34.21005821,19.71935755,75.42633814,2.51759786,0.39438809,0.98531074

>  <Name>
ligand

>  <RI>
0

>  <Rbt.Current_Directory>
/home/itssahil/PROJECTS/Mol_Feturizer/New_Systems/rnas/2QWY

>  <Rbt.Executable>
rbdock ($Id: //depot/dev/client3/rdock/2013.1/src/exe/rbdock.cxx#4 $)

>  <Rbt.Library>
libRbt.so (2013.1, Build901 2013/11/27)

>  <Rbt.Parameter_File>
/export/apps/rDock/src/rDock_2013.1_src/data/scripts/dock_solv.prm

>  <Rbt.Receptor>
prm/pocket_docking_2.prm

>  <SCORE>
-9.68759

>  <SCORE.INTER>
-14.9741

>  <SCORE.INTER.CONST>
1

>  <SCORE.INTER.POLAR>
0

>  <SCORE.INTER.ROT>
7

>  <SCORE.INTER.SOLV>
18.204

>  <SCORE.INTER.VDW>
-24.3174

>  <SCORE.INTER.norm>
-0.554597

>  <SCORE.INTRA>
2.62485

>  <SCORE.INTRA.DIHEDRAL>
3.51834

>  <SCORE.INTRA.DIHEDRAL.0>
10.7382

>  <SCORE.INTRA.POLAR>
0

>  <SCORE.INTRA.POLAR.0>
0

>  <SCORE.INTRA.REPUL>
0

>  <SCORE.INTRA.REPUL.0>
0

>  <SCORE.INTRA.SOLV>
0.0250539

>  <SCORE.INTRA.SOLV.lig_0>
-49.2501

>  <SCORE.INTRA.VDW>
0.853157

>  <SCORE.INTRA.VDW.0>
-1.75368

>  <SCORE.INTRA.norm>
0.0972168

>  <SCORE.RESTR>
2.66169

>  <SCORE.RESTR.CAVITY>
2.66169

>  <SCORE.RESTR.norm>
0.098581

>  <SCORE.SYSTEM>
0

>  <SCORE.SYSTEM.CONST>
0

>  <SCORE.SYSTEM.DIHEDRAL>
0

>  <SCORE.SYSTEM.SOLV>
0

>  <SCORE.SYSTEM.norm>
0

>  <SCORE.heavy>
27

>  <SCORE.norm>
-0.358799

>  <RMSD>
8.179

$$$$
ligand
 OpenBabel11021811463D
libRbt.so/2013.1/901 2013/11/27
 27 29  0  0  0  0  0  0  0  0999 V2000
   28.9569   19.0718   77.3216 N   0  0  0  0  0  0  0  0  0  0  0  0
   29.8309   19.9285   78.1419 C   0  0  2  0  0  0  0  0  0  0  0  0
   29.6748   21.3777   77.7304 C   0  0  0  0  0  0  0  0  0  0  0  0
   28.6952   21.7310   77.0660 O   0  0  0  0  0  0  0  0  0  0  0  0
   31.2820   19.5082   77.9322 C   0  0  0  0  0  0  0  0  0  0  0  0
   32.1475   20.0042   79.0707 C   0  0  0  0  0  0  0  0  0  0  0  0
   33.8699   19.7880   78.5893 S   0  0  2  0  0  0  0  0  0  0  0  0
   34.6561   20.4767   80.0723 C   0  0  0  0  0  0  0  0  0  0  0  0
   34.0730   21.1805   77.4269 C   0  0  0  0  0  0  0  0  0  0  0  0
   35.4592   21.0933   76.7939 C   0  0  1  0  0  0  0  0  0  0  0  0
   35.5417   19.8655   76.1084 O   0  0  0  0  0  0  0  0  0  0  0  0
   35.6649   22.1841   75.7374 C   0  0  1  0  0  0  0  0  0  0  0  0
   36.1948   23.4648   76.1131 O   0  0  0  0  0  0  0  0  0  0  0  0
   36.4476   21.4456   74.6015 C   0  0  1  0  0  0  0  0  0  0  0  0
   37.5647   22.2653   74.2169 O   0  0  0  0  0  0  0  0  0  0  0  0
   36.5935   19.9871   75.1640 C   0  0  2  0  0  0  0  0  0  0  0  0
   30.4837   22.2076   78.1174 O   0  0  0  0  0  0  0  0  0  0  0  0
   37.0771   18.6621   70.1526 N   0  0  0  0  0  0  0  0  0  0  0  0
   37.3616   19.8313   70.7372 C   0  0  0  0  0  0  0  0  0  0  0  0
   37.1653   20.0253   72.0383 N   0  0  0  0  0  0  0  0  0  0  0  0
   36.6927   19.0433   72.8272 C   0  0  0  0  0  0  0  0  0  0  0  0
   36.3890   17.7772   72.2588 C   0  0  0  0  0  0  0  0  0  0  0  0
   36.6030   17.6175   70.8577 C   0  0  0  0  0  0  0  0  0  0  0  0
   36.3400   16.4136   70.2313 N   0  0  0  0  0  0  0  0  0  0  0  0
   35.9447   16.9839   73.2607 N   0  0  0  0  0  0  0  0  0  0  0  0
   35.9568   17.6557   74.3754 C   0  0  0  0  0  0  0  0  0  0  0  0
   36.4105   18.9338   74.1596 N   0  0  0  0  0  0  0  0  0  0  0  0
  2  1  1  6  0  0  0
  2  3  1  0  0  0  0
  2  5  1  0  0  0  0
  3  4  1  0  0  0  0
  3 17  1  0  0  0  0
  5  6  1  0  0  0  0
  7  6  1  1  0  0  0
  7  8  1  0  0  0  0
  7  9  1  0  0  0  0
 10  9  1  6  0  0  0
 10 11  1  0  0  0  0
 10 12  1  0  0  0  0
 11 16  1  0  0  0  0
 12 13  1  1  0  0  0
 12 14  1  0  0  0  0
 14 15  1  1  0  0  0
 14 16  1  0  0  0  0
 16 27  1  6  0  0  0
 18 19  2  0  0  0  0
 18 23  1  0  0  0  0
 19 20  1  0  0  0  0
 20 21  2  0  0  0  0
 21 22  1  0  0  0  0
 21 27  1  0  0  0  0
 22 23  2  0  0  0  0
 22 25  1  0  0  0  0
 23 24  1  0  0  0  0
 25 26  2  0  0  0  0
 26 27  1  0  0  0  0
M  END
>  <CHROM.1>
17.18469810,-160.40813743,-168.01260329,178.78435617,-174.66069166,60.31867887
144.87626141,34.47420573,20.00969119,75.47617464,2.35998838,0.37468466,0.91623446

>  <Name>
ligand

>  <RI>
0

>  <Rbt.Current_Directory>
/home/itssahil/PROJECTS/Mol_Feturizer/New_Systems/rnas/2QWY

>  <Rbt.Executable>
rbdock ($Id: //depot/dev/client3/rdock/2013.1/src/exe/rbdock.cxx#4 $)

>  <Rbt.Library>
libRbt.so (2013.1, Build901 2013/11/27)

>  <Rbt.Parameter_File>
/export/apps/rDock/src/rDock_2013.1_src/data/scripts/dock_solv.prm

>  <Rbt.Receptor>
prm/pocket_docking_3.prm

>  <SCORE>
-18.2972

>  <SCORE.INTER>
-15.4387

>  <SCORE.INTER.CONST>
1

>  <SCORE.INTER.POLAR>
0

>  <SCORE.INTER.ROT>
7

>  <SCORE.INTER.SOLV>
18.0899

>  <SCORE.INTER.VDW>
-24.5891

>  <SCORE.INTER.norm>
-0.571803

>  <SCORE.INTRA>
-2.86371

>  <SCORE.INTRA.DIHEDRAL>
-4.9588

>  <SCORE.INTRA.DIHEDRAL.0>
10.7382

>  <SCORE.INTRA.POLAR>
0

>  <SCORE.INTRA.POLAR.0>
0

>  <SCORE.INTRA.REPUL>
0

>  <SCORE.INTRA.REPUL.0>
0

>  <SCORE.INTRA.SOLV>
-1.07637

>  <SCORE.INTRA.SOLV.lig_0>
-49.2501

>  <SCORE.INTRA.VDW>
0.153873

>  <SCORE.INTRA.VDW.0>
-1.75368

>  <SCORE.INTRA.norm>
-0.106063

>  <SCORE.RESTR>
0.00517458

>  <SCORE.RESTR.CAVITY>
0.00517458

>  <SCORE.RESTR.norm>
0.000191651

>  <SCORE.SYSTEM>
0

>  <SCORE.SYSTEM.CONST>
0

>  <SCORE.SYSTEM.DIHEDRAL>
0

>  <SCORE.SYSTEM.SOLV>
0

>  <SCORE.SYSTEM.norm>
0

>  <SCORE.heavy>
27

>  <SCORE.norm>
-0.677675

>  <RMSD>
8.183

$$$$
ligand
 OpenBabel11021811463D
libRbt.so/2013.1/901 2013/11/27
 27 29  0  0  0  0  0  0  0  0999 V2000
   34.3036   21.5926   82.4074 N   0  0  0  0  0  0  0  0  0  0  0  0
   34.6516   20.4266   81.5767 C   0  0  2  0  0  0  0  0  0  0  0  0
   36.1182   20.0872   81.7435 C   0  0  0  0  0  0  0  0  0  0  0  0
   36.7524   20.5353   82.7042 O   0  0  0  0  0  0  0  0  0  0  0  0
   34.3842   20.7588   80.1123 C   0  0  0  0  0  0  0  0  0  0  0  0
   32.8972   20.7488   79.8294 C   0  0  0  0  0  0  0  0  0  0  0  0
   32.6670   21.0853   78.0746 S   0  0  2  0  0  0  0  0  0  0  0  0
   30.8710   20.8446   77.9840 C   0  0  0  0  0  0  0  0  0  0  0  0
   33.2510   19.5151   77.3501 C   0  0  0  0  0  0  0  0  0  0  0  0
   34.7695   19.5745   77.2088 C   0  0  1  0  0  0  0  0  0  0  0  0
   35.2096   18.3108   76.7688 O   0  0  0  0  0  0  0  0  0  0  0  0
   35.1954   20.5727   76.1268 C   0  0  1  0  0  0  0  0  0  0  0  0
   35.4262   21.9496   76.4630 O   0  0  0  0  0  0  0  0  0  0  0  0
   36.3878   19.8506   75.4163 C   0  0  1  0  0  0  0  0  0  0  0  0
   37.4725   20.7864   75.2922 O   0  0  0  0  0  0  0  0  0  0  0  0
   36.4962   18.4943   76.1996 C   0  0  2  0  0  0  0  0  0  0  0  0
   36.6529   19.3126   80.9646 O   0  0  0  0  0  0  0  0  0  0  0  0
   36.4836   16.5683   71.3627 N   0  0  0  0  0  0  0  0  0  0  0  0
   36.1081   17.7836   71.7774 C   0  0  0  0  0  0  0  0  0  0  0  0
   36.1520   18.1254   73.0621 N   0  0  0  0  0  0  0  0  0  0  0  0
   36.5990   17.2683   73.9978 C   0  0  0  0  0  0  0  0  0  0  0  0
   37.0243   15.9700   73.6083 C   0  0  0  0  0  0  0  0  0  0  0  0
   36.9484   15.6418   72.2222 C   0  0  0  0  0  0  0  0  0  0  0  0
   37.3515   14.4021   71.7623 N   0  0  0  0  0  0  0  0  0  0  0  0
   37.4259   15.3265   74.7286 N   0  0  0  0  0  0  0  0  0  0  0  0
   37.2833   16.1189   75.7512 C   0  0  0  0  0  0  0  0  0  0  0  0
   36.7750   17.3304   75.3513 N   0  0  0  0  0  0  0  0  0  0  0  0
  2  1  1  1  0  0  0
  2  3  1  0  0  0  0
  2  5  1  0  0  0  0
  3  4  1  0  0  0  0
  3 17  1  0  0  0  0
  5  6  1  0  0  0  0
  7  6  1  1  0  0  0
  7  8  1  0  0  0  0
  7  9  1  0  0  0  0
 10  9  1  6  0  0  0
 10 11  1  0  0  0  0
 10 12  1  0  0  0  0
 11 16  1  0  0  0  0
 12 13  1  1  0  0  0
 12 14  1  0  0  0  0
 14 15  1  1  0  0  0
 14 16  1  0  0  0  0
 16 27  1  6  0  0  0
 18 19  2  0  0  0  0
 18 23  1  0  0  0  0
 19 20  1  0  0  0  0
 20 21  2  0  0  0  0
 21 22  1  0  0  0  0
 21 27  1  0  0  0  0
 22 23  2  0  0  0  0
 22 25  1  0  0  0  0
 23 24  1  0  0  0  0
 25 26  2  0  0  0  0
 26 27  1  0  0  0  0
M  END
>  <CHROM.1>
17.01411734,-74.52381980,-177.85284153,174.38722308,-84.49945735,174.51516415
97.31256354,35.45406776,19.03438774,76.82298755,-1.92271725,0.64653123,-1.87287655

>  <Name>
ligand

>  <RI>
0

>  <Rbt.Current_Directory>
/home/itssahil/PROJECTS/Mol_Feturizer/New_Systems/rnas/2QWY

>  <Rbt.Executable>
rbdock ($Id: //depot/dev/client3/rdock/2013.1/src/exe/rbdock.cxx#4 $)

>  <Rbt.Library>
libRbt.so (2013.1, Build901 2013/11/27)

>  <Rbt.Parameter_File>
/export/apps/rDock/src/rDock_2013.1_src/data/scripts/dock_solv.prm

>  <Rbt.Receptor>
prm/pocket_docking_4.prm

>  <SCORE>
-16.1498

>  <SCORE.INTER>
-12.753

>  <SCORE.INTER.CONST>
1

>  <SCORE.INTER.POLAR>
0

>  <SCORE.INTER.ROT>
7

>  <SCORE.INTER.SOLV>
7.58672

>  <SCORE.INTER.VDW>
-19.2976

>  <SCORE.INTER.norm>
-0.472334

>  <SCORE.INTRA>
-3.39683

>  <SCORE.INTRA.DIHEDRAL>
-6.00618

>  <SCORE.INTRA.DIHEDRAL.0>
10.7382

>  <SCORE.INTRA.POLAR>
0

>  <SCORE.INTRA.POLAR.0>
0

>  <SCORE.INTRA.REPUL>
0

>  <SCORE.INTRA.REPUL.0>
0

>  <SCORE.INTRA.SOLV>
-0.303335

>  <SCORE.INTRA.SOLV.lig_0>
-49.2501

>  <SCORE.INTRA.VDW>
-0.242074

>  <SCORE.INTRA.VDW.0>
-1.75368

>  <SCORE.INTRA.norm>
-0.125809

>  <SCORE.RESTR>
0

>  <SCORE.RESTR.CAVITY>
0

>  <SCORE.RESTR.norm>
0

>  <SCORE.SYSTEM>
0

>  <SCORE.SYSTEM.CONST>
0

>  <SCORE.SYSTEM.DIHEDRAL>
0

>  <SCORE.SYSTEM.SOLV>
0

>  <SCORE.SYSTEM.norm>
0

>  <SCORE.heavy>
27

>  <SCORE.norm>
-0.598142

>  <RMSD>
8.239

$$$$
ligand
 OpenBabel11021811463D
libRbt.so/2013.1/901 2013/11/27
 27 29  0  0  0  0  0  0  0  0999 V2000
   34.8826   14.2867   66.5838 N   0  0  0  0  0  0  0  0  0  0  0  0
   34.9460   13.3794   67.7429 C   0  0  2  0  0  0  0  0  0  0  0  0
   33.8275   13.6958   68.7140 C   0  0  0  0  0  0  0  0  0  0  0  0
   32.9741   14.5397   68.4222 O   0  0  0  0  0  0  0  0  0  0  0  0
   36.2837   13.5664   68.4512 C   0  0  0  0  0  0  0  0  0  0  0  0
   36.6118   12.3524   69.2938 C   0  0  0  0  0  0  0  0  0  0  0  0
   37.9796   12.7889   70.3818 S   0  0  2  0  0  0  0  0  0  0  0  0
   38.4385   11.1202   70.9260 C   0  0  0  0  0  0  0  0  0  0  0  0
   37.0687   13.3796   71.8492 C   0  0  0  0  0  0  0  0  0  0  0  0
   36.6219   14.8181   71.6033 C   0  0  1  0  0  0  0  0  0  0  0  0
   36.2314   15.3641   72.8417 O   0  0  0  0  0  0  0  0  0  0  0  0
   37.7789   15.6887   71.1014 C   0  0  1  0  0  0  0  0  0  0  0  0
   38.0447   15.7983   69.6945 O   0  0  0  0  0  0  0  0  0  0  0  0
   37.5604   17.0470   71.8468 C   0  0  1  0  0  0  0  0  0  0  0  0
   37.6653   18.1111   70.8854 O   0  0  0  0  0  0  0  0  0  0  0  0
   36.2741   16.7757   72.7051 C   0  0  2  0  0  0  0  0  0  0  0  0
   33.7325   13.0634   69.7550 O   0  0  0  0  0  0  0  0  0  0  0  0
   35.3569   20.9689   75.6512 N   0  0  0  0  0  0  0  0  0  0  0  0
   35.1888   20.8237   74.3319 C   0  0  0  0  0  0  0  0  0  0  0  0
   35.4879   19.6850   73.7130 N   0  0  0  0  0  0  0  0  0  0  0  0
   35.9514   18.6211   74.3937 C   0  0  0  0  0  0  0  0  0  0  0  0
   36.1336   18.7178   75.7993 C   0  0  0  0  0  0  0  0  0  0  0  0
   35.8121   19.9612   76.4197 C   0  0  0  0  0  0  0  0  0  0  0  0
   35.9537   20.1323   77.7841 N   0  0  0  0  0  0  0  0  0  0  0  0
   36.5959   17.5203   76.2272 N   0  0  0  0  0  0  0  0  0  0  0  0
   36.7048   16.7158   75.2099 C   0  0  0  0  0  0  0  0  0  0  0  0
   36.3190   17.3497   74.0543 N   0  0  0  0  0  0  0  0  0  0  0  0
  2  1  1  6  0  0  0
  2  3  1  0  0  0  0
  2  5  1  0  0  0  0
  3  4  1  0  0  0  0
  3 17  1  0  0  0  0
  5  6  1  0  0  0  0
  7  6  1  6  0  0  0
  7  8  1  0  0  0  0
  7  9  1  0  0  0  0
 10  9  1  1  0  0  0
 10 11  1  0  0  0  0
 10 12  1  0  0  0  0
 11 16  1  0  0  0  0
 12 13  1  6  0  0  0
 12 14  1  0  0  0  0
 14 15  1  6  0  0  0
 14 16  1  0  0  0  0
 16 27  1  1  0  0  0
 18 19  2  0  0  0  0
 18 23  1  0  0  0  0
 19 20  1  0  0  0  0
 20 21  2  0  0  0  0
 21 22  1  0  0  0  0
 21 27  1  0  0  0  0
 22 23  2  0  0  0  0
 22 25  1  0  0  0  0
 23 24  1  0  0  0  0
 25 26  2  0  0  0  0
 26 27  1  0  0  0  0
M  END
>  <CHROM.1>
5.36022374,-159.03535768,-167.02360446,-166.06688137,-80.68131686,-165.34903405
-158.02671252,36.25407935,15.91723106,71.91146365,1.56789325,0.74905107,-2.33051727

>  <Name>
ligand

>  <RI>
0

>  <Rbt.Current_Directory>
/home/itssahil/PROJECTS/Mol_Feturizer/New_Systems/rnas/2QWY

>  <Rbt.Executable>
rbdock ($Id: //depot/dev/client3/rdock/2013.1/src/exe/rbdock.cxx#4 $)

>  <Rbt.Library>
libRbt.so (2013.1, Build901 2013/11/27)

>  <Rbt.Parameter_File>
/export/apps/rDock/src/rDock_2013.1_src/data/scripts/dock_solv.prm

>  <Rbt.Receptor>
prm/pocket_docking_6.prm

>  <SCORE>
-12.2898

>  <SCORE.INTER>
-10.0505

>  <SCORE.INTER.CONST>
1

>  <SCORE.INTER.POLAR>
0

>  <SCORE.INTER.ROT>
7

>  <SCORE.INTER.SOLV>
7.43237

>  <SCORE.INTER.VDW>
-17.4444

>  <SCORE.INTER.norm>
-0.37224

>  <SCORE.INTRA>
-2.2393

>  <SCORE.INTRA.DIHEDRAL>
-2.85062

>  <SCORE.INTRA.DIHEDRAL.0>
10.7382

>  <SCORE.INTRA.POLAR>
0

>  <SCORE.INTRA.POLAR.0>
0

>  <SCORE.INTRA.REPUL>
0

>  <SCORE.INTRA.REPUL.0>
0

>  <SCORE.INTRA.SOLV>
-0.660594

>  <SCORE.INTRA.SOLV.lig_0>
-49.2501

>  <SCORE.INTRA.VDW>
-0.483688

>  <SCORE.INTRA.VDW.0>
-1.75368

>  <SCORE.INTRA.norm>
-0.0829369

>  <SCORE.RESTR>
0

>  <SCORE.RESTR.CAVITY>
0

>  <SCORE.RESTR.norm>
0

>  <SCORE.SYSTEM>
0

>  <SCORE.SYSTEM.CONST>
0

>  <SCORE.SYSTEM.DIHEDRAL>
0

>  <SCORE.SYSTEM.SOLV>
0

>  <SCORE.SYSTEM.norm>
0

>  <SCORE.heavy>
27

>  <SCORE.norm>
-0.455177

>  <RMSD>
8.252

$$$$
ligand
 OpenBabel11021811463D
libRbt.so/2013.1/901 2013/11/27
 27 29  0  0  0  0  0  0  0  0999 V2000
   28.5342   21.1387   78.0410 N   0  0  0  0  0  0  0  0  0  0  0  0
   29.1220   19.9706   77.3621 C   0  0  2  0  0  0  0  0  0  0  0  0
   28.2042   18.7734   77.4967 C   0  0  0  0  0  0  0  0  0  0  0  0
   28.5370   17.8135   78.1993 O   0  0  0  0  0  0  0  0  0  0  0  0
   30.4638   19.6404   78.0077 C   0  0  0  0  0  0  0  0  0  0  0  0
   31.4673   20.7410   77.7377 C   0  0  0  0  0  0  0  0  0  0  0  0
   33.1168   20.0304   77.8774 S   0  0  2  0  0  0  0  0  0  0  0  0
   33.2711   20.0527   79.6850 C   0  0  0  0  0  0  0  0  0  0  0  0
   34.1445   21.4731   77.4370 C   0  0  0  0  0  0  0  0  0  0  0  0
   35.5557   20.9901   77.1135 C   0  0  1  0  0  0  0  0  0  0  0  0
   35.4468   19.9387   76.1824 O   0  0  0  0  0  0  0  0  0  0  0  0
   36.3806   22.0829   76.4253 C   0  0  1  0  0  0  0  0  0  0  0  0
   37.1498   23.0096   77.2074 O   0  0  0  0  0  0  0  0  0  0  0  0
   37.1866   21.2981   75.3377 C   0  0  1  0  0  0  0  0  0  0  0  0
   38.5630   21.7072   75.4135 O   0  0  0  0  0  0  0  0  0  0  0  0
   36.7080   19.8172   75.5440 C   0  0  2  0  0  0  0  0  0  0  0  0
   27.1041   18.7908   76.9654 O   0  0  0  0  0  0  0  0  0  0  0  0
   37.4811   19.7077   70.3967 N   0  0  0  0  0  0  0  0  0  0  0  0
   37.8350   20.6544   71.2732 C   0  0  0  0  0  0  0  0  0  0  0  0
   37.5485   20.5472   72.5676 N   0  0  0  0  0  0  0  0  0  0  0  0
   36.9092   19.4681   73.0542 C   0  0  0  0  0  0  0  0  0  0  0  0
   36.5246   18.4266   72.1679 C   0  0  0  0  0  0  0  0  0  0  0  0
   36.8409   18.5890   70.7865 C   0  0  0  0  0  0  0  0  0  0  0  0
   36.5082   17.6165   69.8622 N   0  0  0  0  0  0  0  0  0  0  0  0
   35.9147   17.4734   72.9095 N   0  0  0  0  0  0  0  0  0  0  0  0
   35.9008   17.8458   74.1565 C   0  0  0  0  0  0  0  0  0  0  0  0
   36.5030   19.0720   74.2972 N   0  0  0  0  0  0  0  0  0  0  0  0
  2  1  1  1  0  0  0
  2  3  1  0  0  0  0
  2  5  1  0  0  0  0
  3  4  1  0  0  0  0
  3 17  1  0  0  0  0
  5  6  1  0  0  0  0
  7  6  1  1  0  0  0
  7  8  1  0  0  0  0
  7  9  1  0  0  0  0
 10  9  1  6  0  0  0
 10 11  1  0  0  0  0
 10 12  1  0  0  0  0
 11 16  1  0  0  0  0
 12 13  1  1  0  0  0
 12 14  1  0  0  0  0
 14 15  1  1  0  0  0
 14 16  1  0  0  0  0
 16 27  1  6  0  0  0
 18 19  2  0  0  0  0
 18 23  1  0  0  0  0
 19 20  1  0  0  0  0
 20 21  2  0  0  0  0
 21 22  1  0  0  0  0
 21 27  1  0  0  0  0
 22 23  2  0  0  0  0
 22 25  1  0  0  0  0
 23 24  1  0  0  0  0
 25 26  2  0  0  0  0
 26 27  1  0  0  0  0
M  END
>  <CHROM.1>
-110.83285172,-67.09158282,-156.30506928,-80.30787520,-164.22957529,50.63112618
127.63952251,34.27793368,19.90994585,75.53617845,2.63110844,0.33863836,1.05416323

>  <Name>
ligand

>  <RI>
0

>  <Rbt.Current_Directory>
/home/itssahil/PROJECTS/Mol_Feturizer/New_Systems/rnas/2QWY

>  <Rbt.Executable>
rbdock ($Id: //depot/dev/client3/rdock/2013.1/src/exe/rbdock.cxx#4 $)

>  <Rbt.Library>
libRbt.so (2013.1, Build901 2013/11/27)

>  <Rbt.Parameter_File>
/export/apps/rDock/src/rDock_2013.1_src/data/scripts/dock_solv.prm

>  <Rbt.Receptor>
prm/pocket_docking_4.prm

>  <SCORE>
-17.47

>  <SCORE.INTER>
-16.9155

>  <SCORE.INTER.CONST>
1

>  <SCORE.INTER.POLAR>
0

>  <SCORE.INTER.ROT>
7

>  <SCORE.INTER.SOLV>
18.4286

>  <SCORE.INTER.VDW>
-25.6865

>  <SCORE.INTER.norm>
-0.6265

>  <SCORE.INTRA>
-0.554536

>  <SCORE.INTRA.DIHEDRAL>
-3.25476

>  <SCORE.INTRA.DIHEDRAL.0>
10.7382

>  <SCORE.INTRA.POLAR>
0

>  <SCORE.INTRA.POLAR.0>
0

>  <SCORE.INTRA.REPUL>
0

>  <SCORE.INTRA.REPUL.0>
0

>  <SCORE.INTRA.SOLV>
-0.441989

>  <SCORE.INTRA.SOLV.lig_0>
-49.2501

>  <SCORE.INTRA.VDW>
1.29384

>  <SCORE.INTRA.VDW.0>
-1.75368

>  <SCORE.INTRA.norm>
-0.0205384

>  <SCORE.RESTR>
0

>  <SCORE.RESTR.CAVITY>
0

>  <SCORE.RESTR.norm>
0

>  <SCORE.SYSTEM>
0

>  <SCORE.SYSTEM.CONST>
0

>  <SCORE.SYSTEM.DIHEDRAL>
0

>  <SCORE.SYSTEM.SOLV>
0

>  <SCORE.SYSTEM.norm>
0

>  <SCORE.heavy>
27

>  <SCORE.norm>
-0.647038

>  <RMSD>
8.257

$$$$
ligand
 OpenBabel11021811463D
libRbt.so/2013.1/901 2013/11/27
 27 29  0  0  0  0  0  0  0  0999 V2000
   38.2244   23.2421   76.8845 N   0  0  0  0  0  0  0  0  0  0  0  0
   37.0501   23.3621   76.0029 C   0  0  2  0  0  0  0  0  0  0  0  0
   35.8977   23.9964   76.7536 C   0  0  0  0  0  0  0  0  0  0  0  0
   35.4436   23.4528   77.7656 O   0  0  0  0  0  0  0  0  0  0  0  0
   36.6311   21.9716   75.5367 C   0  0  0  0  0  0  0  0  0  0  0  0
   37.6607   21.3984   74.5865 C   0  0  0  0  0  0  0  0  0  0  0  0
   37.1765   19.7060   74.2035 S   0  0  2  0  0  0  0  0  0  0  0  0
   35.4757   20.0256   73.6587 C   0  0  0  0  0  0  0  0  0  0  0  0
   36.8724   19.0539   75.8809 C   0  0  0  0  0  0  0  0  0  0  0  0
   37.1574   17.5544   75.8837 C   0  0  1  0  0  0  0  0  0  0  0  0
   36.3929   16.9702   74.8549 O   0  0  0  0  0  0  0  0  0  0  0  0
   38.6223   17.2594   75.5439 C   0  0  1  0  0  0  0  0  0  0  0  0
   39.6076   17.1919   76.5864 O   0  0  0  0  0  0  0  0  0  0  0  0
   38.5342   15.9950   74.6264 C   0  0  1  0  0  0  0  0  0  0  0  0
   39.4931   15.0308   75.0938 O   0  0  0  0  0  0  0  0  0  0  0  0
   36.9904   15.7193   74.5528 C   0  0  2  0  0  0  0  0  0  0  0  0
   35.4661   25.0819   76.3958 O   0  0  0  0  0  0  0  0  0  0  0  0
   36.4136   17.0759   69.5598 N   0  0  0  0  0  0  0  0  0  0  0  0
   36.9252   17.7947   70.5654 C   0  0  0  0  0  0  0  0  0  0  0  0
   36.9894   17.3129   71.8035 N   0  0  0  0  0  0  0  0  0  0  0  0
   36.5623   16.0701   72.0922 C   0  0  0  0  0  0  0  0  0  0  0  0
   36.0242   15.2595   71.0570 C   0  0  0  0  0  0  0  0  0  0  0  0
   35.9630   15.8209   69.7472 C   0  0  0  0  0  0  0  0  0  0  0  0
   35.4610   15.0929   68.6847 N   0  0  0  0  0  0  0  0  0  0  0  0
   35.6839   14.0735   71.6122 N   0  0  0  0  0  0  0  0  0  0  0  0
   35.9704   14.0977   72.8815 C   0  0  0  0  0  0  0  0  0  0  0  0
   36.5149   15.3104   73.2267 N   0  0  0  0  0  0  0  0  0  0  0  0
  2  1  1  1  0  0  0
  2  3  1  0  0  0  0
  2  5  1  0  0  0  0
  3  4  1  0  0  0  0
  3 17  1  0  0  0  0
  5  6  1  0  0  0  0
  7  6  1  1  0  0  0
  7  8  1  0  0  0  0
  7  9  1  0  0  0  0
 10  9  1  6  0  0  0
 10 11  1  0  0  0  0
 10 12  1  0  0  0  0
 11 16  1  0  0  0  0
 12 13  1  1  0  0  0
 12 14  1  0  0  0  0
 14 15  1  1  0  0  0
 14 16  1  0  0  0  0
 16 27  1  6  0  0  0
 18 19  2  0  0  0  0
 18 23  1  0  0  0  0
 19 20  1  0  0  0  0
 20 21  2  0  0  0  0
 21 22  1  0  0  0  0
 21 27  1  0  0  0  0
 22 23  2  0  0  0  0
 22 25  1  0  0  0  0
 23 24  1  0  0  0  0
 25 26  2  0  0  0  0
 26 27  1  0  0  0  0
M  END
>  <CHROM.1>
-60.05343419,-69.34783150,174.81251947,53.34129528,-150.87222527,-53.95708788
52.10375477,36.89044529,18.46982621,74.03205234,-1.56638385,1.05206184,-2.58371076

>  <Name>
ligand

>  <RI>
0

>  <Rbt.Current_Directory>
/home/itssahil/PROJECTS/Mol_Feturizer/New_Systems/rnas/2QWY

>  <Rbt.Executable>
rbdock ($Id: //depot/dev/client3/rdock/2013.1/src/exe/rbdock.cxx#4 $)

>  <Rbt.Library>
libRbt.so (2013.1, Build901 2013/11/27)

>  <Rbt.Parameter_File>
/export/apps/rDock/src/rDock_2013.1_src/data/scripts/dock_solv.prm

>  <Rbt.Receptor>
prm/pocket_docking_5.prm

>  <SCORE>
-13.6365

>  <SCORE.INTER>
-13.1354

>  <SCORE.INTER.CONST>
1

>  <SCORE.INTER.POLAR>
0

>  <SCORE.INTER.ROT>
7

>  <SCORE.INTER.SOLV>
6.28325

>  <SCORE.INTER.VDW>
-19.118

>  <SCORE.INTER.norm>
-0.486495

>  <SCORE.INTRA>
-0.508716

>  <SCORE.INTRA.DIHEDRAL>
-3.92924

>  <SCORE.INTRA.DIHEDRAL.0>
10.7382

>  <SCORE.INTRA.POLAR>
0

>  <SCORE.INTRA.POLAR.0>
0

>  <SCORE.INTRA.REPUL>
0

>  <SCORE.INTRA.REPUL.0>
0

>  <SCORE.INTRA.SOLV>
-0.139289

>  <SCORE.INTRA.SOLV.lig_0>
-49.2501

>  <SCORE.INTRA.VDW>
1.52555

>  <SCORE.INTRA.VDW.0>
-1.75368

>  <SCORE.INTRA.norm>
-0.0188413

>  <SCORE.RESTR>
0.00758533

>  <SCORE.RESTR.CAVITY>
0.00758533

>  <SCORE.RESTR.norm>
0.000280938

>  <SCORE.SYSTEM>
0

>  <SCORE.SYSTEM.CONST>
0

>  <SCORE.SYSTEM.DIHEDRAL>
0

>  <SCORE.SYSTEM.SOLV>
0

>  <SCORE.SYSTEM.norm>
0

>  <SCORE.heavy>
27

>  <SCORE.norm>
-0.505055

>  <RMSD>
8.270

$$$$
ligand
 OpenBabel11021811463D
libRbt.so/2013.1/901 2013/11/27
 27 29  0  0  0  0  0  0  0  0999 V2000
   30.9587   24.5453   86.1854 N   0  0  0  0  0  0  0  0  0  0  0  0
   30.9458   24.3291   84.7280 C   0  0  2  0  0  0  0  0  0  0  0  0
   29.8915   23.3050   84.3626 C   0  0  0  0  0  0  0  0  0  0  0  0
   29.2207   23.4461   83.3350 O   0  0  0  0  0  0  0  0  0  0  0  0
   32.3114   23.8120   84.2876 C   0  0  0  0  0  0  0  0  0  0  0  0
   32.3790   23.7119   82.7787 C   0  0  0  0  0  0  0  0  0  0  0  0
   34.1166   23.7072   82.3032 S   0  0  2  0  0  0  0  0  0  0  0  0
   34.5082   25.4373   82.6837 C   0  0  0  0  0  0  0  0  0  0  0  0
   33.9696   23.7905   80.4857 C   0  0  0  0  0  0  0  0  0  0  0  0
   33.6717   22.3917   79.9528 C   0  0  1  0  0  0  0  0  0  0  0  0
   32.2755   22.2763   79.8061 O   0  0  0  0  0  0  0  0  0  0  0  0
   34.2640   22.1842   78.5547 C   0  0  1  0  0  0  0  0  0  0  0  0
   35.6009   21.6825   78.4022 O   0  0  0  0  0  0  0  0  0  0  0  0
   33.1563   21.3686   77.8090 C   0  0  1  0  0  0  0  0  0  0  0  0
   33.7838   20.2582   77.1450 O   0  0  0  0  0  0  0  0  0  0  0  0
   32.0399   21.2093   78.9011 C   0  0  2  0  0  0  0  0  0  0  0  0
   29.7561   22.3037   85.0495 O   0  0  0  0  0  0  0  0  0  0  0  0
   27.7467   18.7557   77.2724 N   0  0  0  0  0  0  0  0  0  0  0  0
   28.9048   18.2264   77.6829 C   0  0  0  0  0  0  0  0  0  0  0  0
   29.9271   18.9915   78.0550 N   0  0  0  0  0  0  0  0  0  0  0  0
   29.8309   20.3335   78.0559 C   0  0  0  0  0  0  0  0  0  0  0  0
   28.6172   20.9460   77.6433 C   0  0  0  0  0  0  0  0  0  0  0  0
   27.5515   20.0876   77.2409 C   0  0  0  0  0  0  0  0  0  0  0  0
   26.3362   20.6061   76.8345 N   0  0  0  0  0  0  0  0  0  0  0  0
   28.7881   22.2842   77.7462 N   0  0  0  0  0  0  0  0  0  0  0  0
   29.9890   22.5295   78.1840 C   0  0  0  0  0  0  0  0  0  0  0  0
   30.6728   21.3564   78.3898 N   0  0  0  0  0  0  0  0  0  0  0  0
  2  1  1  1  0  0  0
  2  3  1  0  0  0  0
  2  5  1  0  0  0  0
  3  4  1  0  0  0  0
  3 17  1  0  0  0  0
  5  6  1  0  0  0  0
  7  6  1  1  0  0  0
  7  8  1  0  0  0  0
  7  9  1  0  0  0  0
 10  9  1  6  0  0  0
 10 11  1  0  0  0  0
 10 12  1  0  0  0  0
 11 16  1  0  0  0  0
 12 13  1  1  0  0  0
 12 14  1  0  0  0  0
 14 15  1  1  0  0  0
 14 16  1  0  0  0  0
 16 27  1  6  0  0  0
 18 19  2  0  0  0  0
 18 23  1  0  0  0  0
 19 20  1  0  0  0  0
 20 21  2  0  0  0  0
 21 22  1  0  0  0  0
 21 27  1  0  0  0  0
 22 23  2  0  0  0  0
 22 25  1  0  0  0  0
 23 24  1  0  0  0  0
 25 26  2  0  0  0  0
 26 27  1  0  0  0  0
M  END
>  <CHROM.1>
141.78943047,-174.27459710,159.18286157,-70.86006623,-80.52565483,95.19968000
-146.48087964,31.36801211,22.11350173,80.30714970,1.16426871,0.22979749,1.11899215

>  <Name>
ligand

>  <RI>
0

>  <Rbt.Current_Directory>
/home/itssahil/PROJECTS/Mol_Feturizer/New_Systems/rnas/2QWY

>  <Rbt.Executable>
rbdock ($Id: //depot/dev/client3/rdock/2013.1/src/exe/rbdock.cxx#4 $)

>  <Rbt.Library>
libRbt.so (2013.1, Build901 2013/11/27)

>  <Rbt.Parameter_File>
/export/apps/rDock/src/rDock_2013.1_src/data/scripts/dock_solv.prm

>  <Rbt.Receptor>
prm/pocket_docking_8.prm

>  <SCORE>
-26.5723

>  <SCORE.INTER>
-24.7955

>  <SCORE.INTER.CONST>
1

>  <SCORE.INTER.POLAR>
0

>  <SCORE.INTER.ROT>
7

>  <SCORE.INTER.SOLV>
8.45915

>  <SCORE.INTER.VDW>
-27.6167

>  <SCORE.INTER.norm>
-0.918351

>  <SCORE.INTRA>
-1.77685

>  <SCORE.INTRA.DIHEDRAL>
-2.30695

>  <SCORE.INTRA.DIHEDRAL.0>
10.7382

>  <SCORE.INTRA.POLAR>
0

>  <SCORE.INTRA.POLAR.0>
0

>  <SCORE.INTRA.REPUL>
0

>  <SCORE.INTRA.REPUL.0>
0

>  <SCORE.INTRA.SOLV>
-1.26732

>  <SCORE.INTRA.SOLV.lig_0>
-49.2501

>  <SCORE.INTRA.VDW>
0.010281

>  <SCORE.INTRA.VDW.0>
-1.75368

>  <SCORE.INTRA.norm>
-0.0658094

>  <SCORE.RESTR>
0

>  <SCORE.RESTR.CAVITY>
0

>  <SCORE.RESTR.norm>
0

>  <SCORE.SYSTEM>
0

>  <SCORE.SYSTEM.CONST>
0

>  <SCORE.SYSTEM.DIHEDRAL>
0

>  <SCORE.SYSTEM.SOLV>
0

>  <SCORE.SYSTEM.norm>
0

>  <SCORE.heavy>
27

>  <SCORE.norm>
-0.984161

>  <RMSD>
8.275

$$$$
ligand
 OpenBabel11021811463D
libRbt.so/2013.1/901 2013/11/27
 27 29  0  0  0  0  0  0  0  0999 V2000
   29.0781   21.1535   78.2019 N   0  0  0  0  0  0  0  0  0  0  0  0
   29.5813   19.9698   77.4833 C   0  0  2  0  0  0  0  0  0  0  0  0
   28.4655   18.9641   77.2904 C   0  0  0  0  0  0  0  0  0  0  0  0
   28.7315   17.7824   77.0482 O   0  0  0  0  0  0  0  0  0  0  0  0
   30.6937   19.3234   78.3025 C   0  0  0  0  0  0  0  0  0  0  0  0
   31.6791   20.3699   78.7773 C   0  0  0  0  0  0  0  0  0  0  0  0
   33.3377   19.6937   78.5849 S   0  0  2  0  0  0  0  0  0  0  0  0
   34.2803   21.0843   79.2701 C   0  0  0  0  0  0  0  0  0  0  0  0
   33.6049   19.9576   76.7987 C   0  0  0  0  0  0  0  0  0  0  0  0
   35.1022   19.8871   76.5107 C   0  0  1  0  0  0  0  0  0  0  0  0
   35.2745   19.1828   75.3031 O   0  0  0  0  0  0  0  0  0  0  0  0
   35.6966   21.2803   76.2781 C   0  0  1  0  0  0  0  0  0  0  0  0
   36.2022   22.0452   77.3834 O   0  0  0  0  0  0  0  0  0  0  0  0
   36.7084   21.0519   75.1067 C   0  0  1  0  0  0  0  0  0  0  0  0
   37.9544   21.6774   75.4584 O   0  0  0  0  0  0  0  0  0  0  0  0
   36.5608   19.5179   74.8069 C   0  0  2  0  0  0  0  0  0  0  0  0
   27.3042   19.3109   77.4449 O   0  0  0  0  0  0  0  0  0  0  0  0
   36.0882   15.7438   71.2521 N   0  0  0  0  0  0  0  0  0  0  0  0
   36.0068   15.6497   72.5841 C   0  0  0  0  0  0  0  0  0  0  0  0
   36.1696   16.7115   73.3685 N   0  0  0  0  0  0  0  0  0  0  0  0
   36.4006   17.9322   72.8522 C   0  0  0  0  0  0  0  0  0  0  0  0
   36.4811   18.0895   71.4426 C   0  0  0  0  0  0  0  0  0  0  0  0
   36.3129   16.9222   70.6403 C   0  0  0  0  0  0  0  0  0  0  0  0
   36.3686   16.9937   69.2610 N   0  0  0  0  0  0  0  0  0  0  0  0
   36.7102   19.4003   71.1976 N   0  0  0  0  0  0  0  0  0  0  0  0
   36.7715   20.0421   72.3282 C   0  0  0  0  0  0  0  0  0  0  0  0
   36.5870   19.1785   73.3800 N   0  0  0  0  0  0  0  0  0  0  0  0
  2  1  1  1  0  0  0
  2  3  1  0  0  0  0
  2  5  1  0  0  0  0
  3  4  1  0  0  0  0
  3 17  1  0  0  0  0
  5  6  1  0  0  0  0
  7  6  1  6  0  0  0
  7  8  1  0  0  0  0
  7  9  1  0  0  0  0
 10  9  1  6  0  0  0
 10 11  1  0  0  0  0
 10 12  1  0  0  0  0
 11 16  1  0  0  0  0
 12 13  1  1  0  0  0
 12 14  1  0  0  0  0
 14 15  1  1  0  0  0
 14 16  1  0  0  0  0
 16 27  1  6  0  0  0
 18 19  2  0  0  0  0
 18 23  1  0  0  0  0
 19 20  1  0  0  0  0
 20 21  2  0  0  0  0
 21 22  1  0  0  0  0
 21 27  1  0  0  0  0
 22 23  2  0  0  0  0
 22 25  1  0  0  0  0
 23 24  1  0  0  0  0
 25 26  2  0  0  0  0
 26 27  1  0  0  0  0
M  END
>  <CHROM.1>
-160.38968381,-47.24323333,-138.31899157,-177.85554731,161.24949236,139.57992878
-60.55267776,34.12524415,19.29123045,75.38953946,2.42291940,0.32014803,0.94589078

>  <Name>
ligand

>  <RI>
0

>  <Rbt.Current_Directory>
/home/itssahil/PROJECTS/Mol_Feturizer/New_Systems/rnas/2QWY

>  <Rbt.Executable>
rbdock ($Id: //depot/dev/client3/rdock/2013.1/src/exe/rbdock.cxx#4 $)

>  <Rbt.Library>
libRbt.so (2013.1, Build901 2013/11/27)

>  <Rbt.Parameter_File>
/export/apps/rDock/src/rDock_2013.1_src/data/scripts/dock_solv.prm

>  <Rbt.Receptor>
prm/pocket_docking_2.prm

>  <SCORE>
-8.04152

>  <SCORE.INTER>
-12.8279

>  <SCORE.INTER.CONST>
1

>  <SCORE.INTER.POLAR>
0

>  <SCORE.INTER.ROT>
7

>  <SCORE.INTER.SOLV>
17.3174

>  <SCORE.INTER.VDW>
-22.5911

>  <SCORE.INTER.norm>
-0.475107

>  <SCORE.INTRA>
2.7963

>  <SCORE.INTRA.DIHEDRAL>
2.07997

>  <SCORE.INTRA.DIHEDRAL.0>
10.7382

>  <SCORE.INTRA.POLAR>
0

>  <SCORE.INTRA.POLAR.0>
0

>  <SCORE.INTRA.REPUL>
0

>  <SCORE.INTRA.REPUL.0>
0

>  <SCORE.INTRA.SOLV>
-0.0114745

>  <SCORE.INTRA.SOLV.lig_0>
-49.2501

>  <SCORE.INTRA.VDW>
1.76205

>  <SCORE.INTRA.VDW.0>
-1.75368

>  <SCORE.INTRA.norm>
0.103567

>  <SCORE.RESTR>
1.99006

>  <SCORE.RESTR.CAVITY>
1.99006

>  <SCORE.RESTR.norm>
0.0737061

>  <SCORE.SYSTEM>
0

>  <SCORE.SYSTEM.CONST>
0

>  <SCORE.SYSTEM.DIHEDRAL>
0

>  <SCORE.SYSTEM.SOLV>
0

>  <SCORE.SYSTEM.norm>
0

>  <SCORE.heavy>
27

>  <SCORE.norm>
-0.297834

>  <RMSD>
8.276

$$$$
ligand
 OpenBabel11021811463D
libRbt.so/2013.1/901 2013/11/27
 27 29  0  0  0  0  0  0  0  0999 V2000
   27.7286   18.5772   77.0921 N   0  0  0  0  0  0  0  0  0  0  0  0
   28.6223   19.4522   77.8708 C   0  0  2  0  0  0  0  0  0  0  0  0
   28.4367   20.8948   77.4486 C   0  0  0  0  0  0  0  0  0  0  0  0
   29.4096   21.5645   77.0870 O   0  0  0  0  0  0  0  0  0  0  0  0
   30.0693   19.0439   77.6142 C   0  0  0  0  0  0  0  0  0  0  0  0
   30.9981   19.7482   78.5799 C   0  0  0  0  0  0  0  0  0  0  0  0
   32.6739   19.1741   78.2520 S   0  0  2  0  0  0  0  0  0  0  0  0
   33.4551   19.7157   79.7973 C   0  0  0  0  0  0  0  0  0  0  0  0
   33.2583   20.4724   77.1099 C   0  0  0  0  0  0  0  0  0  0  0  0
   34.7434   20.2522   76.8351 C   0  0  1  0  0  0  0  0  0  0  0  0
   34.8587   19.1702   75.9406 O   0  0  0  0  0  0  0  0  0  0  0  0
   35.3692   21.4579   76.1259 C   0  0  1  0  0  0  0  0  0  0  0  0
   35.9298   22.5365   76.8904 O   0  0  0  0  0  0  0  0  0  0  0  0
   36.3378   20.8040   75.0854 C   0  0  1  0  0  0  0  0  0  0  0  0
   37.6111   21.4658   75.1764 O   0  0  0  0  0  0  0  0  0  0  0  0
   36.1380   19.2669   75.3348 C   0  0  2  0  0  0  0  0  0  0  0  0
   27.3130   21.3717   77.3994 O   0  0  0  0  0  0  0  0  0  0  0  0
   37.2190   19.0877   70.2452 N   0  0  0  0  0  0  0  0  0  0  0  0
   37.3874   20.1045   71.0982 C   0  0  0  0  0  0  0  0  0  0  0  0
   37.0430   20.0034   72.3789 N   0  0  0  0  0  0  0  0  0  0  0  0
   36.5308   18.8630   72.8763 C   0  0  0  0  0  0  0  0  0  0  0  0
   36.3458   17.7479   72.0159 C   0  0  0  0  0  0  0  0  0  0  0  0
   36.7171   17.9048   70.6476 C   0  0  0  0  0  0  0  0  0  0  0  0
   36.5760   16.8638   69.7491 N   0  0  0  0  0  0  0  0  0  0  0  0
   35.8304   16.7452   72.7639 N   0  0  0  0  0  0  0  0  0  0  0  0
   35.6924   17.1550   73.9915 C   0  0  0  0  0  0  0  0  0  0  0  0
   36.1109   18.4575   74.1116 N   0  0  0  0  0  0  0  0  0  0  0  0
  2  1  1  6  0  0  0
  2  3  1  0  0  0  0
  2  5  1  0  0  0  0
  3  4  1  0  0  0  0
  3 17  1  0  0  0  0
  5  6  1  0  0  0  0
  7  6  1  1  0  0  0
  7  8  1  0  0  0  0
  7  9  1  0  0  0  0
 10  9  1  6  0  0  0
 10 11  1  0  0  0  0
 10 12  1  0  0  0  0
 11 16  1  0  0  0  0
 12 13  1  1  0  0  0
 12 14  1  0  0  0  0
 14 15  1  1  0  0  0
 14 16  1  0  0  0  0
 16 27  1  6  0  0  0
 18 19  2  0  0  0  0
 18 23  1  0  0  0  0
 19 20  1  0  0  0  0
 20 21  2  0  0  0  0
 21 22  1  0  0  0  0
 21 27  1  0  0  0  0
 22 23  2  0  0  0  0
 22 25  1  0  0  0  0
 23 24  1  0  0  0  0
 25 26  2  0  0  0  0
 26 27  1  0  0  0  0
M  END
>  <CHROM.1>
-125.56812299,-169.79841468,178.10497926,-163.09724016,173.40006182,75.82311016
130.95688573,33.88708073,19.59243942,75.40895334,2.48069618,0.22503845,1.05831521

>  <Name>
ligand

>  <RI>
0

>  <Rbt.Current_Directory>
/home/itssahil/PROJECTS/Mol_Feturizer/New_Systems/rnas/2QWY

>  <Rbt.Executable>
rbdock ($Id: //depot/dev/client3/rdock/2013.1/src/exe/rbdock.cxx#4 $)

>  <Rbt.Library>
libRbt.so (2013.1, Build901 2013/11/27)

>  <Rbt.Parameter_File>
/export/apps/rDock/src/rDock_2013.1_src/data/scripts/dock_solv.prm

>  <Rbt.Receptor>
prm/pocket_docking_2.prm

>  <SCORE>
-12.3477

>  <SCORE.INTER>
-12.405

>  <SCORE.INTER.CONST>
1

>  <SCORE.INTER.POLAR>
0

>  <SCORE.INTER.ROT>
7

>  <SCORE.INTER.SOLV>
19.3788

>  <SCORE.INTER.VDW>
-22.9962

>  <SCORE.INTER.norm>
-0.459443

>  <SCORE.INTRA>
-1.55585

>  <SCORE.INTRA.DIHEDRAL>
-4.51633

>  <SCORE.INTRA.DIHEDRAL.0>
10.7382

>  <SCORE.INTRA.POLAR>
0

>  <SCORE.INTRA.POLAR.0>
0

>  <SCORE.INTRA.REPUL>
0

>  <SCORE.INTRA.REPUL.0>
0

>  <SCORE.INTRA.SOLV>
-1.14317

>  <SCORE.INTRA.SOLV.lig_0>
-49.2501

>  <SCORE.INTRA.VDW>
1.2739

>  <SCORE.INTRA.VDW.0>
-1.75368

>  <SCORE.INTRA.norm>
-0.0576241

>  <SCORE.RESTR>
1.61307

>  <SCORE.RESTR.CAVITY>
1.61307

>  <SCORE.RESTR.norm>
0.0597433

>  <SCORE.SYSTEM>
0

>  <SCORE.SYSTEM.CONST>
0

>  <SCORE.SYSTEM.DIHEDRAL>
0

>  <SCORE.SYSTEM.SOLV>
0

>  <SCORE.SYSTEM.norm>
0

>  <SCORE.heavy>
27

>  <SCORE.norm>
-0.457324

>  <RMSD>
8.299

$$$$
ligand
 OpenBabel11021811463D
libRbt.so/2013.1/901 2013/11/27
 27 29  0  0  0  0  0  0  0  0999 V2000
   34.7278   21.3809   82.5423 N   0  0  0  0  0  0  0  0  0  0  0  0
   34.9683   20.2966   81.5743 C   0  0  2  0  0  0  0  0  0  0  0  0
   36.4097   19.8381   81.6531 C   0  0  0  0  0  0  0  0  0  0  0  0
   36.8964   19.1648   80.7390 O   0  0  0  0  0  0  0  0  0  0  0  0
   34.6897   20.8128   80.1664 C   0  0  0  0  0  0  0  0  0  0  0  0
   33.2045   21.0231   79.9631 C   0  0  0  0  0  0  0  0  0  0  0  0
   32.9644   21.7037   78.3125 S   0  0  2  0  0  0  0  0  0  0  0  0
   31.1504   21.6998   78.2771 C   0  0  0  0  0  0  0  0  0  0  0  0
   33.3211   20.2365   77.2869 C   0  0  0  0  0  0  0  0  0  0  0  0
   34.8042   20.2386   76.9264 C   0  0  1  0  0  0  0  0  0  0  0  0
   35.0171   19.2185   75.9786 O   0  0  0  0  0  0  0  0  0  0  0  0
   35.2151   21.5466   76.2418 C   0  0  1  0  0  0  0  0  0  0  0  0
   35.6635   22.6636   77.0251 O   0  0  0  0  0  0  0  0  0  0  0  0
   36.2038   21.0758   75.1241 C   0  0  1  0  0  0  0  0  0  0  0  0
   37.3761   21.9067   75.1797 O   0  0  0  0  0  0  0  0  0  0  0  0
   36.2338   19.5176   75.3129 C   0  0  2  0  0  0  0  0  0  0  0  0
   37.1087   20.1959   82.5891 O   0  0  0  0  0  0  0  0  0  0  0  0
   37.3770   19.5896   70.2344 N   0  0  0  0  0  0  0  0  0  0  0  0
   37.4996   20.5751   71.1308 C   0  0  0  0  0  0  0  0  0  0  0  0
   37.1448   20.4084   72.4018 N   0  0  0  0  0  0  0  0  0  0  0  0
   36.6681   19.2310   72.8451 C   0  0  0  0  0  0  0  0  0  0  0  0
   36.5326   18.1470   71.9369 C   0  0  0  0  0  0  0  0  0  0  0  0
   36.9133   18.3739   70.5811 C   0  0  0  0  0  0  0  0  0  0  0  0
   36.8194   17.3671   69.6386 N   0  0  0  0  0  0  0  0  0  0  0  0
   36.0450   17.0963   72.6362 N   0  0  0  0  0  0  0  0  0  0  0  0
   35.8788   17.4494   73.8778 C   0  0  0  0  0  0  0  0  0  0  0  0
   36.2492   18.7596   74.0571 N   0  0  0  0  0  0  0  0  0  0  0  0
  2  1  1  1  0  0  0
  2  3  1  0  0  0  0
  2  5  1  0  0  0  0
  3  4  1  0  0  0  0
  3 17  1  0  0  0  0
  5  6  1  0  0  0  0
  7  6  1  1  0  0  0
  7  8  1  0  0  0  0
  7  9  1  0  0  0  0
 10  9  1  6  0  0  0
 10 11  1  0  0  0  0
 10 12  1  0  0  0  0
 11 16  1  0  0  0  0
 12 13  1  1  0  0  0
 12 14  1  0  0  0  0
 14 15  1  1  0  0  0
 14 16  1  0  0  0  0
 16 27  1  6  0  0  0
 18 19  2  0  0  0  0
 18 23  1  0  0  0  0
 19 20  1  0  0  0  0
 20 21  2  0  0  0  0
 21 22  1  0  0  0  0
 21 27  1  0  0  0  0
 22 23  2  0  0  0  0
 22 25  1  0  0  0  0
 23 24  1  0  0  0  0
 25 26  2  0  0  0  0
 26 27  1  0  0  0  0
M  END
>  <CHROM.1>
-163.57558078,-70.94790250,177.37241073,174.80307062,-91.71683709,-171.39436672
138.07291644,35.52361982,20.10798968,76.31063237,-1.82900008,0.53021364,-1.65452760

>  <Name>
ligand

>  <RI>
0

>  <Rbt.Current_Directory>
/home/itssahil/PROJECTS/Mol_Feturizer/New_Systems/rnas/2QWY

>  <Rbt.Executable>
rbdock ($Id: //depot/dev/client3/rdock/2013.1/src/exe/rbdock.cxx#4 $)

>  <Rbt.Library>
libRbt.so (2013.1, Build901 2013/11/27)

>  <Rbt.Parameter_File>
/export/apps/rDock/src/rDock_2013.1_src/data/scripts/dock_solv.prm

>  <Rbt.Receptor>
prm/pocket_docking_7.prm

>  <SCORE>
-14.8597

>  <SCORE.INTER>
-12.2875

>  <SCORE.INTER.CONST>
1

>  <SCORE.INTER.POLAR>
0

>  <SCORE.INTER.ROT>
7

>  <SCORE.INTER.SOLV>
12.3168

>  <SCORE.INTER.VDW>
-20.5639

>  <SCORE.INTER.norm>
-0.455092

>  <SCORE.INTRA>
-2.57219

>  <SCORE.INTRA.DIHEDRAL>
-5.38086

>  <SCORE.INTRA.DIHEDRAL.0>
10.7382

>  <SCORE.INTRA.POLAR>
0

>  <SCORE.INTRA.POLAR.0>
0

>  <SCORE.INTRA.REPUL>
0

>  <SCORE.INTRA.REPUL.0>
0

>  <SCORE.INTRA.SOLV>
-0.111531

>  <SCORE.INTRA.SOLV.lig_0>
-49.2501

>  <SCORE.INTRA.VDW>
0.174012

>  <SCORE.INTRA.VDW.0>
-1.75368

>  <SCORE.INTRA.norm>
-0.0952661

>  <SCORE.RESTR>
0

>  <SCORE.RESTR.CAVITY>
0

>  <SCORE.RESTR.norm>
0

>  <SCORE.SYSTEM>
0

>  <SCORE.SYSTEM.CONST>
0

>  <SCORE.SYSTEM.DIHEDRAL>
0

>  <SCORE.SYSTEM.SOLV>
0

>  <SCORE.SYSTEM.norm>
0

>  <SCORE.heavy>
27

>  <SCORE.norm>
-0.550358

>  <RMSD>
8.302

$$$$
ligand
 OpenBabel11021811463D
libRbt.so/2013.1/901 2013/11/27
 27 29  0  0  0  0  0  0  0  0999 V2000
   31.8814   19.1184   79.0497 N   0  0  0  0  0  0  0  0  0  0  0  0
   32.3499   20.4920   78.7960 C   0  0  2  0  0  0  0  0  0  0  0  0
   31.3074   21.2616   78.0119 C   0  0  0  0  0  0  0  0  0  0  0  0
   31.1350   22.4658   78.2264 O   0  0  0  0  0  0  0  0  0  0  0  0
   33.6396   20.4380   77.9836 C   0  0  0  0  0  0  0  0  0  0  0  0
   34.1745   21.8337   77.7445 C   0  0  0  0  0  0  0  0  0  0  0  0
   35.8304   21.6791   77.0520 S   0  0  2  0  0  0  0  0  0  0  0  0
   36.0578   23.3935   76.5036 C   0  0  0  0  0  0  0  0  0  0  0  0
   35.4564   20.8668   75.4607 C   0  0  0  0  0  0  0  0  0  0  0  0
   35.7254   19.3707   75.5983 C   0  0  1  0  0  0  0  0  0  0  0  0
   35.4529   18.7693   74.3540 O   0  0  0  0  0  0  0  0  0  0  0  0
   37.2030   19.0893   75.8912 C   0  0  1  0  0  0  0  0  0  0  0  0
   37.6758   19.0416   77.2463 O   0  0  0  0  0  0  0  0  0  0  0  0
   37.5067   17.8163   75.0336 C   0  0  1  0  0  0  0  0  0  0  0  0
   38.1968   16.8669   75.8642 O   0  0  0  0  0  0  0  0  0  0  0  0
   36.1301   17.5226   74.3382 C   0  0  2  0  0  0  0  0  0  0  0  0
   30.6878   20.7040   77.1187 O   0  0  0  0  0  0  0  0  0  0  0  0
   35.7947   13.5523   70.9874 N   0  0  0  0  0  0  0  0  0  0  0  0
   35.6229   13.5406   72.3141 C   0  0  0  0  0  0  0  0  0  0  0  0
   35.7613   14.6439   73.0439 N   0  0  0  0  0  0  0  0  0  0  0  0
   36.0580   15.8258   72.4736 C   0  0  0  0  0  0  0  0  0  0  0  0
   36.2357   15.8959   71.0659 C   0  0  0  0  0  0  0  0  0  0  0  0
   36.0902   14.6863   70.3241 C   0  0  0  0  0  0  0  0  0  0  0  0
   36.2389   14.6732   68.9498 N   0  0  0  0  0  0  0  0  0  0  0  0
   36.5148   17.1841   70.7604 N   0  0  0  0  0  0  0  0  0  0  0  0
   36.5180   17.8914   71.8529 C   0  0  0  0  0  0  0  0  0  0  0  0
   36.2417   17.0973   72.9388 N   0  0  0  0  0  0  0  0  0  0  0  0
  2  1  1  6  0  0  0
  2  3  1  0  0  0  0
  2  5  1  0  0  0  0
  3  4  1  0  0  0  0
  3 17  1  0  0  0  0
  5  6  1  0  0  0  0
  7  6  1  1  0  0  0
  7  8  1  0  0  0  0
  7  9  1  0  0  0  0
 10  9  1  6  0  0  0
 10 11  1  0  0  0  0
 10 12  1  0  0  0  0
 11 16  1  0  0  0  0
 12 13  1  1  0  0  0
 12 14  1  0  0  0  0
 14 15  1  1  0  0  0
 14 16  1  0  0  0  0
 16 27  1  6  0  0  0
 18 19  2  0  0  0  0
 18 23  1  0  0  0  0
 19 20  1  0  0  0  0
 20 21  2  0  0  0  0
 21 22  1  0  0  0  0
 21 27  1  0  0  0  0
 22 23  2  0  0  0  0
 22 25  1  0  0  0  0
 23 24  1  0  0  0  0
 25 26  2  0  0  0  0
 26 27  1  0  0  0  0
M  END
>  <CHROM.1>
144.59263881,-178.09327236,169.87772893,167.08120446,-99.40061154,-178.99262355
-138.67217919,35.24513162,18.60828770,74.98276035,1.90297206,0.16906585,0.74839780

>  <Name>
ligand

>  <RI>
0

>  <Rbt.Current_Directory>
/home/itssahil/PROJECTS/Mol_Feturizer/New_Systems/rnas/2QWY

>  <Rbt.Executable>
rbdock ($Id: //depot/dev/client3/rdock/2013.1/src/exe/rbdock.cxx#4 $)

>  <Rbt.Library>
libRbt.so (2013.1, Build901 2013/11/27)

>  <Rbt.Parameter_File>
/export/apps/rDock/src/rDock_2013.1_src/data/scripts/dock_solv.prm

>  <Rbt.Receptor>
prm/pocket_docking_4.prm

>  <SCORE>
-16.954

>  <SCORE.INTER>
-13.7704

>  <SCORE.INTER.CONST>
1

>  <SCORE.INTER.POLAR>
0

>  <SCORE.INTER.ROT>
7

>  <SCORE.INTER.SOLV>
8.72937

>  <SCORE.INTER.VDW>
-20.3567

>  <SCORE.INTER.norm>
-0.510013

>  <SCORE.INTRA>
-3.18364

>  <SCORE.INTRA.DIHEDRAL>
-5.06981

>  <SCORE.INTRA.DIHEDRAL.0>
10.7382

>  <SCORE.INTRA.POLAR>
0

>  <SCORE.INTRA.POLAR.0>
0

>  <SCORE.INTRA.REPUL>
0

>  <SCORE.INTRA.REPUL.0>
0

>  <SCORE.INTRA.SOLV>
-1.04615

>  <SCORE.INTRA.SOLV.lig_0>
-49.2501

>  <SCORE.INTRA.VDW>
-0.125662

>  <SCORE.INTRA.VDW.0>
-1.75368

>  <SCORE.INTRA.norm>
-0.117913

>  <SCORE.RESTR>
0

>  <SCORE.RESTR.CAVITY>
0

>  <SCORE.RESTR.norm>
0

>  <SCORE.SYSTEM>
0

>  <SCORE.SYSTEM.CONST>
0

>  <SCORE.SYSTEM.DIHEDRAL>
0

>  <SCORE.SYSTEM.SOLV>
0

>  <SCORE.SYSTEM.norm>
0

>  <SCORE.heavy>
27

>  <SCORE.norm>
-0.627926

>  <RMSD>
8.321

$$$$
ligand
 OpenBabel11021811463D
libRbt.so/2013.1/901 2013/11/27
 27 29  0  0  0  0  0  0  0  0999 V2000
   37.1671   21.9967   80.5178 N   0  0  0  0  0  0  0  0  0  0  0  0
   35.9697   21.1453   80.6281 C   0  0  2  0  0  0  0  0  0  0  0  0
   36.3452   19.7877   81.1847 C   0  0  0  0  0  0  0  0  0  0  0  0
   36.8836   18.9471   80.4571 O   0  0  0  0  0  0  0  0  0  0  0  0
   35.3589   20.9602   79.2428 C   0  0  0  0  0  0  0  0  0  0  0  0
   34.0021   20.2970   79.3459 C   0  0  0  0  0  0  0  0  0  0  0  0
   33.1356   20.5680   77.7899 S   0  0  2  0  0  0  0  0  0  0  0  0
   31.6378   19.6062   78.1407 C   0  0  0  0  0  0  0  0  0  0  0  0
   34.0288   19.4083   76.6995 C   0  0  0  0  0  0  0  0  0  0  0  0
   35.4186   19.9723   76.4165 C   0  0  1  0  0  0  0  0  0  0  0  0
   36.0250   19.1524   75.4448 O   0  0  0  0  0  0  0  0  0  0  0  0
   35.3425   21.3740   75.8017 C   0  0  1  0  0  0  0  0  0  0  0  0
   35.3205   22.5347   76.6470 O   0  0  0  0  0  0  0  0  0  0  0  0
   36.4733   21.3575   74.7204 C   0  0  1  0  0  0  0  0  0  0  0  0
   37.2546   22.5558   74.8665 O   0  0  0  0  0  0  0  0  0  0  0  0
   37.0685   19.9109   74.8541 C   0  0  2  0  0  0  0  0  0  0  0  0
   36.1783   19.5527   82.3720 O   0  0  0  0  0  0  0  0  0  0  0  0
   36.2427   15.8672   71.6808 N   0  0  0  0  0  0  0  0  0  0  0  0
   35.7101   16.1047   72.8848 C   0  0  0  0  0  0  0  0  0  0  0  0
   36.0366   17.1841   73.5901 N   0  0  0  0  0  0  0  0  0  0  0  0
   36.9012   18.0964   73.1103 C   0  0  0  0  0  0  0  0  0  0  0  0
   37.4838   17.8995   71.8297 C   0  0  0  0  0  0  0  0  0  0  0  0
   37.1148   16.7223   71.1138 C   0  0  0  0  0  0  0  0  0  0  0  0
   37.6313   16.4629   69.8581 N   0  0  0  0  0  0  0  0  0  0  0  0
   38.2974   18.9542   71.5926 N   0  0  0  0  0  0  0  0  0  0  0  0
   38.2540   19.7648   72.6100 C   0  0  0  0  0  0  0  0  0  0  0  0
   37.4056   19.2784   73.5742 N   0  0  0  0  0  0  0  0  0  0  0  0
  2  1  1  6  0  0  0
  2  3  1  0  0  0  0
  2  5  1  0  0  0  0
  3  4  1  0  0  0  0
  3 17  1  0  0  0  0
  5  6  1  0  0  0  0
  7  6  1  1  0  0  0
  7  8  1  0  0  0  0
  7  9  1  0  0  0  0
 10  9  1  6  0  0  0
 10 11  1  0  0  0  0
 10 12  1  0  0  0  0
 11 16  1  0  0  0  0
 12 13  1  1  0  0  0
 12 14  1  0  0  0  0
 14 15  1  1  0  0  0
 14 16  1  0  0  0  0
 16 27  1  6  0  0  0
 18 19  2  0  0  0  0
 18 23  1  0  0  0  0
 19 20  1  0  0  0  0
 20 21  2  0  0  0  0
 21 22  1  0  0  0  0
 21 27  1  0  0  0  0
 22 23  2  0  0  0  0
 22 25  1  0  0  0  0
 23 24  1  0  0  0  0
 25 26  2  0  0  0  0
 26 27  1  0  0  0  0
M  END
>  <CHROM.1>
-77.36944772,-170.17286761,162.75500767,176.53092673,-72.37871977,-172.72104934
-6.27332626,35.93032901,19.56753411,76.02011698,-1.87174045,-0.72590267,-2.12021137

>  <Name>
ligand

>  <RI>
0

>  <Rbt.Current_Directory>
/home/itssahil/PROJECTS/Mol_Feturizer/New_Systems/rnas/2QWY

>  <Rbt.Executable>
rbdock ($Id: //depot/dev/client3/rdock/2013.1/src/exe/rbdock.cxx#4 $)

>  <Rbt.Library>
libRbt.so (2013.1, Build901 2013/11/27)

>  <Rbt.Parameter_File>
/export/apps/rDock/src/rDock_2013.1_src/data/scripts/dock_solv.prm

>  <Rbt.Receptor>
prm/pocket_docking_3.prm

>  <SCORE>
-10.3778

>  <SCORE.INTER>
-7.73415

>  <SCORE.INTER.CONST>
1

>  <SCORE.INTER.POLAR>
0

>  <SCORE.INTER.ROT>
7

>  <SCORE.INTER.SOLV>
8.54586

>  <SCORE.INTER.VDW>
-16.2714

>  <SCORE.INTER.norm>
-0.28645

>  <SCORE.INTRA>
-2.72501

>  <SCORE.INTRA.DIHEDRAL>
-5.89564

>  <SCORE.INTRA.DIHEDRAL.0>
10.7382

>  <SCORE.INTRA.POLAR>
0

>  <SCORE.INTRA.POLAR.0>
0

>  <SCORE.INTRA.REPUL>
0

>  <SCORE.INTRA.REPUL.0>
0

>  <SCORE.INTRA.SOLV>
-0.566944

>  <SCORE.INTRA.SOLV.lig_0>
-49.2501

>  <SCORE.INTRA.VDW>
0.506287

>  <SCORE.INTRA.VDW.0>
-1.75368

>  <SCORE.INTRA.norm>
-0.100926

>  <SCORE.RESTR>
0.0813408

>  <SCORE.RESTR.CAVITY>
0.0813408

>  <SCORE.RESTR.norm>
0.00301262

>  <SCORE.SYSTEM>
0

>  <SCORE.SYSTEM.CONST>
0

>  <SCORE.SYSTEM.DIHEDRAL>
0

>  <SCORE.SYSTEM.SOLV>
0

>  <SCORE.SYSTEM.norm>
0

>  <SCORE.heavy>
27

>  <SCORE.norm>
-0.384364

>  <RMSD>
8.328

$$$$
ligand
 OpenBabel11021811463D
libRbt.so/2013.1/901 2013/11/27
 27 29  0  0  0  0  0  0  0  0999 V2000
   26.4163   20.0345   76.8986 N   0  0  0  0  0  0  0  0  0  0  0  0
   27.2194   21.0777   77.5600 C   0  0  2  0  0  0  0  0  0  0  0  0
   26.9112   22.4327   76.9576 C   0  0  0  0  0  0  0  0  0  0  0  0
   27.2037   23.4643   77.5709 O   0  0  0  0  0  0  0  0  0  0  0  0
   28.6999   20.7717   77.3579 C   0  0  0  0  0  0  0  0  0  0  0  0
   29.0546   19.4364   77.9762 C   0  0  0  0  0  0  0  0  0  0  0  0
   30.7637   19.0648   77.5446 S   0  0  2  0  0  0  0  0  0  0  0  0
   30.9923   17.5921   78.5793 C   0  0  0  0  0  0  0  0  0  0  0  0
   31.6435   20.3139   78.5433 C   0  0  0  0  0  0  0  0  0  0  0  0
   33.1076   19.9010   78.6669 C   0  0  1  0  0  0  0  0  0  0  0  0
   33.5651   19.5511   77.3814 O   0  0  0  0  0  0  0  0  0  0  0  0
   33.9852   21.0704   79.1261 C   0  0  1  0  0  0  0  0  0  0  0  0
   34.1973   21.3099   80.5261 O   0  0  0  0  0  0  0  0  0  0  0  0
   35.2864   20.9041   78.2731 C   0  0  1  0  0  0  0  0  0  0  0  0
   36.4191   21.0178   79.1515 O   0  0  0  0  0  0  0  0  0  0  0  0
   34.9815   19.6291   77.4094 C   0  0  2  0  0  0  0  0  0  0  0  0
   26.4372   22.5021   75.8337 O   0  0  0  0  0  0  0  0  0  0  0  0
   39.1057   19.8464   74.2396 N   0  0  0  0  0  0  0  0  0  0  0  0
   39.0833   19.7819   75.5756 C   0  0  0  0  0  0  0  0  0  0  0  0
   37.9387   19.7503   76.2522 N   0  0  0  0  0  0  0  0  0  0  0  0
   36.7522   19.7587   75.6179 C   0  0  0  0  0  0  0  0  0  0  0  0
   36.7204   19.8111   74.1986 C   0  0  0  0  0  0  0  0  0  0  0  0
   37.9711   19.8562   73.5144 C   0  0  0  0  0  0  0  0  0  0  0  0
   38.0248   19.8997   72.1338 N   0  0  0  0  0  0  0  0  0  0  0  0
   35.4198   19.8010   73.8259 N   0  0  0  0  0  0  0  0  0  0  0  0
   34.6708   19.7448   74.8888 C   0  0  0  0  0  0  0  0  0  0  0  0
   35.4474   19.7174   76.0212 N   0  0  0  0  0  0  0  0  0  0  0  0
  2  1  1  6  0  0  0
  2  3  1  0  0  0  0
  2  5  1  0  0  0  0
  3  4  1  0  0  0  0
  3 17  1  0  0  0  0
  5  6  1  0  0  0  0
  7  6  1  1  0  0  0
  7  8  1  0  0  0  0
  7  9  1  0  0  0  0
 10  9  1  6  0  0  0
 10 11  1  0  0  0  0
 10 12  1  0  0  0  0
 11 16  1  0  0  0  0
 12 13  1  1  0  0  0
 12 14  1  0  0  0  0
 14 15  1  1  0  0  0
 14 16  1  0  0  0  0
 16 27  1  6  0  0  0
 18 19  2  0  0  0  0
 18 23  1  0  0  0  0
 19 20  1  0  0  0  0
 20 21  2  0  0  0  0
 21 22  1  0  0  0  0
 21 27  1  0  0  0  0
 22 23  2  0  0  0  0
 22 25  1  0  0  0  0
 23 24  1  0  0  0  0
 25 26  2  0  0  0  0
 26 27  1  0  0  0  0
M  END
>  <CHROM.1>
161.58886333,-61.05928543,173.98446075,172.25380102,162.40036379,47.37077619
-177.43613425,33.03490155,20.26538887,76.83498603,2.91560917,-0.12724043
1.58466209

>  <Name>
ligand

>  <RI>
0

>  <Rbt.Current_Directory>
/home/itssahil/PROJECTS/Mol_Feturizer/New_Systems/rnas/2QWY

>  <Rbt.Executable>
rbdock ($Id: //depot/dev/client3/rdock/2013.1/src/exe/rbdock.cxx#4 $)

>  <Rbt.Library>
libRbt.so (2013.1, Build901 2013/11/27)

>  <Rbt.Parameter_File>
/export/apps/rDock/src/rDock_2013.1_src/data/scripts/dock_solv.prm

>  <Rbt.Receptor>
prm/pocket_docking_4.prm

>  <SCORE>
-16.4735

>  <SCORE.INTER>
-13.4965

>  <SCORE.INTER.CONST>
1

>  <SCORE.INTER.POLAR>
0

>  <SCORE.INTER.ROT>
7

>  <SCORE.INTER.SOLV>
12.1739

>  <SCORE.INTER.VDW>
-21.3223

>  <SCORE.INTER.norm>
-0.499869

>  <SCORE.INTRA>
-2.97708

>  <SCORE.INTRA.DIHEDRAL>
-6.78047

>  <SCORE.INTRA.DIHEDRAL.0>
10.7382

>  <SCORE.INTRA.POLAR>
0

>  <SCORE.INTRA.POLAR.0>
0

>  <SCORE.INTRA.REPUL>
0

>  <SCORE.INTRA.REPUL.0>
0

>  <SCORE.INTRA.SOLV>
-0.317208

>  <SCORE.INTRA.SOLV.lig_0>
-49.2501

>  <SCORE.INTRA.VDW>
0.571763

>  <SCORE.INTRA.VDW.0>
-1.75368

>  <SCORE.INTRA.norm>
-0.110262

>  <SCORE.RESTR>
0

>  <SCORE.RESTR.CAVITY>
0

>  <SCORE.RESTR.norm>
0

>  <SCORE.SYSTEM>
0

>  <SCORE.SYSTEM.CONST>
0

>  <SCORE.SYSTEM.DIHEDRAL>
0

>  <SCORE.SYSTEM.SOLV>
0

>  <SCORE.SYSTEM.norm>
0

>  <SCORE.heavy>
27

>  <SCORE.norm>
-0.610131

>  <RMSD>
8.335

$$$$
ligand
 OpenBabel11021811463D
libRbt.so/2013.1/901 2013/11/27
 27 29  0  0  0  0  0  0  0  0999 V2000
   33.6077   21.4980   83.4361 N   0  0  0  0  0  0  0  0  0  0  0  0
   33.9468   20.5223   82.3855 C   0  0  2  0  0  0  0  0  0  0  0  0
   35.4484   20.4596   82.1978 C   0  0  0  0  0  0  0  0  0  0  0  0
   36.0693   21.4623   81.8306 O   0  0  0  0  0  0  0  0  0  0  0  0
   33.3020   20.9567   81.0733 C   0  0  0  0  0  0  0  0  0  0  0  0
   33.0524   19.7581   80.1830 C   0  0  0  0  0  0  0  0  0  0  0  0
   32.1346   20.3242   78.7399 S   0  0  2  0  0  0  0  0  0  0  0  0
   31.7412   18.7080   78.0157 C   0  0  0  0  0  0  0  0  0  0  0  0
   33.5039   20.8517   77.6543 C   0  0  0  0  0  0  0  0  0  0  0  0
   34.4354   19.6642   77.4270 C   0  0  1  0  0  0  0  0  0  0  0  0
   34.4011   19.3480   76.0548 O   0  0  0  0  0  0  0  0  0  0  0  0
   35.8914   20.0224   77.7438 C   0  0  1  0  0  0  0  0  0  0  0  0
   36.4068   19.8483   79.0728 O   0  0  0  0  0  0  0  0  0  0  0  0
   36.6970   19.2970   76.6155 C   0  0  1  0  0  0  0  0  0  0  0  0
   37.7897   18.5888   77.2255 O   0  0  0  0  0  0  0  0  0  0  0  0
   35.5721   18.5986   75.7720 C   0  0  2  0  0  0  0  0  0  0  0  0
   36.0515   19.4348   82.4785 O   0  0  0  0  0  0  0  0  0  0  0  0
   36.6821   15.8792   71.4735 N   0  0  0  0  0  0  0  0  0  0  0  0
   36.5763   15.4413   72.7332 C   0  0  0  0  0  0  0  0  0  0  0  0
   36.3022   16.2691   73.7375 N   0  0  0  0  0  0  0  0  0  0  0  0
   36.0966   17.5815   73.5244 C   0  0  0  0  0  0  0  0  0  0  0  0
   36.1823   18.0953   72.2027 C   0  0  0  0  0  0  0  0  0  0  0  0
   36.4907   17.1742   71.1582 C   0  0  0  0  0  0  0  0  0  0  0  0
   36.5832   17.5943   69.8445 N   0  0  0  0  0  0  0  0  0  0  0  0
   35.9288   19.4226   72.2710 N   0  0  0  0  0  0  0  0  0  0  0  0
   35.6969   19.7504   73.5091 C   0  0  0  0  0  0  0  0  0  0  0  0
   35.7895   18.6474   74.3221 N   0  0  0  0  0  0  0  0  0  0  0  0
  2  1  1  1  0  0  0
  2  3  1  0  0  0  0
  2  5  1  0  0  0  0
  3  4  1  0  0  0  0
  3 17  1  0  0  0  0
  5  6  1  0  0  0  0
  7  6  1  1  0  0  0
  7  8  1  0  0  0  0
  7  9  1  0  0  0  0
 10  9  1  6  0  0  0
 10 11  1  0  0  0  0
 10 12  1  0  0  0  0
 11 16  1  0  0  0  0
 12 13  1  1  0  0  0
 12 14  1  0  0  0  0
 14 15  1  1  0  0  0
 14 16  1  0  0  0  0
 16 27  1  6  0  0  0
 18 19  2  0  0  0  0
 18 23  1  0  0  0  0
 19 20  1  0  0  0  0
 20 21  2  0  0  0  0
 21 22  1  0  0  0  0
 21 27  1  0  0  0  0
 22 23  2  0  0  0  0
 22 25  1  0  0  0  0
 23 24  1  0  0  0  0
 25 26  2  0  0  0  0
 26 27  1  0  0  0  0
M  END
>  <CHROM.1>
-61.90844128,-153.36595059,174.01084522,-171.12295241,57.81714685,116.20094374
-134.02430767,35.11554543,19.17863344,76.98913991,1.79603721,-0.22992851
1.29127760

>  <Name>
ligand

>  <RI>
0

>  <Rbt.Current_Directory>
/home/itssahil/PROJECTS/Mol_Feturizer/New_Systems/rnas/2QWY

>  <Rbt.Executable>
rbdock ($Id: //depot/dev/client3/rdock/2013.1/src/exe/rbdock.cxx#4 $)

>  <Rbt.Library>
libRbt.so (2013.1, Build901 2013/11/27)

>  <Rbt.Parameter_File>
/export/apps/rDock/src/rDock_2013.1_src/data/scripts/dock_solv.prm

>  <Rbt.Receptor>
prm/pocket_docking_3.prm

>  <SCORE>
-9.92855

>  <SCORE.INTER>
-10.2771

>  <SCORE.INTER.CONST>
1

>  <SCORE.INTER.POLAR>
0

>  <SCORE.INTER.ROT>
7

>  <SCORE.INTER.SOLV>
14.1744

>  <SCORE.INTER.VDW>
-19.8429

>  <SCORE.INTER.norm>
-0.380634

>  <SCORE.INTRA>
0.338895

>  <SCORE.INTRA.DIHEDRAL>
1.20243

>  <SCORE.INTRA.DIHEDRAL.0>
10.7382

>  <SCORE.INTRA.POLAR>
0

>  <SCORE.INTRA.POLAR.0>
0

>  <SCORE.INTRA.REPUL>
0

>  <SCORE.INTRA.REPUL.0>
0

>  <SCORE.INTRA.SOLV>
-0.663145

>  <SCORE.INTRA.SOLV.lig_0>
-49.2501

>  <SCORE.INTRA.VDW>
0.0692517

>  <SCORE.INTRA.VDW.0>
-1.75368

>  <SCORE.INTRA.norm>
0.0125517

>  <SCORE.RESTR>
0.00967385

>  <SCORE.RESTR.CAVITY>
0.00967385

>  <SCORE.RESTR.norm>
0.000358291

>  <SCORE.SYSTEM>
0

>  <SCORE.SYSTEM.CONST>
0

>  <SCORE.SYSTEM.DIHEDRAL>
0

>  <SCORE.SYSTEM.SOLV>
0

>  <SCORE.SYSTEM.norm>
0

>  <SCORE.heavy>
27

>  <SCORE.norm>
-0.367724

>  <RMSD>
8.359

$$$$
ligand
 OpenBabel11021811463D
libRbt.so/2013.1/901 2013/11/27
 27 29  0  0  0  0  0  0  0  0999 V2000
   32.3127   21.9068   79.3143 N   0  0  0  0  0  0  0  0  0  0  0  0
   33.1879   21.5886   78.1725 C   0  0  2  0  0  0  0  0  0  0  0  0
   33.5600   20.1207   78.1945 C   0  0  0  0  0  0  0  0  0  0  0  0
   33.6936   19.4995   77.1352 O   0  0  0  0  0  0  0  0  0  0  0  0
   34.4607   22.4232   78.2709 C   0  0  0  0  0  0  0  0  0  0  0  0
   35.3001   22.2592   77.0219 C   0  0  0  0  0  0  0  0  0  0  0  0
   36.7902   23.2512   77.2242 S   0  0  2  0  0  0  0  0  0  0  0  0
   36.1109   24.8643   76.7468 C   0  0  0  0  0  0  0  0  0  0  0  0
   37.6992   22.8091   75.7044 C   0  0  0  0  0  0  0  0  0  0  0  0
   38.0765   21.3316   75.7704 C   0  0  1  0  0  0  0  0  0  0  0  0
   37.5138   20.6941   74.6474 O   0  0  0  0  0  0  0  0  0  0  0  0
   39.5917   21.1323   75.6568 C   0  0  1  0  0  0  0  0  0  0  0  0
   40.4122   21.1340   76.8354 O   0  0  0  0  0  0  0  0  0  0  0  0
   39.7235   19.8610   74.7541 C   0  0  1  0  0  0  0  0  0  0  0  0
   40.6618   18.9640   75.3726 O   0  0  0  0  0  0  0  0  0  0  0  0
   38.2291   19.4840   74.4552 C   0  0  2  0  0  0  0  0  0  0  0  0
   33.7965   19.5718   79.2601 O   0  0  0  0  0  0  0  0  0  0  0  0
   35.9814   15.9181   71.3996 N   0  0  0  0  0  0  0  0  0  0  0  0
   35.9966   15.9810   72.7359 C   0  0  0  0  0  0  0  0  0  0  0  0
   36.6357   16.9535   73.3800 N   0  0  0  0  0  0  0  0  0  0  0  0
   37.2760   17.9301   72.7121 C   0  0  0  0  0  0  0  0  0  0  0  0
   37.2774   17.9185   71.2915 C   0  0  0  0  0  0  0  0  0  0  0  0
   36.5902   16.8504   70.6423 C   0  0  0  0  0  0  0  0  0  0  0  0
   36.5382   16.7729   69.2632 N   0  0  0  0  0  0  0  0  0  0  0  0
   37.9769   19.0018   70.8821 N   0  0  0  0  0  0  0  0  0  0  0  0
   38.3917   19.6618   71.9244 C   0  0  0  0  0  0  0  0  0  0  0  0
   37.9847   19.0392   73.0788 N   0  0  0  0  0  0  0  0  0  0  0  0
  2  1  1  1  0  0  0
  2  3  1  0  0  0  0
  2  5  1  0  0  0  0
  3  4  1  0  0  0  0
  3 17  1  0  0  0  0
  5  6  1  0  0  0  0
  7  6  1  6  0  0  0
  7  8  1  0  0  0  0
  7  9  1  0  0  0  0
 10  9  1  6  0  0  0
 10 11  1  0  0  0  0
 10 12  1  0  0  0  0
 11 16  1  0  0  0  0
 12 13  1  1  0  0  0
 12 14  1  0  0  0  0
 14 15  1  1  0  0  0
 14 16  1  0  0  0  0
 16 27  1  6  0  0  0
 18 19  2  0  0  0  0
 18 23  1  0  0  0  0
 19 20  1  0  0  0  0
 20 21  2  0  0  0  0
 21 22  1  0  0  0  0
 21 27  1  0  0  0  0
 22 23  2  0  0  0  0
 22 25  1  0  0  0  0
 23 24  1  0  0  0  0
 25 26  2  0  0  0  0
 26 27  1  0  0  0  0
M  END
>  <CHROM.1>
144.92722508,-172.51451127,-179.16337362,-81.88505172,-65.68565863,121.89439359
-112.08790779,36.73905734,20.10282724,75.09101966,1.89777284,0.37940794,0.81539878

>  <Name>
ligand

>  <RI>
0

>  <Rbt.Current_Directory>
/home/itssahil/PROJECTS/Mol_Feturizer/New_Systems/rnas/2QWY

>  <Rbt.Executable>
rbdock ($Id: //depot/dev/client3/rdock/2013.1/src/exe/rbdock.cxx#4 $)

>  <Rbt.Library>
libRbt.so (2013.1, Build901 2013/11/27)

>  <Rbt.Parameter_File>
/export/apps/rDock/src/rDock_2013.1_src/data/scripts/dock_solv.prm

>  <Rbt.Receptor>
prm/pocket_docking_8.prm

>  <SCORE>
-10.3791

>  <SCORE.INTER>
-8.65495

>  <SCORE.INTER.CONST>
1

>  <SCORE.INTER.POLAR>
0

>  <SCORE.INTER.ROT>
7

>  <SCORE.INTER.SOLV>
9.6204

>  <SCORE.INTER.VDW>
-17.2434

>  <SCORE.INTER.norm>
-0.320554

>  <SCORE.INTRA>
-1.72411

>  <SCORE.INTRA.DIHEDRAL>
-1.72944

>  <SCORE.INTRA.DIHEDRAL.0>
10.7382

>  <SCORE.INTRA.POLAR>
0

>  <SCORE.INTRA.POLAR.0>
0

>  <SCORE.INTRA.REPUL>
0

>  <SCORE.INTRA.REPUL.0>
0

>  <SCORE.INTRA.SOLV>
-1.26137

>  <SCORE.INTRA.SOLV.lig_0>
-49.2501

>  <SCORE.INTRA.VDW>
-0.228709

>  <SCORE.INTRA.VDW.0>
-1.75368

>  <SCORE.INTRA.norm>
-0.0638561

>  <SCORE.RESTR>
0

>  <SCORE.RESTR.CAVITY>
0

>  <SCORE.RESTR.norm>
0

>  <SCORE.SYSTEM>
0

>  <SCORE.SYSTEM.CONST>
0

>  <SCORE.SYSTEM.DIHEDRAL>
0

>  <SCORE.SYSTEM.SOLV>
0

>  <SCORE.SYSTEM.norm>
0

>  <SCORE.heavy>
27

>  <SCORE.norm>
-0.38441

>  <RMSD>
8.373

$$$$
ligand
 OpenBabel11021811463D
libRbt.so/2013.1/901 2013/11/27
 27 29  0  0  0  0  0  0  0  0999 V2000
   38.0934   24.2364   77.8483 N   0  0  0  0  0  0  0  0  0  0  0  0
   37.2117   23.8841   76.7217 C   0  0  2  0  0  0  0  0  0  0  0  0
   35.8169   24.4229   76.9635 C   0  0  0  0  0  0  0  0  0  0  0  0
   35.3619   25.3124   76.2372 O   0  0  0  0  0  0  0  0  0  0  0  0
   37.1409   22.3655   76.5986 C   0  0  0  0  0  0  0  0  0  0  0  0
   36.3994   21.9697   75.3396 C   0  0  0  0  0  0  0  0  0  0  0  0
   36.8131   20.2554   74.9714 S   0  0  2  0  0  0  0  0  0  0  0  0
   35.6390   19.9765   73.6167 C   0  0  0  0  0  0  0  0  0  0  0  0
   35.9557   19.4002   76.3372 C   0  0  0  0  0  0  0  0  0  0  0  0
   36.4110   17.9437   76.3669 C   0  0  1  0  0  0  0  0  0  0  0  0
   36.2057   17.4034   75.0824 O   0  0  0  0  0  0  0  0  0  0  0  0
   37.9146   17.8296   76.6402 C   0  0  1  0  0  0  0  0  0  0  0  0
   38.4006   17.7449   77.9888 O   0  0  0  0  0  0  0  0  0  0  0  0
   38.3681   16.6693   75.6934 C   0  0  1  0  0  0  0  0  0  0  0  0
   39.1784   15.7571   76.4542 O   0  0  0  0  0  0  0  0  0  0  0  0
   37.0335   16.2559   74.9775 C   0  0  2  0  0  0  0  0  0  0  0  0
   35.1182   23.9258   77.8337 O   0  0  0  0  0  0  0  0  0  0  0  0
   35.5240   13.2255   71.0225 N   0  0  0  0  0  0  0  0  0  0  0  0
   35.1321   13.1848   72.3010 C   0  0  0  0  0  0  0  0  0  0  0  0
   35.6269   14.0223   73.2080 N   0  0  0  0  0  0  0  0  0  0  0  0
   36.5276   14.9634   72.8716 C   0  0  0  0  0  0  0  0  0  0  0  0
   36.9658   15.0593   71.5236 C   0  0  0  0  0  0  0  0  0  0  0  0
   36.4184   14.1331   70.5871 C   0  0  0  0  0  0  0  0  0  0  0  0
   36.7873   14.1671   69.2554 N   0  0  0  0  0  0  0  0  0  0  0  0
   37.8526   16.0793   71.4617 N   0  0  0  0  0  0  0  0  0  0  0  0
   37.9838   16.6041   72.6454 C   0  0  0  0  0  0  0  0  0  0  0  0
   37.1861   15.9490   73.5512 N   0  0  0  0  0  0  0  0  0  0  0  0
  2  1  1  1  0  0  0
  2  3  1  0  0  0  0
  2  5  1  0  0  0  0
  3  4  1  0  0  0  0
  3 17  1  0  0  0  0
  5  6  1  0  0  0  0
  7  6  1  1  0  0  0
  7  8  1  0  0  0  0
  7  9  1  0  0  0  0
 10  9  1  6  0  0  0
 10 11  1  0  0  0  0
 10 12  1  0  0  0  0
 11 16  1  0  0  0  0
 12 13  1  1  0  0  0
 12 14  1  0  0  0  0
 14 15  1  1  0  0  0
 14 16  1  0  0  0  0
 16 27  1  6  0  0  0
 18 19  2  0  0  0  0
 18 23  1  0  0  0  0
 19 20  1  0  0  0  0
 20 21  2  0  0  0  0
 21 22  1  0  0  0  0
 21 27  1  0  0  0  0
 22 23  2  0  0  0  0
 22 25  1  0  0  0  0
 23 24  1  0  0  0  0
 25 26  2  0  0  0  0
 26 27  1  0  0  0  0
M  END
>  <CHROM.1>
113.60774930,-172.23826261,161.58951603,172.09629896,-168.88425170,-53.83418326
-102.13948253,36.78227926,18.44636330,74.70130977,-1.60664903,1.09842906
-2.60912203

>  <Name>
ligand

>  <RI>
0

>  <Rbt.Current_Directory>
/home/itssahil/PROJECTS/Mol_Feturizer/New_Systems/rnas/2QWY

>  <Rbt.Executable>
rbdock ($Id: //depot/dev/client3/rdock/2013.1/src/exe/rbdock.cxx#4 $)

>  <Rbt.Library>
libRbt.so (2013.1, Build901 2013/11/27)

>  <Rbt.Parameter_File>
/export/apps/rDock/src/rDock_2013.1_src/data/scripts/dock_solv.prm

>  <Rbt.Receptor>
prm/pocket_docking_6.prm

>  <SCORE>
-17.1116

>  <SCORE.INTER>
-14.1299

>  <SCORE.INTER.CONST>
1

>  <SCORE.INTER.POLAR>
0

>  <SCORE.INTER.ROT>
7

>  <SCORE.INTER.SOLV>
5.48524

>  <SCORE.INTER.VDW>
-19.515

>  <SCORE.INTER.norm>
-0.523328

>  <SCORE.INTRA>
-2.98175

>  <SCORE.INTRA.DIHEDRAL>
-4.81357

>  <SCORE.INTRA.DIHEDRAL.0>
10.7382

>  <SCORE.INTRA.POLAR>
0

>  <SCORE.INTRA.POLAR.0>
0

>  <SCORE.INTRA.REPUL>
0

>  <SCORE.INTRA.REPUL.0>
0

>  <SCORE.INTRA.SOLV>
-1.0099

>  <SCORE.INTRA.SOLV.lig_0>
-49.2501

>  <SCORE.INTRA.VDW>
-0.0700123

>  <SCORE.INTRA.VDW.0>
-1.75368

>  <SCORE.INTRA.norm>
-0.110435

>  <SCORE.RESTR>
0

>  <SCORE.RESTR.CAVITY>
0

>  <SCORE.RESTR.norm>
0

>  <SCORE.SYSTEM>
0

>  <SCORE.SYSTEM.CONST>
0

>  <SCORE.SYSTEM.DIHEDRAL>
0

>  <SCORE.SYSTEM.SOLV>
0

>  <SCORE.SYSTEM.norm>
0

>  <SCORE.heavy>
27

>  <SCORE.norm>
-0.633763

>  <RMSD>
8.390

$$$$
ligand
 OpenBabel11021811463D
libRbt.so/2013.1/901 2013/11/27
 27 29  0  0  0  0  0  0  0  0999 V2000
   24.1540   22.7025   72.6197 N   0  0  0  0  0  0  0  0  0  0  0  0
   24.7643   23.0603   73.9121 C   0  0  2  0  0  0  0  0  0  0  0  0
   26.0044   23.9003   73.6878 C   0  0  0  0  0  0  0  0  0  0  0  0
   26.9826   23.4182   73.1077 O   0  0  0  0  0  0  0  0  0  0  0  0
   25.1577   21.7843   74.6492 C   0  0  0  0  0  0  0  0  0  0  0  0
   25.7593   22.1153   75.9982 C   0  0  0  0  0  0  0  0  0  0  0  0
   26.3695   20.5825   76.7215 S   0  0  2  0  0  0  0  0  0  0  0  0
   25.1149   20.3728   78.0151 C   0  0  0  0  0  0  0  0  0  0  0  0
   27.7684   21.2098   77.7122 C   0  0  0  0  0  0  0  0  0  0  0  0
   29.0314   20.4514   77.3134 C   0  0  1  0  0  0  0  0  0  0  0  0
   30.1244   21.0744   77.9469 O   0  0  0  0  0  0  0  0  0  0  0  0
   29.0077   19.0085   77.8292 C   0  0  1  0  0  0  0  0  0  0  0  0
   28.4325   17.9635   77.0297 O   0  0  0  0  0  0  0  0  0  0  0  0
   30.4838   18.7627   78.2865 C   0  0  1  0  0  0  0  0  0  0  0  0
   30.9190   17.5025   77.7480 O   0  0  0  0  0  0  0  0  0  0  0  0
   31.1843   20.1314   77.9688 C   0  0  2  0  0  0  0  0  0  0  0  0
   26.0075   25.0762   74.0194 O   0  0  0  0  0  0  0  0  0  0  0  0
   33.5257   24.1832   80.2501 N   0  0  0  0  0  0  0  0  0  0  0  0
   32.6376   24.1883   79.2496 C   0  0  0  0  0  0  0  0  0  0  0  0
   32.1374   23.0587   78.7568 N   0  0  0  0  0  0  0  0  0  0  0  0
   32.4874   21.8615   79.2610 C   0  0  0  0  0  0  0  0  0  0  0  0
   33.4158   21.8013   80.3347 C   0  0  0  0  0  0  0  0  0  0  0  0
   33.9361   23.0361   80.8236 C   0  0  0  0  0  0  0  0  0  0  0  0
   34.8371   23.0624   81.8716 N   0  0  0  0  0  0  0  0  0  0  0  0
   33.5825   20.4957   80.6481 N   0  0  0  0  0  0  0  0  0  0  0  0
   32.8390   19.7696   79.8646 C   0  0  0  0  0  0  0  0  0  0  0  0
   32.1436   20.5674   78.9894 N   0  0  0  0  0  0  0  0  0  0  0  0
  2  1  1  6  0  0  0
  2  3  1  0  0  0  0
  2  5  1  0  0  0  0
  3  4  1  0  0  0  0
  3 17  1  0  0  0  0
  5  6  1  0  0  0  0
  7  6  1  6  0  0  0
  7  8  1  0  0  0  0
  7  9  1  0  0  0  0
 10  9  1  1  0  0  0
 10 11  1  0  0  0  0
 10 12  1  0  0  0  0
 11 16  1  0  0  0  0
 12 13  1  6  0  0  0
 12 14  1  0  0  0  0
 14 15  1  6  0  0  0
 14 16  1  0  0  0  0
 16 27  1  1  0  0  0
 18 19  2  0  0  0  0
 18 23  1  0  0  0  0
 19 20  1  0  0  0  0
 20 21  2  0  0  0  0
 21 22  1  0  0  0  0
 21 27  1  0  0  0  0
 22 23  2  0  0  0  0
 22 25  1  0  0  0  0
 23 24  1  0  0  0  0
 25 26  2  0  0  0  0
 26 27  1  0  0  0  0
M  END
>  <CHROM.1>
-64.38294003,-178.65854012,-173.55883727,-107.90360138,-125.37969465,171.86640105
-37.37235262,29.33473715,21.45202969,77.46548842,-2.92459443,0.59381347,2.89335760

>  <Name>
ligand

>  <RI>
0

>  <Rbt.Current_Directory>
/home/itssahil/PROJECTS/Mol_Feturizer/New_Systems/rnas/2QWY

>  <Rbt.Executable>
rbdock ($Id: //depot/dev/client3/rdock/2013.1/src/exe/rbdock.cxx#4 $)

>  <Rbt.Library>
libRbt.so (2013.1, Build901 2013/11/27)

>  <Rbt.Parameter_File>
/export/apps/rDock/src/rDock_2013.1_src/data/scripts/dock_solv.prm

>  <Rbt.Receptor>
prm/pocket_docking_8.prm

>  <SCORE>
-22.9385

>  <SCORE.INTER>
-22.2666

>  <SCORE.INTER.CONST>
1

>  <SCORE.INTER.POLAR>
0

>  <SCORE.INTER.ROT>
7

>  <SCORE.INTER.SOLV>
12.759

>  <SCORE.INTER.VDW>
-27.3641

>  <SCORE.INTER.norm>
-0.824689

>  <SCORE.INTRA>
-0.671916

>  <SCORE.INTRA.DIHEDRAL>
0.174559

>  <SCORE.INTRA.DIHEDRAL.0>
10.7382

>  <SCORE.INTRA.POLAR>
0

>  <SCORE.INTRA.POLAR.0>
0

>  <SCORE.INTRA.REPUL>
0

>  <SCORE.INTRA.REPUL.0>
0

>  <SCORE.INTRA.SOLV>
-1.02185

>  <SCORE.INTRA.SOLV.lig_0>
-49.2501

>  <SCORE.INTRA.VDW>
-0.248268

>  <SCORE.INTRA.VDW.0>
-1.75368

>  <SCORE.INTRA.norm>
-0.0248858

>  <SCORE.RESTR>
0

>  <SCORE.RESTR.CAVITY>
0

>  <SCORE.RESTR.norm>
0

>  <SCORE.SYSTEM>
0

>  <SCORE.SYSTEM.CONST>
0

>  <SCORE.SYSTEM.DIHEDRAL>
0

>  <SCORE.SYSTEM.SOLV>
0

>  <SCORE.SYSTEM.norm>
0

>  <SCORE.heavy>
27

>  <SCORE.norm>
-0.849574

>  <RMSD>
8.394

$$$$
ligand
 OpenBabel11021811463D
libRbt.so/2013.1/901 2013/11/27
 27 29  0  0  0  0  0  0  0  0999 V2000
   35.7967   22.1117   82.0164 N   0  0  0  0  0  0  0  0  0  0  0  0
   34.3458   22.1308   81.7611 C   0  0  2  0  0  0  0  0  0  0  0  0
   33.6853   20.9369   82.4188 C   0  0  0  0  0  0  0  0  0  0  0  0
   34.2259   19.8272   82.3737 O   0  0  0  0  0  0  0  0  0  0  0  0
   34.1021   22.0645   80.2569 C   0  0  0  0  0  0  0  0  0  0  0  0
   32.6225   21.9361   79.9647 C   0  0  0  0  0  0  0  0  0  0  0  0
   32.4091   21.9603   78.1760 S   0  0  2  0  0  0  0  0  0  0  0  0
   30.6245   21.6402   78.1099 C   0  0  0  0  0  0  0  0  0  0  0  0
   33.0599   20.3128   77.7359 C   0  0  0  0  0  0  0  0  0  0  0  0
   34.5497   20.4395   77.4292 C   0  0  1  0  0  0  0  0  0  0  0  0
   34.9012   19.3849   76.5640 O   0  0  0  0  0  0  0  0  0  0  0  0
   34.8596   21.7335   76.6690 C   0  0  1  0  0  0  0  0  0  0  0  0
   35.1631   22.9396   77.3868 O   0  0  0  0  0  0  0  0  0  0  0  0
   35.9360   21.2908   75.6232 C   0  0  1  0  0  0  0  0  0  0  0  0
   37.0182   22.2368   75.6617 O   0  0  0  0  0  0  0  0  0  0  0  0
   36.1100   19.7595   75.9226 C   0  0  2  0  0  0  0  0  0  0  0  0
   32.6527   21.0896   83.0536 O   0  0  0  0  0  0  0  0  0  0  0  0
   37.4425   19.6094   70.8921 N   0  0  0  0  0  0  0  0  0  0  0  0
   37.4283   20.6602   71.7200 C   0  0  0  0  0  0  0  0  0  0  0  0
   37.0417   20.5431   72.9872 N   0  0  0  0  0  0  0  0  0  0  0  0
   36.6697   19.3548   73.4968 C   0  0  0  0  0  0  0  0  0  0  0  0
   36.6815   18.2041   72.6638 C   0  0  0  0  0  0  0  0  0  0  0  0
   37.0911   18.3780   71.3086 C   0  0  0  0  0  0  0  0  0  0  0  0
   37.1379   17.3060   70.4371 N   0  0  0  0  0  0  0  0  0  0  0  0
   36.2755   17.1577   73.4193 N   0  0  0  0  0  0  0  0  0  0  0  0
   36.0247   17.5740   74.6267 C   0  0  0  0  0  0  0  0  0  0  0  0
   36.2526   18.9247   74.7248 N   0  0  0  0  0  0  0  0  0  0  0  0
  2  1  1  6  0  0  0
  2  3  1  0  0  0  0
  2  5  1  0  0  0  0
  3  4  1  0  0  0  0
  3 17  1  0  0  0  0
  5  6  1  0  0  0  0
  7  6  1  1  0  0  0
  7  8  1  0  0  0  0
  7  9  1  0  0  0  0
 10  9  1  6  0  0  0
 10 11  1  0  0  0  0
 10 12  1  0  0  0  0
 11 16  1  0  0  0  0
 12 13  1  1  0  0  0
 12 14  1  0  0  0  0
 14 15  1  1  0  0  0
 14 16  1  0  0  0  0
 16 27  1  6  0  0  0
 18 19  2  0  0  0  0
 18 23  1  0  0  0  0
 19 20  1  0  0  0  0
 20 21  2  0  0  0  0
 21 22  1  0  0  0  0
 21 27  1  0  0  0  0
 22 23  2  0  0  0  0
 22 25  1  0  0  0  0
 23 24  1  0  0  0  0
 25 26  2  0  0  0  0
 26 27  1  0  0  0  0
M  END
>  <CHROM.1>
-41.45806371,174.08230032,176.77476261,174.96393220,-91.57228620,-154.62348153
137.80739810,35.00557827,20.47573067,76.76722429,-2.42264100,1.06949010,-1.07789665

>  <Name>
ligand

>  <RI>
0

>  <Rbt.Current_Directory>
/home/itssahil/PROJECTS/Mol_Feturizer/New_Systems/rnas/2QWY

>  <Rbt.Executable>
rbdock ($Id: //depot/dev/client3/rdock/2013.1/src/exe/rbdock.cxx#4 $)

>  <Rbt.Library>
libRbt.so (2013.1, Build901 2013/11/27)

>  <Rbt.Parameter_File>
/export/apps/rDock/src/rDock_2013.1_src/data/scripts/dock_solv.prm

>  <Rbt.Receptor>
prm/pocket_docking_3.prm

>  <SCORE>
-10.1903

>  <SCORE.INTER>
-8.99602

>  <SCORE.INTER.CONST>
1

>  <SCORE.INTER.POLAR>
0

>  <SCORE.INTER.ROT>
7

>  <SCORE.INTER.SOLV>
8.8789

>  <SCORE.INTER.VDW>
-17.2237

>  <SCORE.INTER.norm>
-0.333186

>  <SCORE.INTRA>
-1.19432

>  <SCORE.INTRA.DIHEDRAL>
-3.96654

>  <SCORE.INTRA.DIHEDRAL.0>
10.7382

>  <SCORE.INTRA.POLAR>
0

>  <SCORE.INTRA.POLAR.0>
0

>  <SCORE.INTRA.REPUL>
0

>  <SCORE.INTRA.REPUL.0>
0

>  <SCORE.INTRA.SOLV>
-0.574564

>  <SCORE.INTRA.SOLV.lig_0>
-49.2501

>  <SCORE.INTRA.VDW>
1.07623

>  <SCORE.INTRA.VDW.0>
-1.75368

>  <SCORE.INTRA.norm>
-0.0442342

>  <SCORE.RESTR>
0

>  <SCORE.RESTR.CAVITY>
0

>  <SCORE.RESTR.norm>
0

>  <SCORE.SYSTEM>
0

>  <SCORE.SYSTEM.CONST>
0

>  <SCORE.SYSTEM.DIHEDRAL>
0

>  <SCORE.SYSTEM.SOLV>
0

>  <SCORE.SYSTEM.norm>
0

>  <SCORE.heavy>
27

>  <SCORE.norm>
-0.37742

>  <RMSD>
8.419

$$$$
ligand
 OpenBabel11021811463D
libRbt.so/2013.1/901 2013/11/27
 27 29  0  0  0  0  0  0  0  0999 V2000
   36.3279   23.9923   77.3712 N   0  0  0  0  0  0  0  0  0  0  0  0
   35.5457   22.7951   77.0168 C   0  0  2  0  0  0  0  0  0  0  0  0
   35.8833   21.6556   77.9556 C   0  0  0  0  0  0  0  0  0  0  0  0
   36.7107   21.8205   78.8578 O   0  0  0  0  0  0  0  0  0  0  0  0
   35.8884   22.3787   75.5901 C   0  0  0  0  0  0  0  0  0  0  0  0
   37.3868   22.2458   75.4219 C   0  0  0  0  0  0  0  0  0  0  0  0
   37.8635   20.6063   75.9966 S   0  0  2  0  0  0  0  0  0  0  0  0
   39.6311   20.6796   75.5944 C   0  0  0  0  0  0  0  0  0  0  0  0
   37.2508   19.5749   74.6209 C   0  0  0  0  0  0  0  0  0  0  0  0
   37.2768   18.1119   75.0550 C   0  0  1  0  0  0  0  0  0  0  0  0
   36.5064   17.3767   74.1330 O   0  0  0  0  0  0  0  0  0  0  0  0
   38.6925   17.5293   74.9852 C   0  0  1  0  0  0  0  0  0  0  0  0
   39.5685   17.6184   76.1196 O   0  0  0  0  0  0  0  0  0  0  0  0
   38.4629   16.0839   74.4316 C   0  0  1  0  0  0  0  0  0  0  0  0
   39.2057   15.1642   75.2500 O   0  0  0  0  0  0  0  0  0  0  0  0
   36.9051   16.0199   74.2475 C   0  0  2  0  0  0  0  0  0  0  0  0
   35.2831   20.5955   77.8616 O   0  0  0  0  0  0  0  0  0  0  0  0
   36.2509   16.3392   69.0925 N   0  0  0  0  0  0  0  0  0  0  0  0
   36.6980   17.2764   69.9360 C   0  0  0  0  0  0  0  0  0  0  0  0
   36.7932   17.0488   71.2430 N   0  0  0  0  0  0  0  0  0  0  0  0
   36.4647   15.8551   71.7696 C   0  0  0  0  0  0  0  0  0  0  0  0
   35.9988   14.8202   70.9151 C   0  0  0  0  0  0  0  0  0  0  0  0
   35.9006   15.1121   69.5224 C   0  0  0  0  0  0  0  0  0  0  0  0
   35.4643   14.1557   68.6248 N   0  0  0  0  0  0  0  0  0  0  0  0
   35.7507   13.7402   71.6914 N   0  0  0  0  0  0  0  0  0  0  0  0
   36.0270   14.0312   72.9295 C   0  0  0  0  0  0  0  0  0  0  0  0
   36.4713   15.3268   73.0296 N   0  0  0  0  0  0  0  0  0  0  0  0
  2  1  1  1  0  0  0
  2  3  1  0  0  0  0
  2  5  1  0  0  0  0
  3  4  1  0  0  0  0
  3 17  1  0  0  0  0
  5  6  1  0  0  0  0
  7  6  1  6  0  0  0
  7  8  1  0  0  0  0
  7  9  1  0  0  0  0
 10  9  1  6  0  0  0
 10 11  1  0  0  0  0
 10 12  1  0  0  0  0
 11 16  1  0  0  0  0
 12 13  1  1  0  0  0
 12 14  1  0  0  0  0
 14 15  1  1  0  0  0
 14 16  1  0  0  0  0
 16 27  1  6  0  0  0
 18 19  2  0  0  0  0
 18 23  1  0  0  0  0
 19 20  1  0  0  0  0
 20 21  2  0  0  0  0
 21 22  1  0  0  0  0
 21 27  1  0  0  0  0
 22 23  2  0  0  0  0
 22 25  1  0  0  0  0
 23 24  1  0  0  0  0
 25 26  2  0  0  0  0
 26 27  1  0  0  0  0
M  END
>  <CHROM.1>
0.15389716,52.21276076,83.70404967,176.65741475,-167.38965036,165.68176693
36.50237963,36.97922868,18.25730546,74.24600561,1.47821127,-0.96511598,0.66077823

>  <Name>
ligand

>  <RI>
0

>  <Rbt.Current_Directory>
/home/itssahil/PROJECTS/Mol_Feturizer/New_Systems/rnas/2QWY

>  <Rbt.Executable>
rbdock ($Id: //depot/dev/client3/rdock/2013.1/src/exe/rbdock.cxx#4 $)

>  <Rbt.Library>
libRbt.so (2013.1, Build901 2013/11/27)

>  <Rbt.Parameter_File>
/export/apps/rDock/src/rDock_2013.1_src/data/scripts/dock_solv.prm

>  <Rbt.Receptor>
prm/pocket_docking_6.prm

>  <SCORE>
-9.66239

>  <SCORE.INTER>
-7.8367

>  <SCORE.INTER.CONST>
1

>  <SCORE.INTER.POLAR>
0

>  <SCORE.INTER.ROT>
7

>  <SCORE.INTER.SOLV>
3.94188

>  <SCORE.INTER.VDW>
-14.8051

>  <SCORE.INTER.norm>
-0.290248

>  <SCORE.INTRA>
-1.82569

>  <SCORE.INTRA.DIHEDRAL>
-3.41545

>  <SCORE.INTRA.DIHEDRAL.0>
10.7382

>  <SCORE.INTRA.POLAR>
0

>  <SCORE.INTRA.POLAR.0>
0

>  <SCORE.INTRA.REPUL>
0

>  <SCORE.INTRA.REPUL.0>
0

>  <SCORE.INTRA.SOLV>
0.495414

>  <SCORE.INTRA.SOLV.lig_0>
-49.2501

>  <SCORE.INTRA.VDW>
-0.365673

>  <SCORE.INTRA.VDW.0>
-1.75368

>  <SCORE.INTRA.norm>
-0.0676181

>  <SCORE.RESTR>
0

>  <SCORE.RESTR.CAVITY>
0

>  <SCORE.RESTR.norm>
0

>  <SCORE.SYSTEM>
0

>  <SCORE.SYSTEM.CONST>
0

>  <SCORE.SYSTEM.DIHEDRAL>
0

>  <SCORE.SYSTEM.SOLV>
0

>  <SCORE.SYSTEM.norm>
0

>  <SCORE.heavy>
27

>  <SCORE.norm>
-0.357866

>  <RMSD>
8.420

$$$$
ligand
 OpenBabel11021811463D
libRbt.so/2013.1/901 2013/11/27
 27 29  0  0  0  0  0  0  0  0999 V2000
   36.2111   20.1197   81.0709 N   0  0  0  0  0  0  0  0  0  0  0  0
   34.8595   20.4498   80.5863 C   0  0  2  0  0  0  0  0  0  0  0  0
   33.9872   20.8979   81.7405 C   0  0  0  0  0  0  0  0  0  0  0  0
   32.9769   21.5756   81.5268 O   0  0  0  0  0  0  0  0  0  0  0  0
   34.2399   19.2096   79.9504 C   0  0  0  0  0  0  0  0  0  0  0  0
   32.8507   19.5166   79.4335 C   0  0  0  0  0  0  0  0  0  0  0  0
   33.0134   20.6924   78.0784 S   0  0  2  0  0  0  0  0  0  0  0  0
   31.2615   20.8342   77.6285 C   0  0  0  0  0  0  0  0  0  0  0  0
   33.6115   19.5946   76.7486 C   0  0  0  0  0  0  0  0  0  0  0  0
   35.0483   19.9778   76.4047 C   0  0  1  0  0  0  0  0  0  0  0  0
   35.4235   19.2520   75.2573 O   0  0  0  0  0  0  0  0  0  0  0  0
   35.1604   21.4585   76.0259 C   0  0  1  0  0  0  0  0  0  0  0  0
   35.4064   22.4477   77.0374 O   0  0  0  0  0  0  0  0  0  0  0  0
   36.1778   21.4526   74.8371 C   0  0  1  0  0  0  0  0  0  0  0  0
   37.1607   22.4738   75.0795 O   0  0  0  0  0  0  0  0  0  0  0  0
   36.5276   19.9303   74.6796 C   0  0  2  0  0  0  0  0  0  0  0  0
   34.2471   20.5275   82.8754 O   0  0  0  0  0  0  0  0  0  0  0  0
   36.1676   15.9103   71.3911 N   0  0  0  0  0  0  0  0  0  0  0  0
   35.9857   15.9224   72.7164 C   0  0  0  0  0  0  0  0  0  0  0  0
   36.1324   17.0356   73.4293 N   0  0  0  0  0  0  0  0  0  0  0  0
   36.4483   18.2042   72.8422 C   0  0  0  0  0  0  0  0  0  0  0  0
   36.6375   18.2491   71.4350 C   0  0  0  0  0  0  0  0  0  0  0  0
   36.4824   17.0295   70.7117 C   0  0  0  0  0  0  0  0  0  0  0  0
   36.6413   16.9922   69.3391 N   0  0  0  0  0  0  0  0  0  0  0  0
   36.9351   19.5286   71.1109 N   0  0  0  0  0  0  0  0  0  0  0  0
   36.9390   20.2536   72.1917 C   0  0  0  0  0  0  0  0  0  0  0  0
   36.6445   19.4807   73.2881 N   0  0  0  0  0  0  0  0  0  0  0  0
  2  1  1  1  0  0  0
  2  3  1  0  0  0  0
  2  5  1  0  0  0  0
  3  4  1  0  0  0  0
  3 17  1  0  0  0  0
  5  6  1  0  0  0  0
  7  6  1  1  0  0  0
  7  8  1  0  0  0  0
  7  9  1  0  0  0  0
 10  9  1  6  0  0  0
 10 11  1  0  0  0  0
 10 12  1  0  0  0  0
 11 16  1  0  0  0  0
 12 13  1  1  0  0  0
 12 14  1  0  0  0  0
 14 15  1  1  0  0  0
 14 16  1  0  0  0  0
 16 27  1  6  0  0  0
 18 19  2  0  0  0  0
 18 23  1  0  0  0  0
 19 20  1  0  0  0  0
 20 21  2  0  0  0  0
 21 22  1  0  0  0  0
 21 27  1  0  0  0  0
 22 23  2  0  0  0  0
 22 25  1  0  0  0  0
 23 24  1  0  0  0  0
 25 26  2  0  0  0  0
 26 27  1  0  0  0  0
M  END
>  <CHROM.1>
158.86445964,-179.67210909,66.10838220,178.24311210,-112.68565624,-171.83591371
-38.92777536,35.15240766,19.71210985,76.06350419,2.18697845,1.05869530,0.71465405

>  <Name>
ligand

>  <RI>
0

>  <Rbt.Current_Directory>
/home/itssahil/PROJECTS/Mol_Feturizer/New_Systems/rnas/2QWY

>  <Rbt.Executable>
rbdock ($Id: //depot/dev/client3/rdock/2013.1/src/exe/rbdock.cxx#4 $)

>  <Rbt.Library>
libRbt.so (2013.1, Build901 2013/11/27)

>  <Rbt.Parameter_File>
/export/apps/rDock/src/rDock_2013.1_src/data/scripts/dock_solv.prm

>  <Rbt.Receptor>
prm/pocket_docking_2.prm

>  <SCORE>
-5.84438

>  <SCORE.INTER>
-5.67003

>  <SCORE.INTER.CONST>
1

>  <SCORE.INTER.POLAR>
0

>  <SCORE.INTER.ROT>
7

>  <SCORE.INTER.SOLV>
12.8829

>  <SCORE.INTER.VDW>
-16.341

>  <SCORE.INTER.norm>
-0.210001

>  <SCORE.INTRA>
-2.16277

>  <SCORE.INTRA.DIHEDRAL>
-3.63757

>  <SCORE.INTRA.DIHEDRAL.0>
10.7382

>  <SCORE.INTRA.POLAR>
0

>  <SCORE.INTRA.POLAR.0>
0

>  <SCORE.INTRA.REPUL>
0

>  <SCORE.INTRA.REPUL.0>
0

>  <SCORE.INTRA.SOLV>
-0.621014

>  <SCORE.INTRA.SOLV.lig_0>
-49.2501

>  <SCORE.INTRA.VDW>
-0.0334783

>  <SCORE.INTRA.VDW.0>
-1.75368

>  <SCORE.INTRA.norm>
-0.0801027

>  <SCORE.RESTR>
1.98843

>  <SCORE.RESTR.CAVITY>
1.98843

>  <SCORE.RESTR.norm>
0.0736455

>  <SCORE.SYSTEM>
0

>  <SCORE.SYSTEM.CONST>
0

>  <SCORE.SYSTEM.DIHEDRAL>
0

>  <SCORE.SYSTEM.SOLV>
0

>  <SCORE.SYSTEM.norm>
0

>  <SCORE.heavy>
27

>  <SCORE.norm>
-0.216458

>  <RMSD>
8.435

$$$$
ligand
 OpenBabel11021811463D
libRbt.so/2013.1/901 2013/11/27
 27 29  0  0  0  0  0  0  0  0999 V2000
   37.6348   10.5149   66.4023 N   0  0  0  0  0  0  0  0  0  0  0  0
   37.8448   11.7660   67.1515 C   0  0  2  0  0  0  0  0  0  0  0  0
   39.0052   11.6094   68.1121 C   0  0  0  0  0  0  0  0  0  0  0  0
   39.2659   10.5022   68.5935 O   0  0  0  0  0  0  0  0  0  0  0  0
   36.5843   12.0895   67.9471 C   0  0  0  0  0  0  0  0  0  0  0  0
   36.6030   13.5316   68.4067 C   0  0  0  0  0  0  0  0  0  0  0  0
   35.0740   13.8438   69.3068 S   0  0  2  0  0  0  0  0  0  0  0  0
   33.9319   13.8866   67.8977 C   0  0  0  0  0  0  0  0  0  0  0  0
   35.2440   15.6280   69.6526 C   0  0  0  0  0  0  0  0  0  0  0  0
   36.3139   15.8205   70.7240 C   0  0  1  0  0  0  0  0  0  0  0  0
   36.2236   17.1476   71.1874 O   0  0  0  0  0  0  0  0  0  0  0  0
   36.0572   14.9271   71.9424 C   0  0  1  0  0  0  0  0  0  0  0  0
   36.6033   13.6000   71.9947 O   0  0  0  0  0  0  0  0  0  0  0  0
   36.4264   15.8486   73.1519 C   0  0  1  0  0  0  0  0  0  0  0  0
   37.2766   15.1053   74.0421 O   0  0  0  0  0  0  0  0  0  0  0  0
   36.8572   17.1884   72.4562 C   0  0  2  0  0  0  0  0  0  0  0  0
   39.7248   12.5668   68.3535 O   0  0  0  0  0  0  0  0  0  0  0  0
   35.5029   19.3258   77.0061 N   0  0  0  0  0  0  0  0  0  0  0  0
   35.8894   18.0695   76.7571 C   0  0  0  0  0  0  0  0  0  0  0  0
   36.1885   17.6639   75.5263 N   0  0  0  0  0  0  0  0  0  0  0  0
   36.1369   18.5090   74.4807 C   0  0  0  0  0  0  0  0  0  0  0  0
   35.7470   19.8584   74.6932 C   0  0  0  0  0  0  0  0  0  0  0  0
   35.4231   20.2467   76.0269 C   0  0  0  0  0  0  0  0  0  0  0  0
   35.0433   21.5438   76.3171 N   0  0  0  0  0  0  0  0  0  0  0  0
   35.7867   20.4812   73.4927 N   0  0  0  0  0  0  0  0  0  0  0  0
   36.1663   19.6317   72.5827 C   0  0  0  0  0  0  0  0  0  0  0  0
   36.3942   18.3989   73.1434 N   0  0  0  0  0  0  0  0  0  0  0  0
  2  1  1  1  0  0  0
  2  3  1  0  0  0  0
  2  5  1  0  0  0  0
  3  4  1  0  0  0  0
  3 17  1  0  0  0  0
  5  6  1  0  0  0  0
  7  6  1  6  0  0  0
  7  8  1  0  0  0  0
  7  9  1  0  0  0  0
 10  9  1  6  0  0  0
 10 11  1  0  0  0  0
 10 12  1  0  0  0  0
 11 16  1  0  0  0  0
 12 13  1  6  0  0  0
 12 14  1  0  0  0  0
 14 15  1  6  0  0  0
 14 16  1  0  0  0  0
 16 27  1  1  0  0  0
 18 19  2  0  0  0  0
 18 23  1  0  0  0  0
 19 20  1  0  0  0  0
 20 21  2  0  0  0  0
 21 22  1  0  0  0  0
 21 27  1  0  0  0  0
 22 23  2  0  0  0  0
 22 25  1  0  0  0  0
 23 24  1  0  0  0  0
 25 26  2  0  0  0  0
 26 27  1  0  0  0  0
M  END
>  <CHROM.1>
-29.73027204,-163.93878080,178.90526182,-73.50793678,-72.37097796,-167.16299927
142.92075634,36.44184571,15.69142456,71.55283900,1.34756136,0.77347352,-2.20805441

>  <Name>
ligand

>  <RI>
0

>  <Rbt.Current_Directory>
/home/itssahil/PROJECTS/Mol_Feturizer/New_Systems/rnas/2QWY

>  <Rbt.Executable>
rbdock ($Id: //depot/dev/client3/rdock/2013.1/src/exe/rbdock.cxx#4 $)

>  <Rbt.Library>
libRbt.so (2013.1, Build901 2013/11/27)

>  <Rbt.Parameter_File>
/export/apps/rDock/src/rDock_2013.1_src/data/scripts/dock_solv.prm

>  <Rbt.Receptor>
prm/pocket_docking_8.prm

>  <SCORE>
-10.4645

>  <SCORE.INTER>
-7.46387

>  <SCORE.INTER.CONST>
1

>  <SCORE.INTER.POLAR>
0

>  <SCORE.INTER.ROT>
7

>  <SCORE.INTER.SOLV>
9.0448

>  <SCORE.INTER.VDW>
-16.2575

>  <SCORE.INTER.norm>
-0.27644

>  <SCORE.INTRA>
-3.00061

>  <SCORE.INTRA.DIHEDRAL>
-5.7654

>  <SCORE.INTRA.DIHEDRAL.0>
10.7382

>  <SCORE.INTRA.POLAR>
0

>  <SCORE.INTRA.POLAR.0>
0

>  <SCORE.INTRA.REPUL>
0

>  <SCORE.INTRA.REPUL.0>
0

>  <SCORE.INTRA.SOLV>
-0.741387

>  <SCORE.INTRA.SOLV.lig_0>
-49.2501

>  <SCORE.INTRA.VDW>
0.25278

>  <SCORE.INTRA.VDW.0>
-1.75368

>  <SCORE.INTRA.norm>
-0.111134

>  <SCORE.RESTR>
0

>  <SCORE.RESTR.CAVITY>
0

>  <SCORE.RESTR.norm>
0

>  <SCORE.SYSTEM>
0

>  <SCORE.SYSTEM.CONST>
0

>  <SCORE.SYSTEM.DIHEDRAL>
0

>  <SCORE.SYSTEM.SOLV>
0

>  <SCORE.SYSTEM.norm>
0

>  <SCORE.heavy>
27

>  <SCORE.norm>
-0.387574

>  <RMSD>
8.452

$$$$
ligand
 OpenBabel11021811463D
libRbt.so/2013.1/901 2013/11/27
 27 29  0  0  0  0  0  0  0  0999 V2000
   32.7020   20.3299   79.5210 N   0  0  0  0  0  0  0  0  0  0  0  0
   32.7949   21.7990   79.4583 C   0  0  2  0  0  0  0  0  0  0  0  0
   31.6801   22.3552   78.5971 C   0  0  0  0  0  0  0  0  0  0  0  0
   31.3150   23.5270   78.7370 O   0  0  0  0  0  0  0  0  0  0  0  0
   34.1356   22.1890   78.8445 C   0  0  0  0  0  0  0  0  0  0  0  0
   34.2860   21.5787   77.4675 C   0  0  0  0  0  0  0  0  0  0  0  0
   36.0013   21.7845   76.9569 S   0  0  2  0  0  0  0  0  0  0  0  0
   35.9437   23.5418   76.5096 C   0  0  0  0  0  0  0  0  0  0  0  0
   35.9552   21.0172   75.3013 C   0  0  0  0  0  0  0  0  0  0  0  0
   35.7920   19.5084   75.4640 C   0  0  1  0  0  0  0  0  0  0  0  0
   35.5794   18.9591   74.1845 O   0  0  0  0  0  0  0  0  0  0  0  0
   37.0729   18.8582   75.9977 C   0  0  1  0  0  0  0  0  0  0  0  0
   37.2856   18.7326   77.4123 O   0  0  0  0  0  0  0  0  0  0  0  0
   37.1661   17.5225   75.1880 C   0  0  1  0  0  0  0  0  0  0  0  0
   37.4332   16.4530   76.1112 O   0  0  0  0  0  0  0  0  0  0  0  0
   35.8954   17.5784   74.2676 C   0  0  2  0  0  0  0  0  0  0  0  0
   31.1921   21.6630   77.7165 O   0  0  0  0  0  0  0  0  0  0  0  0
   36.0059   13.4357   71.1166 N   0  0  0  0  0  0  0  0  0  0  0  0
   35.7516   13.4784   72.4293 C   0  0  0  0  0  0  0  0  0  0  0  0
   35.7786   14.6225   73.1070 N   0  0  0  0  0  0  0  0  0  0  0  0
   36.0410   15.7911   72.4941 C   0  0  0  0  0  0  0  0  0  0  0  0
   36.3029   15.8030   71.0979 C   0  0  0  0  0  0  0  0  0  0  0  0
   36.2758   14.5519   70.4134 C   0  0  0  0  0  0  0  0  0  0  0  0
   36.5117   14.4807   69.0532 N   0  0  0  0  0  0  0  0  0  0  0  0
   36.5248   17.0895   70.7423 N   0  0  0  0  0  0  0  0  0  0  0  0
   36.4175   17.8483   71.7942 C   0  0  0  0  0  0  0  0  0  0  0  0
   36.1201   17.0927   72.9018 N   0  0  0  0  0  0  0  0  0  0  0  0
  2  1  1  6  0  0  0
  2  3  1  0  0  0  0
  2  5  1  0  0  0  0
  3  4  1  0  0  0  0
  3 17  1  0  0  0  0
  5  6  1  0  0  0  0
  7  6  1  1  0  0  0
  7  8  1  0  0  0  0
  7  9  1  0  0  0  0
 10  9  1  6  0  0  0
 10 11  1  0  0  0  0
 10 12  1  0  0  0  0
 11 16  1  0  0  0  0
 12 13  1  1  0  0  0
 12 14  1  0  0  0  0
 14 15  1  1  0  0  0
 14 16  1  0  0  0  0
 16 27  1  6  0  0  0
 18 19  2  0  0  0  0
 18 23  1  0  0  0  0
 19 20  1  0  0  0  0
 20 21  2  0  0  0  0
 21 22  1  0  0  0  0
 21 27  1  0  0  0  0
 22 23  2  0  0  0  0
 22 25  1  0  0  0  0
 23 24  1  0  0  0  0
 25 26  2  0  0  0  0
 26 27  1  0  0  0  0
M  END
>  <CHROM.1>
157.38123034,57.78472800,-168.25228218,-76.76419515,-70.90064167,172.26479298
-158.61251658,35.33701600,18.82570284,75.11943932,1.86476592,0.12468334,0.72833255

>  <Name>
ligand

>  <RI>
0

>  <Rbt.Current_Directory>
/home/itssahil/PROJECTS/Mol_Feturizer/New_Systems/rnas/2QWY

>  <Rbt.Executable>
rbdock ($Id: //depot/dev/client3/rdock/2013.1/src/exe/rbdock.cxx#4 $)

>  <Rbt.Library>
libRbt.so (2013.1, Build901 2013/11/27)

>  <Rbt.Parameter_File>
/export/apps/rDock/src/rDock_2013.1_src/data/scripts/dock_solv.prm

>  <Rbt.Receptor>
prm/pocket_docking_4.prm

>  <SCORE>
-17.4596

>  <SCORE.INTER>
-14.3301

>  <SCORE.INTER.CONST>
1

>  <SCORE.INTER.POLAR>
0

>  <SCORE.INTER.ROT>
7

>  <SCORE.INTER.SOLV>
6.10406

>  <SCORE.INTER.VDW>
-19.8547

>  <SCORE.INTER.norm>
-0.530744

>  <SCORE.INTRA>
-3.12955

>  <SCORE.INTRA.DIHEDRAL>
-6.69966

>  <SCORE.INTRA.DIHEDRAL.0>
10.7382

>  <SCORE.INTRA.POLAR>
0

>  <SCORE.INTRA.POLAR.0>
0

>  <SCORE.INTRA.REPUL>
0

>  <SCORE.INTRA.REPUL.0>
0

>  <SCORE.INTRA.SOLV>
-0.211764

>  <SCORE.INTRA.SOLV.lig_0>
-49.2501

>  <SCORE.INTRA.VDW>
0.326165

>  <SCORE.INTRA.VDW.0>
-1.75368

>  <SCORE.INTRA.norm>
-0.115909

>  <SCORE.RESTR>
0

>  <SCORE.RESTR.CAVITY>
0

>  <SCORE.RESTR.norm>
0

>  <SCORE.SYSTEM>
0

>  <SCORE.SYSTEM.CONST>
0

>  <SCORE.SYSTEM.DIHEDRAL>
0

>  <SCORE.SYSTEM.SOLV>
0

>  <SCORE.SYSTEM.norm>
0

>  <SCORE.heavy>
27

>  <SCORE.norm>
-0.646653

>  <RMSD>
8.469

$$$$
ligand
 OpenBabel11021811463D
libRbt.so/2013.1/901 2013/11/27
 27 29  0  0  0  0  0  0  0  0999 V2000
   32.5421   20.3595   79.4655 N   0  0  0  0  0  0  0  0  0  0  0  0
   32.7351   21.8197   79.4977 C   0  0  2  0  0  0  0  0  0  0  0  0
   31.6763   22.5039   78.6582 C   0  0  0  0  0  0  0  0  0  0  0  0
   31.4672   23.7141   78.7904 O   0  0  0  0  0  0  0  0  0  0  0  0
   34.1101   22.1546   78.9289 C   0  0  0  0  0  0  0  0  0  0  0  0
   34.2623   21.5798   77.5369 C   0  0  0  0  0  0  0  0  0  0  0  0
   35.9789   21.7961   77.0350 S   0  0  2  0  0  0  0  0  0  0  0  0
   35.9163   23.5566   76.6010 C   0  0  0  0  0  0  0  0  0  0  0  0
   35.9427   21.0415   75.3735 C   0  0  0  0  0  0  0  0  0  0  0  0
   35.7957   19.5298   75.5241 C   0  0  1  0  0  0  0  0  0  0  0  0
   35.5705   18.9904   74.2425 O   0  0  0  0  0  0  0  0  0  0  0  0
   37.0899   18.8866   76.0339 C   0  0  1  0  0  0  0  0  0  0  0  0
   37.3233   18.7499   77.4442 O   0  0  0  0  0  0  0  0  0  0  0  0
   37.1841   17.5595   75.2104 C   0  0  1  0  0  0  0  0  0  0  0  0
   37.4739   16.4840   76.1197 O   0  0  0  0  0  0  0  0  0  0  0  0
   35.9003   17.6121   74.3082 C   0  0  2  0  0  0  0  0  0  0  0  0
   31.0797   21.8696   77.8012 O   0  0  0  0  0  0  0  0  0  0  0  0
   36.0543   13.4943   71.1264 N   0  0  0  0  0  0  0  0  0  0  0  0
   35.8247   13.5218   72.4441 C   0  0  0  0  0  0  0  0  0  0  0  0
   35.8360   14.6618   73.1292 N   0  0  0  0  0  0  0  0  0  0  0  0
   36.0565   15.8407   72.5196 C   0  0  0  0  0  0  0  0  0  0  0  0
   36.2907   15.8685   71.1187 C   0  0  0  0  0  0  0  0  0  0  0  0
   36.2820   14.6216   70.4260 C   0  0  0  0  0  0  0  0  0  0  0  0
   36.4929   14.5654   69.0610 N   0  0  0  0  0  0  0  0  0  0  0  0
   36.4728   17.1625   70.7680 N   0  0  0  0  0  0  0  0  0  0  0  0
   36.3669   17.9114   71.8271 C   0  0  0  0  0  0  0  0  0  0  0  0
   36.1105   17.1412   72.9349 N   0  0  0  0  0  0  0  0  0  0  0  0
  2  1  1  6  0  0  0
  2  3  1  0  0  0  0
  2  5  1  0  0  0  0
  3  4  1  0  0  0  0
  3 17  1  0  0  0  0
  5  6  1  0  0  0  0
  7  6  1  1  0  0  0
  7  8  1  0  0  0  0
  7  9  1  0  0  0  0
 10  9  1  6  0  0  0
 10 11  1  0  0  0  0
 10 12  1  0  0  0  0
 11 16  1  0  0  0  0
 12 13  1  1  0  0  0
 12 14  1  0  0  0  0
 14 15  1  1  0  0  0
 14 16  1  0  0  0  0
 16 27  1  6  0  0  0
 18 19  2  0  0  0  0
 18 23  1  0  0  0  0
 19 20  1  0  0  0  0
 20 21  2  0  0  0  0
 21 22  1  0  0  0  0
 21 27  1  0  0  0  0
 22 23  2  0  0  0  0
 22 25  1  0  0  0  0
 23 24  1  0  0  0  0
 25 26  2  0  0  0  0
 26 27  1  0  0  0  0
M  END
>  <CHROM.1>
163.45644595,55.74925485,-171.56558918,-77.85139701,-71.33947968,171.40591137
-159.60473198,35.33188042,18.87651609,75.16052809,1.86655511,0.01900668,0.76090759

>  <Name>
ligand

>  <RI>
0

>  <Rbt.Current_Directory>
/home/itssahil/PROJECTS/Mol_Feturizer/New_Systems/rnas/2QWY

>  <Rbt.Executable>
rbdock ($Id: //depot/dev/client3/rdock/2013.1/src/exe/rbdock.cxx#4 $)

>  <Rbt.Library>
libRbt.so (2013.1, Build901 2013/11/27)

>  <Rbt.Parameter_File>
/export/apps/rDock/src/rDock_2013.1_src/data/scripts/dock_solv.prm

>  <Rbt.Receptor>
prm/pocket_docking_5.prm

>  <SCORE>
-17.6171

>  <SCORE.INTER>
-14.3977

>  <SCORE.INTER.CONST>
1

>  <SCORE.INTER.POLAR>
0

>  <SCORE.INTER.ROT>
7

>  <SCORE.INTER.SOLV>
6.2097

>  <SCORE.INTER.VDW>
-19.935

>  <SCORE.INTER.norm>
-0.533249

>  <SCORE.INTRA>
-3.2194

>  <SCORE.INTRA.DIHEDRAL>
-6.76431

>  <SCORE.INTRA.DIHEDRAL.0>
10.7382

>  <SCORE.INTRA.POLAR>
0

>  <SCORE.INTRA.POLAR.0>
0

>  <SCORE.INTRA.REPUL>
0

>  <SCORE.INTRA.REPUL.0>
0

>  <SCORE.INTRA.SOLV>
-0.212232

>  <SCORE.INTRA.SOLV.lig_0>
-49.2501

>  <SCORE.INTRA.VDW>
0.268875

>  <SCORE.INTRA.VDW.0>
-1.75368

>  <SCORE.INTRA.norm>
-0.119237

>  <SCORE.RESTR>
0

>  <SCORE.RESTR.CAVITY>
0

>  <SCORE.RESTR.norm>
0

>  <SCORE.SYSTEM>
0

>  <SCORE.SYSTEM.CONST>
0

>  <SCORE.SYSTEM.DIHEDRAL>
0

>  <SCORE.SYSTEM.SOLV>
0

>  <SCORE.SYSTEM.norm>
0

>  <SCORE.heavy>
27

>  <SCORE.norm>
-0.652486

>  <RMSD>
8.478

$$$$
ligand
 OpenBabel11021811463D
libRbt.so/2013.1/901 2013/11/27
 27 29  0  0  0  0  0  0  0  0999 V2000
   34.2292   23.9679   78.5246 N   0  0  0  0  0  0  0  0  0  0  0  0
   35.6471   23.6755   78.2511 C   0  0  2  0  0  0  0  0  0  0  0  0
   36.0226   24.1652   76.8679 C   0  0  0  0  0  0  0  0  0  0  0  0
   35.6673   23.5317   75.8688 O   0  0  0  0  0  0  0  0  0  0  0  0
   35.8685   22.1679   78.3191 C   0  0  0  0  0  0  0  0  0  0  0  0
   37.3475   21.8515   78.3801 C   0  0  0  0  0  0  0  0  0  0  0  0
   37.5251   20.0619   78.4857 S   0  0  2  0  0  0  0  0  0  0  0  0
   39.3334   19.9738   78.6038 C   0  0  0  0  0  0  0  0  0  0  0  0
   37.2819   19.5946   76.7381 C   0  0  0  0  0  0  0  0  0  0  0  0
   37.0957   18.0820   76.6558 C   0  0  1  0  0  0  0  0  0  0  0  0
   36.7255   17.7662   75.3340 O   0  0  0  0  0  0  0  0  0  0  0  0
   38.4098   17.3383   76.9179 C   0  0  1  0  0  0  0  0  0  0  0  0
   38.7763   16.9660   78.2555 O   0  0  0  0  0  0  0  0  0  0  0  0
   38.3739   16.1637   75.8846 C   0  0  1  0  0  0  0  0  0  0  0  0
   38.7129   14.9474   76.5725 O   0  0  0  0  0  0  0  0  0  0  0  0
   37.0100   16.3897   75.1407 C   0  0  2  0  0  0  0  0  0  0  0  0
   36.6167   25.2252   76.7414 O   0  0  0  0  0  0  0  0  0  0  0  0
   35.7303   13.1872   71.2406 N   0  0  0  0  0  0  0  0  0  0  0  0
   35.4963   13.0421   72.5497 C   0  0  0  0  0  0  0  0  0  0  0  0
   35.9052   13.9468   73.4348 N   0  0  0  0  0  0  0  0  0  0  0  0
   36.5529   15.0603   73.0466 C   0  0  0  0  0  0  0  0  0  0  0  0
   36.8132   15.2704   71.6659 C   0  0  0  0  0  0  0  0  0  0  0  0
   36.3680   14.2686   70.7534 C   0  0  0  0  0  0  0  0  0  0  0  0
   36.5753   14.4035   69.3933 N   0  0  0  0  0  0  0  0  0  0  0  0
   37.4609   16.4531   71.5552 N   0  0  0  0  0  0  0  0  0  0  0  0
   37.6101   16.9713   72.7397 C   0  0  0  0  0  0  0  0  0  0  0  0
   37.0661   16.1480   73.6949 N   0  0  0  0  0  0  0  0  0  0  0  0
  2  1  1  6  0  0  0
  2  3  1  0  0  0  0
  2  5  1  0  0  0  0
  3  4  1  0  0  0  0
  3 17  1  0  0  0  0
  5  6  1  0  0  0  0
  7  6  1  6  0  0  0
  7  8  1  0  0  0  0
  7  9  1  0  0  0  0
 10  9  1  6  0  0  0
 10 11  1  0  0  0  0
 10 12  1  0  0  0  0
 11 16  1  0  0  0  0
 12 13  1  1  0  0  0
 12 14  1  0  0  0  0
 14 15  1  1  0  0  0
 14 16  1  0  0  0  0
 16 27  1  6  0  0  0
 18 19  2  0  0  0  0
 18 23  1  0  0  0  0
 19 20  1  0  0  0  0
 20 21  2  0  0  0  0
 21 22  1  0  0  0  0
 21 27  1  0  0  0  0
 22 23  2  0  0  0  0
 22 25  1  0  0  0  0
 23 24  1  0  0  0  0
 25 26  2  0  0  0  0
 26 27  1  0  0  0  0
M  END
>  <CHROM.1>
-75.93705964,-166.24131995,179.07809375,-178.07455637,-167.89359838,171.93148507
-139.16595118,36.95051919,18.35284500,75.49159068,1.61559686,-1.06831054
0.63930091

>  <Name>
ligand

>  <RI>
0

>  <Rbt.Current_Directory>
/home/itssahil/PROJECTS/Mol_Feturizer/New_Systems/rnas/2QWY

>  <Rbt.Executable>
rbdock ($Id: //depot/dev/client3/rdock/2013.1/src/exe/rbdock.cxx#4 $)

>  <Rbt.Library>
libRbt.so (2013.1, Build901 2013/11/27)

>  <Rbt.Parameter_File>
/export/apps/rDock/src/rDock_2013.1_src/data/scripts/dock_solv.prm

>  <Rbt.Receptor>
prm/pocket_docking_6.prm

>  <SCORE>
-13.8396

>  <SCORE.INTER>
-10.7127

>  <SCORE.INTER.CONST>
1

>  <SCORE.INTER.POLAR>
0

>  <SCORE.INTER.ROT>
7

>  <SCORE.INTER.SOLV>
6.2571

>  <SCORE.INTER.VDW>
-17.4942

>  <SCORE.INTER.norm>
-0.396767

>  <SCORE.INTRA>
-3.12693

>  <SCORE.INTRA.DIHEDRAL>
-5.10724

>  <SCORE.INTRA.DIHEDRAL.0>
10.7382

>  <SCORE.INTRA.POLAR>
0

>  <SCORE.INTRA.POLAR.0>
0

>  <SCORE.INTRA.REPUL>
0

>  <SCORE.INTRA.REPUL.0>
0

>  <SCORE.INTRA.SOLV>
-0.923855

>  <SCORE.INTRA.SOLV.lig_0>
-49.2501

>  <SCORE.INTRA.VDW>
-0.111379

>  <SCORE.INTRA.VDW.0>
-1.75368

>  <SCORE.INTRA.norm>
-0.115812

>  <SCORE.RESTR>
0

>  <SCORE.RESTR.CAVITY>
0

>  <SCORE.RESTR.norm>
0

>  <SCORE.SYSTEM>
0

>  <SCORE.SYSTEM.CONST>
0

>  <SCORE.SYSTEM.DIHEDRAL>
0

>  <SCORE.SYSTEM.SOLV>
0

>  <SCORE.SYSTEM.norm>
0

>  <SCORE.heavy>
27

>  <SCORE.norm>
-0.512579

>  <RMSD>
8.485

$$$$
ligand
 OpenBabel11021811463D
libRbt.so/2013.1/901 2013/11/27
 27 29  0  0  0  0  0  0  0  0999 V2000
   28.9643   22.7443   78.1981 N   0  0  0  0  0  0  0  0  0  0  0  0
   28.8644   21.5720   77.3112 C   0  0  2  0  0  0  0  0  0  0  0  0
   27.4619   21.0023   77.3569 C   0  0  0  0  0  0  0  0  0  0  0  0
   26.5970   21.4223   76.5814 O   0  0  0  0  0  0  0  0  0  0  0  0
   29.8475   20.5048   77.7812 C   0  0  0  0  0  0  0  0  0  0  0  0
   31.2700   21.0119   77.6779 C   0  0  0  0  0  0  0  0  0  0  0  0
   32.3700   19.5867   77.7431 S   0  0  2  0  0  0  0  0  0  0  0  0
   32.5969   19.4993   79.5410 C   0  0  0  0  0  0  0  0  0  0  0  0
   33.9487   20.3555   77.2447 C   0  0  0  0  0  0  0  0  0  0  0  0
   34.9790   19.2539   77.0115 C   0  0  1  0  0  0  0  0  0  0  0  0
   34.8632   18.8343   75.6718 O   0  0  0  0  0  0  0  0  0  0  0  0
   36.4100   19.7792   77.1696 C   0  0  1  0  0  0  0  0  0  0  0  0
   37.0511   19.7574   78.4544 O   0  0  0  0  0  0  0  0  0  0  0  0
   37.1905   19.0561   76.0222 C   0  0  1  0  0  0  0  0  0  0  0  0
   38.3998   18.5087   76.5748 O   0  0  0  0  0  0  0  0  0  0  0  0
   36.0794   18.1872   75.3328 C   0  0  2  0  0  0  0  0  0  0  0  0
   27.2082   20.0777   78.1142 O   0  0  0  0  0  0  0  0  0  0  0  0
   36.3284   15.1746   71.0941 N   0  0  0  0  0  0  0  0  0  0  0  0
   36.2685   14.8041   72.3782 C   0  0  0  0  0  0  0  0  0  0  0  0
   36.2274   15.7000   73.3603 N   0  0  0  0  0  0  0  0  0  0  0  0
   36.2210   17.0203   73.1013 C   0  0  0  0  0  0  0  0  0  0  0  0
   36.2678   17.4668   71.7535 C   0  0  0  0  0  0  0  0  0  0  0  0
   36.3236   16.4718   70.7330 C   0  0  0  0  0  0  0  0  0  0  0  0
   36.3625   16.8253   69.3972 N   0  0  0  0  0  0  0  0  0  0  0  0
   36.2427   18.8194   71.7779 N   0  0  0  0  0  0  0  0  0  0  0  0
   36.1826   19.2236   73.0136 C   0  0  0  0  0  0  0  0  0  0  0  0
   36.1675   18.1492   73.8690 N   0  0  0  0  0  0  0  0  0  0  0  0
  2  1  1  1  0  0  0
  2  3  1  0  0  0  0
  2  5  1  0  0  0  0
  3  4  1  0  0  0  0
  3 17  1  0  0  0  0
  5  6  1  0  0  0  0
  7  6  1  1  0  0  0
  7  8  1  0  0  0  0
  7  9  1  0  0  0  0
 10  9  1  6  0  0  0
 10 11  1  0  0  0  0
 10 12  1  0  0  0  0
 11 16  1  0  0  0  0
 12 13  1  1  0  0  0
 12 14  1  0  0  0  0
 14 15  1  1  0  0  0
 14 16  1  0  0  0  0
 16 27  1  6  0  0  0
 18 19  2  0  0  0  0
 18 23  1  0  0  0  0
 19 20  1  0  0  0  0
 20 21  2  0  0  0  0
 21 22  1  0  0  0  0
 21 27  1  0  0  0  0
 22 23  2  0  0  0  0
 22 25  1  0  0  0  0
 23 24  1  0  0  0  0
 25 26  2  0  0  0  0
 26 27  1  0  0  0  0
M  END
>  <CHROM.1>
88.75328113,-62.84400435,-162.63208709,-89.24810664,-170.64437128,87.77637527
-118.43459522,33.81060621,19.00220542,75.56448501,2.45175688,-0.18871935
1.15260603

>  <Name>
ligand

>  <RI>
0

>  <Rbt.Current_Directory>
/home/itssahil/PROJECTS/Mol_Feturizer/New_Systems/rnas/2QWY

>  <Rbt.Executable>
rbdock ($Id: //depot/dev/client3/rdock/2013.1/src/exe/rbdock.cxx#4 $)

>  <Rbt.Library>
libRbt.so (2013.1, Build901 2013/11/27)

>  <Rbt.Parameter_File>
/export/apps/rDock/src/rDock_2013.1_src/data/scripts/dock_solv.prm

>  <Rbt.Receptor>
prm/pocket_docking_3.prm

>  <SCORE>
-15.5214

>  <SCORE.INTER>
-14.9983

>  <SCORE.INTER.CONST>
1

>  <SCORE.INTER.POLAR>
0

>  <SCORE.INTER.ROT>
7

>  <SCORE.INTER.SOLV>
18.8065

>  <SCORE.INTER.VDW>
-24.5344

>  <SCORE.INTER.norm>
-0.555494

>  <SCORE.INTRA>
-0.822829

>  <SCORE.INTRA.DIHEDRAL>
-1.88478

>  <SCORE.INTRA.DIHEDRAL.0>
10.7382

>  <SCORE.INTRA.POLAR>
0

>  <SCORE.INTRA.POLAR.0>
0

>  <SCORE.INTRA.REPUL>
0

>  <SCORE.INTRA.REPUL.0>
0

>  <SCORE.INTRA.SOLV>
-0.657759

>  <SCORE.INTRA.SOLV.lig_0>
-49.2501

>  <SCORE.INTRA.VDW>
0.44844

>  <SCORE.INTRA.VDW.0>
-1.75368

>  <SCORE.INTRA.norm>
-0.0304751

>  <SCORE.RESTR>
0.299822

>  <SCORE.RESTR.CAVITY>
0.299822

>  <SCORE.RESTR.norm>
0.0111045

>  <SCORE.SYSTEM>
0

>  <SCORE.SYSTEM.CONST>
0

>  <SCORE.SYSTEM.DIHEDRAL>
0

>  <SCORE.SYSTEM.SOLV>
0

>  <SCORE.SYSTEM.norm>
0

>  <SCORE.heavy>
27

>  <SCORE.norm>
-0.574865

>  <RMSD>
8.501

$$$$
ligand
 OpenBabel11021811463D
libRbt.so/2013.1/901 2013/11/27
 27 29  0  0  0  0  0  0  0  0999 V2000
   29.7171   20.5435   78.0566 N   0  0  0  0  0  0  0  0  0  0  0  0
   30.8928   19.7454   77.6673 C   0  0  2  0  0  0  0  0  0  0  0  0
   30.6317   18.2752   77.9213 C   0  0  0  0  0  0  0  0  0  0  0  0
   29.5926   17.9191   78.4862 O   0  0  0  0  0  0  0  0  0  0  0  0
   32.0931   20.1855   78.4991 C   0  0  0  0  0  0  0  0  0  0  0  0
   33.1772   20.7518   77.6071 C   0  0  0  0  0  0  0  0  0  0  0  0
   34.1885   19.3782   77.0277 S   0  0  2  0  0  0  0  0  0  0  0  0
   35.4786   19.4328   78.3022 C   0  0  0  0  0  0  0  0  0  0  0  0
   35.0633   20.1674   75.6336 C   0  0  0  0  0  0  0  0  0  0  0  0
   36.2758   19.3150   75.2693 C   0  0  1  0  0  0  0  0  0  0  0  0
   35.8467   18.3208   74.3684 O   0  0  0  0  0  0  0  0  0  0  0  0
   37.3359   20.1337   74.5247 C   0  0  1  0  0  0  0  0  0  0  0  0
   38.3599   20.8267   75.2550 O   0  0  0  0  0  0  0  0  0  0  0  0
   37.8522   19.1455   73.4268 C   0  0  1  0  0  0  0  0  0  0  0  0
   39.2898   19.1663   73.4413 O   0  0  0  0  0  0  0  0  0  0  0  0
   36.9996   17.8530   73.6864 C   0  0  2  0  0  0  0  0  0  0  0  0
   31.4184   17.4394   77.5028 O   0  0  0  0  0  0  0  0  0  0  0  0
   35.4960   13.3517   71.5460 N   0  0  0  0  0  0  0  0  0  0  0  0
   35.8824   13.5886   72.8047 C   0  0  0  0  0  0  0  0  0  0  0  0
   36.2591   14.8011   73.2010 N   0  0  0  0  0  0  0  0  0  0  0  0
   36.2451   15.8477   72.3557 C   0  0  0  0  0  0  0  0  0  0  0  0
   35.8284   15.6531   71.0116 C   0  0  0  0  0  0  0  0  0  0  0  0
   35.4450   14.3343   70.6267 C   0  0  0  0  0  0  0  0  0  0  0  0
   35.0193   14.0651   69.3394 N   0  0  0  0  0  0  0  0  0  0  0  0
   35.9021   16.8532   70.3911 N   0  0  0  0  0  0  0  0  0  0  0  0
   36.3211   17.7477   71.2386 C   0  0  0  0  0  0  0  0  0  0  0  0
   36.5476   17.1755   72.4663 N   0  0  0  0  0  0  0  0  0  0  0  0
  2  1  1  1  0  0  0
  2  3  1  0  0  0  0
  2  5  1  0  0  0  0
  3  4  1  0  0  0  0
  3 17  1  0  0  0  0
  5  6  1  0  0  0  0
  7  6  1  1  0  0  0
  7  8  1  0  0  0  0
  7  9  1  0  0  0  0
 10  9  1  6  0  0  0
 10 11  1  0  0  0  0
 10 12  1  0  0  0  0
 11 16  1  0  0  0  0
 12 13  1  1  0  0  0
 12 14  1  0  0  0  0
 14 15  1  1  0  0  0
 14 16  1  0  0  0  0
 16 27  1  6  0  0  0
 18 19  2  0  0  0  0
 18 23  1  0  0  0  0
 19 20  1  0  0  0  0
 20 21  2  0  0  0  0
 21 22  1  0  0  0  0
 21 27  1  0  0  0  0
 22 23  2  0  0  0  0
 22 25  1  0  0  0  0
 23 24  1  0  0  0  0
 25 26  2  0  0  0  0
 26 27  1  0  0  0  0
M  END
>  <CHROM.1>
-5.60362245,-117.58268442,-86.08388065,-93.68795719,162.83903851,86.13927666
-90.23182302,34.88209691,17.99222712,74.71761780,2.19657220,0.44763953,0.74530657

>  <Name>
ligand

>  <RI>
0

>  <Rbt.Current_Directory>
/home/itssahil/PROJECTS/Mol_Feturizer/New_Systems/rnas/2QWY

>  <Rbt.Executable>
rbdock ($Id: //depot/dev/client3/rdock/2013.1/src/exe/rbdock.cxx#4 $)

>  <Rbt.Library>
libRbt.so (2013.1, Build901 2013/11/27)

>  <Rbt.Parameter_File>
/export/apps/rDock/src/rDock_2013.1_src/data/scripts/dock_solv.prm

>  <Rbt.Receptor>
prm/pocket_docking_8.prm

>  <SCORE>
-15.8544

>  <SCORE.INTER>
-16.9401

>  <SCORE.INTER.CONST>
1

>  <SCORE.INTER.POLAR>
0

>  <SCORE.INTER.ROT>
7

>  <SCORE.INTER.SOLV>
14.1942

>  <SCORE.INTER.VDW>
-24.2915

>  <SCORE.INTER.norm>
-0.627411

>  <SCORE.INTRA>
1.08571

>  <SCORE.INTRA.DIHEDRAL>
4.40218

>  <SCORE.INTRA.DIHEDRAL.0>
10.7382

>  <SCORE.INTRA.POLAR>
0

>  <SCORE.INTRA.POLAR.0>
0

>  <SCORE.INTRA.REPUL>
0

>  <SCORE.INTRA.REPUL.0>
0

>  <SCORE.INTRA.SOLV>
-0.912072

>  <SCORE.INTRA.SOLV.lig_0>
-49.2501

>  <SCORE.INTRA.VDW>
-0.659347

>  <SCORE.INTRA.VDW.0>
-1.75368

>  <SCORE.INTRA.norm>
0.0402113

>  <SCORE.RESTR>
0

>  <SCORE.RESTR.CAVITY>
0

>  <SCORE.RESTR.norm>
0

>  <SCORE.SYSTEM>
0

>  <SCORE.SYSTEM.CONST>
0

>  <SCORE.SYSTEM.DIHEDRAL>
0

>  <SCORE.SYSTEM.SOLV>
0

>  <SCORE.SYSTEM.norm>
0

>  <SCORE.heavy>
27

>  <SCORE.norm>
-0.5872

>  <RMSD>
8.509

$$$$
ligand
 OpenBabel11021811463D
libRbt.so/2013.1/901 2013/11/27
 27 29  0  0  0  0  0  0  0  0999 V2000
   26.2926   24.2566   73.3048 N   0  0  0  0  0  0  0  0  0  0  0  0
   25.5214   23.0633   73.6944 C   0  0  2  0  0  0  0  0  0  0  0  0
   24.5240   22.7107   72.6104 C   0  0  0  0  0  0  0  0  0  0  0  0
   24.2787   23.5178   71.7081 O   0  0  0  0  0  0  0  0  0  0  0  0
   24.7650   23.3568   74.9860 C   0  0  0  0  0  0  0  0  0  0  0  0
   25.7180   23.3951   76.1614 C   0  0  0  0  0  0  0  0  0  0  0  0
   26.3094   21.7177   76.4473 S   0  0  2  0  0  0  0  0  0  0  0  0
   25.0985   21.2112   77.6998 C   0  0  0  0  0  0  0  0  0  0  0  0
   27.7624   22.0469   77.5019 C   0  0  0  0  0  0  0  0  0  0  0  0
   28.8602   21.0461   77.1514 C   0  0  1  0  0  0  0  0  0  0  0  0
   30.0503   21.4815   77.7663 O   0  0  0  0  0  0  0  0  0  0  0  0
   28.5643   19.6596   77.7331 C   0  0  1  0  0  0  0  0  0  0  0  0
   27.8032   18.7050   76.9771 O   0  0  0  0  0  0  0  0  0  0  0  0
   29.9669   19.1622   78.2162 C   0  0  1  0  0  0  0  0  0  0  0  0
   30.1573   17.8185   77.7410 O   0  0  0  0  0  0  0  0  0  0  0  0
   30.9133   20.3578   77.8426 C   0  0  2  0  0  0  0  0  0  0  0  0
   24.0168   21.5994   72.5924 O   0  0  0  0  0  0  0  0  0  0  0  0
   33.6532   24.0637   80.2641 N   0  0  0  0  0  0  0  0  0  0  0  0
   32.7384   24.2001   79.2975 C   0  0  0  0  0  0  0  0  0  0  0  0
   32.1309   23.1461   78.7599 N   0  0  0  0  0  0  0  0  0  0  0  0
   32.3952   21.8967   79.1832 C   0  0  0  0  0  0  0  0  0  0  0  0
   33.3477   21.6978   80.2183 C   0  0  0  0  0  0  0  0  0  0  0  0
   33.9839   22.8551   80.7572 C   0  0  0  0  0  0  0  0  0  0  0  0
   34.9157   22.7459   81.7725 N   0  0  0  0  0  0  0  0  0  0  0  0
   33.4145   20.3667   80.4516 N   0  0  0  0  0  0  0  0  0  0  0  0
   32.5894   19.7512   79.6552 C   0  0  0  0  0  0  0  0  0  0  0  0
   31.9364   20.6532   78.8515 N   0  0  0  0  0  0  0  0  0  0  0  0
  2  1  1  6  0  0  0
  2  3  1  0  0  0  0
  2  5  1  0  0  0  0
  3  4  1  0  0  0  0
  3 17  1  0  0  0  0
  5  6  1  0  0  0  0
  7  6  1  1  0  0  0
  7  8  1  0  0  0  0
  7  9  1  0  0  0  0
 10  9  1  1  0  0  0
 10 11  1  0  0  0  0
 10 12  1  0  0  0  0
 11 16  1  0  0  0  0
 12 13  1  6  0  0  0
 12 14  1  0  0  0  0
 14 15  1  6  0  0  0
 14 16  1  0  0  0  0
 16 27  1  1  0  0  0
 18 19  2  0  0  0  0
 18 23  1  0  0  0  0
 19 20  1  0  0  0  0
 20 21  2  0  0  0  0
 21 22  1  0  0  0  0
 21 27  1  0  0  0  0
 22 23  2  0  0  0  0
 22 25  1  0  0  0  0
 23 24  1  0  0  0  0
 25 26  2  0  0  0  0
 26 27  1  0  0  0  0
M  END
>  <CHROM.1>
-13.18537847,-72.95443352,-69.31340174,-93.82677899,-143.78299300,168.12906015
-28.50619731,29.05622637,21.69146889,77.25662509,-2.92816890,0.61326896,2.91398615

>  <Name>
ligand

>  <RI>
0

>  <Rbt.Current_Directory>
/home/itssahil/PROJECTS/Mol_Feturizer/New_Systems/rnas/2QWY

>  <Rbt.Executable>
rbdock ($Id: //depot/dev/client3/rdock/2013.1/src/exe/rbdock.cxx#4 $)

>  <Rbt.Library>
libRbt.so (2013.1, Build901 2013/11/27)

>  <Rbt.Parameter_File>
/export/apps/rDock/src/rDock_2013.1_src/data/scripts/dock_solv.prm

>  <Rbt.Receptor>
prm/pocket_docking_8.prm

>  <SCORE>
-23.4163

>  <SCORE.INTER>
-22.5023

>  <SCORE.INTER.CONST>
1

>  <SCORE.INTER.POLAR>
0

>  <SCORE.INTER.ROT>
7

>  <SCORE.INTER.SOLV>
11.8528

>  <SCORE.INTER.VDW>
-27.2191

>  <SCORE.INTER.norm>
-0.833418

>  <SCORE.INTRA>
-0.913997

>  <SCORE.INTRA.DIHEDRAL>
-0.66517

>  <SCORE.INTRA.DIHEDRAL.0>
10.7382

>  <SCORE.INTRA.POLAR>
0

>  <SCORE.INTRA.POLAR.0>
0

>  <SCORE.INTRA.REPUL>
0

>  <SCORE.INTRA.REPUL.0>
0

>  <SCORE.INTRA.SOLV>
0.136663

>  <SCORE.INTRA.SOLV.lig_0>
-49.2501

>  <SCORE.INTRA.VDW>
-0.649743

>  <SCORE.INTRA.VDW.0>
-1.75368

>  <SCORE.INTRA.norm>
-0.0338517

>  <SCORE.RESTR>
0

>  <SCORE.RESTR.CAVITY>
0

>  <SCORE.RESTR.norm>
0

>  <SCORE.SYSTEM>
0

>  <SCORE.SYSTEM.CONST>
0

>  <SCORE.SYSTEM.DIHEDRAL>
0

>  <SCORE.SYSTEM.SOLV>
0

>  <SCORE.SYSTEM.norm>
0

>  <SCORE.heavy>
27

>  <SCORE.norm>
-0.86727

>  <RMSD>
8.518

$$$$
ligand
 OpenBabel11021811463D
libRbt.so/2013.1/901 2013/11/27
 27 29  0  0  0  0  0  0  0  0999 V2000
   33.3997   23.8485   80.1936 N   0  0  0  0  0  0  0  0  0  0  0  0
   33.3871   23.2130   78.8645 C   0  0  2  0  0  0  0  0  0  0  0  0
   32.3615   22.0990   78.8293 C   0  0  0  0  0  0  0  0  0  0  0  0
   32.4540   21.1470   79.6109 O   0  0  0  0  0  0  0  0  0  0  0  0
   34.7653   22.6257   78.5784 C   0  0  0  0  0  0  0  0  0  0  0  0
   34.7915   21.9761   77.2114 C   0  0  0  0  0  0  0  0  0  0  0  0
   36.5145   21.6968   76.7660 S   0  0  2  0  0  0  0  0  0  0  0  0
   36.9499   23.3910   76.2848 C   0  0  0  0  0  0  0  0  0  0  0  0
   36.3180   20.9238   75.1242 C   0  0  0  0  0  0  0  0  0  0  0  0
   36.0213   19.4386   75.3132 C   0  0  1  0  0  0  0  0  0  0  0  0
   35.7324   18.8939   74.0468 O   0  0  0  0  0  0  0  0  0  0  0  0
   37.2486   18.6812   75.8313 C   0  0  1  0  0  0  0  0  0  0  0  0
   37.4788   18.5558   77.2432 O   0  0  0  0  0  0  0  0  0  0  0  0
   37.2023   17.3318   75.0405 C   0  0  1  0  0  0  0  0  0  0  0  0
   37.3903   16.2549   75.9746 O   0  0  0  0  0  0  0  0  0  0  0  0
   35.9229   17.4913   74.1449 C   0  0  2  0  0  0  0  0  0  0  0  0
   31.4044   22.1806   78.0743 O   0  0  0  0  0  0  0  0  0  0  0  0
   35.9507   13.2550   71.1188 N   0  0  0  0  0  0  0  0  0  0  0  0
   35.7801   13.3325   72.4435 C   0  0  0  0  0  0  0  0  0  0  0  0
   35.8175   14.4979   73.0834 N   0  0  0  0  0  0  0  0  0  0  0  0
   36.0059   15.6531   72.4200 C   0  0  0  0  0  0  0  0  0  0  0  0
   36.1772   15.6277   71.0099 C   0  0  0  0  0  0  0  0  0  0  0  0
   36.1424   14.3552   70.3664 C   0  0  0  0  0  0  0  0  0  0  0  0
   36.2924   14.2472   68.9965 N   0  0  0  0  0  0  0  0  0  0  0  0
   36.3383   16.9077   70.6023 N   0  0  0  0  0  0  0  0  0  0  0  0
   36.2769   17.6965   71.6357 C   0  0  0  0  0  0  0  0  0  0  0  0
   36.0733   16.9687   72.7825 N   0  0  0  0  0  0  0  0  0  0  0  0
  2  1  1  1  0  0  0
  2  3  1  0  0  0  0
  2  5  1  0  0  0  0
  3  4  1  0  0  0  0
  3 17  1  0  0  0  0
  5  6  1  0  0  0  0
  7  6  1  6  0  0  0
  7  8  1  0  0  0  0
  7  9  1  0  0  0  0
 10  9  1  6  0  0  0
 10 11  1  0  0  0  0
 10 12  1  0  0  0  0
 11 16  1  0  0  0  0
 12 13  1  1  0  0  0
 12 14  1  0  0  0  0
 14 15  1  1  0  0  0
 14 16  1  0  0  0  0
 16 27  1  6  0  0  0
 18 19  2  0  0  0  0
 18 23  1  0  0  0  0
 19 20  1  0  0  0  0
 20 21  2  0  0  0  0
 21 22  1  0  0  0  0
 21 27  1  0  0  0  0
 22 23  2  0  0  0  0
 22 25  1  0  0  0  0
 23 24  1  0  0  0  0
 25 26  2  0  0  0  0
 26 27  1  0  0  0  0
M  END
>  <CHROM.1>
-59.56399697,-179.41310644,165.46147442,-77.53302335,-82.26931628,173.80954634
-165.97264481,35.59160996,18.83779965,75.07119604,1.79731556,0.38183844,0.66349188

>  <Name>
ligand

>  <RI>
0

>  <Rbt.Current_Directory>
/home/itssahil/PROJECTS/Mol_Feturizer/New_Systems/rnas/2QWY

>  <Rbt.Executable>
rbdock ($Id: //depot/dev/client3/rdock/2013.1/src/exe/rbdock.cxx#4 $)

>  <Rbt.Library>
libRbt.so (2013.1, Build901 2013/11/27)

>  <Rbt.Parameter_File>
/export/apps/rDock/src/rDock_2013.1_src/data/scripts/dock_solv.prm

>  <Rbt.Receptor>
prm/pocket_docking_6.prm

>  <SCORE>
-16.7501

>  <SCORE.INTER>
-13.3211

>  <SCORE.INTER.CONST>
1

>  <SCORE.INTER.POLAR>
0

>  <SCORE.INTER.ROT>
7

>  <SCORE.INTER.SOLV>
4.09202

>  <SCORE.INTER.VDW>
-18.5114

>  <SCORE.INTER.norm>
-0.493374

>  <SCORE.INTRA>
-3.42903

>  <SCORE.INTRA.DIHEDRAL>
-5.93373

>  <SCORE.INTRA.DIHEDRAL.0>
10.7382

>  <SCORE.INTRA.POLAR>
0

>  <SCORE.INTRA.POLAR.0>
0

>  <SCORE.INTRA.REPUL>
0

>  <SCORE.INTRA.REPUL.0>
0

>  <SCORE.INTRA.SOLV>
-1.06642

>  <SCORE.INTRA.SOLV.lig_0>
-49.2501

>  <SCORE.INTRA.VDW>
0.0710466

>  <SCORE.INTRA.VDW.0>
-1.75368

>  <SCORE.INTRA.norm>
-0.127001

>  <SCORE.RESTR>
0

>  <SCORE.RESTR.CAVITY>
0

>  <SCORE.RESTR.norm>
0

>  <SCORE.SYSTEM>
0

>  <SCORE.SYSTEM.CONST>
0

>  <SCORE.SYSTEM.DIHEDRAL>
0

>  <SCORE.SYSTEM.SOLV>
0

>  <SCORE.SYSTEM.norm>
0

>  <SCORE.heavy>
27

>  <SCORE.norm>
-0.620375

>  <RMSD>
8.519

$$$$
ligand
 OpenBabel11021811463D
libRbt.so/2013.1/901 2013/11/27
 27 29  0  0  0  0  0  0  0  0999 V2000
   35.4736   21.8662   81.7779 N   0  0  0  0  0  0  0  0  0  0  0  0
   34.1608   21.6717   81.1379 C   0  0  2  0  0  0  0  0  0  0  0  0
   33.0532   21.8581   82.1539 C   0  0  0  0  0  0  0  0  0  0  0  0
   32.9365   21.0670   83.0954 O   0  0  0  0  0  0  0  0  0  0  0  0
   34.0837   20.2557   80.5764 C   0  0  0  0  0  0  0  0  0  0  0  0
   32.7463   20.0230   79.9066 C   0  0  0  0  0  0  0  0  0  0  0  0
   32.7645   20.8835   78.3240 S   0  0  2  0  0  0  0  0  0  0  0  0
   30.9795   20.8953   77.9995 C   0  0  0  0  0  0  0  0  0  0  0  0
   33.2965   19.5364   77.2133 C   0  0  0  0  0  0  0  0  0  0  0  0
   34.8211   19.5325   77.1417 C   0  0  1  0  0  0  0  0  0  0  0  0
   35.2286   18.2473   76.7336 O   0  0  0  0  0  0  0  0  0  0  0  0
   35.3367   20.5010   76.0718 C   0  0  1  0  0  0  0  0  0  0  0  0
   35.6083   21.8709   76.4062 O   0  0  0  0  0  0  0  0  0  0  0  0
   36.5297   19.7234   75.4235 C   0  0  1  0  0  0  0  0  0  0  0  0
   37.6565   20.6130   75.3414 O   0  0  0  0  0  0  0  0  0  0  0  0
   36.5463   18.3722   76.2228 C   0  0  2  0  0  0  0  0  0  0  0  0
   32.3203   22.8328   82.0788 O   0  0  0  0  0  0  0  0  0  0  0  0
   36.5208   16.3489   71.4259 N   0  0  0  0  0  0  0  0  0  0  0  0
   36.1557   17.5755   71.8156 C   0  0  0  0  0  0  0  0  0  0  0  0
   36.2015   17.9429   73.0930 N   0  0  0  0  0  0  0  0  0  0  0  0
   36.6401   17.1010   74.0464 C   0  0  0  0  0  0  0  0  0  0  0  0
   37.0543   15.7914   73.6837 C   0  0  0  0  0  0  0  0  0  0  0  0
   36.9767   15.4359   72.3045 C   0  0  0  0  0  0  0  0  0  0  0  0
   37.3692   14.1837   71.8702 N   0  0  0  0  0  0  0  0  0  0  0  0
   37.4493   15.1672   74.8172 N   0  0  0  0  0  0  0  0  0  0  0  0
   37.3129   15.9814   75.8234 C   0  0  0  0  0  0  0  0  0  0  0  0
   36.8155   17.1890   75.3985 N   0  0  0  0  0  0  0  0  0  0  0  0
  2  1  1  1  0  0  0
  2  3  1  0  0  0  0
  2  5  1  0  0  0  0
  3  4  1  0  0  0  0
  3 17  1  0  0  0  0
  5  6  1  0  0  0  0
  7  6  1  1  0  0  0
  7  8  1  0  0  0  0
  7  9  1  0  0  0  0
 10  9  1  6  0  0  0
 10 11  1  0  0  0  0
 10 12  1  0  0  0  0
 11 16  1  0  0  0  0
 12 13  1  1  0  0  0
 12 14  1  0  0  0  0
 14 15  1  1  0  0  0
 14 16  1  0  0  0  0
 16 27  1  6  0  0  0
 18 19  2  0  0  0  0
 18 23  1  0  0  0  0
 19 20  1  0  0  0  0
 20 21  2  0  0  0  0
 21 22  1  0  0  0  0
 21 27  1  0  0  0  0
 22 23  2  0  0  0  0
 22 25  1  0  0  0  0
 23 24  1  0  0  0  0
 25 26  2  0  0  0  0
 26 27  1  0  0  0  0
M  END
>  <CHROM.1>
-65.66507950,-179.82712073,75.19809731,-163.28763537,-89.41754621,157.96575795
94.08402071,35.08910030,19.16257020,76.91275042,-2.22024076,0.89791290,-1.61924160

>  <Name>
ligand

>  <RI>
0

>  <Rbt.Current_Directory>
/home/itssahil/PROJECTS/Mol_Feturizer/New_Systems/rnas/2QWY

>  <Rbt.Executable>
rbdock ($Id: //depot/dev/client3/rdock/2013.1/src/exe/rbdock.cxx#4 $)

>  <Rbt.Library>
libRbt.so (2013.1, Build901 2013/11/27)

>  <Rbt.Parameter_File>
/export/apps/rDock/src/rDock_2013.1_src/data/scripts/dock_solv.prm

>  <Rbt.Receptor>
prm/pocket_docking_8.prm

>  <SCORE>
-13.8499

>  <SCORE.INTER>
-11.358

>  <SCORE.INTER.CONST>
1

>  <SCORE.INTER.POLAR>
0

>  <SCORE.INTER.ROT>
7

>  <SCORE.INTER.SOLV>
7.14154

>  <SCORE.INTER.VDW>
-18.2192

>  <SCORE.INTER.norm>
-0.420668

>  <SCORE.INTRA>
-2.4919

>  <SCORE.INTRA.DIHEDRAL>
-2.48575

>  <SCORE.INTRA.DIHEDRAL.0>
10.7382

>  <SCORE.INTRA.POLAR>
0

>  <SCORE.INTRA.POLAR.0>
0

>  <SCORE.INTRA.REPUL>
0

>  <SCORE.INTRA.REPUL.0>
0

>  <SCORE.INTRA.SOLV>
-0.957244

>  <SCORE.INTRA.SOLV.lig_0>
-49.2501

>  <SCORE.INTRA.VDW>
-0.7704

>  <SCORE.INTRA.VDW.0>
-1.75368

>  <SCORE.INTRA.norm>
-0.0922925

>  <SCORE.RESTR>
0

>  <SCORE.RESTR.CAVITY>
0

>  <SCORE.RESTR.norm>
0

>  <SCORE.SYSTEM>
0

>  <SCORE.SYSTEM.CONST>
0

>  <SCORE.SYSTEM.DIHEDRAL>
0

>  <SCORE.SYSTEM.SOLV>
0

>  <SCORE.SYSTEM.norm>
0

>  <SCORE.heavy>
27

>  <SCORE.norm>
-0.512961

>  <RMSD>
8.523

$$$$
ligand
 OpenBabel11021811463D
libRbt.so/2013.1/901 2013/11/27
 27 29  0  0  0  0  0  0  0  0999 V2000
   34.6226   24.4054   79.8910 N   0  0  0  0  0  0  0  0  0  0  0  0
   34.3717   23.6675   78.6407 C   0  0  2  0  0  0  0  0  0  0  0  0
   33.4180   22.5190   78.8961 C   0  0  0  0  0  0  0  0  0  0  0  0
   33.6818   21.6747   79.7583 O   0  0  0  0  0  0  0  0  0  0  0  0
   35.6906   23.1083   78.1173 C   0  0  0  0  0  0  0  0  0  0  0  0
   35.4879   22.4424   76.7731 C   0  0  0  0  0  0  0  0  0  0  0  0
   37.0568   21.7076   76.2790 S   0  0  2  0  0  0  0  0  0  0  0  0
   37.8859   23.2082   75.6855 C   0  0  0  0  0  0  0  0  0  0  0  0
   36.5845   20.9378   74.6928 C   0  0  0  0  0  0  0  0  0  0  0  0
   36.1202   19.5086   74.9598 C   0  0  1  0  0  0  0  0  0  0  0  0
   35.8442   18.9074   73.7162 O   0  0  0  0  0  0  0  0  0  0  0  0
   37.2288   18.6674   75.6014 C   0  0  1  0  0  0  0  0  0  0  0  0
   37.3666   18.6202   77.0300 O   0  0  0  0  0  0  0  0  0  0  0  0
   37.0812   17.2769   74.8992 C   0  0  1  0  0  0  0  0  0  0  0  0
   37.1010   16.2559   75.9116 O   0  0  0  0  0  0  0  0  0  0  0  0
   35.8772   17.5033   73.9175 C   0  0  2  0  0  0  0  0  0  0  0  0
   32.3548   22.4699   78.2962 O   0  0  0  0  0  0  0  0  0  0  0  0
   35.9603   13.0335   71.2494 N   0  0  0  0  0  0  0  0  0  0  0  0
   35.7752   13.2183   72.5614 C   0  0  0  0  0  0  0  0  0  0  0  0
   35.7994   14.4324   73.1040 N   0  0  0  0  0  0  0  0  0  0  0  0
   35.9886   15.5305   72.3500 C   0  0  0  0  0  0  0  0  0  0  0  0
   36.1750   15.3907   70.9486 C   0  0  0  0  0  0  0  0  0  0  0  0
   36.1540   14.0696   70.4114 C   0  0  0  0  0  0  0  0  0  0  0  0
   36.3191   13.8507   69.0565 N   0  0  0  0  0  0  0  0  0  0  0  0
   36.3336   16.6340   70.4391 N   0  0  0  0  0  0  0  0  0  0  0  0
   36.2569   17.5044   71.4037 C   0  0  0  0  0  0  0  0  0  0  0  0
   36.0450   16.8717   72.6041 N   0  0  0  0  0  0  0  0  0  0  0  0
  2  1  1  1  0  0  0
  2  3  1  0  0  0  0
  2  5  1  0  0  0  0
  3  4  1  0  0  0  0
  3 17  1  0  0  0  0
  5  6  1  0  0  0  0
  7  6  1  1  0  0  0
  7  8  1  0  0  0  0
  7  9  1  0  0  0  0
 10  9  1  6  0  0  0
 10 11  1  0  0  0  0
 10 12  1  0  0  0  0
 11 16  1  0  0  0  0
 12 13  1  1  0  0  0
 12 14  1  0  0  0  0
 14 15  1  1  0  0  0
 14 16  1  0  0  0  0
 16 27  1  6  0  0  0
 18 19  2  0  0  0  0
 18 23  1  0  0  0  0
 19 20  1  0  0  0  0
 20 21  2  0  0  0  0
 21 22  1  0  0  0  0
 21 27  1  0  0  0  0
 22 23  2  0  0  0  0
 22 25  1  0  0  0  0
 23 24  1  0  0  0  0
 25 26  2  0  0  0  0
 26 27  1  0  0  0  0
M  END
>  <CHROM.1>
-55.59751972,-175.27496231,-176.00412529,-78.93927131,-90.58711499,-176.25459558
-172.97556362,35.92219458,18.88436314,74.89172000,1.75951192,0.90352335,0.55417490

>  <Name>
ligand

>  <RI>
0

>  <Rbt.Current_Directory>
/home/itssahil/PROJECTS/Mol_Feturizer/New_Systems/rnas/2QWY

>  <Rbt.Executable>
rbdock ($Id: //depot/dev/client3/rdock/2013.1/src/exe/rbdock.cxx#4 $)

>  <Rbt.Library>
libRbt.so (2013.1, Build901 2013/11/27)

>  <Rbt.Parameter_File>
/export/apps/rDock/src/rDock_2013.1_src/data/scripts/dock_solv.prm

>  <Rbt.Receptor>
prm/pocket_docking_5.prm

>  <SCORE>
-15.5148

>  <SCORE.INTER>
-12.0982

>  <SCORE.INTER.CONST>
1

>  <SCORE.INTER.POLAR>
0

>  <SCORE.INTER.ROT>
7

>  <SCORE.INTER.SOLV>
4.44941

>  <SCORE.INTER.VDW>
-17.8153

>  <SCORE.INTER.norm>
-0.448081

>  <SCORE.INTRA>
-3.41664

>  <SCORE.INTRA.DIHEDRAL>
-5.82412

>  <SCORE.INTRA.DIHEDRAL.0>
10.7382

>  <SCORE.INTRA.POLAR>
0

>  <SCORE.INTRA.POLAR.0>
0

>  <SCORE.INTRA.REPUL>
0

>  <SCORE.INTRA.REPUL.0>
0

>  <SCORE.INTRA.SOLV>
-1.00616

>  <SCORE.INTRA.SOLV.lig_0>
-49.2501

>  <SCORE.INTRA.VDW>
-0.00150473

>  <SCORE.INTRA.VDW.0>
-1.75368

>  <SCORE.INTRA.norm>
-0.126542

>  <SCORE.RESTR>
0

>  <SCORE.RESTR.CAVITY>
0

>  <SCORE.RESTR.norm>
0

>  <SCORE.SYSTEM>
0

>  <SCORE.SYSTEM.CONST>
0

>  <SCORE.SYSTEM.DIHEDRAL>
0

>  <SCORE.SYSTEM.SOLV>
0

>  <SCORE.SYSTEM.norm>
0

>  <SCORE.heavy>
27

>  <SCORE.norm>
-0.574623

>  <RMSD>
8.542

$$$$
ligand
 OpenBabel11021811463D
libRbt.so/2013.1/901 2013/11/27
 27 29  0  0  0  0  0  0  0  0999 V2000
   35.7807   22.9098   81.3092 N   0  0  0  0  0  0  0  0  0  0  0  0
   34.8432   22.6728   80.1975 C   0  0  2  0  0  0  0  0  0  0  0  0
   33.9137   23.8579   80.0382 C   0  0  0  0  0  0  0  0  0  0  0  0
   33.3412   24.0559   78.9617 O   0  0  0  0  0  0  0  0  0  0  0  0
   34.0127   21.4300   80.5006 C   0  0  0  0  0  0  0  0  0  0  0  0
   34.1930   20.3935   79.4123 C   0  0  0  0  0  0  0  0  0  0  0  0
   33.5375   21.0808   77.8815 S   0  0  2  0  0  0  0  0  0  0  0  0
   31.7687   20.8576   78.2177 C   0  0  0  0  0  0  0  0  0  0  0  0
   33.8364   19.6938   76.7332 C   0  0  0  0  0  0  0  0  0  0  0  0
   35.2473   19.8220   76.1654 C   0  0  1  0  0  0  0  0  0  0  0  0
   35.3959   18.8466   75.1602 O   0  0  0  0  0  0  0  0  0  0  0  0
   35.4563   21.1755   75.4778 C   0  0  1  0  0  0  0  0  0  0  0  0
   35.9292   22.3039   76.2298 O   0  0  0  0  0  0  0  0  0  0  0  0
   36.3049   20.8130   74.2142 C   0  0  1  0  0  0  0  0  0  0  0  0
   37.4079   21.7320   74.1327 O   0  0  0  0  0  0  0  0  0  0  0  0
   36.4777   19.2577   74.3394 C   0  0  2  0  0  0  0  0  0  0  0  0
   33.6777   24.5758   80.9983 O   0  0  0  0  0  0  0  0  0  0  0  0
   36.4585   14.6096   71.9945 N   0  0  0  0  0  0  0  0  0  0  0  0
   36.6151   14.8875   73.2937 C   0  0  0  0  0  0  0  0  0  0  0  0
   36.6150   16.1394   73.7430 N   0  0  0  0  0  0  0  0  0  0  0  0
   36.4337   17.1802   72.9099 C   0  0  0  0  0  0  0  0  0  0  0  0
   36.2475   16.9388   71.5224 C   0  0  0  0  0  0  0  0  0  0  0  0
   36.2672   15.5820   71.0829 C   0  0  0  0  0  0  0  0  0  0  0  0
   36.0846   15.2640   69.7501 N   0  0  0  0  0  0  0  0  0  0  0  0
   36.0833   18.1414   70.9245 N   0  0  0  0  0  0  0  0  0  0  0  0
   36.1512   19.0791   71.8245 C   0  0  0  0  0  0  0  0  0  0  0  0
   36.3673   18.5358   73.0672 N   0  0  0  0  0  0  0  0  0  0  0  0
  2  1  1  1  0  0  0
  2  3  1  0  0  0  0
  2  5  1  0  0  0  0
  3  4  1  0  0  0  0
  3 17  1  0  0  0  0
  5  6  1  0  0  0  0
  7  6  1  1  0  0  0
  7  8  1  0  0  0  0
  7  9  1  0  0  0  0
 10  9  1  6  0  0  0
 10 11  1  0  0  0  0
 10 12  1  0  0  0  0
 11 16  1  0  0  0  0
 12 13  1  1  0  0  0
 12 14  1  0  0  0  0
 14 15  1  1  0  0  0
 14 16  1  0  0  0  0
 16 27  1  6  0  0  0
 18 19  2  0  0  0  0
 18 23  1  0  0  0  0
 19 20  1  0  0  0  0
 20 21  2  0  0  0  0
 21 22  1  0  0  0  0
 21 27  1  0  0  0  0
 22 23  2  0  0  0  0
 22 25  1  0  0  0  0
 23 24  1  0  0  0  0
 25 26  2  0  0  0  0
 26 27  1  0  0  0  0
M  END
>  <CHROM.1>
158.17992351,-121.48126554,-64.13455011,-77.03555352,-87.06277262,-172.66110730
-62.25172093,35.22931997,19.87250181,75.77104613,2.05687258,1.05705352,0.47096009

>  <Name>
ligand

>  <RI>
0

>  <Rbt.Current_Directory>
/home/itssahil/PROJECTS/Mol_Feturizer/New_Systems/rnas/2QWY

>  <Rbt.Executable>
rbdock ($Id: //depot/dev/client3/rdock/2013.1/src/exe/rbdock.cxx#4 $)

>  <Rbt.Library>
libRbt.so (2013.1, Build901 2013/11/27)

>  <Rbt.Parameter_File>
/export/apps/rDock/src/rDock_2013.1_src/data/scripts/dock_solv.prm

>  <Rbt.Receptor>
prm/pocket_docking_5.prm

>  <SCORE>
-11.0793

>  <SCORE.INTER>
-9.91733

>  <SCORE.INTER.CONST>
1

>  <SCORE.INTER.POLAR>
0

>  <SCORE.INTER.ROT>
7

>  <SCORE.INTER.SOLV>
6.82194

>  <SCORE.INTER.VDW>
-17.1522

>  <SCORE.INTER.norm>
-0.367308

>  <SCORE.INTRA>
-1.16196

>  <SCORE.INTRA.DIHEDRAL>
-0.502037

>  <SCORE.INTRA.DIHEDRAL.0>
10.7382

>  <SCORE.INTRA.POLAR>
0

>  <SCORE.INTRA.POLAR.0>
0

>  <SCORE.INTRA.REPUL>
0

>  <SCORE.INTRA.REPUL.0>
0

>  <SCORE.INTRA.SOLV>
-0.51995

>  <SCORE.INTRA.SOLV.lig_0>
-49.2501

>  <SCORE.INTRA.VDW>
-0.650969

>  <SCORE.INTRA.VDW.0>
-1.75368

>  <SCORE.INTRA.norm>
-0.0430356

>  <SCORE.RESTR>
0

>  <SCORE.RESTR.CAVITY>
0

>  <SCORE.RESTR.norm>
0

>  <SCORE.SYSTEM>
0

>  <SCORE.SYSTEM.CONST>
0

>  <SCORE.SYSTEM.DIHEDRAL>
0

>  <SCORE.SYSTEM.SOLV>
0

>  <SCORE.SYSTEM.norm>
0

>  <SCORE.heavy>
27

>  <SCORE.norm>
-0.410344

>  <RMSD>
8.551

$$$$
ligand
 OpenBabel11021811463D
libRbt.so/2013.1/901 2013/11/27
 27 29  0  0  0  0  0  0  0  0999 V2000
   32.9249   22.8911   82.9495 N   0  0  0  0  0  0  0  0  0  0  0  0
   33.2080   21.6861   82.1505 C   0  0  2  0  0  0  0  0  0  0  0  0
   34.6561   21.2762   82.3211 C   0  0  0  0  0  0  0  0  0  0  0  0
   35.5231   22.1331   82.5203 O   0  0  0  0  0  0  0  0  0  0  0  0
   32.9503   21.9909   80.6784 C   0  0  0  0  0  0  0  0  0  0  0  0
   33.1175   20.7409   79.8411 C   0  0  0  0  0  0  0  0  0  0  0  0
   32.8309   21.1875   78.1195 S   0  0  2  0  0  0  0  0  0  0  0  0
   31.0249   21.0167   78.0904 C   0  0  0  0  0  0  0  0  0  0  0  0
   33.3256   19.6424   77.2829 C   0  0  0  0  0  0  0  0  0  0  0  0
   34.8472   19.6122   77.1677 C   0  0  1  0  0  0  0  0  0  0  0  0
   35.2226   18.3113   76.7792 O   0  0  0  0  0  0  0  0  0  0  0  0
   35.3463   20.5466   76.0603 C   0  0  1  0  0  0  0  0  0  0  0  0
   35.6487   21.9194   76.3535 O   0  0  0  0  0  0  0  0  0  0  0  0
   36.5077   19.7346   75.3969 C   0  0  1  0  0  0  0  0  0  0  0  0
   37.6453   20.6036   75.2609 O   0  0  0  0  0  0  0  0  0  0  0  0
   36.5267   18.4027   76.2278 C   0  0  2  0  0  0  0  0  0  0  0  0
   34.9528   20.0911   82.3314 O   0  0  0  0  0  0  0  0  0  0  0  0
   36.4453   16.3007   71.4655 N   0  0  0  0  0  0  0  0  0  0  0  0
   36.1266   17.5471   71.8325 C   0  0  0  0  0  0  0  0  0  0  0  0
   36.1805   17.9341   73.1039 N   0  0  0  0  0  0  0  0  0  0  0  0
   36.5813   17.0920   74.0736 C   0  0  0  0  0  0  0  0  0  0  0  0
   36.9456   15.7613   73.7352 C   0  0  0  0  0  0  0  0  0  0  0  0
   36.8609   15.3857   72.3618 C   0  0  0  0  0  0  0  0  0  0  0  0
   37.2062   14.1119   71.9507 N   0  0  0  0  0  0  0  0  0  0  0  0
   37.3104   15.1415   74.8813 N   0  0  0  0  0  0  0  0  0  0  0  0
   37.2010   15.9773   75.8729 C   0  0  0  0  0  0  0  0  0  0  0  0
   36.7534   17.1960   75.4251 N   0  0  0  0  0  0  0  0  0  0  0  0
  2  1  1  1  0  0  0
  2  3  1  0  0  0  0
  2  5  1  0  0  0  0
  3  4  1  0  0  0  0
  3 17  1  0  0  0  0
  5  6  1  0  0  0  0
  7  6  1  1  0  0  0
  7  8  1  0  0  0  0
  7  9  1  0  0  0  0
 10  9  1  6  0  0  0
 10 11  1  0  0  0  0
 10 12  1  0  0  0  0
 11 16  1  0  0  0  0
 12 13  1  1  0  0  0
 12 14  1  0  0  0  0
 14 15  1  1  0  0  0
 14 16  1  0  0  0  0
 16 27  1  6  0  0  0
 18 19  2  0  0  0  0
 18 23  1  0  0  0  0
 19 20  1  0  0  0  0
 20 21  2  0  0  0  0
 21 22  1  0  0  0  0
 21 27  1  0  0  0  0
 22 23  2  0  0  0  0
 22 25  1  0  0  0  0
 23 24  1  0  0  0  0
 25 26  2  0  0  0  0
 26 27  1  0  0  0  0
M  END
>  <CHROM.1>
-31.51927015,-175.17205012,-178.87690272,-85.77312584,-80.67249441,168.06740161
96.48691505,35.18114300,19.23560317,76.98134898,-2.05283388,0.80203658,-1.80124329

>  <Name>
ligand

>  <RI>
0

>  <Rbt.Current_Directory>
/home/itssahil/PROJECTS/Mol_Feturizer/New_Systems/rnas/2QWY

>  <Rbt.Executable>
rbdock ($Id: //depot/dev/client3/rdock/2013.1/src/exe/rbdock.cxx#4 $)

>  <Rbt.Library>
libRbt.so (2013.1, Build901 2013/11/27)

>  <Rbt.Parameter_File>
/export/apps/rDock/src/rDock_2013.1_src/data/scripts/dock_solv.prm

>  <Rbt.Receptor>
prm/pocket_docking_6.prm

>  <SCORE>
-14.7119

>  <SCORE.INTER>
-11.0386

>  <SCORE.INTER.CONST>
1

>  <SCORE.INTER.POLAR>
0

>  <SCORE.INTER.ROT>
7

>  <SCORE.INTER.SOLV>
8.26946

>  <SCORE.INTER.VDW>
-18.3822

>  <SCORE.INTER.norm>
-0.408837

>  <SCORE.INTRA>
-3.67327

>  <SCORE.INTRA.DIHEDRAL>
-5.60796

>  <SCORE.INTRA.DIHEDRAL.0>
10.7382

>  <SCORE.INTRA.POLAR>
0

>  <SCORE.INTRA.POLAR.0>
0

>  <SCORE.INTRA.REPUL>
0

>  <SCORE.INTRA.REPUL.0>
0

>  <SCORE.INTRA.SOLV>
-1.07485

>  <SCORE.INTRA.SOLV.lig_0>
-49.2501

>  <SCORE.INTRA.VDW>
-0.331867

>  <SCORE.INTRA.VDW.0>
-1.75368

>  <SCORE.INTRA.norm>
-0.136047

>  <SCORE.RESTR>
0

>  <SCORE.RESTR.CAVITY>
0

>  <SCORE.RESTR.norm>
0

>  <SCORE.SYSTEM>
0

>  <SCORE.SYSTEM.CONST>
0

>  <SCORE.SYSTEM.DIHEDRAL>
0

>  <SCORE.SYSTEM.SOLV>
0

>  <SCORE.SYSTEM.norm>
0

>  <SCORE.heavy>
27

>  <SCORE.norm>
-0.544884

>  <RMSD>
8.551

$$$$
ligand
 OpenBabel11021811463D
libRbt.so/2013.1/901 2013/11/27
 27 29  0  0  0  0  0  0  0  0999 V2000
   33.9452   23.2977   79.3735 N   0  0  0  0  0  0  0  0  0  0  0  0
   33.1461   22.5451   78.3908 C   0  0  2  0  0  0  0  0  0  0  0  0
   31.6753   22.6268   78.7431 C   0  0  0  0  0  0  0  0  0  0  0  0
   31.2739   23.4896   79.5306 O   0  0  0  0  0  0  0  0  0  0  0  0
   33.5788   21.0826   78.4099 C   0  0  0  0  0  0  0  0  0  0  0  0
   34.9119   20.9150   77.7127 C   0  0  0  0  0  0  0  0  0  0  0  0
   35.3501   19.1687   77.7723 S   0  0  2  0  0  0  0  0  0  0  0  0
   36.2491   19.1667   79.3482 C   0  0  0  0  0  0  0  0  0  0  0  0
   36.7432   19.1297   76.5936 C   0  0  0  0  0  0  0  0  0  0  0  0
   37.2309   17.6898   76.4575 C   0  0  1  0  0  0  0  0  0  0  0  0
   36.4997   17.0854   75.4162 O   0  0  0  0  0  0  0  0  0  0  0  0
   38.7021   17.6317   76.0325 C   0  0  1  0  0  0  0  0  0  0  0  0
   39.7417   17.6229   77.0230 O   0  0  0  0  0  0  0  0  0  0  0  0
   38.7391   16.4428   75.0159 C   0  0  1  0  0  0  0  0  0  0  0  0
   39.8449   15.5901   75.3592 O   0  0  0  0  0  0  0  0  0  0  0  0
   37.2460   15.9586   74.9845 C   0  0  2  0  0  0  0  0  0  0  0  0
   30.8783   21.8826   78.1920 O   0  0  0  0  0  0  0  0  0  0  0  0
   36.5242   17.5124   70.0683 N   0  0  0  0  0  0  0  0  0  0  0  0
   37.0281   18.2047   71.0963 C   0  0  0  0  0  0  0  0  0  0  0  0
   37.1337   17.6713   72.3101 N   0  0  0  0  0  0  0  0  0  0  0  0
   36.7584   16.4017   72.5499 C   0  0  0  0  0  0  0  0  0  0  0  0
   36.2309   15.6180   71.4889 C   0  0  0  0  0  0  0  0  0  0  0  0
   36.1240   16.2342   70.2069 C   0  0  0  0  0  0  0  0  0  0  0  0
   35.6291   15.5355   69.1217 N   0  0  0  0  0  0  0  0  0  0  0  0
   35.9453   14.3966   71.9960 N   0  0  0  0  0  0  0  0  0  0  0  0
   36.2549   14.3753   73.2600 C   0  0  0  0  0  0  0  0  0  0  0  0
   36.7607   15.5912   73.6498 N   0  0  0  0  0  0  0  0  0  0  0  0
  2  1  1  1  0  0  0
  2  3  1  0  0  0  0
  2  5  1  0  0  0  0
  3  4  1  0  0  0  0
  3 17  1  0  0  0  0
  5  6  1  0  0  0  0
  7  6  1  6  0  0  0
  7  8  1  0  0  0  0
  7  9  1  0  0  0  0
 10  9  1  6  0  0  0
 10 11  1  0  0  0  0
 10 12  1  0  0  0  0
 11 16  1  0  0  0  0
 12 13  1  1  0  0  0
 12 14  1  0  0  0  0
 14 15  1  1  0  0  0
 14 16  1  0  0  0  0
 16 27  1  6  0  0  0
 18 19  2  0  0  0  0
 18 23  1  0  0  0  0
 19 20  1  0  0  0  0
 20 21  2  0  0  0  0
 21 22  1  0  0  0  0
 21 27  1  0  0  0  0
 22 23  2  0  0  0  0
 22 25  1  0  0  0  0
 23 24  1  0  0  0  0
 25 26  2  0  0  0  0
 26 27  1  0  0  0  0
M  END
>  <CHROM.1>
16.63400388,-75.03150878,-179.82730703,-89.41046293,-177.70293223,89.51385587
58.56875769,35.89196998,18.35533750,75.42669912,2.07555344,-0.57636253,1.12795791

>  <Name>
ligand

>  <RI>
0

>  <Rbt.Current_Directory>
/home/itssahil/PROJECTS/Mol_Feturizer/New_Systems/rnas/2QWY

>  <Rbt.Executable>
rbdock ($Id: //depot/dev/client3/rdock/2013.1/src/exe/rbdock.cxx#4 $)

>  <Rbt.Library>
libRbt.so (2013.1, Build901 2013/11/27)

>  <Rbt.Parameter_File>
/export/apps/rDock/src/rDock_2013.1_src/data/scripts/dock_solv.prm

>  <Rbt.Receptor>
prm/pocket_docking_8.prm

>  <SCORE>
-14.2981

>  <SCORE.INTER>
-12.1721

>  <SCORE.INTER.CONST>
1

>  <SCORE.INTER.POLAR>
0

>  <SCORE.INTER.ROT>
7

>  <SCORE.INTER.SOLV>
7.22444

>  <SCORE.INTER.VDW>
-18.7895

>  <SCORE.INTER.norm>
-0.450817

>  <SCORE.INTRA>
-2.12608

>  <SCORE.INTRA.DIHEDRAL>
-2.66924

>  <SCORE.INTRA.DIHEDRAL.0>
10.7382

>  <SCORE.INTRA.POLAR>
0

>  <SCORE.INTRA.POLAR.0>
0

>  <SCORE.INTRA.REPUL>
0

>  <SCORE.INTRA.REPUL.0>
0

>  <SCORE.INTRA.SOLV>
-0.599776

>  <SCORE.INTRA.SOLV.lig_0>
-49.2501

>  <SCORE.INTRA.VDW>
-0.491573

>  <SCORE.INTRA.VDW.0>
-1.75368

>  <SCORE.INTRA.norm>
-0.0787438

>  <SCORE.RESTR>
0

>  <SCORE.RESTR.CAVITY>
0

>  <SCORE.RESTR.norm>
0

>  <SCORE.SYSTEM>
0

>  <SCORE.SYSTEM.CONST>
0

>  <SCORE.SYSTEM.DIHEDRAL>
0

>  <SCORE.SYSTEM.SOLV>
0

>  <SCORE.SYSTEM.norm>
0

>  <SCORE.heavy>
27

>  <SCORE.norm>
-0.529561

>  <RMSD>
8.597

$$$$
ligand
 OpenBabel11021811463D
libRbt.so/2013.1/901 2013/11/27
 27 29  0  0  0  0  0  0  0  0999 V2000
   33.3918   14.9639   68.0189 N   0  0  0  0  0  0  0  0  0  0  0  0
   34.5810   14.1281   67.7785 C   0  0  2  0  0  0  0  0  0  0  0  0
   34.5827   13.6227   66.3508 C   0  0  0  0  0  0  0  0  0  0  0  0
   33.6216   12.9765   65.9212 O   0  0  0  0  0  0  0  0  0  0  0  0
   34.5519   12.9333   68.7262 C   0  0  0  0  0  0  0  0  0  0  0  0
   34.8270   13.3768   70.1471 C   0  0  0  0  0  0  0  0  0  0  0  0
   36.5561   13.8728   70.2454 S   0  0  2  0  0  0  0  0  0  0  0  0
   37.3056   12.2253   70.3713 C   0  0  0  0  0  0  0  0  0  0  0  0
   36.6529   14.4171   71.9850 C   0  0  0  0  0  0  0  0  0  0  0  0
   36.0289   15.8052   72.1004 C   0  0  1  0  0  0  0  0  0  0  0  0
   36.0399   16.1692   73.4611 O   0  0  0  0  0  0  0  0  0  0  0  0
   36.8669   16.8611   71.3716 C   0  0  1  0  0  0  0  0  0  0  0  0
   36.6261   17.1454   69.9848 O   0  0  0  0  0  0  0  0  0  0  0  0
   36.8019   18.0984   72.3273 C   0  0  1  0  0  0  0  0  0  0  0  0
   36.4818   19.2592   71.5412 O   0  0  0  0  0  0  0  0  0  0  0  0
   35.9138   17.5814   73.5142 C   0  0  2  0  0  0  0  0  0  0  0  0
   35.5051   13.9166   65.6054 O   0  0  0  0  0  0  0  0  0  0  0  0
   38.8140   16.4334   77.6825 N   0  0  0  0  0  0  0  0  0  0  0  0
   38.6223   15.7083   76.5747 C   0  0  0  0  0  0  0  0  0  0  0  0
   37.8298   16.1315   75.5939 N   0  0  0  0  0  0  0  0  0  0  0  0
   37.2044   17.3206   75.6654 C   0  0  0  0  0  0  0  0  0  0  0  0
   37.3865   18.1365   76.8140 C   0  0  0  0  0  0  0  0  0  0  0  0
   38.2348   17.6379   77.8466 C   0  0  0  0  0  0  0  0  0  0  0  0
   38.4696   18.3758   78.9917 N   0  0  0  0  0  0  0  0  0  0  0  0
   36.6608   19.2628   76.6251 N   0  0  0  0  0  0  0  0  0  0  0  0
   36.0640   19.1981   75.4703 C   0  0  0  0  0  0  0  0  0  0  0  0
   36.3679   18.0168   74.8393 N   0  0  0  0  0  0  0  0  0  0  0  0
  2  1  1  6  0  0  0
  2  3  1  0  0  0  0
  2  5  1  0  0  0  0
  3  4  1  0  0  0  0
  3 17  1  0  0  0  0
  5  6  1  0  0  0  0
  7  6  1  1  0  0  0
  7  8  1  0  0  0  0
  7  9  1  0  0  0  0
 10  9  1  1  0  0  0
 10 11  1  0  0  0  0
 10 12  1  0  0  0  0
 11 16  1  0  0  0  0
 12 13  1  6  0  0  0
 12 14  1  0  0  0  0
 14 15  1  6  0  0  0
 14 16  1  0  0  0  0
 16 27  1  1  0  0  0
 18 19  2  0  0  0  0
 18 23  1  0  0  0  0
 19 20  1  0  0  0  0
 20 21  2  0  0  0  0
 21 22  1  0  0  0  0
 21 27  1  0  0  0  0
 22 23  2  0  0  0  0
 22 25  1  0  0  0  0
 23 24  1  0  0  0  0
 25 26  2  0  0  0  0
 26 27  1  0  0  0  0
M  END
>  <CHROM.1>
-56.60948267,-71.05245638,-69.83362678,-79.47804831,-77.75255810,176.43800201
22.38713137,36.34699932,15.91007966,72.18187297,2.25420637,1.14072402,-2.63328903

>  <Name>
ligand

>  <RI>
0

>  <Rbt.Current_Directory>
/home/itssahil/PROJECTS/Mol_Feturizer/New_Systems/rnas/2QWY

>  <Rbt.Executable>
rbdock ($Id: //depot/dev/client3/rdock/2013.1/src/exe/rbdock.cxx#4 $)

>  <Rbt.Library>
libRbt.so (2013.1, Build901 2013/11/27)

>  <Rbt.Parameter_File>
/export/apps/rDock/src/rDock_2013.1_src/data/scripts/dock_solv.prm

>  <Rbt.Receptor>
prm/pocket_docking_8.prm

>  <SCORE>
-14.9701

>  <SCORE.INTER>
-11.2446

>  <SCORE.INTER.CONST>
1

>  <SCORE.INTER.POLAR>
0

>  <SCORE.INTER.ROT>
7

>  <SCORE.INTER.SOLV>
12.7971

>  <SCORE.INTER.VDW>
-20.0288

>  <SCORE.INTER.norm>
-0.416466

>  <SCORE.INTRA>
-3.72555

>  <SCORE.INTRA.DIHEDRAL>
-6.14885

>  <SCORE.INTRA.DIHEDRAL.0>
10.7382

>  <SCORE.INTRA.POLAR>
0

>  <SCORE.INTRA.POLAR.0>
0

>  <SCORE.INTRA.REPUL>
0

>  <SCORE.INTRA.REPUL.0>
0

>  <SCORE.INTRA.SOLV>
0.154668

>  <SCORE.INTRA.SOLV.lig_0>
-49.2501

>  <SCORE.INTRA.VDW>
-0.728454

>  <SCORE.INTRA.VDW.0>
-1.75368

>  <SCORE.INTRA.norm>
-0.137983

>  <SCORE.RESTR>
0

>  <SCORE.RESTR.CAVITY>
0

>  <SCORE.RESTR.norm>
0

>  <SCORE.SYSTEM>
0

>  <SCORE.SYSTEM.CONST>
0

>  <SCORE.SYSTEM.DIHEDRAL>
0

>  <SCORE.SYSTEM.SOLV>
0

>  <SCORE.SYSTEM.norm>
0

>  <SCORE.heavy>
27

>  <SCORE.norm>
-0.554449

>  <RMSD>
8.614

$$$$
ligand
 OpenBabel11021811463D
libRbt.so/2013.1/901 2013/11/27
 27 29  0  0  0  0  0  0  0  0999 V2000
   37.4945   20.2016   81.6685 N   0  0  0  0  0  0  0  0  0  0  0  0
   37.1978   19.3516   80.5022 C   0  0  2  0  0  0  0  0  0  0  0  0
   38.4757   18.7442   79.9618 C   0  0  0  0  0  0  0  0  0  0  0  0
   39.4688   19.4547   79.7753 O   0  0  0  0  0  0  0  0  0  0  0  0
   36.5561   20.2045   79.4127 C   0  0  0  0  0  0  0  0  0  0  0  0
   36.1656   19.3461   78.2286 C   0  0  0  0  0  0  0  0  0  0  0  0
   35.2329   20.3773   77.0831 S   0  0  2  0  0  0  0  0  0  0  0  0
   33.6084   20.2743   77.8842 C   0  0  0  0  0  0  0  0  0  0  0  0
   34.9958   19.2134   75.6972 C   0  0  0  0  0  0  0  0  0  0  0  0
   36.2321   19.2563   74.8032 C   0  0  1  0  0  0  0  0  0  0  0  0
   36.1801   18.1409   73.9446 O   0  0  0  0  0  0  0  0  0  0  0  0
   36.2277   20.4912   73.8958 C   0  0  1  0  0  0  0  0  0  0  0  0
   36.8200   21.7204   74.3435 O   0  0  0  0  0  0  0  0  0  0  0  0
   36.7745   19.9437   72.5358 C   0  0  1  0  0  0  0  0  0  0  0  0
   37.7949   20.8412   72.0658 O   0  0  0  0  0  0  0  0  0  0  0  0
   37.0278   18.4251   72.8429 C   0  0  2  0  0  0  0  0  0  0  0  0
   38.5425   17.5382   79.7781 O   0  0  0  0  0  0  0  0  0  0  0  0
   35.5436   13.6086   71.5378 N   0  0  0  0  0  0  0  0  0  0  0  0
   35.8339   14.0918   72.7511 C   0  0  0  0  0  0  0  0  0  0  0  0
   36.2203   15.3527   72.9244 N   0  0  0  0  0  0  0  0  0  0  0  0
   36.3131   16.2035   71.8863 C   0  0  0  0  0  0  0  0  0  0  0  0
   36.0012   15.7448   70.5785 C   0  0  0  0  0  0  0  0  0  0  0  0
   35.6034   14.3823   70.4373 C   0  0  0  0  0  0  0  0  0  0  0  0
   35.2751   13.8624   69.1993 N   0  0  0  0  0  0  0  0  0  0  0  0
   36.1685   16.7903   69.7361 N   0  0  0  0  0  0  0  0  0  0  0  0
   36.5486   17.8319   70.4177 C   0  0  0  0  0  0  0  0  0  0  0  0
   36.6531   17.5199   71.7511 N   0  0  0  0  0  0  0  0  0  0  0  0
  2  1  1  1  0  0  0
  2  3  1  0  0  0  0
  2  5  1  0  0  0  0
  3  4  1  0  0  0  0
  3 17  1  0  0  0  0
  5  6  1  0  0  0  0
  7  6  1  1  0  0  0
  7  8  1  0  0  0  0
  7  9  1  0  0  0  0
 10  9  1  1  0  0  0
 10 11  1  0  0  0  0
 10 12  1  0  0  0  0
 11 16  1  0  0  0  0
 12 13  1  1  0  0  0
 12 14  1  0  0  0  0
 14 15  1  1  0  0  0
 14 16  1  0  0  0  0
 16 27  1  6  0  0  0
 18 19  2  0  0  0  0
 18 23  1  0  0  0  0
 19 20  1  0  0  0  0
 20 21  2  0  0  0  0
 21 22  1  0  0  0  0
 21 27  1  0  0  0  0
 22 23  2  0  0  0  0
 22 25  1  0  0  0  0
 23 24  1  0  0  0  0
 25 26  2  0  0  0  0
 26 27  1  0  0  0  0
M  END
>  <CHROM.1>
-47.70218727,-176.76750082,172.92465711,-82.16878044,-84.43068271,165.87713594
-39.74664312,36.44508934,18.29731965,74.86614686,-0.70610968,1.42297225,-2.86228887

>  <Name>
ligand

>  <RI>
0

>  <Rbt.Current_Directory>
/home/itssahil/PROJECTS/Mol_Feturizer/New_Systems/rnas/2QWY

>  <Rbt.Executable>
rbdock ($Id: //depot/dev/client3/rdock/2013.1/src/exe/rbdock.cxx#4 $)

>  <Rbt.Library>
libRbt.so (2013.1, Build901 2013/11/27)

>  <Rbt.Parameter_File>
/export/apps/rDock/src/rDock_2013.1_src/data/scripts/dock_solv.prm

>  <Rbt.Receptor>
prm/pocket_docking_5.prm

>  <SCORE>
-15.0417

>  <SCORE.INTER>
-11.6442

>  <SCORE.INTER.CONST>
1

>  <SCORE.INTER.POLAR>
0

>  <SCORE.INTER.ROT>
7

>  <SCORE.INTER.SOLV>
8.99518

>  <SCORE.INTER.VDW>
-19.0278

>  <SCORE.INTER.norm>
-0.431266

>  <SCORE.INTRA>
-3.39755

>  <SCORE.INTRA.DIHEDRAL>
-5.39204

>  <SCORE.INTRA.DIHEDRAL.0>
10.7382

>  <SCORE.INTRA.POLAR>
0

>  <SCORE.INTRA.POLAR.0>
0

>  <SCORE.INTRA.REPUL>
0

>  <SCORE.INTRA.REPUL.0>
0

>  <SCORE.INTRA.SOLV>
-1.0778

>  <SCORE.INTRA.SOLV.lig_0>
-49.2501

>  <SCORE.INTRA.VDW>
-0.162635

>  <SCORE.INTRA.VDW.0>
-1.75368

>  <SCORE.INTRA.norm>
-0.125835

>  <SCORE.RESTR>
0

>  <SCORE.RESTR.CAVITY>
0

>  <SCORE.RESTR.norm>
0

>  <SCORE.SYSTEM>
0

>  <SCORE.SYSTEM.CONST>
0

>  <SCORE.SYSTEM.DIHEDRAL>
0

>  <SCORE.SYSTEM.SOLV>
0

>  <SCORE.SYSTEM.norm>
0

>  <SCORE.heavy>
27

>  <SCORE.norm>
-0.557101

>  <RMSD>
8.622

$$$$
ligand
 OpenBabel11021811463D
libRbt.so/2013.1/901 2013/11/27
 27 29  0  0  0  0  0  0  0  0999 V2000
   38.5286   19.4320   80.9260 N   0  0  0  0  0  0  0  0  0  0  0  0
   37.2260   19.9830   80.5133 C   0  0  2  0  0  0  0  0  0  0  0  0
   36.3977   20.3312   81.7327 C   0  0  0  0  0  0  0  0  0  0  0  0
   36.3841   19.5746   82.7090 O   0  0  0  0  0  0  0  0  0  0  0  0
   36.4796   18.9382   79.6903 C   0  0  0  0  0  0  0  0  0  0  0  0
   35.1828   19.5097   79.1581 C   0  0  0  0  0  0  0  0  0  0  0  0
   35.5898   20.6648   77.8370 S   0  0  2  0  0  0  0  0  0  0  0  0
   34.1763   21.7886   78.0121 C   0  0  0  0  0  0  0  0  0  0  0  0
   35.0716   19.7022   76.3753 C   0  0  0  0  0  0  0  0  0  0  0  0
   36.0645   18.5631   76.1605 C   0  0  1  0  0  0  0  0  0  0  0  0
   35.6709   17.8630   75.0033 O   0  0  0  0  0  0  0  0  0  0  0  0
   37.4748   19.0918   75.8777 C   0  0  1  0  0  0  0  0  0  0  0  0
   38.3842   19.3425   76.9604 O   0  0  0  0  0  0  0  0  0  0  0  0
   38.0084   18.1260   74.7683 C   0  0  1  0  0  0  0  0  0  0  0  0
   39.3292   17.6967   75.1411 O   0  0  0  0  0  0  0  0  0  0  0  0
   36.8051   17.1420   74.5484 C   0  0  2  0  0  0  0  0  0  0  0  0
   35.8001   21.3959   81.7749 O   0  0  0  0  0  0  0  0  0  0  0  0
   35.5250   13.3595   71.2079 N   0  0  0  0  0  0  0  0  0  0  0  0
   35.6667   13.2863   72.5362 C   0  0  0  0  0  0  0  0  0  0  0  0
   36.0194   14.3461   73.2584 N   0  0  0  0  0  0  0  0  0  0  0  0
   36.2265   15.5449   72.6840 C   0  0  0  0  0  0  0  0  0  0  0  0
   36.0742   15.6804   71.2781 C   0  0  0  0  0  0  0  0  0  0  0  0
   35.7072   14.5153   70.5415 C   0  0  0  0  0  0  0  0  0  0  0  0
   35.5310   14.5670   69.1714 N   0  0  0  0  0  0  0  0  0  0  0  0
   36.3305   16.9725   70.9694 N   0  0  0  0  0  0  0  0  0  0  0  0
   36.6192   17.6232   72.0591 C   0  0  0  0  0  0  0  0  0  0  0  0
   36.5689   16.7845   73.1454 N   0  0  0  0  0  0  0  0  0  0  0  0
  2  1  1  1  0  0  0
  2  3  1  0  0  0  0
  2  5  1  0  0  0  0
  3  4  1  0  0  0  0
  3 17  1  0  0  0  0
  5  6  1  0  0  0  0
  7  6  1  1  0  0  0
  7  8  1  0  0  0  0
  7  9  1  0  0  0  0
 10  9  1  6  0  0  0
 10 11  1  0  0  0  0
 10 12  1  0  0  0  0
 11 16  1  0  0  0  0
 12 13  1  1  0  0  0
 12 14  1  0  0  0  0
 14 15  1  1  0  0  0
 14 16  1  0  0  0  0
 16 27  1  6  0  0  0
 18 19  2  0  0  0  0
 18 23  1  0  0  0  0
 19 20  1  0  0  0  0
 20 21  2  0  0  0  0
 21 22  1  0  0  0  0
 21 27  1  0  0  0  0
 22 23  2  0  0  0  0
 22 25  1  0  0  0  0
 23 24  1  0  0  0  0
 25 26  2  0  0  0  0
 26 27  1  0  0  0  0
M  END
>  <CHROM.1>
-40.98477191,-175.56747318,72.95700492,-150.77735792,-71.98223284,-178.03945882
-104.41890819,36.37595848,18.06258828,75.93699344,-1.53344968,0.84977012
-2.12410686

>  <Name>
ligand

>  <RI>
0

>  <Rbt.Current_Directory>
/home/itssahil/PROJECTS/Mol_Feturizer/New_Systems/rnas/2QWY

>  <Rbt.Executable>
rbdock ($Id: //depot/dev/client3/rdock/2013.1/src/exe/rbdock.cxx#4 $)

>  <Rbt.Library>
libRbt.so (2013.1, Build901 2013/11/27)

>  <Rbt.Parameter_File>
/export/apps/rDock/src/rDock_2013.1_src/data/scripts/dock_solv.prm

>  <Rbt.Receptor>
prm/pocket_docking_8.prm

>  <SCORE>
-13.2144

>  <SCORE.INTER>
-10.1056

>  <SCORE.INTER.CONST>
1

>  <SCORE.INTER.POLAR>
0

>  <SCORE.INTER.ROT>
7

>  <SCORE.INTER.SOLV>
7.19515

>  <SCORE.INTER.VDW>
-17.4021

>  <SCORE.INTER.norm>
-0.374281

>  <SCORE.INTRA>
-3.10883

>  <SCORE.INTRA.DIHEDRAL>
-3.69215

>  <SCORE.INTRA.DIHEDRAL.0>
10.7382

>  <SCORE.INTRA.POLAR>
0

>  <SCORE.INTRA.POLAR.0>
0

>  <SCORE.INTRA.REPUL>
0

>  <SCORE.INTRA.REPUL.0>
0

>  <SCORE.INTRA.SOLV>
-0.241932

>  <SCORE.INTRA.SOLV.lig_0>
-49.2501

>  <SCORE.INTRA.VDW>
-1.14179

>  <SCORE.INTRA.VDW.0>
-1.75368

>  <SCORE.INTRA.norm>
-0.115142

>  <SCORE.RESTR>
0

>  <SCORE.RESTR.CAVITY>
0

>  <SCORE.RESTR.norm>
0

>  <SCORE.SYSTEM>
0

>  <SCORE.SYSTEM.CONST>
0

>  <SCORE.SYSTEM.DIHEDRAL>
0

>  <SCORE.SYSTEM.SOLV>
0

>  <SCORE.SYSTEM.norm>
0

>  <SCORE.heavy>
27

>  <SCORE.norm>
-0.489423

>  <RMSD>
8.631

$$$$
ligand
 OpenBabel11021811463D
libRbt.so/2013.1/901 2013/11/27
 27 29  0  0  0  0  0  0  0  0999 V2000
   33.7946   21.4128   80.3613 N   0  0  0  0  0  0  0  0  0  0  0  0
   35.0412   20.6311   80.2873 C   0  0  2  0  0  0  0  0  0  0  0  0
   35.7165   20.5978   81.6426 C   0  0  0  0  0  0  0  0  0  0  0  0
   35.6365   21.5713   82.3987 O   0  0  0  0  0  0  0  0  0  0  0  0
   35.9826   21.2858   79.2816 C   0  0  0  0  0  0  0  0  0  0  0  0
   35.4137   21.1890   77.8821 C   0  0  0  0  0  0  0  0  0  0  0  0
   36.6781   21.7579   76.7319 S   0  0  2  0  0  0  0  0  0  0  0  0
   36.1053   23.4663   76.5200 C   0  0  0  0  0  0  0  0  0  0  0  0
   36.0811   21.0108   75.1772 C   0  0  0  0  0  0  0  0  0  0  0  0
   35.9917   19.4983   75.3621 C   0  0  1  0  0  0  0  0  0  0  0  0
   35.6461   18.9335   74.1189 O   0  0  0  0  0  0  0  0  0  0  0  0
   37.3497   18.8964   75.7391 C   0  0  1  0  0  0  0  0  0  0  0  0
   37.7354   18.7877   77.1181 O   0  0  0  0  0  0  0  0  0  0  0  0
   37.3915   17.5593   74.9273 C   0  0  1  0  0  0  0  0  0  0  0  0
   37.8052   16.5059   75.8143 O   0  0  0  0  0  0  0  0  0  0  0  0
   36.0181   17.5651   74.1668 C   0  0  2  0  0  0  0  0  0  0  0  0
   36.2801   19.5793   82.0135 O   0  0  0  0  0  0  0  0  0  0  0  0
   35.8112   13.4168   71.0279 N   0  0  0  0  0  0  0  0  0  0  0  0
   35.7038   13.4602   72.3607 C   0  0  0  0  0  0  0  0  0  0  0  0
   35.7968   14.6059   73.0298 N   0  0  0  0  0  0  0  0  0  0  0  0
   35.9801   15.7753   72.3902 C   0  0  0  0  0  0  0  0  0  0  0  0
   36.0854   15.7863   70.9735 C   0  0  0  0  0  0  0  0  0  0  0  0
   35.9924   14.5336   70.2978 C   0  0  0  0  0  0  0  0  0  0  0  0
   36.0764   14.4615   68.9199 N   0  0  0  0  0  0  0  0  0  0  0  0
   36.2561   17.0737   70.5940 N   0  0  0  0  0  0  0  0  0  0  0  0
   36.2602   17.8339   71.6504 C   0  0  0  0  0  0  0  0  0  0  0  0
   36.0936   17.0783   72.7850 N   0  0  0  0  0  0  0  0  0  0  0  0
  2  1  1  1  0  0  0
  2  3  1  0  0  0  0
  2  5  1  0  0  0  0
  3  4  1  0  0  0  0
  3 17  1  0  0  0  0
  5  6  1  0  0  0  0
  7  6  1  1  0  0  0
  7  8  1  0  0  0  0
  7  9  1  0  0  0  0
 10  9  1  6  0  0  0
 10 11  1  0  0  0  0
 10 12  1  0  0  0  0
 11 16  1  0  0  0  0
 12 13  1  1  0  0  0
 12 14  1  0  0  0  0
 14 15  1  1  0  0  0
 14 16  1  0  0  0  0
 16 27  1  6  0  0  0
 18 19  2  0  0  0  0
 18 23  1  0  0  0  0
 19 20  1  0  0  0  0
 20 21  2  0  0  0  0
 21 22  1  0  0  0  0
 21 27  1  0  0  0  0
 22 23  2  0  0  0  0
 22 25  1  0  0  0  0
 23 24  1  0  0  0  0
 25 26  2  0  0  0  0
 26 27  1  0  0  0  0
M  END
>  <CHROM.1>
-33.65042307,-66.53544987,-171.77880364,-97.34657377,-58.16509286,-174.81411167
-156.96137879,36.14197554,18.55368088,75.51683881,2.53778517,1.53307462,-0.00107951

>  <Name>
ligand

>  <RI>
0

>  <Rbt.Current_Directory>
/home/itssahil/PROJECTS/Mol_Feturizer/New_Systems/rnas/2QWY

>  <Rbt.Executable>
rbdock ($Id: //depot/dev/client3/rdock/2013.1/src/exe/rbdock.cxx#4 $)

>  <Rbt.Library>
libRbt.so (2013.1, Build901 2013/11/27)

>  <Rbt.Parameter_File>
/export/apps/rDock/src/rDock_2013.1_src/data/scripts/dock_solv.prm

>  <Rbt.Receptor>
prm/pocket_docking_4.prm

>  <SCORE>
-12.7963

>  <SCORE.INTER>
-10.0673

>  <SCORE.INTER.CONST>
1

>  <SCORE.INTER.POLAR>
0

>  <SCORE.INTER.ROT>
7

>  <SCORE.INTER.SOLV>
3.35267

>  <SCORE.INTER.VDW>
-16.0957

>  <SCORE.INTER.norm>
-0.372862

>  <SCORE.INTRA>
-2.72901

>  <SCORE.INTRA.DIHEDRAL>
-4.45731

>  <SCORE.INTRA.DIHEDRAL.0>
10.7382

>  <SCORE.INTRA.POLAR>
0

>  <SCORE.INTRA.POLAR.0>
0

>  <SCORE.INTRA.REPUL>
0

>  <SCORE.INTRA.REPUL.0>
0

>  <SCORE.INTRA.SOLV>
-0.137957

>  <SCORE.INTRA.SOLV.lig_0>
-49.2501

>  <SCORE.INTRA.VDW>
-0.431374

>  <SCORE.INTRA.VDW.0>
-1.75368

>  <SCORE.INTRA.norm>
-0.101074

>  <SCORE.RESTR>
0

>  <SCORE.RESTR.CAVITY>
0

>  <SCORE.RESTR.norm>
0

>  <SCORE.SYSTEM>
0

>  <SCORE.SYSTEM.CONST>
0

>  <SCORE.SYSTEM.DIHEDRAL>
0

>  <SCORE.SYSTEM.SOLV>
0

>  <SCORE.SYSTEM.norm>
0

>  <SCORE.heavy>
27

>  <SCORE.norm>
-0.473936

>  <RMSD>
8.645

$$$$
ligand
 OpenBabel11021811463D
libRbt.so/2013.1/901 2013/11/27
 27 29  0  0  0  0  0  0  0  0999 V2000
   40.5813   18.4565   78.3172 N   0  0  0  0  0  0  0  0  0  0  0  0
   39.4143   19.3544   78.3677 C   0  0  2  0  0  0  0  0  0  0  0  0
   38.3564   18.7826   79.2885 C   0  0  0  0  0  0  0  0  0  0  0  0
   38.3896   17.5889   79.6044 O   0  0  0  0  0  0  0  0  0  0  0  0
   38.8284   19.4916   76.9662 C   0  0  0  0  0  0  0  0  0  0  0  0
   39.8308   20.1368   76.0333 C   0  0  0  0  0  0  0  0  0  0  0  0
   40.7821   18.8223   75.2508 S   0  0  2  0  0  0  0  0  0  0  0  0
   41.9477   19.8496   74.3140 C   0  0  0  0  0  0  0  0  0  0  0  0
   39.6359   18.3214   73.9214 C   0  0  0  0  0  0  0  0  0  0  0  0
   38.4563   17.5795   74.5440 C   0  0  1  0  0  0  0  0  0  0  0  0
   37.6355   17.1210   73.4951 O   0  0  0  0  0  0  0  0  0  0  0  0
   38.9149   16.3290   75.3019 C   0  0  1  0  0  0  0  0  0  0  0  0
   39.2685   16.4139   76.6912 O   0  0  0  0  0  0  0  0  0  0  0  0
   37.8138   15.2720   74.9572 C   0  0  1  0  0  0  0  0  0  0  0  0
   37.3998   14.6370   76.1791 O   0  0  0  0  0  0  0  0  0  0  0  0
   36.8397   16.0700   74.0197 C   0  0  2  0  0  0  0  0  0  0  0  0
   37.5124   19.5210   79.7734 O   0  0  0  0  0  0  0  0  0  0  0  0
   35.8919   16.0096   68.9009 N   0  0  0  0  0  0  0  0  0  0  0  0
   36.3995   17.0000   69.6434 C   0  0  0  0  0  0  0  0  0  0  0  0
   36.5673   16.8703   70.9564 N   0  0  0  0  0  0  0  0  0  0  0  0
   36.2541   15.7259   71.5907 C   0  0  0  0  0  0  0  0  0  0  0  0
   35.7257   14.6377   70.8459 C   0  0  0  0  0  0  0  0  0  0  0  0
   35.5509   14.8250   69.4427 C   0  0  0  0  0  0  0  0  0  0  0  0
   35.0505   13.8111   68.6473 N   0  0  0  0  0  0  0  0  0  0  0  0
   35.5088   13.6241   71.7155 N   0  0  0  0  0  0  0  0  0  0  0  0
   35.8603   14.0031   72.9100 C   0  0  0  0  0  0  0  0  0  0  0  0
   36.3268   15.2945   72.8851 N   0  0  0  0  0  0  0  0  0  0  0  0
  2  1  1  6  0  0  0
  2  3  1  0  0  0  0
  2  5  1  0  0  0  0
  3  4  1  0  0  0  0
  3 17  1  0  0  0  0
  5  6  1  0  0  0  0
  7  6  1  1  0  0  0
  7  8  1  0  0  0  0
  7  9  1  0  0  0  0
 10  9  1  6  0  0  0
 10 11  1  0  0  0  0
 10 12  1  0  0  0  0
 11 16  1  0  0  0  0
 12 13  1  1  0  0  0
 12 14  1  0  0  0  0
 14 15  1  1  0  0  0
 14 16  1  0  0  0  0
 16 27  1  6  0  0  0
 18 19  2  0  0  0  0
 18 23  1  0  0  0  0
 19 20  1  0  0  0  0
 20 21  2  0  0  0  0
 21 22  1  0  0  0  0
 21 27  1  0  0  0  0
 22 23  2  0  0  0  0
 22 25  1  0  0  0  0
 23 24  1  0  0  0  0
 25 26  2  0  0  0  0
 26 27  1  0  0  0  0
M  END
>  <CHROM.1>
-17.66964321,-63.08354533,91.50300154,-176.12886366,-71.83640615,-175.90054011
-19.18808078,37.99844061,17.00666248,74.40912794,0.93647420,0.82118406,1.58449768

>  <Name>
ligand

>  <RI>
0

>  <Rbt.Current_Directory>
/home/itssahil/PROJECTS/Mol_Feturizer/New_Systems/rnas/2QWY

>  <Rbt.Executable>
rbdock ($Id: //depot/dev/client3/rdock/2013.1/src/exe/rbdock.cxx#4 $)

>  <Rbt.Library>
libRbt.so (2013.1, Build901 2013/11/27)

>  <Rbt.Parameter_File>
/export/apps/rDock/src/rDock_2013.1_src/data/scripts/dock_solv.prm

>  <Rbt.Receptor>
prm/pocket_docking_7.prm

>  <SCORE>
-9.99838

>  <SCORE.INTER>
-8.73238

>  <SCORE.INTER.CONST>
1

>  <SCORE.INTER.POLAR>
0

>  <SCORE.INTER.ROT>
7

>  <SCORE.INTER.SOLV>
5.99661

>  <SCORE.INTER.VDW>
-16.0871

>  <SCORE.INTER.norm>
-0.323421

>  <SCORE.INTRA>
-1.26601

>  <SCORE.INTRA.DIHEDRAL>
-3.80796

>  <SCORE.INTRA.DIHEDRAL.0>
10.7382

>  <SCORE.INTRA.POLAR>
0

>  <SCORE.INTRA.POLAR.0>
0

>  <SCORE.INTRA.REPUL>
0

>  <SCORE.INTRA.REPUL.0>
0

>  <SCORE.INTRA.SOLV>
3.22082

>  <SCORE.INTRA.SOLV.lig_0>
-49.2501

>  <SCORE.INTRA.VDW>
-0.972437

>  <SCORE.INTRA.VDW.0>
-1.75368

>  <SCORE.INTRA.norm>
-0.0468891

>  <SCORE.RESTR>
0

>  <SCORE.RESTR.CAVITY>
0

>  <SCORE.RESTR.norm>
0

>  <SCORE.SYSTEM>
0

>  <SCORE.SYSTEM.CONST>
0

>  <SCORE.SYSTEM.DIHEDRAL>
0

>  <SCORE.SYSTEM.SOLV>
0

>  <SCORE.SYSTEM.norm>
0

>  <SCORE.heavy>
27

>  <SCORE.norm>
-0.37031

>  <RMSD>
8.653

$$$$
ligand
 OpenBabel11021811463D
libRbt.so/2013.1/901 2013/11/27
 27 29  0  0  0  0  0  0  0  0999 V2000
   30.2762   19.0031   77.4305 N   0  0  0  0  0  0  0  0  0  0  0  0
   30.7095   19.9735   78.4509 C   0  0  2  0  0  0  0  0  0  0  0  0
   30.3475   21.3796   78.0197 C   0  0  0  0  0  0  0  0  0  0  0  0
   30.9236   22.3495   78.5228 O   0  0  0  0  0  0  0  0  0  0  0  0
   32.2228   19.8813   78.6172 C   0  0  0  0  0  0  0  0  0  0  0  0
   32.9235   20.3256   77.3511 C   0  0  0  0  0  0  0  0  0  0  0  0
   34.3941   19.3053   77.1470 S   0  0  2  0  0  0  0  0  0  0  0  0
   35.4526   20.1015   78.3869 C   0  0  0  0  0  0  0  0  0  0  0  0
   35.0862   20.0131   75.6136 C   0  0  0  0  0  0  0  0  0  0  0  0
   36.4085   19.3164   75.3046 C   0  0  1  0  0  0  0  0  0  0  0  0
   36.1108   18.0479   74.7695 O   0  0  0  0  0  0  0  0  0  0  0  0
   37.1966   20.0600   74.2208 C   0  0  1  0  0  0  0  0  0  0  0  0
   38.1195   21.0993   74.5817 O   0  0  0  0  0  0  0  0  0  0  0  0
   37.7983   18.9052   73.3533 C   0  0  1  0  0  0  0  0  0  0  0  0
   39.1943   19.1787   73.1440 O   0  0  0  0  0  0  0  0  0  0  0  0
   37.2638   17.6127   74.0665 C   0  0  2  0  0  0  0  0  0  0  0  0
   29.5350   21.5477   77.1229 O   0  0  0  0  0  0  0  0  0  0  0  0
   36.1957   16.3301   69.1351 N   0  0  0  0  0  0  0  0  0  0  0  0
   36.5635   17.5187   69.6267 C   0  0  0  0  0  0  0  0  0  0  0  0
   36.7857   17.6964   70.9260 N   0  0  0  0  0  0  0  0  0  0  0  0
   36.6719   16.6794   71.7993 C   0  0  0  0  0  0  0  0  0  0  0  0
   36.2987   15.3927   71.3268 C   0  0  0  0  0  0  0  0  0  0  0  0
   36.0581   15.2505   69.9281 C   0  0  0  0  0  0  0  0  0  0  0  0
   35.6997   14.0290   69.3892 N   0  0  0  0  0  0  0  0  0  0  0  0
   36.2661   14.5661   72.3975 N   0  0  0  0  0  0  0  0  0  0  0  0
   36.5873   15.2370   73.4655 C   0  0  0  0  0  0  0  0  0  0  0  0
   36.8465   16.5477   73.1480 N   0  0  0  0  0  0  0  0  0  0  0  0
  2  1  1  6  0  0  0
  2  3  1  0  0  0  0
  2  5  1  0  0  0  0
  3  4  1  0  0  0  0
  3 17  1  0  0  0  0
  5  6  1  0  0  0  0
  7  6  1  1  0  0  0
  7  8  1  0  0  0  0
  7  9  1  0  0  0  0
 10  9  1  6  0  0  0
 10 11  1  0  0  0  0
 10 12  1  0  0  0  0
 11 16  1  0  0  0  0
 12 13  1  1  0  0  0
 12 14  1  0  0  0  0
 14 15  1  1  0  0  0
 14 16  1  0  0  0  0
 16 27  1  6  0  0  0
 18 19  2  0  0  0  0
 18 23  1  0  0  0  0
 19 20  1  0  0  0  0
 20 21  2  0  0  0  0
 21 22  1  0  0  0  0
 21 27  1  0  0  0  0
 22 23  2  0  0  0  0
 22 25  1  0  0  0  0
 23 24  1  0  0  0  0
 25 26  2  0  0  0  0
 26 27  1  0  0  0  0
M  END
>  <CHROM.1>
-160.12287389,65.66943575,-144.35199946,-76.55167110,176.96431561,76.64749720
103.40348596,35.04857617,18.55438554,74.56747182,2.15590291,0.22914065,0.85008372

>  <Name>
ligand

>  <RI>
0

>  <Rbt.Current_Directory>
/home/itssahil/PROJECTS/Mol_Feturizer/New_Systems/rnas/2QWY

>  <Rbt.Executable>
rbdock ($Id: //depot/dev/client3/rdock/2013.1/src/exe/rbdock.cxx#4 $)

>  <Rbt.Library>
libRbt.so (2013.1, Build901 2013/11/27)

>  <Rbt.Parameter_File>
/export/apps/rDock/src/rDock_2013.1_src/data/scripts/dock_solv.prm

>  <Rbt.Receptor>
prm/pocket_docking_4.prm

>  <SCORE>
-12.9119

>  <SCORE.INTER>
-12.9821

>  <SCORE.INTER.CONST>
1

>  <SCORE.INTER.POLAR>
0

>  <SCORE.INTER.ROT>
7

>  <SCORE.INTER.SOLV>
11.4112

>  <SCORE.INTER.VDW>
-20.7251

>  <SCORE.INTER.norm>
-0.480819

>  <SCORE.INTRA>
0.0702399

>  <SCORE.INTRA.DIHEDRAL>
-2.43101

>  <SCORE.INTRA.DIHEDRAL.0>
10.7382

>  <SCORE.INTRA.POLAR>
0

>  <SCORE.INTRA.POLAR.0>
0

>  <SCORE.INTRA.REPUL>
0

>  <SCORE.INTRA.REPUL.0>
0

>  <SCORE.INTRA.SOLV>
-0.205106

>  <SCORE.INTRA.SOLV.lig_0>
-49.2501

>  <SCORE.INTRA.VDW>
1.3883

>  <SCORE.INTRA.VDW.0>
-1.75368

>  <SCORE.INTRA.norm>
0.00260148

>  <SCORE.RESTR>
0

>  <SCORE.RESTR.CAVITY>
0

>  <SCORE.RESTR.norm>
0

>  <SCORE.SYSTEM>
0

>  <SCORE.SYSTEM.CONST>
0

>  <SCORE.SYSTEM.DIHEDRAL>
0

>  <SCORE.SYSTEM.SOLV>
0

>  <SCORE.SYSTEM.norm>
0

>  <SCORE.heavy>
27

>  <SCORE.norm>
-0.478218

>  <RMSD>
8.706

$$$$
ligand
 OpenBabel11021811463D
libRbt.so/2013.1/901 2013/11/27
 27 29  0  0  0  0  0  0  0  0999 V2000
   30.5703   21.4877   78.4829 N   0  0  0  0  0  0  0  0  0  0  0  0
   30.8307   20.3312   77.6080 C   0  0  2  0  0  0  0  0  0  0  0  0
   29.7161   19.3146   77.7428 C   0  0  0  0  0  0  0  0  0  0  0  0
   28.5744   19.6824   78.0378 O   0  0  0  0  0  0  0  0  0  0  0  0
   32.1469   19.6797   78.0196 C   0  0  0  0  0  0  0  0  0  0  0  0
   33.2957   20.6502   77.8471 C   0  0  0  0  0  0  0  0  0  0  0  0
   34.8302   19.7367   78.0835 S   0  0  2  0  0  0  0  0  0  0  0  0
   35.9817   21.1386   78.1041 C   0  0  0  0  0  0  0  0  0  0  0  0
   35.1086   19.1013   76.3952 C   0  0  0  0  0  0  0  0  0  0  0  0
   36.0081   17.8709   76.4760 C   0  0  1  0  0  0  0  0  0  0  0  0
   35.9962   17.2466   75.2134 O   0  0  0  0  0  0  0  0  0  0  0  0
   37.4666   18.2569   76.7450 C   0  0  1  0  0  0  0  0  0  0  0  0
   37.9452   18.3825   78.0931 O   0  0  0  0  0  0  0  0  0  0  0  0
   38.2757   17.2704   75.8391 C   0  0  1  0  0  0  0  0  0  0  0  0
   39.3314   16.6960   76.6284 O   0  0  0  0  0  0  0  0  0  0  0  0
   37.1499   16.4235   75.1462 C   0  0  2  0  0  0  0  0  0  0  0  0
   29.9345   18.1394   77.4898 O   0  0  0  0  0  0  0  0  0  0  0  0
   36.1298   13.2609   71.1385 N   0  0  0  0  0  0  0  0  0  0  0  0
   35.6788   13.1859   72.3958 C   0  0  0  0  0  0  0  0  0  0  0  0
   36.0473   14.0669   73.3216 N   0  0  0  0  0  0  0  0  0  0  0  0
   36.8733   15.0868   73.0254 C   0  0  0  0  0  0  0  0  0  0  0  0
   37.3688   15.2209   71.7007 C   0  0  0  0  0  0  0  0  0  0  0  0
   36.9576   14.2467   70.7434 C   0  0  0  0  0  0  0  0  0  0  0  0
   37.3891   14.3129   69.4318 N   0  0  0  0  0  0  0  0  0  0  0  0
   38.1596   16.3185   71.6774 N   0  0  0  0  0  0  0  0  0  0  0  0
   38.1814   16.8549   72.8631 C   0  0  0  0  0  0  0  0  0  0  0  0
   37.4025   16.1301   73.7313 N   0  0  0  0  0  0  0  0  0  0  0  0
  2  1  1  1  0  0  0
  2  3  1  0  0  0  0
  2  5  1  0  0  0  0
  3  4  1  0  0  0  0
  3 17  1  0  0  0  0
  5  6  1  0  0  0  0
  7  6  1  6  0  0  0
  7  8  1  0  0  0  0
  7  9  1  0  0  0  0
 10  9  1  6  0  0  0
 10 11  1  0  0  0  0
 10 12  1  0  0  0  0
 11 16  1  0  0  0  0
 12 13  1  1  0  0  0
 12 14  1  0  0  0  0
 14 15  1  1  0  0  0
 14 16  1  0  0  0  0
 16 27  1  6  0  0  0
 18 19  2  0  0  0  0
 18 23  1  0  0  0  0
 19 20  1  0  0  0  0
 20 21  2  0  0  0  0
 21 22  1  0  0  0  0
 21 27  1  0  0  0  0
 22 23  2  0  0  0  0
 22 25  1  0  0  0  0
 23 24  1  0  0  0  0
 25 26  2  0  0  0  0
 26 27  1  0  0  0  0
M  END
>  <CHROM.1>
28.86322903,-61.94464087,-170.67522831,-171.08638152,-157.27162762,168.62017911
-88.23102062,35.24130160,17.59051734,75.49674798,2.20753650,-0.03314111,0.87837729

>  <Name>
ligand

>  <RI>
0

>  <Rbt.Current_Directory>
/home/itssahil/PROJECTS/Mol_Feturizer/New_Systems/rnas/2QWY

>  <Rbt.Executable>
rbdock ($Id: //depot/dev/client3/rdock/2013.1/src/exe/rbdock.cxx#4 $)

>  <Rbt.Library>
libRbt.so (2013.1, Build901 2013/11/27)

>  <Rbt.Parameter_File>
/export/apps/rDock/src/rDock_2013.1_src/data/scripts/dock_solv.prm

>  <Rbt.Receptor>
prm/pocket_docking_5.prm

>  <SCORE>
-17.6121

>  <SCORE.INTER>
-15.7479

>  <SCORE.INTER.CONST>
1

>  <SCORE.INTER.POLAR>
0

>  <SCORE.INTER.ROT>
7

>  <SCORE.INTER.SOLV>
10.0123

>  <SCORE.INTER.VDW>
-22.1027

>  <SCORE.INTER.norm>
-0.583257

>  <SCORE.INTRA>
-1.86418

>  <SCORE.INTRA.DIHEDRAL>
-3.72765

>  <SCORE.INTRA.DIHEDRAL.0>
10.7382

>  <SCORE.INTRA.POLAR>
0

>  <SCORE.INTRA.POLAR.0>
0

>  <SCORE.INTRA.REPUL>
0

>  <SCORE.INTRA.REPUL.0>
0

>  <SCORE.INTRA.SOLV>
-0.282938

>  <SCORE.INTRA.SOLV.lig_0>
-49.2501

>  <SCORE.INTRA.VDW>
0.141113

>  <SCORE.INTRA.VDW.0>
-1.75368

>  <SCORE.INTRA.norm>
-0.0690437

>  <SCORE.RESTR>
0

>  <SCORE.RESTR.CAVITY>
0

>  <SCORE.RESTR.norm>
0

>  <SCORE.SYSTEM>
0

>  <SCORE.SYSTEM.CONST>
0

>  <SCORE.SYSTEM.DIHEDRAL>
0

>  <SCORE.SYSTEM.SOLV>
0

>  <SCORE.SYSTEM.norm>
0

>  <SCORE.heavy>
27

>  <SCORE.norm>
-0.652301

>  <RMSD>
8.713

$$$$
ligand
 OpenBabel11021811463D
libRbt.so/2013.1/901 2013/11/27
 27 29  0  0  0  0  0  0  0  0999 V2000
   37.8028   23.1879   78.8487 N   0  0  0  0  0  0  0  0  0  0  0  0
   37.4092   24.4222   78.1470 C   0  0  2  0  0  0  0  0  0  0  0  0
   37.3184   25.5728   79.1277 C   0  0  0  0  0  0  0  0  0  0  0  0
   36.7097   25.4319   80.1933 O   0  0  0  0  0  0  0  0  0  0  0  0
   36.0439   24.2151   77.4995 C   0  0  0  0  0  0  0  0  0  0  0  0
   36.1953   23.5764   76.1355 C   0  0  0  0  0  0  0  0  0  0  0  0
   36.7995   21.8965   76.3768 S   0  0  2  0  0  0  0  0  0  0  0  0
   38.5644   22.1965   76.0822 C   0  0  0  0  0  0  0  0  0  0  0  0
   36.3212   21.1341   74.7888 C   0  0  0  0  0  0  0  0  0  0  0  0
   35.9776   19.6671   75.0324 C   0  0  1  0  0  0  0  0  0  0  0  0
   35.7121   19.0749   73.7822 O   0  0  0  0  0  0  0  0  0  0  0  0
   37.1671   18.9009   75.6211 C   0  0  1  0  0  0  0  0  0  0  0  0
   37.3510   18.8317   77.0436 O   0  0  0  0  0  0  0  0  0  0  0  0
   37.1072   17.5197   74.8882 C   0  0  1  0  0  0  0  0  0  0  0  0
   37.2367   16.4804   75.8734 O   0  0  0  0  0  0  0  0  0  0  0  0
   35.8603   17.6735   73.9468 C   0  0  2  0  0  0  0  0  0  0  0  0
   37.9084   26.6165   78.8931 O   0  0  0  0  0  0  0  0  0  0  0  0
   35.9447   13.3000   71.1238 N   0  0  0  0  0  0  0  0  0  0  0  0
   35.7481   13.4395   72.4397 C   0  0  0  0  0  0  0  0  0  0  0  0
   35.7736   14.6336   73.0249 N   0  0  0  0  0  0  0  0  0  0  0  0
   35.9761   15.7564   72.3119 C   0  0  0  0  0  0  0  0  0  0  0  0
   36.1751   15.6650   70.9083 C   0  0  0  0  0  0  0  0  0  0  0  0
   36.1521   14.3637   70.3246 C   0  0  0  0  0  0  0  0  0  0  0  0
   36.3290   14.1916   68.9645 N   0  0  0  0  0  0  0  0  0  0  0  0
   36.3453   16.9245   70.4444 N   0  0  0  0  0  0  0  0  0  0  0  0
   36.2641   17.7608   71.4383 C   0  0  0  0  0  0  0  0  0  0  0  0
   36.0372   17.0876   72.6136 N   0  0  0  0  0  0  0  0  0  0  0  0
  2  1  1  1  0  0  0
  2  3  1  0  0  0  0
  2  5  1  0  0  0  0
  3  4  1  0  0  0  0
  3 17  1  0  0  0  0
  5  6  1  0  0  0  0
  7  6  1  6  0  0  0
  7  8  1  0  0  0  0
  7  9  1  0  0  0  0
 10  9  1  6  0  0  0
 10 11  1  0  0  0  0
 10 12  1  0  0  0  0
 11 16  1  0  0  0  0
 12 13  1  1  0  0  0
 12 14  1  0  0  0  0
 14 15  1  1  0  0  0
 14 16  1  0  0  0  0
 16 27  1  6  0  0  0
 18 19  2  0  0  0  0
 18 23  1  0  0  0  0
 19 20  1  0  0  0  0
 20 21  2  0  0  0  0
 21 22  1  0  0  0  0
 21 27  1  0  0  0  0
 22 23  2  0  0  0  0
 22 25  1  0  0  0  0
 23 24  1  0  0  0  0
 25 26  2  0  0  0  0
 26 27  1  0  0  0  0
M  END
>  <CHROM.1>
-47.64326818,-85.73940040,67.73567981,-97.80442023,-147.25651194,-175.55768300
-167.65083232,36.63394269,19.48577756,74.85642022,-1.01010804,1.39587092
-3.06580299

>  <Name>
ligand

>  <RI>
0

>  <Rbt.Current_Directory>
/home/itssahil/PROJECTS/Mol_Feturizer/New_Systems/rnas/2QWY

>  <Rbt.Executable>
rbdock ($Id: //depot/dev/client3/rdock/2013.1/src/exe/rbdock.cxx#4 $)

>  <Rbt.Library>
libRbt.so (2013.1, Build901 2013/11/27)

>  <Rbt.Parameter_File>
/export/apps/rDock/src/rDock_2013.1_src/data/scripts/dock_solv.prm

>  <Rbt.Receptor>
prm/pocket_docking_8.prm

>  <SCORE>
-12.9129

>  <SCORE.INTER>
-14.0878

>  <SCORE.INTER.CONST>
1

>  <SCORE.INTER.POLAR>
0

>  <SCORE.INTER.ROT>
7

>  <SCORE.INTER.SOLV>
3.31208

>  <SCORE.INTER.VDW>
-18.7625

>  <SCORE.INTER.norm>
-0.521769

>  <SCORE.INTRA>
1.17491

>  <SCORE.INTRA.DIHEDRAL>
0.589801

>  <SCORE.INTRA.DIHEDRAL.0>
10.7382

>  <SCORE.INTRA.POLAR>
0

>  <SCORE.INTRA.POLAR.0>
0

>  <SCORE.INTRA.REPUL>
0

>  <SCORE.INTRA.REPUL.0>
0

>  <SCORE.INTRA.SOLV>
2.08339

>  <SCORE.INTRA.SOLV.lig_0>
-49.2501

>  <SCORE.INTRA.VDW>
-0.161689

>  <SCORE.INTRA.VDW.0>
-1.75368

>  <SCORE.INTRA.norm>
0.0435151

>  <SCORE.RESTR>
0

>  <SCORE.RESTR.CAVITY>
0

>  <SCORE.RESTR.norm>
0

>  <SCORE.SYSTEM>
0

>  <SCORE.SYSTEM.CONST>
0

>  <SCORE.SYSTEM.DIHEDRAL>
0

>  <SCORE.SYSTEM.SOLV>
0

>  <SCORE.SYSTEM.norm>
0

>  <SCORE.heavy>
27

>  <SCORE.norm>
-0.478254

>  <RMSD>
8.716

$$$$
ligand
 OpenBabel11021811463D
libRbt.so/2013.1/901 2013/11/27
 27 29  0  0  0  0  0  0  0  0999 V2000
   33.7248   24.5938   80.4336 N   0  0  0  0  0  0  0  0  0  0  0  0
   33.4810   23.8258   79.2001 C   0  0  2  0  0  0  0  0  0  0  0  0
   32.1376   23.1306   79.2762 C   0  0  0  0  0  0  0  0  0  0  0  0
   31.2095   23.4945   78.5468 O   0  0  0  0  0  0  0  0  0  0  0  0
   34.5741   22.7738   79.0423 C   0  0  0  0  0  0  0  0  0  0  0  0
   34.4133   22.0348   77.7310 C   0  0  0  0  0  0  0  0  0  0  0  0
   35.7173   20.7959   77.6322 S   0  0  2  0  0  0  0  0  0  0  0  0
   37.0826   21.8770   77.1235 C   0  0  0  0  0  0  0  0  0  0  0  0
   35.3093   20.0022   76.0400 C   0  0  0  0  0  0  0  0  0  0  0  0
   35.9866   18.6356   75.9850 C   0  0  1  0  0  0  0  0  0  0  0  0
   35.5970   18.0112   74.7839 O   0  0  0  0  0  0  0  0  0  0  0  0
   37.5122   18.7658   75.9203 C   0  0  1  0  0  0  0  0  0  0  0  0
   38.2859   18.8190   77.1288 O   0  0  0  0  0  0  0  0  0  0  0  0
   37.9291   17.6460   74.9100 C   0  0  1  0  0  0  0  0  0  0  0  0
   39.0199   16.9048   75.4832 O   0  0  0  0  0  0  0  0  0  0  0  0
   36.5546   17.0004   74.5118 C   0  0  2  0  0  0  0  0  0  0  0  0
   31.9965   22.1641   80.0102 O   0  0  0  0  0  0  0  0  0  0  0  0
   35.5641   13.2482   71.0413 N   0  0  0  0  0  0  0  0  0  0  0  0
   35.5885   13.1641   72.3762 C   0  0  0  0  0  0  0  0  0  0  0  0
   35.8789   14.2171   73.1352 N   0  0  0  0  0  0  0  0  0  0  0  0
   36.1382   15.4198   72.5909 C   0  0  0  0  0  0  0  0  0  0  0  0
   36.1102   15.5668   71.1782 C   0  0  0  0  0  0  0  0  0  0  0  0
   35.8066   14.4087   70.4028 C   0  0  0  0  0  0  0  0  0  0  0  0
   35.7514   14.4717   69.0230 N   0  0  0  0  0  0  0  0  0  0  0  0
   36.3956   16.8606   70.9037 N   0  0  0  0  0  0  0  0  0  0  0  0
   36.5889   17.5018   72.0197 C   0  0  0  0  0  0  0  0  0  0  0  0
   36.4416   16.6547   73.0906 N   0  0  0  0  0  0  0  0  0  0  0  0
  2  1  1  1  0  0  0
  2  3  1  0  0  0  0
  2  5  1  0  0  0  0
  3  4  1  0  0  0  0
  3 17  1  0  0  0  0
  5  6  1  0  0  0  0
  7  6  1  6  0  0  0
  7  8  1  0  0  0  0
  7  9  1  0  0  0  0
 10  9  1  6  0  0  0
 10 11  1  0  0  0  0
 10 12  1  0  0  0  0
 11 16  1  0  0  0  0
 12 13  1  1  0  0  0
 12 14  1  0  0  0  0
 14 15  1  1  0  0  0
 14 16  1  0  0  0  0
 16 27  1  6  0  0  0
 18 19  2  0  0  0  0
 18 23  1  0  0  0  0
 19 20  1  0  0  0  0
 20 21  2  0  0  0  0
 21 22  1  0  0  0  0
 21 27  1  0  0  0  0
 22 23  2  0  0  0  0
 22 25  1  0  0  0  0
 23 24  1  0  0  0  0
 25 26  2  0  0  0  0
 26 27  1  0  0  0  0
M  END
>  <CHROM.1>
111.11681743,-175.74993876,-179.01226752,-79.34280241,-160.93879822,176.71441944
-120.09052361,35.58255150,18.79188822,75.39400543,1.81478586,-0.22560564
0.80658358

>  <Name>
ligand

>  <RI>
0

>  <Rbt.Current_Directory>
/home/itssahil/PROJECTS/Mol_Feturizer/New_Systems/rnas/2QWY

>  <Rbt.Executable>
rbdock ($Id: //depot/dev/client3/rdock/2013.1/src/exe/rbdock.cxx#4 $)

>  <Rbt.Library>
libRbt.so (2013.1, Build901 2013/11/27)

>  <Rbt.Parameter_File>
/export/apps/rDock/src/rDock_2013.1_src/data/scripts/dock_solv.prm

>  <Rbt.Receptor>
prm/pocket_docking_5.prm

>  <SCORE>
-14.749

>  <SCORE.INTER>
-11.8814

>  <SCORE.INTER.CONST>
1

>  <SCORE.INTER.POLAR>
0

>  <SCORE.INTER.ROT>
7

>  <SCORE.INTER.SOLV>
5.11401

>  <SCORE.INTER.VDW>
-17.8922

>  <SCORE.INTER.norm>
-0.440051

>  <SCORE.INTRA>
-2.86766

>  <SCORE.INTRA.DIHEDRAL>
-5.05785

>  <SCORE.INTRA.DIHEDRAL.0>
10.7382

>  <SCORE.INTRA.POLAR>
0

>  <SCORE.INTRA.POLAR.0>
0

>  <SCORE.INTRA.REPUL>
0

>  <SCORE.INTRA.REPUL.0>
0

>  <SCORE.INTRA.SOLV>
-0.993867

>  <SCORE.INTRA.SOLV.lig_0>
-49.2501

>  <SCORE.INTRA.VDW>
0.158197

>  <SCORE.INTRA.VDW.0>
-1.75368

>  <SCORE.INTRA.norm>
-0.10621

>  <SCORE.RESTR>
0

>  <SCORE.RESTR.CAVITY>
0

>  <SCORE.RESTR.norm>
0

>  <SCORE.SYSTEM>
0

>  <SCORE.SYSTEM.CONST>
0

>  <SCORE.SYSTEM.DIHEDRAL>
0

>  <SCORE.SYSTEM.SOLV>
0

>  <SCORE.SYSTEM.norm>
0

>  <SCORE.heavy>
27

>  <SCORE.norm>
-0.54626

>  <RMSD>
8.719

$$$$
ligand
 OpenBabel11021811463D
libRbt.so/2013.1/901 2013/11/27
 27 29  0  0  0  0  0  0  0  0999 V2000
   31.9906   22.2970   79.8373 N   0  0  0  0  0  0  0  0  0  0  0  0
   31.7816   22.1736   78.3841 C   0  0  2  0  0  0  0  0  0  0  0  0
   30.3000   22.1579   78.0703 C   0  0  0  0  0  0  0  0  0  0  0  0
   29.7584   21.1152   77.6891 O   0  0  0  0  0  0  0  0  0  0  0  0
   32.4038   20.8683   77.8989 C   0  0  0  0  0  0  0  0  0  0  0  0
   33.8441   20.7663   78.3535 C   0  0  0  0  0  0  0  0  0  0  0  0
   34.6371   19.4688   77.3876 S   0  0  2  0  0  0  0  0  0  0  0  0
   36.2767   19.5151   78.1630 C   0  0  0  0  0  0  0  0  0  0  0  0
   34.9775   20.3644   75.8340 C   0  0  0  0  0  0  0  0  0  0  0  0
   36.2827   19.8404   75.2413 C   0  0  1  0  0  0  0  0  0  0  0  0
   36.0358   18.5504   74.7324 O   0  0  0  0  0  0  0  0  0  0  0  0
   36.7389   20.6873   74.0483 C   0  0  1  0  0  0  0  0  0  0  0  0
   37.5851   21.8293   74.2529 O   0  0  0  0  0  0  0  0  0  0  0  0
   37.2847   19.6251   73.0372 C   0  0  1  0  0  0  0  0  0  0  0  0
   38.5660   20.0718   72.5616 O   0  0  0  0  0  0  0  0  0  0  0  0
   37.0649   18.2690   73.7971 C   0  0  2  0  0  0  0  0  0  0  0  0
   29.6295   23.1609   78.2632 O   0  0  0  0  0  0  0  0  0  0  0  0
   36.2108   16.6414   68.9262 N   0  0  0  0  0  0  0  0  0  0  0  0
   36.6704   17.8275   69.3406 C   0  0  0  0  0  0  0  0  0  0  0  0
   36.8193   18.1037   70.6332 N   0  0  0  0  0  0  0  0  0  0  0  0
   36.5349   17.1907   71.5796 C   0  0  0  0  0  0  0  0  0  0  0  0
   36.0579   15.9098   71.1921 C   0  0  0  0  0  0  0  0  0  0  0  0
   35.9016   15.6613   69.7963 C   0  0  0  0  0  0  0  0  0  0  0  0
   35.4510   14.4373   69.3385 N   0  0  0  0  0  0  0  0  0  0  0  0
   35.8610   15.1958   72.3244 N   0  0  0  0  0  0  0  0  0  0  0  0
   36.1778   15.9284   73.3524 C   0  0  0  0  0  0  0  0  0  0  0  0
   36.5995   17.1700   72.9442 N   0  0  0  0  0  0  0  0  0  0  0  0
  2  1  1  1  0  0  0
  2  3  1  0  0  0  0
  2  5  1  0  0  0  0
  3  4  1  0  0  0  0
  3 17  1  0  0  0  0
  5  6  1  0  0  0  0
  7  6  1  1  0  0  0
  7  8  1  0  0  0  0
  7  9  1  0  0  0  0
 10  9  1  6  0  0  0
 10 11  1  0  0  0  0
 10 12  1  0  0  0  0
 11 16  1  0  0  0  0
 12 13  1  1  0  0  0
 12 14  1  0  0  0  0
 14 15  1  1  0  0  0
 14 16  1  0  0  0  0
 16 27  1  6  0  0  0
 18 19  2  0  0  0  0
 18 23  1  0  0  0  0
 19 20  1  0  0  0  0
 20 21  2  0  0  0  0
 21 22  1  0  0  0  0
 21 27  1  0  0  0  0
 22 23  2  0  0  0  0
 22 25  1  0  0  0  0
 23 24  1  0  0  0  0
 25 26  2  0  0  0  0
 26 27  1  0  0  0  0
M  END
>  <CHROM.1>
-109.02328651,-52.37799952,-164.50607476,-177.82230918,146.11050556,72.40695334
125.08560089,35.03759888,19.17201459,74.57174226,-2.06453473,-0.21027914
-2.26030171

>  <Name>
ligand

>  <RI>
0

>  <Rbt.Current_Directory>
/home/itssahil/PROJECTS/Mol_Feturizer/New_Systems/rnas/2QWY

>  <Rbt.Executable>
rbdock ($Id: //depot/dev/client3/rdock/2013.1/src/exe/rbdock.cxx#4 $)

>  <Rbt.Library>
libRbt.so (2013.1, Build901 2013/11/27)

>  <Rbt.Parameter_File>
/export/apps/rDock/src/rDock_2013.1_src/data/scripts/dock_solv.prm

>  <Rbt.Receptor>
prm/pocket_docking_3.prm

>  <SCORE>
-12.5153

>  <SCORE.INTER>
-13.239

>  <SCORE.INTER.CONST>
1

>  <SCORE.INTER.POLAR>
0

>  <SCORE.INTER.ROT>
7

>  <SCORE.INTER.SOLV>
10.1664

>  <SCORE.INTER.VDW>
-20.4815

>  <SCORE.INTER.norm>
-0.490334

>  <SCORE.INTRA>
0.206807

>  <SCORE.INTRA.DIHEDRAL>
-4.12403

>  <SCORE.INTRA.DIHEDRAL.0>
10.7382

>  <SCORE.INTRA.POLAR>
0

>  <SCORE.INTRA.POLAR.0>
0

>  <SCORE.INTRA.REPUL>
0

>  <SCORE.INTRA.REPUL.0>
0

>  <SCORE.INTRA.SOLV>
-0.299312

>  <SCORE.INTRA.SOLV.lig_0>
-49.2501

>  <SCORE.INTRA.VDW>
2.41848

>  <SCORE.INTRA.VDW.0>
-1.75368

>  <SCORE.INTRA.norm>
0.00765953

>  <SCORE.RESTR>
0.51689

>  <SCORE.RESTR.CAVITY>
0.51689

>  <SCORE.RESTR.norm>
0.0191441

>  <SCORE.SYSTEM>
0

>  <SCORE.SYSTEM.CONST>
0

>  <SCORE.SYSTEM.DIHEDRAL>
0

>  <SCORE.SYSTEM.SOLV>
0

>  <SCORE.SYSTEM.norm>
0

>  <SCORE.heavy>
27

>  <SCORE.norm>
-0.463531

>  <RMSD>
8.722

$$$$
ligand
 OpenBabel11021811463D
libRbt.so/2013.1/901 2013/11/27
 27 29  0  0  0  0  0  0  0  0999 V2000
   25.1323   19.1609   75.5422 N   0  0  0  0  0  0  0  0  0  0  0  0
   25.5841   18.2567   76.6141 C   0  0  2  0  0  0  0  0  0  0  0  0
   24.3902   17.6563   77.3269 C   0  0  0  0  0  0  0  0  0  0  0  0
   24.4591   16.5170   77.7992 O   0  0  0  0  0  0  0  0  0  0  0  0
   26.4135   19.0489   77.6195 C   0  0  0  0  0  0  0  0  0  0  0  0
   27.7765   19.3713   77.0454 C   0  0  0  0  0  0  0  0  0  0  0  0
   28.4890   20.7018   78.0289 S   0  0  2  0  0  0  0  0  0  0  0  0
   27.6884   22.1073   77.2071 C   0  0  0  0  0  0  0  0  0  0  0  0
   30.1612   20.7997   77.3037 C   0  0  0  0  0  0  0  0  0  0  0  0
   31.1335   21.2841   78.3759 C   0  0  1  0  0  0  0  0  0  0  0  0
   32.4306   20.8978   77.9853 O   0  0  0  0  0  0  0  0  0  0  0  0
   31.1553   22.8138   78.4660 C   0  0  1  0  0  0  0  0  0  0  0  0
   30.2456   23.5002   79.3399 O   0  0  0  0  0  0  0  0  0  0  0  0
   32.6690   23.1425   78.6873 C   0  0  1  0  0  0  0  0  0  0  0  0
   32.7732   24.0773   79.7749 O   0  0  0  0  0  0  0  0  0  0  0  0
   33.3409   21.7236   78.6942 C   0  0  2  0  0  0  0  0  0  0  0  0
   23.3840   18.3288   77.4947 O   0  0  0  0  0  0  0  0  0  0  0  0
   37.1006   24.4345   76.3236 N   0  0  0  0  0  0  0  0  0  0  0  0
   35.9670   24.8853   76.8728 C   0  0  0  0  0  0  0  0  0  0  0  0
   35.0869   24.0590   77.4310 N   0  0  0  0  0  0  0  0  0  0  0  0
   35.3118   22.7337   77.4874 C   0  0  0  0  0  0  0  0  0  0  0  0
   36.5079   22.2050   76.9323 C   0  0  0  0  0  0  0  0  0  0  0  0
   37.4173   23.1258   76.3328 C   0  0  0  0  0  0  0  0  0  0  0  0
   38.6068   22.6911   75.7787 N   0  0  0  0  0  0  0  0  0  0  0  0
   36.4837   20.8665   77.1286 N   0  0  0  0  0  0  0  0  0  0  0  0
   35.3868   20.5454   77.7513 C   0  0  0  0  0  0  0  0  0  0  0  0
   34.6290   21.6646   77.9948 N   0  0  0  0  0  0  0  0  0  0  0  0
  2  1  1  6  0  0  0
  2  3  1  0  0  0  0
  2  5  1  0  0  0  0
  3  4  1  0  0  0  0
  3 17  1  0  0  0  0
  5  6  1  0  0  0  0
  7  6  1  6  0  0  0
  7  8  1  0  0  0  0
  7  9  1  0  0  0  0
 10  9  1  6  0  0  0
 10 11  1  0  0  0  0
 10 12  1  0  0  0  0
 11 16  1  0  0  0  0
 12 13  1  1  0  0  0
 12 14  1  0  0  0  0
 14 15  1  1  0  0  0
 14 16  1  0  0  0  0
 16 27  1  6  0  0  0
 18 19  2  0  0  0  0
 18 23  1  0  0  0  0
 19 20  1  0  0  0  0
 20 21  2  0  0  0  0
 21 22  1  0  0  0  0
 21 27  1  0  0  0  0
 22 23  2  0  0  0  0
 22 25  1  0  0  0  0
 23 24  1  0  0  0  0
 25 26  2  0  0  0  0
 26 27  1  0  0  0  0
M  END
>  <CHROM.1>
147.98937779,-73.90658523,162.69679888,-83.49667845,-150.55958898,158.83594280
122.37158392,31.17727608,21.29281206,77.58202707,-2.80267283,0.18384441,0.45620813

>  <Name>
ligand

>  <RI>
0

>  <Rbt.Current_Directory>
/home/itssahil/PROJECTS/Mol_Feturizer/New_Systems/rnas/2QWY

>  <Rbt.Executable>
rbdock ($Id: //depot/dev/client3/rdock/2013.1/src/exe/rbdock.cxx#4 $)

>  <Rbt.Library>
libRbt.so (2013.1, Build901 2013/11/27)

>  <Rbt.Parameter_File>
/export/apps/rDock/src/rDock_2013.1_src/data/scripts/dock_solv.prm

>  <Rbt.Receptor>
prm/pocket_docking_5.prm

>  <SCORE>
-19.0326

>  <SCORE.INTER>
-18.1382

>  <SCORE.INTER.CONST>
1

>  <SCORE.INTER.POLAR>
0

>  <SCORE.INTER.ROT>
7

>  <SCORE.INTER.SOLV>
17.2412

>  <SCORE.INTER.VDW>
-26.1059

>  <SCORE.INTER.norm>
-0.671784

>  <SCORE.INTRA>
-0.894422

>  <SCORE.INTRA.DIHEDRAL>
-0.772516

>  <SCORE.INTRA.DIHEDRAL.0>
10.7382

>  <SCORE.INTRA.POLAR>
0

>  <SCORE.INTRA.POLAR.0>
0

>  <SCORE.INTRA.REPUL>
0

>  <SCORE.INTRA.REPUL.0>
0

>  <SCORE.INTRA.SOLV>
0.154352

>  <SCORE.INTRA.SOLV.lig_0>
-49.2501

>  <SCORE.INTRA.VDW>
-0.58534

>  <SCORE.INTRA.VDW.0>
-1.75368

>  <SCORE.INTRA.norm>
-0.0331268

>  <SCORE.RESTR>
0

>  <SCORE.RESTR.CAVITY>
0

>  <SCORE.RESTR.norm>
0

>  <SCORE.SYSTEM>
0

>  <SCORE.SYSTEM.CONST>
0

>  <SCORE.SYSTEM.DIHEDRAL>
0

>  <SCORE.SYSTEM.SOLV>
0

>  <SCORE.SYSTEM.norm>
0

>  <SCORE.heavy>
27

>  <SCORE.norm>
-0.704911

>  <RMSD>
8.726

$$$$
ligand
 OpenBabel11021811463D
libRbt.so/2013.1/901 2013/11/27
 27 29  0  0  0  0  0  0  0  0999 V2000
   35.6416   20.7816   81.3435 N   0  0  0  0  0  0  0  0  0  0  0  0
   34.2860   21.3157   81.1245 C   0  0  2  0  0  0  0  0  0  0  0  0
   33.7866   22.0002   82.3799 C   0  0  0  0  0  0  0  0  0  0  0  0
   34.4818   22.0054   83.4009 O   0  0  0  0  0  0  0  0  0  0  0  0
   33.3453   20.1653   80.7808 C   0  0  0  0  0  0  0  0  0  0  0  0
   33.7430   19.5300   79.4657 C   0  0  0  0  0  0  0  0  0  0  0  0
   33.6316   20.7935   78.1864 S   0  0  2  0  0  0  0  0  0  0  0  0
   31.8356   21.0495   78.2116 C   0  0  0  0  0  0  0  0  0  0  0  0
   33.8016   19.7697   76.6849 C   0  0  0  0  0  0  0  0  0  0  0  0
   35.2410   19.2707   76.5914 C   0  0  1  0  0  0  0  0  0  0  0  0
   35.2928   18.2972   75.5746 O   0  0  0  0  0  0  0  0  0  0  0  0
   36.1967   20.3877   76.1588 C   0  0  1  0  0  0  0  0  0  0  0  0
   36.8195   21.2286   77.1422 O   0  0  0  0  0  0  0  0  0  0  0  0
   37.1805   19.6644   75.1802 C   0  0  1  0  0  0  0  0  0  0  0  0
   38.5242   20.0252   75.5432 O   0  0  0  0  0  0  0  0  0  0  0  0
   36.6494   18.1871   75.1740 C   0  0  2  0  0  0  0  0  0  0  0  0
   32.7265   22.6071   82.3579 O   0  0  0  0  0  0  0  0  0  0  0  0
   37.1028   18.8854   70.0349 N   0  0  0  0  0  0  0  0  0  0  0  0
   37.1205   19.8052   71.0062 C   0  0  0  0  0  0  0  0  0  0  0  0
   36.9728   19.4705   72.2850 N   0  0  0  0  0  0  0  0  0  0  0  0
   36.8220   18.1866   72.6578 C   0  0  0  0  0  0  0  0  0  0  0  0
   36.8115   17.1690   71.6665 C   0  0  0  0  0  0  0  0  0  0  0  0
   36.9606   17.5743   70.3070 C   0  0  0  0  0  0  0  0  0  0  0  0
   36.9695   16.6437   69.2849 N   0  0  0  0  0  0  0  0  0  0  0  0
   36.6548   15.9872   72.3063 N   0  0  0  0  0  0  0  0  0  0  0  0
   36.5734   16.2022   73.5874 C   0  0  0  0  0  0  0  0  0  0  0  0
   36.6707   17.5457   73.8549 N   0  0  0  0  0  0  0  0  0  0  0  0
  2  1  1  1  0  0  0
  2  3  1  0  0  0  0
  2  5  1  0  0  0  0
  3  4  1  0  0  0  0
  3 17  1  0  0  0  0
  5  6  1  0  0  0  0
  7  6  1  1  0  0  0
  7  8  1  0  0  0  0
  7  9  1  0  0  0  0
 10  9  1  6  0  0  0
 10 11  1  0  0  0  0
 10 12  1  0  0  0  0
 11 16  1  0  0  0  0
 12 13  1  1  0  0  0
 12 14  1  0  0  0  0
 14 15  1  1  0  0  0
 14 16  1  0  0  0  0
 16 27  1  6  0  0  0
 18 19  2  0  0  0  0
 18 23  1  0  0  0  0
 19 20  1  0  0  0  0
 20 21  2  0  0  0  0
 21 22  1  0  0  0  0
 21 27  1  0  0  0  0
 22 23  2  0  0  0  0
 22 25  1  0  0  0  0
 23 24  1  0  0  0  0
 25 26  2  0  0  0  0
 26 27  1  0  0  0  0
M  END
>  <CHROM.1>
-2.44696279,-64.60771885,-60.56973294,-66.35617983,-70.95562359,169.53774751
100.46514940,35.49419792,19.55560584,76.25232086,-1.88739692,-0.29166613
-2.02411529

>  <Name>
ligand

>  <RI>
0

>  <Rbt.Current_Directory>
/home/itssahil/PROJECTS/Mol_Feturizer/New_Systems/rnas/2QWY

>  <Rbt.Executable>
rbdock ($Id: //depot/dev/client3/rdock/2013.1/src/exe/rbdock.cxx#4 $)

>  <Rbt.Library>
libRbt.so (2013.1, Build901 2013/11/27)

>  <Rbt.Parameter_File>
/export/apps/rDock/src/rDock_2013.1_src/data/scripts/dock_solv.prm

>  <Rbt.Receptor>
prm/pocket_docking_3.prm

>  <SCORE>
-7.68035

>  <SCORE.INTER>
-5.21876

>  <SCORE.INTER.CONST>
1

>  <SCORE.INTER.POLAR>
0

>  <SCORE.INTER.ROT>
7

>  <SCORE.INTER.SOLV>
8.69142

>  <SCORE.INTER.VDW>
-14.643

>  <SCORE.INTER.norm>
-0.193287

>  <SCORE.INTRA>
-2.77244

>  <SCORE.INTRA.DIHEDRAL>
-6.97024

>  <SCORE.INTRA.DIHEDRAL.0>
10.7382

>  <SCORE.INTRA.POLAR>
0

>  <SCORE.INTRA.POLAR.0>
0

>  <SCORE.INTRA.REPUL>
0

>  <SCORE.INTRA.REPUL.0>
0

>  <SCORE.INTRA.SOLV>
0.370491

>  <SCORE.INTRA.SOLV.lig_0>
-49.2501

>  <SCORE.INTRA.VDW>
0.52743

>  <SCORE.INTRA.VDW.0>
-1.75368

>  <SCORE.INTRA.norm>
-0.102683

>  <SCORE.RESTR>
0.310849

>  <SCORE.RESTR.CAVITY>
0.310849

>  <SCORE.RESTR.norm>
0.0115129

>  <SCORE.SYSTEM>
0

>  <SCORE.SYSTEM.CONST>
0

>  <SCORE.SYSTEM.DIHEDRAL>
0

>  <SCORE.SYSTEM.SOLV>
0

>  <SCORE.SYSTEM.norm>
0

>  <SCORE.heavy>
27

>  <SCORE.norm>
-0.284457

>  <RMSD>
8.729

$$$$
ligand
 OpenBabel11021811463D
libRbt.so/2013.1/901 2013/11/27
 27 29  0  0  0  0  0  0  0  0999 V2000
   23.5521   23.5397   75.4238 N   0  0  0  0  0  0  0  0  0  0  0  0
   24.8952   23.8361   75.9519 C   0  0  2  0  0  0  0  0  0  0  0  0
   25.5434   24.9372   75.1387 C   0  0  0  0  0  0  0  0  0  0  0  0
   26.4672   25.6010   75.6201 O   0  0  0  0  0  0  0  0  0  0  0  0
   25.7565   22.5807   75.8598 C   0  0  0  0  0  0  0  0  0  0  0  0
   25.2168   21.4994   76.7714 C   0  0  0  0  0  0  0  0  0  0  0  0
   26.4133   20.1530   76.7992 S   0  0  2  0  0  0  0  0  0  0  0  0
   25.6557   19.1417   78.1011 C   0  0  0  0  0  0  0  0  0  0  0  0
   27.7758   20.9312   77.7317 C   0  0  0  0  0  0  0  0  0  0  0  0
   29.0879   20.2594   77.3358 C   0  0  1  0  0  0  0  0  0  0  0  0
   30.1348   20.9515   77.9756 O   0  0  0  0  0  0  0  0  0  0  0  0
   29.1580   18.8165   77.8472 C   0  0  1  0  0  0  0  0  0  0  0  0
   28.6564   17.7383   77.0423 O   0  0  0  0  0  0  0  0  0  0  0  0
   30.6453   18.6677   78.3099 C   0  0  1  0  0  0  0  0  0  0  0  0
   31.1652   17.4408   77.7694 O   0  0  0  0  0  0  0  0  0  0  0  0
   31.2547   20.0807   77.9991 C   0  0  2  0  0  0  0  0  0  0  0  0
   25.1971   25.1192   73.9813 O   0  0  0  0  0  0  0  0  0  0  0  0
   33.4220   24.2687   80.2055 N   0  0  0  0  0  0  0  0  0  0  0  0
   32.5547   24.2168   79.1882 C   0  0  0  0  0  0  0  0  0  0  0  0
   32.1000   23.0582   78.7191 N   0  0  0  0  0  0  0  0  0  0  0  0
   32.4768   21.8877   79.2650 C   0  0  0  0  0  0  0  0  0  0  0  0
   33.3846   21.8879   80.3578 C   0  0  0  0  0  0  0  0  0  0  0  0
   33.8562   23.1521   80.8203 C   0  0  0  0  0  0  0  0  0  0  0  0
   34.7344   23.2371   81.8844 N   0  0  0  0  0  0  0  0  0  0  0  0
   33.5854   20.5978   80.7127 N   0  0  0  0  0  0  0  0  0  0  0  0
   32.8810   19.8263   79.9365 C   0  0  0  0  0  0  0  0  0  0  0  0
   32.1790   20.5761   79.0249 N   0  0  0  0  0  0  0  0  0  0  0  0
  2  1  1  6  0  0  0
  2  3  1  0  0  0  0
  2  5  1  0  0  0  0
  3  4  1  0  0  0  0
  3 17  1  0  0  0  0
  5  6  1  0  0  0  0
  7  6  1  1  0  0  0
  7  8  1  0  0  0  0
  7  9  1  0  0  0  0
 10  9  1  1  0  0  0
 10 11  1  0  0  0  0
 10 12  1  0  0  0  0
 11 16  1  0  0  0  0
 12 13  1  6  0  0  0
 12 14  1  0  0  0  0
 14 15  1  6  0  0  0
 14 16  1  0  0  0  0
 16 27  1  1  0  0  0
 18 19  2  0  0  0  0
 18 23  1  0  0  0  0
 19 20  1  0  0  0  0
 20 21  2  0  0  0  0
 21 22  1  0  0  0  0
 21 27  1  0  0  0  0
 22 23  2  0  0  0  0
 22 25  1  0  0  0  0
 23 24  1  0  0  0  0
 25 26  2  0  0  0  0
 26 27  1  0  0  0  0
M  END
>  <CHROM.1>
158.74528829,-65.45377230,-171.58310176,172.52999117,-154.01018048,174.90296632
-40.24162399,29.29765093,21.53334978,77.86970513,-2.97113954,0.48848499,3.08373881

>  <Name>
ligand

>  <RI>
0

>  <Rbt.Current_Directory>
/home/itssahil/PROJECTS/Mol_Feturizer/New_Systems/rnas/2QWY

>  <Rbt.Executable>
rbdock ($Id: //depot/dev/client3/rdock/2013.1/src/exe/rbdock.cxx#4 $)

>  <Rbt.Library>
libRbt.so (2013.1, Build901 2013/11/27)

>  <Rbt.Parameter_File>
/export/apps/rDock/src/rDock_2013.1_src/data/scripts/dock_solv.prm

>  <Rbt.Receptor>
prm/pocket_docking_6.prm

>  <SCORE>
-24.0078

>  <SCORE.INTER>
-21.307

>  <SCORE.INTER.CONST>
1

>  <SCORE.INTER.POLAR>
0

>  <SCORE.INTER.ROT>
7

>  <SCORE.INTER.SOLV>
10.5953

>  <SCORE.INTER.VDW>
-26.0031

>  <SCORE.INTER.norm>
-0.789147

>  <SCORE.INTRA>
-2.70182

>  <SCORE.INTRA.DIHEDRAL>
-4.43671

>  <SCORE.INTRA.DIHEDRAL.0>
10.7382

>  <SCORE.INTRA.POLAR>
0

>  <SCORE.INTRA.POLAR.0>
0

>  <SCORE.INTRA.REPUL>
0

>  <SCORE.INTRA.REPUL.0>
0

>  <SCORE.INTRA.SOLV>
-0.225823

>  <SCORE.INTRA.SOLV.lig_0>
-49.2501

>  <SCORE.INTRA.VDW>
-0.370551

>  <SCORE.INTRA.VDW.0>
-1.75368

>  <SCORE.INTRA.norm>
-0.100067

>  <SCORE.RESTR>
0.00100782

>  <SCORE.RESTR.CAVITY>
0.00100782

>  <SCORE.RESTR.norm>
3.73268e-05

>  <SCORE.SYSTEM>
0

>  <SCORE.SYSTEM.CONST>
0

>  <SCORE.SYSTEM.DIHEDRAL>
0

>  <SCORE.SYSTEM.SOLV>
0

>  <SCORE.SYSTEM.norm>
0

>  <SCORE.heavy>
27

>  <SCORE.norm>
-0.889177

>  <RMSD>
8.734

$$$$
ligand
 OpenBabel11021811463D
libRbt.so/2013.1/901 2013/11/27
 27 29  0  0  0  0  0  0  0  0999 V2000
   35.4919   22.3348   81.2187 N   0  0  0  0  0  0  0  0  0  0  0  0
   34.1348   21.8312   81.4932 C   0  0  2  0  0  0  0  0  0  0  0  0
   34.2081   20.4749   82.1633 C   0  0  0  0  0  0  0  0  0  0  0  0
   35.3033   19.9966   82.4756 O   0  0  0  0  0  0  0  0  0  0  0  0
   33.3776   21.6921   80.1765 C   0  0  0  0  0  0  0  0  0  0  0  0
   34.0742   20.7035   79.2662 C   0  0  0  0  0  0  0  0  0  0  0  0
   33.2031   20.6967   77.6893 S   0  0  2  0  0  0  0  0  0  0  0  0
   31.7965   19.6515   78.1594 C   0  0  0  0  0  0  0  0  0  0  0  0
   34.2109   19.4978   76.7519 C   0  0  0  0  0  0  0  0  0  0  0  0
   35.5892   20.1041   76.5026 C   0  0  1  0  0  0  0  0  0  0  0  0
   36.2909   19.2364   75.6432 O   0  0  0  0  0  0  0  0  0  0  0  0
   35.4896   21.4436   75.7648 C   0  0  1  0  0  0  0  0  0  0  0  0
   35.3634   22.6688   76.5030 O   0  0  0  0  0  0  0  0  0  0  0  0
   36.6855   21.3922   74.7570 C   0  0  1  0  0  0  0  0  0  0  0  0
   37.4022   22.6357   74.8438 O   0  0  0  0  0  0  0  0  0  0  0  0
   37.3347   19.9932   75.0508 C   0  0  2  0  0  0  0  0  0  0  0  0
   33.1775   19.8882   82.4573 O   0  0  0  0  0  0  0  0  0  0  0  0
   36.4731   15.9737   71.8562 N   0  0  0  0  0  0  0  0  0  0  0  0
   35.7957   16.3258   72.9548 C   0  0  0  0  0  0  0  0  0  0  0  0
   36.1517   17.3793   73.6846 N   0  0  0  0  0  0  0  0  0  0  0  0
   37.1970   18.1504   73.3343 C   0  0  0  0  0  0  0  0  0  0  0  0
   37.9408   17.8288   72.1674 C   0  0  0  0  0  0  0  0  0  0  0  0
   37.5316   16.6837   71.4220 C   0  0  0  0  0  0  0  0  0  0  0  0
   38.1984   16.3100   70.2702 N   0  0  0  0  0  0  0  0  0  0  0  0
   38.9176   18.7572   72.0459 N   0  0  0  0  0  0  0  0  0  0  0  0
   38.8262   19.6052   73.0289 C   0  0  0  0  0  0  0  0  0  0  0  0
   37.7788   19.2727   73.8527 N   0  0  0  0  0  0  0  0  0  0  0  0
  2  1  1  6  0  0  0
  2  3  1  0  0  0  0
  2  5  1  0  0  0  0
  3  4  1  0  0  0  0
  3 17  1  0  0  0  0
  5  6  1  0  0  0  0
  7  6  1  1  0  0  0
  7  8  1  0  0  0  0
  7  9  1  0  0  0  0
 10  9  1  6  0  0  0
 10 11  1  0  0  0  0
 10 12  1  0  0  0  0
 11 16  1  0  0  0  0
 12 13  1  1  0  0  0
 12 14  1  0  0  0  0
 14 15  1  1  0  0  0
 14 16  1  0  0  0  0
 16 27  1  6  0  0  0
 18 19  2  0  0  0  0
 18 23  1  0  0  0  0
 19 20  1  0  0  0  0
 20 21  2  0  0  0  0
 21 22  1  0  0  0  0
 21 27  1  0  0  0  0
 22 23  2  0  0  0  0
 22 25  1  0  0  0  0
 23 24  1  0  0  0  0
 25 26  2  0  0  0  0
 26 27  1  0  0  0  0
M  END
>  <CHROM.1>
4.61288968,61.11693642,-175.38469339,-78.82254628,-67.58859843,-172.96175570
6.05254754,35.67499471,19.75796448,76.31874113,-2.20057059,-0.88247061,-2.44228021

>  <Name>
ligand

>  <RI>
0

>  <Rbt.Current_Directory>
/home/itssahil/PROJECTS/Mol_Feturizer/New_Systems/rnas/2QWY

>  <Rbt.Executable>
rbdock ($Id: //depot/dev/client3/rdock/2013.1/src/exe/rbdock.cxx#4 $)

>  <Rbt.Library>
libRbt.so (2013.1, Build901 2013/11/27)

>  <Rbt.Parameter_File>
/export/apps/rDock/src/rDock_2013.1_src/data/scripts/dock_solv.prm

>  <Rbt.Receptor>
prm/pocket_docking_4.prm

>  <SCORE>
-10.1528

>  <SCORE.INTER>
-7.4242

>  <SCORE.INTER.CONST>
1

>  <SCORE.INTER.POLAR>
0

>  <SCORE.INTER.ROT>
7

>  <SCORE.INTER.SOLV>
9.2851

>  <SCORE.INTER.VDW>
-16.3112

>  <SCORE.INTER.norm>
-0.27497

>  <SCORE.INTRA>
-2.72855

>  <SCORE.INTRA.DIHEDRAL>
-6.98255

>  <SCORE.INTRA.DIHEDRAL.0>
10.7382

>  <SCORE.INTRA.POLAR>
0

>  <SCORE.INTRA.POLAR.0>
0

>  <SCORE.INTRA.REPUL>
0

>  <SCORE.INTRA.REPUL.0>
0

>  <SCORE.INTRA.SOLV>
-0.063597

>  <SCORE.INTRA.SOLV.lig_0>
-49.2501

>  <SCORE.INTRA.VDW>
0.794524

>  <SCORE.INTRA.VDW.0>
-1.75368

>  <SCORE.INTRA.norm>
-0.101057

>  <SCORE.RESTR>
0

>  <SCORE.RESTR.CAVITY>
0

>  <SCORE.RESTR.norm>
0

>  <SCORE.SYSTEM>
0

>  <SCORE.SYSTEM.CONST>
0

>  <SCORE.SYSTEM.DIHEDRAL>
0

>  <SCORE.SYSTEM.SOLV>
0

>  <SCORE.SYSTEM.norm>
0

>  <SCORE.heavy>
27

>  <SCORE.norm>
-0.376028

>  <RMSD>
8.752

$$$$
ligand
 OpenBabel11021811463D
libRbt.so/2013.1/901 2013/11/27
 27 29  0  0  0  0  0  0  0  0999 V2000
   34.2467   23.8155   79.4015 N   0  0  0  0  0  0  0  0  0  0  0  0
   33.1767   23.1018   78.6827 C   0  0  2  0  0  0  0  0  0  0  0  0
   31.8451   23.3346   79.3659 C   0  0  0  0  0  0  0  0  0  0  0  0
   30.8369   23.5725   78.6930 O   0  0  0  0  0  0  0  0  0  0  0  0
   33.4813   21.6073   78.6890 C   0  0  0  0  0  0  0  0  0  0  0  0
   34.7387   21.3192   77.8970 C   0  0  0  0  0  0  0  0  0  0  0  0
   35.0113   19.5387   77.9226 S   0  0  2  0  0  0  0  0  0  0  0  0
   35.6253   19.3812   79.6225 C   0  0  0  0  0  0  0  0  0  0  0  0
   36.5764   19.4231   76.9906 C   0  0  0  0  0  0  0  0  0  0  0  0
   36.8772   17.9520   76.7170 C   0  0  1  0  0  0  0  0  0  0  0  0
   36.3204   17.6255   75.4649 O   0  0  0  0  0  0  0  0  0  0  0  0
   38.3835   17.6997   76.5905 C   0  0  1  0  0  0  0  0  0  0  0  0
   39.1640   17.3815   77.7531 O   0  0  0  0  0  0  0  0  0  0  0  0
   38.4811   16.6677   75.4185 C   0  0  1  0  0  0  0  0  0  0  0  0
   39.3528   15.6002   75.8288 O   0  0  0  0  0  0  0  0  0  0  0  0
   36.9804   16.4550   75.0095 C   0  0  2  0  0  0  0  0  0  0  0  0
   31.7579   23.2164   80.5788 O   0  0  0  0  0  0  0  0  0  0  0  0
   35.4087   13.4328   71.0725 N   0  0  0  0  0  0  0  0  0  0  0  0
   35.4900   13.1321   72.3736 C   0  0  0  0  0  0  0  0  0  0  0  0
   35.9327   14.0137   73.2657 N   0  0  0  0  0  0  0  0  0  0  0  0
   36.2963   15.2560   72.8987 C   0  0  0  0  0  0  0  0  0  0  0  0
   36.2146   15.6312   71.5310 C   0  0  0  0  0  0  0  0  0  0  0  0
   35.7463   14.6505   70.6072 C   0  0  0  0  0  0  0  0  0  0  0  0
   35.6298   14.9407   69.2607 N   0  0  0  0  0  0  0  0  0  0  0  0
   36.6275   16.9166   71.4423 N   0  0  0  0  0  0  0  0  0  0  0  0
   36.9460   17.3462   72.6288 C   0  0  0  0  0  0  0  0  0  0  0  0
   36.7592   16.3567   73.5627 N   0  0  0  0  0  0  0  0  0  0  0  0
  2  1  1  1  0  0  0
  2  3  1  0  0  0  0
  2  5  1  0  0  0  0
  3  4  1  0  0  0  0
  3 17  1  0  0  0  0
  5  6  1  0  0  0  0
  7  6  1  1  0  0  0
  7  8  1  0  0  0  0
  7  9  1  0  0  0  0
 10  9  1  6  0  0  0
 10 11  1  0  0  0  0
 10 12  1  0  0  0  0
 11 16  1  0  0  0  0
 12 13  1  1  0  0  0
 12 14  1  0  0  0  0
 14 15  1  1  0  0  0
 14 16  1  0  0  0  0
 16 27  1  6  0  0  0
 18 19  2  0  0  0  0
 18 23  1  0  0  0  0
 19 20  1  0  0  0  0
 20 21  2  0  0  0  0
 21 22  1  0  0  0  0
 21 27  1  0  0  0  0
 22 23  2  0  0  0  0
 22 25  1  0  0  0  0
 23 24  1  0  0  0  0
 25 26  2  0  0  0  0
 26 27  1  0  0  0  0
M  END
>  <CHROM.1>
136.84927269,-65.24935098,-178.84674188,-75.31028801,-171.54703514,92.00666544
-128.98402206,35.65745918,18.27330799,75.76314976,1.94107185,-0.52630619
0.94581155

>  <Name>
ligand

>  <RI>
0

>  <Rbt.Current_Directory>
/home/itssahil/PROJECTS/Mol_Feturizer/New_Systems/rnas/2QWY

>  <Rbt.Executable>
rbdock ($Id: //depot/dev/client3/rdock/2013.1/src/exe/rbdock.cxx#4 $)

>  <Rbt.Library>
libRbt.so (2013.1, Build901 2013/11/27)

>  <Rbt.Parameter_File>
/export/apps/rDock/src/rDock_2013.1_src/data/scripts/dock_solv.prm

>  <Rbt.Receptor>
prm/pocket_docking_8.prm

>  <SCORE>
-16.9043

>  <SCORE.INTER>
-14.5814

>  <SCORE.INTER.CONST>
1

>  <SCORE.INTER.POLAR>
0

>  <SCORE.INTER.ROT>
7

>  <SCORE.INTER.SOLV>
7.08333

>  <SCORE.INTER.VDW>
-20.3487

>  <SCORE.INTER.norm>
-0.540052

>  <SCORE.INTRA>
-2.32288

>  <SCORE.INTRA.DIHEDRAL>
-3.59427

>  <SCORE.INTRA.DIHEDRAL.0>
10.7382

>  <SCORE.INTRA.POLAR>
0

>  <SCORE.INTRA.POLAR.0>
0

>  <SCORE.INTRA.REPUL>
0

>  <SCORE.INTRA.REPUL.0>
0

>  <SCORE.INTRA.SOLV>
-0.535059

>  <SCORE.INTRA.SOLV.lig_0>
-49.2501

>  <SCORE.INTRA.VDW>
-0.258222

>  <SCORE.INTRA.VDW.0>
-1.75368

>  <SCORE.INTRA.norm>
-0.0860328

>  <SCORE.RESTR>
0

>  <SCORE.RESTR.CAVITY>
0

>  <SCORE.RESTR.norm>
0

>  <SCORE.SYSTEM>
0

>  <SCORE.SYSTEM.CONST>
0

>  <SCORE.SYSTEM.DIHEDRAL>
0

>  <SCORE.SYSTEM.SOLV>
0

>  <SCORE.SYSTEM.norm>
0

>  <SCORE.heavy>
27

>  <SCORE.norm>
-0.626084

>  <RMSD>
8.754

$$$$
ligand
 OpenBabel11021811463D
libRbt.so/2013.1/901 2013/11/27
 27 29  0  0  0  0  0  0  0  0999 V2000
   36.8400   21.6349   81.5842 N   0  0  0  0  0  0  0  0  0  0  0  0
   36.5623   20.8382   80.3764 C   0  0  2  0  0  0  0  0  0  0  0  0
   37.1330   19.4436   80.5295 C   0  0  0  0  0  0  0  0  0  0  0  0
   36.4732   18.4617   80.1741 O   0  0  0  0  0  0  0  0  0  0  0  0
   37.2154   21.5105   79.1732 C   0  0  0  0  0  0  0  0  0  0  0  0
   36.7544   20.8592   77.8869 C   0  0  0  0  0  0  0  0  0  0  0  0
   37.7600   19.3881   77.6220 S   0  0  2  0  0  0  0  0  0  0  0  0
   39.2031   20.1783   76.8574 C   0  0  0  0  0  0  0  0  0  0  0  0
   36.9457   18.6833   76.1482 C   0  0  0  0  0  0  0  0  0  0  0  0
   37.3673   17.2234   76.0056 C   0  0  1  0  0  0  0  0  0  0  0  0
   36.5568   16.6373   75.0138 O   0  0  0  0  0  0  0  0  0  0  0  0
   38.8096   17.1007   75.5024 C   0  0  1  0  0  0  0  0  0  0  0  0
   39.9006   17.0610   76.4352 O   0  0  0  0  0  0  0  0  0  0  0  0
   38.7435   15.8997   74.5016 C   0  0  1  0  0  0  0  0  0  0  0  0
   39.8314   15.0067   74.7962 O   0  0  0  0  0  0  0  0  0  0  0  0
   37.2328   15.4762   74.5578 C   0  0  2  0  0  0  0  0  0  0  0  0
   38.2746   19.2982   80.9396 O   0  0  0  0  0  0  0  0  0  0  0  0
   36.3441   16.9851   69.6549 N   0  0  0  0  0  0  0  0  0  0  0  0
   36.9360   17.6660   70.6427 C   0  0  0  0  0  0  0  0  0  0  0  0
   37.0751   17.1479   71.8598 N   0  0  0  0  0  0  0  0  0  0  0  0
   36.6455   15.9047   72.1426 C   0  0  0  0  0  0  0  0  0  0  0  0
   36.0235   15.1331   71.1247 C   0  0  0  0  0  0  0  0  0  0  0  0
   35.8841   15.7328   69.8381 C   0  0  0  0  0  0  0  0  0  0  0  0
   35.2978   15.0441   68.7928 N   0  0  0  0  0  0  0  0  0  0  0  0
   35.6996   13.9375   71.6690 N   0  0  0  0  0  0  0  0  0  0  0  0
   36.0719   13.9206   72.9160 C   0  0  0  0  0  0  0  0  0  0  0  0
   36.6610   15.1135   73.2565 N   0  0  0  0  0  0  0  0  0  0  0  0
  2  1  1  1  0  0  0
  2  3  1  0  0  0  0
  2  5  1  0  0  0  0
  3  4  1  0  0  0  0
  3 17  1  0  0  0  0
  5  6  1  0  0  0  0
  7  6  1  6  0  0  0
  7  8  1  0  0  0  0
  7  9  1  0  0  0  0
 10  9  1  6  0  0  0
 10 11  1  0  0  0  0
 10 12  1  0  0  0  0
 11 16  1  0  0  0  0
 12 13  1  1  0  0  0
 12 14  1  0  0  0  0
 14 15  1  1  0  0  0
 14 16  1  0  0  0  0
 16 27  1  6  0  0  0
 18 19  2  0  0  0  0
 18 23  1  0  0  0  0
 19 20  1  0  0  0  0
 20 21  2  0  0  0  0
 21 22  1  0  0  0  0
 21 27  1  0  0  0  0
 22 23  2  0  0  0  0
 22 25  1  0  0  0  0
 23 24  1  0  0  0  0
 25 26  2  0  0  0  0
 26 27  1  0  0  0  0
M  END
>  <CHROM.1>
136.98143387,-170.17218366,-82.76699229,-82.82123835,-162.92170113,169.89356990
59.42375180,37.26735777,17.58522083,75.41953940,1.37895534,-1.00251859,0.91150917

>  <Name>
ligand

>  <RI>
0

>  <Rbt.Current_Directory>
/home/itssahil/PROJECTS/Mol_Feturizer/New_Systems/rnas/2QWY

>  <Rbt.Executable>
rbdock ($Id: //depot/dev/client3/rdock/2013.1/src/exe/rbdock.cxx#4 $)

>  <Rbt.Library>
libRbt.so (2013.1, Build901 2013/11/27)

>  <Rbt.Parameter_File>
/export/apps/rDock/src/rDock_2013.1_src/data/scripts/dock_solv.prm

>  <Rbt.Receptor>
prm/pocket_docking_7.prm

>  <SCORE>
-9.61346

>  <SCORE.INTER>
-6.75462

>  <SCORE.INTER.CONST>
1

>  <SCORE.INTER.POLAR>
0

>  <SCORE.INTER.ROT>
7

>  <SCORE.INTER.SOLV>
4.96183

>  <SCORE.INTER.VDW>
-14.4237

>  <SCORE.INTER.norm>
-0.250171

>  <SCORE.INTRA>
-2.85885

>  <SCORE.INTRA.DIHEDRAL>
-2.87258

>  <SCORE.INTRA.DIHEDRAL.0>
10.7382

>  <SCORE.INTRA.POLAR>
0

>  <SCORE.INTRA.POLAR.0>
0

>  <SCORE.INTRA.REPUL>
0

>  <SCORE.INTRA.REPUL.0>
0

>  <SCORE.INTRA.SOLV>
-0.789767

>  <SCORE.INTRA.SOLV.lig_0>
-49.2501

>  <SCORE.INTRA.VDW>
-1.02767

>  <SCORE.INTRA.VDW.0>
-1.75368

>  <SCORE.INTRA.norm>
-0.105883

>  <SCORE.RESTR>
0

>  <SCORE.RESTR.CAVITY>
0

>  <SCORE.RESTR.norm>
0

>  <SCORE.SYSTEM>
0

>  <SCORE.SYSTEM.CONST>
0

>  <SCORE.SYSTEM.DIHEDRAL>
0

>  <SCORE.SYSTEM.SOLV>
0

>  <SCORE.SYSTEM.norm>
0

>  <SCORE.heavy>
27

>  <SCORE.norm>
-0.356054

>  <RMSD>
8.757

$$$$
ligand
 OpenBabel11021811463D
libRbt.so/2013.1/901 2013/11/27
 27 29  0  0  0  0  0  0  0  0999 V2000
   32.3145   23.6033   83.9243 N   0  0  0  0  0  0  0  0  0  0  0  0
   32.2575   22.5263   82.9205 C   0  0  2  0  0  0  0  0  0  0  0  0
   33.1419   21.3720   83.3440 C   0  0  0  0  0  0  0  0  0  0  0  0
   32.8237   20.2121   83.0625 O   0  0  0  0  0  0  0  0  0  0  0  0
   32.7533   23.0641   81.5821 C   0  0  0  0  0  0  0  0  0  0  0  0
   32.7705   21.9641   80.5423 C   0  0  0  0  0  0  0  0  0  0  0  0
   32.8206   22.7410   78.9177 S   0  0  2  0  0  0  0  0  0  0  0  0
   31.0425   23.0259   78.6967 C   0  0  0  0  0  0  0  0  0  0  0  0
   33.0592   21.2790   77.8514 C   0  0  0  0  0  0  0  0  0  0  0  0
   34.5560   21.0249   77.6945 C   0  0  1  0  0  0  0  0  0  0  0  0
   34.7147   19.8483   76.9366 O   0  0  0  0  0  0  0  0  0  0  0  0
   35.2353   22.1408   76.8934 C   0  0  1  0  0  0  0  0  0  0  0  0
   35.7590   23.2975   77.5642 O   0  0  0  0  0  0  0  0  0  0  0  0
   36.2586   21.3706   75.9945 C   0  0  1  0  0  0  0  0  0  0  0  0
   37.5304   22.0349   76.0880 O   0  0  0  0  0  0  0  0  0  0  0  0
   36.0292   19.8722   76.4031 C   0  0  2  0  0  0  0  0  0  0  0  0
   34.2050   21.5969   83.9025 O   0  0  0  0  0  0  0  0  0  0  0  0
   37.3268   15.0853   74.8200 N   0  0  0  0  0  0  0  0  0  0  0  0
   37.4740   15.6312   76.0325 C   0  0  0  0  0  0  0  0  0  0  0  0
   37.1073   16.8854   76.2807 N   0  0  0  0  0  0  0  0  0  0  0  0
   36.5501   17.6520   75.3258 C   0  0  0  0  0  0  0  0  0  0  0  0
   36.3573   17.1152   74.0247 C   0  0  0  0  0  0  0  0  0  0  0  0
   36.7765   15.7705   73.7998 C   0  0  0  0  0  0  0  0  0  0  0  0
   36.6152   15.1731   72.5636 N   0  0  0  0  0  0  0  0  0  0  0  0
   35.7808   18.0816   73.2734 N   0  0  0  0  0  0  0  0  0  0  0  0
   35.6082   19.1449   74.0037 C   0  0  0  0  0  0  0  0  0  0  0  0
   36.0682   18.9296   75.2797 N   0  0  0  0  0  0  0  0  0  0  0  0
  2  1  1  1  0  0  0
  2  3  1  0  0  0  0
  2  5  1  0  0  0  0
  3  4  1  0  0  0  0
  3 17  1  0  0  0  0
  5  6  1  0  0  0  0
  7  6  1  1  0  0  0
  7  8  1  0  0  0  0
  7  9  1  0  0  0  0
 10  9  1  6  0  0  0
 10 11  1  0  0  0  0
 10 12  1  0  0  0  0
 11 16  1  0  0  0  0
 12 13  1  1  0  0  0
 12 14  1  0  0  0  0
 14 15  1  1  0  0  0
 14 16  1  0  0  0  0
 16 27  1  6  0  0  0
 18 19  2  0  0  0  0
 18 23  1  0  0  0  0
 19 20  1  0  0  0  0
 20 21  2  0  0  0  0
 21 22  1  0  0  0  0
 21 27  1  0  0  0  0
 22 23  2  0  0  0  0
 22 25  1  0  0  0  0
 23 24  1  0  0  0  0
 25 26  2  0  0  0  0
 26 27  1  0  0  0  0
M  END
>  <CHROM.1>
146.71785009,177.29421422,161.41779399,-84.65692440,-89.30151175,176.52204728
-99.07166931,34.78605853,20.23715402,77.84501203,-2.95675814,1.16538042,-0.82238558

>  <Name>
ligand

>  <RI>
0

>  <Rbt.Current_Directory>
/home/itssahil/PROJECTS/Mol_Feturizer/New_Systems/rnas/2QWY

>  <Rbt.Executable>
rbdock ($Id: //depot/dev/client3/rdock/2013.1/src/exe/rbdock.cxx#4 $)

>  <Rbt.Library>
libRbt.so (2013.1, Build901 2013/11/27)

>  <Rbt.Parameter_File>
/export/apps/rDock/src/rDock_2013.1_src/data/scripts/dock_solv.prm

>  <Rbt.Receptor>
prm/pocket_docking_6.prm

>  <SCORE>
-15.3007

>  <SCORE.INTER>
-12.4616

>  <SCORE.INTER.CONST>
1

>  <SCORE.INTER.POLAR>
0

>  <SCORE.INTER.ROT>
7

>  <SCORE.INTER.SOLV>
7.83514

>  <SCORE.INTER.VDW>
-19.1861

>  <SCORE.INTER.norm>
-0.461542

>  <SCORE.INTRA>
-2.83904

>  <SCORE.INTRA.DIHEDRAL>
-4.68691

>  <SCORE.INTRA.DIHEDRAL.0>
10.7382

>  <SCORE.INTRA.POLAR>
0

>  <SCORE.INTRA.POLAR.0>
0

>  <SCORE.INTRA.REPUL>
0

>  <SCORE.INTRA.REPUL.0>
0

>  <SCORE.INTRA.SOLV>
-1.12494

>  <SCORE.INTRA.SOLV.lig_0>
-49.2501

>  <SCORE.INTRA.VDW>
0.0668888

>  <SCORE.INTRA.VDW.0>
-1.75368

>  <SCORE.INTRA.norm>
-0.105149

>  <SCORE.RESTR>
0

>  <SCORE.RESTR.CAVITY>
0

>  <SCORE.RESTR.norm>
0

>  <SCORE.SYSTEM>
0

>  <SCORE.SYSTEM.CONST>
0

>  <SCORE.SYSTEM.DIHEDRAL>
0

>  <SCORE.SYSTEM.SOLV>
0

>  <SCORE.SYSTEM.norm>
0

>  <SCORE.heavy>
27

>  <SCORE.norm>
-0.566692

>  <RMSD>
8.765

$$$$
ligand
 OpenBabel11021811463D
libRbt.so/2013.1/901 2013/11/27
 27 29  0  0  0  0  0  0  0  0999 V2000
   33.7201   21.0478   79.0927 N   0  0  0  0  0  0  0  0  0  0  0  0
   33.0761   20.7872   77.7934 C   0  0  2  0  0  0  0  0  0  0  0  0
   31.5707   20.7512   77.9559 C   0  0  0  0  0  0  0  0  0  0  0  0
   30.8635   21.5697   77.3595 O   0  0  0  0  0  0  0  0  0  0  0  0
   33.5489   19.4374   77.2634 C   0  0  0  0  0  0  0  0  0  0  0  0
   35.0611   19.3698   77.2586 C   0  0  0  0  0  0  0  0  0  0  0  0
   35.6490   20.2639   75.8095 S   0  0  2  0  0  0  0  0  0  0  0  0
   35.2177   19.0409   74.5408 C   0  0  0  0  0  0  0  0  0  0  0  0
   37.4474   19.9830   75.9459 C   0  0  0  0  0  0  0  0  0  0  0  0
   38.0927   20.2681   74.5924 C   0  0  1  0  0  0  0  0  0  0  0  0
   37.9636   19.1090   73.8025 O   0  0  0  0  0  0  0  0  0  0  0  0
   37.3534   21.3794   73.8395 C   0  0  1  0  0  0  0  0  0  0  0  0
   37.7300   22.7529   74.0240 O   0  0  0  0  0  0  0  0  0  0  0  0
   37.3600   20.8793   72.3569 C   0  0  1  0  0  0  0  0  0  0  0  0
   37.7814   21.9669   71.5159 O   0  0  0  0  0  0  0  0  0  0  0  0
   38.1198   19.5087   72.4501 C   0  0  2  0  0  0  0  0  0  0  0  0
   31.0545   19.8666   78.6222 O   0  0  0  0  0  0  0  0  0  0  0  0
   37.0014   14.4400   72.0482 N   0  0  0  0  0  0  0  0  0  0  0  0
   37.5850   15.0873   73.0633 C   0  0  0  0  0  0  0  0  0  0  0  0
   37.8230   16.3948   73.0104 N   0  0  0  0  0  0  0  0  0  0  0  0
   37.4648   17.1270   71.9401 C   0  0  0  0  0  0  0  0  0  0  0  0
   36.8280   16.4907   70.8412 C   0  0  0  0  0  0  0  0  0  0  0  0
   36.6036   15.0853   70.9354 C   0  0  0  0  0  0  0  0  0  0  0  0
   35.9818   14.3947   69.9120 N   0  0  0  0  0  0  0  0  0  0  0  0
   36.5732   17.4458   69.9172 N   0  0  0  0  0  0  0  0  0  0  0  0
   36.9955   18.5939   70.3616 C   0  0  0  0  0  0  0  0  0  0  0  0
   37.5550   18.4491   71.6074 N   0  0  0  0  0  0  0  0  0  0  0  0
  2  1  1  1  0  0  0
  2  3  1  0  0  0  0
  2  5  1  0  0  0  0
  3  4  1  0  0  0  0
  3 17  1  0  0  0  0
  5  6  1  0  0  0  0
  7  6  1  1  0  0  0
  7  8  1  0  0  0  0
  7  9  1  0  0  0  0
 10  9  1  1  0  0  0
 10 11  1  0  0  0  0
 10 12  1  0  0  0  0
 11 16  1  0  0  0  0
 12 13  1  6  0  0  0
 12 14  1  0  0  0  0
 14 15  1  6  0  0  0
 14 16  1  0  0  0  0
 16 27  1  6  0  0  0
 18 19  2  0  0  0  0
 18 23  1  0  0  0  0
 19 20  1  0  0  0  0
 20 21  2  0  0  0  0
 21 22  1  0  0  0  0
 21 27  1  0  0  0  0
 22 23  2  0  0  0  0
 22 25  1  0  0  0  0
 23 24  1  0  0  0  0
 25 26  2  0  0  0  0
 26 27  1  0  0  0  0
M  END
>  <CHROM.1>
118.39294442,-52.34098220,-79.28012334,-74.51509429,161.90943292,-83.40674845
-27.16736343,35.94337048,19.09264105,74.15059813,2.30684475,0.73613545,0.48621476

>  <Name>
ligand

>  <RI>
0

>  <Rbt.Current_Directory>
/home/itssahil/PROJECTS/Mol_Feturizer/New_Systems/rnas/2QWY

>  <Rbt.Executable>
rbdock ($Id: //depot/dev/client3/rdock/2013.1/src/exe/rbdock.cxx#4 $)

>  <Rbt.Library>
libRbt.so (2013.1, Build901 2013/11/27)

>  <Rbt.Parameter_File>
/export/apps/rDock/src/rDock_2013.1_src/data/scripts/dock_solv.prm

>  <Rbt.Receptor>
prm/pocket_docking_3.prm

>  <SCORE>
-6.29622

>  <SCORE.INTER>
-7.83566

>  <SCORE.INTER.CONST>
1

>  <SCORE.INTER.POLAR>
0

>  <SCORE.INTER.ROT>
7

>  <SCORE.INTER.SOLV>
7.97767

>  <SCORE.INTER.VDW>
-16.1497

>  <SCORE.INTER.norm>
-0.29021

>  <SCORE.INTRA>
0.942696

>  <SCORE.INTRA.DIHEDRAL>
-3.92022

>  <SCORE.INTRA.DIHEDRAL.0>
10.7382

>  <SCORE.INTRA.POLAR>
0

>  <SCORE.INTRA.POLAR.0>
0

>  <SCORE.INTRA.REPUL>
0

>  <SCORE.INTRA.REPUL.0>
0

>  <SCORE.INTRA.SOLV>
0.562271

>  <SCORE.INTRA.SOLV.lig_0>
-49.2501

>  <SCORE.INTRA.VDW>
2.62167

>  <SCORE.INTRA.VDW.0>
-1.75368

>  <SCORE.INTRA.norm>
0.0349147

>  <SCORE.RESTR>
0.596738

>  <SCORE.RESTR.CAVITY>
0.596738

>  <SCORE.RESTR.norm>
0.0221014

>  <SCORE.SYSTEM>
0

>  <SCORE.SYSTEM.CONST>
0

>  <SCORE.SYSTEM.DIHEDRAL>
0

>  <SCORE.SYSTEM.SOLV>
0

>  <SCORE.SYSTEM.norm>
0

>  <SCORE.heavy>
27

>  <SCORE.norm>
-0.233193

>  <RMSD>
8.777

$$$$
ligand
 OpenBabel11021811463D
libRbt.so/2013.1/901 2013/11/27
 27 29  0  0  0  0  0  0  0  0999 V2000
   24.1679   17.6446   75.6174 N   0  0  0  0  0  0  0  0  0  0  0  0
   25.1253   18.0422   76.6644 C   0  0  2  0  0  0  0  0  0  0  0  0
   24.5838   17.6778   78.0311 C   0  0  0  0  0  0  0  0  0  0  0  0
   23.6983   18.3651   78.5499 O   0  0  0  0  0  0  0  0  0  0  0  0
   25.3358   19.5515   76.6019 C   0  0  0  0  0  0  0  0  0  0  0  0
   26.3015   19.9972   77.6790 C   0  0  0  0  0  0  0  0  0  0  0  0
   27.9719   19.8341   77.0244 S   0  0  2  0  0  0  0  0  0  0  0  0
   28.4445   18.2962   77.8628 C   0  0  0  0  0  0  0  0  0  0  0  0
   28.8571   21.0581   78.0490 C   0  0  0  0  0  0  0  0  0  0  0  0
   30.3228   21.0856   77.6242 C   0  0  1  0  0  0  0  0  0  0  0  0
   30.8974   22.2638   78.1399 O   0  0  0  0  0  0  0  0  0  0  0  0
   31.1095   19.9243   78.2414 C   0  0  1  0  0  0  0  0  0  0  0  0
   31.1972   18.6650   77.5568 O   0  0  0  0  0  0  0  0  0  0  0  0
   32.4813   20.5755   78.6186 C   0  0  1  0  0  0  0  0  0  0  0  0
   33.5334   19.7181   78.1438 O   0  0  0  0  0  0  0  0  0  0  0  0
   32.3022   22.0663   78.1601 C   0  0  2  0  0  0  0  0  0  0  0  0
   24.9755   16.6627   78.5867 O   0  0  0  0  0  0  0  0  0  0  0  0
   34.9190   22.8255   82.5963 N   0  0  0  0  0  0  0  0  0  0  0  0
   34.5350   21.6701   82.0420 C   0  0  0  0  0  0  0  0  0  0  0  0
   33.8497   21.6383   80.9025 N   0  0  0  0  0  0  0  0  0  0  0  0
   33.5333   22.7693   80.2462 C   0  0  0  0  0  0  0  0  0  0  0  0
   33.9308   24.0225   80.7843 C   0  0  0  0  0  0  0  0  0  0  0  0
   34.6529   24.0103   82.0143 C   0  0  0  0  0  0  0  0  0  0  0  0
   35.0825   25.1874   82.5979 N   0  0  0  0  0  0  0  0  0  0  0  0
   33.4967   24.9805   79.9332 N   0  0  0  0  0  0  0  0  0  0  0  0
   32.8792   24.4178   78.9352 C   0  0  0  0  0  0  0  0  0  0  0  0
   32.8747   23.0524   79.0830 N   0  0  0  0  0  0  0  0  0  0  0  0
  2  1  1  6  0  0  0
  2  3  1  0  0  0  0
  2  5  1  0  0  0  0
  3  4  1  0  0  0  0
  3 17  1  0  0  0  0
  5  6  1  0  0  0  0
  7  6  1  1  0  0  0
  7  8  1  0  0  0  0
  7  9  1  0  0  0  0
 10  9  1  1  0  0  0
 10 11  1  0  0  0  0
 10 12  1  0  0  0  0
 11 16  1  0  0  0  0
 12 13  1  6  0  0  0
 12 14  1  0  0  0  0
 14 15  1  6  0  0  0
 14 16  1  0  0  0  0
 16 27  1  1  0  0  0
 18 19  2  0  0  0  0
 18 23  1  0  0  0  0
 19 20  1  0  0  0  0
 20 21  2  0  0  0  0
 21 22  1  0  0  0  0
 21 27  1  0  0  0  0
 22 23  2  0  0  0  0
 22 25  1  0  0  0  0
 23 24  1  0  0  0  0
 25 26  2  0  0  0  0
 26 27  1  0  0  0  0
M  END
>  <CHROM.1>
-76.48693969,179.21480785,86.52404974,-102.22931099,-179.22222982,163.84425615
116.22804655,30.19377883,20.81999163,78.76073127,2.54022071,0.12974203,-2.71501021

>  <Name>
ligand

>  <RI>
0

>  <Rbt.Current_Directory>
/home/itssahil/PROJECTS/Mol_Feturizer/New_Systems/rnas/2QWY

>  <Rbt.Executable>
rbdock ($Id: //depot/dev/client3/rdock/2013.1/src/exe/rbdock.cxx#4 $)

>  <Rbt.Library>
libRbt.so (2013.1, Build901 2013/11/27)

>  <Rbt.Parameter_File>
/export/apps/rDock/src/rDock_2013.1_src/data/scripts/dock_solv.prm

>  <Rbt.Receptor>
prm/pocket_docking_6.prm

>  <SCORE>
-17.6402

>  <SCORE.INTER>
-17.703

>  <SCORE.INTER.CONST>
1

>  <SCORE.INTER.POLAR>
0

>  <SCORE.INTER.ROT>
7

>  <SCORE.INTER.SOLV>
12.3754

>  <SCORE.INTER.VDW>
-24.1938

>  <SCORE.INTER.norm>
-0.655668

>  <SCORE.INTRA>
0.0628715

>  <SCORE.INTRA.DIHEDRAL>
-1.66575

>  <SCORE.INTRA.DIHEDRAL.0>
10.7382

>  <SCORE.INTRA.POLAR>
0

>  <SCORE.INTRA.POLAR.0>
0

>  <SCORE.INTRA.REPUL>
0

>  <SCORE.INTRA.REPUL.0>
0

>  <SCORE.INTRA.SOLV>
-0.747254

>  <SCORE.INTRA.SOLV.lig_0>
-49.2501

>  <SCORE.INTRA.VDW>
1.26937

>  <SCORE.INTRA.VDW.0>
-1.75368

>  <SCORE.INTRA.norm>
0.00232857

>  <SCORE.RESTR>
0

>  <SCORE.RESTR.CAVITY>
0

>  <SCORE.RESTR.norm>
0

>  <SCORE.SYSTEM>
0

>  <SCORE.SYSTEM.CONST>
0

>  <SCORE.SYSTEM.DIHEDRAL>
0

>  <SCORE.SYSTEM.SOLV>
0

>  <SCORE.SYSTEM.norm>
0

>  <SCORE.heavy>
27

>  <SCORE.norm>
-0.653339

>  <RMSD>
8.828

$$$$
ligand
 OpenBabel11021811463D
libRbt.so/2013.1/901 2013/11/27
 27 29  0  0  0  0  0  0  0  0999 V2000
   32.3586   19.5462   79.8254 N   0  0  0  0  0  0  0  0  0  0  0  0
   33.5564   20.2459   80.3217 C   0  0  2  0  0  0  0  0  0  0  0  0
   33.5155   20.3414   81.8327 C   0  0  0  0  0  0  0  0  0  0  0  0
   32.5481   19.8922   82.4558 O   0  0  0  0  0  0  0  0  0  0  0  0
   33.5901   21.6546   79.7378 C   0  0  0  0  0  0  0  0  0  0  0  0
   33.6748   21.6005   78.2274 C   0  0  0  0  0  0  0  0  0  0  0  0
   35.2772   20.9036   77.7891 S   0  0  2  0  0  0  0  0  0  0  0  0
   36.2084   22.4507   77.6129 C   0  0  0  0  0  0  0  0  0  0  0  0
   34.9944   20.4830   76.0356 C   0  0  0  0  0  0  0  0  0  0  0  0
   35.4669   19.0523   75.7917 C   0  0  1  0  0  0  0  0  0  0  0  0
   35.2783   18.7649   74.4257 O   0  0  0  0  0  0  0  0  0  0  0  0
   36.9695   18.9037   76.0534 C   0  0  1  0  0  0  0  0  0  0  0  0
   37.4458   18.5682   77.3659 O   0  0  0  0  0  0  0  0  0  0  0  0
   37.4445   17.9500   74.9074 C   0  0  1  0  0  0  0  0  0  0  0  0
   38.2596   16.9178   75.4884 O   0  0  0  0  0  0  0  0  0  0  0  0
   36.1207   17.6670   74.1123 C   0  0  2  0  0  0  0  0  0  0  0  0
   34.4734   20.7999   82.4367 O   0  0  0  0  0  0  0  0  0  0  0  0
   35.9610   14.7588   69.7971 N   0  0  0  0  0  0  0  0  0  0  0  0
   35.7420   14.3854   71.0630 C   0  0  0  0  0  0  0  0  0  0  0  0
   35.8387   15.2486   72.0703 N   0  0  0  0  0  0  0  0  0  0  0  0
   36.1391   16.5422   71.8550 C   0  0  0  0  0  0  0  0  0  0  0  0
   36.3661   16.9939   70.5273 C   0  0  0  0  0  0  0  0  0  0  0  0
   36.2642   16.0317   69.4793 C   0  0  0  0  0  0  0  0  0  0  0  0
   36.4622   16.3941   68.1601 N   0  0  0  0  0  0  0  0  0  0  0  0
   36.6380   18.3176   70.5949 N   0  0  0  0  0  0  0  0  0  0  0  0
   36.5922   18.7005   71.8380 C   0  0  0  0  0  0  0  0  0  0  0  0
   36.2883   17.6395   72.6553 N   0  0  0  0  0  0  0  0  0  0  0  0
  2  1  1  6  0  0  0
  2  3  1  0  0  0  0
  2  5  1  0  0  0  0
  3  4  1  0  0  0  0
  3 17  1  0  0  0  0
  5  6  1  0  0  0  0
  7  6  1  1  0  0  0
  7  8  1  0  0  0  0
  7  9  1  0  0  0  0
 10  9  1  6  0  0  0
 10 11  1  0  0  0  0
 10 12  1  0  0  0  0
 11 16  1  0  0  0  0
 12 13  1  1  0  0  0
 12 14  1  0  0  0  0
 14 15  1  1  0  0  0
 14 16  1  0  0  0  0
 16 27  1  6  0  0  0
 18 19  2  0  0  0  0
 18 23  1  0  0  0  0
 19 20  1  0  0  0  0
 20 21  2  0  0  0  0
 21 22  1  0  0  0  0
 21 27  1  0  0  0  0
 22 23  2  0  0  0  0
 22 25  1  0  0  0  0
 23 24  1  0  0  0  0
 25 26  2  0  0  0  0
 26 27  1  0  0  0  0
M  END
>  <CHROM.1>
-1.67978359,-61.50140605,-66.75990848,-92.99351001,-131.56125297,-178.17614436
-131.20737713,35.51538225,18.71705000,75.54455245,2.05696860,1.07674361,0.71137034

>  <Name>
ligand

>  <RI>
0

>  <Rbt.Current_Directory>
/home/itssahil/PROJECTS/Mol_Feturizer/New_Systems/rnas/2QWY

>  <Rbt.Executable>
rbdock ($Id: //depot/dev/client3/rdock/2013.1/src/exe/rbdock.cxx#4 $)

>  <Rbt.Library>
libRbt.so (2013.1, Build901 2013/11/27)

>  <Rbt.Parameter_File>
/export/apps/rDock/src/rDock_2013.1_src/data/scripts/dock_solv.prm

>  <Rbt.Receptor>
prm/pocket_docking_3.prm

>  <SCORE>
-5.89912

>  <SCORE.INTER>
-5.23773

>  <SCORE.INTER.CONST>
1

>  <SCORE.INTER.POLAR>
0

>  <SCORE.INTER.ROT>
7

>  <SCORE.INTER.SOLV>
13.2665

>  <SCORE.INTER.VDW>
-16.1806

>  <SCORE.INTER.norm>
-0.19399

>  <SCORE.INTRA>
-0.903595

>  <SCORE.INTRA.DIHEDRAL>
-1.5524

>  <SCORE.INTRA.DIHEDRAL.0>
10.7382

>  <SCORE.INTRA.POLAR>
0

>  <SCORE.INTRA.POLAR.0>
0

>  <SCORE.INTRA.REPUL>
0

>  <SCORE.INTRA.REPUL.0>
0

>  <SCORE.INTRA.SOLV>
0.319397

>  <SCORE.INTRA.SOLV.lig_0>
-49.2501

>  <SCORE.INTRA.VDW>
-0.287094

>  <SCORE.INTRA.VDW.0>
-1.75368

>  <SCORE.INTRA.norm>
-0.0334665

>  <SCORE.RESTR>
0.242211

>  <SCORE.RESTR.CAVITY>
0.242211

>  <SCORE.RESTR.norm>
0.00897078

>  <SCORE.SYSTEM>
0

>  <SCORE.SYSTEM.CONST>
0

>  <SCORE.SYSTEM.DIHEDRAL>
0

>  <SCORE.SYSTEM.SOLV>
0

>  <SCORE.SYSTEM.norm>
0

>  <SCORE.heavy>
27

>  <SCORE.norm>
-0.218486

>  <RMSD>
8.843

$$$$
ligand
 OpenBabel11021811463D
libRbt.so/2013.1/901 2013/11/27
 27 29  0  0  0  0  0  0  0  0999 V2000
   36.4726   23.1455   79.7852 N   0  0  0  0  0  0  0  0  0  0  0  0
   35.1604   23.0056   79.1300 C   0  0  2  0  0  0  0  0  0  0  0  0
   34.3041   24.2222   79.4137 C   0  0  0  0  0  0  0  0  0  0  0  0
   34.0927   24.5729   80.5791 O   0  0  0  0  0  0  0  0  0  0  0  0
   34.4579   21.7676   79.6779 C   0  0  0  0  0  0  0  0  0  0  0  0
   34.9578   20.5214   78.9789 C   0  0  0  0  0  0  0  0  0  0  0  0
   34.2964   20.5254   77.3033 S   0  0  2  0  0  0  0  0  0  0  0  0
   32.5690   20.1288   77.6910 C   0  0  0  0  0  0  0  0  0  0  0  0
   34.8844   18.9047   76.7042 C   0  0  0  0  0  0  0  0  0  0  0  0
   35.8829   19.1325   75.5725 C   0  0  1  0  0  0  0  0  0  0  0  0
   36.2034   17.8757   75.0231 O   0  0  0  0  0  0  0  0  0  0  0  0
   35.2647   19.9491   74.4326 C   0  0  1  0  0  0  0  0  0  0  0  0
   35.3389   21.3831   74.4466 O   0  0  0  0  0  0  0  0  0  0  0  0
   35.8339   19.2643   73.1459 C   0  0  1  0  0  0  0  0  0  0  0  0
   36.3299   20.2913   72.2702 O   0  0  0  0  0  0  0  0  0  0  0  0
   36.7276   18.1112   73.7259 C   0  0  2  0  0  0  0  0  0  0  0  0
   33.8823   24.8956   78.4856 O   0  0  0  0  0  0  0  0  0  0  0  0
   36.4769   15.8786   69.0294 N   0  0  0  0  0  0  0  0  0  0  0  0
   36.5315   17.1806   69.3320 C   0  0  0  0  0  0  0  0  0  0  0  0
   36.5739   17.6013   70.5930 N   0  0  0  0  0  0  0  0  0  0  0  0
   36.5870   16.7314   71.6193 C   0  0  0  0  0  0  0  0  0  0  0  0
   36.5460   15.3368   71.3520 C   0  0  0  0  0  0  0  0  0  0  0  0
   36.4886   14.9308   69.9858 C   0  0  0  0  0  0  0  0  0  0  0  0
   36.4550   13.5921   69.6430 N   0  0  0  0  0  0  0  0  0  0  0  0
   36.5771   14.6987   72.5447 N   0  0  0  0  0  0  0  0  0  0  0  0
   36.6357   15.5806   73.5000 C   0  0  0  0  0  0  0  0  0  0  0  0
   36.6435   16.8513   72.9791 N   0  0  0  0  0  0  0  0  0  0  0  0
  2  1  1  1  0  0  0
  2  3  1  0  0  0  0
  2  5  1  0  0  0  0
  3  4  1  0  0  0  0
  3 17  1  0  0  0  0
  5  6  1  0  0  0  0
  7  6  1  1  0  0  0
  7  8  1  0  0  0  0
  7  9  1  0  0  0  0
 10  9  1  1  0  0  0
 10 11  1  0  0  0  0
 10 12  1  0  0  0  0
 11 16  1  0  0  0  0
 12 13  1  1  0  0  0
 12 14  1  0  0  0  0
 14 15  1  1  0  0  0
 14 16  1  0  0  0  0
 16 27  1  6  0  0  0
 18 19  2  0  0  0  0
 18 23  1  0  0  0  0
 19 20  1  0  0  0  0
 20 21  2  0  0  0  0
 21 22  1  0  0  0  0
 21 27  1  0  0  0  0
 22 23  2  0  0  0  0
 22 25  1  0  0  0  0
 23 24  1  0  0  0  0
 25 26  2  0  0  0  0
 26 27  1  0  0  0  0
M  END
>  <CHROM.1>
-54.94416906,-81.85359669,-72.09705298,-72.74274345,-114.79631969,-173.25329426
155.46842831,35.53550081,19.29570748,74.92782460,2.71522941,1.36368275,-0.27058004

>  <Name>
ligand

>  <RI>
0

>  <Rbt.Current_Directory>
/home/itssahil/PROJECTS/Mol_Feturizer/New_Systems/rnas/2QWY

>  <Rbt.Executable>
rbdock ($Id: //depot/dev/client3/rdock/2013.1/src/exe/rbdock.cxx#4 $)

>  <Rbt.Library>
libRbt.so (2013.1, Build901 2013/11/27)

>  <Rbt.Parameter_File>
/export/apps/rDock/src/rDock_2013.1_src/data/scripts/dock_solv.prm

>  <Rbt.Receptor>
prm/pocket_docking_5.prm

>  <SCORE>
-9.3349

>  <SCORE.INTER>
-8.46159

>  <SCORE.INTER.CONST>
1

>  <SCORE.INTER.POLAR>
0

>  <SCORE.INTER.ROT>
7

>  <SCORE.INTER.SOLV>
6.42257

>  <SCORE.INTER.VDW>
-16.0486

>  <SCORE.INTER.norm>
-0.313392

>  <SCORE.INTRA>
-0.891036

>  <SCORE.INTRA.DIHEDRAL>
-1.44283

>  <SCORE.INTRA.DIHEDRAL.0>
10.7382

>  <SCORE.INTRA.POLAR>
0

>  <SCORE.INTRA.POLAR.0>
0

>  <SCORE.INTRA.REPUL>
0

>  <SCORE.INTRA.REPUL.0>
0

>  <SCORE.INTRA.SOLV>
-0.0609997

>  <SCORE.INTRA.SOLV.lig_0>
-49.2501

>  <SCORE.INTRA.VDW>
-0.13912

>  <SCORE.INTRA.VDW.0>
-1.75368

>  <SCORE.INTRA.norm>
-0.0330013

>  <SCORE.RESTR>
0.0177227

>  <SCORE.RESTR.CAVITY>
0.0177227

>  <SCORE.RESTR.norm>
0.000656394

>  <SCORE.SYSTEM>
0

>  <SCORE.SYSTEM.CONST>
0

>  <SCORE.SYSTEM.DIHEDRAL>
0

>  <SCORE.SYSTEM.SOLV>
0

>  <SCORE.SYSTEM.norm>
0

>  <SCORE.heavy>
27

>  <SCORE.norm>
-0.345737

>  <RMSD>
8.844

$$$$
ligand
 OpenBabel11021811463D
libRbt.so/2013.1/901 2013/11/27
 27 29  0  0  0  0  0  0  0  0999 V2000
   36.8954   20.4742   81.1515 N   0  0  0  0  0  0  0  0  0  0  0  0
   37.4000   21.4534   80.1731 C   0  0  2  0  0  0  0  0  0  0  0  0
   37.7899   22.7376   80.8750 C   0  0  0  0  0  0  0  0  0  0  0  0
   37.6380   22.8471   82.0960 O   0  0  0  0  0  0  0  0  0  0  0  0
   36.3021   21.7577   79.1590 C   0  0  0  0  0  0  0  0  0  0  0  0
   35.9686   20.5214   78.3517 C   0  0  0  0  0  0  0  0  0  0  0  0
   34.7588   20.9886   77.1013 S   0  0  2  0  0  0  0  0  0  0  0  0
   33.2580   20.8606   78.1127 C   0  0  0  0  0  0  0  0  0  0  0  0
   34.6482   19.4391   76.1429 C   0  0  0  0  0  0  0  0  0  0  0  0
   35.9345   19.2658   75.3398 C   0  0  1  0  0  0  0  0  0  0  0  0
   35.8829   18.0055   74.7129 O   0  0  0  0  0  0  0  0  0  0  0  0
   36.0366   20.2975   74.2113 C   0  0  1  0  0  0  0  0  0  0  0  0
   36.6557   21.5712   74.4489 O   0  0  0  0  0  0  0  0  0  0  0  0
   36.6360   19.4760   73.0221 C   0  0  1  0  0  0  0  0  0  0  0  0
   37.7202   20.2304   72.4538 O   0  0  0  0  0  0  0  0  0  0  0  0
   36.8041   18.0402   73.6344 C   0  0  2  0  0  0  0  0  0  0  0  0
   38.3202   23.6374   80.2410 O   0  0  0  0  0  0  0  0  0  0  0  0
   36.2366   16.5830   68.6687 N   0  0  0  0  0  0  0  0  0  0  0  0
   36.5889   17.7799   69.1515 C   0  0  0  0  0  0  0  0  0  0  0  0
   36.6742   18.0055   70.4595 N   0  0  0  0  0  0  0  0  0  0  0  0
   36.4313   17.0301   71.3537 C   0  0  0  0  0  0  0  0  0  0  0  0
   36.0682   15.7362   70.8930 C   0  0  0  0  0  0  0  0  0  0  0  0
   35.9767   15.5423   69.4828 C   0  0  0  0  0  0  0  0  0  0  0  0
   35.6377   14.3104   68.9553 N   0  0  0  0  0  0  0  0  0  0  0  0
   35.8910   14.9568   71.9846 N   0  0  0  0  0  0  0  0  0  0  0  0
   36.1166   15.6623   73.0548 C   0  0  0  0  0  0  0  0  0  0  0  0
   36.4534   16.9502   72.7174 N   0  0  0  0  0  0  0  0  0  0  0  0
  2  1  1  1  0  0  0
  2  3  1  0  0  0  0
  2  5  1  0  0  0  0
  3  4  1  0  0  0  0
  3 17  1  0  0  0  0
  5  6  1  0  0  0  0
  7  6  1  1  0  0  0
  7  8  1  0  0  0  0
  7  9  1  0  0  0  0
 10  9  1  6  0  0  0
 10 11  1  0  0  0  0
 10 12  1  0  0  0  0
 11 16  1  0  0  0  0
 12 13  1  1  0  0  0
 12 14  1  0  0  0  0
 14 15  1  1  0  0  0
 14 16  1  0  0  0  0
 16 27  1  6  0  0  0
 18 19  2  0  0  0  0
 18 23  1  0  0  0  0
 19 20  1  0  0  0  0
 20 21  2  0  0  0  0
 21 22  1  0  0  0  0
 21 27  1  0  0  0  0
 22 23  2  0  0  0  0
 22 25  1  0  0  0  0
 23 24  1  0  0  0  0
 25 26  2  0  0  0  0
 26 27  1  0  0  0  0
M  END
>  <CHROM.1>
-1.30377579,-64.65704257,-175.88470893,-83.68154754,-71.85712170,174.34758734
137.82263557,36.25775356,19.23607891,74.97268734,1.48380832,1.01720304,1.11202975

>  <Name>
ligand

>  <RI>
0

>  <Rbt.Current_Directory>
/home/itssahil/PROJECTS/Mol_Feturizer/New_Systems/rnas/2QWY

>  <Rbt.Executable>
rbdock ($Id: //depot/dev/client3/rdock/2013.1/src/exe/rbdock.cxx#4 $)

>  <Rbt.Library>
libRbt.so (2013.1, Build901 2013/11/27)

>  <Rbt.Parameter_File>
/export/apps/rDock/src/rDock_2013.1_src/data/scripts/dock_solv.prm

>  <Rbt.Receptor>
prm/pocket_docking_5.prm

>  <SCORE>
-8.81804

>  <SCORE.INTER>
-5.29615

>  <SCORE.INTER.CONST>
1

>  <SCORE.INTER.POLAR>
0

>  <SCORE.INTER.ROT>
7

>  <SCORE.INTER.SOLV>
5.67586

>  <SCORE.INTER.VDW>
-13.6894

>  <SCORE.INTER.norm>
-0.196154

>  <SCORE.INTRA>
-3.52189

>  <SCORE.INTRA.DIHEDRAL>
-6.6347

>  <SCORE.INTRA.DIHEDRAL.0>
10.7382

>  <SCORE.INTRA.POLAR>
0

>  <SCORE.INTRA.POLAR.0>
0

>  <SCORE.INTRA.REPUL>
0

>  <SCORE.INTRA.REPUL.0>
0

>  <SCORE.INTRA.SOLV>
-0.204045

>  <SCORE.INTRA.SOLV.lig_0>
-49.2501

>  <SCORE.INTRA.VDW>
-0.102513

>  <SCORE.INTRA.VDW.0>
-1.75368

>  <SCORE.INTRA.norm>
-0.13044

>  <SCORE.RESTR>
0

>  <SCORE.RESTR.CAVITY>
0

>  <SCORE.RESTR.norm>
0

>  <SCORE.SYSTEM>
0

>  <SCORE.SYSTEM.CONST>
0

>  <SCORE.SYSTEM.DIHEDRAL>
0

>  <SCORE.SYSTEM.SOLV>
0

>  <SCORE.SYSTEM.norm>
0

>  <SCORE.heavy>
27

>  <SCORE.norm>
-0.326594

>  <RMSD>
8.847

$$$$
ligand
 OpenBabel11021811463D
libRbt.so/2013.1/901 2013/11/27
 27 29  0  0  0  0  0  0  0  0999 V2000
   32.1400   21.2895   79.3958 N   0  0  0  0  0  0  0  0  0  0  0  0
   31.9462   20.8773   77.9946 C   0  0  2  0  0  0  0  0  0  0  0  0
   30.5363   20.3620   77.7934 C   0  0  0  0  0  0  0  0  0  0  0  0
   30.1964   19.2801   78.2830 O   0  0  0  0  0  0  0  0  0  0  0  0
   32.9326   19.7629   77.6607 C   0  0  0  0  0  0  0  0  0  0  0  0
   34.2053   20.3386   77.0774 C   0  0  0  0  0  0  0  0  0  0  0  0
   35.2651   18.9625   76.5994 S   0  0  2  0  0  0  0  0  0  0  0  0
   36.3917   18.9791   78.0214 C   0  0  0  0  0  0  0  0  0  0  0  0
   36.3106   19.7642   75.3362 C   0  0  0  0  0  0  0  0  0  0  0  0
   37.3649   18.7658   74.8658 C   0  0  1  0  0  0  0  0  0  0  0  0
   36.7378   17.8617   73.9863 O   0  0  0  0  0  0  0  0  0  0  0  0
   38.4676   19.4529   74.0532 C   0  0  1  0  0  0  0  0  0  0  0  0
   39.6284   19.9828   74.7118 O   0  0  0  0  0  0  0  0  0  0  0  0
   38.7604   18.4322   72.9039 C   0  0  1  0  0  0  0  0  0  0  0  0
   40.1845   18.2588   72.8066 O   0  0  0  0  0  0  0  0  0  0  0  0
   37.7616   17.2602   73.2097 C   0  0  2  0  0  0  0  0  0  0  0  0
   29.7173   21.0523   77.2057 O   0  0  0  0  0  0  0  0  0  0  0  0
   35.0233   13.2789   71.2721 N   0  0  0  0  0  0  0  0  0  0  0  0
   35.4644   13.4574   72.5224 C   0  0  0  0  0  0  0  0  0  0  0  0
   36.1745   14.5290   72.8640 N   0  0  0  0  0  0  0  0  0  0  0  0
   36.4597   15.4920   71.9688 C   0  0  0  0  0  0  0  0  0  0  0  0
   36.0016   15.3584   70.6308 C   0  0  0  0  0  0  0  0  0  0  0  0
   35.2545   14.1876   70.3057 C   0  0  0  0  0  0  0  0  0  0  0  0
   34.7664   13.9881   69.0279 N   0  0  0  0  0  0  0  0  0  0  0  0
   36.4154   16.4544   69.9537 N   0  0  0  0  0  0  0  0  0  0  0  0
   37.0757   17.2321   70.7619 C   0  0  0  0  0  0  0  0  0  0  0  0
   37.1311   16.6809   72.0186 N   0  0  0  0  0  0  0  0  0  0  0  0
  2  1  1  1  0  0  0
  2  3  1  0  0  0  0
  2  5  1  0  0  0  0
  3  4  1  0  0  0  0
  3 17  1  0  0  0  0
  5  6  1  0  0  0  0
  7  6  1  1  0  0  0
  7  8  1  0  0  0  0
  7  9  1  0  0  0  0
 10  9  1  6  0  0  0
 10 11  1  0  0  0  0
 10 12  1  0  0  0  0
 11 16  1  0  0  0  0
 12 13  1  1  0  0  0
 12 14  1  0  0  0  0
 14 15  1  1  0  0  0
 14 16  1  0  0  0  0
 16 27  1  6  0  0  0
 18 19  2  0  0  0  0
 18 23  1  0  0  0  0
 19 20  1  0  0  0  0
 20 21  2  0  0  0  0
 21 22  1  0  0  0  0
 21 27  1  0  0  0  0
 22 23  2  0  0  0  0
 22 25  1  0  0  0  0
 23 24  1  0  0  0  0
 25 26  2  0  0  0  0
 26 27  1  0  0  0  0
M  END
>  <CHROM.1>
-70.71445423,-92.25378829,-175.92182605,-100.86831682,176.03900661,76.99987618
-79.41098387,35.47342648,17.96188688,74.39815437,2.10049867,0.23475296,0.81977890

>  <Name>
ligand

>  <RI>
0

>  <Rbt.Current_Directory>
/home/itssahil/PROJECTS/Mol_Feturizer/New_Systems/rnas/2QWY

>  <Rbt.Executable>
rbdock ($Id: //depot/dev/client3/rdock/2013.1/src/exe/rbdock.cxx#4 $)

>  <Rbt.Library>
libRbt.so (2013.1, Build901 2013/11/27)

>  <Rbt.Parameter_File>
/export/apps/rDock/src/rDock_2013.1_src/data/scripts/dock_solv.prm

>  <Rbt.Receptor>
prm/pocket_docking_7.prm

>  <SCORE>
-15.9456

>  <SCORE.INTER>
-14.7455

>  <SCORE.INTER.CONST>
1

>  <SCORE.INTER.POLAR>
0

>  <SCORE.INTER.ROT>
7

>  <SCORE.INTER.SOLV>
9.8864

>  <SCORE.INTER.VDW>
-21.3925

>  <SCORE.INTER.norm>
-0.546129

>  <SCORE.INTRA>
-1.20011

>  <SCORE.INTRA.DIHEDRAL>
-0.835927

>  <SCORE.INTRA.DIHEDRAL.0>
10.7382

>  <SCORE.INTRA.POLAR>
0

>  <SCORE.INTRA.POLAR.0>
0

>  <SCORE.INTRA.REPUL>
0

>  <SCORE.INTRA.REPUL.0>
0

>  <SCORE.INTRA.SOLV>
-0.832646

>  <SCORE.INTRA.SOLV.lig_0>
-49.2501

>  <SCORE.INTRA.VDW>
-0.365825

>  <SCORE.INTRA.VDW.0>
-1.75368

>  <SCORE.INTRA.norm>
-0.0444486

>  <SCORE.RESTR>
0

>  <SCORE.RESTR.CAVITY>
0

>  <SCORE.RESTR.norm>
0

>  <SCORE.SYSTEM>
0

>  <SCORE.SYSTEM.CONST>
0

>  <SCORE.SYSTEM.DIHEDRAL>
0

>  <SCORE.SYSTEM.SOLV>
0

>  <SCORE.SYSTEM.norm>
0

>  <SCORE.heavy>
27

>  <SCORE.norm>
-0.590578

>  <RMSD>
8.848

$$$$
ligand
 OpenBabel11021811463D
libRbt.so/2013.1/901 2013/11/27
 27 29  0  0  0  0  0  0  0  0999 V2000
   24.9699   21.6598   73.2667 N   0  0  0  0  0  0  0  0  0  0  0  0
   24.6216   20.5658   74.1900 C   0  0  2  0  0  0  0  0  0  0  0  0
   23.3714   19.8578   73.7109 C   0  0  0  0  0  0  0  0  0  0  0  0
   23.1825   18.6715   73.9984 O   0  0  0  0  0  0  0  0  0  0  0  0
   24.3611   21.1460   75.5763 C   0  0  0  0  0  0  0  0  0  0  0  0
   24.1410   20.0366   76.5825 C   0  0  0  0  0  0  0  0  0  0  0  0
   25.6839   19.1200   76.7397 S   0  0  2  0  0  0  0  0  0  0  0  0
   25.2192   18.0386   78.1203 C   0  0  0  0  0  0  0  0  0  0  0  0
   26.7182   20.3465   77.6101 C   0  0  0  0  0  0  0  0  0  0  0  0
   28.1595   20.2028   77.1291 C   0  0  1  0  0  0  0  0  0  0  0  0
   28.8694   21.3431   77.5533 O   0  0  0  0  0  0  0  0  0  0  0  0
   28.8538   19.0031   77.7826 C   0  0  1  0  0  0  0  0  0  0  0  0
   28.7870   17.7062   77.1697 O   0  0  0  0  0  0  0  0  0  0  0  0
   30.2984   19.5319   78.0690 C   0  0  1  0  0  0  0  0  0  0  0  0
   31.2390   18.5482   77.6053 O   0  0  0  0  0  0  0  0  0  0  0  0
   30.2475   21.0061   77.5316 C   0  0  2  0  0  0  0  0  0  0  0  0
   22.5179   20.4831   73.0998 O   0  0  0  0  0  0  0  0  0  0  0  0
   34.3285   21.8650   80.6480 N   0  0  0  0  0  0  0  0  0  0  0  0
   33.9824   20.7360   80.0192 C   0  0  0  0  0  0  0  0  0  0  0  0
   32.8897   20.6663   79.2641 N   0  0  0  0  0  0  0  0  0  0  0  0
   32.0972   21.7382   79.0820 C   0  0  0  0  0  0  0  0  0  0  0  0
   32.4283   22.9660   79.7152 C   0  0  0  0  0  0  0  0  0  0  0  0
   33.6018   22.9921   80.5257 C   0  0  0  0  0  0  0  0  0  0  0  0
   33.9962   24.1507   81.1681 N   0  0  0  0  0  0  0  0  0  0  0  0
   31.4823   23.8669   79.3630 N   0  0  0  0  0  0  0  0  0  0  0  0
   30.6181   23.2939   78.5765 C   0  0  0  0  0  0  0  0  0  0  0  0
   30.9541   21.9779   78.3732 N   0  0  0  0  0  0  0  0  0  0  0  0
  2  1  1  6  0  0  0
  2  3  1  0  0  0  0
  2  5  1  0  0  0  0
  3  4  1  0  0  0  0
  3 17  1  0  0  0  0
  5  6  1  0  0  0  0
  7  6  1  1  0  0  0
  7  8  1  0  0  0  0
  7  9  1  0  0  0  0
 10  9  1  1  0  0  0
 10 11  1  0  0  0  0
 10 12  1  0  0  0  0
 11 16  1  0  0  0  0
 12 13  1  6  0  0  0
 12 14  1  0  0  0  0
 14 15  1  6  0  0  0
 14 16  1  0  0  0  0
 16 27  1  1  0  0  0
 18 19  2  0  0  0  0
 18 23  1  0  0  0  0
 19 20  1  0  0  0  0
 20 21  2  0  0  0  0
 21 22  1  0  0  0  0
 21 27  1  0  0  0  0
 22 23  2  0  0  0  0
 22 25  1  0  0  0  0
 23 24  1  0  0  0  0
 25 26  2  0  0  0  0
 26 27  1  0  0  0  0
M  END
>  <CHROM.1>
152.82207543,-174.14257700,65.63572067,172.87098482,-145.80805744,166.01658919
150.00824737,28.53519900,20.64978904,77.39722527,2.97397691,0.53311976,3.02149954

>  <Name>
ligand

>  <RI>
0

>  <Rbt.Current_Directory>
/home/itssahil/PROJECTS/Mol_Feturizer/New_Systems/rnas/2QWY

>  <Rbt.Executable>
rbdock ($Id: //depot/dev/client3/rdock/2013.1/src/exe/rbdock.cxx#4 $)

>  <Rbt.Library>
libRbt.so (2013.1, Build901 2013/11/27)

>  <Rbt.Parameter_File>
/export/apps/rDock/src/rDock_2013.1_src/data/scripts/dock_solv.prm

>  <Rbt.Receptor>
prm/pocket_docking_7.prm

>  <SCORE>
-25.6114

>  <SCORE.INTER>
-23.1398

>  <SCORE.INTER.CONST>
1

>  <SCORE.INTER.POLAR>
0

>  <SCORE.INTER.ROT>
7

>  <SCORE.INTER.SOLV>
15.1993

>  <SCORE.INTER.VDW>
-28.7596

>  <SCORE.INTER.norm>
-0.857029

>  <SCORE.INTRA>
-2.47157

>  <SCORE.INTRA.DIHEDRAL>
-3.30439

>  <SCORE.INTRA.DIHEDRAL.0>
10.7382

>  <SCORE.INTRA.POLAR>
0

>  <SCORE.INTRA.POLAR.0>
0

>  <SCORE.INTRA.REPUL>
0

>  <SCORE.INTRA.REPUL.0>
0

>  <SCORE.INTRA.SOLV>
-0.619261

>  <SCORE.INTRA.SOLV.lig_0>
-49.2501

>  <SCORE.INTRA.VDW>
-0.509749

>  <SCORE.INTRA.VDW.0>
-1.75368

>  <SCORE.INTRA.norm>
-0.0915398

>  <SCORE.RESTR>
0

>  <SCORE.RESTR.CAVITY>
0

>  <SCORE.RESTR.norm>
0

>  <SCORE.SYSTEM>
0

>  <SCORE.SYSTEM.CONST>
0

>  <SCORE.SYSTEM.DIHEDRAL>
0

>  <SCORE.SYSTEM.SOLV>
0

>  <SCORE.SYSTEM.norm>
0

>  <SCORE.heavy>
27

>  <SCORE.norm>
-0.948569

>  <RMSD>
8.857

$$$$
ligand
 OpenBabel11021811463D
libRbt.so/2013.1/901 2013/11/27
 27 29  0  0  0  0  0  0  0  0999 V2000
   31.3413   20.9803   77.5660 N   0  0  0  0  0  0  0  0  0  0  0  0
   32.2192   20.0379   78.2815 C   0  0  2  0  0  0  0  0  0  0  0  0
   32.5156   20.5563   79.6734 C   0  0  0  0  0  0  0  0  0  0  0  0
   32.9003   19.7806   80.5544 O   0  0  0  0  0  0  0  0  0  0  0  0
   33.5310   19.8977   77.5161 C   0  0  0  0  0  0  0  0  0  0  0  0
   34.2118   21.2429   77.3799 C   0  0  0  0  0  0  0  0  0  0  0  0
   35.9298   20.9484   76.9249 S   0  0  2  0  0  0  0  0  0  0  0  0
   36.4691   22.6733   76.7655 C   0  0  0  0  0  0  0  0  0  0  0  0
   35.7405   20.4943   75.1671 C   0  0  0  0  0  0  0  0  0  0  0  0
   35.5987   18.9781   75.0645 C   0  0  1  0  0  0  0  0  0  0  0  0
   35.4724   18.6501   73.7004 O   0  0  0  0  0  0  0  0  0  0  0  0
   36.8592   18.2603   75.5588 C   0  0  1  0  0  0  0  0  0  0  0  0
   36.9913   17.9004   76.9427 O   0  0  0  0  0  0  0  0  0  0  0  0
   37.0265   17.0811   74.5440 C   0  0  1  0  0  0  0  0  0  0  0  0
   37.2608   15.8742   75.2896 O   0  0  0  0  0  0  0  0  0  0  0  0
   35.8109   17.2784   73.5702 C   0  0  2  0  0  0  0  0  0  0  0  0
   32.4409   21.7541   79.9022 O   0  0  0  0  0  0  0  0  0  0  0  0
   37.2325   13.7569   70.0090 N   0  0  0  0  0  0  0  0  0  0  0  0
   37.0462   13.5860   71.3228 C   0  0  0  0  0  0  0  0  0  0  0  0
   36.6976   14.5967   72.1140 N   0  0  0  0  0  0  0  0  0  0  0  0
   36.4947   15.8318   71.6206 C   0  0  0  0  0  0  0  0  0  0  0  0
   36.6644   16.0637   70.2293 C   0  0  0  0  0  0  0  0  0  0  0  0
   37.0507   14.9542   69.4204 C   0  0  0  0  0  0  0  0  0  0  0  0
   37.2276   15.0963   68.0568 N   0  0  0  0  0  0  0  0  0  0  0  0
   36.3946   17.3704   70.0046 N   0  0  0  0  0  0  0  0  0  0  0  0
   36.0770   17.9411   71.1303 C   0  0  0  0  0  0  0  0  0  0  0  0
   36.1248   17.0320   72.1586 N   0  0  0  0  0  0  0  0  0  0  0  0
  2  1  1  6  0  0  0
  2  3  1  0  0  0  0
  2  5  1  0  0  0  0
  3  4  1  0  0  0  0
  3 17  1  0  0  0  0
  5  6  1  0  0  0  0
  7  6  1  1  0  0  0
  7  8  1  0  0  0  0
  7  9  1  0  0  0  0
 10  9  1  6  0  0  0
 10 11  1  0  0  0  0
 10 12  1  0  0  0  0
 11 16  1  0  0  0  0
 12 13  1  1  0  0  0
 12 14  1  0  0  0  0
 14 15  1  1  0  0  0
 14 16  1  0  0  0  0
 16 27  1  6  0  0  0
 18 19  2  0  0  0  0
 18 23  1  0  0  0  0
 19 20  1  0  0  0  0
 20 21  2  0  0  0  0
 21 22  1  0  0  0  0
 21 27  1  0  0  0  0
 22 23  2  0  0  0  0
 22 25  1  0  0  0  0
 23 24  1  0  0  0  0
 25 26  2  0  0  0  0
 26 27  1  0  0  0  0
M  END
>  <CHROM.1>
159.52971964,58.76730014,163.45466523,177.79235407,-91.92283106,-179.21796167
-179.82096351,35.52500681,18.30539613,74.71041461,-2.59848414,-1.18419489
3.11444935

>  <Name>
ligand

>  <RI>
0

>  <Rbt.Current_Directory>
/home/itssahil/PROJECTS/Mol_Feturizer/New_Systems/rnas/2QWY

>  <Rbt.Executable>
rbdock ($Id: //depot/dev/client3/rdock/2013.1/src/exe/rbdock.cxx#4 $)

>  <Rbt.Library>
libRbt.so (2013.1, Build901 2013/11/27)

>  <Rbt.Parameter_File>
/export/apps/rDock/src/rDock_2013.1_src/data/scripts/dock_solv.prm

>  <Rbt.Receptor>
prm/pocket_docking_4.prm

>  <SCORE>
-10.8931

>  <SCORE.INTER>
-8.14701

>  <SCORE.INTER.CONST>
1

>  <SCORE.INTER.POLAR>
0

>  <SCORE.INTER.ROT>
7

>  <SCORE.INTER.SOLV>
11.1721

>  <SCORE.INTER.VDW>
-17.4221

>  <SCORE.INTER.norm>
-0.301741

>  <SCORE.INTRA>
-2.7461

>  <SCORE.INTRA.DIHEDRAL>
-5.25625

>  <SCORE.INTRA.DIHEDRAL.0>
10.7382

>  <SCORE.INTRA.POLAR>
0

>  <SCORE.INTRA.POLAR.0>
0

>  <SCORE.INTRA.REPUL>
0

>  <SCORE.INTRA.REPUL.0>
0

>  <SCORE.INTRA.SOLV>
-0.176697

>  <SCORE.INTRA.SOLV.lig_0>
-49.2501

>  <SCORE.INTRA.VDW>
-0.0296305

>  <SCORE.INTRA.VDW.0>
-1.75368

>  <SCORE.INTRA.norm>
-0.101708

>  <SCORE.RESTR>
0

>  <SCORE.RESTR.CAVITY>
0

>  <SCORE.RESTR.norm>
0

>  <SCORE.SYSTEM>
0

>  <SCORE.SYSTEM.CONST>
0

>  <SCORE.SYSTEM.DIHEDRAL>
0

>  <SCORE.SYSTEM.SOLV>
0

>  <SCORE.SYSTEM.norm>
0

>  <SCORE.heavy>
27

>  <SCORE.norm>
-0.403449

>  <RMSD>
8.864

$$$$
ligand
 OpenBabel11021811463D
libRbt.so/2013.1/901 2013/11/27
 27 29  0  0  0  0  0  0  0  0999 V2000
   32.2293   21.4945   79.4247 N   0  0  0  0  0  0  0  0  0  0  0  0
   32.3981   20.6759   78.2114 C   0  0  2  0  0  0  0  0  0  0  0  0
   31.7845   19.3066   78.4172 C   0  0  0  0  0  0  0  0  0  0  0  0
   32.1318   18.6099   79.3762 O   0  0  0  0  0  0  0  0  0  0  0  0
   33.8867   20.5125   77.9221 C   0  0  0  0  0  0  0  0  0  0  0  0
   34.0956   19.8268   76.5888 C   0  0  0  0  0  0  0  0  0  0  0  0
   35.8280   20.0200   76.1342 S   0  0  2  0  0  0  0  0  0  0  0  0
   35.7861   21.7637   75.6349 C   0  0  0  0  0  0  0  0  0  0  0  0
   35.8414   19.2056   74.5008 C   0  0  0  0  0  0  0  0  0  0  0  0
   36.1794   17.7294   74.6911 C   0  0  1  0  0  0  0  0  0  0  0  0
   35.7106   17.0323   73.5605 O   0  0  0  0  0  0  0  0  0  0  0  0
   37.6940   17.4998   74.7335 C   0  0  1  0  0  0  0  0  0  0  0  0
   38.4007   17.5619   75.9820 O   0  0  0  0  0  0  0  0  0  0  0  0
   37.8824   16.1731   73.9256 C   0  0  1  0  0  0  0  0  0  0  0  0
   38.7395   15.3017   74.6829 O   0  0  0  0  0  0  0  0  0  0  0  0
   36.4147   15.8016   73.5100 C   0  0  2  0  0  0  0  0  0  0  0  0
   30.8949   18.9236   77.6726 O   0  0  0  0  0  0  0  0  0  0  0  0
   36.4718   16.9190   68.4255 N   0  0  0  0  0  0  0  0  0  0  0  0
   36.6208   17.7496   69.4635 C   0  0  0  0  0  0  0  0  0  0  0  0
   36.5631   17.3131   70.7186 N   0  0  0  0  0  0  0  0  0  0  0  0
   36.3751   16.0102   70.9968 C   0  0  0  0  0  0  0  0  0  0  0  0
   36.2264   15.0837   69.9302 C   0  0  0  0  0  0  0  0  0  0  0  0
   36.2825   15.5973   68.6007 C   0  0  0  0  0  0  0  0  0  0  0  0
   36.1551   14.7591   67.5090 N   0  0  0  0  0  0  0  0  0  0  0  0
   36.0605   13.8596   70.4824 N   0  0  0  0  0  0  0  0  0  0  0  0
   36.0986   13.9668   71.7789 C   0  0  0  0  0  0  0  0  0  0  0  0
   36.2905   15.2762   72.1460 N   0  0  0  0  0  0  0  0  0  0  0  0
  2  1  1  1  0  0  0
  2  3  1  0  0  0  0
  2  5  1  0  0  0  0
  3  4  1  0  0  0  0
  3 17  1  0  0  0  0
  5  6  1  0  0  0  0
  7  6  1  1  0  0  0
  7  8  1  0  0  0  0
  7  9  1  0  0  0  0
 10  9  1  6  0  0  0
 10 11  1  0  0  0  0
 10 12  1  0  0  0  0
 11 16  1  0  0  0  0
 12 13  1  1  0  0  0
 12 14  1  0  0  0  0
 14 15  1  1  0  0  0
 14 16  1  0  0  0  0
 16 27  1  6  0  0  0
 18 19  2  0  0  0  0
 18 23  1  0  0  0  0
 19 20  1  0  0  0  0
 20 21  2  0  0  0  0
 21 22  1  0  0  0  0
 21 27  1  0  0  0  0
 22 23  2  0  0  0  0
 22 25  1  0  0  0  0
 23 24  1  0  0  0  0
 25 26  2  0  0  0  0
 26 27  1  0  0  0  0
M  END
>  <CHROM.1>
-54.96984284,-172.84797050,166.68328683,-75.08391152,-91.12277766,158.43105017
41.24275165,35.51720834,17.71692762,74.11689527,1.93841439,-0.19728853,1.12118781

>  <Name>
ligand

>  <RI>
0

>  <Rbt.Current_Directory>
/home/itssahil/PROJECTS/Mol_Feturizer/New_Systems/rnas/2QWY

>  <Rbt.Executable>
rbdock ($Id: //depot/dev/client3/rdock/2013.1/src/exe/rbdock.cxx#4 $)

>  <Rbt.Library>
libRbt.so (2013.1, Build901 2013/11/27)

>  <Rbt.Parameter_File>
/export/apps/rDock/src/rDock_2013.1_src/data/scripts/dock_solv.prm

>  <Rbt.Receptor>
prm/pocket_docking_7.prm

>  <SCORE>
-14.1498

>  <SCORE.INTER>
-11.1096

>  <SCORE.INTER.CONST>
1

>  <SCORE.INTER.POLAR>
0

>  <SCORE.INTER.ROT>
7

>  <SCORE.INTER.SOLV>
8.15517

>  <SCORE.INTER.VDW>
-18.3915

>  <SCORE.INTER.norm>
-0.411468

>  <SCORE.INTRA>
-3.04014

>  <SCORE.INTRA.DIHEDRAL>
-3.8923

>  <SCORE.INTRA.DIHEDRAL.0>
10.7382

>  <SCORE.INTRA.POLAR>
0

>  <SCORE.INTRA.POLAR.0>
0

>  <SCORE.INTRA.REPUL>
0

>  <SCORE.INTRA.REPUL.0>
0

>  <SCORE.INTRA.SOLV>
-1.12429

>  <SCORE.INTRA.SOLV.lig_0>
-49.2501

>  <SCORE.INTRA.VDW>
-0.531842

>  <SCORE.INTRA.VDW.0>
-1.75368

>  <SCORE.INTRA.norm>
-0.112598

>  <SCORE.RESTR>
0

>  <SCORE.RESTR.CAVITY>
0

>  <SCORE.RESTR.norm>
0

>  <SCORE.SYSTEM>
0

>  <SCORE.SYSTEM.CONST>
0

>  <SCORE.SYSTEM.DIHEDRAL>
0

>  <SCORE.SYSTEM.SOLV>
0

>  <SCORE.SYSTEM.norm>
0

>  <SCORE.heavy>
27

>  <SCORE.norm>
-0.524066

>  <RMSD>
8.868

$$$$
ligand
 OpenBabel11021811463D
libRbt.so/2013.1/901 2013/11/27
 27 29  0  0  0  0  0  0  0  0999 V2000
   25.2165   24.8503   77.8865 N   0  0  0  0  0  0  0  0  0  0  0  0
   26.0689   24.5646   76.7193 C   0  0  2  0  0  0  0  0  0  0  0  0
   25.6990   25.4769   75.5682 C   0  0  0  0  0  0  0  0  0  0  0  0
   24.5199   25.5828   75.2160 O   0  0  0  0  0  0  0  0  0  0  0  0
   25.8590   23.1163   76.2897 C   0  0  0  0  0  0  0  0  0  0  0  0
   26.5667   22.1737   77.2395 C   0  0  0  0  0  0  0  0  0  0  0  0
   26.2160   20.4885   76.7081 S   0  0  2  0  0  0  0  0  0  0  0  0
   24.6604   20.2372   77.6073 C   0  0  0  0  0  0  0  0  0  0  0  0
   27.3695   19.5528   77.7689 C   0  0  0  0  0  0  0  0  0  0  0  0
   28.7827   19.7081   77.2137 C   0  0  1  0  0  0  0  0  0  0  0  0
   29.2198   21.0137   77.5111 O   0  0  0  0  0  0  0  0  0  0  0  0
   29.7675   18.7619   77.9090 C   0  0  1  0  0  0  0  0  0  0  0  0
   29.9838   17.4381   77.3962 O   0  0  0  0  0  0  0  0  0  0  0  0
   31.0567   19.6342   78.0691 C   0  0  1  0  0  0  0  0  0  0  0  0
   32.1832   18.8606   77.6218 O   0  0  0  0  0  0  0  0  0  0  0  0
   30.6364   21.0056   77.4309 C   0  0  2  0  0  0  0  0  0  0  0  0
   26.5607   26.1605   75.0363 O   0  0  0  0  0  0  0  0  0  0  0  0
   34.8150   23.5787   79.1695 N   0  0  0  0  0  0  0  0  0  0  0  0
   34.7672   22.4219   78.4991 C   0  0  0  0  0  0  0  0  0  0  0  0
   33.6106   21.8752   78.1353 N   0  0  0  0  0  0  0  0  0  0  0  0
   32.4380   22.4762   78.4070 C   0  0  0  0  0  0  0  0  0  0  0  0
   32.4338   23.7143   79.1036 C   0  0  0  0  0  0  0  0  0  0  0  0
   33.6960   24.2579   79.4853 C   0  0  0  0  0  0  0  0  0  0  0  0
   33.7767   25.4628   80.1581 N   0  0  0  0  0  0  0  0  0  0  0  0
   31.1424   24.0954   79.2365 N   0  0  0  0  0  0  0  0  0  0  0  0
   30.3741   23.2029   78.6824 C   0  0  0  0  0  0  0  0  0  0  0  0
   31.1275   22.1823   78.1562 N   0  0  0  0  0  0  0  0  0  0  0  0
  2  1  1  1  0  0  0
  2  3  1  0  0  0  0
  2  5  1  0  0  0  0
  3  4  1  0  0  0  0
  3 17  1  0  0  0  0
  5  6  1  0  0  0  0
  7  6  1  1  0  0  0
  7  8  1  0  0  0  0
  7  9  1  0  0  0  0
 10  9  1  1  0  0  0
 10 11  1  0  0  0  0
 10 12  1  0  0  0  0
 11 16  1  0  0  0  0
 12 13  1  6  0  0  0
 12 14  1  0  0  0  0
 14 15  1  6  0  0  0
 14 16  1  0  0  0  0
 16 27  1  1  0  0  0
 18 19  2  0  0  0  0
 18 23  1  0  0  0  0
 19 20  1  0  0  0  0
 20 21  2  0  0  0  0
 21 22  1  0  0  0  0
 21 27  1  0  0  0  0
 22 23  2  0  0  0  0
 22 25  1  0  0  0  0
 23 24  1  0  0  0  0
 25 26  2  0  0  0  0
 26 27  1  0  0  0  0
M  END
>  <CHROM.1>
-50.60575320,-75.56857529,177.66682845,-86.97577468,-75.83961604,73.61819830
174.22523365,29.32228852,22.17097407,77.62104543,-3.03121420,0.30212970,3.13817025

>  <Name>
ligand

>  <RI>
0

>  <Rbt.Current_Directory>
/home/itssahil/PROJECTS/Mol_Feturizer/New_Systems/rnas/2QWY

>  <Rbt.Executable>
rbdock ($Id: //depot/dev/client3/rdock/2013.1/src/exe/rbdock.cxx#4 $)

>  <Rbt.Library>
libRbt.so (2013.1, Build901 2013/11/27)

>  <Rbt.Parameter_File>
/export/apps/rDock/src/rDock_2013.1_src/data/scripts/dock_solv.prm

>  <Rbt.Receptor>
prm/pocket_docking_8.prm

>  <SCORE>
-26.7159

>  <SCORE.INTER>
-23.494

>  <SCORE.INTER.CONST>
1

>  <SCORE.INTER.POLAR>
0

>  <SCORE.INTER.ROT>
7

>  <SCORE.INTER.SOLV>
19.7611

>  <SCORE.INTER.VDW>
-30.5164

>  <SCORE.INTER.norm>
-0.870149

>  <SCORE.INTRA>
-3.22191

>  <SCORE.INTRA.DIHEDRAL>
-4.86134

>  <SCORE.INTRA.DIHEDRAL.0>
10.7382

>  <SCORE.INTRA.POLAR>
0

>  <SCORE.INTRA.POLAR.0>
0

>  <SCORE.INTRA.REPUL>
0

>  <SCORE.INTRA.REPUL.0>
0

>  <SCORE.INTRA.SOLV>
-0.364738

>  <SCORE.INTRA.SOLV.lig_0>
-49.2501

>  <SCORE.INTRA.VDW>
-0.608873

>  <SCORE.INTRA.VDW.0>
-1.75368

>  <SCORE.INTRA.norm>
-0.11933

>  <SCORE.RESTR>
0

>  <SCORE.RESTR.CAVITY>
0

>  <SCORE.RESTR.norm>
0

>  <SCORE.SYSTEM>
0

>  <SCORE.SYSTEM.CONST>
0

>  <SCORE.SYSTEM.DIHEDRAL>
0

>  <SCORE.SYSTEM.SOLV>
0

>  <SCORE.SYSTEM.norm>
0

>  <SCORE.heavy>
27

>  <SCORE.norm>
-0.989479

>  <RMSD>
8.886

$$$$
ligand
 OpenBabel11021811463D
libRbt.so/2013.1/901 2013/11/27
 27 29  0  0  0  0  0  0  0  0999 V2000
   36.2084   23.3784   76.2787 N   0  0  0  0  0  0  0  0  0  0  0  0
   37.3782   22.6617   76.8161 C   0  0  2  0  0  0  0  0  0  0  0  0
   38.6197   23.0272   76.0293 C   0  0  0  0  0  0  0  0  0  0  0  0
   38.5309   23.3196   74.8325 O   0  0  0  0  0  0  0  0  0  0  0  0
   37.1417   21.1596   76.6975 C   0  0  0  0  0  0  0  0  0  0  0  0
   38.0578   20.4030   77.6354 C   0  0  0  0  0  0  0  0  0  0  0  0
   37.8475   18.6433   77.3120 S   0  0  2  0  0  0  0  0  0  0  0  0
   38.7009   17.9932   78.7751 C   0  0  0  0  0  0  0  0  0  0  0  0
   39.1255   18.3794   76.0358 C   0  0  0  0  0  0  0  0  0  0  0  0
   39.2007   16.8886   75.7174 C   0  0  1  0  0  0  0  0  0  0  0  0
   38.2637   16.6189   74.7008 O   0  0  0  0  0  0  0  0  0  0  0  0
   40.5695   16.5036   75.1461 C   0  0  1  0  0  0  0  0  0  0  0  0
   41.6360   16.1116   76.0243 O   0  0  0  0  0  0  0  0  0  0  0  0
   40.2168   15.4723   74.0233 C   0  0  1  0  0  0  0  0  0  0  0  0
   41.0764   14.3295   74.1744 O   0  0  0  0  0  0  0  0  0  0  0  0
   38.6503   15.3963   74.0935 C   0  0  2  0  0  0  0  0  0  0  0  0
   39.6980   23.1002   76.5991 O   0  0  0  0  0  0  0  0  0  0  0  0
   34.7398   13.3572   71.3269 N   0  0  0  0  0  0  0  0  0  0  0  0
   35.0482   13.1509   72.6122 C   0  0  0  0  0  0  0  0  0  0  0  0
   36.1000   13.7358   73.1785 N   0  0  0  0  0  0  0  0  0  0  0  0
   36.8864   14.5798   72.4862 C   0  0  0  0  0  0  0  0  0  0  0  0
   36.5936   14.8451   71.1216 C   0  0  0  0  0  0  0  0  0  0  0  0
   35.4638   14.1868   70.5518 C   0  0  0  0  0  0  0  0  0  0  0  0
   35.1079   14.3992   69.2331 N   0  0  0  0  0  0  0  0  0  0  0  0
   37.5238   15.7201   70.6746 N   0  0  0  0  0  0  0  0  0  0  0  0
   38.3438   16.0050   71.6443 C   0  0  0  0  0  0  0  0  0  0  0  0
   37.9923   15.3247   72.7844 N   0  0  0  0  0  0  0  0  0  0  0  0
  2  1  1  6  0  0  0
  2  3  1  0  0  0  0
  2  5  1  0  0  0  0
  3  4  1  0  0  0  0
  3 17  1  0  0  0  0
  5  6  1  0  0  0  0
  7  6  1  1  0  0  0
  7  8  1  0  0  0  0
  7  9  1  0  0  0  0
 10  9  1  6  0  0  0
 10 11  1  0  0  0  0
 10 12  1  0  0  0  0
 11 16  1  0  0  0  0
 12 13  1  1  0  0  0
 12 14  1  0  0  0  0
 14 15  1  1  0  0  0
 14 16  1  0  0  0  0
 16 27  1  6  0  0  0
 18 19  2  0  0  0  0
 18 23  1  0  0  0  0
 19 20  1  0  0  0  0
 20 21  2  0  0  0  0
 21 22  1  0  0  0  0
 21 27  1  0  0  0  0
 22 23  2  0  0  0  0
 22 25  1  0  0  0  0
 23 24  1  0  0  0  0
 25 26  2  0  0  0  0
 26 27  1  0  0  0  0
M  END
>  <CHROM.1>
-30.74714994,-160.62809355,-174.01182376,-167.11444166,174.53324266,88.00201279
-102.41705400,38.01673400,17.49693790,74.53783165,1.33462669,-0.71361854
0.44215717

>  <Name>
ligand

>  <RI>
0

>  <Rbt.Current_Directory>
/home/itssahil/PROJECTS/Mol_Feturizer/New_Systems/rnas/2QWY

>  <Rbt.Executable>
rbdock ($Id: //depot/dev/client3/rdock/2013.1/src/exe/rbdock.cxx#4 $)

>  <Rbt.Library>
libRbt.so (2013.1, Build901 2013/11/27)

>  <Rbt.Parameter_File>
/export/apps/rDock/src/rDock_2013.1_src/data/scripts/dock_solv.prm

>  <Rbt.Receptor>
prm/pocket_docking_8.prm

>  <SCORE>
-9.93463

>  <SCORE.INTER>
-7.42885

>  <SCORE.INTER.CONST>
1

>  <SCORE.INTER.POLAR>
0

>  <SCORE.INTER.ROT>
7

>  <SCORE.INTER.SOLV>
7.84298

>  <SCORE.INTER.VDW>
-15.8336

>  <SCORE.INTER.norm>
-0.275143

>  <SCORE.INTRA>
-2.50578

>  <SCORE.INTRA.DIHEDRAL>
-2.25349

>  <SCORE.INTRA.DIHEDRAL.0>
10.7382

>  <SCORE.INTRA.POLAR>
0

>  <SCORE.INTRA.POLAR.0>
0

>  <SCORE.INTRA.REPUL>
0

>  <SCORE.INTRA.REPUL.0>
0

>  <SCORE.INTRA.SOLV>
-1.2417

>  <SCORE.INTRA.SOLV.lig_0>
-49.2501

>  <SCORE.INTRA.VDW>
-0.758188

>  <SCORE.INTRA.VDW.0>
-1.75368

>  <SCORE.INTRA.norm>
-0.0928068

>  <SCORE.RESTR>
0

>  <SCORE.RESTR.CAVITY>
0

>  <SCORE.RESTR.norm>
0

>  <SCORE.SYSTEM>
0

>  <SCORE.SYSTEM.CONST>
0

>  <SCORE.SYSTEM.DIHEDRAL>
0

>  <SCORE.SYSTEM.SOLV>
0

>  <SCORE.SYSTEM.norm>
0

>  <SCORE.heavy>
27

>  <SCORE.norm>
-0.367949

>  <RMSD>
8.894

$$$$
ligand
 OpenBabel11021811463D
libRbt.so/2013.1/901 2013/11/27
 27 29  0  0  0  0  0  0  0  0999 V2000
   38.4146   16.2916   77.0278 N   0  0  0  0  0  0  0  0  0  0  0  0
   39.0065   17.5350   77.5517 C   0  0  2  0  0  0  0  0  0  0  0  0
   38.8836   17.5750   79.0608 C   0  0  0  0  0  0  0  0  0  0  0  0
   38.7861   16.5240   79.7025 O   0  0  0  0  0  0  0  0  0  0  0  0
   38.2626   18.7292   76.9630 C   0  0  0  0  0  0  0  0  0  0  0  0
   36.8075   18.7053   77.3796 C   0  0  0  0  0  0  0  0  0  0  0  0
   35.9549   20.0144   76.4825 S   0  0  2  0  0  0  0  0  0  0  0  0
   34.4478   20.0979   77.4890 C   0  0  0  0  0  0  0  0  0  0  0  0
   35.3391   19.0868   75.0361 C   0  0  0  0  0  0  0  0  0  0  0  0
   36.5035   18.8360   74.0818 C   0  0  1  0  0  0  0  0  0  0  0  0
   36.2774   17.6007   73.4438 O   0  0  0  0  0  0  0  0  0  0  0  0
   36.5539   19.8865   72.9672 C   0  0  1  0  0  0  0  0  0  0  0  0
   37.2968   21.1017   73.1510 O   0  0  0  0  0  0  0  0  0  0  0  0
   36.9409   19.0532   71.7007 C   0  0  1  0  0  0  0  0  0  0  0  0
   38.0073   19.7363   71.0198 O   0  0  0  0  0  0  0  0  0  0  0  0
   37.0646   17.5928   72.2634 C   0  0  2  0  0  0  0  0  0  0  0  0
   38.9524   18.6454   79.6458 O   0  0  0  0  0  0  0  0  0  0  0  0
   35.9187   16.2692   67.3605 N   0  0  0  0  0  0  0  0  0  0  0  0
   36.4370   17.4155   67.8153 C   0  0  0  0  0  0  0  0  0  0  0  0
   36.6584   17.6137   69.1118 N   0  0  0  0  0  0  0  0  0  0  0  0
   36.3908   16.6579   70.0200 C   0  0  0  0  0  0  0  0  0  0  0  0
   35.8534   15.4159   69.5877 C   0  0  0  0  0  0  0  0  0  0  0  0
   35.6205   15.2513   68.1901 C   0  0  0  0  0  0  0  0  0  0  0  0
   35.1078   14.0693   67.6894 N   0  0  0  0  0  0  0  0  0  0  0  0
   35.6889   14.6454   70.6876 N   0  0  0  0  0  0  0  0  0  0  0  0
   36.0799   15.3089   71.7368 C   0  0  0  0  0  0  0  0  0  0  0  0
   36.5218   16.5583   71.3763 N   0  0  0  0  0  0  0  0  0  0  0  0
  2  1  1  6  0  0  0
  2  3  1  0  0  0  0
  2  5  1  0  0  0  0
  3  4  1  0  0  0  0
  3 17  1  0  0  0  0
  5  6  1  0  0  0  0
  7  6  1  1  0  0  0
  7  8  1  0  0  0  0
  7  9  1  0  0  0  0
 10  9  1  1  0  0  0
 10 11  1  0  0  0  0
 10 12  1  0  0  0  0
 11 16  1  0  0  0  0
 12 13  1  1  0  0  0
 12 14  1  0  0  0  0
 14 15  1  1  0  0  0
 14 16  1  0  0  0  0
 16 27  1  6  0  0  0
 18 19  2  0  0  0  0
 18 23  1  0  0  0  0
 19 20  1  0  0  0  0
 20 21  2  0  0  0  0
 21 22  1  0  0  0  0
 21 27  1  0  0  0  0
 22 23  2  0  0  0  0
 22 25  1  0  0  0  0
 23 24  1  0  0  0  0
 25 26  2  0  0  0  0
 26 27  1  0  0  0  0
M  END
>  <CHROM.1>
24.78572275,61.93373824,-172.87481128,-163.95643873,-75.77902332,147.51325177
140.38172857,36.79083421,17.81191579,73.55532729,-0.92167820,1.28535051,-2.45019106

>  <Name>
ligand

>  <RI>
0

>  <Rbt.Current_Directory>
/home/itssahil/PROJECTS/Mol_Feturizer/New_Systems/rnas/2QWY

>  <Rbt.Executable>
rbdock ($Id: //depot/dev/client3/rdock/2013.1/src/exe/rbdock.cxx#4 $)

>  <Rbt.Library>
libRbt.so (2013.1, Build901 2013/11/27)

>  <Rbt.Parameter_File>
/export/apps/rDock/src/rDock_2013.1_src/data/scripts/dock_solv.prm

>  <Rbt.Receptor>
prm/pocket_docking_8.prm

>  <SCORE>
-11.6373

>  <SCORE.INTER>
-10.5813

>  <SCORE.INTER.CONST>
1

>  <SCORE.INTER.POLAR>
0

>  <SCORE.INTER.ROT>
7

>  <SCORE.INTER.SOLV>
10.5976

>  <SCORE.INTER.VDW>
-18.8534

>  <SCORE.INTER.norm>
-0.391901

>  <SCORE.INTRA>
-1.05602

>  <SCORE.INTRA.DIHEDRAL>
-2.89193

>  <SCORE.INTRA.DIHEDRAL.0>
10.7382

>  <SCORE.INTRA.POLAR>
0

>  <SCORE.INTRA.POLAR.0>
0

>  <SCORE.INTRA.REPUL>
0

>  <SCORE.INTRA.REPUL.0>
0

>  <SCORE.INTRA.SOLV>
0.0174193

>  <SCORE.INTRA.SOLV.lig_0>
-49.2501

>  <SCORE.INTRA.VDW>
0.381238

>  <SCORE.INTRA.VDW.0>
-1.75368

>  <SCORE.INTRA.norm>
-0.0391118

>  <SCORE.RESTR>
0

>  <SCORE.RESTR.CAVITY>
0

>  <SCORE.RESTR.norm>
0

>  <SCORE.SYSTEM>
0

>  <SCORE.SYSTEM.CONST>
0

>  <SCORE.SYSTEM.DIHEDRAL>
0

>  <SCORE.SYSTEM.SOLV>
0

>  <SCORE.SYSTEM.norm>
0

>  <SCORE.heavy>
27

>  <SCORE.norm>
-0.431013

>  <RMSD>
8.905

$$$$
ligand
 OpenBabel11021811463D
libRbt.so/2013.1/901 2013/11/27
 27 29  0  0  0  0  0  0  0  0999 V2000
   32.4940   20.7247   79.4777 N   0  0  0  0  0  0  0  0  0  0  0  0
   33.6313   20.0060   80.0783 C   0  0  2  0  0  0  0  0  0  0  0  0
   34.0929   20.7172   81.3333 C   0  0  0  0  0  0  0  0  0  0  0  0
   34.3439   21.9263   81.3035 O   0  0  0  0  0  0  0  0  0  0  0  0
   34.7829   19.9690   79.0788 C   0  0  0  0  0  0  0  0  0  0  0  0
   35.7959   18.9167   79.4759 C   0  0  0  0  0  0  0  0  0  0  0  0
   36.9280   18.6908   78.0929 S   0  0  2  0  0  0  0  0  0  0  0  0
   37.6926   20.3361   78.0947 C   0  0  0  0  0  0  0  0  0  0  0  0
   35.7788   18.8586   76.6848 C   0  0  0  0  0  0  0  0  0  0  0  0
   36.5899   19.1108   75.4167 C   0  0  1  0  0  0  0  0  0  0  0  0
   36.6761   17.8936   74.7130 O   0  0  0  0  0  0  0  0  0  0  0  0
   35.8787   20.0932   74.4800 C   0  0  1  0  0  0  0  0  0  0  0  0
   36.1073   21.5055   74.6036 O   0  0  0  0  0  0  0  0  0  0  0  0
   36.1451   19.4962   73.0584 C   0  0  1  0  0  0  0  0  0  0  0  0
   36.5928   20.5591   72.1995 O   0  0  0  0  0  0  0  0  0  0  0  0
   36.9954   18.2133   73.3680 C   0  0  2  0  0  0  0  0  0  0  0  0
   34.1480   20.1063   82.3900 O   0  0  0  0  0  0  0  0  0  0  0  0
   36.2564   16.4027   68.5431 N   0  0  0  0  0  0  0  0  0  0  0  0
   36.5758   17.6434   68.9284 C   0  0  0  0  0  0  0  0  0  0  0  0
   36.7137   17.9599   70.2129 N   0  0  0  0  0  0  0  0  0  0  0  0
   36.5598   17.0371   71.1798 C   0  0  0  0  0  0  0  0  0  0  0  0
   36.2352   15.7008   70.8234 C   0  0  0  0  0  0  0  0  0  0  0  0
   36.0847   15.4089   69.4354 C   0  0  0  0  0  0  0  0  0  0  0  0
   35.7780   14.1309   69.0071 N   0  0  0  0  0  0  0  0  0  0  0  0
   36.1473   14.9896   71.9711 N   0  0  0  0  0  0  0  0  0  0  0  0
   36.3915   15.7745   72.9801 C   0  0  0  0  0  0  0  0  0  0  0  0
   36.6515   17.0501   72.5430 N   0  0  0  0  0  0  0  0  0  0  0  0
  2  1  1  6  0  0  0
  2  3  1  0  0  0  0
  2  5  1  0  0  0  0
  3  4  1  0  0  0  0
  3 17  1  0  0  0  0
  5  6  1  0  0  0  0
  7  6  1  1  0  0  0
  7  8  1  0  0  0  0
  7  9  1  0  0  0  0
 10  9  1  1  0  0  0
 10 11  1  0  0  0  0
 10 12  1  0  0  0  0
 11 16  1  0  0  0  0
 12 13  1  6  0  0  0
 12 14  1  0  0  0  0
 14 15  1  6  0  0  0
 14 16  1  0  0  0  0
 16 27  1  6  0  0  0
 18 19  2  0  0  0  0
 18 23  1  0  0  0  0
 19 20  1  0  0  0  0
 20 21  2  0  0  0  0
 21 22  1  0  0  0  0
 21 27  1  0  0  0  0
 22 23  2  0  0  0  0
 22 25  1  0  0  0  0
 23 24  1  0  0  0  0
 25 26  2  0  0  0  0
 26 27  1  0  0  0  0
M  END
>  <CHROM.1>
-51.74516808,-163.36378593,168.35226041,65.23508262,163.35857238,100.82630026
166.47450713,35.89753555,18.58562002,75.08031012,2.35860862,1.35669952,0.42148720

>  <Name>
ligand

>  <RI>
0

>  <Rbt.Current_Directory>
/home/itssahil/PROJECTS/Mol_Feturizer/New_Systems/rnas/2QWY

>  <Rbt.Executable>
rbdock ($Id: //depot/dev/client3/rdock/2013.1/src/exe/rbdock.cxx#4 $)

>  <Rbt.Library>
libRbt.so (2013.1, Build901 2013/11/27)

>  <Rbt.Parameter_File>
/export/apps/rDock/src/rDock_2013.1_src/data/scripts/dock_solv.prm

>  <Rbt.Receptor>
prm/pocket_docking_3.prm

>  <SCORE>
-3.36214

>  <SCORE.INTER>
-6.19609

>  <SCORE.INTER.CONST>
1

>  <SCORE.INTER.POLAR>
0

>  <SCORE.INTER.ROT>
7

>  <SCORE.INTER.SOLV>
8.61684

>  <SCORE.INTER.VDW>
-15.2697

>  <SCORE.INTER.norm>
-0.229485

>  <SCORE.INTRA>
1.77152

>  <SCORE.INTRA.DIHEDRAL>
-1.24702

>  <SCORE.INTRA.DIHEDRAL.0>
10.7382

>  <SCORE.INTRA.POLAR>
0

>  <SCORE.INTRA.POLAR.0>
0

>  <SCORE.INTRA.REPUL>
0

>  <SCORE.INTRA.REPUL.0>
0

>  <SCORE.INTRA.SOLV>
-1.06976

>  <SCORE.INTRA.SOLV.lig_0>
-49.2501

>  <SCORE.INTRA.VDW>
2.9299

>  <SCORE.INTRA.VDW.0>
-1.75368

>  <SCORE.INTRA.norm>
0.0656117

>  <SCORE.RESTR>
1.06243

>  <SCORE.RESTR.CAVITY>
1.06243

>  <SCORE.RESTR.norm>
0.0393493

>  <SCORE.SYSTEM>
0

>  <SCORE.SYSTEM.CONST>
0

>  <SCORE.SYSTEM.DIHEDRAL>
0

>  <SCORE.SYSTEM.SOLV>
0

>  <SCORE.SYSTEM.norm>
0

>  <SCORE.heavy>
27

>  <SCORE.norm>
-0.124524

>  <RMSD>
8.912

$$$$
ligand
 OpenBabel11021811463D
libRbt.so/2013.1/901 2013/11/27
 27 29  0  0  0  0  0  0  0  0999 V2000
   40.6340   18.9390   79.0540 N   0  0  0  0  0  0  0  0  0  0  0  0
   39.1699   18.8288   78.9313 C   0  0  2  0  0  0  0  0  0  0  0  0
   38.5152   19.0631   80.2768 C   0  0  0  0  0  0  0  0  0  0  0  0
   39.2090   19.3070   81.2692 O   0  0  0  0  0  0  0  0  0  0  0  0
   38.8134   17.4279   78.4449 C   0  0  0  0  0  0  0  0  0  0  0  0
   39.4392   17.1608   77.0927 C   0  0  0  0  0  0  0  0  0  0  0  0
   38.9003   15.5307   76.5473 S   0  0  2  0  0  0  0  0  0  0  0  0
   39.8190   15.4481   74.9851 C   0  0  0  0  0  0  0  0  0  0  0  0
   37.2266   15.9173   75.9300 C   0  0  0  0  0  0  0  0  0  0  0  0
   37.3224   17.0824   74.9487 C   0  0  1  0  0  0  0  0  0  0  0  0
   37.3894   16.5444   73.6486 O   0  0  0  0  0  0  0  0  0  0  0  0
   36.0615   17.9526   74.9836 C   0  0  1  0  0  0  0  0  0  0  0  0
   35.9703   19.0583   75.8954 O   0  0  0  0  0  0  0  0  0  0  0  0
   35.8244   18.3079   73.4783 C   0  0  1  0  0  0  0  0  0  0  0  0
   35.5842   19.7223   73.3812 O   0  0  0  0  0  0  0  0  0  0  0  0
   37.0084   17.5761   72.7523 C   0  0  2  0  0  0  0  0  0  0  0  0
   37.2966   19.0798   80.3626 O   0  0  0  0  0  0  0  0  0  0  0  0
   35.1709   13.2939   70.4306 N   0  0  0  0  0  0  0  0  0  0  0  0
   35.4084   13.5009   71.7307 C   0  0  0  0  0  0  0  0  0  0  0  0
   35.9008   14.6543   72.1737 N   0  0  0  0  0  0  0  0  0  0  0  0
   36.1596   15.6720   71.3327 C   0  0  0  0  0  0  0  0  0  0  0  0
   35.9107   15.5094   69.9435 C   0  0  0  0  0  0  0  0  0  0  0  0
   35.3944   14.2520   69.5111 C   0  0  0  0  0  0  0  0  0  0  0  0
   35.1176   14.0182   68.1771 N   0  0  0  0  0  0  0  0  0  0  0  0
   36.2466   16.6713   69.3370 N   0  0  0  0  0  0  0  0  0  0  0  0
   36.6705   17.5144   70.2333 C   0  0  0  0  0  0  0  0  0  0  0  0
   36.6363   16.9437   71.4820 N   0  0  0  0  0  0  0  0  0  0  0  0
  2  1  1  1  0  0  0
  2  3  1  0  0  0  0
  2  5  1  0  0  0  0
  3  4  1  0  0  0  0
  3 17  1  0  0  0  0
  5  6  1  0  0  0  0
  7  6  1  1  0  0  0
  7  8  1  0  0  0  0
  7  9  1  0  0  0  0
 10  9  1  1  0  0  0
 10 11  1  0  0  0  0
 10 12  1  0  0  0  0
 11 16  1  0  0  0  0
 12 13  1  1  0  0  0
 12 14  1  0  0  0  0
 14 15  1  1  0  0  0
 14 16  1  0  0  0  0
 16 27  1  6  0  0  0
 18 19  2  0  0  0  0
 18 23  1  0  0  0  0
 19 20  1  0  0  0  0
 20 21  2  0  0  0  0
 21 22  1  0  0  0  0
 21 27  1  0  0  0  0
 22 23  2  0  0  0  0
 22 25  1  0  0  0  0
 23 24  1  0  0  0  0
 25 26  2  0  0  0  0
 26 27  1  0  0  0  0
M  END
>  <CHROM.1>
0.13271534,-60.33638711,-176.92524393,-178.01952023,51.88054200,95.70382056
26.82454286,37.25332769,16.84922084,74.53741925,-0.97421823,0.99132443,-2.43061964

>  <Name>
ligand

>  <RI>
0

>  <Rbt.Current_Directory>
/home/itssahil/PROJECTS/Mol_Feturizer/New_Systems/rnas/2QWY

>  <Rbt.Executable>
rbdock ($Id: //depot/dev/client3/rdock/2013.1/src/exe/rbdock.cxx#4 $)

>  <Rbt.Library>
libRbt.so (2013.1, Build901 2013/11/27)

>  <Rbt.Parameter_File>
/export/apps/rDock/src/rDock_2013.1_src/data/scripts/dock_solv.prm

>  <Rbt.Receptor>
prm/pocket_docking_8.prm

>  <SCORE>
-15.6605

>  <SCORE.INTER>
-14.5957

>  <SCORE.INTER.CONST>
1

>  <SCORE.INTER.POLAR>
0

>  <SCORE.INTER.ROT>
7

>  <SCORE.INTER.SOLV>
5.8729

>  <SCORE.INTER.VDW>
-19.9547

>  <SCORE.INTER.norm>
-0.54058

>  <SCORE.INTRA>
-1.06486

>  <SCORE.INTRA.DIHEDRAL>
-3.79108

>  <SCORE.INTRA.DIHEDRAL.0>
10.7382

>  <SCORE.INTRA.POLAR>
0

>  <SCORE.INTRA.POLAR.0>
0

>  <SCORE.INTRA.REPUL>
0

>  <SCORE.INTRA.REPUL.0>
0

>  <SCORE.INTRA.SOLV>
-0.189578

>  <SCORE.INTRA.SOLV.lig_0>
-49.2501

>  <SCORE.INTRA.VDW>
0.925466

>  <SCORE.INTRA.VDW.0>
-1.75368

>  <SCORE.INTRA.norm>
-0.0394393

>  <SCORE.RESTR>
0

>  <SCORE.RESTR.CAVITY>
0

>  <SCORE.RESTR.norm>
0

>  <SCORE.SYSTEM>
0

>  <SCORE.SYSTEM.CONST>
0

>  <SCORE.SYSTEM.DIHEDRAL>
0

>  <SCORE.SYSTEM.SOLV>
0

>  <SCORE.SYSTEM.norm>
0

>  <SCORE.heavy>
27

>  <SCORE.norm>
-0.58002

>  <RMSD>
8.915

$$$$
ligand
 OpenBabel11021811463D
libRbt.so/2013.1/901 2013/11/27
 27 29  0  0  0  0  0  0  0  0999 V2000
   22.8678   22.6930   74.5579 N   0  0  0  0  0  0  0  0  0  0  0  0
   23.8066   21.9380   75.4060 C   0  0  2  0  0  0  0  0  0  0  0  0
   25.0900   21.6667   74.6489 C   0  0  0  0  0  0  0  0  0  0  0  0
   25.0924   20.8826   73.6944 O   0  0  0  0  0  0  0  0  0  0  0  0
   23.1703   20.6071   75.7936 C   0  0  0  0  0  0  0  0  0  0  0  0
   23.7376   20.1105   77.1062 C   0  0  0  0  0  0  0  0  0  0  0  0
   25.3543   19.3899   76.7712 S   0  0  2  0  0  0  0  0  0  0  0  0
   25.3587   18.1170   78.0640 C   0  0  0  0  0  0  0  0  0  0  0  0
   26.4454   20.6405   77.5309 C   0  0  0  0  0  0  0  0  0  0  0  0
   27.8749   20.3997   77.0533 C   0  0  1  0  0  0  0  0  0  0  0  0
   28.6345   21.5402   77.3796 O   0  0  0  0  0  0  0  0  0  0  0  0
   28.5267   19.2287   77.7964 C   0  0  1  0  0  0  0  0  0  0  0  0
   28.4015   17.8907   77.2902 O   0  0  0  0  0  0  0  0  0  0  0  0
   29.9942   19.7190   78.0297 C   0  0  1  0  0  0  0  0  0  0  0  0
   30.8897   18.6636   77.6402 O   0  0  0  0  0  0  0  0  0  0  0  0
   29.9975   21.1463   77.3759 C   0  0  2  0  0  0  0  0  0  0  0  0
   26.1062   22.2791   74.9405 O   0  0  0  0  0  0  0  0  0  0  0  0
   34.6798   22.6727   79.0644 N   0  0  0  0  0  0  0  0  0  0  0  0
   34.3647   21.5880   78.3474 C   0  0  0  0  0  0  0  0  0  0  0  0
   33.1077   21.3211   78.0043 N   0  0  0  0  0  0  0  0  0  0  0  0
   32.1006   22.1455   78.3454 C   0  0  0  0  0  0  0  0  0  0  0  0
   32.3833   23.3194   79.0939 C   0  0  0  0  0  0  0  0  0  0  0  0
   33.7432   23.5597   79.4508 C   0  0  0  0  0  0  0  0  0  0  0  0
   34.1009   24.6841   80.1710 N   0  0  0  0  0  0  0  0  0  0  0  0
   31.2090   23.9616   79.2915 N   0  0  0  0  0  0  0  0  0  0  0  0
   30.2509   23.2835   78.7291 C   0  0  0  0  0  0  0  0  0  0  0  0
   30.7511   22.1526   78.1318 N   0  0  0  0  0  0  0  0  0  0  0  0
  2  1  1  6  0  0  0
  2  3  1  0  0  0  0
  2  5  1  0  0  0  0
  3  4  1  0  0  0  0
  3 17  1  0  0  0  0
  5  6  1  0  0  0  0
  7  6  1  1  0  0  0
  7  8  1  0  0  0  0
  7  9  1  0  0  0  0
 10  9  1  1  0  0  0
 10 11  1  0  0  0  0
 10 12  1  0  0  0  0
 11 16  1  0  0  0  0
 12 13  1  6  0  0  0
 12 14  1  0  0  0  0
 14 15  1  6  0  0  0
 14 16  1  0  0  0  0
 16 27  1  1  0  0  0
 18 19  2  0  0  0  0
 18 23  1  0  0  0  0
 19 20  1  0  0  0  0
 20 21  2  0  0  0  0
 21 22  1  0  0  0  0
 21 27  1  0  0  0  0
 22 23  2  0  0  0  0
 22 25  1  0  0  0  0
 23 24  1  0  0  0  0
 25 26  2  0  0  0  0
 26 27  1  0  0  0  0
M  END
>  <CHROM.1>
-69.02772574,-153.40458143,-78.35451481,-148.55653123,-165.85580520,166.11967150
-179.13974175,28.55404942,21.16495803,77.32021438,2.97464451,0.38021690,2.99203841

>  <Name>
ligand

>  <RI>
0

>  <Rbt.Current_Directory>
/home/itssahil/PROJECTS/Mol_Feturizer/New_Systems/rnas/2QWY

>  <Rbt.Executable>
rbdock ($Id: //depot/dev/client3/rdock/2013.1/src/exe/rbdock.cxx#4 $)

>  <Rbt.Library>
libRbt.so (2013.1, Build901 2013/11/27)

>  <Rbt.Parameter_File>
/export/apps/rDock/src/rDock_2013.1_src/data/scripts/dock_solv.prm

>  <Rbt.Receptor>
prm/pocket_docking_6.prm

>  <SCORE>
-24.741

>  <SCORE.INTER>
-23.433

>  <SCORE.INTER.CONST>
1

>  <SCORE.INTER.POLAR>
0

>  <SCORE.INTER.ROT>
7

>  <SCORE.INTER.SOLV>
12.4405

>  <SCORE.INTER.VDW>
-28.0355

>  <SCORE.INTER.norm>
-0.867888

>  <SCORE.INTRA>
-1.30802

>  <SCORE.INTRA.DIHEDRAL>
1.30529

>  <SCORE.INTRA.DIHEDRAL.0>
10.7382

>  <SCORE.INTRA.POLAR>
0

>  <SCORE.INTRA.POLAR.0>
0

>  <SCORE.INTRA.REPUL>
0

>  <SCORE.INTRA.REPUL.0>
0

>  <SCORE.INTRA.SOLV>
-0.655486

>  <SCORE.INTRA.SOLV.lig_0>
-49.2501

>  <SCORE.INTRA.VDW>
-1.63293

>  <SCORE.INTRA.VDW.0>
-1.75368

>  <SCORE.INTRA.norm>
-0.0484454

>  <SCORE.RESTR>
0

>  <SCORE.RESTR.CAVITY>
0

>  <SCORE.RESTR.norm>
0

>  <SCORE.SYSTEM>
0

>  <SCORE.SYSTEM.CONST>
0

>  <SCORE.SYSTEM.DIHEDRAL>
0

>  <SCORE.SYSTEM.SOLV>
0

>  <SCORE.SYSTEM.norm>
0

>  <SCORE.heavy>
27

>  <SCORE.norm>
-0.916333

>  <RMSD>
8.953

$$$$
ligand
 OpenBabel11021811463D
libRbt.so/2013.1/901 2013/11/27
 27 29  0  0  0  0  0  0  0  0999 V2000
   35.7401   22.4570   82.0627 N   0  0  0  0  0  0  0  0  0  0  0  0
   35.8084   21.6476   80.8335 C   0  0  2  0  0  0  0  0  0  0  0  0
   35.4875   20.2004   81.1442 C   0  0  0  0  0  0  0  0  0  0  0  0
   34.6478   19.5937   80.4713 O   0  0  0  0  0  0  0  0  0  0  0  0
   37.2191   21.7291   80.2593 C   0  0  0  0  0  0  0  0  0  0  0  0
   37.2332   21.2621   78.8195 C   0  0  0  0  0  0  0  0  0  0  0  0
   37.1665   19.4618   78.8226 S   0  0  2  0  0  0  0  0  0  0  0  0
   38.8715   19.1265   79.3442 C   0  0  0  0  0  0  0  0  0  0  0  0
   37.2905   19.1162   77.0347 C   0  0  0  0  0  0  0  0  0  0  0  0
   37.1368   17.6138   76.8134 C   0  0  1  0  0  0  0  0  0  0  0  0
   36.7787   17.4127   75.4660 O   0  0  0  0  0  0  0  0  0  0  0  0
   38.4653   16.8767   77.0142 C   0  0  1  0  0  0  0  0  0  0  0  0
   38.8343   16.3913   78.3143 O   0  0  0  0  0  0  0  0  0  0  0  0
   38.4585   15.8012   75.8777 C   0  0  1  0  0  0  0  0  0  0  0  0
   38.8205   14.5343   76.4535 O   0  0  0  0  0  0  0  0  0  0  0  0
   37.0931   16.0658   75.1495 C   0  0  2  0  0  0  0  0  0  0  0  0
   36.1122   19.6152   82.0160 O   0  0  0  0  0  0  0  0  0  0  0  0
   35.4980   13.4702   70.9279 N   0  0  0  0  0  0  0  0  0  0  0  0
   35.2046   13.2349   72.2117 C   0  0  0  0  0  0  0  0  0  0  0  0
   35.7090   13.9823   73.1896 N   0  0  0  0  0  0  0  0  0  0  0  0
   36.5193   15.0234   72.9257 C   0  0  0  0  0  0  0  0  0  0  0  0
   36.8501   15.3256   71.5776 C   0  0  0  0  0  0  0  0  0  0  0  0
   36.2969   14.4905   70.5621 C   0  0  0  0  0  0  0  0  0  0  0  0
   36.5640   14.7243   69.2261 N   0  0  0  0  0  0  0  0  0  0  0  0
   37.6615   16.4081   71.5966 N   0  0  0  0  0  0  0  0  0  0  0  0
   37.8449   16.7833   72.8293 C   0  0  0  0  0  0  0  0  0  0  0  0
   37.1602   15.9587   73.6880 N   0  0  0  0  0  0  0  0  0  0  0  0
  2  1  1  1  0  0  0
  2  3  1  0  0  0  0
  2  5  1  0  0  0  0
  3  4  1  0  0  0  0
  3 17  1  0  0  0  0
  5  6  1  0  0  0  0
  7  6  1  6  0  0  0
  7  8  1  0  0  0  0
  7  9  1  0  0  0  0
 10  9  1  6  0  0  0
 10 11  1  0  0  0  0
 10 12  1  0  0  0  0
 11 16  1  0  0  0  0
 12 13  1  1  0  0  0
 12 14  1  0  0  0  0
 14 15  1  1  0  0  0
 14 16  1  0  0  0  0
 16 27  1  6  0  0  0
 18 19  2  0  0  0  0
 18 23  1  0  0  0  0
 19 20  1  0  0  0  0
 20 21  2  0  0  0  0
 21 22  1  0  0  0  0
 21 27  1  0  0  0  0
 22 23  2  0  0  0  0
 22 25  1  0  0  0  0
 23 24  1  0  0  0  0
 25 26  2  0  0  0  0
 26 27  1  0  0  0  0
M  END
>  <CHROM.1>
129.82540381,-163.54959778,-77.32250037,-74.36245999,-175.45045043,160.23923790
-129.68790321,36.93740798,17.49483669,76.36011798,1.58424784,-0.78041215
0.98887005

>  <Name>
ligand

>  <RI>
0

>  <Rbt.Current_Directory>
/home/itssahil/PROJECTS/Mol_Feturizer/New_Systems/rnas/2QWY

>  <Rbt.Executable>
rbdock ($Id: //depot/dev/client3/rdock/2013.1/src/exe/rbdock.cxx#4 $)

>  <Rbt.Library>
libRbt.so (2013.1, Build901 2013/11/27)

>  <Rbt.Parameter_File>
/export/apps/rDock/src/rDock_2013.1_src/data/scripts/dock_solv.prm

>  <Rbt.Receptor>
prm/pocket_docking_7.prm

>  <SCORE>
-11.2495

>  <SCORE.INTER>
-9.14045

>  <SCORE.INTER.CONST>
1

>  <SCORE.INTER.POLAR>
0

>  <SCORE.INTER.ROT>
7

>  <SCORE.INTER.SOLV>
5.05018

>  <SCORE.INTER.VDW>
-16.0437

>  <SCORE.INTER.norm>
-0.338535

>  <SCORE.INTRA>
-2.10909

>  <SCORE.INTRA.DIHEDRAL>
-3.58331

>  <SCORE.INTRA.DIHEDRAL.0>
10.7382

>  <SCORE.INTRA.POLAR>
0

>  <SCORE.INTRA.POLAR.0>
0

>  <SCORE.INTRA.REPUL>
0

>  <SCORE.INTRA.REPUL.0>
0

>  <SCORE.INTRA.SOLV>
-0.818053

>  <SCORE.INTRA.SOLV.lig_0>
-49.2501

>  <SCORE.INTRA.VDW>
0.0915954

>  <SCORE.INTRA.VDW.0>
-1.75368

>  <SCORE.INTRA.norm>
-0.0781143

>  <SCORE.RESTR>
0

>  <SCORE.RESTR.CAVITY>
0

>  <SCORE.RESTR.norm>
0

>  <SCORE.SYSTEM>
0

>  <SCORE.SYSTEM.CONST>
0

>  <SCORE.SYSTEM.DIHEDRAL>
0

>  <SCORE.SYSTEM.SOLV>
0

>  <SCORE.SYSTEM.norm>
0

>  <SCORE.heavy>
27

>  <SCORE.norm>
-0.416649

>  <RMSD>
8.959

$$$$
ligand
 OpenBabel11021811463D
libRbt.so/2013.1/901 2013/11/27
 27 29  0  0  0  0  0  0  0  0999 V2000
   39.5452   20.7559   80.5774 N   0  0  0  0  0  0  0  0  0  0  0  0
   38.7637   20.1239   79.5001 C   0  0  2  0  0  0  0  0  0  0  0  0
   39.1908   18.6815   79.3239 C   0  0  0  0  0  0  0  0  0  0  0  0
   40.3845   18.3745   79.4052 O   0  0  0  0  0  0  0  0  0  0  0  0
   39.0110   20.8758   78.1964 C   0  0  0  0  0  0  0  0  0  0  0  0
   38.0885   20.3687   77.1086 C   0  0  0  0  0  0  0  0  0  0  0  0
   38.4790   21.2612   75.5933 S   0  0  2  0  0  0  0  0  0  0  0  0
   37.4049   22.7022   75.8411 C   0  0  0  0  0  0  0  0  0  0  0  0
   37.4945   20.3159   74.3813 C   0  0  0  0  0  0  0  0  0  0  0  0
   38.1193   18.9336   74.2128 C   0  0  1  0  0  0  0  0  0  0  0  0
   37.2374   18.1553   73.4377 O   0  0  0  0  0  0  0  0  0  0  0  0
   39.4311   19.0014   73.4237 C   0  0  1  0  0  0  0  0  0  0  0  0
   40.6776   19.2029   74.1077 O   0  0  0  0  0  0  0  0  0  0  0  0
   39.3698   17.7336   72.5086 C   0  0  1  0  0  0  0  0  0  0  0  0
   40.6295   17.0468   72.6044 O   0  0  0  0  0  0  0  0  0  0  0  0
   37.9945   17.0839   72.8975 C   0  0  2  0  0  0  0  0  0  0  0  0
   38.3444   17.8136   79.1717 O   0  0  0  0  0  0  0  0  0  0  0  0
   34.9047   13.2566   71.1920 N   0  0  0  0  0  0  0  0  0  0  0  0
   35.4504   13.4104   72.4037 C   0  0  0  0  0  0  0  0  0  0  0  0
   36.2413   14.4421   72.6854 N   0  0  0  0  0  0  0  0  0  0  0  0
   36.5074   15.3890   71.7675 C   0  0  0  0  0  0  0  0  0  0  0  0
   35.9402   15.2810   70.4695 C   0  0  0  0  0  0  0  0  0  0  0  0
   35.1085   14.1523   70.2074 C   0  0  0  0  0  0  0  0  0  0  0  0
   34.5127   13.9801   68.9720 N   0  0  0  0  0  0  0  0  0  0  0  0
   36.3584   16.3536   69.7585 N   0  0  0  0  0  0  0  0  0  0  0  0
   37.1201   17.0942   70.5103 C   0  0  0  0  0  0  0  0  0  0  0  0
   37.2434   16.5401   71.7608 N   0  0  0  0  0  0  0  0  0  0  0  0
  2  1  1  1  0  0  0
  2  3  1  0  0  0  0
  2  5  1  0  0  0  0
  3  4  1  0  0  0  0
  3 17  1  0  0  0  0
  5  6  1  0  0  0  0
  7  6  1  1  0  0  0
  7  8  1  0  0  0  0
  7  9  1  0  0  0  0
 10  9  1  6  0  0  0
 10 11  1  0  0  0  0
 10 12  1  0  0  0  0
 11 16  1  0  0  0  0
 12 13  1  1  0  0  0
 12 14  1  0  0  0  0
 14 15  1  1  0  0  0
 14 16  1  0  0  0  0
 16 27  1  6  0  0  0
 18 19  2  0  0  0  0
 18 23  1  0  0  0  0
 19 20  1  0  0  0  0
 20 21  2  0  0  0  0
 21 22  1  0  0  0  0
 21 27  1  0  0  0  0
 22 23  2  0  0  0  0
 22 25  1  0  0  0  0
 23 24  1  0  0  0  0
 25 26  2  0  0  0  0
 26 27  1  0  0  0  0
M  END
>  <CHROM.1>
-39.52315758,-172.62576979,-178.06925582,-86.98473169,-69.45097148,171.18015962
-102.73574536,37.86149738,17.95567249,74.30887612,0.53525116,1.19168043,1.95040042

>  <Name>
ligand

>  <RI>
0

>  <Rbt.Current_Directory>
/home/itssahil/PROJECTS/Mol_Feturizer/New_Systems/rnas/2QWY

>  <Rbt.Executable>
rbdock ($Id: //depot/dev/client3/rdock/2013.1/src/exe/rbdock.cxx#4 $)

>  <Rbt.Library>
libRbt.so (2013.1, Build901 2013/11/27)

>  <Rbt.Parameter_File>
/export/apps/rDock/src/rDock_2013.1_src/data/scripts/dock_solv.prm

>  <Rbt.Receptor>
prm/pocket_docking_7.prm

>  <SCORE>
-11.6148

>  <SCORE.INTER>
-7.58952

>  <SCORE.INTER.CONST>
1

>  <SCORE.INTER.POLAR>
0

>  <SCORE.INTER.ROT>
7

>  <SCORE.INTER.SOLV>
5.29583

>  <SCORE.INTER.VDW>
-15.0916

>  <SCORE.INTER.norm>
-0.281093

>  <SCORE.INTRA>
-4.02531

>  <SCORE.INTRA.DIHEDRAL>
-6.03584

>  <SCORE.INTRA.DIHEDRAL.0>
10.7382

>  <SCORE.INTRA.POLAR>
0

>  <SCORE.INTRA.POLAR.0>
0

>  <SCORE.INTRA.REPUL>
0

>  <SCORE.INTRA.REPUL.0>
0

>  <SCORE.INTRA.SOLV>
-1.06764

>  <SCORE.INTRA.SOLV.lig_0>
-49.2501

>  <SCORE.INTRA.VDW>
-0.47357

>  <SCORE.INTRA.VDW.0>
-1.75368

>  <SCORE.INTRA.norm>
-0.149085

>  <SCORE.RESTR>
0

>  <SCORE.RESTR.CAVITY>
0

>  <SCORE.RESTR.norm>
0

>  <SCORE.SYSTEM>
0

>  <SCORE.SYSTEM.CONST>
0

>  <SCORE.SYSTEM.DIHEDRAL>
0

>  <SCORE.SYSTEM.SOLV>
0

>  <SCORE.SYSTEM.norm>
0

>  <SCORE.heavy>
27

>  <SCORE.norm>
-0.430179

>  <RMSD>
8.963

$$$$
ligand
 OpenBabel11021811463D
libRbt.so/2013.1/901 2013/11/27
 27 29  0  0  0  0  0  0  0  0999 V2000
   39.3483   19.0009   80.4868 N   0  0  0  0  0  0  0  0  0  0  0  0
   38.5996   18.7936   79.2349 C   0  0  2  0  0  0  0  0  0  0  0  0
   37.1113   18.9020   79.4940 C   0  0  0  0  0  0  0  0  0  0  0  0
   36.3212   18.9722   78.5472 O   0  0  0  0  0  0  0  0  0  0  0  0
   38.9074   17.4014   78.6934 C   0  0  0  0  0  0  0  0  0  0  0  0
   38.3880   17.2559   77.2790 C   0  0  0  0  0  0  0  0  0  0  0  0
   38.6922   15.5606   76.7511 S   0  0  2  0  0  0  0  0  0  0  0  0
   40.1750   15.8497   75.7465 C   0  0  0  0  0  0  0  0  0  0  0  0
   37.4321   15.3831   75.4424 C   0  0  0  0  0  0  0  0  0  0  0  0
   37.5101   16.5955   74.5184 C   0  0  1  0  0  0  0  0  0  0  0  0
   37.4842   16.1257   73.1907 O   0  0  0  0  0  0  0  0  0  0  0  0
   36.2829   17.5003   74.6726 C   0  0  1  0  0  0  0  0  0  0  0  0
   36.2812   18.5581   75.6438 O   0  0  0  0  0  0  0  0  0  0  0  0
   35.9715   17.9423   73.2043 C   0  0  1  0  0  0  0  0  0  0  0  0
   35.7734   19.3665   73.1943 O   0  0  0  0  0  0  0  0  0  0  0  0
   37.0868   17.2148   72.3727 C   0  0  2  0  0  0  0  0  0  0  0  0
   36.6906   18.8484   80.6398 O   0  0  0  0  0  0  0  0  0  0  0  0
   34.7788   13.2076   69.9811 N   0  0  0  0  0  0  0  0  0  0  0  0
   35.0695   13.3488   71.2793 C   0  0  0  0  0  0  0  0  0  0  0  0
   35.6839   14.4342   71.7413 N   0  0  0  0  0  0  0  0  0  0  0  0
   36.0188   15.4485   70.9233 C   0  0  0  0  0  0  0  0  0  0  0  0
   35.7188   15.3553   69.5378 C   0  0  0  0  0  0  0  0  0  0  0  0
   35.0707   14.1685   69.0840 C   0  0  0  0  0  0  0  0  0  0  0  0
   34.7375   14.0055   67.7524 N   0  0  0  0  0  0  0  0  0  0  0  0
   36.1506   16.4980   68.9561 N   0  0  0  0  0  0  0  0  0  0  0  0
   36.6784   17.2669   69.8640 C   0  0  0  0  0  0  0  0  0  0  0  0
   36.6214   16.6625   71.0959 N   0  0  0  0  0  0  0  0  0  0  0  0
  2  1  1  1  0  0  0
  2  3  1  0  0  0  0
  2  5  1  0  0  0  0
  3  4  1  0  0  0  0
  3 17  1  0  0  0  0
  5  6  1  0  0  0  0
  7  6  1  1  0  0  0
  7  8  1  0  0  0  0
  7  9  1  0  0  0  0
 10  9  1  1  0  0  0
 10 11  1  0  0  0  0
 10 12  1  0  0  0  0
 11 16  1  0  0  0  0
 12 13  1  1  0  0  0
 12 14  1  0  0  0  0
 14 15  1  1  0  0  0
 14 16  1  0  0  0  0
 16 27  1  6  0  0  0
 18 19  2  0  0  0  0
 18 23  1  0  0  0  0
 19 20  1  0  0  0  0
 20 21  2  0  0  0  0
 21 22  1  0  0  0  0
 21 27  1  0  0  0  0
 22 23  2  0  0  0  0
 22 25  1  0  0  0  0
 23 24  1  0  0  0  0
 25 26  2  0  0  0  0
 26 27  1  0  0  0  0
M  END
>  <CHROM.1>
168.43768448,-168.45023807,-176.37663939,-100.75199551,48.14308225,133.68201542
31.16097905,36.94709231,16.66123746,74.29770847,-1.08198990,1.01284304,-2.32460096

>  <Name>
ligand

>  <RI>
0

>  <Rbt.Current_Directory>
/home/itssahil/PROJECTS/Mol_Feturizer/New_Systems/rnas/2QWY

>  <Rbt.Executable>
rbdock ($Id: //depot/dev/client3/rdock/2013.1/src/exe/rbdock.cxx#4 $)

>  <Rbt.Library>
libRbt.so (2013.1, Build901 2013/11/27)

>  <Rbt.Parameter_File>
/export/apps/rDock/src/rDock_2013.1_src/data/scripts/dock_solv.prm

>  <Rbt.Receptor>
prm/pocket_docking_7.prm

>  <SCORE>
-14.6029

>  <SCORE.INTER>
-14.6203

>  <SCORE.INTER.CONST>
1

>  <SCORE.INTER.POLAR>
0

>  <SCORE.INTER.ROT>
7

>  <SCORE.INTER.SOLV>
9.05912

>  <SCORE.INTER.VDW>
-21.0332

>  <SCORE.INTER.norm>
-0.541491

>  <SCORE.INTRA>
0.0173964

>  <SCORE.INTRA.DIHEDRAL>
-0.149861

>  <SCORE.INTRA.DIHEDRAL.0>
10.7382

>  <SCORE.INTRA.POLAR>
0

>  <SCORE.INTRA.POLAR.0>
0

>  <SCORE.INTRA.REPUL>
0

>  <SCORE.INTRA.REPUL.0>
0

>  <SCORE.INTRA.SOLV>
-0.682101

>  <SCORE.INTRA.SOLV.lig_0>
-49.2501

>  <SCORE.INTRA.VDW>
0.433377

>  <SCORE.INTRA.VDW.0>
-1.75368

>  <SCORE.INTRA.norm>
0.000644312

>  <SCORE.RESTR>
0

>  <SCORE.RESTR.CAVITY>
0

>  <SCORE.RESTR.norm>
0

>  <SCORE.SYSTEM>
0

>  <SCORE.SYSTEM.CONST>
0

>  <SCORE.SYSTEM.DIHEDRAL>
0

>  <SCORE.SYSTEM.SOLV>
0

>  <SCORE.SYSTEM.norm>
0

>  <SCORE.heavy>
27

>  <SCORE.norm>
-0.540847

>  <RMSD>
8.987

$$$$
ligand
 OpenBabel11021811463D
libRbt.so/2013.1/901 2013/11/27
 27 29  0  0  0  0  0  0  0  0999 V2000
   26.0979   27.9981   74.4709 N   0  0  0  0  0  0  0  0  0  0  0  0
   26.6720   26.7197   74.9255 C   0  0  2  0  0  0  0  0  0  0  0  0
   27.5037   26.1002   73.8216 C   0  0  0  0  0  0  0  0  0  0  0  0
   26.9793   25.3347   73.0062 O   0  0  0  0  0  0  0  0  0  0  0  0
   25.5397   25.7641   75.2874 C   0  0  0  0  0  0  0  0  0  0  0  0
   26.0491   24.6517   76.1788 C   0  0  0  0  0  0  0  0  0  0  0  0
   24.7406   23.4229   76.3304 S   0  0  2  0  0  0  0  0  0  0  0  0
   23.5803   24.3833   77.3418 C   0  0  0  0  0  0  0  0  0  0  0  0
   25.4562   22.3221   77.5983 C   0  0  0  0  0  0  0  0  0  0  0  0
   26.6508   21.5889   76.9941 C   0  0  1  0  0  0  0  0  0  0  0  0
   27.8158   22.2899   77.3621 O   0  0  0  0  0  0  0  0  0  0  0  0
   26.8006   20.1801   77.5782 C   0  0  1  0  0  0  0  0  0  0  0  0
   26.1302   19.0676   76.9658 O   0  0  0  0  0  0  0  0  0  0  0  0
   28.3482   20.0182   77.7422 C   0  0  1  0  0  0  0  0  0  0  0  0
   28.7292   18.7449   77.1935 O   0  0  0  0  0  0  0  0  0  0  0  0
   28.9039   21.3905   77.2198 C   0  0  2  0  0  0  0  0  0  0  0  0
   28.6777   26.4152   73.6984 O   0  0  0  0  0  0  0  0  0  0  0  0
   33.4822   20.3561   79.4722 N   0  0  0  0  0  0  0  0  0  0  0  0
   32.6776   19.5260   78.7989 C   0  0  0  0  0  0  0  0  0  0  0  0
   31.5188   19.9378   78.2923 N   0  0  0  0  0  0  0  0  0  0  0  0
   31.1173   21.2159   78.4163 C   0  0  0  0  0  0  0  0  0  0  0  0
   31.9422   22.1420   79.1092 C   0  0  0  0  0  0  0  0  0  0  0  0
   33.1700   21.6543   79.6468 C   0  0  0  0  0  0  0  0  0  0  0  0
   34.0317   22.4947   80.3266 N   0  0  0  0  0  0  0  0  0  0  0  0
   31.3130   23.3395   79.0801 N   0  0  0  0  0  0  0  0  0  0  0  0
   30.1906   23.2171   78.4327 C   0  0  0  0  0  0  0  0  0  0  0  0
   30.0239   21.9233   78.0030 N   0  0  0  0  0  0  0  0  0  0  0  0
  2  1  1  6  0  0  0
  2  3  1  0  0  0  0
  2  5  1  0  0  0  0
  3  4  1  0  0  0  0
  3 17  1  0  0  0  0
  5  6  1  0  0  0  0
  7  6  1  1  0  0  0
  7  8  1  0  0  0  0
  7  9  1  0  0  0  0
 10  9  1  1  0  0  0
 10 11  1  0  0  0  0
 10 12  1  0  0  0  0
 11 16  1  0  0  0  0
 12 13  1  6  0  0  0
 12 14  1  0  0  0  0
 14 15  1  6  0  0  0
 14 16  1  0  0  0  0
 16 27  1  1  0  0  0
 18 19  2  0  0  0  0
 18 23  1  0  0  0  0
 19 20  1  0  0  0  0
 20 21  2  0  0  0  0
 21 22  1  0  0  0  0
 21 27  1  0  0  0  0
 22 23  2  0  0  0  0
 22 25  1  0  0  0  0
 23 24  1  0  0  0  0
 25 26  2  0  0  0  0
 26 27  1  0  0  0  0
M  END
>  <CHROM.1>
-89.72537507,-160.79598745,-170.46609711,-69.99557322,-68.99054189,96.85651858
161.87860077,28.39125701,22.72563658,77.05882690,-2.41516263,0.26514996,2.71787031

>  <Name>
ligand

>  <RI>
0

>  <Rbt.Current_Directory>
/home/itssahil/PROJECTS/Mol_Feturizer/New_Systems/rnas/2QWY

>  <Rbt.Executable>
rbdock ($Id: //depot/dev/client3/rdock/2013.1/src/exe/rbdock.cxx#4 $)

>  <Rbt.Library>
libRbt.so (2013.1, Build901 2013/11/27)

>  <Rbt.Parameter_File>
/export/apps/rDock/src/rDock_2013.1_src/data/scripts/dock_solv.prm

>  <Rbt.Receptor>
prm/pocket_docking_8.prm

>  <SCORE>
-24.2503

>  <SCORE.INTER>
-23.0132

>  <SCORE.INTER.CONST>
1

>  <SCORE.INTER.POLAR>
0

>  <SCORE.INTER.ROT>
7

>  <SCORE.INTER.SOLV>
8.23985

>  <SCORE.INTER.VDW>
-26.3554

>  <SCORE.INTER.norm>
-0.85234

>  <SCORE.INTRA>
-1.23708

>  <SCORE.INTRA.DIHEDRAL>
-2.46093

>  <SCORE.INTRA.DIHEDRAL.0>
10.7382

>  <SCORE.INTRA.POLAR>
0

>  <SCORE.INTRA.POLAR.0>
0

>  <SCORE.INTRA.REPUL>
0

>  <SCORE.INTRA.REPUL.0>
0

>  <SCORE.INTRA.SOLV>
-1.10064

>  <SCORE.INTRA.SOLV.lig_0>
-49.2501

>  <SCORE.INTRA.VDW>
0.5437

>  <SCORE.INTRA.VDW.0>
-1.75368

>  <SCORE.INTRA.norm>
-0.0458179

>  <SCORE.RESTR>
0

>  <SCORE.RESTR.CAVITY>
0

>  <SCORE.RESTR.norm>
0

>  <SCORE.SYSTEM>
0

>  <SCORE.SYSTEM.CONST>
0

>  <SCORE.SYSTEM.DIHEDRAL>
0

>  <SCORE.SYSTEM.SOLV>
0

>  <SCORE.SYSTEM.norm>
0

>  <SCORE.heavy>
27

>  <SCORE.norm>
-0.898158

>  <RMSD>
9.036

$$$$
ligand
 OpenBabel11021811463D
libRbt.so/2013.1/901 2013/11/27
 27 29  0  0  0  0  0  0  0  0999 V2000
   31.5972   22.7152   78.4206 N   0  0  0  0  0  0  0  0  0  0  0  0
   32.5337   22.1879   79.4285 C   0  0  2  0  0  0  0  0  0  0  0  0
   32.7077   23.1887   80.5519 C   0  0  0  0  0  0  0  0  0  0  0  0
   33.3030   24.2516   80.3480 O   0  0  0  0  0  0  0  0  0  0  0  0
   33.8879   21.9412   78.7716 C   0  0  0  0  0  0  0  0  0  0  0  0
   33.7578   20.9308   77.6520 C   0  0  0  0  0  0  0  0  0  0  0  0
   35.4146   20.5539   77.0535 S   0  0  2  0  0  0  0  0  0  0  0  0
   35.6996   22.0553   76.0757 C   0  0  0  0  0  0  0  0  0  0  0  0
   35.0312   19.3599   75.7272 C   0  0  0  0  0  0  0  0  0  0  0  0
   36.3209   18.6578   75.3109 C   0  0  1  0  0  0  0  0  0  0  0  0
   35.9664   17.4712   74.6397 O   0  0  0  0  0  0  0  0  0  0  0  0
   37.1168   19.4941   74.3032 C   0  0  1  0  0  0  0  0  0  0  0  0
   38.0842   20.4515   74.7612 O   0  0  0  0  0  0  0  0  0  0  0  0
   37.6594   18.4274   73.2951 C   0  0  1  0  0  0  0  0  0  0  0  0
   39.0608   18.6742   73.0882 O   0  0  0  0  0  0  0  0  0  0  0  0
   37.0897   17.0805   73.8660 C   0  0  2  0  0  0  0  0  0  0  0  0
   32.1964   22.9724   81.6403 O   0  0  0  0  0  0  0  0  0  0  0  0
   36.1258   16.3413   68.8035 N   0  0  0  0  0  0  0  0  0  0  0  0
   36.5799   17.4417   69.4140 C   0  0  0  0  0  0  0  0  0  0  0  0
   36.7601   17.4833   70.7311 N   0  0  0  0  0  0  0  0  0  0  0  0
   36.5145   16.4096   71.5037 C   0  0  0  0  0  0  0  0  0  0  0  0
   36.0452   15.2108   70.9031 C   0  0  0  0  0  0  0  0  0  0  0  0
   35.8543   15.2149   69.4896 C   0  0  0  0  0  0  0  0  0  0  0  0
   35.4086   14.0851   68.8293 N   0  0  0  0  0  0  0  0  0  0  0  0
   35.8893   14.3009   71.8922 N   0  0  0  0  0  0  0  0  0  0  0  0
   36.2238   14.8421   73.0276 C   0  0  0  0  0  0  0  0  0  0  0  0
   36.6167   16.1446   72.8402 N   0  0  0  0  0  0  0  0  0  0  0  0
  2  1  1  6  0  0  0
  2  3  1  0  0  0  0
  2  5  1  0  0  0  0
  3  4  1  0  0  0  0
  3 17  1  0  0  0  0
  5  6  1  0  0  0  0
  7  6  1  1  0  0  0
  7  8  1  0  0  0  0
  7  9  1  0  0  0  0
 10  9  1  6  0  0  0
 10 11  1  0  0  0  0
 10 12  1  0  0  0  0
 11 16  1  0  0  0  0
 12 13  1  1  0  0  0
 12 14  1  0  0  0  0
 14 15  1  1  0  0  0
 14 16  1  0  0  0  0
 16 27  1  6  0  0  0
 18 19  2  0  0  0  0
 18 23  1  0  0  0  0
 19 20  1  0  0  0  0
 20 21  2  0  0  0  0
 21 22  1  0  0  0  0
 21 27  1  0  0  0  0
 22 23  2  0  0  0  0
 22 25  1  0  0  0  0
 23 24  1  0  0  0  0
 25 26  2  0  0  0  0
 26 27  1  0  0  0  0
M  END
>  <CHROM.1>
-69.30387046,-60.45260421,-173.68674079,-76.89882940,-166.41527674,160.89132366
108.41911905,35.52309423,18.99941701,74.76751776,1.87778374,0.37585397,0.79685088

>  <Name>
ligand

>  <RI>
0

>  <Rbt.Current_Directory>
/home/itssahil/PROJECTS/Mol_Feturizer/New_Systems/rnas/2QWY

>  <Rbt.Executable>
rbdock ($Id: //depot/dev/client3/rdock/2013.1/src/exe/rbdock.cxx#4 $)

>  <Rbt.Library>
libRbt.so (2013.1, Build901 2013/11/27)

>  <Rbt.Parameter_File>
/export/apps/rDock/src/rDock_2013.1_src/data/scripts/dock_solv.prm

>  <Rbt.Receptor>
prm/pocket_docking_5.prm

>  <SCORE>
-10.8373

>  <SCORE.INTER>
-8.58226

>  <SCORE.INTER.CONST>
1

>  <SCORE.INTER.POLAR>
0

>  <SCORE.INTER.ROT>
7

>  <SCORE.INTER.SOLV>
8.9998

>  <SCORE.INTER.VDW>
-16.9881

>  <SCORE.INTER.norm>
-0.317861

>  <SCORE.INTRA>
-2.25504

>  <SCORE.INTRA.DIHEDRAL>
-4.69071

>  <SCORE.INTRA.DIHEDRAL.0>
10.7382

>  <SCORE.INTRA.POLAR>
0

>  <SCORE.INTRA.POLAR.0>
0

>  <SCORE.INTRA.REPUL>
0

>  <SCORE.INTRA.REPUL.0>
0

>  <SCORE.INTRA.SOLV>
-0.163688

>  <SCORE.INTRA.SOLV.lig_0>
-49.2501

>  <SCORE.INTRA.VDW>
0.172159

>  <SCORE.INTRA.VDW.0>
-1.75368

>  <SCORE.INTRA.norm>
-0.0835201

>  <SCORE.RESTR>
0

>  <SCORE.RESTR.CAVITY>
0

>  <SCORE.RESTR.norm>
0

>  <SCORE.SYSTEM>
0

>  <SCORE.SYSTEM.CONST>
0

>  <SCORE.SYSTEM.DIHEDRAL>
0

>  <SCORE.SYSTEM.SOLV>
0

>  <SCORE.SYSTEM.norm>
0

>  <SCORE.heavy>
27

>  <SCORE.norm>
-0.401381

>  <RMSD>
9.039

$$$$
ligand
 OpenBabel11021811463D
libRbt.so/2013.1/901 2013/11/27
 27 29  0  0  0  0  0  0  0  0999 V2000
   33.4400   21.6099   79.3015 N   0  0  0  0  0  0  0  0  0  0  0  0
   33.0591   20.9614   78.0346 C   0  0  2  0  0  0  0  0  0  0  0  0
   32.2176   19.7327   78.3107 C   0  0  0  0  0  0  0  0  0  0  0  0
   32.4694   19.0154   79.2842 O   0  0  0  0  0  0  0  0  0  0  0  0
   34.3215   20.5393   77.2901 C   0  0  0  0  0  0  0  0  0  0  0  0
   35.1472   21.7518   76.9166 C   0  0  0  0  0  0  0  0  0  0  0  0
   36.6845   21.1674   76.1814 S   0  0  2  0  0  0  0  0  0  0  0  0
   37.5540   22.7558   76.0688 C   0  0  0  0  0  0  0  0  0  0  0  0
   36.1662   20.9471   74.4451 C   0  0  0  0  0  0  0  0  0  0  0  0
   37.3868   20.5623   73.6136 C   0  0  1  0  0  0  0  0  0  0  0  0
   37.5077   19.1594   73.6521 O   0  0  0  0  0  0  0  0  0  0  0  0
   37.2018   20.9322   72.1380 C   0  0  1  0  0  0  0  0  0  0  0  0
   37.6002   22.2267   71.6609 O   0  0  0  0  0  0  0  0  0  0  0  0
   37.8320   19.7182   71.3781 C   0  0  1  0  0  0  0  0  0  0  0  0
   38.7084   20.2295   70.3593 O   0  0  0  0  0  0  0  0  0  0  0  0
   38.3090   18.7812   72.5440 C   0  0  2  0  0  0  0  0  0  0  0  0
   31.2467   19.4935   77.6087 O   0  0  0  0  0  0  0  0  0  0  0  0
   36.1788   15.2203   69.3997 N   0  0  0  0  0  0  0  0  0  0  0  0
   36.1592   16.5530   69.2845 C   0  0  0  0  0  0  0  0  0  0  0  0
   36.7391   17.3387   70.1875 N   0  0  0  0  0  0  0  0  0  0  0  0
   37.3913   16.8234   71.2454 C   0  0  0  0  0  0  0  0  0  0  0  0
   37.4549   15.4134   71.4065 C   0  0  0  0  0  0  0  0  0  0  0  0
   36.8087   14.6095   70.4212 C   0  0  0  0  0  0  0  0  0  0  0  0
   36.8328   13.2298   70.5022 N   0  0  0  0  0  0  0  0  0  0  0  0
   38.1655   15.1698   72.5318 N   0  0  0  0  0  0  0  0  0  0  0  0
   38.5351   16.3016   73.0574 C   0  0  0  0  0  0  0  0  0  0  0  0
   38.0806   17.3529   72.2996 N   0  0  0  0  0  0  0  0  0  0  0  0
  2  1  1  1  0  0  0
  2  3  1  0  0  0  0
  2  5  1  0  0  0  0
  3  4  1  0  0  0  0
  3 17  1  0  0  0  0
  5  6  1  0  0  0  0
  7  6  1  1  0  0  0
  7  8  1  0  0  0  0
  7  9  1  0  0  0  0
 10  9  1  1  0  0  0
 10 11  1  0  0  0  0
 10 12  1  0  0  0  0
 11 16  1  0  0  0  0
 12 13  1  1  0  0  0
 12 14  1  0  0  0  0
 14 15  1  1  0  0  0
 14 16  1  0  0  0  0
 16 27  1  6  0  0  0
 18 19  2  0  0  0  0
 18 23  1  0  0  0  0
 19 20  1  0  0  0  0
 20 21  2  0  0  0  0
 21 22  1  0  0  0  0
 21 27  1  0  0  0  0
 22 23  2  0  0  0  0
 22 25  1  0  0  0  0
 23 24  1  0  0  0  0
 25 26  2  0  0  0  0
 26 27  1  0  0  0  0
M  END
>  <CHROM.1>
-37.17160769,-63.40564765,174.86186440,-171.99534480,175.08083960,88.20990126
108.43625911,36.25858764,19.00211725,73.85958178,2.18584093,0.82322876,0.53510812

>  <Name>
ligand

>  <RI>
0

>  <Rbt.Current_Directory>
/home/itssahil/PROJECTS/Mol_Feturizer/New_Systems/rnas/2QWY

>  <Rbt.Executable>
rbdock ($Id: //depot/dev/client3/rdock/2013.1/src/exe/rbdock.cxx#4 $)

>  <Rbt.Library>
libRbt.so (2013.1, Build901 2013/11/27)

>  <Rbt.Parameter_File>
/export/apps/rDock/src/rDock_2013.1_src/data/scripts/dock_solv.prm

>  <Rbt.Receptor>
prm/pocket_docking_3.prm

>  <SCORE>
-8.63412

>  <SCORE.INTER>
-7.45015

>  <SCORE.INTER.CONST>
1

>  <SCORE.INTER.POLAR>
0

>  <SCORE.INTER.ROT>
7

>  <SCORE.INTER.SOLV>
8.05754

>  <SCORE.INTER.VDW>
-15.9193

>  <SCORE.INTER.norm>
-0.275931

>  <SCORE.INTRA>
-2.54545

>  <SCORE.INTRA.DIHEDRAL>
-3.99846

>  <SCORE.INTRA.DIHEDRAL.0>
10.7382

>  <SCORE.INTRA.POLAR>
0

>  <SCORE.INTRA.POLAR.0>
0

>  <SCORE.INTRA.REPUL>
0

>  <SCORE.INTRA.REPUL.0>
0

>  <SCORE.INTRA.SOLV>
-0.431821

>  <SCORE.INTRA.SOLV.lig_0>
-49.2501

>  <SCORE.INTRA.VDW>
-0.330304

>  <SCORE.INTRA.VDW.0>
-1.75368

>  <SCORE.INTRA.norm>
-0.0942758

>  <SCORE.RESTR>
1.36147

>  <SCORE.RESTR.CAVITY>
1.36147

>  <SCORE.RESTR.norm>
0.0504248

>  <SCORE.SYSTEM>
0

>  <SCORE.SYSTEM.CONST>
0

>  <SCORE.SYSTEM.DIHEDRAL>
0

>  <SCORE.SYSTEM.SOLV>
0

>  <SCORE.SYSTEM.norm>
0

>  <SCORE.heavy>
27

>  <SCORE.norm>
-0.319782

>  <RMSD>
9.132

$$$$
ligand
 OpenBabel11021811463D
libRbt.so/2013.1/901 2013/11/27
 27 29  0  0  0  0  0  0  0  0999 V2000
   26.0019   26.5520   74.1889 N   0  0  0  0  0  0  0  0  0  0  0  0
   26.1544   25.2979   74.9471 C   0  0  2  0  0  0  0  0  0  0  0  0
   25.5013   24.1542   74.1992 C   0  0  0  0  0  0  0  0  0  0  0  0
   24.3618   24.2844   73.7406 O   0  0  0  0  0  0  0  0  0  0  0  0
   25.4786   25.4503   76.3059 C   0  0  0  0  0  0  0  0  0  0  0  0
   25.7483   24.2378   77.1712 C   0  0  0  0  0  0  0  0  0  0  0  0
   24.5026   22.9954   76.7840 S   0  0  2  0  0  0  0  0  0  0  0  0
   23.1689   23.6041   77.8528 C   0  0  0  0  0  0  0  0  0  0  0  0
   25.1091   21.5884   77.7760 C   0  0  0  0  0  0  0  0  0  0  0  0
   26.3627   21.0244   77.1127 C   0  0  1  0  0  0  0  0  0  0  0  0
   27.4248   21.9108   77.3783 O   0  0  0  0  0  0  0  0  0  0  0  0
   26.7680   19.6802   77.7268 C   0  0  1  0  0  0  0  0  0  0  0  0
   26.2422   18.4540   77.1955 O   0  0  0  0  0  0  0  0  0  0  0  0
   28.3292   19.7655   77.7880 C   0  0  1  0  0  0  0  0  0  0  0  0
   28.8689   18.5451   77.2524 O   0  0  0  0  0  0  0  0  0  0  0  0
   28.6289   21.1848   77.1879 C   0  0  2  0  0  0  0  0  0  0  0  0
   26.1319   23.1289   73.9902 O   0  0  0  0  0  0  0  0  0  0  0  0
   33.6599   21.2329   78.5261 N   0  0  0  0  0  0  0  0  0  0  0  0
   32.9862   20.2968   77.8480 C   0  0  0  0  0  0  0  0  0  0  0  0
   31.6859   20.4194   77.5966 N   0  0  0  0  0  0  0  0  0  0  0  0
   30.9969   21.5041   77.9951 C   0  0  0  0  0  0  0  0  0  0  0  0
   31.6685   22.5348   78.7057 C   0  0  0  0  0  0  0  0  0  0  0  0
   33.0599   22.3560   78.9640 C   0  0  0  0  0  0  0  0  0  0  0  0
   33.7861   23.3172   79.6418 N   0  0  0  0  0  0  0  0  0  0  0  0
   30.7559   23.4966   78.9752 N   0  0  0  0  0  0  0  0  0  0  0  0
   29.6022   23.1393   78.4901 C   0  0  0  0  0  0  0  0  0  0  0  0
   29.6994   21.9150   77.8755 N   0  0  0  0  0  0  0  0  0  0  0  0
  2  1  1  6  0  0  0
  2  3  1  0  0  0  0
  2  5  1  0  0  0  0
  3  4  1  0  0  0  0
  3 17  1  0  0  0  0
  5  6  1  0  0  0  0
  7  6  1  1  0  0  0
  7  8  1  0  0  0  0
  7  9  1  0  0  0  0
 10  9  1  1  0  0  0
 10 11  1  0  0  0  0
 10 12  1  0  0  0  0
 11 16  1  0  0  0  0
 12 13  1  6  0  0  0
 12 14  1  0  0  0  0
 14 15  1  6  0  0  0
 14 16  1  0  0  0  0
 16 27  1  1  0  0  0
 18 19  2  0  0  0  0
 18 23  1  0  0  0  0
 19 20  1  0  0  0  0
 20 21  2  0  0  0  0
 21 22  1  0  0  0  0
 21 27  1  0  0  0  0
 22 23  2  0  0  0  0
 22 25  1  0  0  0  0
 23 24  1  0  0  0  0
 25 26  2  0  0  0  0
 26 27  1  0  0  0  0
M  END
>  <CHROM.1>
-47.50396518,-173.67948378,-86.06027560,-83.34559298,-72.53847183,75.22104889
175.97200411,27.95805688,22.31888927,77.09485953,-2.74936130,0.27992808,2.87252779

>  <Name>
ligand

>  <RI>
0

>  <Rbt.Current_Directory>
/home/itssahil/PROJECTS/Mol_Feturizer/New_Systems/rnas/2QWY

>  <Rbt.Executable>
rbdock ($Id: //depot/dev/client3/rdock/2013.1/src/exe/rbdock.cxx#4 $)

>  <Rbt.Library>
libRbt.so (2013.1, Build901 2013/11/27)

>  <Rbt.Parameter_File>
/export/apps/rDock/src/rDock_2013.1_src/data/scripts/dock_solv.prm

>  <Rbt.Receptor>
prm/pocket_docking_8.prm

>  <SCORE>
-26.287

>  <SCORE.INTER>
-23.0872

>  <SCORE.INTER.CONST>
1

>  <SCORE.INTER.POLAR>
0

>  <SCORE.INTER.ROT>
7

>  <SCORE.INTER.SOLV>
10.2027

>  <SCORE.INTER.VDW>
-27.059

>  <SCORE.INTER.norm>
-0.855081

>  <SCORE.INTRA>
-3.19982

>  <SCORE.INTRA.DIHEDRAL>
-3.67583

>  <SCORE.INTRA.DIHEDRAL.0>
10.7382

>  <SCORE.INTRA.POLAR>
0

>  <SCORE.INTRA.POLAR.0>
0

>  <SCORE.INTRA.REPUL>
0

>  <SCORE.INTRA.REPUL.0>
0

>  <SCORE.INTRA.SOLV>
-0.889454

>  <SCORE.INTRA.SOLV.lig_0>
-49.2501

>  <SCORE.INTRA.VDW>
-0.917178

>  <SCORE.INTRA.VDW.0>
-1.75368

>  <SCORE.INTRA.norm>
-0.118512

>  <SCORE.RESTR>
0

>  <SCORE.RESTR.CAVITY>
0

>  <SCORE.RESTR.norm>
0

>  <SCORE.SYSTEM>
0

>  <SCORE.SYSTEM.CONST>
0

>  <SCORE.SYSTEM.DIHEDRAL>
0

>  <SCORE.SYSTEM.SOLV>
0

>  <SCORE.SYSTEM.norm>
0

>  <SCORE.heavy>
27

>  <SCORE.norm>
-0.973593

>  <RMSD>
9.148

$$$$
ligand
 OpenBabel11021811463D
libRbt.so/2013.1/901 2013/11/27
 27 29  0  0  0  0  0  0  0  0999 V2000
   36.4919   22.8157   76.5370 N   0  0  0  0  0  0  0  0  0  0  0  0
   37.5498   21.7912   76.5823 C   0  0  2  0  0  0  0  0  0  0  0  0
   38.7339   22.2998   77.3781 C   0  0  0  0  0  0  0  0  0  0  0  0
   39.2508   21.5864   78.2439 O   0  0  0  0  0  0  0  0  0  0  0  0
   38.0060   21.4810   75.1603 C   0  0  0  0  0  0  0  0  0  0  0  0
   36.9061   20.7806   74.3915 C   0  0  0  0  0  0  0  0  0  0  0  0
   37.5612   20.3350   72.7736 S   0  0  2  0  0  0  0  0  0  0  0  0
   36.1044   19.4758   72.1168 C   0  0  0  0  0  0  0  0  0  0  0  0
   38.6158   18.9126   73.2164 C   0  0  0  0  0  0  0  0  0  0  0  0
   37.7952   17.9346   74.0529 C   0  0  1  0  0  0  0  0  0  0  0  0
   37.2418   16.9799   73.1774 O   0  0  0  0  0  0  0  0  0  0  0  0
   38.6781   17.1522   75.0311 C   0  0  1  0  0  0  0  0  0  0  0  0
   38.9345   17.6685   76.3463 O   0  0  0  0  0  0  0  0  0  0  0  0
   38.0769   15.7083   74.9867 C   0  0  1  0  0  0  0  0  0  0  0  0
   37.9057   15.2493   76.3386 O   0  0  0  0  0  0  0  0  0  0  0  0
   36.8967   15.8487   73.9611 C   0  0  2  0  0  0  0  0  0  0  0  0
   39.2195   23.3889   77.1120 O   0  0  0  0  0  0  0  0  0  0  0  0
   38.9321   13.2380   69.9430 N   0  0  0  0  0  0  0  0  0  0  0  0
   39.3915   14.3453   70.5367 C   0  0  0  0  0  0  0  0  0  0  0  0
   38.7439   14.9114   71.5512 N   0  0  0  0  0  0  0  0  0  0  0  0
   37.6086   14.3791   72.0390 C   0  0  0  0  0  0  0  0  0  0  0  0
   37.0861   13.1946   71.4540 C   0  0  0  0  0  0  0  0  0  0  0  0
   37.8063   12.6286   70.3606 C   0  0  0  0  0  0  0  0  0  0  0  0
   37.3677   11.4722   69.7433 N   0  0  0  0  0  0  0  0  0  0  0  0
   35.9587   12.8765   72.1310 N   0  0  0  0  0  0  0  0  0  0  0  0
   35.7593   13.7580   73.0676 C   0  0  0  0  0  0  0  0  0  0  0  0
   36.7515   14.7074   73.0511 N   0  0  0  0  0  0  0  0  0  0  0  0
  2  1  1  6  0  0  0
  2  3  1  0  0  0  0
  2  5  1  0  0  0  0
  3  4  1  0  0  0  0
  3 17  1  0  0  0  0
  5  6  1  0  0  0  0
  7  6  1  1  0  0  0
  7  8  1  0  0  0  0
  7  9  1  0  0  0  0
 10  9  1  6  0  0  0
 10 11  1  0  0  0  0
 10 12  1  0  0  0  0
 11 16  1  0  0  0  0
 12 13  1  1  0  0  0
 12 14  1  0  0  0  0
 14 15  1  1  0  0  0
 14 16  1  0  0  0  0
 16 27  1  6  0  0  0
 18 19  2  0  0  0  0
 18 23  1  0  0  0  0
 19 20  1  0  0  0  0
 20 21  2  0  0  0  0
 21 22  1  0  0  0  0
 21 27  1  0  0  0  0
 22 23  2  0  0  0  0
 22 25  1  0  0  0  0
 23 24  1  0  0  0  0
 25 26  2  0  0  0  0
 26 27  1  0  0  0  0
M  END
>  <CHROM.1>
132.71218554,-68.08027552,-175.66224433,177.69989537,50.75338656,93.32915099
45.05010236,37.76077556,17.47363029,73.78983134,1.22031247,-1.39284840,0.18344452

>  <Name>
ligand

>  <RI>
0

>  <Rbt.Current_Directory>
/home/itssahil/PROJECTS/Mol_Feturizer/New_Systems/rnas/2QWY

>  <Rbt.Executable>
rbdock ($Id: //depot/dev/client3/rdock/2013.1/src/exe/rbdock.cxx#4 $)

>  <Rbt.Library>
libRbt.so (2013.1, Build901 2013/11/27)

>  <Rbt.Parameter_File>
/export/apps/rDock/src/rDock_2013.1_src/data/scripts/dock_solv.prm

>  <Rbt.Receptor>
prm/pocket_docking_7.prm

>  <SCORE>
-10.603

>  <SCORE.INTER>
-8.8849

>  <SCORE.INTER.CONST>
1

>  <SCORE.INTER.POLAR>
0

>  <SCORE.INTER.ROT>
7

>  <SCORE.INTER.SOLV>
5.36968

>  <SCORE.INTER.VDW>
-15.9798

>  <SCORE.INTER.norm>
-0.32907

>  <SCORE.INTRA>
-1.71814

>  <SCORE.INTRA.DIHEDRAL>
-4.104

>  <SCORE.INTRA.DIHEDRAL.0>
10.7382

>  <SCORE.INTRA.POLAR>
0

>  <SCORE.INTRA.POLAR.0>
0

>  <SCORE.INTRA.REPUL>
0

>  <SCORE.INTRA.REPUL.0>
0

>  <SCORE.INTRA.SOLV>
-0.291896

>  <SCORE.INTRA.SOLV.lig_0>
-49.2501

>  <SCORE.INTRA.VDW>
0.479805

>  <SCORE.INTRA.VDW.0>
-1.75368

>  <SCORE.INTRA.norm>
-0.0636349

>  <SCORE.RESTR>
0

>  <SCORE.RESTR.CAVITY>
0

>  <SCORE.RESTR.norm>
0

>  <SCORE.SYSTEM>
0

>  <SCORE.SYSTEM.CONST>
0

>  <SCORE.SYSTEM.DIHEDRAL>
0

>  <SCORE.SYSTEM.SOLV>
0

>  <SCORE.SYSTEM.norm>
0

>  <SCORE.heavy>
27

>  <SCORE.norm>
-0.392705

>  <RMSD>
9.163

$$$$
ligand
 OpenBabel11021811463D
libRbt.so/2013.1/901 2013/11/27
 27 29  0  0  0  0  0  0  0  0999 V2000
   22.1643   20.1251   74.9907 N   0  0  0  0  0  0  0  0  0  0  0  0
   23.1091   21.2086   74.6684 C   0  0  2  0  0  0  0  0  0  0  0  0
   24.4643   20.6307   74.3170 C   0  0  0  0  0  0  0  0  0  0  0  0
   24.6151   19.4071   74.2407 O   0  0  0  0  0  0  0  0  0  0  0  0
   23.2594   22.1184   75.8833 C   0  0  0  0  0  0  0  0  0  0  0  0
   23.2439   21.3051   77.1599 C   0  0  0  0  0  0  0  0  0  0  0  0
   24.7375   20.2983   77.1910 S   0  0  2  0  0  0  0  0  0  0  0  0
   24.5617   19.6010   78.8567 C   0  0  0  0  0  0  0  0  0  0  0  0
   26.0016   21.5789   77.4972 C   0  0  0  0  0  0  0  0  0  0  0  0
   27.3499   21.0670   76.9975 C   0  0  1  0  0  0  0  0  0  0  0  0
   28.3405   21.9668   77.4369 O   0  0  0  0  0  0  0  0  0  0  0  0
   27.7023   19.7111   77.6186 C   0  0  1  0  0  0  0  0  0  0  0  0
   27.2887   18.4932   76.9801 O   0  0  0  0  0  0  0  0  0  0  0  0
   29.2370   19.8290   77.8997 C   0  0  1  0  0  0  0  0  0  0  0  0
   29.8787   18.6408   77.4057 O   0  0  0  0  0  0  0  0  0  0  0  0
   29.5786   21.2752   77.3932 C   0  0  2  0  0  0  0  0  0  0  0  0
   25.3889   21.3799   74.0403 O   0  0  0  0  0  0  0  0  0  0  0  0
   33.8636   20.9771   80.3348 N   0  0  0  0  0  0  0  0  0  0  0  0
   33.2410   19.9994   79.6668 C   0  0  0  0  0  0  0  0  0  0  0  0
   32.1339   20.2299   78.9666 N   0  0  0  0  0  0  0  0  0  0  0  0
   31.6057   21.4643   78.8819 C   0  0  0  0  0  0  0  0  0  0  0  0
   32.2369   22.5412   79.5602 C   0  0  0  0  0  0  0  0  0  0  0  0
   33.4144   22.2462   80.3092 C   0  0  0  0  0  0  0  0  0  0  0  0
   34.0915   23.2408   80.9898 N   0  0  0  0  0  0  0  0  0  0  0  0
   31.5132   23.6555   79.3048 N   0  0  0  0  0  0  0  0  0  0  0  0
   30.5100   23.3467   78.5352 C   0  0  0  0  0  0  0  0  0  0  0  0
   30.5232   22.0041   78.2465 N   0  0  0  0  0  0  0  0  0  0  0  0
  2  1  1  1  0  0  0
  2  3  1  0  0  0  0
  2  5  1  0  0  0  0
  3  4  1  0  0  0  0
  3 17  1  0  0  0  0
  5  6  1  0  0  0  0
  7  6  1  1  0  0  0
  7  8  1  0  0  0  0
  7  9  1  0  0  0  0
 10  9  1  1  0  0  0
 10 11  1  0  0  0  0
 10 12  1  0  0  0  0
 11 16  1  0  0  0  0
 12 13  1  6  0  0  0
 12 14  1  0  0  0  0
 14 15  1  6  0  0  0
 14 16  1  0  0  0  0
 16 27  1  1  0  0  0
 18 19  2  0  0  0  0
 18 23  1  0  0  0  0
 19 20  1  0  0  0  0
 20 21  2  0  0  0  0
 21 22  1  0  0  0  0
 21 27  1  0  0  0  0
 22 23  2  0  0  0  0
 22 25  1  0  0  0  0
 23 24  1  0  0  0  0
 25 26  2  0  0  0  0
 26 27  1  0  0  0  0
M  END
>  <CHROM.1>
5.02919856,37.62436258,67.21953984,173.86131210,-156.69977618,-170.53752660
153.64275551,28.02389628,20.96920685,77.52983568,-2.94851037,-0.40210735
0.16531521

>  <Name>
ligand

>  <RI>
0

>  <Rbt.Current_Directory>
/home/itssahil/PROJECTS/Mol_Feturizer/New_Systems/rnas/2QWY

>  <Rbt.Executable>
rbdock ($Id: //depot/dev/client3/rdock/2013.1/src/exe/rbdock.cxx#4 $)

>  <Rbt.Library>
libRbt.so (2013.1, Build901 2013/11/27)

>  <Rbt.Parameter_File>
/export/apps/rDock/src/rDock_2013.1_src/data/scripts/dock_solv.prm

>  <Rbt.Receptor>
prm/pocket_docking_7.prm

>  <SCORE>
-22.4854

>  <SCORE.INTER>
-22.408

>  <SCORE.INTER.CONST>
1

>  <SCORE.INTER.POLAR>
0

>  <SCORE.INTER.ROT>
7

>  <SCORE.INTER.SOLV>
9.29353

>  <SCORE.INTER.VDW>
-26.3032

>  <SCORE.INTER.norm>
-0.829928

>  <SCORE.INTRA>
-0.0773161

>  <SCORE.INTRA.DIHEDRAL>
-2.83517

>  <SCORE.INTRA.DIHEDRAL.0>
10.7382

>  <SCORE.INTRA.POLAR>
0

>  <SCORE.INTRA.POLAR.0>
0

>  <SCORE.INTRA.REPUL>
0

>  <SCORE.INTRA.REPUL.0>
0

>  <SCORE.INTRA.SOLV>
1.29379

>  <SCORE.INTRA.SOLV.lig_0>
-49.2501

>  <SCORE.INTRA.VDW>
0.693371

>  <SCORE.INTRA.VDW.0>
-1.75368

>  <SCORE.INTRA.norm>
-0.00286356

>  <SCORE.RESTR>
0

>  <SCORE.RESTR.CAVITY>
0

>  <SCORE.RESTR.norm>
0

>  <SCORE.SYSTEM>
0

>  <SCORE.SYSTEM.CONST>
0

>  <SCORE.SYSTEM.DIHEDRAL>
0

>  <SCORE.SYSTEM.SOLV>
0

>  <SCORE.SYSTEM.norm>
0

>  <SCORE.heavy>
27

>  <SCORE.norm>
-0.832791

>  <RMSD>
9.173

$$$$
ligand
 OpenBabel11021811463D
libRbt.so/2013.1/901 2013/11/27
 27 29  0  0  0  0  0  0  0  0999 V2000
   21.5696   19.6048   75.5320 N   0  0  0  0  0  0  0  0  0  0  0  0
   22.6982   20.3857   74.9960 C   0  0  2  0  0  0  0  0  0  0  0  0
   23.6829   19.4684   74.3011 C   0  0  0  0  0  0  0  0  0  0  0  0
   24.5545   19.9399   73.5637 O   0  0  0  0  0  0  0  0  0  0  0  0
   23.4076   21.0927   76.1463 C   0  0  0  0  0  0  0  0  0  0  0  0
   23.7359   20.1106   77.2504 C   0  0  0  0  0  0  0  0  0  0  0  0
   25.3360   19.3729   76.8752 S   0  0  2  0  0  0  0  0  0  0  0  0
   25.3312   18.0599   78.1273 C   0  0  0  0  0  0  0  0  0  0  0  0
   26.4570   20.5797   77.6617 C   0  0  0  0  0  0  0  0  0  0  0  0
   27.8682   20.3626   77.1222 C   0  0  1  0  0  0  0  0  0  0  0  0
   28.6317   21.5011   77.4465 O   0  0  0  0  0  0  0  0  0  0  0  0
   28.5576   19.1792   77.8098 C   0  0  1  0  0  0  0  0  0  0  0  0
   28.4222   17.8530   77.2759 O   0  0  0  0  0  0  0  0  0  0  0  0
   30.0295   19.6759   77.9970 C   0  0  1  0  0  0  0  0  0  0  0  0
   30.9166   18.6378   77.5465 O   0  0  0  0  0  0  0  0  0  0  0  0
   29.9964   21.1188   77.3792 C   0  0  2  0  0  0  0  0  0  0  0  0
   23.6565   18.2682   74.5280 O   0  0  0  0  0  0  0  0  0  0  0  0
   34.7026   22.5218   79.1073 N   0  0  0  0  0  0  0  0  0  0  0  0
   34.3623   21.4364   78.4032 C   0  0  0  0  0  0  0  0  0  0  0  0
   33.1020   21.2042   78.0472 N   0  0  0  0  0  0  0  0  0  0  0  0
   32.1176   22.0657   78.3616 C   0  0  0  0  0  0  0  0  0  0  0  0
   32.4280   23.2418   79.0954 C   0  0  0  0  0  0  0  0  0  0  0  0
   33.7901   23.4444   79.4670 C   0  0  0  0  0  0  0  0  0  0  0  0
   34.1742   24.5682   80.1743 N   0  0  0  0  0  0  0  0  0  0  0  0
   31.2724   23.9244   79.2669 N   0  0  0  0  0  0  0  0  0  0  0  0
   30.3005   23.2683   78.7022 C   0  0  0  0  0  0  0  0  0  0  0  0
   30.7719   22.1124   78.1295 N   0  0  0  0  0  0  0  0  0  0  0  0
  2  1  1  1  0  0  0
  2  3  1  0  0  0  0
  2  5  1  0  0  0  0
  3  4  1  0  0  0  0
  3 17  1  0  0  0  0
  5  6  1  0  0  0  0
  7  6  1  1  0  0  0
  7  8  1  0  0  0  0
  7  9  1  0  0  0  0
 10  9  1  1  0  0  0
 10 11  1  0  0  0  0
 10 12  1  0  0  0  0
 11 16  1  0  0  0  0
 12 13  1  6  0  0  0
 12 14  1  0  0  0  0
 14 15  1  6  0  0  0
 14 16  1  0  0  0  0
 16 27  1  1  0  0  0
 18 19  2  0  0  0  0
 18 23  1  0  0  0  0
 19 20  1  0  0  0  0
 20 21  2  0  0  0  0
 21 22  1  0  0  0  0
 21 27  1  0  0  0  0
 22 23  2  0  0  0  0
 22 25  1  0  0  0  0
 23 24  1  0  0  0  0
 25 26  2  0  0  0  0
 26 27  1  0  0  0  0
M  END
>  <CHROM.1>
165.78655322,50.92193045,87.36084177,-169.82118607,-163.79676744,164.35833804
176.40853264,28.32592083,20.70386505,77.34631467,2.77994354,0.28052920,-2.95863745

>  <Name>
ligand

>  <RI>
0

>  <Rbt.Current_Directory>
/home/itssahil/PROJECTS/Mol_Feturizer/New_Systems/rnas/2QWY

>  <Rbt.Executable>
rbdock ($Id: //depot/dev/client3/rdock/2013.1/src/exe/rbdock.cxx#4 $)

>  <Rbt.Library>
libRbt.so (2013.1, Build901 2013/11/27)

>  <Rbt.Parameter_File>
/export/apps/rDock/src/rDock_2013.1_src/data/scripts/dock_solv.prm

>  <Rbt.Receptor>
prm/pocket_docking_6.prm

>  <SCORE>
-24.4428

>  <SCORE.INTER>
-23.3495

>  <SCORE.INTER.CONST>
1

>  <SCORE.INTER.POLAR>
0

>  <SCORE.INTER.ROT>
7

>  <SCORE.INTER.SOLV>
12.1333

>  <SCORE.INTER.VDW>
-27.8774

>  <SCORE.INTER.norm>
-0.864796

>  <SCORE.INTRA>
-1.09333

>  <SCORE.INTRA.DIHEDRAL>
-1.51458

>  <SCORE.INTRA.DIHEDRAL.0>
10.7382

>  <SCORE.INTRA.POLAR>
0

>  <SCORE.INTRA.POLAR.0>
0

>  <SCORE.INTRA.REPUL>
0

>  <SCORE.INTRA.REPUL.0>
0

>  <SCORE.INTRA.SOLV>
0.463046

>  <SCORE.INTRA.SOLV.lig_0>
-49.2501

>  <SCORE.INTRA.VDW>
-0.567559

>  <SCORE.INTRA.VDW.0>
-1.75368

>  <SCORE.INTRA.norm>
-0.0404935

>  <SCORE.RESTR>
0

>  <SCORE.RESTR.CAVITY>
0

>  <SCORE.RESTR.norm>
0

>  <SCORE.SYSTEM>
0

>  <SCORE.SYSTEM.CONST>
0

>  <SCORE.SYSTEM.DIHEDRAL>
0

>  <SCORE.SYSTEM.SOLV>
0

>  <SCORE.SYSTEM.norm>
0

>  <SCORE.heavy>
27

>  <SCORE.norm>
-0.905289

>  <RMSD>
9.177

$$$$
ligand
 OpenBabel11021811463D
libRbt.so/2013.1/901 2013/11/27
 27 29  0  0  0  0  0  0  0  0999 V2000
   24.7986   22.0657   75.0771 N   0  0  0  0  0  0  0  0  0  0  0  0
   24.3906   23.1747   75.9571 C   0  0  2  0  0  0  0  0  0  0  0  0
   23.3533   24.0344   75.2649 C   0  0  0  0  0  0  0  0  0  0  0  0
   23.4735   24.3054   74.0658 O   0  0  0  0  0  0  0  0  0  0  0  0
   25.6101   24.0328   76.2777 C   0  0  0  0  0  0  0  0  0  0  0  0
   26.4023   23.4244   77.4151 C   0  0  0  0  0  0  0  0  0  0  0  0
   27.2476   21.9657   76.7804 S   0  0  2  0  0  0  0  0  0  0  0  0
   26.2268   20.6924   77.5730 C   0  0  0  0  0  0  0  0  0  0  0  0
   28.7196   21.9323   77.8592 C   0  0  0  0  0  0  0  0  0  0  0  0
   29.6809   20.8641   77.3449 C   0  0  1  0  0  0  0  0  0  0  0  0
   30.9615   21.1587   77.8523 O   0  0  0  0  0  0  0  0  0  0  0  0
   29.3198   19.4757   77.8838 C   0  0  1  0  0  0  0  0  0  0  0  0
   28.4029   18.6363   77.1649 O   0  0  0  0  0  0  0  0  0  0  0  0
   30.7128   18.8324   78.1907 C   0  0  1  0  0  0  0  0  0  0  0  0
   30.7312   17.5081   77.6308 O   0  0  0  0  0  0  0  0  0  0  0  0
   31.7218   19.9630   77.7804 C   0  0  2  0  0  0  0  0  0  0  0  0
   22.3620   24.3994   75.8787 O   0  0  0  0  0  0  0  0  0  0  0  0
   36.8409   19.2776   78.4352 N   0  0  0  0  0  0  0  0  0  0  0  0
   36.0891   18.9786   77.3698 C   0  0  0  0  0  0  0  0  0  0  0  0
   34.7773   19.1982   77.3594 N   0  0  0  0  0  0  0  0  0  0  0  0
   34.1539   19.7535   78.4145 C   0  0  0  0  0  0  0  0  0  0  0  0
   34.9091   20.1040   79.5656 C   0  0  0  0  0  0  0  0  0  0  0  0
   36.3104   19.8393   79.5381 C   0  0  0  0  0  0  0  0  0  0  0  0
   37.1154   20.1593   80.6153 N   0  0  0  0  0  0  0  0  0  0  0  0
   34.0491   20.6420   80.4610 N   0  0  0  0  0  0  0  0  0  0  0  0
   32.8511   20.6485   79.9524 C   0  0  0  0  0  0  0  0  0  0  0  0
   32.8637   20.1092   78.6895 N   0  0  0  0  0  0  0  0  0  0  0  0
  2  1  1  6  0  0  0
  2  3  1  0  0  0  0
  2  5  1  0  0  0  0
  3  4  1  0  0  0  0
  3 17  1  0  0  0  0
  5  6  1  0  0  0  0
  7  6  1  1  0  0  0
  7  8  1  0  0  0  0
  7  9  1  0  0  0  0
 10  9  1  1  0  0  0
 10 11  1  0  0  0  0
 10 12  1  0  0  0  0
 11 16  1  0  0  0  0
 12 13  1  6  0  0  0
 12 14  1  0  0  0  0
 14 15  1  6  0  0  0
 14 16  1  0  0  0  0
 16 27  1  1  0  0  0
 18 19  2  0  0  0  0
 18 23  1  0  0  0  0
 19 20  1  0  0  0  0
 20 21  2  0  0  0  0
 21 22  1  0  0  0  0
 21 27  1  0  0  0  0
 22 23  2  0  0  0  0
 22 25  1  0  0  0  0
 23 24  1  0  0  0  0
 25 26  2  0  0  0  0
 26 27  1  0  0  0  0
M  END
>  <CHROM.1>
-40.89396653,-82.63169294,72.93093832,-106.66073653,-171.98879032,159.40733801
-136.29766159,29.85694005,21.00418435,77.55641675,2.86634884,-0.33359784
0.14454742

>  <Name>
ligand

>  <RI>
0

>  <Rbt.Current_Directory>
/home/itssahil/PROJECTS/Mol_Feturizer/New_Systems/rnas/2QWY

>  <Rbt.Executable>
rbdock ($Id: //depot/dev/client3/rdock/2013.1/src/exe/rbdock.cxx#4 $)

>  <Rbt.Library>
libRbt.so (2013.1, Build901 2013/11/27)

>  <Rbt.Parameter_File>
/export/apps/rDock/src/rDock_2013.1_src/data/scripts/dock_solv.prm

>  <Rbt.Receptor>
prm/pocket_docking_7.prm

>  <SCORE>
-17.6053

>  <SCORE.INTER>
-18.1063

>  <SCORE.INTER.CONST>
1

>  <SCORE.INTER.POLAR>
0

>  <SCORE.INTER.ROT>
7

>  <SCORE.INTER.SOLV>
12.5739

>  <SCORE.INTER.VDW>
-24.5288

>  <SCORE.INTER.norm>
-0.670603

>  <SCORE.INTRA>
0.501009

>  <SCORE.INTRA.DIHEDRAL>
0.270081

>  <SCORE.INTRA.DIHEDRAL.0>
10.7382

>  <SCORE.INTRA.POLAR>
0

>  <SCORE.INTRA.POLAR.0>
0

>  <SCORE.INTRA.REPUL>
0

>  <SCORE.INTRA.REPUL.0>
0

>  <SCORE.INTRA.SOLV>
1.94735

>  <SCORE.INTRA.SOLV.lig_0>
-49.2501

>  <SCORE.INTRA.VDW>
-0.607709

>  <SCORE.INTRA.VDW.0>
-1.75368

>  <SCORE.INTRA.norm>
0.0185559

>  <SCORE.RESTR>
0

>  <SCORE.RESTR.CAVITY>
0

>  <SCORE.RESTR.norm>
0

>  <SCORE.SYSTEM>
0

>  <SCORE.SYSTEM.CONST>
0

>  <SCORE.SYSTEM.DIHEDRAL>
0

>  <SCORE.SYSTEM.SOLV>
0

>  <SCORE.SYSTEM.norm>
0

>  <SCORE.heavy>
27

>  <SCORE.norm>
-0.652048

>  <RMSD>
9.188

$$$$
ligand
 OpenBabel11021811463D
libRbt.so/2013.1/901 2013/11/27
 27 29  0  0  0  0  0  0  0  0999 V2000
   34.6538   22.2479   83.3221 N   0  0  0  0  0  0  0  0  0  0  0  0
   33.2288   22.6140   83.2450 C   0  0  2  0  0  0  0  0  0  0  0  0
   32.3651   21.3772   83.3808 C   0  0  0  0  0  0  0  0  0  0  0  0
   31.2526   21.4538   83.9122 O   0  0  0  0  0  0  0  0  0  0  0  0
   32.9524   23.2644   81.8934 C   0  0  0  0  0  0  0  0  0  0  0  0
   33.2981   22.3140   80.7671 C   0  0  0  0  0  0  0  0  0  0  0  0
   33.1759   23.2260   79.2183 S   0  0  2  0  0  0  0  0  0  0  0  0
   31.3687   23.3484   79.1157 C   0  0  0  0  0  0  0  0  0  0  0  0
   33.4888   21.8904   78.0143 C   0  0  0  0  0  0  0  0  0  0  0  0
   34.9659   21.9115   77.6305 C   0  0  1  0  0  0  0  0  0  0  0  0
   35.1646   20.9360   76.6340 O   0  0  0  0  0  0  0  0  0  0  0  0
   35.3642   23.2501   76.9997 C   0  0  1  0  0  0  0  0  0  0  0  0
   35.8239   24.3311   77.8257 O   0  0  0  0  0  0  0  0  0  0  0  0
   36.3354   22.8325   75.8461 C   0  0  1  0  0  0  0  0  0  0  0  0
   37.5075   23.6621   75.9207 O   0  0  0  0  0  0  0  0  0  0  0  0
   36.3702   21.2673   75.9632 C   0  0  2  0  0  0  0  0  0  0  0  0
   32.7424   20.3193   82.9001 O   0  0  0  0  0  0  0  0  0  0  0  0
   39.2215   18.7868   72.3826 N   0  0  0  0  0  0  0  0  0  0  0  0
   39.6262   19.3531   73.5252 C   0  0  0  0  0  0  0  0  0  0  0  0
   38.7729   19.9723   74.3360 N   0  0  0  0  0  0  0  0  0  0  0  0
   37.4595   20.0350   74.0512 C   0  0  0  0  0  0  0  0  0  0  0  0
   36.9753   19.4362   72.8574 C   0  0  0  0  0  0  0  0  0  0  0  0
   37.9272   18.7938   72.0114 C   0  0  0  0  0  0  0  0  0  0  0  0
   37.5341   18.1803   70.8367 N   0  0  0  0  0  0  0  0  0  0  0  0
   35.6377   19.6370   72.8218 N   0  0  0  0  0  0  0  0  0  0  0  0
   35.2762   20.2973   73.8835 C   0  0  0  0  0  0  0  0  0  0  0  0
   36.3662   20.5673   74.6741 N   0  0  0  0  0  0  0  0  0  0  0  0
  2  1  1  6  0  0  0
  2  3  1  0  0  0  0
  2  5  1  0  0  0  0
  3  4  1  0  0  0  0
  3 17  1  0  0  0  0
  5  6  1  0  0  0  0
  7  6  1  1  0  0  0
  7  8  1  0  0  0  0
  7  9  1  0  0  0  0
 10  9  1  6  0  0  0
 10 11  1  0  0  0  0
 10 12  1  0  0  0  0
 11 16  1  0  0  0  0
 12 13  1  1  0  0  0
 12 14  1  0  0  0  0
 14 15  1  1  0  0  0
 14 16  1  0  0  0  0
 16 27  1  6  0  0  0
 18 19  2  0  0  0  0
 18 23  1  0  0  0  0
 19 20  1  0  0  0  0
 20 21  2  0  0  0  0
 21 22  1  0  0  0  0
 21 27  1  0  0  0  0
 22 23  2  0  0  0  0
 22 25  1  0  0  0  0
 23 24  1  0  0  0  0
 25 26  2  0  0  0  0
 26 27  1  0  0  0  0
M  END
>  <CHROM.1>
148.34583636,59.23117418,-171.90336606,-73.08710530,-96.04881766,-175.98481931
-144.28531076,35.19416862,21.45335633,77.40017008,2.88527648,1.07048981,0.00849549

>  <Name>
ligand

>  <RI>
0

>  <Rbt.Current_Directory>
/home/itssahil/PROJECTS/Mol_Feturizer/New_Systems/rnas/2QWY

>  <Rbt.Executable>
rbdock ($Id: //depot/dev/client3/rdock/2013.1/src/exe/rbdock.cxx#4 $)

>  <Rbt.Library>
libRbt.so (2013.1, Build901 2013/11/27)

>  <Rbt.Parameter_File>
/export/apps/rDock/src/rDock_2013.1_src/data/scripts/dock_solv.prm

>  <Rbt.Receptor>
prm/pocket_docking_7.prm

>  <SCORE>
-12.4334

>  <SCORE.INTER>
-10.2086

>  <SCORE.INTER.CONST>
1

>  <SCORE.INTER.POLAR>
0

>  <SCORE.INTER.ROT>
7

>  <SCORE.INTER.SOLV>
9.16077

>  <SCORE.INTER.VDW>
-18.126

>  <SCORE.INTER.norm>
-0.378095

>  <SCORE.INTRA>
-2.22486

>  <SCORE.INTRA.DIHEDRAL>
-5.52489

>  <SCORE.INTRA.DIHEDRAL.0>
10.7382

>  <SCORE.INTRA.POLAR>
0

>  <SCORE.INTRA.POLAR.0>
0

>  <SCORE.INTRA.REPUL>
0

>  <SCORE.INTRA.REPUL.0>
0

>  <SCORE.INTRA.SOLV>
-0.282499

>  <SCORE.INTRA.SOLV.lig_0>
-49.2501

>  <SCORE.INTRA.VDW>
0.678832

>  <SCORE.INTRA.VDW.0>
-1.75368

>  <SCORE.INTRA.norm>
-0.0824023

>  <SCORE.RESTR>
0

>  <SCORE.RESTR.CAVITY>
0

>  <SCORE.RESTR.norm>
0

>  <SCORE.SYSTEM>
0

>  <SCORE.SYSTEM.CONST>
0

>  <SCORE.SYSTEM.DIHEDRAL>
0

>  <SCORE.SYSTEM.SOLV>
0

>  <SCORE.SYSTEM.norm>
0

>  <SCORE.heavy>
27

>  <SCORE.norm>
-0.460497

>  <RMSD>
9.193

$$$$
ligand
 OpenBabel11021811463D
libRbt.so/2013.1/901 2013/11/27
 27 29  0  0  0  0  0  0  0  0999 V2000
   23.0165   21.4497   72.7768 N   0  0  0  0  0  0  0  0  0  0  0  0
   24.2300   20.8538   73.3623 C   0  0  2  0  0  0  0  0  0  0  0  0
   23.8624   19.6634   74.2236 C   0  0  0  0  0  0  0  0  0  0  0  0
   24.7466   19.0068   74.7829 O   0  0  0  0  0  0  0  0  0  0  0  0
   24.9292   21.8951   74.2301 C   0  0  0  0  0  0  0  0  0  0  0  0
   23.9736   22.4521   75.2635 C   0  0  0  0  0  0  0  0  0  0  0  0
   24.0644   21.4001   76.7230 S   0  0  2  0  0  0  0  0  0  0  0  0
   22.7520   22.1799   77.7034 C   0  0  0  0  0  0  0  0  0  0  0  0
   25.5446   22.0856   77.5420 C   0  0  0  0  0  0  0  0  0  0  0  0
   26.7825   21.3944   76.9770 C   0  0  1  0  0  0  0  0  0  0  0  0
   27.9060   22.1639   77.3371 O   0  0  0  0  0  0  0  0  0  0  0  0
   26.9935   20.0139   77.6081 C   0  0  1  0  0  0  0  0  0  0  0  0
   26.3879   18.8506   77.0232 O   0  0  0  0  0  0  0  0  0  0  0  0
   28.5448   19.9349   77.7970 C   0  0  1  0  0  0  0  0  0  0  0  0
   28.9963   18.6655   77.2944 O   0  0  0  0  0  0  0  0  0  0  0  0
   29.0392   21.3160   77.2378 C   0  0  2  0  0  0  0  0  0  0  0  0
   22.6860   19.3982   74.4199 O   0  0  0  0  0  0  0  0  0  0  0  0
   33.8029   20.7037   79.2468 N   0  0  0  0  0  0  0  0  0  0  0  0
   33.0755   19.8282   78.5438 C   0  0  0  0  0  0  0  0  0  0  0  0
   31.8545   20.1274   78.1094 N   0  0  0  0  0  0  0  0  0  0  0  0
   31.3078   21.3349   78.3399 C   0  0  0  0  0  0  0  0  0  0  0  0
   32.0446   22.3066   79.0686 C   0  0  0  0  0  0  0  0  0  0  0  0
   33.3446   21.9387   79.5260 C   0  0  0  0  0  0  0  0  0  0  0  0
   34.1277   22.8309   80.2342 N   0  0  0  0  0  0  0  0  0  0  0  0
   31.2751   23.4166   79.1487 N   0  0  0  0  0  0  0  0  0  0  0  0
   30.1484   23.2009   78.5340 C   0  0  0  0  0  0  0  0  0  0  0  0
   30.1201   21.9286   78.0177 N   0  0  0  0  0  0  0  0  0  0  0  0
  2  1  1  1  0  0  0
  2  3  1  0  0  0  0
  2  5  1  0  0  0  0
  3  4  1  0  0  0  0
  3 17  1  0  0  0  0
  5  6  1  0  0  0  0
  7  6  1  6  0  0  0
  7  8  1  0  0  0  0
  7  9  1  0  0  0  0
 10  9  1  1  0  0  0
 10 11  1  0  0  0  0
 10 12  1  0  0  0  0
 11 16  1  0  0  0  0
 12 13  1  6  0  0  0
 12 14  1  0  0  0  0
 14 15  1  6  0  0  0
 14 16  1  0  0  0  0
 16 27  1  1  0  0  0
 18 19  2  0  0  0  0
 18 23  1  0  0  0  0
 19 20  1  0  0  0  0
 20 21  2  0  0  0  0
 21 22  1  0  0  0  0
 21 27  1  0  0  0  0
 22 23  2  0  0  0  0
 22 25  1  0  0  0  0
 23 24  1  0  0  0  0
 25 26  2  0  0  0  0
 26 27  1  0  0  0  0
M  END
>  <CHROM.1>
178.47587365,54.63038585,88.59050508,-175.11018333,-86.66888849,164.42003083
169.67750762,27.67088741,21.09848230,77.01523138,2.89207634,0.36548338,-2.71502320

>  <Name>
ligand

>  <RI>
0

>  <Rbt.Current_Directory>
/home/itssahil/PROJECTS/Mol_Feturizer/New_Systems/rnas/2QWY

>  <Rbt.Executable>
rbdock ($Id: //depot/dev/client3/rdock/2013.1/src/exe/rbdock.cxx#4 $)

>  <Rbt.Library>
libRbt.so (2013.1, Build901 2013/11/27)

>  <Rbt.Parameter_File>
/export/apps/rDock/src/rDock_2013.1_src/data/scripts/dock_solv.prm

>  <Rbt.Receptor>
prm/pocket_docking_8.prm

>  <SCORE>
-25.0237

>  <SCORE.INTER>
-22.8012

>  <SCORE.INTER.CONST>
1

>  <SCORE.INTER.POLAR>
0

>  <SCORE.INTER.ROT>
7

>  <SCORE.INTER.SOLV>
9.24168

>  <SCORE.INTER.VDW>
-26.548

>  <SCORE.INTER.norm>
-0.844488

>  <SCORE.INTRA>
-2.22252

>  <SCORE.INTRA.DIHEDRAL>
-2.77807

>  <SCORE.INTRA.DIHEDRAL.0>
10.7382

>  <SCORE.INTRA.POLAR>
0

>  <SCORE.INTRA.POLAR.0>
0

>  <SCORE.INTRA.REPUL>
0

>  <SCORE.INTRA.REPUL.0>
0

>  <SCORE.INTRA.SOLV>
0.436637

>  <SCORE.INTRA.SOLV.lig_0>
-49.2501

>  <SCORE.INTRA.VDW>
-1.05181

>  <SCORE.INTRA.VDW.0>
-1.75368

>  <SCORE.INTRA.norm>
-0.0823157

>  <SCORE.RESTR>
0

>  <SCORE.RESTR.CAVITY>
0

>  <SCORE.RESTR.norm>
0

>  <SCORE.SYSTEM>
0

>  <SCORE.SYSTEM.CONST>
0

>  <SCORE.SYSTEM.DIHEDRAL>
0

>  <SCORE.SYSTEM.SOLV>
0

>  <SCORE.SYSTEM.norm>
0

>  <SCORE.heavy>
27

>  <SCORE.norm>
-0.926804

>  <RMSD>
9.200

$$$$
ligand
 OpenBabel11021811463D
libRbt.so/2013.1/901 2013/11/27
 27 29  0  0  0  0  0  0  0  0999 V2000
   32.8237   19.9894   80.4213 N   0  0  0  0  0  0  0  0  0  0  0  0
   32.7613   20.3353   78.9905 C   0  0  2  0  0  0  0  0  0  0  0  0
   31.4664   19.8304   78.3885 C   0  0  0  0  0  0  0  0  0  0  0  0
   31.1436   18.6452   78.5183 O   0  0  0  0  0  0  0  0  0  0  0  0
   33.9324   19.6792   78.2664 C   0  0  0  0  0  0  0  0  0  0  0  0
   34.0053   20.1593   76.8326 C   0  0  0  0  0  0  0  0  0  0  0  0
   35.3364   19.2605   76.0167 S   0  0  2  0  0  0  0  0  0  0  0  0
   36.7462   20.1344   76.7518 C   0  0  0  0  0  0  0  0  0  0  0  0
   35.2957   20.0268   74.3606 C   0  0  0  0  0  0  0  0  0  0  0  0
   36.5116   19.5514   73.5698 C   0  0  1  0  0  0  0  0  0  0  0  0
   36.2621   18.2295   73.1522 O   0  0  0  0  0  0  0  0  0  0  0  0
   36.7062   20.3714   72.2899 C   0  0  1  0  0  0  0  0  0  0  0  0
   37.5028   21.5660   72.3099 O   0  0  0  0  0  0  0  0  0  0  0  0
   37.1374   19.2996   71.2347 C   0  0  1  0  0  0  0  0  0  0  0  0
   38.2897   19.7962   70.5324 O   0  0  0  0  0  0  0  0  0  0  0  0
   37.1335   17.9665   72.0638 C   0  0  2  0  0  0  0  0  0  0  0  0
   30.7095   20.6141   77.8357 O   0  0  0  0  0  0  0  0  0  0  0  0
   35.8379   15.9941   67.4232 N   0  0  0  0  0  0  0  0  0  0  0  0
   36.3245   17.2075   67.7072 C   0  0  0  0  0  0  0  0  0  0  0  0
   36.5922   17.5754   68.9570 N   0  0  0  0  0  0  0  0  0  0  0  0
   36.4059   16.7318   69.9883 C   0  0  0  0  0  0  0  0  0  0  0  0
   35.9055   15.4258   69.7395 C   0  0  0  0  0  0  0  0  0  0  0  0
   35.6204   15.0780   68.3859 C   0  0  0  0  0  0  0  0  0  0  0  0
   35.1390   13.8237   68.0606 N   0  0  0  0  0  0  0  0  0  0  0  0
   35.8221   14.7940   70.9330 N   0  0  0  0  0  0  0  0  0  0  0  0
   36.2283   15.5986   71.8720 C   0  0  0  0  0  0  0  0  0  0  0  0
   36.5991   16.8087   71.3387 N   0  0  0  0  0  0  0  0  0  0  0  0
  2  1  1  1  0  0  0
  2  3  1  0  0  0  0
  2  5  1  0  0  0  0
  3  4  1  0  0  0  0
  3 17  1  0  0  0  0
  5  6  1  0  0  0  0
  7  6  1  1  0  0  0
  7  8  1  0  0  0  0
  7  9  1  0  0  0  0
 10  9  1  6  0  0  0
 10 11  1  0  0  0  0
 10 12  1  0  0  0  0
 11 16  1  0  0  0  0
 12 13  1  1  0  0  0
 12 14  1  0  0  0  0
 14 15  1  1  0  0  0
 14 16  1  0  0  0  0
 16 27  1  6  0  0  0
 18 19  2  0  0  0  0
 18 23  1  0  0  0  0
 19 20  1  0  0  0  0
 20 21  2  0  0  0  0
 21 22  1  0  0  0  0
 21 27  1  0  0  0  0
 22 23  2  0  0  0  0
 22 25  1  0  0  0  0
 23 24  1  0  0  0  0
 25 26  2  0  0  0  0
 26 27  1  0  0  0  0
M  END
>  <CHROM.1>
-53.01398243,-172.54099524,-176.21846954,-75.24755556,171.02542087,75.94304433
130.79362038,35.32271741,18.43663197,73.41767681,2.02688504,0.71200173,0.88921746

>  <Name>
ligand

>  <RI>
0

>  <Rbt.Current_Directory>
/home/itssahil/PROJECTS/Mol_Feturizer/New_Systems/rnas/2QWY

>  <Rbt.Executable>
rbdock ($Id: //depot/dev/client3/rdock/2013.1/src/exe/rbdock.cxx#4 $)

>  <Rbt.Library>
libRbt.so (2013.1, Build901 2013/11/27)

>  <Rbt.Parameter_File>
/export/apps/rDock/src/rDock_2013.1_src/data/scripts/dock_solv.prm

>  <Rbt.Receptor>
prm/pocket_docking_5.prm

>  <SCORE>
-14.8852

>  <SCORE.INTER>
-11.4523

>  <SCORE.INTER.CONST>
1

>  <SCORE.INTER.POLAR>
0

>  <SCORE.INTER.ROT>
7

>  <SCORE.INTER.SOLV>
13.3626

>  <SCORE.INTER.VDW>
-20.3557

>  <SCORE.INTER.norm>
-0.424158

>  <SCORE.INTRA>
-3.43296

>  <SCORE.INTRA.DIHEDRAL>
-6.23402

>  <SCORE.INTRA.DIHEDRAL.0>
10.7382

>  <SCORE.INTRA.POLAR>
0

>  <SCORE.INTRA.POLAR.0>
0

>  <SCORE.INTRA.REPUL>
0

>  <SCORE.INTRA.REPUL.0>
0

>  <SCORE.INTRA.SOLV>
-1.14177

>  <SCORE.INTRA.SOLV.lig_0>
-49.2501

>  <SCORE.INTRA.VDW>
0.254941

>  <SCORE.INTRA.VDW.0>
-1.75368

>  <SCORE.INTRA.norm>
-0.127146

>  <SCORE.RESTR>
0

>  <SCORE.RESTR.CAVITY>
0

>  <SCORE.RESTR.norm>
0

>  <SCORE.SYSTEM>
0

>  <SCORE.SYSTEM.CONST>
0

>  <SCORE.SYSTEM.DIHEDRAL>
0

>  <SCORE.SYSTEM.SOLV>
0

>  <SCORE.SYSTEM.norm>
0

>  <SCORE.heavy>
27

>  <SCORE.norm>
-0.551305

>  <RMSD>
9.272

$$$$
ligand
 OpenBabel11021811463D
libRbt.so/2013.1/901 2013/11/27
 27 29  0  0  0  0  0  0  0  0999 V2000
   22.7841   20.8473   72.9859 N   0  0  0  0  0  0  0  0  0  0  0  0
   23.2495   22.1162   73.5723 C   0  0  2  0  0  0  0  0  0  0  0  0
   24.6875   22.3774   73.1748 C   0  0  0  0  0  0  0  0  0  0  0  0
   25.5669   21.5572   73.4568 O   0  0  0  0  0  0  0  0  0  0  0  0
   23.1653   22.0248   75.0924 C   0  0  0  0  0  0  0  0  0  0  0  0
   23.3291   23.3944   75.7158 C   0  0  0  0  0  0  0  0  0  0  0  0
   23.5165   23.1727   77.4938 S   0  0  2  0  0  0  0  0  0  0  0  0
   23.4722   24.9166   77.9922 C   0  0  0  0  0  0  0  0  0  0  0  0
   25.3076   22.8393   77.6056 C   0  0  0  0  0  0  0  0  0  0  0  0
   25.5742   21.4196   77.1126 C   0  0  1  0  0  0  0  0  0  0  0  0
   26.9702   21.2431   77.0464 O   0  0  0  0  0  0  0  0  0  0  0  0
   25.0607   20.3729   78.1071 C   0  0  1  0  0  0  0  0  0  0  0  0
   23.7144   19.8824   78.0108 O   0  0  0  0  0  0  0  0  0  0  0  0
   26.1743   19.2739   78.0842 C   0  0  1  0  0  0  0  0  0  0  0  0
   25.5394   17.9913   77.9451 O   0  0  0  0  0  0  0  0  0  0  0  0
   27.2128   19.8452   77.0548 C   0  0  2  0  0  0  0  0  0  0  0  0
   24.9627   23.3670   72.5132 O   0  0  0  0  0  0  0  0  0  0  0  0
   31.6803   22.1124   78.4709 N   0  0  0  0  0  0  0  0  0  0  0  0
   30.5141   22.6896   78.1603 C   0  0  0  0  0  0  0  0  0  0  0  0
   29.4563   21.9703   77.7960 N   0  0  0  0  0  0  0  0  0  0  0  0
   29.5087   20.6268   77.7469 C   0  0  0  0  0  0  0  0  0  0  0  0
   30.7194   19.9633   78.0821 C   0  0  0  0  0  0  0  0  0  0  0  0
   31.8319   20.7745   78.4549 C   0  0  0  0  0  0  0  0  0  0  0  0
   33.0420   20.2043   78.8034 N   0  0  0  0  0  0  0  0  0  0  0  0
   30.4964   18.6346   77.9577 N   0  0  0  0  0  0  0  0  0  0  0  0
   29.2654   18.4410   77.5824 C   0  0  0  0  0  0  0  0  0  0  0  0
   28.6141   19.6415   77.4379 N   0  0  0  0  0  0  0  0  0  0  0  0
  2  1  1  6  0  0  0
  2  3  1  0  0  0  0
  2  5  1  0  0  0  0
  3  4  1  0  0  0  0
  3 17  1  0  0  0  0
  5  6  1  0  0  0  0
  7  6  1  6  0  0  0
  7  8  1  0  0  0  0
  7  9  1  0  0  0  0
 10  9  1  1  0  0  0
 10 11  1  0  0  0  0
 10 12  1  0  0  0  0
 11 16  1  0  0  0  0
 12 13  1  6  0  0  0
 12 14  1  0  0  0  0
 14 15  1  6  0  0  0
 14 16  1  0  0  0  0
 16 27  1  1  0  0  0
 18 19  2  0  0  0  0
 18 23  1  0  0  0  0
 19 20  1  0  0  0  0
 20 21  2  0  0  0  0
 21 22  1  0  0  0  0
 21 27  1  0  0  0  0
 22 23  2  0  0  0  0
 22 25  1  0  0  0  0
 23 24  1  0  0  0  0
 25 26  2  0  0  0  0
 26 27  1  0  0  0  0
M  END
>  <CHROM.1>
-58.15093280,-167.10225985,-169.96521088,-173.04339865,-74.69472107,172.65648454
0.84257198,26.60373771,21.28553890,76.79219671,-2.66542220,0.07378978,2.32286097

>  <Name>
ligand

>  <RI>
0

>  <Rbt.Current_Directory>
/home/itssahil/PROJECTS/Mol_Feturizer/New_Systems/rnas/2QWY

>  <Rbt.Executable>
rbdock ($Id: //depot/dev/client3/rdock/2013.1/src/exe/rbdock.cxx#4 $)

>  <Rbt.Library>
libRbt.so (2013.1, Build901 2013/11/27)

>  <Rbt.Parameter_File>
/export/apps/rDock/src/rDock_2013.1_src/data/scripts/dock_solv.prm

>  <Rbt.Receptor>
prm/pocket_docking_8.prm

>  <SCORE>
-27.0298

>  <SCORE.INTER>
-22.7173

>  <SCORE.INTER.CONST>
1

>  <SCORE.INTER.POLAR>
0

>  <SCORE.INTER.ROT>
7

>  <SCORE.INTER.SOLV>
7.85236

>  <SCORE.INTER.VDW>
-26.029

>  <SCORE.INTER.norm>
-0.841381

>  <SCORE.INTRA>
-4.31254

>  <SCORE.INTRA.DIHEDRAL>
-5.56016

>  <SCORE.INTRA.DIHEDRAL.0>
10.7382

>  <SCORE.INTRA.POLAR>
0

>  <SCORE.INTRA.POLAR.0>
0

>  <SCORE.INTRA.REPUL>
0

>  <SCORE.INTRA.REPUL.0>
0

>  <SCORE.INTRA.SOLV>
-0.781998

>  <SCORE.INTRA.SOLV.lig_0>
-49.2501

>  <SCORE.INTRA.VDW>
-1.14147

>  <SCORE.INTRA.VDW.0>
-1.75368

>  <SCORE.INTRA.norm>
-0.159724

>  <SCORE.RESTR>
0

>  <SCORE.RESTR.CAVITY>
0

>  <SCORE.RESTR.norm>
0

>  <SCORE.SYSTEM>
0

>  <SCORE.SYSTEM.CONST>
0

>  <SCORE.SYSTEM.DIHEDRAL>
0

>  <SCORE.SYSTEM.SOLV>
0

>  <SCORE.SYSTEM.norm>
0

>  <SCORE.heavy>
27

>  <SCORE.norm>
-1.0011

>  <RMSD>
9.367

$$$$
ligand
 OpenBabel11021811463D
libRbt.so/2013.1/901 2013/11/27
 27 29  0  0  0  0  0  0  0  0999 V2000
   38.4989   22.9557   77.1052 N   0  0  0  0  0  0  0  0  0  0  0  0
   37.2444   23.3515   76.4417 C   0  0  2  0  0  0  0  0  0  0  0  0
   36.7917   24.7052   76.9481 C   0  0  0  0  0  0  0  0  0  0  0  0
   36.0256   25.3962   76.2688 O   0  0  0  0  0  0  0  0  0  0  0  0
   36.1659   22.3198   76.7562 C   0  0  0  0  0  0  0  0  0  0  0  0
   36.5756   20.9534   76.2499 C   0  0  0  0  0  0  0  0  0  0  0  0
   35.1440   19.8669   76.3738 S   0  0  2  0  0  0  0  0  0  0  0  0
   35.0315   19.7689   78.1819 C   0  0  0  0  0  0  0  0  0  0  0  0
   35.9111   18.2534   75.9994 C   0  0  0  0  0  0  0  0  0  0  0  0
   36.6943   18.3732   74.6949 C   0  0  1  0  0  0  0  0  0  0  0  0
   36.9840   17.0696   74.2468 O   0  0  0  0  0  0  0  0  0  0  0  0
   35.8534   19.0243   73.5915 C   0  0  1  0  0  0  0  0  0  0  0  0
   35.8540   20.4510   73.4278 O   0  0  0  0  0  0  0  0  0  0  0  0
   36.2357   18.2061   72.3138 C   0  0  1  0  0  0  0  0  0  0  0  0
   36.5249   19.1338   71.2539 O   0  0  0  0  0  0  0  0  0  0  0  0
   37.2723   17.1615   72.8606 C   0  0  2  0  0  0  0  0  0  0  0  0
   37.1303   25.0798   78.0606 O   0  0  0  0  0  0  0  0  0  0  0  0
   39.6336   12.6438   71.8031 N   0  0  0  0  0  0  0  0  0  0  0  0
   40.1478   13.7406   72.3709 C   0  0  0  0  0  0  0  0  0  0  0  0
   39.4160   14.8350   72.5603 N   0  0  0  0  0  0  0  0  0  0  0  0
   38.1180   14.8765   72.2088 C   0  0  0  0  0  0  0  0  0  0  0  0
   37.5190   13.7330   71.6158 C   0  0  0  0  0  0  0  0  0  0  0  0
   38.3440   12.5859   71.4200 C   0  0  0  0  0  0  0  0  0  0  0  0
   37.8335   11.4311   70.8573 N   0  0  0  0  0  0  0  0  0  0  0  0
   36.2241   14.0396   71.3713 N   0  0  0  0  0  0  0  0  0  0  0  0
   35.9917   15.2582   71.7649 C   0  0  0  0  0  0  0  0  0  0  0  0
   37.1311   15.8179   72.2891 N   0  0  0  0  0  0  0  0  0  0  0  0
  2  1  1  1  0  0  0
  2  3  1  0  0  0  0
  2  5  1  0  0  0  0
  3  4  1  0  0  0  0
  3 17  1  0  0  0  0
  5  6  1  0  0  0  0
  7  6  1  1  0  0  0
  7  8  1  0  0  0  0
  7  9  1  0  0  0  0
 10  9  1  1  0  0  0
 10 11  1  0  0  0  0
 10 12  1  0  0  0  0
 11 16  1  0  0  0  0
 12 13  1  6  0  0  0
 12 14  1  0  0  0  0
 14 15  1  6  0  0  0
 14 16  1  0  0  0  0
 16 27  1  6  0  0  0
 18 19  2  0  0  0  0
 18 23  1  0  0  0  0
 19 20  1  0  0  0  0
 20 21  2  0  0  0  0
 21 22  1  0  0  0  0
 21 27  1  0  0  0  0
 22 23  2  0  0  0  0
 22 25  1  0  0  0  0
 23 24  1  0  0  0  0
 25 26  2  0  0  0  0
 26 27  1  0  0  0  0
M  END
>  <CHROM.1>
158.05642142,-60.40424170,-169.51618760,-68.33748221,-51.96322806,-165.15285839
-88.75796132,36.92189719,18.41088591,74.21443901,2.80450282,1.41581823,-0.72896651

>  <Name>
ligand

>  <RI>
0

>  <Rbt.Current_Directory>
/home/itssahil/PROJECTS/Mol_Feturizer/New_Systems/rnas/2QWY

>  <Rbt.Executable>
rbdock ($Id: //depot/dev/client3/rdock/2013.1/src/exe/rbdock.cxx#4 $)

>  <Rbt.Library>
libRbt.so (2013.1, Build901 2013/11/27)

>  <Rbt.Parameter_File>
/export/apps/rDock/src/rDock_2013.1_src/data/scripts/dock_solv.prm

>  <Rbt.Receptor>
prm/pocket_docking_6.prm

>  <SCORE>
-10.1395

>  <SCORE.INTER>
-8.66869

>  <SCORE.INTER.CONST>
1

>  <SCORE.INTER.POLAR>
0

>  <SCORE.INTER.ROT>
7

>  <SCORE.INTER.SOLV>
8.89832

>  <SCORE.INTER.VDW>
-17.0119

>  <SCORE.INTER.norm>
-0.321062

>  <SCORE.INTRA>
-1.47081

>  <SCORE.INTRA.DIHEDRAL>
-5.70546

>  <SCORE.INTRA.DIHEDRAL.0>
10.7382

>  <SCORE.INTRA.POLAR>
0

>  <SCORE.INTRA.POLAR.0>
0

>  <SCORE.INTRA.REPUL>
0

>  <SCORE.INTRA.REPUL.0>
0

>  <SCORE.INTRA.SOLV>
0.00344317

>  <SCORE.INTRA.SOLV.lig_0>
-49.2501

>  <SCORE.INTRA.VDW>
1.38019

>  <SCORE.INTRA.VDW.0>
-1.75368

>  <SCORE.INTRA.norm>
-0.0544746

>  <SCORE.RESTR>
0

>  <SCORE.RESTR.CAVITY>
0

>  <SCORE.RESTR.norm>
0

>  <SCORE.SYSTEM>
0

>  <SCORE.SYSTEM.CONST>
0

>  <SCORE.SYSTEM.DIHEDRAL>
0

>  <SCORE.SYSTEM.SOLV>
0

>  <SCORE.SYSTEM.norm>
0

>  <SCORE.heavy>
27

>  <SCORE.norm>
-0.375537

>  <RMSD>
9.381

$$$$
ligand
 OpenBabel11021811463D
libRbt.so/2013.1/901 2013/11/27
 27 29  0  0  0  0  0  0  0  0999 V2000
   22.7506   23.7740   76.3129 N   0  0  0  0  0  0  0  0  0  0  0  0
   22.8522   22.5406   77.1122 C   0  0  2  0  0  0  0  0  0  0  0  0
   23.2542   22.8728   78.5341 C   0  0  0  0  0  0  0  0  0  0  0  0
   22.6781   22.3317   79.4833 O   0  0  0  0  0  0  0  0  0  0  0  0
   23.9126   21.6328   76.4976 C   0  0  0  0  0  0  0  0  0  0  0  0
   23.9229   20.2861   77.1886 C   0  0  0  0  0  0  0  0  0  0  0  0
   25.5026   19.4959   76.8342 S   0  0  2  0  0  0  0  0  0  0  0  0
   25.4282   18.1707   78.0711 C   0  0  0  0  0  0  0  0  0  0  0  0
   26.6508   20.6537   77.6544 C   0  0  0  0  0  0  0  0  0  0  0  0
   28.0615   20.4000   77.1298 C   0  0  1  0  0  0  0  0  0  0  0  0
   28.8409   21.5349   77.4278 O   0  0  0  0  0  0  0  0  0  0  0  0
   28.7281   19.2252   77.8535 C   0  0  1  0  0  0  0  0  0  0  0  0
   28.5750   17.8872   77.3549 O   0  0  0  0  0  0  0  0  0  0  0  0
   30.2066   19.7038   78.0363 C   0  0  1  0  0  0  0  0  0  0  0  0
   31.0799   18.6401   77.6196 O   0  0  0  0  0  0  0  0  0  0  0  0
   30.1998   21.1296   77.3793 C   0  0  2  0  0  0  0  0  0  0  0  0
   24.1966   23.6234   78.7373 O   0  0  0  0  0  0  0  0  0  0  0  0
   34.9251   22.5285   79.0582 N   0  0  0  0  0  0  0  0  0  0  0  0
   34.5730   21.4328   78.3761 C   0  0  0  0  0  0  0  0  0  0  0  0
   33.3092   21.2037   78.0306 N   0  0  0  0  0  0  0  0  0  0  0  0
   32.3329   22.0784   78.3336 C   0  0  0  0  0  0  0  0  0  0  0  0
   32.6559   23.2656   79.0439 C   0  0  0  0  0  0  0  0  0  0  0  0
   34.0213   23.4646   79.4050 C   0  0  0  0  0  0  0  0  0  0  0  0
   34.4175   24.5984   80.0894 N   0  0  0  0  0  0  0  0  0  0  0  0
   31.5063   23.9601   79.2081 N   0  0  0  0  0  0  0  0  0  0  0  0
   30.5268   23.3010   78.6605 C   0  0  0  0  0  0  0  0  0  0  0  0
   30.9866   22.1311   78.1072 N   0  0  0  0  0  0  0  0  0  0  0  0
  2  1  1  6  0  0  0
  2  3  1  0  0  0  0
  2  5  1  0  0  0  0
  3  4  1  0  0  0  0
  3 17  1  0  0  0  0
  5  6  1  0  0  0  0
  7  6  1  1  0  0  0
  7  8  1  0  0  0  0
  7  9  1  0  0  0  0
 10  9  1  1  0  0  0
 10 11  1  0  0  0  0
 10 12  1  0  0  0  0
 11 16  1  0  0  0  0
 12 13  1  6  0  0  0
 12 14  1  0  0  0  0
 14 15  1  6  0  0  0
 14 16  1  0  0  0  0
 16 27  1  1  0  0  0
 18 19  2  0  0  0  0
 18 23  1  0  0  0  0
 19 20  1  0  0  0  0
 20 21  2  0  0  0  0
 21 22  1  0  0  0  0
 21 27  1  0  0  0  0
 22 23  2  0  0  0  0
 22 25  1  0  0  0  0
 23 24  1  0  0  0  0
 25 26  2  0  0  0  0
 26 27  1  0  0  0  0
M  END
>  <CHROM.1>
135.45859300,-172.93611358,-160.92821681,166.41232101,-163.33755343,161.68752964
177.32558900,28.47550376,21.40318988,77.98859939,3.01373347,0.10087575,-2.87406440

>  <Name>
ligand

>  <RI>
0

>  <Rbt.Current_Directory>
/home/itssahil/PROJECTS/Mol_Feturizer/New_Systems/rnas/2QWY

>  <Rbt.Executable>
rbdock ($Id: //depot/dev/client3/rdock/2013.1/src/exe/rbdock.cxx#4 $)

>  <Rbt.Library>
libRbt.so (2013.1, Build901 2013/11/27)

>  <Rbt.Parameter_File>
/export/apps/rDock/src/rDock_2013.1_src/data/scripts/dock_solv.prm

>  <Rbt.Receptor>
prm/pocket_docking_6.prm

>  <SCORE>
-25.1219

>  <SCORE.INTER>
-22.4762

>  <SCORE.INTER.CONST>
1

>  <SCORE.INTER.POLAR>
0

>  <SCORE.INTER.ROT>
7

>  <SCORE.INTER.SOLV>
11.8772

>  <SCORE.INTER.VDW>
-27.2099

>  <SCORE.INTER.norm>
-0.832453

>  <SCORE.INTRA>
-2.64562

>  <SCORE.INTRA.DIHEDRAL>
-3.31656

>  <SCORE.INTRA.DIHEDRAL.0>
10.7382

>  <SCORE.INTRA.POLAR>
0

>  <SCORE.INTRA.POLAR.0>
0

>  <SCORE.INTRA.REPUL>
0

>  <SCORE.INTRA.REPUL.0>
0

>  <SCORE.INTRA.SOLV>
-0.911865

>  <SCORE.INTRA.SOLV.lig_0>
-49.2501

>  <SCORE.INTRA.VDW>
-0.531401

>  <SCORE.INTRA.VDW.0>
-1.75368

>  <SCORE.INTRA.norm>
-0.0979858

>  <SCORE.RESTR>
0

>  <SCORE.RESTR.CAVITY>
0

>  <SCORE.RESTR.norm>
0

>  <SCORE.SYSTEM>
0

>  <SCORE.SYSTEM.CONST>
0

>  <SCORE.SYSTEM.DIHEDRAL>
0

>  <SCORE.SYSTEM.SOLV>
0

>  <SCORE.SYSTEM.norm>
0

>  <SCORE.heavy>
27

>  <SCORE.norm>
-0.930439

>  <RMSD>
9.734

$$$$
ligand
 OpenBabel11021811463D
libRbt.so/2013.1/901 2013/11/27
 27 29  0  0  0  0  0  0  0  0999 V2000
   37.4680   24.2279   80.8200 N   0  0  0  0  0  0  0  0  0  0  0  0
   37.8019   25.2371   79.7998 C   0  0  2  0  0  0  0  0  0  0  0  0
   37.1210   26.5506   80.1238 C   0  0  0  0  0  0  0  0  0  0  0  0
   37.4933   27.5931   79.5759 O   0  0  0  0  0  0  0  0  0  0  0  0
   37.3160   24.7508   78.4382 C   0  0  0  0  0  0  0  0  0  0  0  0
   38.0227   23.4697   78.0497 C   0  0  0  0  0  0  0  0  0  0  0  0
   37.3788   22.9475   76.4503 S   0  0  2  0  0  0  0  0  0  0  0  0
   35.7526   22.3527   76.9920 C   0  0  0  0  0  0  0  0  0  0  0  0
   38.2582   21.3628   76.2333 C   0  0  0  0  0  0  0  0  0  0  0  0
   37.9945   20.8444   74.8222 C   0  0  1  0  0  0  0  0  0  0  0  0
   38.9779   19.8796   74.5284 O   0  0  0  0  0  0  0  0  0  0  0  0
   36.6477   20.1191   74.7317 C   0  0  1  0  0  0  0  0  0  0  0  0
   35.4525   20.8490   74.4141 O   0  0  0  0  0  0  0  0  0  0  0  0
   36.9536   18.9014   73.7978 C   0  0  1  0  0  0  0  0  0  0  0  0
   35.9231   18.8300   72.7976 O   0  0  0  0  0  0  0  0  0  0  0  0
   38.4765   19.0864   73.4642 C   0  0  2  0  0  0  0  0  0  0  0  0
   36.1573   26.5641   80.8747 O   0  0  0  0  0  0  0  0  0  0  0  0
   39.5202   14.6148   75.9176 N   0  0  0  0  0  0  0  0  0  0  0  0
   38.6969   15.5999   76.2938 C   0  0  0  0  0  0  0  0  0  0  0  0
   38.5480   16.7006   75.5621 N   0  0  0  0  0  0  0  0  0  0  0  0
   39.2036   16.8591   74.3980 C   0  0  0  0  0  0  0  0  0  0  0  0
   40.0787   15.8357   73.9453 C   0  0  0  0  0  0  0  0  0  0  0  0
   40.2176   14.6785   74.7675 C   0  0  0  0  0  0  0  0  0  0  0  0
   41.0430   13.6350   74.3924 N   0  0  0  0  0  0  0  0  0  0  0  0
   40.5945   16.2430   72.7626 N   0  0  0  0  0  0  0  0  0  0  0  0
   40.1081   17.4127   72.4643 C   0  0  0  0  0  0  0  0  0  0  0  0
   39.2440   17.8365   73.4441 N   0  0  0  0  0  0  0  0  0  0  0  0
  2  1  1  1  0  0  0
  2  3  1  0  0  0  0
  2  5  1  0  0  0  0
  3  4  1  0  0  0  0
  3 17  1  0  0  0  0
  5  6  1  0  0  0  0
  7  6  1  1  0  0  0
  7  8  1  0  0  0  0
  7  9  1  0  0  0  0
 10  9  1  1  0  0  0
 10 11  1  0  0  0  0
 10 12  1  0  0  0  0
 11 16  1  0  0  0  0
 12 13  1  6  0  0  0
 12 14  1  0  0  0  0
 14 15  1  6  0  0  0
 14 16  1  0  0  0  0
 16 27  1  1  0  0  0
 18 19  2  0  0  0  0
 18 23  1  0  0  0  0
 19 20  1  0  0  0  0
 20 21  2  0  0  0  0
 21 22  1  0  0  0  0
 21 27  1  0  0  0  0
 22 23  2  0  0  0  0
 22 25  1  0  0  0  0
 23 24  1  0  0  0  0
 25 26  2  0  0  0  0
 26 27  1  0  0  0  0
M  END
>  <CHROM.1>
164.04723306,-62.33790210,179.11469071,-73.72927095,-172.02464237,162.02371109
68.01133118,38.06180206,20.37620087,75.98718882,-1.95336681,0.94571494,-2.31684906

>  <Name>
ligand

>  <RI>
0

>  <Rbt.Current_Directory>
/home/itssahil/PROJECTS/Mol_Feturizer/New_Systems/rnas/2QWY

>  <Rbt.Executable>
rbdock ($Id: //depot/dev/client3/rdock/2013.1/src/exe/rbdock.cxx#4 $)

>  <Rbt.Library>
libRbt.so (2013.1, Build901 2013/11/27)

>  <Rbt.Parameter_File>
/export/apps/rDock/src/rDock_2013.1_src/data/scripts/dock_solv.prm

>  <Rbt.Receptor>
prm/pocket_docking_8.prm

>  <SCORE>
-8.84411

>  <SCORE.INTER>
-5.92993

>  <SCORE.INTER.CONST>
1

>  <SCORE.INTER.POLAR>
0

>  <SCORE.INTER.ROT>
7

>  <SCORE.INTER.SOLV>
6.78556

>  <SCORE.INTER.VDW>
-14.4818

>  <SCORE.INTER.norm>
-0.219627

>  <SCORE.INTRA>
-2.91418

>  <SCORE.INTRA.DIHEDRAL>
-5.64897

>  <SCORE.INTRA.DIHEDRAL.0>
10.7382

>  <SCORE.INTRA.POLAR>
0

>  <SCORE.INTRA.POLAR.0>
0

>  <SCORE.INTRA.REPUL>
0

>  <SCORE.INTRA.REPUL.0>
0

>  <SCORE.INTRA.SOLV>
-0.0362564

>  <SCORE.INTRA.SOLV.lig_0>
-49.2501

>  <SCORE.INTRA.VDW>
-0.0715628

>  <SCORE.INTRA.VDW.0>
-1.75368

>  <SCORE.INTRA.norm>
-0.107933

>  <SCORE.RESTR>
0

>  <SCORE.RESTR.CAVITY>
0

>  <SCORE.RESTR.norm>
0

>  <SCORE.SYSTEM>
0

>  <SCORE.SYSTEM.CONST>
0

>  <SCORE.SYSTEM.DIHEDRAL>
0

>  <SCORE.SYSTEM.SOLV>
0

>  <SCORE.SYSTEM.norm>
0

>  <SCORE.heavy>
27

>  <SCORE.norm>
-0.32756

>  <RMSD>
9.896

$$$$
ligand
 OpenBabel11021811463D
libRbt.so/2013.1/901 2013/11/27
 27 29  0  0  0  0  0  0  0  0999 V2000
   23.6905   16.7366   78.2525 N   0  0  0  0  0  0  0  0  0  0  0  0
   23.7979   18.2013   78.1339 C   0  0  2  0  0  0  0  0  0  0  0  0
   24.1647   18.8068   79.4728 C   0  0  0  0  0  0  0  0  0  0  0  0
   24.1302   18.1154   80.4958 O   0  0  0  0  0  0  0  0  0  0  0  0
   22.4534   18.7663   77.6871 C   0  0  0  0  0  0  0  0  0  0  0  0
   22.2340   18.5086   76.2117 C   0  0  0  0  0  0  0  0  0  0  0  0
   22.8617   19.9321   75.3035 S   0  0  2  0  0  0  0  0  0  0  0  0
   22.5338   19.3465   73.6179 C   0  0  0  0  0  0  0  0  0  0  0  0
   24.6597   19.6378   75.4150 C   0  0  0  0  0  0  0  0  0  0  0  0
   25.2231   20.4706   76.5633 C   0  0  1  0  0  0  0  0  0  0  0  0
   26.4289   19.8715   76.9769 O   0  0  0  0  0  0  0  0  0  0  0  0
   25.5879   21.8867   76.1051 C   0  0  1  0  0  0  0  0  0  0  0  0
   24.6112   22.9382   76.1569 O   0  0  0  0  0  0  0  0  0  0  0  0
   26.9247   22.1801   76.8636 C   0  0  1  0  0  0  0  0  0  0  0  0
   26.8249   23.4815   77.4667 O   0  0  0  0  0  0  0  0  0  0  0  0
   27.1643   20.8605   77.6798 C   0  0  2  0  0  0  0  0  0  0  0  0
   24.5622   19.9608   79.5269 O   0  0  0  0  0  0  0  0  0  0  0  0
   32.1162   22.2906   78.4128 N   0  0  0  0  0  0  0  0  0  0  0  0
   31.0155   23.0504   78.4434 C   0  0  0  0  0  0  0  0  0  0  0  0
   29.8093   22.5383   78.2161 N   0  0  0  0  0  0  0  0  0  0  0  0
   29.6430   21.2264   77.9680 C   0  0  0  0  0  0  0  0  0  0  0  0
   30.7782   20.3727   77.9393 C   0  0  0  0  0  0  0  0  0  0  0  0
   32.0533   20.9664   78.1762 C   0  0  0  0  0  0  0  0  0  0  0  0
   33.2048   20.2017   78.1737 N   0  0  0  0  0  0  0  0  0  0  0  0
   30.3328   19.1218   77.6795 N   0  0  0  0  0  0  0  0  0  0  0  0
   29.0377   19.1468   77.5526 C   0  0  0  0  0  0  0  0  0  0  0  0
   28.5644   20.4248   77.7216 N   0  0  0  0  0  0  0  0  0  0  0  0
  2  1  1  1  0  0  0
  2  3  1  0  0  0  0
  2  5  1  0  0  0  0
  3  4  1  0  0  0  0
  3 17  1  0  0  0  0
  5  6  1  0  0  0  0
  7  6  1  1  0  0  0
  7  8  1  0  0  0  0
  7  9  1  0  0  0  0
 10  9  1  6  0  0  0
 10 11  1  0  0  0  0
 10 12  1  0  0  0  0
 11 16  1  0  0  0  0
 12 13  1  1  0  0  0
 12 14  1  0  0  0  0
 14 15  1  1  0  0  0
 14 16  1  0  0  0  0
 16 27  1  6  0  0  0
 18 19  2  0  0  0  0
 18 23  1  0  0  0  0
 19 20  1  0  0  0  0
 20 21  2  0  0  0  0
 21 22  1  0  0  0  0
 21 27  1  0  0  0  0
 22 23  2  0  0  0  0
 22 25  1  0  0  0  0
 23 24  1  0  0  0  0
 25 26  2  0  0  0  0
 26 27  1  0  0  0  0
M  END
>  <CHROM.1>
-10.90422632,-75.86924430,-91.66730612,178.18409175,-97.47093530,157.26423461
160.91875954,26.52924582,20.31432470,77.37585210,-3.05657937,-0.30476836
-0.69688837

>  <Name>
ligand

>  <RI>
0

>  <Rbt.Current_Directory>
/home/itssahil/PROJECTS/Mol_Feturizer/New_Systems/rnas/2QWY

>  <Rbt.Executable>
rbdock ($Id: //depot/dev/client3/rdock/2013.1/src/exe/rbdock.cxx#4 $)

>  <Rbt.Library>
libRbt.so (2013.1, Build901 2013/11/27)

>  <Rbt.Parameter_File>
/export/apps/rDock/src/rDock_2013.1_src/data/scripts/dock_solv.prm

>  <Rbt.Receptor>
prm/pocket_docking_6.prm

>  <SCORE>
-22.6198

>  <SCORE.INTER>
-21.0643

>  <SCORE.INTER.CONST>
1

>  <SCORE.INTER.POLAR>
0

>  <SCORE.INTER.ROT>
7

>  <SCORE.INTER.SOLV>
8.84414

>  <SCORE.INTER.VDW>
-25.2576

>  <SCORE.INTER.norm>
-0.780158

>  <SCORE.INTRA>
-1.56488

>  <SCORE.INTRA.DIHEDRAL>
0.125839

>  <SCORE.INTRA.DIHEDRAL.0>
10.7382

>  <SCORE.INTRA.POLAR>
0

>  <SCORE.INTRA.POLAR.0>
0

>  <SCORE.INTRA.REPUL>
0

>  <SCORE.INTRA.REPUL.0>
0

>  <SCORE.INTRA.SOLV>
0.600945

>  <SCORE.INTRA.SOLV.lig_0>
-49.2501

>  <SCORE.INTRA.VDW>
-1.92827

>  <SCORE.INTRA.VDW.0>
-1.75368

>  <SCORE.INTRA.norm>
-0.0579584

>  <SCORE.RESTR>
0.0093629

>  <SCORE.RESTR.CAVITY>
0.0093629

>  <SCORE.RESTR.norm>
0.000346774

>  <SCORE.SYSTEM>
0

>  <SCORE.SYSTEM.CONST>
0

>  <SCORE.SYSTEM.DIHEDRAL>
0

>  <SCORE.SYSTEM.SOLV>
0

>  <SCORE.SYSTEM.norm>
0

>  <SCORE.heavy>
27

>  <SCORE.norm>
-0.83777

>  <RMSD>
9.993

$$$$
ligand
 OpenBabel11021811463D
libRbt.so/2013.1/901 2013/11/27
 27 29  0  0  0  0  0  0  0  0999 V2000
   41.4150   16.2385   73.6563 N   0  0  0  0  0  0  0  0  0  0  0  0
   40.0372   15.7303   73.5376 C   0  0  2  0  0  0  0  0  0  0  0  0
   39.5094   15.3325   74.9004 C   0  0  0  0  0  0  0  0  0  0  0  0
   38.2936   15.2130   75.0831 O   0  0  0  0  0  0  0  0  0  0  0  0
   40.0329   14.5055   72.6287 C   0  0  0  0  0  0  0  0  0  0  0  0
   40.2880   14.9102   71.1925 C   0  0  0  0  0  0  0  0  0  0  0  0
   39.9649   13.4772   70.1497 S   0  0  2  0  0  0  0  0  0  0  0  0
   41.6775   12.9393   69.8870 C   0  0  0  0  0  0  0  0  0  0  0  0
   39.6225   14.2920   68.5527 C   0  0  0  0  0  0  0  0  0  0  0  0
   38.1538   14.7061   68.5179 C   0  0  1  0  0  0  0  0  0  0  0  0
   37.8054   15.1612   69.8046 O   0  0  0  0  0  0  0  0  0  0  0  0
   37.9254   15.8903   67.5724 C   0  0  1  0  0  0  0  0  0  0  0  0
   37.6320   15.6627   66.1852 O   0  0  0  0  0  0  0  0  0  0  0  0
   36.8832   16.7705   68.3389 C   0  0  1  0  0  0  0  0  0  0  0  0
   35.8346   17.1288   67.4226 O   0  0  0  0  0  0  0  0  0  0  0  0
   36.6414   15.9598   69.6615 C   0  0  2  0  0  0  0  0  0  0  0  0
   40.2929   15.0619   75.7979 O   0  0  0  0  0  0  0  0  0  0  0  0
   37.2050   20.7180   71.6976 N   0  0  0  0  0  0  0  0  0  0  0  0
   37.4500   20.3118   70.4467 C   0  0  0  0  0  0  0  0  0  0  0  0
   37.2731   19.0461   70.0782 N   0  0  0  0  0  0  0  0  0  0  0  0
   36.8170   18.1238   70.9450 C   0  0  0  0  0  0  0  0  0  0  0  0
   36.5269   18.5063   72.2821 C   0  0  0  0  0  0  0  0  0  0  0  0
   36.7429   19.8709   72.6368 C   0  0  0  0  0  0  0  0  0  0  0  0
   36.4762   20.3236   73.9154 N   0  0  0  0  0  0  0  0  0  0  0  0
   36.0841   17.4030   72.9279 N   0  0  0  0  0  0  0  0  0  0  0  0
   36.0796   16.3971   72.1020 C   0  0  0  0  0  0  0  0  0  0  0  0
   36.5247   16.7916   70.8641 N   0  0  0  0  0  0  0  0  0  0  0  0
  2  1  1  1  0  0  0
  2  3  1  0  0  0  0
  2  5  1  0  0  0  0
  3  4  1  0  0  0  0
  3 17  1  0  0  0  0
  5  6  1  0  0  0  0
  7  6  1  1  0  0  0
  7  8  1  0  0  0  0
  7  9  1  0  0  0  0
 10  9  1  1  0  0  0
 10 11  1  0  0  0  0
 10 12  1  0  0  0  0
 11 16  1  0  0  0  0
 12 13  1  6  0  0  0
 12 14  1  0  0  0  0
 14 15  1  6  0  0  0
 14 16  1  0  0  0  0
 16 27  1  1  0  0  0
 18 19  2  0  0  0  0
 18 23  1  0  0  0  0
 19 20  1  0  0  0  0
 20 21  2  0  0  0  0
 21 22  1  0  0  0  0
 21 27  1  0  0  0  0
 22 23  2  0  0  0  0
 22 25  1  0  0  0  0
 23 24  1  0  0  0  0
 25 26  2  0  0  0  0
 26 27  1  0  0  0  0
M  END
>  <CHROM.1>
161.28412047,-71.00531223,-169.58704944,-100.47570830,-84.47850327,38.41214930
104.29047179,38.24038970,16.32352258,71.07116765,-1.97957634,0.90049907,-1.94274345

>  <Name>
ligand

>  <RI>
0

>  <Rbt.Current_Directory>
/home/itssahil/PROJECTS/Mol_Feturizer/New_Systems/rnas/2QWY

>  <Rbt.Executable>
rbdock ($Id: //depot/dev/client3/rdock/2013.1/src/exe/rbdock.cxx#4 $)

>  <Rbt.Library>
libRbt.so (2013.1, Build901 2013/11/27)

>  <Rbt.Parameter_File>
/export/apps/rDock/src/rDock_2013.1_src/data/scripts/dock_solv.prm

>  <Rbt.Receptor>
prm/pocket_docking_8.prm

>  <SCORE>
-11.7629

>  <SCORE.INTER>
-9.99871

>  <SCORE.INTER.CONST>
1

>  <SCORE.INTER.POLAR>
0

>  <SCORE.INTER.ROT>
7

>  <SCORE.INTER.SOLV>
10.2187

>  <SCORE.INTER.VDW>
-18.3387

>  <SCORE.INTER.norm>
-0.370323

>  <SCORE.INTRA>
-1.76422

>  <SCORE.INTRA.DIHEDRAL>
-2.30376

>  <SCORE.INTRA.DIHEDRAL.0>
10.7382

>  <SCORE.INTRA.POLAR>
0

>  <SCORE.INTRA.POLAR.0>
0

>  <SCORE.INTRA.REPUL>
0

>  <SCORE.INTRA.REPUL.0>
0

>  <SCORE.INTRA.SOLV>
-0.340506

>  <SCORE.INTRA.SOLV.lig_0>
-49.2501

>  <SCORE.INTRA.VDW>
-0.442083

>  <SCORE.INTRA.VDW.0>
-1.75368

>  <SCORE.INTRA.norm>
-0.0653414

>  <SCORE.RESTR>
0

>  <SCORE.RESTR.CAVITY>
0

>  <SCORE.RESTR.norm>
0

>  <SCORE.SYSTEM>
0

>  <SCORE.SYSTEM.CONST>
0

>  <SCORE.SYSTEM.DIHEDRAL>
0

>  <SCORE.SYSTEM.SOLV>
0

>  <SCORE.SYSTEM.norm>
0

>  <SCORE.heavy>
27

>  <SCORE.norm>
-0.435664

>  <RMSD>
9.995

$$$$
ligand
 OpenBabel11021811463D
libRbt.so/2013.1/901 2013/11/27
 27 29  0  0  0  0  0  0  0  0999 V2000
   34.3067   13.3523   67.2516 N   0  0  0  0  0  0  0  0  0  0  0  0
   34.4615   13.5441   65.7990 C   0  0  2  0  0  0  0  0  0  0  0  0
   33.8502   12.3774   65.0514 C   0  0  0  0  0  0  0  0  0  0  0  0
   33.2879   12.5625   63.9672 O   0  0  0  0  0  0  0  0  0  0  0  0
   35.9466   13.6246   65.4611 C   0  0  0  0  0  0  0  0  0  0  0  0
   36.4732   15.0210   65.7148 C   0  0  0  0  0  0  0  0  0  0  0  0
   36.5332   15.2726   67.4976 S   0  0  2  0  0  0  0  0  0  0  0  0
   36.6990   17.0793   67.5126 C   0  0  0  0  0  0  0  0  0  0  0  0
   38.2539   14.7768   67.8510 C   0  0  0  0  0  0  0  0  0  0  0  0
   38.3490   14.3397   69.3102 C   0  0  1  0  0  0  0  0  0  0  0  0
   38.1006   15.4695   70.1140 O   0  0  0  0  0  0  0  0  0  0  0  0
   37.2614   13.3197   69.6640 C   0  0  1  0  0  0  0  0  0  0  0  0
   37.5031   11.9147   69.4911 O   0  0  0  0  0  0  0  0  0  0  0  0
   36.8164   13.7480   71.1017 C   0  0  1  0  0  0  0  0  0  0  0  0
   36.7801   12.5741   71.9312 O   0  0  0  0  0  0  0  0  0  0  0  0
   37.7270   14.9924   71.3968 C   0  0  2  0  0  0  0  0  0  0  0  0
   33.9770   11.2440   65.4896 O   0  0  0  0  0  0  0  0  0  0  0  0
   36.6896   20.0937   71.4664 N   0  0  0  0  0  0  0  0  0  0  0  0
   37.4355   19.4062   70.5943 C   0  0  0  0  0  0  0  0  0  0  0  0
   37.6243   18.0957   70.7205 N   0  0  0  0  0  0  0  0  0  0  0  0
   37.0521   17.4009   71.7205 C   0  0  0  0  0  0  0  0  0  0  0  0
   36.2377   18.0809   72.6653 C   0  0  0  0  0  0  0  0  0  0  0  0
   36.0728   19.4879   72.4988 C   0  0  0  0  0  0  0  0  0  0  0  0
   35.2889   20.2197   73.3711 N   0  0  0  0  0  0  0  0  0  0  0  0
   35.7886   17.1572   73.5461 N   0  0  0  0  0  0  0  0  0  0  0  0
   36.2558   15.9884   73.2153 C   0  0  0  0  0  0  0  0  0  0  0  0
   37.0427   16.0867   72.0940 N   0  0  0  0  0  0  0  0  0  0  0  0
  2  1  1  1  0  0  0
  2  3  1  0  0  0  0
  2  5  1  0  0  0  0
  3  4  1  0  0  0  0
  3 17  1  0  0  0  0
  5  6  1  0  0  0  0
  7  6  1  6  0  0  0
  7  8  1  0  0  0  0
  7  9  1  0  0  0  0
 10  9  1  6  0  0  0
 10 11  1  0  0  0  0
 10 12  1  0  0  0  0
 11 16  1  0  0  0  0
 12 13  1  1  0  0  0
 12 14  1  0  0  0  0
 14 15  1  1  0  0  0
 14 16  1  0  0  0  0
 16 27  1  6  0  0  0
 18 19  2  0  0  0  0
 18 23  1  0  0  0  0
 19 20  1  0  0  0  0
 20 21  2  0  0  0  0
 21 22  1  0  0  0  0
 21 27  1  0  0  0  0
 22 23  2  0  0  0  0
 22 25  1  0  0  0  0
 23 24  1  0  0  0  0
 25 26  2  0  0  0  0
 26 27  1  0  0  0  0
M  END
>  <CHROM.1>
144.88272723,-81.98539919,71.24126958,-164.22976825,-155.79607465,-65.66230648
-14.55773381,36.36069276,15.34710496,69.32422702,2.20395086,1.23169025,-2.85541318

>  <Name>
ligand

>  <RI>
0

>  <Rbt.Current_Directory>
/home/itssahil/PROJECTS/Mol_Feturizer/New_Systems/rnas/2QWY

>  <Rbt.Executable>
rbdock ($Id: //depot/dev/client3/rdock/2013.1/src/exe/rbdock.cxx#4 $)

>  <Rbt.Library>
libRbt.so (2013.1, Build901 2013/11/27)

>  <Rbt.Parameter_File>
/export/apps/rDock/src/rDock_2013.1_src/data/scripts/dock_solv.prm

>  <Rbt.Receptor>
prm/blind_docking_100.prm

>  <SCORE>
-12.7468

>  <SCORE.INTER>
-12.0268

>  <SCORE.INTER.CONST>
1

>  <SCORE.INTER.POLAR>
0

>  <SCORE.INTER.ROT>
7

>  <SCORE.INTER.SOLV>
15.2387

>  <SCORE.INTER.VDW>
-21.3641

>  <SCORE.INTER.norm>
-0.445436

>  <SCORE.INTRA>
-0.719993

>  <SCORE.INTRA.DIHEDRAL>
-1.24956

>  <SCORE.INTRA.DIHEDRAL.0>
10.7382

>  <SCORE.INTRA.POLAR>
0

>  <SCORE.INTRA.POLAR.0>
0

>  <SCORE.INTRA.REPUL>
0

>  <SCORE.INTRA.REPUL.0>
0

>  <SCORE.INTRA.SOLV>
2.06116

>  <SCORE.INTRA.SOLV.lig_0>
-49.2501

>  <SCORE.INTRA.VDW>
-1.12579

>  <SCORE.INTRA.VDW.0>
-1.75368

>  <SCORE.INTRA.norm>
-0.0266664

>  <SCORE.RESTR>
0

>  <SCORE.RESTR.CAVITY>
0

>  <SCORE.RESTR.norm>
0

>  <SCORE.SYSTEM>
0

>  <SCORE.SYSTEM.CONST>
0

>  <SCORE.SYSTEM.DIHEDRAL>
0

>  <SCORE.SYSTEM.SOLV>
0

>  <SCORE.SYSTEM.norm>
0

>  <SCORE.heavy>
27

>  <SCORE.norm>
-0.472102

>  <RMSD>
10.048

$$$$
ligand
 OpenBabel11021811463D
libRbt.so/2013.1/901 2013/11/27
 27 29  0  0  0  0  0  0  0  0999 V2000
   35.2429   12.2403   63.8248 N   0  0  0  0  0  0  0  0  0  0  0  0
   35.3440   13.6656   64.1840 C   0  0  2  0  0  0  0  0  0  0  0  0
   36.1242   14.4158   63.1246 C   0  0  0  0  0  0  0  0  0  0  0  0
   37.3437   14.2497   63.0194 O   0  0  0  0  0  0  0  0  0  0  0  0
   36.0717   13.7942   65.5182 C   0  0  0  0  0  0  0  0  0  0  0  0
   36.2730   15.2517   65.8740 C   0  0  0  0  0  0  0  0  0  0  0  0
   36.3828   15.3718   67.6681 S   0  0  2  0  0  0  0  0  0  0  0  0
   36.6642   17.1589   67.8051 C   0  0  0  0  0  0  0  0  0  0  0  0
   38.0747   14.7455   67.9455 C   0  0  0  0  0  0  0  0  0  0  0  0
   38.1969   14.2878   69.3965 C   0  0  1  0  0  0  0  0  0  0  0  0
   38.0372   15.4203   70.2188 O   0  0  0  0  0  0  0  0  0  0  0  0
   37.0694   13.3230   69.7789 C   0  0  1  0  0  0  0  0  0  0  0  0
   37.2296   11.9092   69.5847 O   0  0  0  0  0  0  0  0  0  0  0  0
   36.6980   13.7584   71.2353 C   0  0  1  0  0  0  0  0  0  0  0  0
   36.6280   12.5789   72.0547 O   0  0  0  0  0  0  0  0  0  0  0  0
   37.6834   14.9494   71.5096 C   0  0  2  0  0  0  0  0  0  0  0  0
   35.5330   15.1309   62.3298 O   0  0  0  0  0  0  0  0  0  0  0  0
   36.7237   20.0662   71.5472 N   0  0  0  0  0  0  0  0  0  0  0  0
   37.3740   19.3465   70.6259 C   0  0  0  0  0  0  0  0  0  0  0  0
   37.5569   18.0367   70.7670 N   0  0  0  0  0  0  0  0  0  0  0  0
   37.0739   17.3752   71.8344 C   0  0  0  0  0  0  0  0  0  0  0  0
   36.3623   18.0902   72.8347 C   0  0  0  0  0  0  0  0  0  0  0  0
   36.2005   19.4952   72.6487 C   0  0  0  0  0  0  0  0  0  0  0  0
   35.5130   20.2598   73.5726 N   0  0  0  0  0  0  0  0  0  0  0  0
   35.9874   17.1952   73.7775 N   0  0  0  0  0  0  0  0  0  0  0  0
   36.4056   16.0116   73.4337 C   0  0  0  0  0  0  0  0  0  0  0  0
   37.0831   16.0707   72.2406 N   0  0  0  0  0  0  0  0  0  0  0  0
  2  1  1  6  0  0  0
  2  3  1  0  0  0  0
  2  5  1  0  0  0  0
  3  4  1  0  0  0  0
  3 17  1  0  0  0  0
  5  6  1  0  0  0  0
  7  6  1  6  0  0  0
  7  8  1  0  0  0  0
  7  9  1  0  0  0  0
 10  9  1  6  0  0  0
 10 11  1  0  0  0  0
 10 12  1  0  0  0  0
 11 16  1  0  0  0  0
 12 13  1  1  0  0  0
 12 14  1  0  0  0  0
 14 15  1  1  0  0  0
 14 16  1  0  0  0  0
 16 27  1  1  0  0  0
 18 19  2  0  0  0  0
 18 23  1  0  0  0  0
 19 20  1  0  0  0  0
 20 21  2  0  0  0  0
 21 22  1  0  0  0  0
 21 27  1  0  0  0  0
 22 23  2  0  0  0  0
 22 25  1  0  0  0  0
 23 24  1  0  0  0  0
 25 26  2  0  0  0  0
 26 27  1  0  0  0  0
M  END
>  <CHROM.1>
-71.65701209,176.31431674,153.59721032,178.40484642,-159.59039583,-64.36356801
-9.97288091,36.69052153,15.61987668,69.03070588,-1.94758572,-1.43294309,0.77464002

>  <Name>
ligand

>  <RI>
0

>  <Rbt.Current_Directory>
/home/itssahil/PROJECTS/Mol_Feturizer/New_Systems/rnas/2QWY

>  <Rbt.Executable>
rbdock ($Id: //depot/dev/client3/rdock/2013.1/src/exe/rbdock.cxx#4 $)

>  <Rbt.Library>
libRbt.so (2013.1, Build901 2013/11/27)

>  <Rbt.Parameter_File>
/export/apps/rDock/src/rDock_2013.1_src/data/scripts/dock_solv.prm

>  <Rbt.Receptor>
prm/blind_docking_100.prm

>  <SCORE>
-14.4806

>  <SCORE.INTER>
-12.5304

>  <SCORE.INTER.CONST>
1

>  <SCORE.INTER.POLAR>
0

>  <SCORE.INTER.ROT>
7

>  <SCORE.INTER.SOLV>
14.2588

>  <SCORE.INTER.VDW>
-21.3732

>  <SCORE.INTER.norm>
-0.464088

>  <SCORE.INTRA>
-1.95023

>  <SCORE.INTRA.DIHEDRAL>
-2.98193

>  <SCORE.INTRA.DIHEDRAL.0>
10.7382

>  <SCORE.INTRA.POLAR>
0

>  <SCORE.INTRA.POLAR.0>
0

>  <SCORE.INTRA.REPUL>
0

>  <SCORE.INTRA.REPUL.0>
0

>  <SCORE.INTRA.SOLV>
-0.897667

>  <SCORE.INTRA.SOLV.lig_0>
-49.2501

>  <SCORE.INTRA.VDW>
-0.0104335

>  <SCORE.INTRA.VDW.0>
-1.75368

>  <SCORE.INTRA.norm>
-0.0722308

>  <SCORE.RESTR>
0

>  <SCORE.RESTR.CAVITY>
0

>  <SCORE.RESTR.norm>
0

>  <SCORE.SYSTEM>
0

>  <SCORE.SYSTEM.CONST>
0

>  <SCORE.SYSTEM.DIHEDRAL>
0

>  <SCORE.SYSTEM.SOLV>
0

>  <SCORE.SYSTEM.norm>
0

>  <SCORE.heavy>
27

>  <SCORE.norm>
-0.536319

>  <RMSD>
10.106

$$$$
ligand
 OpenBabel11021811463D
libRbt.so/2013.1/901 2013/11/27
 27 29  0  0  0  0  0  0  0  0999 V2000
   37.1165   14.1713   63.2531 N   0  0  0  0  0  0  0  0  0  0  0  0
   36.0348   13.4562   63.9526 C   0  0  2  0  0  0  0  0  0  0  0  0
   34.6875   13.9881   63.5102 C   0  0  0  0  0  0  0  0  0  0  0  0
   33.6490   13.4381   63.8907 O   0  0  0  0  0  0  0  0  0  0  0  0
   36.1828   13.6726   65.4551 C   0  0  0  0  0  0  0  0  0  0  0  0
   36.3716   15.1426   65.7630 C   0  0  0  0  0  0  0  0  0  0  0  0
   36.4522   15.3256   67.5534 S   0  0  2  0  0  0  0  0  0  0  0  0
   36.6536   17.1268   67.6347 C   0  0  0  0  0  0  0  0  0  0  0  0
   38.1659   14.7836   67.8715 C   0  0  0  0  0  0  0  0  0  0  0  0
   38.2753   14.3294   69.3245 C   0  0  1  0  0  0  0  0  0  0  0  0
   38.0683   15.4565   70.1435 O   0  0  0  0  0  0  0  0  0  0  0  0
   37.1695   13.3323   69.6871 C   0  0  1  0  0  0  0  0  0  0  0  0
   37.3740   11.9238   69.4962 O   0  0  0  0  0  0  0  0  0  0  0  0
   36.7598   13.7565   71.1364 C   0  0  1  0  0  0  0  0  0  0  0  0
   36.7093   12.5753   71.9548 O   0  0  0  0  0  0  0  0  0  0  0  0
   37.7053   14.9754   71.4279 C   0  0  2  0  0  0  0  0  0  0  0  0
   34.6299   15.0041   62.8340 O   0  0  0  0  0  0  0  0  0  0  0  0
   36.7227   20.0872   71.5209 N   0  0  0  0  0  0  0  0  0  0  0  0
   37.4270   19.3896   70.6225 C   0  0  0  0  0  0  0  0  0  0  0  0
   37.6073   18.0775   70.7457 N   0  0  0  0  0  0  0  0  0  0  0  0
   37.0679   17.3916   71.7697 C   0  0  0  0  0  0  0  0  0  0  0  0
   36.2980   18.0826   72.7433 C   0  0  0  0  0  0  0  0  0  0  0  0
   36.1408   19.4907   72.5787 C   0  0  0  0  0  0  0  0  0  0  0  0
   35.3991   20.2330   73.4785 N   0  0  0  0  0  0  0  0  0  0  0  0
   35.8745   17.1662   73.6441 N   0  0  0  0  0  0  0  0  0  0  0  0
   36.3165   15.9917   73.2992 C   0  0  0  0  0  0  0  0  0  0  0  0
   37.0599   16.0787   72.1477 N   0  0  0  0  0  0  0  0  0  0  0  0
  2  1  1  6  0  0  0
  2  3  1  0  0  0  0
  2  5  1  0  0  0  0
  3  4  1  0  0  0  0
  3 17  1  0  0  0  0
  5  6  1  0  0  0  0
  7  6  1  6  0  0  0
  7  8  1  0  0  0  0
  7  9  1  0  0  0  0
 10  9  1  6  0  0  0
 10 11  1  0  0  0  0
 10 12  1  0  0  0  0
 11 16  1  0  0  0  0
 12 13  1  1  0  0  0
 12 14  1  0  0  0  0
 14 15  1  1  0  0  0
 14 16  1  0  0  0  0
 16 27  1  1  0  0  0
 18 19  2  0  0  0  0
 18 23  1  0  0  0  0
 19 20  1  0  0  0  0
 20 21  2  0  0  0  0
 21 22  1  0  0  0  0
 21 27  1  0  0  0  0
 22 23  2  0  0  0  0
 22 25  1  0  0  0  0
 23 24  1  0  0  0  0
 25 26  2  0  0  0  0
 26 27  1  0  0  0  0
M  END
>  <CHROM.1>
173.49036179,48.96320791,177.10302787,-179.35978133,-157.47948598,-65.62168683
-12.88479477,36.57118849,15.62439288,68.99911961,2.00605985,1.30852803,-2.42781806

>  <Name>
ligand

>  <RI>
0

>  <Rbt.Current_Directory>
/home/itssahil/PROJECTS/Mol_Feturizer/New_Systems/rnas/2QWY

>  <Rbt.Executable>
rbdock ($Id: //depot/dev/client3/rdock/2013.1/src/exe/rbdock.cxx#4 $)

>  <Rbt.Library>
libRbt.so (2013.1, Build901 2013/11/27)

>  <Rbt.Parameter_File>
/export/apps/rDock/src/rDock_2013.1_src/data/scripts/dock_solv.prm

>  <Rbt.Receptor>
prm/blind_docking_100.prm

>  <SCORE>
-14.0897

>  <SCORE.INTER>
-11.924

>  <SCORE.INTER.CONST>
1

>  <SCORE.INTER.POLAR>
0

>  <SCORE.INTER.ROT>
7

>  <SCORE.INTER.SOLV>
19.5009

>  <SCORE.INTER.VDW>
-22.7163

>  <SCORE.INTER.norm>
-0.44163

>  <SCORE.INTRA>
-2.16571

>  <SCORE.INTRA.DIHEDRAL>
-4.35037

>  <SCORE.INTRA.DIHEDRAL.0>
10.7382

>  <SCORE.INTRA.POLAR>
0

>  <SCORE.INTRA.POLAR.0>
0

>  <SCORE.INTRA.REPUL>
0

>  <SCORE.INTRA.REPUL.0>
0

>  <SCORE.INTRA.SOLV>
-0.00618413

>  <SCORE.INTRA.SOLV.lig_0>
-49.2501

>  <SCORE.INTRA.VDW>
0.0125667

>  <SCORE.INTRA.VDW.0>
-1.75368

>  <SCORE.INTRA.norm>
-0.0802116

>  <SCORE.RESTR>
0

>  <SCORE.RESTR.CAVITY>
0

>  <SCORE.RESTR.norm>
0

>  <SCORE.SYSTEM>
0

>  <SCORE.SYSTEM.CONST>
0

>  <SCORE.SYSTEM.DIHEDRAL>
0

>  <SCORE.SYSTEM.SOLV>
0

>  <SCORE.SYSTEM.norm>
0

>  <SCORE.heavy>
27

>  <SCORE.norm>
-0.521841

>  <RMSD>
10.112

$$$$
ligand
 OpenBabel11021811463D
libRbt.so/2013.1/901 2013/11/27
 27 29  0  0  0  0  0  0  0  0999 V2000
   36.0117   18.6950   71.7176 N   0  0  0  0  0  0  0  0  0  0  0  0
   37.1846   17.8070   71.6371 C   0  0  2  0  0  0  0  0  0  0  0  0
   38.4547   18.6278   71.5523 C   0  0  0  0  0  0  0  0  0  0  0  0
   39.5234   18.1590   71.9570 O   0  0  0  0  0  0  0  0  0  0  0  0
   37.0709   16.9412   70.3865 C   0  0  0  0  0  0  0  0  0  0  0  0
   35.8287   16.0784   70.4503 C   0  0  0  0  0  0  0  0  0  0  0  0
   35.8584   14.9630   69.0360 S   0  0  2  0  0  0  0  0  0  0  0  0
   34.0699   14.8052   68.7754 C   0  0  0  0  0  0  0  0  0  0  0  0
   36.2160   13.3764   69.8646 C   0  0  0  0  0  0  0  0  0  0  0  0
   37.7292   13.2095   69.9731 C   0  0  1  0  0  0  0  0  0  0  0  0
   38.2267   14.2868   70.7321 O   0  0  0  0  0  0  0  0  0  0  0  0
   38.1012   11.9388   70.7448 C   0  0  1  0  0  0  0  0  0  0  0  0
   38.2680   10.6930   70.0503 O   0  0  0  0  0  0  0  0  0  0  0  0
   39.3230   12.3869   71.6136 C   0  0  1  0  0  0  0  0  0  0  0  0
   40.3611   11.4018   71.4742 O   0  0  0  0  0  0  0  0  0  0  0  0
   39.5001   13.8968   71.2215 C   0  0  2  0  0  0  0  0  0  0  0  0
   38.4312   19.7264   71.0183 O   0  0  0  0  0  0  0  0  0  0  0  0
   37.6648   16.6043   75.2719 N   0  0  0  0  0  0  0  0  0  0  0  0
   36.9859   15.8703   74.3830 C   0  0  0  0  0  0  0  0  0  0  0  0
   37.5996   15.2455   73.3820 N   0  0  0  0  0  0  0  0  0  0  0  0
   38.9356   15.3070   73.2350 C   0  0  0  0  0  0  0  0  0  0  0  0
   39.7053   16.0608   74.1611 C   0  0  0  0  0  0  0  0  0  0  0  0
   39.0046   16.7245   75.2113 C   0  0  0  0  0  0  0  0  0  0  0  0
   39.6825   17.4704   76.1573 N   0  0  0  0  0  0  0  0  0  0  0  0
   41.0016   15.9491   73.7899 N   0  0  0  0  0  0  0  0  0  0  0  0
   41.0797   15.1972   72.7304 C   0  0  0  0  0  0  0  0  0  0  0  0
   39.8295   14.7763   72.3484 N   0  0  0  0  0  0  0  0  0  0  0  0
  2  1  1  6  0  0  0
  2  3  1  0  0  0  0
  2  5  1  0  0  0  0
  3  4  1  0  0  0  0
  3 17  1  0  0  0  0
  5  6  1  0  0  0  0
  7  6  1  1  0  0  0
  7  8  1  0  0  0  0
  7  9  1  0  0  0  0
 10  9  1  1  0  0  0
 10 11  1  0  0  0  0
 10 12  1  0  0  0  0
 11 16  1  0  0  0  0
 12 13  1  6  0  0  0
 12 14  1  0  0  0  0
 14 15  1  6  0  0  0
 14 16  1  0  0  0  0
 16 27  1  1  0  0  0
 18 19  2  0  0  0  0
 18 23  1  0  0  0  0
 19 20  1  0  0  0  0
 20 21  2  0  0  0  0
 21 22  1  0  0  0  0
 21 27  1  0  0  0  0
 22 23  2  0  0  0  0
 22 25  1  0  0  0  0
 23 24  1  0  0  0  0
 25 26  2  0  0  0  0
 26 27  1  0  0  0  0
M  END
>  <CHROM.1>
153.51970407,-61.16880596,-173.92841544,-148.96658680,-88.07405900,60.14143180
33.31899271,38.08138997,15.37067631,71.75422007,1.14823134,-0.78103674,0.42038562

>  <Name>
ligand

>  <RI>
0

>  <Rbt.Current_Directory>
/home/itssahil/PROJECTS/Mol_Feturizer/New_Systems/rnas/2QWY

>  <Rbt.Executable>
rbdock ($Id: //depot/dev/client3/rdock/2013.1/src/exe/rbdock.cxx#4 $)

>  <Rbt.Library>
libRbt.so (2013.1, Build901 2013/11/27)

>  <Rbt.Parameter_File>
/export/apps/rDock/src/rDock_2013.1_src/data/scripts/dock_solv.prm

>  <Rbt.Receptor>
prm/pocket_docking_7.prm

>  <SCORE>
-10.1509

>  <SCORE.INTER>
-4.66534

>  <SCORE.INTER.CONST>
1

>  <SCORE.INTER.POLAR>
0

>  <SCORE.INTER.ROT>
7

>  <SCORE.INTER.SOLV>
9.13561

>  <SCORE.INTER.VDW>
-14.4221

>  <SCORE.INTER.norm>
-0.17279

>  <SCORE.INTRA>
-5.48557

>  <SCORE.INTRA.DIHEDRAL>
-3.44008

>  <SCORE.INTRA.DIHEDRAL.0>
10.7382

>  <SCORE.INTRA.POLAR>
0

>  <SCORE.INTRA.POLAR.0>
0

>  <SCORE.INTRA.REPUL>
0

>  <SCORE.INTRA.REPUL.0>
0

>  <SCORE.INTRA.SOLV>
-0.151461

>  <SCORE.INTRA.SOLV.lig_0>
-49.2501

>  <SCORE.INTRA.VDW>
-3.6898

>  <SCORE.INTRA.VDW.0>
-1.75368

>  <SCORE.INTRA.norm>
-0.203169

>  <SCORE.RESTR>
0

>  <SCORE.RESTR.CAVITY>
0

>  <SCORE.RESTR.norm>
0

>  <SCORE.SYSTEM>
0

>  <SCORE.SYSTEM.CONST>
0

>  <SCORE.SYSTEM.DIHEDRAL>
0

>  <SCORE.SYSTEM.SOLV>
0

>  <SCORE.SYSTEM.norm>
0

>  <SCORE.heavy>
27

>  <SCORE.norm>
-0.37596

>  <RMSD>
10.157

$$$$
ligand
 OpenBabel11021811463D
libRbt.so/2013.1/901 2013/11/27
 27 29  0  0  0  0  0  0  0  0999 V2000
   34.8498   14.3735   63.4377 N   0  0  0  0  0  0  0  0  0  0  0  0
   34.9692   13.2612   64.3964 C   0  0  2  0  0  0  0  0  0  0  0  0
   33.7131   12.4155   64.3723 C   0  0  0  0  0  0  0  0  0  0  0  0
   32.7593   12.7431   63.6590 O   0  0  0  0  0  0  0  0  0  0  0  0
   35.1564   13.8290   65.7996 C   0  0  0  0  0  0  0  0  0  0  0  0
   36.3218   14.7946   65.8297 C   0  0  0  0  0  0  0  0  0  0  0  0
   36.5173   15.3709   67.5253 S   0  0  2  0  0  0  0  0  0  0  0  0
   36.8841   17.1139   67.1803 C   0  0  0  0  0  0  0  0  0  0  0  0
   38.1902   14.7465   67.9035 C   0  0  0  0  0  0  0  0  0  0  0  0
   38.2281   14.2963   69.3614 C   0  0  1  0  0  0  0  0  0  0  0  0
   38.0339   15.4350   70.1676 O   0  0  0  0  0  0  0  0  0  0  0  0
   37.0723   13.3440   69.6864 C   0  0  1  0  0  0  0  0  0  0  0  0
   37.2299   11.9277   69.5089 O   0  0  0  0  0  0  0  0  0  0  0  0
   36.6254   13.7913   71.1177 C   0  0  1  0  0  0  0  0  0  0  0  0
   36.4995   12.6173   71.9384 O   0  0  0  0  0  0  0  0  0  0  0  0
   37.6052   14.9750   71.4395 C   0  0  2  0  0  0  0  0  0  0  0  0
   33.6736   11.3715   65.0058 O   0  0  0  0  0  0  0  0  0  0  0  0
   36.8014   20.1186   71.4658 N   0  0  0  0  0  0  0  0  0  0  0  0
   37.5096   19.3897   70.5958 C   0  0  0  0  0  0  0  0  0  0  0  0
   37.6393   18.0732   70.7336 N   0  0  0  0  0  0  0  0  0  0  0  0
   37.0428   17.4147   71.7438 C   0  0  0  0  0  0  0  0  0  0  0  0
   36.2664   18.1399   72.6869 C   0  0  0  0  0  0  0  0  0  0  0  0
   36.1646   19.5513   72.5078 C   0  0  0  0  0  0  0  0  0  0  0  0
   35.4205   20.3263   73.3777 N   0  0  0  0  0  0  0  0  0  0  0  0
   35.7816   17.2461   73.5795 N   0  0  0  0  0  0  0  0  0  0  0  0
   36.1929   16.0541   73.2572 C   0  0  0  0  0  0  0  0  0  0  0  0
   36.9761   16.1059   72.1302 N   0  0  0  0  0  0  0  0  0  0  0  0
  2  1  1  6  0  0  0
  2  3  1  0  0  0  0
  2  5  1  0  0  0  0
  3  4  1  0  0  0  0
  3 17  1  0  0  0  0
  5  6  1  0  0  0  0
  7  6  1  6  0  0  0
  7  8  1  0  0  0  0
  7  9  1  0  0  0  0
 10  9  1  6  0  0  0
 10 11  1  0  0  0  0
 10 12  1  0  0  0  0
 11 16  1  0  0  0  0
 12 13  1  1  0  0  0
 12 14  1  0  0  0  0
 14 15  1  1  0  0  0
 14 16  1  0  0  0  0
 16 27  1  6  0  0  0
 18 19  2  0  0  0  0
 18 23  1  0  0  0  0
 19 20  1  0  0  0  0
 20 21  2  0  0  0  0
 21 22  1  0  0  0  0
 21 27  1  0  0  0  0
 22 23  2  0  0  0  0
 22 25  1  0  0  0  0
 23 24  1  0  0  0  0
 25 26  2  0  0  0  0
 26 27  1  0  0  0  0
M  END
>  <CHROM.1>
-3.17177056,-53.94023398,-177.87028091,-139.78240455,-143.48119789,-64.91946331
-12.54553657,36.29269672,15.41025362,69.10870694,2.39708862,1.26782574,-2.96104519

>  <Name>
ligand

>  <RI>
0

>  <Rbt.Current_Directory>
/home/itssahil/PROJECTS/Mol_Feturizer/New_Systems/rnas/2QWY

>  <Rbt.Executable>
rbdock ($Id: //depot/dev/client3/rdock/2013.1/src/exe/rbdock.cxx#4 $)

>  <Rbt.Library>
libRbt.so (2013.1, Build901 2013/11/27)

>  <Rbt.Parameter_File>
/export/apps/rDock/src/rDock_2013.1_src/data/scripts/dock_solv.prm

>  <Rbt.Receptor>
prm/blind_docking_100.prm

>  <SCORE>
-13.1401

>  <SCORE.INTER>
-12.9307

>  <SCORE.INTER.CONST>
1

>  <SCORE.INTER.POLAR>
0

>  <SCORE.INTER.ROT>
7

>  <SCORE.INTER.SOLV>
15.8898

>  <SCORE.INTER.VDW>
-22.1838

>  <SCORE.INTER.norm>
-0.478915

>  <SCORE.INTRA>
-0.209425

>  <SCORE.INTRA.DIHEDRAL>
0.423174

>  <SCORE.INTRA.DIHEDRAL.0>
10.7382

>  <SCORE.INTRA.POLAR>
0

>  <SCORE.INTRA.POLAR.0>
0

>  <SCORE.INTRA.REPUL>
0

>  <SCORE.INTRA.REPUL.0>
0

>  <SCORE.INTRA.SOLV>
-0.083795

>  <SCORE.INTRA.SOLV.lig_0>
-49.2501

>  <SCORE.INTRA.VDW>
-0.379114

>  <SCORE.INTRA.VDW.0>
-1.75368

>  <SCORE.INTRA.norm>
-0.00775647

>  <SCORE.RESTR>
0

>  <SCORE.RESTR.CAVITY>
0

>  <SCORE.RESTR.norm>
0

>  <SCORE.SYSTEM>
0

>  <SCORE.SYSTEM.CONST>
0

>  <SCORE.SYSTEM.DIHEDRAL>
0

>  <SCORE.SYSTEM.SOLV>
0

>  <SCORE.SYSTEM.norm>
0

>  <SCORE.heavy>
27

>  <SCORE.norm>
-0.486672

>  <RMSD>
10.164

$$$$
ligand
 OpenBabel11021811463D
libRbt.so/2013.1/901 2013/11/27
 27 29  0  0  0  0  0  0  0  0999 V2000
   37.5717   19.3816   75.5733 N   0  0  0  0  0  0  0  0  0  0  0  0
   38.1871   20.4816   74.8104 C   0  0  2  0  0  0  0  0  0  0  0  0
   38.7982   21.4939   75.7568 C   0  0  0  0  0  0  0  0  0  0  0  0
   38.1095   22.0057   76.6454 O   0  0  0  0  0  0  0  0  0  0  0  0
   37.1141   21.1711   73.9740 C   0  0  0  0  0  0  0  0  0  0  0  0
   36.6297   20.2533   72.8720 C   0  0  0  0  0  0  0  0  0  0  0  0
   37.9669   20.0701   71.6788 S   0  0  2  0  0  0  0  0  0  0  0  0
   37.8670   21.7074   70.9037 C   0  0  0  0  0  0  0  0  0  0  0  0
   37.1474   19.0486   70.4073 C   0  0  0  0  0  0  0  0  0  0  0  0
   36.6846   17.7436   71.0495 C   0  0  1  0  0  0  0  0  0  0  0  0
   35.8648   17.0746   70.1197 O   0  0  0  0  0  0  0  0  0  0  0  0
   37.8633   16.8049   71.3288 C   0  0  1  0  0  0  0  0  0  0  0  0
   38.5650   16.8767   72.5796 O   0  0  0  0  0  0  0  0  0  0  0  0
   37.2974   15.3931   70.9614 C   0  0  1  0  0  0  0  0  0  0  0  0
   37.6203   14.4859   72.0292 O   0  0  0  0  0  0  0  0  0  0  0  0
   35.8292   15.7094   70.5044 C   0  0  2  0  0  0  0  0  0  0  0  0
   39.9907   21.7491   75.6830 O   0  0  0  0  0  0  0  0  0  0  0  0
   36.6161   14.6057   65.4778 N   0  0  0  0  0  0  0  0  0  0  0  0
   37.2886   15.4579   66.2597 C   0  0  0  0  0  0  0  0  0  0  0  0
   36.9537   15.6473   67.5329 N   0  0  0  0  0  0  0  0  0  0  0  0
   35.9361   14.9703   68.0953 C   0  0  0  0  0  0  0  0  0  0  0  0
   35.1991   14.0417   67.3126 C   0  0  0  0  0  0  0  0  0  0  0  0
   35.5847   13.8795   65.9490 C   0  0  0  0  0  0  0  0  0  0  0  0
   34.9230   12.9890   65.1244 N   0  0  0  0  0  0  0  0  0  0  0  0
   34.2515   13.5039   68.1149 N   0  0  0  0  0  0  0  0  0  0  0  0
   34.3544   14.0217   69.3045 C   0  0  0  0  0  0  0  0  0  0  0  0
   35.3804   14.9338   69.3429 N   0  0  0  0  0  0  0  0  0  0  0  0
  2  1  1  1  0  0  0
  2  3  1  0  0  0  0
  2  5  1  0  0  0  0
  3  4  1  0  0  0  0
  3 17  1  0  0  0  0
  5  6  1  0  0  0  0
  7  6  1  1  0  0  0
  7  8  1  0  0  0  0
  7  9  1  0  0  0  0
 10  9  1  6  0  0  0
 10 11  1  0  0  0  0
 10 12  1  0  0  0  0
 11 16  1  0  0  0  0
 12 13  1  1  0  0  0
 12 14  1  0  0  0  0
 14 15  1  1  0  0  0
 14 16  1  0  0  0  0
 16 27  1  6  0  0  0
 18 19  2  0  0  0  0
 18 23  1  0  0  0  0
 19 20  1  0  0  0  0
 20 21  2  0  0  0  0
 21 22  1  0  0  0  0
 21 27  1  0  0  0  0
 22 23  2  0  0  0  0
 22 25  1  0  0  0  0
 23 24  1  0  0  0  0
 25 26  2  0  0  0  0
 26 27  1  0  0  0  0
M  END
>  <CHROM.1>
-54.77761437,-68.51982627,-69.49881109,-73.67350101,-59.21236330,170.27951394
53.53027401,36.97364847,17.46358854,70.87876798,0.48729936,1.28006725,1.89929638

>  <Name>
ligand

>  <RI>
0

>  <Rbt.Current_Directory>
/home/itssahil/PROJECTS/Mol_Feturizer/New_Systems/rnas/2QWY

>  <Rbt.Executable>
rbdock ($Id: //depot/dev/client3/rdock/2013.1/src/exe/rbdock.cxx#4 $)

>  <Rbt.Library>
libRbt.so (2013.1, Build901 2013/11/27)

>  <Rbt.Parameter_File>
/export/apps/rDock/src/rDock_2013.1_src/data/scripts/dock_solv.prm

>  <Rbt.Receptor>
prm/pocket_docking_8.prm

>  <SCORE>
-17.113

>  <SCORE.INTER>
-13.6005

>  <SCORE.INTER.CONST>
1

>  <SCORE.INTER.POLAR>
0

>  <SCORE.INTER.ROT>
7

>  <SCORE.INTER.SOLV>
7.6541

>  <SCORE.INTER.VDW>
-19.885

>  <SCORE.INTER.norm>
-0.503721

>  <SCORE.INTRA>
-3.51255

>  <SCORE.INTRA.DIHEDRAL>
-6.20198

>  <SCORE.INTRA.DIHEDRAL.0>
10.7382

>  <SCORE.INTRA.POLAR>
0

>  <SCORE.INTRA.POLAR.0>
0

>  <SCORE.INTRA.REPUL>
0

>  <SCORE.INTRA.REPUL.0>
0

>  <SCORE.INTRA.SOLV>
0.450235

>  <SCORE.INTRA.SOLV.lig_0>
-49.2501

>  <SCORE.INTRA.VDW>
-0.636671

>  <SCORE.INTRA.VDW.0>
-1.75368

>  <SCORE.INTRA.norm>
-0.130094

>  <SCORE.RESTR>
0

>  <SCORE.RESTR.CAVITY>
0

>  <SCORE.RESTR.norm>
0

>  <SCORE.SYSTEM>
0

>  <SCORE.SYSTEM.CONST>
0

>  <SCORE.SYSTEM.DIHEDRAL>
0

>  <SCORE.SYSTEM.SOLV>
0

>  <SCORE.SYSTEM.norm>
0

>  <SCORE.heavy>
27

>  <SCORE.norm>
-0.633815

>  <RMSD>
10.180

$$$$
ligand
 OpenBabel11021811463D
libRbt.so/2013.1/901 2013/11/27
 27 29  0  0  0  0  0  0  0  0999 V2000
   36.5146   22.8075   76.0951 N   0  0  0  0  0  0  0  0  0  0  0  0
   36.0482   21.7549   75.1757 C   0  0  2  0  0  0  0  0  0  0  0  0
   35.6183   20.5320   75.9591 C   0  0  0  0  0  0  0  0  0  0  0  0
   34.6842   19.8330   75.5531 O   0  0  0  0  0  0  0  0  0  0  0  0
   37.1888   21.3673   74.2402 C   0  0  0  0  0  0  0  0  0  0  0  0
   36.7247   20.3306   73.2396 C   0  0  0  0  0  0  0  0  0  0  0  0
   38.0859   20.0121   72.1034 S   0  0  2  0  0  0  0  0  0  0  0  0
   37.7249   21.2997   70.8774 C   0  0  0  0  0  0  0  0  0  0  0  0
   37.4596   18.5360   71.2312 C   0  0  0  0  0  0  0  0  0  0  0  0
   37.3843   17.3764   72.2207 C   0  0  1  0  0  0  0  0  0  0  0  0
   37.0570   16.2139   71.4956 O   0  0  0  0  0  0  0  0  0  0  0  0
   38.7447   17.1023   72.8708 C   0  0  1  0  0  0  0  0  0  0  0  0
   39.1178   17.7789   74.0813 O   0  0  0  0  0  0  0  0  0  0  0  0
   38.8087   15.5401   72.9330 C   0  0  1  0  0  0  0  0  0  0  0  0
   39.2247   15.1580   74.2553 O   0  0  0  0  0  0  0  0  0  0  0  0
   37.4430   15.1052   72.2924 C   0  0  2  0  0  0  0  0  0  0  0  0
   36.2436   20.1999   76.9548 O   0  0  0  0  0  0  0  0  0  0  0  0
   39.3220   13.2039   67.8250 N   0  0  0  0  0  0  0  0  0  0  0  0
   39.4475   14.4388   68.3240 C   0  0  0  0  0  0  0  0  0  0  0  0
   38.8892   14.7822   69.4813 N   0  0  0  0  0  0  0  0  0  0  0  0
   38.1924   13.8928   70.2116 C   0  0  0  0  0  0  0  0  0  0  0  0
   38.0421   12.5633   69.7340 C   0  0  0  0  0  0  0  0  0  0  0  0
   38.6467   12.2423   68.4826 C   0  0  0  0  0  0  0  0  0  0  0  0
   38.5531   10.9684   67.9542 N   0  0  0  0  0  0  0  0  0  0  0  0
   37.3145   11.8869   70.6525 N   0  0  0  0  0  0  0  0  0  0  0  0
   37.0179   12.6862   71.6359 C   0  0  0  0  0  0  0  0  0  0  0  0
   37.5373   13.9373   71.4098 N   0  0  0  0  0  0  0  0  0  0  0  0
  2  1  1  1  0  0  0
  2  3  1  0  0  0  0
  2  5  1  0  0  0  0
  3  4  1  0  0  0  0
  3 17  1  0  0  0  0
  5  6  1  0  0  0  0
  7  6  1  1  0  0  0
  7  8  1  0  0  0  0
  7  9  1  0  0  0  0
 10  9  1  6  0  0  0
 10 11  1  0  0  0  0
 10 12  1  0  0  0  0
 11 16  1  0  0  0  0
 12 13  1  1  0  0  0
 12 14  1  0  0  0  0
 14 15  1  1  0  0  0
 14 16  1  0  0  0  0
 16 27  1  6  0  0  0
 18 19  2  0  0  0  0
 18 23  1  0  0  0  0
 19 20  1  0  0  0  0
 20 21  2  0  0  0  0
 21 22  1  0  0  0  0
 21 27  1  0  0  0  0
 22 23  2  0  0  0  0
 22 25  1  0  0  0  0
 23 24  1  0  0  0  0
 25 26  2  0  0  0  0
 26 27  1  0  0  0  0
M  END
>  <CHROM.1>
146.34352796,-177.43896483,176.07849496,-88.51446333,-66.48706922,-172.95743330
48.46378230,37.67198348,16.98035887,72.20822593,-2.19568576,-1.24777650,3.12557681

>  <Name>
ligand

>  <RI>
0

>  <Rbt.Current_Directory>
/home/itssahil/PROJECTS/Mol_Feturizer/New_Systems/rnas/2QWY

>  <Rbt.Executable>
rbdock ($Id: //depot/dev/client3/rdock/2013.1/src/exe/rbdock.cxx#4 $)

>  <Rbt.Library>
libRbt.so (2013.1, Build901 2013/11/27)

>  <Rbt.Parameter_File>
/export/apps/rDock/src/rDock_2013.1_src/data/scripts/dock_solv.prm

>  <Rbt.Receptor>
prm/pocket_docking_7.prm

>  <SCORE>
-13.7361

>  <SCORE.INTER>
-9.75896

>  <SCORE.INTER.CONST>
1

>  <SCORE.INTER.POLAR>
0

>  <SCORE.INTER.ROT>
7

>  <SCORE.INTER.SOLV>
6.45386

>  <SCORE.INTER.VDW>
-16.9239

>  <SCORE.INTER.norm>
-0.361443

>  <SCORE.INTRA>
-3.97715

>  <SCORE.INTRA.DIHEDRAL>
-6.33995

>  <SCORE.INTRA.DIHEDRAL.0>
10.7382

>  <SCORE.INTRA.POLAR>
0

>  <SCORE.INTRA.POLAR.0>
0

>  <SCORE.INTRA.REPUL>
0

>  <SCORE.INTRA.REPUL.0>
0

>  <SCORE.INTRA.SOLV>
-0.842281

>  <SCORE.INTRA.SOLV.lig_0>
-49.2501

>  <SCORE.INTRA.VDW>
-0.386036

>  <SCORE.INTRA.VDW.0>
-1.75368

>  <SCORE.INTRA.norm>
-0.147302

>  <SCORE.RESTR>
0

>  <SCORE.RESTR.CAVITY>
0

>  <SCORE.RESTR.norm>
0

>  <SCORE.SYSTEM>
0

>  <SCORE.SYSTEM.CONST>
0

>  <SCORE.SYSTEM.DIHEDRAL>
0

>  <SCORE.SYSTEM.SOLV>
0

>  <SCORE.SYSTEM.norm>
0

>  <SCORE.heavy>
27

>  <SCORE.norm>
-0.508745

>  <RMSD>
10.192

$$$$
ligand
 OpenBabel11021811463D
libRbt.so/2013.1/901 2013/11/27
 27 29  0  0  0  0  0  0  0  0999 V2000
   23.0343   23.9786   79.8067 N   0  0  0  0  0  0  0  0  0  0  0  0
   23.3280   24.3845   78.4212 C   0  0  2  0  0  0  0  0  0  0  0  0
   22.0799   24.2739   77.5703 C   0  0  0  0  0  0  0  0  0  0  0  0
   21.2709   23.3626   77.7725 O   0  0  0  0  0  0  0  0  0  0  0  0
   24.4007   23.4644   77.8477 C   0  0  0  0  0  0  0  0  0  0  0  0
   24.7830   23.9023   76.4500 C   0  0  0  0  0  0  0  0  0  0  0  0
   25.7821   22.5953   75.7160 S   0  0  2  0  0  0  0  0  0  0  0  0
   26.0455   23.3384   74.0820 C   0  0  0  0  0  0  0  0  0  0  0  0
   24.4921   21.3664   75.3195 C   0  0  0  0  0  0  0  0  0  0  0  0
   24.7668   20.0926   76.1142 C   0  0  1  0  0  0  0  0  0  0  0  0
   26.1581   19.8725   76.1051 O   0  0  0  0  0  0  0  0  0  0  0  0
   24.3717   20.2515   77.5863 C   0  0  1  0  0  0  0  0  0  0  0  0
   23.0399   19.9307   78.0168 O   0  0  0  0  0  0  0  0  0  0  0  0
   25.5171   19.5091   78.3513 C   0  0  1  0  0  0  0  0  0  0  0  0
   24.9177   18.6363   79.3242 O   0  0  0  0  0  0  0  0  0  0  0  0
   26.4487   19.0074   77.1915 C   0  0  2  0  0  0  0  0  0  0  0  0
   21.8414   25.1293   76.7311 O   0  0  0  0  0  0  0  0  0  0  0  0
   30.4112   22.2363   78.1798 N   0  0  0  0  0  0  0  0  0  0  0  0
   29.1316   22.5379   77.9321 C   0  0  0  0  0  0  0  0  0  0  0  0
   28.2304   21.5936   77.6768 N   0  0  0  0  0  0  0  0  0  0  0  0
   28.5645   20.2904   77.6798 C   0  0  0  0  0  0  0  0  0  0  0  0
   29.9074   19.9153   77.9522 C   0  0  0  0  0  0  0  0  0  0  0  0
   30.8429   20.9612   78.2082 C   0  0  0  0  0  0  0  0  0  0  0  0
   32.1662   20.6778   78.4901 N   0  0  0  0  0  0  0  0  0  0  0  0
   29.9651   18.5645   77.8999 N   0  0  0  0  0  0  0  0  0  0  0  0
   28.7823   18.0965   77.6245 C   0  0  0  0  0  0  0  0  0  0  0  0
   27.8826   19.1237   77.4786 N   0  0  0  0  0  0  0  0  0  0  0  0
  2  1  1  1  0  0  0
  2  3  1  0  0  0  0
  2  5  1  0  0  0  0
  3  4  1  0  0  0  0
  3 17  1  0  0  0  0
  5  6  1  0  0  0  0
  7  6  1  1  0  0  0
  7  8  1  0  0  0  0
  7  9  1  0  0  0  0
 10  9  1  6  0  0  0
 10 11  1  0  0  0  0
 10 12  1  0  0  0  0
 11 16  1  0  0  0  0
 12 13  1  6  0  0  0
 12 14  1  0  0  0  0
 14 15  1  6  0  0  0
 14 16  1  0  0  0  0
 16 27  1  1  0  0  0
 18 19  2  0  0  0  0
 18 23  1  0  0  0  0
 19 20  1  0  0  0  0
 20 21  2  0  0  0  0
 21 22  1  0  0  0  0
 21 27  1  0  0  0  0
 22 23  2  0  0  0  0
 22 25  1  0  0  0  0
 23 24  1  0  0  0  0
 25 26  2  0  0  0  0
 26 27  1  0  0  0  0
M  END
>  <CHROM.1>
-35.62809516,-176.81432829,-168.48283739,178.32149206,-117.77896357,-40.13082148
51.46269412,26.09175900,21.45629038,77.36530931,-2.67063962,-0.02217889,2.93796320

>  <Name>
ligand

>  <RI>
0

>  <Rbt.Current_Directory>
/home/itssahil/PROJECTS/Mol_Feturizer/New_Systems/rnas/2QWY

>  <Rbt.Executable>
rbdock ($Id: //depot/dev/client3/rdock/2013.1/src/exe/rbdock.cxx#4 $)

>  <Rbt.Library>
libRbt.so (2013.1, Build901 2013/11/27)

>  <Rbt.Parameter_File>
/export/apps/rDock/src/rDock_2013.1_src/data/scripts/dock_solv.prm

>  <Rbt.Receptor>
prm/pocket_docking_8.prm

>  <SCORE>
-24.6566

>  <SCORE.INTER>
-21.6518

>  <SCORE.INTER.CONST>
1

>  <SCORE.INTER.POLAR>
0

>  <SCORE.INTER.ROT>
7

>  <SCORE.INTER.SOLV>
11.5415

>  <SCORE.INTER.VDW>
-26.5484

>  <SCORE.INTER.norm>
-0.80192

>  <SCORE.INTRA>
-3.00478

>  <SCORE.INTRA.DIHEDRAL>
-1.59725

>  <SCORE.INTRA.DIHEDRAL.0>
10.7382

>  <SCORE.INTRA.POLAR>
0

>  <SCORE.INTRA.POLAR.0>
0

>  <SCORE.INTRA.REPUL>
0

>  <SCORE.INTRA.REPUL.0>
0

>  <SCORE.INTRA.SOLV>
-0.716648

>  <SCORE.INTRA.SOLV.lig_0>
-49.2501

>  <SCORE.INTRA.VDW>
-1.84784

>  <SCORE.INTRA.VDW.0>
-1.75368

>  <SCORE.INTRA.norm>
-0.111288

>  <SCORE.RESTR>
0

>  <SCORE.RESTR.CAVITY>
0

>  <SCORE.RESTR.norm>
0

>  <SCORE.SYSTEM>
0

>  <SCORE.SYSTEM.CONST>
0

>  <SCORE.SYSTEM.DIHEDRAL>
0

>  <SCORE.SYSTEM.SOLV>
0

>  <SCORE.SYSTEM.norm>
0

>  <SCORE.heavy>
27

>  <SCORE.norm>
-0.913208

>  <RMSD>
10.279

$$$$
ligand
 OpenBabel11021811463D
libRbt.so/2013.1/901 2013/11/27
 27 29  0  0  0  0  0  0  0  0999 V2000
   34.5265   14.4541   62.9141 N   0  0  0  0  0  0  0  0  0  0  0  0
   34.9386   13.2367   63.6344 C   0  0  2  0  0  0  0  0  0  0  0  0
   33.8557   12.1822   63.5373 C   0  0  0  0  0  0  0  0  0  0  0  0
   34.1516   10.9840   63.5863 O   0  0  0  0  0  0  0  0  0  0  0  0
   35.1662   13.5782   65.1033 C   0  0  0  0  0  0  0  0  0  0  0  0
   36.1732   14.7005   65.2369 C   0  0  0  0  0  0  0  0  0  0  0  0
   36.3162   15.1085   66.9857 S   0  0  2  0  0  0  0  0  0  0  0  0
   37.0472   16.7609   66.8214 C   0  0  0  0  0  0  0  0  0  0  0  0
   37.7917   14.1348   67.4401 C   0  0  0  0  0  0  0  0  0  0  0  0
   37.8739   14.0494   68.9618 C   0  0  1  0  0  0  0  0  0  0  0  0
   37.8143   15.3621   69.4693 O   0  0  0  0  0  0  0  0  0  0  0  0
   36.6664   13.3117   69.5501 C   0  0  1  0  0  0  0  0  0  0  0  0
   36.7021   11.8863   69.7211 O   0  0  0  0  0  0  0  0  0  0  0  0
   36.3352   14.1305   70.8417 C   0  0  1  0  0  0  0  0  0  0  0  0
   36.1625   13.2063   71.9297 O   0  0  0  0  0  0  0  0  0  0  0  0
   37.4212   15.2641   70.8290 C   0  0  2  0  0  0  0  0  0  0  0  0
   32.6833   12.5215   63.4816 O   0  0  0  0  0  0  0  0  0  0  0  0
   36.0603   18.3143   74.8226 N   0  0  0  0  0  0  0  0  0  0  0  0
   36.4929   17.0486   74.8496 C   0  0  0  0  0  0  0  0  0  0  0  0
   36.7869   16.3892   73.7325 N   0  0  0  0  0  0  0  0  0  0  0  0
   36.6831   16.9771   72.5268 C   0  0  0  0  0  0  0  0  0  0  0  0
   36.2428   18.3252   72.4437 C   0  0  0  0  0  0  0  0  0  0  0  0
   35.9266   18.9898   73.6655 C   0  0  0  0  0  0  0  0  0  0  0  0
   35.4998   20.3046   73.6694 N   0  0  0  0  0  0  0  0  0  0  0  0
   36.2367   18.6651   71.1341 N   0  0  0  0  0  0  0  0  0  0  0  0
   36.6346   17.6478   70.4264 C   0  0  0  0  0  0  0  0  0  0  0  0
   36.9217   16.5803   71.2413 N   0  0  0  0  0  0  0  0  0  0  0  0
  2  1  1  6  0  0  0
  2  3  1  0  0  0  0
  2  5  1  0  0  0  0
  3  4  1  0  0  0  0
  3 17  1  0  0  0  0
  5  6  1  0  0  0  0
  7  6  1  6  0  0  0
  7  8  1  0  0  0  0
  7  9  1  0  0  0  0
 10  9  1  6  0  0  0
 10 11  1  0  0  0  0
 10 12  1  0  0  0  0
 11 16  1  0  0  0  0
 12 13  1  1  0  0  0
 12 14  1  0  0  0  0
 14 15  1  1  0  0  0
 14 16  1  0  0  0  0
 16 27  1  6  0  0  0
 18 19  2  0  0  0  0
 18 23  1  0  0  0  0
 19 20  1  0  0  0  0
 20 21  2  0  0  0  0
 21 22  1  0  0  0  0
 21 27  1  0  0  0  0
 22 23  2  0  0  0  0
 22 25  1  0  0  0  0
 23 24  1  0  0  0  0
 25 26  2  0  0  0  0
 26 27  1  0  0  0  0
M  END
>  <CHROM.1>
151.72948764,-55.74425385,176.79723971,-160.88375298,-165.27088033,-53.24677173
-166.94993919,36.10902388,15.23572505,68.99942796,2.23437745,1.30200608,-2.69933867

>  <Name>
ligand

>  <RI>
0

>  <Rbt.Current_Directory>
/home/itssahil/PROJECTS/Mol_Feturizer/New_Systems/rnas/2QWY

>  <Rbt.Executable>
rbdock ($Id: //depot/dev/client3/rdock/2013.1/src/exe/rbdock.cxx#4 $)

>  <Rbt.Library>
libRbt.so (2013.1, Build901 2013/11/27)

>  <Rbt.Parameter_File>
/export/apps/rDock/src/rDock_2013.1_src/data/scripts/dock_solv.prm

>  <Rbt.Receptor>
prm/blind_docking_100.prm

>  <SCORE>
-14.2548

>  <SCORE.INTER>
-11.7077

>  <SCORE.INTER.CONST>
1

>  <SCORE.INTER.POLAR>
0

>  <SCORE.INTER.ROT>
7

>  <SCORE.INTER.SOLV>
14.2543

>  <SCORE.INTER.VDW>
-20.8233

>  <SCORE.INTER.norm>
-0.43362

>  <SCORE.INTRA>
-2.55032

>  <SCORE.INTRA.DIHEDRAL>
-3.96398

>  <SCORE.INTRA.DIHEDRAL.0>
10.7382

>  <SCORE.INTRA.POLAR>
0

>  <SCORE.INTRA.POLAR.0>
0

>  <SCORE.INTRA.REPUL>
0

>  <SCORE.INTRA.REPUL.0>
0

>  <SCORE.INTRA.SOLV>
-0.13158

>  <SCORE.INTRA.SOLV.lig_0>
-49.2501

>  <SCORE.INTRA.VDW>
-0.502539

>  <SCORE.INTRA.VDW.0>
-1.75368

>  <SCORE.INTRA.norm>
-0.0944562

>  <SCORE.RESTR>
0.00328889

>  <SCORE.RESTR.CAVITY>
0.00328889

>  <SCORE.RESTR.norm>
0.000121811

>  <SCORE.SYSTEM>
0

>  <SCORE.SYSTEM.CONST>
0

>  <SCORE.SYSTEM.DIHEDRAL>
0

>  <SCORE.SYSTEM.SOLV>
0

>  <SCORE.SYSTEM.norm>
0

>  <SCORE.heavy>
27

>  <SCORE.norm>
-0.527954

>  <RMSD>
10.292

$$$$
ligand
 OpenBabel11021811463D
libRbt.so/2013.1/901 2013/11/27
 27 29  0  0  0  0  0  0  0  0999 V2000
   35.0691   11.3212   63.2459 N   0  0  0  0  0  0  0  0  0  0  0  0
   34.1938   12.2792   63.9437 C   0  0  2  0  0  0  0  0  0  0  0  0
   34.2308   13.6227   63.2455 C   0  0  0  0  0  0  0  0  0  0  0  0
   33.2021   14.0900   62.7463 O   0  0  0  0  0  0  0  0  0  0  0  0
   34.6855   12.4528   65.3770 C   0  0  0  0  0  0  0  0  0  0  0  0
   33.7758   13.3921   66.1395 C   0  0  0  0  0  0  0  0  0  0  0  0
   34.4332   13.5638   67.8079 S   0  0  2  0  0  0  0  0  0  0  0  0
   33.3102   14.8544   68.4120 C   0  0  0  0  0  0  0  0  0  0  0  0
   35.9321   14.5525   67.4803 C   0  0  0  0  0  0  0  0  0  0  0  0
   36.8803   14.4149   68.6684 C   0  0  1  0  0  0  0  0  0  0  0  0
   36.7255   15.5586   69.4760 O   0  0  0  0  0  0  0  0  0  0  0  0
   36.5070   13.2186   69.5505 C   0  0  1  0  0  0  0  0  0  0  0  0
   37.0606   11.9210   69.2823 O   0  0  0  0  0  0  0  0  0  0  0  0
   36.7352   13.7540   71.0030 C   0  0  1  0  0  0  0  0  0  0  0  0
   37.4954   12.7741   71.7307 O   0  0  0  0  0  0  0  0  0  0  0  0
   37.2208   15.2276   70.7637 C   0  0  2  0  0  0  0  0  0  0  0  0
   35.2646   14.2739   63.2398 O   0  0  0  0  0  0  0  0  0  0  0  0
   36.5365   20.2689   71.8688 N   0  0  0  0  0  0  0  0  0  0  0  0
   37.1577   19.7225   70.8175 C   0  0  0  0  0  0  0  0  0  0  0  0
   37.2685   18.4040   70.6820 N   0  0  0  0  0  0  0  0  0  0  0  0
   36.7386   17.5621   71.5878 C   0  0  0  0  0  0  0  0  0  0  0  0
   36.0550   18.0908   72.7154 C   0  0  0  0  0  0  0  0  0  0  0  0
   35.9710   19.5103   72.8269 C   0  0  0  0  0  0  0  0  0  0  0  0
   35.3150   20.1020   73.8901 N   0  0  0  0  0  0  0  0  0  0  0  0
   35.6220   17.0407   73.4506 N   0  0  0  0  0  0  0  0  0  0  0  0
   35.9800   15.9338   72.8672 C   0  0  0  0  0  0  0  0  0  0  0  0
   36.6732   16.2031   71.7127 N   0  0  0  0  0  0  0  0  0  0  0  0
  2  1  1  6  0  0  0
  2  3  1  0  0  0  0
  2  5  1  0  0  0  0
  3  4  1  0  0  0  0
  3 17  1  0  0  0  0
  5  6  1  0  0  0  0
  7  6  1  6  0  0  0
  7  8  1  0  0  0  0
  7  9  1  0  0  0  0
 10  9  1  6  0  0  0
 10 11  1  0  0  0  0
 10 12  1  0  0  0  0
 11 16  1  0  0  0  0
 12 13  1  6  0  0  0
 12 14  1  0  0  0  0
 14 15  1  6  0  0  0
 14 16  1  0  0  0  0
 16 27  1  1  0  0  0
 18 19  2  0  0  0  0
 18 23  1  0  0  0  0
 19 20  1  0  0  0  0
 20 21  2  0  0  0  0
 21 22  1  0  0  0  0
 21 27  1  0  0  0  0
 22 23  2  0  0  0  0
 22 25  1  0  0  0  0
 23 24  1  0  0  0  0
 25 26  2  0  0  0  0
 26 27  1  0  0  0  0
M  END
>  <CHROM.1>
117.63352196,-177.84533708,-179.19355129,173.52173522,-160.94272922,-99.48839612
-52.16110034,35.70056184,15.16885465,68.90561070,-2.13476689,-1.19032135
0.46863420

>  <Name>
ligand

>  <RI>
0

>  <Rbt.Current_Directory>
/home/itssahil/PROJECTS/Mol_Feturizer/New_Systems/rnas/2QWY

>  <Rbt.Executable>
rbdock ($Id: //depot/dev/client3/rdock/2013.1/src/exe/rbdock.cxx#4 $)

>  <Rbt.Library>
libRbt.so (2013.1, Build901 2013/11/27)

>  <Rbt.Parameter_File>
/export/apps/rDock/src/rDock_2013.1_src/data/scripts/dock_solv.prm

>  <Rbt.Receptor>
prm/blind_docking_100.prm

>  <SCORE>
-11.024

>  <SCORE.INTER>
-12.3678

>  <SCORE.INTER.CONST>
1

>  <SCORE.INTER.POLAR>
0

>  <SCORE.INTER.ROT>
7

>  <SCORE.INTER.SOLV>
13.0998

>  <SCORE.INTER.VDW>
-20.8785

>  <SCORE.INTER.norm>
-0.458068

>  <SCORE.INTRA>
1.34094

>  <SCORE.INTRA.DIHEDRAL>
-1.66625

>  <SCORE.INTRA.DIHEDRAL.0>
10.7382

>  <SCORE.INTRA.POLAR>
0

>  <SCORE.INTRA.POLAR.0>
0

>  <SCORE.INTRA.REPUL>
0

>  <SCORE.INTRA.REPUL.0>
0

>  <SCORE.INTRA.SOLV>
-0.890393

>  <SCORE.INTRA.SOLV.lig_0>
-49.2501

>  <SCORE.INTRA.VDW>
2.61926

>  <SCORE.INTRA.VDW.0>
-1.75368

>  <SCORE.INTRA.norm>
0.0496645

>  <SCORE.RESTR>
0.00292739

>  <SCORE.RESTR.CAVITY>
0.00292739

>  <SCORE.RESTR.norm>
0.000108422

>  <SCORE.SYSTEM>
0

>  <SCORE.SYSTEM.CONST>
0

>  <SCORE.SYSTEM.DIHEDRAL>
0

>  <SCORE.SYSTEM.SOLV>
0

>  <SCORE.SYSTEM.norm>
0

>  <SCORE.heavy>
27

>  <SCORE.norm>
-0.408295

>  <RMSD>
10.374

$$$$
ligand
 OpenBabel11021811463D
libRbt.so/2013.1/901 2013/11/27
 27 29  0  0  0  0  0  0  0  0999 V2000
   35.0275   11.2409   63.2266 N   0  0  0  0  0  0  0  0  0  0  0  0
   34.1882   12.2256   63.9315 C   0  0  2  0  0  0  0  0  0  0  0  0
   34.2232   13.5545   63.2058 C   0  0  0  0  0  0  0  0  0  0  0  0
   33.2013   13.9944   62.6691 O   0  0  0  0  0  0  0  0  0  0  0  0
   34.7264   12.4197   65.3454 C   0  0  0  0  0  0  0  0  0  0  0  0
   33.8359   13.3619   66.1268 C   0  0  0  0  0  0  0  0  0  0  0  0
   34.5103   13.5056   67.7911 S   0  0  2  0  0  0  0  0  0  0  0  0
   33.3895   14.7810   68.4304 C   0  0  0  0  0  0  0  0  0  0  0  0
   36.0024   14.5054   67.4658 C   0  0  0  0  0  0  0  0  0  0  0  0
   36.9479   14.3781   68.6572 C   0  0  1  0  0  0  0  0  0  0  0  0
   36.8036   15.5365   69.4455 O   0  0  0  0  0  0  0  0  0  0  0  0
   36.5619   13.2004   69.5585 C   0  0  1  0  0  0  0  0  0  0  0  0
   37.1030   11.8931   69.3125 O   0  0  0  0  0  0  0  0  0  0  0  0
   36.7938   13.7575   71.0022 C   0  0  1  0  0  0  0  0  0  0  0  0
   37.5435   12.7824   71.7469 O   0  0  0  0  0  0  0  0  0  0  0  0
   37.2942   15.2221   70.7391 C   0  0  2  0  0  0  0  0  0  0  0  0
   35.2465   14.2220   63.2138 O   0  0  0  0  0  0  0  0  0  0  0  0
   36.7419   20.2873   71.8081 N   0  0  0  0  0  0  0  0  0  0  0  0
   37.3702   19.7170   70.7739 C   0  0  0  0  0  0  0  0  0  0  0  0
   37.4429   18.3951   70.6462 N   0  0  0  0  0  0  0  0  0  0  0  0
   36.8659   17.5742   71.5425 C   0  0  0  0  0  0  0  0  0  0  0  0
   36.1730   18.1291   72.6516 C   0  0  0  0  0  0  0  0  0  0  0  0
   36.1307   19.5511   72.7556 C   0  0  0  0  0  0  0  0  0  0  0  0
   35.4688   20.1679   73.8007 N   0  0  0  0  0  0  0  0  0  0  0  0
   35.6903   17.0965   73.3805 N   0  0  0  0  0  0  0  0  0  0  0  0
   36.0272   15.9762   72.8101 C   0  0  0  0  0  0  0  0  0  0  0  0
   36.7553   16.2185   71.6711 N   0  0  0  0  0  0  0  0  0  0  0  0
  2  1  1  6  0  0  0
  2  3  1  0  0  0  0
  2  5  1  0  0  0  0
  3  4  1  0  0  0  0
  3 17  1  0  0  0  0
  5  6  1  0  0  0  0
  7  6  1  6  0  0  0
  7  8  1  0  0  0  0
  7  9  1  0  0  0  0
 10  9  1  6  0  0  0
 10 11  1  0  0  0  0
 10 12  1  0  0  0  0
 11 16  1  0  0  0  0
 12 13  1  6  0  0  0
 12 14  1  0  0  0  0
 14 15  1  6  0  0  0
 14 16  1  0  0  0  0
 16 27  1  1  0  0  0
 18 19  2  0  0  0  0
 18 23  1  0  0  0  0
 19 20  1  0  0  0  0
 20 21  2  0  0  0  0
 21 22  1  0  0  0  0
 21 27  1  0  0  0  0
 22 23  2  0  0  0  0
 22 25  1  0  0  0  0
 23 24  1  0  0  0  0
 25 26  2  0  0  0  0
 26 27  1  0  0  0  0
M  END
>  <CHROM.1>
113.88196517,-176.49768958,178.54397928,174.54340442,-162.38305017,-100.79657258
-54.06518845,35.77380353,15.15005150,68.87665337,-2.18664426,-1.19614793
0.40791634

>  <Name>
ligand

>  <RI>
0

>  <Rbt.Current_Directory>
/home/itssahil/PROJECTS/Mol_Feturizer/New_Systems/rnas/2QWY

>  <Rbt.Executable>
rbdock ($Id: //depot/dev/client3/rdock/2013.1/src/exe/rbdock.cxx#4 $)

>  <Rbt.Library>
libRbt.so (2013.1, Build901 2013/11/27)

>  <Rbt.Parameter_File>
/export/apps/rDock/src/rDock_2013.1_src/data/scripts/dock_solv.prm

>  <Rbt.Receptor>
prm/blind_docking_100.prm

>  <SCORE>
-11.2387

>  <SCORE.INTER>
-12.7813

>  <SCORE.INTER.CONST>
1

>  <SCORE.INTER.POLAR>
0

>  <SCORE.INTER.ROT>
7

>  <SCORE.INTER.SOLV>
12.3012

>  <SCORE.INTER.VDW>
-20.888

>  <SCORE.INTER.norm>
-0.473383

>  <SCORE.INTRA>
1.49687

>  <SCORE.INTRA.DIHEDRAL>
-1.59449

>  <SCORE.INTRA.DIHEDRAL.0>
10.7382

>  <SCORE.INTRA.POLAR>
0

>  <SCORE.INTRA.POLAR.0>
0

>  <SCORE.INTRA.REPUL>
0

>  <SCORE.INTRA.REPUL.0>
0

>  <SCORE.INTRA.SOLV>
-0.895018

>  <SCORE.INTRA.SOLV.lig_0>
-49.2501

>  <SCORE.INTRA.VDW>
2.74162

>  <SCORE.INTRA.VDW.0>
-1.75368

>  <SCORE.INTRA.norm>
0.0554395

>  <SCORE.RESTR>
0.0457882

>  <SCORE.RESTR.CAVITY>
0.0457882

>  <SCORE.RESTR.norm>
0.00169586

>  <SCORE.SYSTEM>
0

>  <SCORE.SYSTEM.CONST>
0

>  <SCORE.SYSTEM.DIHEDRAL>
0

>  <SCORE.SYSTEM.SOLV>
0

>  <SCORE.SYSTEM.norm>
0

>  <SCORE.heavy>
27

>  <SCORE.norm>
-0.416248

>  <RMSD>
10.446

$$$$
ligand
 OpenBabel11021811463D
libRbt.so/2013.1/901 2013/11/27
 27 29  0  0  0  0  0  0  0  0999 V2000
   34.5708   13.7849   63.3671 N   0  0  0  0  0  0  0  0  0  0  0  0
   34.9397   12.3761   63.5903 C   0  0  2  0  0  0  0  0  0  0  0  0
   33.8149   11.4658   63.1428 C   0  0  0  0  0  0  0  0  0  0  0  0
   32.6626   11.6626   63.5419 O   0  0  0  0  0  0  0  0  0  0  0  0
   35.1923   12.1555   65.0782 C   0  0  0  0  0  0  0  0  0  0  0  0
   36.4245   12.9127   65.5248 C   0  0  0  0  0  0  0  0  0  0  0  0
   35.9898   14.6574   65.6369 S   0  0  2  0  0  0  0  0  0  0  0  0
   37.5473   15.2828   66.3258 C   0  0  0  0  0  0  0  0  0  0  0  0
   34.9431   14.6492   67.1322 C   0  0  0  0  0  0  0  0  0  0  0  0
   35.8128   14.3048   68.3382 C   0  0  1  0  0  0  0  0  0  0  0  0
   36.1310   15.5090   68.9960 O   0  0  0  0  0  0  0  0  0  0  0  0
   35.0491   13.4531   69.3579 C   0  0  1  0  0  0  0  0  0  0  0  0
   35.0620   12.0205   69.2586 O   0  0  0  0  0  0  0  0  0  0  0  0
   35.5162   14.0305   70.7351 C   0  0  1  0  0  0  0  0  0  0  0  0
   35.8772   12.9296   71.5867 O   0  0  0  0  0  0  0  0  0  0  0  0
   36.5125   15.1707   70.3201 C   0  0  2  0  0  0  0  0  0  0  0  0
   34.0388   10.5806   62.3311 O   0  0  0  0  0  0  0  0  0  0  0  0
   36.8997   17.2240   75.0885 N   0  0  0  0  0  0  0  0  0  0  0  0
   37.0684   15.9513   74.7124 C   0  0  0  0  0  0  0  0  0  0  0  0
   36.9161   15.5732   73.4463 N   0  0  0  0  0  0  0  0  0  0  0  0
   36.6078   16.4620   72.4845 C   0  0  0  0  0  0  0  0  0  0  0  0
   36.4327   17.8292   72.8283 C   0  0  0  0  0  0  0  0  0  0  0  0
   36.5933   18.1879   74.1995 C   0  0  0  0  0  0  0  0  0  0  0  0
   36.4480   19.4989   74.6129 N   0  0  0  0  0  0  0  0  0  0  0  0
   36.1401   18.4954   71.6876 N   0  0  0  0  0  0  0  0  0  0  0  0
   36.1264   17.6555   70.6935 C   0  0  0  0  0  0  0  0  0  0  0  0
   36.4089   16.3861   71.1348 N   0  0  0  0  0  0  0  0  0  0  0  0
  2  1  1  1  0  0  0
  2  3  1  0  0  0  0
  2  5  1  0  0  0  0
  3  4  1  0  0  0  0
  3 17  1  0  0  0  0
  5  6  1  0  0  0  0
  7  6  1  1  0  0  0
  7  8  1  0  0  0  0
  7  9  1  0  0  0  0
 10  9  1  6  0  0  0
 10 11  1  0  0  0  0
 10 12  1  0  0  0  0
 11 16  1  0  0  0  0
 12 13  1  1  0  0  0
 12 14  1  0  0  0  0
 14 15  1  1  0  0  0
 14 16  1  0  0  0  0
 16 27  1  1  0  0  0
 18 19  2  0  0  0  0
 18 23  1  0  0  0  0
 19 20  1  0  0  0  0
 20 21  2  0  0  0  0
 21 22  1  0  0  0  0
 21 27  1  0  0  0  0
 22 23  2  0  0  0  0
 22 25  1  0  0  0  0
 23 24  1  0  0  0  0
 25 26  2  0  0  0  0
 26 27  1  0  0  0  0
M  END
>  <CHROM.1>
-51.16065629,-67.08561092,75.27521908,174.83787928,66.81269843,99.65164478
175.57785434,35.74882025,14.72567800,68.80158791,-2.33127061,1.30073567,1.83716423

>  <Name>
ligand

>  <RI>
0

>  <Rbt.Current_Directory>
/home/itssahil/PROJECTS/Mol_Feturizer/New_Systems/rnas/2QWY

>  <Rbt.Executable>
rbdock ($Id: //depot/dev/client3/rdock/2013.1/src/exe/rbdock.cxx#4 $)

>  <Rbt.Library>
libRbt.so (2013.1, Build901 2013/11/27)

>  <Rbt.Parameter_File>
/export/apps/rDock/src/rDock_2013.1_src/data/scripts/dock_solv.prm

>  <Rbt.Receptor>
prm/blind_docking_100.prm

>  <SCORE>
-8.2799

>  <SCORE.INTER>
-10.5172

>  <SCORE.INTER.CONST>
1

>  <SCORE.INTER.POLAR>
0

>  <SCORE.INTER.ROT>
7

>  <SCORE.INTER.SOLV>
8.54683

>  <SCORE.INTER.VDW>
-18.1271

>  <SCORE.INTER.norm>
-0.389527

>  <SCORE.INTRA>
2.22445

>  <SCORE.INTRA.DIHEDRAL>
-1.79998

>  <SCORE.INTRA.DIHEDRAL.0>
10.7382

>  <SCORE.INTRA.POLAR>
0

>  <SCORE.INTRA.POLAR.0>
0

>  <SCORE.INTRA.REPUL>
0

>  <SCORE.INTRA.REPUL.0>
0

>  <SCORE.INTRA.SOLV>
1.86099

>  <SCORE.INTRA.SOLV.lig_0>
-49.2501

>  <SCORE.INTRA.VDW>
2.19394

>  <SCORE.INTRA.VDW.0>
-1.75368

>  <SCORE.INTRA.norm>
0.0823871

>  <SCORE.RESTR>
0.0128704

>  <SCORE.RESTR.CAVITY>
0.0128704

>  <SCORE.RESTR.norm>
0.000476683

>  <SCORE.SYSTEM>
0

>  <SCORE.SYSTEM.CONST>
0

>  <SCORE.SYSTEM.DIHEDRAL>
0

>  <SCORE.SYSTEM.SOLV>
0

>  <SCORE.SYSTEM.norm>
0

>  <SCORE.heavy>
27

>  <SCORE.norm>
-0.306663

>  <RMSD>
10.659

$$$$
ligand
 OpenBabel11021811463D
libRbt.so/2013.1/901 2013/11/27
 27 29  0  0  0  0  0  0  0  0999 V2000
   33.7999   11.7580   63.1328 N   0  0  0  0  0  0  0  0  0  0  0  0
   34.0441   13.1604   63.5129 C   0  0  2  0  0  0  0  0  0  0  0  0
   33.5025   14.0908   62.4476 C   0  0  0  0  0  0  0  0  0  0  0  0
   32.6470   13.6901   61.6518 O   0  0  0  0  0  0  0  0  0  0  0  0
   35.5462   13.3866   63.6501 C   0  0  0  0  0  0  0  0  0  0  0  0
   35.8299   14.4448   64.6946 C   0  0  0  0  0  0  0  0  0  0  0  0
   36.1266   13.6078   66.2619 S   0  0  2  0  0  0  0  0  0  0  0  0
   34.4129   13.1703   66.6662 C   0  0  0  0  0  0  0  0  0  0  0  0
   36.3751   15.0388   67.3673 C   0  0  0  0  0  0  0  0  0  0  0  0
   37.0134   14.5514   68.6653 C   0  0  1  0  0  0  0  0  0  0  0  0
   37.0235   15.6305   69.5705 O   0  0  0  0  0  0  0  0  0  0  0  0
   36.1757   13.4511   69.3257 C   0  0  1  0  0  0  0  0  0  0  0  0
   36.4009   12.0723   68.9936 O   0  0  0  0  0  0  0  0  0  0  0  0
   36.2646   13.7933   70.8499 C   0  0  1  0  0  0  0  0  0  0  0  0
   36.5850   12.5876   71.5650 O   0  0  0  0  0  0  0  0  0  0  0  0
   37.1633   15.0804   70.8708 C   0  0  2  0  0  0  0  0  0  0  0  0
   33.8626   15.2580   62.4231 O   0  0  0  0  0  0  0  0  0  0  0  0
   36.7298   20.1717   71.8684 N   0  0  0  0  0  0  0  0  0  0  0  0
   37.2395   19.5746   70.7852 C   0  0  0  0  0  0  0  0  0  0  0  0
   37.2985   18.2498   70.6831 N   0  0  0  0  0  0  0  0  0  0  0  0
   36.8254   17.4526   71.6582 C   0  0  0  0  0  0  0  0  0  0  0  0
   36.2597   18.0362   72.8233 C   0  0  0  0  0  0  0  0  0  0  0  0
   36.2283   19.4604   72.8960 C   0  0  0  0  0  0  0  0  0  0  0  0
   35.6863   20.1043   73.9926 N   0  0  0  0  0  0  0  0  0  0  0  0
   35.8619   17.0230   73.6268 N   0  0  0  0  0  0  0  0  0  0  0  0
   36.1340   15.8882   73.0505 C   0  0  0  0  0  0  0  0  0  0  0  0
   36.7307   16.1007   71.8319 N   0  0  0  0  0  0  0  0  0  0  0  0
  2  1  1  6  0  0  0
  2  3  1  0  0  0  0
  2  5  1  0  0  0  0
  3  4  1  0  0  0  0
  3 17  1  0  0  0  0
  5  6  1  0  0  0  0
  7  6  1  6  0  0  0
  7  8  1  0  0  0  0
  7  9  1  0  0  0  0
 10  9  1  6  0  0  0
 10 11  1  0  0  0  0
 10 12  1  0  0  0  0
 11 16  1  0  0  0  0
 12 13  1  1  0  0  0
 12 14  1  0  0  0  0
 14 15  1  1  0  0  0
 14 16  1  0  0  0  0
 16 27  1  1  0  0  0
 18 19  2  0  0  0  0
 18 23  1  0  0  0  0
 19 20  1  0  0  0  0
 20 21  2  0  0  0  0
 21 22  1  0  0  0  0
 21 27  1  0  0  0  0
 22 23  2  0  0  0  0
 22 25  1  0  0  0  0
 23 24  1  0  0  0  0
 25 26  2  0  0  0  0
 26 27  1  0  0  0  0
M  END
>  <CHROM.1>
20.21539648,-149.15248496,94.13073803,-75.35934537,-164.71755256,-171.89554099
-30.04110874,35.82938210,15.26427827,68.47475416,-2.40206950,-1.27141499
0.30549167

>  <Name>
ligand

>  <RI>
0

>  <Rbt.Current_Directory>
/home/itssahil/PROJECTS/Mol_Feturizer/New_Systems/rnas/2QWY

>  <Rbt.Executable>
rbdock ($Id: //depot/dev/client3/rdock/2013.1/src/exe/rbdock.cxx#4 $)

>  <Rbt.Library>
libRbt.so (2013.1, Build901 2013/11/27)

>  <Rbt.Parameter_File>
/export/apps/rDock/src/rDock_2013.1_src/data/scripts/dock_solv.prm

>  <Rbt.Receptor>
prm/blind_docking_100.prm

>  <SCORE>
-13.0451

>  <SCORE.INTER>
-14.5076

>  <SCORE.INTER.CONST>
1

>  <SCORE.INTER.POLAR>
0

>  <SCORE.INTER.ROT>
7

>  <SCORE.INTER.SOLV>
10.0746

>  <SCORE.INTER.VDW>
-21.2966

>  <SCORE.INTER.norm>
-0.537317

>  <SCORE.INTRA>
1.4592

>  <SCORE.INTRA.DIHEDRAL>
0.736133

>  <SCORE.INTRA.DIHEDRAL.0>
10.7382

>  <SCORE.INTRA.POLAR>
0

>  <SCORE.INTRA.POLAR.0>
0

>  <SCORE.INTRA.REPUL>
0

>  <SCORE.INTRA.REPUL.0>
0

>  <SCORE.INTRA.SOLV>
0.233208

>  <SCORE.INTRA.SOLV.lig_0>
-49.2501

>  <SCORE.INTRA.VDW>
0.974532

>  <SCORE.INTRA.VDW.0>
-1.75368

>  <SCORE.INTRA.norm>
0.0540445

>  <SCORE.RESTR>
0.00330774

>  <SCORE.RESTR.CAVITY>
0.00330774

>  <SCORE.RESTR.norm>
0.000122509

>  <SCORE.SYSTEM>
0

>  <SCORE.SYSTEM.CONST>
0

>  <SCORE.SYSTEM.DIHEDRAL>
0

>  <SCORE.SYSTEM.SOLV>
0

>  <SCORE.SYSTEM.norm>
0

>  <SCORE.heavy>
27

>  <SCORE.norm>
-0.48315

>  <RMSD>
10.672

$$$$
ligand
 OpenBabel11021811463D
libRbt.so/2013.1/901 2013/11/27
 27 29  0  0  0  0  0  0  0  0999 V2000
   23.7220   27.3047   78.5575 N   0  0  0  0  0  0  0  0  0  0  0  0
   23.7501   25.8709   78.8951 C   0  0  2  0  0  0  0  0  0  0  0  0
   23.8961   25.6908   80.3918 C   0  0  0  0  0  0  0  0  0  0  0  0
   24.5237   26.5209   81.0573 O   0  0  0  0  0  0  0  0  0  0  0  0
   24.9398   25.2171   78.1998 C   0  0  0  0  0  0  0  0  0  0  0  0
   24.7807   25.2896   76.6962 C   0  0  0  0  0  0  0  0  0  0  0  0
   26.0314   24.2246   75.9569 S   0  0  2  0  0  0  0  0  0  0  0  0
   25.6915   24.5769   74.2099 C   0  0  0  0  0  0  0  0  0  0  0  0
   25.2312   22.5933   76.1300 C   0  0  0  0  0  0  0  0  0  0  0  0
   25.8915   21.8426   77.2833 C   0  0  1  0  0  0  0  0  0  0  0  0
   25.0549   20.7630   77.6278 O   0  0  0  0  0  0  0  0  0  0  0  0
   27.2288   21.2253   76.8604 C   0  0  1  0  0  0  0  0  0  0  0  0
   28.4454   21.9775   76.9873 O   0  0  0  0  0  0  0  0  0  0  0  0
   27.2277   19.8332   77.5750 C   0  0  1  0  0  0  0  0  0  0  0  0
   28.4978   19.6596   78.2265 O   0  0  0  0  0  0  0  0  0  0  0  0
   25.8539   19.8278   78.3349 C   0  0  2  0  0  0  0  0  0  0  0  0
   23.3318   24.7607   80.9478 O   0  0  0  0  0  0  0  0  0  0  0  0
   23.1587   16.3096   81.0667 N   0  0  0  0  0  0  0  0  0  0  0  0
   23.6925   17.4617   81.4879 C   0  0  0  0  0  0  0  0  0  0  0  0
   24.3762   18.2538   80.6667 N   0  0  0  0  0  0  0  0  0  0  0  0
   24.5401   17.9393   79.3689 C   0  0  0  0  0  0  0  0  0  0  0  0
   23.9800   16.7341   78.8671 C   0  0  0  0  0  0  0  0  0  0  0  0
   23.2655   15.9091   79.7855 C   0  0  0  0  0  0  0  0  0  0  0  0
   22.6837   14.7250   79.3729 N   0  0  0  0  0  0  0  0  0  0  0  0
   24.2835   16.6684   77.5502 N   0  0  0  0  0  0  0  0  0  0  0  0
   24.9703   17.7225   77.2167 C   0  0  0  0  0  0  0  0  0  0  0  0
   25.1557   18.5380   78.3061 N   0  0  0  0  0  0  0  0  0  0  0  0
  2  1  1  1  0  0  0
  2  3  1  0  0  0  0
  2  5  1  0  0  0  0
  3  4  1  0  0  0  0
  3 17  1  0  0  0  0
  5  6  1  0  0  0  0
  7  6  1  1  0  0  0
  7  8  1  0  0  0  0
  7  9  1  0  0  0  0
 10  9  1  6  0  0  0
 10 11  1  0  0  0  0
 10 12  1  0  0  0  0
 11 16  1  0  0  0  0
 12 13  1  1  0  0  0
 12 14  1  0  0  0  0
 14 15  1  1  0  0  0
 14 16  1  0  0  0  0
 16 27  1  6  0  0  0
 18 19  2  0  0  0  0
 18 23  1  0  0  0  0
 19 20  1  0  0  0  0
 20 21  2  0  0  0  0
 21 22  1  0  0  0  0
 21 27  1  0  0  0  0
 22 23  2  0  0  0  0
 22 25  1  0  0  0  0
 23 24  1  0  0  0  0
 25 26  2  0  0  0  0
 26 27  1  0  0  0  0
M  END
>  <CHROM.1>
-31.40535678,-63.78076743,-168.84678329,-176.56380701,-103.77065056,164.87487698
-108.57412547,25.06213316,21.28440478,78.29331921,1.42315911,0.92734452,-0.04861199

>  <Name>
ligand

>  <RI>
0

>  <Rbt.Current_Directory>
/home/itssahil/PROJECTS/Mol_Feturizer/New_Systems/rnas/2QWY

>  <Rbt.Executable>
rbdock ($Id: //depot/dev/client3/rdock/2013.1/src/exe/rbdock.cxx#4 $)

>  <Rbt.Library>
libRbt.so (2013.1, Build901 2013/11/27)

>  <Rbt.Parameter_File>
/export/apps/rDock/src/rDock_2013.1_src/data/scripts/dock_solv.prm

>  <Rbt.Receptor>
prm/pocket_docking_8.prm

>  <SCORE>
-12.9474

>  <SCORE.INTER>
-10.296

>  <SCORE.INTER.CONST>
1

>  <SCORE.INTER.POLAR>
0

>  <SCORE.INTER.ROT>
7

>  <SCORE.INTER.SOLV>
8.01029

>  <SCORE.INTER.VDW>
-17.8008

>  <SCORE.INTER.norm>
-0.381335

>  <SCORE.INTRA>
-2.65131

>  <SCORE.INTRA.DIHEDRAL>
-3.13248

>  <SCORE.INTRA.DIHEDRAL.0>
10.7382

>  <SCORE.INTRA.POLAR>
0

>  <SCORE.INTRA.POLAR.0>
0

>  <SCORE.INTRA.REPUL>
0

>  <SCORE.INTRA.REPUL.0>
0

>  <SCORE.INTRA.SOLV>
-0.458265

>  <SCORE.INTRA.SOLV.lig_0>
-49.2501

>  <SCORE.INTRA.VDW>
-0.855939

>  <SCORE.INTRA.VDW.0>
-1.75368

>  <SCORE.INTRA.norm>
-0.0981968

>  <SCORE.RESTR>
0

>  <SCORE.RESTR.CAVITY>
0

>  <SCORE.RESTR.norm>
0

>  <SCORE.SYSTEM>
0

>  <SCORE.SYSTEM.CONST>
0

>  <SCORE.SYSTEM.DIHEDRAL>
0

>  <SCORE.SYSTEM.SOLV>
0

>  <SCORE.SYSTEM.norm>
0

>  <SCORE.heavy>
27

>  <SCORE.norm>
-0.479532

>  <RMSD>
10.673

$$$$
ligand
 OpenBabel11021811463D
libRbt.so/2013.1/901 2013/11/27
 27 29  0  0  0  0  0  0  0  0999 V2000
   37.9217   21.3277   71.2519 N   0  0  0  0  0  0  0  0  0  0  0  0
   38.0353   19.8989   71.5929 C   0  0  2  0  0  0  0  0  0  0  0  0
   36.8544   19.1340   71.0323 C   0  0  0  0  0  0  0  0  0  0  0  0
   35.7950   19.0792   71.6651 O   0  0  0  0  0  0  0  0  0  0  0  0
   38.0478   19.7469   73.1105 C   0  0  0  0  0  0  0  0  0  0  0  0
   38.5799   18.3851   73.5026 C   0  0  0  0  0  0  0  0  0  0  0  0
   37.2055   17.2214   73.4568 S   0  0  2  0  0  0  0  0  0  0  0  0
   37.7794   16.0711   74.7370 C   0  0  0  0  0  0  0  0  0  0  0  0
   37.6143   16.2750   71.9505 C   0  0  0  0  0  0  0  0  0  0  0  0
   36.3157   15.8457   71.2731 C   0  0  1  0  0  0  0  0  0  0  0  0
   36.4504   16.0900   69.8924 O   0  0  0  0  0  0  0  0  0  0  0  0
   36.0779   14.3386   71.4164 C   0  0  1  0  0  0  0  0  0  0  0  0
   35.3610   13.8234   72.5490 O   0  0  0  0  0  0  0  0  0  0  0  0
   35.5033   13.9279   70.0201 C   0  0  1  0  0  0  0  0  0  0  0  0
   34.3351   13.1171   70.2339 O   0  0  0  0  0  0  0  0  0  0  0  0
   35.4857   15.2858   69.2324 C   0  0  2  0  0  0  0  0  0  0  0  0
   36.9306   18.6317   69.9212 O   0  0  0  0  0  0  0  0  0  0  0  0
   34.4373   13.1794   64.5883 N   0  0  0  0  0  0  0  0  0  0  0  0
   33.7829   13.0183   65.7439 C   0  0  0  0  0  0  0  0  0  0  0  0
   34.1869   13.6146   66.8620 N   0  0  0  0  0  0  0  0  0  0  0  0
   35.2604   14.4255   66.8722 C   0  0  0  0  0  0  0  0  0  0  0  0
   35.9820   14.6426   65.6679 C   0  0  0  0  0  0  0  0  0  0  0  0
   35.5209   13.9734   64.4957 C   0  0  0  0  0  0  0  0  0  0  0  0
   36.1635   14.1398   63.2832 N   0  0  0  0  0  0  0  0  0  0  0  0
   36.9951   15.4923   65.9549 N   0  0  0  0  0  0  0  0  0  0  0  0
   36.9456   15.8058   67.2171 C   0  0  0  0  0  0  0  0  0  0  0  0
   35.8914   15.1714   67.8273 N   0  0  0  0  0  0  0  0  0  0  0  0
  2  1  1  1  0  0  0
  2  3  1  0  0  0  0
  2  5  1  0  0  0  0
  3  4  1  0  0  0  0
  3 17  1  0  0  0  0
  5  6  1  0  0  0  0
  7  6  1  6  0  0  0
  7  8  1  0  0  0  0
  7  9  1  0  0  0  0
 10  9  1  1  0  0  0
 10 11  1  0  0  0  0
 10 12  1  0  0  0  0
 11 16  1  0  0  0  0
 12 13  1  1  0  0  0
 12 14  1  0  0  0  0
 14 15  1  1  0  0  0
 14 16  1  0  0  0  0
 16 27  1  6  0  0  0
 18 19  2  0  0  0  0
 18 23  1  0  0  0  0
 19 20  1  0  0  0  0
 20 21  2  0  0  0  0
 21 22  1  0  0  0  0
 21 27  1  0  0  0  0
 22 23  2  0  0  0  0
 22 25  1  0  0  0  0
 23 24  1  0  0  0  0
 25 26  2  0  0  0  0
 26 27  1  0  0  0  0
M  END
>  <CHROM.1>
-84.55796818,-162.66262350,-85.21198642,-150.40578929,-147.24908595,135.42184105
176.65597764,36.32750393,16.07603263,69.75695623,-0.82538545,-1.17454803
-1.41768364

>  <Name>
ligand

>  <RI>
0

>  <Rbt.Current_Directory>
/home/itssahil/PROJECTS/Mol_Feturizer/New_Systems/rnas/2QWY

>  <Rbt.Executable>
rbdock ($Id: //depot/dev/client3/rdock/2013.1/src/exe/rbdock.cxx#4 $)

>  <Rbt.Library>
libRbt.so (2013.1, Build901 2013/11/27)

>  <Rbt.Parameter_File>
/export/apps/rDock/src/rDock_2013.1_src/data/scripts/dock_solv.prm

>  <Rbt.Receptor>
prm/blind_docking_100.prm

>  <SCORE>
-10.9025

>  <SCORE.INTER>
-12.3235

>  <SCORE.INTER.CONST>
1

>  <SCORE.INTER.POLAR>
0

>  <SCORE.INTER.ROT>
7

>  <SCORE.INTER.SOLV>
18.4698

>  <SCORE.INTER.VDW>
-22.6389

>  <SCORE.INTER.norm>
-0.456424

>  <SCORE.INTRA>
1.42098

>  <SCORE.INTRA.DIHEDRAL>
6.34646

>  <SCORE.INTRA.DIHEDRAL.0>
10.7382

>  <SCORE.INTRA.POLAR>
0

>  <SCORE.INTRA.POLAR.0>
0

>  <SCORE.INTRA.REPUL>
0

>  <SCORE.INTRA.REPUL.0>
0

>  <SCORE.INTRA.SOLV>
-0.734204

>  <SCORE.INTRA.SOLV.lig_0>
-49.2501

>  <SCORE.INTRA.VDW>
-1.38515

>  <SCORE.INTRA.VDW.0>
-1.75368

>  <SCORE.INTRA.norm>
0.0526291

>  <SCORE.RESTR>
0

>  <SCORE.RESTR.CAVITY>
0

>  <SCORE.RESTR.norm>
0

>  <SCORE.SYSTEM>
0

>  <SCORE.SYSTEM.CONST>
0

>  <SCORE.SYSTEM.DIHEDRAL>
0

>  <SCORE.SYSTEM.SOLV>
0

>  <SCORE.SYSTEM.norm>
0

>  <SCORE.heavy>
27

>  <SCORE.norm>
-0.403795

>  <RMSD>
10.686

$$$$
ligand
 OpenBabel11021811463D
libRbt.so/2013.1/901 2013/11/27
 27 29  0  0  0  0  0  0  0  0999 V2000
   33.6543   11.6675   63.2551 N   0  0  0  0  0  0  0  0  0  0  0  0
   33.9429   13.0854   63.5322 C   0  0  2  0  0  0  0  0  0  0  0  0
   33.4659   13.9485   62.3827 C   0  0  0  0  0  0  0  0  0  0  0  0
   32.8588   13.4385   61.4355 O   0  0  0  0  0  0  0  0  0  0  0  0
   35.4486   13.2663   63.6950 C   0  0  0  0  0  0  0  0  0  0  0  0
   35.7458   14.3621   64.6961 C   0  0  0  0  0  0  0  0  0  0  0  0
   35.9914   13.5885   66.3044 S   0  0  2  0  0  0  0  0  0  0  0  0
   34.2518   13.3509   66.7613 C   0  0  0  0  0  0  0  0  0  0  0  0
   36.4070   15.0467   67.3206 C   0  0  0  0  0  0  0  0  0  0  0  0
   37.0680   14.5726   68.6121 C   0  0  1  0  0  0  0  0  0  0  0  0
   37.0684   15.6530   69.5160 O   0  0  0  0  0  0  0  0  0  0  0  0
   36.2574   13.4583   69.2828 C   0  0  1  0  0  0  0  0  0  0  0  0
   36.5040   12.0833   68.9499 O   0  0  0  0  0  0  0  0  0  0  0  0
   36.3566   13.8041   70.8056 C   0  0  1  0  0  0  0  0  0  0  0  0
   36.7065   12.6053   71.5185 O   0  0  0  0  0  0  0  0  0  0  0  0
   37.2321   15.1072   70.8153 C   0  0  2  0  0  0  0  0  0  0  0  0
   33.6214   15.1594   62.4294 O   0  0  0  0  0  0  0  0  0  0  0  0
   36.7803   20.1915   71.8401 N   0  0  0  0  0  0  0  0  0  0  0  0
   37.2977   19.6020   70.7564 C   0  0  0  0  0  0  0  0  0  0  0  0
   37.3605   18.2779   70.6469 N   0  0  0  0  0  0  0  0  0  0  0  0
   36.8838   17.4739   71.6146 C   0  0  0  0  0  0  0  0  0  0  0  0
   36.3101   18.0494   72.7799 C   0  0  0  0  0  0  0  0  0  0  0  0
   36.2747   19.4730   72.8606 C   0  0  0  0  0  0  0  0  0  0  0  0
   35.7249   20.1091   73.9579 N   0  0  0  0  0  0  0  0  0  0  0  0
   35.9102   17.0305   73.5752 N   0  0  0  0  0  0  0  0  0  0  0  0
   36.1884   15.8997   72.9938 C   0  0  0  0  0  0  0  0  0  0  0  0
   36.7915   16.1208   71.7799 N   0  0  0  0  0  0  0  0  0  0  0  0
  2  1  1  6  0  0  0
  2  3  1  0  0  0  0
  2  5  1  0  0  0  0
  3  4  1  0  0  0  0
  3 17  1  0  0  0  0
  5  6  1  0  0  0  0
  7  6  1  6  0  0  0
  7  8  1  0  0  0  0
  7  9  1  0  0  0  0
 10  9  1  6  0  0  0
 10 11  1  0  0  0  0
 10 12  1  0  0  0  0
 11 16  1  0  0  0  0
 12 13  1  1  0  0  0
 12 14  1  0  0  0  0
 14 15  1  1  0  0  0
 14 16  1  0  0  0  0
 16 27  1  1  0  0  0
 18 19  2  0  0  0  0
 18 23  1  0  0  0  0
 19 20  1  0  0  0  0
 20 21  2  0  0  0  0
 21 22  1  0  0  0  0
 21 27  1  0  0  0  0
 22 23  2  0  0  0  0
 22 25  1  0  0  0  0
 23 24  1  0  0  0  0
 25 26  2  0  0  0  0
 26 27  1  0  0  0  0
M  END
>  <CHROM.1>
4.00683272,-147.31272953,94.60992350,-80.05424392,-162.68215781,-165.22537179
-31.40395627,35.83428429,15.24799743,68.45019127,-2.39655954,-1.25249833
0.30255685

>  <Name>
ligand

>  <RI>
0

>  <Rbt.Current_Directory>
/home/itssahil/PROJECTS/Mol_Feturizer/New_Systems/rnas/2QWY

>  <Rbt.Executable>
rbdock ($Id: //depot/dev/client3/rdock/2013.1/src/exe/rbdock.cxx#4 $)

>  <Rbt.Library>
libRbt.so (2013.1, Build901 2013/11/27)

>  <Rbt.Parameter_File>
/export/apps/rDock/src/rDock_2013.1_src/data/scripts/dock_solv.prm

>  <Rbt.Receptor>
prm/blind_docking_100.prm

>  <SCORE>
-13.1034

>  <SCORE.INTER>
-14.8626

>  <SCORE.INTER.CONST>
1

>  <SCORE.INTER.POLAR>
0

>  <SCORE.INTER.ROT>
7

>  <SCORE.INTER.SOLV>
9.6492

>  <SCORE.INTER.VDW>
-21.3914

>  <SCORE.INTER.norm>
-0.550465

>  <SCORE.INTRA>
1.75515

>  <SCORE.INTRA.DIHEDRAL>
2.16271

>  <SCORE.INTRA.DIHEDRAL.0>
10.7382

>  <SCORE.INTRA.POLAR>
0

>  <SCORE.INTRA.POLAR.0>
0

>  <SCORE.INTRA.REPUL>
0

>  <SCORE.INTRA.REPUL.0>
0

>  <SCORE.INTRA.SOLV>
0.203719

>  <SCORE.INTRA.SOLV.lig_0>
-49.2501

>  <SCORE.INTRA.VDW>
0.571931

>  <SCORE.INTRA.VDW.0>
-1.75368

>  <SCORE.INTRA.norm>
0.0650055

>  <SCORE.RESTR>
0.0040515

>  <SCORE.RESTR.CAVITY>
0.0040515

>  <SCORE.RESTR.norm>
0.000150056

>  <SCORE.SYSTEM>
0

>  <SCORE.SYSTEM.CONST>
0

>  <SCORE.SYSTEM.DIHEDRAL>
0

>  <SCORE.SYSTEM.SOLV>
0

>  <SCORE.SYSTEM.norm>
0

>  <SCORE.heavy>
27

>  <SCORE.norm>
-0.48531

>  <RMSD>
10.719

$$$$
ligand
 OpenBabel11021811463D
libRbt.so/2013.1/901 2013/11/27
 27 29  0  0  0  0  0  0  0  0999 V2000
   34.5317   13.3362   62.9450 N   0  0  0  0  0  0  0  0  0  0  0  0
   34.5477   12.5606   64.1976 C   0  0  2  0  0  0  0  0  0  0  0  0
   33.2342   11.8271   64.3730 C   0  0  0  0  0  0  0  0  0  0  0  0
   32.2410   12.1713   63.7243 O   0  0  0  0  0  0  0  0  0  0  0  0
   34.7431   13.5132   65.3726 C   0  0  0  0  0  0  0  0  0  0  0  0
   34.8593   12.7397   66.6686 C   0  0  0  0  0  0  0  0  0  0  0  0
   35.8271   13.7324   67.8189 S   0  0  2  0  0  0  0  0  0  0  0  0
   37.4365   12.9281   67.5861 C   0  0  0  0  0  0  0  0  0  0  0  0
   35.3153   13.0000   69.4105 C   0  0  0  0  0  0  0  0  0  0  0  0
   36.2641   13.4867   70.5025 C   0  0  1  0  0  0  0  0  0  0  0  0
   36.7120   14.7722   70.1405 O   0  0  0  0  0  0  0  0  0  0  0  0
   35.5413   13.6510   71.8437 C   0  0  1  0  0  0  0  0  0  0  0  0
   35.4574   12.5488   72.7604 O   0  0  0  0  0  0  0  0  0  0  0  0
   36.1615   14.9618   72.4316 C   0  0  1  0  0  0  0  0  0  0  0  0
   36.5271   14.7136   73.7999 O   0  0  0  0  0  0  0  0  0  0  0  0
   37.1860   15.3952   71.3238 C   0  0  2  0  0  0  0  0  0  0  0  0
   33.1791   10.8504   65.1049 O   0  0  0  0  0  0  0  0  0  0  0  0
   39.8572   19.8154   71.9797 N   0  0  0  0  0  0  0  0  0  0  0  0
   40.1651   18.5843   72.4032 C   0  0  0  0  0  0  0  0  0  0  0  0
   39.3647   17.5476   72.1713 N   0  0  0  0  0  0  0  0  0  0  0  0
   38.2199   17.6904   71.4791 C   0  0  0  0  0  0  0  0  0  0  0  0
   37.8539   18.9744   70.9937 C   0  0  0  0  0  0  0  0  0  0  0  0
   38.7353   20.0596   71.2761 C   0  0  0  0  0  0  0  0  0  0  0  0
   38.4543   21.3378   70.8309 N   0  0  0  0  0  0  0  0  0  0  0  0
   36.6796   18.8349   70.3362 N   0  0  0  0  0  0  0  0  0  0  0  0
   36.3104   17.5876   70.3805 C   0  0  0  0  0  0  0  0  0  0  0  0
   37.2289   16.8405   71.0764 N   0  0  0  0  0  0  0  0  0  0  0  0
  2  1  1  6  0  0  0
  2  3  1  0  0  0  0
  2  5  1  0  0  0  0
  3  4  1  0  0  0  0
  3 17  1  0  0  0  0
  5  6  1  0  0  0  0
  7  6  1  6  0  0  0
  7  8  1  0  0  0  0
  7  9  1  0  0  0  0
 10  9  1  6  0  0  0
 10 11  1  0  0  0  0
 10 12  1  0  0  0  0
 11 16  1  0  0  0  0
 12 13  1  1  0  0  0
 12 14  1  0  0  0  0
 14 15  1  1  0  0  0
 14 16  1  0  0  0  0
 16 27  1  6  0  0  0
 18 19  2  0  0  0  0
 18 23  1  0  0  0  0
 19 20  1  0  0  0  0
 20 21  2  0  0  0  0
 21 22  1  0  0  0  0
 21 27  1  0  0  0  0
 22 23  2  0  0  0  0
 22 25  1  0  0  0  0
 23 24  1  0  0  0  0
 25 26  2  0  0  0  0
 26 27  1  0  0  0  0
M  END
>  <CHROM.1>
-17.57524047,-176.13003275,153.45280632,-98.47606755,167.09454978,30.44313340
-139.12974801,36.30433353,15.12568172,69.25169042,-2.78988102,1.09706950
2.02631593

>  <Name>
ligand

>  <RI>
0

>  <Rbt.Current_Directory>
/home/itssahil/PROJECTS/Mol_Feturizer/New_Systems/rnas/2QWY

>  <Rbt.Executable>
rbdock ($Id: //depot/dev/client3/rdock/2013.1/src/exe/rbdock.cxx#4 $)

>  <Rbt.Library>
libRbt.so (2013.1, Build901 2013/11/27)

>  <Rbt.Parameter_File>
/export/apps/rDock/src/rDock_2013.1_src/data/scripts/dock_solv.prm

>  <Rbt.Receptor>
prm/blind_docking_100.prm

>  <SCORE>
-10.1965

>  <SCORE.INTER>
-10.6489

>  <SCORE.INTER.CONST>
1

>  <SCORE.INTER.POLAR>
0

>  <SCORE.INTER.ROT>
7

>  <SCORE.INTER.SOLV>
21.802

>  <SCORE.INTER.VDW>
-22.6332

>  <SCORE.INTER.norm>
-0.394402

>  <SCORE.INTRA>
0.38005

>  <SCORE.INTRA.DIHEDRAL>
-0.361116

>  <SCORE.INTRA.DIHEDRAL.0>
10.7382

>  <SCORE.INTRA.POLAR>
0

>  <SCORE.INTRA.POLAR.0>
0

>  <SCORE.INTRA.REPUL>
0

>  <SCORE.INTRA.REPUL.0>
0

>  <SCORE.INTRA.SOLV>
-1.10874

>  <SCORE.INTRA.SOLV.lig_0>
-49.2501

>  <SCORE.INTRA.VDW>
1.11498

>  <SCORE.INTRA.VDW.0>
-1.75368

>  <SCORE.INTRA.norm>
0.0140759

>  <SCORE.RESTR>
0.0723453

>  <SCORE.RESTR.CAVITY>
0.0723453

>  <SCORE.RESTR.norm>
0.00267946

>  <SCORE.SYSTEM>
0

>  <SCORE.SYSTEM.CONST>
0

>  <SCORE.SYSTEM.DIHEDRAL>
0

>  <SCORE.SYSTEM.SOLV>
0

>  <SCORE.SYSTEM.norm>
0

>  <SCORE.heavy>
27

>  <SCORE.norm>
-0.377647

>  <RMSD>
10.730

$$$$
ligand
 OpenBabel11021811463D
libRbt.so/2013.1/901 2013/11/27
 27 29  0  0  0  0  0  0  0  0999 V2000
   37.4315   20.9908   73.2415 N   0  0  0  0  0  0  0  0  0  0  0  0
   37.9866   20.0941   72.2126 C   0  0  2  0  0  0  0  0  0  0  0  0
   37.6961   20.6433   70.8313 C   0  0  0  0  0  0  0  0  0  0  0  0
   37.4453   19.8733   69.8986 O   0  0  0  0  0  0  0  0  0  0  0  0
   37.3382   18.7199   72.3450 C   0  0  0  0  0  0  0  0  0  0  0  0
   37.9007   17.9813   73.5405 C   0  0  0  0  0  0  0  0  0  0  0  0
   36.9453   16.4691   73.7545 S   0  0  2  0  0  0  0  0  0  0  0  0
   38.0361   15.6214   74.9306 C   0  0  0  0  0  0  0  0  0  0  0  0
   37.3639   15.5842   72.2139 C   0  0  0  0  0  0  0  0  0  0  0  0
   36.0835   15.3574   71.4148 C   0  0  1  0  0  0  0  0  0  0  0  0
   36.3399   15.7250   70.0794 O   0  0  0  0  0  0  0  0  0  0  0  0
   35.6970   13.8748   71.3802 C   0  0  1  0  0  0  0  0  0  0  0  0
   34.8553   13.3223   72.4041 O   0  0  0  0  0  0  0  0  0  0  0  0
   35.1892   13.6666   69.9149 C   0  0  1  0  0  0  0  0  0  0  0  0
   33.9385   12.9592   69.9672 O   0  0  0  0  0  0  0  0  0  0  0  0
   35.3550   15.0920   69.2780 C   0  0  2  0  0  0  0  0  0  0  0  0
   37.6412   21.8517   70.6593 O   0  0  0  0  0  0  0  0  0  0  0  0
   34.6173   13.3195   64.4388 N   0  0  0  0  0  0  0  0  0  0  0  0
   33.8930   13.0736   65.5364 C   0  0  0  0  0  0  0  0  0  0  0  0
   34.2212   13.5899   66.7174 N   0  0  0  0  0  0  0  0  0  0  0  0
   35.2852   14.4020   66.8531 C   0  0  0  0  0  0  0  0  0  0  0  0
   36.0792   14.7074   65.7153 C   0  0  0  0  0  0  0  0  0  0  0  0
   35.6980   14.1221   64.4716 C   0  0  0  0  0  0  0  0  0  0  0  0
   36.4140   14.3772   63.3170 N   0  0  0  0  0  0  0  0  0  0  0  0
   37.0652   15.5381   66.1254 N   0  0  0  0  0  0  0  0  0  0  0  0
   36.9340   15.7603   67.4011 C   0  0  0  0  0  0  0  0  0  0  0  0
   35.8489   15.0800   67.8968 N   0  0  0  0  0  0  0  0  0  0  0  0
  2  1  1  1  0  0  0
  2  3  1  0  0  0  0
  2  5  1  0  0  0  0
  3  4  1  0  0  0  0
  3 17  1  0  0  0  0
  5  6  1  0  0  0  0
  7  6  1  6  0  0  0
  7  8  1  0  0  0  0
  7  9  1  0  0  0  0
 10  9  1  1  0  0  0
 10 11  1  0  0  0  0
 10 12  1  0  0  0  0
 11 16  1  0  0  0  0
 12 13  1  1  0  0  0
 12 14  1  0  0  0  0
 14 15  1  1  0  0  0
 14 16  1  0  0  0  0
 16 27  1  6  0  0  0
 18 19  2  0  0  0  0
 18 23  1  0  0  0  0
 19 20  1  0  0  0  0
 20 21  2  0  0  0  0
 21 22  1  0  0  0  0
 21 27  1  0  0  0  0
 22 23  2  0  0  0  0
 22 25  1  0  0  0  0
 23 24  1  0  0  0  0
 25 26  2  0  0  0  0
 26 27  1  0  0  0  0
M  END
>  <CHROM.1>
-144.05964739,-74.97874496,172.88243934,167.09631074,-118.77913468,133.20075902
170.46412064,36.31367187,16.05433913,69.80691202,-0.75788449,-1.20849637
-1.38607676

>  <Name>
ligand

>  <RI>
0

>  <Rbt.Current_Directory>
/home/itssahil/PROJECTS/Mol_Feturizer/New_Systems/rnas/2QWY

>  <Rbt.Executable>
rbdock ($Id: //depot/dev/client3/rdock/2013.1/src/exe/rbdock.cxx#4 $)

>  <Rbt.Library>
libRbt.so (2013.1, Build901 2013/11/27)

>  <Rbt.Parameter_File>
/export/apps/rDock/src/rDock_2013.1_src/data/scripts/dock_solv.prm

>  <Rbt.Receptor>
prm/blind_docking_100.prm

>  <SCORE>
-15.301

>  <SCORE.INTER>
-16.489

>  <SCORE.INTER.CONST>
1

>  <SCORE.INTER.POLAR>
0

>  <SCORE.INTER.ROT>
7

>  <SCORE.INTER.SOLV>
17.5248

>  <SCORE.INTER.VDW>
-25.1009

>  <SCORE.INTER.norm>
-0.610704

>  <SCORE.INTRA>
1.18662

>  <SCORE.INTRA.DIHEDRAL>
2.18115

>  <SCORE.INTRA.DIHEDRAL.0>
10.7382

>  <SCORE.INTRA.POLAR>
0

>  <SCORE.INTRA.POLAR.0>
0

>  <SCORE.INTRA.REPUL>
0

>  <SCORE.INTRA.REPUL.0>
0

>  <SCORE.INTRA.SOLV>
-0.48591

>  <SCORE.INTRA.SOLV.lig_0>
-49.2501

>  <SCORE.INTRA.VDW>
0.338995

>  <SCORE.INTRA.VDW.0>
-1.75368

>  <SCORE.INTRA.norm>
0.0439488

>  <SCORE.RESTR>
0.00138022

>  <SCORE.RESTR.CAVITY>
0.00138022

>  <SCORE.RESTR.norm>
5.11193e-05

>  <SCORE.SYSTEM>
0

>  <SCORE.SYSTEM.CONST>
0

>  <SCORE.SYSTEM.DIHEDRAL>
0

>  <SCORE.SYSTEM.SOLV>
0

>  <SCORE.SYSTEM.norm>
0

>  <SCORE.heavy>
27

>  <SCORE.norm>
-0.566704

>  <RMSD>
10.813

$$$$
ligand
 OpenBabel11021811463D
libRbt.so/2013.1/901 2013/11/27
 27 29  0  0  0  0  0  0  0  0999 V2000
   37.1257   18.4612   70.6043 N   0  0  0  0  0  0  0  0  0  0  0  0
   36.4300   19.1890   71.6800 C   0  0  2  0  0  0  0  0  0  0  0  0
   37.2496   20.3868   72.1132 C   0  0  0  0  0  0  0  0  0  0  0  0
   37.0702   20.8901   73.2268 O   0  0  0  0  0  0  0  0  0  0  0  0
   36.2448   18.2584   72.8742 C   0  0  0  0  0  0  0  0  0  0  0  0
   37.5843   17.7512   73.3638 C   0  0  0  0  0  0  0  0  0  0  0  0
   37.3923   16.0124   73.7942 S   0  0  2  0  0  0  0  0  0  0  0  0
   39.0144   15.7402   74.5599 C   0  0  0  0  0  0  0  0  0  0  0  0
   37.6563   15.2304   72.1662 C   0  0  0  0  0  0  0  0  0  0  0  0
   36.3274   15.1973   71.4163 C   0  0  1  0  0  0  0  0  0  0  0  0
   36.5770   15.5783   70.0833 O   0  0  0  0  0  0  0  0  0  0  0  0
   35.7530   13.7780   71.3517 C   0  0  1  0  0  0  0  0  0  0  0  0
   34.8876   13.2995   72.3929 O   0  0  0  0  0  0  0  0  0  0  0  0
   35.1664   13.6899   69.9037 C   0  0  1  0  0  0  0  0  0  0  0  0
   33.8382   13.1454   69.9875 O   0  0  0  0  0  0  0  0  0  0  0  0
   35.4888   15.1051   69.3056 C   0  0  2  0  0  0  0  0  0  0  0  0
   38.1363   20.8086   71.3862 O   0  0  0  0  0  0  0  0  0  0  0  0
   34.5359   13.3054   64.5142 N   0  0  0  0  0  0  0  0  0  0  0  0
   33.8578   13.0708   65.6433 C   0  0  0  0  0  0  0  0  0  0  0  0
   34.2388   13.5929   66.8058 N   0  0  0  0  0  0  0  0  0  0  0  0
   35.3120   14.3998   66.8905 C   0  0  0  0  0  0  0  0  0  0  0  0
   36.0583   14.6933   65.7178 C   0  0  0  0  0  0  0  0  0  0  0  0
   35.6213   14.1021   64.4955 C   0  0  0  0  0  0  0  0  0  0  0  0
   36.2887   14.3457   63.3098 N   0  0  0  0  0  0  0  0  0  0  0  0
   37.0654   15.5211   66.0800 N   0  0  0  0  0  0  0  0  0  0  0  0
   36.9899   15.7524   67.3585 C   0  0  0  0  0  0  0  0  0  0  0  0
   35.9233   15.0814   67.9047 N   0  0  0  0  0  0  0  0  0  0  0  0
  2  1  1  6  0  0  0
  2  3  1  0  0  0  0
  2  5  1  0  0  0  0
  3  4  1  0  0  0  0
  3 17  1  0  0  0  0
  5  6  1  0  0  0  0
  7  6  1  6  0  0  0
  7  8  1  0  0  0  0
  7  9  1  0  0  0  0
 10  9  1  1  0  0  0
 10 11  1  0  0  0  0
 10 12  1  0  0  0  0
 11 16  1  0  0  0  0
 12 13  1  1  0  0  0
 12 14  1  0  0  0  0
 14 15  1  1  0  0  0
 14 16  1  0  0  0  0
 16 27  1  6  0  0  0
 18 19  2  0  0  0  0
 18 23  1  0  0  0  0
 19 20  1  0  0  0  0
 20 21  2  0  0  0  0
 21 22  1  0  0  0  0
 21 27  1  0  0  0  0
 22 23  2  0  0  0  0
 22 25  1  0  0  0  0
 23 24  1  0  0  0  0
 25 26  2  0  0  0  0
 26 27  1  0  0  0  0
M  END
>  <CHROM.1>
-158.46071666,58.53915888,-139.85521298,-171.99594562,-86.10904969,136.64274854
163.06842681,36.29119650,15.84372538,69.90849033,-0.73487253,-1.23022330
-1.28431886

>  <Name>
ligand

>  <RI>
0

>  <Rbt.Current_Directory>
/home/itssahil/PROJECTS/Mol_Feturizer/New_Systems/rnas/2QWY

>  <Rbt.Executable>
rbdock ($Id: //depot/dev/client3/rdock/2013.1/src/exe/rbdock.cxx#4 $)

>  <Rbt.Library>
libRbt.so (2013.1, Build901 2013/11/27)

>  <Rbt.Parameter_File>
/export/apps/rDock/src/rDock_2013.1_src/data/scripts/dock_solv.prm

>  <Rbt.Receptor>
prm/blind_docking_100.prm

>  <SCORE>
-11.5415

>  <SCORE.INTER>
-14.0002

>  <SCORE.INTER.CONST>
1

>  <SCORE.INTER.POLAR>
0

>  <SCORE.INTER.ROT>
7

>  <SCORE.INTER.SOLV>
17.0814

>  <SCORE.INTER.VDW>
-23.294

>  <SCORE.INTER.norm>
-0.518528

>  <SCORE.INTRA>
2.45879

>  <SCORE.INTRA.DIHEDRAL>
2.5138

>  <SCORE.INTRA.DIHEDRAL.0>
10.7382

>  <SCORE.INTRA.POLAR>
0

>  <SCORE.INTRA.POLAR.0>
0

>  <SCORE.INTRA.REPUL>
0.00747628

>  <SCORE.INTRA.REPUL.0>
0

>  <SCORE.INTRA.SOLV>
2.89948

>  <SCORE.INTRA.SOLV.lig_0>
-49.2501

>  <SCORE.INTRA.VDW>
-0.285236

>  <SCORE.INTRA.VDW.0>
-1.75368

>  <SCORE.INTRA.norm>
0.0910662

>  <SCORE.RESTR>
0

>  <SCORE.RESTR.CAVITY>
0

>  <SCORE.RESTR.norm>
0

>  <SCORE.SYSTEM>
0

>  <SCORE.SYSTEM.CONST>
0

>  <SCORE.SYSTEM.DIHEDRAL>
0

>  <SCORE.SYSTEM.SOLV>
0

>  <SCORE.SYSTEM.norm>
0

>  <SCORE.heavy>
27

>  <SCORE.norm>
-0.427461

>  <RMSD>
10.830

$$$$
ligand
 OpenBabel11021811463D
libRbt.so/2013.1/901 2013/11/27
 27 29  0  0  0  0  0  0  0  0999 V2000
   33.8894   12.4300   64.6091 N   0  0  0  0  0  0  0  0  0  0  0  0
   34.6059   13.6666   64.2510 C   0  0  2  0  0  0  0  0  0  0  0  0
   34.3554   14.0115   62.7977 C   0  0  0  0  0  0  0  0  0  0  0  0
   33.5461   13.3540   62.1355 O   0  0  0  0  0  0  0  0  0  0  0  0
   36.1020   13.4552   64.4585 C   0  0  0  0  0  0  0  0  0  0  0  0
   36.4771   13.7032   65.9039 C   0  0  0  0  0  0  0  0  0  0  0  0
   36.4142   15.4802   66.1933 S   0  0  2  0  0  0  0  0  0  0  0  0
   38.0614   15.6962   66.9225 C   0  0  0  0  0  0  0  0  0  0  0  0
   35.3750   15.5416   67.6926 C   0  0  0  0  0  0  0  0  0  0  0  0
   35.9908   14.6341   68.7541 C   0  0  1  0  0  0  0  0  0  0  0  0
   36.9982   15.3659   69.4128 O   0  0  0  0  0  0  0  0  0  0  0  0
   34.9689   14.2542   69.8311 C   0  0  1  0  0  0  0  0  0  0  0  0
   34.1489   13.0863   69.6708 O   0  0  0  0  0  0  0  0  0  0  0  0
   35.8006   14.3087   71.1553 C   0  0  1  0  0  0  0  0  0  0  0  0
   35.5371   13.1092   71.9032 O   0  0  0  0  0  0  0  0  0  0  0  0
   37.2300   14.7256   70.6575 C   0  0  2  0  0  0  0  0  0  0  0  0
   34.9033   14.9851   62.3032 O   0  0  0  0  0  0  0  0  0  0  0  0
   38.1690   19.7481   71.6557 N   0  0  0  0  0  0  0  0  0  0  0  0
   37.4392   19.2163   70.6686 C   0  0  0  0  0  0  0  0  0  0  0  0
   37.3061   17.9000   70.5324 N   0  0  0  0  0  0  0  0  0  0  0  0
   37.8827   17.0465   71.3979 C   0  0  0  0  0  0  0  0  0  0  0  0
   38.6561   17.5601   72.4733 C   0  0  0  0  0  0  0  0  0  0  0  0
   38.7824   18.9773   72.5739 C   0  0  0  0  0  0  0  0  0  0  0  0
   39.5107   19.5551   73.5969 N   0  0  0  0  0  0  0  0  0  0  0  0
   39.1078   16.5012   73.1841 N   0  0  0  0  0  0  0  0  0  0  0  0
   38.6751   15.4027   72.6364 C   0  0  0  0  0  0  0  0  0  0  0  0
   37.9140   15.6869   71.5291 N   0  0  0  0  0  0  0  0  0  0  0  0
  2  1  1  6  0  0  0
  2  3  1  0  0  0  0
  2  5  1  0  0  0  0
  3  4  1  0  0  0  0
  3 17  1  0  0  0  0
  5  6  1  0  0  0  0
  7  6  1  1  0  0  0
  7  8  1  0  0  0  0
  7  9  1  0  0  0  0
 10  9  1  6  0  0  0
 10 11  1  0  0  0  0
 10 12  1  0  0  0  0
 11 16  1  0  0  0  0
 12 13  1  6  0  0  0
 12 14  1  0  0  0  0
 14 15  1  6  0  0  0
 14 16  1  0  0  0  0
 16 27  1  1  0  0  0
 18 19  2  0  0  0  0
 18 23  1  0  0  0  0
 19 20  1  0  0  0  0
 20 21  2  0  0  0  0
 21 22  1  0  0  0  0
 21 27  1  0  0  0  0
 22 23  2  0  0  0  0
 22 25  1  0  0  0  0
 23 24  1  0  0  0  0
 25 26  2  0  0  0  0
 26 27  1  0  0  0  0
M  END
>  <CHROM.1>
6.21186770,-84.24010768,-73.28560132,-128.21807284,53.89120773,83.40281192
22.75610772,36.52184422,15.46080455,68.62547845,2.35954258,-1.04169969,-1.27078011

>  <Name>
ligand

>  <RI>
0

>  <Rbt.Current_Directory>
/home/itssahil/PROJECTS/Mol_Feturizer/New_Systems/rnas/2QWY

>  <Rbt.Executable>
rbdock ($Id: //depot/dev/client3/rdock/2013.1/src/exe/rbdock.cxx#4 $)

>  <Rbt.Library>
libRbt.so (2013.1, Build901 2013/11/27)

>  <Rbt.Parameter_File>
/export/apps/rDock/src/rDock_2013.1_src/data/scripts/dock_solv.prm

>  <Rbt.Receptor>
prm/blind_docking_100.prm

>  <SCORE>
-12.9375

>  <SCORE.INTER>
-15.2698

>  <SCORE.INTER.CONST>
1

>  <SCORE.INTER.POLAR>
0

>  <SCORE.INTER.ROT>
7

>  <SCORE.INTER.SOLV>
11.6244

>  <SCORE.INTER.VDW>
-22.3213

>  <SCORE.INTER.norm>
-0.565548

>  <SCORE.INTRA>
2.32428

>  <SCORE.INTRA.DIHEDRAL>
1.19564

>  <SCORE.INTRA.DIHEDRAL.0>
10.7382

>  <SCORE.INTRA.POLAR>
0

>  <SCORE.INTRA.POLAR.0>
0

>  <SCORE.INTRA.REPUL>
0

>  <SCORE.INTRA.REPUL.0>
0

>  <SCORE.INTRA.SOLV>
-0.144135

>  <SCORE.INTRA.SOLV.lig_0>
-49.2501

>  <SCORE.INTRA.VDW>
1.79852

>  <SCORE.INTRA.VDW.0>
-1.75368

>  <SCORE.INTRA.norm>
0.0860843

>  <SCORE.RESTR>
0.00798453

>  <SCORE.RESTR.CAVITY>
0.00798453

>  <SCORE.RESTR.norm>
0.000295723

>  <SCORE.SYSTEM>
0

>  <SCORE.SYSTEM.CONST>
0

>  <SCORE.SYSTEM.DIHEDRAL>
0

>  <SCORE.SYSTEM.SOLV>
0

>  <SCORE.SYSTEM.norm>
0

>  <SCORE.heavy>
27

>  <SCORE.norm>
-0.479168

>  <RMSD>
10.850

$$$$
ligand
 OpenBabel11021811463D
libRbt.so/2013.1/901 2013/11/27
 27 29  0  0  0  0  0  0  0  0999 V2000
   35.7379   20.1601   71.9983 N   0  0  0  0  0  0  0  0  0  0  0  0
   37.1506   19.7988   71.7870 C   0  0  2  0  0  0  0  0  0  0  0  0
   37.8628   20.9013   71.0313 C   0  0  0  0  0  0  0  0  0  0  0  0
   37.2598   21.9371   70.7324 O   0  0  0  0  0  0  0  0  0  0  0  0
   37.2206   18.5134   70.9691 C   0  0  0  0  0  0  0  0  0  0  0  0
   38.3154   17.6096   71.4945 C   0  0  0  0  0  0  0  0  0  0  0  0
   37.6746   16.7511   72.9429 S   0  0  2  0  0  0  0  0  0  0  0  0
   39.2384   16.5085   73.8302 C   0  0  0  0  0  0  0  0  0  0  0  0
   37.4169   15.0790   72.2579 C   0  0  0  0  0  0  0  0  0  0  0  0
   36.1156   15.0705   71.4603 C   0  0  1  0  0  0  0  0  0  0  0  0
   36.4138   15.4856   70.1477 O   0  0  0  0  0  0  0  0  0  0  0  0
   35.5400   13.6556   71.3377 C   0  0  1  0  0  0  0  0  0  0  0  0
   34.6366   13.1530   72.3344 O   0  0  0  0  0  0  0  0  0  0  0  0
   35.0054   13.6077   69.8679 C   0  0  1  0  0  0  0  0  0  0  0  0
   33.6736   13.0661   69.8898 O   0  0  0  0  0  0  0  0  0  0  0  0
   35.3529   15.0370   69.3193 C   0  0  2  0  0  0  0  0  0  0  0  0
   39.0537   20.7922   70.7808 O   0  0  0  0  0  0  0  0  0  0  0  0
   34.5874   13.3386   64.4579 N   0  0  0  0  0  0  0  0  0  0  0  0
   33.8716   13.0730   65.5564 C   0  0  0  0  0  0  0  0  0  0  0  0
   34.2063   13.5717   66.7431 N   0  0  0  0  0  0  0  0  0  0  0  0
   35.2686   14.3852   66.8843 C   0  0  0  0  0  0  0  0  0  0  0  0
   36.0535   14.7112   65.7460 C   0  0  0  0  0  0  0  0  0  0  0  0
   35.6657   14.1443   64.4959 C   0  0  0  0  0  0  0  0  0  0  0  0
   36.3727   14.4201   63.3405 N   0  0  0  0  0  0  0  0  0  0  0  0
   37.0396   15.5388   66.1624 N   0  0  0  0  0  0  0  0  0  0  0  0
   36.9166   15.7404   67.4422 C   0  0  0  0  0  0  0  0  0  0  0  0
   35.8372   15.0486   67.9347 N   0  0  0  0  0  0  0  0  0  0  0  0
  2  1  1  6  0  0  0
  2  3  1  0  0  0  0
  2  5  1  0  0  0  0
  3  4  1  0  0  0  0
  3 17  1  0  0  0  0
  5  6  1  0  0  0  0
  7  6  1  6  0  0  0
  7  8  1  0  0  0  0
  7  9  1  0  0  0  0
 10  9  1  1  0  0  0
 10 11  1  0  0  0  0
 10 12  1  0  0  0  0
 11 16  1  0  0  0  0
 12 13  1  1  0  0  0
 12 14  1  0  0  0  0
 14 15  1  1  0  0  0
 14 16  1  0  0  0  0
 16 27  1  6  0  0  0
 18 19  2  0  0  0  0
 18 23  1  0  0  0  0
 19 20  1  0  0  0  0
 20 21  2  0  0  0  0
 21 22  1  0  0  0  0
 21 27  1  0  0  0  0
 22 23  2  0  0  0  0
 22 25  1  0  0  0  0
 23 24  1  0  0  0  0
 25 26  2  0  0  0  0
 26 27  1  0  0  0  0
M  END
>  <CHROM.1>
2.62305141,-139.73626603,80.10891409,-151.48202114,-79.23790373,86.94119206
162.35977569,36.36414858,16.04925931,69.56934512,-0.60070726,-1.18001723
-1.34286014

>  <Name>
ligand

>  <RI>
0

>  <Rbt.Current_Directory>
/home/itssahil/PROJECTS/Mol_Feturizer/New_Systems/rnas/2QWY

>  <Rbt.Executable>
rbdock ($Id: //depot/dev/client3/rdock/2013.1/src/exe/rbdock.cxx#4 $)

>  <Rbt.Library>
libRbt.so (2013.1, Build901 2013/11/27)

>  <Rbt.Parameter_File>
/export/apps/rDock/src/rDock_2013.1_src/data/scripts/dock_solv.prm

>  <Rbt.Receptor>
prm/blind_docking_100.prm

>  <SCORE>
-14.3311

>  <SCORE.INTER>
-14.7098

>  <SCORE.INTER.CONST>
1

>  <SCORE.INTER.POLAR>
0

>  <SCORE.INTER.ROT>
7

>  <SCORE.INTER.SOLV>
21.6176

>  <SCORE.INTER.VDW>
-25.2791

>  <SCORE.INTER.norm>
-0.544808

>  <SCORE.INTRA>
0.378753

>  <SCORE.INTRA.DIHEDRAL>
3.70166

>  <SCORE.INTRA.DIHEDRAL.0>
10.7382

>  <SCORE.INTRA.POLAR>
0

>  <SCORE.INTRA.POLAR.0>
0

>  <SCORE.INTRA.REPUL>
0

>  <SCORE.INTRA.REPUL.0>
0

>  <SCORE.INTRA.SOLV>
-0.399891

>  <SCORE.INTRA.SOLV.lig_0>
-49.2501

>  <SCORE.INTRA.VDW>
-1.27213

>  <SCORE.INTRA.VDW.0>
-1.75368

>  <SCORE.INTRA.norm>
0.0140279

>  <SCORE.RESTR>
0

>  <SCORE.RESTR.CAVITY>
0

>  <SCORE.RESTR.norm>
0

>  <SCORE.SYSTEM>
0

>  <SCORE.SYSTEM.CONST>
0

>  <SCORE.SYSTEM.DIHEDRAL>
0

>  <SCORE.SYSTEM.SOLV>
0

>  <SCORE.SYSTEM.norm>
0

>  <SCORE.heavy>
27

>  <SCORE.norm>
-0.53078

>  <RMSD>
10.874

$$$$
ligand
 OpenBabel11021811463D
libRbt.so/2013.1/901 2013/11/27
 27 29  0  0  0  0  0  0  0  0999 V2000
   37.2232   21.4073   73.4883 N   0  0  0  0  0  0  0  0  0  0  0  0
   37.5442   20.4430   72.4216 C   0  0  2  0  0  0  0  0  0  0  0  0
   37.9375   21.1773   71.1566 C   0  0  0  0  0  0  0  0  0  0  0  0
   37.6767   22.3781   71.0308 O   0  0  0  0  0  0  0  0  0  0  0  0
   36.3146   19.5874   72.1349 C   0  0  0  0  0  0  0  0  0  0  0  0
   36.7213   18.2608   71.5296 C   0  0  0  0  0  0  0  0  0  0  0  0
   37.2749   17.1899   72.8682 S   0  0  2  0  0  0  0  0  0  0  0  0
   39.0243   17.6698   72.8956 C   0  0  0  0  0  0  0  0  0  0  0  0
   37.3817   15.5891   71.9979 C   0  0  0  0  0  0  0  0  0  0  0  0
   36.0722   15.3476   71.2520 C   0  0  1  0  0  0  0  0  0  0  0  0
   36.2653   15.7305   69.9103 O   0  0  0  0  0  0  0  0  0  0  0  0
   35.7088   13.8591   71.2206 C   0  0  1  0  0  0  0  0  0  0  0  0
   34.9207   13.2842   72.2745 O   0  0  0  0  0  0  0  0  0  0  0  0
   35.1424   13.6546   69.7765 C   0  0  1  0  0  0  0  0  0  0  0  0
   33.9066   12.9261   69.8756 O   0  0  0  0  0  0  0  0  0  0  0  0
   35.2575   15.0877   69.1459 C   0  0  2  0  0  0  0  0  0  0  0  0
   38.5755   20.5955   70.2922 O   0  0  0  0  0  0  0  0  0  0  0  0
   34.4434   13.2141   64.3573 N   0  0  0  0  0  0  0  0  0  0  0  0
   33.7855   12.9299   65.4870 C   0  0  0  0  0  0  0  0  0  0  0  0
   34.1259   13.4811   66.6486 N   0  0  0  0  0  0  0  0  0  0  0  0
   35.1343   14.3678   66.7319 C   0  0  0  0  0  0  0  0  0  0  0  0
   35.8556   14.7159   65.5585 C   0  0  0  0  0  0  0  0  0  0  0  0
   35.4647   14.0914   64.3372 C   0  0  0  0  0  0  0  0  0  0  0  0
   36.1112   14.3837   63.1508 N   0  0  0  0  0  0  0  0  0  0  0  0
   36.7967   15.6187   65.9192 N   0  0  0  0  0  0  0  0  0  0  0  0
   36.7041   15.8452   67.1975 C   0  0  0  0  0  0  0  0  0  0  0  0
   35.6921   15.0954   67.7449 N   0  0  0  0  0  0  0  0  0  0  0  0
  2  1  1  1  0  0  0
  2  3  1  0  0  0  0
  2  5  1  0  0  0  0
  3  4  1  0  0  0  0
  3 17  1  0  0  0  0
  5  6  1  0  0  0  0
  7  6  1  6  0  0  0
  7  8  1  0  0  0  0
  7  9  1  0  0  0  0
 10  9  1  1  0  0  0
 10 11  1  0  0  0  0
 10 12  1  0  0  0  0
 11 16  1  0  0  0  0
 12 13  1  1  0  0  0
 12 14  1  0  0  0  0
 14 15  1  1  0  0  0
 14 16  1  0  0  0  0
 16 27  1  6  0  0  0
 18 19  2  0  0  0  0
 18 23  1  0  0  0  0
 19 20  1  0  0  0  0
 20 21  2  0  0  0  0
 21 22  1  0  0  0  0
 21 27  1  0  0  0  0
 22 23  2  0  0  0  0
 22 25  1  0  0  0  0
 23 24  1  0  0  0  0
 25 26  2  0  0  0  0
 26 27  1  0  0  0  0
M  END
>  <CHROM.1>
-15.96525339,-155.74309912,79.58124046,-88.48577685,-50.47241973,98.01643788
167.17362280,36.26191622,16.31636420,69.54491780,-0.67868958,-1.19797451
-1.47224836

>  <Name>
ligand

>  <RI>
0

>  <Rbt.Current_Directory>
/home/itssahil/PROJECTS/Mol_Feturizer/New_Systems/rnas/2QWY

>  <Rbt.Executable>
rbdock ($Id: //depot/dev/client3/rdock/2013.1/src/exe/rbdock.cxx#4 $)

>  <Rbt.Library>
libRbt.so (2013.1, Build901 2013/11/27)

>  <Rbt.Parameter_File>
/export/apps/rDock/src/rDock_2013.1_src/data/scripts/dock_solv.prm

>  <Rbt.Receptor>
prm/blind_docking_100.prm

>  <SCORE>
-15.6802

>  <SCORE.INTER>
-16.3162

>  <SCORE.INTER.CONST>
1

>  <SCORE.INTER.POLAR>
0

>  <SCORE.INTER.ROT>
7

>  <SCORE.INTER.SOLV>
19.0046

>  <SCORE.INTER.VDW>
-25.479

>  <SCORE.INTER.norm>
-0.604303

>  <SCORE.INTRA>
0.635939

>  <SCORE.INTRA.DIHEDRAL>
1.65887

>  <SCORE.INTRA.DIHEDRAL.0>
10.7382

>  <SCORE.INTRA.POLAR>
0

>  <SCORE.INTRA.POLAR.0>
0

>  <SCORE.INTRA.REPUL>
0

>  <SCORE.INTRA.REPUL.0>
0

>  <SCORE.INTRA.SOLV>
-0.255683

>  <SCORE.INTRA.SOLV.lig_0>
-49.2501

>  <SCORE.INTRA.VDW>
-0.0656533

>  <SCORE.INTRA.VDW.0>
-1.75368

>  <SCORE.INTRA.norm>
0.0235533

>  <SCORE.RESTR>
0

>  <SCORE.RESTR.CAVITY>
0

>  <SCORE.RESTR.norm>
0

>  <SCORE.SYSTEM>
0

>  <SCORE.SYSTEM.CONST>
0

>  <SCORE.SYSTEM.DIHEDRAL>
0

>  <SCORE.SYSTEM.SOLV>
0

>  <SCORE.SYSTEM.norm>
0

>  <SCORE.heavy>
27

>  <SCORE.norm>
-0.580749

>  <RMSD>
10.892

$$$$
ligand
 OpenBabel11021811463D
libRbt.so/2013.1/901 2013/11/27
 27 29  0  0  0  0  0  0  0  0999 V2000
   32.3551   12.0801   63.4394 N   0  0  0  0  0  0  0  0  0  0  0  0
   33.3071   13.0771   63.9593 C   0  0  2  0  0  0  0  0  0  0  0  0
   33.9050   13.8718   62.8170 C   0  0  0  0  0  0  0  0  0  0  0  0
   34.6761   14.8081   63.0507 O   0  0  0  0  0  0  0  0  0  0  0  0
   34.4286   12.3574   64.7015 C   0  0  0  0  0  0  0  0  0  0  0  0
   35.2184   13.3349   65.5454 C   0  0  0  0  0  0  0  0  0  0  0  0
   36.4323   12.3950   66.4879 S   0  0  2  0  0  0  0  0  0  0  0  0
   35.4281   12.0504   67.9591 C   0  0  0  0  0  0  0  0  0  0  0  0
   37.4907   13.7434   67.1149 C   0  0  0  0  0  0  0  0  0  0  0  0
   36.6046   14.7965   67.7748 C   0  0  1  0  0  0  0  0  0  0  0  0
   36.4055   14.4114   69.1150 O   0  0  0  0  0  0  0  0  0  0  0  0
   37.2962   16.1631   67.8240 C   0  0  1  0  0  0  0  0  0  0  0  0
   37.1500   17.0879   66.7352 O   0  0  0  0  0  0  0  0  0  0  0  0
   36.8979   16.7206   69.2308 C   0  0  1  0  0  0  0  0  0  0  0  0
   36.4449   18.0755   69.0673 O   0  0  0  0  0  0  0  0  0  0  0  0
   36.0073   15.5729   69.8259 C   0  0  2  0  0  0  0  0  0  0  0  0
   33.6778   13.5390   61.6637 O   0  0  0  0  0  0  0  0  0  0  0  0
   37.7597   17.4878   74.3389 N   0  0  0  0  0  0  0  0  0  0  0  0
   37.7343   18.0755   73.1373 C   0  0  0  0  0  0  0  0  0  0  0  0
   37.2678   17.4448   72.0633 N   0  0  0  0  0  0  0  0  0  0  0  0
   36.7791   16.1939   72.1454 C   0  0  0  0  0  0  0  0  0  0  0  0
   36.7689   15.5302   73.4014 C   0  0  0  0  0  0  0  0  0  0  0  0
   37.2902   16.2393   74.5238 C   0  0  0  0  0  0  0  0  0  0  0  0
   37.3073   15.6657   75.7814 N   0  0  0  0  0  0  0  0  0  0  0  0
   36.2258   14.3067   73.2041 N   0  0  0  0  0  0  0  0  0  0  0  0
   35.9079   14.1775   71.9487 C   0  0  0  0  0  0  0  0  0  0  0  0
   36.2306   15.3167   71.2530 N   0  0  0  0  0  0  0  0  0  0  0  0
  2  1  1  6  0  0  0
  2  3  1  0  0  0  0
  2  5  1  0  0  0  0
  3  4  1  0  0  0  0
  3 17  1  0  0  0  0
  5  6  1  0  0  0  0
  7  6  1  6  0  0  0
  7  8  1  0  0  0  0
  7  9  1  0  0  0  0
 10  9  1  1  0  0  0
 10 11  1  0  0  0  0
 10 12  1  0  0  0  0
 11 16  1  0  0  0  0
 12 13  1  6  0  0  0
 12 14  1  0  0  0  0
 14 15  1  6  0  0  0
 14 16  1  0  0  0  0
 16 27  1  1  0  0  0
 18 19  2  0  0  0  0
 18 23  1  0  0  0  0
 19 20  1  0  0  0  0
 20 21  2  0  0  0  0
 21 22  1  0  0  0  0
 21 27  1  0  0  0  0
 22 23  2  0  0  0  0
 22 25  1  0  0  0  0
 23 24  1  0  0  0  0
 25 26  2  0  0  0  0
 26 27  1  0  0  0  0
M  END
>  <CHROM.1>
176.15927558,-165.32824495,175.52271077,-89.66969611,51.08813397,86.49590542
136.79049972,36.03332563,14.84502934,68.57135824,2.46522152,-1.22068935,-1.02642770

>  <Name>
ligand

>  <RI>
0

>  <Rbt.Current_Directory>
/home/itssahil/PROJECTS/Mol_Feturizer/New_Systems/rnas/2QWY

>  <Rbt.Executable>
rbdock ($Id: //depot/dev/client3/rdock/2013.1/src/exe/rbdock.cxx#4 $)

>  <Rbt.Library>
libRbt.so (2013.1, Build901 2013/11/27)

>  <Rbt.Parameter_File>
/export/apps/rDock/src/rDock_2013.1_src/data/scripts/dock_solv.prm

>  <Rbt.Receptor>
prm/blind_docking_100.prm

>  <SCORE>
-10.4126

>  <SCORE.INTER>
-10.4366

>  <SCORE.INTER.CONST>
1

>  <SCORE.INTER.POLAR>
0

>  <SCORE.INTER.ROT>
7

>  <SCORE.INTER.SOLV>
18.2968

>  <SCORE.INTER.VDW>
-21.3233

>  <SCORE.INTER.norm>
-0.386541

>  <SCORE.INTRA>
0.00987081

>  <SCORE.INTRA.DIHEDRAL>
-3.37881

>  <SCORE.INTRA.DIHEDRAL.0>
10.7382

>  <SCORE.INTRA.POLAR>
0

>  <SCORE.INTRA.POLAR.0>
0

>  <SCORE.INTRA.REPUL>
0

>  <SCORE.INTRA.REPUL.0>
0

>  <SCORE.INTRA.SOLV>
-0.938805

>  <SCORE.INTRA.SOLV.lig_0>
-49.2501

>  <SCORE.INTRA.VDW>
2.16868

>  <SCORE.INTRA.VDW.0>
-1.75368

>  <SCORE.INTRA.norm>
0.000365585

>  <SCORE.RESTR>
0.0141512

>  <SCORE.RESTR.CAVITY>
0.0141512

>  <SCORE.RESTR.norm>
0.00052412

>  <SCORE.SYSTEM>
0

>  <SCORE.SYSTEM.CONST>
0

>  <SCORE.SYSTEM.DIHEDRAL>
0

>  <SCORE.SYSTEM.SOLV>
0

>  <SCORE.SYSTEM.norm>
0

>  <SCORE.heavy>
27

>  <SCORE.norm>
-0.385651

>  <RMSD>
10.940

$$$$
ligand
 OpenBabel11021811463D
libRbt.so/2013.1/901 2013/11/27
 27 29  0  0  0  0  0  0  0  0999 V2000
   39.0217   19.3115   73.1023 N   0  0  0  0  0  0  0  0  0  0  0  0
   38.6554   19.4787   71.6850 C   0  0  2  0  0  0  0  0  0  0  0  0
   37.8887   20.7708   71.4940 C   0  0  0  0  0  0  0  0  0  0  0  0
   37.7205   21.2294   70.3594 O   0  0  0  0  0  0  0  0  0  0  0  0
   37.7722   18.3115   71.2562 C   0  0  0  0  0  0  0  0  0  0  0  0
   38.5205   17.0026   71.3918 C   0  0  0  0  0  0  0  0  0  0  0  0
   37.9256   16.1783   72.8791 S   0  0  2  0  0  0  0  0  0  0  0  0
   39.5281   15.7328   73.6035 C   0  0  0  0  0  0  0  0  0  0  0  0
   37.4117   14.5681   72.1902 C   0  0  0  0  0  0  0  0  0  0  0  0
   36.1109   14.7585   71.4148 C   0  0  1  0  0  0  0  0  0  0  0  0
   36.4436   15.2066   70.1215 O   0  0  0  0  0  0  0  0  0  0  0  0
   35.3686   13.4311   71.2263 C   0  0  1  0  0  0  0  0  0  0  0  0
   34.4215   12.9857   72.2095 O   0  0  0  0  0  0  0  0  0  0  0  0
   34.8176   13.5282   69.7651 C   0  0  1  0  0  0  0  0  0  0  0  0
   33.4307   13.1487   69.7799 O   0  0  0  0  0  0  0  0  0  0  0  0
   35.3284   14.9339   69.2879 C   0  0  2  0  0  0  0  0  0  0  0  0
   37.3775   21.3199   72.4583 O   0  0  0  0  0  0  0  0  0  0  0  0
   34.4909   13.3229   64.4086 N   0  0  0  0  0  0  0  0  0  0  0  0
   33.7853   13.0458   65.5110 C   0  0  0  0  0  0  0  0  0  0  0  0
   34.1384   13.5218   66.7017 N   0  0  0  0  0  0  0  0  0  0  0  0
   35.2098   14.3231   66.8437 C   0  0  0  0  0  0  0  0  0  0  0  0
   35.9846   14.6606   65.7018 C   0  0  0  0  0  0  0  0  0  0  0  0
   35.5770   14.1179   64.4472 C   0  0  0  0  0  0  0  0  0  0  0  0
   36.2732   14.4061   63.2883 N   0  0  0  0  0  0  0  0  0  0  0  0
   36.9832   15.4720   66.1201 N   0  0  0  0  0  0  0  0  0  0  0  0
   36.8768   15.6536   67.4044 C   0  0  0  0  0  0  0  0  0  0  0  0
   35.7968   14.9638   67.8981 N   0  0  0  0  0  0  0  0  0  0  0  0
  2  1  1  1  0  0  0
  2  3  1  0  0  0  0
  2  5  1  0  0  0  0
  3  4  1  0  0  0  0
  3 17  1  0  0  0  0
  5  6  1  0  0  0  0
  7  6  1  6  0  0  0
  7  8  1  0  0  0  0
  7  9  1  0  0  0  0
 10  9  1  1  0  0  0
 10 11  1  0  0  0  0
 10 12  1  0  0  0  0
 11 16  1  0  0  0  0
 12 13  1  1  0  0  0
 12 14  1  0  0  0  0
 14 15  1  1  0  0  0
 14 16  1  0  0  0  0
 16 27  1  6  0  0  0
 18 19  2  0  0  0  0
 18 23  1  0  0  0  0
 19 20  1  0  0  0  0
 20 21  2  0  0  0  0
 21 22  1  0  0  0  0
 21 27  1  0  0  0  0
 22 23  2  0  0  0  0
 22 25  1  0  0  0  0
 23 24  1  0  0  0  0
 25 26  2  0  0  0  0
 26 27  1  0  0  0  0
M  END
>  <CHROM.1>
165.65205241,-61.52482786,103.09107359,-132.74059646,-74.12268828,83.72109482
155.66484936,36.48791971,15.81743025,69.62845758,-0.55447111,-1.12124085
-1.25533136

>  <Name>
ligand

>  <RI>
0

>  <Rbt.Current_Directory>
/home/itssahil/PROJECTS/Mol_Feturizer/New_Systems/rnas/2QWY

>  <Rbt.Executable>
rbdock ($Id: //depot/dev/client3/rdock/2013.1/src/exe/rbdock.cxx#4 $)

>  <Rbt.Library>
libRbt.so (2013.1, Build901 2013/11/27)

>  <Rbt.Parameter_File>
/export/apps/rDock/src/rDock_2013.1_src/data/scripts/dock_solv.prm

>  <Rbt.Receptor>
prm/blind_docking_100.prm

>  <SCORE>
-12.9557

>  <SCORE.INTER>
-14.1058

>  <SCORE.INTER.CONST>
1

>  <SCORE.INTER.POLAR>
0

>  <SCORE.INTER.ROT>
7

>  <SCORE.INTER.SOLV>
17.2685

>  <SCORE.INTER.VDW>
-23.4267

>  <SCORE.INTER.norm>
-0.522435

>  <SCORE.INTRA>
1.15006

>  <SCORE.INTRA.DIHEDRAL>
2.94635

>  <SCORE.INTRA.DIHEDRAL.0>
10.7382

>  <SCORE.INTRA.POLAR>
0

>  <SCORE.INTRA.POLAR.0>
0

>  <SCORE.INTRA.REPUL>
0

>  <SCORE.INTRA.REPUL.0>
0

>  <SCORE.INTRA.SOLV>
1.46274

>  <SCORE.INTRA.SOLV.lig_0>
-49.2501

>  <SCORE.INTRA.VDW>
-1.05449

>  <SCORE.INTRA.VDW.0>
-1.75368

>  <SCORE.INTRA.norm>
0.0425947

>  <SCORE.RESTR>
0

>  <SCORE.RESTR.CAVITY>
0

>  <SCORE.RESTR.norm>
0

>  <SCORE.SYSTEM>
0

>  <SCORE.SYSTEM.CONST>
0

>  <SCORE.SYSTEM.DIHEDRAL>
0

>  <SCORE.SYSTEM.SOLV>
0

>  <SCORE.SYSTEM.norm>
0

>  <SCORE.heavy>
27

>  <SCORE.norm>
-0.479841

>  <RMSD>
10.962

$$$$
ligand
 OpenBabel11021811463D
libRbt.so/2013.1/901 2013/11/27
 27 29  0  0  0  0  0  0  0  0999 V2000
   33.3313   13.7786   62.4094 N   0  0  0  0  0  0  0  0  0  0  0  0
   33.9110   12.5217   62.9144 C   0  0  2  0  0  0  0  0  0  0  0  0
   32.9893   11.8990   63.9423 C   0  0  0  0  0  0  0  0  0  0  0  0
   33.1901   12.0837   65.1471 O   0  0  0  0  0  0  0  0  0  0  0  0
   35.2549   12.8198   63.5712 C   0  0  0  0  0  0  0  0  0  0  0  0
   35.1270   13.9761   64.5396 C   0  0  0  0  0  0  0  0  0  0  0  0
   36.5533   13.9355   65.6393 S   0  0  2  0  0  0  0  0  0  0  0  0
   36.1666   12.4035   66.5310 C   0  0  0  0  0  0  0  0  0  0  0  0
   36.0580   15.1783   66.8809 C   0  0  0  0  0  0  0  0  0  0  0  0
   37.2630   15.5006   67.7605 C   0  0  1  0  0  0  0  0  0  0  0  0
   36.8488   16.4336   68.7311 O   0  0  0  0  0  0  0  0  0  0  0  0
   37.7411   14.2671   68.5340 C   0  0  1  0  0  0  0  0  0  0  0  0
   38.7169   13.3850   67.9579 O   0  0  0  0  0  0  0  0  0  0  0  0
   38.1103   14.8424   69.9415 C   0  0  1  0  0  0  0  0  0  0  0  0
   39.4039   14.3349   70.3110 O   0  0  0  0  0  0  0  0  0  0  0  0
   37.7870   16.3716   69.7936 C   0  0  2  0  0  0  0  0  0  0  0  0
   32.0069   11.2727   63.5743 O   0  0  0  0  0  0  0  0  0  0  0  0
   37.0082   20.7274   72.5367 N   0  0  0  0  0  0  0  0  0  0  0  0
   37.7202   20.5638   71.4160 C   0  0  0  0  0  0  0  0  0  0  0  0
   37.8423   19.3730   70.8361 N   0  0  0  0  0  0  0  0  0  0  0  0
   37.2339   18.2846   71.3414 C   0  0  0  0  0  0  0  0  0  0  0  0
   36.4531   18.4070   72.5219 C   0  0  0  0  0  0  0  0  0  0  0  0
   36.3597   19.6999   73.1170 C   0  0  0  0  0  0  0  0  0  0  0  0
   35.6120   19.9029   74.2619 N   0  0  0  0  0  0  0  0  0  0  0  0
   35.9563   17.1803   72.8031 N   0  0  0  0  0  0  0  0  0  0  0  0
   36.3645   16.3364   71.9003 C   0  0  0  0  0  0  0  0  0  0  0  0
   37.1575   16.9704   70.9755 N   0  0  0  0  0  0  0  0  0  0  0  0
  2  1  1  1  0  0  0
  2  3  1  0  0  0  0
  2  5  1  0  0  0  0
  3  4  1  0  0  0  0
  3 17  1  0  0  0  0
  5  6  1  0  0  0  0
  7  6  1  6  0  0  0
  7  8  1  0  0  0  0
  7  9  1  0  0  0  0
 10  9  1  6  0  0  0
 10 11  1  0  0  0  0
 10 12  1  0  0  0  0
 11 16  1  0  0  0  0
 12 13  1  6  0  0  0
 12 14  1  0  0  0  0
 14 15  1  6  0  0  0
 14 16  1  0  0  0  0
 16 27  1  1  0  0  0
 18 19  2  0  0  0  0
 18 23  1  0  0  0  0
 19 20  1  0  0  0  0
 20 21  2  0  0  0  0
 21 22  1  0  0  0  0
 21 27  1  0  0  0  0
 22 23  2  0  0  0  0
 22 25  1  0  0  0  0
 23 24  1  0  0  0  0
 25 26  2  0  0  0  0
 26 27  1  0  0  0  0
M  END
>  <CHROM.1>
-96.94406988,49.01909826,162.16618130,-67.59953346,-168.72791297,-178.49019332
-91.41934412,36.23016387,15.45777188,68.28263725,1.86722028,0.43308034,-2.34450658

>  <Name>
ligand

>  <RI>
0

>  <Rbt.Current_Directory>
/home/itssahil/PROJECTS/Mol_Feturizer/New_Systems/rnas/2QWY

>  <Rbt.Executable>
rbdock ($Id: //depot/dev/client3/rdock/2013.1/src/exe/rbdock.cxx#4 $)

>  <Rbt.Library>
libRbt.so (2013.1, Build901 2013/11/27)

>  <Rbt.Parameter_File>
/export/apps/rDock/src/rDock_2013.1_src/data/scripts/dock_solv.prm

>  <Rbt.Receptor>
prm/blind_docking_100.prm

>  <SCORE>
-10.891

>  <SCORE.INTER>
-11.0259

>  <SCORE.INTER.CONST>
1

>  <SCORE.INTER.POLAR>
0

>  <SCORE.INTER.ROT>
7

>  <SCORE.INTER.SOLV>
13.0361

>  <SCORE.INTER.VDW>
-19.9626

>  <SCORE.INTER.norm>
-0.408365

>  <SCORE.INTRA>
0.12659

>  <SCORE.INTRA.DIHEDRAL>
-4.96177

>  <SCORE.INTRA.DIHEDRAL.0>
10.7382

>  <SCORE.INTRA.POLAR>
0

>  <SCORE.INTRA.POLAR.0>
0

>  <SCORE.INTRA.REPUL>
0

>  <SCORE.INTRA.REPUL.0>
0

>  <SCORE.INTRA.SOLV>
-0.0549453

>  <SCORE.INTRA.SOLV.lig_0>
-49.2501

>  <SCORE.INTRA.VDW>
2.63495

>  <SCORE.INTRA.VDW.0>
-1.75368

>  <SCORE.INTRA.norm>
0.00468853

>  <SCORE.RESTR>
0.0082962

>  <SCORE.RESTR.CAVITY>
0.0082962

>  <SCORE.RESTR.norm>
0.000307267

>  <SCORE.SYSTEM>
0

>  <SCORE.SYSTEM.CONST>
0

>  <SCORE.SYSTEM.DIHEDRAL>
0

>  <SCORE.SYSTEM.SOLV>
0

>  <SCORE.SYSTEM.norm>
0

>  <SCORE.heavy>
27

>  <SCORE.norm>
-0.403369

>  <RMSD>
10.994

$$$$
ligand
 OpenBabel11021811463D
libRbt.so/2013.1/901 2013/11/27
 27 29  0  0  0  0  0  0  0  0999 V2000
   33.9421   13.3060   62.7694 N   0  0  0  0  0  0  0  0  0  0  0  0
   34.0573   12.1343   63.6551 C   0  0  2  0  0  0  0  0  0  0  0  0
   33.1626   11.0170   63.1600 C   0  0  0  0  0  0  0  0  0  0  0  0
   33.6265   10.1221   62.4461 O   0  0  0  0  0  0  0  0  0  0  0  0
   33.6238   12.5279   65.0634 C   0  0  0  0  0  0  0  0  0  0  0  0
   34.6477   13.4457   65.6963 C   0  0  0  0  0  0  0  0  0  0  0  0
   35.9664   12.4200   66.3704 S   0  0  2  0  0  0  0  0  0  0  0  0
   35.1927   11.9865   67.9531 C   0  0  0  0  0  0  0  0  0  0  0  0
   37.1460   13.7017   66.9157 C   0  0  0  0  0  0  0  0  0  0  0  0
   36.3706   14.8211   67.6050 C   0  0  1  0  0  0  0  0  0  0  0  0
   36.2445   14.4811   68.9661 O   0  0  0  0  0  0  0  0  0  0  0  0
   37.1412   16.1451   67.5677 C   0  0  1  0  0  0  0  0  0  0  0  0
   36.9720   17.0502   66.4657 O   0  0  0  0  0  0  0  0  0  0  0  0
   36.8756   16.7592   68.9822 C   0  0  1  0  0  0  0  0  0  0  0  0
   36.4908   18.1342   68.8120 O   0  0  0  0  0  0  0  0  0  0  0  0
   35.9647   15.6811   69.6696 C   0  0  2  0  0  0  0  0  0  0  0  0
   31.9983   10.9658   63.5268 O   0  0  0  0  0  0  0  0  0  0  0  0
   36.6436   17.8360   74.3599 N   0  0  0  0  0  0  0  0  0  0  0  0
   36.3614   18.4376   73.1988 C   0  0  0  0  0  0  0  0  0  0  0  0
   36.2347   17.7467   72.0693 N   0  0  0  0  0  0  0  0  0  0  0  0
   36.3625   16.4075   72.0519 C   0  0  0  0  0  0  0  0  0  0  0  0
   36.6470   15.7182   73.2611 C   0  0  0  0  0  0  0  0  0  0  0  0
   36.7870   16.4999   74.4459 C   0  0  0  0  0  0  0  0  0  0  0  0
   37.0553   15.9030   75.6635 N   0  0  0  0  0  0  0  0  0  0  0  0
   36.7153   14.3998   72.9647 N   0  0  0  0  0  0  0  0  0  0  0  0
   36.4957   14.2356   71.6924 C   0  0  0  0  0  0  0  0  0  0  0  0
   36.2730   15.4468   71.0845 N   0  0  0  0  0  0  0  0  0  0  0  0
  2  1  1  6  0  0  0
  2  3  1  0  0  0  0
  2  5  1  0  0  0  0
  3  4  1  0  0  0  0
  3 17  1  0  0  0  0
  5  6  1  0  0  0  0
  7  6  1  6  0  0  0
  7  8  1  0  0  0  0
  7  9  1  0  0  0  0
 10  9  1  6  0  0  0
 10 11  1  0  0  0  0
 10 12  1  0  0  0  0
 11 16  1  0  0  0  0
 12 13  1  6  0  0  0
 12 14  1  0  0  0  0
 14 15  1  6  0  0  0
 14 16  1  0  0  0  0
 16 27  1  1  0  0  0
 18 19  2  0  0  0  0
 18 23  1  0  0  0  0
 19 20  1  0  0  0  0
 20 21  2  0  0  0  0
 21 22  1  0  0  0  0
 21 27  1  0  0  0  0
 22 23  2  0  0  0  0
 22 25  1  0  0  0  0
 23 24  1  0  0  0  0
 25 26  2  0  0  0  0
 26 27  1  0  0  0  0
M  END
>  <CHROM.1>
96.05155841,-70.68315007,-82.47311462,-83.00173746,43.04797267,87.67246442
167.90502760,35.72104527,14.56238475,68.51189230,-2.39126297,1.21336138,1.86988155

>  <Name>
ligand

>  <RI>
0

>  <Rbt.Current_Directory>
/home/itssahil/PROJECTS/Mol_Feturizer/New_Systems/rnas/2QWY

>  <Rbt.Executable>
rbdock ($Id: //depot/dev/client3/rdock/2013.1/src/exe/rbdock.cxx#4 $)

>  <Rbt.Library>
libRbt.so (2013.1, Build901 2013/11/27)

>  <Rbt.Parameter_File>
/export/apps/rDock/src/rDock_2013.1_src/data/scripts/dock_solv.prm

>  <Rbt.Receptor>
prm/blind_docking_100.prm

>  <SCORE>
-8.89864

>  <SCORE.INTER>
-9.66018

>  <SCORE.INTER.CONST>
1

>  <SCORE.INTER.POLAR>
0

>  <SCORE.INTER.ROT>
7

>  <SCORE.INTER.SOLV>
15.5989

>  <SCORE.INTER.VDW>
-19.9064

>  <SCORE.INTER.norm>
-0.357784

>  <SCORE.INTRA>
0.761543

>  <SCORE.INTRA.DIHEDRAL>
-2.2185

>  <SCORE.INTRA.DIHEDRAL.0>
10.7382

>  <SCORE.INTRA.POLAR>
0

>  <SCORE.INTRA.POLAR.0>
0

>  <SCORE.INTRA.REPUL>
0

>  <SCORE.INTRA.REPUL.0>
0

>  <SCORE.INTRA.SOLV>
-0.0542651

>  <SCORE.INTRA.SOLV.lig_0>
-49.2501

>  <SCORE.INTRA.VDW>
1.89792

>  <SCORE.INTRA.VDW.0>
-1.75368

>  <SCORE.INTRA.norm>
0.0282053

>  <SCORE.RESTR>
0

>  <SCORE.RESTR.CAVITY>
0

>  <SCORE.RESTR.norm>
0

>  <SCORE.SYSTEM>
0

>  <SCORE.SYSTEM.CONST>
0

>  <SCORE.SYSTEM.DIHEDRAL>
0

>  <SCORE.SYSTEM.SOLV>
0

>  <SCORE.SYSTEM.norm>
0

>  <SCORE.heavy>
27

>  <SCORE.norm>
-0.329579

>  <RMSD>
11.013

$$$$
ligand
 OpenBabel11021811463D
libRbt.so/2013.1/901 2013/11/27
 27 29  0  0  0  0  0  0  0  0999 V2000
   33.4121   13.0161   63.1435 N   0  0  0  0  0  0  0  0  0  0  0  0
   34.5904   12.9741   64.0270 C   0  0  2  0  0  0  0  0  0  0  0  0
   34.1710   12.6182   65.4381 C   0  0  0  0  0  0  0  0  0  0  0  0
   33.5619   13.4408   66.1295 O   0  0  0  0  0  0  0  0  0  0  0  0
   35.2544   14.3472   64.0398 C   0  0  0  0  0  0  0  0  0  0  0  0
   36.5958   14.2809   64.7381 C   0  0  0  0  0  0  0  0  0  0  0  0
   36.3102   14.4970   66.5036 S   0  0  2  0  0  0  0  0  0  0  0  0
   36.8316   16.2282   66.6543 C   0  0  0  0  0  0  0  0  0  0  0  0
   37.7730   13.6472   67.1890 C   0  0  0  0  0  0  0  0  0  0  0  0
   37.6721   13.6477   68.7119 C   0  0  1  0  0  0  0  0  0  0  0  0
   37.8954   14.9655   69.1566 O   0  0  0  0  0  0  0  0  0  0  0  0
   36.2625   13.2739   69.1826 C   0  0  1  0  0  0  0  0  0  0  0  0
   35.9172   11.8991   69.4129 O   0  0  0  0  0  0  0  0  0  0  0  0
   36.0176   14.2349   70.3929 C   0  0  1  0  0  0  0  0  0  0  0  0
   35.5038   13.4585   71.4887 O   0  0  0  0  0  0  0  0  0  0  0  0
   37.3511   15.0605   70.4634 C   0  0  2  0  0  0  0  0  0  0  0  0
   34.3748   11.4915   65.8644 O   0  0  0  0  0  0  0  0  0  0  0  0
   39.4696   19.3772   72.4589 N   0  0  0  0  0  0  0  0  0  0  0  0
   39.9995   18.1519   72.3713 C   0  0  0  0  0  0  0  0  0  0  0  0
   39.3207   17.1356   71.8465 N   0  0  0  0  0  0  0  0  0  0  0  0
   38.0779   17.3033   71.3593 C   0  0  0  0  0  0  0  0  0  0  0  0
   37.4748   18.5884   71.4142 C   0  0  0  0  0  0  0  0  0  0  0  0
   38.2340   19.6464   71.9964 C   0  0  0  0  0  0  0  0  0  0  0  0
   37.7209   20.9273   72.0789 N   0  0  0  0  0  0  0  0  0  0  0  0
   36.2463   18.4791   70.8580 N   0  0  0  0  0  0  0  0  0  0  0  0
   36.0590   17.2499   70.4733 C   0  0  0  0  0  0  0  0  0  0  0  0
   37.1621   16.4843   70.7617 N   0  0  0  0  0  0  0  0  0  0  0  0
  2  1  1  6  0  0  0
  2  3  1  0  0  0  0
  2  5  1  0  0  0  0
  3  4  1  0  0  0  0
  3 17  1  0  0  0  0
  5  6  1  0  0  0  0
  7  6  1  6  0  0  0
  7  8  1  0  0  0  0
  7  9  1  0  0  0  0
 10  9  1  6  0  0  0
 10 11  1  0  0  0  0
 10 12  1  0  0  0  0
 11 16  1  0  0  0  0
 12 13  1  1  0  0  0
 12 14  1  0  0  0  0
 14 15  1  1  0  0  0
 14 16  1  0  0  0  0
 16 27  1  6  0  0  0
 18 19  2  0  0  0  0
 18 23  1  0  0  0  0
 19 20  1  0  0  0  0
 20 21  2  0  0  0  0
 21 22  1  0  0  0  0
 21 27  1  0  0  0  0
 22 23  2  0  0  0  0
 22 25  1  0  0  0  0
 23 24  1  0  0  0  0
 25 26  2  0  0  0  0
 26 27  1  0  0  0  0
M  END
>  <CHROM.1>
-72.06162641,-170.11715952,-86.13591484,-102.59197817,-176.60284779,-71.37393869
-90.70622064,36.57609888,15.28538614,68.64825884,-3.07396640,1.19149151,2.38617496

>  <Name>
ligand

>  <RI>
0

>  <Rbt.Current_Directory>
/home/itssahil/PROJECTS/Mol_Feturizer/New_Systems/rnas/2QWY

>  <Rbt.Executable>
rbdock ($Id: //depot/dev/client3/rdock/2013.1/src/exe/rbdock.cxx#4 $)

>  <Rbt.Library>
libRbt.so (2013.1, Build901 2013/11/27)

>  <Rbt.Parameter_File>
/export/apps/rDock/src/rDock_2013.1_src/data/scripts/dock_solv.prm

>  <Rbt.Receptor>
prm/blind_docking_100.prm

>  <SCORE>
-11.9886

>  <SCORE.INTER>
-10.3815

>  <SCORE.INTER.CONST>
1

>  <SCORE.INTER.POLAR>
0

>  <SCORE.INTER.ROT>
7

>  <SCORE.INTER.SOLV>
14.347

>  <SCORE.INTER.VDW>
-19.97

>  <SCORE.INTER.norm>
-0.3845

>  <SCORE.INTRA>
-1.60791

>  <SCORE.INTRA.DIHEDRAL>
-1.59415

>  <SCORE.INTRA.DIHEDRAL.0>
10.7382

>  <SCORE.INTRA.POLAR>
0

>  <SCORE.INTRA.POLAR.0>
0

>  <SCORE.INTRA.REPUL>
0

>  <SCORE.INTRA.REPUL.0>
0

>  <SCORE.INTRA.SOLV>
-0.791932

>  <SCORE.INTRA.SOLV.lig_0>
-49.2501

>  <SCORE.INTRA.VDW>
-0.414871

>  <SCORE.INTRA.VDW.0>
-1.75368

>  <SCORE.INTRA.norm>
-0.0595522

>  <SCORE.RESTR>
0.000867914

>  <SCORE.RESTR.CAVITY>
0.000867914

>  <SCORE.RESTR.norm>
3.2145e-05

>  <SCORE.SYSTEM>
0

>  <SCORE.SYSTEM.CONST>
0

>  <SCORE.SYSTEM.DIHEDRAL>
0

>  <SCORE.SYSTEM.SOLV>
0

>  <SCORE.SYSTEM.norm>
0

>  <SCORE.heavy>
27

>  <SCORE.norm>
-0.44402

>  <RMSD>
11.014

$$$$
ligand
 OpenBabel11021811463D
libRbt.so/2013.1/901 2013/11/27
 27 29  0  0  0  0  0  0  0  0999 V2000
   33.1823   13.9006   62.3719 N   0  0  0  0  0  0  0  0  0  0  0  0
   34.0221   12.7183   62.6315 C   0  0  2  0  0  0  0  0  0  0  0  0
   33.1983   11.6267   63.2824 C   0  0  0  0  0  0  0  0  0  0  0  0
   33.6670   10.4914   63.4134 O   0  0  0  0  0  0  0  0  0  0  0  0
   35.1575   13.1087   63.5722 C   0  0  0  0  0  0  0  0  0  0  0  0
   34.6055   13.6191   64.8861 C   0  0  0  0  0  0  0  0  0  0  0  0
   36.0006   14.0725   65.9318 S   0  0  2  0  0  0  0  0  0  0  0  0
   36.4811   12.4114   66.4808 C   0  0  0  0  0  0  0  0  0  0  0  0
   35.1275   14.6751   67.4172 C   0  0  0  0  0  0  0  0  0  0  0  0
   35.7766   14.0572   68.6526 C   0  0  1  0  0  0  0  0  0  0  0  0
   36.7710   14.9462   69.1053 O   0  0  0  0  0  0  0  0  0  0  0  0
   34.7753   13.9181   69.8043 C   0  0  1  0  0  0  0  0  0  0  0  0
   33.9842   12.7269   69.9356 O   0  0  0  0  0  0  0  0  0  0  0  0
   35.6180   14.3017   71.0657 C   0  0  1  0  0  0  0  0  0  0  0  0
   35.3928   13.3060   72.0784 O   0  0  0  0  0  0  0  0  0  0  0  0
   37.0312   14.6222   70.4619 C   0  0  2  0  0  0  0  0  0  0  0  0
   32.0969   11.8909   63.7405 O   0  0  0  0  0  0  0  0  0  0  0  0
   36.6509   18.5167   73.8958 N   0  0  0  0  0  0  0  0  0  0  0  0
   35.7375   17.5919   73.5792 C   0  0  0  0  0  0  0  0  0  0  0  0
   35.9778   16.6623   72.6588 N   0  0  0  0  0  0  0  0  0  0  0  0
   37.1616   16.5992   72.0226 C   0  0  0  0  0  0  0  0  0  0  0  0
   38.1717   17.5486   72.3329 C   0  0  0  0  0  0  0  0  0  0  0  0
   37.8665   18.5351   73.3169 C   0  0  0  0  0  0  0  0  0  0  0  0
   38.7991   19.4884   73.6807 N   0  0  0  0  0  0  0  0  0  0  0  0
   39.2468   17.2560   71.5652 N   0  0  0  0  0  0  0  0  0  0  0  0
   38.9754   16.2191   70.8269 C   0  0  0  0  0  0  0  0  0  0  0  0
   37.6985   15.7770   71.0726 N   0  0  0  0  0  0  0  0  0  0  0  0
  2  1  1  1  0  0  0
  2  3  1  0  0  0  0
  2  5  1  0  0  0  0
  3  4  1  0  0  0  0
  3 17  1  0  0  0  0
  5  6  1  0  0  0  0
  7  6  1  6  0  0  0
  7  8  1  0  0  0  0
  7  9  1  0  0  0  0
 10  9  1  6  0  0  0
 10 11  1  0  0  0  0
 10 12  1  0  0  0  0
 11 16  1  0  0  0  0
 12 13  1  1  0  0  0
 12 14  1  0  0  0  0
 14 15  1  1  0  0  0
 14 16  1  0  0  0  0
 16 27  1  1  0  0  0
 18 19  2  0  0  0  0
 18 23  1  0  0  0  0
 19 20  1  0  0  0  0
 20 21  2  0  0  0  0
 21 22  1  0  0  0  0
 21 27  1  0  0  0  0
 22 23  2  0  0  0  0
 22 25  1  0  0  0  0
 23 24  1  0  0  0  0
 25 26  2  0  0  0  0
 26 27  1  0  0  0  0
M  END
>  <CHROM.1>
170.02644224,60.16634715,-179.46435018,-78.43127213,133.26873868,92.17023496
111.13887508,35.83932389,14.70446841,68.64910036,-2.06672638,0.80648723,1.44251300

>  <Name>
ligand

>  <RI>
0

>  <Rbt.Current_Directory>
/home/itssahil/PROJECTS/Mol_Feturizer/New_Systems/rnas/2QWY

>  <Rbt.Executable>
rbdock ($Id: //depot/dev/client3/rdock/2013.1/src/exe/rbdock.cxx#4 $)

>  <Rbt.Library>
libRbt.so (2013.1, Build901 2013/11/27)

>  <Rbt.Parameter_File>
/export/apps/rDock/src/rDock_2013.1_src/data/scripts/dock_solv.prm

>  <Rbt.Receptor>
prm/blind_docking_100.prm

>  <SCORE>
-5.26666

>  <SCORE.INTER>
-7.3655

>  <SCORE.INTER.CONST>
1

>  <SCORE.INTER.POLAR>
0

>  <SCORE.INTER.ROT>
7

>  <SCORE.INTER.SOLV>
12.5651

>  <SCORE.INTER.VDW>
-17.3654

>  <SCORE.INTER.norm>
-0.272796

>  <SCORE.INTRA>
2.07427

>  <SCORE.INTRA.DIHEDRAL>
-1.50198

>  <SCORE.INTRA.DIHEDRAL.0>
10.7382

>  <SCORE.INTRA.POLAR>
0

>  <SCORE.INTRA.POLAR.0>
0

>  <SCORE.INTRA.REPUL>
0

>  <SCORE.INTRA.REPUL.0>
0

>  <SCORE.INTRA.SOLV>
-0.352745

>  <SCORE.INTRA.SOLV.lig_0>
-49.2501

>  <SCORE.INTRA.VDW>
3.00163

>  <SCORE.INTRA.VDW.0>
-1.75368

>  <SCORE.INTRA.norm>
0.0768248

>  <SCORE.RESTR>
0.0245613

>  <SCORE.RESTR.CAVITY>
0.0245613

>  <SCORE.RESTR.norm>
0.000909679

>  <SCORE.SYSTEM>
0

>  <SCORE.SYSTEM.CONST>
0

>  <SCORE.SYSTEM.DIHEDRAL>
0

>  <SCORE.SYSTEM.SOLV>
0

>  <SCORE.SYSTEM.norm>
0

>  <SCORE.heavy>
27

>  <SCORE.norm>
-0.195062

>  <RMSD>
11.040

$$$$
ligand
 OpenBabel11021811463D
libRbt.so/2013.1/901 2013/11/27
 27 29  0  0  0  0  0  0  0  0999 V2000
   33.6764   11.6142   63.1311 N   0  0  0  0  0  0  0  0  0  0  0  0
   34.0937   12.9554   63.5759 C   0  0  2  0  0  0  0  0  0  0  0  0
   33.6702   13.9962   62.5605 C   0  0  0  0  0  0  0  0  0  0  0  0
   34.1453   15.1355   62.6062 O   0  0  0  0  0  0  0  0  0  0  0  0
   35.6125   12.9865   63.7122 C   0  0  0  0  0  0  0  0  0  0  0  0
   36.0312   14.0095   64.7464 C   0  0  0  0  0  0  0  0  0  0  0  0
   35.9087   13.2362   66.3688 S   0  0  2  0  0  0  0  0  0  0  0  0
   34.1728   13.6247   66.7258 C   0  0  0  0  0  0  0  0  0  0  0  0
   36.7491   14.4842   67.4021 C   0  0  0  0  0  0  0  0  0  0  0  0
   36.9613   13.9036   68.7976 C   0  0  1  0  0  0  0  0  0  0  0  0
   37.8137   14.7771   69.5010 O   0  0  0  0  0  0  0  0  0  0  0  0
   35.6520   13.8565   69.5925 C   0  0  1  0  0  0  0  0  0  0  0  0
   34.8010   12.7022   69.5176 O   0  0  0  0  0  0  0  0  0  0  0  0
   36.0896   14.2699   71.0368 C   0  0  1  0  0  0  0  0  0  0  0  0
   35.5190   13.3331   71.9666 O   0  0  0  0  0  0  0  0  0  0  0  0
   37.6334   14.5098   70.8827 C   0  0  2  0  0  0  0  0  0  0  0  0
   32.9117   13.6851   61.6546 O   0  0  0  0  0  0  0  0  0  0  0  0
   36.8803   19.5054   72.1401 N   0  0  0  0  0  0  0  0  0  0  0  0
   36.1378   18.7238   71.3479 C   0  0  0  0  0  0  0  0  0  0  0  0
   36.4725   17.4596   71.1055 N   0  0  0  0  0  0  0  0  0  0  0  0
   37.5626   16.9059   71.6670 C   0  0  0  0  0  0  0  0  0  0  0  0
   38.3771   17.6884   72.5286 C   0  0  0  0  0  0  0  0  0  0  0  0
   37.9876   19.0425   72.7506 C   0  0  0  0  0  0  0  0  0  0  0  0
   38.7227   19.8662   73.5826 N   0  0  0  0  0  0  0  0  0  0  0  0
   39.3873   16.8957   72.9550 N   0  0  0  0  0  0  0  0  0  0  0  0
   39.2520   15.7119   72.4314 C   0  0  0  0  0  0  0  0  0  0  0  0
   38.1395   15.6680   71.6273 N   0  0  0  0  0  0  0  0  0  0  0  0
  2  1  1  6  0  0  0
  2  3  1  0  0  0  0
  2  5  1  0  0  0  0
  3  4  1  0  0  0  0
  3 17  1  0  0  0  0
  5  6  1  0  0  0  0
  7  6  1  6  0  0  0
  7  8  1  0  0  0  0
  7  9  1  0  0  0  0
 10  9  1  6  0  0  0
 10 11  1  0  0  0  0
 10 12  1  0  0  0  0
 11 16  1  0  0  0  0
 12 13  1  1  0  0  0
 12 14  1  0  0  0  0
 14 15  1  1  0  0  0
 14 16  1  0  0  0  0
 16 27  1  1  0  0  0
 18 19  2  0  0  0  0
 18 23  1  0  0  0  0
 19 20  1  0  0  0  0
 20 21  2  0  0  0  0
 21 22  1  0  0  0  0
 21 27  1  0  0  0  0
 22 23  2  0  0  0  0
 22 25  1  0  0  0  0
 23 24  1  0  0  0  0
 25 26  2  0  0  0  0
 26 27  1  0  0  0  0
M  END
>  <CHROM.1>
-165.70082147,-152.51251658,83.34766613,-88.07939017,-170.50162949,169.69037863
69.96553041,36.22961207,15.03847910,68.52307229,-3.00926442,-1.21142611,-0.29420854

>  <Name>
ligand

>  <RI>
0

>  <Rbt.Current_Directory>
/home/itssahil/PROJECTS/Mol_Feturizer/New_Systems/rnas/2QWY

>  <Rbt.Executable>
rbdock ($Id: //depot/dev/client3/rdock/2013.1/src/exe/rbdock.cxx#4 $)

>  <Rbt.Library>
libRbt.so (2013.1, Build901 2013/11/27)

>  <Rbt.Parameter_File>
/export/apps/rDock/src/rDock_2013.1_src/data/scripts/dock_solv.prm

>  <Rbt.Receptor>
prm/blind_docking_100.prm

>  <SCORE>
-10.9346

>  <SCORE.INTER>
-10.5163

>  <SCORE.INTER.CONST>
1

>  <SCORE.INTER.POLAR>
0

>  <SCORE.INTER.ROT>
7

>  <SCORE.INTER.SOLV>
8.47884

>  <SCORE.INTER.VDW>
-18.1038

>  <SCORE.INTER.norm>
-0.389493

>  <SCORE.INTRA>
-0.418286

>  <SCORE.INTRA.DIHEDRAL>
-0.71134

>  <SCORE.INTRA.DIHEDRAL.0>
10.7382

>  <SCORE.INTRA.POLAR>
0

>  <SCORE.INTRA.POLAR.0>
0

>  <SCORE.INTRA.REPUL>
0

>  <SCORE.INTRA.REPUL.0>
0

>  <SCORE.INTRA.SOLV>
-0.0176528

>  <SCORE.INTRA.SOLV.lig_0>
-49.2501

>  <SCORE.INTRA.VDW>
-0.0537896

>  <SCORE.INTRA.VDW.0>
-1.75368

>  <SCORE.INTRA.norm>
-0.0154921

>  <SCORE.RESTR>
0

>  <SCORE.RESTR.CAVITY>
0

>  <SCORE.RESTR.norm>
0

>  <SCORE.SYSTEM>
0

>  <SCORE.SYSTEM.CONST>
0

>  <SCORE.SYSTEM.DIHEDRAL>
0

>  <SCORE.SYSTEM.SOLV>
0

>  <SCORE.SYSTEM.norm>
0

>  <SCORE.heavy>
27

>  <SCORE.norm>
-0.404985

>  <RMSD>
11.044

$$$$
ligand
 OpenBabel11021811463D
libRbt.so/2013.1/901 2013/11/27
 27 29  0  0  0  0  0  0  0  0999 V2000
   33.1137   11.6851   62.9531 N   0  0  0  0  0  0  0  0  0  0  0  0
   33.1409   13.1001   63.3627 C   0  0  2  0  0  0  0  0  0  0  0  0
   33.2370   13.9936   62.1435 C   0  0  0  0  0  0  0  0  0  0  0  0
   33.2058   13.5017   61.0109 O   0  0  0  0  0  0  0  0  0  0  0  0
   34.3586   13.3403   64.2492 C   0  0  0  0  0  0  0  0  0  0  0  0
   34.2090   12.6077   65.5653 C   0  0  0  0  0  0  0  0  0  0  0  0
   35.6407   13.0051   66.5840 S   0  0  2  0  0  0  0  0  0  0  0  0
   35.2875   11.9128   67.9889 C   0  0  0  0  0  0  0  0  0  0  0  0
   35.1270   14.6144   67.2754 C   0  0  0  0  0  0  0  0  0  0  0  0
   36.3748   15.4004   67.6687 C   0  0  1  0  0  0  0  0  0  0  0  0
   36.0096   16.3058   68.6842 O   0  0  0  0  0  0  0  0  0  0  0  0
   37.4454   14.4887   68.2777 C   0  0  1  0  0  0  0  0  0  0  0  0
   38.4195   13.8535   67.4352 O   0  0  0  0  0  0  0  0  0  0  0  0
   38.0328   15.3489   69.4453 C   0  0  1  0  0  0  0  0  0  0  0  0
   39.4676   15.3007   69.3635 O   0  0  0  0  0  0  0  0  0  0  0  0
   37.2020   16.6781   69.3570 C   0  0  2  0  0  0  0  0  0  0  0  0
   33.2741   15.2068   62.2833 O   0  0  0  0  0  0  0  0  0  0  0  0
   37.1400   20.9032   72.3981 N   0  0  0  0  0  0  0  0  0  0  0  0
   37.6363   20.7721   71.1627 C   0  0  0  0  0  0  0  0  0  0  0  0
   37.5937   19.6115   70.5146 N   0  0  0  0  0  0  0  0  0  0  0  0
   37.0270   18.5235   71.0672 C   0  0  0  0  0  0  0  0  0  0  0  0
   36.4712   18.6130   72.3715 C   0  0  0  0  0  0  0  0  0  0  0  0
   36.5501   19.8735   73.0345 C   0  0  0  0  0  0  0  0  0  0  0  0
   36.0249   20.0440   74.3017 N   0  0  0  0  0  0  0  0  0  0  0  0
   35.9680   17.3949   72.6776 N   0  0  0  0  0  0  0  0  0  0  0  0
   36.1684   16.5861   71.6778 C   0  0  0  0  0  0  0  0  0  0  0  0
   36.8200   17.2363   70.6586 N   0  0  0  0  0  0  0  0  0  0  0  0
  2  1  1  6  0  0  0
  2  3  1  0  0  0  0
  2  5  1  0  0  0  0
  3  4  1  0  0  0  0
  3 17  1  0  0  0  0
  5  6  1  0  0  0  0
  7  6  1  6  0  0  0
  7  8  1  0  0  0  0
  7  9  1  0  0  0  0
 10  9  1  1  0  0  0
 10 11  1  0  0  0  0
 10 12  1  0  0  0  0
 11 16  1  0  0  0  0
 12 13  1  6  0  0  0
 12 14  1  0  0  0  0
 14 15  1  6  0  0  0
 14 16  1  0  0  0  0
 16 27  1  1  0  0  0
 18 19  2  0  0  0  0
 18 23  1  0  0  0  0
 19 20  1  0  0  0  0
 20 21  2  0  0  0  0
 21 22  1  0  0  0  0
 21 27  1  0  0  0  0
 22 23  2  0  0  0  0
 22 25  1  0  0  0  0
 23 24  1  0  0  0  0
 25 26  2  0  0  0  0
 26 27  1  0  0  0  0
M  END
>  <CHROM.1>
3.99403530,-67.42945735,-177.22713543,-175.23918353,-155.91759471,-154.60211221
-116.07372455,35.93423626,15.69470690,68.08236088,2.05801314,0.91396006,-2.56704878

>  <Name>
ligand

>  <RI>
0

>  <Rbt.Current_Directory>
/home/itssahil/PROJECTS/Mol_Feturizer/New_Systems/rnas/2QWY

>  <Rbt.Executable>
rbdock ($Id: //depot/dev/client3/rdock/2013.1/src/exe/rbdock.cxx#4 $)

>  <Rbt.Library>
libRbt.so (2013.1, Build901 2013/11/27)

>  <Rbt.Parameter_File>
/export/apps/rDock/src/rDock_2013.1_src/data/scripts/dock_solv.prm

>  <Rbt.Receptor>
prm/blind_docking_100.prm

>  <SCORE>
-17.1614

>  <SCORE.INTER>
-16.79

>  <SCORE.INTER.CONST>
1

>  <SCORE.INTER.POLAR>
0

>  <SCORE.INTER.ROT>
7

>  <SCORE.INTER.SOLV>
11.3371

>  <SCORE.INTER.VDW>
-23.2391

>  <SCORE.INTER.norm>
-0.621853

>  <SCORE.INTRA>
-0.37132

>  <SCORE.INTRA.DIHEDRAL>
-2.27211

>  <SCORE.INTRA.DIHEDRAL.0>
10.7382

>  <SCORE.INTRA.POLAR>
0

>  <SCORE.INTRA.POLAR.0>
0

>  <SCORE.INTRA.REPUL>
0

>  <SCORE.INTRA.REPUL.0>
0

>  <SCORE.INTRA.SOLV>
-0.240391

>  <SCORE.INTRA.SOLV.lig_0>
-49.2501

>  <SCORE.INTRA.VDW>
0.884928

>  <SCORE.INTRA.VDW.0>
-1.75368

>  <SCORE.INTRA.norm>
-0.0137526

>  <SCORE.RESTR>
0

>  <SCORE.RESTR.CAVITY>
0

>  <SCORE.RESTR.norm>
0

>  <SCORE.SYSTEM>
0

>  <SCORE.SYSTEM.CONST>
0

>  <SCORE.SYSTEM.DIHEDRAL>
0

>  <SCORE.SYSTEM.SOLV>
0

>  <SCORE.SYSTEM.norm>
0

>  <SCORE.heavy>
27

>  <SCORE.norm>
-0.635606

>  <RMSD>
11.070

$$$$
ligand
 OpenBabel11021811463D
libRbt.so/2013.1/901 2013/11/27
 27 29  0  0  0  0  0  0  0  0999 V2000
   34.3150   14.3780   62.7121 N   0  0  0  0  0  0  0  0  0  0  0  0
   34.8068   13.1698   63.3971 C   0  0  2  0  0  0  0  0  0  0  0  0
   33.7984   12.0478   63.2625 C   0  0  0  0  0  0  0  0  0  0  0  0
   34.1809   10.8945   63.0402 O   0  0  0  0  0  0  0  0  0  0  0  0
   35.0063   13.4807   64.8769 C   0  0  0  0  0  0  0  0  0  0  0  0
   36.0157   14.5949   65.0532 C   0  0  0  0  0  0  0  0  0  0  0  0
   36.1778   14.9186   66.8179 S   0  0  2  0  0  0  0  0  0  0  0  0
   36.9552   16.5552   66.7247 C   0  0  0  0  0  0  0  0  0  0  0  0
   37.6267   13.8836   67.2194 C   0  0  0  0  0  0  0  0  0  0  0  0
   37.8153   13.8695   68.7339 C   0  0  1  0  0  0  0  0  0  0  0  0
   37.9334   15.2055   69.1643 O   0  0  0  0  0  0  0  0  0  0  0  0
   36.5851   13.3003   69.4488 C   0  0  1  0  0  0  0  0  0  0  0  0
   36.4833   11.8905   69.7025 O   0  0  0  0  0  0  0  0  0  0  0  0
   36.4416   14.2168   70.7088 C   0  0  1  0  0  0  0  0  0  0  0  0
   36.2560   13.3754   71.8599 O   0  0  0  0  0  0  0  0  0  0  0  0
   37.6370   15.2224   70.5517 C   0  0  2  0  0  0  0  0  0  0  0  0
   32.6118   12.2749   63.4445 O   0  0  0  0  0  0  0  0  0  0  0  0
   39.3913   19.6805   72.5893 N   0  0  0  0  0  0  0  0  0  0  0  0
   40.0460   18.5261   72.4207 C   0  0  0  0  0  0  0  0  0  0  0  0
   39.4510   17.4581   71.8969 N   0  0  0  0  0  0  0  0  0  0  0  0
   38.1686   17.5015   71.4923 C   0  0  0  0  0  0  0  0  0  0  0  0
   37.4326   18.7081   71.6350 C   0  0  0  0  0  0  0  0  0  0  0  0
   38.1064   19.8246   72.2130 C   0  0  0  0  0  0  0  0  0  0  0  0
   37.4619   21.0363   72.3777 N   0  0  0  0  0  0  0  0  0  0  0  0
   36.1904   18.4802   71.1495 N   0  0  0  0  0  0  0  0  0  0  0  0
   36.1152   17.2513   70.7274 C   0  0  0  0  0  0  0  0  0  0  0  0
   37.3120   16.6052   70.9181 N   0  0  0  0  0  0  0  0  0  0  0  0
  2  1  1  6  0  0  0
  2  3  1  0  0  0  0
  2  5  1  0  0  0  0
  3  4  1  0  0  0  0
  3 17  1  0  0  0  0
  5  6  1  0  0  0  0
  7  6  1  6  0  0  0
  7  8  1  0  0  0  0
  7  9  1  0  0  0  0
 10  9  1  6  0  0  0
 10 11  1  0  0  0  0
 10 12  1  0  0  0  0
 11 16  1  0  0  0  0
 12 13  1  1  0  0  0
 12 14  1  0  0  0  0
 14 15  1  1  0  0  0
 14 16  1  0  0  0  0
 16 27  1  6  0  0  0
 18 19  2  0  0  0  0
 18 23  1  0  0  0  0
 19 20  1  0  0  0  0
 20 21  2  0  0  0  0
 21 22  1  0  0  0  0
 21 27  1  0  0  0  0
 22 23  2  0  0  0  0
 22 25  1  0  0  0  0
 23 24  1  0  0  0  0
 25 26  2  0  0  0  0
 26 27  1  0  0  0  0
M  END
>  <CHROM.1>
138.97306480,-60.06496788,179.19656249,-162.52380672,-172.23937818,-56.17055056
-98.28638165,36.60770703,15.36354645,68.50070402,2.83634358,1.19149281,2.85160507

>  <Name>
ligand

>  <RI>
0

>  <Rbt.Current_Directory>
/home/itssahil/PROJECTS/Mol_Feturizer/New_Systems/rnas/2QWY

>  <Rbt.Executable>
rbdock ($Id: //depot/dev/client3/rdock/2013.1/src/exe/rbdock.cxx#4 $)

>  <Rbt.Library>
libRbt.so (2013.1, Build901 2013/11/27)

>  <Rbt.Parameter_File>
/export/apps/rDock/src/rDock_2013.1_src/data/scripts/dock_solv.prm

>  <Rbt.Receptor>
prm/blind_docking_100.prm

>  <SCORE>
-14.9334

>  <SCORE.INTER>
-11.8869

>  <SCORE.INTER.CONST>
1

>  <SCORE.INTER.POLAR>
0

>  <SCORE.INTER.ROT>
7

>  <SCORE.INTER.SOLV>
14.0607

>  <SCORE.INTER.VDW>
-20.8782

>  <SCORE.INTER.norm>
-0.440255

>  <SCORE.INTRA>
-3.04653

>  <SCORE.INTRA.DIHEDRAL>
-5.08253

>  <SCORE.INTRA.DIHEDRAL.0>
10.7382

>  <SCORE.INTRA.POLAR>
0

>  <SCORE.INTRA.POLAR.0>
0

>  <SCORE.INTRA.REPUL>
0

>  <SCORE.INTRA.REPUL.0>
0

>  <SCORE.INTRA.SOLV>
-0.226879

>  <SCORE.INTRA.SOLV.lig_0>
-49.2501

>  <SCORE.INTRA.VDW>
-0.391825

>  <SCORE.INTRA.VDW.0>
-1.75368

>  <SCORE.INTRA.norm>
-0.112834

>  <SCORE.RESTR>
0

>  <SCORE.RESTR.CAVITY>
0

>  <SCORE.RESTR.norm>
0

>  <SCORE.SYSTEM>
0

>  <SCORE.SYSTEM.CONST>
0

>  <SCORE.SYSTEM.DIHEDRAL>
0

>  <SCORE.SYSTEM.SOLV>
0

>  <SCORE.SYSTEM.norm>
0

>  <SCORE.heavy>
27

>  <SCORE.norm>
-0.55309

>  <RMSD>
11.073

$$$$
ligand
 OpenBabel11021811463D
libRbt.so/2013.1/901 2013/11/27
 27 29  0  0  0  0  0  0  0  0999 V2000
   32.3451   11.5082   63.5895 N   0  0  0  0  0  0  0  0  0  0  0  0
   33.3812   12.4626   63.1575 C   0  0  2  0  0  0  0  0  0  0  0  0
   33.2979   12.6799   61.6609 C   0  0  0  0  0  0  0  0  0  0  0  0
   33.6732   11.7953   60.8847 O   0  0  0  0  0  0  0  0  0  0  0  0
   34.7556   11.8966   63.4995 C   0  0  0  0  0  0  0  0  0  0  0  0
   34.9665   11.8857   64.9984 C   0  0  0  0  0  0  0  0  0  0  0  0
   34.8153   13.5808   65.5894 S   0  0  2  0  0  0  0  0  0  0  0  0
   36.3158   14.2674   64.8352 C   0  0  0  0  0  0  0  0  0  0  0  0
   35.3695   13.3866   67.3176 C   0  0  0  0  0  0  0  0  0  0  0  0
   35.1459   14.7037   68.0557 C   0  0  1  0  0  0  0  0  0  0  0  0
   35.1859   14.4337   69.4376 O   0  0  0  0  0  0  0  0  0  0  0  0
   36.2785   15.6998   67.7848 C   0  0  1  0  0  0  0  0  0  0  0  0
   36.1974   16.6025   66.6708 O   0  0  0  0  0  0  0  0  0  0  0  0
   36.5065   16.3770   69.1769 C   0  0  1  0  0  0  0  0  0  0  0  0
   36.5590   17.8008   68.9827 O   0  0  0  0  0  0  0  0  0  0  0  0
   35.4501   15.6638   70.0935 C   0  0  2  0  0  0  0  0  0  0  0  0
   32.7933   13.7035   61.2248 O   0  0  0  0  0  0  0  0  0  0  0  0
   37.3552   17.5639   74.5504 N   0  0  0  0  0  0  0  0  0  0  0  0
   37.0143   18.2267   73.4394 C   0  0  0  0  0  0  0  0  0  0  0  0
   36.5544   17.5933   72.3641 N   0  0  0  0  0  0  0  0  0  0  0  0
   36.3907   16.2580   72.3570 C   0  0  0  0  0  0  0  0  0  0  0  0
   36.7234   15.5083   73.5170 C   0  0  0  0  0  0  0  0  0  0  0  0
   37.2246   16.2269   74.6426 C   0  0  0  0  0  0  0  0  0  0  0  0
   37.5626   15.5709   75.8114 N   0  0  0  0  0  0  0  0  0  0  0  0
   36.4595   14.2095   73.2446 N   0  0  0  0  0  0  0  0  0  0  0  0
   35.9977   14.1124   72.0316 C   0  0  0  0  0  0  0  0  0  0  0  0
   35.9370   15.3510   71.4414 N   0  0  0  0  0  0  0  0  0  0  0  0
  2  1  1  6  0  0  0
  2  3  1  0  0  0  0
  2  5  1  0  0  0  0
  3  4  1  0  0  0  0
  3 17  1  0  0  0  0
  5  6  1  0  0  0  0
  7  6  1  6  0  0  0
  7  8  1  0  0  0  0
  7  9  1  0  0  0  0
 10  9  1  6  0  0  0
 10 11  1  0  0  0  0
 10 12  1  0  0  0  0
 11 16  1  0  0  0  0
 12 13  1  6  0  0  0
 12 14  1  0  0  0  0
 14 15  1  6  0  0  0
 14 16  1  0  0  0  0
 16 27  1  1  0  0  0
 18 19  2  0  0  0  0
 18 23  1  0  0  0  0
 19 20  1  0  0  0  0
 20 21  2  0  0  0  0
 21 22  1  0  0  0  0
 21 27  1  0  0  0  0
 22 23  2  0  0  0  0
 22 25  1  0  0  0  0
 23 24  1  0  0  0  0
 25 26  2  0  0  0  0
 26 27  1  0  0  0  0
M  END
>  <CHROM.1>
-72.92709783,-69.37350645,-59.05420920,-68.48310467,-172.90464440,162.45753673
175.10005776,35.50084259,14.70066626,68.23355158,2.46952920,-1.23177694,-1.04044289

>  <Name>
ligand

>  <RI>
0

>  <Rbt.Current_Directory>
/home/itssahil/PROJECTS/Mol_Feturizer/New_Systems/rnas/2QWY

>  <Rbt.Executable>
rbdock ($Id: //depot/dev/client3/rdock/2013.1/src/exe/rbdock.cxx#4 $)

>  <Rbt.Library>
libRbt.so (2013.1, Build901 2013/11/27)

>  <Rbt.Parameter_File>
/export/apps/rDock/src/rDock_2013.1_src/data/scripts/dock_solv.prm

>  <Rbt.Receptor>
prm/blind_docking_100.prm

>  <SCORE>
-14.9675

>  <SCORE.INTER>
-13.3636

>  <SCORE.INTER.CONST>
1

>  <SCORE.INTER.POLAR>
0

>  <SCORE.INTER.ROT>
7

>  <SCORE.INTER.SOLV>
18.0778

>  <SCORE.INTER.VDW>
-23.2017

>  <SCORE.INTER.norm>
-0.49495

>  <SCORE.INTRA>
-1.61166

>  <SCORE.INTRA.DIHEDRAL>
-5.53409

>  <SCORE.INTRA.DIHEDRAL.0>
10.7382

>  <SCORE.INTRA.POLAR>
0

>  <SCORE.INTRA.POLAR.0>
0

>  <SCORE.INTRA.REPUL>
0

>  <SCORE.INTRA.REPUL.0>
0

>  <SCORE.INTRA.SOLV>
0.456148

>  <SCORE.INTRA.SOLV.lig_0>
-49.2501

>  <SCORE.INTRA.VDW>
0.927316

>  <SCORE.INTRA.VDW.0>
-1.75368

>  <SCORE.INTRA.norm>
-0.059691

>  <SCORE.RESTR>
0.0077835

>  <SCORE.RESTR.CAVITY>
0.0077835

>  <SCORE.RESTR.norm>
0.000288278

>  <SCORE.SYSTEM>
0

>  <SCORE.SYSTEM.CONST>
0

>  <SCORE.SYSTEM.DIHEDRAL>
0

>  <SCORE.SYSTEM.SOLV>
0

>  <SCORE.SYSTEM.norm>
0

>  <SCORE.heavy>
27

>  <SCORE.norm>
-0.554352

>  <RMSD>
11.176

$$$$
ligand
 OpenBabel11021811463D
libRbt.so/2013.1/901 2013/11/27
 27 29  0  0  0  0  0  0  0  0999 V2000
   34.4794   14.0502   63.0874 N   0  0  0  0  0  0  0  0  0  0  0  0
   34.1611   12.6218   62.9165 C   0  0  2  0  0  0  0  0  0  0  0  0
   33.4983   12.3928   61.5740 C   0  0  0  0  0  0  0  0  0  0  0  0
   32.8280   13.2900   61.0530 O   0  0  0  0  0  0  0  0  0  0  0  0
   33.2035   12.1876   64.0214 C   0  0  0  0  0  0  0  0  0  0  0  0
   33.9542   11.9674   65.3173 C   0  0  0  0  0  0  0  0  0  0  0  0
   34.6376   13.5517   65.8352 S   0  0  2  0  0  0  0  0  0  0  0  0
   36.3618   13.2798   65.3407 C   0  0  0  0  0  0  0  0  0  0  0  0
   34.7627   13.2925   67.6377 C   0  0  0  0  0  0  0  0  0  0  0  0
   34.8386   14.6531   68.3251 C   0  0  1  0  0  0  0  0  0  0  0  0
   34.9172   14.4289   69.7135 O   0  0  0  0  0  0  0  0  0  0  0  0
   36.1179   15.4057   67.9436 C   0  0  1  0  0  0  0  0  0  0  0  0
   36.1351   16.2678   66.7952 O   0  0  0  0  0  0  0  0  0  0  0  0
   36.5590   16.0755   69.2872 C   0  0  1  0  0  0  0  0  0  0  0  0
   36.8648   17.4557   69.0241 O   0  0  0  0  0  0  0  0  0  0  0  0
   35.4496   15.6085   70.2951 C   0  0  2  0  0  0  0  0  0  0  0  0
   33.6872   11.3440   60.9765 O   0  0  0  0  0  0  0  0  0  0  0  0
   38.2890   17.1347   74.3832 N   0  0  0  0  0  0  0  0  0  0  0  0
   38.0512   17.7904   73.2416 C   0  0  0  0  0  0  0  0  0  0  0  0
   37.3131   17.2564   72.2725 N   0  0  0  0  0  0  0  0  0  0  0  0
   36.7542   16.0403   72.4100 C   0  0  0  0  0  0  0  0  0  0  0  0
   36.9631   15.3082   73.6094 C   0  0  0  0  0  0  0  0  0  0  0  0
   37.7713   15.9138   74.6167 C   0  0  0  0  0  0  0  0  0  0  0  0
   38.0144   15.2695   75.8153 N   0  0  0  0  0  0  0  0  0  0  0  0
   36.2929   14.1392   73.4878 N   0  0  0  0  0  0  0  0  0  0  0  0
   35.7006   14.1045   72.3294 C   0  0  0  0  0  0  0  0  0  0  0  0
   35.9558   15.2562   71.6261 N   0  0  0  0  0  0  0  0  0  0  0  0
  2  1  1  1  0  0  0
  2  3  1  0  0  0  0
  2  5  1  0  0  0  0
  3  4  1  0  0  0  0
  3 17  1  0  0  0  0
  5  6  1  0  0  0  0
  7  6  1  6  0  0  0
  7  8  1  0  0  0  0
  7  9  1  0  0  0  0
 10  9  1  6  0  0  0
 10 11  1  0  0  0  0
 10 12  1  0  0  0  0
 11 16  1  0  0  0  0
 12 13  1  6  0  0  0
 12 14  1  0  0  0  0
 14 15  1  6  0  0  0
 14 16  1  0  0  0  0
 16 27  1  1  0  0  0
 18 19  2  0  0  0  0
 18 23  1  0  0  0  0
 19 20  1  0  0  0  0
 20 21  2  0  0  0  0
 21 22  1  0  0  0  0
 21 27  1  0  0  0  0
 22 23  2  0  0  0  0
 22 25  1  0  0  0  0
 23 24  1  0  0  0  0
 25 26  2  0  0  0  0
 26 27  1  0  0  0  0
M  END
>  <CHROM.1>
-29.00059863,-78.25201564,64.23681152,-103.12354262,-159.71665141,179.25969545
167.47852670,35.59971214,14.59066851,68.33866024,-2.28060177,1.10696773,1.91941922

>  <Name>
ligand

>  <RI>
0

>  <Rbt.Current_Directory>
/home/itssahil/PROJECTS/Mol_Feturizer/New_Systems/rnas/2QWY

>  <Rbt.Executable>
rbdock ($Id: //depot/dev/client3/rdock/2013.1/src/exe/rbdock.cxx#4 $)

>  <Rbt.Library>
libRbt.so (2013.1, Build901 2013/11/27)

>  <Rbt.Parameter_File>
/export/apps/rDock/src/rDock_2013.1_src/data/scripts/dock_solv.prm

>  <Rbt.Receptor>
prm/blind_docking_100.prm

>  <SCORE>
-12.0429

>  <SCORE.INTER>
-12.8663

>  <SCORE.INTER.CONST>
1

>  <SCORE.INTER.POLAR>
0

>  <SCORE.INTER.ROT>
7

>  <SCORE.INTER.SOLV>
15.765

>  <SCORE.INTER.VDW>
-22.0992

>  <SCORE.INTER.norm>
-0.47653

>  <SCORE.INTRA>
0.823456

>  <SCORE.INTRA.DIHEDRAL>
-1.36418

>  <SCORE.INTRA.DIHEDRAL.0>
10.7382

>  <SCORE.INTRA.POLAR>
0

>  <SCORE.INTRA.POLAR.0>
0

>  <SCORE.INTRA.REPUL>
0

>  <SCORE.INTRA.REPUL.0>
0

>  <SCORE.INTRA.SOLV>
2.41974

>  <SCORE.INTRA.SOLV.lig_0>
-49.2501

>  <SCORE.INTRA.VDW>
0.295675

>  <SCORE.INTRA.VDW.0>
-1.75368

>  <SCORE.INTRA.norm>
0.0304984

>  <SCORE.RESTR>
0

>  <SCORE.RESTR.CAVITY>
0

>  <SCORE.RESTR.norm>
0

>  <SCORE.SYSTEM>
0

>  <SCORE.SYSTEM.CONST>
0

>  <SCORE.SYSTEM.DIHEDRAL>
0

>  <SCORE.SYSTEM.SOLV>
0

>  <SCORE.SYSTEM.norm>
0

>  <SCORE.heavy>
27

>  <SCORE.norm>
-0.446031

>  <RMSD>
11.215

$$$$
ligand
 OpenBabel11021811463D
libRbt.so/2013.1/901 2013/11/27
 27 29  0  0  0  0  0  0  0  0999 V2000
   33.9299   14.1211   62.5655 N   0  0  0  0  0  0  0  0  0  0  0  0
   34.7194   13.1968   63.3981 C   0  0  2  0  0  0  0  0  0  0  0  0
   33.8834   11.9912   63.7743 C   0  0  0  0  0  0  0  0  0  0  0  0
   32.6564   12.0944   63.8724 O   0  0  0  0  0  0  0  0  0  0  0  0
   35.1510   13.9164   64.6718 C   0  0  0  0  0  0  0  0  0  0  0  0
   36.2713   13.1608   65.3539 C   0  0  0  0  0  0  0  0  0  0  0  0
   36.4914   13.8652   66.9973 S   0  0  2  0  0  0  0  0  0  0  0  0
   37.1887   15.4692   66.5154 C   0  0  0  0  0  0  0  0  0  0  0  0
   38.0013   12.9941   67.5387 C   0  0  0  0  0  0  0  0  0  0  0  0
   38.2413   13.2992   69.0148 C   0  0  1  0  0  0  0  0  0  0  0  0
   38.2780   14.6994   69.1634 O   0  0  0  0  0  0  0  0  0  0  0  0
   37.0798   12.8100   69.8866 C   0  0  1  0  0  0  0  0  0  0  0  0
   37.0878   11.4773   70.4215 O   0  0  0  0  0  0  0  0  0  0  0  0
   36.9137   13.9520   70.9434 C   0  0  1  0  0  0  0  0  0  0  0  0
   36.8276   13.3512   72.2469 O   0  0  0  0  0  0  0  0  0  0  0  0
   38.0281   14.9784   70.5319 C   0  0  2  0  0  0  0  0  0  0  0  0
   34.4191   10.9017   63.9110 O   0  0  0  0  0  0  0  0  0  0  0  0
   39.2677   19.7349   72.2476 N   0  0  0  0  0  0  0  0  0  0  0  0
   39.9570   18.5957   72.3773 C   0  0  0  0  0  0  0  0  0  0  0  0
   39.4965   17.4444   71.8961 N   0  0  0  0  0  0  0  0  0  0  0  0
   38.3255   17.3818   71.2366 C   0  0  0  0  0  0  0  0  0  0  0  0
   37.5614   18.5660   71.0580 C   0  0  0  0  0  0  0  0  0  0  0  0
   38.0872   19.7756   71.6010 C   0  0  0  0  0  0  0  0  0  0  0  0
   37.4080   20.9715   71.4617 N   0  0  0  0  0  0  0  0  0  0  0  0
   36.4498   18.2256   70.3658 N   0  0  0  0  0  0  0  0  0  0  0  0
   36.4787   16.9496   70.1114 C   0  0  0  0  0  0  0  0  0  0  0  0
   37.6176   16.3833   70.6294 N   0  0  0  0  0  0  0  0  0  0  0  0
  2  1  1  6  0  0  0
  2  3  1  0  0  0  0
  2  5  1  0  0  0  0
  3  4  1  0  0  0  0
  3 17  1  0  0  0  0
  5  6  1  0  0  0  0
  7  6  1  6  0  0  0
  7  8  1  0  0  0  0
  7  9  1  0  0  0  0
 10  9  1  6  0  0  0
 10 11  1  0  0  0  0
 10 12  1  0  0  0  0
 11 16  1  0  0  0  0
 12 13  1  1  0  0  0
 12 14  1  0  0  0  0
 14 15  1  1  0  0  0
 14 16  1  0  0  0  0
 16 27  1  6  0  0  0
 18 19  2  0  0  0  0
 18 23  1  0  0  0  0
 19 20  1  0  0  0  0
 20 21  2  0  0  0  0
 21 22  1  0  0  0  0
 21 27  1  0  0  0  0
 22 23  2  0  0  0  0
 22 25  1  0  0  0  0
 23 24  1  0  0  0  0
 25 26  2  0  0  0  0
 26 27  1  0  0  0  0
M  END
>  <CHROM.1>
-28.73971801,-163.75571921,-168.43712346,-69.95172435,-171.41809592,-54.82000757
-113.19377925,36.82177916,15.02454371,68.51408500,2.57856685,1.11636453,3.10033666

>  <Name>
ligand

>  <RI>
0

>  <Rbt.Current_Directory>
/home/itssahil/PROJECTS/Mol_Feturizer/New_Systems/rnas/2QWY

>  <Rbt.Executable>
rbdock ($Id: //depot/dev/client3/rdock/2013.1/src/exe/rbdock.cxx#4 $)

>  <Rbt.Library>
libRbt.so (2013.1, Build901 2013/11/27)

>  <Rbt.Parameter_File>
/export/apps/rDock/src/rDock_2013.1_src/data/scripts/dock_solv.prm

>  <Rbt.Receptor>
prm/blind_docking_100.prm

>  <SCORE>
-13.0909

>  <SCORE.INTER>
-10.151

>  <SCORE.INTER.CONST>
1

>  <SCORE.INTER.POLAR>
0

>  <SCORE.INTER.ROT>
7

>  <SCORE.INTER.SOLV>
14.9722

>  <SCORE.INTER.VDW>
-20.0247

>  <SCORE.INTER.norm>
-0.375964

>  <SCORE.INTRA>
-2.94659

>  <SCORE.INTRA.DIHEDRAL>
-4.9179

>  <SCORE.INTRA.DIHEDRAL.0>
10.7382

>  <SCORE.INTRA.POLAR>
0

>  <SCORE.INTRA.POLAR.0>
0

>  <SCORE.INTRA.REPUL>
0

>  <SCORE.INTRA.REPUL.0>
0

>  <SCORE.INTRA.SOLV>
-0.955787

>  <SCORE.INTRA.SOLV.lig_0>
-49.2501

>  <SCORE.INTRA.VDW>
-0.00974859

>  <SCORE.INTRA.VDW.0>
-1.75368

>  <SCORE.INTRA.norm>
-0.109133

>  <SCORE.RESTR>
0.00675659

>  <SCORE.RESTR.CAVITY>
0.00675659

>  <SCORE.RESTR.norm>
0.000250244

>  <SCORE.SYSTEM>
0

>  <SCORE.SYSTEM.CONST>
0

>  <SCORE.SYSTEM.DIHEDRAL>
0

>  <SCORE.SYSTEM.SOLV>
0

>  <SCORE.SYSTEM.norm>
0

>  <SCORE.heavy>
27

>  <SCORE.norm>
-0.484847

>  <RMSD>
11.245

$$$$
ligand
 OpenBabel11021811463D
libRbt.so/2013.1/901 2013/11/27
 27 29  0  0  0  0  0  0  0  0999 V2000
   33.1477   12.7526   62.4290 N   0  0  0  0  0  0  0  0  0  0  0  0
   33.5078   14.1733   62.5801 C   0  0  2  0  0  0  0  0  0  0  0  0
   33.4265   14.8766   61.2412 C   0  0  0  0  0  0  0  0  0  0  0  0
   34.3644   14.7964   60.4413 O   0  0  0  0  0  0  0  0  0  0  0  0
   34.9361   14.2735   63.1056 C   0  0  0  0  0  0  0  0  0  0  0  0
   34.9641   14.0755   64.6061 C   0  0  0  0  0  0  0  0  0  0  0  0
   36.6876   14.0714   65.1301 S   0  0  2  0  0  0  0  0  0  0  0  0
   36.8264   12.3240   65.5978 C   0  0  0  0  0  0  0  0  0  0  0  0
   36.5420   14.8467   66.7761 C   0  0  0  0  0  0  0  0  0  0  0  0
   35.8281   13.8770   67.7140 C   0  0  1  0  0  0  0  0  0  0  0  0
   36.3897   14.0284   68.9969 O   0  0  0  0  0  0  0  0  0  0  0  0
   34.3423   14.2238   67.8573 C   0  0  1  0  0  0  0  0  0  0  0  0
   33.3777   13.6628   66.9534 O   0  0  0  0  0  0  0  0  0  0  0  0
   34.0569   13.9756   69.3757 C   0  0  1  0  0  0  0  0  0  0  0  0
   32.8552   13.1939   69.4868 O   0  0  0  0  0  0  0  0  0  0  0  0
   35.4512   13.5079   69.9250 C   0  0  2  0  0  0  0  0  0  0  0  0
   32.4023   15.4640   60.9269 O   0  0  0  0  0  0  0  0  0  0  0  0
   36.6438   17.7615   72.6799 N   0  0  0  0  0  0  0  0  0  0  0  0
   36.3950   17.6593   71.3693 C   0  0  0  0  0  0  0  0  0  0  0  0
   36.1200   16.4882   70.8020 N   0  0  0  0  0  0  0  0  0  0  0  0
   36.0576   15.3577   71.5287 C   0  0  0  0  0  0  0  0  0  0  0  0
   36.2987   15.4136   72.9276 C   0  0  0  0  0  0  0  0  0  0  0  0
   36.6021   16.6881   73.4918 C   0  0  0  0  0  0  0  0  0  0  0  0
   36.8404   16.8271   74.8463 N   0  0  0  0  0  0  0  0  0  0  0  0
   36.1674   14.1556   73.4079 N   0  0  0  0  0  0  0  0  0  0  0  0
   35.8679   13.3530   72.4281 C   0  0  0  0  0  0  0  0  0  0  0  0
   35.7892   14.0481   71.2463 N   0  0  0  0  0  0  0  0  0  0  0  0
  2  1  1  6  0  0  0
  2  3  1  0  0  0  0
  2  5  1  0  0  0  0
  3  4  1  0  0  0  0
  3 17  1  0  0  0  0
  5  6  1  0  0  0  0
  7  6  1  6  0  0  0
  7  8  1  0  0  0  0
  7  9  1  0  0  0  0
 10  9  1  6  0  0  0
 10 11  1  0  0  0  0
 10 12  1  0  0  0  0
 11 16  1  0  0  0  0
 12 13  1  6  0  0  0
 12 14  1  0  0  0  0
 14 15  1  6  0  0  0
 14 16  1  0  0  0  0
 16 27  1  1  0  0  0
 18 19  2  0  0  0  0
 18 23  1  0  0  0  0
 19 20  1  0  0  0  0
 20 21  2  0  0  0  0
 21 22  1  0  0  0  0
 21 27  1  0  0  0  0
 22 23  2  0  0  0  0
 22 25  1  0  0  0  0
 23 24  1  0  0  0  0
 25 26  2  0  0  0  0
 26 27  1  0  0  0  0
M  END
>  <CHROM.1>
-81.79383312,-81.24284741,175.39735824,-110.97764880,69.43799733,144.82427499
47.49745352,35.28226076,14.59899475,67.79006930,2.01382010,-1.08684592,-1.30962854

>  <Name>
ligand

>  <RI>
0

>  <Rbt.Current_Directory>
/home/itssahil/PROJECTS/Mol_Feturizer/New_Systems/rnas/2QWY

>  <Rbt.Executable>
rbdock ($Id: //depot/dev/client3/rdock/2013.1/src/exe/rbdock.cxx#4 $)

>  <Rbt.Library>
libRbt.so (2013.1, Build901 2013/11/27)

>  <Rbt.Parameter_File>
/export/apps/rDock/src/rDock_2013.1_src/data/scripts/dock_solv.prm

>  <Rbt.Receptor>
prm/blind_docking_100.prm

>  <SCORE>
-10.9191

>  <SCORE.INTER>
-14.176

>  <SCORE.INTER.CONST>
1

>  <SCORE.INTER.POLAR>
0

>  <SCORE.INTER.ROT>
7

>  <SCORE.INTER.SOLV>
16.4319

>  <SCORE.INTER.VDW>
-23.1946

>  <SCORE.INTER.norm>
-0.525038

>  <SCORE.INTRA>
2.81093

>  <SCORE.INTRA.DIHEDRAL>
1.70116

>  <SCORE.INTRA.DIHEDRAL.0>
10.7382

>  <SCORE.INTRA.POLAR>
0

>  <SCORE.INTRA.POLAR.0>
0

>  <SCORE.INTRA.REPUL>
0

>  <SCORE.INTRA.REPUL.0>
0

>  <SCORE.INTRA.SOLV>
-0.166978

>  <SCORE.INTRA.SOLV.lig_0>
-49.2501

>  <SCORE.INTRA.VDW>
2.04384

>  <SCORE.INTRA.VDW.0>
-1.75368

>  <SCORE.INTRA.norm>
0.104109

>  <SCORE.RESTR>
0.445969

>  <SCORE.RESTR.CAVITY>
0.445969

>  <SCORE.RESTR.norm>
0.0165174

>  <SCORE.SYSTEM>
0

>  <SCORE.SYSTEM.CONST>
0

>  <SCORE.SYSTEM.DIHEDRAL>
0

>  <SCORE.SYSTEM.SOLV>
0

>  <SCORE.SYSTEM.norm>
0

>  <SCORE.heavy>
27

>  <SCORE.norm>
-0.404412

>  <RMSD>
11.350

$$$$
ligand
 OpenBabel11021811463D
libRbt.so/2013.1/901 2013/11/27
 27 29  0  0  0  0  0  0  0  0999 V2000
   35.6326   15.1887   62.3783 N   0  0  0  0  0  0  0  0  0  0  0  0
   34.4332   14.5300   61.8322 C   0  0  2  0  0  0  0  0  0  0  0  0
   33.6321   15.5115   61.0023 C   0  0  0  0  0  0  0  0  0  0  0  0
   34.2111   16.3332   60.2846 O   0  0  0  0  0  0  0  0  0  0  0  0
   33.5666   14.0343   62.9853 C   0  0  0  0  0  0  0  0  0  0  0  0
   34.2957   12.9697   63.7769 C   0  0  0  0  0  0  0  0  0  0  0  0
   35.4239   13.7999   64.9097 S   0  0  2  0  0  0  0  0  0  0  0  0
   36.4768   12.3841   65.3322 C   0  0  0  0  0  0  0  0  0  0  0  0
   34.3850   13.9015   66.4070 C   0  0  0  0  0  0  0  0  0  0  0  0
   35.2715   13.7051   67.6338 C   0  0  1  0  0  0  0  0  0  0  0  0
   35.8244   14.9566   67.9688 O   0  0  0  0  0  0  0  0  0  0  0  0
   34.4553   13.2616   68.8526 C   0  0  1  0  0  0  0  0  0  0  0  0
   34.2315   11.8657   69.1047 O   0  0  0  0  0  0  0  0  0  0  0  0
   35.1054   14.0567   70.0331 C   0  0  1  0  0  0  0  0  0  0  0  0
   35.3448   13.1413   71.1158 O   0  0  0  0  0  0  0  0  0  0  0  0
   36.2396   14.8779   69.3232 C   0  0  2  0  0  0  0  0  0  0  0  0
   32.4124   15.4409   60.9911 O   0  0  0  0  0  0  0  0  0  0  0  0
   36.2114   17.9908   73.4962 N   0  0  0  0  0  0  0  0  0  0  0  0
   35.9970   16.6715   73.4385 C   0  0  0  0  0  0  0  0  0  0  0  0
   36.0194   16.0122   72.2835 N   0  0  0  0  0  0  0  0  0  0  0  0
   36.2824   16.6428   71.1245 C   0  0  0  0  0  0  0  0  0  0  0  0
   36.5324   18.0413   71.1325 C   0  0  0  0  0  0  0  0  0  0  0  0
   36.4860   18.7101   72.3914 C   0  0  0  0  0  0  0  0  0  0  0  0
   36.7266   20.0681   72.4840 N   0  0  0  0  0  0  0  0  0  0  0  0
   36.7718   18.4132   69.8538 N   0  0  0  0  0  0  0  0  0  0  0  0
   36.6912   17.3681   69.0823 C   0  0  0  0  0  0  0  0  0  0  0  0
   36.3902   16.2498   69.8204 N   0  0  0  0  0  0  0  0  0  0  0  0
  2  1  1  1  0  0  0
  2  3  1  0  0  0  0
  2  5  1  0  0  0  0
  3  4  1  0  0  0  0
  3 17  1  0  0  0  0
  5  6  1  0  0  0  0
  7  6  1  6  0  0  0
  7  8  1  0  0  0  0
  7  9  1  0  0  0  0
 10  9  1  6  0  0  0
 10 11  1  0  0  0  0
 10 12  1  0  0  0  0
 11 16  1  0  0  0  0
 12 13  1  1  0  0  0
 12 14  1  0  0  0  0
 14 15  1  1  0  0  0
 14 16  1  0  0  0  0
 16 27  1  1  0  0  0
 18 19  2  0  0  0  0
 18 23  1  0  0  0  0
 19 20  1  0  0  0  0
 20 21  2  0  0  0  0
 21 22  1  0  0  0  0
 21 27  1  0  0  0  0
 22 23  2  0  0  0  0
 22 25  1  0  0  0  0
 23 24  1  0  0  0  0
 25 26  2  0  0  0  0
 26 27  1  0  0  0  0
M  END
>  <CHROM.1>
38.44592332,-64.12887208,81.13163745,-163.87040528,143.74887266,85.11051064
154.07804099,35.33875351,15.26535074,67.49983608,-2.65994591,1.34249138,2.39300378

>  <Name>
ligand

>  <RI>
0

>  <Rbt.Current_Directory>
/home/itssahil/PROJECTS/Mol_Feturizer/New_Systems/rnas/2QWY

>  <Rbt.Executable>
rbdock ($Id: //depot/dev/client3/rdock/2013.1/src/exe/rbdock.cxx#4 $)

>  <Rbt.Library>
libRbt.so (2013.1, Build901 2013/11/27)

>  <Rbt.Parameter_File>
/export/apps/rDock/src/rDock_2013.1_src/data/scripts/dock_solv.prm

>  <Rbt.Receptor>
prm/blind_docking_100.prm

>  <SCORE>
-8.66801

>  <SCORE.INTER>
-11.0356

>  <SCORE.INTER.CONST>
1

>  <SCORE.INTER.POLAR>
0

>  <SCORE.INTER.ROT>
7

>  <SCORE.INTER.SOLV>
16.9994

>  <SCORE.INTER.VDW>
-21.2902

>  <SCORE.INTER.norm>
-0.408726

>  <SCORE.INTRA>
2.28498

>  <SCORE.INTRA.DIHEDRAL>
-0.811589

>  <SCORE.INTRA.DIHEDRAL.0>
10.7382

>  <SCORE.INTRA.POLAR>
0

>  <SCORE.INTRA.POLAR.0>
0

>  <SCORE.INTRA.REPUL>
0

>  <SCORE.INTRA.REPUL.0>
0

>  <SCORE.INTRA.SOLV>
1.51444

>  <SCORE.INTRA.SOLV.lig_0>
-49.2501

>  <SCORE.INTRA.VDW>
1.93355

>  <SCORE.INTRA.VDW.0>
-1.75368

>  <SCORE.INTRA.norm>
0.0846289

>  <SCORE.RESTR>
0.0826222

>  <SCORE.RESTR.CAVITY>
0.0826222

>  <SCORE.RESTR.norm>
0.00306008

>  <SCORE.SYSTEM>
0

>  <SCORE.SYSTEM.CONST>
0

>  <SCORE.SYSTEM.DIHEDRAL>
0

>  <SCORE.SYSTEM.SOLV>
0

>  <SCORE.SYSTEM.norm>
0

>  <SCORE.heavy>
27

>  <SCORE.norm>
-0.321037

>  <RMSD>
11.363

$$$$
ligand
 OpenBabel11021811463D
libRbt.so/2013.1/901 2013/11/27
 27 29  0  0  0  0  0  0  0  0999 V2000
   32.7957   13.5143   61.6934 N   0  0  0  0  0  0  0  0  0  0  0  0
   33.6909   12.5845   62.4038 C   0  0  2  0  0  0  0  0  0  0  0  0
   33.0110   11.2434   62.5856 C   0  0  0  0  0  0  0  0  0  0  0  0
   33.3439   10.2803   61.8873 O   0  0  0  0  0  0  0  0  0  0  0  0
   34.0229   13.1610   63.7763 C   0  0  0  0  0  0  0  0  0  0  0  0
   35.0673   14.2499   63.6555 C   0  0  0  0  0  0  0  0  0  0  0  0
   36.1010   14.1892   65.1296 S   0  0  2  0  0  0  0  0  0  0  0  0
   36.5833   12.4419   65.0528 C   0  0  0  0  0  0  0  0  0  0  0  0
   34.8257   14.1262   66.4340 C   0  0  0  0  0  0  0  0  0  0  0  0
   35.5086   13.8798   67.7766 C   0  0  1  0  0  0  0  0  0  0  0  0
   36.0834   15.0957   68.1955 O   0  0  0  0  0  0  0  0  0  0  0  0
   34.4963   13.4932   68.8602 C   0  0  1  0  0  0  0  0  0  0  0  0
   34.1512   12.1151   69.0695 O   0  0  0  0  0  0  0  0  0  0  0  0
   35.0144   14.2510   70.1273 C   0  0  1  0  0  0  0  0  0  0  0  0
   35.0346   13.3269   71.2287 O   0  0  0  0  0  0  0  0  0  0  0  0
   36.2895   14.9968   69.5957 C   0  0  2  0  0  0  0  0  0  0  0  0
   32.1830   11.0995   63.4724 O   0  0  0  0  0  0  0  0  0  0  0  0
   36.5203   18.0020   73.8407 N   0  0  0  0  0  0  0  0  0  0  0  0
   36.3280   16.6803   73.7641 C   0  0  0  0  0  0  0  0  0  0  0  0
   36.2748   16.0510   72.5935 N   0  0  0  0  0  0  0  0  0  0  0  0
   36.4356   16.7162   71.4352 C   0  0  0  0  0  0  0  0  0  0  0  0
   36.6580   18.1191   71.4616 C   0  0  0  0  0  0  0  0  0  0  0  0
   36.6952   18.7548   72.7379 C   0  0  0  0  0  0  0  0  0  0  0  0
   36.9154   20.1149   72.8483 N   0  0  0  0  0  0  0  0  0  0  0  0
   36.7913   18.5283   70.1788 N   0  0  0  0  0  0  0  0  0  0  0  0
   36.6723   17.5015   69.3880 C   0  0  0  0  0  0  0  0  0  0  0  0
   36.4508   16.3587   70.1166 N   0  0  0  0  0  0  0  0  0  0  0  0
  2  1  1  1  0  0  0
  2  3  1  0  0  0  0
  2  5  1  0  0  0  0
  3  4  1  0  0  0  0
  3 17  1  0  0  0  0
  5  6  1  0  0  0  0
  7  6  1  6  0  0  0
  7  8  1  0  0  0  0
  7  9  1  0  0  0  0
 10  9  1  6  0  0  0
 10 11  1  0  0  0  0
 10 12  1  0  0  0  0
 11 16  1  0  0  0  0
 12 13  1  1  0  0  0
 12 14  1  0  0  0  0
 14 15  1  1  0  0  0
 14 16  1  0  0  0  0
 16 27  1  1  0  0  0
 18 19  2  0  0  0  0
 18 23  1  0  0  0  0
 19 20  1  0  0  0  0
 20 21  2  0  0  0  0
 21 22  1  0  0  0  0
 21 27  1  0  0  0  0
 22 23  2  0  0  0  0
 22 25  1  0  0  0  0
 23 24  1  0  0  0  0
 25 26  2  0  0  0  0
 26 27  1  0  0  0  0
M  END
>  <CHROM.1>
105.03124570,-77.73695470,-146.23444498,54.08062834,172.45454955,77.16039748
167.84456256,35.32483820,14.70938364,67.88108174,-2.23949720,1.15666993,1.66534438

>  <Name>
ligand

>  <RI>
0

>  <Rbt.Current_Directory>
/home/itssahil/PROJECTS/Mol_Feturizer/New_Systems/rnas/2QWY

>  <Rbt.Executable>
rbdock ($Id: //depot/dev/client3/rdock/2013.1/src/exe/rbdock.cxx#4 $)

>  <Rbt.Library>
libRbt.so (2013.1, Build901 2013/11/27)

>  <Rbt.Parameter_File>
/export/apps/rDock/src/rDock_2013.1_src/data/scripts/dock_solv.prm

>  <Rbt.Receptor>
prm/blind_docking_100.prm

>  <SCORE>
-9.96138

>  <SCORE.INTER>
-11.6998

>  <SCORE.INTER.CONST>
1

>  <SCORE.INTER.POLAR>
0

>  <SCORE.INTER.ROT>
7

>  <SCORE.INTER.SOLV>
16.1551

>  <SCORE.INTER.VDW>
-21.4516

>  <SCORE.INTER.norm>
-0.433327

>  <SCORE.INTRA>
1.70275

>  <SCORE.INTRA.DIHEDRAL>
-1.92148

>  <SCORE.INTRA.DIHEDRAL.0>
10.7382

>  <SCORE.INTRA.POLAR>
0

>  <SCORE.INTRA.POLAR.0>
0

>  <SCORE.INTRA.REPUL>
0

>  <SCORE.INTRA.REPUL.0>
0

>  <SCORE.INTRA.SOLV>
-0.615891

>  <SCORE.INTRA.SOLV.lig_0>
-49.2501

>  <SCORE.INTRA.VDW>
2.97143

>  <SCORE.INTRA.VDW.0>
-1.75368

>  <SCORE.INTRA.norm>
0.0630646

>  <SCORE.RESTR>
0.0357106

>  <SCORE.RESTR.CAVITY>
0.0357106

>  <SCORE.RESTR.norm>
0.00132262

>  <SCORE.SYSTEM>
0

>  <SCORE.SYSTEM.CONST>
0

>  <SCORE.SYSTEM.DIHEDRAL>
0

>  <SCORE.SYSTEM.SOLV>
0

>  <SCORE.SYSTEM.norm>
0

>  <SCORE.heavy>
27

>  <SCORE.norm>
-0.36894

>  <RMSD>
11.389

$$$$
ligand
 OpenBabel11021811463D
libRbt.so/2013.1/901 2013/11/27
 27 29  0  0  0  0  0  0  0  0999 V2000
   39.5882   13.9893   71.6730 N   0  0  0  0  0  0  0  0  0  0  0  0
   38.7122   14.8217   72.5159 C   0  0  2  0  0  0  0  0  0  0  0  0
   37.2672   14.4052   72.3362 C   0  0  0  0  0  0  0  0  0  0  0  0
   36.9323   13.7396   71.3510 O   0  0  0  0  0  0  0  0  0  0  0  0
   38.8612   16.2821   72.1018 C   0  0  0  0  0  0  0  0  0  0  0  0
   38.0462   17.1768   73.0111 C   0  0  0  0  0  0  0  0  0  0  0  0
   37.1316   18.3314   71.9739 S   0  0  2  0  0  0  0  0  0  0  0  0
   35.9120   18.8887   73.1961 C   0  0  0  0  0  0  0  0  0  0  0  0
   36.1165   17.1738   70.9936 C   0  0  0  0  0  0  0  0  0  0  0  0
   36.8460   16.8650   69.6890 C   0  0  1  0  0  0  0  0  0  0  0  0
   36.5178   15.5472   69.3151 O   0  0  0  0  0  0  0  0  0  0  0  0
   36.3607   17.7638   68.5466 C   0  0  1  0  0  0  0  0  0  0  0  0
   36.9917   19.0308   68.3046 O   0  0  0  0  0  0  0  0  0  0  0  0
   36.3150   16.7958   67.3181 C   0  0  1  0  0  0  0  0  0  0  0  0
   36.9656   17.4419   66.2104 O   0  0  0  0  0  0  0  0  0  0  0  0
   36.7901   15.4293   67.9276 C   0  0  2  0  0  0  0  0  0  0  0  0
   36.4485   14.6691   73.2038 O   0  0  0  0  0  0  0  0  0  0  0  0
   35.3706   12.6760   63.7433 N   0  0  0  0  0  0  0  0  0  0  0  0
   36.0976   13.7978   63.7961 C   0  0  0  0  0  0  0  0  0  0  0  0
   36.3645   14.4010   64.9511 N   0  0  0  0  0  0  0  0  0  0  0  0
   35.9325   13.8938   66.1199 C   0  0  0  0  0  0  0  0  0  0  0  0
   35.1691   12.6956   66.1206 C   0  0  0  0  0  0  0  0  0  0  0  0
   34.8962   12.0895   64.8587 C   0  0  0  0  0  0  0  0  0  0  0  0
   34.1676   10.9176   64.7759 N   0  0  0  0  0  0  0  0  0  0  0  0
   34.8747   12.4084   67.4096 N   0  0  0  0  0  0  0  0  0  0  0  0
   35.3925   13.3207   68.1800 C   0  0  0  0  0  0  0  0  0  0  0  0
   36.0557   14.2609   67.4301 N   0  0  0  0  0  0  0  0  0  0  0  0
  2  1  1  6  0  0  0
  2  3  1  0  0  0  0
  2  5  1  0  0  0  0
  3  4  1  0  0  0  0
  3 17  1  0  0  0  0
  5  6  1  0  0  0  0
  7  6  1  1  0  0  0
  7  8  1  0  0  0  0
  7  9  1  0  0  0  0
 10  9  1  1  0  0  0
 10 11  1  0  0  0  0
 10 12  1  0  0  0  0
 11 16  1  0  0  0  0
 12 13  1  6  0  0  0
 12 14  1  0  0  0  0
 14 15  1  6  0  0  0
 14 16  1  0  0  0  0
 16 27  1  6  0  0  0
 18 19  2  0  0  0  0
 18 23  1  0  0  0  0
 19 20  1  0  0  0  0
 20 21  2  0  0  0  0
 21 22  1  0  0  0  0
 21 27  1  0  0  0  0
 22 23  2  0  0  0  0
 22 25  1  0  0  0  0
 23 24  1  0  0  0  0
 25 26  2  0  0  0  0
 26 27  1  0  0  0  0
M  END
>  <CHROM.1>
-18.12359887,-176.11633104,-133.44136750,163.43307549,-93.71334638,148.32335030
172.19170440,36.57245843,15.36231418,69.01478493,-0.17029128,1.32364784,2.81326579

>  <Name>
ligand

>  <RI>
0

>  <Rbt.Current_Directory>
/home/itssahil/PROJECTS/Mol_Feturizer/New_Systems/rnas/2QWY

>  <Rbt.Executable>
rbdock ($Id: //depot/dev/client3/rdock/2013.1/src/exe/rbdock.cxx#4 $)

>  <Rbt.Library>
libRbt.so (2013.1, Build901 2013/11/27)

>  <Rbt.Parameter_File>
/export/apps/rDock/src/rDock_2013.1_src/data/scripts/dock_solv.prm

>  <Rbt.Receptor>
prm/blind_docking_100.prm

>  <SCORE>
-5.9977

>  <SCORE.INTER>
-5.67044

>  <SCORE.INTER.CONST>
1

>  <SCORE.INTER.POLAR>
0

>  <SCORE.INTER.ROT>
7

>  <SCORE.INTER.SOLV>
11.139

>  <SCORE.INTER.VDW>
-15.76

>  <SCORE.INTER.norm>
-0.210016

>  <SCORE.INTRA>
-0.742776

>  <SCORE.INTRA.DIHEDRAL>
1.97056

>  <SCORE.INTRA.DIHEDRAL.0>
10.7382

>  <SCORE.INTRA.POLAR>
0

>  <SCORE.INTRA.POLAR.0>
0

>  <SCORE.INTRA.REPUL>
0

>  <SCORE.INTRA.REPUL.0>
0

>  <SCORE.INTRA.SOLV>
-0.561359

>  <SCORE.INTRA.SOLV.lig_0>
-49.2501

>  <SCORE.INTRA.VDW>
-1.44738

>  <SCORE.INTRA.VDW.0>
-1.75368

>  <SCORE.INTRA.norm>
-0.0275102

>  <SCORE.RESTR>
0.415522

>  <SCORE.RESTR.CAVITY>
0.415522

>  <SCORE.RESTR.norm>
0.0153897

>  <SCORE.SYSTEM>
0

>  <SCORE.SYSTEM.CONST>
0

>  <SCORE.SYSTEM.DIHEDRAL>
0

>  <SCORE.SYSTEM.SOLV>
0

>  <SCORE.SYSTEM.norm>
0

>  <SCORE.heavy>
27

>  <SCORE.norm>
-0.222137

>  <RMSD>
11.480

$$$$
ligand
 OpenBabel11021811463D
libRbt.so/2013.1/901 2013/11/27
 27 29  0  0  0  0  0  0  0  0999 V2000
   35.4575   10.9272   63.1430 N   0  0  0  0  0  0  0  0  0  0  0  0
   34.0356   10.6937   62.8359 C   0  0  2  0  0  0  0  0  0  0  0  0
   33.7514   11.0401   61.3891 C   0  0  0  0  0  0  0  0  0  0  0  0
   33.6455   10.1430   60.5466 O   0  0  0  0  0  0  0  0  0  0  0  0
   33.1784   11.5796   63.7341 C   0  0  0  0  0  0  0  0  0  0  0  0
   33.7084   11.5675   65.1520 C   0  0  0  0  0  0  0  0  0  0  0  0
   34.0485   13.2711   65.6286 S   0  0  2  0  0  0  0  0  0  0  0  0
   35.6174   13.4935   64.7450 C   0  0  0  0  0  0  0  0  0  0  0  0
   34.6567   13.0301   67.3326 C   0  0  0  0  0  0  0  0  0  0  0  0
   34.7561   14.3916   68.0154 C   0  0  1  0  0  0  0  0  0  0  0  0
   34.7737   14.1737   69.4070 O   0  0  0  0  0  0  0  0  0  0  0  0
   36.0754   15.0948   67.6790 C   0  0  1  0  0  0  0  0  0  0  0  0
   36.1676   15.9482   66.5278 O   0  0  0  0  0  0  0  0  0  0  0  0
   36.4894   15.7568   69.0350 C   0  0  1  0  0  0  0  0  0  0  0  0
   36.8551   17.1233   68.7767 O   0  0  0  0  0  0  0  0  0  0  0  0
   35.3264   15.3370   70.0023 C   0  0  2  0  0  0  0  0  0  0  0  0
   33.5573   12.2039   61.0718 O   0  0  0  0  0  0  0  0  0  0  0  0
   37.4691   17.0105   74.4422 N   0  0  0  0  0  0  0  0  0  0  0  0
   37.2179   17.7021   73.3249 C   0  0  0  0  0  0  0  0  0  0  0  0
   36.6776   17.1250   72.2553 N   0  0  0  0  0  0  0  0  0  0  0  0
   36.3389   15.8229   72.2607 C   0  0  0  0  0  0  0  0  0  0  0  0
   36.5705   15.0468   73.4278 C   0  0  0  0  0  0  0  0  0  0  0  0
   37.1631   15.7034   74.5468 C   0  0  0  0  0  0  0  0  0  0  0  0
   37.4124   15.0195   75.7219 N   0  0  0  0  0  0  0  0  0  0  0  0
   36.1372   13.7918   73.1674 N   0  0  0  0  0  0  0  0  0  0  0  0
   35.6657   13.7451   71.9552 C   0  0  0  0  0  0  0  0  0  0  0  0
   35.7686   14.9753   71.3534 N   0  0  0  0  0  0  0  0  0  0  0  0
  2  1  1  1  0  0  0
  2  3  1  0  0  0  0
  2  5  1  0  0  0  0
  3  4  1  0  0  0  0
  3 17  1  0  0  0  0
  5  6  1  0  0  0  0
  7  6  1  6  0  0  0
  7  8  1  0  0  0  0
  7  9  1  0  0  0  0
 10  9  1  6  0  0  0
 10 11  1  0  0  0  0
 10 12  1  0  0  0  0
 11 16  1  0  0  0  0
 12 13  1  6  0  0  0
 12 14  1  0  0  0  0
 14 15  1  6  0  0  0
 14 16  1  0  0  0  0
 16 27  1  1  0  0  0
 18 19  2  0  0  0  0
 18 23  1  0  0  0  0
 19 20  1  0  0  0  0
 20 21  2  0  0  0  0
 21 22  1  0  0  0  0
 21 27  1  0  0  0  0
 22 23  2  0  0  0  0
 22 25  1  0  0  0  0
 23 24  1  0  0  0  0
 25 26  2  0  0  0  0
 26 27  1  0  0  0  0
M  END
>  <CHROM.1>
101.89483835,-43.05864203,123.46638271,-77.70060370,-169.41461482,160.26153953
-178.98826072,35.40404534,14.06686223,68.13289381,2.29051785,-1.20370173
-1.27404956

>  <Name>
ligand

>  <RI>
0

>  <Rbt.Current_Directory>
/home/itssahil/PROJECTS/Mol_Feturizer/New_Systems/rnas/2QWY

>  <Rbt.Executable>
rbdock ($Id: //depot/dev/client3/rdock/2013.1/src/exe/rbdock.cxx#4 $)

>  <Rbt.Library>
libRbt.so (2013.1, Build901 2013/11/27)

>  <Rbt.Parameter_File>
/export/apps/rDock/src/rDock_2013.1_src/data/scripts/dock_solv.prm

>  <Rbt.Receptor>
prm/blind_docking_100.prm

>  <SCORE>
-10.4225

>  <SCORE.INTER>
-13.0709

>  <SCORE.INTER.CONST>
1

>  <SCORE.INTER.POLAR>
0

>  <SCORE.INTER.ROT>
7

>  <SCORE.INTER.SOLV>
18.2564

>  <SCORE.INTER.VDW>
-23.0661

>  <SCORE.INTER.norm>
-0.484108

>  <SCORE.INTRA>
2.64844

>  <SCORE.INTRA.DIHEDRAL>
1.70513

>  <SCORE.INTRA.DIHEDRAL.0>
10.7382

>  <SCORE.INTRA.POLAR>
0

>  <SCORE.INTRA.POLAR.0>
0

>  <SCORE.INTRA.REPUL>
0

>  <SCORE.INTRA.REPUL.0>
0

>  <SCORE.INTRA.SOLV>
1.85251

>  <SCORE.INTRA.SOLV.lig_0>
-49.2501

>  <SCORE.INTRA.VDW>
0.869621

>  <SCORE.INTRA.VDW.0>
-1.75368

>  <SCORE.INTRA.norm>
0.0980904

>  <SCORE.RESTR>
0

>  <SCORE.RESTR.CAVITY>
0

>  <SCORE.RESTR.norm>
0

>  <SCORE.SYSTEM>
0

>  <SCORE.SYSTEM.CONST>
0

>  <SCORE.SYSTEM.DIHEDRAL>
0

>  <SCORE.SYSTEM.SOLV>
0

>  <SCORE.SYSTEM.norm>
0

>  <SCORE.heavy>
27

>  <SCORE.norm>
-0.386017

>  <RMSD>
11.502

$$$$
ligand
 OpenBabel11021811463D
libRbt.so/2013.1/901 2013/11/27
 27 29  0  0  0  0  0  0  0  0999 V2000
   32.6704   10.3474   63.1122 N   0  0  0  0  0  0  0  0  0  0  0  0
   33.1718   11.7328   63.1187 C   0  0  2  0  0  0  0  0  0  0  0  0
   33.5158   12.1689   61.7097 C   0  0  0  0  0  0  0  0  0  0  0  0
   33.4019   13.3547   61.3830 O   0  0  0  0  0  0  0  0  0  0  0  0
   34.4288   11.8051   63.9796 C   0  0  0  0  0  0  0  0  0  0  0  0
   34.6238   13.2070   64.5162 C   0  0  0  0  0  0  0  0  0  0  0  0
   35.9637   13.1560   65.7193 S   0  0  2  0  0  0  0  0  0  0  0  0
   35.1401   12.1740   67.0034 C   0  0  0  0  0  0  0  0  0  0  0  0
   35.8327   14.8270   66.4419 C   0  0  0  0  0  0  0  0  0  0  0  0
   37.0802   15.0994   67.2780 C   0  0  1  0  0  0  0  0  0  0  0  0
   36.7949   16.1801   68.1354 O   0  0  0  0  0  0  0  0  0  0  0  0
   37.4178   13.9134   68.1878 C   0  0  1  0  0  0  0  0  0  0  0  0
   38.2723   12.8600   67.7164 O   0  0  0  0  0  0  0  0  0  0  0  0
   37.8736   14.5964   69.5198 C   0  0  1  0  0  0  0  0  0  0  0  0
   39.1022   13.9816   69.9445 O   0  0  0  0  0  0  0  0  0  0  0  0
   37.7341   16.1265   69.1975 C   0  0  2  0  0  0  0  0  0  0  0  0
   33.9729   11.3573   60.9191 O   0  0  0  0  0  0  0  0  0  0  0  0
   36.6542   16.2935   74.2877 N   0  0  0  0  0  0  0  0  0  0  0  0
   37.1731   15.2852   73.5779 C   0  0  0  0  0  0  0  0  0  0  0  0
   37.3760   15.3880   72.2675 N   0  0  0  0  0  0  0  0  0  0  0  0
   37.0884   16.5221   71.6033 C   0  0  0  0  0  0  0  0  0  0  0  0
   36.5494   17.6285   72.3130 C   0  0  0  0  0  0  0  0  0  0  0  0
   36.3367   17.4698   73.7144 C   0  0  0  0  0  0  0  0  0  0  0  0
   35.8239   18.5026   74.4768 N   0  0  0  0  0  0  0  0  0  0  0  0
   36.3631   18.6265   71.4186 N   0  0  0  0  0  0  0  0  0  0  0  0
   36.7425   18.2219   70.2412 C   0  0  0  0  0  0  0  0  0  0  0  0
   37.1980   16.9277   70.3032 N   0  0  0  0  0  0  0  0  0  0  0  0
  2  1  1  6  0  0  0
  2  3  1  0  0  0  0
  2  5  1  0  0  0  0
  3  4  1  0  0  0  0
  3 17  1  0  0  0  0
  5  6  1  0  0  0  0
  7  6  1  6  0  0  0
  7  8  1  0  0  0  0
  7  9  1  0  0  0  0
 10  9  1  1  0  0  0
 10 11  1  0  0  0  0
 10 12  1  0  0  0  0
 11 16  1  0  0  0  0
 12 13  1  6  0  0  0
 12 14  1  0  0  0  0
 14 15  1  6  0  0  0
 14 16  1  0  0  0  0
 16 27  1  1  0  0  0
 18 19  2  0  0  0  0
 18 23  1  0  0  0  0
 19 20  1  0  0  0  0
 20 21  2  0  0  0  0
 21 22  1  0  0  0  0
 21 27  1  0  0  0  0
 22 23  2  0  0  0  0
 22 25  1  0  0  0  0
 23 24  1  0  0  0  0
 25 26  2  0  0  0  0
 26 27  1  0  0  0  0
M  END
>  <CHROM.1>
149.17570476,-154.91697549,171.25721036,-67.84218855,-167.70900535,-162.44059432
129.68756547,36.07090534,14.58154897,67.97837701,1.94529296,0.76830482,-2.30951538

>  <Name>
ligand

>  <RI>
0

>  <Rbt.Current_Directory>
/home/itssahil/PROJECTS/Mol_Feturizer/New_Systems/rnas/2QWY

>  <Rbt.Executable>
rbdock ($Id: //depot/dev/client3/rdock/2013.1/src/exe/rbdock.cxx#4 $)

>  <Rbt.Library>
libRbt.so (2013.1, Build901 2013/11/27)

>  <Rbt.Parameter_File>
/export/apps/rDock/src/rDock_2013.1_src/data/scripts/dock_solv.prm

>  <Rbt.Receptor>
prm/blind_docking_100.prm

>  <SCORE>
-11.4831

>  <SCORE.INTER>
-11.0232

>  <SCORE.INTER.CONST>
1

>  <SCORE.INTER.POLAR>
0

>  <SCORE.INTER.ROT>
7

>  <SCORE.INTER.SOLV>
9.52962

>  <SCORE.INTER.VDW>
-18.792

>  <SCORE.INTER.norm>
-0.408267

>  <SCORE.INTRA>
-0.460503

>  <SCORE.INTRA.DIHEDRAL>
-2.93586

>  <SCORE.INTRA.DIHEDRAL.0>
10.7382

>  <SCORE.INTRA.POLAR>
0

>  <SCORE.INTRA.POLAR.0>
0

>  <SCORE.INTRA.REPUL>
0

>  <SCORE.INTRA.REPUL.0>
0

>  <SCORE.INTRA.SOLV>
-0.702241

>  <SCORE.INTRA.SOLV.lig_0>
-49.2501

>  <SCORE.INTRA.VDW>
1.35855

>  <SCORE.INTRA.VDW.0>
-1.75368

>  <SCORE.INTRA.norm>
-0.0170557

>  <SCORE.RESTR>
0.000599642

>  <SCORE.RESTR.CAVITY>
0.000599642

>  <SCORE.RESTR.norm>
2.2209e-05

>  <SCORE.SYSTEM>
0

>  <SCORE.SYSTEM.CONST>
0

>  <SCORE.SYSTEM.DIHEDRAL>
0

>  <SCORE.SYSTEM.SOLV>
0

>  <SCORE.SYSTEM.norm>
0

>  <SCORE.heavy>
27

>  <SCORE.norm>
-0.4253

>  <RMSD>
11.569

$$$$
ligand
 OpenBabel11021811463D
libRbt.so/2013.1/901 2013/11/27
 27 29  0  0  0  0  0  0  0  0999 V2000
   38.2619   16.7146   77.2762 N   0  0  0  0  0  0  0  0  0  0  0  0
   37.6809   16.1379   76.0513 C   0  0  2  0  0  0  0  0  0  0  0  0
   38.6524   15.1598   75.4242 C   0  0  0  0  0  0  0  0  0  0  0  0
   39.1313   14.2431   76.0997 O   0  0  0  0  0  0  0  0  0  0  0  0
   37.3971   17.2593   75.0571 C   0  0  0  0  0  0  0  0  0  0  0  0
   36.4725   16.7746   73.9609 C   0  0  0  0  0  0  0  0  0  0  0  0
   37.2841   17.0756   72.3811 S   0  0  2  0  0  0  0  0  0  0  0  0
   36.5884   18.7128   72.0245 C   0  0  0  0  0  0  0  0  0  0  0  0
   36.2701   16.0345   71.2767 C   0  0  0  0  0  0  0  0  0  0  0  0
   36.9081   16.0234   69.8902 C   0  0  1  0  0  0  0  0  0  0  0  0
   36.6011   14.7885   69.2861 O   0  0  0  0  0  0  0  0  0  0  0  0
   36.3035   17.1013   68.9840 C   0  0  1  0  0  0  0  0  0  0  0  0
   36.8669   18.4219   68.9551 O   0  0  0  0  0  0  0  0  0  0  0  0
   36.1994   16.3899   67.5942 C   0  0  1  0  0  0  0  0  0  0  0  0
   36.7386   17.2717   66.5946 O   0  0  0  0  0  0  0  0  0  0  0  0
   36.7701   14.9571   67.8875 C   0  0  2  0  0  0  0  0  0  0  0  0
   38.9058   15.2382   74.2316 O   0  0  0  0  0  0  0  0  0  0  0  0
   35.0458   13.0556   63.3581 N   0  0  0  0  0  0  0  0  0  0  0  0
   35.7202   14.1887   63.5842 C   0  0  0  0  0  0  0  0  0  0  0  0
   36.0795   14.5520   64.8122 N   0  0  0  0  0  0  0  0  0  0  0  0
   35.7989   13.7812   65.8786 C   0  0  0  0  0  0  0  0  0  0  0  0
   35.0978   12.5599   65.6914 C   0  0  0  0  0  0  0  0  0  0  0  0
   34.7212   12.2158   64.3594 C   0  0  0  0  0  0  0  0  0  0  0  0
   34.0445   11.0402   64.0934 N   0  0  0  0  0  0  0  0  0  0  0  0
   34.9562   11.9879   66.9094 N   0  0  0  0  0  0  0  0  0  0  0  0
   35.5091   12.7511   67.8070 C   0  0  0  0  0  0  0  0  0  0  0  0
   36.0433   13.8718   67.2199 N   0  0  0  0  0  0  0  0  0  0  0  0
  2  1  1  1  0  0  0
  2  3  1  0  0  0  0
  2  5  1  0  0  0  0
  3  4  1  0  0  0  0
  3 17  1  0  0  0  0
  5  6  1  0  0  0  0
  7  6  1  1  0  0  0
  7  8  1  0  0  0  0
  7  9  1  0  0  0  0
 10  9  1  1  0  0  0
 10 11  1  0  0  0  0
 10 12  1  0  0  0  0
 11 16  1  0  0  0  0
 12 13  1  6  0  0  0
 12 14  1  0  0  0  0
 14 15  1  6  0  0  0
 14 16  1  0  0  0  0
 16 27  1  6  0  0  0
 18 19  2  0  0  0  0
 18 23  1  0  0  0  0
 19 20  1  0  0  0  0
 20 21  2  0  0  0  0
 21 22  1  0  0  0  0
 21 27  1  0  0  0  0
 22 23  2  0  0  0  0
 22 25  1  0  0  0  0
 23 24  1  0  0  0  0
 25 26  2  0  0  0  0
 26 27  1  0  0  0  0
M  END
>  <CHROM.1>
52.93396400,-164.68677485,-124.36851717,-92.53013427,-173.35278209,150.19774550
170.10929986,36.59998271,15.28364738,69.75192138,0.01434286,1.32376794,2.82830265

>  <Name>
ligand

>  <RI>
0

>  <Rbt.Current_Directory>
/home/itssahil/PROJECTS/Mol_Feturizer/New_Systems/rnas/2QWY

>  <Rbt.Executable>
rbdock ($Id: //depot/dev/client3/rdock/2013.1/src/exe/rbdock.cxx#4 $)

>  <Rbt.Library>
libRbt.so (2013.1, Build901 2013/11/27)

>  <Rbt.Parameter_File>
/export/apps/rDock/src/rDock_2013.1_src/data/scripts/dock_solv.prm

>  <Rbt.Receptor>
prm/blind_docking_100.prm

>  <SCORE>
-6.50746

>  <SCORE.INTER>
-9.36763

>  <SCORE.INTER.CONST>
1

>  <SCORE.INTER.POLAR>
0

>  <SCORE.INTER.ROT>
7

>  <SCORE.INTER.SOLV>
10.7834

>  <SCORE.INTER.VDW>
-18.1062

>  <SCORE.INTER.norm>
-0.346949

>  <SCORE.INTRA>
1.97227

>  <SCORE.INTRA.DIHEDRAL>
3.45573

>  <SCORE.INTRA.DIHEDRAL.0>
10.7382

>  <SCORE.INTRA.POLAR>
0

>  <SCORE.INTRA.POLAR.0>
0

>  <SCORE.INTRA.REPUL>
0

>  <SCORE.INTRA.REPUL.0>
0

>  <SCORE.INTRA.SOLV>
-0.857188

>  <SCORE.INTRA.SOLV.lig_0>
-49.2501

>  <SCORE.INTRA.VDW>
0.673005

>  <SCORE.INTRA.VDW.0>
-1.75368

>  <SCORE.INTRA.norm>
0.0730472

>  <SCORE.RESTR>
0.887891

>  <SCORE.RESTR.CAVITY>
0.887891

>  <SCORE.RESTR.norm>
0.0328848

>  <SCORE.SYSTEM>
0

>  <SCORE.SYSTEM.CONST>
0

>  <SCORE.SYSTEM.DIHEDRAL>
0

>  <SCORE.SYSTEM.SOLV>
0

>  <SCORE.SYSTEM.norm>
0

>  <SCORE.heavy>
27

>  <SCORE.norm>
-0.241017

>  <RMSD>
11.663

$$$$
ligand
 OpenBabel11021811463D
libRbt.so/2013.1/901 2013/11/27
 27 29  0  0  0  0  0  0  0  0999 V2000
   35.0608   11.1506   63.0007 N   0  0  0  0  0  0  0  0  0  0  0  0
   33.8041   11.8820   62.7634 C   0  0  2  0  0  0  0  0  0  0  0  0
   33.6189   12.1324   61.2811 C   0  0  0  0  0  0  0  0  0  0  0  0
   33.0945   13.1804   60.8907 O   0  0  0  0  0  0  0  0  0  0  0  0
   33.8617   13.2227   63.4882 C   0  0  0  0  0  0  0  0  0  0  0  0
   33.6080   13.0363   64.9688 C   0  0  0  0  0  0  0  0  0  0  0  0
   35.1014   12.3450   65.7018 S   0  0  2  0  0  0  0  0  0  0  0  0
   34.6041   10.6006   65.7400 C   0  0  0  0  0  0  0  0  0  0  0  0
   34.8595   12.7992   67.4530 C   0  0  0  0  0  0  0  0  0  0  0  0
   35.0130   14.3113   67.5936 C   0  0  1  0  0  0  0  0  0  0  0  0
   35.0907   14.6091   68.9682 O   0  0  0  0  0  0  0  0  0  0  0  0
   36.3272   14.8032   66.9776 C   0  0  1  0  0  0  0  0  0  0  0  0
   36.3808   15.1809   65.5932 O   0  0  0  0  0  0  0  0  0  0  0  0
   36.8140   15.8956   67.9866 C   0  0  1  0  0  0  0  0  0  0  0  0
   37.1904   17.0646   67.2387 O   0  0  0  0  0  0  0  0  0  0  0  0
   35.6896   15.8902   69.0822 C   0  0  2  0  0  0  0  0  0  0  0  0
   34.0537   11.3269   60.4720 O   0  0  0  0  0  0  0  0  0  0  0  0
   37.9743   19.0149   72.5637 N   0  0  0  0  0  0  0  0  0  0  0  0
   37.6719   19.2704   71.2858 C   0  0  0  0  0  0  0  0  0  0  0  0
   37.0998   18.3547   70.5091 N   0  0  0  0  0  0  0  0  0  0  0  0
   36.7794   17.1375   70.9843 C   0  0  0  0  0  0  0  0  0  0  0  0
   37.0653   16.8203   72.3392 C   0  0  0  0  0  0  0  0  0  0  0  0
   37.6905   17.8277   73.1322 C   0  0  0  0  0  0  0  0  0  0  0  0
   37.9931   17.5996   74.4616 N   0  0  0  0  0  0  0  0  0  0  0  0
   36.6397   15.5539   72.5531 N   0  0  0  0  0  0  0  0  0  0  0  0
   36.1238   15.0849   71.4541 C   0  0  0  0  0  0  0  0  0  0  0  0
   36.1872   16.0256   70.4555 N   0  0  0  0  0  0  0  0  0  0  0  0
  2  1  1  6  0  0  0
  2  3  1  0  0  0  0
  2  5  1  0  0  0  0
  3  4  1  0  0  0  0
  3 17  1  0  0  0  0
  5  6  1  0  0  0  0
  7  6  1  6  0  0  0
  7  8  1  0  0  0  0
  7  9  1  0  0  0  0
 10  9  1  1  0  0  0
 10 11  1  0  0  0  0
 10 12  1  0  0  0  0
 11 16  1  0  0  0  0
 12 13  1  6  0  0  0
 12 14  1  0  0  0  0
 14 15  1  6  0  0  0
 14 16  1  0  0  0  0
 16 27  1  1  0  0  0
 18 19  2  0  0  0  0
 18 23  1  0  0  0  0
 19 20  1  0  0  0  0
 20 21  2  0  0  0  0
 21 22  1  0  0  0  0
 21 27  1  0  0  0  0
 22 23  2  0  0  0  0
 22 25  1  0  0  0  0
 23 24  1  0  0  0  0
 25 26  2  0  0  0  0
 26 27  1  0  0  0  0
M  END
>  <CHROM.1>
-144.54567450,-77.56933964,75.71699492,-98.48623092,-69.96074571,-168.43840154
-177.06228494,35.68705106,14.70675609,67.49839432,2.52972560,-1.21777455
-1.16551267

>  <Name>
ligand

>  <RI>
0

>  <Rbt.Current_Directory>
/home/itssahil/PROJECTS/Mol_Feturizer/New_Systems/rnas/2QWY

>  <Rbt.Executable>
rbdock ($Id: //depot/dev/client3/rdock/2013.1/src/exe/rbdock.cxx#4 $)

>  <Rbt.Library>
libRbt.so (2013.1, Build901 2013/11/27)

>  <Rbt.Parameter_File>
/export/apps/rDock/src/rDock_2013.1_src/data/scripts/dock_solv.prm

>  <Rbt.Receptor>
prm/blind_docking_100.prm

>  <SCORE>
-10.561

>  <SCORE.INTER>
-12.439

>  <SCORE.INTER.CONST>
1

>  <SCORE.INTER.POLAR>
0

>  <SCORE.INTER.ROT>
7

>  <SCORE.INTER.SOLV>
9.72907

>  <SCORE.INTER.VDW>
-19.8023

>  <SCORE.INTER.norm>
-0.460703

>  <SCORE.INTRA>
1.3502

>  <SCORE.INTRA.DIHEDRAL>
-2.72872

>  <SCORE.INTRA.DIHEDRAL.0>
10.7382

>  <SCORE.INTRA.POLAR>
0

>  <SCORE.INTRA.POLAR.0>
0

>  <SCORE.INTRA.REPUL>
0

>  <SCORE.INTRA.REPUL.0>
0

>  <SCORE.INTRA.SOLV>
2.47501

>  <SCORE.INTRA.SOLV.lig_0>
-49.2501

>  <SCORE.INTRA.VDW>
1.47706

>  <SCORE.INTRA.VDW.0>
-1.75368

>  <SCORE.INTRA.norm>
0.0500075

>  <SCORE.RESTR>
0.527741

>  <SCORE.RESTR.CAVITY>
0.527741

>  <SCORE.RESTR.norm>
0.019546

>  <SCORE.SYSTEM>
0

>  <SCORE.SYSTEM.CONST>
0

>  <SCORE.SYSTEM.DIHEDRAL>
0

>  <SCORE.SYSTEM.SOLV>
0

>  <SCORE.SYSTEM.norm>
0

>  <SCORE.heavy>
27

>  <SCORE.norm>
-0.391149

>  <RMSD>
11.847

$$$$
ligand
 OpenBabel11021811463D
libRbt.so/2013.1/901 2013/11/27
 27 29  0  0  0  0  0  0  0  0999 V2000
   37.2456   15.4181   74.1859 N   0  0  0  0  0  0  0  0  0  0  0  0
   36.8711   15.8634   72.8323 C   0  0  2  0  0  0  0  0  0  0  0  0
   36.1962   17.2177   72.8976 C   0  0  0  0  0  0  0  0  0  0  0  0
   35.5664   17.5480   73.9075 O   0  0  0  0  0  0  0  0  0  0  0  0
   35.9002   14.8557   72.2256 C   0  0  0  0  0  0  0  0  0  0  0  0
   36.5061   13.4685   72.2271 C   0  0  0  0  0  0  0  0  0  0  0  0
   36.7846   12.9860   70.5139 S   0  0  2  0  0  0  0  0  0  0  0  0
   37.6002   11.3924   70.8086 C   0  0  0  0  0  0  0  0  0  0  0  0
   38.2258   14.0268   70.0999 C   0  0  0  0  0  0  0  0  0  0  0  0
   37.9046   14.8327   68.8442 C   0  0  1  0  0  0  0  0  0  0  0  0
   37.3852   13.9427   67.8839 O   0  0  0  0  0  0  0  0  0  0  0  0
   36.8033   15.8659   69.1051 C   0  0  1  0  0  0  0  0  0  0  0  0
   37.1418   17.1855   69.5590 O   0  0  0  0  0  0  0  0  0  0  0  0
   35.9378   15.8100   67.8027 C   0  0  1  0  0  0  0  0  0  0  0  0
   35.7065   17.1572   67.3566 O   0  0  0  0  0  0  0  0  0  0  0  0
   36.6701   14.7227   66.9388 C   0  0  2  0  0  0  0  0  0  0  0  0
   36.3363   18.0091   71.9773 O   0  0  0  0  0  0  0  0  0  0  0  0
   34.1329   13.8094   62.4854 N   0  0  0  0  0  0  0  0  0  0  0  0
   34.9207   14.8442   62.7992 C   0  0  0  0  0  0  0  0  0  0  0  0
   35.4900   14.9478   63.9968 N   0  0  0  0  0  0  0  0  0  0  0  0
   35.3153   14.0017   64.9373 C   0  0  0  0  0  0  0  0  0  0  0  0
   34.5001   12.8744   64.6495 C   0  0  0  0  0  0  0  0  0  0  0  0
   33.8994   12.8103   63.3574 C   0  0  0  0  0  0  0  0  0  0  0  0
   33.0999   11.7416   62.9975 N   0  0  0  0  0  0  0  0  0  0  0  0
   34.5010   12.0873   65.7501 N   0  0  0  0  0  0  0  0  0  0  0  0
   35.2422   12.6368   66.6680 C   0  0  0  0  0  0  0  0  0  0  0  0
   35.7672   13.8219   66.2141 N   0  0  0  0  0  0  0  0  0  0  0  0
  2  1  1  1  0  0  0
  2  3  1  0  0  0  0
  2  5  1  0  0  0  0
  3  4  1  0  0  0  0
  3 17  1  0  0  0  0
  5  6  1  0  0  0  0
  7  6  1  1  0  0  0
  7  8  1  0  0  0  0
  7  9  1  0  0  0  0
 10  9  1  1  0  0  0
 10 11  1  0  0  0  0
 10 12  1  0  0  0  0
 11 16  1  0  0  0  0
 12 13  1  6  0  0  0
 12 14  1  0  0  0  0
 14 15  1  6  0  0  0
 14 16  1  0  0  0  0
 16 27  1  1  0  0  0
 18 19  2  0  0  0  0
 18 23  1  0  0  0  0
 19 20  1  0  0  0  0
 20 21  2  0  0  0  0
 21 22  1  0  0  0  0
 21 27  1  0  0  0  0
 22 23  2  0  0  0  0
 22 25  1  0  0  0  0
 23 24  1  0  0  0  0
 25 26  2  0  0  0  0
 26 27  1  0  0  0  0
M  END
>  <CHROM.1>
-28.60090523,-56.03512454,-113.08359331,176.16380590,-126.15033235,-48.73152403
-152.34162122,36.05870585,14.56670020,68.48157680,-0.52539666,1.29821480
-2.87069799

>  <Name>
ligand

>  <RI>
0

>  <Rbt.Current_Directory>
/home/itssahil/PROJECTS/Mol_Feturizer/New_Systems/rnas/2QWY

>  <Rbt.Executable>
rbdock ($Id: //depot/dev/client3/rdock/2013.1/src/exe/rbdock.cxx#4 $)

>  <Rbt.Library>
libRbt.so (2013.1, Build901 2013/11/27)

>  <Rbt.Parameter_File>
/export/apps/rDock/src/rDock_2013.1_src/data/scripts/dock_solv.prm

>  <Rbt.Receptor>
prm/blind_docking_100.prm

>  <SCORE>
-10.3343

>  <SCORE.INTER>
-10.587

>  <SCORE.INTER.CONST>
1

>  <SCORE.INTER.POLAR>
0

>  <SCORE.INTER.ROT>
7

>  <SCORE.INTER.SOLV>
12.3395

>  <SCORE.INTER.VDW>
-19.4379

>  <SCORE.INTER.norm>
-0.392112

>  <SCORE.INTRA>
0.2116

>  <SCORE.INTRA.DIHEDRAL>
2.78294

>  <SCORE.INTRA.DIHEDRAL.0>
10.7382

>  <SCORE.INTRA.POLAR>
0

>  <SCORE.INTRA.POLAR.0>
0

>  <SCORE.INTRA.REPUL>
0

>  <SCORE.INTRA.REPUL.0>
0

>  <SCORE.INTRA.SOLV>
0.631119

>  <SCORE.INTRA.SOLV.lig_0>
-49.2501

>  <SCORE.INTRA.VDW>
-1.49543

>  <SCORE.INTRA.VDW.0>
-1.75368

>  <SCORE.INTRA.norm>
0.00783703

>  <SCORE.RESTR>
0.0411598

>  <SCORE.RESTR.CAVITY>
0.0411598

>  <SCORE.RESTR.norm>
0.00152444

>  <SCORE.SYSTEM>
0

>  <SCORE.SYSTEM.CONST>
0

>  <SCORE.SYSTEM.DIHEDRAL>
0

>  <SCORE.SYSTEM.SOLV>
0

>  <SCORE.SYSTEM.norm>
0

>  <SCORE.heavy>
27

>  <SCORE.norm>
-0.382751

>  <RMSD>
12.176

$$$$
ligand
 OpenBabel11021811463D
libRbt.so/2013.1/901 2013/11/27
 27 29  0  0  0  0  0  0  0  0999 V2000
   36.9021   15.9168   74.1983 N   0  0  0  0  0  0  0  0  0  0  0  0
   37.2832   16.2225   72.8084 C   0  0  2  0  0  0  0  0  0  0  0  0
   36.9135   17.6516   72.4691 C   0  0  0  0  0  0  0  0  0  0  0  0
   35.8863   18.1534   72.9368 O   0  0  0  0  0  0  0  0  0  0  0  0
   36.5374   15.2819   71.8674 C   0  0  0  0  0  0  0  0  0  0  0  0
   37.0174   13.8581   72.0509 C   0  0  0  0  0  0  0  0  0  0  0  0
   36.9976   13.0567   70.4376 S   0  0  2  0  0  0  0  0  0  0  0  0
   37.6308   11.4304   70.9331 C   0  0  0  0  0  0  0  0  0  0  0  0
   38.4932   13.7810   69.6824 C   0  0  0  0  0  0  0  0  0  0  0  0
   38.0732   14.6602   68.5076 C   0  0  1  0  0  0  0  0  0  0  0  0
   37.5085   13.8233   67.5253 O   0  0  0  0  0  0  0  0  0  0  0  0
   36.9716   15.6470   68.9089 C   0  0  1  0  0  0  0  0  0  0  0  0
   37.3136   16.9416   69.4279 O   0  0  0  0  0  0  0  0  0  0  0  0
   36.0225   15.6565   67.6649 C   0  0  1  0  0  0  0  0  0  0  0  0
   35.7355   17.0243   67.3269 O   0  0  0  0  0  0  0  0  0  0  0  0
   36.7167   14.6466   66.6837 C   0  0  2  0  0  0  0  0  0  0  0  0
   37.6705   18.3278   71.7892 O   0  0  0  0  0  0  0  0  0  0  0  0
   34.0496   13.8781   62.2792 N   0  0  0  0  0  0  0  0  0  0  0  0
   34.8559   14.8966   62.5989 C   0  0  0  0  0  0  0  0  0  0  0  0
   35.4588   14.9624   63.7826 N   0  0  0  0  0  0  0  0  0  0  0  0
   35.3005   13.9928   64.7017 C   0  0  0  0  0  0  0  0  0  0  0  0
   34.4666   12.8812   64.4064 C   0  0  0  0  0  0  0  0  0  0  0  0
   33.8301   12.8578   63.1301 C   0  0  0  0  0  0  0  0  0  0  0  0
   33.0105   11.8067   62.7639 N   0  0  0  0  0  0  0  0  0  0  0  0
   34.4898   12.0646   65.4849 N   0  0  0  0  0  0  0  0  0  0  0  0
   35.2613   12.5820   66.3964 C   0  0  0  0  0  0  0  0  0  0  0  0
   35.7854   13.7741   65.9602 N   0  0  0  0  0  0  0  0  0  0  0  0
  2  1  1  1  0  0  0
  2  3  1  0  0  0  0
  2  5  1  0  0  0  0
  3  4  1  0  0  0  0
  3 17  1  0  0  0  0
  5  6  1  0  0  0  0
  7  6  1  1  0  0  0
  7  8  1  0  0  0  0
  7  9  1  0  0  0  0
 10  9  1  1  0  0  0
 10 11  1  0  0  0  0
 10 12  1  0  0  0  0
 11 16  1  0  0  0  0
 12 13  1  6  0  0  0
 12 14  1  0  0  0  0
 14 15  1  6  0  0  0
 14 16  1  0  0  0  0
 16 27  1  1  0  0  0
 18 19  2  0  0  0  0
 18 23  1  0  0  0  0
 19 20  1  0  0  0  0
 20 21  2  0  0  0  0
 21 22  1  0  0  0  0
 21 27  1  0  0  0  0
 22 23  2  0  0  0  0
 22 25  1  0  0  0  0
 23 24  1  0  0  0  0
 25 26  2  0  0  0  0
 26 27  1  0  0  0  0
M  END
>  <CHROM.1>
-35.59792126,-67.24610015,-144.39061327,178.89721147,-113.87332093,-65.51739779
-148.69036151,36.23634896,14.63862419,68.25439345,-0.46728963,1.25077675
-2.95986688

>  <Name>
ligand

>  <RI>
0

>  <Rbt.Current_Directory>
/home/itssahil/PROJECTS/Mol_Feturizer/New_Systems/rnas/2QWY

>  <Rbt.Executable>
rbdock ($Id: //depot/dev/client3/rdock/2013.1/src/exe/rbdock.cxx#4 $)

>  <Rbt.Library>
libRbt.so (2013.1, Build901 2013/11/27)

>  <Rbt.Parameter_File>
/export/apps/rDock/src/rDock_2013.1_src/data/scripts/dock_solv.prm

>  <Rbt.Receptor>
prm/blind_docking_100.prm

>  <SCORE>
-9.13591

>  <SCORE.INTER>
-8.57108

>  <SCORE.INTER.CONST>
1

>  <SCORE.INTER.POLAR>
0

>  <SCORE.INTER.ROT>
7

>  <SCORE.INTER.SOLV>
12.4816

>  <SCORE.INTER.VDW>
-18.1413

>  <SCORE.INTER.norm>
-0.317447

>  <SCORE.INTRA>
-0.56483

>  <SCORE.INTRA.DIHEDRAL>
0.249062

>  <SCORE.INTRA.DIHEDRAL.0>
10.7382

>  <SCORE.INTRA.POLAR>
0

>  <SCORE.INTRA.POLAR.0>
0

>  <SCORE.INTRA.REPUL>
0

>  <SCORE.INTRA.REPUL.0>
0

>  <SCORE.INTRA.SOLV>
0.366714

>  <SCORE.INTRA.SOLV.lig_0>
-49.2501

>  <SCORE.INTRA.VDW>
-0.872718

>  <SCORE.INTRA.VDW.0>
-1.75368

>  <SCORE.INTRA.norm>
-0.0209196

>  <SCORE.RESTR>
0

>  <SCORE.RESTR.CAVITY>
0

>  <SCORE.RESTR.norm>
0

>  <SCORE.SYSTEM>
0

>  <SCORE.SYSTEM.CONST>
0

>  <SCORE.SYSTEM.DIHEDRAL>
0

>  <SCORE.SYSTEM.SOLV>
0

>  <SCORE.SYSTEM.norm>
0

>  <SCORE.heavy>
27

>  <SCORE.norm>
-0.338367

>  <RMSD>
12.320

$$$$
ligand
 OpenBabel11021811463D
libRbt.so/2013.1/901 2013/11/27
 27 29  0  0  0  0  0  0  0  0999 V2000
   39.1737   19.2548   73.1498 N   0  0  0  0  0  0  0  0  0  0  0  0
   38.7373   19.2455   71.7426 C   0  0  2  0  0  0  0  0  0  0  0  0
   37.9385   20.4954   71.4366 C   0  0  0  0  0  0  0  0  0  0  0  0
   36.9062   20.7412   72.0690 O   0  0  0  0  0  0  0  0  0  0  0  0
   37.8566   18.0240   71.5007 C   0  0  0  0  0  0  0  0  0  0  0  0
   38.6745   16.7537   71.5943 C   0  0  0  0  0  0  0  0  0  0  0  0
   37.5766   15.3646   71.2620 S   0  0  2  0  0  0  0  0  0  0  0  0
   38.8167   14.0409   71.2197 C   0  0  0  0  0  0  0  0  0  0  0  0
   37.2726   15.5939   69.4769 C   0  0  0  0  0  0  0  0  0  0  0  0
   36.1493   14.6548   69.0457 C   0  0  1  0  0  0  0  0  0  0  0  0
   35.7559   15.0248   67.7447 O   0  0  0  0  0  0  0  0  0  0  0  0
   36.6352   13.2049   68.9461 C   0  0  1  0  0  0  0  0  0  0  0  0
   36.5750   12.3411   70.0918 O   0  0  0  0  0  0  0  0  0  0  0  0
   35.9124   12.6673   67.6667 C   0  0  1  0  0  0  0  0  0  0  0  0
   35.3250   11.3934   67.9821 O   0  0  0  0  0  0  0  0  0  0  0  0
   35.0841   13.9094   67.1812 C   0  0  2  0  0  0  0  0  0  0  0  0
   38.3562   21.2943   70.6121 O   0  0  0  0  0  0  0  0  0  0  0  0
   32.8589   12.5424   62.6774 N   0  0  0  0  0  0  0  0  0  0  0  0
   32.5805   12.1065   63.9112 C   0  0  0  0  0  0  0  0  0  0  0  0
   33.2556   12.5404   64.9719 N   0  0  0  0  0  0  0  0  0  0  0  0
   34.2340   13.4559   64.8503 C   0  0  0  0  0  0  0  0  0  0  0  0
   34.5589   13.9628   63.5636 C   0  0  0  0  0  0  0  0  0  0  0  0
   33.8181   13.4604   62.4530 C   0  0  0  0  0  0  0  0  0  0  0  0
   34.0682   13.9101   61.1700 N   0  0  0  0  0  0  0  0  0  0  0  0
   35.5579   14.8606   63.7266 N   0  0  0  0  0  0  0  0  0  0  0  0
   35.8591   14.9402   64.9903 C   0  0  0  0  0  0  0  0  0  0  0  0
   35.0691   14.0909   65.7256 N   0  0  0  0  0  0  0  0  0  0  0  0
  2  1  1  1  0  0  0
  2  3  1  0  0  0  0
  2  5  1  0  0  0  0
  3  4  1  0  0  0  0
  3 17  1  0  0  0  0
  5  6  1  0  0  0  0
  7  6  1  6  0  0  0
  7  8  1  0  0  0  0
  7  9  1  0  0  0  0
 10  9  1  6  0  0  0
 10 11  1  0  0  0  0
 10 12  1  0  0  0  0
 11 16  1  0  0  0  0
 12 13  1  1  0  0  0
 12 14  1  0  0  0  0
 14 15  1  1  0  0  0
 14 16  1  0  0  0  0
 16 27  1  6  0  0  0
 18 19  2  0  0  0  0
 18 23  1  0  0  0  0
 19 20  1  0  0  0  0
 20 21  2  0  0  0  0
 21 22  1  0  0  0  0
 21 27  1  0  0  0  0
 22 23  2  0  0  0  0
 22 25  1  0  0  0  0
 23 24  1  0  0  0  0
 25 26  2  0  0  0  0
 26 27  1  0  0  0  0
M  END
>  <CHROM.1>
-59.26104683,-68.20504644,-178.75674930,172.99216441,-169.70477262,168.83929230
-161.32878845,36.21850415,15.23048121,68.08949383,0.30302557,-1.14038297
-0.27481536

>  <Name>
ligand

>  <RI>
0

>  <Rbt.Current_Directory>
/home/itssahil/PROJECTS/Mol_Feturizer/New_Systems/rnas/2QWY

>  <Rbt.Executable>
rbdock ($Id: //depot/dev/client3/rdock/2013.1/src/exe/rbdock.cxx#4 $)

>  <Rbt.Library>
libRbt.so (2013.1, Build901 2013/11/27)

>  <Rbt.Parameter_File>
/export/apps/rDock/src/rDock_2013.1_src/data/scripts/dock_solv.prm

>  <Rbt.Receptor>
prm/blind_docking_100.prm

>  <SCORE>
-14.0339

>  <SCORE.INTER>
-11.5149

>  <SCORE.INTER.CONST>
1

>  <SCORE.INTER.POLAR>
0

>  <SCORE.INTER.ROT>
7

>  <SCORE.INTER.SOLV>
13.1506

>  <SCORE.INTER.VDW>
-20.3268

>  <SCORE.INTER.norm>
-0.426477

>  <SCORE.INTRA>
-3.03235

>  <SCORE.INTRA.DIHEDRAL>
-5.75565

>  <SCORE.INTRA.DIHEDRAL.0>
10.7382

>  <SCORE.INTRA.POLAR>
0

>  <SCORE.INTRA.POLAR.0>
0

>  <SCORE.INTRA.REPUL>
0

>  <SCORE.INTRA.REPUL.0>
0

>  <SCORE.INTRA.SOLV>
-0.263705

>  <SCORE.INTRA.SOLV.lig_0>
-49.2501

>  <SCORE.INTRA.VDW>
-0.0226694

>  <SCORE.INTRA.VDW.0>
-1.75368

>  <SCORE.INTRA.norm>
-0.112309

>  <SCORE.RESTR>
0.513361

>  <SCORE.RESTR.CAVITY>
0.513361

>  <SCORE.RESTR.norm>
0.0190134

>  <SCORE.SYSTEM>
0

>  <SCORE.SYSTEM.CONST>
0

>  <SCORE.SYSTEM.DIHEDRAL>
0

>  <SCORE.SYSTEM.SOLV>
0

>  <SCORE.SYSTEM.norm>
0

>  <SCORE.heavy>
27

>  <SCORE.norm>
-0.519773

>  <RMSD>
12.377

$$$$
ligand
 OpenBabel11021811463D
libRbt.so/2013.1/901 2013/11/27
 27 29  0  0  0  0  0  0  0  0999 V2000
   36.7863   16.9748   75.4629 N   0  0  0  0  0  0  0  0  0  0  0  0
   37.4044   15.7932   74.8365 C   0  0  2  0  0  0  0  0  0  0  0  0
   38.5865   15.3255   75.6597 C   0  0  0  0  0  0  0  0  0  0  0  0
   38.5456   15.3865   76.8928 O   0  0  0  0  0  0  0  0  0  0  0  0
   37.8907   16.1651   73.4395 C   0  0  0  0  0  0  0  0  0  0  0  0
   36.7774   15.9955   72.4279 C   0  0  0  0  0  0  0  0  0  0  0  0
   37.3745   16.6076   70.8423 S   0  0  2  0  0  0  0  0  0  0  0  0
   37.0189   18.3708   71.0792 C   0  0  0  0  0  0  0  0  0  0  0  0
   35.9893   16.1314   69.7532 C   0  0  0  0  0  0  0  0  0  0  0  0
   36.3113   14.7853   69.1098 C   0  0  1  0  0  0  0  0  0  0  0  0
   35.5665   14.6899   67.9180 O   0  0  0  0  0  0  0  0  0  0  0  0
   37.7847   14.6965   68.6979 C   0  0  1  0  0  0  0  0  0  0  0  0
   38.7662   14.2032   69.6228 O   0  0  0  0  0  0  0  0  0  0  0  0
   37.7323   13.9538   67.3217 C   0  0  1  0  0  0  0  0  0  0  0  0
   38.7125   12.9018   67.3393 O   0  0  0  0  0  0  0  0  0  0  0  0
   36.1962   13.7062   67.1125 C   0  0  2  0  0  0  0  0  0  0  0  0
   39.5511   14.8228   75.1033 O   0  0  0  0  0  0  0  0  0  0  0  0
   32.8913   12.1700   63.3946 N   0  0  0  0  0  0  0  0  0  0  0  0
   33.0307   11.6916   64.6362 C   0  0  0  0  0  0  0  0  0  0  0  0
   33.9418   12.1806   65.4727 N   0  0  0  0  0  0  0  0  0  0  0  0
   34.7480   13.1955   65.1117 C   0  0  0  0  0  0  0  0  0  0  0  0
   34.6304   13.7501   63.8091 C   0  0  0  0  0  0  0  0  0  0  0  0
   33.6487   13.1868   62.9410 C   0  0  0  0  0  0  0  0  0  0  0  0
   33.4668   13.6766   61.6613 N   0  0  0  0  0  0  0  0  0  0  0  0
   35.5413   14.7460   63.7135 N   0  0  0  0  0  0  0  0  0  0  0  0
   36.1907   14.8407   64.8374 C   0  0  0  0  0  0  0  0  0  0  0  0
   35.7374   13.9036   65.7332 N   0  0  0  0  0  0  0  0  0  0  0  0
  2  1  1  1  0  0  0
  2  3  1  0  0  0  0
  2  5  1  0  0  0  0
  3  4  1  0  0  0  0
  3 17  1  0  0  0  0
  5  6  1  0  0  0  0
  7  6  1  1  0  0  0
  7  8  1  0  0  0  0
  7  9  1  0  0  0  0
 10  9  1  6  0  0  0
 10 11  1  0  0  0  0
 10 12  1  0  0  0  0
 11 16  1  0  0  0  0
 12 13  1  1  0  0  0
 12 14  1  0  0  0  0
 14 15  1  1  0  0  0
 14 16  1  0  0  0  0
 16 27  1  6  0  0  0
 18 19  2  0  0  0  0
 18 23  1  0  0  0  0
 19 20  1  0  0  0  0
 20 21  2  0  0  0  0
 21 22  1  0  0  0  0
 21 27  1  0  0  0  0
 22 23  2  0  0  0  0
 22 25  1  0  0  0  0
 23 24  1  0  0  0  0
 25 26  2  0  0  0  0
 26 27  1  0  0  0  0
M  END
>  <CHROM.1>
36.80521243,-86.80963627,174.41202399,-84.01673181,-95.04041577,-156.29488309
-98.91290666,36.45245347,14.71425641,68.90799752,1.10018163,-0.78699756,0.96949713

>  <Name>
ligand

>  <RI>
0

>  <Rbt.Current_Directory>
/home/itssahil/PROJECTS/Mol_Feturizer/New_Systems/rnas/2QWY

>  <Rbt.Executable>
rbdock ($Id: //depot/dev/client3/rdock/2013.1/src/exe/rbdock.cxx#4 $)

>  <Rbt.Library>
libRbt.so (2013.1, Build901 2013/11/27)

>  <Rbt.Parameter_File>
/export/apps/rDock/src/rDock_2013.1_src/data/scripts/dock_solv.prm

>  <Rbt.Receptor>
prm/blind_docking_100.prm

>  <SCORE>
-12.198

>  <SCORE.INTER>
-12.8284

>  <SCORE.INTER.CONST>
1

>  <SCORE.INTER.POLAR>
0

>  <SCORE.INTER.ROT>
7

>  <SCORE.INTER.SOLV>
15.0362

>  <SCORE.INTER.VDW>
-21.831

>  <SCORE.INTER.norm>
-0.475126

>  <SCORE.INTRA>
0.630434

>  <SCORE.INTRA.DIHEDRAL>
-1.07621

>  <SCORE.INTRA.DIHEDRAL.0>
10.7382

>  <SCORE.INTRA.POLAR>
0

>  <SCORE.INTRA.POLAR.0>
0

>  <SCORE.INTRA.REPUL>
0

>  <SCORE.INTRA.REPUL.0>
0

>  <SCORE.INTRA.SOLV>
-0.321568

>  <SCORE.INTRA.SOLV.lig_0>
-49.2501

>  <SCORE.INTRA.VDW>
1.32932

>  <SCORE.INTRA.VDW.0>
-1.75368

>  <SCORE.INTRA.norm>
0.0233494

>  <SCORE.RESTR>
0

>  <SCORE.RESTR.CAVITY>
0

>  <SCORE.RESTR.norm>
0

>  <SCORE.SYSTEM>
0

>  <SCORE.SYSTEM.CONST>
0

>  <SCORE.SYSTEM.DIHEDRAL>
0

>  <SCORE.SYSTEM.SOLV>
0

>  <SCORE.SYSTEM.norm>
0

>  <SCORE.heavy>
27

>  <SCORE.norm>
-0.451776

>  <RMSD>
12.382

$$$$
ligand
 OpenBabel11021811463D
libRbt.so/2013.1/901 2013/11/27
 27 29  0  0  0  0  0  0  0  0999 V2000
   37.0364   17.2473   74.1428 N   0  0  0  0  0  0  0  0  0  0  0  0
   37.1172   15.7799   74.2467 C   0  0  2  0  0  0  0  0  0  0  0  0
   37.8552   15.3869   75.5096 C   0  0  0  0  0  0  0  0  0  0  0  0
   37.4316   14.4640   76.2129 O   0  0  0  0  0  0  0  0  0  0  0  0
   37.8753   15.2346   73.0408 C   0  0  0  0  0  0  0  0  0  0  0  0
   36.9509   15.1010   71.8495 C   0  0  0  0  0  0  0  0  0  0  0  0
   36.1115   13.5122   71.9778 S   0  0  2  0  0  0  0  0  0  0  0  0
   37.4449   12.4485   71.3597 C   0  0  0  0  0  0  0  0  0  0  0  0
   35.0314   13.5812   70.5080 C   0  0  0  0  0  0  0  0  0  0  0  0
   35.8806   13.9390   69.2913 C   0  0  1  0  0  0  0  0  0  0  0  0
   35.4285   13.1601   68.2081 O   0  0  0  0  0  0  0  0  0  0  0  0
   35.6810   15.4004   68.8758 C   0  0  1  0  0  0  0  0  0  0  0  0
   36.5062   16.4321   69.4387 O   0  0  0  0  0  0  0  0  0  0  0  0
   35.6689   15.3346   67.3125 C   0  0  1  0  0  0  0  0  0  0  0  0
   36.5449   16.3588   66.8111 O   0  0  0  0  0  0  0  0  0  0  0  0
   35.8662   13.8044   67.0222 C   0  0  2  0  0  0  0  0  0  0  0  0
   38.9082   15.9383   75.7921 O   0  0  0  0  0  0  0  0  0  0  0  0
   34.4574   14.4223   62.0486 N   0  0  0  0  0  0  0  0  0  0  0  0
   35.2886   15.1738   62.7794 C   0  0  0  0  0  0  0  0  0  0  0  0
   35.5376   14.8965   64.0562 N   0  0  0  0  0  0  0  0  0  0  0  0
   34.9801   13.8319   64.6610 C   0  0  0  0  0  0  0  0  0  0  0  0
   34.1016   12.9923   63.9251 C   0  0  0  0  0  0  0  0  0  0  0  0
   33.8533   13.3342   62.5627 C   0  0  0  0  0  0  0  0  0  0  0  0
   33.0175   12.5626   61.7773 N   0  0  0  0  0  0  0  0  0  0  0  0
   33.6949   12.0078   64.7593 N   0  0  0  0  0  0  0  0  0  0  0  0
   34.2497   12.1782   65.9242 C   0  0  0  0  0  0  0  0  0  0  0  0
   35.0525   13.2924   65.9142 N   0  0  0  0  0  0  0  0  0  0  0  0
  2  1  1  6  0  0  0
  2  3  1  0  0  0  0
  2  5  1  0  0  0  0
  3  4  1  0  0  0  0
  3 17  1  0  0  0  0
  5  6  1  0  0  0  0
  7  6  1  6  0  0  0
  7  8  1  0  0  0  0
  7  9  1  0  0  0  0
 10  9  1  1  0  0  0
 10 11  1  0  0  0  0
 10 12  1  0  0  0  0
 11 16  1  0  0  0  0
 12 13  1  6  0  0  0
 12 14  1  0  0  0  0
 14 15  1  6  0  0  0
 14 16  1  0  0  0  0
 16 27  1  6  0  0  0
 18 19  2  0  0  0  0
 18 23  1  0  0  0  0
 19 20  1  0  0  0  0
 20 21  2  0  0  0  0
 21 22  1  0  0  0  0
 21 27  1  0  0  0  0
 22 23  2  0  0  0  0
 22 25  1  0  0  0  0
 23 24  1  0  0  0  0
 25 26  2  0  0  0  0
 26 27  1  0  0  0  0
M  END
>  <CHROM.1>
136.88402817,-82.47932313,-84.85803630,-79.28222202,51.26608700,139.93384792
166.81939694,35.90324923,14.35291660,68.82758494,-0.82914766,-1.15340643
-1.01971036

>  <Name>
ligand

>  <RI>
0

>  <Rbt.Current_Directory>
/home/itssahil/PROJECTS/Mol_Feturizer/New_Systems/rnas/2QWY

>  <Rbt.Executable>
rbdock ($Id: //depot/dev/client3/rdock/2013.1/src/exe/rbdock.cxx#4 $)

>  <Rbt.Library>
libRbt.so (2013.1, Build901 2013/11/27)

>  <Rbt.Parameter_File>
/export/apps/rDock/src/rDock_2013.1_src/data/scripts/dock_solv.prm

>  <Rbt.Receptor>
prm/blind_docking_100.prm

>  <SCORE>
-13.9571

>  <SCORE.INTER>
-15.3733

>  <SCORE.INTER.CONST>
1

>  <SCORE.INTER.POLAR>
0

>  <SCORE.INTER.ROT>
7

>  <SCORE.INTER.SOLV>
14.9225

>  <SCORE.INTER.VDW>
-23.4897

>  <SCORE.INTER.norm>
-0.569381

>  <SCORE.INTRA>
1.41617

>  <SCORE.INTRA.DIHEDRAL>
0.394852

>  <SCORE.INTRA.DIHEDRAL.0>
10.7382

>  <SCORE.INTRA.POLAR>
0

>  <SCORE.INTRA.POLAR.0>
0

>  <SCORE.INTRA.REPUL>
0

>  <SCORE.INTRA.REPUL.0>
0

>  <SCORE.INTRA.SOLV>
0.00394558

>  <SCORE.INTRA.SOLV.lig_0>
-49.2501

>  <SCORE.INTRA.VDW>
1.21677

>  <SCORE.INTRA.VDW.0>
-1.75368

>  <SCORE.INTRA.norm>
0.0524508

>  <SCORE.RESTR>
0

>  <SCORE.RESTR.CAVITY>
0

>  <SCORE.RESTR.norm>
0

>  <SCORE.SYSTEM>
0

>  <SCORE.SYSTEM.CONST>
0

>  <SCORE.SYSTEM.DIHEDRAL>
0

>  <SCORE.SYSTEM.SOLV>
0

>  <SCORE.SYSTEM.norm>
0

>  <SCORE.heavy>
27

>  <SCORE.norm>
-0.51693

>  <RMSD>
12.417

$$$$
ligand
 OpenBabel11021811463D
libRbt.so/2013.1/901 2013/11/27
 27 29  0  0  0  0  0  0  0  0999 V2000
   36.7348   17.1127   74.0276 N   0  0  0  0  0  0  0  0  0  0  0  0
   36.9217   15.6521   74.0774 C   0  0  2  0  0  0  0  0  0  0  0  0
   37.5937   15.2569   75.3759 C   0  0  0  0  0  0  0  0  0  0  0  0
   38.6600   15.7849   75.7074 O   0  0  0  0  0  0  0  0  0  0  0  0
   37.8062   15.2216   72.9117 C   0  0  0  0  0  0  0  0  0  0  0  0
   37.0333   15.2765   71.6113 C   0  0  0  0  0  0  0  0  0  0  0  0
   35.9493   13.8388   71.5526 S   0  0  2  0  0  0  0  0  0  0  0  0
   37.1713   12.5963   71.0481 C   0  0  0  0  0  0  0  0  0  0  0  0
   35.0922   14.1267   69.9669 C   0  0  0  0  0  0  0  0  0  0  0  0
   36.1272   14.5063   68.9114 C   0  0  1  0  0  0  0  0  0  0  0  0
   35.7833   13.8457   67.7157 O   0  0  0  0  0  0  0  0  0  0  0  0
   36.0850   16.0053   68.5955 C   0  0  1  0  0  0  0  0  0  0  0  0
   36.8880   16.9266   69.3496 O   0  0  0  0  0  0  0  0  0  0  0  0
   36.2908   16.0550   67.0452 C   0  0  1  0  0  0  0  0  0  0  0  0
   37.2944   17.0430   66.7549 O   0  0  0  0  0  0  0  0  0  0  0  0
   36.4263   14.5396   66.6583 C   0  0  2  0  0  0  0  0  0  0  0  0
   37.0422   14.4668   76.1271 O   0  0  0  0  0  0  0  0  0  0  0  0
   33.3315   11.1015   64.2697 N   0  0  0  0  0  0  0  0  0  0  0  0
   33.7856   11.0814   65.5279 C   0  0  0  0  0  0  0  0  0  0  0  0
   34.5920   12.0316   65.9926 N   0  0  0  0  0  0  0  0  0  0  0  0
   34.9671   13.0679   65.2210 C   0  0  0  0  0  0  0  0  0  0  0  0
   34.5004   13.1449   63.8814 C   0  0  0  0  0  0  0  0  0  0  0  0
   33.6479   12.0981   63.4212 C   0  0  0  0  0  0  0  0  0  0  0  0
   33.1451   12.1052   62.1335 N   0  0  0  0  0  0  0  0  0  0  0  0
   35.0156   14.2735   63.3414 N   0  0  0  0  0  0  0  0  0  0  0  0
   35.7443   14.8800   64.2330 C   0  0  0  0  0  0  0  0  0  0  0  0
   35.7463   14.1740   65.4110 N   0  0  0  0  0  0  0  0  0  0  0  0
  2  1  1  1  0  0  0
  2  3  1  0  0  0  0
  2  5  1  0  0  0  0
  3  4  1  0  0  0  0
  3 17  1  0  0  0  0
  5  6  1  0  0  0  0
  7  6  1  6  0  0  0
  7  8  1  0  0  0  0
  7  9  1  0  0  0  0
 10  9  1  1  0  0  0
 10 11  1  0  0  0  0
 10 12  1  0  0  0  0
 11 16  1  0  0  0  0
 12 13  1  1  0  0  0
 12 14  1  0  0  0  0
 14 15  1  1  0  0  0
 14 16  1  0  0  0  0
 16 27  1  6  0  0  0
 18 19  2  0  0  0  0
 18 23  1  0  0  0  0
 19 20  1  0  0  0  0
 20 21  2  0  0  0  0
 21 22  1  0  0  0  0
 21 27  1  0  0  0  0
 22 23  2  0  0  0  0
 22 25  1  0  0  0  0
 23 24  1  0  0  0  0
 25 26  2  0  0  0  0
 26 27  1  0  0  0  0
M  END
>  <CHROM.1>
-53.98331601,-73.96508904,-76.64081845,-79.22830827,46.25097713,138.94237496
-19.98162425,35.96037194,14.33060346,68.82578529,-0.92597409,-1.10546355
-1.21351870

>  <Name>
ligand

>  <RI>
0

>  <Rbt.Current_Directory>
/home/itssahil/PROJECTS/Mol_Feturizer/New_Systems/rnas/2QWY

>  <Rbt.Executable>
rbdock ($Id: //depot/dev/client3/rdock/2013.1/src/exe/rbdock.cxx#4 $)

>  <Rbt.Library>
libRbt.so (2013.1, Build901 2013/11/27)

>  <Rbt.Parameter_File>
/export/apps/rDock/src/rDock_2013.1_src/data/scripts/dock_solv.prm

>  <Rbt.Receptor>
prm/blind_docking_100.prm

>  <SCORE>
-13.7048

>  <SCORE.INTER>
-14.5665

>  <SCORE.INTER.CONST>
1

>  <SCORE.INTER.POLAR>
0

>  <SCORE.INTER.ROT>
7

>  <SCORE.INTER.SOLV>
13.6333

>  <SCORE.INTER.VDW>
-22.5221

>  <SCORE.INTER.norm>
-0.539501

>  <SCORE.INTRA>
0.861762

>  <SCORE.INTRA.DIHEDRAL>
-1.3398

>  <SCORE.INTRA.DIHEDRAL.0>
10.7382

>  <SCORE.INTRA.POLAR>
0

>  <SCORE.INTRA.POLAR.0>
0

>  <SCORE.INTRA.REPUL>
0

>  <SCORE.INTRA.REPUL.0>
0

>  <SCORE.INTRA.SOLV>
0.239234

>  <SCORE.INTRA.SOLV.lig_0>
-49.2501

>  <SCORE.INTRA.VDW>
1.41205

>  <SCORE.INTRA.VDW.0>
-1.75368

>  <SCORE.INTRA.norm>
0.0319171

>  <SCORE.RESTR>
0

>  <SCORE.RESTR.CAVITY>
0

>  <SCORE.RESTR.norm>
0

>  <SCORE.SYSTEM>
0

>  <SCORE.SYSTEM.CONST>
0

>  <SCORE.SYSTEM.DIHEDRAL>
0

>  <SCORE.SYSTEM.SOLV>
0

>  <SCORE.SYSTEM.norm>
0

>  <SCORE.heavy>
27

>  <SCORE.norm>
-0.507583

>  <RMSD>
12.422

$$$$
ligand
 OpenBabel11021811463D
libRbt.so/2013.1/901 2013/11/27
 27 29  0  0  0  0  0  0  0  0999 V2000
   38.3541   18.6916   73.5464 N   0  0  0  0  0  0  0  0  0  0  0  0
   37.5044   18.8780   72.3573 C   0  0  2  0  0  0  0  0  0  0  0  0
   36.0850   19.1998   72.7764 C   0  0  0  0  0  0  0  0  0  0  0  0
   35.4393   20.0596   72.1685 O   0  0  0  0  0  0  0  0  0  0  0  0
   37.4990   17.5902   71.5402 C   0  0  0  0  0  0  0  0  0  0  0  0
   36.8704   17.8257   70.1834 C   0  0  0  0  0  0  0  0  0  0  0  0
   36.8598   16.2557   69.3000 S   0  0  2  0  0  0  0  0  0  0  0  0
   36.3676   16.8666   67.6641 C   0  0  0  0  0  0  0  0  0  0  0  0
   35.2797   15.5513   69.8822 C   0  0  0  0  0  0  0  0  0  0  0  0
   35.0186   14.2469   69.1339 C   0  0  1  0  0  0  0  0  0  0  0  0
   34.6761   14.5741   67.8073 O   0  0  0  0  0  0  0  0  0  0  0  0
   36.2831   13.3858   69.0459 C   0  0  1  0  0  0  0  0  0  0  0  0
   36.5859   12.4367   70.0802 O   0  0  0  0  0  0  0  0  0  0  0  0
   36.2206   12.7968   67.5976 C   0  0  1  0  0  0  0  0  0  0  0  0
   36.4736   11.3834   67.6741 O   0  0  0  0  0  0  0  0  0  0  0  0
   34.8954   13.4121   67.0232 C   0  0  2  0  0  0  0  0  0  0  0  0
   35.5575   18.5570   73.6715 O   0  0  0  0  0  0  0  0  0  0  0  0
   32.8839   12.9849   62.2404 N   0  0  0  0  0  0  0  0  0  0  0  0
   32.4988   12.3709   63.3650 C   0  0  0  0  0  0  0  0  0  0  0  0
   33.1301   12.5704   64.5185 N   0  0  0  0  0  0  0  0  0  0  0  0
   34.1708   13.4184   64.6074 C   0  0  0  0  0  0  0  0  0  0  0  0
   34.6102   14.1076   63.4454 C   0  0  0  0  0  0  0  0  0  0  0  0
   33.9123   13.8540   62.2276 C   0  0  0  0  0  0  0  0  0  0  0  0
   34.2733   14.4918   61.0556 N   0  0  0  0  0  0  0  0  0  0  0  0
   35.6519   14.8891   63.8125 N   0  0  0  0  0  0  0  0  0  0  0  0
   35.8751   14.7341   65.0853 C   0  0  0  0  0  0  0  0  0  0  0  0
   34.9864   13.8347   65.6215 N   0  0  0  0  0  0  0  0  0  0  0  0
  2  1  1  1  0  0  0
  2  3  1  0  0  0  0
  2  5  1  0  0  0  0
  3  4  1  0  0  0  0
  3 17  1  0  0  0  0
  5  6  1  0  0  0  0
  7  6  1  1  0  0  0
  7  8  1  0  0  0  0
  7  9  1  0  0  0  0
 10  9  1  1  0  0  0
 10 11  1  0  0  0  0
 10 12  1  0  0  0  0
 11 16  1  0  0  0  0
 12 13  1  1  0  0  0
 12 14  1  0  0  0  0
 14 15  1  1  0  0  0
 14 16  1  0  0  0  0
 16 27  1  6  0  0  0
 18 19  2  0  0  0  0
 18 23  1  0  0  0  0
 19 20  1  0  0  0  0
 20 21  2  0  0  0  0
 21 22  1  0  0  0  0
 21 27  1  0  0  0  0
 22 23  2  0  0  0  0
 22 25  1  0  0  0  0
 23 24  1  0  0  0  0
 25 26  2  0  0  0  0
 26 27  1  0  0  0  0
M  END
>  <CHROM.1>
139.12420371,-168.70435965,-178.46700166,-170.12745691,174.80085504,-72.07119074
-120.36841339,35.57612342,15.23351686,67.88165177,0.63804295,-1.24905040
0.14649740

>  <Name>
ligand

>  <RI>
0

>  <Rbt.Current_Directory>
/home/itssahil/PROJECTS/Mol_Feturizer/New_Systems/rnas/2QWY

>  <Rbt.Executable>
rbdock ($Id: //depot/dev/client3/rdock/2013.1/src/exe/rbdock.cxx#4 $)

>  <Rbt.Library>
libRbt.so (2013.1, Build901 2013/11/27)

>  <Rbt.Parameter_File>
/export/apps/rDock/src/rDock_2013.1_src/data/scripts/dock_solv.prm

>  <Rbt.Receptor>
prm/blind_docking_100.prm

>  <SCORE>
-15.4313

>  <SCORE.INTER>
-13.4002

>  <SCORE.INTER.CONST>
1

>  <SCORE.INTER.POLAR>
0

>  <SCORE.INTER.ROT>
7

>  <SCORE.INTER.SOLV>
12.134

>  <SCORE.INTER.VDW>
-21.2448

>  <SCORE.INTER.norm>
-0.496303

>  <SCORE.INTRA>
-3.03705

>  <SCORE.INTRA.DIHEDRAL>
-5.63999

>  <SCORE.INTRA.DIHEDRAL.0>
10.7382

>  <SCORE.INTRA.POLAR>
0

>  <SCORE.INTRA.POLAR.0>
0

>  <SCORE.INTRA.REPUL>
0

>  <SCORE.INTRA.REPUL.0>
0

>  <SCORE.INTRA.SOLV>
-0.931425

>  <SCORE.INTRA.SOLV.lig_0>
-49.2501

>  <SCORE.INTRA.VDW>
0.248656

>  <SCORE.INTRA.VDW.0>
-1.75368

>  <SCORE.INTRA.norm>
-0.112483

>  <SCORE.RESTR>
1.00591

>  <SCORE.RESTR.CAVITY>
1.00591

>  <SCORE.RESTR.norm>
0.037256

>  <SCORE.SYSTEM>
0

>  <SCORE.SYSTEM.CONST>
0

>  <SCORE.SYSTEM.DIHEDRAL>
0

>  <SCORE.SYSTEM.SOLV>
0

>  <SCORE.SYSTEM.norm>
0

>  <SCORE.heavy>
27

>  <SCORE.norm>
-0.571531

>  <RMSD>
12.444

$$$$
ligand
 OpenBabel11021811463D
libRbt.so/2013.1/901 2013/11/27
 27 29  0  0  0  0  0  0  0  0999 V2000
   37.1075   17.1070   74.0730 N   0  0  0  0  0  0  0  0  0  0  0  0
   36.7010   16.7400   72.7052 C   0  0  2  0  0  0  0  0  0  0  0  0
   37.0897   15.3055   72.4134 C   0  0  0  0  0  0  0  0  0  0  0  0
   36.2394   14.4109   72.4629 O   0  0  0  0  0  0  0  0  0  0  0  0
   37.4077   17.6559   71.7112 C   0  0  0  0  0  0  0  0  0  0  0  0
   36.5979   17.7826   70.4386 C   0  0  0  0  0  0  0  0  0  0  0  0
   36.9149   16.3206   69.4349 S   0  0  2  0  0  0  0  0  0  0  0  0
   36.4411   16.9922   67.8175 C   0  0  0  0  0  0  0  0  0  0  0  0
   35.4407   15.3173   69.8243 C   0  0  0  0  0  0  0  0  0  0  0  0
   35.5150   14.0105   69.0393 C   0  0  1  0  0  0  0  0  0  0  0  0
   35.0358   14.2629   67.7389 O   0  0  0  0  0  0  0  0  0  0  0  0
   36.9624   13.5352   68.8736 C   0  0  1  0  0  0  0  0  0  0  0  0
   37.5613   12.6816   69.8609 O   0  0  0  0  0  0  0  0  0  0  0  0
   36.9987   12.9878   67.4082 C   0  0  1  0  0  0  0  0  0  0  0  0
   37.6343   11.6981   67.4240 O   0  0  0  0  0  0  0  0  0  0  0  0
   35.5307   13.2266   66.9057 C   0  0  2  0  0  0  0  0  0  0  0  0
   38.2305   15.0470   72.0604 O   0  0  0  0  0  0  0  0  0  0  0  0
   32.8496   13.0230   62.4477 N   0  0  0  0  0  0  0  0  0  0  0  0
   32.6051   12.3846   63.5977 C   0  0  0  0  0  0  0  0  0  0  0  0
   33.3998   12.5254   64.6549 N   0  0  0  0  0  0  0  0  0  0  0  0
   34.4729   13.3362   64.6187 C   0  0  0  0  0  0  0  0  0  0  0  0
   34.7685   14.0492   63.4261 C   0  0  0  0  0  0  0  0  0  0  0  0
   33.8968   13.8587   62.3132 C   0  0  0  0  0  0  0  0  0  0  0  0
   34.1116   14.5232   61.1203 N   0  0  0  0  0  0  0  0  0  0  0  0
   35.8793   14.7844   63.6631 N   0  0  0  0  0  0  0  0  0  0  0  0
   36.2742   14.5801   64.8863 C   0  0  0  0  0  0  0  0  0  0  0  0
   35.4381   13.6923   65.5178 N   0  0  0  0  0  0  0  0  0  0  0  0
  2  1  1  1  0  0  0
  2  3  1  0  0  0  0
  2  5  1  0  0  0  0
  3  4  1  0  0  0  0
  3 17  1  0  0  0  0
  5  6  1  0  0  0  0
  7  6  1  1  0  0  0
  7  8  1  0  0  0  0
  7  9  1  0  0  0  0
 10  9  1  1  0  0  0
 10 11  1  0  0  0  0
 10 12  1  0  0  0  0
 11 16  1  0  0  0  0
 12 13  1  1  0  0  0
 12 14  1  0  0  0  0
 14 15  1  1  0  0  0
 14 16  1  0  0  0  0
 16 27  1  6  0  0  0
 18 19  2  0  0  0  0
 18 23  1  0  0  0  0
 19 20  1  0  0  0  0
 20 21  2  0  0  0  0
 21 22  1  0  0  0  0
 21 27  1  0  0  0  0
 22 23  2  0  0  0  0
 22 25  1  0  0  0  0
 23 24  1  0  0  0  0
 25 26  2  0  0  0  0
 26 27  1  0  0  0  0
M  END
>  <CHROM.1>
101.40264349,-153.56951612,-80.31480469,-158.25228537,179.36130294,-82.43591699
-101.48963488,35.92282073,14.60370954,67.84506138,0.47879488,-1.21711634
0.21830618

>  <Name>
ligand

>  <RI>
0

>  <Rbt.Current_Directory>
/home/itssahil/PROJECTS/Mol_Feturizer/New_Systems/rnas/2QWY

>  <Rbt.Executable>
rbdock ($Id: //depot/dev/client3/rdock/2013.1/src/exe/rbdock.cxx#4 $)

>  <Rbt.Library>
libRbt.so (2013.1, Build901 2013/11/27)

>  <Rbt.Parameter_File>
/export/apps/rDock/src/rDock_2013.1_src/data/scripts/dock_solv.prm

>  <Rbt.Receptor>
prm/blind_docking_100.prm

>  <SCORE>
-13.0977

>  <SCORE.INTER>
-13.8503

>  <SCORE.INTER.CONST>
1

>  <SCORE.INTER.POLAR>
0

>  <SCORE.INTER.ROT>
7

>  <SCORE.INTER.SOLV>
11.2169

>  <SCORE.INTER.VDW>
-21.2392

>  <SCORE.INTER.norm>
-0.512976

>  <SCORE.INTRA>
-0.225365

>  <SCORE.INTRA.DIHEDRAL>
0.386092

>  <SCORE.INTRA.DIHEDRAL.0>
10.7382

>  <SCORE.INTRA.POLAR>
0

>  <SCORE.INTRA.POLAR.0>
0

>  <SCORE.INTRA.REPUL>
0

>  <SCORE.INTRA.REPUL.0>
0

>  <SCORE.INTRA.SOLV>
-0.589227

>  <SCORE.INTRA.SOLV.lig_0>
-49.2501

>  <SCORE.INTRA.VDW>
-0.123797

>  <SCORE.INTRA.VDW.0>
-1.75368

>  <SCORE.INTRA.norm>
-0.00834684

>  <SCORE.RESTR>
0.977993

>  <SCORE.RESTR.CAVITY>
0.977993

>  <SCORE.RESTR.norm>
0.036222

>  <SCORE.SYSTEM>
0

>  <SCORE.SYSTEM.CONST>
0

>  <SCORE.SYSTEM.DIHEDRAL>
0

>  <SCORE.SYSTEM.SOLV>
0

>  <SCORE.SYSTEM.norm>
0

>  <SCORE.heavy>
27

>  <SCORE.norm>
-0.485101

>  <RMSD>
12.541

$$$$
ligand
 OpenBabel11021811463D
libRbt.so/2013.1/901 2013/11/27
 27 29  0  0  0  0  0  0  0  0999 V2000
   37.7008   16.0047   73.3094 N   0  0  0  0  0  0  0  0  0  0  0  0
   38.3412   16.7709   72.2262 C   0  0  2  0  0  0  0  0  0  0  0  0
   37.3011   17.5671   71.4659 C   0  0  0  0  0  0  0  0  0  0  0  0
   36.1209   17.2023   71.4642 O   0  0  0  0  0  0  0  0  0  0  0  0
   39.0230   15.8027   71.2649 C   0  0  0  0  0  0  0  0  0  0  0  0
   38.0122   14.8450   70.6713 C   0  0  0  0  0  0  0  0  0  0  0  0
   38.8923   13.7312   69.5621 S   0  0  2  0  0  0  0  0  0  0  0  0
   39.1988   14.8892   68.1996 C   0  0  0  0  0  0  0  0  0  0  0  0
   37.5012   12.7693   68.8757 C   0  0  0  0  0  0  0  0  0  0  0  0
   36.3944   13.7348   68.4605 C   0  0  1  0  0  0  0  0  0  0  0  0
   36.4158   13.8340   67.0556 O   0  0  0  0  0  0  0  0  0  0  0  0
   35.0084   13.1931   68.8268 C   0  0  1  0  0  0  0  0  0  0  0  0
   34.4335   13.4844   70.1100 O   0  0  0  0  0  0  0  0  0  0  0  0
   34.1275   13.5889   67.5957 C   0  0  1  0  0  0  0  0  0  0  0  0
   32.9164   14.1918   68.0829 O   0  0  0  0  0  0  0  0  0  0  0  0
   35.1463   14.3245   66.6546 C   0  0  2  0  0  0  0  0  0  0  0  0
   37.6205   18.6091   70.9136 O   0  0  0  0  0  0  0  0  0  0  0  0
   32.8622   11.2378   63.1390 N   0  0  0  0  0  0  0  0  0  0  0  0
   32.7693   11.1939   64.4728 C   0  0  0  0  0  0  0  0  0  0  0  0
   33.4342   12.0480   65.2457 N   0  0  0  0  0  0  0  0  0  0  0  0
   34.2122   13.0092   64.7158 C   0  0  0  0  0  0  0  0  0  0  0  0
   34.3332   13.1091   63.3038 C   0  0  0  0  0  0  0  0  0  0  0  0
   33.6126   12.1649   62.5140 C   0  0  0  0  0  0  0  0  0  0  0  0
   33.6714   12.2013   61.1334 N   0  0  0  0  0  0  0  0  0  0  0  0
   35.1574   14.1503   63.0445 N   0  0  0  0  0  0  0  0  0  0  0  0
   35.5384   14.6842   64.1687 C   0  0  0  0  0  0  0  0  0  0  0  0
   34.9816   14.0142   65.2303 N   0  0  0  0  0  0  0  0  0  0  0  0
  2  1  1  1  0  0  0
  2  3  1  0  0  0  0
  2  5  1  0  0  0  0
  3  4  1  0  0  0  0
  3 17  1  0  0  0  0
  5  6  1  0  0  0  0
  7  6  1  1  0  0  0
  7  8  1  0  0  0  0
  7  9  1  0  0  0  0
 10  9  1  6  0  0  0
 10 11  1  0  0  0  0
 10 12  1  0  0  0  0
 11 16  1  0  0  0  0
 12 13  1  1  0  0  0
 12 14  1  0  0  0  0
 14 15  1  1  0  0  0
 14 16  1  0  0  0  0
 16 27  1  6  0  0  0
 18 19  2  0  0  0  0
 18 23  1  0  0  0  0
 19 20  1  0  0  0  0
 20 21  2  0  0  0  0
 21 22  1  0  0  0  0
 21 27  1  0  0  0  0
 22 23  2  0  0  0  0
 22 25  1  0  0  0  0
 23 24  1  0  0  0  0
 25 26  2  0  0  0  0
 26 27  1  0  0  0  0
M  END
>  <CHROM.1>
-24.29716386,59.75887242,-179.57055324,-73.44110747,46.76557966,104.66769557
103.43538116,35.91339666,14.19119222,67.67844361,1.11367089,0.17270087,1.22494365

>  <Name>
ligand

>  <RI>
0

>  <Rbt.Current_Directory>
/home/itssahil/PROJECTS/Mol_Feturizer/New_Systems/rnas/2QWY

>  <Rbt.Executable>
rbdock ($Id: //depot/dev/client3/rdock/2013.1/src/exe/rbdock.cxx#4 $)

>  <Rbt.Library>
libRbt.so (2013.1, Build901 2013/11/27)

>  <Rbt.Parameter_File>
/export/apps/rDock/src/rDock_2013.1_src/data/scripts/dock_solv.prm

>  <Rbt.Receptor>
prm/blind_docking_100.prm

>  <SCORE>
-9.46823

>  <SCORE.INTER>
-9.63687

>  <SCORE.INTER.CONST>
1

>  <SCORE.INTER.POLAR>
0

>  <SCORE.INTER.ROT>
7

>  <SCORE.INTER.SOLV>
17.5417

>  <SCORE.INTER.VDW>
-20.5385

>  <SCORE.INTER.norm>
-0.356921

>  <SCORE.INTRA>
0.168648

>  <SCORE.INTRA.DIHEDRAL>
-2.80974

>  <SCORE.INTRA.DIHEDRAL.0>
10.7382

>  <SCORE.INTRA.POLAR>
0

>  <SCORE.INTRA.POLAR.0>
0

>  <SCORE.INTRA.REPUL>
0

>  <SCORE.INTRA.REPUL.0>
0

>  <SCORE.INTRA.SOLV>
-0.2395

>  <SCORE.INTRA.SOLV.lig_0>
-49.2501

>  <SCORE.INTRA.VDW>
1.69327

>  <SCORE.INTRA.VDW.0>
-1.75368

>  <SCORE.INTRA.norm>
0.00624623

>  <SCORE.RESTR>
0

>  <SCORE.RESTR.CAVITY>
0

>  <SCORE.RESTR.norm>
0

>  <SCORE.SYSTEM>
0

>  <SCORE.SYSTEM.CONST>
0

>  <SCORE.SYSTEM.DIHEDRAL>
0

>  <SCORE.SYSTEM.SOLV>
0

>  <SCORE.SYSTEM.norm>
0

>  <SCORE.heavy>
27

>  <SCORE.norm>
-0.350675

>  <RMSD>
12.695

$$$$
ligand
 OpenBabel11021811463D
libRbt.so/2013.1/901 2013/11/27
 27 29  0  0  0  0  0  0  0  0999 V2000
   37.7120   16.6039   72.7527 N   0  0  0  0  0  0  0  0  0  0  0  0
   37.0515   15.3557   72.3326 C   0  0  2  0  0  0  0  0  0  0  0  0
   36.5669   14.5889   73.5455 C   0  0  0  0  0  0  0  0  0  0  0  0
   36.9276   14.9276   74.6773 O   0  0  0  0  0  0  0  0  0  0  0  0
   38.0519   14.4935   71.5695 C   0  0  0  0  0  0  0  0  0  0  0  0
   38.5366   15.2149   70.3301 C   0  0  0  0  0  0  0  0  0  0  0  0
   39.4702   14.0378   69.3361 S   0  0  2  0  0  0  0  0  0  0  0  0
   39.9465   15.1440   67.9793 C   0  0  0  0  0  0  0  0  0  0  0  0
   38.1112   13.1088   68.5476 C   0  0  0  0  0  0  0  0  0  0  0  0
   36.9983   14.0859   68.1783 C   0  0  1  0  0  0  0  0  0  0  0  0
   36.8631   14.0727   66.7763 O   0  0  0  0  0  0  0  0  0  0  0  0
   35.6452   13.6359   68.7396 C   0  0  1  0  0  0  0  0  0  0  0  0
   35.2305   14.0527   70.0498 O   0  0  0  0  0  0  0  0  0  0  0  0
   34.6440   13.9713   67.5848 C   0  0  1  0  0  0  0  0  0  0  0  0
   33.5178   14.6632   68.1510 O   0  0  0  0  0  0  0  0  0  0  0  0
   35.5739   14.5849   66.4787 C   0  0  2  0  0  0  0  0  0  0  0  0
   35.7630   13.6796   73.4056 O   0  0  0  0  0  0  0  0  0  0  0  0
   33.0327   11.1485   63.5058 N   0  0  0  0  0  0  0  0  0  0  0  0
   33.1244   11.1901   64.8398 C   0  0  0  0  0  0  0  0  0  0  0  0
   33.8330   12.1292   65.4603 N   0  0  0  0  0  0  0  0  0  0  0  0
   34.4701   13.0929   64.7708 C   0  0  0  0  0  0  0  0  0  0  0  0
   34.3922   13.1033   63.3523 C   0  0  0  0  0  0  0  0  0  0  0  0
   33.6318   12.0703   62.7283 C   0  0  0  0  0  0  0  0  0  0  0  0
   33.5006   12.0163   61.3532 N   0  0  0  0  0  0  0  0  0  0  0  0
   35.1065   14.1676   62.9191 N   0  0  0  0  0  0  0  0  0  0  0  0
   35.6021   14.7962   63.9454 C   0  0  0  0  0  0  0  0  0  0  0  0
   35.2375   14.1705   65.1123 N   0  0  0  0  0  0  0  0  0  0  0  0
  2  1  1  1  0  0  0
  2  3  1  0  0  0  0
  2  5  1  0  0  0  0
  3  4  1  0  0  0  0
  3 17  1  0  0  0  0
  5  6  1  0  0  0  0
  7  6  1  1  0  0  0
  7  8  1  0  0  0  0
  7  9  1  0  0  0  0
 10  9  1  6  0  0  0
 10 11  1  0  0  0  0
 10 12  1  0  0  0  0
 11 16  1  0  0  0  0
 12 13  1  1  0  0  0
 12 14  1  0  0  0  0
 14 15  1  1  0  0  0
 14 16  1  0  0  0  0
 16 27  1  6  0  0  0
 18 19  2  0  0  0  0
 18 23  1  0  0  0  0
 19 20  1  0  0  0  0
 20 21  2  0  0  0  0
 21 22  1  0  0  0  0
 21 27  1  0  0  0  0
 22 23  2  0  0  0  0
 22 25  1  0  0  0  0
 23 24  1  0  0  0  0
 25 26  2  0  0  0  0
 26 27  1  0  0  0  0
M  END
>  <CHROM.1>
-11.16306749,-61.03977810,-169.98018099,-178.82544858,39.09903682,116.91317462
97.55976632,36.08065560,13.89444873,67.92421125,-1.17993582,-0.29326603,-1.69440509

>  <Name>
ligand

>  <RI>
0

>  <Rbt.Current_Directory>
/home/itssahil/PROJECTS/Mol_Feturizer/New_Systems/rnas/2QWY

>  <Rbt.Executable>
rbdock ($Id: //depot/dev/client3/rdock/2013.1/src/exe/rbdock.cxx#4 $)

>  <Rbt.Library>
libRbt.so (2013.1, Build901 2013/11/27)

>  <Rbt.Parameter_File>
/export/apps/rDock/src/rDock_2013.1_src/data/scripts/dock_solv.prm

>  <Rbt.Receptor>
prm/blind_docking_100.prm

>  <SCORE>
-9.7624

>  <SCORE.INTER>
-9.63914

>  <SCORE.INTER.CONST>
1

>  <SCORE.INTER.POLAR>
0

>  <SCORE.INTER.ROT>
7

>  <SCORE.INTER.SOLV>
14.9486

>  <SCORE.INTER.VDW>
-19.6756

>  <SCORE.INTER.norm>
-0.357005

>  <SCORE.INTRA>
-0.123261

>  <SCORE.INTRA.DIHEDRAL>
-1.18899

>  <SCORE.INTRA.DIHEDRAL.0>
10.7382

>  <SCORE.INTRA.POLAR>
0

>  <SCORE.INTRA.POLAR.0>
0

>  <SCORE.INTRA.REPUL>
0

>  <SCORE.INTRA.REPUL.0>
0

>  <SCORE.INTRA.SOLV>
0.25218

>  <SCORE.INTRA.SOLV.lig_0>
-49.2501

>  <SCORE.INTRA.VDW>
0.345146

>  <SCORE.INTRA.VDW.0>
-1.75368

>  <SCORE.INTRA.norm>
-0.00456524

>  <SCORE.RESTR>
0

>  <SCORE.RESTR.CAVITY>
0

>  <SCORE.RESTR.norm>
0

>  <SCORE.SYSTEM>
0

>  <SCORE.SYSTEM.CONST>
0

>  <SCORE.SYSTEM.DIHEDRAL>
0

>  <SCORE.SYSTEM.SOLV>
0

>  <SCORE.SYSTEM.norm>
0

>  <SCORE.heavy>
27

>  <SCORE.norm>
-0.361571

>  <RMSD>
12.768

$$$$
ligand
 OpenBabel11021811463D
libRbt.so/2013.1/901 2013/11/27
 27 29  0  0  0  0  0  0  0  0999 V2000
   35.9152   19.0883   72.0583 N   0  0  0  0  0  0  0  0  0  0  0  0
   37.2935   18.5906   71.9058 C   0  0  2  0  0  0  0  0  0  0  0  0
   38.1359   19.6080   71.1648 C   0  0  0  0  0  0  0  0  0  0  0  0
   39.3337   19.7372   71.4376 O   0  0  0  0  0  0  0  0  0  0  0  0
   37.2701   17.2916   71.1067 C   0  0  0  0  0  0  0  0  0  0  0  0
   36.5782   17.4999   69.7766 C   0  0  0  0  0  0  0  0  0  0  0  0
   36.9726   16.0928   68.7230 S   0  0  2  0  0  0  0  0  0  0  0  0
   36.8670   16.9203   67.1119 C   0  0  0  0  0  0  0  0  0  0  0  0
   35.3813   15.1989   68.7437 C   0  0  0  0  0  0  0  0  0  0  0  0
   35.5837   13.8221   68.1168 C   0  0  1  0  0  0  0  0  0  0  0  0
   34.5547   13.6235   67.1755 O   0  0  0  0  0  0  0  0  0  0  0  0
   36.8975   13.7490   67.3313 C   0  0  1  0  0  0  0  0  0  0  0  0
   38.1112   13.3495   67.9866 O   0  0  0  0  0  0  0  0  0  0  0  0
   36.5167   12.9128   66.0648 C   0  0  1  0  0  0  0  0  0  0  0  0
   37.5145   11.8940   65.8802 O   0  0  0  0  0  0  0  0  0  0  0  0
   34.9935   12.6061   66.2892 C   0  0  2  0  0  0  0  0  0  0  0  0
   37.6438   20.2500   70.2491 O   0  0  0  0  0  0  0  0  0  0  0  0
   34.3865   14.8804   61.6456 N   0  0  0  0  0  0  0  0  0  0  0  0
   35.3371   15.0960   62.5619 C   0  0  0  0  0  0  0  0  0  0  0  0
   35.3484   14.4431   63.7206 N   0  0  0  0  0  0  0  0  0  0  0  0
   34.4144   13.5192   64.0106 C   0  0  0  0  0  0  0  0  0  0  0  0
   33.3911   13.2413   63.0651 C   0  0  0  0  0  0  0  0  0  0  0  0
   33.4105   13.9736   61.8413 C   0  0  0  0  0  0  0  0  0  0  0  0
   32.4546   13.7549   60.8670 N   0  0  0  0  0  0  0  0  0  0  0  0
   32.6011   12.2816   63.5995 N   0  0  0  0  0  0  0  0  0  0  0  0
   33.0574   11.9575   64.7745 C   0  0  0  0  0  0  0  0  0  0  0  0
   34.1765   12.6951   65.0741 N   0  0  0  0  0  0  0  0  0  0  0  0
  2  1  1  6  0  0  0
  2  3  1  0  0  0  0
  2  5  1  0  0  0  0
  3  4  1  0  0  0  0
  3 17  1  0  0  0  0
  5  6  1  0  0  0  0
  7  6  1  1  0  0  0
  7  8  1  0  0  0  0
  7  9  1  0  0  0  0
 10  9  1  6  0  0  0
 10 11  1  0  0  0  0
 10 12  1  0  0  0  0
 11 16  1  0  0  0  0
 12 13  1  1  0  0  0
 12 14  1  0  0  0  0
 14 15  1  1  0  0  0
 14 16  1  0  0  0  0
 16 27  1  6  0  0  0
 18 19  2  0  0  0  0
 18 23  1  0  0  0  0
 19 20  1  0  0  0  0
 20 21  2  0  0  0  0
 21 22  1  0  0  0  0
 21 27  1  0  0  0  0
 22 23  2  0  0  0  0
 22 25  1  0  0  0  0
 23 24  1  0  0  0  0
 25 26  2  0  0  0  0
 26 27  1  0  0  0  0
M  END
>  <CHROM.1>
146.37989704,55.76284337,164.92007961,-151.06013438,-169.28180716,-131.72971214
84.90099966,35.84081295,15.20765851,66.94146929,0.62103523,-1.10824175,0.06720231

>  <Name>
ligand

>  <RI>
0

>  <Rbt.Current_Directory>
/home/itssahil/PROJECTS/Mol_Feturizer/New_Systems/rnas/2QWY

>  <Rbt.Executable>
rbdock ($Id: //depot/dev/client3/rdock/2013.1/src/exe/rbdock.cxx#4 $)

>  <Rbt.Library>
libRbt.so (2013.1, Build901 2013/11/27)

>  <Rbt.Parameter_File>
/export/apps/rDock/src/rDock_2013.1_src/data/scripts/dock_solv.prm

>  <Rbt.Receptor>
prm/blind_docking_100.prm

>  <SCORE>
-9.83708

>  <SCORE.INTER>
-14.8424

>  <SCORE.INTER.CONST>
1

>  <SCORE.INTER.POLAR>
0

>  <SCORE.INTER.ROT>
7

>  <SCORE.INTER.SOLV>
23.4515

>  <SCORE.INTER.VDW>
-25.9788

>  <SCORE.INTER.norm>
-0.549719

>  <SCORE.INTRA>
3.97806

>  <SCORE.INTRA.DIHEDRAL>
2.08687

>  <SCORE.INTRA.DIHEDRAL.0>
10.7382

>  <SCORE.INTRA.POLAR>
0

>  <SCORE.INTRA.POLAR.0>
0

>  <SCORE.INTRA.REPUL>
0

>  <SCORE.INTRA.REPUL.0>
0

>  <SCORE.INTRA.SOLV>
-0.0807025

>  <SCORE.INTRA.SOLV.lig_0>
-49.2501

>  <SCORE.INTRA.VDW>
2.97498

>  <SCORE.INTRA.VDW.0>
-1.75368

>  <SCORE.INTRA.norm>
0.147335

>  <SCORE.RESTR>
1.02729

>  <SCORE.RESTR.CAVITY>
1.02729

>  <SCORE.RESTR.norm>
0.0380477

>  <SCORE.SYSTEM>
0

>  <SCORE.SYSTEM.CONST>
0

>  <SCORE.SYSTEM.DIHEDRAL>
0

>  <SCORE.SYSTEM.SOLV>
0

>  <SCORE.SYSTEM.norm>
0

>  <SCORE.heavy>
27

>  <SCORE.norm>
-0.364336

>  <RMSD>
13.012

$$$$
ligand
 OpenBabel11021811463D
libRbt.so/2013.1/901 2013/11/27
 27 29  0  0  0  0  0  0  0  0999 V2000
   36.0445   18.8674   73.0373 N   0  0  0  0  0  0  0  0  0  0  0  0
   36.6117   17.7073   72.3280 C   0  0  2  0  0  0  0  0  0  0  0  0
   38.0542   17.4991   72.7399 C   0  0  0  0  0  0  0  0  0  0  0  0
   38.8712   18.4180   72.6215 O   0  0  0  0  0  0  0  0  0  0  0  0
   36.5586   17.9655   70.8257 C   0  0  0  0  0  0  0  0  0  0  0  0
   37.0739   16.7639   70.0627 C   0  0  0  0  0  0  0  0  0  0  0  0
   35.7658   15.5255   70.0346 S   0  0  2  0  0  0  0  0  0  0  0  0
   36.1494   14.6881   71.5977 C   0  0  0  0  0  0  0  0  0  0  0  0
   36.4562   14.3320   68.8386 C   0  0  0  0  0  0  0  0  0  0  0  0
   35.3225   13.7998   67.9662 C   0  0  1  0  0  0  0  0  0  0  0  0
   35.3858   14.4657   66.7265 O   0  0  0  0  0  0  0  0  0  0  0  0
   35.5023   12.3096   67.6574 C   0  0  1  0  0  0  0  0  0  0  0  0
   34.9521   11.3167   68.5369 O   0  0  0  0  0  0  0  0  0  0  0  0
   35.0603   12.1936   66.1608 C   0  0  1  0  0  0  0  0  0  0  0  0
   34.1557   11.0821   66.0426 O   0  0  0  0  0  0  0  0  0  0  0  0
   34.6752   13.6700   65.7912 C   0  0  2  0  0  0  0  0  0  0  0  0
   38.3906   16.4434   73.2549 O   0  0  0  0  0  0  0  0  0  0  0  0
   33.2228   14.4419   60.8516 N   0  0  0  0  0  0  0  0  0  0  0  0
   32.4861   14.0033   61.8786 C   0  0  0  0  0  0  0  0  0  0  0  0
   33.0090   13.8384   63.0904 N   0  0  0  0  0  0  0  0  0  0  0  0
   34.2988   14.1287   63.3398 C   0  0  0  0  0  0  0  0  0  0  0  0
   35.1210   14.6125   62.2871 C   0  0  0  0  0  0  0  0  0  0  0  0
   34.5221   14.7622   61.0012 C   0  0  0  0  0  0  0  0  0  0  0  0
   35.2530   15.2354   59.9276 N   0  0  0  0  0  0  0  0  0  0  0  0
   36.3518   14.8280   62.8060 N   0  0  0  0  0  0  0  0  0  0  0  0
   36.3422   14.5211   64.0708 C   0  0  0  0  0  0  0  0  0  0  0  0
   35.0964   14.0833   64.4482 N   0  0  0  0  0  0  0  0  0  0  0  0
  2  1  1  1  0  0  0
  2  3  1  0  0  0  0
  2  5  1  0  0  0  0
  3  4  1  0  0  0  0
  3 17  1  0  0  0  0
  5  6  1  0  0  0  0
  7  6  1  1  0  0  0
  7  8  1  0  0  0  0
  7  9  1  0  0  0  0
 10  9  1  1  0  0  0
 10 11  1  0  0  0  0
 10 12  1  0  0  0  0
 11 16  1  0  0  0  0
 12 13  1  1  0  0  0
 12 14  1  0  0  0  0
 14 15  1  1  0  0  0
 14 16  1  0  0  0  0
 16 27  1  6  0  0  0
 18 19  2  0  0  0  0
 18 23  1  0  0  0  0
 19 20  1  0  0  0  0
 20 21  2  0  0  0  0
 21 22  1  0  0  0  0
 21 27  1  0  0  0  0
 22 23  2  0  0  0  0
 22 25  1  0  0  0  0
 23 24  1  0  0  0  0
 25 26  2  0  0  0  0
 26 27  1  0  0  0  0
M  END
>  <CHROM.1>
-55.72763303,-177.30413040,78.15520156,-87.44698202,-141.52139697,101.93804215
-144.80459489,35.62799772,14.89736434,67.24935307,-0.70595377,-1.20844548
-1.04235688

>  <Name>
ligand

>  <RI>
0

>  <Rbt.Current_Directory>
/home/itssahil/PROJECTS/Mol_Feturizer/New_Systems/rnas/2QWY

>  <Rbt.Executable>
rbdock ($Id: //depot/dev/client3/rdock/2013.1/src/exe/rbdock.cxx#4 $)

>  <Rbt.Library>
libRbt.so (2013.1, Build901 2013/11/27)

>  <Rbt.Parameter_File>
/export/apps/rDock/src/rDock_2013.1_src/data/scripts/dock_solv.prm

>  <Rbt.Receptor>
prm/blind_docking_100.prm

>  <SCORE>
-5.6141

>  <SCORE.INTER>
-7.0012

>  <SCORE.INTER.CONST>
1

>  <SCORE.INTER.POLAR>
0

>  <SCORE.INTER.ROT>
7

>  <SCORE.INTER.SOLV>
18.5944

>  <SCORE.INTER.VDW>
-19.1323

>  <SCORE.INTER.norm>
-0.259304

>  <SCORE.INTRA>
0.628858

>  <SCORE.INTRA.DIHEDRAL>
2.63767

>  <SCORE.INTRA.DIHEDRAL.0>
10.7382

>  <SCORE.INTRA.POLAR>
0

>  <SCORE.INTRA.POLAR.0>
0

>  <SCORE.INTRA.REPUL>
0

>  <SCORE.INTRA.REPUL.0>
0

>  <SCORE.INTRA.SOLV>
-0.909226

>  <SCORE.INTRA.SOLV.lig_0>
-49.2501

>  <SCORE.INTRA.VDW>
-0.235364

>  <SCORE.INTRA.VDW.0>
-1.75368

>  <SCORE.INTRA.norm>
0.023291

>  <SCORE.RESTR>
0.758244

>  <SCORE.RESTR.CAVITY>
0.758244

>  <SCORE.RESTR.norm>
0.0280831

>  <SCORE.SYSTEM>
0

>  <SCORE.SYSTEM.CONST>
0

>  <SCORE.SYSTEM.DIHEDRAL>
0

>  <SCORE.SYSTEM.SOLV>
0

>  <SCORE.SYSTEM.norm>
0

>  <SCORE.heavy>
27

>  <SCORE.norm>
-0.20793

>  <RMSD>
13.277

$$$$
ligand
 OpenBabel11021811463D
libRbt.so/2013.1/901 2013/11/27
 27 29  0  0  0  0  0  0  0  0999 V2000
   36.7476   15.2604   72.5218 N   0  0  0  0  0  0  0  0  0  0  0  0
   36.4752   14.2305   71.5040 C   0  0  2  0  0  0  0  0  0  0  0  0
   35.2963   13.3789   71.9270 C   0  0  0  0  0  0  0  0  0  0  0  0
   35.1919   13.0039   73.0993 O   0  0  0  0  0  0  0  0  0  0  0  0
   37.7027   13.3374   71.3559 C   0  0  0  0  0  0  0  0  0  0  0  0
   38.6350   13.8887   70.2984 C   0  0  0  0  0  0  0  0  0  0  0  0
   37.9690   13.4380   68.6863 S   0  0  2  0  0  0  0  0  0  0  0  0
   39.5017   12.8524   67.9120 C   0  0  0  0  0  0  0  0  0  0  0  0
   37.8125   15.0841   67.9133 C   0  0  0  0  0  0  0  0  0  0  0  0
   36.4018   15.2293   67.3492 C   0  0  1  0  0  0  0  0  0  0  0  0
   36.3422   14.4966   66.1477 O   0  0  0  0  0  0  0  0  0  0  0  0
   35.3567   14.6045   68.2797 C   0  0  1  0  0  0  0  0  0  0  0  0
   34.7498   15.3899   69.3175 O   0  0  0  0  0  0  0  0  0  0  0  0
   34.3565   13.9172   67.2920 C   0  0  1  0  0  0  0  0  0  0  0  0
   33.0198   14.2796   67.6787 O   0  0  0  0  0  0  0  0  0  0  0  0
   34.9716   14.2415   65.8844 C   0  0  2  0  0  0  0  0  0  0  0  0
   34.4137   13.1238   71.1217 O   0  0  0  0  0  0  0  0  0  0  0  0
   33.2583   12.6387   61.2369 N   0  0  0  0  0  0  0  0  0  0  0  0
   33.0912   13.8303   61.8217 C   0  0  0  0  0  0  0  0  0  0  0  0
   33.5779   14.0860   63.0328 N   0  0  0  0  0  0  0  0  0  0  0  0
   34.2804   13.1615   63.7125 C   0  0  0  0  0  0  0  0  0  0  0  0
   34.4996   11.8846   63.1299 C   0  0  0  0  0  0  0  0  0  0  0  0
   33.9492   11.6497   61.8351 C   0  0  0  0  0  0  0  0  0  0  0  0
   34.1261   10.4362   61.1971 N   0  0  0  0  0  0  0  0  0  0  0  0
   35.2297   11.1619   64.0103 N   0  0  0  0  0  0  0  0  0  0  0  0
   35.4700   11.8876   65.0637 C   0  0  0  0  0  0  0  0  0  0  0  0
   34.9037   13.1314   64.9279 N   0  0  0  0  0  0  0  0  0  0  0  0
  2  1  1  1  0  0  0
  2  3  1  0  0  0  0
  2  5  1  0  0  0  0
  3  4  1  0  0  0  0
  3 17  1  0  0  0  0
  5  6  1  0  0  0  0
  7  6  1  1  0  0  0
  7  8  1  0  0  0  0
  7  9  1  0  0  0  0
 10  9  1  1  0  0  0
 10 11  1  0  0  0  0
 10 12  1  0  0  0  0
 11 16  1  0  0  0  0
 12 13  1  6  0  0  0
 12 14  1  0  0  0  0
 14 15  1  6  0  0  0
 14 16  1  0  0  0  0
 16 27  1  6  0  0  0
 18 19  2  0  0  0  0
 18 23  1  0  0  0  0
 19 20  1  0  0  0  0
 20 21  2  0  0  0  0
 21 22  1  0  0  0  0
 21 27  1  0  0  0  0
 22 23  2  0  0  0  0
 22 25  1  0  0  0  0
 23 24  1  0  0  0  0
 25 26  2  0  0  0  0
 26 27  1  0  0  0  0
M  END
>  <CHROM.1>
-42.35184976,-89.96605184,-78.91310407,-134.09433558,-129.27820329,-77.04276301
-123.36661674,35.59646580,13.49304151,67.17803313,1.27756060,-0.13226068
1.35308663

>  <Name>
ligand

>  <RI>
0

>  <Rbt.Current_Directory>
/home/itssahil/PROJECTS/Mol_Feturizer/New_Systems/rnas/2QWY

>  <Rbt.Executable>
rbdock ($Id: //depot/dev/client3/rdock/2013.1/src/exe/rbdock.cxx#4 $)

>  <Rbt.Library>
libRbt.so (2013.1, Build901 2013/11/27)

>  <Rbt.Parameter_File>
/export/apps/rDock/src/rDock_2013.1_src/data/scripts/dock_solv.prm

>  <Rbt.Receptor>
prm/blind_docking_100.prm

>  <SCORE>
-9.71892

>  <SCORE.INTER>
-11.7451

>  <SCORE.INTER.CONST>
1

>  <SCORE.INTER.POLAR>
0

>  <SCORE.INTER.ROT>
7

>  <SCORE.INTER.SOLV>
15.6785

>  <SCORE.INTER.VDW>
-21.3229

>  <SCORE.INTER.norm>
-0.435003

>  <SCORE.INTRA>
1.84603

>  <SCORE.INTRA.DIHEDRAL>
6.16769

>  <SCORE.INTRA.DIHEDRAL.0>
10.7382

>  <SCORE.INTRA.POLAR>
0

>  <SCORE.INTRA.POLAR.0>
0

>  <SCORE.INTRA.REPUL>
0

>  <SCORE.INTRA.REPUL.0>
0

>  <SCORE.INTRA.SOLV>
0.732893

>  <SCORE.INTRA.SOLV.lig_0>
-49.2501

>  <SCORE.INTRA.VDW>
-1.60426

>  <SCORE.INTRA.VDW.0>
-1.75368

>  <SCORE.INTRA.norm>
0.0683716

>  <SCORE.RESTR>
0.18012

>  <SCORE.RESTR.CAVITY>
0.18012

>  <SCORE.RESTR.norm>
0.0066711

>  <SCORE.SYSTEM>
0

>  <SCORE.SYSTEM.CONST>
0

>  <SCORE.SYSTEM.DIHEDRAL>
0

>  <SCORE.SYSTEM.SOLV>
0

>  <SCORE.SYSTEM.norm>
0

>  <SCORE.heavy>
27

>  <SCORE.norm>
-0.35996

>  <RMSD>
13.300

$$$$
ligand
 OpenBabel11021811463D
libRbt.so/2013.1/901 2013/11/27
 27 29  0  0  0  0  0  0  0  0999 V2000
   38.1678   15.9258   66.5992 N   0  0  0  0  0  0  0  0  0  0  0  0
   36.8881   15.2234   66.7979 C   0  0  2  0  0  0  0  0  0  0  0  0
   36.3237   14.7814   65.4638 C   0  0  0  0  0  0  0  0  0  0  0  0
   37.0715   14.6411   64.4906 O   0  0  0  0  0  0  0  0  0  0  0  0
   35.8964   16.1709   67.4651 C   0  0  0  0  0  0  0  0  0  0  0  0
   35.1934   15.4798   68.6138 C   0  0  0  0  0  0  0  0  0  0  0  0
   33.9387   14.3905   67.9177 S   0  0  2  0  0  0  0  0  0  0  0  0
   32.4617   15.2873   68.4707 C   0  0  0  0  0  0  0  0  0  0  0  0
   33.9705   13.0230   69.1262 C   0  0  0  0  0  0  0  0  0  0  0  0
   35.0030   11.9934   68.6752 C   0  0  1  0  0  0  0  0  0  0  0  0
   34.5785   11.4735   67.4368 O   0  0  0  0  0  0  0  0  0  0  0  0
   36.3681   12.6407   68.4184 C   0  0  1  0  0  0  0  0  0  0  0  0
   37.3244   12.7597   69.4830 O   0  0  0  0  0  0  0  0  0  0  0  0
   36.8836   11.9039   67.1378 C   0  0  1  0  0  0  0  0  0  0  0  0
   38.2424   11.4944   67.3693 O   0  0  0  0  0  0  0  0  0  0  0  0
   35.7182   10.9033   66.8132 C   0  0  2  0  0  0  0  0  0  0  0  0
   35.1392   14.4965   65.3718 O   0  0  0  0  0  0  0  0  0  0  0  0
   32.9214   12.6796   62.7974 N   0  0  0  0  0  0  0  0  0  0  0  0
   32.9004   13.0846   64.0723 C   0  0  0  0  0  0  0  0  0  0  0  0
   33.6685   12.5149   64.9967 N   0  0  0  0  0  0  0  0  0  0  0  0
   34.5180   11.5201   64.6824 C   0  0  0  0  0  0  0  0  0  0  0  0
   34.5902   11.0628   63.3393 C   0  0  0  0  0  0  0  0  0  0  0  0
   33.7398   11.6936   62.3836 C   0  0  0  0  0  0  0  0  0  0  0  0
   33.7573   11.3116   61.0552 N   0  0  0  0  0  0  0  0  0  0  0  0
   35.5153   10.0762   63.3007 N   0  0  0  0  0  0  0  0  0  0  0  0
   36.0050    9.9023   64.4940 C   0  0  0  0  0  0  0  0  0  0  0  0
   35.4202   10.7705   65.3830 N   0  0  0  0  0  0  0  0  0  0  0  0
  2  1  1  6  0  0  0
  2  3  1  0  0  0  0
  2  5  1  0  0  0  0
  3  4  1  0  0  0  0
  3 17  1  0  0  0  0
  5  6  1  0  0  0  0
  7  6  1  1  0  0  0
  7  8  1  0  0  0  0
  7  9  1  0  0  0  0
 10  9  1  6  0  0  0
 10 11  1  0  0  0  0
 10 12  1  0  0  0  0
 11 16  1  0  0  0  0
 12 13  1  1  0  0  0
 12 14  1  0  0  0  0
 14 15  1  1  0  0  0
 14 16  1  0  0  0  0
 16 27  1  6  0  0  0
 18 19  2  0  0  0  0
 18 23  1  0  0  0  0
 19 20  1  0  0  0  0
 20 21  2  0  0  0  0
 21 22  1  0  0  0  0
 21 27  1  0  0  0  0
 22 23  2  0  0  0  0
 22 25  1  0  0  0  0
 23 24  1  0  0  0  0
 25 26  2  0  0  0  0
 26 27  1  0  0  0  0
M  END
>  <CHROM.1>
22.51034140,-133.46095427,-77.09519324,-111.02489252,-89.46923640,-63.03997458
24.86700939,35.23531513,12.97010714,66.16160170,1.22797238,-0.82372884,0.79181012

>  <Name>
ligand

>  <RI>
0

>  <Rbt.Current_Directory>
/home/itssahil/PROJECTS/Mol_Feturizer/New_Systems/rnas/2QWY

>  <Rbt.Executable>
rbdock ($Id: //depot/dev/client3/rdock/2013.1/src/exe/rbdock.cxx#4 $)

>  <Rbt.Library>
libRbt.so (2013.1, Build901 2013/11/27)

>  <Rbt.Parameter_File>
/export/apps/rDock/src/rDock_2013.1_src/data/scripts/dock_solv.prm

>  <Rbt.Receptor>
prm/blind_docking_80.prm

>  <SCORE>
-10.1735

>  <SCORE.INTER>
-10.1378

>  <SCORE.INTER.CONST>
1

>  <SCORE.INTER.POLAR>
0

>  <SCORE.INTER.ROT>
7

>  <SCORE.INTER.SOLV>
22.6542

>  <SCORE.INTER.VDW>
-22.5766

>  <SCORE.INTER.norm>
-0.375474

>  <SCORE.INTRA>
-0.702033

>  <SCORE.INTRA.DIHEDRAL>
3.04147

>  <SCORE.INTRA.DIHEDRAL.0>
10.7382

>  <SCORE.INTRA.POLAR>
0

>  <SCORE.INTRA.POLAR.0>
0

>  <SCORE.INTRA.REPUL>
0

>  <SCORE.INTRA.REPUL.0>
0

>  <SCORE.INTRA.SOLV>
0.544538

>  <SCORE.INTRA.SOLV.lig_0>
-49.2501

>  <SCORE.INTRA.VDW>
-2.49504

>  <SCORE.INTRA.VDW.0>
-1.75368

>  <SCORE.INTRA.norm>
-0.0260012

>  <SCORE.RESTR>
0.666299

>  <SCORE.RESTR.CAVITY>
0.666299

>  <SCORE.RESTR.norm>
0.0246777

>  <SCORE.SYSTEM>
0

>  <SCORE.SYSTEM.CONST>
0

>  <SCORE.SYSTEM.DIHEDRAL>
0

>  <SCORE.SYSTEM.SOLV>
0

>  <SCORE.SYSTEM.norm>
0

>  <SCORE.heavy>
27

>  <SCORE.norm>
-0.376797

>  <RMSD>
13.623

$$$$
ligand
 OpenBabel11021811463D
libRbt.so/2013.1/901 2013/11/27
 27 29  0  0  0  0  0  0  0  0999 V2000
   32.9962   13.7441   61.0643 N   0  0  0  0  0  0  0  0  0  0  0  0
   33.5468   14.1554   62.3675 C   0  0  2  0  0  0  0  0  0  0  0  0
   34.7867   15.0014   62.1656 C   0  0  0  0  0  0  0  0  0  0  0  0
   34.9250   15.6608   61.1302 O   0  0  0  0  0  0  0  0  0  0  0  0
   33.9215   12.9115   63.1667 C   0  0  0  0  0  0  0  0  0  0  0  0
   32.8286   11.8688   63.0680 C   0  0  0  0  0  0  0  0  0  0  0  0
   33.5889   10.2501   63.2846 S   0  0  2  0  0  0  0  0  0  0  0  0
   32.2516    9.2278   62.6077 C   0  0  0  0  0  0  0  0  0  0  0  0
   33.3324    9.9931   65.0734 C   0  0  0  0  0  0  0  0  0  0  0  0
   34.6737   10.1379   65.7874 C   0  0  1  0  0  0  0  0  0  0  0  0
   35.1851   11.4152   65.4856 O   0  0  0  0  0  0  0  0  0  0  0  0
   34.5079   10.0959   67.3103 C   0  0  1  0  0  0  0  0  0  0  0  0
   34.5579    8.8426   68.0094 O   0  0  0  0  0  0  0  0  0  0  0  0
   35.5152   11.1819   67.8147 C   0  0  1  0  0  0  0  0  0  0  0  0
   36.2874   10.6169   68.8881 O   0  0  0  0  0  0  0  0  0  0  0  0
   36.1456   11.7241   66.4831 C   0  0  2  0  0  0  0  0  0  0  0  0
   35.6152   15.0847   63.0597 O   0  0  0  0  0  0  0  0  0  0  0  0
   35.8510   16.1696   69.1766 N   0  0  0  0  0  0  0  0  0  0  0  0
   35.5278   14.9327   69.5708 C   0  0  0  0  0  0  0  0  0  0  0  0
   35.6421   13.8893   68.7539 N   0  0  0  0  0  0  0  0  0  0  0  0
   36.1107   14.0316   67.5009 C   0  0  0  0  0  0  0  0  0  0  0  0
   36.4827   15.3220   67.0376 C   0  0  0  0  0  0  0  0  0  0  0  0
   36.3320   16.4139   67.9428 C   0  0  0  0  0  0  0  0  0  0  0  0
   36.6800   17.6989   67.5706 N   0  0  0  0  0  0  0  0  0  0  0  0
   36.9205   15.1806   65.7652 N   0  0  0  0  0  0  0  0  0  0  0  0
   36.8478   13.9265   65.4249 C   0  0  0  0  0  0  0  0  0  0  0  0
   36.3528   13.1762   66.4633 N   0  0  0  0  0  0  0  0  0  0  0  0
  2  1  1  6  0  0  0
  2  3  1  0  0  0  0
  2  5  1  0  0  0  0
  3  4  1  0  0  0  0
  3 17  1  0  0  0  0
  5  6  1  0  0  0  0
  7  6  1  1  0  0  0
  7  8  1  0  0  0  0
  7  9  1  0  0  0  0
 10  9  1  6  0  0  0
 10 11  1  0  0  0  0
 10 12  1  0  0  0  0
 11 16  1  0  0  0  0
 12 13  1  1  0  0  0
 12 14  1  0  0  0  0
 14 15  1  1  0  0  0
 14 16  1  0  0  0  0
 16 27  1  1  0  0  0
 18 19  2  0  0  0  0
 18 23  1  0  0  0  0
 19 20  1  0  0  0  0
 20 21  2  0  0  0  0
 21 22  1  0  0  0  0
 21 27  1  0  0  0  0
 22 23  2  0  0  0  0
 22 25  1  0  0  0  0
 23 24  1  0  0  0  0
 25 26  2  0  0  0  0
 26 27  1  0  0  0  0
M  END
>  <CHROM.1>
27.11307662,-44.19122262,152.68570220,-162.71106205,-107.67009148,57.33866738
118.90485195,34.99227958,12.86480332,65.46986021,-3.02482071,1.14541281,2.42042920

>  <Name>
ligand

>  <RI>
0

>  <Rbt.Current_Directory>
/home/itssahil/PROJECTS/Mol_Feturizer/New_Systems/rnas/2QWY

>  <Rbt.Executable>
rbdock ($Id: //depot/dev/client3/rdock/2013.1/src/exe/rbdock.cxx#4 $)

>  <Rbt.Library>
libRbt.so (2013.1, Build901 2013/11/27)

>  <Rbt.Parameter_File>
/export/apps/rDock/src/rDock_2013.1_src/data/scripts/dock_solv.prm

>  <Rbt.Receptor>
prm/blind_docking_80.prm

>  <SCORE>
-5.46939

>  <SCORE.INTER>
-7.30693

>  <SCORE.INTER.CONST>
1

>  <SCORE.INTER.POLAR>
0

>  <SCORE.INTER.ROT>
7

>  <SCORE.INTER.SOLV>
22.388

>  <SCORE.INTER.VDW>
-20.6006

>  <SCORE.INTER.norm>
-0.270627

>  <SCORE.INTRA>
0.252104

>  <SCORE.INTRA.DIHEDRAL>
0.378478

>  <SCORE.INTRA.DIHEDRAL.0>
10.7382

>  <SCORE.INTRA.POLAR>
0

>  <SCORE.INTRA.POLAR.0>
0

>  <SCORE.INTRA.REPUL>
0

>  <SCORE.INTRA.REPUL.0>
0

>  <SCORE.INTRA.SOLV>
0.172409

>  <SCORE.INTRA.SOLV.lig_0>
-49.2501

>  <SCORE.INTRA.VDW>
-0.0233394

>  <SCORE.INTRA.VDW.0>
-1.75368

>  <SCORE.INTRA.norm>
0.00933717

>  <SCORE.RESTR>
1.58544

>  <SCORE.RESTR.CAVITY>
1.58544

>  <SCORE.RESTR.norm>
0.0587199

>  <SCORE.SYSTEM>
0

>  <SCORE.SYSTEM.CONST>
0

>  <SCORE.SYSTEM.DIHEDRAL>
0

>  <SCORE.SYSTEM.SOLV>
0

>  <SCORE.SYSTEM.norm>
0

>  <SCORE.heavy>
27

>  <SCORE.norm>
-0.20257

>  <RMSD>
13.989

$$$$
ligand
 OpenBabel11021811463D
libRbt.so/2013.1/901 2013/11/27
 27 29  0  0  0  0  0  0  0  0999 V2000
   38.4842   15.5323   68.0904 N   0  0  0  0  0  0  0  0  0  0  0  0
   37.0519   15.4649   67.7518 C   0  0  2  0  0  0  0  0  0  0  0  0
   36.8075   16.0911   66.3945 C   0  0  0  0  0  0  0  0  0  0  0  0
   36.3686   15.4051   65.4658 O   0  0  0  0  0  0  0  0  0  0  0  0
   36.2538   16.2316   68.8013 C   0  0  0  0  0  0  0  0  0  0  0  0
   35.1507   15.3631   69.3673 C   0  0  0  0  0  0  0  0  0  0  0  0
   34.2695   14.6185   67.9837 S   0  0  2  0  0  0  0  0  0  0  0  0
   32.5732   14.9899   68.5091 C   0  0  0  0  0  0  0  0  0  0  0  0
   34.3766   12.8511   68.4269 C   0  0  0  0  0  0  0  0  0  0  0  0
   34.7413   12.0531   67.1780 C   0  0  1  0  0  0  0  0  0  0  0  0
   33.9737   12.5547   66.1087 O   0  0  0  0  0  0  0  0  0  0  0  0
   36.2071   12.2638   66.7838 C   0  0  1  0  0  0  0  0  0  0  0  0
   37.2304   11.4106   67.3195 O   0  0  0  0  0  0  0  0  0  0  0  0
   36.1548   12.3430   65.2219 C   0  0  1  0  0  0  0  0  0  0  0  0
   37.1796   11.4848   64.6921 O   0  0  0  0  0  0  0  0  0  0  0  0
   34.6263   12.1652   64.9106 C   0  0  2  0  0  0  0  0  0  0  0  0
   36.9787   17.2911   66.2415 O   0  0  0  0  0  0  0  0  0  0  0  0
   35.8609   15.6166   61.2136 N   0  0  0  0  0  0  0  0  0  0  0  0
   36.6688   15.0067   62.0883 C   0  0  0  0  0  0  0  0  0  0  0  0
   36.1976   14.1545   62.9943 N   0  0  0  0  0  0  0  0  0  0  0  0
   34.8880   13.8521   63.0539 C   0  0  0  0  0  0  0  0  0  0  0  0
   33.9892   14.4608   62.1375 C   0  0  0  0  0  0  0  0  0  0  0  0
   34.5359   15.3775   61.1913 C   0  0  0  0  0  0  0  0  0  0  0  0
   33.7285   16.0044   60.2608 N   0  0  0  0  0  0  0  0  0  0  0  0
   32.7534   13.9818   62.4095 N   0  0  0  0  0  0  0  0  0  0  0  0
   32.8291   13.1417   63.4007 C   0  0  0  0  0  0  0  0  0  0  0  0
   34.1273   13.0279   63.8342 N   0  0  0  0  0  0  0  0  0  0  0  0
  2  1  1  1  0  0  0
  2  3  1  0  0  0  0
  2  5  1  0  0  0  0
  3  4  1  0  0  0  0
  3 17  1  0  0  0  0
  5  6  1  0  0  0  0
  7  6  1  1  0  0  0
  7  8  1  0  0  0  0
  7  9  1  0  0  0  0
 10  9  1  1  0  0  0
 10 11  1  0  0  0  0
 10 12  1  0  0  0  0
 11 16  1  0  0  0  0
 12 13  1  6  0  0  0
 12 14  1  0  0  0  0
 14 15  1  6  0  0  0
 14 16  1  0  0  0  0
 16 27  1  6  0  0  0
 18 19  2  0  0  0  0
 18 23  1  0  0  0  0
 19 20  1  0  0  0  0
 20 21  2  0  0  0  0
 21 22  1  0  0  0  0
 21 27  1  0  0  0  0
 22 23  2  0  0  0  0
 22 25  1  0  0  0  0
 23 24  1  0  0  0  0
 25 26  2  0  0  0  0
 26 27  1  0  0  0  0
M  END
>  <CHROM.1>
117.18364454,-127.10918717,-48.77750107,-131.70692343,-135.89555898,-43.04487426
120.82434436,35.30926840,14.18622202,65.46023383,-1.21300203,-1.05695345
-1.23580666

>  <Name>
ligand

>  <RI>
0

>  <Rbt.Current_Directory>
/home/itssahil/PROJECTS/Mol_Feturizer/New_Systems/rnas/2QWY

>  <Rbt.Executable>
rbdock ($Id: //depot/dev/client3/rdock/2013.1/src/exe/rbdock.cxx#4 $)

>  <Rbt.Library>
libRbt.so (2013.1, Build901 2013/11/27)

>  <Rbt.Parameter_File>
/export/apps/rDock/src/rDock_2013.1_src/data/scripts/dock_solv.prm

>  <Rbt.Receptor>
prm/blind_docking_80.prm

>  <SCORE>
-13.4192

>  <SCORE.INTER>
-15.8145

>  <SCORE.INTER.CONST>
1

>  <SCORE.INTER.POLAR>
0

>  <SCORE.INTER.ROT>
7

>  <SCORE.INTER.SOLV>
16.2027

>  <SCORE.INTER.VDW>
-24.2106

>  <SCORE.INTER.norm>
-0.585723

>  <SCORE.INTRA>
2.14814

>  <SCORE.INTRA.DIHEDRAL>
8.01363

>  <SCORE.INTRA.DIHEDRAL.0>
10.7382

>  <SCORE.INTRA.POLAR>
0

>  <SCORE.INTRA.POLAR.0>
0

>  <SCORE.INTRA.REPUL>
0

>  <SCORE.INTRA.REPUL.0>
0

>  <SCORE.INTRA.SOLV>
0.0927144

>  <SCORE.INTRA.SOLV.lig_0>
-49.2501

>  <SCORE.INTRA.VDW>
-1.90503

>  <SCORE.INTRA.VDW.0>
-1.75368

>  <SCORE.INTRA.norm>
0.0795609

>  <SCORE.RESTR>
0.247191

>  <SCORE.RESTR.CAVITY>
0.247191

>  <SCORE.RESTR.norm>
0.00915523

>  <SCORE.SYSTEM>
0

>  <SCORE.SYSTEM.CONST>
0

>  <SCORE.SYSTEM.DIHEDRAL>
0

>  <SCORE.SYSTEM.SOLV>
0

>  <SCORE.SYSTEM.norm>
0

>  <SCORE.heavy>
27

>  <SCORE.norm>
-0.497007

>  <RMSD>
14.025

$$$$
ligand
 OpenBabel11021811463D
libRbt.so/2013.1/901 2013/11/27
 27 29  0  0  0  0  0  0  0  0999 V2000
   33.6029   16.0886   60.6432 N   0  0  0  0  0  0  0  0  0  0  0  0
   33.6747   15.1601   61.7849 C   0  0  2  0  0  0  0  0  0  0  0  0
   35.1031   15.0470   62.2754 C   0  0  0  0  0  0  0  0  0  0  0  0
   36.0365   15.4154   61.5550 O   0  0  0  0  0  0  0  0  0  0  0  0
   33.1940   13.7827   61.3397 C   0  0  0  0  0  0  0  0  0  0  0  0
   32.8732   12.9193   62.5409 C   0  0  0  0  0  0  0  0  0  0  0  0
   34.2492   11.7828   62.7870 S   0  0  2  0  0  0  0  0  0  0  0  0
   33.9203   10.6533   61.4058 C   0  0  0  0  0  0  0  0  0  0  0  0
   33.6223   10.7912   64.1853 C   0  0  0  0  0  0  0  0  0  0  0  0
   34.7344   10.6439   65.2202 C   0  0  1  0  0  0  0  0  0  0  0  0
   35.0754   11.9343   65.6706 O   0  0  0  0  0  0  0  0  0  0  0  0
   34.2547    9.8758   66.4564 C   0  0  1  0  0  0  0  0  0  0  0  0
   34.3643    8.4448   66.5069 O   0  0  0  0  0  0  0  0  0  0  0  0
   34.9316   10.6389   67.6428 C   0  0  1  0  0  0  0  0  0  0  0  0
   35.5391    9.6700   68.5144 O   0  0  0  0  0  0  0  0  0  0  0  0
   35.7326   11.7783   66.9183 C   0  0  2  0  0  0  0  0  0  0  0  0
   35.3240   14.6566   63.4118 O   0  0  0  0  0  0  0  0  0  0  0  0
   37.7091   16.5863   67.2032 N   0  0  0  0  0  0  0  0  0  0  0  0
   38.0501   15.5922   66.3754 C   0  0  0  0  0  0  0  0  0  0  0  0
   37.4602   14.4017   66.4366 N   0  0  0  0  0  0  0  0  0  0  0  0
   36.4769   14.1543   67.3210 C   0  0  0  0  0  0  0  0  0  0  0  0
   36.0663   15.1811   68.2128 C   0  0  0  0  0  0  0  0  0  0  0  0
   36.7345   16.4378   68.1205 C   0  0  0  0  0  0  0  0  0  0  0  0
   36.3870   17.4899   68.9470 N   0  0  0  0  0  0  0  0  0  0  0  0
   35.0719   14.6742   68.9776 N   0  0  0  0  0  0  0  0  0  0  0  0
   34.8475   13.4416   68.6251 C   0  0  0  0  0  0  0  0  0  0  0  0
   35.6908   13.0736   67.6056 N   0  0  0  0  0  0  0  0  0  0  0  0
  2  1  1  6  0  0  0
  2  3  1  0  0  0  0
  2  5  1  0  0  0  0
  3  4  1  0  0  0  0
  3 17  1  0  0  0  0
  5  6  1  0  0  0  0
  7  6  1  6  0  0  0
  7  8  1  0  0  0  0
  7  9  1  0  0  0  0
 10  9  1  6  0  0  0
 10 11  1  0  0  0  0
 10 12  1  0  0  0  0
 11 16  1  0  0  0  0
 12 13  1  6  0  0  0
 12 14  1  0  0  0  0
 14 15  1  6  0  0  0
 14 16  1  0  0  0  0
 16 27  1  1  0  0  0
 18 19  2  0  0  0  0
 18 23  1  0  0  0  0
 19 20  1  0  0  0  0
 20 21  2  0  0  0  0
 21 22  1  0  0  0  0
 21 27  1  0  0  0  0
 22 23  2  0  0  0  0
 22 25  1  0  0  0  0
 23 24  1  0  0  0  0
 25 26  2  0  0  0  0
 26 27  1  0  0  0  0
M  END
>  <CHROM.1>
-17.31402340,-163.68373120,-101.77006587,-74.17237165,-134.35098742,61.24309674
-76.55188892,35.14148447,13.20365174,65.24686557,-2.60569704,1.16613422,2.38314500

>  <Name>
ligand

>  <RI>
0

>  <Rbt.Current_Directory>
/home/itssahil/PROJECTS/Mol_Feturizer/New_Systems/rnas/2QWY

>  <Rbt.Executable>
rbdock ($Id: //depot/dev/client3/rdock/2013.1/src/exe/rbdock.cxx#4 $)

>  <Rbt.Library>
libRbt.so (2013.1, Build901 2013/11/27)

>  <Rbt.Parameter_File>
/export/apps/rDock/src/rDock_2013.1_src/data/scripts/dock_solv.prm

>  <Rbt.Receptor>
prm/blind_docking_80.prm

>  <SCORE>
-14.8904

>  <SCORE.INTER>
-15.6121

>  <SCORE.INTER.CONST>
1

>  <SCORE.INTER.POLAR>
0

>  <SCORE.INTER.ROT>
7

>  <SCORE.INTER.SOLV>
18.6444

>  <SCORE.INTER.VDW>
-24.8895

>  <SCORE.INTER.norm>
-0.578227

>  <SCORE.INTRA>
-0.322826

>  <SCORE.INTRA.DIHEDRAL>
2.1707

>  <SCORE.INTRA.DIHEDRAL.0>
10.7382

>  <SCORE.INTRA.POLAR>
0

>  <SCORE.INTRA.POLAR.0>
0

>  <SCORE.INTRA.REPUL>
0

>  <SCORE.INTRA.REPUL.0>
0

>  <SCORE.INTRA.SOLV>
-1.08889

>  <SCORE.INTRA.SOLV.lig_0>
-49.2501

>  <SCORE.INTRA.VDW>
-0.863733

>  <SCORE.INTRA.VDW.0>
-1.75368

>  <SCORE.INTRA.norm>
-0.0119565

>  <SCORE.RESTR>
1.04452

>  <SCORE.RESTR.CAVITY>
1.04452

>  <SCORE.RESTR.norm>
0.0386861

>  <SCORE.SYSTEM>
0

>  <SCORE.SYSTEM.CONST>
0

>  <SCORE.SYSTEM.DIHEDRAL>
0

>  <SCORE.SYSTEM.SOLV>
0

>  <SCORE.SYSTEM.norm>
0

>  <SCORE.heavy>
27

>  <SCORE.norm>
-0.551497

>  <RMSD>
14.048

$$$$
ligand
 OpenBabel11021811463D
libRbt.so/2013.1/901 2013/11/27
 27 29  0  0  0  0  0  0  0  0999 V2000
   32.3545   13.9061   60.9048 N   0  0  0  0  0  0  0  0  0  0  0  0
   33.2553   14.7366   61.7230 C   0  0  2  0  0  0  0  0  0  0  0  0
   34.0641   15.6587   60.8345 C   0  0  0  0  0  0  0  0  0  0  0  0
   33.5113   16.5926   60.2444 O   0  0  0  0  0  0  0  0  0  0  0  0
   34.2093   13.8295   62.4932 C   0  0  0  0  0  0  0  0  0  0  0  0
   33.4607   12.6561   63.0884 C   0  0  0  0  0  0  0  0  0  0  0  0
   34.5395   11.2156   63.0091 S   0  0  2  0  0  0  0  0  0  0  0  0
   33.8005   10.4006   61.5664 C   0  0  0  0  0  0  0  0  0  0  0  0
   33.8461   10.1997   64.3577 C   0  0  0  0  0  0  0  0  0  0  0  0
   34.9073   10.0329   65.4420 C   0  0  1  0  0  0  0  0  0  0  0  0
   35.5965   11.2557   65.5599 O   0  0  0  0  0  0  0  0  0  0  0  0
   34.2747    9.7683   66.8124 C   0  0  1  0  0  0  0  0  0  0  0  0
   33.9960    8.4239   67.2334 O   0  0  0  0  0  0  0  0  0  0  0  0
   35.1668   10.6022   67.7907 C   0  0  1  0  0  0  0  0  0  0  0  0
   35.5159    9.7657   68.9069 O   0  0  0  0  0  0  0  0  0  0  0  0
   36.2236   11.2578   66.8326 C   0  0  2  0  0  0  0  0  0  0  0  0
   35.2755   15.5187   60.7596 O   0  0  0  0  0  0  0  0  0  0  0  0
   34.6907   15.6066   69.2497 N   0  0  0  0  0  0  0  0  0  0  0  0
   34.0483   14.4373   69.1497 C   0  0  0  0  0  0  0  0  0  0  0  0
   34.5659   13.4137   68.4765 N   0  0  0  0  0  0  0  0  0  0  0  0
   35.7713   13.5044   67.8858 C   0  0  0  0  0  0  0  0  0  0  0  0
   36.5020   14.7195   67.9749 C   0  0  0  0  0  0  0  0  0  0  0  0
   35.9036   15.7949   68.6958 C   0  0  0  0  0  0  0  0  0  0  0  0
   36.5546   17.0064   68.8352 N   0  0  0  0  0  0  0  0  0  0  0  0
   37.6658   14.5374   67.3092 N   0  0  0  0  0  0  0  0  0  0  0  0
   37.7009   13.3268   66.8326 C   0  0  0  0  0  0  0  0  0  0  0  0
   36.5527   12.6489   67.1617 N   0  0  0  0  0  0  0  0  0  0  0  0
  2  1  1  6  0  0  0
  2  3  1  0  0  0  0
  2  5  1  0  0  0  0
  3  4  1  0  0  0  0
  3 17  1  0  0  0  0
  5  6  1  0  0  0  0
  7  6  1  1  0  0  0
  7  8  1  0  0  0  0
  7  9  1  0  0  0  0
 10  9  1  6  0  0  0
 10 11  1  0  0  0  0
 10 12  1  0  0  0  0
 11 16  1  0  0  0  0
 12 13  1  1  0  0  0
 12 14  1  0  0  0  0
 14 15  1  1  0  0  0
 14 16  1  0  0  0  0
 16 27  1  1  0  0  0
 18 19  2  0  0  0  0
 18 23  1  0  0  0  0
 19 20  1  0  0  0  0
 20 21  2  0  0  0  0
 21 22  1  0  0  0  0
 21 27  1  0  0  0  0
 22 23  2  0  0  0  0
 22 25  1  0  0  0  0
 23 24  1  0  0  0  0
 25 26  2  0  0  0  0
 26 27  1  0  0  0  0
M  END
>  <CHROM.1>
69.44514278,-44.08300445,143.92420505,-101.70444588,-116.34275746,38.55824988
93.49524976,34.91475347,12.85985292,65.32663305,-2.56217894,1.26236762,2.71103835

>  <Name>
ligand

>  <RI>
0

>  <Rbt.Current_Directory>
/home/itssahil/PROJECTS/Mol_Feturizer/New_Systems/rnas/2QWY

>  <Rbt.Executable>
rbdock ($Id: //depot/dev/client3/rdock/2013.1/src/exe/rbdock.cxx#4 $)

>  <Rbt.Library>
libRbt.so (2013.1, Build901 2013/11/27)

>  <Rbt.Parameter_File>
/export/apps/rDock/src/rDock_2013.1_src/data/scripts/dock_solv.prm

>  <Rbt.Receptor>
prm/blind_docking_80.prm

>  <SCORE>
-3.36313

>  <SCORE.INTER>
-9.00994

>  <SCORE.INTER.CONST>
1

>  <SCORE.INTER.POLAR>
0

>  <SCORE.INTER.ROT>
7

>  <SCORE.INTER.SOLV>
20.5009

>  <SCORE.INTER.VDW>
-21.1069

>  <SCORE.INTER.norm>
-0.333701

>  <SCORE.INTRA>
4.4036

>  <SCORE.INTRA.DIHEDRAL>
4.83984

>  <SCORE.INTRA.DIHEDRAL.0>
10.7382

>  <SCORE.INTRA.POLAR>
0

>  <SCORE.INTRA.POLAR.0>
0

>  <SCORE.INTRA.REPUL>
0

>  <SCORE.INTRA.REPUL.0>
0

>  <SCORE.INTRA.SOLV>
0.776759

>  <SCORE.INTRA.SOLV.lig_0>
-49.2501

>  <SCORE.INTRA.VDW>
1.5953

>  <SCORE.INTRA.VDW.0>
-1.75368

>  <SCORE.INTRA.norm>
0.163096

>  <SCORE.RESTR>
1.24321

>  <SCORE.RESTR.CAVITY>
1.24321

>  <SCORE.RESTR.norm>
0.0460446

>  <SCORE.SYSTEM>
0

>  <SCORE.SYSTEM.CONST>
0

>  <SCORE.SYSTEM.DIHEDRAL>
0

>  <SCORE.SYSTEM.SOLV>
0

>  <SCORE.SYSTEM.norm>
0

>  <SCORE.heavy>
27

>  <SCORE.norm>
-0.12456

>  <RMSD>
14.053

$$$$
ligand
 OpenBabel11021811463D
libRbt.so/2013.1/901 2013/11/27
 27 29  0  0  0  0  0  0  0  0999 V2000
   34.5106   15.2129   62.8988 N   0  0  0  0  0  0  0  0  0  0  0  0
   34.4243   14.5463   61.5878 C   0  0  2  0  0  0  0  0  0  0  0  0
   34.4448   15.5761   60.4774 C   0  0  0  0  0  0  0  0  0  0  0  0
   35.2851   15.4979   59.5754 O   0  0  0  0  0  0  0  0  0  0  0  0
   33.1184   13.7620   61.5110 C   0  0  0  0  0  0  0  0  0  0  0  0
   32.9769   12.8492   62.7102 C   0  0  0  0  0  0  0  0  0  0  0  0
   34.3116   11.6410   62.6446 S   0  0  2  0  0  0  0  0  0  0  0  0
   33.6719   10.6005   61.3031 C   0  0  0  0  0  0  0  0  0  0  0  0
   33.9029   10.6073   64.0924 C   0  0  0  0  0  0  0  0  0  0  0  0
   35.0839   10.6275   65.0590 C   0  0  1  0  0  0  0  0  0  0  0  0
   35.5930   11.9406   65.0875 O   0  0  0  0  0  0  0  0  0  0  0  0
   34.6433   10.3119   66.4924 C   0  0  1  0  0  0  0  0  0  0  0  0
   34.6119    8.9536   66.9574 O   0  0  0  0  0  0  0  0  0  0  0  0
   35.4989   11.2941   67.3593 C   0  0  1  0  0  0  0  0  0  0  0  0
   36.0820   10.5490   68.4421 O   0  0  0  0  0  0  0  0  0  0  0  0
   36.3418   12.0697   66.2857 C   0  0  2  0  0  0  0  0  0  0  0  0
   33.5840   16.4423   60.4387 O   0  0  0  0  0  0  0  0  0  0  0  0
   35.3424   15.9673   69.5893 N   0  0  0  0  0  0  0  0  0  0  0  0
   34.9933   14.6797   69.6887 C   0  0  0  0  0  0  0  0  0  0  0  0
   35.3092   13.7976   68.7446 N   0  0  0  0  0  0  0  0  0  0  0  0
   36.0152   14.1603   67.6583 C   0  0  0  0  0  0  0  0  0  0  0  0
   36.4239   15.5129   67.5117 C   0  0  0  0  0  0  0  0  0  0  0  0
   36.0527   16.4271   68.5418 C   0  0  0  0  0  0  0  0  0  0  0  0
   36.4197   17.7582   68.4769 N   0  0  0  0  0  0  0  0  0  0  0  0
   37.1143   15.5998   66.3513 N   0  0  0  0  0  0  0  0  0  0  0  0
   37.1592   14.4257   65.7916 C   0  0  0  0  0  0  0  0  0  0  0  0
   36.4937   13.5026   66.5604 N   0  0  0  0  0  0  0  0  0  0  0  0
  2  1  1  1  0  0  0
  2  3  1  0  0  0  0
  2  5  1  0  0  0  0
  3  4  1  0  0  0  0
  3 17  1  0  0  0  0
  5  6  1  0  0  0  0
  7  6  1  1  0  0  0
  7  8  1  0  0  0  0
  7  9  1  0  0  0  0
 10  9  1  6  0  0  0
 10 11  1  0  0  0  0
 10 12  1  0  0  0  0
 11 16  1  0  0  0  0
 12 13  1  1  0  0  0
 12 14  1  0  0  0  0
 14 15  1  1  0  0  0
 14 16  1  0  0  0  0
 16 27  1  1  0  0  0
 18 19  2  0  0  0  0
 18 23  1  0  0  0  0
 19 20  1  0  0  0  0
 20 21  2  0  0  0  0
 21 22  1  0  0  0  0
 21 27  1  0  0  0  0
 22 23  2  0  0  0  0
 22 25  1  0  0  0  0
 23 24  1  0  0  0  0
 25 26  2  0  0  0  0
 26 27  1  0  0  0  0
M  END
>  <CHROM.1>
125.00828604,-52.28671776,-63.70380678,-74.40687958,-121.18724255,39.99830584
117.83626997,35.09486692,13.35039007,65.04940949,-2.67002849,1.28650400,2.61775725

>  <Name>
ligand

>  <RI>
0

>  <Rbt.Current_Directory>
/home/itssahil/PROJECTS/Mol_Feturizer/New_Systems/rnas/2QWY

>  <Rbt.Executable>
rbdock ($Id: //depot/dev/client3/rdock/2013.1/src/exe/rbdock.cxx#4 $)

>  <Rbt.Library>
libRbt.so (2013.1, Build901 2013/11/27)

>  <Rbt.Parameter_File>
/export/apps/rDock/src/rDock_2013.1_src/data/scripts/dock_solv.prm

>  <Rbt.Receptor>
prm/blind_docking_80.prm

>  <SCORE>
-7.53328

>  <SCORE.INTER>
-8.65828

>  <SCORE.INTER.CONST>
1

>  <SCORE.INTER.POLAR>
0

>  <SCORE.INTER.ROT>
7

>  <SCORE.INTER.SOLV>
21.122

>  <SCORE.INTER.VDW>
-21.0795

>  <SCORE.INTER.norm>
-0.320677

>  <SCORE.INTRA>
0.230121

>  <SCORE.INTRA.DIHEDRAL>
-1.85629

>  <SCORE.INTRA.DIHEDRAL.0>
10.7382

>  <SCORE.INTRA.POLAR>
0

>  <SCORE.INTRA.POLAR.0>
0

>  <SCORE.INTRA.REPUL>
0

>  <SCORE.INTRA.REPUL.0>
0

>  <SCORE.INTRA.SOLV>
0.656527

>  <SCORE.INTRA.SOLV.lig_0>
-49.2501

>  <SCORE.INTRA.VDW>
0.830002

>  <SCORE.INTRA.VDW.0>
-1.75368

>  <SCORE.INTRA.norm>
0.00852299

>  <SCORE.RESTR>
0.894878

>  <SCORE.RESTR.CAVITY>
0.894878

>  <SCORE.RESTR.norm>
0.0331436

>  <SCORE.SYSTEM>
0

>  <SCORE.SYSTEM.CONST>
0

>  <SCORE.SYSTEM.DIHEDRAL>
0

>  <SCORE.SYSTEM.SOLV>
0

>  <SCORE.SYSTEM.norm>
0

>  <SCORE.heavy>
27

>  <SCORE.norm>
-0.27901

>  <RMSD>
14.056

$$$$
ligand
 OpenBabel11021811463D
libRbt.so/2013.1/901 2013/11/27
 27 29  0  0  0  0  0  0  0  0999 V2000
   36.8748   17.0196   68.5916 N   0  0  0  0  0  0  0  0  0  0  0  0
   37.4628   15.7617   68.0990 C   0  0  2  0  0  0  0  0  0  0  0  0
   36.9948   15.4863   66.6852 C   0  0  0  0  0  0  0  0  0  0  0  0
   36.3158   16.3244   66.0831 O   0  0  0  0  0  0  0  0  0  0  0  0
   37.0161   14.6149   69.0001 C   0  0  0  0  0  0  0  0  0  0  0  0
   35.5604   14.7771   69.3823 C   0  0  0  0  0  0  0  0  0  0  0  0
   34.5594   14.2163   67.9935 S   0  0  2  0  0  0  0  0  0  0  0  0
   32.9250   14.6790   68.6309 C   0  0  0  0  0  0  0  0  0  0  0  0
   34.5386   12.4166   68.2971 C   0  0  0  0  0  0  0  0  0  0  0  0
   34.8779   11.6953   66.9955 C   0  0  1  0  0  0  0  0  0  0  0  0
   34.0438   12.2152   65.9864 O   0  0  0  0  0  0  0  0  0  0  0  0
   36.3151   11.9854   66.5496 C   0  0  1  0  0  0  0  0  0  0  0  0
   37.3943   11.1508   66.9977 O   0  0  0  0  0  0  0  0  0  0  0  0
   36.1895   12.1372   64.9973 C   0  0  1  0  0  0  0  0  0  0  0  0
   37.2225   11.3488   64.3819 O   0  0  0  0  0  0  0  0  0  0  0  0
   34.6568   11.9111   64.7435 C   0  0  2  0  0  0  0  0  0  0  0  0
   37.3502   14.4643   66.1179 O   0  0  0  0  0  0  0  0  0  0  0  0
   35.5600   15.7077   61.2976 N   0  0  0  0  0  0  0  0  0  0  0  0
   36.4251   15.1074   62.1229 C   0  0  0  0  0  0  0  0  0  0  0  0
   36.0362   14.1565   62.9677 N   0  0  0  0  0  0  0  0  0  0  0  0
   34.7572   13.7415   63.0112 C   0  0  0  0  0  0  0  0  0  0  0  0
   33.8012   14.3359   62.1446 C   0  0  0  0  0  0  0  0  0  0  0  0
   34.2595   15.3602   61.2641 C   0  0  0  0  0  0  0  0  0  0  0  0
   33.3928   15.9814   60.3844 N   0  0  0  0  0  0  0  0  0  0  0  0
   32.6127   13.7365   62.3871 N   0  0  0  0  0  0  0  0  0  0  0  0
   32.7687   12.8376   63.3153 C   0  0  0  0  0  0  0  0  0  0  0  0
   34.0762   12.8030   63.7338 N   0  0  0  0  0  0  0  0  0  0  0  0
  2  1  1  1  0  0  0
  2  3  1  0  0  0  0
  2  5  1  0  0  0  0
  3  4  1  0  0  0  0
  3 17  1  0  0  0  0
  5  6  1  0  0  0  0
  7  6  1  1  0  0  0
  7  8  1  0  0  0  0
  7  9  1  0  0  0  0
 10  9  1  1  0  0  0
 10 11  1  0  0  0  0
 10 12  1  0  0  0  0
 11 16  1  0  0  0  0
 12 13  1  6  0  0  0
 12 14  1  0  0  0  0
 14 15  1  6  0  0  0
 14 16  1  0  0  0  0
 16 27  1  6  0  0  0
 18 19  2  0  0  0  0
 18 23  1  0  0  0  0
 19 20  1  0  0  0  0
 20 21  2  0  0  0  0
 21 22  1  0  0  0  0
 21 27  1  0  0  0  0
 22 23  2  0  0  0  0
 22 25  1  0  0  0  0
 23 24  1  0  0  0  0
 25 26  2  0  0  0  0
 26 27  1  0  0  0  0
M  END
>  <CHROM.1>
5.80191777,40.35861560,79.27152241,-174.19535350,-131.90461450,-50.44353582
117.32209820,35.32783125,13.91785433,65.47126666,-0.78740826,-1.21651281
-0.78681288

>  <Name>
ligand

>  <RI>
0

>  <Rbt.Current_Directory>
/home/itssahil/PROJECTS/Mol_Feturizer/New_Systems/rnas/2QWY

>  <Rbt.Executable>
rbdock ($Id: //depot/dev/client3/rdock/2013.1/src/exe/rbdock.cxx#4 $)

>  <Rbt.Library>
libRbt.so (2013.1, Build901 2013/11/27)

>  <Rbt.Parameter_File>
/export/apps/rDock/src/rDock_2013.1_src/data/scripts/dock_solv.prm

>  <Rbt.Receptor>
prm/blind_docking_80.prm

>  <SCORE>
-11.5051

>  <SCORE.INTER>
-11.9368

>  <SCORE.INTER.CONST>
1

>  <SCORE.INTER.POLAR>
0

>  <SCORE.INTER.ROT>
7

>  <SCORE.INTER.SOLV>
15.2497

>  <SCORE.INTER.VDW>
-21.3078

>  <SCORE.INTER.norm>
-0.442105

>  <SCORE.INTRA>
-0.137781

>  <SCORE.INTRA.DIHEDRAL>
0.298273

>  <SCORE.INTRA.DIHEDRAL.0>
10.7382

>  <SCORE.INTRA.POLAR>
0

>  <SCORE.INTRA.POLAR.0>
0

>  <SCORE.INTRA.REPUL>
0

>  <SCORE.INTRA.REPUL.0>
0

>  <SCORE.INTRA.SOLV>
1.15783

>  <SCORE.INTRA.SOLV.lig_0>
-49.2501

>  <SCORE.INTRA.VDW>
-0.865833

>  <SCORE.INTRA.VDW.0>
-1.75368

>  <SCORE.INTRA.norm>
-0.00510299

>  <SCORE.RESTR>
0.569559

>  <SCORE.RESTR.CAVITY>
0.569559

>  <SCORE.RESTR.norm>
0.0210948

>  <SCORE.SYSTEM>
0

>  <SCORE.SYSTEM.CONST>
0

>  <SCORE.SYSTEM.DIHEDRAL>
0

>  <SCORE.SYSTEM.SOLV>
0

>  <SCORE.SYSTEM.norm>
0

>  <SCORE.heavy>
27

>  <SCORE.norm>
-0.426114

>  <RMSD>
14.109

$$$$
ligand
 OpenBabel11021811463D
libRbt.so/2013.1/901 2013/11/27
 27 29  0  0  0  0  0  0  0  0999 V2000
   37.4835   17.7208   66.7120 N   0  0  0  0  0  0  0  0  0  0  0  0
   37.3714   16.4850   67.5064 C   0  0  2  0  0  0  0  0  0  0  0  0
   37.2304   15.2875   66.5899 C   0  0  0  0  0  0  0  0  0  0  0  0
   36.4350   15.3205   65.6454 O   0  0  0  0  0  0  0  0  0  0  0  0
   36.1366   16.5741   68.3974 C   0  0  0  0  0  0  0  0  0  0  0  0
   35.7086   15.1944   68.8498 C   0  0  0  0  0  0  0  0  0  0  0  0
   34.4825   14.5853   67.6790 S   0  0  2  0  0  0  0  0  0  0  0  0
   32.9836   15.1137   68.5542 C   0  0  0  0  0  0  0  0  0  0  0  0
   34.4908   12.8040   68.0773 C   0  0  0  0  0  0  0  0  0  0  0  0
   34.9516   12.0280   66.8464 C   0  0  1  0  0  0  0  0  0  0  0  0
   34.6199   12.7903   65.7093 O   0  0  0  0  0  0  0  0  0  0  0  0
   36.4754   11.8676   66.8203 C   0  0  1  0  0  0  0  0  0  0  0  0
   37.0950   10.7369   67.4525 O   0  0  0  0  0  0  0  0  0  0  0  0
   36.8353   12.0681   65.3108 C   0  0  1  0  0  0  0  0  0  0  0  0
   37.7211   11.0073   64.9136 O   0  0  0  0  0  0  0  0  0  0  0  0
   35.4368   12.3266   64.6459 C   0  0  2  0  0  0  0  0  0  0  0  0
   37.9560   14.3170   66.7456 O   0  0  0  0  0  0  0  0  0  0  0  0
   32.7090   14.7553   60.9358 N   0  0  0  0  0  0  0  0  0  0  0  0
   32.3234   13.7526   61.7331 C   0  0  0  0  0  0  0  0  0  0  0  0
   33.1484   13.2191   62.6296 N   0  0  0  0  0  0  0  0  0  0  0  0
   34.4015   13.6825   62.7883 C   0  0  0  0  0  0  0  0  0  0  0  0
   34.8558   14.7566   61.9770 C   0  0  0  0  0  0  0  0  0  0  0  0
   33.9420   15.2899   61.0204 C   0  0  0  0  0  0  0  0  0  0  0  0
   34.3054   16.3412   60.1997 N   0  0  0  0  0  0  0  0  0  0  0  0
   36.1302   15.0250   62.3436 N   0  0  0  0  0  0  0  0  0  0  0  0
   36.4798   14.2142   63.2997 C   0  0  0  0  0  0  0  0  0  0  0  0
   35.4460   13.3649   63.6097 N   0  0  0  0  0  0  0  0  0  0  0  0
  2  1  1  6  0  0  0
  2  3  1  0  0  0  0
  2  5  1  0  0  0  0
  3  4  1  0  0  0  0
  3 17  1  0  0  0  0
  5  6  1  0  0  0  0
  7  6  1  1  0  0  0
  7  8  1  0  0  0  0
  7  9  1  0  0  0  0
 10  9  1  1  0  0  0
 10 11  1  0  0  0  0
 10 12  1  0  0  0  0
 11 16  1  0  0  0  0
 12 13  1  6  0  0  0
 12 14  1  0  0  0  0
 14 15  1  6  0  0  0
 14 16  1  0  0  0  0
 16 27  1  6  0  0  0
 18 19  2  0  0  0  0
 18 23  1  0  0  0  0
 19 20  1  0  0  0  0
 20 21  2  0  0  0  0
 21 22  1  0  0  0  0
 21 27  1  0  0  0  0
 22 23  2  0  0  0  0
 22 25  1  0  0  0  0
 23 24  1  0  0  0  0
 25 26  2  0  0  0  0
 26 27  1  0  0  0  0
M  END
>  <CHROM.1>
-46.59352199,160.15269735,-92.84874536,-94.03636000,-117.59423946,-27.02634919
-71.77864324,35.44057721,14.09264925,65.28205038,0.23226933,-1.24404337,0.29286450

>  <Name>
ligand

>  <RI>
0

>  <Rbt.Current_Directory>
/home/itssahil/PROJECTS/Mol_Feturizer/New_Systems/rnas/2QWY

>  <Rbt.Executable>
rbdock ($Id: //depot/dev/client3/rdock/2013.1/src/exe/rbdock.cxx#4 $)

>  <Rbt.Library>
libRbt.so (2013.1, Build901 2013/11/27)

>  <Rbt.Parameter_File>
/export/apps/rDock/src/rDock_2013.1_src/data/scripts/dock_solv.prm

>  <Rbt.Receptor>
prm/blind_docking_80.prm

>  <SCORE>
-10.2387

>  <SCORE.INTER>
-13.8573

>  <SCORE.INTER.CONST>
1

>  <SCORE.INTER.POLAR>
0

>  <SCORE.INTER.ROT>
7

>  <SCORE.INTER.SOLV>
22.6481

>  <SCORE.INTER.VDW>
-25.0542

>  <SCORE.INTER.norm>
-0.513232

>  <SCORE.INTRA>
2.95922

>  <SCORE.INTRA.DIHEDRAL>
5.6321

>  <SCORE.INTRA.DIHEDRAL.0>
10.7382

>  <SCORE.INTRA.POLAR>
0

>  <SCORE.INTRA.POLAR.0>
0

>  <SCORE.INTRA.REPUL>
0

>  <SCORE.INTRA.REPUL.0>
0

>  <SCORE.INTRA.SOLV>
-0.563692

>  <SCORE.INTRA.SOLV.lig_0>
-49.2501

>  <SCORE.INTRA.VDW>
0.425019

>  <SCORE.INTRA.VDW.0>
-1.75368

>  <SCORE.INTRA.norm>
0.109601

>  <SCORE.RESTR>
0.659308

>  <SCORE.RESTR.CAVITY>
0.659308

>  <SCORE.RESTR.norm>
0.0244188

>  <SCORE.SYSTEM>
0

>  <SCORE.SYSTEM.CONST>
0

>  <SCORE.SYSTEM.DIHEDRAL>
0

>  <SCORE.SYSTEM.SOLV>
0

>  <SCORE.SYSTEM.norm>
0

>  <SCORE.heavy>
27

>  <SCORE.norm>
-0.379213

>  <RMSD>
14.148

$$$$
ligand
 OpenBabel11021811463D
libRbt.so/2013.1/901 2013/11/27
 27 29  0  0  0  0  0  0  0  0999 V2000
   37.6018   17.7007   66.5800 N   0  0  0  0  0  0  0  0  0  0  0  0
   37.3675   16.4243   67.2776 C   0  0  2  0  0  0  0  0  0  0  0  0
   37.0020   15.3448   66.2800 C   0  0  0  0  0  0  0  0  0  0  0  0
   37.5094   14.2220   66.3685 O   0  0  0  0  0  0  0  0  0  0  0  0
   36.2164   16.5975   68.2630 C   0  0  0  0  0  0  0  0  0  0  0  0
   35.8661   15.2732   68.9072 C   0  0  0  0  0  0  0  0  0  0  0  0
   34.7589   14.3926   67.7918 S   0  0  2  0  0  0  0  0  0  0  0  0
   33.1821   14.8128   68.5848 C   0  0  0  0  0  0  0  0  0  0  0  0
   34.9811   12.6786   68.3788 C   0  0  0  0  0  0  0  0  0  0  0  0
   34.7246   11.7243   67.2156 C   0  0  1  0  0  0  0  0  0  0  0  0
   34.0350   12.4398   66.2173 O   0  0  0  0  0  0  0  0  0  0  0  0
   36.0344   11.2549   66.5735 C   0  0  1  0  0  0  0  0  0  0  0  0
   36.6986   10.0787   67.0611 O   0  0  0  0  0  0  0  0  0  0  0  0
   35.7068   11.2501   65.0435 C   0  0  1  0  0  0  0  0  0  0  0  0
   36.1562   10.0014   64.4899 O   0  0  0  0  0  0  0  0  0  0  0  0
   34.2131   11.7316   65.0008 C   0  0  2  0  0  0  0  0  0  0  0  0
   36.1516   15.5672   65.4315 O   0  0  0  0  0  0  0  0  0  0  0  0
   36.0920   15.3094   61.7186 N   0  0  0  0  0  0  0  0  0  0  0  0
   36.7373   14.6384   62.6793 C   0  0  0  0  0  0  0  0  0  0  0  0
   36.1104   13.7601   63.4568 N   0  0  0  0  0  0  0  0  0  0  0  0
   34.8021   13.4920   63.2935 C   0  0  0  0  0  0  0  0  0  0  0  0
   34.0736   14.1662   62.2771 C   0  0  0  0  0  0  0  0  0  0  0  0
   34.7829   15.1087   61.4752 C   0  0  0  0  0  0  0  0  0  0  0  0
   34.1472   15.7991   60.4603 N   0  0  0  0  0  0  0  0  0  0  0  0
   32.8006   13.7102   62.3264 N   0  0  0  0  0  0  0  0  0  0  0  0
   32.7001   12.8248   63.2749 C   0  0  0  0  0  0  0  0  0  0  0  0
   33.9100   12.6553   63.9024 N   0  0  0  0  0  0  0  0  0  0  0  0
  2  1  1  6  0  0  0
  2  3  1  0  0  0  0
  2  5  1  0  0  0  0
  3  4  1  0  0  0  0
  3 17  1  0  0  0  0
  5  6  1  0  0  0  0
  7  6  1  1  0  0  0
  7  8  1  0  0  0  0
  7  9  1  0  0  0  0
 10  9  1  1  0  0  0
 10 11  1  0  0  0  0
 10 12  1  0  0  0  0
 11 16  1  0  0  0  0
 12 13  1  1  0  0  0
 12 14  1  0  0  0  0
 14 15  1  1  0  0  0
 14 16  1  0  0  0  0
 16 27  1  6  0  0  0
 18 19  2  0  0  0  0
 18 23  1  0  0  0  0
 19 20  1  0  0  0  0
 20 21  2  0  0  0  0
 21 22  1  0  0  0  0
 21 27  1  0  0  0  0
 22 23  2  0  0  0  0
 22 25  1  0  0  0  0
 23 24  1  0  0  0  0
 25 26  2  0  0  0  0
 26 27  1  0  0  0  0
M  END
>  <CHROM.1>
135.91757221,174.89306026,-83.62899454,-98.45685071,-151.95726944,-16.97120709
88.66846100,35.34020751,13.81150198,65.39296860,-0.82602733,-1.26220633,-0.90777826

>  <Name>
ligand

>  <RI>
0

>  <Rbt.Current_Directory>
/home/itssahil/PROJECTS/Mol_Feturizer/New_Systems/rnas/2QWY

>  <Rbt.Executable>
rbdock ($Id: //depot/dev/client3/rdock/2013.1/src/exe/rbdock.cxx#4 $)

>  <Rbt.Library>
libRbt.so (2013.1, Build901 2013/11/27)

>  <Rbt.Parameter_File>
/export/apps/rDock/src/rDock_2013.1_src/data/scripts/dock_solv.prm

>  <Rbt.Receptor>
prm/blind_docking_80.prm

>  <SCORE>
-11.7367

>  <SCORE.INTER>
-13.5143

>  <SCORE.INTER.CONST>
1

>  <SCORE.INTER.POLAR>
0

>  <SCORE.INTER.ROT>
7

>  <SCORE.INTER.SOLV>
21.8198

>  <SCORE.INTER.VDW>
-24.5495

>  <SCORE.INTER.norm>
-0.50053

>  <SCORE.INTRA>
1.31177

>  <SCORE.INTRA.DIHEDRAL>
3.69178

>  <SCORE.INTRA.DIHEDRAL.0>
10.7382

>  <SCORE.INTRA.POLAR>
0

>  <SCORE.INTRA.POLAR.0>
0

>  <SCORE.INTRA.REPUL>
0

>  <SCORE.INTRA.REPUL.0>
0

>  <SCORE.INTRA.SOLV>
-0.829604

>  <SCORE.INTRA.SOLV.lig_0>
-49.2501

>  <SCORE.INTRA.VDW>
-0.119318

>  <SCORE.INTRA.VDW.0>
-1.75368

>  <SCORE.INTRA.norm>
0.0485841

>  <SCORE.RESTR>
0.465808

>  <SCORE.RESTR.CAVITY>
0.465808

>  <SCORE.RESTR.norm>
0.0172521

>  <SCORE.SYSTEM>
0

>  <SCORE.SYSTEM.CONST>
0

>  <SCORE.SYSTEM.DIHEDRAL>
0

>  <SCORE.SYSTEM.SOLV>
0

>  <SCORE.SYSTEM.norm>
0

>  <SCORE.heavy>
27

>  <SCORE.norm>
-0.434693

>  <RMSD>
14.165

$$$$
ligand
 OpenBabel11021811463D
libRbt.so/2013.1/901 2013/11/27
 27 29  0  0  0  0  0  0  0  0999 V2000
   37.1940   14.9893   65.4844 N   0  0  0  0  0  0  0  0  0  0  0  0
   36.5012   15.8586   66.4514 C   0  0  2  0  0  0  0  0  0  0  0  0
   37.4549   16.2794   67.5502 C   0  0  0  0  0  0  0  0  0  0  0  0
   37.0439   16.9455   68.5058 O   0  0  0  0  0  0  0  0  0  0  0  0
   35.3398   15.0892   67.0723 C   0  0  0  0  0  0  0  0  0  0  0  0
   35.8445   13.8559   67.7903 C   0  0  0  0  0  0  0  0  0  0  0  0
   34.4117   12.9136   68.3423 S   0  0  2  0  0  0  0  0  0  0  0  0
   34.4266   13.3943   70.0917 C   0  0  0  0  0  0  0  0  0  0  0  0
   35.1300   11.2391   68.4503 C   0  0  0  0  0  0  0  0  0  0  0  0
   35.5511   10.7945   67.0523 C   0  0  1  0  0  0  0  0  0  0  0  0
   34.5256   11.1601   66.1584 O   0  0  0  0  0  0  0  0  0  0  0  0
   36.8081   11.5339   66.5815 C   0  0  1  0  0  0  0  0  0  0  0  0
   38.1107   11.0015   66.8679 O   0  0  0  0  0  0  0  0  0  0  0  0
   36.5194   11.8135   65.0693 C   0  0  1  0  0  0  0  0  0  0  0  0
   37.6786   11.4291   64.3102 O   0  0  0  0  0  0  0  0  0  0  0  0
   35.0963   11.1847   64.8596 C   0  0  2  0  0  0  0  0  0  0  0  0
   38.6154   15.8982   67.5237 O   0  0  0  0  0  0  0  0  0  0  0  0
   34.6474   15.3795   61.8090 N   0  0  0  0  0  0  0  0  0  0  0  0
   35.7149   14.9592   62.4970 C   0  0  0  0  0  0  0  0  0  0  0  0
   35.6692   13.8669   63.2546 N   0  0  0  0  0  0  0  0  0  0  0  0
   34.5508   13.1243   63.3425 C   0  0  0  0  0  0  0  0  0  0  0  0
   33.3932   13.5185   62.6194 C   0  0  0  0  0  0  0  0  0  0  0  0
   33.4833   14.7029   61.8297 C   0  0  0  0  0  0  0  0  0  0  0  0
   32.4035   15.1478   61.0901 N   0  0  0  0  0  0  0  0  0  0  0  0
   32.4289   12.6052   62.8770 N   0  0  0  0  0  0  0  0  0  0  0  0
   32.9018   11.7003   63.6842 C   0  0  0  0  0  0  0  0  0  0  0  0
   34.2090   11.9772   64.0013 N   0  0  0  0  0  0  0  0  0  0  0  0
  2  1  1  6  0  0  0
  2  3  1  0  0  0  0
  2  5  1  0  0  0  0
  3  4  1  0  0  0  0
  3 17  1  0  0  0  0
  5  6  1  0  0  0  0
  7  6  1  6  0  0  0
  7  8  1  0  0  0  0
  7  9  1  0  0  0  0
 10  9  1  1  0  0  0
 10 11  1  0  0  0  0
 10 12  1  0  0  0  0
 11 16  1  0  0  0  0
 12 13  1  6  0  0  0
 12 14  1  0  0  0  0
 14 15  1  6  0  0  0
 14 16  1  0  0  0  0
 16 27  1  6  0  0  0
 18 19  2  0  0  0  0
 18 23  1  0  0  0  0
 19 20  1  0  0  0  0
 20 21  2  0  0  0  0
 21 22  1  0  0  0  0
 21 27  1  0  0  0  0
 22 23  2  0  0  0  0
 22 25  1  0  0  0  0
 23 24  1  0  0  0  0
 25 26  2  0  0  0  0
 26 27  1  0  0  0  0
M  END
>  <CHROM.1>
-175.51789086,60.11908101,-174.09175843,-102.16045598,-64.04669888,-42.94720830
119.44121320,35.40857211,13.38963556,65.60653155,-0.58772522,-1.05757324
-0.67158178

>  <Name>
ligand

>  <RI>
0

>  <Rbt.Current_Directory>
/home/itssahil/PROJECTS/Mol_Feturizer/New_Systems/rnas/2QWY

>  <Rbt.Executable>
rbdock ($Id: //depot/dev/client3/rdock/2013.1/src/exe/rbdock.cxx#4 $)

>  <Rbt.Library>
libRbt.so (2013.1, Build901 2013/11/27)

>  <Rbt.Parameter_File>
/export/apps/rDock/src/rDock_2013.1_src/data/scripts/dock_solv.prm

>  <Rbt.Receptor>
prm/blind_docking_80.prm

>  <SCORE>
-7.97846

>  <SCORE.INTER>
-9.61731

>  <SCORE.INTER.CONST>
1

>  <SCORE.INTER.POLAR>
0

>  <SCORE.INTER.ROT>
7

>  <SCORE.INTER.SOLV>
21.4204

>  <SCORE.INTER.VDW>
-21.8184

>  <SCORE.INTER.norm>
-0.356197

>  <SCORE.INTRA>
0.645004

>  <SCORE.INTRA.DIHEDRAL>
-3.75613

>  <SCORE.INTRA.DIHEDRAL.0>
10.7382

>  <SCORE.INTRA.POLAR>
0

>  <SCORE.INTRA.POLAR.0>
0

>  <SCORE.INTRA.REPUL>
0

>  <SCORE.INTRA.REPUL.0>
0

>  <SCORE.INTRA.SOLV>
3.15684

>  <SCORE.INTRA.SOLV.lig_0>
-49.2501

>  <SCORE.INTRA.VDW>
0.94465

>  <SCORE.INTRA.VDW.0>
-1.75368

>  <SCORE.INTRA.norm>
0.0238891

>  <SCORE.RESTR>
0.993846

>  <SCORE.RESTR.CAVITY>
0.993846

>  <SCORE.RESTR.norm>
0.0368091

>  <SCORE.SYSTEM>
0

>  <SCORE.SYSTEM.CONST>
0

>  <SCORE.SYSTEM.DIHEDRAL>
0

>  <SCORE.SYSTEM.SOLV>
0

>  <SCORE.SYSTEM.norm>
0

>  <SCORE.heavy>
27

>  <SCORE.norm>
-0.295499

>  <RMSD>
14.166

$$$$
ligand
 OpenBabel11021811463D
libRbt.so/2013.1/901 2013/11/27
 27 29  0  0  0  0  0  0  0  0999 V2000
   39.0433   15.1164   67.7453 N   0  0  0  0  0  0  0  0  0  0  0  0
   38.0212   15.5333   66.7696 C   0  0  2  0  0  0  0  0  0  0  0  0
   37.3498   16.8099   67.2317 C   0  0  0  0  0  0  0  0  0  0  0  0
   36.8360   16.8686   68.3535 O   0  0  0  0  0  0  0  0  0  0  0  0
   36.9684   14.4363   66.6493 C   0  0  0  0  0  0  0  0  0  0  0  0
   36.4524   14.0444   68.0173 C   0  0  0  0  0  0  0  0  0  0  0  0
   34.7343   13.5347   67.8339 S   0  0  2  0  0  0  0  0  0  0  0  0
   34.0391   14.3968   69.2710 C   0  0  0  0  0  0  0  0  0  0  0  0
   34.8177   11.8284   68.4767 C   0  0  0  0  0  0  0  0  0  0  0  0
   34.9937   10.8695   67.3024 C   0  0  1  0  0  0  0  0  0  0  0  0
   34.1618   11.3144   66.2563 O   0  0  0  0  0  0  0  0  0  0  0  0
   36.4239   10.9089   66.7533 C   0  0  1  0  0  0  0  0  0  0  0  0
   37.4294   10.0351   67.2898 O   0  0  0  0  0  0  0  0  0  0  0  0
   36.2203   10.8200   65.2045 C   0  0  1  0  0  0  0  0  0  0  0  0
   37.1194    9.8238   64.6878 O   0  0  0  0  0  0  0  0  0  0  0  0
   34.6592   10.7409   65.0577 C   0  0  2  0  0  0  0  0  0  0  0  0
   37.3803   17.8021   66.5196 O   0  0  0  0  0  0  0  0  0  0  0  0
   34.6816   15.3102   62.5627 N   0  0  0  0  0  0  0  0  0  0  0  0
   35.3608   14.9555   63.6594 C   0  0  0  0  0  0  0  0  0  0  0  0
   35.2352   13.7446   64.1951 N   0  0  0  0  0  0  0  0  0  0  0  0
   34.4350   12.8156   63.6413 C   0  0  0  0  0  0  0  0  0  0  0  0
   33.7030   13.1363   62.4667 C   0  0  0  0  0  0  0  0  0  0  0  0
   33.8582   14.4501   61.9337 C   0  0  0  0  0  0  0  0  0  0  0  0
   33.1870   14.8365   60.7887 N   0  0  0  0  0  0  0  0  0  0  0  0
   32.9948   12.0360   62.1225 N   0  0  0  0  0  0  0  0  0  0  0  0
   33.2366   11.0866   62.9794 C   0  0  0  0  0  0  0  0  0  0  0  0
   34.1201   11.5195   63.9375 N   0  0  0  0  0  0  0  0  0  0  0  0
  2  1  1  1  0  0  0
  2  3  1  0  0  0  0
  2  5  1  0  0  0  0
  3  4  1  0  0  0  0
  3 17  1  0  0  0  0
  5  6  1  0  0  0  0
  7  6  1  1  0  0  0
  7  8  1  0  0  0  0
  7  9  1  0  0  0  0
 10  9  1  1  0  0  0
 10 11  1  0  0  0  0
 10 12  1  0  0  0  0
 11 16  1  0  0  0  0
 12 13  1  1  0  0  0
 12 14  1  0  0  0  0
 14 15  1  1  0  0  0
 14 16  1  0  0  0  0
 16 27  1  6  0  0  0
 18 19  2  0  0  0  0
 18 23  1  0  0  0  0
 19 20  1  0  0  0  0
 20 21  2  0  0  0  0
 21 22  1  0  0  0  0
 21 27  1  0  0  0  0
 22 23  2  0  0  0  0
 22 25  1  0  0  0  0
 23 24  1  0  0  0  0
 25 26  2  0  0  0  0
 26 27  1  0  0  0  0
M  END
>  <CHROM.1>
-54.48214834,51.57304507,148.78448432,-136.03684218,-95.33751215,-40.88668869
67.51974032,35.47002972,13.30036677,65.66596907,0.10387886,-1.09877945,-0.39052034

>  <Name>
ligand

>  <RI>
0

>  <Rbt.Current_Directory>
/home/itssahil/PROJECTS/Mol_Feturizer/New_Systems/rnas/2QWY

>  <Rbt.Executable>
rbdock ($Id: //depot/dev/client3/rdock/2013.1/src/exe/rbdock.cxx#4 $)

>  <Rbt.Library>
libRbt.so (2013.1, Build901 2013/11/27)

>  <Rbt.Parameter_File>
/export/apps/rDock/src/rDock_2013.1_src/data/scripts/dock_solv.prm

>  <Rbt.Receptor>
prm/blind_docking_80.prm

>  <SCORE>
-8.70209

>  <SCORE.INTER>
-10.497

>  <SCORE.INTER.CONST>
1

>  <SCORE.INTER.POLAR>
0

>  <SCORE.INTER.ROT>
7

>  <SCORE.INTER.SOLV>
19.0119

>  <SCORE.INTER.VDW>
-21.602

>  <SCORE.INTER.norm>
-0.388779

>  <SCORE.INTRA>
-0.0619831

>  <SCORE.INTRA.DIHEDRAL>
2.76189

>  <SCORE.INTRA.DIHEDRAL.0>
10.7382

>  <SCORE.INTRA.POLAR>
0

>  <SCORE.INTRA.POLAR.0>
0

>  <SCORE.INTRA.REPUL>
0

>  <SCORE.INTRA.REPUL.0>
0

>  <SCORE.INTRA.SOLV>
-0.0430086

>  <SCORE.INTRA.SOLV.lig_0>
-49.2501

>  <SCORE.INTRA.VDW>
-1.42142

>  <SCORE.INTRA.VDW.0>
-1.75368

>  <SCORE.INTRA.norm>
-0.00229567

>  <SCORE.RESTR>
1.85691

>  <SCORE.RESTR.CAVITY>
1.85691

>  <SCORE.RESTR.norm>
0.0687746

>  <SCORE.SYSTEM>
0

>  <SCORE.SYSTEM.CONST>
0

>  <SCORE.SYSTEM.DIHEDRAL>
0

>  <SCORE.SYSTEM.SOLV>
0

>  <SCORE.SYSTEM.norm>
0

>  <SCORE.heavy>
27

>  <SCORE.norm>
-0.3223

>  <RMSD>
14.166

$$$$
ligand
 OpenBabel11021811463D
libRbt.so/2013.1/901 2013/11/27
 27 29  0  0  0  0  0  0  0  0999 V2000
   37.4673   17.6338   66.7598 N   0  0  0  0  0  0  0  0  0  0  0  0
   36.3127   16.7332   66.9220 C   0  0  2  0  0  0  0  0  0  0  0  0
   36.0825   16.4404   68.3900 C   0  0  0  0  0  0  0  0  0  0  0  0
   36.7842   16.9858   69.2479 O   0  0  0  0  0  0  0  0  0  0  0  0
   36.5953   15.4226   66.1946 C   0  0  0  0  0  0  0  0  0  0  0  0
   37.8656   14.7883   66.7194 C   0  0  0  0  0  0  0  0  0  0  0  0
   37.4143   13.6845   68.0696 S   0  0  2  0  0  0  0  0  0  0  0  0
   39.0688   13.4090   68.7613 C   0  0  0  0  0  0  0  0  0  0  0  0
   37.1685   12.1212   67.1601 C   0  0  0  0  0  0  0  0  0  0  0  0
   35.6850   11.9711   66.8341 C   0  0  1  0  0  0  0  0  0  0  0  0
   35.3399   12.9901   65.9249 O   0  0  0  0  0  0  0  0  0  0  0  0
   35.3975   10.6474   66.1174 C   0  0  1  0  0  0  0  0  0  0  0  0
   35.0912    9.4662   66.8744 O   0  0  0  0  0  0  0  0  0  0  0  0
   34.3352   11.0425   65.0386 C   0  0  1  0  0  0  0  0  0  0  0  0
   33.2597   10.0896   65.0945 O   0  0  0  0  0  0  0  0  0  0  0  0
   34.1447   12.5823   65.2782 C   0  0  2  0  0  0  0  0  0  0  0  0
   35.1556   15.7186   68.7255 O   0  0  0  0  0  0  0  0  0  0  0  0
   36.6453   15.2441   61.5679 N   0  0  0  0  0  0  0  0  0  0  0  0
   37.1567   14.6204   62.6353 C   0  0  0  0  0  0  0  0  0  0  0  0
   36.3798   13.9919   63.5131 N   0  0  0  0  0  0  0  0  0  0  0  0
   35.0454   13.9374   63.3511 C   0  0  0  0  0  0  0  0  0  0  0  0
   34.4529   14.5705   62.2257 C   0  0  0  0  0  0  0  0  0  0  0  0
   35.3223   15.2433   61.3169 C   0  0  0  0  0  0  0  0  0  0  0  0
   34.8242   15.8761   60.1934 N   0  0  0  0  0  0  0  0  0  0  0  0
   33.1188   14.3585   62.3023 N   0  0  0  0  0  0  0  0  0  0  0  0
   32.8580   13.6558   63.3664 C   0  0  0  0  0  0  0  0  0  0  0  0
   34.0157   13.3711   64.0481 N   0  0  0  0  0  0  0  0  0  0  0  0
  2  1  1  1  0  0  0
  2  3  1  0  0  0  0
  2  5  1  0  0  0  0
  3  4  1  0  0  0  0
  3 17  1  0  0  0  0
  5  6  1  0  0  0  0
  7  6  1  6  0  0  0
  7  8  1  0  0  0  0
  7  9  1  0  0  0  0
 10  9  1  6  0  0  0
 10 11  1  0  0  0  0
 10 12  1  0  0  0  0
 11 16  1  0  0  0  0
 12 13  1  1  0  0  0
 12 14  1  0  0  0  0
 14 15  1  1  0  0  0
 14 16  1  0  0  0  0
 16 27  1  6  0  0  0
 18 19  2  0  0  0  0
 18 23  1  0  0  0  0
 19 20  1  0  0  0  0
 20 21  2  0  0  0  0
 21 22  1  0  0  0  0
 21 27  1  0  0  0  0
 22 23  2  0  0  0  0
 22 25  1  0  0  0  0
 23 24  1  0  0  0  0
 25 26  2  0  0  0  0
 26 27  1  0  0  0  0
M  END
>  <CHROM.1>
3.11297697,57.30265861,90.98539326,-166.47421521,-95.18739795,66.26298649
25.58837448,35.76439963,13.90416145,65.51288276,-0.55904374,-1.08463172,-0.75475764

>  <Name>
ligand

>  <RI>
0

>  <Rbt.Current_Directory>
/home/itssahil/PROJECTS/Mol_Feturizer/New_Systems/rnas/2QWY

>  <Rbt.Executable>
rbdock ($Id: //depot/dev/client3/rdock/2013.1/src/exe/rbdock.cxx#4 $)

>  <Rbt.Library>
libRbt.so (2013.1, Build901 2013/11/27)

>  <Rbt.Parameter_File>
/export/apps/rDock/src/rDock_2013.1_src/data/scripts/dock_solv.prm

>  <Rbt.Receptor>
prm/blind_docking_80.prm

>  <SCORE>
-9.89927

>  <SCORE.INTER>
-9.44587

>  <SCORE.INTER.CONST>
1

>  <SCORE.INTER.POLAR>
0

>  <SCORE.INTER.ROT>
7

>  <SCORE.INTER.SOLV>
22.6564

>  <SCORE.INTER.VDW>
-22.1161

>  <SCORE.INTER.norm>
-0.349847

>  <SCORE.INTRA>
-1.82873

>  <SCORE.INTRA.DIHEDRAL>
-1.55641

>  <SCORE.INTRA.DIHEDRAL.0>
10.7382

>  <SCORE.INTRA.POLAR>
0

>  <SCORE.INTRA.POLAR.0>
0

>  <SCORE.INTRA.REPUL>
0

>  <SCORE.INTRA.REPUL.0>
0

>  <SCORE.INTRA.SOLV>
0.21928

>  <SCORE.INTRA.SOLV.lig_0>
-49.2501

>  <SCORE.INTRA.VDW>
-1.16016

>  <SCORE.INTRA.VDW.0>
-1.75368

>  <SCORE.INTRA.norm>
-0.0677306

>  <SCORE.RESTR>
1.37533

>  <SCORE.RESTR.CAVITY>
1.37533

>  <SCORE.RESTR.norm>
0.050938

>  <SCORE.SYSTEM>
0

>  <SCORE.SYSTEM.CONST>
0

>  <SCORE.SYSTEM.DIHEDRAL>
0

>  <SCORE.SYSTEM.SOLV>
0

>  <SCORE.SYSTEM.norm>
0

>  <SCORE.heavy>
27

>  <SCORE.norm>
-0.36664

>  <RMSD>
14.271

$$$$
ligand
 OpenBabel11021811463D
libRbt.so/2013.1/901 2013/11/27
 27 29  0  0  0  0  0  0  0  0999 V2000
   33.1450   15.7427   62.1021 N   0  0  0  0  0  0  0  0  0  0  0  0
   34.1567   14.8520   61.5073 C   0  0  2  0  0  0  0  0  0  0  0  0
   34.7692   15.5027   60.2844 C   0  0  0  0  0  0  0  0  0  0  0  0
   34.4652   16.6609   59.9811 O   0  0  0  0  0  0  0  0  0  0  0  0
   33.4891   13.5455   61.0904 C   0  0  0  0  0  0  0  0  0  0  0  0
   33.0656   12.7541   62.3093 C   0  0  0  0  0  0  0  0  0  0  0  0
   34.3551   11.5454   62.6578 S   0  0  2  0  0  0  0  0  0  0  0  0
   33.9553   10.3389   61.3631 C   0  0  0  0  0  0  0  0  0  0  0  0
   33.6499   10.7113   64.1202 C   0  0  0  0  0  0  0  0  0  0  0  0
   34.7394   10.5746   65.1803 C   0  0  1  0  0  0  0  0  0  0  0  0
   35.0889   11.8709   65.6064 O   0  0  0  0  0  0  0  0  0  0  0  0
   34.2251    9.8430   66.4247 C   0  0  1  0  0  0  0  0  0  0  0  0
   34.3143    8.4124   66.5117 O   0  0  0  0  0  0  0  0  0  0  0  0
   34.8889   10.6258   67.6058 C   0  0  1  0  0  0  0  0  0  0  0  0
   35.4659    9.6703   68.5123 O   0  0  0  0  0  0  0  0  0  0  0  0
   35.7193   11.7367   66.8703 C   0  0  2  0  0  0  0  0  0  0  0  0
   35.6172   14.9036   59.6404 O   0  0  0  0  0  0  0  0  0  0  0  0
   37.7295   16.5356   67.0542 N   0  0  0  0  0  0  0  0  0  0  0  0
   38.0698   15.5190   66.2539 C   0  0  0  0  0  0  0  0  0  0  0  0
   37.4704   14.3347   66.3392 N   0  0  0  0  0  0  0  0  0  0  0  0
   36.4781   14.1163   67.2211 C   0  0  0  0  0  0  0  0  0  0  0  0
   36.0679   15.1676   68.0841 C   0  0  0  0  0  0  0  0  0  0  0  0
   36.7464   16.4168   67.9667 C   0  0  0  0  0  0  0  0  0  0  0  0
   36.4000   17.4913   68.7643 N   0  0  0  0  0  0  0  0  0  0  0  0
   35.0636   14.6868   68.8527 N   0  0  0  0  0  0  0  0  0  0  0  0
   34.8328   13.4476   68.5285 C   0  0  0  0  0  0  0  0  0  0  0  0
   35.6816   13.0487   67.5254 N   0  0  0  0  0  0  0  0  0  0  0  0
  2  1  1  6  0  0  0
  2  3  1  0  0  0  0
  2  5  1  0  0  0  0
  3  4  1  0  0  0  0
  3 17  1  0  0  0  0
  5  6  1  0  0  0  0
  7  6  1  6  0  0  0
  7  8  1  0  0  0  0
  7  9  1  0  0  0  0
 10  9  1  6  0  0  0
 10 11  1  0  0  0  0
 10 12  1  0  0  0  0
 11 16  1  0  0  0  0
 12 13  1  6  0  0  0
 12 14  1  0  0  0  0
 14 15  1  6  0  0  0
 14 16  1  0  0  0  0
 16 27  1  1  0  0  0
 18 19  2  0  0  0  0
 18 23  1  0  0  0  0
 19 20  1  0  0  0  0
 20 21  2  0  0  0  0
 21 22  1  0  0  0  0
 21 27  1  0  0  0  0
 22 23  2  0  0  0  0
 22 25  1  0  0  0  0
 23 24  1  0  0  0  0
 25 26  2  0  0  0  0
 26 27  1  0  0  0  0
M  END
>  <CHROM.1>
5.05039374,-69.08988963,-96.51672538,-77.02311469,-133.95974092,65.63123353
-75.80937897,35.10138259,13.18916830,64.92876404,-2.26964545,1.19486264,2.33351982

>  <Name>
ligand

>  <RI>
0

>  <Rbt.Current_Directory>
/home/itssahil/PROJECTS/Mol_Feturizer/New_Systems/rnas/2QWY

>  <Rbt.Executable>
rbdock ($Id: //depot/dev/client3/rdock/2013.1/src/exe/rbdock.cxx#4 $)

>  <Rbt.Library>
libRbt.so (2013.1, Build901 2013/11/27)

>  <Rbt.Parameter_File>
/export/apps/rDock/src/rDock_2013.1_src/data/scripts/dock_solv.prm

>  <Rbt.Receptor>
prm/blind_docking_80.prm

>  <SCORE>
-11.1829

>  <SCORE.INTER>
-12.3179

>  <SCORE.INTER.CONST>
1

>  <SCORE.INTER.POLAR>
0

>  <SCORE.INTER.ROT>
7

>  <SCORE.INTER.SOLV>
22.6984

>  <SCORE.INTER.VDW>
-24.0448

>  <SCORE.INTER.norm>
-0.456219

>  <SCORE.INTRA>
0.23029

>  <SCORE.INTRA.DIHEDRAL>
0.909545

>  <SCORE.INTRA.DIHEDRAL.0>
10.7382

>  <SCORE.INTRA.POLAR>
0

>  <SCORE.INTRA.POLAR.0>
0

>  <SCORE.INTRA.REPUL>
0

>  <SCORE.INTRA.REPUL.0>
0

>  <SCORE.INTRA.SOLV>
-0.404253

>  <SCORE.INTRA.SOLV.lig_0>
-49.2501

>  <SCORE.INTRA.VDW>
-0.0223557

>  <SCORE.INTRA.VDW.0>
-1.75368

>  <SCORE.INTRA.norm>
0.00852927

>  <SCORE.RESTR>
0.904766

>  <SCORE.RESTR.CAVITY>
0.904766

>  <SCORE.RESTR.norm>
0.0335099

>  <SCORE.SYSTEM>
0

>  <SCORE.SYSTEM.CONST>
0

>  <SCORE.SYSTEM.DIHEDRAL>
0

>  <SCORE.SYSTEM.SOLV>
0

>  <SCORE.SYSTEM.norm>
0

>  <SCORE.heavy>
27

>  <SCORE.norm>
-0.41418

>  <RMSD>
14.295

$$$$
ligand
 OpenBabel11021811463D
libRbt.so/2013.1/901 2013/11/27
 27 29  0  0  0  0  0  0  0  0999 V2000
   36.2866    8.9599   66.8098 N   0  0  0  0  0  0  0  0  0  0  0  0
   36.0628   10.4038   66.9985 C   0  0  2  0  0  0  0  0  0  0  0  0
   34.8432   10.6329   67.8668 C   0  0  0  0  0  0  0  0  0  0  0  0
   34.0748    9.6981   68.1147 O   0  0  0  0  0  0  0  0  0  0  0  0
   35.8314   11.0554   65.6390 C   0  0  0  0  0  0  0  0  0  0  0  0
   35.1484   10.0875   64.6965 C   0  0  0  0  0  0  0  0  0  0  0  0
   33.4572    9.8570   65.2726 S   0  0  2  0  0  0  0  0  0  0  0  0
   33.3540    8.0538   65.1010 C   0  0  0  0  0  0  0  0  0  0  0  0
   32.5226   10.3865   63.7968 C   0  0  0  0  0  0  0  0  0  0  0  0
   32.7419   11.8824   63.5876 C   0  0  1  0  0  0  0  0  0  0  0  0
   33.2918   12.4059   64.7741 O   0  0  0  0  0  0  0  0  0  0  0  0
   33.7737   12.1513   62.4869 C   0  0  1  0  0  0  0  0  0  0  0  0
   33.3559   12.2785   61.1188 O   0  0  0  0  0  0  0  0  0  0  0  0
   34.5965   13.3581   63.0481 C   0  0  1  0  0  0  0  0  0  0  0  0
   34.7143   14.3456   62.0095 O   0  0  0  0  0  0  0  0  0  0  0  0
   33.9162   13.6341   64.4358 C   0  0  2  0  0  0  0  0  0  0  0  0
   34.6610   11.7273   68.3784 O   0  0  0  0  0  0  0  0  0  0  0  0
   34.5068   14.5864   69.5199 N   0  0  0  0  0  0  0  0  0  0  0  0
   33.3826   14.3152   68.8474 C   0  0  0  0  0  0  0  0  0  0  0  0
   33.3894   14.1106   67.5332 N   0  0  0  0  0  0  0  0  0  0  0  0
   34.5341   14.1452   66.8271 C   0  0  0  0  0  0  0  0  0  0  0  0
   35.7583   14.4141   67.4959 C   0  0  0  0  0  0  0  0  0  0  0  0
   35.7027   14.6396   68.9032 C   0  0  0  0  0  0  0  0  0  0  0  0
   36.8512   14.8988   69.6274 N   0  0  0  0  0  0  0  0  0  0  0  0
   36.7394   14.3832   66.5646 N   0  0  0  0  0  0  0  0  0  0  0  0
   36.2172   14.1186   65.4022 C   0  0  0  0  0  0  0  0  0  0  0  0
   34.8571   13.9636   65.5120 N   0  0  0  0  0  0  0  0  0  0  0  0
  2  1  1  6  0  0  0
  2  3  1  0  0  0  0
  2  5  1  0  0  0  0
  3  4  1  0  0  0  0
  3 17  1  0  0  0  0
  5  6  1  0  0  0  0
  7  6  1  6  0  0  0
  7  8  1  0  0  0  0
  7  9  1  0  0  0  0
 10  9  1  1  0  0  0
 10 11  1  0  0  0  0
 10 12  1  0  0  0  0
 11 16  1  0  0  0  0
 12 13  1  6  0  0  0
 12 14  1  0  0  0  0
 14 15  1  6  0  0  0
 14 16  1  0  0  0  0
 16 27  1  1  0  0  0
 18 19  2  0  0  0  0
 18 23  1  0  0  0  0
 19 20  1  0  0  0  0
 20 21  2  0  0  0  0
 21 22  1  0  0  0  0
 21 27  1  0  0  0  0
 22 23  2  0  0  0  0
 22 25  1  0  0  0  0
 23 24  1  0  0  0  0
 25 26  2  0  0  0  0
 26 27  1  0  0  0  0
M  END
>  <CHROM.1>
-12.19892903,31.75254595,70.02505351,-135.73743243,-66.99483196,-14.99042216
-59.31602712,34.53266950,12.21301389,65.85274583,3.07819790,-1.28425397,-0.57284216

>  <Name>
ligand

>  <RI>
0

>  <Rbt.Current_Directory>
/home/itssahil/PROJECTS/Mol_Feturizer/New_Systems/rnas/2QWY

>  <Rbt.Executable>
rbdock ($Id: //depot/dev/client3/rdock/2013.1/src/exe/rbdock.cxx#4 $)

>  <Rbt.Library>
libRbt.so (2013.1, Build901 2013/11/27)

>  <Rbt.Parameter_File>
/export/apps/rDock/src/rDock_2013.1_src/data/scripts/dock_solv.prm

>  <Rbt.Receptor>
prm/blind_docking_80.prm

>  <SCORE>
-4.60917

>  <SCORE.INTER>
-10.3637

>  <SCORE.INTER.CONST>
1

>  <SCORE.INTER.POLAR>
0

>  <SCORE.INTER.ROT>
7

>  <SCORE.INTER.SOLV>
7.98716

>  <SCORE.INTER.VDW>
-17.8382

>  <SCORE.INTER.norm>
-0.383841

>  <SCORE.INTRA>
2.72348

>  <SCORE.INTRA.DIHEDRAL>
4.26115

>  <SCORE.INTRA.DIHEDRAL.0>
10.7382

>  <SCORE.INTRA.POLAR>
0

>  <SCORE.INTRA.POLAR.0>
0

>  <SCORE.INTRA.REPUL>
0

>  <SCORE.INTRA.REPUL.0>
0

>  <SCORE.INTRA.SOLV>
2.14346

>  <SCORE.INTRA.SOLV.lig_0>
-49.2501

>  <SCORE.INTRA.VDW>
-0.478823

>  <SCORE.INTRA.VDW.0>
-1.75368

>  <SCORE.INTRA.norm>
0.10087

>  <SCORE.RESTR>
3.03105

>  <SCORE.RESTR.CAVITY>
3.03105

>  <SCORE.RESTR.norm>
0.112261

>  <SCORE.SYSTEM>
0

>  <SCORE.SYSTEM.CONST>
0

>  <SCORE.SYSTEM.DIHEDRAL>
0

>  <SCORE.SYSTEM.SOLV>
0

>  <SCORE.SYSTEM.norm>
0

>  <SCORE.heavy>
27

>  <SCORE.norm>
-0.17071

>  <RMSD>
14.321

$$$$
ligand
 OpenBabel11021811463D
libRbt.so/2013.1/901 2013/11/27
 27 29  0  0  0  0  0  0  0  0999 V2000
   35.6264   15.3666   61.9479 N   0  0  0  0  0  0  0  0  0  0  0  0
   34.3875   14.7399   61.4551 C   0  0  2  0  0  0  0  0  0  0  0  0
   33.5306   15.7673   60.7451 C   0  0  0  0  0  0  0  0  0  0  0  0
   32.3000   15.7206   60.8413 O   0  0  0  0  0  0  0  0  0  0  0  0
   33.6070   14.1776   62.6388 C   0  0  0  0  0  0  0  0  0  0  0  0
   33.0027   12.8354   62.2859 C   0  0  0  0  0  0  0  0  0  0  0  0
   34.2582   11.5741   62.5660 S   0  0  2  0  0  0  0  0  0  0  0  0
   33.8382   10.4621   61.1953 C   0  0  0  0  0  0  0  0  0  0  0  0
   33.5202   10.6685   63.9684 C   0  0  0  0  0  0  0  0  0  0  0  0
   34.6353   10.2452   64.9207 C   0  0  1  0  0  0  0  0  0  0  0  0
   35.4474   11.3713   65.1584 O   0  0  0  0  0  0  0  0  0  0  0  0
   34.0802    9.8262   66.2862 C   0  0  1  0  0  0  0  0  0  0  0  0
   33.7025    8.4616   66.5261 O   0  0  0  0  0  0  0  0  0  0  0  0
   35.1177   10.4187   67.2966 C   0  0  1  0  0  0  0  0  0  0  0  0
   35.4629    9.3923   68.2426 O   0  0  0  0  0  0  0  0  0  0  0  0
   36.1618   11.1220   66.3586 C   0  0  2  0  0  0  0  0  0  0  0  0
   34.0628   16.6829   60.1359 O   0  0  0  0  0  0  0  0  0  0  0  0
   34.8572   15.8277   68.1639 N   0  0  0  0  0  0  0  0  0  0  0  0
   34.0538   14.8387   67.7563 C   0  0  0  0  0  0  0  0  0  0  0  0
   34.5415   13.6888   67.2992 N   0  0  0  0  0  0  0  0  0  0  0  0
   35.8669   13.4632   67.2493 C   0  0  0  0  0  0  0  0  0  0  0  0
   36.7637   14.4753   67.6848 C   0  0  0  0  0  0  0  0  0  0  0  0
   36.1974   15.6970   68.1555 C   0  0  0  0  0  0  0  0  0  0  0  0
   37.0026   16.7269   68.6046 N   0  0  0  0  0  0  0  0  0  0  0  0
   38.0182   13.9908   67.5363 N   0  0  0  0  0  0  0  0  0  0  0  0
   37.9559   12.7831   67.0554 C   0  0  0  0  0  0  0  0  0  0  0  0
   36.6481   12.4119   66.8603 N   0  0  0  0  0  0  0  0  0  0  0  0
  2  1  1  1  0  0  0
  2  3  1  0  0  0  0
  2  5  1  0  0  0  0
  3  4  1  0  0  0  0
  3 17  1  0  0  0  0
  5  6  1  0  0  0  0
  7  6  1  6  0  0  0
  7  8  1  0  0  0  0
  7  9  1  0  0  0  0
 10  9  1  6  0  0  0
 10 11  1  0  0  0  0
 10 12  1  0  0  0  0
 11 16  1  0  0  0  0
 12 13  1  6  0  0  0
 12 14  1  0  0  0  0
 14 15  1  6  0  0  0
 14 16  1  0  0  0  0
 16 27  1  1  0  0  0
 18 19  2  0  0  0  0
 18 23  1  0  0  0  0
 19 20  1  0  0  0  0
 20 21  2  0  0  0  0
 21 22  1  0  0  0  0
 21 27  1  0  0  0  0
 22 23  2  0  0  0  0
 22 25  1  0  0  0  0
 23 24  1  0  0  0  0
 25 26  2  0  0  0  0
 26 27  1  0  0  0  0
M  END
>  <CHROM.1>
-143.77595423,-139.82098460,84.51648922,-144.47870041,-142.76278678,48.45100040
62.39378985,34.90838997,12.94812257,64.94982166,-2.50808223,1.16409539,2.75413431

>  <Name>
ligand

>  <RI>
0

>  <Rbt.Current_Directory>
/home/itssahil/PROJECTS/Mol_Feturizer/New_Systems/rnas/2QWY

>  <Rbt.Executable>
rbdock ($Id: //depot/dev/client3/rdock/2013.1/src/exe/rbdock.cxx#4 $)

>  <Rbt.Library>
libRbt.so (2013.1, Build901 2013/11/27)

>  <Rbt.Parameter_File>
/export/apps/rDock/src/rDock_2013.1_src/data/scripts/dock_solv.prm

>  <Rbt.Receptor>
prm/blind_docking_80.prm

>  <SCORE>
-5.09706

>  <SCORE.INTER>
-8.8036

>  <SCORE.INTER.CONST>
1

>  <SCORE.INTER.POLAR>
0

>  <SCORE.INTER.ROT>
7

>  <SCORE.INTER.SOLV>
17.9173

>  <SCORE.INTER.VDW>
-20.1082

>  <SCORE.INTER.norm>
-0.326059

>  <SCORE.INTRA>
2.80552

>  <SCORE.INTRA.DIHEDRAL>
6.82648

>  <SCORE.INTRA.DIHEDRAL.0>
10.7382

>  <SCORE.INTRA.POLAR>
0

>  <SCORE.INTRA.POLAR.0>
0

>  <SCORE.INTRA.REPUL>
0

>  <SCORE.INTRA.REPUL.0>
0

>  <SCORE.INTRA.SOLV>
-0.587515

>  <SCORE.INTRA.SOLV.lig_0>
-49.2501

>  <SCORE.INTRA.VDW>
-0.313956

>  <SCORE.INTRA.VDW.0>
-1.75368

>  <SCORE.INTRA.norm>
0.103908

>  <SCORE.RESTR>
0.901015

>  <SCORE.RESTR.CAVITY>
0.901015

>  <SCORE.RESTR.norm>
0.0333709

>  <SCORE.SYSTEM>
0

>  <SCORE.SYSTEM.CONST>
0

>  <SCORE.SYSTEM.DIHEDRAL>
0

>  <SCORE.SYSTEM.SOLV>
0

>  <SCORE.SYSTEM.norm>
0

>  <SCORE.heavy>
27

>  <SCORE.norm>
-0.18878

>  <RMSD>
14.346

$$$$
ligand
 OpenBabel11021811463D
libRbt.so/2013.1/901 2013/11/27
 27 29  0  0  0  0  0  0  0  0999 V2000
   37.0352   16.8040   68.5639 N   0  0  0  0  0  0  0  0  0  0  0  0
   37.3874   16.0185   67.3682 C   0  0  2  0  0  0  0  0  0  0  0  0
   36.1323   15.6060   66.6276 C   0  0  0  0  0  0  0  0  0  0  0  0
   36.1292   15.5569   65.3933 O   0  0  0  0  0  0  0  0  0  0  0  0
   38.1424   14.7650   67.7985 C   0  0  0  0  0  0  0  0  0  0  0  0
   37.3449   13.9927   68.8275 C   0  0  0  0  0  0  0  0  0  0  0  0
   37.6889   12.2403   68.5907 S   0  0  2  0  0  0  0  0  0  0  0  0
   39.5016   12.3154   68.5928 C   0  0  0  0  0  0  0  0  0  0  0  0
   37.3640   12.0710   66.8026 C   0  0  0  0  0  0  0  0  0  0  0  0
   35.8600   11.9239   66.5887 C   0  0  1  0  0  0  0  0  0  0  0  0
   35.4497   12.9439   65.7081 O   0  0  0  0  0  0  0  0  0  0  0  0
   35.5169   10.6010   65.8954 C   0  0  1  0  0  0  0  0  0  0  0  0
   35.2659    9.4202   66.6731 O   0  0  0  0  0  0  0  0  0  0  0  0
   34.3775   10.9985   64.8994 C   0  0  1  0  0  0  0  0  0  0  0  0
   33.3073   10.0478   65.0356 O   0  0  0  0  0  0  0  0  0  0  0  0
   34.2086   12.5386   65.1528 C   0  0  2  0  0  0  0  0  0  0  0  0
   35.1458   15.2543   67.2567 O   0  0  0  0  0  0  0  0  0  0  0  0
   36.4168   15.3448   61.3642 N   0  0  0  0  0  0  0  0  0  0  0  0
   37.0027   14.7404   62.4040 C   0  0  0  0  0  0  0  0  0  0  0  0
   36.2954   14.0685   63.3081 N   0  0  0  0  0  0  0  0  0  0  0  0
   34.9595   13.9491   63.2014 C   0  0  0  0  0  0  0  0  0  0  0  0
   34.2899   14.5593   62.1072 C   0  0  0  0  0  0  0  0  0  0  0  0
   35.0861   15.2802   61.1686 C   0  0  0  0  0  0  0  0  0  0  0  0
   34.5105   15.8948   60.0723 N   0  0  0  0  0  0  0  0  0  0  0  0
   32.9722   14.2811   62.2376 N   0  0  0  0  0  0  0  0  0  0  0  0
   32.7913   13.5595   63.3055 C   0  0  0  0  0  0  0  0  0  0  0  0
   33.9893   13.3280   63.9359 N   0  0  0  0  0  0  0  0  0  0  0  0
  2  1  1  1  0  0  0
  2  3  1  0  0  0  0
  2  5  1  0  0  0  0
  3  4  1  0  0  0  0
  3 17  1  0  0  0  0
  5  6  1  0  0  0  0
  7  6  1  6  0  0  0
  7  8  1  0  0  0  0
  7  9  1  0  0  0  0
 10  9  1  6  0  0  0
 10 11  1  0  0  0  0
 10 12  1  0  0  0  0
 11 16  1  0  0  0  0
 12 13  1  1  0  0  0
 12 14  1  0  0  0  0
 14 15  1  1  0  0  0
 14 16  1  0  0  0  0
 16 27  1  6  0  0  0
 18 19  2  0  0  0  0
 18 23  1  0  0  0  0
 19 20  1  0  0  0  0
 20 21  2  0  0  0  0
 21 22  1  0  0  0  0
 21 27  1  0  0  0  0
 22 23  2  0  0  0  0
 22 25  1  0  0  0  0
 23 24  1  0  0  0  0
 25 26  2  0  0  0  0
 26 27  1  0  0  0  0
M  END
>  <CHROM.1>
144.21284119,53.98595865,147.21155290,50.95653826,-81.62800568,123.60352936
22.06195724,35.81872160,13.52558864,65.38579990,-0.75427433,-0.95275105,-0.62640848

>  <Name>
ligand

>  <RI>
0

>  <Rbt.Current_Directory>
/home/itssahil/PROJECTS/Mol_Feturizer/New_Systems/rnas/2QWY

>  <Rbt.Executable>
rbdock ($Id: //depot/dev/client3/rdock/2013.1/src/exe/rbdock.cxx#4 $)

>  <Rbt.Library>
libRbt.so (2013.1, Build901 2013/11/27)

>  <Rbt.Parameter_File>
/export/apps/rDock/src/rDock_2013.1_src/data/scripts/dock_solv.prm

>  <Rbt.Receptor>
prm/blind_docking_80.prm

>  <SCORE>
-4.89411

>  <SCORE.INTER>
-7.71683

>  <SCORE.INTER.CONST>
1

>  <SCORE.INTER.POLAR>
0

>  <SCORE.INTER.ROT>
7

>  <SCORE.INTER.SOLV>
15.7813

>  <SCORE.INTER.VDW>
-18.6717

>  <SCORE.INTER.norm>
-0.285809

>  <SCORE.INTRA>
1.85542

>  <SCORE.INTRA.DIHEDRAL>
1.17311

>  <SCORE.INTRA.DIHEDRAL.0>
10.7382

>  <SCORE.INTRA.POLAR>
0

>  <SCORE.INTRA.POLAR.0>
0

>  <SCORE.INTRA.REPUL>
0

>  <SCORE.INTRA.REPUL.0>
0

>  <SCORE.INTRA.SOLV>
-0.118612

>  <SCORE.INTRA.SOLV.lig_0>
-49.2501

>  <SCORE.INTRA.VDW>
1.32817

>  <SCORE.INTRA.VDW.0>
-1.75368

>  <SCORE.INTRA.norm>
0.0687192

>  <SCORE.RESTR>
0.96731

>  <SCORE.RESTR.CAVITY>
0.96731

>  <SCORE.RESTR.norm>
0.0358263

>  <SCORE.SYSTEM>
0

>  <SCORE.SYSTEM.CONST>
0

>  <SCORE.SYSTEM.DIHEDRAL>
0

>  <SCORE.SYSTEM.SOLV>
0

>  <SCORE.SYSTEM.norm>
0

>  <SCORE.heavy>
27

>  <SCORE.norm>
-0.181263

>  <RMSD>
14.416

$$$$
ligand
 OpenBabel11021811463D
libRbt.so/2013.1/901 2013/11/27
 27 29  0  0  0  0  0  0  0  0999 V2000
   31.4366   17.4692   69.2028 N   0  0  0  0  0  0  0  0  0  0  0  0
   31.2866   16.5817   68.0364 C   0  0  2  0  0  0  0  0  0  0  0  0
   29.8241   16.4530   67.6643 C   0  0  0  0  0  0  0  0  0  0  0  0
   29.1781   17.4532   67.3357 O   0  0  0  0  0  0  0  0  0  0  0  0
   31.8315   15.2007   68.3860 C   0  0  0  0  0  0  0  0  0  0  0  0
   33.2912   15.0934   67.9999 C   0  0  0  0  0  0  0  0  0  0  0  0
   33.9801   13.6565   68.8402 S   0  0  2  0  0  0  0  0  0  0  0  0
   35.1076   14.5168   69.9717 C   0  0  0  0  0  0  0  0  0  0  0  0
   35.1603   13.0624   67.5809 C   0  0  0  0  0  0  0  0  0  0  0  0
   34.4098   12.1913   66.5771 C   0  0  1  0  0  0  0  0  0  0  0  0
   33.8959   13.0370   65.5747 O   0  0  0  0  0  0  0  0  0  0  0  0
   35.3515   11.2136   65.8660 C   0  0  1  0  0  0  0  0  0  0  0  0
   35.6011    9.9140   66.4237 O   0  0  0  0  0  0  0  0  0  0  0  0
   34.8313   11.2175   64.3903 C   0  0  1  0  0  0  0  0  0  0  0  0
   34.7089    9.8536   63.9516 O   0  0  0  0  0  0  0  0  0  0  0  0
   33.6278   12.2242   64.4431 C   0  0  2  0  0  0  0  0  0  0  0  0
   29.3049   15.3478   67.6221 O   0  0  0  0  0  0  0  0  0  0  0  0
   36.1423   15.5309   61.3051 N   0  0  0  0  0  0  0  0  0  0  0  0
   36.6110   14.8742   62.3722 C   0  0  0  0  0  0  0  0  0  0  0  0
   35.8336   14.0698   63.0917 N   0  0  0  0  0  0  0  0  0  0  0  0
   34.5456   13.8648   62.7616 C   0  0  0  0  0  0  0  0  0  0  0  0
   34.0022   14.5265   61.6279 C   0  0  0  0  0  0  0  0  0  0  0  0
   34.8682   15.3892   60.8928 C   0  0  0  0  0  0  0  0  0  0  0  0
   34.4175   16.0621   59.7727 N   0  0  0  0  0  0  0  0  0  0  0  0
   32.7093   14.1425   61.5208 N   0  0  0  0  0  0  0  0  0  0  0  0
   32.4291   13.3112   62.4823 C   0  0  0  0  0  0  0  0  0  0  0  0
   33.5311   13.1080   63.2762 N   0  0  0  0  0  0  0  0  0  0  0  0
  2  1  1  1  0  0  0
  2  3  1  0  0  0  0
  2  5  1  0  0  0  0
  3  4  1  0  0  0  0
  3 17  1  0  0  0  0
  5  6  1  0  0  0  0
  7  6  1  6  0  0  0
  7  8  1  0  0  0  0
  7  9  1  0  0  0  0
 10  9  1  1  0  0  0
 10 11  1  0  0  0  0
 10 12  1  0  0  0  0
 11 16  1  0  0  0  0
 12 13  1  1  0  0  0
 12 14  1  0  0  0  0
 14 15  1  1  0  0  0
 14 16  1  0  0  0  0
 16 27  1  6  0  0  0
 18 19  2  0  0  0  0
 18 23  1  0  0  0  0
 19 20  1  0  0  0  0
 20 21  2  0  0  0  0
 21 22  1  0  0  0  0
 21 27  1  0  0  0  0
 22 23  2  0  0  0  0
 22 25  1  0  0  0  0
 23 24  1  0  0  0  0
 25 26  2  0  0  0  0
 26 27  1  0  0  0  0
M  END
>  <CHROM.1>
60.78719881,-92.05381156,164.31802463,-112.52912810,-83.88666803,87.56193631
64.46045726,33.61284180,14.00612631,65.41520134,2.29944111,-0.86684667,1.86710818

>  <Name>
ligand

>  <RI>
0

>  <Rbt.Current_Directory>
/home/itssahil/PROJECTS/Mol_Feturizer/New_Systems/rnas/2QWY

>  <Rbt.Executable>
rbdock ($Id: //depot/dev/client3/rdock/2013.1/src/exe/rbdock.cxx#4 $)

>  <Rbt.Library>
libRbt.so (2013.1, Build901 2013/11/27)

>  <Rbt.Parameter_File>
/export/apps/rDock/src/rDock_2013.1_src/data/scripts/dock_solv.prm

>  <Rbt.Receptor>
prm/blind_docking_80.prm

>  <SCORE>
5.62952

>  <SCORE.INTER>
3.57099

>  <SCORE.INTER.CONST>
1

>  <SCORE.INTER.POLAR>
0

>  <SCORE.INTER.ROT>
7

>  <SCORE.INTER.SOLV>
26.2907

>  <SCORE.INTER.VDW>
-14.6496

>  <SCORE.INTER.norm>
0.132259

>  <SCORE.INTRA>
1.05242

>  <SCORE.INTRA.DIHEDRAL>
3.05705

>  <SCORE.INTRA.DIHEDRAL.0>
10.7382

>  <SCORE.INTRA.POLAR>
0

>  <SCORE.INTRA.POLAR.0>
0

>  <SCORE.INTRA.REPUL>
0

>  <SCORE.INTRA.REPUL.0>
0

>  <SCORE.INTRA.SOLV>
-0.733018

>  <SCORE.INTRA.SOLV.lig_0>
-49.2501

>  <SCORE.INTRA.VDW>
-0.109593

>  <SCORE.INTRA.VDW.0>
-1.75368

>  <SCORE.INTRA.norm>
0.0389785

>  <SCORE.RESTR>
1.0061

>  <SCORE.RESTR.CAVITY>
1.0061

>  <SCORE.RESTR.norm>
0.0372631

>  <SCORE.SYSTEM>
0

>  <SCORE.SYSTEM.CONST>
0

>  <SCORE.SYSTEM.DIHEDRAL>
0

>  <SCORE.SYSTEM.SOLV>
0

>  <SCORE.SYSTEM.norm>
0

>  <SCORE.heavy>
27

>  <SCORE.norm>
0.208501

>  <RMSD>
14.686

$$$$
ligand
 OpenBabel11021811463D
libRbt.so/2013.1/901 2013/11/27
 27 29  0  0  0  0  0  0  0  0999 V2000
   36.4907   17.4002   68.6406 N   0  0  0  0  0  0  0  0  0  0  0  0
   37.0952   16.1075   68.2741 C   0  0  2  0  0  0  0  0  0  0  0  0
   37.3864   16.0711   66.7883 C   0  0  0  0  0  0  0  0  0  0  0  0
   36.5023   16.3626   65.9764 O   0  0  0  0  0  0  0  0  0  0  0  0
   36.1199   14.9854   68.6147 C   0  0  0  0  0  0  0  0  0  0  0  0
   34.7217   15.3410   68.1565 C   0  0  0  0  0  0  0  0  0  0  0  0
   33.7544   13.8221   68.1060 S   0  0  2  0  0  0  0  0  0  0  0  0
   34.0992   13.2234   69.7836 C   0  0  0  0  0  0  0  0  0  0  0  0
   34.8640   12.7472   67.1337 C   0  0  0  0  0  0  0  0  0  0  0  0
   34.1776   12.3971   65.8162 C   0  0  1  0  0  0  0  0  0  0  0  0
   34.2693   13.5212   64.9723 O   0  0  0  0  0  0  0  0  0  0  0  0
   34.9029   11.2599   65.0887 C   0  0  1  0  0  0  0  0  0  0  0  0
   34.5462    9.8928   65.3457 O   0  0  0  0  0  0  0  0  0  0  0  0
   34.8429   11.6939   63.5866 C   0  0  1  0  0  0  0  0  0  0  0  0
   34.4051   10.5667   62.8086 O   0  0  0  0  0  0  0  0  0  0  0  0
   34.0730   13.0609   63.6447 C   0  0  2  0  0  0  0  0  0  0  0  0
   38.5172   15.8215   66.3987 O   0  0  0  0  0  0  0  0  0  0  0  0
   32.9562   16.5231   59.9205 N   0  0  0  0  0  0  0  0  0  0  0  0
   32.1303   15.6795   60.5496 C   0  0  0  0  0  0  0  0  0  0  0  0
   32.5721   14.8331   61.4756 N   0  0  0  0  0  0  0  0  0  0  0  0
   33.8682   14.8063   61.8356 C   0  0  0  0  0  0  0  0  0  0  0  0
   34.7846   15.6926   61.2089 C   0  0  0  0  0  0  0  0  0  0  0  0
   34.2697   16.5742   60.2128 C   0  0  0  0  0  0  0  0  0  0  0  0
   35.0955   17.4725   59.5633 N   0  0  0  0  0  0  0  0  0  0  0  0
   36.0012   15.4639   61.7552 N   0  0  0  0  0  0  0  0  0  0  0  0
   35.8978   14.5261   62.6516 C   0  0  0  0  0  0  0  0  0  0  0  0
   34.5995   14.0868   62.7380 N   0  0  0  0  0  0  0  0  0  0  0  0
  2  1  1  6  0  0  0
  2  3  1  0  0  0  0
  2  5  1  0  0  0  0
  3  4  1  0  0  0  0
  3 17  1  0  0  0  0
  5  6  1  0  0  0  0
  7  6  1  1  0  0  0
  7  8  1  0  0  0  0
  7  9  1  0  0  0  0
 10  9  1  1  0  0  0
 10 11  1  0  0  0  0
 10 12  1  0  0  0  0
 11 16  1  0  0  0  0
 12 13  1  6  0  0  0
 12 14  1  0  0  0  0
 14 15  1  6  0  0  0
 14 16  1  0  0  0  0
 16 27  1  6  0  0  0
 18 19  2  0  0  0  0
 18 23  1  0  0  0  0
 19 20  1  0  0  0  0
 20 21  2  0  0  0  0
 21 22  1  0  0  0  0
 21 27  1  0  0  0  0
 22 23  2  0  0  0  0
 22 25  1  0  0  0  0
 23 24  1  0  0  0  0
 25 26  2  0  0  0  0
 26 27  1  0  0  0  0
M  END
>  <CHROM.1>
-51.13640964,45.11358088,162.44616852,52.03184878,-115.42579343,76.58271786
-116.47254918,34.89106441,14.36441758,64.74068518,-1.09868484,-1.13176816
-1.00679230

>  <Name>
ligand

>  <RI>
0

>  <Rbt.Current_Directory>
/home/itssahil/PROJECTS/Mol_Feturizer/New_Systems/rnas/2QWY

>  <Rbt.Executable>
rbdock ($Id: //depot/dev/client3/rdock/2013.1/src/exe/rbdock.cxx#4 $)

>  <Rbt.Library>
libRbt.so (2013.1, Build901 2013/11/27)

>  <Rbt.Parameter_File>
/export/apps/rDock/src/rDock_2013.1_src/data/scripts/dock_solv.prm

>  <Rbt.Receptor>
prm/blind_docking_80.prm

>  <SCORE>
-7.04085

>  <SCORE.INTER>
-9.29921

>  <SCORE.INTER.CONST>
1

>  <SCORE.INTER.POLAR>
0

>  <SCORE.INTER.ROT>
7

>  <SCORE.INTER.SOLV>
23.1754

>  <SCORE.INTER.VDW>
-22.1913

>  <SCORE.INTER.norm>
-0.344415

>  <SCORE.INTRA>
2.21778

>  <SCORE.INTRA.DIHEDRAL>
-0.928554

>  <SCORE.INTRA.DIHEDRAL.0>
10.7382

>  <SCORE.INTRA.POLAR>
0

>  <SCORE.INTRA.POLAR.0>
0

>  <SCORE.INTRA.REPUL>
0

>  <SCORE.INTRA.REPUL.0>
0

>  <SCORE.INTRA.SOLV>
-0.345444

>  <SCORE.INTRA.SOLV.lig_0>
-49.2501

>  <SCORE.INTRA.VDW>
2.85478

>  <SCORE.INTRA.VDW.0>
-1.75368

>  <SCORE.INTRA.norm>
0.0821399

>  <SCORE.RESTR>
0.040583

>  <SCORE.RESTR.CAVITY>
0.040583

>  <SCORE.RESTR.norm>
0.00150307

>  <SCORE.SYSTEM>
0

>  <SCORE.SYSTEM.CONST>
0

>  <SCORE.SYSTEM.DIHEDRAL>
0

>  <SCORE.SYSTEM.SOLV>
0

>  <SCORE.SYSTEM.norm>
0

>  <SCORE.heavy>
27

>  <SCORE.norm>
-0.260772

>  <RMSD>
14.727

$$$$
ligand
 OpenBabel11021811463D
libRbt.so/2013.1/901 2013/11/27
 27 29  0  0  0  0  0  0  0  0999 V2000
   38.4283   16.3727   66.6535 N   0  0  0  0  0  0  0  0  0  0  0  0
   37.7077   15.6193   67.6946 C   0  0  2  0  0  0  0  0  0  0  0  0
   38.0731   14.1513   67.6226 C   0  0  0  0  0  0  0  0  0  0  0  0
   38.5964   13.5947   68.5933 O   0  0  0  0  0  0  0  0  0  0  0  0
   36.2064   15.7670   67.4695 C   0  0  0  0  0  0  0  0  0  0  0  0
   35.4346   15.1181   68.5984 C   0  0  0  0  0  0  0  0  0  0  0  0
   34.1221   14.1228   67.8690 S   0  0  2  0  0  0  0  0  0  0  0  0
   33.5987   13.2281   69.3581 C   0  0  0  0  0  0  0  0  0  0  0  0
   35.1032   12.8314   67.0316 C   0  0  0  0  0  0  0  0  0  0  0  0
   34.2053   12.1007   66.0368 C   0  0  1  0  0  0  0  0  0  0  0  0
   33.7551   13.0434   65.0919 O   0  0  0  0  0  0  0  0  0  0  0  0
   34.9849   11.0452   65.2451 C   0  0  1  0  0  0  0  0  0  0  0  0
   35.0964    9.7031   65.7435 O   0  0  0  0  0  0  0  0  0  0  0  0
   34.4024   11.1735   63.7986 C   0  0  1  0  0  0  0  0  0  0  0  0
   34.0917    9.8541   63.3188 O   0  0  0  0  0  0  0  0  0  0  0  0
   33.3368   12.3168   63.9473 C   0  0  2  0  0  0  0  0  0  0  0  0
   37.7843   13.5034   66.6278 O   0  0  0  0  0  0  0  0  0  0  0  0
   35.9934   15.7795   61.1090 N   0  0  0  0  0  0  0  0  0  0  0  0
   36.4079   15.0768   62.1692 C   0  0  0  0  0  0  0  0  0  0  0  0
   35.5986   14.2356   62.8068 N   0  0  0  0  0  0  0  0  0  0  0  0
   34.3325   14.0386   62.3965 C   0  0  0  0  0  0  0  0  0  0  0  0
   33.8472   14.7490   61.2659 C   0  0  0  0  0  0  0  0  0  0  0  0
   34.7453   15.6497   60.6205 C   0  0  0  0  0  0  0  0  0  0  0  0
   34.3516   16.3712   59.5090 N   0  0  0  0  0  0  0  0  0  0  0  0
   32.5654   14.3629   61.0696 N   0  0  0  0  0  0  0  0  0  0  0  0
   32.2394   13.4865   61.9748 C   0  0  0  0  0  0  0  0  0  0  0  0
   33.2975   13.2530   62.8187 N   0  0  0  0  0  0  0  0  0  0  0  0
  2  1  1  6  0  0  0
  2  3  1  0  0  0  0
  2  5  1  0  0  0  0
  3  4  1  0  0  0  0
  3 17  1  0  0  0  0
  5  6  1  0  0  0  0
  7  6  1  1  0  0  0
  7  8  1  0  0  0  0
  7  9  1  0  0  0  0
 10  9  1  1  0  0  0
 10 11  1  0  0  0  0
 10 12  1  0  0  0  0
 11 16  1  0  0  0  0
 12 13  1  1  0  0  0
 12 14  1  0  0  0  0
 14 15  1  1  0  0  0
 14 16  1  0  0  0  0
 16 27  1  6  0  0  0
 18 19  2  0  0  0  0
 18 23  1  0  0  0  0
 19 20  1  0  0  0  0
 20 21  2  0  0  0  0
 21 22  1  0  0  0  0
 21 27  1  0  0  0  0
 22 23  2  0  0  0  0
 22 25  1  0  0  0  0
 23 24  1  0  0  0  0
 25 26  2  0  0  0  0
 26 27  1  0  0  0  0
M  END
>  <CHROM.1>
119.98440858,-174.47760304,-133.71132804,169.24210199,-164.67570409,61.11943492
54.89692767,35.09922427,13.68725773,64.92675197,-1.01260030,-0.90303269,-1.07477720

>  <Name>
ligand

>  <RI>
0

>  <Rbt.Current_Directory>
/home/itssahil/PROJECTS/Mol_Feturizer/New_Systems/rnas/2QWY

>  <Rbt.Executable>
rbdock ($Id: //depot/dev/client3/rdock/2013.1/src/exe/rbdock.cxx#4 $)

>  <Rbt.Library>
libRbt.so (2013.1, Build901 2013/11/27)

>  <Rbt.Parameter_File>
/export/apps/rDock/src/rDock_2013.1_src/data/scripts/dock_solv.prm

>  <Rbt.Receptor>
prm/blind_docking_80.prm

>  <SCORE>
-8.75555

>  <SCORE.INTER>
-7.23226

>  <SCORE.INTER.CONST>
1

>  <SCORE.INTER.POLAR>
0

>  <SCORE.INTER.ROT>
7

>  <SCORE.INTER.SOLV>
23.794

>  <SCORE.INTER.VDW>
-21.0195

>  <SCORE.INTER.norm>
-0.267862

>  <SCORE.INTRA>
-1.6945

>  <SCORE.INTRA.DIHEDRAL>
-0.998088

>  <SCORE.INTRA.DIHEDRAL.0>
10.7382

>  <SCORE.INTRA.POLAR>
0

>  <SCORE.INTRA.POLAR.0>
0

>  <SCORE.INTRA.REPUL>
0

>  <SCORE.INTRA.REPUL.0>
0

>  <SCORE.INTRA.SOLV>
-1.16767

>  <SCORE.INTRA.SOLV.lig_0>
-49.2501

>  <SCORE.INTRA.VDW>
-0.611621

>  <SCORE.INTRA.VDW.0>
-1.75368

>  <SCORE.INTRA.norm>
-0.0627593

>  <SCORE.RESTR>
0.171219

>  <SCORE.RESTR.CAVITY>
0.171219

>  <SCORE.RESTR.norm>
0.00634143

>  <SCORE.SYSTEM>
0

>  <SCORE.SYSTEM.CONST>
0

>  <SCORE.SYSTEM.DIHEDRAL>
0

>  <SCORE.SYSTEM.SOLV>
0

>  <SCORE.SYSTEM.norm>
0

>  <SCORE.heavy>
27

>  <SCORE.norm>
-0.324279

>  <RMSD>
14.773

$$$$
ligand
 OpenBabel11021811463D
libRbt.so/2013.1/901 2013/11/27
 27 29  0  0  0  0  0  0  0  0999 V2000
   36.0817   15.9168   61.4947 N   0  0  0  0  0  0  0  0  0  0  0  0
   35.3711   15.5544   60.2560 C   0  0  2  0  0  0  0  0  0  0  0  0
   34.8055   16.7957   59.5977 C   0  0  0  0  0  0  0  0  0  0  0  0
   35.0259   17.9097   60.0836 O   0  0  0  0  0  0  0  0  0  0  0  0
   34.2240   14.6087   60.5964 C   0  0  0  0  0  0  0  0  0  0  0  0
   33.4766   15.0998   61.8178 C   0  0  0  0  0  0  0  0  0  0  0  0
   33.6211   13.8396   63.0970 S   0  0  2  0  0  0  0  0  0  0  0  0
   35.3486   14.1284   63.5704 C   0  0  0  0  0  0  0  0  0  0  0  0
   33.8022   12.3389   62.0738 C   0  0  0  0  0  0  0  0  0  0  0  0
   34.0366   11.1434   62.9932 C   0  0  1  0  0  0  0  0  0  0  0  0
   34.9184   11.5522   64.0128 O   0  0  0  0  0  0  0  0  0  0  0  0
   32.7449   10.7126   63.6965 C   0  0  1  0  0  0  0  0  0  0  0  0
   31.8742    9.7489   63.0840 O   0  0  0  0  0  0  0  0  0  0  0  0
   33.2216   10.3562   65.1436 C   0  0  1  0  0  0  0  0  0  0  0  0
   32.6572    9.0836   65.5037 O   0  0  0  0  0  0  0  0  0  0  0  0
   34.7651   10.6368   65.0859 C   0  0  2  0  0  0  0  0  0  0  0  0
   34.1907   16.6969   58.5465 O   0  0  0  0  0  0  0  0  0  0  0  0
   34.2389   14.4913   68.5457 N   0  0  0  0  0  0  0  0  0  0  0  0
   33.4839   14.2236   67.4742 C   0  0  0  0  0  0  0  0  0  0  0  0
   33.7582   13.2032   66.6663 N   0  0  0  0  0  0  0  0  0  0  0  0
   34.7961   12.3816   66.9069 C   0  0  0  0  0  0  0  0  0  0  0  0
   35.6205   12.6128   68.0404 C   0  0  0  0  0  0  0  0  0  0  0  0
   35.2972   13.7254   68.8724 C   0  0  0  0  0  0  0  0  0  0  0  0
   36.0456   14.0119   69.9987 N   0  0  0  0  0  0  0  0  0  0  0  0
   36.5706   11.6496   68.0486 N   0  0  0  0  0  0  0  0  0  0  0  0
   36.3902   10.8624   67.0279 C   0  0  0  0  0  0  0  0  0  0  0  0
   35.3063   11.2735   66.2915 N   0  0  0  0  0  0  0  0  0  0  0  0
  2  1  1  1  0  0  0
  2  3  1  0  0  0  0
  2  5  1  0  0  0  0
  3  4  1  0  0  0  0
  3 17  1  0  0  0  0
  5  6  1  0  0  0  0
  7  6  1  6  0  0  0
  7  8  1  0  0  0  0
  7  9  1  0  0  0  0
 10  9  1  6  0  0  0
 10 11  1  0  0  0  0
 10 12  1  0  0  0  0
 11 16  1  0  0  0  0
 12 13  1  6  0  0  0
 12 14  1  0  0  0  0
 14 15  1  6  0  0  0
 14 16  1  0  0  0  0
 16 27  1  1  0  0  0
 18 19  2  0  0  0  0
 18 23  1  0  0  0  0
 19 20  1  0  0  0  0
 20 21  2  0  0  0  0
 21 22  1  0  0  0  0
 21 27  1  0  0  0  0
 22 23  2  0  0  0  0
 22 25  1  0  0  0  0
 23 24  1  0  0  0  0
 25 26  2  0  0  0  0
 26 27  1  0  0  0  0
M  END
>  <CHROM.1>
3.14316040,44.16900724,-118.43957914,74.34647909,176.20816525,-41.03549172
65.67905859,34.43674607,13.17296528,64.22561977,-1.65340194,1.15013398,2.14712536

>  <Name>
ligand

>  <RI>
0

>  <Rbt.Current_Directory>
/home/itssahil/PROJECTS/Mol_Feturizer/New_Systems/rnas/2QWY

>  <Rbt.Executable>
rbdock ($Id: //depot/dev/client3/rdock/2013.1/src/exe/rbdock.cxx#4 $)

>  <Rbt.Library>
libRbt.so (2013.1, Build901 2013/11/27)

>  <Rbt.Parameter_File>
/export/apps/rDock/src/rDock_2013.1_src/data/scripts/dock_solv.prm

>  <Rbt.Receptor>
prm/blind_docking_80.prm

>  <SCORE>
2.29292

>  <SCORE.INTER>
-8.23032

>  <SCORE.INTER.CONST>
1

>  <SCORE.INTER.POLAR>
0

>  <SCORE.INTER.ROT>
7

>  <SCORE.INTER.SOLV>
17.5525

>  <SCORE.INTER.VDW>
-19.6044

>  <SCORE.INTER.norm>
-0.304827

>  <SCORE.INTRA>
8.47444

>  <SCORE.INTRA.DIHEDRAL>
1.63262

>  <SCORE.INTRA.DIHEDRAL.0>
10.7382

>  <SCORE.INTRA.POLAR>
0

>  <SCORE.INTRA.POLAR.0>
0

>  <SCORE.INTRA.REPUL>
0

>  <SCORE.INTRA.REPUL.0>
0

>  <SCORE.INTRA.SOLV>
2.33346

>  <SCORE.INTRA.SOLV.lig_0>
-49.2501

>  <SCORE.INTRA.VDW>
6.4914

>  <SCORE.INTRA.VDW.0>
-1.75368

>  <SCORE.INTRA.norm>
0.313868

>  <SCORE.RESTR>
2.0488

>  <SCORE.RESTR.CAVITY>
2.0488

>  <SCORE.RESTR.norm>
0.0758815

>  <SCORE.SYSTEM>
0

>  <SCORE.SYSTEM.CONST>
0

>  <SCORE.SYSTEM.DIHEDRAL>
0

>  <SCORE.SYSTEM.SOLV>
0

>  <SCORE.SYSTEM.norm>
0

>  <SCORE.heavy>
27

>  <SCORE.norm>
0.0849229

>  <RMSD>
14.788

$$$$
ligand
 OpenBabel11021811463D
libRbt.so/2013.1/901 2013/11/27
 27 29  0  0  0  0  0  0  0  0999 V2000
   33.5006   19.5134   57.8582 N   0  0  0  0  0  0  0  0  0  0  0  0
   33.4799   19.2743   59.3119 C   0  0  2  0  0  0  0  0  0  0  0  0
   33.9707   20.5029   60.0491 C   0  0  0  0  0  0  0  0  0  0  0  0
   33.3088   20.9721   60.9805 O   0  0  0  0  0  0  0  0  0  0  0  0
   34.3987   18.1015   59.6385 C   0  0  0  0  0  0  0  0  0  0  0  0
   33.5866   16.8781   60.0061 C   0  0  0  0  0  0  0  0  0  0  0  0
   34.6660   15.7480   60.9023 S   0  0  2  0  0  0  0  0  0  0  0  0
   35.5144   14.9990   59.4842 C   0  0  0  0  0  0  0  0  0  0  0  0
   33.4878   14.4198   61.3256 C   0  0  0  0  0  0  0  0  0  0  0  0
   34.1747   13.4368   62.2697 C   0  0  1  0  0  0  0  0  0  0  0  0
   34.9677   14.1827   63.1635 O   0  0  0  0  0  0  0  0  0  0  0  0
   33.1582   12.6816   63.1327 C   0  0  1  0  0  0  0  0  0  0  0  0
   32.5901   11.4471   62.6684 O   0  0  0  0  0  0  0  0  0  0  0  0
   33.8527   12.6113   64.5330 C   0  0  1  0  0  0  0  0  0  0  0  0
   33.7605   11.2596   65.0149 O   0  0  0  0  0  0  0  0  0  0  0  0
   35.2133   13.3557   64.2899 C   0  0  2  0  0  0  0  0  0  0  0  0
   35.0567   20.9856   59.7658 O   0  0  0  0  0  0  0  0  0  0  0  0
   34.1713   15.0107   69.1148 N   0  0  0  0  0  0  0  0  0  0  0  0
   33.4845   14.1415   68.3648 C   0  0  0  0  0  0  0  0  0  0  0  0
   33.8704   13.8295   67.1308 N   0  0  0  0  0  0  0  0  0  0  0  0
   34.9838   14.3593   66.5924 C   0  0  0  0  0  0  0  0  0  0  0  0
   35.7578   15.2763   67.3527 C   0  0  0  0  0  0  0  0  0  0  0  0
   35.3002   15.5917   68.6663 C   0  0  0  0  0  0  0  0  0  0  0  0
   36.0024   16.4683   69.4721 N   0  0  0  0  0  0  0  0  0  0  0  0
   36.8109   15.6438   66.5868 N   0  0  0  0  0  0  0  0  0  0  0  0
   36.7408   15.0306   65.4409 C   0  0  0  0  0  0  0  0  0  0  0  0
   35.6289   14.2257   65.3955 N   0  0  0  0  0  0  0  0  0  0  0  0
  2  1  1  6  0  0  0
  2  3  1  0  0  0  0
  2  5  1  0  0  0  0
  3  4  1  0  0  0  0
  3 17  1  0  0  0  0
  5  6  1  0  0  0  0
  7  6  1  6  0  0  0
  7  8  1  0  0  0  0
  7  9  1  0  0  0  0
 10  9  1  6  0  0  0
 10 11  1  0  0  0  0
 10 12  1  0  0  0  0
 11 16  1  0  0  0  0
 12 13  1  6  0  0  0
 12 14  1  0  0  0  0
 14 15  1  6  0  0  0
 14 16  1  0  0  0  0
 16 27  1  1  0  0  0
 18 19  2  0  0  0  0
 18 23  1  0  0  0  0
 19 20  1  0  0  0  0
 20 21  2  0  0  0  0
 21 22  1  0  0  0  0
 21 27  1  0  0  0  0
 22 23  2  0  0  0  0
 22 25  1  0  0  0  0
 23 24  1  0  0  0  0
 25 26  2  0  0  0  0
 26 27  1  0  0  0  0
M  END
>  <CHROM.1>
129.56110094,-107.33101821,-160.90057833,-80.63683839,-172.19134820,39.12501579
119.45792598,34.48373579,15.57490144,63.41352408,-1.93183453,1.34154933,2.48860729

>  <Name>
ligand

>  <RI>
0

>  <Rbt.Current_Directory>
/home/itssahil/PROJECTS/Mol_Feturizer/New_Systems/rnas/2QWY

>  <Rbt.Executable>
rbdock ($Id: //depot/dev/client3/rdock/2013.1/src/exe/rbdock.cxx#4 $)

>  <Rbt.Library>
libRbt.so (2013.1, Build901 2013/11/27)

>  <Rbt.Parameter_File>
/export/apps/rDock/src/rDock_2013.1_src/data/scripts/dock_solv.prm

>  <Rbt.Receptor>
prm/blind_docking_80.prm

>  <SCORE>
-9.33566

>  <SCORE.INTER>
-11.3115

>  <SCORE.INTER.CONST>
1

>  <SCORE.INTER.POLAR>
0

>  <SCORE.INTER.ROT>
7

>  <SCORE.INTER.SOLV>
16.8346

>  <SCORE.INTER.VDW>
-21.4192

>  <SCORE.INTER.norm>
-0.418946

>  <SCORE.INTRA>
0.709603

>  <SCORE.INTRA.DIHEDRAL>
1.54812

>  <SCORE.INTRA.DIHEDRAL.0>
10.7382

>  <SCORE.INTRA.POLAR>
0

>  <SCORE.INTRA.POLAR.0>
0

>  <SCORE.INTRA.REPUL>
0

>  <SCORE.INTRA.REPUL.0>
0

>  <SCORE.INTRA.SOLV>
-0.791644

>  <SCORE.INTRA.SOLV.lig_0>
-49.2501

>  <SCORE.INTRA.VDW>
0.331366

>  <SCORE.INTRA.VDW.0>
-1.75368

>  <SCORE.INTRA.norm>
0.0262816

>  <SCORE.RESTR>
1.26629

>  <SCORE.RESTR.CAVITY>
1.26629

>  <SCORE.RESTR.norm>
0.0468995

>  <SCORE.SYSTEM>
0

>  <SCORE.SYSTEM.CONST>
0

>  <SCORE.SYSTEM.DIHEDRAL>
0

>  <SCORE.SYSTEM.SOLV>
0

>  <SCORE.SYSTEM.norm>
0

>  <SCORE.heavy>
27

>  <SCORE.norm>
-0.345765

>  <RMSD>
14.812

$$$$
ligand
 OpenBabel11021811463D
libRbt.so/2013.1/901 2013/11/27
 27 29  0  0  0  0  0  0  0  0999 V2000
   33.3937   19.7713   60.3646 N   0  0  0  0  0  0  0  0  0  0  0  0
   33.4520   18.3102   60.1842 C   0  0  2  0  0  0  0  0  0  0  0  0
   33.6114   17.9724   58.7164 C   0  0  0  0  0  0  0  0  0  0  0  0
   33.0152   18.6337   57.8602 O   0  0  0  0  0  0  0  0  0  0  0  0
   32.1553   17.6915   60.6962 C   0  0  0  0  0  0  0  0  0  0  0  0
   32.1504   16.1968   60.4571 C   0  0  0  0  0  0  0  0  0  0  0  0
   33.2599   15.4420   61.6590 S   0  0  2  0  0  0  0  0  0  0  0  0
   34.7538   15.3537   60.6334 C   0  0  0  0  0  0  0  0  0  0  0  0
   32.7034   13.7051   61.5882 C   0  0  0  0  0  0  0  0  0  0  0  0
   33.6662   12.8476   62.4051 C   0  0  1  0  0  0  0  0  0  0  0  0
   34.4885   13.7157   63.1495 O   0  0  0  0  0  0  0  0  0  0  0  0
   32.9210   11.9857   63.4299 C   0  0  1  0  0  0  0  0  0  0  0  0
   32.4567   10.6748   63.0721 O   0  0  0  0  0  0  0  0  0  0  0  0
   33.8432   12.0452   64.6926 C   0  0  1  0  0  0  0  0  0  0  0  0
   34.0180   10.7063   65.1870 O   0  0  0  0  0  0  0  0  0  0  0  0
   35.0296   12.9585   64.2204 C   0  0  2  0  0  0  0  0  0  0  0  0
   34.3859   17.0900   58.3787 O   0  0  0  0  0  0  0  0  0  0  0  0
   34.1652   15.0576   68.9056 N   0  0  0  0  0  0  0  0  0  0  0  0
   33.4308   14.1524   68.2489 C   0  0  0  0  0  0  0  0  0  0  0  0
   33.7749   13.7221   67.0384 N   0  0  0  0  0  0  0  0  0  0  0  0
   34.8918   14.1634   66.4319 C   0  0  0  0  0  0  0  0  0  0  0  0
   35.7154   15.1138   67.0927 C   0  0  0  0  0  0  0  0  0  0  0  0
   35.3017   15.5569   68.3839 C   0  0  0  0  0  0  0  0  0  0  0  0
   36.0531   16.4736   69.0951 N   0  0  0  0  0  0  0  0  0  0  0  0
   36.7609   15.3761   66.2749 N   0  0  0  0  0  0  0  0  0  0  0  0
   36.6414   14.6698   65.1883 C   0  0  0  0  0  0  0  0  0  0  0  0
   35.5020   13.9046   65.2371 N   0  0  0  0  0  0  0  0  0  0  0  0
  2  1  1  6  0  0  0
  2  3  1  0  0  0  0
  2  5  1  0  0  0  0
  3  4  1  0  0  0  0
  3 17  1  0  0  0  0
  5  6  1  0  0  0  0
  7  6  1  6  0  0  0
  7  8  1  0  0  0  0
  7  9  1  0  0  0  0
 10  9  1  1  0  0  0
 10 11  1  0  0  0  0
 10 12  1  0  0  0  0
 11 16  1  0  0  0  0
 12 13  1  6  0  0  0
 12 14  1  0  0  0  0
 14 15  1  6  0  0  0
 14 16  1  0  0  0  0
 16 27  1  1  0  0  0
 18 19  2  0  0  0  0
 18 23  1  0  0  0  0
 19 20  1  0  0  0  0
 20 21  2  0  0  0  0
 21 22  1  0  0  0  0
 21 27  1  0  0  0  0
 22 23  2  0  0  0  0
 22 25  1  0  0  0  0
 23 24  1  0  0  0  0
 25 26  2  0  0  0  0
 26 27  1  0  0  0  0
M  END
>  <CHROM.1>
-38.28737832,176.93954942,74.58733107,-95.40842110,171.99546060,11.71882147
105.92443867,34.06038251,14.94786843,63.44313449,-2.14297001,1.22711430,2.54854470

>  <Name>
ligand

>  <RI>
0

>  <Rbt.Current_Directory>
/home/itssahil/PROJECTS/Mol_Feturizer/New_Systems/rnas/2QWY

>  <Rbt.Executable>
rbdock ($Id: //depot/dev/client3/rdock/2013.1/src/exe/rbdock.cxx#4 $)

>  <Rbt.Library>
libRbt.so (2013.1, Build901 2013/11/27)

>  <Rbt.Parameter_File>
/export/apps/rDock/src/rDock_2013.1_src/data/scripts/dock_solv.prm

>  <Rbt.Receptor>
prm/blind_docking_80.prm

>  <SCORE>
-12.7428

>  <SCORE.INTER>
-16.9124

>  <SCORE.INTER.CONST>
1

>  <SCORE.INTER.POLAR>
0

>  <SCORE.INTER.ROT>
7

>  <SCORE.INTER.SOLV>
18.0492

>  <SCORE.INTER.VDW>
-25.558

>  <SCORE.INTER.norm>
-0.626384

>  <SCORE.INTRA>
2.36715

>  <SCORE.INTRA.DIHEDRAL>
-0.0587376

>  <SCORE.INTRA.DIHEDRAL.0>
10.7382

>  <SCORE.INTRA.POLAR>
0

>  <SCORE.INTRA.POLAR.0>
0

>  <SCORE.INTRA.REPUL>
0

>  <SCORE.INTRA.REPUL.0>
0

>  <SCORE.INTRA.SOLV>
-0.710572

>  <SCORE.INTRA.SOLV.lig_0>
-49.2501

>  <SCORE.INTRA.VDW>
2.75181

>  <SCORE.INTRA.VDW.0>
-1.75368

>  <SCORE.INTRA.norm>
0.0876724

>  <SCORE.RESTR>
1.80245

>  <SCORE.RESTR.CAVITY>
1.80245

>  <SCORE.RESTR.norm>
0.0667575

>  <SCORE.SYSTEM>
0

>  <SCORE.SYSTEM.CONST>
0

>  <SCORE.SYSTEM.DIHEDRAL>
0

>  <SCORE.SYSTEM.SOLV>
0

>  <SCORE.SYSTEM.norm>
0

>  <SCORE.heavy>
27

>  <SCORE.norm>
-0.471954

>  <RMSD>
14.859

$$$$
ligand
 OpenBabel11021811463D
libRbt.so/2013.1/901 2013/11/27
 27 29  0  0  0  0  0  0  0  0999 V2000
   36.4906   17.5958   68.4640 N   0  0  0  0  0  0  0  0  0  0  0  0
   36.2451   16.4321   67.5944 C   0  0  2  0  0  0  0  0  0  0  0  0
   35.1966   15.5312   68.2132 C   0  0  0  0  0  0  0  0  0  0  0  0
   35.1191   15.4235   69.4413 O   0  0  0  0  0  0  0  0  0  0  0  0
   37.5418   15.6450   67.4351 C   0  0  0  0  0  0  0  0  0  0  0  0
   37.3308   14.4543   66.5245 C   0  0  0  0  0  0  0  0  0  0  0  0
   36.8850   13.0446   67.5538 S   0  0  2  0  0  0  0  0  0  0  0  0
   38.5551   12.4881   67.9924 C   0  0  0  0  0  0  0  0  0  0  0  0
   36.4494   11.8171   66.2751 C   0  0  0  0  0  0  0  0  0  0  0  0
   35.1356   12.2354   65.6205 C   0  0  1  0  0  0  0  0  0  0  0  0
   35.3898   13.3808   64.8411 O   0  0  0  0  0  0  0  0  0  0  0  0
   34.6253   11.1656   64.6491 C   0  0  1  0  0  0  0  0  0  0  0  0
   33.7651   10.1149   65.1163 O   0  0  0  0  0  0  0  0  0  0  0  0
   34.0668   12.0014   63.4500 C   0  0  1  0  0  0  0  0  0  0  0  0
   32.7626   11.4958   63.1165 O   0  0  0  0  0  0  0  0  0  0  0  0
   34.3362   13.4823   63.8962 C   0  0  2  0  0  0  0  0  0  0  0  0
   34.3834   14.9674   67.4967 O   0  0  0  0  0  0  0  0  0  0  0  0
   32.9337   16.5069   59.8977 N   0  0  0  0  0  0  0  0  0  0  0  0
   32.1540   15.7875   60.7127 C   0  0  0  0  0  0  0  0  0  0  0  0
   32.6663   15.0421   61.6878 N   0  0  0  0  0  0  0  0  0  0  0  0
   33.9925   14.9986   61.9103 C   0  0  0  0  0  0  0  0  0  0  0  0
   34.8637   15.7564   61.0827 C   0  0  0  0  0  0  0  0  0  0  0  0
   34.2723   16.5315   60.0416 C   0  0  0  0  0  0  0  0  0  0  0  0
   35.0514   17.3026   59.1995 N   0  0  0  0  0  0  0  0  0  0  0  0
   36.1246   15.5397   61.5231 N   0  0  0  0  0  0  0  0  0  0  0  0
   36.0890   14.7256   62.5380 C   0  0  0  0  0  0  0  0  0  0  0  0
   34.7940   14.3623   62.8156 N   0  0  0  0  0  0  0  0  0  0  0  0
  2  1  1  1  0  0  0
  2  3  1  0  0  0  0
  2  5  1  0  0  0  0
  3  4  1  0  0  0  0
  3 17  1  0  0  0  0
  5  6  1  0  0  0  0
  7  6  1  6  0  0  0
  7  8  1  0  0  0  0
  7  9  1  0  0  0  0
 10  9  1  6  0  0  0
 10 11  1  0  0  0  0
 10 12  1  0  0  0  0
 11 16  1  0  0  0  0
 12 13  1  1  0  0  0
 12 14  1  0  0  0  0
 14 15  1  1  0  0  0
 14 16  1  0  0  0  0
 16 27  1  6  0  0  0
 18 19  2  0  0  0  0
 18 23  1  0  0  0  0
 19 20  1  0  0  0  0
 20 21  2  0  0  0  0
 21 22  1  0  0  0  0
 21 27  1  0  0  0  0
 22 23  2  0  0  0  0
 22 25  1  0  0  0  0
 23 24  1  0  0  0  0
 25 26  2  0  0  0  0
 26 27  1  0  0  0  0
M  END
>  <CHROM.1>
-33.16635218,-178.94663037,-91.69787550,-85.21578592,-70.80595656,70.54812331
-161.53157831,35.17726775,14.24505794,64.65967261,-0.62875669,-1.13741269
-0.48527469

>  <Name>
ligand

>  <RI>
0

>  <Rbt.Current_Directory>
/home/itssahil/PROJECTS/Mol_Feturizer/New_Systems/rnas/2QWY

>  <Rbt.Executable>
rbdock ($Id: //depot/dev/client3/rdock/2013.1/src/exe/rbdock.cxx#4 $)

>  <Rbt.Library>
libRbt.so (2013.1, Build901 2013/11/27)

>  <Rbt.Parameter_File>
/export/apps/rDock/src/rDock_2013.1_src/data/scripts/dock_solv.prm

>  <Rbt.Receptor>
prm/blind_docking_80.prm

>  <SCORE>
-9.36655

>  <SCORE.INTER>
-6.59804

>  <SCORE.INTER.CONST>
1

>  <SCORE.INTER.POLAR>
0

>  <SCORE.INTER.ROT>
7

>  <SCORE.INTER.SOLV>
22.7932

>  <SCORE.INTER.VDW>
-20.2631

>  <SCORE.INTER.norm>
-0.244372

>  <SCORE.INTRA>
-2.80105

>  <SCORE.INTRA.DIHEDRAL>
-3.17718

>  <SCORE.INTRA.DIHEDRAL.0>
10.7382

>  <SCORE.INTRA.POLAR>
0

>  <SCORE.INTRA.POLAR.0>
0

>  <SCORE.INTRA.REPUL>
0

>  <SCORE.INTRA.REPUL.0>
0

>  <SCORE.INTRA.SOLV>
-0.898791

>  <SCORE.INTRA.SOLV.lig_0>
-49.2501

>  <SCORE.INTRA.VDW>
-0.763061

>  <SCORE.INTRA.VDW.0>
-1.75368

>  <SCORE.INTRA.norm>
-0.103742

>  <SCORE.RESTR>
0.0325305

>  <SCORE.RESTR.CAVITY>
0.0325305

>  <SCORE.RESTR.norm>
0.00120483

>  <SCORE.SYSTEM>
0

>  <SCORE.SYSTEM.CONST>
0

>  <SCORE.SYSTEM.DIHEDRAL>
0

>  <SCORE.SYSTEM.SOLV>
0

>  <SCORE.SYSTEM.norm>
0

>  <SCORE.heavy>
27

>  <SCORE.norm>
-0.346909

>  <RMSD>
14.868

$$$$
ligand
 OpenBabel11021811463D
libRbt.so/2013.1/901 2013/11/27
 27 29  0  0  0  0  0  0  0  0999 V2000
   35.1002   15.0826   70.0096 N   0  0  0  0  0  0  0  0  0  0  0  0
   35.0112   14.7885   68.5686 C   0  0  2  0  0  0  0  0  0  0  0  0
   33.6395   14.2414   68.2323 C   0  0  0  0  0  0  0  0  0  0  0  0
   33.2783   14.1564   67.0542 O   0  0  0  0  0  0  0  0  0  0  0  0
   36.0626   13.7449   68.2058 C   0  0  0  0  0  0  0  0  0  0  0  0
   35.7842   12.4406   68.9219 C   0  0  0  0  0  0  0  0  0  0  0  0
   36.8172   11.1686   68.1734 S   0  0  2  0  0  0  0  0  0  0  0  0
   38.4415   11.9037   68.5092 C   0  0  0  0  0  0  0  0  0  0  0  0
   36.6260   11.5760   66.4044 C   0  0  0  0  0  0  0  0  0  0  0  0
   35.1474   11.4856   66.0370 C   0  0  1  0  0  0  0  0  0  0  0  0
   34.8497   12.5674   65.1854 O   0  0  0  0  0  0  0  0  0  0  0  0
   34.8438   10.2166   65.2333 C   0  0  1  0  0  0  0  0  0  0  0  0
   34.4900    8.9996   65.9086 O   0  0  0  0  0  0  0  0  0  0  0  0
   33.8176   10.7053   64.1579 C   0  0  1  0  0  0  0  0  0  0  0  0
   32.7175    9.7797   64.1308 O   0  0  0  0  0  0  0  0  0  0  0  0
   33.6603   12.2320   64.4883 C   0  0  2  0  0  0  0  0  0  0  0  0
   32.9203   13.8193   69.1252 O   0  0  0  0  0  0  0  0  0  0  0  0
   36.2198   15.4906   61.3364 N   0  0  0  0  0  0  0  0  0  0  0  0
   36.6733   14.8500   62.4198 C   0  0  0  0  0  0  0  0  0  0  0  0
   35.8855   14.0567   63.1404 N   0  0  0  0  0  0  0  0  0  0  0  0
   34.6022   13.8468   62.7953 C   0  0  0  0  0  0  0  0  0  0  0  0
   34.0751   14.4914   61.6443 C   0  0  0  0  0  0  0  0  0  0  0  0
   34.9516   15.3428   60.9084 C   0  0  0  0  0  0  0  0  0  0  0  0
   34.5169   15.9988   59.7720 N   0  0  0  0  0  0  0  0  0  0  0  0
   32.7836   14.1060   61.5248 N   0  0  0  0  0  0  0  0  0  0  0  0
   32.4897   13.2894   62.4947 C   0  0  0  0  0  0  0  0  0  0  0  0
   33.5803   13.0980   63.3070 N   0  0  0  0  0  0  0  0  0  0  0  0
  2  1  1  1  0  0  0
  2  3  1  0  0  0  0
  2  5  1  0  0  0  0
  3  4  1  0  0  0  0
  3 17  1  0  0  0  0
  5  6  1  0  0  0  0
  7  6  1  1  0  0  0
  7  8  1  0  0  0  0
  7  9  1  0  0  0  0
 10  9  1  6  0  0  0
 10 11  1  0  0  0  0
 10 12  1  0  0  0  0
 11 16  1  0  0  0  0
 12 13  1  1  0  0  0
 12 14  1  0  0  0  0
 14 15  1  1  0  0  0
 14 16  1  0  0  0  0
 16 27  1  6  0  0  0
 18 19  2  0  0  0  0
 18 23  1  0  0  0  0
 19 20  1  0  0  0  0
 20 21  2  0  0  0  0
 21 22  1  0  0  0  0
 21 27  1  0  0  0  0
 22 23  2  0  0  0  0
 22 25  1  0  0  0  0
 23 24  1  0  0  0  0
 25 26  2  0  0  0  0
 26 27  1  0  0  0  0
M  END
>  <CHROM.1>
167.06009311,63.53928944,167.34468349,59.88118292,-59.43785876,139.08118672
14.53656895,34.86765985,12.94517865,65.33561230,-0.76763424,-1.32224447,-0.50997334

>  <Name>
ligand

>  <RI>
0

>  <Rbt.Current_Directory>
/home/itssahil/PROJECTS/Mol_Feturizer/New_Systems/rnas/2QWY

>  <Rbt.Executable>
rbdock ($Id: //depot/dev/client3/rdock/2013.1/src/exe/rbdock.cxx#4 $)

>  <Rbt.Library>
libRbt.so (2013.1, Build901 2013/11/27)

>  <Rbt.Parameter_File>
/export/apps/rDock/src/rDock_2013.1_src/data/scripts/dock_solv.prm

>  <Rbt.Receptor>
prm/blind_docking_80.prm

>  <SCORE>
-6.26404

>  <SCORE.INTER>
-7.92017

>  <SCORE.INTER.CONST>
1

>  <SCORE.INTER.POLAR>
0

>  <SCORE.INTER.ROT>
7

>  <SCORE.INTER.SOLV>
15.8814

>  <SCORE.INTER.VDW>
-18.8406

>  <SCORE.INTER.norm>
-0.29334

>  <SCORE.INTRA>
0.968878

>  <SCORE.INTRA.DIHEDRAL>
-2.52928

>  <SCORE.INTRA.DIHEDRAL.0>
10.7382

>  <SCORE.INTRA.POLAR>
0

>  <SCORE.INTRA.POLAR.0>
0

>  <SCORE.INTRA.REPUL>
0

>  <SCORE.INTRA.REPUL.0>
0

>  <SCORE.INTRA.SOLV>
-0.201329

>  <SCORE.INTRA.SOLV.lig_0>
-49.2501

>  <SCORE.INTRA.VDW>
2.33418

>  <SCORE.INTRA.VDW.0>
-1.75368

>  <SCORE.INTRA.norm>
0.0358844

>  <SCORE.RESTR>
0.687251

>  <SCORE.RESTR.CAVITY>
0.687251

>  <SCORE.RESTR.norm>
0.0254538

>  <SCORE.SYSTEM>
0

>  <SCORE.SYSTEM.CONST>
0

>  <SCORE.SYSTEM.DIHEDRAL>
0

>  <SCORE.SYSTEM.SOLV>
0

>  <SCORE.SYSTEM.norm>
0

>  <SCORE.heavy>
27

>  <SCORE.norm>
-0.232002

>  <RMSD>
14.870

$$$$
ligand
 OpenBabel11021811463D
libRbt.so/2013.1/901 2013/11/27
 27 29  0  0  0  0  0  0  0  0999 V2000
   33.3714   19.7652   60.3118 N   0  0  0  0  0  0  0  0  0  0  0  0
   33.4332   18.3009   60.1610 C   0  0  2  0  0  0  0  0  0  0  0  0
   33.6375   17.9353   58.7055 C   0  0  0  0  0  0  0  0  0  0  0  0
   34.3796   16.9959   58.4010 O   0  0  0  0  0  0  0  0  0  0  0  0
   32.1205   17.6930   60.6442 C   0  0  0  0  0  0  0  0  0  0  0  0
   32.1266   16.1923   60.4463 C   0  0  0  0  0  0  0  0  0  0  0  0
   33.2233   15.4769   61.6836 S   0  0  2  0  0  0  0  0  0  0  0  0
   34.7389   15.3947   60.6897 C   0  0  0  0  0  0  0  0  0  0  0  0
   32.6960   13.7302   61.6328 C   0  0  0  0  0  0  0  0  0  0  0  0
   33.7278   12.8843   62.3739 C   0  0  1  0  0  0  0  0  0  0  0  0
   34.5201   13.7543   63.1482 O   0  0  0  0  0  0  0  0  0  0  0  0
   33.0611   11.9231   63.3639 C   0  0  1  0  0  0  0  0  0  0  0  0
   32.6618   10.6103   62.9406 O   0  0  0  0  0  0  0  0  0  0  0  0
   34.0130   11.9631   64.6051 C   0  0  1  0  0  0  0  0  0  0  0  0
   34.2766   10.6103   65.0151 O   0  0  0  0  0  0  0  0  0  0  0  0
   35.1325   12.9693   64.1590 C   0  0  2  0  0  0  0  0  0  0  0  0
   33.0114   18.5266   57.8389 O   0  0  0  0  0  0  0  0  0  0  0  0
   34.0826   15.0093   68.8324 N   0  0  0  0  0  0  0  0  0  0  0  0
   33.3569   14.1404   68.1196 C   0  0  0  0  0  0  0  0  0  0  0  0
   33.7522   13.7214   66.9208 N   0  0  0  0  0  0  0  0  0  0  0  0
   34.9133   14.1375   66.3836 C   0  0  0  0  0  0  0  0  0  0  0  0
   35.7292   15.0488   67.1061 C   0  0  0  0  0  0  0  0  0  0  0  0
   35.2606   15.4813   68.3820 C   0  0  0  0  0  0  0  0  0  0  0  0
   36.0008   16.3603   69.1503 N   0  0  0  0  0  0  0  0  0  0  0  0
   36.8249   15.2922   66.3506 N   0  0  0  0  0  0  0  0  0  0  0  0
   36.7422   14.6100   65.2453 C   0  0  0  0  0  0  0  0  0  0  0  0
   35.5786   13.8810   65.2181 N   0  0  0  0  0  0  0  0  0  0  0  0
  2  1  1  6  0  0  0
  2  3  1  0  0  0  0
  2  5  1  0  0  0  0
  3  4  1  0  0  0  0
  3 17  1  0  0  0  0
  5  6  1  0  0  0  0
  7  6  1  6  0  0  0
  7  8  1  0  0  0  0
  7  9  1  0  0  0  0
 10  9  1  1  0  0  0
 10 11  1  0  0  0  0
 10 12  1  0  0  0  0
 11 16  1  0  0  0  0
 12 13  1  6  0  0  0
 12 14  1  0  0  0  0
 14 15  1  6  0  0  0
 14 16  1  0  0  0  0
 16 27  1  1  0  0  0
 18 19  2  0  0  0  0
 18 23  1  0  0  0  0
 19 20  1  0  0  0  0
 20 21  2  0  0  0  0
 21 22  1  0  0  0  0
 21 27  1  0  0  0  0
 22 23  2  0  0  0  0
 22 25  1  0  0  0  0
 23 24  1  0  0  0  0
 25 26  2  0  0  0  0
 26 27  1  0  0  0  0
M  END
>  <CHROM.1>
141.27297919,177.50990496,73.35748168,-94.50266980,166.71816518,16.00137707
98.72545456,34.08955013,14.91792741,63.41681230,-2.23194938,1.25207001,2.64299618

>  <Name>
ligand

>  <RI>
0

>  <Rbt.Current_Directory>
/home/itssahil/PROJECTS/Mol_Feturizer/New_Systems/rnas/2QWY

>  <Rbt.Executable>
rbdock ($Id: //depot/dev/client3/rdock/2013.1/src/exe/rbdock.cxx#4 $)

>  <Rbt.Library>
libRbt.so (2013.1, Build901 2013/11/27)

>  <Rbt.Parameter_File>
/export/apps/rDock/src/rDock_2013.1_src/data/scripts/dock_solv.prm

>  <Rbt.Receptor>
prm/blind_docking_80.prm

>  <SCORE>
-12.5664

>  <SCORE.INTER>
-16.6073

>  <SCORE.INTER.CONST>
1

>  <SCORE.INTER.POLAR>
0

>  <SCORE.INTER.ROT>
7

>  <SCORE.INTER.SOLV>
17.1174

>  <SCORE.INTER.VDW>
-25.044

>  <SCORE.INTER.norm>
-0.615085

>  <SCORE.INTRA>
2.22033

>  <SCORE.INTRA.DIHEDRAL>
-0.884748

>  <SCORE.INTRA.DIHEDRAL.0>
10.7382

>  <SCORE.INTRA.POLAR>
0

>  <SCORE.INTRA.POLAR.0>
0

>  <SCORE.INTRA.REPUL>
0

>  <SCORE.INTRA.REPUL.0>
0

>  <SCORE.INTRA.SOLV>
-0.717861

>  <SCORE.INTRA.SOLV.lig_0>
-49.2501

>  <SCORE.INTRA.VDW>
3.02164

>  <SCORE.INTRA.VDW.0>
-1.75368

>  <SCORE.INTRA.norm>
0.0822345

>  <SCORE.RESTR>
1.8206

>  <SCORE.RESTR.CAVITY>
1.8206

>  <SCORE.RESTR.norm>
0.0674295

>  <SCORE.SYSTEM>
0

>  <SCORE.SYSTEM.CONST>
0

>  <SCORE.SYSTEM.DIHEDRAL>
0

>  <SCORE.SYSTEM.SOLV>
0

>  <SCORE.SYSTEM.norm>
0

>  <SCORE.heavy>
27

>  <SCORE.norm>
-0.465422

>  <RMSD>
14.894

$$$$
ligand
 OpenBabel11021811463D
libRbt.so/2013.1/901 2013/11/27
 27 29  0  0  0  0  0  0  0  0999 V2000
   32.8864   13.5084   69.2645 N   0  0  0  0  0  0  0  0  0  0  0  0
   34.3430   13.6753   69.4094 C   0  0  2  0  0  0  0  0  0  0  0  0
   34.8159   14.8583   68.5904 C   0  0  0  0  0  0  0  0  0  0  0  0
   34.3818   15.0335   67.4473 O   0  0  0  0  0  0  0  0  0  0  0  0
   35.0425   12.4158   68.9086 C   0  0  0  0  0  0  0  0  0  0  0  0
   36.5398   12.5294   69.0994 C   0  0  0  0  0  0  0  0  0  0  0  0
   37.3333   11.4541   67.8914 S   0  0  2  0  0  0  0  0  0  0  0  0
   39.0461   12.0086   68.1162 C   0  0  0  0  0  0  0  0  0  0  0  0
   36.9049   12.3152   66.3400 C   0  0  0  0  0  0  0  0  0  0  0  0
   35.5115   11.8726   65.9016 C   0  0  1  0  0  0  0  0  0  0  0  0
   34.9641   12.9003   65.1091 O   0  0  0  0  0  0  0  0  0  0  0  0
   35.5715   10.6312   65.0051 C   0  0  1  0  0  0  0  0  0  0  0  0
   35.5304    9.3177   65.5839 O   0  0  0  0  0  0  0  0  0  0  0  0
   34.4821   10.9157   63.9185 C   0  0  1  0  0  0  0  0  0  0  0  0
   33.6632    9.7416   63.7825 O   0  0  0  0  0  0  0  0  0  0  0  0
   33.9225   12.3209   64.3393 C   0  0  2  0  0  0  0  0  0  0  0  0
   35.5732   15.6766   69.0898 O   0  0  0  0  0  0  0  0  0  0  0  0
   35.8970   15.8173   61.0256 N   0  0  0  0  0  0  0  0  0  0  0  0
   36.5159   15.1648   62.0160 C   0  0  0  0  0  0  0  0  0  0  0  0
   35.8662   14.3065   62.7972 N   0  0  0  0  0  0  0  0  0  0  0  0
   34.5609   14.0408   62.6084 C   0  0  0  0  0  0  0  0  0  0  0  0
   33.8602   14.6957   61.5604 C   0  0  0  0  0  0  0  0  0  0  0  0
   34.5931   15.6172   60.7553 C   0  0  0  0  0  0  0  0  0  0  0  0
   33.9853   16.2879   59.7105 N   0  0  0  0  0  0  0  0  0  0  0  0
   32.5842   14.2466   61.5891 N   0  0  0  0  0  0  0  0  0  0  0  0
   32.4567   13.3827   62.5541 C   0  0  0  0  0  0  0  0  0  0  0  0
   33.6503   13.2216   63.2139 N   0  0  0  0  0  0  0  0  0  0  0  0
  2  1  1  6  0  0  0
  2  3  1  0  0  0  0
  2  5  1  0  0  0  0
  3  4  1  0  0  0  0
  3 17  1  0  0  0  0
  5  6  1  0  0  0  0
  7  6  1  1  0  0  0
  7  8  1  0  0  0  0
  7  9  1  0  0  0  0
 10  9  1  6  0  0  0
 10 11  1  0  0  0  0
 10 12  1  0  0  0  0
 11 16  1  0  0  0  0
 12 13  1  1  0  0  0
 12 14  1  0  0  0  0
 14 15  1  1  0  0  0
 14 16  1  0  0  0  0
 16 27  1  6  0  0  0
 18 19  2  0  0  0  0
 18 23  1  0  0  0  0
 19 20  1  0  0  0  0
 20 21  2  0  0  0  0
 21 22  1  0  0  0  0
 21 27  1  0  0  0  0
 22 23  2  0  0  0  0
 22 25  1  0  0  0  0
 23 24  1  0  0  0  0
 25 26  2  0  0  0  0
 26 27  1  0  0  0  0
M  END
>  <CHROM.1>
-42.92522168,-177.52536519,-154.95093121,169.84410507,-84.08126400,154.74241274
30.00123426,35.11494162,13.12774581,65.24748125,0.45777388,-1.30291554,0.75608504

>  <Name>
ligand

>  <RI>
0

>  <Rbt.Current_Directory>
/home/itssahil/PROJECTS/Mol_Feturizer/New_Systems/rnas/2QWY

>  <Rbt.Executable>
rbdock ($Id: //depot/dev/client3/rdock/2013.1/src/exe/rbdock.cxx#4 $)

>  <Rbt.Library>
libRbt.so (2013.1, Build901 2013/11/27)

>  <Rbt.Parameter_File>
/export/apps/rDock/src/rDock_2013.1_src/data/scripts/dock_solv.prm

>  <Rbt.Receptor>
prm/blind_docking_80.prm

>  <SCORE>
-4.19827

>  <SCORE.INTER>
-1.80313

>  <SCORE.INTER.CONST>
1

>  <SCORE.INTER.POLAR>
0

>  <SCORE.INTER.ROT>
7

>  <SCORE.INTER.SOLV>
20.2056

>  <SCORE.INTER.VDW>
-16.2039

>  <SCORE.INTER.norm>
-0.0667827

>  <SCORE.INTRA>
-3.165

>  <SCORE.INTRA.DIHEDRAL>
-2.85844

>  <SCORE.INTRA.DIHEDRAL.0>
10.7382

>  <SCORE.INTRA.POLAR>
0

>  <SCORE.INTRA.POLAR.0>
0

>  <SCORE.INTRA.REPUL>
0

>  <SCORE.INTRA.REPUL.0>
0

>  <SCORE.INTRA.SOLV>
-0.919452

>  <SCORE.INTRA.SOLV.lig_0>
-49.2501

>  <SCORE.INTRA.VDW>
-1.27605

>  <SCORE.INTRA.VDW.0>
-1.75368

>  <SCORE.INTRA.norm>
-0.117222

>  <SCORE.RESTR>
0.769865

>  <SCORE.RESTR.CAVITY>
0.769865

>  <SCORE.RESTR.norm>
0.0285135

>  <SCORE.SYSTEM>
0

>  <SCORE.SYSTEM.CONST>
0

>  <SCORE.SYSTEM.DIHEDRAL>
0

>  <SCORE.SYSTEM.SOLV>
0

>  <SCORE.SYSTEM.norm>
0

>  <SCORE.heavy>
27

>  <SCORE.norm>
-0.155491

>  <RMSD>
14.895

$$$$
ligand
 OpenBabel11021811463D
libRbt.so/2013.1/901 2013/11/27
 27 29  0  0  0  0  0  0  0  0999 V2000
   32.6007   19.3515   60.3530 N   0  0  0  0  0  0  0  0  0  0  0  0
   34.0244   19.4317   59.9823 C   0  0  2  0  0  0  0  0  0  0  0  0
   34.3778   20.8470   59.5750 C   0  0  0  0  0  0  0  0  0  0  0  0
   33.6412   21.7858   59.8945 O   0  0  0  0  0  0  0  0  0  0  0  0
   34.2876   18.4980   58.8054 C   0  0  0  0  0  0  0  0  0  0  0  0
   33.7794   17.1049   59.1099 C   0  0  0  0  0  0  0  0  0  0  0  0
   34.8762   16.3735   60.3377 S   0  0  2  0  0  0  0  0  0  0  0  0
   35.6180   15.0798   59.3045 C   0  0  0  0  0  0  0  0  0  0  0  0
   33.6866   15.3850   61.3070 C   0  0  0  0  0  0  0  0  0  0  0  0
   34.4480   14.2895   62.0483 C   0  0  1  0  0  0  0  0  0  0  0  0
   35.1255   14.8917   63.1265 O   0  0  0  0  0  0  0  0  0  0  0  0
   33.4945   13.2616   62.6670 C   0  0  1  0  0  0  0  0  0  0  0  0
   33.0809   12.1121   61.9123 O   0  0  0  0  0  0  0  0  0  0  0  0
   34.1484   12.9491   64.0538 C   0  0  1  0  0  0  0  0  0  0  0  0
   34.1909   11.5216   64.2211 O   0  0  0  0  0  0  0  0  0  0  0  0
   35.4255   13.8622   64.0555 C   0  0  2  0  0  0  0  0  0  0  0  0
   35.4287   21.0647   58.9913 O   0  0  0  0  0  0  0  0  0  0  0  0
   33.8388   14.5762   68.9623 N   0  0  0  0  0  0  0  0  0  0  0  0
   33.2474   13.8752   67.9882 C   0  0  0  0  0  0  0  0  0  0  0  0
   33.7709   13.8003   66.7678 N   0  0  0  0  0  0  0  0  0  0  0  0
   34.9324   14.4094   66.4677 C   0  0  0  0  0  0  0  0  0  0  0  0
   35.6089   15.1542   67.4706 C   0  0  0  0  0  0  0  0  0  0  0  0
   35.0053   15.2180   68.7613 C   0  0  0  0  0  0  0  0  0  0  0  0
   35.6056   15.9154   69.7929 N   0  0  0  0  0  0  0  0  0  0  0  0
   36.7373   15.6482   66.9107 N   0  0  0  0  0  0  0  0  0  0  0  0
   36.8005   15.2665   65.6681 C   0  0  0  0  0  0  0  0  0  0  0  0
   35.7078   14.4993   65.3464 N   0  0  0  0  0  0  0  0  0  0  0  0
  2  1  1  6  0  0  0
  2  3  1  0  0  0  0
  2  5  1  0  0  0  0
  3  4  1  0  0  0  0
  3 17  1  0  0  0  0
  5  6  1  0  0  0  0
  7  6  1  6  0  0  0
  7  8  1  0  0  0  0
  7  9  1  0  0  0  0
 10  9  1  1  0  0  0
 10 11  1  0  0  0  0
 10 12  1  0  0  0  0
 11 16  1  0  0  0  0
 12 13  1  6  0  0  0
 12 14  1  0  0  0  0
 14 15  1  6  0  0  0
 14 16  1  0  0  0  0
 16 27  1  1  0  0  0
 18 19  2  0  0  0  0
 18 23  1  0  0  0  0
 19 20  1  0  0  0  0
 20 21  2  0  0  0  0
 21 22  1  0  0  0  0
 21 27  1  0  0  0  0
 22 23  2  0  0  0  0
 22 25  1  0  0  0  0
 23 24  1  0  0  0  0
 25 26  2  0  0  0  0
 26 27  1  0  0  0  0
M  END
>  <CHROM.1>
18.04394482,-52.41338294,-71.72591214,-112.38055531,158.65163653,74.79120386
111.91736128,34.57358314,15.83492475,63.20770433,-1.97291178,1.41701479,2.53447410

>  <Name>
ligand

>  <RI>
0

>  <Rbt.Current_Directory>
/home/itssahil/PROJECTS/Mol_Feturizer/New_Systems/rnas/2QWY

>  <Rbt.Executable>
rbdock ($Id: //depot/dev/client3/rdock/2013.1/src/exe/rbdock.cxx#4 $)

>  <Rbt.Library>
libRbt.so (2013.1, Build901 2013/11/27)

>  <Rbt.Parameter_File>
/export/apps/rDock/src/rDock_2013.1_src/data/scripts/dock_solv.prm

>  <Rbt.Receptor>
prm/blind_docking_80.prm

>  <SCORE>
-9.7904

>  <SCORE.INTER>
-11.2367

>  <SCORE.INTER.CONST>
1

>  <SCORE.INTER.POLAR>
0

>  <SCORE.INTER.ROT>
7

>  <SCORE.INTER.SOLV>
17.5944

>  <SCORE.INTER.VDW>
-21.6226

>  <SCORE.INTER.norm>
-0.416176

>  <SCORE.INTRA>
0.0799393

>  <SCORE.INTRA.DIHEDRAL>
-2.16223

>  <SCORE.INTRA.DIHEDRAL.0>
10.7382

>  <SCORE.INTRA.POLAR>
0

>  <SCORE.INTRA.POLAR.0>
0

>  <SCORE.INTRA.REPUL>
0

>  <SCORE.INTRA.REPUL.0>
0

>  <SCORE.INTRA.SOLV>
0.642504

>  <SCORE.INTRA.SOLV.lig_0>
-49.2501

>  <SCORE.INTRA.VDW>
0.839802

>  <SCORE.INTRA.VDW.0>
-1.75368

>  <SCORE.INTRA.norm>
0.00296072

>  <SCORE.RESTR>
1.3664

>  <SCORE.RESTR.CAVITY>
1.3664

>  <SCORE.RESTR.norm>
0.0506076

>  <SCORE.SYSTEM>
0

>  <SCORE.SYSTEM.CONST>
0

>  <SCORE.SYSTEM.DIHEDRAL>
0

>  <SCORE.SYSTEM.SOLV>
0

>  <SCORE.SYSTEM.norm>
0

>  <SCORE.heavy>
27

>  <SCORE.norm>
-0.362607

>  <RMSD>
14.900

$$$$
ligand
 OpenBabel11021811463D
libRbt.so/2013.1/901 2013/11/27
 27 29  0  0  0  0  0  0  0  0999 V2000
   39.3432   15.6740   67.4202 N   0  0  0  0  0  0  0  0  0  0  0  0
   37.9132   15.3208   67.3884 C   0  0  2  0  0  0  0  0  0  0  0  0
   37.0665   16.5765   67.3757 C   0  0  0  0  0  0  0  0  0  0  0  0
   36.8094   17.1611   68.4330 O   0  0  0  0  0  0  0  0  0  0  0  0
   37.5719   14.5067   68.6323 C   0  0  0  0  0  0  0  0  0  0  0  0
   37.0517   13.1391   68.2445 C   0  0  0  0  0  0  0  0  0  0  0  0
   35.4792   13.3670   67.3956 S   0  0  2  0  0  0  0  0  0  0  0  0
   34.3660   13.0049   68.7817 C   0  0  0  0  0  0  0  0  0  0  0  0
   35.3694   11.8023   66.4622 C   0  0  0  0  0  0  0  0  0  0  0  0
   34.0104   11.7378   65.7703 C   0  0  1  0  0  0  0  0  0  0  0  0
   33.9308   12.8249   64.8781 O   0  0  0  0  0  0  0  0  0  0  0  0
   33.8746   10.4746   64.9135 C   0  0  1  0  0  0  0  0  0  0  0  0
   33.3571    9.2637   65.4865 O   0  0  0  0  0  0  0  0  0  0  0  0
   33.1258   10.9814   63.6365 C   0  0  1  0  0  0  0  0  0  0  0  0
   32.0447   10.0752   63.3580 O   0  0  0  0  0  0  0  0  0  0  0  0
   32.9238   12.5105   63.9294 C   0  0  2  0  0  0  0  0  0  0  0  0
   36.6986   17.0480   66.3103 O   0  0  0  0  0  0  0  0  0  0  0  0
   36.2629   15.5393   61.3254 N   0  0  0  0  0  0  0  0  0  0  0  0
   36.4619   14.8650   62.4635 C   0  0  0  0  0  0  0  0  0  0  0  0
   35.4960   14.1413   63.0223 N   0  0  0  0  0  0  0  0  0  0  0  0
   34.2818   14.0384   62.4520 C   0  0  0  0  0  0  0  0  0  0  0  0
   34.0229   14.7227   61.2342 C   0  0  0  0  0  0  0  0  0  0  0  0
   35.0834   15.4969   60.6771 C   0  0  0  0  0  0  0  0  0  0  0  0
   34.9135   16.1849   59.4902 N   0  0  0  0  0  0  0  0  0  0  0  0
   32.7461   14.4459   60.8822 N   0  0  0  0  0  0  0  0  0  0  0  0
   32.2180   13.6583   61.7736 C   0  0  0  0  0  0  0  0  0  0  0  0
   33.1270   13.3782   62.7642 N   0  0  0  0  0  0  0  0  0  0  0  0
  2  1  1  1  0  0  0
  2  3  1  0  0  0  0
  2  5  1  0  0  0  0
  3  4  1  0  0  0  0
  3 17  1  0  0  0  0
  5  6  1  0  0  0  0
  7  6  1  1  0  0  0
  7  8  1  0  0  0  0
  7  9  1  0  0  0  0
 10  9  1  6  0  0  0
 10 11  1  0  0  0  0
 10 12  1  0  0  0  0
 11 16  1  0  0  0  0
 12 13  1  1  0  0  0
 12 14  1  0  0  0  0
 14 15  1  1  0  0  0
 14 16  1  0  0  0  0
 16 27  1  6  0  0  0
 18 19  2  0  0  0  0
 18 23  1  0  0  0  0
 19 20  1  0  0  0  0
 20 21  2  0  0  0  0
 21 22  1  0  0  0  0
 21 27  1  0  0  0  0
 22 23  2  0  0  0  0
 22 25  1  0  0  0  0
 23 24  1  0  0  0  0
 25 26  2  0  0  0  0
 26 27  1  0  0  0  0
M  END
>  <CHROM.1>
-82.76078464,-119.88449356,-65.92146333,-99.13315332,174.30687719,61.35883165
19.22443681,35.04185883,13.72732590,64.83224882,-0.64985187,-0.90806176,-1.04354169

>  <Name>
ligand

>  <RI>
0

>  <Rbt.Current_Directory>
/home/itssahil/PROJECTS/Mol_Feturizer/New_Systems/rnas/2QWY

>  <Rbt.Executable>
rbdock ($Id: //depot/dev/client3/rdock/2013.1/src/exe/rbdock.cxx#4 $)

>  <Rbt.Library>
libRbt.so (2013.1, Build901 2013/11/27)

>  <Rbt.Parameter_File>
/export/apps/rDock/src/rDock_2013.1_src/data/scripts/dock_solv.prm

>  <Rbt.Receptor>
prm/blind_docking_80.prm

>  <SCORE>
-9.66132

>  <SCORE.INTER>
-10.1338

>  <SCORE.INTER.CONST>
1

>  <SCORE.INTER.POLAR>
0

>  <SCORE.INTER.ROT>
7

>  <SCORE.INTER.SOLV>
25.8735

>  <SCORE.INTER.VDW>
-23.647

>  <SCORE.INTER.norm>
-0.375326

>  <SCORE.INTRA>
-0.657951

>  <SCORE.INTRA.DIHEDRAL>
0.559315

>  <SCORE.INTRA.DIHEDRAL.0>
10.7382

>  <SCORE.INTRA.POLAR>
0

>  <SCORE.INTRA.POLAR.0>
0

>  <SCORE.INTRA.REPUL>
0

>  <SCORE.INTRA.REPUL.0>
0

>  <SCORE.INTRA.SOLV>
-0.78377

>  <SCORE.INTRA.SOLV.lig_0>
-49.2501

>  <SCORE.INTRA.VDW>
-0.545723

>  <SCORE.INTRA.VDW.0>
-1.75368

>  <SCORE.INTRA.norm>
-0.0243685

>  <SCORE.RESTR>
1.13043

>  <SCORE.RESTR.CAVITY>
1.13043

>  <SCORE.RESTR.norm>
0.0418678

>  <SCORE.SYSTEM>
0

>  <SCORE.SYSTEM.CONST>
0

>  <SCORE.SYSTEM.DIHEDRAL>
0

>  <SCORE.SYSTEM.SOLV>
0

>  <SCORE.SYSTEM.norm>
0

>  <SCORE.heavy>
27

>  <SCORE.norm>
-0.357827

>  <RMSD>
14.914

$$$$
ligand
 OpenBabel11021811463D
libRbt.so/2013.1/901 2013/11/27
 27 29  0  0  0  0  0  0  0  0999 V2000
   35.0194   15.5488   69.9882 N   0  0  0  0  0  0  0  0  0  0  0  0
   34.8510   15.2506   68.5553 C   0  0  2  0  0  0  0  0  0  0  0  0
   33.3945   14.9701   68.2492 C   0  0  0  0  0  0  0  0  0  0  0  0
   32.5075   15.4591   68.9563 O   0  0  0  0  0  0  0  0  0  0  0  0
   35.6771   14.0184   68.2009 C   0  0  0  0  0  0  0  0  0  0  0  0
   35.1121   12.7884   68.8785 C   0  0  0  0  0  0  0  0  0  0  0  0
   35.9246   11.3454   68.1694 S   0  0  2  0  0  0  0  0  0  0  0  0
   37.6374   11.7554   68.6048 C   0  0  0  0  0  0  0  0  0  0  0  0
   35.9153   11.7885   66.3988 C   0  0  0  0  0  0  0  0  0  0  0  0
   34.4690   11.8426   65.9140 C   0  0  1  0  0  0  0  0  0  0  0  0
   34.3716   12.8826   64.9690 O   0  0  0  0  0  0  0  0  0  0  0  0
   34.0749   10.5592   65.1750 C   0  0  1  0  0  0  0  0  0  0  0  0
   33.5246    9.4475   65.8985 O   0  0  0  0  0  0  0  0  0  0  0  0
   33.2011   11.0794   63.9857 C   0  0  1  0  0  0  0  0  0  0  0  0
   32.0015   10.2888   63.9278 O   0  0  0  0  0  0  0  0  0  0  0  0
   33.2068   12.6350   64.1977 C   0  0  2  0  0  0  0  0  0  0  0  0
   33.0984   14.3171   67.2599 O   0  0  0  0  0  0  0  0  0  0  0  0
   36.3296   15.4859   61.1606 N   0  0  0  0  0  0  0  0  0  0  0  0
   36.6095   14.9054   62.3329 C   0  0  0  0  0  0  0  0  0  0  0  0
   35.6916   14.2173   63.0061 N   0  0  0  0  0  0  0  0  0  0  0  0
   34.4461   14.0568   62.5233 C   0  0  0  0  0  0  0  0  0  0  0  0
   34.1014   14.6404   61.2748 C   0  0  0  0  0  0  0  0  0  0  0  0
   35.1130   15.3799   60.5933 C   0  0  0  0  0  0  0  0  0  0  0  0
   34.8589   15.9706   59.3697 N   0  0  0  0  0  0  0  0  0  0  0  0
   32.8098   14.3230   61.0265 N   0  0  0  0  0  0  0  0  0  0  0  0
   32.3505   13.6021   62.0080 C   0  0  0  0  0  0  0  0  0  0  0  0
   33.3236   13.4106   62.9581 N   0  0  0  0  0  0  0  0  0  0  0  0
  2  1  1  1  0  0  0
  2  3  1  0  0  0  0
  2  5  1  0  0  0  0
  3  4  1  0  0  0  0
  3 17  1  0  0  0  0
  5  6  1  0  0  0  0
  7  6  1  1  0  0  0
  7  8  1  0  0  0  0
  7  9  1  0  0  0  0
 10  9  1  6  0  0  0
 10 11  1  0  0  0  0
 10 12  1  0  0  0  0
 11 16  1  0  0  0  0
 12 13  1  1  0  0  0
 12 14  1  0  0  0  0
 14 15  1  1  0  0  0
 14 16  1  0  0  0  0
 16 27  1  6  0  0  0
 18 19  2  0  0  0  0
 18 23  1  0  0  0  0
 19 20  1  0  0  0  0
 20 21  2  0  0  0  0
 21 22  1  0  0  0  0
 21 27  1  0  0  0  0
 22 23  2  0  0  0  0
 22 25  1  0  0  0  0
 23 24  1  0  0  0  0
 25 26  2  0  0  0  0
 26 27  1  0  0  0  0
M  END
>  <CHROM.1>
26.45182467,67.20064521,169.11159401,59.70626162,-65.20392477,144.30110335
10.61130855,34.48302578,13.26080137,65.19573004,-1.21324674,-1.30809786,-1.02763373

>  <Name>
ligand

>  <RI>
0

>  <Rbt.Current_Directory>
/home/itssahil/PROJECTS/Mol_Feturizer/New_Systems/rnas/2QWY

>  <Rbt.Executable>
rbdock ($Id: //depot/dev/client3/rdock/2013.1/src/exe/rbdock.cxx#4 $)

>  <Rbt.Library>
libRbt.so (2013.1, Build901 2013/11/27)

>  <Rbt.Parameter_File>
/export/apps/rDock/src/rDock_2013.1_src/data/scripts/dock_solv.prm

>  <Rbt.Receptor>
prm/blind_docking_80.prm

>  <SCORE>
-8.07385

>  <SCORE.INTER>
-10.0841

>  <SCORE.INTER.CONST>
1

>  <SCORE.INTER.POLAR>
0

>  <SCORE.INTER.ROT>
7

>  <SCORE.INTER.SOLV>
21.9919

>  <SCORE.INTER.VDW>
-22.3201

>  <SCORE.INTER.norm>
-0.373486

>  <SCORE.INTRA>
1.46544

>  <SCORE.INTRA.DIHEDRAL>
-3.43825

>  <SCORE.INTRA.DIHEDRAL.0>
10.7382

>  <SCORE.INTRA.POLAR>
0

>  <SCORE.INTRA.POLAR.0>
0

>  <SCORE.INTRA.REPUL>
0

>  <SCORE.INTRA.REPUL.0>
0

>  <SCORE.INTRA.SOLV>
-0.293977

>  <SCORE.INTRA.SOLV.lig_0>
-49.2501

>  <SCORE.INTRA.VDW>
3.33155

>  <SCORE.INTRA.VDW.0>
-1.75368

>  <SCORE.INTRA.norm>
0.0542755

>  <SCORE.RESTR>
0.544835

>  <SCORE.RESTR.CAVITY>
0.544835

>  <SCORE.RESTR.norm>
0.0201791

>  <SCORE.SYSTEM>
0

>  <SCORE.SYSTEM.CONST>
0

>  <SCORE.SYSTEM.DIHEDRAL>
0

>  <SCORE.SYSTEM.SOLV>
0

>  <SCORE.SYSTEM.norm>
0

>  <SCORE.heavy>
27

>  <SCORE.norm>
-0.299031

>  <RMSD>
14.921

$$$$
ligand
 OpenBabel11021811463D
libRbt.so/2013.1/901 2013/11/27
 27 29  0  0  0  0  0  0  0  0999 V2000
   35.4009   15.8825   67.3885 N   0  0  0  0  0  0  0  0  0  0  0  0
   35.6198   14.5626   68.0056 C   0  0  2  0  0  0  0  0  0  0  0  0
   35.1061   14.5620   69.4304 C   0  0  0  0  0  0  0  0  0  0  0  0
   35.0003   15.6246   70.0512 O   0  0  0  0  0  0  0  0  0  0  0  0
   37.1144   14.2588   68.0184 C   0  0  0  0  0  0  0  0  0  0  0  0
   37.3775   12.9193   68.6726 C   0  0  0  0  0  0  0  0  0  0  0  0
   36.1422   11.7568   68.0661 S   0  0  2  0  0  0  0  0  0  0  0  0
   37.0024   10.2107   68.4676 C   0  0  0  0  0  0  0  0  0  0  0  0
   36.4448   11.8497   66.2685 C   0  0  0  0  0  0  0  0  0  0  0  0
   35.1360   12.2052   65.5682 C   0  0  1  0  0  0  0  0  0  0  0  0
   35.3581   13.3706   64.8089 O   0  0  0  0  0  0  0  0  0  0  0  0
   34.7198   11.1204   64.5690 C   0  0  1  0  0  0  0  0  0  0  0  0
   33.8995   10.0211   64.9943 O   0  0  0  0  0  0  0  0  0  0  0  0
   34.1629   11.9384   63.3569 C   0  0  1  0  0  0  0  0  0  0  0  0
   32.9008   11.3685   62.9699 O   0  0  0  0  0  0  0  0  0  0  0  0
   34.3367   13.4265   63.8258 C   0  0  2  0  0  0  0  0  0  0  0  0
   34.7307   13.5162   69.9383 O   0  0  0  0  0  0  0  0  0  0  0  0
   32.9123   16.5243   59.8914 N   0  0  0  0  0  0  0  0  0  0  0  0
   32.1391   15.7715   60.6821 C   0  0  0  0  0  0  0  0  0  0  0  0
   32.6568   15.0112   61.6428 N   0  0  0  0  0  0  0  0  0  0  0  0
   33.9818   14.9853   61.8750 C   0  0  0  0  0  0  0  0  0  0  0  0
   34.8460   15.7783   61.0734 C   0  0  0  0  0  0  0  0  0  0  0  0
   34.2491   16.5686   60.0469 C   0  0  0  0  0  0  0  0  0  0  0  0
   35.0210   17.3737   59.2304 N   0  0  0  0  0  0  0  0  0  0  0  0
   36.1070   15.5728   61.5186 N   0  0  0  0  0  0  0  0  0  0  0  0
   36.0778   14.7334   62.5129 C   0  0  0  0  0  0  0  0  0  0  0  0
   34.7873   14.3409   62.7709 N   0  0  0  0  0  0  0  0  0  0  0  0
  2  1  1  1  0  0  0
  2  3  1  0  0  0  0
  2  5  1  0  0  0  0
  3  4  1  0  0  0  0
  3 17  1  0  0  0  0
  5  6  1  0  0  0  0
  7  6  1  1  0  0  0
  7  8  1  0  0  0  0
  7  9  1  0  0  0  0
 10  9  1  6  0  0  0
 10 11  1  0  0  0  0
 10 12  1  0  0  0  0
 11 16  1  0  0  0  0
 12 13  1  1  0  0  0
 12 14  1  0  0  0  0
 14 15  1  1  0  0  0
 14 16  1  0  0  0  0
 16 27  1  6  0  0  0
 18 19  2  0  0  0  0
 18 23  1  0  0  0  0
 19 20  1  0  0  0  0
 20 21  2  0  0  0  0
 21 22  1  0  0  0  0
 21 27  1  0  0  0  0
 22 23  2  0  0  0  0
 22 25  1  0  0  0  0
 23 24  1  0  0  0  0
 25 26  2  0  0  0  0
 26 27  1  0  0  0  0
M  END
>  <CHROM.1>
-23.42574732,178.85370290,42.86289769,160.31292510,-124.91634244,123.75694780
-158.75213509,35.00005225,13.73058806,64.92798757,-0.56209626,-1.29500734
-0.23936504

>  <Name>
ligand

>  <RI>
0

>  <Rbt.Current_Directory>
/home/itssahil/PROJECTS/Mol_Feturizer/New_Systems/rnas/2QWY

>  <Rbt.Executable>
rbdock ($Id: //depot/dev/client3/rdock/2013.1/src/exe/rbdock.cxx#4 $)

>  <Rbt.Library>
libRbt.so (2013.1, Build901 2013/11/27)

>  <Rbt.Parameter_File>
/export/apps/rDock/src/rDock_2013.1_src/data/scripts/dock_solv.prm

>  <Rbt.Receptor>
prm/blind_docking_80.prm

>  <SCORE>
0.269197

>  <SCORE.INTER>
-3.22413

>  <SCORE.INTER.CONST>
1

>  <SCORE.INTER.POLAR>
0

>  <SCORE.INTER.ROT>
7

>  <SCORE.INTER.SOLV>
19.0173

>  <SCORE.INTER.VDW>
-16.7552

>  <SCORE.INTER.norm>
-0.119412

>  <SCORE.INTRA>
3.19881

>  <SCORE.INTRA.DIHEDRAL>
3.35355

>  <SCORE.INTRA.DIHEDRAL.0>
10.7382

>  <SCORE.INTRA.POLAR>
0

>  <SCORE.INTRA.POLAR.0>
0

>  <SCORE.INTRA.REPUL>
0

>  <SCORE.INTRA.REPUL.0>
0

>  <SCORE.INTRA.SOLV>
0.622385

>  <SCORE.INTRA.SOLV.lig_0>
-49.2501

>  <SCORE.INTRA.VDW>
1.21085

>  <SCORE.INTRA.VDW.0>
-1.75368

>  <SCORE.INTRA.norm>
0.118475

>  <SCORE.RESTR>
0.294509

>  <SCORE.RESTR.CAVITY>
0.294509

>  <SCORE.RESTR.norm>
0.0109077

>  <SCORE.SYSTEM>
0

>  <SCORE.SYSTEM.CONST>
0

>  <SCORE.SYSTEM.DIHEDRAL>
0

>  <SCORE.SYSTEM.SOLV>
0

>  <SCORE.SYSTEM.norm>
0

>  <SCORE.heavy>
27

>  <SCORE.norm>
0.00997024

>  <RMSD>
14.977

$$$$
ligand
 OpenBabel11021811463D
libRbt.so/2013.1/901 2013/11/27
 27 29  0  0  0  0  0  0  0  0999 V2000
   38.3970   14.9904   67.4010 N   0  0  0  0  0  0  0  0  0  0  0  0
   36.9972   15.4107   67.5877 C   0  0  2  0  0  0  0  0  0  0  0  0
   36.8973   16.9215   67.5492 C   0  0  0  0  0  0  0  0  0  0  0  0
   37.2956   17.5437   66.5593 O   0  0  0  0  0  0  0  0  0  0  0  0
   36.5039   14.9167   68.9437 C   0  0  0  0  0  0  0  0  0  0  0  0
   36.5906   13.4074   69.0217 C   0  0  0  0  0  0  0  0  0  0  0  0
   35.1514   12.7276   68.1779 S   0  0  2  0  0  0  0  0  0  0  0  0
   35.5486   10.9647   68.3385 C   0  0  0  0  0  0  0  0  0  0  0  0
   35.6137   13.0163   66.4359 C   0  0  0  0  0  0  0  0  0  0  0  0
   34.6222   12.2827   65.5369 C   0  0  1  0  0  0  0  0  0  0  0  0
   34.0297   13.2347   64.6844 O   0  0  0  0  0  0  0  0  0  0  0  0
   35.3294   11.2762   64.6229 C   0  0  1  0  0  0  0  0  0  0  0  0
   35.5428    9.9256   65.0618 O   0  0  0  0  0  0  0  0  0  0  0  0
   34.5684   11.4236   63.2637 C   0  0  1  0  0  0  0  0  0  0  0  0
   34.2411   10.1078   62.7850 O   0  0  0  0  0  0  0  0  0  0  0  0
   33.4951   12.5255   63.5779 C   0  0  2  0  0  0  0  0  0  0  0  0
   36.3575   17.5163   68.4698 O   0  0  0  0  0  0  0  0  0  0  0  0
   35.6139   16.3007   60.6861 N   0  0  0  0  0  0  0  0  0  0  0  0
   36.1685   15.6043   61.6847 C   0  0  0  0  0  0  0  0  0  0  0  0
   35.4870   14.6742   62.3476 N   0  0  0  0  0  0  0  0  0  0  0  0
   34.2148   14.3781   62.0251 C   0  0  0  0  0  0  0  0  0  0  0  0
   33.5837   15.0779   60.9621 C   0  0  0  0  0  0  0  0  0  0  0  0
   34.3477   16.0755   60.2870 C   0  0  0  0  0  0  0  0  0  0  0  0
   33.8081   16.7940   59.2365 N   0  0  0  0  0  0  0  0  0  0  0  0
   32.3289   14.5853   60.8466 N   0  0  0  0  0  0  0  0  0  0  0  0
   32.1511   13.6548   61.7391 C   0  0  0  0  0  0  0  0  0  0  0  0
   33.2875   13.4900   62.4924 N   0  0  0  0  0  0  0  0  0  0  0  0
  2  1  1  1  0  0  0
  2  3  1  0  0  0  0
  2  5  1  0  0  0  0
  3  4  1  0  0  0  0
  3 17  1  0  0  0  0
  5  6  1  0  0  0  0
  7  6  1  1  0  0  0
  7  8  1  0  0  0  0
  7  9  1  0  0  0  0
 10  9  1  1  0  0  0
 10 11  1  0  0  0  0
 10 12  1  0  0  0  0
 11 16  1  0  0  0  0
 12 13  1  1  0  0  0
 12 14  1  0  0  0  0
 14 15  1  1  0  0  0
 14 16  1  0  0  0  0
 16 27  1  6  0  0  0
 18 19  2  0  0  0  0
 18 23  1  0  0  0  0
 19 20  1  0  0  0  0
 20 21  2  0  0  0  0
 21 22  1  0  0  0  0
 21 27  1  0  0  0  0
 22 23  2  0  0  0  0
 22 25  1  0  0  0  0
 23 24  1  0  0  0  0
 25 26  2  0  0  0  0
 26 27  1  0  0  0  0
M  END
>  <CHROM.1>
57.48181353,-59.66250493,-80.76221248,177.07372328,170.12639558,122.15592598
50.67139726,35.14852079,13.93272956,64.72431168,-0.67669162,-1.12767835,-0.66782829

>  <Name>
ligand

>  <RI>
0

>  <Rbt.Current_Directory>
/home/itssahil/PROJECTS/Mol_Feturizer/New_Systems/rnas/2QWY

>  <Rbt.Executable>
rbdock ($Id: //depot/dev/client3/rdock/2013.1/src/exe/rbdock.cxx#4 $)

>  <Rbt.Library>
libRbt.so (2013.1, Build901 2013/11/27)

>  <Rbt.Parameter_File>
/export/apps/rDock/src/rDock_2013.1_src/data/scripts/dock_solv.prm

>  <Rbt.Receptor>
prm/blind_docking_80.prm

>  <SCORE>
-6.46983

>  <SCORE.INTER>
-7.54735

>  <SCORE.INTER.CONST>
1

>  <SCORE.INTER.POLAR>
0

>  <SCORE.INTER.ROT>
7

>  <SCORE.INTER.SOLV>
15.9416

>  <SCORE.INTER.VDW>
-18.6121

>  <SCORE.INTER.norm>
-0.279531

>  <SCORE.INTRA>
0.990422

>  <SCORE.INTRA.DIHEDRAL>
-0.817805

>  <SCORE.INTRA.DIHEDRAL.0>
10.7382

>  <SCORE.INTRA.POLAR>
0

>  <SCORE.INTRA.POLAR.0>
0

>  <SCORE.INTRA.REPUL>
0

>  <SCORE.INTRA.REPUL.0>
0

>  <SCORE.INTRA.SOLV>
0.952281

>  <SCORE.INTRA.SOLV.lig_0>
-49.2501

>  <SCORE.INTRA.VDW>
0.923183

>  <SCORE.INTRA.VDW.0>
-1.75368

>  <SCORE.INTRA.norm>
0.0366823

>  <SCORE.RESTR>
0.0870973

>  <SCORE.RESTR.CAVITY>
0.0870973

>  <SCORE.RESTR.norm>
0.00322583

>  <SCORE.SYSTEM>
0

>  <SCORE.SYSTEM.CONST>
0

>  <SCORE.SYSTEM.DIHEDRAL>
0

>  <SCORE.SYSTEM.SOLV>
0

>  <SCORE.SYSTEM.norm>
0

>  <SCORE.heavy>
27

>  <SCORE.norm>
-0.239623

>  <RMSD>
14.979

$$$$
ligand
 OpenBabel11021811463D
libRbt.so/2013.1/901 2013/11/27
 27 29  0  0  0  0  0  0  0  0999 V2000
   32.8271   16.0747   61.7166 N   0  0  0  0  0  0  0  0  0  0  0  0
   33.9372   15.1583   61.4026 C   0  0  2  0  0  0  0  0  0  0  0  0
   34.7479   15.7000   60.2436 C   0  0  0  0  0  0  0  0  0  0  0  0
   34.5934   16.8678   59.8718 O   0  0  0  0  0  0  0  0  0  0  0  0
   33.3674   13.7978   61.0145 C   0  0  0  0  0  0  0  0  0  0  0  0
   32.8938   13.0513   62.2433 C   0  0  0  0  0  0  0  0  0  0  0  0
   34.1746   11.8692   62.6988 S   0  0  2  0  0  0  0  0  0  0  0  0
   33.8899   10.6420   61.3933 C   0  0  0  0  0  0  0  0  0  0  0  0
   33.3792   11.0389   64.1164 C   0  0  0  0  0  0  0  0  0  0  0  0
   34.4526   10.3214   64.9304 C   0  0  1  0  0  0  0  0  0  0  0  0
   35.5306   11.2123   65.0991 O   0  0  0  0  0  0  0  0  0  0  0  0
   33.9570    9.9828   66.3404 C   0  0  1  0  0  0  0  0  0  0  0  0
   33.2906    8.7362   66.5934 O   0  0  0  0  0  0  0  0  0  0  0  0
   35.2045   10.2671   67.2412 C   0  0  1  0  0  0  0  0  0  0  0  0
   35.3896    9.1459   68.1223 O   0  0  0  0  0  0  0  0  0  0  0  0
   36.2843   10.7468   66.2074 C   0  0  2  0  0  0  0  0  0  0  0  0
   35.6044   15.0004   59.7244 O   0  0  0  0  0  0  0  0  0  0  0  0
   37.0613   15.8940   66.1217 N   0  0  0  0  0  0  0  0  0  0  0  0
   36.1186   15.1823   65.4935 C   0  0  0  0  0  0  0  0  0  0  0  0
   36.0596   13.8578   65.5995 N   0  0  0  0  0  0  0  0  0  0  0  0
   36.9341   13.1788   66.3638 C   0  0  0  0  0  0  0  0  0  0  0  0
   37.9459   13.8885   67.0644 C   0  0  0  0  0  0  0  0  0  0  0  0
   37.9796   15.3064   66.9121 C   0  0  0  0  0  0  0  0  0  0  0  0
   38.9278   16.0692   67.5677 N   0  0  0  0  0  0  0  0  0  0  0  0
   38.6727   12.9772   67.7514 N   0  0  0  0  0  0  0  0  0  0  0  0
   38.1890   11.7895   67.5295 C   0  0  0  0  0  0  0  0  0  0  0  0
   37.1141   11.8613   66.6777 N   0  0  0  0  0  0  0  0  0  0  0  0
  2  1  1  6  0  0  0
  2  3  1  0  0  0  0
  2  5  1  0  0  0  0
  3  4  1  0  0  0  0
  3 17  1  0  0  0  0
  5  6  1  0  0  0  0
  7  6  1  6  0  0  0
  7  8  1  0  0  0  0
  7  9  1  0  0  0  0
 10  9  1  6  0  0  0
 10 11  1  0  0  0  0
 10 12  1  0  0  0  0
 11 16  1  0  0  0  0
 12 13  1  6  0  0  0
 12 14  1  0  0  0  0
 14 15  1  6  0  0  0
 14 16  1  0  0  0  0
 16 27  1  1  0  0  0
 18 19  2  0  0  0  0
 18 23  1  0  0  0  0
 19 20  1  0  0  0  0
 20 21  2  0  0  0  0
 21 22  1  0  0  0  0
 21 27  1  0  0  0  0
 22 23  2  0  0  0  0
 22 25  1  0  0  0  0
 23 24  1  0  0  0  0
 25 26  2  0  0  0  0
 26 27  1  0  0  0  0
M  END
>  <CHROM.1>
13.29422674,-75.81855658,-99.55886884,-74.75322733,-161.76810050,46.02089561
16.40741681,35.38299010,12.85678716,64.51240533,-2.07575154,0.85479087,2.44257299

>  <Name>
ligand

>  <RI>
0

>  <Rbt.Current_Directory>
/home/itssahil/PROJECTS/Mol_Feturizer/New_Systems/rnas/2QWY

>  <Rbt.Executable>
rbdock ($Id: //depot/dev/client3/rdock/2013.1/src/exe/rbdock.cxx#4 $)

>  <Rbt.Library>
libRbt.so (2013.1, Build901 2013/11/27)

>  <Rbt.Parameter_File>
/export/apps/rDock/src/rDock_2013.1_src/data/scripts/dock_solv.prm

>  <Rbt.Receptor>
prm/blind_docking_80.prm

>  <SCORE>
-7.10147

>  <SCORE.INTER>
-8.42164

>  <SCORE.INTER.CONST>
1

>  <SCORE.INTER.POLAR>
0

>  <SCORE.INTER.ROT>
7

>  <SCORE.INTER.SOLV>
27.0511

>  <SCORE.INTER.VDW>
-22.8981

>  <SCORE.INTER.norm>
-0.311912

>  <SCORE.INTRA>
-0.202085

>  <SCORE.INTRA.DIHEDRAL>
0.016241

>  <SCORE.INTRA.DIHEDRAL.0>
10.7382

>  <SCORE.INTRA.POLAR>
0

>  <SCORE.INTRA.POLAR.0>
0

>  <SCORE.INTRA.REPUL>
0

>  <SCORE.INTRA.REPUL.0>
0

>  <SCORE.INTRA.SOLV>
-0.465526

>  <SCORE.INTRA.SOLV.lig_0>
-49.2501

>  <SCORE.INTRA.VDW>
0.022558

>  <SCORE.INTRA.VDW.0>
-1.75368

>  <SCORE.INTRA.norm>
-0.00748461

>  <SCORE.RESTR>
1.52225

>  <SCORE.RESTR.CAVITY>
1.52225

>  <SCORE.RESTR.norm>
0.0563796

>  <SCORE.SYSTEM>
0

>  <SCORE.SYSTEM.CONST>
0

>  <SCORE.SYSTEM.DIHEDRAL>
0

>  <SCORE.SYSTEM.SOLV>
0

>  <SCORE.SYSTEM.norm>
0

>  <SCORE.heavy>
27

>  <SCORE.norm>
-0.263017

>  <RMSD>
14.985

$$$$
ligand
 OpenBabel11021811463D
libRbt.so/2013.1/901 2013/11/27
 27 29  0  0  0  0  0  0  0  0999 V2000
   39.0931   14.3873   67.7683 N   0  0  0  0  0  0  0  0  0  0  0  0
   37.6450   14.2914   67.5140 C   0  0  2  0  0  0  0  0  0  0  0  0
   37.1319   15.5903   66.9280 C   0  0  0  0  0  0  0  0  0  0  0  0
   36.3440   15.5723   65.9768 O   0  0  0  0  0  0  0  0  0  0  0  0
   36.9232   14.0234   68.8305 C   0  0  0  0  0  0  0  0  0  0  0  0
   36.8436   12.5356   69.0982 C   0  0  0  0  0  0  0  0  0  0  0  0
   35.2975   11.9310   68.3988 S   0  0  2  0  0  0  0  0  0  0  0  0
   35.7006   10.1632   68.3335 C   0  0  0  0  0  0  0  0  0  0  0  0
   35.5182   12.3884   66.6456 C   0  0  0  0  0  0  0  0  0  0  0  0
   34.2538   12.0129   65.8775 C   0  0  1  0  0  0  0  0  0  0  0  0
   33.9960   13.0387   64.9472 O   0  0  0  0  0  0  0  0  0  0  0  0
   34.4534   10.7348   65.0557 C   0  0  1  0  0  0  0  0  0  0  0  0
   34.1776    9.4507   65.6363 O   0  0  0  0  0  0  0  0  0  0  0  0
   33.6959   11.0400   63.7210 C   0  0  1  0  0  0  0  0  0  0  0  0
   32.8597    9.9126   63.4090 O   0  0  0  0  0  0  0  0  0  0  0  0
   33.1456   12.4922   63.9516 C   0  0  2  0  0  0  0  0  0  0  0  0
   37.4443   16.6527   67.4441 O   0  0  0  0  0  0  0  0  0  0  0  0
   36.1528   15.6642   61.1234 N   0  0  0  0  0  0  0  0  0  0  0  0
   36.4593   15.0079   62.2481 C   0  0  0  0  0  0  0  0  0  0  0  0
   35.5690   14.2413   62.8716 N   0  0  0  0  0  0  0  0  0  0  0  0
   34.3265   14.0753   62.3830 C   0  0  0  0  0  0  0  0  0  0  0  0
   33.9547   14.7381   61.1827 C   0  0  0  0  0  0  0  0  0  0  0  0
   34.9369   15.5598   60.5544 C   0  0  0  0  0  0  0  0  0  0  0  0
   34.6556   16.2310   59.3791 N   0  0  0  0  0  0  0  0  0  0  0  0
   32.6728   14.3968   60.9165 N   0  0  0  0  0  0  0  0  0  0  0  0
   32.2439   13.5900   61.8433 C   0  0  0  0  0  0  0  0  0  0  0  0
   33.2288   13.3612   62.7727 N   0  0  0  0  0  0  0  0  0  0  0  0
  2  1  1  1  0  0  0
  2  3  1  0  0  0  0
  2  5  1  0  0  0  0
  3  4  1  0  0  0  0
  3 17  1  0  0  0  0
  5  6  1  0  0  0  0
  7  6  1  1  0  0  0
  7  8  1  0  0  0  0
  7  9  1  0  0  0  0
 10  9  1  6  0  0  0
 10 11  1  0  0  0  0
 10 12  1  0  0  0  0
 11 16  1  0  0  0  0
 12 13  1  1  0  0  0
 12 14  1  0  0  0  0
 14 15  1  1  0  0  0
 14 16  1  0  0  0  0
 16 27  1  6  0  0  0
 18 19  2  0  0  0  0
 18 23  1  0  0  0  0
 19 20  1  0  0  0  0
 20 21  2  0  0  0  0
 21 22  1  0  0  0  0
 21 27  1  0  0  0  0
 22 23  2  0  0  0  0
 22 25  1  0  0  0  0
 23 24  1  0  0  0  0
 25 26  2  0  0  0  0
 26 27  1  0  0  0  0
M  END
>  <CHROM.1>
136.39331741,-88.08252236,-91.46049108,161.70254302,-177.19818056,140.58149113
31.58778794,35.15793027,13.33194899,64.88632752,-1.03035054,-0.88524944,-0.90778607

>  <Name>
ligand

>  <RI>
0

>  <Rbt.Current_Directory>
/home/itssahil/PROJECTS/Mol_Feturizer/New_Systems/rnas/2QWY

>  <Rbt.Executable>
rbdock ($Id: //depot/dev/client3/rdock/2013.1/src/exe/rbdock.cxx#4 $)

>  <Rbt.Library>
libRbt.so (2013.1, Build901 2013/11/27)

>  <Rbt.Parameter_File>
/export/apps/rDock/src/rDock_2013.1_src/data/scripts/dock_solv.prm

>  <Rbt.Receptor>
prm/blind_docking_80.prm

>  <SCORE>
-8.37645

>  <SCORE.INTER>
-9.11734

>  <SCORE.INTER.CONST>
1

>  <SCORE.INTER.POLAR>
0

>  <SCORE.INTER.ROT>
7

>  <SCORE.INTER.SOLV>
19.3789

>  <SCORE.INTER.VDW>
-20.8045

>  <SCORE.INTER.norm>
-0.337679

>  <SCORE.INTRA>
0.413009

>  <SCORE.INTRA.DIHEDRAL>
2.44855

>  <SCORE.INTRA.DIHEDRAL.0>
10.7382

>  <SCORE.INTRA.POLAR>
0

>  <SCORE.INTRA.POLAR.0>
0

>  <SCORE.INTRA.REPUL>
0

>  <SCORE.INTRA.REPUL.0>
0

>  <SCORE.INTRA.SOLV>
-0.0623212

>  <SCORE.INTRA.SOLV.lig_0>
-49.2501

>  <SCORE.INTRA.VDW>
-0.780104

>  <SCORE.INTRA.VDW.0>
-1.75368

>  <SCORE.INTRA.norm>
0.0152966

>  <SCORE.RESTR>
0.327879

>  <SCORE.RESTR.CAVITY>
0.327879

>  <SCORE.RESTR.norm>
0.0121437

>  <SCORE.SYSTEM>
0

>  <SCORE.SYSTEM.CONST>
0

>  <SCORE.SYSTEM.DIHEDRAL>
0

>  <SCORE.SYSTEM.SOLV>
0

>  <SCORE.SYSTEM.norm>
0

>  <SCORE.heavy>
27

>  <SCORE.norm>
-0.310239

>  <RMSD>
14.996

$$$$
ligand
 OpenBabel11021811463D
libRbt.so/2013.1/901 2013/11/27
 27 29  0  0  0  0  0  0  0  0999 V2000
   36.5087   17.5532   68.4381 N   0  0  0  0  0  0  0  0  0  0  0  0
   36.9499   16.1530   68.5618 C   0  0  2  0  0  0  0  0  0  0  0  0
   37.8078   15.7701   67.3738 C   0  0  0  0  0  0  0  0  0  0  0  0
   38.9318   15.2894   67.5505 O   0  0  0  0  0  0  0  0  0  0  0  0
   35.7252   15.2448   68.6008 C   0  0  0  0  0  0  0  0  0  0  0  0
   36.1336   13.8160   68.8889 C   0  0  0  0  0  0  0  0  0  0  0  0
   35.0205   12.7298   67.9798 S   0  0  2  0  0  0  0  0  0  0  0  0
   35.7836   11.1396   68.4049 C   0  0  0  0  0  0  0  0  0  0  0  0
   35.6436   12.9546   66.2790 C   0  0  0  0  0  0  0  0  0  0  0  0
   34.7278   12.2022   65.3173 C   0  0  1  0  0  0  0  0  0  0  0  0
   34.0574   13.1566   64.5275 O   0  0  0  0  0  0  0  0  0  0  0  0
   35.5286   11.3317   64.3429 C   0  0  1  0  0  0  0  0  0  0  0  0
   35.8599    9.9774   64.6869 O   0  0  0  0  0  0  0  0  0  0  0  0
   34.7659   11.5084   62.9881 C   0  0  1  0  0  0  0  0  0  0  0  0
   34.5615   10.2066   62.4125 O   0  0  0  0  0  0  0  0  0  0  0  0
   33.5958   12.4842   63.3665 C   0  0  2  0  0  0  0  0  0  0  0  0
   37.3566   15.8725   66.2430 O   0  0  0  0  0  0  0  0  0  0  0  0
   35.4605   16.4928   60.6172 N   0  0  0  0  0  0  0  0  0  0  0  0
   36.0812   15.7595   61.5482 C   0  0  0  0  0  0  0  0  0  0  0  0
   35.4603   14.7692   62.1828 N   0  0  0  0  0  0  0  0  0  0  0  0
   34.1854   14.4479   61.8976 C   0  0  0  0  0  0  0  0  0  0  0  0
   33.4853   15.1858   60.9057 C   0  0  0  0  0  0  0  0  0  0  0  0
   34.1858   16.2470   60.2594 C   0  0  0  0  0  0  0  0  0  0  0  0
   33.5771   17.0059   59.2775 N   0  0  0  0  0  0  0  0  0  0  0  0
   32.2432   14.6571   60.8145 N   0  0  0  0  0  0  0  0  0  0  0  0
   32.1355   13.6707   61.6567 C   0  0  0  0  0  0  0  0  0  0  0  0
   33.3090   13.5023   62.3500 N   0  0  0  0  0  0  0  0  0  0  0  0
  2  1  1  6  0  0  0
  2  3  1  0  0  0  0
  2  5  1  0  0  0  0
  3  4  1  0  0  0  0
  3 17  1  0  0  0  0
  5  6  1  0  0  0  0
  7  6  1  1  0  0  0
  7  8  1  0  0  0  0
  7  9  1  0  0  0  0
 10  9  1  1  0  0  0
 10 11  1  0  0  0  0
 10 12  1  0  0  0  0
 11 16  1  0  0  0  0
 12 13  1  1  0  0  0
 12 14  1  0  0  0  0
 14 15  1  1  0  0  0
 14 16  1  0  0  0  0
 16 27  1  6  0  0  0
 18 19  2  0  0  0  0
 18 23  1  0  0  0  0
 19 20  1  0  0  0  0
 20 21  2  0  0  0  0
 21 22  1  0  0  0  0
 21 27  1  0  0  0  0
 22 23  2  0  0  0  0
 22 25  1  0  0  0  0
 23 24  1  0  0  0  0
 25 26  2  0  0  0  0
 26 27  1  0  0  0  0
M  END
>  <CHROM.1>
126.38018523,-173.41853492,-145.52066573,176.48906907,-174.61450073,112.52455065
55.15777921,35.18842070,13.92593297,64.60516341,-0.62144945,-1.12216595,-0.60962947

>  <Name>
ligand

>  <RI>
0

>  <Rbt.Current_Directory>
/home/itssahil/PROJECTS/Mol_Feturizer/New_Systems/rnas/2QWY

>  <Rbt.Executable>
rbdock ($Id: //depot/dev/client3/rdock/2013.1/src/exe/rbdock.cxx#4 $)

>  <Rbt.Library>
libRbt.so (2013.1, Build901 2013/11/27)

>  <Rbt.Parameter_File>
/export/apps/rDock/src/rDock_2013.1_src/data/scripts/dock_solv.prm

>  <Rbt.Receptor>
prm/blind_docking_80.prm

>  <SCORE>
-7.08016

>  <SCORE.INTER>
-6.13813

>  <SCORE.INTER.CONST>
1

>  <SCORE.INTER.POLAR>
0

>  <SCORE.INTER.ROT>
7

>  <SCORE.INTER.SOLV>
17.3636

>  <SCORE.INTER.VDW>
-18.1466

>  <SCORE.INTER.norm>
-0.227338

>  <SCORE.INTRA>
-0.995573

>  <SCORE.INTRA.DIHEDRAL>
1.70992

>  <SCORE.INTRA.DIHEDRAL.0>
10.7382

>  <SCORE.INTRA.POLAR>
0

>  <SCORE.INTRA.POLAR.0>
0

>  <SCORE.INTRA.REPUL>
0

>  <SCORE.INTRA.REPUL.0>
0

>  <SCORE.INTRA.SOLV>
-1.18027

>  <SCORE.INTRA.SOLV.lig_0>
-49.2501

>  <SCORE.INTRA.VDW>
-1.2604

>  <SCORE.INTRA.VDW.0>
-1.75368

>  <SCORE.INTRA.norm>
-0.0368731

>  <SCORE.RESTR>
0.0535391

>  <SCORE.RESTR.CAVITY>
0.0535391

>  <SCORE.RESTR.norm>
0.00198293

>  <SCORE.SYSTEM>
0

>  <SCORE.SYSTEM.CONST>
0

>  <SCORE.SYSTEM.DIHEDRAL>
0

>  <SCORE.SYSTEM.SOLV>
0

>  <SCORE.SYSTEM.norm>
0

>  <SCORE.heavy>
27

>  <SCORE.norm>
-0.262228

>  <RMSD>
15.042

$$$$
ligand
 OpenBabel11021811463D
libRbt.so/2013.1/901 2013/11/27
 27 29  0  0  0  0  0  0  0  0999 V2000
   37.2545   17.5411   66.4593 N   0  0  0  0  0  0  0  0  0  0  0  0
   36.6011   16.3547   67.0392 C   0  0  2  0  0  0  0  0  0  0  0  0
   36.2308   16.6179   68.4840 C   0  0  0  0  0  0  0  0  0  0  0  0
   36.6933   17.6002   69.0730 O   0  0  0  0  0  0  0  0  0  0  0  0
   37.5663   15.1751   66.9829 C   0  0  0  0  0  0  0  0  0  0  0  0
   36.9805   13.9762   67.6975 C   0  0  0  0  0  0  0  0  0  0  0  0
   35.2833   13.7703   67.1298 S   0  0  2  0  0  0  0  0  0  0  0  0
   34.6108   12.9185   68.5837 C   0  0  0  0  0  0  0  0  0  0  0  0
   35.4793   12.3654   65.9812 C   0  0  0  0  0  0  0  0  0  0  0  0
   34.3704   12.4288   64.9344 C   0  0  1  0  0  0  0  0  0  0  0  0
   34.5051   13.6466   64.2393 O   0  0  0  0  0  0  0  0  0  0  0  0
   34.5228   11.3221   63.8854 C   0  0  1  0  0  0  0  0  0  0  0  0
   33.9084   10.0405   64.0909 O   0  0  0  0  0  0  0  0  0  0  0  0
   34.1429   12.0370   62.5463 C   0  0  1  0  0  0  0  0  0  0  0  0
   33.2145   11.1998   61.8357 O   0  0  0  0  0  0  0  0  0  0  0  0
   33.8143   13.5009   63.0087 C   0  0  2  0  0  0  0  0  0  0  0  0
   35.4187   15.8957   69.0422 O   0  0  0  0  0  0  0  0  0  0  0  0
   32.5419   17.0733   59.4418 N   0  0  0  0  0  0  0  0  0  0  0  0
   31.7401   16.2246   60.0950 C   0  0  0  0  0  0  0  0  0  0  0  0
   32.2206   15.3487   60.9730 N   0  0  0  0  0  0  0  0  0  0  0  0
   33.5342   15.2954   61.2586 C   0  0  0  0  0  0  0  0  0  0  0  0
   34.4271   16.1854   60.6038 C   0  0  0  0  0  0  0  0  0  0  0  0
   33.8702   17.0994   59.6609 C   0  0  0  0  0  0  0  0  0  0  0  0
   34.6715   18.0032   58.9887 N   0  0  0  0  0  0  0  0  0  0  0  0
   35.6688   15.9265   61.0748 N   0  0  0  0  0  0  0  0  0  0  0  0
   35.6020   14.9671   61.9516 C   0  0  0  0  0  0  0  0  0  0  0  0
   34.3042   14.5430   62.0999 N   0  0  0  0  0  0  0  0  0  0  0  0
  2  1  1  1  0  0  0
  2  3  1  0  0  0  0
  2  5  1  0  0  0  0
  3  4  1  0  0  0  0
  3 17  1  0  0  0  0
  5  6  1  0  0  0  0
  7  6  1  1  0  0  0
  7  8  1  0  0  0  0
  7  9  1  0  0  0  0
 10  9  1  1  0  0  0
 10 11  1  0  0  0  0
 10 12  1  0  0  0  0
 11 16  1  0  0  0  0
 12 13  1  1  0  0  0
 12 14  1  0  0  0  0
 14 15  1  1  0  0  0
 14 16  1  0  0  0  0
 16 27  1  6  0  0  0
 18 19  2  0  0  0  0
 18 23  1  0  0  0  0
 19 20  1  0  0  0  0
 20 21  2  0  0  0  0
 21 22  1  0  0  0  0
 21 27  1  0  0  0  0
 22 23  2  0  0  0  0
 22 25  1  0  0  0  0
 23 24  1  0  0  0  0
 25 26  2  0  0  0  0
 26 27  1  0  0  0  0
M  END
>  <CHROM.1>
-13.08982178,174.23911942,47.39629408,-154.23883754,-154.00552312,60.60501143
-138.07867921,34.82441171,14.60972101,64.22695237,-0.63657288,-1.15931227
-0.60927553

>  <Name>
ligand

>  <RI>
0

>  <Rbt.Current_Directory>
/home/itssahil/PROJECTS/Mol_Feturizer/New_Systems/rnas/2QWY

>  <Rbt.Executable>
rbdock ($Id: //depot/dev/client3/rdock/2013.1/src/exe/rbdock.cxx#4 $)

>  <Rbt.Library>
libRbt.so (2013.1, Build901 2013/11/27)

>  <Rbt.Parameter_File>
/export/apps/rDock/src/rDock_2013.1_src/data/scripts/dock_solv.prm

>  <Rbt.Receptor>
prm/blind_docking_80.prm

>  <SCORE>
-8.12875

>  <SCORE.INTER>
-10.2033

>  <SCORE.INTER.CONST>
1

>  <SCORE.INTER.POLAR>
0

>  <SCORE.INTER.ROT>
7

>  <SCORE.INTER.SOLV>
24.067

>  <SCORE.INTER.VDW>
-23.0912

>  <SCORE.INTER.norm>
-0.377902

>  <SCORE.INTRA>
0.563081

>  <SCORE.INTRA.DIHEDRAL>
-1.30112

>  <SCORE.INTRA.DIHEDRAL.0>
10.7382

>  <SCORE.INTRA.POLAR>
0

>  <SCORE.INTRA.POLAR.0>
0

>  <SCORE.INTRA.REPUL>
0

>  <SCORE.INTRA.REPUL.0>
0

>  <SCORE.INTRA.SOLV>
-0.845553

>  <SCORE.INTRA.SOLV.lig_0>
-49.2501

>  <SCORE.INTRA.VDW>
1.63642

>  <SCORE.INTRA.VDW.0>
-1.75368

>  <SCORE.INTRA.norm>
0.0208549

>  <SCORE.RESTR>
1.51151

>  <SCORE.RESTR.CAVITY>
1.51151

>  <SCORE.RESTR.norm>
0.0559819

>  <SCORE.SYSTEM>
0

>  <SCORE.SYSTEM.CONST>
0

>  <SCORE.SYSTEM.DIHEDRAL>
0

>  <SCORE.SYSTEM.SOLV>
0

>  <SCORE.SYSTEM.norm>
0

>  <SCORE.heavy>
27

>  <SCORE.norm>
-0.301065

>  <RMSD>
15.178

$$$$
ligand
 OpenBabel11021811463D
libRbt.so/2013.1/901 2013/11/27
 27 29  0  0  0  0  0  0  0  0999 V2000
   35.1121   15.2552   69.7618 N   0  0  0  0  0  0  0  0  0  0  0  0
   34.5535   15.2976   68.3991 C   0  0  2  0  0  0  0  0  0  0  0  0
   33.6648   14.0941   68.1626 C   0  0  0  0  0  0  0  0  0  0  0  0
   33.3100   13.8018   67.0161 O   0  0  0  0  0  0  0  0  0  0  0  0
   35.6966   15.2744   67.3896 C   0  0  0  0  0  0  0  0  0  0  0  0
   36.7635   14.2903   67.8193 C   0  0  0  0  0  0  0  0  0  0  0  0
   36.1440   12.6295   67.4984 S   0  0  2  0  0  0  0  0  0  0  0  0
   37.5715   11.6849   68.0997 C   0  0  0  0  0  0  0  0  0  0  0  0
   36.4036   12.5147   65.6953 C   0  0  0  0  0  0  0  0  0  0  0  0
   35.0679   12.7395   64.9918 C   0  0  1  0  0  0  0  0  0  0  0  0
   35.1861   13.9038   64.2079 O   0  0  0  0  0  0  0  0  0  0  0  0
   34.7471   11.6017   64.0166 C   0  0  1  0  0  0  0  0  0  0  0  0
   34.0269   10.4439   64.4670 O   0  0  0  0  0  0  0  0  0  0  0  0
   34.1193   12.3423   62.7895 C   0  0  1  0  0  0  0  0  0  0  0  0
   32.9114   11.6560   62.4182 O   0  0  0  0  0  0  0  0  0  0  0  0
   34.1625   13.8494   63.2269 C   0  0  2  0  0  0  0  0  0  0  0  0
   33.3588   13.3737   69.1007 O   0  0  0  0  0  0  0  0  0  0  0  0
   32.4396   16.9517   59.4175 N   0  0  0  0  0  0  0  0  0  0  0  0
   31.7306   16.1821   60.2511 C   0  0  0  0  0  0  0  0  0  0  0  0
   32.3209   15.4233   61.1702 N   0  0  0  0  0  0  0  0  0  0  0  0
   33.6585   15.4157   61.3154 C   0  0  0  0  0  0  0  0  0  0  0  0
   34.4569   16.2270   60.4653 C   0  0  0  0  0  0  0  0  0  0  0  0
   33.7829   17.0150   59.4859 C   0  0  0  0  0  0  0  0  0  0  0  0
   34.4881   17.8371   58.6270 N   0  0  0  0  0  0  0  0  0  0  0  0
   35.7471   16.0374   60.8258 N   0  0  0  0  0  0  0  0  0  0  0  0
   35.7951   15.1910   61.8134 C   0  0  0  0  0  0  0  0  0  0  0  0
   34.5300   14.7775   62.1519 N   0  0  0  0  0  0  0  0  0  0  0  0
  2  1  1  1  0  0  0
  2  3  1  0  0  0  0
  2  5  1  0  0  0  0
  3  4  1  0  0  0  0
  3 17  1  0  0  0  0
  5  6  1  0  0  0  0
  7  6  1  1  0  0  0
  7  8  1  0  0  0  0
  7  9  1  0  0  0  0
 10  9  1  6  0  0  0
 10 11  1  0  0  0  0
 10 12  1  0  0  0  0
 11 16  1  0  0  0  0
 12 13  1  1  0  0  0
 12 14  1  0  0  0  0
 14 15  1  1  0  0  0
 14 16  1  0  0  0  0
 16 27  1  6  0  0  0
 18 19  2  0  0  0  0
 18 23  1  0  0  0  0
 19 20  1  0  0  0  0
 20 21  2  0  0  0  0
 21 22  1  0  0  0  0
 21 27  1  0  0  0  0
 22 23  2  0  0  0  0
 22 25  1  0  0  0  0
 23 24  1  0  0  0  0
 25 26  2  0  0  0  0
 26 27  1  0  0  0  0
M  END
>  <CHROM.1>
-165.94477197,41.45840762,74.84295362,-179.57728884,-101.64308616,117.16334409
-152.99736184,34.59401738,14.13474192,64.35783871,-0.16123808,-1.36071346
0.17587899

>  <Name>
ligand

>  <RI>
0

>  <Rbt.Current_Directory>
/home/itssahil/PROJECTS/Mol_Feturizer/New_Systems/rnas/2QWY

>  <Rbt.Executable>
rbdock ($Id: //depot/dev/client3/rdock/2013.1/src/exe/rbdock.cxx#4 $)

>  <Rbt.Library>
libRbt.so (2013.1, Build901 2013/11/27)

>  <Rbt.Parameter_File>
/export/apps/rDock/src/rDock_2013.1_src/data/scripts/dock_solv.prm

>  <Rbt.Receptor>
prm/blind_docking_80.prm

>  <SCORE>
-6.70858

>  <SCORE.INTER>
-9.01901

>  <SCORE.INTER.CONST>
1

>  <SCORE.INTER.POLAR>
0

>  <SCORE.INTER.ROT>
7

>  <SCORE.INTER.SOLV>
16.9123

>  <SCORE.INTER.VDW>
-19.9168

>  <SCORE.INTER.norm>
-0.334038

>  <SCORE.INTRA>
1.27235

>  <SCORE.INTRA.DIHEDRAL>
2.45083

>  <SCORE.INTRA.DIHEDRAL.0>
10.7382

>  <SCORE.INTRA.POLAR>
0

>  <SCORE.INTRA.POLAR.0>
0

>  <SCORE.INTRA.REPUL>
0

>  <SCORE.INTRA.REPUL.0>
0

>  <SCORE.INTRA.SOLV>
0.730568

>  <SCORE.INTRA.SOLV.lig_0>
-49.2501

>  <SCORE.INTRA.VDW>
-0.318353

>  <SCORE.INTRA.VDW.0>
-1.75368

>  <SCORE.INTRA.norm>
0.047124

>  <SCORE.RESTR>
1.03809

>  <SCORE.RESTR.CAVITY>
1.03809

>  <SCORE.RESTR.norm>
0.0384476

>  <SCORE.SYSTEM>
0

>  <SCORE.SYSTEM.CONST>
0

>  <SCORE.SYSTEM.DIHEDRAL>
0

>  <SCORE.SYSTEM.SOLV>
0

>  <SCORE.SYSTEM.norm>
0

>  <SCORE.heavy>
27

>  <SCORE.norm>
-0.248466

>  <RMSD>
15.224

$$$$
ligand
 OpenBabel11021811463D
libRbt.so/2013.1/901 2013/11/27
 27 29  0  0  0  0  0  0  0  0999 V2000
   37.1261   17.3249   66.6967 N   0  0  0  0  0  0  0  0  0  0  0  0
   36.9933   16.4666   67.8867 C   0  0  2  0  0  0  0  0  0  0  0  0
   38.0935   15.4257   67.9037 C   0  0  0  0  0  0  0  0  0  0  0  0
   37.9796   14.4153   68.6050 O   0  0  0  0  0  0  0  0  0  0  0  0
   35.6431   15.7585   67.8440 C   0  0  0  0  0  0  0  0  0  0  0  0
   35.6278   14.7117   66.7506 C   0  0  0  0  0  0  0  0  0  0  0  0
   34.3718   13.4912   67.1727 S   0  0  2  0  0  0  0  0  0  0  0  0
   35.0838   12.8950   68.7313 C   0  0  0  0  0  0  0  0  0  0  0  0
   34.8355   12.1277   66.0512 C   0  0  0  0  0  0  0  0  0  0  0  0
   33.9066   12.1508   64.8403 C   0  0  1  0  0  0  0  0  0  0  0  0
   34.0539   13.4019   64.2099 O   0  0  0  0  0  0  0  0  0  0  0  0
   34.3119   11.1010   63.8001 C   0  0  1  0  0  0  0  0  0  0  0  0
   33.7760    9.7704   63.8680 O   0  0  0  0  0  0  0  0  0  0  0  0
   34.0956   11.8386   62.4372 C   0  0  1  0  0  0  0  0  0  0  0  0
   33.3619   10.9642   61.5626 O   0  0  0  0  0  0  0  0  0  0  0  0
   33.5824   13.2547   62.8799 C   0  0  2  0  0  0  0  0  0  0  0  0
   39.0606   15.5548   67.1684 O   0  0  0  0  0  0  0  0  0  0  0  0
   32.5408   17.0786   59.5040 N   0  0  0  0  0  0  0  0  0  0  0  0
   31.7021   16.1782   60.0289 C   0  0  0  0  0  0  0  0  0  0  0  0
   32.1252   15.2414   60.8729 N   0  0  0  0  0  0  0  0  0  0  0  0
   33.4141   15.1745   61.2529 C   0  0  0  0  0  0  0  0  0  0  0  0
   34.3433   16.1169   60.7364 C   0  0  0  0  0  0  0  0  0  0  0  0
   33.8485   17.0960   59.8249 C   0  0  0  0  0  0  0  0  0  0  0  0
   34.6875   18.0529   59.2852 N   0  0  0  0  0  0  0  0  0  0  0  0
   35.5489   15.8306   61.2798 N   0  0  0  0  0  0  0  0  0  0  0  0
   35.4274   14.8073   62.0747 C   0  0  0  0  0  0  0  0  0  0  0  0
   34.1272   14.3654   62.0917 N   0  0  0  0  0  0  0  0  0  0  0  0
  2  1  1  6  0  0  0
  2  3  1  0  0  0  0
  2  5  1  0  0  0  0
  3  4  1  0  0  0  0
  3 17  1  0  0  0  0
  5  6  1  0  0  0  0
  7  6  1  6  0  0  0
  7  8  1  0  0  0  0
  7  9  1  0  0  0  0
 10  9  1  1  0  0  0
 10 11  1  0  0  0  0
 10 12  1  0  0  0  0
 11 16  1  0  0  0  0
 12 13  1  6  0  0  0
 12 14  1  0  0  0  0
 14 15  1  6  0  0  0
 14 16  1  0  0  0  0
 16 27  1  6  0  0  0
 18 19  2  0  0  0  0
 18 23  1  0  0  0  0
 19 20  1  0  0  0  0
 20 21  2  0  0  0  0
 21 22  1  0  0  0  0
 21 27  1  0  0  0  0
 22 23  2  0  0  0  0
 22 25  1  0  0  0  0
 23 24  1  0  0  0  0
 25 26  2  0  0  0  0
 26 27  1  0  0  0  0
M  END
>  <CHROM.1>
-161.63467786,70.57130854,156.53130737,-61.89649287,-100.44352680,59.33755742
-131.35969186,34.81798332,14.35332488,64.15012840,-0.74375152,-1.00180211
-0.70314757

>  <Name>
ligand

>  <RI>
0

>  <Rbt.Current_Directory>
/home/itssahil/PROJECTS/Mol_Feturizer/New_Systems/rnas/2QWY

>  <Rbt.Executable>
rbdock ($Id: //depot/dev/client3/rdock/2013.1/src/exe/rbdock.cxx#4 $)

>  <Rbt.Library>
libRbt.so (2013.1, Build901 2013/11/27)

>  <Rbt.Parameter_File>
/export/apps/rDock/src/rDock_2013.1_src/data/scripts/dock_solv.prm

>  <Rbt.Receptor>
prm/blind_docking_80.prm

>  <SCORE>
-8.66717

>  <SCORE.INTER>
-9.99631

>  <SCORE.INTER.CONST>
1

>  <SCORE.INTER.POLAR>
0

>  <SCORE.INTER.ROT>
7

>  <SCORE.INTER.SOLV>
23.9144

>  <SCORE.INTER.VDW>
-22.9023

>  <SCORE.INTER.norm>
-0.370234

>  <SCORE.INTRA>
0.12374

>  <SCORE.INTRA.DIHEDRAL>
-2.76124

>  <SCORE.INTRA.DIHEDRAL.0>
10.7382

>  <SCORE.INTRA.POLAR>
0

>  <SCORE.INTRA.POLAR.0>
0

>  <SCORE.INTRA.REPUL>
0

>  <SCORE.INTRA.REPUL.0>
0

>  <SCORE.INTRA.SOLV>
-0.566999

>  <SCORE.INTRA.SOLV.lig_0>
-49.2501

>  <SCORE.INTRA.VDW>
1.78786

>  <SCORE.INTRA.VDW.0>
-1.75368

>  <SCORE.INTRA.norm>
0.00458296

>  <SCORE.RESTR>
1.20541

>  <SCORE.RESTR.CAVITY>
1.20541

>  <SCORE.RESTR.norm>
0.0446447

>  <SCORE.SYSTEM>
0

>  <SCORE.SYSTEM.CONST>
0

>  <SCORE.SYSTEM.DIHEDRAL>
0

>  <SCORE.SYSTEM.SOLV>
0

>  <SCORE.SYSTEM.norm>
0

>  <SCORE.heavy>
27

>  <SCORE.norm>
-0.321006

>  <RMSD>
15.243

$$$$
ligand
 OpenBabel11021811463D
libRbt.so/2013.1/901 2013/11/27
 27 29  0  0  0  0  0  0  0  0999 V2000
   36.8396   17.0719   68.5495 N   0  0  0  0  0  0  0  0  0  0  0  0
   36.4719   15.7629   67.9822 C   0  0  2  0  0  0  0  0  0  0  0  0
   35.0945   15.3553   68.4622 C   0  0  0  0  0  0  0  0  0  0  0  0
   34.2146   15.0646   67.6454 O   0  0  0  0  0  0  0  0  0  0  0  0
   37.4845   14.7180   68.4396 C   0  0  0  0  0  0  0  0  0  0  0  0
   37.6843   13.6684   67.3673 C   0  0  0  0  0  0  0  0  0  0  0  0
   36.0939   12.8779   67.0655 S   0  0  2  0  0  0  0  0  0  0  0  0
   36.3071   11.4222   68.1272 C   0  0  0  0  0  0  0  0  0  0  0  0
   36.3902   12.1391   65.4230 C   0  0  0  0  0  0  0  0  0  0  0  0
   35.0498   11.7236   64.8227 C   0  0  1  0  0  0  0  0  0  0  0  0
   34.4976   12.8508   64.1835 O   0  0  0  0  0  0  0  0  0  0  0  0
   35.2266   10.6614   63.7323 C   0  0  1  0  0  0  0  0  0  0  0  0
   35.2194    9.2664   64.0728 O   0  0  0  0  0  0  0  0  0  0  0  0
   34.1899   11.0869   62.6402 C   0  0  1  0  0  0  0  0  0  0  0  0
   33.4423    9.9222   62.2499 O   0  0  0  0  0  0  0  0  0  0  0  0
   33.5347   12.3730   63.2576 C   0  0  2  0  0  0  0  0  0  0  0  0
   34.8781   15.2469   69.6597 O   0  0  0  0  0  0  0  0  0  0  0  0
   35.5289   16.4490   60.7054 N   0  0  0  0  0  0  0  0  0  0  0  0
   36.1230   15.6560   61.6044 C   0  0  0  0  0  0  0  0  0  0  0  0
   35.4704   14.6557   62.1897 N   0  0  0  0  0  0  0  0  0  0  0  0
   34.1886   14.3846   61.8839 C   0  0  0  0  0  0  0  0  0  0  0  0
   33.5157   15.1871   60.9239 C   0  0  0  0  0  0  0  0  0  0  0  0
   34.2499   16.2565   60.3307 C   0  0  0  0  0  0  0  0  0  0  0  0
   33.6689   17.0770   59.3820 N   0  0  0  0  0  0  0  0  0  0  0  0
   32.2597   14.6990   60.8026 N   0  0  0  0  0  0  0  0  0  0  0  0
   32.1190   13.6783   61.5977 C   0  0  0  0  0  0  0  0  0  0  0  0
   33.2831   13.4446   62.2880 N   0  0  0  0  0  0  0  0  0  0  0  0
  2  1  1  1  0  0  0
  2  3  1  0  0  0  0
  2  5  1  0  0  0  0
  3  4  1  0  0  0  0
  3 17  1  0  0  0  0
  5  6  1  0  0  0  0
  7  6  1  1  0  0  0
  7  8  1  0  0  0  0
  7  9  1  0  0  0  0
 10  9  1  6  0  0  0
 10 11  1  0  0  0  0
 10 12  1  0  0  0  0
 11 16  1  0  0  0  0
 12 13  1  1  0  0  0
 12 14  1  0  0  0  0
 14 15  1  1  0  0  0
 14 16  1  0  0  0  0
 16 27  1  6  0  0  0
 18 19  2  0  0  0  0
 18 23  1  0  0  0  0
 19 20  1  0  0  0  0
 20 21  2  0  0  0  0
 21 22  1  0  0  0  0
 21 27  1  0  0  0  0
 22 23  2  0  0  0  0
 22 25  1  0  0  0  0
 23 24  1  0  0  0  0
 25 26  2  0  0  0  0
 26 27  1  0  0  0  0
M  END
>  <CHROM.1>
125.25853177,-146.88016237,-60.21021752,-96.79203065,-165.55539839,85.08611909
30.75381193,34.99492599,13.69991134,64.49896609,-0.20254269,-1.23847992,-0.19599978

>  <Name>
ligand

>  <RI>
0

>  <Rbt.Current_Directory>
/home/itssahil/PROJECTS/Mol_Feturizer/New_Systems/rnas/2QWY

>  <Rbt.Executable>
rbdock ($Id: //depot/dev/client3/rdock/2013.1/src/exe/rbdock.cxx#4 $)

>  <Rbt.Library>
libRbt.so (2013.1, Build901 2013/11/27)

>  <Rbt.Parameter_File>
/export/apps/rDock/src/rDock_2013.1_src/data/scripts/dock_solv.prm

>  <Rbt.Receptor>
prm/blind_docking_80.prm

>  <SCORE>
-2.27518

>  <SCORE.INTER>
-2.00904

>  <SCORE.INTER.CONST>
1

>  <SCORE.INTER.POLAR>
0

>  <SCORE.INTER.ROT>
7

>  <SCORE.INTER.SOLV>
14.7964

>  <SCORE.INTER.VDW>
-14.5382

>  <SCORE.INTER.norm>
-0.0744087

>  <SCORE.INTRA>
-0.747577

>  <SCORE.INTRA.DIHEDRAL>
1.17105

>  <SCORE.INTRA.DIHEDRAL.0>
10.7382

>  <SCORE.INTRA.POLAR>
0

>  <SCORE.INTRA.POLAR.0>
0

>  <SCORE.INTRA.REPUL>
0

>  <SCORE.INTRA.REPUL.0>
0

>  <SCORE.INTRA.SOLV>
-0.984334

>  <SCORE.INTRA.SOLV.lig_0>
-49.2501

>  <SCORE.INTRA.VDW>
-0.840936

>  <SCORE.INTRA.VDW.0>
-1.75368

>  <SCORE.INTRA.norm>
-0.027688

>  <SCORE.RESTR>
0.481429

>  <SCORE.RESTR.CAVITY>
0.481429

>  <SCORE.RESTR.norm>
0.0178307

>  <SCORE.SYSTEM>
0

>  <SCORE.SYSTEM.CONST>
0

>  <SCORE.SYSTEM.DIHEDRAL>
0

>  <SCORE.SYSTEM.SOLV>
0

>  <SCORE.SYSTEM.norm>
0

>  <SCORE.heavy>
27

>  <SCORE.norm>
-0.0842661

>  <RMSD>
15.284

$$$$
ligand
 OpenBabel11021811463D
libRbt.so/2013.1/901 2013/11/27
 27 29  0  0  0  0  0  0  0  0999 V2000
   34.2284    9.4102   66.8906 N   0  0  0  0  0  0  0  0  0  0  0  0
   34.9895    9.7520   65.6763 C   0  0  2  0  0  0  0  0  0  0  0  0
   35.7543   11.0422   65.8867 C   0  0  0  0  0  0  0  0  0  0  0  0
   35.8369   11.5364   67.0158 O   0  0  0  0  0  0  0  0  0  0  0  0
   34.0194    9.9359   64.5138 C   0  0  0  0  0  0  0  0  0  0  0  0
   34.4752    9.1370   63.3115 C   0  0  0  0  0  0  0  0  0  0  0  0
   33.3655    9.5162   61.9440 S   0  0  2  0  0  0  0  0  0  0  0  0
   34.0409    8.3631   60.7169 C   0  0  0  0  0  0  0  0  0  0  0  0
   34.0814   11.0881   61.3540 C   0  0  0  0  0  0  0  0  0  0  0  0
   33.4893   12.2340   62.1701 C   0  0  1  0  0  0  0  0  0  0  0  0
   34.3325   12.4535   63.2768 O   0  0  0  0  0  0  0  0  0  0  0  0
   33.4810   13.5447   61.3761 C   0  0  1  0  0  0  0  0  0  0  0  0
   32.3547   13.8849   60.5527 O   0  0  0  0  0  0  0  0  0  0  0  0
   33.8750   14.6181   62.4442 C   0  0  1  0  0  0  0  0  0  0  0  0
   32.9534   15.7171   62.3405 O   0  0  0  0  0  0  0  0  0  0  0  0
   34.0661   13.7650   63.7481 C   0  0  2  0  0  0  0  0  0  0  0  0
   36.3478   11.5541   64.9495 O   0  0  0  0  0  0  0  0  0  0  0  0
   35.7705   14.7715   68.5633 N   0  0  0  0  0  0  0  0  0  0  0  0
   34.5458   14.4009   68.1726 C   0  0  0  0  0  0  0  0  0  0  0  0
   34.2560   14.1962   66.8908 N   0  0  0  0  0  0  0  0  0  0  0  0
   35.1912   14.3315   65.9332 C   0  0  0  0  0  0  0  0  0  0  0  0
   36.5119   14.7087   66.2963 C   0  0  0  0  0  0  0  0  0  0  0  0
   36.7750   14.9300   67.6807 C   0  0  0  0  0  0  0  0  0  0  0  0
   38.0366   15.2908   68.1154 N   0  0  0  0  0  0  0  0  0  0  0  0
   37.2407   14.7640   65.1577 N   0  0  0  0  0  0  0  0  0  0  0  0
   36.4807   14.4527   64.1481 C   0  0  0  0  0  0  0  0  0  0  0  0
   35.2049   14.1778   64.5756 N   0  0  0  0  0  0  0  0  0  0  0  0
  2  1  1  1  0  0  0
  2  3  1  0  0  0  0
  2  5  1  0  0  0  0
  3  4  1  0  0  0  0
  3 17  1  0  0  0  0
  5  6  1  0  0  0  0
  7  6  1  1  0  0  0
  7  8  1  0  0  0  0
  7  9  1  0  0  0  0
 10  9  1  6  0  0  0
 10 11  1  0  0  0  0
 10 12  1  0  0  0  0
 11 16  1  0  0  0  0
 12 13  1  1  0  0  0
 12 14  1  0  0  0  0
 14 15  1  1  0  0  0
 14 16  1  0  0  0  0
 16 27  1  6  0  0  0
 18 19  2  0  0  0  0
 18 23  1  0  0  0  0
 19 20  1  0  0  0  0
 20 21  2  0  0  0  0
 21 22  1  0  0  0  0
 21 27  1  0  0  0  0
 22 23  2  0  0  0  0
 22 25  1  0  0  0  0
 23 24  1  0  0  0  0
 25 26  2  0  0  0  0
 26 27  1  0  0  0  0
M  END
>  <CHROM.1>
10.57959472,-130.35281360,-175.16705768,-175.86718957,-85.78652518,91.08260952
-109.60686956,34.77333299,12.53337881,64.38941019,-2.64944381,-1.13821564
-0.08781356

>  <Name>
ligand

>  <RI>
0

>  <Rbt.Current_Directory>
/home/itssahil/PROJECTS/Mol_Feturizer/New_Systems/rnas/2QWY

>  <Rbt.Executable>
rbdock ($Id: //depot/dev/client3/rdock/2013.1/src/exe/rbdock.cxx#4 $)

>  <Rbt.Library>
libRbt.so (2013.1, Build901 2013/11/27)

>  <Rbt.Parameter_File>
/export/apps/rDock/src/rDock_2013.1_src/data/scripts/dock_solv.prm

>  <Rbt.Receptor>
prm/blind_docking_80.prm

>  <SCORE>
-6.65823

>  <SCORE.INTER>
-6.25127

>  <SCORE.INTER.CONST>
1

>  <SCORE.INTER.POLAR>
0

>  <SCORE.INTER.ROT>
7

>  <SCORE.INTER.SOLV>
14.8089

>  <SCORE.INTER.VDW>
-17.3705

>  <SCORE.INTER.norm>
-0.231529

>  <SCORE.INTRA>
-2.67308

>  <SCORE.INTRA.DIHEDRAL>
1.90247

>  <SCORE.INTRA.DIHEDRAL.0>
10.7382

>  <SCORE.INTRA.POLAR>
0

>  <SCORE.INTRA.POLAR.0>
0

>  <SCORE.INTRA.REPUL>
0

>  <SCORE.INTRA.REPUL.0>
0

>  <SCORE.INTRA.SOLV>
-0.760735

>  <SCORE.INTRA.SOLV.lig_0>
-49.2501

>  <SCORE.INTRA.VDW>
-3.24395

>  <SCORE.INTRA.VDW.0>
-1.75368

>  <SCORE.INTRA.norm>
-0.099003

>  <SCORE.RESTR>
2.26612

>  <SCORE.RESTR.CAVITY>
2.26612

>  <SCORE.RESTR.norm>
0.0839303

>  <SCORE.SYSTEM>
0

>  <SCORE.SYSTEM.CONST>
0

>  <SCORE.SYSTEM.DIHEDRAL>
0

>  <SCORE.SYSTEM.SOLV>
0

>  <SCORE.SYSTEM.norm>
0

>  <SCORE.heavy>
27

>  <SCORE.norm>
-0.246601

>  <RMSD>
15.292

$$$$
ligand
 OpenBabel11021811463D
libRbt.so/2013.1/901 2013/11/27
 27 29  0  0  0  0  0  0  0  0999 V2000
   35.0068   15.4393   69.4804 N   0  0  0  0  0  0  0  0  0  0  0  0
   34.3553   15.1331   68.1949 C   0  0  2  0  0  0  0  0  0  0  0  0
   32.8509   15.1016   68.3676 C   0  0  0  0  0  0  0  0  0  0  0  0
   32.1535   16.0021   67.8896 O   0  0  0  0  0  0  0  0  0  0  0  0
   34.8261   13.7660   67.7093 C   0  0  0  0  0  0  0  0  0  0  0  0
   36.3362   13.6758   67.7620 C   0  0  0  0  0  0  0  0  0  0  0  0
   36.8141   12.0528   67.1435 S   0  0  2  0  0  0  0  0  0  0  0  0
   38.6092   12.1940   67.3656 C   0  0  0  0  0  0  0  0  0  0  0  0
   36.6784   12.3239   65.3435 C   0  0  0  0  0  0  0  0  0  0  0  0
   35.2807   11.9121   64.8892 C   0  0  1  0  0  0  0  0  0  0  0  0
   34.7071   13.0091   64.2172 O   0  0  0  0  0  0  0  0  0  0  0  0
   35.3345   10.7700   63.8688 C   0  0  1  0  0  0  0  0  0  0  0  0
   35.3181    9.4036   64.3104 O   0  0  0  0  0  0  0  0  0  0  0  0
   34.2202   11.1514   62.8386 C   0  0  1  0  0  0  0  0  0  0  0  0
   33.4103    9.9878   62.5987 O   0  0  0  0  0  0  0  0  0  0  0  0
   33.6557   12.4993   63.4123 C   0  0  2  0  0  0  0  0  0  0  0  0
   32.3246   14.1472   68.9197 O   0  0  0  0  0  0  0  0  0  0  0  0
   35.4650   16.4975   60.6114 N   0  0  0  0  0  0  0  0  0  0  0  0
   36.1004   15.7757   61.5415 C   0  0  0  0  0  0  0  0  0  0  0  0
   35.4927   14.7865   62.1907 N   0  0  0  0  0  0  0  0  0  0  0  0
   34.2169   14.4549   61.9216 C   0  0  0  0  0  0  0  0  0  0  0  0
   33.5016   15.1802   60.9314 C   0  0  0  0  0  0  0  0  0  0  0  0
   34.1882   16.2406   60.2692 C   0  0  0  0  0  0  0  0  0  0  0  0
   33.5642   16.9878   59.2878 N   0  0  0  0  0  0  0  0  0  0  0  0
   32.2620   14.6429   60.8577 N   0  0  0  0  0  0  0  0  0  0  0  0
   32.1697   13.6626   61.7089 C   0  0  0  0  0  0  0  0  0  0  0  0
   33.3516   13.5073   62.3909 N   0  0  0  0  0  0  0  0  0  0  0  0
  2  1  1  1  0  0  0
  2  3  1  0  0  0  0
  2  5  1  0  0  0  0
  3  4  1  0  0  0  0
  3 17  1  0  0  0  0
  5  6  1  0  0  0  0
  7  6  1  1  0  0  0
  7  8  1  0  0  0  0
  7  9  1  0  0  0  0
 10  9  1  6  0  0  0
 10 11  1  0  0  0  0
 10 12  1  0  0  0  0
 11 16  1  0  0  0  0
 12 13  1  1  0  0  0
 12 14  1  0  0  0  0
 14 15  1  1  0  0  0
 14 16  1  0  0  0  0
 16 27  1  6  0  0  0
 18 19  2  0  0  0  0
 18 23  1  0  0  0  0
 19 20  1  0  0  0  0
 20 21  2  0  0  0  0
 21 22  1  0  0  0  0
 21 27  1  0  0  0  0
 22 23  2  0  0  0  0
 22 25  1  0  0  0  0
 23 24  1  0  0  0  0
 25 26  2  0  0  0  0
 26 27  1  0  0  0  0
M  END
>  <CHROM.1>
108.91489747,-49.57430513,-178.83244081,-178.20789647,-92.64015278,125.08832348
25.20925701,34.63898034,13.57973705,64.52227658,1.13455529,-1.11573396,1.37121804

>  <Name>
ligand

>  <RI>
0

>  <Rbt.Current_Directory>
/home/itssahil/PROJECTS/Mol_Feturizer/New_Systems/rnas/2QWY

>  <Rbt.Executable>
rbdock ($Id: //depot/dev/client3/rdock/2013.1/src/exe/rbdock.cxx#4 $)

>  <Rbt.Library>
libRbt.so (2013.1, Build901 2013/11/27)

>  <Rbt.Parameter_File>
/export/apps/rDock/src/rDock_2013.1_src/data/scripts/dock_solv.prm

>  <Rbt.Receptor>
prm/blind_docking_80.prm

>  <SCORE>
-6.83436

>  <SCORE.INTER>
-6.72587

>  <SCORE.INTER.CONST>
1

>  <SCORE.INTER.POLAR>
0

>  <SCORE.INTER.ROT>
7

>  <SCORE.INTER.SOLV>
15.1505

>  <SCORE.INTER.VDW>
-17.8007

>  <SCORE.INTER.norm>
-0.249106

>  <SCORE.INTRA>
-0.504228

>  <SCORE.INTRA.DIHEDRAL>
-0.252919

>  <SCORE.INTRA.DIHEDRAL.0>
10.7382

>  <SCORE.INTRA.POLAR>
0

>  <SCORE.INTRA.POLAR.0>
0

>  <SCORE.INTRA.REPUL>
0

>  <SCORE.INTRA.REPUL.0>
0

>  <SCORE.INTRA.SOLV>
-0.267622

>  <SCORE.INTRA.SOLV.lig_0>
-49.2501

>  <SCORE.INTRA.VDW>
-0.243958

>  <SCORE.INTRA.VDW.0>
-1.75368

>  <SCORE.INTRA.norm>
-0.0186751

>  <SCORE.RESTR>
0.395744

>  <SCORE.RESTR.CAVITY>
0.395744

>  <SCORE.RESTR.norm>
0.0146572

>  <SCORE.SYSTEM>
0

>  <SCORE.SYSTEM.CONST>
0

>  <SCORE.SYSTEM.DIHEDRAL>
0

>  <SCORE.SYSTEM.SOLV>
0

>  <SCORE.SYSTEM.norm>
0

>  <SCORE.heavy>
27

>  <SCORE.norm>
-0.253124

>  <RMSD>
15.322

$$$$
ligand
 OpenBabel11021811463D
libRbt.so/2013.1/901 2013/11/27
 27 29  0  0  0  0  0  0  0  0999 V2000
   32.5330   21.1976   58.9477 N   0  0  0  0  0  0  0  0  0  0  0  0
   33.6088   20.9695   59.9282 C   0  0  2  0  0  0  0  0  0  0  0  0
   34.6619   22.0513   59.8072 C   0  0  0  0  0  0  0  0  0  0  0  0
   35.5480   21.9603   58.9513 O   0  0  0  0  0  0  0  0  0  0  0  0
   34.2562   19.6160   59.6538 C   0  0  0  0  0  0  0  0  0  0  0  0
   33.3849   18.4953   60.1794 C   0  0  0  0  0  0  0  0  0  0  0  0
   34.3012   16.9544   60.0022 S   0  0  2  0  0  0  0  0  0  0  0  0
   33.6735   16.4492   58.3767 C   0  0  0  0  0  0  0  0  0  0  0  0
   33.3303   15.8570   61.0906 C   0  0  0  0  0  0  0  0  0  0  0  0
   34.2166   14.6961   61.5339 C   0  0  1  0  0  0  0  0  0  0  0  0
   34.9928   15.1399   62.6224 O   0  0  0  0  0  0  0  0  0  0  0  0
   33.3842   13.5207   62.0572 C   0  0  1  0  0  0  0  0  0  0  0  0
   32.9296   12.4983   61.1571 O   0  0  0  0  0  0  0  0  0  0  0  0
   34.2095   13.0100   63.2846 C   0  0  1  0  0  0  0  0  0  0  0  0
   34.3275   11.5804   63.1855 O   0  0  0  0  0  0  0  0  0  0  0  0
   35.4409   13.9834   63.3115 C   0  0  2  0  0  0  0  0  0  0  0  0
   34.5906   23.0473   60.5111 O   0  0  0  0  0  0  0  0  0  0  0  0
   34.1306   14.2273   68.3441 N   0  0  0  0  0  0  0  0  0  0  0  0
   33.4189   13.7440   67.3196 C   0  0  0  0  0  0  0  0  0  0  0  0
   33.8860   13.7680   66.0745 N   0  0  0  0  0  0  0  0  0  0  0  0
   35.1070   14.2598   65.7961 C   0  0  0  0  0  0  0  0  0  0  0  0
   35.9098   14.7715   66.8505 C   0  0  0  0  0  0  0  0  0  0  0  0
   35.3643   14.7374   68.1680 C   0  0  0  0  0  0  0  0  0  0  0  0
   36.0863   15.2082   69.2486 N   0  0  0  0  0  0  0  0  0  0  0  0
   37.0739   15.1893   66.3019 N   0  0  0  0  0  0  0  0  0  0  0  0
   37.0437   14.9730   65.0188 C   0  0  0  0  0  0  0  0  0  0  0  0
   35.8488   14.4005   64.6574 N   0  0  0  0  0  0  0  0  0  0  0  0
  2  1  1  6  0  0  0
  2  3  1  0  0  0  0
  2  5  1  0  0  0  0
  3  4  1  0  0  0  0
  3 17  1  0  0  0  0
  5  6  1  0  0  0  0
  7  6  1  1  0  0  0
  7  8  1  0  0  0  0
  7  9  1  0  0  0  0
 10  9  1  1  0  0  0
 10 11  1  0  0  0  0
 10 12  1  0  0  0  0
 11 16  1  0  0  0  0
 12 13  1  6  0  0  0
 12 14  1  0  0  0  0
 14 15  1  6  0  0  0
 14 16  1  0  0  0  0
 16 27  1  1  0  0  0
 18 19  2  0  0  0  0
 18 23  1  0  0  0  0
 19 20  1  0  0  0  0
 20 21  2  0  0  0  0
 21 22  1  0  0  0  0
 21 27  1  0  0  0  0
 22 23  2  0  0  0  0
 22 25  1  0  0  0  0
 23 24  1  0  0  0  0
 25 26  2  0  0  0  0
 26 27  1  0  0  0  0
M  END
>  <CHROM.1>
-83.04075663,-77.64669781,-173.18323881,-92.93482485,-157.20121945,82.36701150
100.49192970,34.53215704,16.23883913,62.79038903,-1.89638870,1.26075586,2.64918215

>  <Name>
ligand

>  <RI>
0

>  <Rbt.Current_Directory>
/home/itssahil/PROJECTS/Mol_Feturizer/New_Systems/rnas/2QWY

>  <Rbt.Executable>
rbdock ($Id: //depot/dev/client3/rdock/2013.1/src/exe/rbdock.cxx#4 $)

>  <Rbt.Library>
libRbt.so (2013.1, Build901 2013/11/27)

>  <Rbt.Parameter_File>
/export/apps/rDock/src/rDock_2013.1_src/data/scripts/dock_solv.prm

>  <Rbt.Receptor>
prm/blind_docking_80.prm

>  <SCORE>
17.2996

>  <SCORE.INTER>
16.6933

>  <SCORE.INTER.CONST>
1

>  <SCORE.INTER.POLAR>
0

>  <SCORE.INTER.ROT>
7

>  <SCORE.INTER.SOLV>
13.5633

>  <SCORE.INTER.VDW>
-1.65888

>  <SCORE.INTER.norm>
0.618271

>  <SCORE.INTRA>
-0.79993

>  <SCORE.INTRA.DIHEDRAL>
-0.793392

>  <SCORE.INTRA.DIHEDRAL.0>
10.7382

>  <SCORE.INTRA.POLAR>
0

>  <SCORE.INTRA.POLAR.0>
0

>  <SCORE.INTRA.REPUL>
0

>  <SCORE.INTRA.REPUL.0>
0

>  <SCORE.INTRA.SOLV>
-0.692716

>  <SCORE.INTRA.SOLV.lig_0>
-49.2501

>  <SCORE.INTRA.VDW>
-0.0568758

>  <SCORE.INTRA.VDW.0>
-1.75368

>  <SCORE.INTRA.norm>
-0.029627

>  <SCORE.RESTR>
1.40623

>  <SCORE.RESTR.CAVITY>
1.40623

>  <SCORE.RESTR.norm>
0.0520826

>  <SCORE.SYSTEM>
0

>  <SCORE.SYSTEM.CONST>
0

>  <SCORE.SYSTEM.DIHEDRAL>
0

>  <SCORE.SYSTEM.SOLV>
0

>  <SCORE.SYSTEM.norm>
0

>  <SCORE.heavy>
27

>  <SCORE.norm>
0.640727

>  <RMSD>
15.351

$$$$
ligand
 OpenBabel11021811463D
libRbt.so/2013.1/901 2013/11/27
 27 29  0  0  0  0  0  0  0  0999 V2000
   35.2858   21.0748   59.8100 N   0  0  0  0  0  0  0  0  0  0  0  0
   34.1810   20.8030   58.8739 C   0  0  2  0  0  0  0  0  0  0  0  0
   32.9149   21.4843   59.3504 C   0  0  0  0  0  0  0  0  0  0  0  0
   32.1699   22.0441   58.5396 O   0  0  0  0  0  0  0  0  0  0  0  0
   33.9391   19.2985   58.8099 C   0  0  0  0  0  0  0  0  0  0  0  0
   33.4828   18.7771   60.1558 C   0  0  0  0  0  0  0  0  0  0  0  0
   33.3962   16.9808   60.0513 S   0  0  2  0  0  0  0  0  0  0  0  0
   31.6178   16.8115   59.7347 C   0  0  0  0  0  0  0  0  0  0  0  0
   33.4638   16.5358   61.8202 C   0  0  0  0  0  0  0  0  0  0  0  0
   33.9868   15.1076   61.9474 C   0  0  1  0  0  0  0  0  0  0  0  0
   34.5867   14.9813   63.2157 O   0  0  0  0  0  0  0  0  0  0  0  0
   32.8456   14.0854   61.9139 C   0  0  1  0  0  0  0  0  0  0  0  0
   32.3984   13.5407   60.6627 O   0  0  0  0  0  0  0  0  0  0  0  0
   33.2731   13.0293   62.9864 C   0  0  1  0  0  0  0  0  0  0  0  0
   33.1228   11.7189   62.4140 O   0  0  0  0  0  0  0  0  0  0  0  0
   34.6392   13.5952   63.5139 C   0  0  2  0  0  0  0  0  0  0  0  0
   32.5977   21.4171   60.5283 O   0  0  0  0  0  0  0  0  0  0  0  0
   36.9707   15.4921   67.7649 N   0  0  0  0  0  0  0  0  0  0  0  0
   37.0694   15.9166   66.5000 C   0  0  0  0  0  0  0  0  0  0  0  0
   36.4199   15.3113   65.5097 N   0  0  0  0  0  0  0  0  0  0  0  0
   35.6160   14.2580   65.7428 C   0  0  0  0  0  0  0  0  0  0  0  0
   35.4643   13.7769   67.0709 C   0  0  0  0  0  0  0  0  0  0  0  0
   36.1889   14.4481   68.0999 C   0  0  0  0  0  0  0  0  0  0  0  0
   36.0878   14.0460   69.4186 N   0  0  0  0  0  0  0  0  0  0  0  0
   34.6074   12.7309   67.0232 N   0  0  0  0  0  0  0  0  0  0  0  0
   34.2303   12.5429   65.7918 C   0  0  0  0  0  0  0  0  0  0  0  0
   34.8267   13.4610   64.9626 N   0  0  0  0  0  0  0  0  0  0  0  0
  2  1  1  1  0  0  0
  2  3  1  0  0  0  0
  2  5  1  0  0  0  0
  3  4  1  0  0  0  0
  3 17  1  0  0  0  0
  5  6  1  0  0  0  0
  7  6  1  1  0  0  0
  7  8  1  0  0  0  0
  7  9  1  0  0  0  0
 10  9  1  1  0  0  0
 10 11  1  0  0  0  0
 10 12  1  0  0  0  0
 11 16  1  0  0  0  0
 12 13  1  6  0  0  0
 12 14  1  0  0  0  0
 14 15  1  6  0  0  0
 14 16  1  0  0  0  0
 16 27  1  1  0  0  0
 18 19  2  0  0  0  0
 18 23  1  0  0  0  0
 19 20  1  0  0  0  0
 20 21  2  0  0  0  0
 21 22  1  0  0  0  0
 21 27  1  0  0  0  0
 22 23  2  0  0  0  0
 22 25  1  0  0  0  0
 23 24  1  0  0  0  0
 25 26  2  0  0  0  0
 26 27  1  0  0  0  0
M  END
>  <CHROM.1>
139.00791711,63.84655317,-173.80309320,-97.71493562,-156.33236679,154.23549467
-38.58735759,34.16893526,16.13909657,62.78908036,-2.03490864,1.03219080,2.69887107

>  <Name>
ligand

>  <RI>
0

>  <Rbt.Current_Directory>
/home/itssahil/PROJECTS/Mol_Feturizer/New_Systems/rnas/2QWY

>  <Rbt.Executable>
rbdock ($Id: //depot/dev/client3/rdock/2013.1/src/exe/rbdock.cxx#4 $)

>  <Rbt.Library>
libRbt.so (2013.1, Build901 2013/11/27)

>  <Rbt.Parameter_File>
/export/apps/rDock/src/rDock_2013.1_src/data/scripts/dock_solv.prm

>  <Rbt.Receptor>
prm/blind_docking_80.prm

>  <SCORE>
15.3706

>  <SCORE.INTER>
13.7164

>  <SCORE.INTER.CONST>
1

>  <SCORE.INTER.POLAR>
0

>  <SCORE.INTER.ROT>
7

>  <SCORE.INTER.SOLV>
17.1681

>  <SCORE.INTER.VDW>
-4.84512

>  <SCORE.INTER.norm>
0.508014

>  <SCORE.INTRA>
-0.0801195

>  <SCORE.INTRA.DIHEDRAL>
-0.89032

>  <SCORE.INTRA.DIHEDRAL.0>
10.7382

>  <SCORE.INTRA.POLAR>
0

>  <SCORE.INTRA.POLAR.0>
0

>  <SCORE.INTRA.REPUL>
0

>  <SCORE.INTRA.REPUL.0>
0

>  <SCORE.INTRA.SOLV>
-0.257515

>  <SCORE.INTRA.SOLV.lig_0>
-49.2501

>  <SCORE.INTRA.VDW>
0.493798

>  <SCORE.INTRA.VDW.0>
-1.75368

>  <SCORE.INTRA.norm>
-0.00296739

>  <SCORE.RESTR>
1.73429

>  <SCORE.RESTR.CAVITY>
1.73429

>  <SCORE.RESTR.norm>
0.0642328

>  <SCORE.SYSTEM>
0

>  <SCORE.SYSTEM.CONST>
0

>  <SCORE.SYSTEM.DIHEDRAL>
0

>  <SCORE.SYSTEM.SOLV>
0

>  <SCORE.SYSTEM.norm>
0

>  <SCORE.heavy>
27

>  <SCORE.norm>
0.56928

>  <RMSD>
15.417

$$$$
ligand
 OpenBabel11021811463D
libRbt.so/2013.1/901 2013/11/27
 27 29  0  0  0  0  0  0  0  0999 V2000
   35.4680   15.4998   68.2463 N   0  0  0  0  0  0  0  0  0  0  0  0
   34.9740   14.1134   68.1792 C   0  0  2  0  0  0  0  0  0  0  0  0
   34.9682   13.4949   69.5617 C   0  0  0  0  0  0  0  0  0  0  0  0
   36.0246   13.3727   70.1901 O   0  0  0  0  0  0  0  0  0  0  0  0
   35.8942   13.2982   67.2764 C   0  0  0  0  0  0  0  0  0  0  0  0
   35.4297   11.8592   67.2066 C   0  0  0  0  0  0  0  0  0  0  0  0
   36.5181   10.9824   66.0699 S   0  0  2  0  0  0  0  0  0  0  0  0
   38.0871   11.2353   66.9450 C   0  0  0  0  0  0  0  0  0  0  0  0
   36.6778   12.2172   64.7352 C   0  0  0  0  0  0  0  0  0  0  0  0
   35.2942   12.7768   64.4161 C   0  0  1  0  0  0  0  0  0  0  0  0
   35.4691   13.9301   63.6265 O   0  0  0  0  0  0  0  0  0  0  0  0
   34.4747   11.8003   63.5655 C   0  0  1  0  0  0  0  0  0  0  0  0
   33.6499   10.8079   64.1956 O   0  0  0  0  0  0  0  0  0  0  0  0
   33.7365   12.7348   62.5506 C   0  0  1  0  0  0  0  0  0  0  0  0
   32.3487   12.3596   62.5192 O   0  0  0  0  0  0  0  0  0  0  0  0
   34.2405   14.1650   62.9568 C   0  0  2  0  0  0  0  0  0  0  0  0
   33.9074   13.1826   70.0810 O   0  0  0  0  0  0  0  0  0  0  0  0
   32.2133   17.2358   59.2737 N   0  0  0  0  0  0  0  0  0  0  0  0
   31.5753   16.5163   60.2038 C   0  0  0  0  0  0  0  0  0  0  0  0
   32.2374   15.7581   61.0732 N   0  0  0  0  0  0  0  0  0  0  0  0
   33.5816   15.7012   61.0681 C   0  0  0  0  0  0  0  0  0  0  0  0
   34.3081   16.4584   60.1104 C   0  0  0  0  0  0  0  0  0  0  0  0
   33.5572   17.2475   59.1896 C   0  0  0  0  0  0  0  0  0  0  0  0
   34.1906   18.0189   58.2333 N   0  0  0  0  0  0  0  0  0  0  0  0
   35.6230   16.2269   60.3299 N   0  0  0  0  0  0  0  0  0  0  0  0
   35.7511   15.4046   61.3306 C   0  0  0  0  0  0  0  0  0  0  0  0
   34.5180   15.0503   61.8205 N   0  0  0  0  0  0  0  0  0  0  0  0
  2  1  1  1  0  0  0
  2  3  1  0  0  0  0
  2  5  1  0  0  0  0
  3  4  1  0  0  0  0
  3 17  1  0  0  0  0
  5  6  1  0  0  0  0
  7  6  1  1  0  0  0
  7  8  1  0  0  0  0
  7  9  1  0  0  0  0
 10  9  1  6  0  0  0
 10 11  1  0  0  0  0
 10 12  1  0  0  0  0
 11 16  1  0  0  0  0
 12 13  1  1  0  0  0
 12 14  1  0  0  0  0
 14 15  1  1  0  0  0
 14 16  1  0  0  0  0
 16 27  1  6  0  0  0
 18 19  2  0  0  0  0
 18 23  1  0  0  0  0
 19 20  1  0  0  0  0
 20 21  2  0  0  0  0
 21 22  1  0  0  0  0
 21 27  1  0  0  0  0
 22 23  2  0  0  0  0
 22 25  1  0  0  0  0
 23 24  1  0  0  0  0
 25 26  2  0  0  0  0
 26 27  1  0  0  0  0
M  END
>  <CHROM.1>
-61.35935732,178.90726271,177.53438302,60.30517491,-45.36830929,166.41996697
-167.72760911,34.72896803,13.90007801,64.10863497,0.73883108,-1.23572166
1.20779752

>  <Name>
ligand

>  <RI>
0

>  <Rbt.Current_Directory>
/home/itssahil/PROJECTS/Mol_Feturizer/New_Systems/rnas/2QWY

>  <Rbt.Executable>
rbdock ($Id: //depot/dev/client3/rdock/2013.1/src/exe/rbdock.cxx#4 $)

>  <Rbt.Library>
libRbt.so (2013.1, Build901 2013/11/27)

>  <Rbt.Parameter_File>
/export/apps/rDock/src/rDock_2013.1_src/data/scripts/dock_solv.prm

>  <Rbt.Receptor>
prm/blind_docking_80.prm

>  <SCORE>
-3.14545

>  <SCORE.INTER>
-6.61471

>  <SCORE.INTER.CONST>
1

>  <SCORE.INTER.POLAR>
0

>  <SCORE.INTER.ROT>
7

>  <SCORE.INTER.SOLV>
15.74

>  <SCORE.INTER.VDW>
-17.9231

>  <SCORE.INTER.norm>
-0.244989

>  <SCORE.INTRA>
0.915105

>  <SCORE.INTRA.DIHEDRAL>
-5.16815

>  <SCORE.INTRA.DIHEDRAL.0>
10.7382

>  <SCORE.INTRA.POLAR>
0

>  <SCORE.INTRA.POLAR.0>
0

>  <SCORE.INTRA.REPUL>
0

>  <SCORE.INTRA.REPUL.0>
0

>  <SCORE.INTRA.SOLV>
-0.824894

>  <SCORE.INTRA.SOLV.lig_0>
-49.2501

>  <SCORE.INTRA.VDW>
3.91163

>  <SCORE.INTRA.VDW.0>
-1.75368

>  <SCORE.INTRA.norm>
0.0338928

>  <SCORE.RESTR>
2.55416

>  <SCORE.RESTR.CAVITY>
2.55416

>  <SCORE.RESTR.norm>
0.0945983

>  <SCORE.SYSTEM>
0

>  <SCORE.SYSTEM.CONST>
0

>  <SCORE.SYSTEM.DIHEDRAL>
0

>  <SCORE.SYSTEM.SOLV>
0

>  <SCORE.SYSTEM.norm>
0

>  <SCORE.heavy>
27

>  <SCORE.norm>
-0.116498

>  <RMSD>
15.532

$$$$
ligand
 OpenBabel11021811463D
libRbt.so/2013.1/901 2013/11/27
 27 29  0  0  0  0  0  0  0  0999 V2000
   35.1249   15.5102   69.5944 N   0  0  0  0  0  0  0  0  0  0  0  0
   35.8745   15.1701   68.3725 C   0  0  2  0  0  0  0  0  0  0  0  0
   36.5004   16.4163   67.7815 C   0  0  0  0  0  0  0  0  0  0  0  0
   36.4132   17.4952   68.3765 O   0  0  0  0  0  0  0  0  0  0  0  0
   34.9170   14.5653   67.3508 C   0  0  0  0  0  0  0  0  0  0  0  0
   34.7177   13.0891   67.6201 C   0  0  0  0  0  0  0  0  0  0  0  0
   35.8755   12.1778   66.5836 S   0  0  2  0  0  0  0  0  0  0  0  0
   37.4243   12.7605   67.3274 C   0  0  0  0  0  0  0  0  0  0  0  0
   35.8349   13.1874   65.0635 C   0  0  0  0  0  0  0  0  0  0  0  0
   34.5447   12.8836   64.3068 C   0  0  1  0  0  0  0  0  0  0  0  0
   34.0748   14.0922   63.7567 O   0  0  0  0  0  0  0  0  0  0  0  0
   34.7954   11.9464   63.1206 C   0  0  1  0  0  0  0  0  0  0  0  0
   34.7292   10.5227   63.2965 O   0  0  0  0  0  0  0  0  0  0  0  0
   33.8686   12.5239   62.0000 C   0  0  1  0  0  0  0  0  0  0  0  0
   33.1345   11.4342   61.4157 O   0  0  0  0  0  0  0  0  0  0  0  0
   33.1879   13.7516   62.7029 C   0  0  2  0  0  0  0  0  0  0  0  0
   37.1515   16.3364   66.7507 O   0  0  0  0  0  0  0  0  0  0  0  0
   35.2215   16.5270   58.7957 N   0  0  0  0  0  0  0  0  0  0  0  0
   35.6961   15.4115   59.3616 C   0  0  0  0  0  0  0  0  0  0  0  0
   35.0665   14.8220   60.3740 N   0  0  0  0  0  0  0  0  0  0  0  0
   33.9103   15.3116   60.8574 C   0  0  0  0  0  0  0  0  0  0  0  0
   33.3552   16.4858   60.2817 C   0  0  0  0  0  0  0  0  0  0  0  0
   34.0702   17.0918   59.2065 C   0  0  0  0  0  0  0  0  0  0  0  0
   33.5914   18.2314   58.5876 N   0  0  0  0  0  0  0  0  0  0  0  0
   32.2047   16.7511   60.9424 N   0  0  0  0  0  0  0  0  0  0  0  0
   32.0183   15.8445   61.8573 C   0  0  0  0  0  0  0  0  0  0  0  0
   33.0455   14.9330   61.8450 N   0  0  0  0  0  0  0  0  0  0  0  0
  2  1  1  1  0  0  0
  2  3  1  0  0  0  0
  2  5  1  0  0  0  0
  3  4  1  0  0  0  0
  3 17  1  0  0  0  0
  5  6  1  0  0  0  0
  7  6  1  1  0  0  0
  7  8  1  0  0  0  0
  7  9  1  0  0  0  0
 10  9  1  6  0  0  0
 10 11  1  0  0  0  0
 10 12  1  0  0  0  0
 11 16  1  0  0  0  0
 12 13  1  1  0  0  0
 12 14  1  0  0  0  0
 14 15  1  1  0  0  0
 14 16  1  0  0  0  0
 16 27  1  6  0  0  0
 18 19  2  0  0  0  0
 18 23  1  0  0  0  0
 19 20  1  0  0  0  0
 20 21  2  0  0  0  0
 21 22  1  0  0  0  0
 21 27  1  0  0  0  0
 22 23  2  0  0  0  0
 22 25  1  0  0  0  0
 23 24  1  0  0  0  0
 25 26  2  0  0  0  0
 26 27  1  0  0  0  0
M  END
>  <CHROM.1>
4.74390930,-83.24118946,-94.83598504,64.92821398,-76.52162312,141.85458769
82.45454954,34.76870949,14.47675930,63.84496836,-0.38731550,-1.27354206,-0.22684699

>  <Name>
ligand

>  <RI>
0

>  <Rbt.Current_Directory>
/home/itssahil/PROJECTS/Mol_Feturizer/New_Systems/rnas/2QWY

>  <Rbt.Executable>
rbdock ($Id: //depot/dev/client3/rdock/2013.1/src/exe/rbdock.cxx#4 $)

>  <Rbt.Library>
libRbt.so (2013.1, Build901 2013/11/27)

>  <Rbt.Parameter_File>
/export/apps/rDock/src/rDock_2013.1_src/data/scripts/dock_solv.prm

>  <Rbt.Receptor>
prm/blind_docking_80.prm

>  <SCORE>
23.5571

>  <SCORE.INTER>
19.5953

>  <SCORE.INTER.CONST>
1

>  <SCORE.INTER.POLAR>
0

>  <SCORE.INTER.ROT>
7

>  <SCORE.INTER.SOLV>
15.3283

>  <SCORE.INTER.VDW>
-0.31258

>  <SCORE.INTER.norm>
0.725751

>  <SCORE.INTRA>
3.71904

>  <SCORE.INTRA.DIHEDRAL>
2.19834

>  <SCORE.INTRA.DIHEDRAL.0>
10.7382

>  <SCORE.INTRA.POLAR>
0

>  <SCORE.INTRA.POLAR.0>
0

>  <SCORE.INTRA.REPUL>
0

>  <SCORE.INTRA.REPUL.0>
0

>  <SCORE.INTRA.SOLV>
-0.0852787

>  <SCORE.INTRA.SOLV.lig_0>
-49.2501

>  <SCORE.INTRA.VDW>
2.66251

>  <SCORE.INTRA.VDW.0>
-1.75368

>  <SCORE.INTRA.norm>
0.137742

>  <SCORE.RESTR>
0.242796

>  <SCORE.RESTR.CAVITY>
0.242796

>  <SCORE.RESTR.norm>
0.00899246

>  <SCORE.SYSTEM>
0

>  <SCORE.SYSTEM.CONST>
0

>  <SCORE.SYSTEM.DIHEDRAL>
0

>  <SCORE.SYSTEM.SOLV>
0

>  <SCORE.SYSTEM.norm>
0

>  <SCORE.heavy>
27

>  <SCORE.norm>
0.872486

>  <RMSD>
15.586

$$$$
ligand
 OpenBabel11021811463D
libRbt.so/2013.1/901 2013/11/27
 27 29  0  0  0  0  0  0  0  0999 V2000
   38.5567   15.0671   66.9220 N   0  0  0  0  0  0  0  0  0  0  0  0
   37.1113   15.3521   66.9018 C   0  0  2  0  0  0  0  0  0  0  0  0
   36.8717   16.8406   67.0464 C   0  0  0  0  0  0  0  0  0  0  0  0
   37.6773   17.6469   66.5703 O   0  0  0  0  0  0  0  0  0  0  0  0
   36.4430   14.6281   68.0660 C   0  0  0  0  0  0  0  0  0  0  0  0
   36.4331   13.1336   67.8255 C   0  0  0  0  0  0  0  0  0  0  0  0
   34.9174   12.7270   66.9409 S   0  0  2  0  0  0  0  0  0  0  0  0
   35.0628   10.9187   66.9675 C   0  0  0  0  0  0  0  0  0  0  0  0
   35.4247   13.0771   65.2228 C   0  0  0  0  0  0  0  0  0  0  0  0
   34.2553   12.7661   64.2927 C   0  0  1  0  0  0  0  0  0  0  0  0
   33.8014   13.9848   63.7513 O   0  0  0  0  0  0  0  0  0  0  0  0
   34.6967   11.9102   63.1006 C   0  0  1  0  0  0  0  0  0  0  0  0
   34.6763   10.4772   63.1916 O   0  0  0  0  0  0  0  0  0  0  0  0
   33.8913   12.5141   61.9027 C   0  0  1  0  0  0  0  0  0  0  0  0
   33.2885   11.4316   61.1730 O   0  0  0  0  0  0  0  0  0  0  0  0
   33.0707   13.6706   62.5764 C   0  0  2  0  0  0  0  0  0  0  0  0
   35.8443   17.2402   67.5732 O   0  0  0  0  0  0  0  0  0  0  0  0
   35.2592   16.5487   58.8306 N   0  0  0  0  0  0  0  0  0  0  0  0
   35.6878   15.3941   59.3529 C   0  0  0  0  0  0  0  0  0  0  0  0
   35.0223   14.7811   60.3278 N   0  0  0  0  0  0  0  0  0  0  0  0
   33.8745   15.2866   60.8147 C   0  0  0  0  0  0  0  0  0  0  0  0
   33.3675   16.5030   60.2840 C   0  0  0  0  0  0  0  0  0  0  0  0
   34.1199   17.1324   59.2485 C   0  0  0  0  0  0  0  0  0  0  0  0
   33.6888   18.3136   58.6743 N   0  0  0  0  0  0  0  0  0  0  0  0
   32.2151   16.7765   60.9380 N   0  0  0  0  0  0  0  0  0  0  0  0
   31.9838   15.8366   61.8081 C   0  0  0  0  0  0  0  0  0  0  0  0
   32.9811   14.8931   61.7707 N   0  0  0  0  0  0  0  0  0  0  0  0
  2  1  1  1  0  0  0
  2  3  1  0  0  0  0
  2  5  1  0  0  0  0
  3  4  1  0  0  0  0
  3 17  1  0  0  0  0
  5  6  1  0  0  0  0
  7  6  1  1  0  0  0
  7  8  1  0  0  0  0
  7  9  1  0  0  0  0
 10  9  1  1  0  0  0
 10 11  1  0  0  0  0
 10 12  1  0  0  0  0
 11 16  1  0  0  0  0
 12 13  1  1  0  0  0
 12 14  1  0  0  0  0
 14 15  1  1  0  0  0
 14 16  1  0  0  0  0
 16 27  1  6  0  0  0
 18 19  2  0  0  0  0
 18 23  1  0  0  0  0
 19 20  1  0  0  0  0
 20 21  2  0  0  0  0
 21 22  1  0  0  0  0
 21 27  1  0  0  0  0
 22 23  2  0  0  0  0
 22 25  1  0  0  0  0
 23 24  1  0  0  0  0
 25 26  2  0  0  0  0
 26 27  1  0  0  0  0
M  END
>  <CHROM.1>
33.06661572,-70.38383471,-89.59403220,-173.51714108,179.11647796,112.15722648
90.18700582,34.85250054,14.48474563,63.66646383,-0.77492970,-1.09871548,-0.61077128

>  <Name>
ligand

>  <RI>
0

>  <Rbt.Current_Directory>
/home/itssahil/PROJECTS/Mol_Feturizer/New_Systems/rnas/2QWY

>  <Rbt.Executable>
rbdock ($Id: //depot/dev/client3/rdock/2013.1/src/exe/rbdock.cxx#4 $)

>  <Rbt.Library>
libRbt.so (2013.1, Build901 2013/11/27)

>  <Rbt.Parameter_File>
/export/apps/rDock/src/rDock_2013.1_src/data/scripts/dock_solv.prm

>  <Rbt.Receptor>
prm/blind_docking_80.prm

>  <SCORE>
19.0486

>  <SCORE.INTER>
18.2059

>  <SCORE.INTER.CONST>
1

>  <SCORE.INTER.POLAR>
0

>  <SCORE.INTER.ROT>
7

>  <SCORE.INTER.SOLV>
18.5659

>  <SCORE.INTER.VDW>
-2.31801

>  <SCORE.INTER.norm>
0.674294

>  <SCORE.INTRA>
0.614479

>  <SCORE.INTRA.DIHEDRAL>
1.36369

>  <SCORE.INTRA.DIHEDRAL.0>
10.7382

>  <SCORE.INTRA.POLAR>
0

>  <SCORE.INTRA.POLAR.0>
0

>  <SCORE.INTRA.REPUL>
0

>  <SCORE.INTRA.REPUL.0>
0

>  <SCORE.INTRA.SOLV>
0.166575

>  <SCORE.INTRA.SOLV.lig_0>
-49.2501

>  <SCORE.INTRA.VDW>
-0.150653

>  <SCORE.INTRA.VDW.0>
-1.75368

>  <SCORE.INTRA.norm>
0.0227585

>  <SCORE.RESTR>
0.228213

>  <SCORE.RESTR.CAVITY>
0.228213

>  <SCORE.RESTR.norm>
0.00845232

>  <SCORE.SYSTEM>
0

>  <SCORE.SYSTEM.CONST>
0

>  <SCORE.SYSTEM.DIHEDRAL>
0

>  <SCORE.SYSTEM.SOLV>
0

>  <SCORE.SYSTEM.norm>
0

>  <SCORE.heavy>
27

>  <SCORE.norm>
0.705505

>  <RMSD>
15.675

$$$$
ligand
 OpenBabel11021811463D
libRbt.so/2013.1/901 2013/11/27
 27 29  0  0  0  0  0  0  0  0999 V2000
   37.2582   14.0572   69.1709 N   0  0  0  0  0  0  0  0  0  0  0  0
   37.9512   14.4519   67.9321 C   0  0  2  0  0  0  0  0  0  0  0  0
   37.6575   15.9025   67.6104 C   0  0  0  0  0  0  0  0  0  0  0  0
   38.2882   16.4793   66.7185 O   0  0  0  0  0  0  0  0  0  0  0  0
   37.4555   13.5802   66.7828 C   0  0  0  0  0  0  0  0  0  0  0  0
   35.9460   13.6391   66.6856 C   0  0  0  0  0  0  0  0  0  0  0  0
   35.4688   12.9556   65.0886 S   0  0  2  0  0  0  0  0  0  0  0  0
   35.8299   14.4016   64.0541 C   0  0  0  0  0  0  0  0  0  0  0  0
   33.6507   13.0717   65.2013 C   0  0  0  0  0  0  0  0  0  0  0  0
   33.0557   12.8104   63.8202 C   0  0  1  0  0  0  0  0  0  0  0  0
   33.2129   13.9832   63.0560 O   0  0  0  0  0  0  0  0  0  0  0  0
   33.8229   11.7125   63.0756 C   0  0  1  0  0  0  0  0  0  0  0  0
   33.4407   10.3360   63.2220 O   0  0  0  0  0  0  0  0  0  0  0  0
   33.8704   12.2386   61.6027 C   0  0  1  0  0  0  0  0  0  0  0  0
   33.4809   11.1659   60.7279 O   0  0  0  0  0  0  0  0  0  0  0  0
   33.1067   13.6073   61.6921 C   0  0  2  0  0  0  0  0  0  0  0  0
   36.7473   16.4784   68.1871 O   0  0  0  0  0  0  0  0  0  0  0  0
   32.6999   18.5485   60.1034 N   0  0  0  0  0  0  0  0  0  0  0  0
   31.8728   17.8562   60.8949 C   0  0  0  0  0  0  0  0  0  0  0  0
   32.1041   16.5823   61.1995 N   0  0  0  0  0  0  0  0  0  0  0  0
   33.1950   15.9419   60.7415 C   0  0  0  0  0  0  0  0  0  0  0  0
   34.1136   16.6362   59.9095 C   0  0  0  0  0  0  0  0  0  0  0  0
   33.8196   17.9969   59.5983 C   0  0  0  0  0  0  0  0  0  0  0  0
   34.6683   18.7432   58.8023 N   0  0  0  0  0  0  0  0  0  0  0  0
   35.1085   15.7724   59.6021 N   0  0  0  0  0  0  0  0  0  0  0  0
   34.8727   14.6275   60.1743 C   0  0  0  0  0  0  0  0  0  0  0  0
   33.7015   14.6815   60.8894 N   0  0  0  0  0  0  0  0  0  0  0  0
  2  1  1  1  0  0  0
  2  3  1  0  0  0  0
  2  5  1  0  0  0  0
  3  4  1  0  0  0  0
  3 17  1  0  0  0  0
  5  6  1  0  0  0  0
  7  6  1  1  0  0  0
  7  8  1  0  0  0  0
  7  9  1  0  0  0  0
 10  9  1  1  0  0  0
 10 11  1  0  0  0  0
 10 12  1  0  0  0  0
 11 16  1  0  0  0  0
 12 13  1  6  0  0  0
 12 14  1  0  0  0  0
 14 15  1  6  0  0  0
 14 16  1  0  0  0  0
 16 27  1  6  0  0  0
 18 19  2  0  0  0  0
 18 23  1  0  0  0  0
 19 20  1  0  0  0  0
 20 21  2  0  0  0  0
 21 22  1  0  0  0  0
 21 27  1  0  0  0  0
 22 23  2  0  0  0  0
 22 25  1  0  0  0  0
 23 24  1  0  0  0  0
 25 26  2  0  0  0  0
 26 27  1  0  0  0  0
M  END
>  <CHROM.1>
169.91973748,54.06902402,165.59735392,-79.16439533,168.19438852,-77.85862643
-68.06743986,34.74718043,14.60820337,63.37251483,-0.62128866,-1.01426179
-0.45355285

>  <Name>
ligand

>  <RI>
0

>  <Rbt.Current_Directory>
/home/itssahil/PROJECTS/Mol_Feturizer/New_Systems/rnas/2QWY

>  <Rbt.Executable>
rbdock ($Id: //depot/dev/client3/rdock/2013.1/src/exe/rbdock.cxx#4 $)

>  <Rbt.Library>
libRbt.so (2013.1, Build901 2013/11/27)

>  <Rbt.Parameter_File>
/export/apps/rDock/src/rDock_2013.1_src/data/scripts/dock_solv.prm

>  <Rbt.Receptor>
prm/blind_docking_80.prm

>  <SCORE>
-10.4658

>  <SCORE.INTER>
-11.5218

>  <SCORE.INTER.CONST>
1

>  <SCORE.INTER.POLAR>
0

>  <SCORE.INTER.ROT>
7

>  <SCORE.INTER.SOLV>
18.0044

>  <SCORE.INTER.VDW>
-21.9493

>  <SCORE.INTER.norm>
-0.426733

>  <SCORE.INTRA>
-0.918178

>  <SCORE.INTRA.DIHEDRAL>
-5.37247

>  <SCORE.INTRA.DIHEDRAL.0>
10.7382

>  <SCORE.INTRA.POLAR>
0

>  <SCORE.INTRA.POLAR.0>
0

>  <SCORE.INTRA.REPUL>
0

>  <SCORE.INTRA.REPUL.0>
0

>  <SCORE.INTRA.SOLV>
-0.0742203

>  <SCORE.INTRA.SOLV.lig_0>
-49.2501

>  <SCORE.INTRA.VDW>
1.80517

>  <SCORE.INTRA.VDW.0>
-1.75368

>  <SCORE.INTRA.norm>
-0.0340066

>  <SCORE.RESTR>
1.97411

>  <SCORE.RESTR.CAVITY>
1.97411

>  <SCORE.RESTR.norm>
0.0731153

>  <SCORE.SYSTEM>
0

>  <SCORE.SYSTEM.CONST>
0

>  <SCORE.SYSTEM.DIHEDRAL>
0

>  <SCORE.SYSTEM.SOLV>
0

>  <SCORE.SYSTEM.norm>
0

>  <SCORE.heavy>
27

>  <SCORE.norm>
-0.387624

>  <RMSD>
15.756

$$$$
ligand
 OpenBabel11021811463D
libRbt.so/2013.1/901 2013/11/27
 27 29  0  0  0  0  0  0  0  0999 V2000
   35.0429   15.6341   69.7952 N   0  0  0  0  0  0  0  0  0  0  0  0
   35.8192   14.6083   69.0769 C   0  0  2  0  0  0  0  0  0  0  0  0
   36.6518   15.2526   67.9881 C   0  0  0  0  0  0  0  0  0  0  0  0
   37.7851   14.8277   67.7416 O   0  0  0  0  0  0  0  0  0  0  0  0
   34.8583   13.6099   68.4395 C   0  0  0  0  0  0  0  0  0  0  0  0
   35.6075   12.3850   67.9602 C   0  0  0  0  0  0  0  0  0  0  0  0
   34.7189   11.7136   66.5442 S   0  0  2  0  0  0  0  0  0  0  0  0
   36.0146   10.6168   65.9041 C   0  0  0  0  0  0  0  0  0  0  0  0
   34.8510   13.1060   65.3714 C   0  0  0  0  0  0  0  0  0  0  0  0
   33.8302   12.9055   64.2545 C   0  0  1  0  0  0  0  0  0  0  0  0
   33.5796   14.1628   63.6711 O   0  0  0  0  0  0  0  0  0  0  0  0
   34.3883   12.0212   63.1342 C   0  0  1  0  0  0  0  0  0  0  0  0
   34.2295   10.5951   63.1907 O   0  0  0  0  0  0  0  0  0  0  0  0
   33.8487   12.7014   61.8325 C   0  0  1  0  0  0  0  0  0  0  0  0
   33.2846   11.6810   60.9909 O   0  0  0  0  0  0  0  0  0  0  0  0
   33.0302   13.9218   62.3853 C   0  0  2  0  0  0  0  0  0  0  0  0
   36.1719   16.1468   67.3079 O   0  0  0  0  0  0  0  0  0  0  0  0
   35.7226   16.3720   58.6635 N   0  0  0  0  0  0  0  0  0  0  0  0
   35.9145   15.1451   59.1612 C   0  0  0  0  0  0  0  0  0  0  0  0
   35.1472   14.6600   60.1332 N   0  0  0  0  0  0  0  0  0  0  0  0
   34.1284   15.3765   60.6419 C   0  0  0  0  0  0  0  0  0  0  0  0
   33.8720   16.6797   60.1378 C   0  0  0  0  0  0  0  0  0  0  0  0
   34.7273   17.1646   59.1044 C   0  0  0  0  0  0  0  0  0  0  0  0
   34.5378   18.4190   58.5554 N   0  0  0  0  0  0  0  0  0  0  0  0
   32.8034   17.1667   60.8097 N   0  0  0  0  0  0  0  0  0  0  0  0
   32.3949   16.2761   61.6664 C   0  0  0  0  0  0  0  0  0  0  0  0
   33.1818   15.1525   61.6014 N   0  0  0  0  0  0  0  0  0  0  0  0
  2  1  1  6  0  0  0
  2  3  1  0  0  0  0
  2  5  1  0  0  0  0
  3  4  1  0  0  0  0
  3 17  1  0  0  0  0
  5  6  1  0  0  0  0
  7  6  1  1  0  0  0
  7  8  1  0  0  0  0
  7  9  1  0  0  0  0
 10  9  1  1  0  0  0
 10 11  1  0  0  0  0
 10 12  1  0  0  0  0
 11 16  1  0  0  0  0
 12 13  1  1  0  0  0
 12 14  1  0  0  0  0
 14 15  1  1  0  0  0
 14 16  1  0  0  0  0
 16 27  1  6  0  0  0
 18 19  2  0  0  0  0
 18 23  1  0  0  0  0
 19 20  1  0  0  0  0
 20 21  2  0  0  0  0
 21 22  1  0  0  0  0
 21 27  1  0  0  0  0
 22 23  2  0  0  0  0
 22 25  1  0  0  0  0
 23 24  1  0  0  0  0
 25 26  2  0  0  0  0
 26 27  1  0  0  0  0
M  END
>  <CHROM.1>
142.87158176,-167.43434655,-150.48074385,164.83132771,-164.00236972,157.99928503
102.23632080,34.69427848,14.19055244,63.78620144,-0.93085074,-1.28381876
-0.65705852

>  <Name>
ligand

>  <RI>
0

>  <Rbt.Current_Directory>
/home/itssahil/PROJECTS/Mol_Feturizer/New_Systems/rnas/2QWY

>  <Rbt.Executable>
rbdock ($Id: //depot/dev/client3/rdock/2013.1/src/exe/rbdock.cxx#4 $)

>  <Rbt.Library>
libRbt.so (2013.1, Build901 2013/11/27)

>  <Rbt.Parameter_File>
/export/apps/rDock/src/rDock_2013.1_src/data/scripts/dock_solv.prm

>  <Rbt.Receptor>
prm/blind_docking_80.prm

>  <SCORE>
13.479

>  <SCORE.INTER>
14.8037

>  <SCORE.INTER.CONST>
1

>  <SCORE.INTER.POLAR>
0

>  <SCORE.INTER.ROT>
7

>  <SCORE.INTER.SOLV>
20.3726

>  <SCORE.INTER.VDW>
-5.18843

>  <SCORE.INTER.norm>
0.548284

>  <SCORE.INTRA>
-1.65571

>  <SCORE.INTRA.DIHEDRAL>
-1.05057

>  <SCORE.INTRA.DIHEDRAL.0>
10.7382

>  <SCORE.INTRA.POLAR>
0

>  <SCORE.INTRA.POLAR.0>
0

>  <SCORE.INTRA.REPUL>
0

>  <SCORE.INTRA.REPUL.0>
0

>  <SCORE.INTRA.SOLV>
-0.929595

>  <SCORE.INTRA.SOLV.lig_0>
-49.2501

>  <SCORE.INTRA.VDW>
-0.665625

>  <SCORE.INTRA.VDW.0>
-1.75368

>  <SCORE.INTRA.norm>
-0.0613225

>  <SCORE.RESTR>
0.331062

>  <SCORE.RESTR.CAVITY>
0.331062

>  <SCORE.RESTR.norm>
0.0122616

>  <SCORE.SYSTEM>
0

>  <SCORE.SYSTEM.CONST>
0

>  <SCORE.SYSTEM.DIHEDRAL>
0

>  <SCORE.SYSTEM.SOLV>
0

>  <SCORE.SYSTEM.norm>
0

>  <SCORE.heavy>
27

>  <SCORE.norm>
0.499223

>  <RMSD>
15.824

$$$$
ligand
 OpenBabel11021811463D
libRbt.so/2013.1/901 2013/11/27
 27 29  0  0  0  0  0  0  0  0999 V2000
   37.9165   13.1227   68.7805 N   0  0  0  0  0  0  0  0  0  0  0  0
   37.1497   13.5636   67.6022 C   0  0  2  0  0  0  0  0  0  0  0  0
   37.4244   15.0259   67.3192 C   0  0  0  0  0  0  0  0  0  0  0  0
   37.0087   15.8953   68.0920 O   0  0  0  0  0  0  0  0  0  0  0  0
   35.6606   13.3848   67.8796 C   0  0  0  0  0  0  0  0  0  0  0  0
   35.3045   11.9146   67.9355 C   0  0  0  0  0  0  0  0  0  0  0  0
   34.8829   11.3850   66.2661 S   0  0  2  0  0  0  0  0  0  0  0  0
   36.5442   11.4288   65.5383 C   0  0  0  0  0  0  0  0  0  0  0  0
   34.1814   12.9281   65.5892 C   0  0  0  0  0  0  0  0  0  0  0  0
   33.4256   12.6014   64.3041 C   0  0  1  0  0  0  0  0  0  0  0  0
   33.0412   13.8196   63.7105 O   0  0  0  0  0  0  0  0  0  0  0  0
   34.3275   11.8981   63.2842 C   0  0  1  0  0  0  0  0  0  0  0  0
   34.4392   10.4664   63.2830 O   0  0  0  0  0  0  0  0  0  0  0  0
   33.8983   12.5348   61.9208 C   0  0  1  0  0  0  0  0  0  0  0  0
   33.6945   11.4740   60.9718 O   0  0  0  0  0  0  0  0  0  0  0  0
   32.7775   13.5500   62.3427 C   0  0  2  0  0  0  0  0  0  0  0  0
   38.1181   15.3377   66.3630 O   0  0  0  0  0  0  0  0  0  0  0  0
   35.3413   16.4778   58.8845 N   0  0  0  0  0  0  0  0  0  0  0  0
   35.6518   15.2578   59.3373 C   0  0  0  0  0  0  0  0  0  0  0  0
   34.9003   14.6393   60.2438 N   0  0  0  0  0  0  0  0  0  0  0  0
   33.7806   15.2071   60.7275 C   0  0  0  0  0  0  0  0  0  0  0  0
   33.3976   16.4957   60.2681 C   0  0  0  0  0  0  0  0  0  0  0  0
   34.2393   17.1272   59.3052 C   0  0  0  0  0  0  0  0  0  0  0  0
   33.9305   18.3773   58.8025 N   0  0  0  0  0  0  0  0  0  0  0  0
   32.2475   16.8219   60.9017 N   0  0  0  0  0  0  0  0  0  0  0  0
   31.9053   15.8484   61.6949 C   0  0  0  0  0  0  0  0  0  0  0  0
   32.8213   14.8276   61.6233 N   0  0  0  0  0  0  0  0  0  0  0  0
  2  1  1  1  0  0  0
  2  3  1  0  0  0  0
  2  5  1  0  0  0  0
  3  4  1  0  0  0  0
  3 17  1  0  0  0  0
  5  6  1  0  0  0  0
  7  6  1  1  0  0  0
  7  8  1  0  0  0  0
  7  9  1  0  0  0  0
 10  9  1  1  0  0  0
 10 11  1  0  0  0  0
 10 12  1  0  0  0  0
 11 16  1  0  0  0  0
 12 13  1  6  0  0  0
 12 14  1  0  0  0  0
 14 15  1  6  0  0  0
 14 16  1  0  0  0  0
 16 27  1  6  0  0  0
 18 19  2  0  0  0  0
 18 23  1  0  0  0  0
 19 20  1  0  0  0  0
 20 21  2  0  0  0  0
 21 22  1  0  0  0  0
 21 27  1  0  0  0  0
 22 23  2  0  0  0  0
 22 25  1  0  0  0  0
 23 24  1  0  0  0  0
 25 26  2  0  0  0  0
 26 27  1  0  0  0  0
M  END
>  <CHROM.1>
-69.30632006,-69.32019640,-89.17171590,71.42937077,-165.18488117,-172.59356756
110.62152426,34.78159079,13.93790343,63.66230875,-0.96710652,-0.98153063
-0.67414696

>  <Name>
ligand

>  <RI>
0

>  <Rbt.Current_Directory>
/home/itssahil/PROJECTS/Mol_Feturizer/New_Systems/rnas/2QWY

>  <Rbt.Executable>
rbdock ($Id: //depot/dev/client3/rdock/2013.1/src/exe/rbdock.cxx#4 $)

>  <Rbt.Library>
libRbt.so (2013.1, Build901 2013/11/27)

>  <Rbt.Parameter_File>
/export/apps/rDock/src/rDock_2013.1_src/data/scripts/dock_solv.prm

>  <Rbt.Receptor>
prm/blind_docking_80.prm

>  <SCORE>
23.0634

>  <SCORE.INTER>
18.7493

>  <SCORE.INTER.CONST>
1

>  <SCORE.INTER.POLAR>
0

>  <SCORE.INTER.ROT>
7

>  <SCORE.INTER.SOLV>
14.7254

>  <SCORE.INTER.VDW>
-0.675621

>  <SCORE.INTER.norm>
0.694418

>  <SCORE.INTRA>
4.05132

>  <SCORE.INTRA.DIHEDRAL>
-1.80634

>  <SCORE.INTRA.DIHEDRAL.0>
10.7382

>  <SCORE.INTRA.POLAR>
0

>  <SCORE.INTRA.POLAR.0>
0

>  <SCORE.INTRA.REPUL>
0

>  <SCORE.INTRA.REPUL.0>
0

>  <SCORE.INTRA.SOLV>
0.780288

>  <SCORE.INTRA.SOLV.lig_0>
-49.2501

>  <SCORE.INTRA.VDW>
4.56434

>  <SCORE.INTRA.VDW.0>
-1.75368

>  <SCORE.INTRA.norm>
0.150049

>  <SCORE.RESTR>
0.262759

>  <SCORE.RESTR.CAVITY>
0.262759

>  <SCORE.RESTR.norm>
0.00973182

>  <SCORE.SYSTEM>
0

>  <SCORE.SYSTEM.CONST>
0

>  <SCORE.SYSTEM.DIHEDRAL>
0

>  <SCORE.SYSTEM.SOLV>
0

>  <SCORE.SYSTEM.norm>
0

>  <SCORE.heavy>
27

>  <SCORE.norm>
0.854199

>  <RMSD>
15.829

$$$$
ligand
 OpenBabel11021811463D
libRbt.so/2013.1/901 2013/11/27
 27 29  0  0  0  0  0  0  0  0999 V2000
   35.6480   15.2233   69.1517 N   0  0  0  0  0  0  0  0  0  0  0  0
   35.1296   14.1104   68.3372 C   0  0  2  0  0  0  0  0  0  0  0  0
   33.6259   14.0104   68.4886 C   0  0  0  0  0  0  0  0  0  0  0  0
   32.8829   14.5623   67.6706 O   0  0  0  0  0  0  0  0  0  0  0  0
   35.7623   12.8065   68.8123 C   0  0  0  0  0  0  0  0  0  0  0  0
   36.2808   12.0089   67.6348 C   0  0  0  0  0  0  0  0  0  0  0  0
   34.8729   11.5796   66.5962 S   0  0  2  0  0  0  0  0  0  0  0  0
   35.5827   10.1358   65.7577 C   0  0  0  0  0  0  0  0  0  0  0  0
   35.0265   12.8373   65.2822 C   0  0  0  0  0  0  0  0  0  0  0  0
   33.9626   12.5706   64.2208 C   0  0  1  0  0  0  0  0  0  0  0  0
   33.5480   13.8147   63.7064 O   0  0  0  0  0  0  0  0  0  0  0  0
   34.5359   11.7900   63.0332 C   0  0  1  0  0  0  0  0  0  0  0  0
   34.5279   10.3540   63.0394 O   0  0  0  0  0  0  0  0  0  0  0  0
   33.8477   12.4556   61.7956 C   0  0  1  0  0  0  0  0  0  0  0  0
   33.3388   11.4122   60.9472 O   0  0  0  0  0  0  0  0  0  0  0  0
   32.9455   13.5632   62.4468 C   0  0  2  0  0  0  0  0  0  0  0  0
   33.1514   13.3240   69.3810 O   0  0  0  0  0  0  0  0  0  0  0  0
   35.2845   16.5204   58.8568 N   0  0  0  0  0  0  0  0  0  0  0  0
   35.6525   15.3191   59.3163 C   0  0  0  0  0  0  0  0  0  0  0  0
   34.9549   14.6901   60.2580 N   0  0  0  0  0  0  0  0  0  0  0  0
   33.8339   15.2273   60.7726 C   0  0  0  0  0  0  0  0  0  0  0  0
   33.3909   16.4947   60.3082 C   0  0  0  0  0  0  0  0  0  0  0  0
   34.1762   17.1389   59.3068 C   0  0  0  0  0  0  0  0  0  0  0  0
   33.8073   18.3696   58.7969 N   0  0  0  0  0  0  0  0  0  0  0  0
   32.2532   16.7919   60.9774 N   0  0  0  0  0  0  0  0  0  0  0  0
   31.9727   15.8201   61.7964 C   0  0  0  0  0  0  0  0  0  0  0  0
   32.9201   14.8299   61.7074 N   0  0  0  0  0  0  0  0  0  0  0  0
  2  1  1  1  0  0  0
  2  3  1  0  0  0  0
  2  5  1  0  0  0  0
  3  4  1  0  0  0  0
  3 17  1  0  0  0  0
  5  6  1  0  0  0  0
  7  6  1  1  0  0  0
  7  8  1  0  0  0  0
  7  9  1  0  0  0  0
 10  9  1  1  0  0  0
 10 11  1  0  0  0  0
 10 12  1  0  0  0  0
 11 16  1  0  0  0  0
 12 13  1  1  0  0  0
 12 14  1  0  0  0  0
 14 15  1  1  0  0  0
 14 16  1  0  0  0  0
 16 27  1  6  0  0  0
 18 19  2  0  0  0  0
 18 23  1  0  0  0  0
 19 20  1  0  0  0  0
 20 21  2  0  0  0  0
 21 22  1  0  0  0  0
 21 27  1  0  0  0  0
 22 23  2  0  0  0  0
 22 25  1  0  0  0  0
 23 24  1  0  0  0  0
 25 26  2  0  0  0  0
 26 27  1  0  0  0  0
M  END
>  <CHROM.1>
94.78963759,-132.05009393,-62.81340369,-157.07217668,175.63420147,146.10699227
97.09420540,34.21396596,13.79850047,63.87696062,0.99575702,-1.37794332,1.37787277

>  <Name>
ligand

>  <RI>
0

>  <Rbt.Current_Directory>
/home/itssahil/PROJECTS/Mol_Feturizer/New_Systems/rnas/2QWY

>  <Rbt.Executable>
rbdock ($Id: //depot/dev/client3/rdock/2013.1/src/exe/rbdock.cxx#4 $)

>  <Rbt.Library>
libRbt.so (2013.1, Build901 2013/11/27)

>  <Rbt.Parameter_File>
/export/apps/rDock/src/rDock_2013.1_src/data/scripts/dock_solv.prm

>  <Rbt.Receptor>
prm/blind_docking_80.prm

>  <SCORE>
19.3587

>  <SCORE.INTER>
17.7587

>  <SCORE.INTER.CONST>
1

>  <SCORE.INTER.POLAR>
0

>  <SCORE.INTER.ROT>
7

>  <SCORE.INTER.SOLV>
14.528

>  <SCORE.INTER.VDW>
-1.27019

>  <SCORE.INTER.norm>
0.657731

>  <SCORE.INTRA>
1.36256

>  <SCORE.INTRA.DIHEDRAL>
3.52947

>  <SCORE.INTRA.DIHEDRAL.0>
10.7382

>  <SCORE.INTRA.POLAR>
0

>  <SCORE.INTRA.POLAR.0>
0

>  <SCORE.INTRA.REPUL>
0

>  <SCORE.INTRA.REPUL.0>
0

>  <SCORE.INTRA.SOLV>
-0.526248

>  <SCORE.INTRA.SOLV.lig_0>
-49.2501

>  <SCORE.INTRA.VDW>
-0.139052

>  <SCORE.INTRA.VDW.0>
-1.75368

>  <SCORE.INTRA.norm>
0.0504652

>  <SCORE.RESTR>
0.237368

>  <SCORE.RESTR.CAVITY>
0.237368

>  <SCORE.RESTR.norm>
0.00879141

>  <SCORE.SYSTEM>
0

>  <SCORE.SYSTEM.CONST>
0

>  <SCORE.SYSTEM.DIHEDRAL>
0

>  <SCORE.SYSTEM.SOLV>
0

>  <SCORE.SYSTEM.norm>
0

>  <SCORE.heavy>
27

>  <SCORE.norm>
0.716987

>  <RMSD>
15.865

$$$$
ligand
 OpenBabel11021811463D
libRbt.so/2013.1/901 2013/11/27
 27 29  0  0  0  0  0  0  0  0999 V2000
   34.3339   13.5479   70.1903 N   0  0  0  0  0  0  0  0  0  0  0  0
   35.2374   13.4577   69.0301 C   0  0  2  0  0  0  0  0  0  0  0  0
   34.8738   14.5103   68.0036 C   0  0  0  0  0  0  0  0  0  0  0  0
   33.6882   14.7804   67.7865 O   0  0  0  0  0  0  0  0  0  0  0  0
   35.0985   12.0782   68.3946 C   0  0  0  0  0  0  0  0  0  0  0  0
   36.2221   11.8321   67.4106 C   0  0  0  0  0  0  0  0  0  0  0  0
   35.4828   11.4431   65.8146 S   0  0  2  0  0  0  0  0  0  0  0  0
   36.9976   11.3922   64.8174 C   0  0  0  0  0  0  0  0  0  0  0  0
   34.8255   13.0783   65.3393 C   0  0  0  0  0  0  0  0  0  0  0  0
   33.7980   12.8897   64.2266 C   0  0  1  0  0  0  0  0  0  0  0  0
   33.5509   14.1518   63.6519 O   0  0  0  0  0  0  0  0  0  0  0  0
   34.3458   12.0093   63.0982 C   0  0  1  0  0  0  0  0  0  0  0  0
   34.1800   10.5838   63.1470 O   0  0  0  0  0  0  0  0  0  0  0  0
   33.8030   12.7001   61.8033 C   0  0  1  0  0  0  0  0  0  0  0  0
   33.2294   11.6876   60.9586 O   0  0  0  0  0  0  0  0  0  0  0  0
   32.9937   13.9213   62.3676 C   0  0  2  0  0  0  0  0  0  0  0  0
   35.7578   15.1403   67.4429 O   0  0  0  0  0  0  0  0  0  0  0  0
   35.7200   16.4033   58.6918 N   0  0  0  0  0  0  0  0  0  0  0  0
   35.9134   15.1759   59.1876 C   0  0  0  0  0  0  0  0  0  0  0  0
   35.1362   14.6821   60.1474 N   0  0  0  0  0  0  0  0  0  0  0  0
   34.1057   15.3897   60.6446 C   0  0  0  0  0  0  0  0  0  0  0  0
   33.8474   16.6930   60.1417 C   0  0  0  0  0  0  0  0  0  0  0  0
   34.7134   17.1875   59.1219 C   0  0  0  0  0  0  0  0  0  0  0  0
   34.5230   18.4426   58.5748 N   0  0  0  0  0  0  0  0  0  0  0  0
   32.7663   17.1703   60.8007 N   0  0  0  0  0  0  0  0  0  0  0  0
   32.3523   16.2739   61.6485 C   0  0  0  0  0  0  0  0  0  0  0  0
   33.1476   15.1558   61.5903 N   0  0  0  0  0  0  0  0  0  0  0  0
  2  1  1  1  0  0  0
  2  3  1  0  0  0  0
  2  5  1  0  0  0  0
  3  4  1  0  0  0  0
  3 17  1  0  0  0  0
  5  6  1  0  0  0  0
  7  6  1  1  0  0  0
  7  8  1  0  0  0  0
  7  9  1  0  0  0  0
 10  9  1  1  0  0  0
 10 11  1  0  0  0  0
 10 12  1  0  0  0  0
 11 16  1  0  0  0  0
 12 13  1  1  0  0  0
 12 14  1  0  0  0  0
 14 15  1  1  0  0  0
 14 16  1  0  0  0  0
 16 27  1  6  0  0  0
 18 19  2  0  0  0  0
 18 23  1  0  0  0  0
 19 20  1  0  0  0  0
 20 21  2  0  0  0  0
 21 22  1  0  0  0  0
 21 27  1  0  0  0  0
 22 23  2  0  0  0  0
 22 25  1  0  0  0  0
 23 24  1  0  0  0  0
 25 26  2  0  0  0  0
 26 27  1  0  0  0  0
M  END
>  <CHROM.1>
-38.45261250,-167.01741476,-123.68621956,173.78574604,-162.89905639,-165.73770197
100.95387602,34.52272514,13.94682744,63.67727235,0.82133617,-1.41566063,1.22025282

>  <Name>
ligand

>  <RI>
0

>  <Rbt.Current_Directory>
/home/itssahil/PROJECTS/Mol_Feturizer/New_Systems/rnas/2QWY

>  <Rbt.Executable>
rbdock ($Id: //depot/dev/client3/rdock/2013.1/src/exe/rbdock.cxx#4 $)

>  <Rbt.Library>
libRbt.so (2013.1, Build901 2013/11/27)

>  <Rbt.Parameter_File>
/export/apps/rDock/src/rDock_2013.1_src/data/scripts/dock_solv.prm

>  <Rbt.Receptor>
prm/blind_docking_80.prm

>  <SCORE>
14.3248

>  <SCORE.INTER>
13.8554

>  <SCORE.INTER.CONST>
1

>  <SCORE.INTER.POLAR>
0

>  <SCORE.INTER.ROT>
7

>  <SCORE.INTER.SOLV>
21.8806

>  <SCORE.INTER.VDW>
-6.32324

>  <SCORE.INTER.norm>
0.513164

>  <SCORE.INTRA>
0.0257933

>  <SCORE.INTRA.DIHEDRAL>
1.22832

>  <SCORE.INTRA.DIHEDRAL.0>
10.7382

>  <SCORE.INTRA.POLAR>
0

>  <SCORE.INTRA.POLAR.0>
0

>  <SCORE.INTRA.REPUL>
0

>  <SCORE.INTRA.REPUL.0>
0

>  <SCORE.INTRA.SOLV>
-0.753213

>  <SCORE.INTRA.SOLV.lig_0>
-49.2501

>  <SCORE.INTRA.VDW>
-0.211759

>  <SCORE.INTRA.VDW.0>
-1.75368

>  <SCORE.INTRA.norm>
0.000955309

>  <SCORE.RESTR>
0.443567

>  <SCORE.RESTR.CAVITY>
0.443567

>  <SCORE.RESTR.norm>
0.0164284

>  <SCORE.SYSTEM>
0

>  <SCORE.SYSTEM.CONST>
0

>  <SCORE.SYSTEM.DIHEDRAL>
0

>  <SCORE.SYSTEM.SOLV>
0

>  <SCORE.SYSTEM.norm>
0

>  <SCORE.heavy>
27

>  <SCORE.norm>
0.530548

>  <RMSD>
15.959

$$$$
