@<TRIPOS>MOLECULE
2QWY_rdock.pdb
 1117 1251 0 0 0
SMALL
GASTEIGER

@<TRIPOS>ATOM
      1  P         20.4210   16.0530   99.8620 P.3     1  G1          0.1280
      2  C5'       18.2620   17.0370   98.6480 C.3     1  G1          0.1795
      3  O5'       19.6610   17.1600   98.9430 O.3     1  G1         -0.3259
      4  C4'       17.5430   18.3290   98.9550 C.3     1  G1          0.1772
      5  O4'       17.3780   18.4840  100.3850 O.3     1  G1         -0.3307
      6  C3'       18.2420   19.6140   98.5600 C.3     1  G1          0.1860
      7  O3'       18.0780   19.9010   97.1860 O.3     1  G1         -0.3112
      8  C2'       17.4850   20.6330   99.3960 C.3     1  G1          0.2309
      9  O2'       16.2460   20.9870   98.8180 O.3     1  G1         -0.2156
     10  C1'       17.2960   19.8670  100.7080 C.3     1  G1          0.2408
     11  N1        19.7030   23.4950  103.3150 N.ar    1  G1         -0.1709
     12  C2        18.6130   23.5980  102.4900 C.ar    1  G1          0.2606
     13  N2        18.1180   24.8340  102.3080 N.pl3   1  G1         -0.0859
     14  N3        18.0480   22.5690  101.8840 N.ar    1  G1         -0.1918
     15  C4        18.6740   21.4110  102.1730 C.ar    1  G1          0.1723
     16  C5        19.7660   21.2030  102.9880 C.ar    1  G1          0.1748
     17  C6        20.3630   22.3130  103.6260 C.ar    1  G1          0.3023
     18  O6        21.3520   22.3340  104.3710 O.2     1  G1         -0.2633
     19  N7        20.1060   19.8600  103.0230 N.ar    1  G1         -0.2173
     20  C8        19.2410   19.2870  102.2330 C.ar    1  G1          0.1817
     21  N9        18.3520   20.1720  101.6710 N.ar    1  G1         -0.2693
     22  OP1       20.8620   14.9260   98.9460 O.3     1  G1         -0.1955
     23  OP2       21.6280   16.7220  100.4950 O.co2   1  G1         -0.7863
     24  P         19.2410   20.6790   96.4030 P.3     2  C2          0.2141
     25  C5'       17.8830   22.9150   96.7670 C.3     2  C2          0.1812
     26  O5'       19.1050   22.1870   96.9140 O.3     2  C2         -0.3114
     27  C4'       18.0730   24.3670   97.1630 C.3     2  C2          0.1773
     28  O4'       18.1050   24.4710   98.6130 O.3     2  C2         -0.3307
     29  C3'       19.3620   25.0310   96.6970 C.3     2  C2          0.1860
     30  O3'       19.2250   25.5840   95.3870 O.3     2  C2         -0.3112
     31  C2'       19.5440   26.1360   97.7330 C.3     2  C2          0.2309
     32  O2'       18.7660   27.2790   97.4890 O.3     2  C2         -0.2156
     33  C1'       19.0460   25.4560   99.0040 C.3     2  C2          0.2420
     34  N1        20.1520   24.8040   99.7120 N.ar    2  C2         -0.2535
     35  C2        20.9680   25.5720  100.5290 C.ar    2  C2          0.3532
     36  O2        20.7340   26.7780  100.6440 O.2     2  C2         -0.2443
     37  N3        21.9990   24.9860  101.1730 N.ar    2  C2         -0.1739
     38  C4        22.2270   23.6850  101.0170 C.ar    2  C2          0.1759
     39  N4        23.2600   23.1460  101.6630 N.pl3   2  C2         -0.1070
     40  C5        21.4070   22.8790  100.1910 C.ar    2  C2          0.0566
     41  C6        20.3870   23.4720   99.5650 C.ar    2  C2          0.0850
     42  OP1       18.9530   20.6340   94.9460 O.2     2  C2         -0.5172
     43  OP2       20.5240   20.1300   96.9120 O.co2   2  C2         -0.4373
     44  P         20.5220   25.7440   94.4350 P.3     3  G3          0.2141
     45  C5'       20.6090   28.2450   95.2500 C.3     3  G3          0.1812
     46  O5'       21.2910   27.0140   95.0180 O.3     3  G3         -0.3114
     47  C4'       21.4970   29.2050   96.0190 C.3     3  G3          0.1773
     48  O4'       21.6020   28.7880   97.4070 O.3     3  G3         -0.3307
     49  C3'       22.9430   29.2970   95.5630 C.3     3  G3          0.1860
     50  O3'       23.0640   30.2060   94.4830 O.3     3  G3         -0.3112
     51  C2'       23.6020   29.8880   96.7930 C.3     3  G3          0.2309
     52  O2'       23.3090   31.2560   96.9110 O.3     3  G3         -0.2156
     53  C1'       22.8820   29.1330   97.9070 C.3     3  G3          0.2408
     54  N1        26.8520   27.1290  100.3460 N.ar    3  G3         -0.1709
     55  C2        26.4670   28.4350  100.2540 C.ar    3  G3          0.2606
     56  N2        27.2420   29.3080  100.8870 N.pl3   3  G3         -0.0859
     57  N3        25.3970   28.8450   99.5940 N.ar    3  G3         -0.1918
     58  C4        24.7240   27.8150   99.0360 C.ar    3  G3          0.1723
     59  C5        25.0200   26.4740   99.0830 C.ar    3  G3          0.1748
     60  C6        26.1770   26.0540   99.7820 C.ar    3  G3          0.3023
     61  O6        26.6160   24.9070   99.9290 O.2     3  G3         -0.2633
     62  N7        24.0740   25.7360   98.3900 N.ar    3  G3         -0.2173
     63  C8        23.2400   26.6280   97.9340 C.ar    3  G3          0.1817
     64  N9        23.5800   27.9090   98.2800 N.ar    3  G3         -0.2693
     65  OP1       20.0420   26.0770   93.0690 O.2     3  G3         -0.5172
     66  OP2       21.4220   24.5780   94.6310 O.co2   3  G3         -0.4373
     67  P         24.2520   30.0200   93.4140 P.3     4  C4          0.2141
     68  C5'       25.8120   31.7020   94.6570 C.3     4  C4          0.1812
     69  O5'       25.5610   30.3750   94.2450 O.3     4  C4         -0.3114
     70  C4'       27.0870   31.7570   95.4370 C.3     4  C4          0.1773
     71  O4'       26.9530   30.9220   96.6120 O.3     4  C4         -0.3307
     72  C3'       28.2980   31.1760   94.7370 C.3     4  C4          0.1860
     73  O3'       28.8740   32.1380   93.8700 O.3     4  C4         -0.3112
     74  C2'       29.2130   30.9170   95.9220 C.3     4  C4          0.2309
     75  O2'       29.7880   32.1100   96.4190 O.3     4  C4         -0.2156
     76  C1'       28.2170   30.3660   96.9430 C.3     4  C4          0.2420
     77  N1        28.0990   28.8970   96.9170 N.ar    4  C4         -0.2535
     78  C2        29.1400   28.1130   97.4490 C.ar    4  C4          0.3532
     79  O2        30.1480   28.6710   97.8980 O.2     4  C4         -0.2443
     80  N3        29.0170   26.7680   97.4540 N.ar    4  C4         -0.1739
     81  C4        27.9210   26.1980   96.9480 C.ar    4  C4          0.1759
     82  N4        27.8370   24.8720   96.9850 N.pl3   4  C4         -0.1070
     83  C5        26.8610   26.9640   96.3840 C.ar    4  C4          0.0566
     84  C6        26.9890   28.2970   96.3910 C.ar    4  C4          0.0850
     85  OP1       24.0710   31.0550   92.3670 O.2     4  C4         -0.5172
     86  OP2       24.3280   28.5850   93.0210 O.co2   4  C4         -0.4373
     87  P         29.0580   31.8000   92.3130 P.3     5  G5          0.2141
     88  C5'       31.5940   31.2860   91.9380 C.3     5  G5          0.1812
     89  O5'       30.3000   30.8090   92.2610 O.3     5  G5         -0.3114
     90  C4'       32.5000   31.1270   93.1200 C.3     5  G5          0.1773
     91  O4'       31.7040   30.7070   94.2560 O.3     5  G5         -0.3307
     92  C3'       33.5430   30.0400   92.9840 C.3     5  G5          0.1860
     93  O3'       34.6910   30.5570   92.3610 O.3     5  G5         -0.3112
     94  C2'       33.8220   29.6940   94.4340 C.3     5  G5          0.2309
     95  O2'       34.6050   30.6590   95.0990 O.3     5  G5         -0.2156
     96  C1'       32.4100   29.7280   95.0040 C.3     5  G5          0.2408
     97  N1        32.3810   24.8060   96.1760 N.ar    5  G5         -0.1709
     98  C2        33.2910   25.7670   96.5110 C.ar    5  G5          0.2606
     99  N2        34.3280   25.3680   97.2580 N.pl3   5  G5         -0.0859
    100  N3        33.1950   27.0260   96.1420 N.ar    5  G5         -0.1918
    101  C4        32.1020   27.2460   95.3950 C.ar    5  G5          0.1723
    102  C5        31.1420   26.3490   95.0000 C.ar    5  G5          0.1748
    103  C6        31.2550   25.0140   95.4000 C.ar    5  G5          0.3023
    104  O6        30.5100   24.0760   95.1430 O.2     5  G5         -0.2633
    105  N7        30.1780   26.9690   94.2250 N.ar    5  G5         -0.2173
    106  C8        30.5620   28.2130   94.1680 C.ar    5  G5          0.1817
    107  N9        31.7190   28.4500   94.8600 N.ar    5  G5         -0.2693
    108  OP1       29.4510   33.0570   91.6360 O.2     5  G5         -0.5172
    109  OP2       27.8580   31.0610   91.8520 O.co2   5  G5         -0.4373
    110  P         35.4070   29.7100   91.2130 P.3     6  G6          0.2141
    111  C5'       37.1910   29.1700   93.0490 C.3     6  G6          0.1812
    112  O5'       36.3270   28.6900   92.0230 O.3     6  G6         -0.3114
    113  C4'       37.9960   28.0400   93.6480 C.3     6  G6          0.1773
    114  O4'       37.2290   27.3870   94.7010 O.3     6  G6         -0.3307
    115  C3'       38.3910   26.9080   92.7140 C.3     6  G6          0.1860
    116  O3'       39.5750   27.2260   91.9920 O.3     6  G6         -0.3112
    117  C2'       38.6430   25.7850   93.7090 C.3     6  G6          0.2309
    118  O2'       39.8420   25.9860   94.4230 O.3     6  G6         -0.2156
    119  C1'       37.4740   25.9850   94.6710 C.3     6  G6          0.2408
    120  N1        35.0280   21.5450   94.4310 N.ar    6  G6         -0.1709
    121  C2        36.2820   21.8280   94.9140 C.ar    6  G6          0.2606
    122  N2        36.9720   20.7900   95.4100 N.pl3   6  G6         -0.0859
    123  N3        36.8190   23.0360   94.9150 N.ar    6  G6         -0.1918
    124  C4        35.9860   23.9550   94.3910 C.ar    6  G6          0.1723
    125  C5        34.7140   23.7780   93.8870 C.ar    6  G6          0.1748
    126  C6        34.1520   22.4750   93.8910 C.ar    6  G6          0.3023
    127  O6        33.0400   22.1100   93.4940 O.2     6  G6         -0.2633
    128  N7        34.1850   24.9850   93.4520 N.ar    6  G6         -0.2173
    129  C8        35.1270   25.8550   93.6900 C.ar    6  G6          0.1817
    130  N9        36.2470   25.2980   94.2640 N.ar    6  G6         -0.2693
    131  OP1       36.2870   30.6420   90.4750 O.2     6  G6         -0.5172
    132  OP2       34.3480   28.9680   90.4770 O.co2   6  G6         -0.4373
    133  P         39.6960   26.8130   90.4410 P.3     7  C7          0.2141
    134  C5'       40.8980   24.6650   91.3100 C.3     7  C7          0.1812
    135  O5'       39.9050   25.2370   90.4750 O.3     7  C7         -0.3114
    136  C4'       40.6320   23.1970   91.5030 C.3     7  C7          0.1773
    137  O4'       39.4180   23.0070   92.2690 O.3     7  C7         -0.3307
    138  C3'       40.3600   22.4100   90.2380 C.3     7  C7          0.1860
    139  O3'       41.5860   22.0950   89.5990 O.3     7  C7         -0.3112
    140  C2'       39.7010   21.1630   90.8100 C.3     7  C7          0.2309
    141  O2'       40.6440   20.2910   91.4030 O.3     7  C7         -0.2156
    142  C1'       38.8260   21.7700   91.9070 C.3     7  C7          0.2420
    143  N1        37.4510   22.0280   91.4650 N.ar    7  C7         -0.2535
    144  C2        36.4900   21.0420   91.6530 C.ar    7  C7          0.3532
    145  O2        36.8230   19.9810   92.1880 O.2     7  C7         -0.2443
    146  N3        35.2250   21.2670   91.2520 N.ar    7  C7         -0.1739
    147  C4        34.9060   22.4250   90.6800 C.ar    7  C7          0.1759
    148  N4        33.6450   22.6080   90.3010 N.pl3   7  C7         -0.1070
    149  C5        35.8660   23.4490   90.4730 C.ar    7  C7          0.0566
    150  C6        37.1170   23.2120   90.8780 C.ar    7  C7          0.0850
    151  OP1       40.9380   27.4110   89.9000 O.3     7  C7         -0.4373
    152  OP2       38.3900   27.1000   89.7860 O.co2   7  C7         -0.5172
    153  P         41.6890   22.1660   88.0020 P.3     8  G8          0.2141
    154  C5'       42.1470   19.6250   88.0080 C.3     8  G8          0.1812
    155  O5'       41.3450   20.6900   87.5510 O.3     8  G8         -0.3114
    156  C4'       41.7790   18.3680   87.2870 C.3     8  G8          0.1773
    157  O4'       40.3790   18.1150   87.5190 O.3     8  G8         -0.3307
    158  C3'       41.8890   18.4150   85.7740 C.3     8  G8          0.1860
    159  O3'       43.2390   18.1270   85.4110 O.3     8  G8         -0.3112
    160  C2'       40.9660   17.2710   85.3780 C.3     8  G8          0.2309
    161  O2'       41.6150   16.0120   85.5080 O.3     8  G8         -0.2156
    162  C1'       39.8570   17.3890   86.4310 C.3     8  G8          0.2408
    163  N1        34.9940   16.7030   85.2410 N.ar    8  G8         -0.1709
    164  C2        35.9480   15.7860   85.6110 C.ar    8  G8          0.2606
    165  N2        35.5560   14.5090   85.6620 N.pl3   8  G8         -0.0859
    166  N3        37.1990   16.0980   85.9010 N.ar    8  G8         -0.1918
    167  C4        37.4320   17.4230   85.7740 C.ar    8  G8          0.1723
    168  C5        36.5590   18.4230   85.4050 C.ar    8  G8          0.1748
    169  C6        35.2080   18.0720   85.1100 C.ar    8  G8          0.3023
    170  O6        34.2710   18.8110   84.7760 O.2     8  G8         -0.2633
    171  N7        37.2000   19.6560   85.3910 N.ar    8  G8         -0.2173
    172  C8        38.4270   19.3840   85.7460 C.ar    8  G8          0.1817
    173  N9        38.6300   18.0470   85.9970 N.ar    8  G8         -0.2693
    174  OP1       43.1110   22.3920   87.6640 O.3     8  G8         -0.4373
    175  OP2       40.6490   23.0800   87.4720 O.co2   8  G8         -0.5172
    176  P         43.6310   17.9050   83.8650 P.3     9  A9          0.2141
    177  C5'       42.2850   16.2010   82.3740 C.3     9  A9          0.1812
    178  O5'       43.0840   16.4450   83.5280 O.3     9  A9         -0.3114
    179  C4'       41.6930   14.8130   82.4390 C.3     9  A9          0.1773
    180  O4'       40.7340   14.7490   83.5350 O.3     9  A9         -0.3307
    181  C3'       40.9000   14.3790   81.2160 C.3     9  A9          0.1860
    182  O3'       41.7380   13.7880   80.2380 O.3     9  A9         -0.3112
    183  C2'       39.9350   13.3730   81.8210 C.3     9  A9          0.2309
    184  O2'       40.5470   12.1520   82.1730 O.3     9  A9         -0.2156
    185  C1'       39.5460   14.1090   83.0950 C.3     9  A9          0.2408
    186  N1        34.5900   15.0260   82.1330 N.ar    9  A9         -0.2040
    187  C2        35.2720   13.8960   82.3500 C.ar    9  A9          0.2016
    188  N3        36.5660   13.7270   82.5970 N.ar    9  A9         -0.2048
    189  C4        37.2010   14.9100   82.6100 C.ar    9  A9          0.1692
    190  C5        36.6400   16.1530   82.4020 C.ar    9  A9          0.1518
    191  C6        35.2610   16.1960   82.1500 C.ar    9  A9          0.1919
    192  N6        34.5840   17.3230   81.9240 N.pl3   9  A9         -0.1054
    193  N7        37.6040   17.1460   82.4840 N.ar    9  A9         -0.2193
    194  C8        38.7100   16.4900   82.7350 C.ar    9  A9          0.1816
    195  N9        38.5380   15.1340   82.8270 N.ar    9  A9         -0.2693
    196  OP1       45.1160   17.8410   83.8220 O.3     9  A9         -0.4373
    197  OP2       42.9090   18.9180   83.0430 O.co2   9  A9         -0.5172
    198  P         41.4990   14.1240   78.6850 P.3    10  U10         0.2141
    199  C5'       40.0970   11.9290   78.5750 C.3    10  U10         0.1812
    200  O5'       40.1720   13.3200   78.3240 O.3    10  U10        -0.3114
    201  C4'       38.6700   11.4580   78.5150 C.3    10  U10         0.1773
    202  O4'       37.8490   12.1570   79.4840 O.3    10  U10        -0.3307
    203  C3'       37.9070   11.7360   77.2400 C.3    10  U10         0.1860
    204  O3'       38.3070   10.8950   76.1710 O.3    10  U10        -0.3112
    205  C2'       36.4920   11.4120   77.6940 C.3    10  U10         0.2309
    206  O2'       36.2240   10.0250   77.7410 O.3    10  U10        -0.2156
    207  C1'       36.4900   12.0140   79.1040 C.3    10  U10         0.2420
    208  N1        35.8640   13.3370   79.0460 N.ar   10  U10        -0.2534
    209  C2        34.4980   13.3590   78.9150 C.ar   10  U10         0.3546
    210  O2        33.8280   12.3420   78.9180 O.2    10  U10        -0.2443
    211  N3        33.9440   14.6060   78.7760 N.ar   10  U10        -0.1530
    212  C4        34.6100   15.8080   78.7650 C.ar   10  U10         0.2846
    213  O4        33.9800   16.8420   78.5520 O.2    10  U10        -0.2650
    214  C5        36.0280   15.7050   78.9440 C.ar   10  U10         0.0814
    215  C6        36.5920   14.4980   79.0800 C.ar   10  U10         0.0870
    216  OP1       42.6480   13.5420   77.9400 O.2    10  U10        -0.5172
    217  OP2       41.1830   15.5690   78.5410 O.co2  10  U10        -0.4373
    218  P         37.8020   11.2240   74.6830 P.3    11  U11         0.2141
    219  C5'       35.5020    9.9920   74.7050 C.3    11  U11         0.1812
    220  O5'       36.2160   11.2110   74.8030 O.3    11  U11        -0.3114
    221  C4'       34.0340   10.2290   74.9210 C.3    11  U11         0.1773
    222  O4'       33.8220   11.2660   75.9090 O.3    11  U11        -0.3307
    223  C3'       33.2640   10.7690   73.7370 C.3    11  U11         0.1860
    224  O3'       33.0360    9.7460   72.7860 O.3    11  U11        -0.3112
    225  C2'       31.9820   11.2140   74.4190 C.3    11  U11         0.2309
    226  O2'       31.1460   10.1390   74.7990 O.3    11  U11        -0.2156
    227  C1'       32.5510   11.8610   75.6800 C.3    11  U11         0.2420
    228  N1        32.7440   13.3000   75.4970 N.ar   11  U11        -0.2534
    229  C2        31.6260   14.0580   75.2540 C.ar   11  U11         0.3546
    230  O2        30.5170   13.5750   75.1690 O.2    11  U11        -0.2443
    231  N3        31.8570   15.4030   75.1120 N.ar   11  U11        -0.1530
    232  C4        33.0770   16.0460   75.1860 C.ar   11  U11         0.2846
    233  O4        33.1270   17.2740   75.0880 O.2    11  U11        -0.2650
    234  C5        34.1880   15.1820   75.4250 C.ar   11  U11         0.0814
    235  C6        33.9860   13.8690   75.5690 C.ar   11  U11         0.0870
    236  OP1       38.1910   10.0950   73.8160 O.2    11  U11        -0.5172
    237  OP2       38.2160   12.6010   74.3170 O.co2  11  U11        -0.4373
    238  P         33.4580    9.9810   71.2560 P.3    12  U12         0.2141
    239  C5'       30.9750   10.5200   70.6460 C.3    12  U12         0.1812
    240  O5'       32.3250   10.9650   70.7170 O.3    12  U12        -0.3114
    241  C4'       30.0310   11.6860   70.4890 C.3    12  U12         0.1773
    242  O4'       30.1840   12.6230   71.5750 O.3    12  U12        -0.3307
    243  C3'       30.2210   12.5740   69.2760 C.3    12  U12         0.1860
    244  O3'       29.7040   11.9540   68.1110 O.3    12  U12        -0.3112
    245  C2'       29.3800   13.7790   69.6650 C.3    12  U12         0.2309
    246  O2'       27.9950   13.5850   69.4660 O.3    12  U12        -0.2156
    247  C1'       29.6870   13.8820   71.1580 C.3    12  U12         0.2420
    248  N1        30.7170   14.8920   71.3990 N.ar   12  U12        -0.2534
    249  C2        30.3320   16.1960   71.2740 C.ar   12  U12         0.3546
    250  O2        29.2020   16.5150   70.9620 O.2    12  U12        -0.2443
    251  N3        31.3120   17.1150   71.5180 N.ar   12  U12        -0.1530
    252  C4        32.6110   16.8610   71.8610 C.ar   12  U12         0.2846
    253  O4        33.3740   17.8040   72.0490 O.2    12  U12        -0.2650
    254  C5        32.9410   15.4750   71.9620 C.ar   12  U12         0.0814
    255  C6        32.0020   14.5580   71.7310 C.ar   12  U12         0.0870
    256  OP1       33.3160    8.6880   70.5420 O.2    12  U12        -0.5172
    257  OP2       34.7750   10.6680   71.2710 O.co2  12  U12        -0.4373
    258  P         30.7180   11.3380   67.0330 P.3    13  A13         0.2141
    259  C5'       30.6450   13.7270   66.0170 C.3    13  A13         0.1812
    260  O5'       30.5850   12.3340   65.8100 O.3    13  A13        -0.3114
    261  C4'       29.7510   14.4180   65.0380 C.3    13  A13         0.1773
    262  O4'       29.8470   15.8310   65.2900 O.3    13  A13        -0.3307
    263  C3'       30.0640   14.1640   63.5610 C.3    13  A13         0.1860
    264  O3'       28.9300   13.5110   62.9510 O.3    13  A13        -0.3112
    265  C2'       30.3640   15.5520   62.9730 C.3    13  A13         0.2309
    266  O2'       29.3130   16.0350   62.1460 O.3    13  A13        -0.2156
    267  C1'       30.4750   16.4580   64.2050 C.3    13  A13         0.2408
    268  N1        33.4670   20.4880   65.2560 N.ar   13  A13        -0.2040
    269  C2        32.2420   20.3890   64.7240 C.ar   13  A13         0.2016
    270  N3        31.5320   19.2980   64.4390 N.ar   13  A13        -0.2048
    271  C4        32.2230   18.1890   64.7540 C.ar   13  A13         0.1692
    272  C5        33.4920   18.1300   65.2960 C.ar   13  A13         0.1518
    273  C6        34.1280   19.3510   65.5640 C.ar   13  A13         0.1919
    274  N6        35.3370   19.4440   66.1130 N.pl3  13  A13        -0.1054
    275  N7        33.8870   16.8140   65.4740 N.ar   13  A13        -0.2193
    276  C8        32.8570   16.1160   65.0580 C.ar   13  A13         0.1816
    277  N9        31.8050   16.8840   64.6370 N.ar   13  A13        -0.2693
    278  OP1       30.2030   10.0030   66.6180 O.2    13  A13        -0.5172
    279  OP2       32.0980   11.4610   67.5730 O.co2  13  A13        -0.4373
    280  P         28.7650   13.4610   61.3380 P.3    14  A14         0.2141
    281  C5'       30.4270   11.4710   61.0470 C.3    14  A14         0.1812
    282  O5'       29.0920   11.9540   60.9490 O.3    14  A14        -0.3114
    283  C4'       30.8510   10.7800   59.7710 C.3    14  A14         0.1773
    284  O4'       29.7730    9.9600   59.2510 O.3    14  A14        -0.3307
    285  C3'       31.2370   11.6460   58.5870 C.3    14  A14         0.1860
    286  O3'       32.5620   12.1560   58.7410 O.3    14  A14        -0.3112
    287  C2'       31.1690   10.6120   57.4750 C.3    14  A14         0.2309
    288  O2'       32.2250    9.6830   57.5500 O.3    14  A14        -0.2156
    289  C1'       29.8760    9.8870   57.8410 C.3    14  A14         0.2408
    290  N1        26.3950    9.7310   54.0900 N.ar   14  A14        -0.2040
    291  C2        27.3630    8.8890   54.4590 C.ar   14  A14         0.2016
    292  N3        28.2170    8.9790   55.4660 N.ar   14  A14        -0.2048
    293  C4        28.0030   10.1000   56.1680 C.ar   14  A14         0.1692
    294  C5        27.0450   11.0620   55.9220 C.ar   14  A14         0.1518
    295  C6        26.2110   10.8580   54.8100 C.ar   14  A14         0.1919
    296  N6        25.2610   11.7190   54.4210 N.pl3  14  A14        -0.1054
    297  N7        27.1230   12.0830   56.8580 N.ar   14  A14        -0.2193
    298  C8        28.1190   11.7230   57.6300 C.ar   14  A14         0.1816
    299  N9        28.7100   10.5430   57.2550 N.ar   14  A14        -0.2693
    300  OP1       29.8110   14.2700   60.6580 O.2    14  A14        -0.5172
    301  OP2       27.3350   13.7280   61.0420 O.co2  14  A14        -0.4373
    302  P         33.1030   13.3070   57.7500 P.3    15  C15         0.2141
    303  C5'       35.1290   11.7140   57.3400 C.3    15  C15         0.1812
    304  O5'       34.6570   13.0100   57.6690 O.3    15  C15        -0.3114
    305  C4'       36.6190   11.7580   57.1480 C.3    15  C15         0.1773
    306  O4'       36.9140   12.6000   55.9950 O.3    15  C15        -0.3307
    307  C3'       37.3860   12.4230   58.2800 C.3    15  C15         0.1860
    308  O3'       37.6590   11.4980   59.3220 O.3    15  C15        -0.3112
    309  C2'       38.6510   12.8610   57.5660 C.3    15  C15         0.2309
    310  O2'       39.5010   11.7710   57.2750 O.3    15  C15        -0.2156
    311  C1'       38.0680   13.3810   56.2560 C.3    15  C15         0.2420
    312  N1        37.6660   14.7870   56.3330 N.ar   15  C15        -0.2535
    313  C2        38.6470   15.7470   56.5490 C.ar   15  C15         0.3532
    314  O2        39.8230   15.3830   56.6680 O.2    15  C15        -0.2443
    315  N3        38.2980   17.0460   56.6250 N.ar   15  C15        -0.1739
    316  C4        37.0240   17.3990   56.4960 C.ar   15  C15         0.1759
    317  N4        36.7300   18.6930   56.5880 N.pl3  15  C15        -0.1070
    318  C5        35.9950   16.4400   56.2700 C.ar   15  C15         0.0566
    319  C6        36.3580   15.1550   56.1960 C.ar   15  C15         0.0850
    320  OP1       32.9290   14.6450   58.3780 O.3    15  C15        -0.4373
    321  OP2       32.5560   13.0580   56.3970 O.co2  15  C15        -0.5172
    322  P         37.4930   11.9630   60.8510 P.3    16  C16         0.2141
    323  C5'       40.0630   12.4800   60.9050 C.3    16  C16         0.1812
    324  O5'       38.7310   12.9410   61.0960 O.3    16  C16        -0.3114
    325  C4'       41.0460   13.6020   61.0940 C.3    16  C16         0.1773
    326  O4'       40.9370   14.5520   60.0090 O.3    16  C16        -0.3307
    327  C3'       40.8260   14.4510   62.3220 C.3    16  C16         0.1860
    328  O3'       41.3760   13.7960   63.4530 O.3    16  C16        -0.3112
    329  C2'       41.5980   15.7150   61.9620 C.3    16  C16         0.2309
    330  O2'       42.9810   15.5910   62.1790 O.3    16  C16        -0.2156
    331  C1'       41.3130   15.8370   60.4660 C.3    16  C16         0.2420
    332  N1        40.1910   16.7380   60.2450 N.ar   16  C16        -0.2535
    333  C2        40.3980   18.0850   60.4160 C.ar   16  C16         0.3532
    334  O2        41.5250   18.4630   60.7400 O.2    16  C16        -0.2443
    335  N3        39.3660   18.9490   60.2360 N.ar   16  C16        -0.1739
    336  C4        38.1600   18.4820   59.9060 C.ar   16  C16         0.1759
    337  N4        37.1640   19.3580   59.7530 N.pl3  16  C16        -0.1070
    338  C5        37.9210   17.0940   59.7210 C.ar   16  C16         0.0566
    339  C6        38.9590   16.2630   59.8950 C.ar   16  C16         0.0850
    340  OP1       37.6270   10.7690   61.7300 O.3    16  C16        -0.4373
    341  OP2       36.2590   12.7970   60.9120 O.co2  16  C16        -0.5172
    342  P         40.6660   13.9540   64.8770 P.3    17  G17         0.2141
    343  C5'       41.8790   16.2710   64.9530 C.3    17  G17         0.1812
    344  O5'       40.6760   15.5330   65.0980 O.3    17  G17        -0.3114
    345  C4'       41.6220   17.7480   65.1330 C.3    17  G17         0.1773
    346  O4'       41.0470   18.3180   63.9250 O.3    17  G17        -0.3307
    347  C3'       40.6750   18.1340   66.2590 C.3    17  G17         0.1860
    348  O3'       41.4180   18.2820   67.4670 O.3    17  G17        -0.3112
    349  C2'       40.1440   19.4780   65.7760 C.3    17  G17         0.2309
    350  O2'       41.0600   20.5240   66.0200 O.3    17  G17        -0.2156
    351  C1'       40.0170   19.2310   64.2700 C.3    17  G17         0.2408
    352  N1        35.2680   19.9390   62.5680 N.ar   17  G17        -0.1709
    353  C2        36.2400   20.8750   62.8290 C.ar   17  G17         0.2606
    354  N2        35.8940   22.1580   62.6130 N.pl3  17  G17        -0.0859
    355  N3        37.4550   20.5760   63.2730 N.ar   17  G17        -0.1918
    356  C4        37.6120   19.2490   63.4440 C.ar   17  G17         0.1723
    357  C5        36.7030   18.2370   63.2140 C.ar   17  G17         0.1748
    358  C6        35.4160   18.5650   62.7360 C.ar   17  G17         0.3023
    359  O6        34.4750   17.8000   62.4750 O.2    17  G17        -0.2633
    360  N7        37.2500   16.9990   63.5190 N.ar   17  G17        -0.2173
    361  C8        38.4570   17.2720   63.9210 C.ar   17  G17         0.1817
    362  N9        38.7460   18.6180   63.8960 N.ar   17  G17        -0.2693
    363  OP1       41.5150   13.3150   65.9090 O.3    17  G17        -0.4373
    364  OP2       39.2790   13.4750   64.6890 O.co2  17  G17        -0.5172
    365  P         40.6490   18.4480   68.8680 P.3    18  U18         0.2141
    366  C5'       42.2770   20.4470   69.3810 C.3    18  U18         0.1812
    367  O5'       40.9410   19.9670   69.2520 O.3    18  U18        -0.3114
    368  C4'       42.2930   21.9520   69.3320 C.3    18  U18         0.1773
    369  O4'       41.7900   22.3730   68.0400 O.3    18  U18        -0.3307
    370  C3'       41.3620   22.6250   70.3200 C.3    18  U18         0.1860
    371  O3'       42.0000   22.8350   71.5640 O.3    18  U18        -0.3112
    372  C2'       41.0840   23.9600   69.6510 C.3    18  U18         0.2309
    373  O2'       42.1130   24.8920   69.8680 O.3    18  U18        -0.2156
    374  C1'       41.0290   23.5580   68.1830 C.3    18  U18         0.2420
    375  N1        39.6540   23.2760   67.7570 N.ar   18  U18        -0.2534
    376  C2        38.9000   24.3420   67.3380 C.ar   18  U18         0.3546
    377  O2        39.3190   25.4770   67.3420 O.2    18  U18        -0.2443
    378  N3        37.6300   24.0320   66.9220 N.ar   18  U18        -0.1530
    379  C4        37.0480   22.7820   66.8960 C.ar   18  U18         0.2846
    380  O4        35.9040   22.6590   66.4500 O.2    18  U18        -0.2650
    381  C5        37.8920   21.7210   67.3720 C.ar   18  U18         0.0814
    382  C6        39.1360   21.9980   67.7750 C.ar   18  U18         0.0870
    383  OP1       41.2920   17.5510   69.8700 O.3    18  U18        -0.4373
    384  OP2       39.1950   18.3080   68.5860 O.co2  18  U18        -0.5172
    385  P         41.1080   23.1350   72.8590 P.3    19  A19         0.2141
    386  C5'       41.3340   25.7310   72.8890 C.3    19  A19         0.1812
    387  O5'       40.5350   24.5950   72.6090 O.3    19  A19        -0.3114
    388  C4'       40.5920   26.9840   72.5180 C.3    19  A19         0.1773
    389  O4'       39.9950   26.8020   71.2120 O.3    19  A19        -0.3307
    390  C3'       39.3910   27.3140   73.3840 C.3    19  A19         0.1860
    391  O3'       39.7830   27.9260   74.6060 O.3    19  A19        -0.3112
    392  C2'       38.5970   28.2510   72.4800 C.3    19  A19         0.2309
    393  O2'       39.0530   29.5880   72.5230 O.3    19  A19        -0.2156
    394  C1'       38.8590   27.6400   71.0990 C.3    19  A19         0.2408
    395  N1        34.1630   27.6980   69.0220 N.ar   19  A19        -0.2040
    396  C2        34.9980   28.6800   69.3980 C.ar   19  A19         0.2016
    397  N3        36.2110   28.5960   69.9360 N.ar   19  A19        -0.2048
    398  C4        36.5700   27.3090   70.0860 C.ar   19  A19         0.1692
    399  C5        35.8260   26.1920   69.7510 C.ar   19  A19         0.1518
    400  C6        34.5540   26.4170   69.1930 C.ar   19  A19         0.1919
    401  N6        33.7190   25.4400   68.8290 N.pl3  19  A19        -0.1054
    402  N7        36.5250   25.0310   70.0470 N.ar   19  A19        -0.2193
    403  C8        37.6570   25.4630   70.5440 C.ar   19  A19         0.1816
    404  N9        37.7490   26.8310   70.6000 N.ar   19  A19        -0.2693
    405  OP1       42.0380   23.2100   74.0170 O.3    19  A19        -0.4373
    406  OP2       39.9740   22.1690   72.8680 O.co2  19  A19        -0.5172
    407  P         39.1530   27.3970   75.9840 P.3    20  U20         0.2141
    408  C5'       37.2700   29.1890   75.6370 C.3    20  U20         0.1812
    409  O5'       37.6230   27.8290   75.8750 O.3    20  U20        -0.3114
    410  C4'       35.8560   29.2860   75.1130 C.3    20  U20         0.1773
    411  O4'       35.7910   28.7560   73.7640 O.3    20  U20        -0.3307
    412  C3'       34.8170   28.4850   75.8700 C.3    20  U20         0.1860
    413  O3'       34.3850   29.2030   77.0130 O.3    20  U20        -0.3112
    414  C2'       33.7150   28.3360   74.8280 C.3    20  U20         0.2309
    415  O2'       32.8940   29.4730   74.6800 O.3    20  U20        -0.2156
    416  C1'       34.5340   28.1350   73.5560 C.3    20  U20         0.2420
    417  N1        34.7690   26.7170   73.2530 N.ar   20  U20        -0.2534
    418  C2        33.7220   25.9970   72.7080 C.ar   20  U20         0.3546
    419  O2        32.6180   26.4820   72.5060 O.2    20  U20        -0.2443
    420  N3        34.0120   24.6850   72.4200 N.ar   20  U20        -0.1530
    421  C4        35.2090   24.0330   72.6350 C.ar   20  U20         0.2846
    422  O4        35.3200   22.8460   72.3200 O.2    20  U20        -0.2650
    423  C5        36.2310   24.8440   73.2210 C.ar   20  U20         0.0814
    424  C6        35.9830   26.1270   73.4980 C.ar   20  U20         0.0870
    425  OP1       39.7550   28.1360   77.1160 O.3    20  U20        -0.4373
    426  OP2       39.2510   25.9130   75.9450 O.co2  20  U20        -0.5172
    427  P         34.2580   28.4450   78.4210 P.3    21  U21         0.2141
    428  C5'       31.7140   28.8090   77.8980 C.3    21  U21         0.1812
    429  O5'       32.7340   27.9860   78.4540 O.3    21  U21        -0.3114
    430  C4'       30.4500   28.0090   77.6970 C.3    21  U21         0.1773
    431  O4'       30.4950   27.3860   76.3890 O.3    21  U21        -0.3307
    432  C3'       30.2240   26.8310   78.6350 C.3    21  U21         0.1860
    433  O3'       29.6290   27.2350   79.8600 O.3    21  U21        -0.3112
    434  C2'       29.2200   26.0070   77.8450 C.3    21  U21         0.2309
    435  O2'       27.9070   26.5140   77.9770 O.3    21  U21        -0.2156
    436  C1'       29.7310   26.1900   76.4130 C.3    21  U21         0.2420
    437  N1        30.5850   25.0740   75.9820 N.ar   21  U21        -0.2534
    438  C2        29.9660   23.9900   75.4040 C.ar   21  U21         0.3546
    439  O2        28.7650   23.9390   75.2230 O.2    21  U21        -0.2443
    440  N3        30.8020   22.9630   75.0530 N.ar   21  U21        -0.1530
    441  C4        32.1650   22.9110   75.2220 C.ar   21  U21         0.2846
    442  O4        32.7720   21.8810   74.9240 O.2    21  U21        -0.2650
    443  C5        32.7340   24.0770   75.8130 C.ar   21  U21         0.0814
    444  C6        31.9450   25.0950   76.1610 C.ar   21  U21         0.0870
    445  OP1       34.4930   29.4190   79.5180 O.3    21  U21        -0.4373
    446  OP2       35.1020   27.2340   78.3310 O.co2  21  U21        -0.5172
    447  P         29.8520   26.3530   81.1880 P.3    22  G22         0.2141
    448  C5'       27.4200   25.3930   81.2500 C.3    22  G22         0.1812
    449  O5'       28.8070   25.1550   81.0540 O.3    22  G22        -0.3114
    450  C4'       26.6330   24.1040   81.1650 C.3    22  G22         0.1773
    451  O4'       27.2290   23.1760   80.2190 O.3    22  G22        -0.3307
    452  C3'       26.5310   23.2600   82.4190 C.3    22  G22         0.1860
    453  O3'       25.6140   23.8260   83.3500 O.3    22  G22        -0.3112
    454  C2'       25.9870   21.9740   81.8230 C.3    22  G22         0.2309
    455  O2'       24.6330   22.1140   81.4470 O.3    22  G22        -0.2156
    456  C1'       26.8590   21.8460   80.5700 C.3    22  G22         0.2408
    457  N1        28.9470   17.2410   81.1610 N.ar   22  G22        -0.1709
    458  C2        27.6630   17.5690   80.8190 C.ar   22  G22         0.2606
    459  N2        26.8320   16.5370   80.6290 N.pl3  22  G22        -0.0859
    460  N3        27.2290   18.8150   80.6710 N.ar   22  G22        -0.1918
    461  C4        28.2080   19.7190   80.8930 C.ar   22  G22         0.1723
    462  C5        29.5240   19.4910   81.2340 C.ar   22  G22         0.1748
    463  C6        29.9690   18.1490   81.3940 C.ar   22  G22         0.3023
    464  O6        31.0920   17.7380   81.6960 O.2    22  G22        -0.2633
    465  N7        30.2140   20.6880   81.3590 N.ar   22  G22        -0.2173
    466  C8        29.3220   21.6060   81.1080 C.ar   22  G22         0.1817
    467  N9        28.0790   21.0890   80.8340 N.ar   22  G22        -0.2693
    468  OP1       29.4490   27.2030   82.3430 O.3    22  G22        -0.4373
    469  OP2       31.2240   25.7780   81.1430 O.co2  22  G22        -0.5172
    470  P         25.7010   23.4190   84.9030 P.3    23  C23         0.2141
    471  C5'       24.2000   21.3560   84.2490 C.3    23  C23         0.1812
    472  O5'       25.3670   21.8590   84.9030 O.3    23  C23        -0.3114
    473  C4'       24.0910   19.8610   84.4480 C.3    23  C23         0.1773
    474  O4'       24.9560   19.1590   83.5030 O.3    23  C23        -0.3307
    475  C3'       24.5800   19.3610   85.7930 C.3    23  C23         0.1860
    476  O3'       23.6410   19.5840   86.8420 O.3    23  C23        -0.3112
    477  C2'       24.8160   17.8920   85.4810 C.3    23  C23         0.2309
    478  O2'       23.6200   17.1700   85.3250 O.3    23  C23        -0.2156
    479  C1'       25.5090   18.0080   84.1270 C.3    23  C23         0.2420
    480  N1        26.9640   18.1980   84.2670 N.ar   23  C23        -0.2535
    481  C2        27.7860   17.0750   84.3310 C.ar   23  C23         0.3532
    482  O2        27.2680   15.9530   84.2730 O.2    23  C23        -0.2443
    483  N3        29.1220   17.2350   84.4560 N.ar   23  C23        -0.1739
    484  C4        29.6410   18.4560   84.5170 C.ar   23  C23         0.1759
    485  N4        30.9600   18.5660   84.6320 N.pl3  23  C23        -0.1070
    486  C5        28.8310   19.6200   84.4590 C.ar   23  C23         0.0566
    487  C6        27.5070   19.4480   84.3350 C.ar   23  C23         0.0850
    488  OP1       24.6120   24.1080   85.6390 O.3    23  C23        -0.4373
    489  OP2       27.1120   23.6050   85.3390 O.co2  23  C23        -0.5172
    490  P         23.9780   19.0610   88.3300 P.3    24  A24         0.2141
    491  C5'       24.2100   16.6070   89.2050 C.3    24  A24         0.1812
    492  O5'       24.0140   17.4830   88.1150 O.3    24  A24        -0.3114
    493  C4'       25.0910   15.4620   88.7950 C.3    24  A24         0.1773
    494  O4'       25.8010   15.7760   87.5720 O.3    24  A24        -0.3307
    495  C3'       26.1990   15.1820   89.7800 C.3    24  A24         0.1860
    496  O3'       25.6810   14.4150   90.8270 O.3    24  A24        -0.3112
    497  C2'       27.1840   14.4210   88.9230 C.3    24  A24         0.2309
    498  O2'       26.7840   13.0990   88.6550 O.3    24  A24        -0.2156
    499  C1'       27.1200   15.2500   87.6470 C.3    24  A24         0.2408
    500  N1        32.0180   16.6720   88.1570 N.ar   24  A24        -0.2040
    501  C2        31.4200   15.4820   88.2310 C.ar   24  A24         0.2016
    502  N3        30.1380   15.1790   88.1140 N.ar   24  A24        -0.2048
    503  C4        29.4120   16.2860   87.9020 C.ar   24  A24         0.1692
    504  C5        29.8830   17.5780   87.8190 C.ar   24  A24         0.1518
    505  C6        31.2580   17.7620   87.9410 C.ar   24  A24         0.1919
    506  N6        31.8520   18.9530   87.8450 N.pl3  24  A24        -0.1054
    507  N7        28.8410   18.4680   87.6130 N.ar   24  A24        -0.2193
    508  C8        27.7790   17.7040   87.5610 C.ar   24  A24         0.1816
    509  N9        28.0550   16.3700   87.7070 N.ar   24  A24        -0.2693
    510  OP1       22.8180   19.3870   89.1980 O.3    24  A24        -0.4373
    511  OP2       25.3460   19.5170   88.7420 O.co2  24  A24        -0.5172
    512  P         25.6710   15.0230   92.2970 P.3    25  G25         0.2141
    513  C5'       27.6020   13.3290   92.6300 C.3    25  G25         0.1812
    514  O5'       27.1300   14.6530   92.8000 O.3    25  G25        -0.3114
    515  C4'       29.0870   13.3200   92.5050 C.3    25  G25         0.1773
    516  O4'       29.4850   14.1250   91.3770 O.3    25  G25        -0.3307
    517  C3'       29.8140   13.9750   93.6520 C.3    25  G25         0.1860
    518  O3'       29.8790   13.0680   94.7430 O.3    25  G25        -0.3112
    519  C2'       31.1780   14.1940   93.0270 C.3    25  G25         0.2309
    520  O2'       31.8840   12.9770   92.9720 O.3    25  G25        -0.2156
    521  C1'       30.7910   14.6260   91.6070 C.3    25  G25         0.2408
    522  N1        33.5280   18.9170   91.5590 N.ar   25  G25        -0.1709
    523  C2        33.9250   17.6350   91.8190 C.ar   25  G25         0.2606
    524  N2        35.2190   17.4690   92.0920 N.pl3  25  G25        -0.0859
    525  N3        33.1150   16.5920   91.8120 N.ar   25  G25        -0.1918
    526  C4        31.8490   16.9350   91.5000 C.ar   25  G25         0.1723
    527  C5        31.3450   18.1870   91.2160 C.ar   25  G25         0.1748
    528  C6        32.2320   19.3030   91.2470 C.ar   25  G25         0.3023
    529  O6        31.9810   20.4990   91.0480 O.2    25  G25        -0.2633
    530  N7        29.9850   18.1210   90.9430 N.ar   25  G25        -0.2173
    531  C8        29.6900   16.8540   91.0650 C.ar   25  G25         0.1817
    532  N9        30.7740   16.0760   91.3990 N.ar   25  G25        -0.2693
    533  OP1       24.6790   14.2670   93.0960 O.3    25  G25        -0.4373
    534  OP2       25.5400   16.4920   92.1710 O.co2  25  G25        -0.5172
    535  P         29.6440   13.6020   96.2430 P.3    26  U26         0.2141
    536  C5'       32.2320   13.4890   96.2510 C.3    26  U26         0.1812
    537  O5'       31.0640   14.2140   96.5880 O.3    26  U26        -0.3114
    538  C4'       33.4400   14.3280   96.5070 C.3    26  U26         0.1773
    539  O4'       33.7520   15.0730   95.3050 O.3    26  U26        -0.3307
    540  C3'       33.2590   15.3750   97.5900 C.3    26  U26         0.1860
    541  O3'       33.6250   14.8170   98.8390 O.3    26  U26        -0.3112
    542  C2'       34.2750   16.4200   97.1700 C.3    26  U26         0.2309
    543  O2'       35.5830   16.0590   97.5730 O.3    26  U26        -0.2156
    544  C1'       34.1310   16.3850   95.6470 C.3    26  U26         0.2420
    545  N1        33.0840   17.2800   95.1480 N.ar   26  U26        -0.2534
    546  C2        33.4350   18.5690   94.8300 C.ar   26  U26         0.3546
    547  O2        34.5640   19.0010   94.9550 O.2    26  U26        -0.2443
    548  N3        32.4130   19.3400   94.3580 N.ar   26  U26        -0.1530
    549  C4        31.1170   18.9600   94.1820 C.ar   26  U26         0.2846
    550  O4        30.3420   19.7360   93.6350 O.2    26  U26        -0.2650
    551  C5        30.8330   17.6140   94.5470 C.ar   26  U26         0.0814
    552  C6        31.8030   16.8390   95.0020 C.ar   26  U26         0.0870
    553  OP1       29.4290   12.4390   97.1480 O.3    26  U26        -0.4373
    554  OP2       28.6220   14.6890   96.1840 O.co2  26  U26        -0.5172
    555  P         33.3770   15.6470  100.1870 P.3    27  C27         0.2141
    556  C5'       35.5180   17.1080  100.5410 C.3    27  C27         0.1812
    557  O5'       34.2240   16.9770   99.9720 O.3    27  C27        -0.3114
    558  C4'       36.0340   18.5080  100.3400 C.3    27  C27         0.1773
    559  O4'       35.8230   18.8950   98.9610 O.3    27  C27        -0.3307
    560  C3'       35.3200   19.6050  101.1060 C.3    27  C27         0.1860
    561  O3'       35.7810   19.6900  102.4450 O.3    27  C27        -0.3112
    562  C2'       35.7480   20.8270  100.3170 C.3    27  C27         0.2309
    563  O2'       37.0850   21.1790  100.5950 O.3    27  C27        -0.2156
    564  C1'       35.6510   20.2990   98.8860 C.3    27  C27         0.2420
    565  N1        34.3380   20.5730   98.2920 N.ar   27  C27        -0.2535
    566  C2        34.0490   21.8740   97.8650 C.ar   27  C27         0.3532
    567  O2        34.9290   22.7400   97.9500 O.2    27  C27        -0.2443
    568  N3        32.8190   22.1480   97.3650 N.ar   27  C27        -0.1739
    569  C4        31.9090   21.1780   97.2720 C.ar   27  C27         0.1759
    570  N4        30.7140   21.4910   96.7940 N.pl3  27  C27        -0.1070
    571  C5        32.1860   19.8390   97.6710 C.ar   27  C27         0.0566
    572  C6        33.4020   19.5830   98.1720 C.ar   27  C27         0.0850
    573  OP1       34.0050   14.9090  101.3170 O.3    27  C27        -0.4373
    574  OP2       31.9300   15.9900  100.2420 O.co2  27  C27        -0.5172
    575  P         34.8190   19.2240  103.6370 P.3    28  G28         0.2141
    576  C5'       34.8150   21.4940  104.9710 C.3    28  G28         0.1812
    577  O5'       34.1220   20.5660  104.1400 O.3    28  G28        -0.3114
    578  C4'       35.1710   22.7360  104.1860 C.3    28  G28         0.1773
    579  O4'       34.9760   22.4830  102.7740 O.3    28  G28        -0.3307
    580  C3'       34.3400   23.9750  104.4710 C.3    28  G28         0.1860
    581  O3'       34.9380   24.6930  105.5430 O.3    28  G28        -0.3112
    582  C2'       34.5100   24.7680  103.1820 C.3    28  G28         0.2309
    583  O2'       35.7410   25.4440  103.1380 O.3    28  G28        -0.2156
    584  C1'       34.5570   23.6660  102.1280 C.3    28  G28         0.2408
    585  N1        30.8550   25.5070   99.2030 N.ar   28  G28        -0.1709
    586  C2        32.0000   26.1210   99.6350 C.ar   28  G28         0.2606
    587  N2        32.1880   27.3820   99.2160 N.pl3  28  G28        -0.0859
    588  N3        32.8980   25.5410  100.4140 N.ar   28  G28        -0.1918
    589  C4        32.5550   24.2760  100.7130 C.ar   28  G28         0.1723
    590  C5        31.4360   23.5760  100.3240 C.ar   28  G28         0.1748
    591  C6        30.4870   24.2060   99.5090 C.ar   28  G28         0.3023
    592  O6        29.4360   23.7470   99.0750 O.2    28  G28        -0.2633
    593  N7        31.4520   22.2950  100.8420 N.ar   28  G28        -0.2173
    594  C8        32.5620   22.2400  101.5250 C.ar   28  G28         0.1817
    595  N9        33.2770   23.4070  101.4840 N.ar   28  G28        -0.2693
    596  OP1       35.6490   18.6900  104.7470 O.3    28  G28        -0.4373
    597  OP2       33.7720   18.3640  103.0130 O.co2  28  G28        -0.5172
    598  P         34.0360   25.2270  106.7600 P.3    29  C29         0.2141
    599  C5'       34.1830   27.6090  105.6900 C.3    29  C29         0.1812
    600  O5'       33.3730   26.5570  106.1910 O.3    29  C29        -0.3114
    601  C4'       33.3400   28.6110  104.9410 C.3    29  C29         0.1773
    602  O4'       33.1740   28.1840  103.5620 O.3    29  C29        -0.3307
    603  C3'       31.9160   28.8090  105.4270 C.3    29  C29         0.1860
    604  O3'       31.8680   29.7020  106.5300 O.3    29  C29        -0.3112
    605  C2'       31.2920   29.4360  104.1940 C.3    29  C29         0.2309
    606  O2'       31.7150   30.7690  104.0090 O.3    29  C29        -0.2156
    607  C1'       31.8810   28.5470  103.1020 C.3    29  C29         0.2420
    608  N1        31.0950   27.3180  102.9340 N.ar   29  C29        -0.2535
    609  C2        30.0180   27.3180  102.0470 C.ar   29  C29         0.3532
    610  O2        29.7690   28.3370  101.4090 O.2    29  C29        -0.2443
    611  N3        29.2730   26.2070  101.9100 N.ar   29  C29        -0.1739
    612  C4        29.5670   25.1180  102.6200 C.ar   29  C29         0.1759
    613  N4        28.7890   24.0380  102.4650 N.pl3  29  C29        -0.1070
    614  C5        30.6700   25.0840  103.5250 C.ar   29  C29         0.0566
    615  C6        31.4010   26.1950  103.6460 C.ar   29  C29         0.0850
    616  OP1       34.9650   25.6010  107.8520 O.3    29  C29        -0.4373
    617  OP2       32.9360   24.2580  107.0220 O.co2  29  C29        -0.5172
    618  P         30.4740   29.9750  107.2800 P.3    30  G30         0.2141
    619  C5'       29.5840   31.8750  105.7020 C.3    30  G30         0.1812
    620  O5'       29.5330   30.5170  106.1200 O.3    30  G30        -0.3114
    621  C4'       28.2270   32.2970  105.2040 C.3    30  G30         0.1773
    622  O4'       27.8240   31.3340  104.2110 O.3    30  G30        -0.3307
    623  C3'       27.1620   32.3180  106.2910 C.3    30  G30         0.1860
    624  O3'       26.8350   33.6500  106.7320 O.3    30  G30        -0.3112
    625  C2'       26.0120   31.4350  105.7890 C.3    30  G30         0.2309
    626  O2'       24.7750   32.1010  105.6310 O.3    30  G30        -0.2156
    627  C1'       26.4940   30.9330  104.4280 C.3    30  G30         0.2408
    628  N1        23.8910   27.0430  102.4580 N.ar   30  G30        -0.1709
    629  C2        23.6580   28.3840  102.3530 C.ar   30  G30         0.2606
    630  N2        22.5640   28.7310  101.6640 N.pl3  30  G30        -0.0859
    631  N3        24.4290   29.3150  102.8890 N.ar   30  G30        -0.1918
    632  C4        25.4650   28.7820  103.5660 C.ar   30  G30         0.1723
    633  C5        25.7880   27.4560  103.7300 C.ar   30  G30         0.1748
    634  C6        24.9480   26.4700  103.1410 C.ar   30  G30         0.3023
    635  O6        25.0520   25.2440  103.1780 O.2    30  G30        -0.2633
    636  N7        26.9390   27.3210  104.4930 N.ar   30  G30        -0.2173
    637  C8        27.2790   28.5470  104.7870 C.ar   30  G30         0.1817
    638  N9        26.4210   29.4820  104.2660 N.ar   30  G30        -0.2693
    639  OP1       30.7030   31.0720  108.2400 O.3    30  G30        -0.4373
    640  OP2       29.8960   28.6960  107.7620 O.co2  30  G30        -0.5172
    641  P         26.2690   34.7600  105.6960 P.3    31  U31         0.2141
    642  C5'       27.7310   35.3430  103.5950 C.3    31  U31         0.1812
    643  O5'       27.5530   35.4100  105.0100 O.3    31  U31        -0.3114
    644  C4'       27.9630   36.7220  103.0130 C.3    31  U31         0.1773
    645  O4'       26.9780   37.6590  103.5220 O.3    31  U31        -0.3307
    646  C3'       29.3240   37.3540  103.2910 C.3    31  U31         0.1860
    647  O3'       29.8130   37.9340  102.0970 O.3    31  U31        -0.3112
    648  C2'       29.0050   38.4670  104.2830 C.3    31  U31         0.2309
    649  O2'       29.9040   39.5480  104.1480 O.3    31  U31        -0.2156
    650  C1'       27.6170   38.8810  103.8060 C.3    31  U31         0.2420
    651  N1        26.8080   39.6080  104.7930 N.ar   31  U31        -0.2534
    652  C2        26.6810   40.9770  104.6400 C.ar   31  U31         0.3546
    653  O2        27.2240   41.5980  103.7360 O.2    31  U31        -0.2443
    654  N3        25.8940   41.5930  105.5830 N.ar   31  U31        -0.1530
    655  C4        25.2380   40.9900  106.6410 C.ar   31  U31         0.2846
    656  O4        24.5410   41.6740  107.3930 O.2    31  U31        -0.2650
    657  C5        25.4280   39.5760  106.7330 C.ar   31  U31         0.0814
    658  C6        26.1890   38.9500  105.8290 C.ar   31  U31         0.0870
    659  OP1       25.6410   35.8110  106.5230 O.3    31  U31        -0.4373
    660  OP2       25.4700   34.0980  104.6340 O.co2  31  U31        -0.5172
    661  P         31.2100   37.4410  101.4970 P.3    32  G32         0.2141
    662  C5'       30.3130   37.3030   99.0430 C.3    32  G32         0.1812
    663  O5'       30.7820   36.6250  100.2000 O.3    32  G32        -0.3114
    664  C4'       29.4700   36.3810   98.2010 C.3    32  G32         0.1773
    665  O4'       28.3570   35.8930   99.0010 O.3    32  G32        -0.3307
    666  C3'       28.8520   37.0560   96.9830 C.3    32  G32         0.1860
    667  O3'       29.6160   36.7750   95.8210 O.3    32  G32        -0.3112
    668  C2'       27.4530   36.4530   96.9180 C.3    32  G32         0.2309
    669  O2'       27.4150   35.2080   96.2480 O.3    32  G32        -0.2156
    670  C1'       27.1370   36.2780   98.4010 C.3    32  G32         0.2408
    671  N1        24.3400   38.2170  102.1550 N.ar   32  G32        -0.1709
    672  C2        24.5180   36.9020  101.7740 C.ar   32  G32         0.2606
    673  N2        23.8680   35.9710  102.5010 N.pl3  32  G32        -0.0859
    674  N3        25.2720   36.5230  100.7570 N.ar   32  G32        -0.1918
    675  C4        25.8400   37.5720  100.1350 C.ar   32  G32         0.1723
    676  C5        25.7250   38.9190  100.4260 C.ar   32  G32         0.1748
    677  C6        24.9160   39.3170  101.5270 C.ar   32  G32         0.3023
    678  O6        24.6940   40.4610  101.9530 O.2    32  G32        -0.2633
    679  N7        26.4670   39.6800   99.5330 N.ar   32  G32        -0.2173
    680  C8        27.0140   38.8000   98.7380 C.ar   32  G32         0.1817
    681  N9        26.6820   37.5010   99.0560 N.ar   32  G32        -0.2693
    682  OP1       31.8390   36.5150  102.4720 O.3    32  G32        -0.4373
    683  OP2       31.9520   38.6460  101.0530 O.co2  32  G32        -0.5172
    684  P         30.8600   37.7190   95.4540 P.3    33  A33         0.2141
    685  C5'       32.7640   38.1320   97.2090 C.3    33  A33         0.1812
    686  O5'       32.0110   37.2120   96.4270 O.3    33  A33        -0.3114
    687  C4'       34.0170   37.4710   97.7110 C.3    33  A33         0.1773
    688  O4'       33.6480   36.3160   98.5060 O.3    33  A33        -0.3307
    689  C3'       34.9460   36.9730   96.6130 C.3    33  A33         0.1860
    690  O3'       36.2870   37.2880   96.9380 O.3    33  A33        -0.3112
    691  C2'       34.7310   35.4670   96.6000 C.3    33  A33         0.2309
    692  O2'       35.9190   34.7750   96.2950 O.3    33  A33        -0.2156
    693  C1'       34.3440   35.1840   98.0480 C.3    33  A33         0.2408
    694  N1        32.2950   31.7060  101.2200 N.ar   33  A33        -0.2040
    695  C2        33.1520   32.7100  101.4260 C.ar   33  A33         0.2016
    696  N3        33.6540   33.5820  100.5540 N.ar   33  A33        -0.2048
    697  C4        33.1730   33.3450   99.3220 C.ar   33  A33         0.1692
    698  C5        32.2860   32.3530   98.9570 C.ar   33  A33         0.1518
    699  C6        31.8360   31.4980   99.9690 C.ar   33  A33         0.1919
    700  N6        30.9860   30.5000   99.7590 N.pl3  33  A33        -0.1054
    701  N7        32.0130   32.4140   97.5990 N.ar   33  A33        -0.2193
    702  C8        32.7280   33.4260   97.1810 C.ar   33  A33         0.1816
    703  N9        33.4540   34.0360   98.1720 N.ar   33  A33        -0.2693
    704  OP1       30.4980   39.1080   95.8480 O.3    33  A33        -0.4373
    705  OP2       31.2730   37.4340   94.0530 O.co2  33  A33        -0.5172
    706  P         36.8610   38.7370   96.5730 P.3    34  U34         0.2141
    707  C5'       39.3060   37.7800   96.6770 C.3    34  U34         0.1812
    708  O5'       38.3520   38.7330   97.1220 O.3    34  U34        -0.3114
    709  C4'       40.4370   37.7130   97.6700 C.3    34  U34         0.1773
    710  O4'       41.1060   38.9970   97.6570 O.3    34  U34        -0.3307
    711  C3'       39.9570   37.5380   99.1060 C.3    34  U34         0.1860
    712  O3'       39.8220   36.1650   99.4980 O.3    34  U34        -0.3112
    713  C2'       40.9420   38.3380   99.9630 C.3    34  U34         0.2309
    714  O2'       41.9260   37.5520  100.6090 O.3    34  U34        -0.2156
    715  C1'       41.5700   39.3110   98.9570 C.3    34  U34         0.2420
    716  N1        41.2690   40.7270   99.2240 N.ar   34  U34        -0.2534
    717  C2        42.2380   41.4860   99.8580 C.ar   34  U34         0.3546
    718  O2        43.3120   41.0270  100.2040 O.2    34  U34        -0.2443
    719  N3        41.8990   42.8040  100.0670 N.ar   34  U34        -0.1530
    720  C4        40.7160   43.4280   99.7150 C.ar   34  U34         0.2846
    721  O4        40.5570   44.6270   99.9650 O.2    34  U34        -0.2650
    722  C5        39.7660   42.5760   99.0700 C.ar   34  U34         0.0814
    723  C6        40.0670   41.2850   98.8530 C.ar   34  U34         0.0870
    724  OP1       36.0830   39.7590   97.3290 O.3    34  U34        -0.4373
    725  OP2       36.9310   38.8050   95.0930 O.co2  34  U34        -0.5172
    726  P         40.8960   35.0550   99.0300 P.3    35  A35         0.2141
    727  C5'       40.8280   34.2440  101.4830 C.3    35  A35         0.1812
    728  O5'       40.6630   33.9270  100.1130 O.3    35  A35        -0.3114
    729  C4'       39.5710   33.9360  102.2460 C.3    35  A35         0.1773
    730  O4'       38.4030   34.1340  101.4180 O.3    35  A35        -0.3307
    731  C3'       39.4650   32.4870  102.6460 C.3    35  A35         0.1860
    732  O3'       40.2950   32.3010  103.7740 O.3    35  A35        -0.3112
    733  C2'       37.9730   32.3390  102.9160 C.3    35  A35         0.2309
    734  O2'       37.5910   32.8380  104.1760 O.3    35  A35        -0.2156
    735  C1'       37.3830   33.2340  101.8230 C.3    35  A35         0.2408
    736  N1        34.5000   29.3890   99.9690 N.ar   35  A35        -0.2040
    737  C2        34.7470   29.8000  101.2190 C.ar   35  A35         0.2016
    738  N3        35.5150   30.8010  101.6390 N.ar   35  A35        -0.2048
    739  C4        36.0830   31.4280  100.5980 C.ar   35  A35         0.1692
    740  C5        35.9250   31.1210   99.2590 C.ar   35  A35         0.1518
    741  C6        35.0830   30.0440   98.9470 C.ar   35  A35         0.1919
    742  N6        34.8280   29.6410   97.7030 N.pl3  35  A35        -0.1054
    743  N7        36.6610   31.9880   98.4650 N.ar   35  A35        -0.2193
    744  C8        37.2370   32.7900   99.3270 C.ar   35  A35         0.1816
    745  N9        36.9250   32.5130  100.6360 N.ar   35  A35        -0.2693
    746  OP1       42.2890   35.5240   99.2480 O.3    35  A35        -0.4373
    747  OP2       40.4890   34.5410   97.6970 O.co2  35  A35        -0.5172
    748  P         41.5520   31.3140  103.6660 P.3    36  A36         0.2141
    749  C5'       39.9610   29.9780  105.2370 C.3    36  A36         0.1812
    750  O5'       40.9300   29.9480  104.1920 O.3    36  A36        -0.3114
    751  C4'       39.0620   28.7780  105.1530 C.3    36  A36         0.1773
    752  O4'       37.9550   29.0420  104.2530 O.3    36  A36        -0.3307
    753  C3'       39.7150   27.5310  104.5950 C.3    36  A36         0.1860
    754  O3'       40.3680   26.8430  105.6460 O.3    36  A36        -0.3112
    755  C2'       38.5030   26.7560  104.1200 C.3    36  A36         0.2309
    756  O2'       37.8040   26.2240  105.2270 O.3    36  A36        -0.2156
    757  C1'       37.6730   27.8780  103.5000 C.3    36  A36         0.2408
    758  N1        36.4100   27.1870   98.5460 N.ar   36  A36        -0.2040
    759  C2        35.9100   26.6730   99.6780 C.ar   36  A36         0.2016
    760  N3        36.2950   26.8690  100.9400 N.ar   36  A36        -0.2048
    761  C4        37.3390   27.7110  100.9880 C.ar   36  A36         0.1692
    762  C5        37.9640   28.3140   99.9120 C.ar   36  A36         0.1518
    763  C6        37.4560   28.0300   98.6310 C.ar   36  A36         0.1919
    764  N6        37.9440   28.5500   97.5050 N.pl3  36  A36        -0.1054
    765  N7        39.0100   29.1130  100.3430 N.ar   36  A36        -0.2193
    766  C8        38.9890   28.9860  101.6490 C.ar   36  A36         0.1816
    767  N9        37.9940   28.1690  102.1070 N.ar   36  A36        -0.2693
    768  OP1       42.5570   31.7790  104.6560 O.3    36  A36        -0.4373
    769  OP2       41.9380   31.1610  102.2360 O.co2  36  A36        -0.5172
    770  P         41.6510   25.9430  105.3180 P.3    37  A37         0.2141
    771  C5'       40.0250   23.9330  105.6030 C.3    37  A37         0.1812
    772  O5'       41.0230   24.5720  104.8310 O.3    37  A37        -0.3114
    773  C4'       39.3130   22.9180  104.7620 C.3    37  A37         0.1773
    774  O4'       38.4190   23.6100  103.8450 O.3    37  A37        -0.3307
    775  C3'       40.2310   22.1180  103.8570 C.3    37  A37         0.1860
    776  O3'       40.7510   21.0050  104.5650 O.3    37  A37        -0.3112
    777  C2'       39.2720   21.7030  102.7550 C.3    37  A37         0.2309
    778  O2'       38.4060   20.6720  103.1930 O.3    37  A37        -0.2156
    779  C1'       38.4850   23.0020  102.5670 C.3    37  A37         0.2408
    780  N1        38.6600   24.8010   97.7560 N.ar   37  A37        -0.2040
    781  C2        37.9200   23.8520   98.3350 C.ar   37  A37         0.2016
    782  N3        37.9230   23.4320   99.5980 N.ar   37  A37        -0.2048
    783  C4        38.8230   24.1120  100.3200 C.ar   37  A37         0.1692
    784  C5        39.6560   25.1180   99.8700 C.ar   37  A37         0.1518
    785  C6        39.5580   25.4670   98.5120 C.ar   37  A37         0.1919
    786  N6        40.2980   26.4110   97.9340 N.pl3  37  A37        -0.1054
    787  N7        40.4540   25.5910  100.9000 N.ar   37  A37        -0.2193
    788  C8        40.0920   24.8690  101.9320 C.ar   37  A37         0.1816
    789  N9        39.1110   23.9540  101.6510 N.ar   37  A37        -0.2693
    790  OP1       42.3510   25.6740  106.5980 O.3    37  A37        -0.4373
    791  OP2       42.3840   26.5650  104.1820 O.co2  37  A37        -0.5172
    792  P         41.8630   20.0750  103.8790 P.3    38  U38         0.2141
    793  C5'       41.4680   18.1480  102.1380 C.3    38  U38         0.1812
    794  O5'       41.0020   18.8860  103.2580 O.3    38  U38        -0.3114
    795  C4'       40.3530   17.9640  101.1410 C.3    38  U38         0.1773
    796  O4'       39.6850   19.2370  100.9550 O.3    38  U38        -0.3307
    797  C3'       40.8100   17.5220   99.7590 C.3    38  U38         0.1860
    798  O3'       40.6870   16.1140   99.6410 O.3    38  U38        -0.3112
    799  C2'       39.8170   18.1990   98.8260 C.3    38  U38         0.2309
    800  O2'       38.6500   17.4260   98.6410 O.3    38  U38        -0.2156
    801  C1'       39.5060   19.4930   99.5750 C.3    38  U38         0.2420
    802  N1        40.3530   20.6380   99.2060 N.ar   38  U38        -0.2534
    803  C2        40.2490   21.1420   97.9200 C.ar   38  U38         0.3546
    804  O2        39.5220   20.6540   97.0720 O.2    38  U38        -0.2443
    805  N3        41.0330   22.2430   97.6660 N.ar   38  U38        -0.1530
    806  C4        41.8920   22.8770   98.5450 C.ar   38  U38         0.2846
    807  O4        42.4310   23.9310   98.2080 O.2    38  U38        -0.2650
    808  C5        41.9660   22.2780   99.8400 C.ar   38  U38         0.0814
    809  C6        41.2130   21.2050  100.1200 C.ar   38  U38         0.0870
    810  OP1       42.7020   19.5390  104.9810 O.3    38  U38        -0.4373
    811  OP2       42.5060   20.8260  102.7690 O.co2  38  U38        -0.5172
    812  P         41.9580   15.2430   99.2010 P.3    39  G39         0.2141
    813  C5'       41.4540   15.5200   96.6170 C.3    39  G39         0.1812
    814  O5'       42.3170   15.7760   97.7340 O.3    39  G39        -0.3114
    815  C4'       41.3850   16.7310   95.6980 C.3    39  G39         0.1773
    816  O4'       41.2960   17.9350   96.4980 O.3    39  G39        -0.3307
    817  C3'       42.5670   16.9380   94.7560 C.3    39  G39         0.1860
    818  O3'       42.2910   16.3650   93.4860 O.3    39  G39        -0.3112
    819  C2'       42.6480   18.4570   94.5950 C.3    39  G39         0.2309
    820  O2'       41.8990   18.9600   93.5050 O.3    39  G39        -0.2156
    821  C1'       42.0800   18.9630   95.9200 C.3    39  G39         0.2408
    822  N1        45.6050   22.3970   97.1300 N.ar   39  G39        -0.1709
    823  C2        44.7480   22.3630   96.0540 C.ar   39  G39         0.2606
    824  N2        44.8450   23.3800   95.1880 N.pl3  39  G39        -0.0859
    825  N3        43.8640   21.4020   95.8440 N.ar   39  G39        -0.1918
    826  C4        43.9050   20.4620   96.8100 C.ar   39  G39         0.1723
    827  C5        44.7200   20.4000   97.9240 C.ar   39  G39         0.1748
    828  C6        45.6650   21.4370   98.1390 C.ar   39  G39         0.3023
    829  O6        46.4800   21.5610   99.0690 O.2    39  G39        -0.2633
    830  N7        44.4480   19.2630   98.6720 N.ar   39  G39        -0.2173
    831  C8        43.4920   18.6660   98.0120 C.ar   39  G39         0.1817
    832  N9        43.1150   19.3440   96.8740 N.ar   39  G39        -0.2693
    833  OP1       41.4870   13.8390   99.1040 O.2    39  G39        -0.5172
    834  OP2       43.0630   15.5950  100.1370 O.co2  39  G39        -0.4373
    835  P         41.8190   14.8340   93.3900 P.3    40  U40         0.2141
    836  C5'       41.1260   15.3930   90.9080 C.3    40  U40         0.1812
    837  O5'       41.8240   14.5410   91.8200 O.3    40  U40        -0.3114
    838  C4'       39.6730   14.9910   90.8430 C.3    40  U40         0.1773
    839  O4'       38.8350   16.1010   90.4790 O.3    40  U40        -0.3307
    840  C3'       39.3040   13.9080   89.8340 C.3    40  U40         0.1860
    841  O3'       39.2630   12.6500   90.5010 O.3    40  U40        -0.3112
    842  C2'       37.9080   14.3130   89.3130 C.3    40  U40         0.2309
    843  O2'       36.9250   13.3230   89.5610 O.3    40  U40        -0.2156
    844  C1'       37.5870   15.5670   90.1300 C.3    40  U40         0.2420
    845  N1        36.7780   16.6120   89.4820 N.ar   40  U40        -0.2534
    846  C2        35.4840   16.2960   89.1080 C.ar   40  U40         0.3546
    847  O2        35.0110   15.1820   89.2290 O.2    40  U40        -0.2443
    848  N3        34.7640   17.3380   88.5840 N.ar   40  U40        -0.1530
    849  C4        35.1980   18.6340   88.3890 C.ar   40  U40         0.2846
    850  O4        34.4160   19.4770   87.9480 O.2    40  U40        -0.2650
    851  C5        36.5560   18.8710   88.7680 C.ar   40  U40         0.0814
    852  C6        37.2820   17.8760   89.2850 C.ar   40  U40         0.0870
    853  OP1       40.4230   14.7480   93.8910 O.2    40  U40        -0.5172
    854  OP2       42.8760   14.0080   94.0330 O.co2  40  U40        -0.4373
    855  P         40.2290   11.4590   90.0170 P.3    41  A41         0.2141
    856  C5'       38.1160   11.0950   88.4990 C.3    41  A41         0.1812
    857  O5'       39.5190   10.9210   88.6960 O.3    41  A41        -0.3114
    858  C4'       37.3620    9.9260   89.0760 C.3    41  A41         0.1773
    859  O4'       36.5060   10.3810   90.1600 O.3    41  A41        -0.3307
    860  C3'       36.3780    9.2420   88.1430 C.3    41  A41         0.1860
    861  O3'       37.0180    8.3960   87.1890 O.3    41  A41        -0.3112
    862  C2'       35.5350    8.4760   89.1490 C.3    41  A41         0.2309
    863  O2'       36.1980    7.3500   89.6910 O.3    41  A41        -0.2156
    864  C1'       35.3500    9.5510   90.2220 C.3    41  A41         0.2408
    865  N1        30.2140    9.7240   90.1270 N.ar   41  A41        -0.2040
    866  C2        31.0760    8.7870   90.5430 C.ar   41  A41         0.2016
    867  N3        32.4090    8.8150   90.5600 N.ar   41  A41        -0.2048
    868  C4        32.8660    9.9860   90.0770 C.ar   41  A41         0.1692
    869  C5        32.1060   11.0470   89.6180 C.ar   41  A41         0.1518
    870  C6        30.7060   10.8890   89.6470 C.ar   41  A41         0.1919
    871  N6        29.8470   11.8190   89.2240 N.pl3  41  A41        -0.1054
    872  N7        32.9220   12.0920   89.2020 N.ar   41  A41        -0.2193
    873  C8        34.1380   11.6440   89.4070 C.ar   41  A41         0.1816
    874  N9        34.1780   10.3700   89.9210 N.ar   41  A41        -0.2693
    875  OP1       40.1560   10.3870   91.0470 O.3    41  A41        -0.4373
    876  OP2       41.5530   12.0330   89.6430 O.co2  41  A41        -0.5172
    877  P         36.8210    8.6780   85.6120 P.3    42  G42         0.2141
    878  C5'       34.4140    7.6770   85.2950 C.3    42  G42         0.1812
    879  O5'       35.2410    8.8280   85.4270 O.3    42  G42        -0.3114
    880  C4'       32.9640    8.0280   85.5340 C.3    42  G42         0.1773
    881  O4'       32.8540    9.1140   86.4830 O.3    42  G42        -0.3307
    882  C3'       32.2070    8.5410   84.3270 C.3    42  G42         0.1860
    883  O3'       31.7570    7.4610   83.5380 O.3    42  G42        -0.3112
    884  C2'       31.0290    9.2390   84.9830 C.3    42  G42         0.2309
    885  O2'       30.0490    8.3420   85.4380 O.3    42  G42        -0.2156
    886  C1'       31.7100    9.8950   86.1760 C.3    42  G42         0.2408
    887  N1        30.2550   14.5180   84.7200 N.ar   42  G42        -0.1709
    888  C2        29.5000   13.3890   84.9320 C.ar   42  G42         0.2606
    889  N2        28.1810   13.5130   84.7390 N.pl3  42  G42        -0.0859
    890  N3        30.0010   12.2250   85.3040 N.ar   42  G42        -0.1918
    891  C4        31.3410   12.2760   85.4410 C.ar   42  G42         0.1723
    892  C5        32.1880   13.3480   85.2480 C.ar   42  G42         0.1748
    893  C6        31.6380   14.5950   84.8660 C.ar   42  G42         0.3023
    894  O6        32.2240   15.6710   84.6760 O.2    42  G42        -0.2633
    895  N7        33.5040   12.9840   85.4920 N.ar   42  G42        -0.2173
    896  C8        33.4330   11.7260   85.8330 C.ar   42  G42         0.1817
    897  N9        32.1480   11.2390   85.8300 N.ar   42  G42        -0.2693
    898  OP1       37.2730    7.4620   84.8870 O.2    42  G42        -0.5172
    899  OP2       37.4400    9.9910   85.2940 O.co2  42  G42        -0.4373
    900  P         31.6750    7.6280   81.9510 P.3    43  C43         0.2141
    901  C5'       29.2120    8.1790   82.6320 C.3    43  C43         0.1812
    902  O5'       30.2800    8.3620   81.7190 O.3    43  C43        -0.3114
    903  C4'       28.0340    9.0280   82.2370 C.3    43  C43         0.1773
    904  O4'       28.1200   10.3110   82.9010 O.3    43  C43        -0.3307
    905  C3'       27.9390    9.3820   80.7700 C.3    43  C43         0.1860
    906  O3'       27.2900    8.3530   80.0520 O.3    43  C43        -0.3112
    907  C2'       27.0710   10.6260   80.8110 C.3    43  C43         0.2309
    908  O2'       25.7130   10.3180   81.0320 O.3    43  C43        -0.2156
    909  C1'       27.6320   11.3250   82.0430 C.3    43  C43         0.2420
    910  N1        28.7410   12.2330   81.7520 N.ar   43  C43        -0.2535
    911  C2        28.4580   13.5430   81.3980 C.ar   43  C43         0.3532
    912  O2        27.2810   13.8790   81.2640 O.2    43  C43        -0.2443
    913  N3        29.4730   14.4110   81.2030 N.ar   43  C43        -0.1739
    914  C4        30.7360   13.9980   81.3380 C.ar   43  C43         0.1759
    915  N4        31.7140   14.8980   81.1760 N.pl3  43  C43        -0.1070
    916  C5        31.0540   12.6480   81.6550 C.ar   43  C43         0.0566
    917  C6        30.0340   11.8070   81.8510 C.ar   43  C43         0.0850
    918  OP1       31.6020    6.2730   81.3510 O.2    43  C43        -0.5172
    919  OP2       32.7800    8.5430   81.5680 O.co2  43  C43        -0.4373
    920  P         27.6510    8.1300   78.5090 P.3    44  U44         0.2141
    921  C5'       25.6410    9.6520   77.7690 C.3    44  U44         0.1812
    922  O5'       27.0490    9.4220   77.7890 O.3    44  U44        -0.3114
    923  C4'       25.3240   11.0230   77.2070 C.3    44  U44         0.1773
    924  O4'       25.7330   12.0630   78.1330 O.3    44  U44        -0.3307
    925  C3'       26.0130   11.4250   75.9180 C.3    44  U44         0.1860
    926  O3'       25.3830   10.8270   74.7930 O.3    44  U44        -0.3112
    927  C2'       25.8050   12.9340   75.9330 C.3    44  U44         0.2309
    928  O2'       24.4910   13.3060   75.5810 O.3    44  U44        -0.2156
    929  C1'       26.0460   13.2480   77.4100 C.3    44  U44         0.2420
    930  N1        27.4440   13.6120   77.6900 N.ar   44  U44        -0.2534
    931  C2        27.8260   14.9360   77.5050 C.ar   44  U44         0.3546
    932  O2        27.0600   15.8030   77.1390 O.2    44  U44        -0.2443
    933  N3        29.1440   15.2040   77.7630 N.ar   44  U44        -0.1530
    934  C4        30.1050   14.3110   78.1700 C.ar   44  U44         0.2846
    935  O4        31.2700   14.6940   78.2870 O.2    44  U44        -0.2650
    936  C5        29.6370   12.9700   78.3510 C.ar   44  U44         0.0814
    937  C6        28.3540   12.6740   78.1130 C.ar   44  U44         0.0870
    938  OP1       26.9020    6.9400   78.0510 O.2    44  U44        -0.5172
    939  OP2       29.1350    8.1460   78.4110 O.co2  44  U44        -0.4373
    940  P         25.9160   11.1550   73.3080 P.3    45  A45         0.2141
    941  C5'       26.0590   13.5030   72.1430 C.3    45  A45         0.1812
    942  O5'       25.3780   12.6310   73.0360 O.3    45  A45        -0.3114
    943  C4'       25.5760   14.9180   72.3370 C.3    45  A45         0.1773
    944  O4'       26.0350   15.3920   73.6280 O.3    45  A45        -0.3307
    945  C3'       26.1350   15.9460   71.3680 C.3    45  A45         0.1860
    946  O3'       25.4060   15.9870   70.1500 O.3    45  A45        -0.3112
    947  C2'       25.9400   17.2430   72.1390 C.3    45  A45         0.2309
    948  O2'       24.6310   17.7550   72.0310 O.3    45  A45        -0.2156
    949  C1'       26.2370   16.7970   73.5730 C.3    45  A45         0.2408
    950  N1        29.6410   20.5290   74.4220 N.ar   45  A45        -0.2040
    951  C2        28.3330   20.5410   74.1260 C.ar   45  A45         0.2016
    952  N3        27.4990   19.5180   73.9390 N.ar   45  A45        -0.2048
    953  C4        28.1450   18.3500   74.0890 C.ar   45  A45         0.1692
    954  C5        29.4770   18.1720   74.3990 C.ar   45  A45         0.1518
    955  C6        30.2560   19.3370   74.5710 C.ar   45  A45         0.1919
    956  N6        31.5570   19.3300   74.8740 N.pl3  45  A45        -0.1054
    957  N7        29.7830   16.8210   74.4810 N.ar   45  A45        -0.2193
    958  C8        28.6490   16.2250   74.2130 C.ar   45  A45         0.1816
    959  N9        27.6200   17.0920   73.9520 N.ar   45  A45        -0.2693
    960  OP1       25.2190   10.2110   72.3970 O.2    45  A45        -0.5172
    961  OP2       27.4090   11.1940   73.3250 O.co2  45  A45        -0.4373
    962  P         26.0820   16.6460   68.8550 P.3    46  A46         0.2141
    963  C5'       25.0610   18.9800   69.4840 C.3    46  A46         0.1812
    964  O5'       26.2120   18.1850   69.2360 O.3    46  A46        -0.3114
    965  C4'       25.4490   20.4380   69.6090 C.3    46  A46         0.1773
    966  O4'       26.1170   20.6730   70.8810 O.3    46  A46        -0.3307
    967  C3'       26.4620   20.9440   68.5990 C.3    46  A46         0.1860
    968  O3'       25.8630   21.2220   67.3460 O.3    46  A46        -0.3112
    969  C2'       26.9740   22.2010   69.2840 C.3    46  A46         0.2309
    970  O2'       26.1000   23.3090   69.1720 O.3    46  A46        -0.2156
    971  C1'       27.0700   21.7190   70.7320 C.3    46  A46         0.2408
    972  N1        31.9910   22.7580   71.7410 N.ar   46  A46        -0.2040
    973  C2        30.9290   23.5450   71.5440 C.ar   46  A46         0.2016
    974  N3        29.6670   23.2110   71.2910 N.ar   46  A46        -0.2048
    975  C4        29.5350   21.8760   71.2460 C.ar   46  A46         0.1692
    976  C5        30.5320   20.9380   71.4310 C.ar   46  A46         0.1518
    977  C6        31.8210   21.4220   71.6900 C.ar   46  A46         0.1919
    978  N6        32.8820   20.6360   71.8830 N.pl3  46  A46        -0.1054
    979  N7        30.0250   19.6530   71.3060 N.ar   46  A46        -0.2193
    980  C8        28.7530   19.8400   71.0510 C.ar   46  A46         0.1816
    981  N9        28.3900   21.1620   71.0010 N.ar   46  A46        -0.2693
    982  OP1       25.1610   16.5390   67.6990 O.2    46  A46        -0.5172
    983  OP2       27.4490   16.0700   68.7620 O.co2  46  A46        -0.4373
    984  P         26.6290   20.8010   66.0020 P.3    47  A47         0.2141
    985  C5'       27.7030   23.1820   66.1930 C.3    47  A47         0.1812
    986  O5'       27.8770   21.7910   65.9650 O.3    47  A47        -0.3114
    987  C4'       29.0100   23.8060   66.6030 C.3    47  A47         0.1773
    988  O4'       29.4790   23.1930   67.8260 O.3    47  A47        -0.3307
    989  C3'       30.1580   23.5970   65.6390 C.3    47  A47         0.1860
    990  O3'       30.0840   24.5660   64.6030 O.3    47  A47        -0.3112
    991  C2'       31.3590   23.8400   66.5410 C.3    47  A47         0.2309
    992  O2'       31.5840   25.2130   66.7570 O.3    47  A47        -0.2156
    993  C1'       30.8940   23.1880   67.8430 C.3    47  A47         0.2408
    994  N1        34.6950   20.0150   69.2960 N.ar   47  A47        -0.2040
    995  C2        34.6000   21.3520   69.2760 C.ar   47  A47         0.2016
    996  N3        33.5820   22.1240   68.8800 N.ar   47  A47        -0.2048
    997  C4        32.5520   21.3690   68.4640 C.ar   47  A47         0.1692
    998  C5        32.5000   19.9870   68.4280 C.ar   47  A47         0.1518
    999  C6        33.6420   19.2900   68.8670 C.ar   47  A47         0.1919
   1000  N6        33.7380   17.9610   68.8770 N.pl3  47  A47        -0.1054
   1001  N7        31.2710   19.5550   67.9490 N.ar   47  A47        -0.2193
   1002  C8        30.6200   20.6670   67.7060 C.ar   47  A47         0.1816
   1003  N9        31.3350   21.8030   67.9950 N.ar   47  A47        -0.2693
   1004  OP1       25.7260   21.1230   64.8670 O.2    47  A47        -0.5172
   1005  OP2       27.1360   19.4090   66.1640 O.co2  47  A47        -0.4373
   1006  P         30.4920   24.1630   63.0980 P.3    48  A48         0.2141
   1007  C5'       32.6990   25.4060   62.3740 C.3    48  A48         0.1812
   1008  O5'       32.0770   24.3390   63.0910 O.3    48  A48        -0.3114
   1009  C4'       32.4540   26.7280   63.0660 C.3    48  A48         0.1773
   1010  O4'       32.6360   26.5950   64.5040 O.3    48  A48        -0.3307
   1011  C3'       33.4360   27.8270   62.7040 C.3    48  A48         0.1860
   1012  O3'       33.1420   28.4050   61.4400 O.3    48  A48        -0.3112
   1013  C2'       33.2420   28.7960   63.8580 C.3    48  A48         0.2309
   1014  O2'       32.0750   29.5880   63.7420 O.3    48  A48        -0.2156
   1015  C1'       33.1340   27.8210   65.0330 C.3    48  A48         0.2408
   1016  N1        37.2750   29.9960   67.1220 N.ar   48  A48        -0.2040
   1017  C2        36.0950   30.4910   66.7270 C.ar   48  A48         0.2016
   1018  N3        35.0470   29.8570   66.2080 N.ar   48  A48        -0.2048
   1019  C4        35.2920   28.5400   66.1120 C.ar   48  A48         0.1692
   1020  C5        36.4490   27.8820   66.4840 C.ar   48  A48         0.1518
   1021  C6        37.4920   28.6710   67.0030 C.ar   48  A48         0.1919
   1022  N6        38.6760   28.1910   67.3690 N.pl3  48  A48        -0.1054
   1023  N7        36.3330   26.5200   66.2530 N.ar   48  A48        -0.2193
   1024  C8        35.1310   26.3880   65.7420 C.ar   48  A48         0.1816
   1025  N9        34.4540   27.5750   65.6110 N.ar   48  A48        -0.2693
   1026  OP1       29.8990   25.2030   62.2130 O.2    48  A48        -0.5172
   1027  OP2       30.1780   22.7250   62.8600 O.co2  48  A48        -0.4373
   1028  P         34.2100   28.2750   60.2450 P.3    49  A49         0.2141
   1029  C5'       35.7500   30.0270   61.4470 C.3    49  A49         0.1812
   1030  O5'       35.5880   28.7150   60.9190 O.3    49  A49        -0.3114
   1031  C4'       37.0780   30.1540   62.1540 C.3    49  A49         0.1773
   1032  O4'       37.0820   29.3280   63.3500 O.3    49  A49        -0.3307
   1033  C3'       38.3050   29.6660   61.4030 C.3    49  A49         0.1860
   1034  O3'       38.7510   30.6110   60.4430 O.3    49  A49        -0.3112
   1035  C2'       39.3020   29.5130   62.5440 C.3    49  A49         0.2309
   1036  O2'       39.8170   30.7430   63.0220 O.3    49  A49        -0.2156
   1037  C1'       38.4100   28.8800   63.6110 C.3    49  A49         0.2408
   1038  N1        41.0300   24.5710   64.6650 N.ar   49  A49        -0.2040
   1039  C2        41.3100   25.8640   64.8580 C.ar   49  A49         0.2016
   1040  N3        40.5870   26.9420   64.5550 N.ar   49  A49        -0.2048
   1041  C4        39.4260   26.5890   63.9760 C.ar   49  A49         0.1692
   1042  C5        38.9960   25.3050   63.7060 C.ar   49  A49         0.1518
   1043  C6        39.8560   24.2490   64.0800 C.ar   49  A49         0.1919
   1044  N6        39.5710   22.9570   63.8880 N.pl3  49  A49        -0.1054
   1045  N7        37.7490   25.3260   63.0960 N.ar   49  A49        -0.2193
   1046  C8        37.4560   26.6000   63.0170 C.ar   49  A49         0.1816
   1047  N9        38.4240   27.4200   63.5340 N.ar   49  A49        -0.2693
   1048  OP1       33.8530   29.2830   59.2150 O.2    49  A49        -0.5172
   1049  OP2       34.3070   26.8400   59.8630 O.co2  49  A49        -0.4373
   1050  P         39.4130   30.0950   59.0740 P.3    50  G50         0.2141
   1051  C5'       41.7830   29.5950   60.0730 C.3    50  G50         0.1812
   1052  O5'       40.5560   29.0940   59.5510 O.3    50  G50        -0.3114
   1053  C4'       42.6280   28.4590   60.5940 C.3    50  G50         0.1773
   1054  O4'       41.8340   27.6540   61.5080 O.3    50  G50        -0.3307
   1055  C3'       43.0840   27.4540   59.5510 C.3    50  G50         0.1860
   1056  O3'       44.2360   27.9010   58.8530 O.3    50  G50        -0.3112
   1057  C2'       43.3750   26.2330   60.4100 C.3    50  G50         0.2309
   1058  O2'       44.5960   26.3220   61.1170 O.3    50  G50        -0.2156
   1059  C1'       42.1970   26.2860   61.3800 C.3    50  G50         0.2408
   1060  N1        40.2270   21.7010   60.4980 N.ar   50  G50        -0.1709
   1061  C2        41.4860   22.0420   60.9330 C.ar   50  G50         0.2606
   1062  N2        42.3240   21.0230   61.1740 N.pl3  50  G50        -0.0859
   1063  N3        41.8910   23.2850   61.1150 N.ar   50  G50        -0.1918
   1064  C4        40.9260   24.1750   60.8090 C.ar   50  G50         0.1723
   1065  C5        39.6410   23.9370   60.3570 C.ar   50  G50         0.1748
   1066  C6        39.2160   22.6000   60.1870 C.ar   50  G50         0.3023
   1067  O6        38.1130   22.1830   59.8280 O.2    50  G50        -0.2633
   1068  N7        38.9630   25.1290   60.1460 N.ar   50  G50        -0.2173
   1069  C8        39.8250   26.0540   60.4810 C.ar   50  G50         0.1817
   1070  N9        41.0320   25.5410   60.9040 N.ar   50  G50        -0.2693
   1071  OP1       40.0850   31.2510   58.4270 O.3    50  G50        -0.4373
   1072  OP2       38.3690   29.3390   58.3320 O.co2  50  G50        -0.5172
   1073  P         44.4200   27.5080   57.3050 P.3    51  G51         0.2141
   1074  C5'       45.5800   25.3490   58.2290 C.3    51  G51         0.1812
   1075  O5'       44.6310   25.9270   57.3410 O.3    51  G51        -0.3114
   1076  C4'       45.7300   23.8750   57.9570 C.3    51  G51         0.1773
   1077  O4'       44.7580   23.1300   58.7280 O.3    51  G51        -0.3307
   1078  C3'       45.5010   23.4140   56.5290 C.3    51  G51         0.1860
   1079  O3'       46.6950   23.5710   55.7910 O.3    51  G51        -0.3112
   1080  C2'       45.2150   21.9350   56.7360 C.3    51  G51         0.2309
   1081  O2'       46.3750   21.1620   56.9660 O.3    51  G51        -0.2156
   1082  C1'       44.3630   21.9750   58.0030 C.3    51  G51         0.2408
   1083  N1        40.0040   19.5540   57.0400 N.ar   51  G51        -0.1709
   1084  C2        41.2460   19.0270   57.3170 C.ar   51  G51         0.2606
   1085  N2        41.3230   17.6830   57.3560 N.pl3  51  G51        -0.0859
   1086  N3        42.3250   19.7630   57.5460 N.ar   51  G51        -0.1918
   1087  C4        42.0510   21.0850   57.4860 C.ar   51  G51         0.1723
   1088  C5        40.8460   21.7070   57.2220 C.ar   51  G51         0.1748
   1089  C6        39.7030   20.9140   56.9750 C.ar   51  G51         0.3023
   1090  O6        38.5440   21.2870   56.7290 O.2    51  G51        -0.2633
   1091  N7        40.9870   23.0860   57.2520 N.ar   51  G51        -0.2173
   1092  C8        42.2470   23.2770   57.5300 C.ar   51  G51         0.1817
   1093  N9        42.9470   22.1060   57.6870 N.ar   51  G51        -0.2693
   1094  OP1       45.6730   28.1470   56.8250 O.3    51  G51        -0.4373
   1095  OP2       43.1330   27.7960   56.6160 O.co2  51  G51        -0.5172
   1096  P         46.6460   23.6220   54.1910 P.3    52  A52         0.2141
   1097  C5'       46.7690   21.0230   53.8110 C.3    52  A52         0.1813
   1098  O5'       46.0020   22.2250   53.7680 O.3    52  A52        -0.3114
   1099  C4'       46.6070   20.2490   52.5210 C.3    52  A52         0.1801
   1100  O4'       45.1930   20.0790   52.2510 O.3    52  A52        -0.3306
   1101  C3'       47.2160   20.8920   51.2700 C.3    52  A52         0.2161
   1102  O3'       47.9970   19.9490   50.5310 O.3    52  A52        -0.2175
   1103  C2'       46.0010   21.3450   50.4590 C.3    52  A52         0.2337
   1104  O2'       46.2250   21.2910   49.0600 O.3    52  A52        -0.2155
   1105  C1'       44.9540   20.3140   50.8820 C.3    52  A52         0.2409
   1106  N1        40.0760   18.7970   50.3320 N.ar   52  A52        -0.2040
   1107  C2        41.2220   18.1180   50.4970 C.ar   52  A52         0.2016
   1108  N3        42.4620   18.5790   50.6480 N.ar   52  A52        -0.2048
   1109  C4        42.4740   19.9240   50.6150 C.ar   52  A52         0.1692
   1110  C5        41.3830   20.7610   50.4550 C.ar   52  A52         0.1518
   1111  C6        40.1230   20.1480   50.3080 C.ar   52  A52         0.1919
   1112  N6        38.9820   20.8270   50.1480 N.pl3  52  A52        -0.1054
   1113  N7        41.7790   22.0920   50.4680 N.ar   52  A52        -0.2193
   1114  C8        43.0790   22.0330   50.6330 C.ar   52  A52         0.1816
   1115  N9        43.5670   20.7510   50.7220 N.ar   52  A52        -0.2693
   1116  OP1       48.0620   23.6220   53.7520 O.2    52  A52        -0.5172
   1117  OP2       45.7490   24.7370   53.7780 O.co2  52  A52        -0.4373
@<TRIPOS>BOND
     1  1104  1103    1
     2  1112  1111    1
     3  1111  1106   ar
     4  1111  1110   ar
     5  1106  1107   ar
     6  1110  1113   ar
     7  1110  1109   ar
     8  1103  1105    1
     9  1103  1101    1
    10  1113  1114   ar
    11  1107  1108   ar
    12  1102  1101    1
    13  1109  1108   ar
    14  1109  1115   ar
    15  1114  1115   ar
    16  1115  1105    1
    17  1105  1100    1
    18  1101  1099    1
    19  1100  1099    1
    20  1099  1097    1
    21  1116  1096    2
    22  1098  1097    1
    23  1098  1096    1
    24  1117  1096    1
    25   290   291   ar
    26   290   295   ar
    27  1096  1079    1
    28   296   295    1
    29   291   292   ar
    30   295   294   ar
    31   292   293   ar
    32  1079  1078    1
    33   294   293   ar
    34   294   297   ar
    35   306   311    1
    36   306   305    1
    37   293   299   ar
    38   319   318   ar
    39   319   312   ar
    40   311   312    1
    41   311   309    1
    42   318   316   ar
    43   312   313   ar
    44   321   302    2
    45   316   317    1
    46   316   315   ar
    47  1078  1080    1
    48  1078  1076    1
    49   313   315   ar
    50   313   314    2
    51  1095  1073    2
    52  1090  1089    2
    53  1080  1081    1
    54  1080  1082    1
    55  1094  1073    1
    56   297   298   ar
    57  1089  1083   ar
    58  1089  1088   ar
    59  1083  1084   ar
    60   305   303    1
    61   305   307    1
    62  1088  1091   ar
    63  1088  1087   ar
    64  1091  1092   ar
    65   299   298   ar
    66   299   289    1
    67   310   309    1
    68  1073  1075    1
    69  1073  1056    1
    70  1084  1085    1
    71  1084  1086   ar
    72   303   304    1
    73  1075  1074    1
    74   287   288    1
    75   287   289    1
    76   287   285    1
    77  1087  1086   ar
    78  1087  1093   ar
    79  1092  1093   ar
    80   309   307    1
    81   304   302    1
    82  1093  1082    1
    83   302   320    1
    84   302   286    1
    85   289   284    1
    86  1076  1074    1
    87  1076  1077    1
    88  1082  1077    1
    89   307   308    1
    90  1072  1050    2
    91  1071  1050    1
    92   285   286    1
    93   285   283    1
    94  1056  1055    1
    95  1050  1052    1
    96  1050  1034    1
    97  1048  1028    2
    98   284   283    1
    99   308   322    1
   100  1052  1051    1
   101  1055  1057    1
   102  1055  1053    1
   103   338   339   ar
   104   338   336   ar
   105   337   336    1
   106   283   281    1
   107  1067  1066    2
   108  1049  1028    1
   109   339   332   ar
   110   336   335   ar
   111   326   331    1
   112   326   325    1
   113  1051  1053    1
   114  1068  1065   ar
   115  1068  1069   ar
   116  1066  1065   ar
   117  1066  1060   ar
   118   335   333   ar
   119   332   333   ar
   120   332   331    1
   121  1028  1030    1
   122  1028  1012    1
   123  1065  1064   ar
   124  1057  1058    1
   125  1057  1059    1
   126   333   334    2
   127  1034  1033    1
   128   331   329    1
   129  1069  1070   ar
   130  1060  1061   ar
   131  1053  1054    1
   132   300   280    2
   133  1064  1070   ar
   134  1064  1063   ar
   135   322   341    2
   136   322   324    1
   137   322   340    1
   138  1070  1059    1
   139   323   325    1
   140   323   324    1
   141  1030  1029    1
   142  1061  1063   ar
   143  1061  1062    1
   144   282   281    1
   145   282   280    1
   146   301   280    1
   147   325   327    1
   148   280   264    1
   149  1059  1054    1
   150  1033  1031    1
   151  1033  1035    1
   152  1012  1011    1
   153  1029  1031    1
   154   329   330    1
   155   329   327    1
   156   266   265    1
   157  1031  1032    1
   158  1026  1006    2
   159   327   328    1
   160  1007  1009    1
   161  1007  1008    1
   162   359   358    2
   163  1035  1036    1
   164  1035  1037    1
   165   352   358   ar
   166   352   353   ar
   167   354   353    1
   168  1011  1009    1
   169  1011  1013    1
   170   358   357   ar
   171   353   355   ar
   172  1027  1006    1
   173   264   263    1
   174   265   263    1
   175   265   267    1
   176  1046  1045   ar
   177  1046  1047   ar
   178  1009  1010    1
   179  1008  1006    1
   180  1045  1042   ar
   181  1006   990    1
   182   357   356   ar
   183   357   360   ar
   184   355   356   ar
   185  1032  1037    1
   186   356   362   ar
   187   328   342    1
   188   360   361   ar
   189  1047  1037    1
   190  1047  1041   ar
   191   263   261    1
   192  1042  1041   ar
   193  1042  1043   ar
   194  1014  1013    1
   195  1013  1015    1
   196  1044  1043    1
   197   362   361   ar
   198   362   351    1
   199   346   351    1
   200   346   345    1
   201  1041  1040   ar
   202  1043  1038   ar
   203   267   277    1
   204   267   262    1
   205   351   349    1
   206   270   269   ar
   207   270   271   ar
   208  1010  1015    1
   209  1040  1039   ar
   210   990   989    1
   211   277   271   ar
   212   277   276   ar
   213  1038  1039   ar
   214   364   342    2
   215   269   268   ar
   216   271   272   ar
   217  1004   984    2
   218   342   344    1
   219   342   363    1
   220   343   344    1
   221   343   345    1
   222  1015  1025    1
   223   261   262    1
   224   261   259    1
   225   276   275   ar
   226   345   347    1
   227   268   273   ar
   228   272   275   ar
   229   272   273   ar
   230   273   274    1
   231  1025  1024   ar
   232  1025  1019   ar
   233   989   991    1
   234   989   987    1
   235  1024  1023   ar
   236   349   350    1
   237   349   347    1
   238   260   259    1
   239   260   258    1
   240   986   984    1
   241   986   985    1
   242   984  1005    1
   243   984   968    1
   244  1019  1018   ar
   245  1019  1020   ar
   246   985   987    1
   247  1018  1017   ar
   248  1023  1020   ar
   249   347   348    1
   250   380   379    2
   251  1020  1021   ar
   252   991   992    1
   253   991   993    1
   254   987   988    1
   255   278   258    2
   256  1017  1016   ar
   257   379   378   ar
   258   379   381   ar
   259   378   376   ar
   260  1021  1016   ar
   261  1021  1022    1
   262   258   279    1
   263   258   244    1
   264   376   377    2
   265   376   375   ar
   266   968   967    1
   267   381   382   ar
   268   348   365    1
   269   982   962    2
   270  1002  1001   ar
   271  1002  1003   ar
   272   375   382   ar
   273   375   374    1
   274   988   993    1
   275   993  1003    1
   276  1001   998   ar
   277  1003   997   ar
   278   369   374    1
   279   369   368    1
   280   244   243    1
   281   374   372    1
   282   998   997   ar
   283   998   999   ar
   284   997   996   ar
   285   384   365    2
   286   967   969    1
   287   967   965    1
   288   983   962    1
   289   401   400    1
   290   962   964    1
   291   962   946    1
   292   999  1000    1
   293   999   994   ar
   294   365   367    1
   295   365   383    1
   296   996   995   ar
   297   395   400   ar
   298   395   396   ar
   299   970   969    1
   300   400   399   ar
   301   964   963    1
   302   367   366    1
   303   995   994   ar
   304   243   245    1
   305   243   241    1
   306   969   971    1
   307   368   366    1
   308   368   370    1
   309   396   397   ar
   310   246   245    1
   311   963   965    1
   312   965   966    1
   313   372   373    1
   314   372   370    1
   315   245   247    1
   316   399   402   ar
   317   399   398   ar
   318   397   398   ar
   319   402   403   ar
   320   398   404   ar
   321   946   945    1
   322   370   371    1
   323   241   239    1
   324   241   242    1
   325   256   238    2
   326   403   404   ar
   327   404   394    1
   328   239   240    1
   329   240   238    1
   330   971   966    1
   331   971   981    1
   332   250   249    2
   333   981   980   ar
   334   981   975   ar
   335   980   979   ar
   336   394   389    1
   337   394   392    1
   338   247   248    1
   339   247   242    1
   340   389   388    1
   341   975   974   ar
   342   975   976   ar
   343   238   257    1
   344   238   224    1
   345   249   248   ar
   346   249   251   ar
   347   974   973   ar
   348   979   976   ar
   349   945   947    1
   350   945   943    1
   351   248   255   ar
   352   976   977   ar
   353   251   252   ar
   354   973   972   ar
   355   371   385    1
   356   977   972   ar
   357   977   978    1
   358   255   254   ar
   359   252   254   ar
   360   252   253    2
   361   948   947    1
   362   947   949    1
   363   941   943    1
   364   941   942    1
   365   422   421    2
   366   943   944    1
   367   960   940    2
   368   420   421   ar
   369   420   418   ar
   370   392   393    1
   371   392   390    1
   372   419   418    2
   373   388   386    1
   374   388   390    1
   375   387   385    1
   376   387   386    1
   377   421   423   ar
   378   418   417   ar
   379   224   223    1
   380   385   406    2
   381   385   405    1
   382   942   940    1
   383   423   424   ar
   384   417   424   ar
   385   417   416    1
   386   940   961    1
   387   940   926    1
   388   390   391    1
   389   416   411    1
   390   416   414    1
   391   949   944    1
   392   949   959    1
   393   223   225    1
   394   223   221    1
   395   411   410    1
   396   236   218    2
   397   952   953   ar
   398   952   951   ar
   399   959   953   ar
   400   959   958   ar
   401   953   954   ar
   402   951   950   ar
   403   958   957   ar
   404   237   218    1
   405   954   957   ar
   406   954   955   ar
   407   225   226    1
   408   225   227    1
   409   950   955   ar
   410   955   956    1
   411   391   407    1
   412   415   414    1
   413   218   220    1
   414   218   204    1
   415   219   220    1
   416   219   221    1
   417   926   925    1
   418   414   412    1
   419   221   222    1
   420   442   441    2
   421   440   441   ar
   422   440   438   ar
   423   233   232    2
   424   231   232   ar
   425   231   229   ar
   426   410   408    1
   427   410   412    1
   428   230   229    2
   429   232   234   ar
   430   441   443   ar
   431   439   438    2
   432   229   228   ar
   433   438   437   ar
   434   234   235   ar
   435   228   235   ar
   436   228   227    1
   437   928   927    1
   438   408   409    1
   439   227   222    1
   440   443   444   ar
   441   412   413    1
   442   409   407    1
   443   925   927    1
   444   925   923    1
   445   927   929    1
   446   426   407    2
   447   437   444   ar
   448   437   436    1
   449   407   425    1
   450   204   203    1
   451   431   436    1
   452   431   430    1
   453   436   434    1
   454   413   427    1
   455   932   931    2
   456   923   921    1
   457   923   924    1
   458   203   205    1
   459   203   201    1
   460   929   930    1
   461   929   924    1
   462   931   930   ar
   463   931   933   ar
   464   930   937   ar
   465   205   206    1
   466   205   207    1
   467   430   428    1
   468   430   432    1
   469   933   934   ar
   470   921   922    1
   471   922   920    1
   472   434   435    1
   473   434   432    1
   474   428   429    1
   475   216   198    2
   476   938   920    2
   477   937   936   ar
   478   934   935    2
   479   934   936   ar
   480   200   199    1
   481   200   198    1
   482   446   427    2
   483   939   920    1
   484   427   429    1
   485   427   445    1
   486   920   906    1
   487   201   199    1
   488   201   202    1
   489   217   198    1
   490   213   212    2
   491   432   433    1
   492   198   182    1
   493   212   211   ar
   494   212   214   ar
   495   211   209   ar
   496   209   210    2
   497   209   208   ar
   498   214   215   ar
   499   208   215   ar
   500   208   207    1
   501   207   202    1
   502   433   447    1
   503   906   905    1
   504   451   456    1
   505   451   450    1
   506   182   181    1
   507   456   467    1
   508   456   454    1
   509   459   458    1
   510   460   458   ar
   511   460   461   ar
   512   905   907    1
   513   905   903    1
   514   907   908    1
   515   907   909    1
   516   458   457   ar
   517   467   461   ar
   518   467   466   ar
   519   461   462   ar
   520   449   447    1
   521   449   448    1
   522   466   465   ar
   523   469   447    2
   524   457   463   ar
   525   450   448    1
   526   450   452    1
   527   915   914    1
   528   447   468    1
   529   913   914   ar
   530   913   911   ar
   531   181   183    1
   532   181   179    1
   533   462   465   ar
   534   462   463   ar
   535   912   911    2
   536   914   916   ar
   537   918   900    2
   538   463   464    2
   539   911   910   ar
   540   455   454    1
   541   919   900    1
   542   916   917   ar
   543   902   900    1
   544   902   901    1
   545   910   917   ar
   546   910   909    1
   547   183   184    1
   548   183   185    1
   549   454   452    1
   550   192   191    1
   551   900   883    1
   552   909   904    1
   553   186   191   ar
   554   186   187   ar
   555   191   190   ar
   556   903   901    1
   557   903   904    1
   558   187   188   ar
   559   177   179    1
   560   177   178    1
   561   190   193   ar
   562   190   189   ar
   563   452   453    1
   564   179   180    1
   565   193   194   ar
   566   188   189   ar
   567   189   195   ar
   568   194   195   ar
   569   195   185    1
   570   197   176    2
   571   185   180    1
   572   453   470    1
   573   474   479    1
   574   474   473    1
   575   178   176    1
   576   883   882    1
   577   196   176    1
   578   176   159    1
   579   479   480    1
   580   479   477    1
   581   471   473    1
   582   471   472    1
   583   480   481   ar
   584   480   487   ar
   585   482   481    2
   586   882   884    1
   587   882   880    1
   588   481   483   ar
   589   487   486   ar
   590   473   475    1
   591   483   484   ar
   592   486   484   ar
   593   484   485    1
   594   894   893    2
   595   887   893   ar
   596   887   888   ar
   597   889   888    1
   598   170   169    2
   599   893   892   ar
   600   898   877    2
   601   472   470    1
   602   470   489    2
   603   470   488    1
   604   888   890   ar
   605   884   885    1
   606   884   886    1
   607   169   163   ar
   608   169   168   ar
   609   163   164   ar
   610   892   891   ar
   611   892   895   ar
   612   899   877    1
   613   878   879    1
   614   878   880    1
   615   890   891   ar
   616   478   477    1
   617   160   161    1
   618   160   158    1
   619   160   162    1
   620   171   168   ar
   621   171   172   ar
   622   168   167   ar
   623   159   158    1
   624   879   877    1
   625   891   897   ar
   626   477   475    1
   627   895   896   ar
   628   880   881    1
   629   164   165    1
   630   164   166   ar
   631   877   861    1
   632   172   173   ar
   633   158   156    1
   634   167   166   ar
   635   167   173   ar
   636   475   476    1
   637   897   896   ar
   638   897   886    1
   639   173   162    1
   640   886   881    1
   641   162   157    1
   642   476   490    1
   643   861   860    1
   644   156   157    1
   645   156   154    1
   646   175   153    2
   647   155   153    1
   648   155   154    1
   649   508   507   ar
   650   508   509   ar
   651   494   499    1
   652   494   493    1
   653   507   504   ar
   654   499   509    1
   655   499   497    1
   656   174   153    1
   657   509   503   ar
   658   504   503   ar
   659   504   505   ar
   660   506   505    1
   661   503   502   ar
   662   505   500   ar
   663   850   849    2
   664   153   139    1
   665   502   501   ar
   666   492   490    1
   667   492   491    1
   668   860   858    1
   669   860   862    1
   670   500   501   ar
   671   490   511    2
   672   490   510    1
   673   849   848   ar
   674   849   851   ar
   675   856   857    1
   676   856   858    1
   677   848   846   ar
   678   498   497    1
   679   857   855    1
   680   851   852   ar
   681   493   491    1
   682   493   495    1
   683   497   495    1
   684   858   859    1
   685   846   847    2
   686   846   845   ar
   687   862   863    1
   688   862   864    1
   689   872   873   ar
   690   872   869   ar
   691   871   870    1
   692   852   845   ar
   693   842   843    1
   694   842   840    1
   695   842   844    1
   696   873   874   ar
   697   845   844    1
   698   139   138    1
   699   869   870   ar
   700   869   868   ar
   701   876   855    2
   702   870   865   ar
   703   495   496    1
   704   152   133    2
   705   840   841    1
   706   840   838    1
   707   151   133    1
   708   874   868   ar
   709   874   864    1
   710   855   841    1
   711   855   875    1
   712   868   867   ar
   713   865   866   ar
   714   844   839    1
   715   859   864    1
   716   138   140    1
   717   138   136    1
   718   148   147    1
   719   133   135    1
   720   133   116    1
   721   149   147   ar
   722   149   150   ar
   723   135   134    1
   724   131   110    2
   725   132   110    1
   726   839   838    1
   727   866   867   ar
   728   147   146   ar
   729   140   141    1
   730   140   142    1
   731   496   512    1
   732   838   836    1
   733   150   143   ar
   734   836   837    1
   735   530   531   ar
   736   530   527   ar
   737   529   528    2
   738   531   532   ar
   739   110   112    1
   740   110    93    1
   741   527   528   ar
   742   527   526   ar
   743   528   522   ar
   744   146   144   ar
   745   134   136    1
   746   516   521    1
   747   516   515    1
   748   532   526   ar
   749   532   521    1
   750   143   144   ar
   751   143   142    1
   752   526   525   ar
   753   136   137    1
   754   522   523   ar
   755   521   519    1
   756   108    87    2
   757   144   145    2
   758   525   523   ar
   759   523   524    1
   760   837   835    1
   761   109    87    1
   762   142   137    1
   763    88    89    1
   764    88    90    1
   765   116   115    1
   766   112   111    1
   767   534   512    2
   768    89    87    1
   769   512   514    1
   770   512   533    1
   771    87    73    1
   772    93    92    1
   773    85    67    2
   774   515   513    1
   775   515   517    1
   776   513   514    1
   777   115   113    1
   778   115   117    1
   779   520   519    1
   780    92    90    1
   781    92    94    1
   782    86    67    1
   783   519   517    1
   784   111   113    1
   785    65    44    2
   786    90    91    1
   787   835   818    1
   788   835   853    2
   789   835   854    1
   790    67    69    1
   791    67    50    1
   792   128   129   ar
   793   128   125   ar
   794   818   817    1
   795   127   126    2
   796   820   819    1
   797   550   549    2
   798   113   114    1
   799   517   518    1
   800   129   130   ar
   801   117   118    1
   802   117   119    1
   803    73    72    1
   804   125   126   ar
   805   125   124   ar
   806   126   120   ar
   807   705   684    2
   808   106   105   ar
   809   106   107   ar
   810   549   548   ar
   811   549   551   ar
   812   105   102   ar
   813    69    68    1
   814    91    96    1
   815   130   124   ar
   816   130   119    1
   817   548   546   ar
   818   124   123   ar
   819   120   121   ar
   820    94    96    1
   821    94    95    1
   822    44    66    1
   823    44    46    1
   824    44    30    1
   825    50    49    1
   826   551   552   ar
   827   819   817    1
   828   819   821    1
   829    68    70    1
   830   119   114    1
   831    72    70    1
   832    72    74    1
   833   518   535    1
   834   817   815    1
   835   546   547    2
   836   546   545   ar
   837   107    96    1
   838   107   101   ar
   839   121   123   ar
   840   121   122    1
   841    42    24    2
   842   102   101   ar
   843   102   103   ar
   844   552   545   ar
   845    46    45    1
   846   725   706    2
   847   104   103    2
   848   545   544    1
   849   824   823    1
   850    45    47    1
   851   539   544    1
   852   539   538    1
   853    30    29    1
   854   101   100   ar
   855   103    97   ar
   856    70    71    1
   857   684   667    1
   858   684   704    1
   859   684   686    1
   860    49    47    1
   861    49    51    1
   862   544   542    1
   863   815   816    1
   864   815   813    1
   865   667   666    1
   866   825   823   ar
   867   825   826   ar
   868   821   816    1
   869   821   832    1
   870    74    75    1
   871    74    76    1
   872    47    48    1
   873   823   822   ar
   874   100    98   ar
   875    97    98   ar
   876   554   535    2
   877   535   537    1
   878   535   553    1
   879   669   668    1
   880   536   538    1
   881   536   537    1
   882   692   691    1
   883    83    84   ar
   884    83    81   ar
   885    84    77   ar
   886    24    43    1
   887    24    26    1
   888    24     7    1
   889   686   685    1
   890   538   540    1
   891    98    99    1
   892   706   690    1
   893   706   708    1
   894   706   724    1
   895   691   689    1
   896   691   693    1
   897    71    76    1
   898   689   690    1
   899   689   687    1
   900   813   814    1
   901   707   708    1
   902   707   709    1
   903    29    27    1
   904    29    31    1
   905    25    26    1
   906    25    27    1
   907    51    52    1
   908    51    53    1
   909   570   569    1
   910   826   832   ar
   911   826   827   ar
   912   832   831   ar
   913    77    76    1
   914    77    78   ar
   915   668   666    1
   916   668   670    1
   917    81    82    1
   918    81    80   ar
   919   666   664    1
   920   804   803    2
   921   822   828   ar
   922    27    28    1
   923   542   543    1
   924   542   540    1
   925   702   701   ar
   926   702   703   ar
   927     7     6    1
   928   685   687    1
   929   569   568   ar
   930   569   571   ar
   931   568   566   ar
   932    48    53    1
   933    78    80   ar
   934    78    79    2
   935    32    31    1
   936   764   763    1
   937   540   541    1
   938   701   698   ar
   939   710   709    1
   940   710   715    1
   941   805   803   ar
   942   805   806   ar
   943   709   711    1
   944   571   572   ar
   945   747   726    2
   946   742   741    1
   947   687   688    1
   948    31    33    1
   949   814   812    1
   950   780   781   ar
   951   780   785   ar
   952   566   567    2
   953   566   565   ar
   954    53    64    1
   955   803   802   ar
   956   827   828   ar
   957   827   830   ar
   958   786   785    1
   959    63    64   ar
   960    63    62   ar
   961   831   830   ar
   962   693   703    1
   963   693   688    1
   964   828   829    2
   965   572   565   ar
   966   703   697   ar
   967   664   665    1
   968   664   662    1
   969   807   806    2
   970    64    58   ar
   971   565   564    1
   972   781   782   ar
   973    62    59   ar
   974   670   665    1
   975   670   681    1
   976   743   740   ar
   977   743   744   ar
   978   785   784   ar
   979   806   808   ar
   980   758   763   ar
   981   758   759   ar
   982     6     4    1
   983     6     8    1
   984    28    33    1
   985   763   762   ar
   986   800   799    1
   987     2     3    1
   988     2     4    1
   989   680   681   ar
   990   680   679   ar
   991     9     8    1
   992   799   801    1
   993   799   797    1
   994   541   555    1
   995   723   722   ar
   996   723   716   ar
   997   564   559    1
   998   564   562    1
   999     3     1    1
  1000    22     1    1
  1001   741   740   ar
  1002   741   736   ar
  1003     4     5    1
  1004   698   697   ar
  1005   698   699   ar
  1006   715   716    1
  1007   715   713    1
  1008   559   558    1
  1009    33    34    1
  1010   726   746    1
  1011   726   712    1
  1012   726   728    1
  1013    58    59   ar
  1014    58    57   ar
  1015   662   663    1
  1016   681   675   ar
  1017   722   720   ar
  1018   592   591    2
  1019    59    60   ar
  1020   833   812    2
  1021   711   712    1
  1022   711   713    1
  1023   812   798    1
  1024   812   834    1
  1025   585   591   ar
  1026   585   586   ar
  1027   802   801    1
  1028   802   809   ar
  1029   587   586    1
  1030   716   717   ar
  1031   740   739   ar
  1032   697   696   ar
  1033   744   745   ar
  1034     8    10    1
  1035   591   590   ar
  1036   679   676   ar
  1037    41    34   ar
  1038    41    40   ar
  1039   801   796    1
  1040    57    55   ar
  1041   782   783   ar
  1042   586   588   ar
  1043   798   797    1
  1044   759   760   ar
  1045    34    35   ar
  1046   720   721    2
  1047   720   719   ar
  1048   797   795    1
  1049   700   699    1
  1050    60    61    2
  1051    60    54   ar
  1052   808   809   ar
  1053   717   719   ar
  1054   717   718    2
  1055     1    23    1
  1056   784   783   ar
  1057   784   787   ar
  1058   762   765   ar
  1059   762   761   ar
  1060   713   714    1
  1061   736   737   ar
  1062   699   694   ar
  1063   557   555    1
  1064   557   556    1
  1065   728   727    1
  1066   675   676   ar
  1067   675   674   ar
  1068   555   574    2
  1069   555   573    1
  1070    40    38   ar
  1071   663   661    1
  1072    55    54   ar
  1073    55    56    1
  1074   562   563    1
  1075   562   560    1
  1076   783   789   ar
  1077   590   589   ar
  1078   590   593   ar
  1079   558   556    1
  1080   558   560    1
  1081   765   766   ar
  1082     5    10    1
  1083   588   589   ar
  1084   676   677   ar
  1085    35    36    2
  1086    35    37   ar
  1087   696   695   ar
  1088   739   745   ar
  1089   739   738   ar
  1090   745   735    1
  1091    10    21    1
  1092   589   595   ar
  1093   674   672   ar
  1094   593   594   ar
  1095   787   788   ar
  1096   760   761   ar
  1097   796   795    1
  1098   761   767   ar
  1099    38    37   ar
  1100    38    39    1
  1101   683   661    2
  1102   560   561    1
  1103   795   793    1
  1104   737   738   ar
  1105   694   695   ar
  1106   610   609    2
  1107   730   735    1
  1108   730   729    1
  1109   727   729    1
  1110   595   594   ar
  1111   595   584    1
  1112   661   647    1
  1113   661   682    1
  1114   677   678    2
  1115   677   671   ar
  1116   766   767   ar
  1117   789   788   ar
  1118   789   779    1
  1119   630   629    1
  1120    21    15   ar
  1121    21    20   ar
  1122   672   671   ar
  1123   672   673    1
  1124   735   733    1
  1125    14    15   ar
  1126    14    12   ar
  1127   611   609   ar
  1128   611   612   ar
  1129   609   608   ar
  1130   647   646    1
  1131   767   757    1
  1132   584   579    1
  1133   584   582    1
  1134   793   794    1
  1135    15    16   ar
  1136    20    19   ar
  1137   769   748    2
  1138   729   731    1
  1139    13    12    1
  1140   629   628   ar
  1141   629   631   ar
  1142   561   575    1
  1143   628   634   ar
  1144   613   612    1
  1145    12    11   ar
  1146   779   777    1
  1147   779   774    1
  1148   612   614   ar
  1149   731   733    1
  1150   731   732    1
  1151   777   778    1
  1152   777   775    1
  1153   811   792    2
  1154   579   578    1
  1155   631   632   ar
  1156   733   734    1
  1157   608   607    1
  1158   608   615   ar
  1159    16    19   ar
  1160    16    17   ar
  1161   644   646    1
  1162   644   645    1
  1163   644   642    1
  1164   597   575    2
  1165   607   602    1
  1166   607   605    1
  1167   583   582    1
  1168   634   635    2
  1169   634   633   ar
  1170   582   580    1
  1171   794   792    1
  1172   646   648    1
  1173    11    17   ar
  1174   757   755    1
  1175   757   752    1
  1176   645   650    1
  1177   614   615   ar
  1178   602   601    1
  1179   632   633   ar
  1180   632   638   ar
  1181   642   643    1
  1182    17    18    2
  1183   575   577    1
  1184   575   596    1
  1185   748   732    1
  1186   748   750    1
  1187   748   768    1
  1188   633   636   ar
  1189   653   652    2
  1190   650   648    1
  1191   650   651    1
  1192   774   773    1
  1193   775   776    1
  1194   775   773    1
  1195   792   776    1
  1196   792   810    1
  1197   606   605    1
  1198   755   753    1
  1199   755   756    1
  1200   577   576    1
  1201   649   648    1
  1202   791   770    2
  1203   578   580    1
  1204   578   576    1
  1205   750   749    1
  1206   605   603    1
  1207   622   627    1
  1208   622   621    1
  1209   752   751    1
  1210   638   627    1
  1211   638   637   ar
  1212   627   625    1
  1213   580   581    1
  1214   636   637   ar
  1215   753   751    1
  1216   753   754    1
  1217   660   641    2
  1218   652   651   ar
  1219   652   654   ar
  1220   773   771    1
  1221   651   658   ar
  1222   772   770    1
  1223   772   771    1
  1224   601   603    1
  1225   601   599    1
  1226   643   641    1
  1227   751   749    1
  1228   621   619    1
  1229   621   623    1
  1230   770   754    1
  1231   770   790    1
  1232   603   604    1
  1233   581   598    1
  1234   654   655   ar
  1235   626   625    1
  1236   599   600    1
  1237   641   659    1
  1238   641   624    1
  1239   619   620    1
  1240   625   623    1
  1241   658   657   ar
  1242   620   618    1
  1243   600   598    1
  1244   623   624    1
  1245   604   618    1
  1246   655   657   ar
  1247   655   656    2
  1248   598   617    2
  1249   598   616    1
  1250   618   640    2
  1251   618   639    1
