ligand
  PyMOL2.2          3D                             0

 31 33  0  0  0  0  0  0  0  0999 V2000
   17.9440    7.1750   18.9920 C   0  0  0  0  0  0  0  0  0  0  0  0
   17.5650    0.0270   13.5050 N   0  0  0  0  0  0  0  0  0  0  0  0
   18.6440    8.1130   18.1680 O   0  0  0  0  0  0  0  0  0  0  0  0
   16.9600    6.3620   18.1470 C   0  0  0  0  0  0  0  0  0  0  0  0
   21.8340    2.3930   13.7900 N   0  0  0  0  0  0  0  0  0  0  0  0
   17.6720    5.5930   17.1580 O   0  0  0  0  0  0  0  0  0  0  0  0
   17.2960    4.2110   17.2940 C   0  0  0  0  0  0  0  0  0  0  0  0
   24.2430    2.8940   17.1620 N   0  0  0  0  0  0  0  0  0  0  0  0
   18.3840    3.3300   16.9730 O   0  0  0  0  0  0  0  0  0  0  0  0
   18.5410    3.0940   15.5660 C   0  0  0  0  0  0  0  0  0  0  0  0
   19.5500    7.0630   15.6660 N   0  0  0  0  0  0  0  0  0  0  0  0
   16.5290    1.7570   15.4830 O   0  0  0  0  0  0  0  0  0  0  0  0
   17.9420    1.7150   15.2660 C   0  0  0  0  0  0  0  0  0  0  0  0
   20.5420    4.4950   15.2280 O   0  0  0  0  0  0  0  0  0  0  0  0
   18.2170    1.3080   13.8170 C   0  0  0  0  0  0  0  0  0  0  0  0
   21.9250    4.6030   17.1290 O   0  0  0  0  0  0  0  0  0  0  0  0
   19.7270    1.1930   13.6070 C   0  0  0  0  0  0  0  0  0  0  0  0
   24.3960    6.7650   15.4870 O   0  0  0  0  0  0  0  0  0  0  0  0
   20.3740    2.5590   13.8540 C   0  0  0  0  0  0  0  0  0  0  0  0
   22.0930    8.4750   15.6790 O   0  0  0  0  0  0  0  0  0  0  0  0
   20.0270    3.1520   15.2250 C   0  0  0  0  0  0  0  0  0  0  0  0
   16.1850    2.9370   19.0830 O   0  0  0  0  0  0  0  0  0  0  0  0
   20.7030    5.0750   16.5320 C   0  0  0  0  0  0  0  0  0  0  0  0
   14.8550    5.1740   18.6090 O   0  0  0  0  0  0  0  0  0  0  0  0
   23.1100    4.9270   16.3820 C   0  0  0  0  0  0  0  0  0  0  0  0
   24.3320    4.3620   17.1100 C   0  0  0  0  0  0  0  0  0  0  0  0
   23.2520    6.4470   16.2840 C   0  0  0  0  0  0  0  0  0  0  0  0
   22.0020    7.0470   15.6370 C   0  0  0  0  0  0  0  0  0  0  0  0
   20.7450    6.6000   16.3880 C   0  0  0  0  0  0  0  0  0  0  0  0
   16.9930    4.0780   18.7850 C   0  0  0  0  0  0  0  0  0  0  0  0
   16.2080    5.3630   19.0310 C   0  0  0  0  0  0  0  0  0  0  0  0
  1  4  1  0  0  0  0
  1  3  1  0  0  0  0
  4  6  1  0  0  0  0
  4 31  1  0  0  0  0
  6  7  1  0  0  0  0
  7  9  1  0  0  0  0
  7 30  1  0  0  0  0
  9 10  1  0  0  0  0
 10 13  1  0  0  0  0
 10 21  1  0  0  0  0
 12 13  1  0  0  0  0
 13 15  1  0  0  0  0
 14 23  1  0  0  0  0
  2 15  1  0  0  0  0
 15 17  1  0  0  0  0
 16 25  1  0  0  0  0
 17 19  1  0  0  0  0
  5 19  1  0  0  0  0
 19 21  1  0  0  0  0
 14 21  1  0  0  0  0
 16 23  1  0  0  0  0
 23 29  1  0  0  0  0
 25 26  1  0  0  0  0
 25 27  1  0  0  0  0
  8 26  1  0  0  0  0
 18 27  1  0  0  0  0
 27 28  1  0  0  0  0
 20 28  1  0  0  0  0
 28 29  1  0  0  0  0
 11 29  1  0  0  0  0
 22 30  1  0  0  0  0
 30 31  1  0  0  0  0
 24 31  1  0  0  0  0
M  END
$$$$
