ligand
 OpenBabel11021811473D
libRbt.so/2013.1/901 2013/11/27
 31 33  0  0  0  0  0  0  0  0999 V2000
   17.7963    7.3854   18.9191 C   0  0  0  0  0  0  0  0  0  0  0  0
   17.4440    0.3104   13.8168 N   0  0  0  0  0  0  0  0  0  0  0  0
   18.0612    8.3106   17.8595 O   0  0  0  0  0  0  0  0  0  0  0  0
   16.8746    6.2674   18.4251 C   0  0  1  0  0  0  0  0  0  0  0  0
   21.8659    2.3939   13.9143 N   0  0  0  0  0  0  0  0  0  0  0  0
   17.5346    5.4945   17.4037 O   0  0  0  0  0  0  0  0  0  0  0  0
   17.5119    4.1090   17.7908 C   0  0  1  0  0  0  0  0  0  0  0  0
   24.6006    3.0267   17.4031 N   0  0  0  0  0  0  0  0  0  0  0  0
   18.6860    3.4128   17.3438 O   0  0  0  0  0  0  0  0  0  0  0  0
   18.7405    3.2249   15.9220 C   0  0  2  0  0  0  0  0  0  0  0  0
   19.7406    7.0652   15.8570 N   0  0  0  0  0  0  0  0  0  0  0  0
   16.6453    2.0196   15.9191 O   0  0  0  0  0  0  0  0  0  0  0  0
   18.0366    1.8990   15.6107 C   0  0  1  0  0  0  0  0  0  0  0  0
   20.8030    4.5118   15.5081 O   0  0  0  0  0  0  0  0  0  0  0  0
   18.1951    1.5349   14.1331 C   0  0  1  0  0  0  0  0  0  0  0  0
   22.0917    4.6773   17.4702 O   0  0  0  0  0  0  0  0  0  0  0  0
   19.6788    1.3351   13.8228 C   0  0  0  0  0  0  0  0  0  0  0  0
   24.5946    6.8643   15.9115 O   0  0  0  0  0  0  0  0  0  0  0  0
   20.4264    2.6473   14.0777 C   0  0  1  0  0  0  0  0  0  0  0  0
   22.2516    8.5293   15.9669 O   0  0  0  0  0  0  0  0  0  0  0  0
   20.2033    3.2045   15.4889 C   0  0  2  0  0  0  0  0  0  0  0  0
   17.0844    2.9651   19.9278 O   0  0  0  0  0  0  0  0  0  0  0  0
   20.8903    5.1149   16.8086 C   0  0  1  0  0  0  0  0  0  0  0  0
   15.2206    4.7914   19.4936 O   0  0  0  0  0  0  0  0  0  0  0  0
   23.3042    5.0141   16.7747 C   0  0  2  0  0  0  0  0  0  0  0  0
   24.5012    4.4856   17.5686 C   0  0  0  0  0  0  0  0  0  0  0  0
   23.4205    6.5351   16.6588 C   0  0  2  0  0  0  0  0  0  0  0  0
   22.1910    7.0992   15.9439 C   0  0  1  0  0  0  0  0  0  0  0  0
   20.9089    6.6380   16.6420 C   0  0  1  0  0  0  0  0  0  0  0  0
   17.5423    4.1735   19.3164 C   0  0  2  0  0  0  0  0  0  0  0  0
   16.5523    5.3059   19.5726 C   0  0  1  0  0  0  0  0  0  0  0  0
  1  3  1  0  0  0  0
  4  1  1  1  0  0  0
  4  6  1  0  0  0  0
  4 31  1  0  0  0  0
  6  7  1  0  0  0  0
  7  9  1  6  0  0  0
  7 30  1  0  0  0  0
  8 26  1  0  0  0  0
 10  9  1  1  0  0  0
 10 13  1  0  0  0  0
 10 21  1  0  0  0  0
 13 12  1  6  0  0  0
 13 15  1  0  0  0  0
 15  2  1  1  0  0  0
 15 17  1  0  0  0  0
 16 25  1  0  0  0  0
 16 23  1  0  0  0  0
 17 19  1  0  0  0  0
 19  5  1  1  0  0  0
 19 21  1  0  0  0  0
 21 14  1  6  0  0  0
 23 14  1  6  0  0  0
 23 29  1  0  0  0  0
 25 26  1  1  0  0  0
 25 27  1  0  0  0  0
 27 18  1  6  0  0  0
 27 28  1  0  0  0  0
 28 20  1  1  0  0  0
 28 29  1  0  0  0  0
 29 11  1  6  0  0  0
 30 22  1  1  0  0  0
 30 31  1  0  0  0  0
 31 24  1  6  0  0  0
M  END
>  <CHROM.1>
64.34308677,-70.05086233,-89.17706124,85.67544006,64.18204822,74.92990861
19.76998278,4.55719778,16.71405575,3.00531662,-0.33578758,-2.57152552

>  <Name>
ligand

>  <RI>
0

>  <Rbt.Current_Directory>
/home/itssahil/PROJECTS/Mol_Feturizer/New_Systems/rnas/3DVV

>  <Rbt.Executable>
rbdock ($Id: //depot/dev/client3/rdock/2013.1/src/exe/rbdock.cxx#4 $)

>  <Rbt.Library>
libRbt.so (2013.1, Build901 2013/11/27)

>  <Rbt.Parameter_File>
/export/apps/rDock/src/rDock_2013.1_src/data/scripts/dock_solv.prm

>  <Rbt.Receptor>
prm/pocket_docking_2.prm

>  <SCORE>
-8.97715

>  <SCORE.INTER>
-7.614

>  <SCORE.INTER.CONST>
1

>  <SCORE.INTER.POLAR>
0

>  <SCORE.INTER.ROT>
6

>  <SCORE.INTER.SOLV>
23.9297

>  <SCORE.INTER.VDW>
-20.6526

>  <SCORE.INTER.norm>
-0.245613

>  <SCORE.INTRA>
-1.36314

>  <SCORE.INTRA.DIHEDRAL>
-2.92093

>  <SCORE.INTRA.DIHEDRAL.0>
10.8172

>  <SCORE.INTRA.POLAR>
0

>  <SCORE.INTRA.POLAR.0>
0

>  <SCORE.INTRA.REPUL>
0

>  <SCORE.INTRA.REPUL.0>
0

>  <SCORE.INTRA.SOLV>
-1.30725

>  <SCORE.INTRA.SOLV.lig_0>
-80.3833

>  <SCORE.INTRA.VDW>
0.750948

>  <SCORE.INTRA.VDW.0>
-4.63762

>  <SCORE.INTRA.norm>
-0.0439723

>  <SCORE.RESTR>
0

>  <SCORE.RESTR.CAVITY>
0

>  <SCORE.RESTR.norm>
0

>  <SCORE.SYSTEM>
0

>  <SCORE.SYSTEM.CONST>
0

>  <SCORE.SYSTEM.DIHEDRAL>
0

>  <SCORE.SYSTEM.SOLV>
0

>  <SCORE.SYSTEM.norm>
0

>  <SCORE.heavy>
31

>  <SCORE.norm>
-0.289585

>  <RMSD>
0.507

$$$$
ligand
 OpenBabel11021811473D
libRbt.so/2013.1/901 2013/11/27
 31 33  0  0  0  0  0  0  0  0999 V2000
   17.8537    7.4050   18.8857 C   0  0  0  0  0  0  0  0  0  0  0  0
   17.4443    0.3468   13.7716 N   0  0  0  0  0  0  0  0  0  0  0  0
   18.1335    8.3225   17.8233 O   0  0  0  0  0  0  0  0  0  0  0  0
   16.9141    6.3005   18.3953 C   0  0  1  0  0  0  0  0  0  0  0  0
   21.8846    2.3866   13.9329 N   0  0  0  0  0  0  0  0  0  0  0  0
   17.5638    5.5099   17.3808 O   0  0  0  0  0  0  0  0  0  0  0  0
   17.5153    4.1274   17.7760 C   0  0  1  0  0  0  0  0  0  0  0  0
   24.5950    3.0113   17.4616 N   0  0  0  0  0  0  0  0  0  0  0  0
   18.6784    3.4080   17.3372 O   0  0  0  0  0  0  0  0  0  0  0  0
   18.7462    3.2312   15.9145 C   0  0  2  0  0  0  0  0  0  0  0  0
   19.7468    7.0439   15.9119 N   0  0  0  0  0  0  0  0  0  0  0  0
   16.6397    2.0463   15.8795 O   0  0  0  0  0  0  0  0  0  0  0  0
   18.0330    1.9147   15.5848 C   0  0  1  0  0  0  0  0  0  0  0  0
   20.8251    4.5015   15.5330 O   0  0  0  0  0  0  0  0  0  0  0  0
   18.2036    1.5613   14.1060 C   0  0  1  0  0  0  0  0  0  0  0  0
   22.1150    4.6531   17.4955 O   0  0  0  0  0  0  0  0  0  0  0  0
   19.6885    1.3498   13.8096 C   0  0  0  0  0  0  0  0  0  0  0  0
   24.6020    6.8736   15.9591 O   0  0  0  0  0  0  0  0  0  0  0  0
   20.4459    2.6525   14.0833 C   0  0  1  0  0  0  0  0  0  0  0  0
   22.2485    8.5228   16.0358 O   0  0  0  0  0  0  0  0  0  0  0  0
   20.2133    3.2002   15.4966 C   0  0  2  0  0  0  0  0  0  0  0  0
   17.0607    3.0041   19.9183 O   0  0  0  0  0  0  0  0  0  0  0  0
   20.9101    5.0904   16.8402 C   0  0  1  0  0  0  0  0  0  0  0  0
   15.2309    4.8603   19.4669 O   0  0  0  0  0  0  0  0  0  0  0  0
   23.3245    5.0055   16.8026 C   0  0  2  0  0  0  0  0  0  0  0  0
   24.5258    4.4758   17.5892 C   0  0  0  0  0  0  0  0  0  0  0  0
   23.4310    6.5284   16.7038 C   0  0  2  0  0  0  0  0  0  0  0  0
   22.1971    7.0927   15.9966 C   0  0  1  0  0  0  0  0  0  0  0  0
   20.9187    6.6154   16.6908 C   0  0  1  0  0  0  0  0  0  0  0  0
   17.5418    4.2005   19.3013 C   0  0  2  0  0  0  0  0  0  0  0  0
   16.5712    5.3517   19.5474 C   0  0  1  0  0  0  0  0  0  0  0  0
  1  3  1  0  0  0  0
  4  1  1  1  0  0  0
  4  6  1  0  0  0  0
  4 31  1  0  0  0  0
  6  7  1  0  0  0  0
  7  9  1  6  0  0  0
  7 30  1  0  0  0  0
  8 26  1  0  0  0  0
 10  9  1  1  0  0  0
 10 13  1  0  0  0  0
 10 21  1  0  0  0  0
 13 12  1  6  0  0  0
 13 15  1  0  0  0  0
 15  2  1  1  0  0  0
 15 17  1  0  0  0  0
 16 25  1  0  0  0  0
 16 23  1  0  0  0  0
 17 19  1  0  0  0  0
 19  5  1  1  0  0  0
 19 21  1  0  0  0  0
 21 14  1  6  0  0  0
 23 14  1  6  0  0  0
 23 29  1  0  0  0  0
 25 26  1  1  0  0  0
 25 27  1  0  0  0  0
 27 18  1  6  0  0  0
 27 28  1  0  0  0  0
 28 20  1  1  0  0  0
 28 29  1  0  0  0  0
 29 11  1  6  0  0  0
 30 22  1  1  0  0  0
 30 31  1  0  0  0  0
 31 24  1  6  0  0  0
M  END
>  <CHROM.1>
64.61138164,-69.00797959,-89.96529300,86.68122485,64.45698361,72.12863742
19.78301534,4.56538907,16.71909912,2.99691961,-0.32291430,-2.56611615

>  <Name>
ligand

>  <RI>
0

>  <Rbt.Current_Directory>
/home/itssahil/PROJECTS/Mol_Feturizer/New_Systems/rnas/3DVV

>  <Rbt.Executable>
rbdock ($Id: //depot/dev/client3/rdock/2013.1/src/exe/rbdock.cxx#4 $)

>  <Rbt.Library>
libRbt.so (2013.1, Build901 2013/11/27)

>  <Rbt.Parameter_File>
/export/apps/rDock/src/rDock_2013.1_src/data/scripts/dock_solv.prm

>  <Rbt.Receptor>
prm/pocket_docking_2.prm

>  <SCORE>
-9.00416

>  <SCORE.INTER>
-7.70015

>  <SCORE.INTER.CONST>
1

>  <SCORE.INTER.POLAR>
0

>  <SCORE.INTER.ROT>
6

>  <SCORE.INTER.SOLV>
24.0315

>  <SCORE.INTER.VDW>
-20.7439

>  <SCORE.INTER.norm>
-0.248392

>  <SCORE.INTRA>
-1.304

>  <SCORE.INTRA.DIHEDRAL>
-2.90858

>  <SCORE.INTRA.DIHEDRAL.0>
10.8172

>  <SCORE.INTRA.POLAR>
0

>  <SCORE.INTRA.POLAR.0>
0

>  <SCORE.INTRA.REPUL>
0

>  <SCORE.INTRA.REPUL.0>
0

>  <SCORE.INTRA.SOLV>
-1.03812

>  <SCORE.INTRA.SOLV.lig_0>
-80.3833

>  <SCORE.INTRA.VDW>
0.669346

>  <SCORE.INTRA.VDW.0>
-4.63762

>  <SCORE.INTRA.norm>
-0.0420646

>  <SCORE.RESTR>
0

>  <SCORE.RESTR.CAVITY>
0

>  <SCORE.RESTR.norm>
0

>  <SCORE.SYSTEM>
0

>  <SCORE.SYSTEM.CONST>
0

>  <SCORE.SYSTEM.DIHEDRAL>
0

>  <SCORE.SYSTEM.SOLV>
0

>  <SCORE.SYSTEM.norm>
0

>  <SCORE.heavy>
31

>  <SCORE.norm>
-0.290457

>  <RMSD>
0.509

$$$$
ligand
 OpenBabel11021811473D
libRbt.so/2013.1/901 2013/11/27
 31 33  0  0  0  0  0  0  0  0999 V2000
   17.5221    7.3677   18.1803 C   0  0  0  0  0  0  0  0  0  0  0  0
   17.7658    0.1767   13.5150 N   0  0  0  0  0  0  0  0  0  0  0  0
   18.7902    6.9845   18.7225 O   0  0  0  0  0  0  0  0  0  0  0  0
   16.6925    6.1245   17.8494 C   0  0  1  0  0  0  0  0  0  0  0  0
   22.1202    2.3734   13.8576 N   0  0  0  0  0  0  0  0  0  0  0  0
   17.4051    5.2847   16.9201 O   0  0  0  0  0  0  0  0  0  0  0  0
   17.5021    3.9624   17.4786 C   0  0  1  0  0  0  0  0  0  0  0  0
   24.6466    3.0107   17.4178 N   0  0  0  0  0  0  0  0  0  0  0  0
   18.7260    3.3136   17.0991 O   0  0  0  0  0  0  0  0  0  0  0  0
   18.8658    3.1257   15.6831 C   0  0  2  0  0  0  0  0  0  0  0  0
   19.8028    6.9984   15.7230 N   0  0  0  0  0  0  0  0  0  0  0  0
   16.8057    1.8668   15.5645 O   0  0  0  0  0  0  0  0  0  0  0  0
   18.2149    1.7817   15.3357 C   0  0  1  0  0  0  0  0  0  0  0  0
   20.9147    4.4648   15.3835 O   0  0  0  0  0  0  0  0  0  0  0  0
   18.4661    1.4204   13.8703 C   0  0  1  0  0  0  0  0  0  0  0  0
   22.1352    4.6283   17.3889 O   0  0  0  0  0  0  0  0  0  0  0  0
   19.9696    1.2586   13.6450 C   0  0  0  0  0  0  0  0  0  0  0  0
   24.6548    6.8686   15.9368 O   0  0  0  0  0  0  0  0  0  0  0  0
   20.6677    2.5898   13.9386 C   0  0  1  0  0  0  0  0  0  0  0  0
   22.2864    8.4981   15.9313 O   0  0  0  0  0  0  0  0  0  0  0  0
   20.3508    3.1425   15.3336 C   0  0  2  0  0  0  0  0  0  0  0  0
   17.1924    3.0678   19.7505 O   0  0  0  0  0  0  0  0  0  0  0  0
   20.9498    5.0551   16.6923 C   0  0  1  0  0  0  0  0  0  0  0  0
   15.1782    4.6657   19.1279 O   0  0  0  0  0  0  0  0  0  0  0  0
   23.3648    4.9905   16.7376 C   0  0  2  0  0  0  0  0  0  0  0  0
   24.5427    4.4712   17.5654 C   0  0  0  0  0  0  0  0  0  0  0  0
   23.4619    6.5141   16.6412 C   0  0  2  0  0  0  0  0  0  0  0  0
   22.2483    7.0677   15.8916 C   0  0  1  0  0  0  0  0  0  0  0  0
   20.9509    6.5801   16.5420 C   0  0  1  0  0  0  0  0  0  0  0  0
   17.5416    4.2222   18.9831 C   0  0  2  0  0  0  0  0  0  0  0  0
   16.4629    5.2932   19.1148 C   0  0  1  0  0  0  0  0  0  0  0  0
  1  3  1  0  0  0  0
  4  1  1  1  0  0  0
  4  6  1  0  0  0  0
  4 31  1  0  0  0  0
  6  7  1  0  0  0  0
  7  9  1  6  0  0  0
  7 30  1  0  0  0  0
  8 26  1  0  0  0  0
 10  9  1  1  0  0  0
 10 13  1  0  0  0  0
 10 21  1  0  0  0  0
 13 12  1  6  0  0  0
 13 15  1  0  0  0  0
 15  2  1  1  0  0  0
 15 17  1  0  0  0  0
 16 25  1  0  0  0  0
 16 23  1  0  0  0  0
 17 19  1  0  0  0  0
 19  5  1  1  0  0  0
 19 21  1  0  0  0  0
 21 14  1  6  0  0  0
 23 14  1  6  0  0  0
 23 29  1  0  0  0  0
 25 26  1  1  0  0  0
 25 27  1  0  0  0  0
 27 18  1  6  0  0  0
 27 28  1  0  0  0  0
 28 20  1  1  0  0  0
 28 29  1  0  0  0  0
 29 11  1  6  0  0  0
 30 22  1  1  0  0  0
 30 31  1  0  0  0  0
 31 24  1  6  0  0  0
M  END
>  <CHROM.1>
-57.87819600,-61.54240721,-88.32861021,84.94802227,65.98615649,73.37373377
19.86198351,4.44940870,16.54313142,2.97843277,-0.30463106,-2.53643350

>  <Name>
ligand

>  <RI>
0

>  <Rbt.Current_Directory>
/home/itssahil/PROJECTS/Mol_Feturizer/New_Systems/rnas/3DVV

>  <Rbt.Executable>
rbdock ($Id: //depot/dev/client3/rdock/2013.1/src/exe/rbdock.cxx#4 $)

>  <Rbt.Library>
libRbt.so (2013.1, Build901 2013/11/27)

>  <Rbt.Parameter_File>
/export/apps/rDock/src/rDock_2013.1_src/data/scripts/dock_solv.prm

>  <Rbt.Receptor>
prm/pocket_docking_2.prm

>  <SCORE>
-8.89396

>  <SCORE.INTER>
-7.3117

>  <SCORE.INTER.CONST>
1

>  <SCORE.INTER.POLAR>
0

>  <SCORE.INTER.ROT>
6

>  <SCORE.INTER.SOLV>
24.03

>  <SCORE.INTER.VDW>
-20.4845

>  <SCORE.INTER.norm>
-0.235861

>  <SCORE.INTRA>
-1.58226

>  <SCORE.INTRA.DIHEDRAL>
-3.77904

>  <SCORE.INTRA.DIHEDRAL.0>
10.8172

>  <SCORE.INTRA.POLAR>
0

>  <SCORE.INTRA.POLAR.0>
0

>  <SCORE.INTRA.REPUL>
0

>  <SCORE.INTRA.REPUL.0>
0

>  <SCORE.INTRA.SOLV>
-0.62883

>  <SCORE.INTRA.SOLV.lig_0>
-80.3833

>  <SCORE.INTRA.VDW>
0.621677

>  <SCORE.INTRA.VDW.0>
-4.63762

>  <SCORE.INTRA.norm>
-0.0510406

>  <SCORE.RESTR>
0

>  <SCORE.RESTR.CAVITY>
0

>  <SCORE.RESTR.norm>
0

>  <SCORE.SYSTEM>
0

>  <SCORE.SYSTEM.CONST>
0

>  <SCORE.SYSTEM.DIHEDRAL>
0

>  <SCORE.SYSTEM.SOLV>
0

>  <SCORE.SYSTEM.norm>
0

>  <SCORE.heavy>
31

>  <SCORE.norm>
-0.286902

>  <RMSD>
0.521

$$$$
ligand
 OpenBabel11021811473D
libRbt.so/2013.1/901 2013/11/27
 31 33  0  0  0  0  0  0  0  0999 V2000
   17.5374    7.3852   18.2327 C   0  0  0  0  0  0  0  0  0  0  0  0
   17.8141    0.1701   13.5580 N   0  0  0  0  0  0  0  0  0  0  0  0
   18.7977    6.9938   18.7870 O   0  0  0  0  0  0  0  0  0  0  0  0
   16.7067    6.1474   17.8851 C   0  0  1  0  0  0  0  0  0  0  0  0
   22.1403    2.4240   13.8852 N   0  0  0  0  0  0  0  0  0  0  0  0
   17.4235    5.3136   16.9538 O   0  0  0  0  0  0  0  0  0  0  0  0
   17.5127    3.9862   17.5015 C   0  0  1  0  0  0  0  0  0  0  0  0
   24.6221    2.9774   17.4151 N   0  0  0  0  0  0  0  0  0  0  0  0
   18.7374    3.3371   17.1253 O   0  0  0  0  0  0  0  0  0  0  0  0
   18.8783    3.1438   15.7101 C   0  0  2  0  0  0  0  0  0  0  0  0
   19.8488    7.0615   15.7515 N   0  0  0  0  0  0  0  0  0  0  0  0
   16.8344    1.8581   15.6000 O   0  0  0  0  0  0  0  0  0  0  0  0
   18.2443    1.7899   15.3701 C   0  0  1  0  0  0  0  0  0  0  0  0
   20.9096    4.5075   15.4017 O   0  0  0  0  0  0  0  0  0  0  0  0
   18.4988    1.4244   13.9064 C   0  0  1  0  0  0  0  0  0  0  0  0
   22.1436    4.6436   17.4009 O   0  0  0  0  0  0  0  0  0  0  0  0
   20.0040    1.2807   13.6803 C   0  0  0  0  0  0  0  0  0  0  0  0
   24.6985    6.8374   15.9393 O   0  0  0  0  0  0  0  0  0  0  0  0
   20.6852    2.6222   13.9665 C   0  0  1  0  0  0  0  0  0  0  0  0
   22.3621    8.5125   15.9493 O   0  0  0  0  0  0  0  0  0  0  0  0
   20.3627    3.1779   15.3590 C   0  0  2  0  0  0  0  0  0  0  0  0
   17.1840    3.0730   19.7633 O   0  0  0  0  0  0  0  0  0  0  0  0
   20.9631    5.0946   16.7113 C   0  0  1  0  0  0  0  0  0  0  0  0
   15.1789    4.6820   19.1400 O   0  0  0  0  0  0  0  0  0  0  0  0
   23.3765    4.9831   16.7437 C   0  0  2  0  0  0  0  0  0  0  0  0
   24.5485    4.4396   17.5643 C   0  0  0  0  0  0  0  0  0  0  0  0
   23.5026    6.5047   16.6494 C   0  0  2  0  0  0  0  0  0  0  0  0
   22.2960    7.0831   15.9073 C   0  0  1  0  0  0  0  0  0  0  0  0
   20.9929    6.6195   16.5637 C   0  0  1  0  0  0  0  0  0  0  0  0
   17.5420    4.2329   19.0084 C   0  0  2  0  0  0  0  0  0  0  0  0
   16.4655    5.3059   19.1416 C   0  0  1  0  0  0  0  0  0  0  0  0
  1  3  1  0  0  0  0
  4  1  1  1  0  0  0
  4  6  1  0  0  0  0
  4 31  1  0  0  0  0
  6  7  1  0  0  0  0
  7  9  1  6  0  0  0
  7 30  1  0  0  0  0
  8 26  1  0  0  0  0
 10  9  1  1  0  0  0
 10 13  1  0  0  0  0
 10 21  1  0  0  0  0
 13 12  1  6  0  0  0
 13 15  1  0  0  0  0
 15  2  1  1  0  0  0
 15 17  1  0  0  0  0
 16 25  1  0  0  0  0
 16 23  1  0  0  0  0
 17 19  1  0  0  0  0
 19  5  1  1  0  0  0
 19 21  1  0  0  0  0
 21 14  1  6  0  0  0
 23 14  1  6  0  0  0
 23 29  1  0  0  0  0
 25 26  1  1  0  0  0
 25 27  1  0  0  0  0
 27 18  1  6  0  0  0
 27 28  1  0  0  0  0
 28 20  1  1  0  0  0
 28 29  1  0  0  0  0
 29 11  1  6  0  0  0
 30 22  1  1  0  0  0
 30 31  1  0  0  0  0
 31 24  1  6  0  0  0
M  END
>  <CHROM.1>
-58.16680182,-62.38382396,-89.01542929,82.88532842,67.17119104,73.29297345
19.88167384,4.46347395,16.56734025,2.98952473,-0.30782944,-2.54126388

>  <Name>
ligand

>  <RI>
0

>  <Rbt.Current_Directory>
/home/itssahil/PROJECTS/Mol_Feturizer/New_Systems/rnas/3DVV

>  <Rbt.Executable>
rbdock ($Id: //depot/dev/client3/rdock/2013.1/src/exe/rbdock.cxx#4 $)

>  <Rbt.Library>
libRbt.so (2013.1, Build901 2013/11/27)

>  <Rbt.Parameter_File>
/export/apps/rDock/src/rDock_2013.1_src/data/scripts/dock_solv.prm

>  <Rbt.Receptor>
prm/pocket_docking_2.prm

>  <SCORE>
-8.91885

>  <SCORE.INTER>
-7.16805

>  <SCORE.INTER.CONST>
1

>  <SCORE.INTER.POLAR>
0

>  <SCORE.INTER.ROT>
6

>  <SCORE.INTER.SOLV>
24.4038

>  <SCORE.INTER.VDW>
-20.5133

>  <SCORE.INTER.norm>
-0.231227

>  <SCORE.INTRA>
-1.7508

>  <SCORE.INTRA.DIHEDRAL>
-3.9416

>  <SCORE.INTRA.DIHEDRAL.0>
10.8172

>  <SCORE.INTRA.POLAR>
0

>  <SCORE.INTRA.POLAR.0>
0

>  <SCORE.INTRA.REPUL>
0

>  <SCORE.INTRA.REPUL.0>
0

>  <SCORE.INTRA.SOLV>
-0.69309

>  <SCORE.INTRA.SOLV.lig_0>
-80.3833

>  <SCORE.INTRA.VDW>
0.566542

>  <SCORE.INTRA.VDW.0>
-4.63762

>  <SCORE.INTRA.norm>
-0.0564776

>  <SCORE.RESTR>
0

>  <SCORE.RESTR.CAVITY>
0

>  <SCORE.RESTR.norm>
0

>  <SCORE.SYSTEM>
0

>  <SCORE.SYSTEM.CONST>
0

>  <SCORE.SYSTEM.DIHEDRAL>
0

>  <SCORE.SYSTEM.SOLV>
0

>  <SCORE.SYSTEM.norm>
0

>  <SCORE.heavy>
31

>  <SCORE.norm>
-0.287705

>  <RMSD>
0.530

$$$$
ligand
 OpenBabel11021811473D
libRbt.so/2013.1/901 2013/11/27
 31 33  0  0  0  0  0  0  0  0999 V2000
   17.4109    7.4020   18.0941 C   0  0  0  0  0  0  0  0  0  0  0  0
   17.7921    0.1962   13.5373 N   0  0  0  0  0  0  0  0  0  0  0  0
   18.6708    7.0679   18.6856 O   0  0  0  0  0  0  0  0  0  0  0  0
   16.6157    6.1293   17.7923 C   0  0  1  0  0  0  0  0  0  0  0  0
   22.1489    2.3838   13.9057 N   0  0  0  0  0  0  0  0  0  0  0  0
   17.3511    5.2882   16.8823 O   0  0  0  0  0  0  0  0  0  0  0  0
   17.4842    3.9822   17.4710 C   0  0  1  0  0  0  0  0  0  0  0  0
   24.6498    3.0245   17.4507 N   0  0  0  0  0  0  0  0  0  0  0  0
   18.7254    3.3585   17.1060 O   0  0  0  0  0  0  0  0  0  0  0  0
   18.8787    3.1591   15.6930 C   0  0  2  0  0  0  0  0  0  0  0  0
   19.8315    7.0279   15.7435 N   0  0  0  0  0  0  0  0  0  0  0  0
   16.8165    1.9049   15.5639 O   0  0  0  0  0  0  0  0  0  0  0  0
   18.2276    1.8143   15.3497 C   0  0  1  0  0  0  0  0  0  0  0  0
   20.9341    4.4904   15.4031 O   0  0  0  0  0  0  0  0  0  0  0  0
   18.4923    1.4407   13.8898 C   0  0  1  0  0  0  0  0  0  0  0  0
   22.1640    4.6534   17.4029 O   0  0  0  0  0  0  0  0  0  0  0  0
   19.9974    1.2732   13.6806 C   0  0  0  0  0  0  0  0  0  0  0  0
   24.6840    6.8837   15.9360 O   0  0  0  0  0  0  0  0  0  0  0  0
   20.6962    2.6048   13.9707 C   0  0  1  0  0  0  0  0  0  0  0  0
   22.3205    8.5204   15.9383 O   0  0  0  0  0  0  0  0  0  0  0  0
   20.3672    3.1692   15.3580 C   0  0  2  0  0  0  0  0  0  0  0  0
   17.1988    3.1321   19.7631 O   0  0  0  0  0  0  0  0  0  0  0  0
   20.9769    5.0827   16.7108 C   0  0  1  0  0  0  0  0  0  0  0  0
   15.1417    4.6594   19.1048 O   0  0  0  0  0  0  0  0  0  0  0  0
   23.3918    5.0108   16.7455 C   0  0  2  0  0  0  0  0  0  0  0  0
   24.5718    4.4892   17.5689 C   0  0  0  0  0  0  0  0  0  0  0  0
   23.4931    6.5339   16.6462 C   0  0  2  0  0  0  0  0  0  0  0  0
   22.2778    7.0900   15.9012 C   0  0  1  0  0  0  0  0  0  0  0  0
   20.9819    6.6074   16.5580 C   0  0  1  0  0  0  0  0  0  0  0  0
   17.5164    4.2776   18.9691 C   0  0  2  0  0  0  0  0  0  0  0  0
   16.4087    5.3214   19.0766 C   0  0  1  0  0  0  0  0  0  0  0  0
  1  3  1  0  0  0  0
  4  1  1  1  0  0  0
  4  6  1  0  0  0  0
  4 31  1  0  0  0  0
  6  7  1  0  0  0  0
  7  9  1  6  0  0  0
  7 30  1  0  0  0  0
  8 26  1  0  0  0  0
 10  9  1  1  0  0  0
 10 13  1  0  0  0  0
 10 21  1  0  0  0  0
 13 12  1  6  0  0  0
 13 15  1  0  0  0  0
 15  2  1  1  0  0  0
 15 17  1  0  0  0  0
 16 25  1  0  0  0  0
 16 23  1  0  0  0  0
 17 19  1  0  0  0  0
 19  5  1  1  0  0  0
 19 21  1  0  0  0  0
 21 14  1  6  0  0  0
 23 14  1  6  0  0  0
 23 29  1  0  0  0  0
 25 26  1  1  0  0  0
 25 27  1  0  0  0  0
 27 18  1  6  0  0  0
 27 28  1  0  0  0  0
 28 20  1  1  0  0  0
 28 29  1  0  0  0  0
 29 11  1  6  0  0  0
 30 22  1  1  0  0  0
 30 31  1  0  0  0  0
 31 24  1  6  0  0  0
M  END
>  <CHROM.1>
-59.79700264,-60.71107072,-86.79723603,84.89558552,66.90211074,71.93777547
19.86206069,4.47578978,16.54533381,2.99099959,-0.29509227,-2.54919753

>  <Name>
ligand

>  <RI>
0

>  <Rbt.Current_Directory>
/home/itssahil/PROJECTS/Mol_Feturizer/New_Systems/rnas/3DVV

>  <Rbt.Executable>
rbdock ($Id: //depot/dev/client3/rdock/2013.1/src/exe/rbdock.cxx#4 $)

>  <Rbt.Library>
libRbt.so (2013.1, Build901 2013/11/27)

>  <Rbt.Parameter_File>
/export/apps/rDock/src/rDock_2013.1_src/data/scripts/dock_solv.prm

>  <Rbt.Receptor>
prm/pocket_docking_2.prm

>  <SCORE>
-8.93654

>  <SCORE.INTER>
-7.23073

>  <SCORE.INTER.CONST>
1

>  <SCORE.INTER.POLAR>
0

>  <SCORE.INTER.ROT>
6

>  <SCORE.INTER.SOLV>
24.0041

>  <SCORE.INTER.VDW>
-20.4219

>  <SCORE.INTER.norm>
-0.23325

>  <SCORE.INTRA>
-1.7104

>  <SCORE.INTRA.DIHEDRAL>
-4.16754

>  <SCORE.INTRA.DIHEDRAL.0>
10.8172

>  <SCORE.INTRA.POLAR>
0

>  <SCORE.INTRA.POLAR.0>
0

>  <SCORE.INTRA.REPUL>
0

>  <SCORE.INTRA.REPUL.0>
0

>  <SCORE.INTRA.SOLV>
-0.684428

>  <SCORE.INTRA.SOLV.lig_0>
-80.3833

>  <SCORE.INTRA.VDW>
0.715582

>  <SCORE.INTRA.VDW.0>
-4.63762

>  <SCORE.INTRA.norm>
-0.0551743

>  <SCORE.RESTR>
0.00459433

>  <SCORE.RESTR.CAVITY>
0.00459433

>  <SCORE.RESTR.norm>
0.000148204

>  <SCORE.SYSTEM>
0

>  <SCORE.SYSTEM.CONST>
0

>  <SCORE.SYSTEM.DIHEDRAL>
0

>  <SCORE.SYSTEM.SOLV>
0

>  <SCORE.SYSTEM.norm>
0

>  <SCORE.heavy>
31

>  <SCORE.norm>
-0.288276

>  <RMSD>
0.537

$$$$
ligand
 OpenBabel11021811473D
libRbt.so/2013.1/901 2013/11/27
 31 33  0  0  0  0  0  0  0  0999 V2000
   17.4698    7.4163   18.0561 C   0  0  0  0  0  0  0  0  0  0  0  0
   17.8398    0.1612   13.5490 N   0  0  0  0  0  0  0  0  0  0  0  0
   18.7259    7.0662   18.6465 O   0  0  0  0  0  0  0  0  0  0  0  0
   16.6584    6.1538   17.7548 C   0  0  1  0  0  0  0  0  0  0  0  0
   22.1865    2.3648   13.9423 N   0  0  0  0  0  0  0  0  0  0  0  0
   17.3899    5.2957   16.8575 O   0  0  0  0  0  0  0  0  0  0  0  0
   17.4974    3.9918   17.4560 C   0  0  1  0  0  0  0  0  0  0  0  0
   24.6737    3.0424   17.4729 N   0  0  0  0  0  0  0  0  0  0  0  0
   18.7325    3.3470   17.1073 O   0  0  0  0  0  0  0  0  0  0  0  0
   18.8986    3.1400   15.6968 C   0  0  2  0  0  0  0  0  0  0  0  0
   19.8298    7.0052   15.7554 N   0  0  0  0  0  0  0  0  0  0  0  0
   16.8415    1.8785   15.5573 O   0  0  0  0  0  0  0  0  0  0  0  0
   18.2547    1.7911   15.3557 C   0  0  1  0  0  0  0  0  0  0  0  0
   20.9522    4.4761   15.4170 O   0  0  0  0  0  0  0  0  0  0  0  0
   18.5331    1.4100   13.9003 C   0  0  1  0  0  0  0  0  0  0  0  0
   22.1855    4.6527   17.4135 O   0  0  0  0  0  0  0  0  0  0  0  0
   20.0405    1.2460   13.7051 C   0  0  0  0  0  0  0  0  0  0  0  0
   24.6838    6.9007   15.9366 O   0  0  0  0  0  0  0  0  0  0  0  0
   20.7326    2.5815   13.9934 C   0  0  1  0  0  0  0  0  0  0  0  0
   22.3071    8.5182   15.9416 O   0  0  0  0  0  0  0  0  0  0  0  0
   20.3898    3.1529   15.3746 C   0  0  2  0  0  0  0  0  0  0  0  0
   17.1766    3.1612   19.7506 O   0  0  0  0  0  0  0  0  0  0  0  0
   20.9933    5.0711   16.7235 C   0  0  1  0  0  0  0  0  0  0  0  0
   15.1495    4.7151   19.0621 O   0  0  0  0  0  0  0  0  0  0  0  0
   23.4088    5.0188   16.7526 C   0  0  2  0  0  0  0  0  0  0  0  0
   24.5950    4.5084   17.5741 C   0  0  0  0  0  0  0  0  0  0  0  0
   23.4974    6.5426   16.6503 C   0  0  2  0  0  0  0  0  0  0  0  0
   22.2760    7.0874   15.9071 C   0  0  1  0  0  0  0  0  0  0  0  0
   20.9855    6.5955   16.5679 C   0  0  1  0  0  0  0  0  0  0  0  0
   17.5193    4.2966   18.9524 C   0  0  2  0  0  0  0  0  0  0  0  0
   16.4266    5.3577   19.0422 C   0  0  1  0  0  0  0  0  0  0  0  0
  1  3  1  0  0  0  0
  4  1  1  1  0  0  0
  4  6  1  0  0  0  0
  4 31  1  0  0  0  0
  6  7  1  0  0  0  0
  7  9  1  6  0  0  0
  7 30  1  0  0  0  0
  8 26  1  0  0  0  0
 10  9  1  1  0  0  0
 10 13  1  0  0  0  0
 10 21  1  0  0  0  0
 13 12  1  6  0  0  0
 13 15  1  0  0  0  0
 15  2  1  1  0  0  0
 15 17  1  0  0  0  0
 16 25  1  0  0  0  0
 16 23  1  0  0  0  0
 17 19  1  0  0  0  0
 19  5  1  1  0  0  0
 19 21  1  0  0  0  0
 21 14  1  6  0  0  0
 23 14  1  6  0  0  0
 23 29  1  0  0  0  0
 25 26  1  1  0  0  0
 25 27  1  0  0  0  0
 27 18  1  6  0  0  0
 27 28  1  0  0  0  0
 28 20  1  1  0  0  0
 28 29  1  0  0  0  0
 29 11  1  6  0  0  0
 30 22  1  1  0  0  0
 30 31  1  0  0  0  0
 31 24  1  6  0  0  0
M  END
>  <CHROM.1>
-59.05635928,-60.51446949,-87.91247328,85.18872453,67.45457323,71.18684913
19.88225786,4.47506687,16.54408021,2.98091971,-0.28962767,-2.55906411

>  <Name>
ligand

>  <RI>
0

>  <Rbt.Current_Directory>
/home/itssahil/PROJECTS/Mol_Feturizer/New_Systems/rnas/3DVV

>  <Rbt.Executable>
rbdock ($Id: //depot/dev/client3/rdock/2013.1/src/exe/rbdock.cxx#4 $)

>  <Rbt.Library>
libRbt.so (2013.1, Build901 2013/11/27)

>  <Rbt.Parameter_File>
/export/apps/rDock/src/rDock_2013.1_src/data/scripts/dock_solv.prm

>  <Rbt.Receptor>
prm/pocket_docking_2.prm

>  <SCORE>
-8.91421

>  <SCORE.INTER>
-7.33845

>  <SCORE.INTER.CONST>
1

>  <SCORE.INTER.POLAR>
0

>  <SCORE.INTER.ROT>
6

>  <SCORE.INTER.SOLV>
24.1594

>  <SCORE.INTER.VDW>
-20.5454

>  <SCORE.INTER.norm>
-0.236724

>  <SCORE.INTRA>
-1.57576

>  <SCORE.INTRA.DIHEDRAL>
-3.92563

>  <SCORE.INTRA.DIHEDRAL.0>
10.8172

>  <SCORE.INTRA.POLAR>
0

>  <SCORE.INTRA.POLAR.0>
0

>  <SCORE.INTRA.REPUL>
0

>  <SCORE.INTRA.REPUL.0>
0

>  <SCORE.INTRA.SOLV>
-0.443948

>  <SCORE.INTRA.SOLV.lig_0>
-80.3833

>  <SCORE.INTRA.VDW>
0.60903

>  <SCORE.INTRA.VDW.0>
-4.63762

>  <SCORE.INTRA.norm>
-0.0508309

>  <SCORE.RESTR>
0

>  <SCORE.RESTR.CAVITY>
0

>  <SCORE.RESTR.norm>
0

>  <SCORE.SYSTEM>
0

>  <SCORE.SYSTEM.CONST>
0

>  <SCORE.SYSTEM.DIHEDRAL>
0

>  <SCORE.SYSTEM.SOLV>
0

>  <SCORE.SYSTEM.norm>
0

>  <SCORE.heavy>
31

>  <SCORE.norm>
-0.287555

>  <RMSD>
0.542

$$$$
ligand
 OpenBabel11021811473D
libRbt.so/2013.1/901 2013/11/27
 31 33  0  0  0  0  0  0  0  0999 V2000
   17.5162    7.3992   18.4847 C   0  0  0  0  0  0  0  0  0  0  0  0
   17.6134    0.2379   13.6983 N   0  0  0  0  0  0  0  0  0  0  0  0
   18.7619    6.9777   19.0498 O   0  0  0  0  0  0  0  0  0  0  0  0
   16.6643    6.1814   18.1180 C   0  0  1  0  0  0  0  0  0  0  0  0
   21.9790    2.4226   13.9689 N   0  0  0  0  0  0  0  0  0  0  0  0
   17.3598    5.3587   17.1610 O   0  0  0  0  0  0  0  0  0  0  0  0
   17.4352    4.0182   17.6779 C   0  0  1  0  0  0  0  0  0  0  0  0
   24.6039    3.0324   17.4127 N   0  0  0  0  0  0  0  0  0  0  0  0
   18.6467    3.3604   17.2747 O   0  0  0  0  0  0  0  0  0  0  0  0
   18.7603    3.1769   15.8558 C   0  0  2  0  0  0  0  0  0  0  0  0
   19.7110    7.0429   15.9280 N   0  0  0  0  0  0  0  0  0  0  0  0
   16.6951    1.9236   15.7705 O   0  0  0  0  0  0  0  0  0  0  0  0
   18.0997    1.8358   15.5158 C   0  0  1  0  0  0  0  0  0  0  0  0
   20.8068    4.5119   15.5233 O   0  0  0  0  0  0  0  0  0  0  0  0
   18.3233    1.4787   14.0450 C   0  0  1  0  0  0  0  0  0  0  0  0
   22.0971    4.6532   17.4863 O   0  0  0  0  0  0  0  0  0  0  0  0
   19.8220    1.3139   13.7918 C   0  0  0  0  0  0  0  0  0  0  0  0
   24.5673    6.9060   15.9700 O   0  0  0  0  0  0  0  0  0  0  0  0
   20.5287    2.6423   14.0770 C   0  0  1  0  0  0  0  0  0  0  0  0
   22.2024    8.5379   16.0646 O   0  0  0  0  0  0  0  0  0  0  0  0
   20.2387    3.1912   15.4793 C   0  0  2  0  0  0  0  0  0  0  0  0
   17.1159    3.0590   19.9220 O   0  0  0  0  0  0  0  0  0  0  0  0
   20.8887    5.0885   16.8362 C   0  0  1  0  0  0  0  0  0  0  0  0
   15.1282    4.7100   19.3554 O   0  0  0  0  0  0  0  0  0  0  0  0
   23.3036    5.0209   16.7960 C   0  0  2  0  0  0  0  0  0  0  0  0
   24.5092    4.4918   17.5765 C   0  0  0  0  0  0  0  0  0  0  0  0
   23.3993    6.5453   16.7121 C   0  0  2  0  0  0  0  0  0  0  0  0
   22.1609    7.1079   16.0114 C   0  0  1  0  0  0  0  0  0  0  0  0
   20.8865    6.6149   16.7018 C   0  0  1  0  0  0  0  0  0  0  0  0
   17.4831    4.2305   19.1896 C   0  0  2  0  0  0  0  0  0  0  0  0
   16.4235    5.3153   19.3578 C   0  0  1  0  0  0  0  0  0  0  0  0
  1  3  1  0  0  0  0
  4  1  1  1  0  0  0
  4  6  1  0  0  0  0
  4 31  1  0  0  0  0
  6  7  1  0  0  0  0
  7  9  1  6  0  0  0
  7 30  1  0  0  0  0
  8 26  1  0  0  0  0
 10  9  1  1  0  0  0
 10 13  1  0  0  0  0
 10 21  1  0  0  0  0
 13 12  1  6  0  0  0
 13 15  1  0  0  0  0
 15  2  1  1  0  0  0
 15 17  1  0  0  0  0
 16 25  1  0  0  0  0
 16 23  1  0  0  0  0
 17 19  1  0  0  0  0
 19  5  1  1  0  0  0
 19 21  1  0  0  0  0
 21 14  1  6  0  0  0
 23 14  1  6  0  0  0
 23 29  1  0  0  0  0
 25 26  1  1  0  0  0
 25 27  1  0  0  0  0
 27 18  1  6  0  0  0
 27 28  1  0  0  0  0
 28 20  1  1  0  0  0
 28 29  1  0  0  0  0
 29 11  1  6  0  0  0
 30 22  1  1  0  0  0
 30 31  1  0  0  0  0
 31 24  1  6  0  0  0
M  END
>  <CHROM.1>
-59.68778193,-63.37826397,-88.67924874,84.99618620,67.01854527,73.24052463
19.78288687,4.48843154,16.70471132,3.00416541,-0.32341454,-2.52511854

>  <Name>
ligand

>  <RI>
0

>  <Rbt.Current_Directory>
/home/itssahil/PROJECTS/Mol_Feturizer/New_Systems/rnas/3DVV

>  <Rbt.Executable>
rbdock ($Id: //depot/dev/client3/rdock/2013.1/src/exe/rbdock.cxx#4 $)

>  <Rbt.Library>
libRbt.so (2013.1, Build901 2013/11/27)

>  <Rbt.Parameter_File>
/export/apps/rDock/src/rDock_2013.1_src/data/scripts/dock_solv.prm

>  <Rbt.Receptor>
prm/pocket_docking_2.prm

>  <SCORE>
-8.93524

>  <SCORE.INTER>
-7.38793

>  <SCORE.INTER.CONST>
1

>  <SCORE.INTER.POLAR>
0

>  <SCORE.INTER.ROT>
6

>  <SCORE.INTER.SOLV>
24.3227

>  <SCORE.INTER.VDW>
-20.6328

>  <SCORE.INTER.norm>
-0.23832

>  <SCORE.INTRA>
-1.54731

>  <SCORE.INTRA.DIHEDRAL>
-3.62781

>  <SCORE.INTRA.DIHEDRAL.0>
10.8172

>  <SCORE.INTRA.POLAR>
0

>  <SCORE.INTRA.POLAR.0>
0

>  <SCORE.INTRA.REPUL>
0

>  <SCORE.INTRA.REPUL.0>
0

>  <SCORE.INTRA.SOLV>
-0.611853

>  <SCORE.INTRA.SOLV.lig_0>
-80.3833

>  <SCORE.INTRA.VDW>
0.572524

>  <SCORE.INTRA.VDW.0>
-4.63762

>  <SCORE.INTRA.norm>
-0.0499132

>  <SCORE.RESTR>
0

>  <SCORE.RESTR.CAVITY>
0

>  <SCORE.RESTR.norm>
0

>  <SCORE.SYSTEM>
0

>  <SCORE.SYSTEM.CONST>
0

>  <SCORE.SYSTEM.DIHEDRAL>
0

>  <SCORE.SYSTEM.SOLV>
0

>  <SCORE.SYSTEM.norm>
0

>  <SCORE.heavy>
31

>  <SCORE.norm>
-0.288234

>  <RMSD>
0.547

$$$$
ligand
 OpenBabel11021811473D
libRbt.so/2013.1/901 2013/11/27
 31 33  0  0  0  0  0  0  0  0999 V2000
   17.5722    7.3662   18.2235 C   0  0  0  0  0  0  0  0  0  0  0  0
   17.8419    0.1739   13.5306 N   0  0  0  0  0  0  0  0  0  0  0  0
   18.8340    6.9709   18.7715 O   0  0  0  0  0  0  0  0  0  0  0  0
   16.7389    6.1308   17.8733 C   0  0  1  0  0  0  0  0  0  0  0  0
   22.1826    2.3932   13.9009 N   0  0  0  0  0  0  0  0  0  0  0  0
   17.4566    5.2944   16.9449 O   0  0  0  0  0  0  0  0  0  0  0  0
   17.5396    3.9670   17.4934 C   0  0  1  0  0  0  0  0  0  0  0  0
   24.6615    2.9937   17.4692 N   0  0  0  0  0  0  0  0  0  0  0  0
   18.7637    3.3139   17.1220 O   0  0  0  0  0  0  0  0  0  0  0  0
   18.9132    3.1274   15.7068 C   0  0  2  0  0  0  0  0  0  0  0  0
   19.8532    7.0112   15.7847 N   0  0  0  0  0  0  0  0  0  0  0  0
   16.8605    1.8579   15.5750 O   0  0  0  0  0  0  0  0  0  0  0  0
   18.2715    1.7803   15.3547 C   0  0  1  0  0  0  0  0  0  0  0  0
   20.9568    4.4775   15.4203 O   0  0  0  0  0  0  0  0  0  0  0  0
   18.5335    1.4210   13.8908 C   0  0  1  0  0  0  0  0  0  0  0  0
   22.1903    4.6239   17.4191 O   0  0  0  0  0  0  0  0  0  0  0  0
   20.0392    1.2672   13.6746 C   0  0  0  0  0  0  0  0  0  0  0  0
   24.7061    6.8685   15.9669 O   0  0  0  0  0  0  0  0  0  0  0  0
   20.7285    2.6019   13.9731 C   0  0  1  0  0  0  0  0  0  0  0  0
   22.3417    8.5036   15.9878 O   0  0  0  0  0  0  0  0  0  0  0  0
   20.4002    3.1523   15.3663 C   0  0  2  0  0  0  0  0  0  0  0  0
   17.1997    3.0557   19.7544 O   0  0  0  0  0  0  0  0  0  0  0  0
   21.0016    5.0585   16.7330 C   0  0  1  0  0  0  0  0  0  0  0  0
   15.2020    4.6707   19.1230 O   0  0  0  0  0  0  0  0  0  0  0  0
   23.4166    4.9878   16.7626 C   0  0  2  0  0  0  0  0  0  0  0  0
   24.5985    4.4599   17.5793 C   0  0  0  0  0  0  0  0  0  0  0  0
   23.5168    6.5118   16.6763 C   0  0  2  0  0  0  0  0  0  0  0  0
   22.2998    7.0735   15.9384 C   0  0  1  0  0  0  0  0  0  0  0  0
   21.0054    6.5845   16.5934 C   0  0  1  0  0  0  0  0  0  0  0  0
   17.5642    4.2142   19.0004 C   0  0  2  0  0  0  0  0  0  0  0  0
   16.4905    5.2906   19.1291 C   0  0  1  0  0  0  0  0  0  0  0  0
  1  3  1  0  0  0  0
  4  1  1  1  0  0  0
  4  6  1  0  0  0  0
  4 31  1  0  0  0  0
  6  7  1  0  0  0  0
  7  9  1  6  0  0  0
  7 30  1  0  0  0  0
  8 26  1  0  0  0  0
 10  9  1  1  0  0  0
 10 13  1  0  0  0  0
 10 21  1  0  0  0  0
 13 12  1  6  0  0  0
 13 15  1  0  0  0  0
 15  2  1  1  0  0  0
 15 17  1  0  0  0  0
 16 25  1  0  0  0  0
 16 23  1  0  0  0  0
 17 19  1  0  0  0  0
 19  5  1  1  0  0  0
 19 21  1  0  0  0  0
 21 14  1  6  0  0  0
 23 14  1  6  0  0  0
 23 29  1  0  0  0  0
 25 26  1  1  0  0  0
 25 27  1  0  0  0  0
 27 18  1  6  0  0  0
 27 28  1  0  0  0  0
 28 20  1  1  0  0  0
 28 29  1  0  0  0  0
 29 11  1  6  0  0  0
 30 22  1  1  0  0  0
 30 31  1  0  0  0  0
 31 24  1  6  0  0  0
M  END
>  <CHROM.1>
-57.65328184,-62.00193272,-88.85884550,84.42967224,66.98912309,70.85000824
19.90952008,4.45039602,16.57263112,2.97915284,-0.30225241,-2.53797796

>  <Name>
ligand

>  <RI>
0

>  <Rbt.Current_Directory>
/home/itssahil/PROJECTS/Mol_Feturizer/New_Systems/rnas/3DVV

>  <Rbt.Executable>
rbdock ($Id: //depot/dev/client3/rdock/2013.1/src/exe/rbdock.cxx#4 $)

>  <Rbt.Library>
libRbt.so (2013.1, Build901 2013/11/27)

>  <Rbt.Parameter_File>
/export/apps/rDock/src/rDock_2013.1_src/data/scripts/dock_solv.prm

>  <Rbt.Receptor>
prm/pocket_docking_2.prm

>  <SCORE>
-8.94784

>  <SCORE.INTER>
-7.28642

>  <SCORE.INTER.CONST>
1

>  <SCORE.INTER.POLAR>
0

>  <SCORE.INTER.ROT>
6

>  <SCORE.INTER.SOLV>
24.555

>  <SCORE.INTER.VDW>
-20.6426

>  <SCORE.INTER.norm>
-0.235046

>  <SCORE.INTRA>
-1.66301

>  <SCORE.INTRA.DIHEDRAL>
-3.90751

>  <SCORE.INTRA.DIHEDRAL.0>
10.8172

>  <SCORE.INTRA.POLAR>
0

>  <SCORE.INTRA.POLAR.0>
0

>  <SCORE.INTRA.REPUL>
0

>  <SCORE.INTRA.REPUL.0>
0

>  <SCORE.INTRA.SOLV>
-0.544037

>  <SCORE.INTRA.SOLV.lig_0>
-80.3833

>  <SCORE.INTRA.VDW>
0.562758

>  <SCORE.INTRA.VDW.0>
-4.63762

>  <SCORE.INTRA.norm>
-0.0536456

>  <SCORE.RESTR>
0.00159435

>  <SCORE.RESTR.CAVITY>
0.00159435

>  <SCORE.RESTR.norm>
5.14308e-05

>  <SCORE.SYSTEM>
0

>  <SCORE.SYSTEM.CONST>
0

>  <SCORE.SYSTEM.DIHEDRAL>
0

>  <SCORE.SYSTEM.SOLV>
0

>  <SCORE.SYSTEM.norm>
0

>  <SCORE.heavy>
31

>  <SCORE.norm>
-0.28864

>  <RMSD>
0.550

$$$$
ligand
 OpenBabel11021811473D
libRbt.so/2013.1/901 2013/11/27
 31 33  0  0  0  0  0  0  0  0999 V2000
   17.9868    7.2939   18.8335 C   0  0  0  0  0  0  0  0  0  0  0  0
   17.5277    0.2548   13.6698 N   0  0  0  0  0  0  0  0  0  0  0  0
   17.3750    8.0850   19.8575 O   0  0  0  0  0  0  0  0  0  0  0  0
   17.0173    6.2107   18.3538 C   0  0  1  0  0  0  0  0  0  0  0  0
   21.9304    2.3713   13.8713 N   0  0  0  0  0  0  0  0  0  0  0  0
   17.6399    5.4022   17.3364 O   0  0  0  0  0  0  0  0  0  0  0  0
   17.5619    4.0223   17.7360 C   0  0  1  0  0  0  0  0  0  0  0  0
   24.6360    3.0546   17.4456 N   0  0  0  0  0  0  0  0  0  0  0  0
   18.7041    3.2743   17.2900 O   0  0  0  0  0  0  0  0  0  0  0  0
   18.7760    3.1239   15.8644 C   0  0  2  0  0  0  0  0  0  0  0  0
   19.6629    6.9360   15.9133 N   0  0  0  0  0  0  0  0  0  0  0  0
   16.6913    1.9019   15.8066 O   0  0  0  0  0  0  0  0  0  0  0  0
   18.0869    1.8008   15.5109 C   0  0  1  0  0  0  0  0  0  0  0  0
   20.8318    4.4381   15.5074 O   0  0  0  0  0  0  0  0  0  0  0  0
   18.2648    1.4767   14.0262 C   0  0  1  0  0  0  0  0  0  0  0  0
   22.1058    4.6091   17.4787 O   0  0  0  0  0  0  0  0  0  0  0  0
   19.7535    1.2973   13.7276 C   0  0  0  0  0  0  0  0  0  0  0  0
   24.5208    6.9354   15.9847 O   0  0  0  0  0  0  0  0  0  0  0  0
   20.4870    2.6085   14.0249 C   0  0  1  0  0  0  0  0  0  0  0  0
   22.1104    8.4999   16.0699 O   0  0  0  0  0  0  0  0  0  0  0  0
   20.2436    3.1269   15.4475 C   0  0  2  0  0  0  0  0  0  0  0  0
   17.0981    2.9158   19.8851 O   0  0  0  0  0  0  0  0  0  0  0  0
   20.8896    5.0124   16.8226 C   0  0  1  0  0  0  0  0  0  0  0  0
   15.3092    4.8137   19.4430 O   0  0  0  0  0  0  0  0  0  0  0  0
   23.3056    5.0128   16.7970 C   0  0  2  0  0  0  0  0  0  0  0  0
   24.5209    4.5152   17.5832 C   0  0  0  0  0  0  0  0  0  0  0  0
   23.3590    6.5396   16.7185 C   0  0  2  0  0  0  0  0  0  0  0  0
   22.1095    7.0695   16.0120 C   0  0  1  0  0  0  0  0  0  0  0  0
   20.8453    6.5386   16.6929 C   0  0  1  0  0  0  0  0  0  0  0  0
   17.6024    4.0989   19.2608 C   0  0  2  0  0  0  0  0  0  0  0  0
   16.6613    5.2734   19.5113 C   0  0  1  0  0  0  0  0  0  0  0  0
  1  3  1  0  0  0  0
  4  1  1  1  0  0  0
  4  6  1  0  0  0  0
  4 31  1  0  0  0  0
  6  7  1  0  0  0  0
  7  9  1  6  0  0  0
  7 30  1  0  0  0  0
  8 26  1  0  0  0  0
 10  9  1  1  0  0  0
 10 13  1  0  0  0  0
 10 21  1  0  0  0  0
 13 12  1  6  0  0  0
 13 15  1  0  0  0  0
 15  2  1  1  0  0  0
 15 17  1  0  0  0  0
 16 25  1  0  0  0  0
 16 23  1  0  0  0  0
 17 19  1  0  0  0  0
 19  5  1  1  0  0  0
 19 21  1  0  0  0  0
 21 14  1  6  0  0  0
 23 14  1  6  0  0  0
 23 29  1  0  0  0  0
 25 26  1  1  0  0  0
 25 27  1  0  0  0  0
 27 18  1  6  0  0  0
 27 28  1  0  0  0  0
 28 20  1  1  0  0  0
 28 29  1  0  0  0  0
 29 11  1  6  0  0  0
 30 22  1  1  0  0  0
 30 31  1  0  0  0  0
 31 24  1  6  0  0  0
M  END
>  <CHROM.1>
-179.18106417,-67.36919781,-92.88515682,87.77942414,63.68911891,71.68997010
19.77330134,4.49762902,16.76183998,3.08976181,-0.33847452,-2.51159682

>  <Name>
ligand

>  <RI>
0

>  <Rbt.Current_Directory>
/home/itssahil/PROJECTS/Mol_Feturizer/New_Systems/rnas/3DVV

>  <Rbt.Executable>
rbdock ($Id: //depot/dev/client3/rdock/2013.1/src/exe/rbdock.cxx#4 $)

>  <Rbt.Library>
libRbt.so (2013.1, Build901 2013/11/27)

>  <Rbt.Parameter_File>
/export/apps/rDock/src/rDock_2013.1_src/data/scripts/dock_solv.prm

>  <Rbt.Receptor>
prm/pocket_docking_2.prm

>  <SCORE>
-9.32055

>  <SCORE.INTER>
-8.07536

>  <SCORE.INTER.CONST>
1

>  <SCORE.INTER.POLAR>
0

>  <SCORE.INTER.ROT>
6

>  <SCORE.INTER.SOLV>
24.382

>  <SCORE.INTER.VDW>
-21.1109

>  <SCORE.INTER.norm>
-0.260495

>  <SCORE.INTRA>
-1.24519

>  <SCORE.INTRA.DIHEDRAL>
-2.4206

>  <SCORE.INTRA.DIHEDRAL.0>
10.8172

>  <SCORE.INTRA.POLAR>
0

>  <SCORE.INTRA.POLAR.0>
0

>  <SCORE.INTRA.REPUL>
0

>  <SCORE.INTRA.REPUL.0>
0

>  <SCORE.INTRA.SOLV>
-1.709

>  <SCORE.INTRA.SOLV.lig_0>
-80.3833

>  <SCORE.INTRA.VDW>
0.819606

>  <SCORE.INTRA.VDW.0>
-4.63762

>  <SCORE.INTRA.norm>
-0.0401675

>  <SCORE.RESTR>
0

>  <SCORE.RESTR.CAVITY>
0

>  <SCORE.RESTR.norm>
0

>  <SCORE.SYSTEM>
0

>  <SCORE.SYSTEM.CONST>
0

>  <SCORE.SYSTEM.DIHEDRAL>
0

>  <SCORE.SYSTEM.SOLV>
0

>  <SCORE.SYSTEM.norm>
0

>  <SCORE.heavy>
31

>  <SCORE.norm>
-0.300663

>  <RMSD>
0.613

$$$$
ligand
 OpenBabel11021811473D
libRbt.so/2013.1/901 2013/11/27
 31 33  0  0  0  0  0  0  0  0999 V2000
   17.9755    7.3311   18.7906 C   0  0  0  0  0  0  0  0  0  0  0  0
   17.5240    0.2665   13.6806 N   0  0  0  0  0  0  0  0  0  0  0  0
   17.3831    8.0755   19.8601 O   0  0  0  0  0  0  0  0  0  0  0  0
   17.0177    6.2351   18.3168 C   0  0  1  0  0  0  0  0  0  0  0  0
   21.9470    2.3426   13.8532 N   0  0  0  0  0  0  0  0  0  0  0  0
   17.6487    5.4280   17.3035 O   0  0  0  0  0  0  0  0  0  0  0  0
   17.5855    4.0495   17.7102 C   0  0  1  0  0  0  0  0  0  0  0  0
   24.6055    2.7767   17.3707 N   0  0  0  0  0  0  0  0  0  0  0  0
   18.7355    3.3114   17.2678 O   0  0  0  0  0  0  0  0  0  0  0  0
   18.8035    3.1458   15.8438 C   0  0  2  0  0  0  0  0  0  0  0  0
   19.9090    7.0277   15.8311 N   0  0  0  0  0  0  0  0  0  0  0  0
   16.7071    1.9433   15.8019 O   0  0  0  0  0  0  0  0  0  0  0  0
   18.1011    1.8258   15.5049 C   0  0  1  0  0  0  0  0  0  0  0  0
   20.8712    4.4365   15.4699 O   0  0  0  0  0  0  0  0  0  0  0  0
   18.2733    1.4849   14.0233 C   0  0  1  0  0  0  0  0  0  0  0  0
   22.1157    4.5194   17.4655 O   0  0  0  0  0  0  0  0  0  0  0  0
   19.7597    1.2882   13.7241 C   0  0  0  0  0  0  0  0  0  0  0  0
   24.7473    6.6196   16.0024 O   0  0  0  0  0  0  0  0  0  0  0  0
   20.5063    2.5952   14.0068 C   0  0  1  0  0  0  0  0  0  0  0  0
   22.4760    8.3818   16.0251 O   0  0  0  0  0  0  0  0  0  0  0  0
   20.2704    3.1304   15.4244 C   0  0  2  0  0  0  0  0  0  0  0  0
   17.1340    2.9493   19.8652 O   0  0  0  0  0  0  0  0  0  0  0  0
   20.9510    5.0170   16.7812 C   0  0  1  0  0  0  0  0  0  0  0  0
   15.3248    4.8255   19.4137 O   0  0  0  0  0  0  0  0  0  0  0  0
   23.3586    4.8141   16.8054 C   0  0  2  0  0  0  0  0  0  0  0  0
   24.5117    4.2239   17.6205 C   0  0  0  0  0  0  0  0  0  0  0  0
   23.5419    6.3301   16.7154 C   0  0  2  0  0  0  0  0  0  0  0  0
   22.3557    6.9561   15.9790 C   0  0  1  0  0  0  0  0  0  0  0  0
   21.0380    6.5401   16.6381 C   0  0  1  0  0  0  0  0  0  0  0  0
   17.6255    4.1344   19.2346 C   0  0  2  0  0  0  0  0  0  0  0  0
   16.6719    5.3001   19.4792 C   0  0  1  0  0  0  0  0  0  0  0  0
  1  3  1  0  0  0  0
  4  1  1  1  0  0  0
  4  6  1  0  0  0  0
  4 31  1  0  0  0  0
  6  7  1  0  0  0  0
  7  9  1  6  0  0  0
  7 30  1  0  0  0  0
  8 26  1  0  0  0  0
 10  9  1  1  0  0  0
 10 13  1  0  0  0  0
 10 21  1  0  0  0  0
 13 12  1  6  0  0  0
 13 15  1  0  0  0  0
 15  2  1  1  0  0  0
 15 17  1  0  0  0  0
 16 25  1  0  0  0  0
 16 23  1  0  0  0  0
 17 19  1  0  0  0  0
 19  5  1  1  0  0  0
 19 21  1  0  0  0  0
 21 14  1  6  0  0  0
 23 14  1  6  0  0  0
 23 29  1  0  0  0  0
 25 26  1  1  0  0  0
 25 27  1  0  0  0  0
 27 18  1  6  0  0  0
 27 28  1  0  0  0  0
 28 20  1  1  0  0  0
 28 29  1  0  0  0  0
 29 11  1  6  0  0  0
 30 22  1  1  0  0  0
 30 31  1  0  0  0  0
 31 24  1  6  0  0  0
M  END
>  <CHROM.1>
-176.08674066,-67.81046543,-91.57678130,83.07245555,64.38784859,78.39978599
19.83393602,4.45825427,16.74029979,-3.13001741,-0.31997423,-2.51117613

>  <Name>
ligand

>  <RI>
0

>  <Rbt.Current_Directory>
/home/itssahil/PROJECTS/Mol_Feturizer/New_Systems/rnas/3DVV

>  <Rbt.Executable>
rbdock ($Id: //depot/dev/client3/rdock/2013.1/src/exe/rbdock.cxx#4 $)

>  <Rbt.Library>
libRbt.so (2013.1, Build901 2013/11/27)

>  <Rbt.Parameter_File>
/export/apps/rDock/src/rDock_2013.1_src/data/scripts/dock_solv.prm

>  <Rbt.Receptor>
prm/pocket_docking_2.prm

>  <SCORE>
-9.019

>  <SCORE.INTER>
-7.55063

>  <SCORE.INTER.CONST>
1

>  <SCORE.INTER.POLAR>
0

>  <SCORE.INTER.ROT>
6

>  <SCORE.INTER.SOLV>
24.9947

>  <SCORE.INTER.VDW>
-20.9653

>  <SCORE.INTER.norm>
-0.243569

>  <SCORE.INTRA>
-1.46993

>  <SCORE.INTRA.DIHEDRAL>
-2.75769

>  <SCORE.INTRA.DIHEDRAL.0>
10.8172

>  <SCORE.INTRA.POLAR>
0

>  <SCORE.INTRA.POLAR.0>
0

>  <SCORE.INTRA.REPUL>
0

>  <SCORE.INTRA.REPUL.0>
0

>  <SCORE.INTRA.SOLV>
-2.24319

>  <SCORE.INTRA.SOLV.lig_0>
-80.3833

>  <SCORE.INTRA.VDW>
1.03051

>  <SCORE.INTRA.VDW.0>
-4.63762

>  <SCORE.INTRA.norm>
-0.0474172

>  <SCORE.RESTR>
0.00155991

>  <SCORE.RESTR.CAVITY>
0.00155991

>  <SCORE.RESTR.norm>
5.03197e-05

>  <SCORE.SYSTEM>
0

>  <SCORE.SYSTEM.CONST>
0

>  <SCORE.SYSTEM.DIHEDRAL>
0

>  <SCORE.SYSTEM.SOLV>
0

>  <SCORE.SYSTEM.norm>
0

>  <SCORE.heavy>
31

>  <SCORE.norm>
-0.290935

>  <RMSD>
0.626

$$$$
ligand
 OpenBabel11021811473D
libRbt.so/2013.1/901 2013/11/27
 31 33  0  0  0  0  0  0  0  0999 V2000
   17.9722    7.3460   18.8519 C   0  0  0  0  0  0  0  0  0  0  0  0
   17.5835    0.2878   13.7018 N   0  0  0  0  0  0  0  0  0  0  0  0
   17.3629    8.1018   19.9038 O   0  0  0  0  0  0  0  0  0  0  0  0
   17.0148    6.2567   18.3620 C   0  0  1  0  0  0  0  0  0  0  0  0
   21.9765    2.4237   13.9094 N   0  0  0  0  0  0  0  0  0  0  0  0
   17.6521    5.4543   17.3489 O   0  0  0  0  0  0  0  0  0  0  0  0
   17.5804    4.0733   17.7457 C   0  0  1  0  0  0  0  0  0  0  0  0
   24.6336    3.0348   17.4763 N   0  0  0  0  0  0  0  0  0  0  0  0
   18.7317    3.3341   17.3086 O   0  0  0  0  0  0  0  0  0  0  0  0
   18.8104    3.1754   15.8843 C   0  0  2  0  0  0  0  0  0  0  0  0
   19.7466    7.0195   15.9243 N   0  0  0  0  0  0  0  0  0  0  0  0
   16.7310    1.9445   15.8249 O   0  0  0  0  0  0  0  0  0  0  0  0
   18.1283    1.8473   15.5358 C   0  0  1  0  0  0  0  0  0  0  0  0
   20.8624    4.4958   15.5282 O   0  0  0  0  0  0  0  0  0  0  0  0
   18.3140    1.5149   14.0540 C   0  0  1  0  0  0  0  0  0  0  0  0
   22.1318    4.6431   17.5043 O   0  0  0  0  0  0  0  0  0  0  0  0
   19.8046    1.3399   13.7629 C   0  0  0  0  0  0  0  0  0  0  0  0
   24.6031    6.9131   16.0156 O   0  0  0  0  0  0  0  0  0  0  0  0
   20.5315    2.6558   14.0554 C   0  0  1  0  0  0  0  0  0  0  0  0
   22.2271    8.5299   16.0878 O   0  0  0  0  0  0  0  0  0  0  0  0
   20.2798    3.1818   15.4737 C   0  0  2  0  0  0  0  0  0  0  0  0
   17.1055    2.9601   19.8888 O   0  0  0  0  0  0  0  0  0  0  0  0
   20.9273    5.0715   16.8424 C   0  0  1  0  0  0  0  0  0  0  0  0
   15.3070    4.8459   19.4338 O   0  0  0  0  0  0  0  0  0  0  0  0
   23.3429    5.0191   16.8267 C   0  0  2  0  0  0  0  0  0  0  0  0
   24.5438    4.4968   17.6189 C   0  0  0  0  0  0  0  0  0  0  0  0
   23.4299    6.5442   16.7454 C   0  0  2  0  0  0  0  0  0  0  0  0
   22.1951    7.0998   16.0327 C   0  0  1  0  0  0  0  0  0  0  0  0
   20.9169    6.5980   16.7096 C   0  0  1  0  0  0  0  0  0  0  0  0
   17.6068    4.1476   19.2709 C   0  0  2  0  0  0  0  0  0  0  0  0
   16.6552    5.3151   19.5148 C   0  0  1  0  0  0  0  0  0  0  0  0
  1  3  1  0  0  0  0
  4  1  1  1  0  0  0
  4  6  1  0  0  0  0
  4 31  1  0  0  0  0
  6  7  1  0  0  0  0
  7  9  1  6  0  0  0
  7 30  1  0  0  0  0
  8 26  1  0  0  0  0
 10  9  1  1  0  0  0
 10 13  1  0  0  0  0
 10 21  1  0  0  0  0
 13 12  1  6  0  0  0
 13 15  1  0  0  0  0
 15  2  1  1  0  0  0
 15 17  1  0  0  0  0
 16 25  1  0  0  0  0
 16 23  1  0  0  0  0
 17 19  1  0  0  0  0
 19  5  1  1  0  0  0
 19 21  1  0  0  0  0
 21 14  1  6  0  0  0
 23 14  1  6  0  0  0
 23 29  1  0  0  0  0
 25 26  1  1  0  0  0
 25 27  1  0  0  0  0
 27 18  1  6  0  0  0
 27 28  1  0  0  0  0
 28 20  1  1  0  0  0
 28 29  1  0  0  0  0
 29 11  1  6  0  0  0
 30 22  1  1  0  0  0
 30 31  1  0  0  0  0
 31 24  1  6  0  0  0
M  END
>  <CHROM.1>
-177.19088358,-67.94214478,-92.53559878,86.12340637,64.43135673,72.12053553
19.80840731,4.53472649,16.78311083,3.10784338,-0.33394571,-2.51552399

>  <Name>
ligand

>  <RI>
0

>  <Rbt.Current_Directory>
/home/itssahil/PROJECTS/Mol_Feturizer/New_Systems/rnas/3DVV

>  <Rbt.Executable>
rbdock ($Id: //depot/dev/client3/rdock/2013.1/src/exe/rbdock.cxx#4 $)

>  <Rbt.Library>
libRbt.so (2013.1, Build901 2013/11/27)

>  <Rbt.Parameter_File>
/export/apps/rDock/src/rDock_2013.1_src/data/scripts/dock_solv.prm

>  <Rbt.Receptor>
prm/pocket_docking_2.prm

>  <SCORE>
-9.21596

>  <SCORE.INTER>
-7.90579

>  <SCORE.INTER.CONST>
1

>  <SCORE.INTER.POLAR>
0

>  <SCORE.INTER.ROT>
6

>  <SCORE.INTER.SOLV>
24.7061

>  <SCORE.INTER.VDW>
-21.1059

>  <SCORE.INTER.norm>
-0.255025

>  <SCORE.INTRA>
-1.3217

>  <SCORE.INTRA.DIHEDRAL>
-2.66255

>  <SCORE.INTRA.DIHEDRAL.0>
10.8172

>  <SCORE.INTRA.POLAR>
0

>  <SCORE.INTRA.POLAR.0>
0

>  <SCORE.INTRA.REPUL>
0

>  <SCORE.INTRA.REPUL.0>
0

>  <SCORE.INTRA.SOLV>
-1.8432

>  <SCORE.INTRA.SOLV.lig_0>
-80.3833

>  <SCORE.INTRA.VDW>
0.931178

>  <SCORE.INTRA.VDW.0>
-4.63762

>  <SCORE.INTRA.norm>
-0.0426354

>  <SCORE.RESTR>
0.0115257

>  <SCORE.RESTR.CAVITY>
0.0115257

>  <SCORE.RESTR.norm>
0.000371798

>  <SCORE.SYSTEM>
0

>  <SCORE.SYSTEM.CONST>
0

>  <SCORE.SYSTEM.DIHEDRAL>
0

>  <SCORE.SYSTEM.SOLV>
0

>  <SCORE.SYSTEM.norm>
0

>  <SCORE.heavy>
31

>  <SCORE.norm>
-0.297289

>  <RMSD>
0.635

$$$$
ligand
 OpenBabel11021811473D
libRbt.so/2013.1/901 2013/11/27
 31 33  0  0  0  0  0  0  0  0999 V2000
   17.0059    7.3486   18.3485 C   0  0  0  0  0  0  0  0  0  0  0  0
   17.4412    0.1848   13.7515 N   0  0  0  0  0  0  0  0  0  0  0  0
   18.3141    7.0745   18.8607 O   0  0  0  0  0  0  0  0  0  0  0  0
   16.2706    6.0392   18.0518 C   0  0  1  0  0  0  0  0  0  0  0  0
   21.7855    2.4232   13.8936 N   0  0  0  0  0  0  0  0  0  0  0  0
   17.0159    5.2557   17.0994 O   0  0  0  0  0  0  0  0  0  0  0  0
   17.2423    3.9493   17.6577 C   0  0  1  0  0  0  0  0  0  0  0  0
   25.3217    3.6326   16.9585 N   0  0  0  0  0  0  0  0  0  0  0  0
   18.5010    3.4015   17.2354 O   0  0  0  0  0  0  0  0  0  0  0  0
   18.5918    3.1860   15.8193 C   0  0  2  0  0  0  0  0  0  0  0  0
   20.0021    7.2428   15.6698 N   0  0  0  0  0  0  0  0  0  0  0  0
   16.5400    1.9083   15.7999 O   0  0  0  0  0  0  0  0  0  0  0  0
   17.9409    1.8301   15.5224 C   0  0  1  0  0  0  0  0  0  0  0  0
   20.6168    4.5353   15.4196 O   0  0  0  0  0  0  0  0  0  0  0  0
   18.1428    1.4411   14.0565 C   0  0  1  0  0  0  0  0  0  0  0  0
   21.7775    4.5130   17.4667 O   0  0  0  0  0  0  0  0  0  0  0  0
   19.6386    1.2870   13.7807 C   0  0  0  0  0  0  0  0  0  0  0  0
   24.7286    6.1916   16.0703 O   0  0  0  0  0  0  0  0  0  0  0  0
   20.3349    2.6295   14.0223 C   0  0  1  0  0  0  0  0  0  0  0  0
   22.7193    8.2439   15.9446 O   0  0  0  0  0  0  0  0  0  0  0  0
   20.0632    3.2078   15.4164 C   0  0  2  0  0  0  0  0  0  0  0  0
   17.0905    3.0455   19.9420 O   0  0  0  0  0  0  0  0  0  0  0  0
   20.7206    5.1411   16.7177 C   0  0  1  0  0  0  0  0  0  0  0  0
   14.9297    4.4678   19.3893 O   0  0  0  0  0  0  0  0  0  0  0  0
   23.0751    4.6163   16.8560 C   0  0  2  0  0  0  0  0  0  0  0  0
   24.1026    3.9022   17.7375 C   0  0  0  0  0  0  0  0  0  0  0  0
   23.4666    6.0901   16.7353 C   0  0  2  0  0  0  0  0  0  0  0  0
   22.4081    6.8467   15.9300 C   0  0  1  0  0  0  0  0  0  0  0  0
   21.0200    6.6333   16.5394 C   0  0  1  0  0  0  0  0  0  0  0  0
   17.3149    4.2203   19.1590 C   0  0  2  0  0  0  0  0  0  0  0  0
   16.1567    5.1993   19.3272 C   0  0  1  0  0  0  0  0  0  0  0  0
  1  3  1  0  0  0  0
  4  1  1  1  0  0  0
  4  6  1  0  0  0  0
  4 31  1  0  0  0  0
  6  7  1  0  0  0  0
  7  9  1  6  0  0  0
  7 30  1  0  0  0  0
  8 26  1  0  0  0  0
 10  9  1  1  0  0  0
 10 13  1  0  0  0  0
 10 21  1  0  0  0  0
 13 12  1  6  0  0  0
 13 15  1  0  0  0  0
 15  2  1  1  0  0  0
 15 17  1  0  0  0  0
 16 25  1  0  0  0  0
 16 23  1  0  0  0  0
 17 19  1  0  0  0  0
 19  5  1  1  0  0  0
 19 21  1  0  0  0  0
 21 14  1  6  0  0  0
 23 14  1  6  0  0  0
 23 29  1  0  0  0  0
 25 26  1  1  0  0  0
 25 27  1  0  0  0  0
 27 18  1  6  0  0  0
 27 28  1  0  0  0  0
 28 20  1  1  0  0  0
 28 29  1  0  0  0  0
 29 11  1  6  0  0  0
 30 22  1  1  0  0  0
 30 31  1  0  0  0  0
 31 24  1  6  0  0  0
M  END
>  <CHROM.1>
-58.60433487,-63.02646556,-83.59419934,72.19357843,67.28602272,162.60285750
19.67197970,4.39959428,16.65245327,3.08868996,-0.29949558,-2.51195312

>  <Name>
ligand

>  <RI>
0

>  <Rbt.Current_Directory>
/home/itssahil/PROJECTS/Mol_Feturizer/New_Systems/rnas/3DVV

>  <Rbt.Executable>
rbdock ($Id: //depot/dev/client3/rdock/2013.1/src/exe/rbdock.cxx#4 $)

>  <Rbt.Library>
libRbt.so (2013.1, Build901 2013/11/27)

>  <Rbt.Parameter_File>
/export/apps/rDock/src/rDock_2013.1_src/data/scripts/dock_solv.prm

>  <Rbt.Receptor>
prm/pocket_docking_2.prm

>  <SCORE>
-9.52438

>  <SCORE.INTER>
-6.98912

>  <SCORE.INTER.CONST>
1

>  <SCORE.INTER.POLAR>
0

>  <SCORE.INTER.ROT>
6

>  <SCORE.INTER.SOLV>
20.7554

>  <SCORE.INTER.VDW>
-19.1779

>  <SCORE.INTER.norm>
-0.225456

>  <SCORE.INTRA>
-2.54016

>  <SCORE.INTRA.DIHEDRAL>
-6.09935

>  <SCORE.INTRA.DIHEDRAL.0>
10.8172

>  <SCORE.INTRA.POLAR>
0

>  <SCORE.INTRA.POLAR.0>
0

>  <SCORE.INTRA.REPUL>
0

>  <SCORE.INTRA.REPUL.0>
0

>  <SCORE.INTRA.SOLV>
-1.58994

>  <SCORE.INTRA.SOLV.lig_0>
-80.3833

>  <SCORE.INTRA.VDW>
1.30449

>  <SCORE.INTRA.VDW.0>
-4.63762

>  <SCORE.INTRA.norm>
-0.0819406

>  <SCORE.RESTR>
0.00489784

>  <SCORE.RESTR.CAVITY>
0.00489784

>  <SCORE.RESTR.norm>
0.000157995

>  <SCORE.SYSTEM>
0

>  <SCORE.SYSTEM.CONST>
0

>  <SCORE.SYSTEM.DIHEDRAL>
0

>  <SCORE.SYSTEM.SOLV>
0

>  <SCORE.SYSTEM.norm>
0

>  <SCORE.heavy>
31

>  <SCORE.norm>
-0.307238

>  <RMSD>
0.656

$$$$
ligand
 OpenBabel11021811473D
libRbt.so/2013.1/901 2013/11/27
 31 33  0  0  0  0  0  0  0  0999 V2000
   17.4490    7.4459   18.4050 C   0  0  0  0  0  0  0  0  0  0  0  0
   17.4352    0.2305   13.7456 N   0  0  0  0  0  0  0  0  0  0  0  0
   18.7369    7.0498   18.8880 O   0  0  0  0  0  0  0  0  0  0  0  0
   16.6150    6.2115   18.0532 C   0  0  1  0  0  0  0  0  0  0  0  0
   21.8808    2.2607   13.8834 N   0  0  0  0  0  0  0  0  0  0  0  0
   17.3159    5.3953   17.0945 O   0  0  0  0  0  0  0  0  0  0  0  0
   17.4191    4.0593   17.6184 C   0  0  1  0  0  0  0  0  0  0  0  0
   25.5146    3.5727   17.0171 N   0  0  0  0  0  0  0  0  0  0  0  0
   18.6381    3.4201   17.2079 O   0  0  0  0  0  0  0  0  0  0  0  0
   18.7221    3.1895   15.7938 C   0  0  2  0  0  0  0  0  0  0  0  0
   20.2250    7.1560   15.5894 N   0  0  0  0  0  0  0  0  0  0  0  0
   16.6119    2.0109   15.7782 O   0  0  0  0  0  0  0  0  0  0  0  0
   18.0081    1.8639   15.5054 C   0  0  1  0  0  0  0  0  0  0  0  0
   20.8101    4.4378   15.3898 O   0  0  0  0  0  0  0  0  0  0  0  0
   18.1950    1.4543   14.0431 C   0  0  1  0  0  0  0  0  0  0  0  0
   21.9481    4.4351   17.4496 O   0  0  0  0  0  0  0  0  0  0  0  0
   19.6825    1.2270   13.7728 C   0  0  0  0  0  0  0  0  0  0  0  0
   24.9339    6.0562   16.0591 O   0  0  0  0  0  0  0  0  0  0  0  0
   20.4413    2.5367   14.0063 C   0  0  1  0  0  0  0  0  0  0  0  0
   22.9507    8.1295   15.8782 O   0  0  0  0  0  0  0  0  0  0  0  0
   20.1939    3.1381   15.3951 C   0  0  2  0  0  0  0  0  0  0  0  0
   17.1368    3.1081   19.8708 O   0  0  0  0  0  0  0  0  0  0  0  0
   20.9070    5.0633   16.6790 C   0  0  1  0  0  0  0  0  0  0  0  0
   15.1158    4.7212   19.3131 O   0  0  0  0  0  0  0  0  0  0  0  0
   23.2534    4.5133   16.8518 C   0  0  2  0  0  0  0  0  0  0  0  0
   24.2627    3.8017   17.7559 C   0  0  0  0  0  0  0  0  0  0  0  0
   23.6637    5.9803   16.7116 C   0  0  2  0  0  0  0  0  0  0  0  0
   22.6231    6.7360   15.8826 C   0  0  1  0  0  0  0  0  0  0  0  0
   21.2260    6.5488   16.4800 C   0  0  1  0  0  0  0  0  0  0  0  0
   17.4771    4.2813   19.1284 C   0  0  2  0  0  0  0  0  0  0  0  0
   16.4005    5.3488   19.3000 C   0  0  1  0  0  0  0  0  0  0  0  0
  1  3  1  0  0  0  0
  4  1  1  1  0  0  0
  4  6  1  0  0  0  0
  4 31  1  0  0  0  0
  6  7  1  0  0  0  0
  7  9  1  6  0  0  0
  7 30  1  0  0  0  0
  8 26  1  0  0  0  0
 10  9  1  1  0  0  0
 10 13  1  0  0  0  0
 10 21  1  0  0  0  0
 13 12  1  6  0  0  0
 13 15  1  0  0  0  0
 15  2  1  1  0  0  0
 15 17  1  0  0  0  0
 16 25  1  0  0  0  0
 16 23  1  0  0  0  0
 17 19  1  0  0  0  0
 19  5  1  1  0  0  0
 19 21  1  0  0  0  0
 21 14  1  6  0  0  0
 23 14  1  6  0  0  0
 23 29  1  0  0  0  0
 25 26  1  1  0  0  0
 25 27  1  0  0  0  0
 27 18  1  6  0  0  0
 27 28  1  0  0  0  0
 28 20  1  1  0  0  0
 28 29  1  0  0  0  0
 29 11  1  6  0  0  0
 30 22  1  1  0  0  0
 30 31  1  0  0  0  0
 31 24  1  6  0  0  0
M  END
>  <CHROM.1>
-56.32254210,-65.35825453,-84.99409549,74.47052316,65.70319464,165.76029045
19.85089406,4.39071961,16.63182005,3.09600445,-0.27974018,-2.50101250

>  <Name>
ligand

>  <RI>
0

>  <Rbt.Current_Directory>
/home/itssahil/PROJECTS/Mol_Feturizer/New_Systems/rnas/3DVV

>  <Rbt.Executable>
rbdock ($Id: //depot/dev/client3/rdock/2013.1/src/exe/rbdock.cxx#4 $)

>  <Rbt.Library>
libRbt.so (2013.1, Build901 2013/11/27)

>  <Rbt.Parameter_File>
/export/apps/rDock/src/rDock_2013.1_src/data/scripts/dock_solv.prm

>  <Rbt.Receptor>
prm/pocket_docking_2.prm

>  <SCORE>
-9.58198

>  <SCORE.INTER>
-7.21644

>  <SCORE.INTER.CONST>
1

>  <SCORE.INTER.POLAR>
0

>  <SCORE.INTER.ROT>
6

>  <SCORE.INTER.SOLV>
21.2179

>  <SCORE.INTER.VDW>
-19.4836

>  <SCORE.INTER.norm>
-0.232788

>  <SCORE.INTRA>
-2.36755

>  <SCORE.INTRA.DIHEDRAL>
-5.85464

>  <SCORE.INTRA.DIHEDRAL.0>
10.8172

>  <SCORE.INTRA.POLAR>
0

>  <SCORE.INTRA.POLAR.0>
0

>  <SCORE.INTRA.REPUL>
0

>  <SCORE.INTRA.REPUL.0>
0

>  <SCORE.INTRA.SOLV>
-1.33534

>  <SCORE.INTRA.SOLV.lig_0>
-80.3833

>  <SCORE.INTRA.VDW>
1.22743

>  <SCORE.INTRA.VDW.0>
-4.63762

>  <SCORE.INTRA.norm>
-0.0763727

>  <SCORE.RESTR>
0.00201042

>  <SCORE.RESTR.CAVITY>
0.00201042

>  <SCORE.RESTR.norm>
6.48522e-05

>  <SCORE.SYSTEM>
0

>  <SCORE.SYSTEM.CONST>
0

>  <SCORE.SYSTEM.DIHEDRAL>
0

>  <SCORE.SYSTEM.SOLV>
0

>  <SCORE.SYSTEM.norm>
0

>  <SCORE.heavy>
31

>  <SCORE.norm>
-0.309096

>  <RMSD>
0.667

$$$$
ligand
 OpenBabel11021811473D
libRbt.so/2013.1/901 2013/11/27
 31 33  0  0  0  0  0  0  0  0999 V2000
   17.6261    7.4877   18.8890 C   0  0  0  0  0  0  0  0  0  0  0  0
   17.2038    0.3622   13.9587 N   0  0  0  0  0  0  0  0  0  0  0  0
   17.8630    8.3794   17.7946 O   0  0  0  0  0  0  0  0  0  0  0  0
   16.7316    6.3290   18.4413 C   0  0  1  0  0  0  0  0  0  0  0  0
   21.6949    2.2941   13.9245 N   0  0  0  0  0  0  0  0  0  0  0  0
   17.3936    5.5560   17.4211 O   0  0  0  0  0  0  0  0  0  0  0  0
   17.4268    4.1795   17.8382 C   0  0  1  0  0  0  0  0  0  0  0  0
   25.4778    3.5741   16.9794 N   0  0  0  0  0  0  0  0  0  0  0  0
   18.6131    3.5131   17.3782 O   0  0  0  0  0  0  0  0  0  0  0  0
   18.6358    3.2855   15.9613 C   0  0  2  0  0  0  0  0  0  0  0  0
   20.1995    7.2173   15.6851 N   0  0  0  0  0  0  0  0  0  0  0  0
   16.5012    2.1534   16.0268 O   0  0  0  0  0  0  0  0  0  0  0  0
   17.8819    1.9767   15.6983 C   0  0  1  0  0  0  0  0  0  0  0  0
   20.7331    4.4891   15.4776 O   0  0  0  0  0  0  0  0  0  0  0  0
   18.0016    1.5680   14.2287 C   0  0  1  0  0  0  0  0  0  0  0  0
   21.9302    4.4732   17.5036 O   0  0  0  0  0  0  0  0  0  0  0  0
   19.4718    1.3092   13.8989 C   0  0  0  0  0  0  0  0  0  0  0  0
   24.9011    6.0399   16.0219 O   0  0  0  0  0  0  0  0  0  0  0  0
   20.2680    2.6012   14.1053 C   0  0  1  0  0  0  0  0  0  0  0  0
   22.9483    8.1457   15.8916 O   0  0  0  0  0  0  0  0  0  0  0  0
   20.0892    3.2032   15.5043 C   0  0  2  0  0  0  0  0  0  0  0  0
   17.0880    3.0696   20.0087 O   0  0  0  0  0  0  0  0  0  0  0  0
   20.8778    5.1166   16.7614 C   0  0  1  0  0  0  0  0  0  0  0  0
   15.1538    4.8227   19.5803 O   0  0  0  0  0  0  0  0  0  0  0  0
   23.2187    4.5277   16.8680 C   0  0  2  0  0  0  0  0  0  0  0  0
   24.2417    3.8018   17.7449 C   0  0  0  0  0  0  0  0  0  0  0  0
   23.6492    5.9872   16.7111 C   0  0  2  0  0  0  0  0  0  0  0  0
   22.5978    6.7579   15.9101 C   0  0  1  0  0  0  0  0  0  0  0  0
   21.2156    6.5959   16.5483 C   0  0  1  0  0  0  0  0  0  0  0  0
   17.4903    4.2788   19.3609 C   0  0  2  0  0  0  0  0  0  0  0  0
   16.4688    5.3829   19.6164 C   0  0  1  0  0  0  0  0  0  0  0  0
  1  3  1  0  0  0  0
  4  1  1  1  0  0  0
  4  6  1  0  0  0  0
  4 31  1  0  0  0  0
  6  7  1  0  0  0  0
  7  9  1  6  0  0  0
  7 30  1  0  0  0  0
  8 26  1  0  0  0  0
 10  9  1  1  0  0  0
 10 13  1  0  0  0  0
 10 21  1  0  0  0  0
 13 12  1  6  0  0  0
 13 15  1  0  0  0  0
 15  2  1  1  0  0  0
 15 17  1  0  0  0  0
 16 25  1  0  0  0  0
 16 23  1  0  0  0  0
 17 19  1  0  0  0  0
 19  5  1  1  0  0  0
 19 21  1  0  0  0  0
 21 14  1  6  0  0  0
 23 14  1  6  0  0  0
 23 29  1  0  0  0  0
 25 26  1  1  0  0  0
 25 27  1  0  0  0  0
 27 18  1  6  0  0  0
 27 28  1  0  0  0  0
 28 20  1  1  0  0  0
 28 29  1  0  0  0  0
 29 11  1  6  0  0  0
 30 22  1  1  0  0  0
 30 31  1  0  0  0  0
 31 24  1  6  0  0  0
M  END
>  <CHROM.1>
62.86424834,-70.55038081,-85.08978500,74.79271116,64.86145911,166.90471330
19.77741121,4.49572744,16.72942591,3.12600191,-0.29207547,-2.55316060

>  <Name>
ligand

>  <RI>
0

>  <Rbt.Current_Directory>
/home/itssahil/PROJECTS/Mol_Feturizer/New_Systems/rnas/3DVV

>  <Rbt.Executable>
rbdock ($Id: //depot/dev/client3/rdock/2013.1/src/exe/rbdock.cxx#4 $)

>  <Rbt.Library>
libRbt.so (2013.1, Build901 2013/11/27)

>  <Rbt.Parameter_File>
/export/apps/rDock/src/rDock_2013.1_src/data/scripts/dock_solv.prm

>  <Rbt.Receptor>
prm/pocket_docking_2.prm

>  <SCORE>
-9.80132

>  <SCORE.INTER>
-7.48504

>  <SCORE.INTER.CONST>
1

>  <SCORE.INTER.POLAR>
0

>  <SCORE.INTER.ROT>
6

>  <SCORE.INTER.SOLV>
20.6945

>  <SCORE.INTER.VDW>
-19.4882

>  <SCORE.INTER.norm>
-0.241453

>  <SCORE.INTRA>
-2.33266

>  <SCORE.INTRA.DIHEDRAL>
-5.58334

>  <SCORE.INTRA.DIHEDRAL.0>
10.8172

>  <SCORE.INTRA.POLAR>
0

>  <SCORE.INTRA.POLAR.0>
0

>  <SCORE.INTRA.REPUL>
0

>  <SCORE.INTRA.REPUL.0>
0

>  <SCORE.INTRA.SOLV>
-1.92438

>  <SCORE.INTRA.SOLV.lig_0>
-80.3833

>  <SCORE.INTRA.VDW>
1.4212

>  <SCORE.INTRA.VDW.0>
-4.63762

>  <SCORE.INTRA.norm>
-0.075247

>  <SCORE.RESTR>
0.0163823

>  <SCORE.RESTR.CAVITY>
0.0163823

>  <SCORE.RESTR.norm>
0.00052846

>  <SCORE.SYSTEM>
0

>  <SCORE.SYSTEM.CONST>
0

>  <SCORE.SYSTEM.DIHEDRAL>
0

>  <SCORE.SYSTEM.SOLV>
0

>  <SCORE.SYSTEM.norm>
0

>  <SCORE.heavy>
31

>  <SCORE.norm>
-0.316171

>  <RMSD>
0.695

$$$$
ligand
 OpenBabel11021811473D
libRbt.so/2013.1/901 2013/11/27
 31 33  0  0  0  0  0  0  0  0999 V2000
   17.0907    7.4410   18.6087 C   0  0  0  0  0  0  0  0  0  0  0  0
   17.1874    0.3191   13.8922 N   0  0  0  0  0  0  0  0  0  0  0  0
   18.4036    7.1057   19.0698 O   0  0  0  0  0  0  0  0  0  0  0  0
   16.3115    6.1691   18.2648 C   0  0  1  0  0  0  0  0  0  0  0  0
   21.6374    2.3430   13.9671 N   0  0  0  0  0  0  0  0  0  0  0  0
   17.0304    5.3961   17.2839 O   0  0  0  0  0  0  0  0  0  0  0  0
   17.2119    4.0632   17.7938 C   0  0  1  0  0  0  0  0  0  0  0  0
   25.3289    3.6051   16.9530 N   0  0  0  0  0  0  0  0  0  0  0  0
   18.4517    3.4888   17.3509 O   0  0  0  0  0  0  0  0  0  0  0  0
   18.5120    3.2656   15.9344 C   0  0  2  0  0  0  0  0  0  0  0  0
   19.9971    7.2249   15.7506 N   0  0  0  0  0  0  0  0  0  0  0  0
   16.4002    2.0897   15.9475 O   0  0  0  0  0  0  0  0  0  0  0  0
   17.7915    1.9424   15.6508 C   0  0  1  0  0  0  0  0  0  0  0  0
   20.5947    4.5135   15.5024 O   0  0  0  0  0  0  0  0  0  0  0  0
   17.9537    1.5404   14.1835 C   0  0  1  0  0  0  0  0  0  0  0  0
   21.7965    4.4966   17.5257 O   0  0  0  0  0  0  0  0  0  0  0  0
   19.4362    1.3127   13.8875 C   0  0  0  0  0  0  0  0  0  0  0  0
   24.7260    6.1545   16.0611 O   0  0  0  0  0  0  0  0  0  0  0  0
   20.2005    2.6202   14.1152 C   0  0  1  0  0  0  0  0  0  0  0  0
   22.7237    8.2152   15.9651 O   0  0  0  0  0  0  0  0  0  0  0  0
   19.9770    3.2145   15.5111 C   0  0  2  0  0  0  0  0  0  0  0  0
   17.0283    3.0821   20.0436 O   0  0  0  0  0  0  0  0  0  0  0  0
   20.7274    5.1255   16.7949 C   0  0  1  0  0  0  0  0  0  0  0  0
   14.9173    4.5962   19.5447 O   0  0  0  0  0  0  0  0  0  0  0  0
   23.0818    4.5908   16.8884 C   0  0  2  0  0  0  0  0  0  0  0  0
   24.1238    3.8767   17.7527 C   0  0  0  0  0  0  0  0  0  0  0  0
   23.4773    6.0622   16.7519 C   0  0  2  0  0  0  0  0  0  0  0  0
   22.4061    6.8193   15.9642 C   0  0  1  0  0  0  0  0  0  0  0  0
   21.0296    6.6154   16.6027 C   0  0  1  0  0  0  0  0  0  0  0  0
   17.2928    4.2764   19.3040 C   0  0  2  0  0  0  0  0  0  0  0  0
   16.1685    5.2874   19.5086 C   0  0  1  0  0  0  0  0  0  0  0  0
  1  3  1  0  0  0  0
  4  1  1  1  0  0  0
  4  6  1  0  0  0  0
  4 31  1  0  0  0  0
  6  7  1  0  0  0  0
  7  9  1  6  0  0  0
  7 30  1  0  0  0  0
  8 26  1  0  0  0  0
 10  9  1  1  0  0  0
 10 13  1  0  0  0  0
 10 21  1  0  0  0  0
 13 12  1  6  0  0  0
 13 15  1  0  0  0  0
 15  2  1  1  0  0  0
 15 17  1  0  0  0  0
 16 25  1  0  0  0  0
 16 23  1  0  0  0  0
 17 19  1  0  0  0  0
 19  5  1  1  0  0  0
 19 21  1  0  0  0  0
 21 14  1  6  0  0  0
 23 14  1  6  0  0  0
 23 29  1  0  0  0  0
 25 26  1  1  0  0  0
 25 27  1  0  0  0  0
 27 18  1  6  0  0  0
 27 28  1  0  0  0  0
 28 20  1  1  0  0  0
 28 29  1  0  0  0  0
 29 11  1  6  0  0  0
 30 22  1  1  0  0  0
 30 31  1  0  0  0  0
 31 24  1  6  0  0  0
M  END
>  <CHROM.1>
-56.77990472,-65.72689561,-81.90457926,75.01187854,66.37271880,162.95748367
19.63239773,4.43766635,16.75568632,3.11850375,-0.30048757,-2.49417427

>  <Name>
ligand

>  <RI>
0

>  <Rbt.Current_Directory>
/home/itssahil/PROJECTS/Mol_Feturizer/New_Systems/rnas/3DVV

>  <Rbt.Executable>
rbdock ($Id: //depot/dev/client3/rdock/2013.1/src/exe/rbdock.cxx#4 $)

>  <Rbt.Library>
libRbt.so (2013.1, Build901 2013/11/27)

>  <Rbt.Parameter_File>
/export/apps/rDock/src/rDock_2013.1_src/data/scripts/dock_solv.prm

>  <Rbt.Receptor>
prm/pocket_docking_2.prm

>  <SCORE>
-9.71536

>  <SCORE.INTER>
-7.29797

>  <SCORE.INTER.CONST>
1

>  <SCORE.INTER.POLAR>
0

>  <SCORE.INTER.ROT>
6

>  <SCORE.INTER.SOLV>
20.6824

>  <SCORE.INTER.VDW>
-19.3594

>  <SCORE.INTER.norm>
-0.235418

>  <SCORE.INTRA>
-2.41739

>  <SCORE.INTRA.DIHEDRAL>
-6.00297

>  <SCORE.INTRA.DIHEDRAL.0>
10.8172

>  <SCORE.INTRA.POLAR>
0

>  <SCORE.INTRA.POLAR.0>
0

>  <SCORE.INTRA.REPUL>
0

>  <SCORE.INTRA.REPUL.0>
0

>  <SCORE.INTRA.SOLV>
-1.65244

>  <SCORE.INTRA.SOLV.lig_0>
-80.3833

>  <SCORE.INTRA.VDW>
1.41031

>  <SCORE.INTRA.VDW.0>
-4.63762

>  <SCORE.INTRA.norm>
-0.0779804

>  <SCORE.RESTR>
0

>  <SCORE.RESTR.CAVITY>
0

>  <SCORE.RESTR.norm>
0

>  <SCORE.SYSTEM>
0

>  <SCORE.SYSTEM.CONST>
0

>  <SCORE.SYSTEM.DIHEDRAL>
0

>  <SCORE.SYSTEM.SOLV>
0

>  <SCORE.SYSTEM.norm>
0

>  <SCORE.heavy>
31

>  <SCORE.norm>
-0.313399

>  <RMSD>
0.698

$$$$
ligand
 OpenBabel11021811473D
libRbt.so/2013.1/901 2013/11/27
 31 33  0  0  0  0  0  0  0  0999 V2000
   17.0821    7.4394   18.6476 C   0  0  0  0  0  0  0  0  0  0  0  0
   17.1819    0.3390   13.8823 N   0  0  0  0  0  0  0  0  0  0  0  0
   18.3967    7.0987   19.0999 O   0  0  0  0  0  0  0  0  0  0  0  0
   16.3040    6.1720   18.2849 C   0  0  1  0  0  0  0  0  0  0  0  0
   21.6311    2.3645   13.9578 N   0  0  0  0  0  0  0  0  0  0  0  0
   17.0265    5.4112   17.2972 O   0  0  0  0  0  0  0  0  0  0  0  0
   17.2059    4.0720   17.7911 C   0  0  1  0  0  0  0  0  0  0  0  0
   25.3275    3.5798   16.9108 N   0  0  0  0  0  0  0  0  0  0  0  0
   18.4472    3.5029   17.3458 O   0  0  0  0  0  0  0  0  0  0  0  0
   18.5066    3.2823   15.9289 C   0  0  2  0  0  0  0  0  0  0  0  0
   20.0162    7.2467   15.7662 N   0  0  0  0  0  0  0  0  0  0  0  0
   16.3954    2.1055   15.9412 O   0  0  0  0  0  0  0  0  0  0  0  0
   17.7865    1.9593   15.6434 C   0  0  1  0  0  0  0  0  0  0  0  0
   20.5885    4.5318   15.4978 O   0  0  0  0  0  0  0  0  0  0  0  0
   17.9478    1.5600   14.1753 C   0  0  1  0  0  0  0  0  0  0  0  0
   21.8045    4.4924   17.5122 O   0  0  0  0  0  0  0  0  0  0  0  0
   19.4303    1.3334   13.8778 C   0  0  0  0  0  0  0  0  0  0  0  0
   24.7378    6.1338   16.0364 O   0  0  0  0  0  0  0  0  0  0  0  0
   20.1942    2.6408   14.1074 C   0  0  1  0  0  0  0  0  0  0  0  0
   22.7527    8.2122   15.9670 O   0  0  0  0  0  0  0  0  0  0  0  0
   19.9713    3.2326   15.5045 C   0  0  2  0  0  0  0  0  0  0  0  0
   17.0135    3.0630   20.0278 O   0  0  0  0  0  0  0  0  0  0  0  0
   20.7357    5.1349   16.7929 C   0  0  1  0  0  0  0  0  0  0  0  0
   14.9047    4.5836   19.5398 O   0  0  0  0  0  0  0  0  0  0  0  0
   23.0861    4.5794   16.8663 C   0  0  2  0  0  0  0  0  0  0  0  0
   24.1279    3.8512   17.7188 C   0  0  0  0  0  0  0  0  0  0  0  0
   23.4933    6.0482   16.7356 C   0  0  2  0  0  0  0  0  0  0  0  0
   22.4231    6.8191   15.9601 C   0  0  1  0  0  0  0  0  0  0  0  0
   21.0495    6.6233   16.6072 C   0  0  1  0  0  0  0  0  0  0  0  0
   17.2810    4.2664   19.3041 C   0  0  2  0  0  0  0  0  0  0  0  0
   16.1561    5.2749   19.5171 C   0  0  1  0  0  0  0  0  0  0  0  0
  1  3  1  0  0  0  0
  4  1  1  1  0  0  0
  4  6  1  0  0  0  0
  4 31  1  0  0  0  0
  6  7  1  0  0  0  0
  7  9  1  6  0  0  0
  7 30  1  0  0  0  0
  8 26  1  0  0  0  0
 10  9  1  1  0  0  0
 10 13  1  0  0  0  0
 10 21  1  0  0  0  0
 13 12  1  6  0  0  0
 13 15  1  0  0  0  0
 15  2  1  1  0  0  0
 15 17  1  0  0  0  0
 16 25  1  0  0  0  0
 16 23  1  0  0  0  0
 17 19  1  0  0  0  0
 19  5  1  1  0  0  0
 19 21  1  0  0  0  0
 21 14  1  6  0  0  0
 23 14  1  6  0  0  0
 23 29  1  0  0  0  0
 25 26  1  1  0  0  0
 25 27  1  0  0  0  0
 27 18  1  6  0  0  0
 27 28  1  0  0  0  0
 28 20  1  1  0  0  0
 28 29  1  0  0  0  0
 29 11  1  6  0  0  0
 30 22  1  1  0  0  0
 30 31  1  0  0  0  0
 31 24  1  6  0  0  0
M  END
>  <CHROM.1>
-56.34860724,-66.44242571,-81.71500017,74.44073585,67.05236913,163.23089784
19.63205929,4.44069452,16.75152801,3.12693638,-0.30169778,-2.49117965

>  <Name>
ligand

>  <RI>
0

>  <Rbt.Current_Directory>
/home/itssahil/PROJECTS/Mol_Feturizer/New_Systems/rnas/3DVV

>  <Rbt.Executable>
rbdock ($Id: //depot/dev/client3/rdock/2013.1/src/exe/rbdock.cxx#4 $)

>  <Rbt.Library>
libRbt.so (2013.1, Build901 2013/11/27)

>  <Rbt.Parameter_File>
/export/apps/rDock/src/rDock_2013.1_src/data/scripts/dock_solv.prm

>  <Rbt.Receptor>
prm/pocket_docking_2.prm

>  <SCORE>
-9.67059

>  <SCORE.INTER>
-7.23118

>  <SCORE.INTER.CONST>
1

>  <SCORE.INTER.POLAR>
0

>  <SCORE.INTER.ROT>
6

>  <SCORE.INTER.SOLV>
20.5509

>  <SCORE.INTER.VDW>
-19.2711

>  <SCORE.INTER.norm>
-0.233264

>  <SCORE.INTRA>
-2.44083

>  <SCORE.INTRA.DIHEDRAL>
-6.04544

>  <SCORE.INTRA.DIHEDRAL.0>
10.8172

>  <SCORE.INTRA.POLAR>
0

>  <SCORE.INTRA.POLAR.0>
0

>  <SCORE.INTRA.REPUL>
0

>  <SCORE.INTRA.REPUL.0>
0

>  <SCORE.INTRA.SOLV>
-1.69751

>  <SCORE.INTRA.SOLV.lig_0>
-80.3833

>  <SCORE.INTRA.VDW>
1.43065

>  <SCORE.INTRA.VDW.0>
-4.63762

>  <SCORE.INTRA.norm>
-0.0787364

>  <SCORE.RESTR>
0.00141943

>  <SCORE.RESTR.CAVITY>
0.00141943

>  <SCORE.RESTR.norm>
4.57881e-05

>  <SCORE.SYSTEM>
0

>  <SCORE.SYSTEM.CONST>
0

>  <SCORE.SYSTEM.DIHEDRAL>
0

>  <SCORE.SYSTEM.SOLV>
0

>  <SCORE.SYSTEM.norm>
0

>  <SCORE.heavy>
31

>  <SCORE.norm>
-0.311954

>  <RMSD>
0.700

$$$$
ligand
 OpenBabel11021811473D
libRbt.so/2013.1/901 2013/11/27
 31 33  0  0  0  0  0  0  0  0999 V2000
   17.2158    7.4495   18.7173 C   0  0  0  0  0  0  0  0  0  0  0  0
   17.1757    0.3250   13.9084 N   0  0  0  0  0  0  0  0  0  0  0  0
   18.5056    7.0585   19.1993 O   0  0  0  0  0  0  0  0  0  0  0  0
   16.3977    6.2130   18.3366 C   0  0  1  0  0  0  0  0  0  0  0  0
   21.6182    2.3659   13.9550 N   0  0  0  0  0  0  0  0  0  0  0  0
   17.0976    5.4417   17.3408 O   0  0  0  0  0  0  0  0  0  0  0  0
   17.2319    4.0911   17.8179 C   0  0  1  0  0  0  0  0  0  0  0  0
   25.3355    3.6142   16.9407 N   0  0  0  0  0  0  0  0  0  0  0  0
   18.4551    3.4875   17.3681 O   0  0  0  0  0  0  0  0  0  0  0  0
   18.5050    3.2695   15.9503 C   0  0  2  0  0  0  0  0  0  0  0  0
   20.0132    7.2437   15.7700 N   0  0  0  0  0  0  0  0  0  0  0  0
   16.3980    2.0853   15.9761 O   0  0  0  0  0  0  0  0  0  0  0  0
   17.7875    1.9444   15.6679 C   0  0  1  0  0  0  0  0  0  0  0  0
   20.5793    4.5269   15.5062 O   0  0  0  0  0  0  0  0  0  0  0  0
   17.9395    1.5482   14.1979 C   0  0  1  0  0  0  0  0  0  0  0  0
   21.7935    4.4878   17.5217 O   0  0  0  0  0  0  0  0  0  0  0  0
   19.4205    1.3273   13.8893 C   0  0  0  0  0  0  0  0  0  0  0  0
   24.7319    6.1200   16.0459 O   0  0  0  0  0  0  0  0  0  0  0  0
   20.1815    2.6370   14.1156 C   0  0  1  0  0  0  0  0  0  0  0  0
   22.7518    8.2029   15.9717 O   0  0  0  0  0  0  0  0  0  0  0  0
   19.9667    3.2256   15.5152 C   0  0  2  0  0  0  0  0  0  0  0  0
   17.0007    3.0604   20.0410 O   0  0  0  0  0  0  0  0  0  0  0  0
   20.7269    5.1317   16.8005 C   0  0  1  0  0  0  0  0  0  0  0  0
   14.9439    4.6553   19.5678 O   0  0  0  0  0  0  0  0  0  0  0  0
   23.0758    4.5708   16.8767 C   0  0  2  0  0  0  0  0  0  0  0  0
   24.1152    3.8415   17.7313 C   0  0  0  0  0  0  0  0  0  0  0  0
   23.4866    6.0384   16.7442 C   0  0  2  0  0  0  0  0  0  0  0  0
   22.4189    6.8107   15.9666 C   0  0  1  0  0  0  0  0  0  0  0  0
   21.0443    6.6191   16.6129 C   0  0  1  0  0  0  0  0  0  0  0  0
   17.3093    4.2636   19.3334 C   0  0  2  0  0  0  0  0  0  0  0  0
   16.2173    5.3055   19.5568 C   0  0  1  0  0  0  0  0  0  0  0  0
  1  3  1  0  0  0  0
  4  1  1  1  0  0  0
  4  6  1  0  0  0  0
  4 31  1  0  0  0  0
  6  7  1  0  0  0  0
  7  9  1  6  0  0  0
  7 30  1  0  0  0  0
  8 26  1  0  0  0  0
 10  9  1  1  0  0  0
 10 13  1  0  0  0  0
 10 21  1  0  0  0  0
 13 12  1  6  0  0  0
 13 15  1  0  0  0  0
 15  2  1  1  0  0  0
 15 17  1  0  0  0  0
 16 25  1  0  0  0  0
 16 23  1  0  0  0  0
 17 19  1  0  0  0  0
 19  5  1  1  0  0  0
 19 21  1  0  0  0  0
 21 14  1  6  0  0  0
 23 14  1  6  0  0  0
 23 29  1  0  0  0  0
 25 26  1  1  0  0  0
 25 27  1  0  0  0  0
 27 18  1  6  0  0  0
 27 28  1  0  0  0  0
 28 20  1  1  0  0  0
 28 29  1  0  0  0  0
 29 11  1  6  0  0  0
 30 22  1  1  0  0  0
 30 31  1  0  0  0  0
 31 24  1  6  0  0  0
M  END
>  <CHROM.1>
-57.76894142,-67.10204993,-83.60543947,74.06617823,66.71117936,165.49921882
19.64642782,4.44088671,16.77435428,3.12517755,-0.30640938,-2.48427482

>  <Name>
ligand

>  <RI>
0

>  <Rbt.Current_Directory>
/home/itssahil/PROJECTS/Mol_Feturizer/New_Systems/rnas/3DVV

>  <Rbt.Executable>
rbdock ($Id: //depot/dev/client3/rdock/2013.1/src/exe/rbdock.cxx#4 $)

>  <Rbt.Library>
libRbt.so (2013.1, Build901 2013/11/27)

>  <Rbt.Parameter_File>
/export/apps/rDock/src/rDock_2013.1_src/data/scripts/dock_solv.prm

>  <Rbt.Receptor>
prm/pocket_docking_2.prm

>  <SCORE>
-9.77313

>  <SCORE.INTER>
-7.3563

>  <SCORE.INTER.CONST>
1

>  <SCORE.INTER.POLAR>
0

>  <SCORE.INTER.ROT>
6

>  <SCORE.INTER.SOLV>
20.7841

>  <SCORE.INTER.VDW>
-19.4322

>  <SCORE.INTER.norm>
-0.2373

>  <SCORE.INTRA>
-2.42415

>  <SCORE.INTRA.DIHEDRAL>
-6.00378

>  <SCORE.INTRA.DIHEDRAL.0>
10.8172

>  <SCORE.INTRA.POLAR>
0

>  <SCORE.INTRA.POLAR.0>
0

>  <SCORE.INTRA.REPUL>
0

>  <SCORE.INTRA.REPUL.0>
0

>  <SCORE.INTRA.SOLV>
-1.5782

>  <SCORE.INTRA.SOLV.lig_0>
-80.3833

>  <SCORE.INTRA.VDW>
1.36684

>  <SCORE.INTRA.VDW.0>
-4.63762

>  <SCORE.INTRA.norm>
-0.0781984

>  <SCORE.RESTR>
0.00732023

>  <SCORE.RESTR.CAVITY>
0.00732023

>  <SCORE.RESTR.norm>
0.000236137

>  <SCORE.SYSTEM>
0

>  <SCORE.SYSTEM.CONST>
0

>  <SCORE.SYSTEM.DIHEDRAL>
0

>  <SCORE.SYSTEM.SOLV>
0

>  <SCORE.SYSTEM.norm>
0

>  <SCORE.heavy>
31

>  <SCORE.norm>
-0.315262

>  <RMSD>
0.704

$$$$
ligand
 OpenBabel11021811473D
libRbt.so/2013.1/901 2013/11/27
 31 33  0  0  0  0  0  0  0  0999 V2000
   17.2201    7.4404   18.6852 C   0  0  0  0  0  0  0  0  0  0  0  0
   17.1775    0.3455   13.8902 N   0  0  0  0  0  0  0  0  0  0  0  0
   18.5211    7.0671   19.1508 O   0  0  0  0  0  0  0  0  0  0  0  0
   16.4126    6.1924   18.3193 C   0  0  1  0  0  0  0  0  0  0  0  0
   21.6485    2.3228   13.9546 N   0  0  0  0  0  0  0  0  0  0  0  0
   17.1149    5.4200   17.3261 O   0  0  0  0  0  0  0  0  0  0  0  0
   17.2654    4.0748   17.8137 C   0  0  1  0  0  0  0  0  0  0  0  0
   25.3720    3.5972   16.9717 N   0  0  0  0  0  0  0  0  0  0  0  0
   18.4923    3.4799   17.3621 O   0  0  0  0  0  0  0  0  0  0  0  0
   18.5430    3.2651   15.9439 C   0  0  2  0  0  0  0  0  0  0  0  0
   20.0358    7.2047   15.7594 N   0  0  0  0  0  0  0  0  0  0  0  0
   16.4193    2.1110   15.9607 O   0  0  0  0  0  0  0  0  0  0  0  0
   17.8074    1.9512   15.6558 C   0  0  1  0  0  0  0  0  0  0  0  0
   20.6362    4.4941   15.5090 O   0  0  0  0  0  0  0  0  0  0  0  0
   17.9578    1.5569   14.1852 C   0  0  1  0  0  0  0  0  0  0  0  0
   21.8335    4.4755   17.5349 O   0  0  0  0  0  0  0  0  0  0  0  0
   19.4364    1.3158   13.8800 C   0  0  0  0  0  0  0  0  0  0  0  0
   24.7649    6.1380   16.0790 O   0  0  0  0  0  0  0  0  0  0  0  0
   20.2154    2.6138   14.1120 C   0  0  1  0  0  0  0  0  0  0  0  0
   22.7610    8.1971   15.9814 O   0  0  0  0  0  0  0  0  0  0  0  0
   20.0052    3.2016   15.5127 C   0  0  2  0  0  0  0  0  0  0  0  0
   17.0569    3.0605   20.0465 O   0  0  0  0  0  0  0  0  0  0  0  0
   20.7656    5.1045   16.8026 C   0  0  1  0  0  0  0  0  0  0  0  0
   14.9815    4.6304   19.5715 O   0  0  0  0  0  0  0  0  0  0  0  0
   23.1202    4.5718   16.9005 C   0  0  2  0  0  0  0  0  0  0  0  0
   24.1609    3.8574   17.7662 C   0  0  0  0  0  0  0  0  0  0  0  0
   23.5147    6.0437   16.7669 C   0  0  2  0  0  0  0  0  0  0  0  0
   22.4446    6.8009   15.9779 C   0  0  1  0  0  0  0  0  0  0  0  0
   21.0669    6.5950   16.6130 C   0  0  1  0  0  0  0  0  0  0  0  0
   17.3494    4.2608   19.3273 C   0  0  2  0  0  0  0  0  0  0  0  0
   16.2481    5.2934   19.5480 C   0  0  1  0  0  0  0  0  0  0  0  0
  1  3  1  0  0  0  0
  4  1  1  1  0  0  0
  4  6  1  0  0  0  0
  4 31  1  0  0  0  0
  6  7  1  0  0  0  0
  7  9  1  6  0  0  0
  7 30  1  0  0  0  0
  8 26  1  0  0  0  0
 10  9  1  1  0  0  0
 10 13  1  0  0  0  0
 10 21  1  0  0  0  0
 13 12  1  6  0  0  0
 13 15  1  0  0  0  0
 15  2  1  1  0  0  0
 15 17  1  0  0  0  0
 16 25  1  0  0  0  0
 16 23  1  0  0  0  0
 17 19  1  0  0  0  0
 19  5  1  1  0  0  0
 19 21  1  0  0  0  0
 21 14  1  6  0  0  0
 23 14  1  6  0  0  0
 23 29  1  0  0  0  0
 25 26  1  1  0  0  0
 25 27  1  0  0  0  0
 27 18  1  6  0  0  0
 27 28  1  0  0  0  0
 28 20  1  1  0  0  0
 28 29  1  0  0  0  0
 29 11  1  6  0  0  0
 30 22  1  1  0  0  0
 30 31  1  0  0  0  0
 31 24  1  6  0  0  0
M  END
>  <CHROM.1>
-57.20051898,-66.40470845,-82.41138471,75.72127884,65.56690347,163.38947103
19.67583024,4.43212002,16.77319347,3.12000894,-0.30104791,-2.48090323

>  <Name>
ligand

>  <RI>
0

>  <Rbt.Current_Directory>
/home/itssahil/PROJECTS/Mol_Feturizer/New_Systems/rnas/3DVV

>  <Rbt.Executable>
rbdock ($Id: //depot/dev/client3/rdock/2013.1/src/exe/rbdock.cxx#4 $)

>  <Rbt.Library>
libRbt.so (2013.1, Build901 2013/11/27)

>  <Rbt.Parameter_File>
/export/apps/rDock/src/rDock_2013.1_src/data/scripts/dock_solv.prm

>  <Rbt.Receptor>
prm/pocket_docking_2.prm

>  <SCORE>
-9.75422

>  <SCORE.INTER>
-7.40172

>  <SCORE.INTER.CONST>
1

>  <SCORE.INTER.POLAR>
0

>  <SCORE.INTER.ROT>
6

>  <SCORE.INTER.SOLV>
20.9183

>  <SCORE.INTER.VDW>
-19.5073

>  <SCORE.INTER.norm>
-0.238765

>  <SCORE.INTRA>
-2.35279

>  <SCORE.INTRA.DIHEDRAL>
-5.88185

>  <SCORE.INTRA.DIHEDRAL.0>
10.8172

>  <SCORE.INTRA.POLAR>
0

>  <SCORE.INTRA.POLAR.0>
0

>  <SCORE.INTRA.REPUL>
0

>  <SCORE.INTRA.REPUL.0>
0

>  <SCORE.INTRA.SOLV>
-1.62401

>  <SCORE.INTRA.SOLV.lig_0>
-80.3833

>  <SCORE.INTRA.VDW>
1.40015

>  <SCORE.INTRA.VDW.0>
-4.63762

>  <SCORE.INTRA.norm>
-0.0758963

>  <SCORE.RESTR>
0.000277834

>  <SCORE.RESTR.CAVITY>
0.000277834

>  <SCORE.RESTR.norm>
8.96238e-06

>  <SCORE.SYSTEM>
0

>  <SCORE.SYSTEM.CONST>
0

>  <SCORE.SYSTEM.DIHEDRAL>
0

>  <SCORE.SYSTEM.SOLV>
0

>  <SCORE.SYSTEM.norm>
0

>  <SCORE.heavy>
31

>  <SCORE.norm>
-0.314652

>  <RMSD>
0.707

$$$$
ligand
 OpenBabel11021811473D
libRbt.so/2013.1/901 2013/11/27
 31 33  0  0  0  0  0  0  0  0999 V2000
   17.2073    7.4440   18.6599 C   0  0  0  0  0  0  0  0  0  0  0  0
   17.1966    0.3249   13.8962 N   0  0  0  0  0  0  0  0  0  0  0  0
   18.5048    7.0724   19.1365 O   0  0  0  0  0  0  0  0  0  0  0  0
   16.3995    6.1944   18.3003 C   0  0  1  0  0  0  0  0  0  0  0  0
   21.6558    2.3282   13.9748 N   0  0  0  0  0  0  0  0  0  0  0  0
   17.1038    5.4145   17.3143 O   0  0  0  0  0  0  0  0  0  0  0  0
   17.2517    4.0725   17.8115 C   0  0  1  0  0  0  0  0  0  0  0  0
   25.3750    3.6199   16.9852 N   0  0  0  0  0  0  0  0  0  0  0  0
   18.4792    3.4734   17.3674 O   0  0  0  0  0  0  0  0  0  0  0  0
   18.5369    3.2562   15.9499 C   0  0  2  0  0  0  0  0  0  0  0  0
   20.0308    7.2080   15.7776 N   0  0  0  0  0  0  0  0  0  0  0  0
   16.4198    2.0898   15.9602 O   0  0  0  0  0  0  0  0  0  0  0  0
   17.8101    1.9376   15.6613 C   0  0  1  0  0  0  0  0  0  0  0  0
   20.6247    4.4965   15.5210 O   0  0  0  0  0  0  0  0  0  0  0  0
   17.9687    1.5413   14.1920 C   0  0  1  0  0  0  0  0  0  0  0  0
   21.8254    4.4713   17.5448 O   0  0  0  0  0  0  0  0  0  0  0  0
   19.4499    1.3082   13.8932 C   0  0  0  0  0  0  0  0  0  0  0  0
   24.7581    6.1299   16.0871 O   0  0  0  0  0  0  0  0  0  0  0  0
   20.2204    2.6112   14.1259 C   0  0  1  0  0  0  0  0  0  0  0  0
   22.7587    8.1937   15.9968 O   0  0  0  0  0  0  0  0  0  0  0  0
   20.0011    3.2003   15.5246 C   0  0  2  0  0  0  0  0  0  0  0  0
   17.0359    3.0736   20.0506 O   0  0  0  0  0  0  0  0  0  0  0  0
   20.7576    5.1042   16.8155 C   0  0  1  0  0  0  0  0  0  0  0  0
   14.9634    4.6423   19.5590 O   0  0  0  0  0  0  0  0  0  0  0  0
   23.1112    4.5658   16.9085 C   0  0  2  0  0  0  0  0  0  0  0  0
   24.1517    3.8475   17.7710 C   0  0  0  0  0  0  0  0  0  0  0  0
   23.5088    6.0371   16.7770 C   0  0  2  0  0  0  0  0  0  0  0  0
   22.4392    6.7983   15.9912 C   0  0  1  0  0  0  0  0  0  0  0  0
   21.0621    6.5942   16.6282 C   0  0  1  0  0  0  0  0  0  0  0  0
   17.3316    4.2687   19.3240 C   0  0  2  0  0  0  0  0  0  0  0  0
   16.2307    5.3039   19.5346 C   0  0  1  0  0  0  0  0  0  0  0  0
  1  3  1  0  0  0  0
  4  1  1  1  0  0  0
  4  6  1  0  0  0  0
  4 31  1  0  0  0  0
  6  7  1  0  0  0  0
  7  9  1  6  0  0  0
  7 30  1  0  0  0  0
  8 26  1  0  0  0  0
 10  9  1  1  0  0  0
 10 13  1  0  0  0  0
 10 21  1  0  0  0  0
 13 12  1  6  0  0  0
 13 15  1  0  0  0  0
 15  2  1  1  0  0  0
 15 17  1  0  0  0  0
 16 25  1  0  0  0  0
 16 23  1  0  0  0  0
 17 19  1  0  0  0  0
 19  5  1  1  0  0  0
 19 21  1  0  0  0  0
 21 14  1  6  0  0  0
 23 14  1  6  0  0  0
 23 29  1  0  0  0  0
 25 26  1  1  0  0  0
 25 27  1  0  0  0  0
 27 18  1  6  0  0  0
 27 28  1  0  0  0  0
 28 20  1  1  0  0  0
 28 29  1  0  0  0  0
 29 11  1  6  0  0  0
 30 22  1  1  0  0  0
 30 31  1  0  0  0  0
 31 24  1  6  0  0  0
M  END
>  <CHROM.1>
-57.41604131,-66.05237252,-82.91515844,75.20995368,66.17117564,164.97521315
19.66986370,4.43023352,16.77732320,3.11797236,-0.29865649,-2.48623055

>  <Name>
ligand

>  <RI>
0

>  <Rbt.Current_Directory>
/home/itssahil/PROJECTS/Mol_Feturizer/New_Systems/rnas/3DVV

>  <Rbt.Executable>
rbdock ($Id: //depot/dev/client3/rdock/2013.1/src/exe/rbdock.cxx#4 $)

>  <Rbt.Library>
libRbt.so (2013.1, Build901 2013/11/27)

>  <Rbt.Parameter_File>
/export/apps/rDock/src/rDock_2013.1_src/data/scripts/dock_solv.prm

>  <Rbt.Receptor>
prm/pocket_docking_2.prm

>  <SCORE>
-9.73509

>  <SCORE.INTER>
-7.34471

>  <SCORE.INTER.CONST>
1

>  <SCORE.INTER.POLAR>
0

>  <SCORE.INTER.ROT>
6

>  <SCORE.INTER.SOLV>
20.973

>  <SCORE.INTER.VDW>
-19.4875

>  <SCORE.INTER.norm>
-0.236926

>  <SCORE.INTRA>
-2.39038

>  <SCORE.INTRA.DIHEDRAL>
-6.01601

>  <SCORE.INTRA.DIHEDRAL.0>
10.8172

>  <SCORE.INTRA.POLAR>
0

>  <SCORE.INTRA.POLAR.0>
0

>  <SCORE.INTRA.REPUL>
0

>  <SCORE.INTRA.REPUL.0>
0

>  <SCORE.INTRA.SOLV>
-1.52585

>  <SCORE.INTRA.SOLV.lig_0>
-80.3833

>  <SCORE.INTRA.VDW>
1.38055

>  <SCORE.INTRA.VDW.0>
-4.63762

>  <SCORE.INTRA.norm>
-0.0771091

>  <SCORE.RESTR>
0

>  <SCORE.RESTR.CAVITY>
0

>  <SCORE.RESTR.norm>
0

>  <SCORE.SYSTEM>
0

>  <SCORE.SYSTEM.CONST>
0

>  <SCORE.SYSTEM.DIHEDRAL>
0

>  <SCORE.SYSTEM.SOLV>
0

>  <SCORE.SYSTEM.norm>
0

>  <SCORE.heavy>
31

>  <SCORE.norm>
-0.314035

>  <RMSD>
0.708

$$$$
ligand
 OpenBabel11021811473D
libRbt.so/2013.1/901 2013/11/27
 31 33  0  0  0  0  0  0  0  0999 V2000
   17.9969    7.3297   18.7479 C   0  0  0  0  0  0  0  0  0  0  0  0
   17.4609    0.1892   13.7226 N   0  0  0  0  0  0  0  0  0  0  0  0
   17.4362    8.1010   19.8154 O   0  0  0  0  0  0  0  0  0  0  0  0
   17.0102    6.2464   18.3050 C   0  0  1  0  0  0  0  0  0  0  0  0
   21.8527    2.3338   13.8521 N   0  0  0  0  0  0  0  0  0  0  0  0
   17.6112    5.4086   17.2984 O   0  0  0  0  0  0  0  0  0  0  0  0
   17.5240    4.0390   17.7300 C   0  0  1  0  0  0  0  0  0  0  0  0
   25.4760    3.5552   16.9860 N   0  0  0  0  0  0  0  0  0  0  0  0
   18.6525    3.2690   17.2867 O   0  0  0  0  0  0  0  0  0  0  0  0
   18.7122    3.0979   15.8629 C   0  0  2  0  0  0  0  0  0  0  0  0
   20.1025    7.1109   15.7723 N   0  0  0  0  0  0  0  0  0  0  0  0
   16.6343    1.8631   15.8424 O   0  0  0  0  0  0  0  0  0  0  0  0
   18.0278    1.7657   15.5354 C   0  0  1  0  0  0  0  0  0  0  0  0
   20.7570    4.4184   15.4675 O   0  0  0  0  0  0  0  0  0  0  0  0
   18.1940    1.4205   14.0541 C   0  0  1  0  0  0  0  0  0  0  0  0
   21.9194    4.3721   17.5132 O   0  0  0  0  0  0  0  0  0  0  0  0
   19.6809    1.2453   13.7445 C   0  0  0  0  0  0  0  0  0  0  0  0
   24.8443    6.1219   16.1495 O   0  0  0  0  0  0  0  0  0  0  0  0
   20.4094    2.5650   14.0155 C   0  0  1  0  0  0  0  0  0  0  0  0
   22.8048    8.1463   16.0661 O   0  0  0  0  0  0  0  0  0  0  0  0
   20.1760    3.1031   15.4325 C   0  0  2  0  0  0  0  0  0  0  0  0
   17.0762    2.9861   19.9092 O   0  0  0  0  0  0  0  0  0  0  0  0
   20.8528    4.9994   16.7775 C   0  0  1  0  0  0  0  0  0  0  0  0
   15.3016    4.8925   19.4468 O   0  0  0  0  0  0  0  0  0  0  0  0
   23.2149    4.5068   16.9041 C   0  0  2  0  0  0  0  0  0  0  0  0
   24.2534    3.7904   17.7706 C   0  0  0  0  0  0  0  0  0  0  0  0
   23.5844    5.9884   16.8129 C   0  0  2  0  0  0  0  0  0  0  0  0
   22.5143    6.7452   16.0235 C   0  0  1  0  0  0  0  0  0  0  0  0
   21.1299    6.4992   16.6291 C   0  0  1  0  0  0  0  0  0  0  0  0
   17.5848    4.1493   19.2521 C   0  0  2  0  0  0  0  0  0  0  0  0
   16.6593    5.3392   19.4877 C   0  0  1  0  0  0  0  0  0  0  0  0
  1  3  1  0  0  0  0
  4  1  1  1  0  0  0
  4  6  1  0  0  0  0
  4 31  1  0  0  0  0
  6  7  1  0  0  0  0
  7  9  1  6  0  0  0
  7 30  1  0  0  0  0
  8 26  1  0  0  0  0
 10  9  1  1  0  0  0
 10 13  1  0  0  0  0
 10 21  1  0  0  0  0
 13 12  1  6  0  0  0
 13 15  1  0  0  0  0
 15  2  1  1  0  0  0
 15 17  1  0  0  0  0
 16 25  1  0  0  0  0
 16 23  1  0  0  0  0
 17 19  1  0  0  0  0
 19  5  1  1  0  0  0
 19 21  1  0  0  0  0
 21 14  1  6  0  0  0
 23 14  1  6  0  0  0
 23 29  1  0  0  0  0
 25 26  1  1  0  0  0
 25 27  1  0  0  0  0
 27 18  1  6  0  0  0
 27 28  1  0  0  0  0
 28 20  1  1  0  0  0
 28 29  1  0  0  0  0
 29 11  1  6  0  0  0
 30 22  1  1  0  0  0
 30 31  1  0  0  0  0
 31 24  1  6  0  0  0
M  END
>  <CHROM.1>
-175.82316368,-66.74726357,-94.02487409,74.45045467,65.11862673,162.63198457
19.83389371,4.40227181,16.75380771,-3.11344467,-0.29518866,-2.49255232

>  <Name>
ligand

>  <RI>
0

>  <Rbt.Current_Directory>
/home/itssahil/PROJECTS/Mol_Feturizer/New_Systems/rnas/3DVV

>  <Rbt.Executable>
rbdock ($Id: //depot/dev/client3/rdock/2013.1/src/exe/rbdock.cxx#4 $)

>  <Rbt.Library>
libRbt.so (2013.1, Build901 2013/11/27)

>  <Rbt.Parameter_File>
/export/apps/rDock/src/rDock_2013.1_src/data/scripts/dock_solv.prm

>  <Rbt.Receptor>
prm/pocket_docking_2.prm

>  <SCORE>
-9.93722

>  <SCORE.INTER>
-8.26606

>  <SCORE.INTER.CONST>
1

>  <SCORE.INTER.POLAR>
0

>  <SCORE.INTER.ROT>
6

>  <SCORE.INTER.SOLV>
21.8097

>  <SCORE.INTER.VDW>
-20.3806

>  <SCORE.INTER.norm>
-0.266647

>  <SCORE.INTRA>
-1.67757

>  <SCORE.INTRA.DIHEDRAL>
-3.79292

>  <SCORE.INTRA.DIHEDRAL.0>
10.8172

>  <SCORE.INTRA.POLAR>
0

>  <SCORE.INTRA.POLAR.0>
0

>  <SCORE.INTRA.REPUL>
0

>  <SCORE.INTRA.REPUL.0>
0

>  <SCORE.INTRA.SOLV>
-1.80925

>  <SCORE.INTRA.SOLV.lig_0>
-80.3833

>  <SCORE.INTRA.VDW>
1.12351

>  <SCORE.INTRA.VDW.0>
-4.63762

>  <SCORE.INTRA.norm>
-0.0541153

>  <SCORE.RESTR>
0.00641817

>  <SCORE.RESTR.CAVITY>
0.00641817

>  <SCORE.RESTR.norm>
0.000207038

>  <SCORE.SYSTEM>
0

>  <SCORE.SYSTEM.CONST>
0

>  <SCORE.SYSTEM.DIHEDRAL>
0

>  <SCORE.SYSTEM.SOLV>
0

>  <SCORE.SYSTEM.norm>
0

>  <SCORE.heavy>
31

>  <SCORE.norm>
-0.320555

>  <RMSD>
0.717

$$$$
ligand
 OpenBabel11021811473D
libRbt.so/2013.1/901 2013/11/27
 31 33  0  0  0  0  0  0  0  0999 V2000
   17.0194    7.3616   18.7050 C   0  0  0  0  0  0  0  0  0  0  0  0
   17.2287    0.2798   13.9033 N   0  0  0  0  0  0  0  0  0  0  0  0
   18.3389    7.0386   19.1560 O   0  0  0  0  0  0  0  0  0  0  0  0
   16.2602    6.0843   18.3373 C   0  0  1  0  0  0  0  0  0  0  0  0
   21.6335    2.4005   13.9672 N   0  0  0  0  0  0  0  0  0  0  0  0
   16.9912    5.3409   17.3426 O   0  0  0  0  0  0  0  0  0  0  0  0
   17.1933    4.0017   17.8280 C   0  0  1  0  0  0  0  0  0  0  0  0
   25.3007    3.6351   16.9693 N   0  0  0  0  0  0  0  0  0  0  0  0
   18.4419    3.4549   17.3752 O   0  0  0  0  0  0  0  0  0  0  0  0
   18.4994    3.2420   15.9570 C   0  0  2  0  0  0  0  0  0  0  0  0
   19.9671    7.2501   15.7916 N   0  0  0  0  0  0  0  0  0  0  0  0
   16.4141    2.0198   15.9739 O   0  0  0  0  0  0  0  0  0  0  0  0
   17.8066    1.9050   15.6689 C   0  0  1  0  0  0  0  0  0  0  0  0
   20.5518    4.5379   15.5218 O   0  0  0  0  0  0  0  0  0  0  0  0
   17.9695    1.5157   14.1982 C   0  0  1  0  0  0  0  0  0  0  0  0
   21.7571    4.5002   17.5427 O   0  0  0  0  0  0  0  0  0  0  0  0
   19.4551    1.3225   13.8928 C   0  0  0  0  0  0  0  0  0  0  0  0
   24.6916    6.1558   16.0853 O   0  0  0  0  0  0  0  0  0  0  0  0
   20.1917    2.6451   14.1248 C   0  0  1  0  0  0  0  0  0  0  0  0
   22.6986    8.2263   16.0087 O   0  0  0  0  0  0  0  0  0  0  0  0
   19.9628    3.2257   15.5256 C   0  0  2  0  0  0  0  0  0  0  0  0
   17.0244    2.9765   20.0592 O   0  0  0  0  0  0  0  0  0  0  0  0
   20.6896    5.1395   16.8187 C   0  0  1  0  0  0  0  0  0  0  0  0
   14.8903    4.4666   19.5872 O   0  0  0  0  0  0  0  0  0  0  0  0
   23.0418    4.5934   16.9038 C   0  0  2  0  0  0  0  0  0  0  0  0
   24.0820    3.8680   17.7607 C   0  0  0  0  0  0  0  0  0  0  0  0
   23.4437    6.0640   16.7777 C   0  0  2  0  0  0  0  0  0  0  0  0
   22.3746    6.8319   15.9978 C   0  0  1  0  0  0  0  0  0  0  0  0
   20.9984    6.6294   16.6372 C   0  0  1  0  0  0  0  0  0  0  0  0
   17.2705    4.1883   19.3419 C   0  0  2  0  0  0  0  0  0  0  0  0
   16.1306    5.1776   19.5645 C   0  0  1  0  0  0  0  0  0  0  0  0
  1  3  1  0  0  0  0
  4  1  1  1  0  0  0
  4  6  1  0  0  0  0
  4 31  1  0  0  0  0
  6  7  1  0  0  0  0
  7  9  1  6  0  0  0
  7 30  1  0  0  0  0
  8 26  1  0  0  0  0
 10  9  1  1  0  0  0
 10 13  1  0  0  0  0
 10 21  1  0  0  0  0
 13 12  1  6  0  0  0
 13 15  1  0  0  0  0
 15  2  1  1  0  0  0
 15 17  1  0  0  0  0
 16 25  1  0  0  0  0
 16 23  1  0  0  0  0
 17 19  1  0  0  0  0
 19  5  1  1  0  0  0
 19 21  1  0  0  0  0
 21 14  1  6  0  0  0
 23 14  1  6  0  0  0
 23 29  1  0  0  0  0
 25 26  1  1  0  0  0
 25 27  1  0  0  0  0
 27 18  1  6  0  0  0
 27 28  1  0  0  0  0
 28 20  1  1  0  0  0
 28 29  1  0  0  0  0
 29 11  1  6  0  0  0
 30 22  1  1  0  0  0
 30 31  1  0  0  0  0
 31 24  1  6  0  0  0
M  END
>  <CHROM.1>
-56.57424185,-66.52734554,-82.02497272,73.32742084,66.93132452,164.74603785
19.60970313,4.41190081,16.78656003,3.11548128,-0.31328759,-2.48828205

>  <Name>
ligand

>  <RI>
0

>  <Rbt.Current_Directory>
/home/itssahil/PROJECTS/Mol_Feturizer/New_Systems/rnas/3DVV

>  <Rbt.Executable>
rbdock ($Id: //depot/dev/client3/rdock/2013.1/src/exe/rbdock.cxx#4 $)

>  <Rbt.Library>
libRbt.so (2013.1, Build901 2013/11/27)

>  <Rbt.Parameter_File>
/export/apps/rDock/src/rDock_2013.1_src/data/scripts/dock_solv.prm

>  <Rbt.Receptor>
prm/pocket_docking_2.prm

>  <SCORE>
-9.64752

>  <SCORE.INTER>
-7.07149

>  <SCORE.INTER.CONST>
1

>  <SCORE.INTER.POLAR>
0

>  <SCORE.INTER.ROT>
6

>  <SCORE.INTER.SOLV>
20.9405

>  <SCORE.INTER.VDW>
-19.2945

>  <SCORE.INTER.norm>
-0.228112

>  <SCORE.INTRA>
-2.57603

>  <SCORE.INTRA.DIHEDRAL>
-6.29591

>  <SCORE.INTRA.DIHEDRAL.0>
10.8172

>  <SCORE.INTRA.POLAR>
0

>  <SCORE.INTRA.POLAR.0>
0

>  <SCORE.INTRA.REPUL>
0

>  <SCORE.INTRA.REPUL.0>
0

>  <SCORE.INTRA.SOLV>
-1.73418

>  <SCORE.INTRA.SOLV.lig_0>
-80.3833

>  <SCORE.INTRA.VDW>
1.43902

>  <SCORE.INTRA.VDW.0>
-4.63762

>  <SCORE.INTRA.norm>
-0.0830977

>  <SCORE.RESTR>
0

>  <SCORE.RESTR.CAVITY>
0

>  <SCORE.RESTR.norm>
0

>  <SCORE.SYSTEM>
0

>  <SCORE.SYSTEM.CONST>
0

>  <SCORE.SYSTEM.DIHEDRAL>
0

>  <SCORE.SYSTEM.SOLV>
0

>  <SCORE.SYSTEM.norm>
0

>  <SCORE.heavy>
31

>  <SCORE.norm>
-0.31121

>  <RMSD>
0.722

$$$$
ligand
 OpenBabel11021811473D
libRbt.so/2013.1/901 2013/11/27
 31 33  0  0  0  0  0  0  0  0999 V2000
   17.7516    7.3267   18.8164 C   0  0  0  0  0  0  0  0  0  0  0  0
   17.1040    0.4310   13.6212 N   0  0  0  0  0  0  0  0  0  0  0  0
   17.9868    8.2147   17.7187 O   0  0  0  0  0  0  0  0  0  0  0  0
   16.7778    6.2209   18.4012 C   0  0  1  0  0  0  0  0  0  0  0  0
   21.5945    2.3551   13.8141 N   0  0  0  0  0  0  0  0  0  0  0  0
   17.3644    5.4045   17.3688 O   0  0  0  0  0  0  0  0  0  0  0  0
   17.3272    4.0307   17.7944 C   0  0  1  0  0  0  0  0  0  0  0  0
   25.0245    3.8867   18.0911 N   0  0  0  0  0  0  0  0  0  0  0  0
   18.4587    3.2924   17.3070 O   0  0  0  0  0  0  0  0  0  0  0  0
   18.5036    3.1806   15.8768 C   0  0  2  0  0  0  0  0  0  0  0  0
   20.2170    7.0506   16.3531 N   0  0  0  0  0  0  0  0  0  0  0  0
   16.3686    2.0489   15.8168 O   0  0  0  0  0  0  0  0  0  0  0  0
   17.7543    1.8982   15.4966 C   0  0  1  0  0  0  0  0  0  0  0  0
   20.6077    4.4176   15.5253 O   0  0  0  0  0  0  0  0  0  0  0  0
   17.8970    1.6102   14.0007 C   0  0  1  0  0  0  0  0  0  0  0  0
   22.1960    4.0221   17.2162 O   0  0  0  0  0  0  0  0  0  0  0  0
   19.3724    1.3776   13.6739 C   0  0  0  0  0  0  0  0  0  0  0  0
   24.8463    5.8684   15.4718 O   0  0  0  0  0  0  0  0  0  0  0  0
   20.1647    2.6478   13.9969 C   0  0  1  0  0  0  0  0  0  0  0  0
   22.9779    7.9442   16.1536 O   0  0  0  0  0  0  0  0  0  0  0  0
   19.9640    3.1343   15.4373 C   0  0  2  0  0  0  0  0  0  0  0  0
   16.9829    2.9545   19.9810 O   0  0  0  0  0  0  0  0  0  0  0  0
   21.0344    4.7877   16.8458 C   0  0  1  0  0  0  0  0  0  0  0  0
   15.1452    4.8174   19.5931 O   0  0  0  0  0  0  0  0  0  0  0  0
   23.3267    4.2082   16.3478 C   0  0  2  0  0  0  0  0  0  0  0  0
   24.4846    3.3356   16.8380 C   0  0  0  0  0  0  0  0  0  0  0  0
   23.7625    5.6741   16.3843 C   0  0  2  0  0  0  0  0  0  0  0  0
   22.5940    6.5759   15.9814 C   0  0  1  0  0  0  0  0  0  0  0  0
   21.3687    6.2831   16.8513 C   0  0  1  0  0  0  0  0  0  0  0  0
   17.4384    4.1340   19.3141 C   0  0  2  0  0  0  0  0  0  0  0  0
   16.4917    5.2985   19.5895 C   0  0  1  0  0  0  0  0  0  0  0  0
  1  3  1  0  0  0  0
  4  1  1  1  0  0  0
  4  6  1  0  0  0  0
  4 31  1  0  0  0  0
  6  7  1  0  0  0  0
  7  9  1  6  0  0  0
  7 30  1  0  0  0  0
  8 26  1  0  0  0  0
 10  9  1  1  0  0  0
 10 13  1  0  0  0  0
 10 21  1  0  0  0  0
 13 12  1  6  0  0  0
 13 15  1  0  0  0  0
 15  2  1  1  0  0  0
 15 17  1  0  0  0  0
 16 25  1  0  0  0  0
 16 23  1  0  0  0  0
 17 19  1  0  0  0  0
 19  5  1  1  0  0  0
 19 21  1  0  0  0  0
 21 14  1  6  0  0  0
 23 14  1  6  0  0  0
 23 29  1  0  0  0  0
 25 26  1  1  0  0  0
 25 27  1  0  0  0  0
 27 18  1  6  0  0  0
 27 28  1  0  0  0  0
 28 20  1  1  0  0  0
 28 29  1  0  0  0  0
 29 11  1  6  0  0  0
 30 22  1  1  0  0  0
 30 31  1  0  0  0  0
 31 24  1  6  0  0  0
M  END
>  <CHROM.1>
64.19532368,-64.18650993,-90.61977046,73.69869074,79.75320730,-71.13220869
19.75444442,4.36421037,16.66229808,-3.13445771,-0.28014994,-2.48367369

>  <Name>
ligand

>  <RI>
0

>  <Rbt.Current_Directory>
/home/itssahil/PROJECTS/Mol_Feturizer/New_Systems/rnas/3DVV

>  <Rbt.Executable>
rbdock ($Id: //depot/dev/client3/rdock/2013.1/src/exe/rbdock.cxx#4 $)

>  <Rbt.Library>
libRbt.so (2013.1, Build901 2013/11/27)

>  <Rbt.Parameter_File>
/export/apps/rDock/src/rDock_2013.1_src/data/scripts/dock_solv.prm

>  <Rbt.Receptor>
prm/pocket_docking_2.prm

>  <SCORE>
-5.45688

>  <SCORE.INTER>
-4.86107

>  <SCORE.INTER.CONST>
1

>  <SCORE.INTER.POLAR>
0

>  <SCORE.INTER.ROT>
6

>  <SCORE.INTER.SOLV>
23.6515

>  <SCORE.INTER.VDW>
-18.7245

>  <SCORE.INTER.norm>
-0.156809

>  <SCORE.INTRA>
-0.608845

>  <SCORE.INTRA.DIHEDRAL>
-3.64734

>  <SCORE.INTRA.DIHEDRAL.0>
10.8172

>  <SCORE.INTRA.POLAR>
0

>  <SCORE.INTRA.POLAR.0>
0

>  <SCORE.INTRA.REPUL>
0

>  <SCORE.INTRA.REPUL.0>
0

>  <SCORE.INTRA.SOLV>
0.617395

>  <SCORE.INTRA.SOLV.lig_0>
-80.3833

>  <SCORE.INTRA.VDW>
0.906127

>  <SCORE.INTRA.VDW.0>
-4.63762

>  <SCORE.INTRA.norm>
-0.0196402

>  <SCORE.RESTR>
0.0130297

>  <SCORE.RESTR.CAVITY>
0.0130297

>  <SCORE.RESTR.norm>
0.000420313

>  <SCORE.SYSTEM>
0

>  <SCORE.SYSTEM.CONST>
0

>  <SCORE.SYSTEM.DIHEDRAL>
0

>  <SCORE.SYSTEM.SOLV>
0

>  <SCORE.SYSTEM.norm>
0

>  <SCORE.heavy>
31

>  <SCORE.norm>
-0.176028

>  <RMSD>
0.736

$$$$
ligand
 OpenBabel11021811473D
libRbt.so/2013.1/901 2013/11/27
 31 33  0  0  0  0  0  0  0  0999 V2000
   17.2861    7.2527   18.5492 C   0  0  0  0  0  0  0  0  0  0  0  0
   17.1857    0.2260   13.6089 N   0  0  0  0  0  0  0  0  0  0  0  0
   16.6445    8.0823   19.5234 O   0  0  0  0  0  0  0  0  0  0  0  0
   16.4195    6.0278   18.2464 C   0  0  1  0  0  0  0  0  0  0  0  0
   21.5099    2.5048   13.7190 N   0  0  0  0  0  0  0  0  0  0  0  0
   17.0467    5.2129   17.2369 O   0  0  0  0  0  0  0  0  0  0  0  0
   17.1736    3.8724   17.7436 C   0  0  1  0  0  0  0  0  0  0  0  0
   24.5915    4.3877   18.1039 N   0  0  0  0  0  0  0  0  0  0  0  0
   18.3563    3.2262   17.2470 O   0  0  0  0  0  0  0  0  0  0  0  0
   18.3909    3.1029   15.8175 C   0  0  2  0  0  0  0  0  0  0  0  0
   19.5025    6.9980   16.2926 N   0  0  0  0  0  0  0  0  0  0  0  0
   16.3527    1.8036   15.7988 O   0  0  0  0  0  0  0  0  0  0  0  0
   17.7416    1.7607   15.4604 C   0  0  1  0  0  0  0  0  0  0  0  0
   20.3843    4.5003   15.4239 O   0  0  0  0  0  0  0  0  0  0  0  0
   17.8868    1.4689   13.9655 C   0  0  1  0  0  0  0  0  0  0  0  0
   22.0515    4.4072   17.0822 O   0  0  0  0  0  0  0  0  0  0  0  0
   19.3715    1.3514   13.6200 C   0  0  0  0  0  0  0  0  0  0  0  0
   24.2557    6.7528   15.3171 O   0  0  0  0  0  0  0  0  0  0  0  0
   20.0639    2.6843   13.9193 C   0  0  1  0  0  0  0  0  0  0  0  0
   22.0311    8.4163   16.0577 O   0  0  0  0  0  0  0  0  0  0  0  0
   19.8442    3.1688   15.3576 C   0  0  2  0  0  0  0  0  0  0  0  0
   17.0364    2.9069   20.0034 O   0  0  0  0  0  0  0  0  0  0  0  0
   20.7558    4.9342   16.7417 C   0  0  1  0  0  0  0  0  0  0  0  0
   14.9963    4.5406   19.5950 O   0  0  0  0  0  0  0  0  0  0  0  0
   23.1070    4.8191   16.1972 C   0  0  2  0  0  0  0  0  0  0  0  0
   24.4224    4.1853   16.6561 C   0  0  0  0  0  0  0  0  0  0  0  0
   23.2486    6.3416   16.2453 C   0  0  2  0  0  0  0  0  0  0  0  0
   21.9188    7.0011   15.8742 C   0  0  1  0  0  0  0  0  0  0  0  0
   20.7914    6.4660   16.7611 C   0  0  1  0  0  0  0  0  0  0  0  0
   17.3357    4.0828   19.2476 C   0  0  2  0  0  0  0  0  0  0  0  0
   16.2825    5.1577   19.4991 C   0  0  1  0  0  0  0  0  0  0  0  0
  1  3  1  0  0  0  0
  4  1  1  1  0  0  0
  4  6  1  0  0  0  0
  4 31  1  0  0  0  0
  6  7  1  0  0  0  0
  7  9  1  6  0  0  0
  7 30  1  0  0  0  0
  8 26  1  0  0  0  0
 10  9  1  1  0  0  0
 10 13  1  0  0  0  0
 10 21  1  0  0  0  0
 13 12  1  6  0  0  0
 13 15  1  0  0  0  0
 15  2  1  1  0  0  0
 15 17  1  0  0  0  0
 16 25  1  0  0  0  0
 16 23  1  0  0  0  0
 17 19  1  0  0  0  0
 19  5  1  1  0  0  0
 19 21  1  0  0  0  0
 21 14  1  6  0  0  0
 23 14  1  6  0  0  0
 23 29  1  0  0  0  0
 25 26  1  1  0  0  0
 25 27  1  0  0  0  0
 27 18  1  6  0  0  0
 27 28  1  0  0  0  0
 28 20  1  1  0  0  0
 28 29  1  0  0  0  0
 29 11  1  6  0  0  0
 30 22  1  1  0  0  0
 30 31  1  0  0  0  0
 31 24  1  6  0  0  0
M  END
>  <CHROM.1>
178.31280610,-60.58091537,-90.39540972,81.09754864,77.74948784,-48.26130456
19.46187780,4.46758738,16.64581374,3.13797775,-0.35850400,-2.49151448

>  <Name>
ligand

>  <RI>
0

>  <Rbt.Current_Directory>
/home/itssahil/PROJECTS/Mol_Feturizer/New_Systems/rnas/3DVV

>  <Rbt.Executable>
rbdock ($Id: //depot/dev/client3/rdock/2013.1/src/exe/rbdock.cxx#4 $)

>  <Rbt.Library>
libRbt.so (2013.1, Build901 2013/11/27)

>  <Rbt.Parameter_File>
/export/apps/rDock/src/rDock_2013.1_src/data/scripts/dock_solv.prm

>  <Rbt.Receptor>
prm/pocket_docking_2.prm

>  <SCORE>
-5.13615

>  <SCORE.INTER>
-4.62864

>  <SCORE.INTER.CONST>
1

>  <SCORE.INTER.POLAR>
0

>  <SCORE.INTER.ROT>
6

>  <SCORE.INTER.SOLV>
23.45

>  <SCORE.INTER.VDW>
-18.5024

>  <SCORE.INTER.norm>
-0.149311

>  <SCORE.INTRA>
-0.575169

>  <SCORE.INTRA.DIHEDRAL>
-2.98716

>  <SCORE.INTRA.DIHEDRAL.0>
10.8172

>  <SCORE.INTRA.POLAR>
0

>  <SCORE.INTRA.POLAR.0>
0

>  <SCORE.INTRA.REPUL>
0

>  <SCORE.INTRA.REPUL.0>
0

>  <SCORE.INTRA.SOLV>
0.0585748

>  <SCORE.INTRA.SOLV.lig_0>
-80.3833

>  <SCORE.INTRA.VDW>
0.889125

>  <SCORE.INTRA.VDW.0>
-4.63762

>  <SCORE.INTRA.norm>
-0.0185538

>  <SCORE.RESTR>
0.0676647

>  <SCORE.RESTR.CAVITY>
0.0676647

>  <SCORE.RESTR.norm>
0.00218273

>  <SCORE.SYSTEM>
0

>  <SCORE.SYSTEM.CONST>
0

>  <SCORE.SYSTEM.DIHEDRAL>
0

>  <SCORE.SYSTEM.SOLV>
0

>  <SCORE.SYSTEM.norm>
0

>  <SCORE.heavy>
31

>  <SCORE.norm>
-0.165682

>  <RMSD>
0.742

$$$$
ligand
 OpenBabel11021811473D
libRbt.so/2013.1/901 2013/11/27
 31 33  0  0  0  0  0  0  0  0999 V2000
   17.4052    7.2757   18.5801 C   0  0  0  0  0  0  0  0  0  0  0  0
   17.1610    0.3724   13.5552 N   0  0  0  0  0  0  0  0  0  0  0  0
   18.7277    6.8528   18.9282 O   0  0  0  0  0  0  0  0  0  0  0  0
   16.5319    6.0616   18.2537 C   0  0  1  0  0  0  0  0  0  0  0  0
   21.6148    2.3790   13.7570 N   0  0  0  0  0  0  0  0  0  0  0  0
   17.1640    5.2525   17.2426 O   0  0  0  0  0  0  0  0  0  0  0  0
   17.2737    3.9055   17.7358 C   0  0  1  0  0  0  0  0  0  0  0  0
   24.9478    3.9840   18.1216 N   0  0  0  0  0  0  0  0  0  0  0  0
   18.4567    3.2548   17.2458 O   0  0  0  0  0  0  0  0  0  0  0  0
   18.5060    3.1452   15.8156 C   0  0  2  0  0  0  0  0  0  0  0  0
   20.1163    7.0456   16.2819 N   0  0  0  0  0  0  0  0  0  0  0  0
   16.3924    1.9743   15.7510 O   0  0  0  0  0  0  0  0  0  0  0  0
   17.7811    1.8496   15.4329 C   0  0  1  0  0  0  0  0  0  0  0  0
   20.5874    4.4212   15.4685 O   0  0  0  0  0  0  0  0  0  0  0  0
   17.9315    1.5657   13.9370 C   0  0  1  0  0  0  0  0  0  0  0  0
   22.1626    4.0732   17.1819 O   0  0  0  0  0  0  0  0  0  0  0  0
   19.4114    1.3607   13.6124 C   0  0  0  0  0  0  0  0  0  0  0  0
   24.7866    5.9833   15.4665 O   0  0  0  0  0  0  0  0  0  0  0  0
   20.1796    2.6450   13.9378 C   0  0  1  0  0  0  0  0  0  0  0  0
   22.8551    8.0112   16.1161 O   0  0  0  0  0  0  0  0  0  0  0  0
   19.9676    3.1264   15.3783 C   0  0  2  0  0  0  0  0  0  0  0  0
   17.1021    2.9165   19.9830 O   0  0  0  0  0  0  0  0  0  0  0  0
   20.9864    4.8066   16.7933 C   0  0  1  0  0  0  0  0  0  0  0  0
   15.0806    4.5718   19.5692 O   0  0  0  0  0  0  0  0  0  0  0  0
   23.2996    4.2863   16.3280 C   0  0  2  0  0  0  0  0  0  0  0  0
   24.4734    3.4461   16.8366 C   0  0  0  0  0  0  0  0  0  0  0  0
   23.6961    5.7633   16.3652 C   0  0  2  0  0  0  0  0  0  0  0  0
   22.5097    6.6327   15.9435 C   0  0  1  0  0  0  0  0  0  0  0  0
   21.2811    6.3104   16.7981 C   0  0  1  0  0  0  0  0  0  0  0  0
   17.4200    4.0980   19.2438 C   0  0  2  0  0  0  0  0  0  0  0  0
   16.3730    5.1790   19.4950 C   0  0  1  0  0  0  0  0  0  0  0  0
  1  3  1  0  0  0  0
  4  1  1  1  0  0  0
  4  6  1  0  0  0  0
  4 31  1  0  0  0  0
  6  7  1  0  0  0  0
  7  9  1  6  0  0  0
  7 30  1  0  0  0  0
  8 26  1  0  0  0  0
 10  9  1  1  0  0  0
 10 13  1  0  0  0  0
 10 21  1  0  0  0  0
 13 12  1  6  0  0  0
 13 15  1  0  0  0  0
 15  2  1  1  0  0  0
 15 17  1  0  0  0  0
 16 25  1  0  0  0  0
 16 23  1  0  0  0  0
 17 19  1  0  0  0  0
 19  5  1  1  0  0  0
 19 21  1  0  0  0  0
 21 14  1  6  0  0  0
 23 14  1  6  0  0  0
 23 29  1  0  0  0  0
 25 26  1  1  0  0  0
 25 27  1  0  0  0  0
 27 18  1  6  0  0  0
 27 28  1  0  0  0  0
 28 20  1  1  0  0  0
 28 29  1  0  0  0  0
 29 11  1  6  0  0  0
 30 22  1  1  0  0  0
 30 31  1  0  0  0  0
 31 24  1  6  0  0  0
M  END
>  <CHROM.1>
-53.89528872,-60.66423189,-87.31118935,74.25080094,78.83682063,-68.92874007
19.73520272,4.29747629,16.65122316,3.13225115,-0.30113053,-2.41557126

>  <Name>
ligand

>  <RI>
0

>  <Rbt.Current_Directory>
/home/itssahil/PROJECTS/Mol_Feturizer/New_Systems/rnas/3DVV

>  <Rbt.Executable>
rbdock ($Id: //depot/dev/client3/rdock/2013.1/src/exe/rbdock.cxx#4 $)

>  <Rbt.Library>
libRbt.so (2013.1, Build901 2013/11/27)

>  <Rbt.Parameter_File>
/export/apps/rDock/src/rDock_2013.1_src/data/scripts/dock_solv.prm

>  <Rbt.Receptor>
prm/pocket_docking_2.prm

>  <SCORE>
-5.56936

>  <SCORE.INTER>
-4.65541

>  <SCORE.INTER.CONST>
1

>  <SCORE.INTER.POLAR>
0

>  <SCORE.INTER.ROT>
6

>  <SCORE.INTER.SOLV>
24.0079

>  <SCORE.INTER.VDW>
-18.7062

>  <SCORE.INTER.norm>
-0.150174

>  <SCORE.INTRA>
-0.935584

>  <SCORE.INTRA.DIHEDRAL>
-4.50274

>  <SCORE.INTRA.DIHEDRAL.0>
10.8172

>  <SCORE.INTRA.POLAR>
0

>  <SCORE.INTRA.POLAR.0>
0

>  <SCORE.INTRA.REPUL>
0

>  <SCORE.INTRA.REPUL.0>
0

>  <SCORE.INTRA.SOLV>
0.944964

>  <SCORE.INTRA.SOLV.lig_0>
-80.3833

>  <SCORE.INTRA.VDW>
0.843301

>  <SCORE.INTRA.VDW.0>
-4.63762

>  <SCORE.INTRA.norm>
-0.0301801

>  <SCORE.RESTR>
0.0216343

>  <SCORE.RESTR.CAVITY>
0.0216343

>  <SCORE.RESTR.norm>
0.000697881

>  <SCORE.SYSTEM>
0

>  <SCORE.SYSTEM.CONST>
0

>  <SCORE.SYSTEM.DIHEDRAL>
0

>  <SCORE.SYSTEM.SOLV>
0

>  <SCORE.SYSTEM.norm>
0

>  <SCORE.heavy>
31

>  <SCORE.norm>
-0.179657

>  <RMSD>
0.743

$$$$
ligand
 OpenBabel11021811473D
libRbt.so/2013.1/901 2013/11/27
 31 33  0  0  0  0  0  0  0  0999 V2000
   17.7938    7.3360   18.8678 C   0  0  0  0  0  0  0  0  0  0  0  0
   17.4290    0.2674   13.7707 N   0  0  0  0  0  0  0  0  0  0  0  0
   17.1774    8.0911   19.9160 O   0  0  0  0  0  0  0  0  0  0  0  0
   16.8601    6.2141   18.4065 C   0  0  1  0  0  0  0  0  0  0  0  0
   21.8233    2.4079   13.8802 N   0  0  0  0  0  0  0  0  0  0  0  0
   17.4996    5.4243   17.3849 O   0  0  0  0  0  0  0  0  0  0  0  0
   17.4795    4.0447   17.7923 C   0  0  1  0  0  0  0  0  0  0  0  0
   25.4725    3.5652   16.9627 N   0  0  0  0  0  0  0  0  0  0  0  0
   18.6434    3.3383   17.3348 O   0  0  0  0  0  0  0  0  0  0  0  0
   18.6949    3.1702   15.9104 C   0  0  2  0  0  0  0  0  0  0  0  0
   20.1291    7.1895   15.8390 N   0  0  0  0  0  0  0  0  0  0  0  0
   16.6159    1.9373   15.8989 O   0  0  0  0  0  0  0  0  0  0  0  0
   18.0075    1.8393   15.5837 C   0  0  1  0  0  0  0  0  0  0  0  0
   20.7385    4.4898   15.5063 O   0  0  0  0  0  0  0  0  0  0  0  0
   18.1650    1.4973   14.1008 C   0  0  1  0  0  0  0  0  0  0  0  0
   21.9272    4.4110   17.5359 O   0  0  0  0  0  0  0  0  0  0  0  0
   19.6500    1.3215   13.7824 C   0  0  0  0  0  0  0  0  0  0  0  0
   24.8599    6.1265   16.1458 O   0  0  0  0  0  0  0  0  0  0  0  0
   20.3811    2.6399   14.0522 C   0  0  1  0  0  0  0  0  0  0  0  0
   22.8504    8.1820   16.1040 O   0  0  0  0  0  0  0  0  0  0  0  0
   20.1562    3.1751   15.4717 C   0  0  2  0  0  0  0  0  0  0  0  0
   17.0864    2.9331   19.9528 O   0  0  0  0  0  0  0  0  0  0  0  0
   20.8605    5.0597   16.8190 C   0  0  1  0  0  0  0  0  0  0  0  0
   15.2208    4.7592   19.5252 O   0  0  0  0  0  0  0  0  0  0  0  0
   23.2163    4.5307   16.9106 C   0  0  2  0  0  0  0  0  0  0  0  0
   24.2553    3.7925   17.7579 C   0  0  0  0  0  0  0  0  0  0  0  0
   23.6071    6.0072   16.8249 C   0  0  2  0  0  0  0  0  0  0  0  0
   22.5382    6.7858   16.0553 C   0  0  1  0  0  0  0  0  0  0  0  0
   21.1583    6.5562   16.6775 C   0  0  1  0  0  0  0  0  0  0  0  0
   17.5371    4.1311   19.3160 C   0  0  2  0  0  0  0  0  0  0  0  0
   16.5553    5.2703   19.5732 C   0  0  1  0  0  0  0  0  0  0  0  0
  1  3  1  0  0  0  0
  4  1  1  1  0  0  0
  4  6  1  0  0  0  0
  4 31  1  0  0  0  0
  6  7  1  0  0  0  0
  7  9  1  6  0  0  0
  7 30  1  0  0  0  0
  8 26  1  0  0  0  0
 10  9  1  1  0  0  0
 10 13  1  0  0  0  0
 10 21  1  0  0  0  0
 13 12  1  6  0  0  0
 13 15  1  0  0  0  0
 15  2  1  1  0  0  0
 15 17  1  0  0  0  0
 16 25  1  0  0  0  0
 16 23  1  0  0  0  0
 17 19  1  0  0  0  0
 19  5  1  1  0  0  0
 19 21  1  0  0  0  0
 21 14  1  6  0  0  0
 23 14  1  6  0  0  0
 23 29  1  0  0  0  0
 25 26  1  1  0  0  0
 25 27  1  0  0  0  0
 27 18  1  6  0  0  0
 27 28  1  0  0  0  0
 28 20  1  1  0  0  0
 28 29  1  0  0  0  0
 29 11  1  6  0  0  0
 30 22  1  1  0  0  0
 30 31  1  0  0  0  0
 31 24  1  6  0  0  0
M  END
>  <CHROM.1>
-177.93879264,-68.01190102,-90.77474578,73.53372162,66.00000882,163.60371457
19.79896147,4.43025092,16.80060207,-3.08397223,-0.30166306,-2.48832514

>  <Name>
ligand

>  <RI>
0

>  <Rbt.Current_Directory>
/home/itssahil/PROJECTS/Mol_Feturizer/New_Systems/rnas/3DVV

>  <Rbt.Executable>
rbdock ($Id: //depot/dev/client3/rdock/2013.1/src/exe/rbdock.cxx#4 $)

>  <Rbt.Library>
libRbt.so (2013.1, Build901 2013/11/27)

>  <Rbt.Parameter_File>
/export/apps/rDock/src/rDock_2013.1_src/data/scripts/dock_solv.prm

>  <Rbt.Receptor>
prm/pocket_docking_2.prm

>  <SCORE>
-9.92922

>  <SCORE.INTER>
-7.86502

>  <SCORE.INTER.CONST>
1

>  <SCORE.INTER.POLAR>
0

>  <SCORE.INTER.ROT>
6

>  <SCORE.INTER.SOLV>
21.6609

>  <SCORE.INTER.VDW>
-20.0637

>  <SCORE.INTER.norm>
-0.25371

>  <SCORE.INTRA>
-2.0642

>  <SCORE.INTRA.DIHEDRAL>
-4.53537

>  <SCORE.INTRA.DIHEDRAL.0>
10.8172

>  <SCORE.INTRA.POLAR>
0

>  <SCORE.INTRA.POLAR.0>
0

>  <SCORE.INTRA.REPUL>
0

>  <SCORE.INTRA.REPUL.0>
0

>  <SCORE.INTRA.SOLV>
-2.13632

>  <SCORE.INTRA.SOLV.lig_0>
-80.3833

>  <SCORE.INTRA.VDW>
1.27164

>  <SCORE.INTRA.VDW.0>
-4.63762

>  <SCORE.INTRA.norm>
-0.0665872

>  <SCORE.RESTR>
0

>  <SCORE.RESTR.CAVITY>
0

>  <SCORE.RESTR.norm>
0

>  <SCORE.SYSTEM>
0

>  <SCORE.SYSTEM.CONST>
0

>  <SCORE.SYSTEM.DIHEDRAL>
0

>  <SCORE.SYSTEM.SOLV>
0

>  <SCORE.SYSTEM.norm>
0

>  <SCORE.heavy>
31

>  <SCORE.norm>
-0.320297

>  <RMSD>
0.761

$$$$
ligand
 OpenBabel11021811473D
libRbt.so/2013.1/901 2013/11/27
 31 33  0  0  0  0  0  0  0  0999 V2000
   18.0039    7.2036   18.7477 C   0  0  0  0  0  0  0  0  0  0  0  0
   17.2306    0.2935   13.5108 N   0  0  0  0  0  0  0  0  0  0  0  0
   17.4587    8.0626   19.7545 O   0  0  0  0  0  0  0  0  0  0  0  0
   16.9721    6.1496   18.3382 C   0  0  1  0  0  0  0  0  0  0  0  0
   21.6667    2.3347   13.7516 N   0  0  0  0  0  0  0  0  0  0  0  0
   17.5113    5.3015   17.3056 O   0  0  0  0  0  0  0  0  0  0  0  0
   17.4037    3.9324   17.7341 C   0  0  1  0  0  0  0  0  0  0  0  0
   24.9856    3.8402   18.0966 N   0  0  0  0  0  0  0  0  0  0  0  0
   18.4932    3.1348   17.2445 O   0  0  0  0  0  0  0  0  0  0  0  0
   18.5467    3.0457   15.8130 C   0  0  2  0  0  0  0  0  0  0  0  0
   20.1492    6.9497   16.3614 N   0  0  0  0  0  0  0  0  0  0  0  0
   16.4433    1.8580   15.7269 O   0  0  0  0  0  0  0  0  0  0  0  0
   17.8338    1.7495   15.4105 C   0  0  1  0  0  0  0  0  0  0  0  0
   20.6181    4.3440   15.4889 O   0  0  0  0  0  0  0  0  0  0  0  0
   17.9901    1.4878   13.9112 C   0  0  1  0  0  0  0  0  0  0  0  0
   22.2169    3.9669   17.1740 O   0  0  0  0  0  0  0  0  0  0  0  0
   19.4724    1.2999   13.5873 C   0  0  0  0  0  0  0  0  0  0  0  0
   24.8118    5.9206   15.4634 O   0  0  0  0  0  0  0  0  0  0  0  0
   20.2289    2.5860   13.9325 C   0  0  1  0  0  0  0  0  0  0  0  0
   22.8824    7.9281   16.1793 O   0  0  0  0  0  0  0  0  0  0  0  0
   20.0095    3.0454   15.3791 C   0  0  2  0  0  0  0  0  0  0  0  0
   17.0113    2.8800   19.9242 O   0  0  0  0  0  0  0  0  0  0  0  0
   21.0333    4.7039   16.8158 C   0  0  1  0  0  0  0  0  0  0  0  0
   15.2724    4.8359   19.5387 O   0  0  0  0  0  0  0  0  0  0  0  0
   23.3418    4.2013   16.3098 C   0  0  2  0  0  0  0  0  0  0  0  0
   24.5250    3.3551   16.7858 C   0  0  0  0  0  0  0  0  0  0  0  0
   23.7340    5.6786   16.3716 C   0  0  2  0  0  0  0  0  0  0  0  0
   22.5393    6.5522   15.9833 C   0  0  1  0  0  0  0  0  0  0  0  0
   21.3231    6.2083   16.8473 C   0  0  1  0  0  0  0  0  0  0  0  0
   17.5256    4.0327   19.2532 C   0  0  2  0  0  0  0  0  0  0  0  0
   16.6422    5.2457   19.5295 C   0  0  1  0  0  0  0  0  0  0  0  0
  1  3  1  0  0  0  0
  4  1  1  1  0  0  0
  4  6  1  0  0  0  0
  4 31  1  0  0  0  0
  6  7  1  0  0  0  0
  7  9  1  6  0  0  0
  7 30  1  0  0  0  0
  8 26  1  0  0  0  0
 10  9  1  1  0  0  0
 10 13  1  0  0  0  0
 10 21  1  0  0  0  0
 13 12  1  6  0  0  0
 13 15  1  0  0  0  0
 15  2  1  1  0  0  0
 15 17  1  0  0  0  0
 16 25  1  0  0  0  0
 16 23  1  0  0  0  0
 17 19  1  0  0  0  0
 19  5  1  1  0  0  0
 19 21  1  0  0  0  0
 21 14  1  6  0  0  0
 23 14  1  6  0  0  0
 23 29  1  0  0  0  0
 25 26  1  1  0  0  0
 25 27  1  0  0  0  0
 27 18  1  6  0  0  0
 27 28  1  0  0  0  0
 28 20  1  1  0  0  0
 28 29  1  0  0  0  0
 29 11  1  6  0  0  0
 30 22  1  1  0  0  0
 30 31  1  0  0  0  0
 31 24  1  6  0  0  0
M  END
>  <CHROM.1>
178.85235996,-62.70704703,-95.68628341,73.85323803,79.94064692,-67.03131486
19.78332521,4.28990626,16.69012306,-3.06844647,-0.29294368,-2.44047326

>  <Name>
ligand

>  <RI>
0

>  <Rbt.Current_Directory>
/home/itssahil/PROJECTS/Mol_Feturizer/New_Systems/rnas/3DVV

>  <Rbt.Executable>
rbdock ($Id: //depot/dev/client3/rdock/2013.1/src/exe/rbdock.cxx#4 $)

>  <Rbt.Library>
libRbt.so (2013.1, Build901 2013/11/27)

>  <Rbt.Parameter_File>
/export/apps/rDock/src/rDock_2013.1_src/data/scripts/dock_solv.prm

>  <Rbt.Receptor>
prm/pocket_docking_2.prm

>  <SCORE>
-5.85872

>  <SCORE.INTER>
-5.21548

>  <SCORE.INTER.CONST>
1

>  <SCORE.INTER.POLAR>
0

>  <SCORE.INTER.ROT>
6

>  <SCORE.INTER.SOLV>
24.5206

>  <SCORE.INTER.VDW>
-19.2505

>  <SCORE.INTER.norm>
-0.168241

>  <SCORE.INTRA>
-0.643234

>  <SCORE.INTRA.DIHEDRAL>
-3.02861

>  <SCORE.INTRA.DIHEDRAL.0>
10.8172

>  <SCORE.INTRA.POLAR>
0

>  <SCORE.INTRA.POLAR.0>
0

>  <SCORE.INTRA.REPUL>
0

>  <SCORE.INTRA.REPUL.0>
0

>  <SCORE.INTRA.SOLV>
0.194578

>  <SCORE.INTRA.SOLV.lig_0>
-80.3833

>  <SCORE.INTRA.VDW>
0.773779

>  <SCORE.INTRA.VDW.0>
-4.63762

>  <SCORE.INTRA.norm>
-0.0207495

>  <SCORE.RESTR>
0

>  <SCORE.RESTR.CAVITY>
0

>  <SCORE.RESTR.norm>
0

>  <SCORE.SYSTEM>
0

>  <SCORE.SYSTEM.CONST>
0

>  <SCORE.SYSTEM.DIHEDRAL>
0

>  <SCORE.SYSTEM.SOLV>
0

>  <SCORE.SYSTEM.norm>
0

>  <SCORE.heavy>
31

>  <SCORE.norm>
-0.188991

>  <RMSD>
0.779

$$$$
ligand
 OpenBabel11021811473D
libRbt.so/2013.1/901 2013/11/27
 31 33  0  0  0  0  0  0  0  0999 V2000
   16.9955    7.2593   18.6243 C   0  0  0  0  0  0  0  0  0  0  0  0
   17.1606    0.2673   13.7331 N   0  0  0  0  0  0  0  0  0  0  0  0
   18.2842    6.9052   19.1368 O   0  0  0  0  0  0  0  0  0  0  0  0
   16.1960    5.9976   18.2895 C   0  0  1  0  0  0  0  0  0  0  0  0
   21.5496    2.4077   13.9744 N   0  0  0  0  0  0  0  0  0  0  0  0
   16.8973    5.2116   17.3062 O   0  0  0  0  0  0  0  0  0  0  0  0
   17.0632    3.8777   17.8191 C   0  0  1  0  0  0  0  0  0  0  0  0
   24.8659    3.9781   18.1042 N   0  0  0  0  0  0  0  0  0  0  0  0
   18.2916    3.2843   17.3698 O   0  0  0  0  0  0  0  0  0  0  0  0
   18.3755    3.1379   15.9445 C   0  0  2  0  0  0  0  0  0  0  0  0
   20.0194    7.1004   16.4169 N   0  0  0  0  0  0  0  0  0  0  0  0
   16.2982    1.9045   15.8672 O   0  0  0  0  0  0  0  0  0  0  0  0
   17.6966    1.8119   15.5823 C   0  0  1  0  0  0  0  0  0  0  0  0
   20.4268    4.4644   15.6069 O   0  0  0  0  0  0  0  0  0  0  0  0
   17.8880    1.4924   14.0983 C   0  0  1  0  0  0  0  0  0  0  0  0
   22.0637    4.1099   17.2601 O   0  0  0  0  0  0  0  0  0  0  0  0
   19.3800    1.3221   13.8110 C   0  0  0  0  0  0  0  0  0  0  0  0
   24.6411    5.9746   15.4281 O   0  0  0  0  0  0  0  0  0  0  0  0
   20.1038    2.6365   14.1173 C   0  0  1  0  0  0  0  0  0  0  0  0
   22.7610    8.0309   16.1364 O   0  0  0  0  0  0  0  0  0  0  0  0
   19.8464    3.1500   15.5391 C   0  0  2  0  0  0  0  0  0  0  0  0
   16.8805    2.9061   20.0731 O   0  0  0  0  0  0  0  0  0  0  0  0
   20.8820    4.8548   16.9119 C   0  0  1  0  0  0  0  0  0  0  0  0
   14.7881    4.4487   19.5835 O   0  0  0  0  0  0  0  0  0  0  0  0
   23.1688    4.3026   16.3607 C   0  0  2  0  0  0  0  0  0  0  0  0
   24.3514    3.4519   16.8298 C   0  0  0  0  0  0  0  0  0  0  0  0
   23.5841    5.7749   16.3705 C   0  0  2  0  0  0  0  0  0  0  0  0
   22.3926    6.6555   15.9886 C   0  0  1  0  0  0  0  0  0  0  0  0
   21.1946    6.3548   16.8931 C   0  0  1  0  0  0  0  0  0  0  0  0
   17.1571    4.0943   19.3280 C   0  0  2  0  0  0  0  0  0  0  0  0
   16.0487    5.1218   19.5370 C   0  0  1  0  0  0  0  0  0  0  0  0
  1  3  1  0  0  0  0
  4  1  1  1  0  0  0
  4  6  1  0  0  0  0
  4 31  1  0  0  0  0
  6  7  1  0  0  0  0
  7  9  1  6  0  0  0
  7 30  1  0  0  0  0
  8 26  1  0  0  0  0
 10  9  1  1  0  0  0
 10 13  1  0  0  0  0
 10 21  1  0  0  0  0
 13 12  1  6  0  0  0
 13 15  1  0  0  0  0
 15  2  1  1  0  0  0
 15 17  1  0  0  0  0
 16 25  1  0  0  0  0
 16 23  1  0  0  0  0
 17 19  1  0  0  0  0
 19  5  1  1  0  0  0
 19 21  1  0  0  0  0
 21 14  1  6  0  0  0
 23 14  1  6  0  0  0
 23 29  1  0  0  0  0
 25 26  1  1  0  0  0
 25 27  1  0  0  0  0
 27 18  1  6  0  0  0
 27 28  1  0  0  0  0
 28 20  1  1  0  0  0
 28 29  1  0  0  0  0
 29 11  1  6  0  0  0
 30 22  1  1  0  0  0
 30 31  1  0  0  0  0
 31 24  1  6  0  0  0
M  END
>  <CHROM.1>
-59.47708184,-61.80386853,-85.59375913,71.40253931,83.52669648,-67.84611331
19.57419729,4.28911624,16.74374535,-3.12887018,-0.30806360,-2.45655598

>  <Name>
ligand

>  <RI>
0

>  <Rbt.Current_Directory>
/home/itssahil/PROJECTS/Mol_Feturizer/New_Systems/rnas/3DVV

>  <Rbt.Executable>
rbdock ($Id: //depot/dev/client3/rdock/2013.1/src/exe/rbdock.cxx#4 $)

>  <Rbt.Library>
libRbt.so (2013.1, Build901 2013/11/27)

>  <Rbt.Parameter_File>
/export/apps/rDock/src/rDock_2013.1_src/data/scripts/dock_solv.prm

>  <Rbt.Receptor>
prm/pocket_docking_2.prm

>  <SCORE>
-5.50227

>  <SCORE.INTER>
-4.55076

>  <SCORE.INTER.CONST>
1

>  <SCORE.INTER.POLAR>
0

>  <SCORE.INTER.ROT>
6

>  <SCORE.INTER.SOLV>
24.3702

>  <SCORE.INTER.VDW>
-18.7572

>  <SCORE.INTER.norm>
-0.146799

>  <SCORE.INTRA>
-0.955695

>  <SCORE.INTRA.DIHEDRAL>
-4.57238

>  <SCORE.INTRA.DIHEDRAL.0>
10.8172

>  <SCORE.INTRA.POLAR>
0

>  <SCORE.INTRA.POLAR.0>
0

>  <SCORE.INTRA.REPUL>
0

>  <SCORE.INTRA.REPUL.0>
0

>  <SCORE.INTRA.SOLV>
0.554157

>  <SCORE.INTRA.SOLV.lig_0>
-80.3833

>  <SCORE.INTRA.VDW>
1.05342

>  <SCORE.INTRA.VDW.0>
-4.63762

>  <SCORE.INTRA.norm>
-0.0308289

>  <SCORE.RESTR>
0.00417912

>  <SCORE.RESTR.CAVITY>
0.00417912

>  <SCORE.RESTR.norm>
0.00013481

>  <SCORE.SYSTEM>
0

>  <SCORE.SYSTEM.CONST>
0

>  <SCORE.SYSTEM.DIHEDRAL>
0

>  <SCORE.SYSTEM.SOLV>
0

>  <SCORE.SYSTEM.norm>
0

>  <SCORE.heavy>
31

>  <SCORE.norm>
-0.177493

>  <RMSD>
0.787

$$$$
ligand
 OpenBabel11021811473D
libRbt.so/2013.1/901 2013/11/27
 31 33  0  0  0  0  0  0  0  0999 V2000
   17.9985    7.3706   19.0325 C   0  0  0  0  0  0  0  0  0  0  0  0
   17.1796    0.5131   14.1096 N   0  0  0  0  0  0  0  0  0  0  0  0
   17.4356    8.2157   20.0414 O   0  0  0  0  0  0  0  0  0  0  0  0
   17.1153    6.1380   18.8237 C   0  0  1  0  0  0  0  0  0  0  0  0
   21.6948    2.3666   13.8256 N   0  0  0  0  0  0  0  0  0  0  0  0
   17.6398    5.3265   17.7546 O   0  0  0  0  0  0  0  0  0  0  0  0
   17.8307    3.9880   18.2464 C   0  0  1  0  0  0  0  0  0  0  0  0
   24.7546    3.0125   17.4450 N   0  0  0  0  0  0  0  0  0  0  0  0
   18.9601    3.3508   17.6288 O   0  0  0  0  0  0  0  0  0  0  0  0
   18.8521    3.2391   16.2020 C   0  0  2  0  0  0  0  0  0  0  0  0
   19.8181    6.9525   16.1251 N   0  0  0  0  0  0  0  0  0  0  0  0
   16.7053    2.1410   16.3687 O   0  0  0  0  0  0  0  0  0  0  0  0
   18.0470    1.9689   15.9043 C   0  0  1  0  0  0  0  0  0  0  0  0
   20.9265    4.4433   15.6291 O   0  0  0  0  0  0  0  0  0  0  0  0
   18.0266    1.6795   14.4021 C   0  0  1  0  0  0  0  0  0  0  0  0
   22.3545    4.6012   17.4930 O   0  0  0  0  0  0  0  0  0  0  0  0
   19.4553    1.4241   13.9217 C   0  0  0  0  0  0  0  0  0  0  0  0
   24.6662    6.9040   15.8108 O   0  0  0  0  0  0  0  0  0  0  0  0
   20.2971    2.6815   14.1579 C   0  0  1  0  0  0  0  0  0  0  0  0
   22.2857    8.4921   16.0862 O   0  0  0  0  0  0  0  0  0  0  0  0
   20.2570    3.1703   15.6109 C   0  0  2  0  0  0  0  0  0  0  0  0
   17.9399    3.0256   20.5090 O   0  0  0  0  0  0  0  0  0  0  0  0
   21.0940    5.0167   16.9352 C   0  0  1  0  0  0  0  0  0  0  0  0
   15.8544    4.6414   20.3158 O   0  0  0  0  0  0  0  0  0  0  0  0
   23.5003    4.9932   16.7180 C   0  0  2  0  0  0  0  0  0  0  0  0
   24.7691    4.4835   17.4056 C   0  0  0  0  0  0  0  0  0  0  0  0
   23.5623    6.5195   16.6347 C   0  0  2  0  0  0  0  0  0  0  0  0
   22.2660    7.0619   16.0293 C   0  0  1  0  0  0  0  0  0  0  0  0
   21.0546    6.5433   16.8087 C   0  0  1  0  0  0  0  0  0  0  0  0
   18.1481    4.2025   19.7248 C   0  0  2  0  0  0  0  0  0  0  0  0
   17.1181    5.2691   20.0846 C   0  0  1  0  0  0  0  0  0  0  0  0
  1  3  1  0  0  0  0
  4  1  1  1  0  0  0
  4  6  1  0  0  0  0
  4 31  1  0  0  0  0
  6  7  1  0  0  0  0
  7  9  1  6  0  0  0
  7 30  1  0  0  0  0
  8 26  1  0  0  0  0
 10  9  1  1  0  0  0
 10 13  1  0  0  0  0
 10 21  1  0  0  0  0
 13 12  1  6  0  0  0
 13 15  1  0  0  0  0
 15  2  1  1  0  0  0
 15 17  1  0  0  0  0
 16 25  1  0  0  0  0
 16 23  1  0  0  0  0
 17 19  1  0  0  0  0
 19  5  1  1  0  0  0
 19 21  1  0  0  0  0
 21 14  1  6  0  0  0
 23 14  1  6  0  0  0
 23 29  1  0  0  0  0
 25 26  1  1  0  0  0
 25 27  1  0  0  0  0
 27 18  1  6  0  0  0
 27 28  1  0  0  0  0
 28 20  1  1  0  0  0
 28 29  1  0  0  0  0
 29 11  1  6  0  0  0
 30 22  1  1  0  0  0
 30 31  1  0  0  0  0
 31 24  1  6  0  0  0
M  END
>  <CHROM.1>
176.66884421,-59.89589544,-84.64794903,90.99247245,59.64392957,62.90319654
19.90666587,4.53647262,16.99974874,-3.09354883,-0.39500236,-2.46593386

>  <Name>
ligand

>  <RI>
0

>  <Rbt.Current_Directory>
/home/itssahil/PROJECTS/Mol_Feturizer/New_Systems/rnas/3DVV

>  <Rbt.Executable>
rbdock ($Id: //depot/dev/client3/rdock/2013.1/src/exe/rbdock.cxx#4 $)

>  <Rbt.Library>
libRbt.so (2013.1, Build901 2013/11/27)

>  <Rbt.Parameter_File>
/export/apps/rDock/src/rDock_2013.1_src/data/scripts/dock_solv.prm

>  <Rbt.Receptor>
prm/pocket_docking_3.prm

>  <SCORE>
-10.7559

>  <SCORE.INTER>
-9.14022

>  <SCORE.INTER.CONST>
1

>  <SCORE.INTER.POLAR>
0

>  <SCORE.INTER.ROT>
6

>  <SCORE.INTER.SOLV>
25.5217

>  <SCORE.INTER.VDW>
-22.2007

>  <SCORE.INTER.norm>
-0.294846

>  <SCORE.INTRA>
-1.61572

>  <SCORE.INTRA.DIHEDRAL>
-4.0855

>  <SCORE.INTRA.DIHEDRAL.0>
10.8172

>  <SCORE.INTRA.POLAR>
0

>  <SCORE.INTRA.POLAR.0>
0

>  <SCORE.INTRA.REPUL>
0

>  <SCORE.INTRA.REPUL.0>
0

>  <SCORE.INTRA.SOLV>
-2.11339

>  <SCORE.INTRA.SOLV.lig_0>
-80.3833

>  <SCORE.INTRA.VDW>
1.48373

>  <SCORE.INTRA.VDW.0>
-4.63762

>  <SCORE.INTRA.norm>
-0.05212

>  <SCORE.RESTR>
0

>  <SCORE.RESTR.CAVITY>
0

>  <SCORE.RESTR.norm>
0

>  <SCORE.SYSTEM>
0

>  <SCORE.SYSTEM.CONST>
0

>  <SCORE.SYSTEM.DIHEDRAL>
0

>  <SCORE.SYSTEM.SOLV>
0

>  <SCORE.SYSTEM.norm>
0

>  <SCORE.heavy>
31

>  <SCORE.norm>
-0.346966

>  <RMSD>
0.960

$$$$
ligand
 OpenBabel11021811473D
libRbt.so/2013.1/901 2013/11/27
 31 33  0  0  0  0  0  0  0  0999 V2000
   18.0159    7.3893   19.0399 C   0  0  0  0  0  0  0  0  0  0  0  0
   17.1969    0.5326   14.1064 N   0  0  0  0  0  0  0  0  0  0  0  0
   17.4414    8.2365   20.0405 O   0  0  0  0  0  0  0  0  0  0  0  0
   17.1295    6.1615   18.8159 C   0  0  1  0  0  0  0  0  0  0  0  0
   21.7251    2.3571   13.8421 N   0  0  0  0  0  0  0  0  0  0  0  0
   17.6613    5.3532   17.7480 O   0  0  0  0  0  0  0  0  0  0  0  0
   17.8414    4.0115   18.2348 C   0  0  1  0  0  0  0  0  0  0  0  0
   24.8078    3.0101   17.4052 N   0  0  0  0  0  0  0  0  0  0  0  0
   18.9742    3.3725   17.6254 O   0  0  0  0  0  0  0  0  0  0  0  0
   18.8740    3.2561   16.1984 C   0  0  2  0  0  0  0  0  0  0  0  0
   19.8541    6.9542   16.1381 N   0  0  0  0  0  0  0  0  0  0  0  0
   16.7194    2.1719   16.3566 O   0  0  0  0  0  0  0  0  0  0  0  0
   18.0627    1.9898   15.9007 C   0  0  1  0  0  0  0  0  0  0  0  0
   20.9591    4.4453   15.6332 O   0  0  0  0  0  0  0  0  0  0  0  0
   18.0493    1.6949   14.3995 C   0  0  1  0  0  0  0  0  0  0  0  0
   22.3962    4.6001   17.4903 O   0  0  0  0  0  0  0  0  0  0  0  0
   19.4793    1.4288   13.9285 C   0  0  0  0  0  0  0  0  0  0  0  0
   24.7005    6.9044   15.8001 O   0  0  0  0  0  0  0  0  0  0  0  0
   20.3274    2.6819   14.1650 C   0  0  1  0  0  0  0  0  0  0  0  0
   22.3220    8.4930   16.0892 O   0  0  0  0  0  0  0  0  0  0  0  0
   20.2819    3.1764   15.6159 C   0  0  2  0  0  0  0  0  0  0  0  0
   17.9237    3.0371   20.4935 O   0  0  0  0  0  0  0  0  0  0  0  0
   21.1332    5.0168   16.9393 C   0  0  1  0  0  0  0  0  0  0  0  0
   15.8472    4.6630   20.2875 O   0  0  0  0  0  0  0  0  0  0  0  0
   23.5384    4.9928   16.7103 C   0  0  2  0  0  0  0  0  0  0  0  0
   24.8104    4.4817   17.3910 C   0  0  0  0  0  0  0  0  0  0  0  0
   23.6005    6.5191   16.6288 C   0  0  2  0  0  0  0  0  0  0  0  0
   22.3015    7.0628   16.0304 C   0  0  1  0  0  0  0  0  0  0  0  0
   21.0938    6.5436   16.8150 C   0  0  1  0  0  0  0  0  0  0  0  0
   18.1449    4.2171   19.7174 C   0  0  2  0  0  0  0  0  0  0  0  0
   17.1159    5.2863   20.0723 C   0  0  1  0  0  0  0  0  0  0  0  0
  1  3  1  0  0  0  0
  4  1  1  1  0  0  0
  4  6  1  0  0  0  0
  4 31  1  0  0  0  0
  6  7  1  0  0  0  0
  7  9  1  6  0  0  0
  7 30  1  0  0  0  0
  8 26  1  0  0  0  0
 10  9  1  1  0  0  0
 10 13  1  0  0  0  0
 10 21  1  0  0  0  0
 13 12  1  6  0  0  0
 13 15  1  0  0  0  0
 15  2  1  1  0  0  0
 15 17  1  0  0  0  0
 16 25  1  0  0  0  0
 16 23  1  0  0  0  0
 17 19  1  0  0  0  0
 19  5  1  1  0  0  0
 19 21  1  0  0  0  0
 21 14  1  6  0  0  0
 23 14  1  6  0  0  0
 23 29  1  0  0  0  0
 25 26  1  1  0  0  0
 25 27  1  0  0  0  0
 27 18  1  6  0  0  0
 27 28  1  0  0  0  0
 28 20  1  1  0  0  0
 28 29  1  0  0  0  0
 29 11  1  6  0  0  0
 30 22  1  1  0  0  0
 30 31  1  0  0  0  0
 31 24  1  6  0  0  0
M  END
>  <CHROM.1>
176.25337674,-60.50556243,-84.27847244,91.35215286,60.17832401,63.99192871
19.92968979,4.54648701,16.99550221,-3.08579562,-0.38982359,-2.46947132

>  <Name>
ligand

>  <RI>
0

>  <Rbt.Current_Directory>
/home/itssahil/PROJECTS/Mol_Feturizer/New_Systems/rnas/3DVV

>  <Rbt.Executable>
rbdock ($Id: //depot/dev/client3/rdock/2013.1/src/exe/rbdock.cxx#4 $)

>  <Rbt.Library>
libRbt.so (2013.1, Build901 2013/11/27)

>  <Rbt.Parameter_File>
/export/apps/rDock/src/rDock_2013.1_src/data/scripts/dock_solv.prm

>  <Rbt.Receptor>
prm/pocket_docking_4.prm

>  <SCORE>
-10.7038

>  <SCORE.INTER>
-9.10209

>  <SCORE.INTER.CONST>
1

>  <SCORE.INTER.POLAR>
0

>  <SCORE.INTER.ROT>
6

>  <SCORE.INTER.SOLV>
25.4116

>  <SCORE.INTER.VDW>
-22.1386

>  <SCORE.INTER.norm>
-0.293616

>  <SCORE.INTRA>
-1.60169

>  <SCORE.INTRA.DIHEDRAL>
-4.04641

>  <SCORE.INTRA.DIHEDRAL.0>
10.8172

>  <SCORE.INTRA.POLAR>
0

>  <SCORE.INTRA.POLAR.0>
0

>  <SCORE.INTRA.REPUL>
0

>  <SCORE.INTRA.REPUL.0>
0

>  <SCORE.INTRA.SOLV>
-2.09203

>  <SCORE.INTRA.SOLV.lig_0>
-80.3833

>  <SCORE.INTRA.VDW>
1.46753

>  <SCORE.INTRA.VDW.0>
-4.63762

>  <SCORE.INTRA.norm>
-0.0516673

>  <SCORE.RESTR>
0

>  <SCORE.RESTR.CAVITY>
0

>  <SCORE.RESTR.norm>
0

>  <SCORE.SYSTEM>
0

>  <SCORE.SYSTEM.CONST>
0

>  <SCORE.SYSTEM.DIHEDRAL>
0

>  <SCORE.SYSTEM.SOLV>
0

>  <SCORE.SYSTEM.norm>
0

>  <SCORE.heavy>
31

>  <SCORE.norm>
-0.345283

>  <RMSD>
0.961

$$$$
ligand
 OpenBabel11021811473D
libRbt.so/2013.1/901 2013/11/27
 31 33  0  0  0  0  0  0  0  0999 V2000
   17.2795    7.2023   19.1406 C   0  0  0  0  0  0  0  0  0  0  0  0
   16.9500    0.4979   14.2309 N   0  0  0  0  0  0  0  0  0  0  0  0
   18.6686    7.0085   19.4266 O   0  0  0  0  0  0  0  0  0  0  0  0
   16.5897    5.8512   18.9353 C   0  0  1  0  0  0  0  0  0  0  0  0
   21.4752    2.3070   13.8396 N   0  0  0  0  0  0  0  0  0  0  0  0
   17.2063    5.1394   17.8447 O   0  0  0  0  0  0  0  0  0  0  0  0
   17.6105    3.8412   18.3149 C   0  0  1  0  0  0  0  0  0  0  0  0
   25.6325    3.5727   16.7340 N   0  0  0  0  0  0  0  0  0  0  0  0
   18.8089    3.3896   17.6646 O   0  0  0  0  0  0  0  0  0  0  0  0
   18.6775    3.2506   16.2421 C   0  0  2  0  0  0  0  0  0  0  0  0
   20.2097    7.1353   15.9779 N   0  0  0  0  0  0  0  0  0  0  0  0
   16.5247    2.1743   16.4643 O   0  0  0  0  0  0  0  0  0  0  0  0
   17.8574    1.9816   15.9825 C   0  0  1  0  0  0  0  0  0  0  0  0
   20.7524    4.4255   15.6130 O   0  0  0  0  0  0  0  0  0  0  0  0
   17.8110    1.6627   14.4868 C   0  0  1  0  0  0  0  0  0  0  0  0
   22.1010    4.3395   17.5396 O   0  0  0  0  0  0  0  0  0  0  0  0
   19.2298    1.3856   13.9894 C   0  0  0  0  0  0  0  0  0  0  0  0
   24.9345    6.0059   15.9054 O   0  0  0  0  0  0  0  0  0  0  0  0
   20.0855    2.6403   14.1873 C   0  0  1  0  0  0  0  0  0  0  0  0
   22.9571    8.0898   16.0148 O   0  0  0  0  0  0  0  0  0  0  0  0
   20.0723    3.1582   15.6307 C   0  0  2  0  0  0  0  0  0  0  0  0
   17.9185    2.8856   20.5621 O   0  0  0  0  0  0  0  0  0  0  0  0
   20.9887    4.9999   16.9079 C   0  0  1  0  0  0  0  0  0  0  0  0
   15.6072    4.1659   20.4354 O   0  0  0  0  0  0  0  0  0  0  0  0
   23.3365    4.4376   16.8109 C   0  0  2  0  0  0  0  0  0  0  0  0
   24.4306    3.6886   17.5754 C   0  0  0  0  0  0  0  0  0  0  0  0
   23.7395    5.9079   16.6849 C   0  0  2  0  0  0  0  0  0  0  0  0
   22.6225    6.6981   16.0000 C   0  0  1  0  0  0  0  0  0  0  0  0
   21.2948    6.4913   16.7338 C   0  0  1  0  0  0  0  0  0  0  0  0
   17.9264    4.0878   19.7886 C   0  0  2  0  0  0  0  0  0  0  0  0
   16.7547    4.9812   20.1846 C   0  0  1  0  0  0  0  0  0  0  0  0
  1  3  1  0  0  0  0
  4  1  1  1  0  0  0
  4  6  1  0  0  0  0
  4 31  1  0  0  0  0
  6  7  1  0  0  0  0
  7  9  1  6  0  0  0
  7 30  1  0  0  0  0
  8 26  1  0  0  0  0
 10  9  1  1  0  0  0
 10 13  1  0  0  0  0
 10 21  1  0  0  0  0
 13 12  1  6  0  0  0
 13 15  1  0  0  0  0
 15  2  1  1  0  0  0
 15 17  1  0  0  0  0
 16 25  1  0  0  0  0
 16 23  1  0  0  0  0
 17 19  1  0  0  0  0
 19  5  1  1  0  0  0
 19 21  1  0  0  0  0
 21 14  1  6  0  0  0
 23 14  1  6  0  0  0
 23 29  1  0  0  0  0
 25 26  1  1  0  0  0
 25 27  1  0  0  0  0
 27 18  1  6  0  0  0
 27 28  1  0  0  0  0
 28 20  1  1  0  0  0
 28 29  1  0  0  0  0
 29 11  1  6  0  0  0
 30 22  1  1  0  0  0
 30 31  1  0  0  0  0
 31 24  1  6  0  0  0
M  END
>  <CHROM.1>
-59.31514113,-61.07102051,-74.80712022,77.38573193,61.81742390,169.90739102
19.86444945,4.32465081,16.99966514,-3.08022248,-0.37023585,-2.38856366

>  <Name>
ligand

>  <RI>
0

>  <Rbt.Current_Directory>
/home/itssahil/PROJECTS/Mol_Feturizer/New_Systems/rnas/3DVV

>  <Rbt.Executable>
rbdock ($Id: //depot/dev/client3/rdock/2013.1/src/exe/rbdock.cxx#4 $)

>  <Rbt.Library>
libRbt.so (2013.1, Build901 2013/11/27)

>  <Rbt.Parameter_File>
/export/apps/rDock/src/rDock_2013.1_src/data/scripts/dock_solv.prm

>  <Rbt.Receptor>
prm/pocket_docking_6.prm

>  <SCORE>
-11.0477

>  <SCORE.INTER>
-8.60054

>  <SCORE.INTER.CONST>
1

>  <SCORE.INTER.POLAR>
0

>  <SCORE.INTER.ROT>
6

>  <SCORE.INTER.SOLV>
21.9455

>  <SCORE.INTER.VDW>
-20.6489

>  <SCORE.INTER.norm>
-0.277437

>  <SCORE.INTRA>
-2.44712

>  <SCORE.INTRA.DIHEDRAL>
-7.74204

>  <SCORE.INTRA.DIHEDRAL.0>
10.8172

>  <SCORE.INTRA.POLAR>
0

>  <SCORE.INTRA.POLAR.0>
0

>  <SCORE.INTRA.REPUL>
0

>  <SCORE.INTRA.REPUL.0>
0

>  <SCORE.INTRA.SOLV>
-1.99412

>  <SCORE.INTRA.SOLV.lig_0>
-80.3833

>  <SCORE.INTRA.VDW>
2.42096

>  <SCORE.INTRA.VDW.0>
-4.63762

>  <SCORE.INTRA.norm>
-0.0789392

>  <SCORE.RESTR>
0

>  <SCORE.RESTR.CAVITY>
0

>  <SCORE.RESTR.norm>
0

>  <SCORE.SYSTEM>
0

>  <SCORE.SYSTEM.CONST>
0

>  <SCORE.SYSTEM.DIHEDRAL>
0

>  <SCORE.SYSTEM.SOLV>
0

>  <SCORE.SYSTEM.norm>
0

>  <SCORE.heavy>
31

>  <SCORE.norm>
-0.356376

>  <RMSD>
1.058

$$$$
ligand
 OpenBabel11021811473D
libRbt.so/2013.1/901 2013/11/27
 31 33  0  0  0  0  0  0  0  0999 V2000
   16.1914    6.8028   16.9771 C   0  0  0  0  0  0  0  0  0  0  0  0
   18.1452   -0.1165   13.2898 N   0  0  0  0  0  0  0  0  0  0  0  0
   15.2210    7.5992   17.6648 O   0  0  0  0  0  0  0  0  0  0  0  0
   15.7879    5.3267   17.0191 C   0  0  1  0  0  0  0  0  0  0  0  0
   22.2880    2.4079   13.8967 N   0  0  0  0  0  0  0  0  0  0  0  0
   16.7348    4.5317   16.2790 O   0  0  0  0  0  0  0  0  0  0  0  0
   17.2270    3.4876   17.1378 C   0  0  1  0  0  0  0  0  0  0  0  0
   25.4805    3.9399   17.1743 N   0  0  0  0  0  0  0  0  0  0  0  0
   18.5954    3.1616   16.8478 O   0  0  0  0  0  0  0  0  0  0  0  0
   18.8568    2.9536   15.4519 C   0  0  2  0  0  0  0  0  0  0  0  0
   19.9963    7.0896   15.4973 N   0  0  0  0  0  0  0  0  0  0  0  0
   16.9096    1.5414   15.2143 O   0  0  0  0  0  0  0  0  0  0  0  0
   18.3346    1.5573   15.0940 C   0  0  1  0  0  0  0  0  0  0  0  0
   20.8191    4.4360   15.2697 O   0  0  0  0  0  0  0  0  0  0  0  0
   18.7233    1.1837   13.6621 C   0  0  1  0  0  0  0  0  0  0  0  0
   21.8281    4.4678   17.3955 O   0  0  0  0  0  0  0  0  0  0  0  0
   20.2474    1.1304   13.5546 C   0  0  0  0  0  0  0  0  0  0  0  0
   24.7446    6.3694   16.2318 O   0  0  0  0  0  0  0  0  0  0  0  0
   20.8216    2.5164   13.8627 C   0  0  1  0  0  0  0  0  0  0  0  0
   22.6082    8.2762   15.9776 O   0  0  0  0  0  0  0  0  0  0  0  0
   20.3591    3.0743   15.2142 C   0  0  2  0  0  0  0  0  0  0  0  0
   17.1808    3.1515   19.5756 O   0  0  0  0  0  0  0  0  0  0  0  0
   20.7857    5.0298   16.5769 C   0  0  1  0  0  0  0  0  0  0  0  0
   14.7804    3.8573   18.7167 O   0  0  0  0  0  0  0  0  0  0  0  0
   23.1555    4.6707   16.8818 C   0  0  2  0  0  0  0  0  0  0  0  0
   24.1652    4.0190   17.8296 C   0  0  0  0  0  0  0  0  0  0  0  0
   23.4485    6.1700   16.8023 C   0  0  2  0  0  0  0  0  0  0  0  0
   22.3994    6.8608   15.9285 C   0  0  1  0  0  0  0  0  0  0  0  0
   20.9898    6.5417   16.4335 C   0  0  1  0  0  0  0  0  0  0  0  0
   17.1672    4.1218   18.5259 C   0  0  2  0  0  0  0  0  0  0  0  0
   15.8102    4.8163   18.4627 C   0  0  1  0  0  0  0  0  0  0  0  0
  1  3  1  0  0  0  0
  4  1  1  1  0  0  0
  4  6  1  0  0  0  0
  4 31  1  0  0  0  0
  6  7  1  0  0  0  0
  7  9  1  6  0  0  0
  7 30  1  0  0  0  0
  8 26  1  0  0  0  0
 10  9  1  1  0  0  0
 10 13  1  0  0  0  0
 10 21  1  0  0  0  0
 13 12  1  6  0  0  0
 13 15  1  0  0  0  0
 15  2  1  1  0  0  0
 15 17  1  0  0  0  0
 16 25  1  0  0  0  0
 16 23  1  0  0  0  0
 17 19  1  0  0  0  0
 19  5  1  1  0  0  0
 19 21  1  0  0  0  0
 21 14  1  6  0  0  0
 23 14  1  6  0  0  0
 23 29  1  0  0  0  0
 25 26  1  1  0  0  0
 25 27  1  0  0  0  0
 27 18  1  6  0  0  0
 27 28  1  0  0  0  0
 28 20  1  1  0  0  0
 28 29  1  0  0  0  0
 29 11  1  6  0  0  0
 30 22  1  1  0  0  0
 30 31  1  0  0  0  0
 31 24  1  6  0  0  0
M  END
>  <CHROM.1>
177.59626093,-48.61369750,-77.42745439,72.39739190,69.55787077,166.86889547
19.64156291,4.25015481,16.30330598,3.05925426,-0.19337536,-2.61486969

>  <Name>
ligand

>  <RI>
0

>  <Rbt.Current_Directory>
/home/itssahil/PROJECTS/Mol_Feturizer/New_Systems/rnas/3DVV

>  <Rbt.Executable>
rbdock ($Id: //depot/dev/client3/rdock/2013.1/src/exe/rbdock.cxx#4 $)

>  <Rbt.Library>
libRbt.so (2013.1, Build901 2013/11/27)

>  <Rbt.Parameter_File>
/export/apps/rDock/src/rDock_2013.1_src/data/scripts/dock_solv.prm

>  <Rbt.Receptor>
prm/pocket_docking_5.prm

>  <SCORE>
-9.56838

>  <SCORE.INTER>
-7.09557

>  <SCORE.INTER.CONST>
1

>  <SCORE.INTER.POLAR>
0

>  <SCORE.INTER.ROT>
6

>  <SCORE.INTER.SOLV>
21.0735

>  <SCORE.INTER.VDW>
-19.3549

>  <SCORE.INTER.norm>
-0.228889

>  <SCORE.INTRA>
-2.47281

>  <SCORE.INTRA.DIHEDRAL>
-6.77498

>  <SCORE.INTRA.DIHEDRAL.0>
10.8172

>  <SCORE.INTRA.POLAR>
0

>  <SCORE.INTRA.POLAR.0>
0

>  <SCORE.INTRA.REPUL>
0

>  <SCORE.INTRA.REPUL.0>
0

>  <SCORE.INTRA.SOLV>
-2.72248

>  <SCORE.INTRA.SOLV.lig_0>
-80.3833

>  <SCORE.INTRA.VDW>
2.27592

>  <SCORE.INTRA.VDW.0>
-4.63762

>  <SCORE.INTRA.norm>
-0.0797681

>  <SCORE.RESTR>
0

>  <SCORE.RESTR.CAVITY>
0

>  <SCORE.RESTR.norm>
0

>  <SCORE.SYSTEM>
0

>  <SCORE.SYSTEM.CONST>
0

>  <SCORE.SYSTEM.DIHEDRAL>
0

>  <SCORE.SYSTEM.SOLV>
0

>  <SCORE.SYSTEM.norm>
0

>  <SCORE.heavy>
31

>  <SCORE.norm>
-0.308657

>  <RMSD>
1.117

$$$$
ligand
 OpenBabel11021811473D
libRbt.so/2013.1/901 2013/11/27
 31 33  0  0  0  0  0  0  0  0999 V2000
   18.0709    7.5876   18.9278 C   0  0  0  0  0  0  0  0  0  0  0  0
   17.1004    0.5805   14.2906 N   0  0  0  0  0  0  0  0  0  0  0  0
   17.5233    8.4326   19.9451 O   0  0  0  0  0  0  0  0  0  0  0  0
   17.2007    6.3404   18.7532 C   0  0  1  0  0  0  0  0  0  0  0  0
   21.6723    2.2416   13.7980 N   0  0  0  0  0  0  0  0  0  0  0  0
   17.7236    5.5142   17.6946 O   0  0  0  0  0  0  0  0  0  0  0  0
   17.9363    4.1882   18.2106 C   0  0  1  0  0  0  0  0  0  0  0  0
   25.7745    3.4189   16.9741 N   0  0  0  0  0  0  0  0  0  0  0  0
   19.0668    3.5526   17.5933 O   0  0  0  0  0  0  0  0  0  0  0  0
   18.9208    3.3607   16.1785 C   0  0  2  0  0  0  0  0  0  0  0  0
   20.6286    7.2055   15.6237 N   0  0  0  0  0  0  0  0  0  0  0  0
   16.7399    2.3564   16.4574 O   0  0  0  0  0  0  0  0  0  0  0  0
   18.0630    2.1064   15.9752 C   0  0  1  0  0  0  0  0  0  0  0  0
   21.0235    4.4493   15.4894 O   0  0  0  0  0  0  0  0  0  0  0  0
   17.9961    1.7294   14.4939 C   0  0  1  0  0  0  0  0  0  0  0  0
   22.2511    4.4322   17.4971 O   0  0  0  0  0  0  0  0  0  0  0  0
   19.4028    1.3919   13.9990 C   0  0  0  0  0  0  0  0  0  0  0  0
   25.2712    5.8056   15.9258 O   0  0  0  0  0  0  0  0  0  0  0  0
   20.2953    2.6284   14.1409 C   0  0  1  0  0  0  0  0  0  0  0  0
   23.4229    8.0014   15.7619 O   0  0  0  0  0  0  0  0  0  0  0  0
   20.3078    3.2037   15.5623 C   0  0  2  0  0  0  0  0  0  0  0  0
   18.0820    3.2724   20.4905 O   0  0  0  0  0  0  0  0  0  0  0  0
   21.2198    5.1055   16.7517 C   0  0  1  0  0  0  0  0  0  0  0  0
   15.9746    4.8587   20.2884 O   0  0  0  0  0  0  0  0  0  0  0  0
   23.5302    4.4041   16.8411 C   0  0  2  0  0  0  0  0  0  0  0  0
   24.5302    3.6538   17.7240 C   0  0  0  0  0  0  0  0  0  0  0  0
   24.0296    5.8352   16.6347 C   0  0  2  0  0  0  0  0  0  0  0  0
   23.0046    6.6339   15.8268 C   0  0  1  0  0  0  0  0  0  0  0  0
   21.6267    6.5595   16.4899 C   0  0  1  0  0  0  0  0  0  0  0  0
   18.2671    4.4359   19.6809 C   0  0  2  0  0  0  0  0  0  0  0  0
   17.2280    5.4969   20.0309 C   0  0  1  0  0  0  0  0  0  0  0  0
  1  3  1  0  0  0  0
  4  1  1  1  0  0  0
  4  6  1  0  0  0  0
  4 31  1  0  0  0  0
  6  7  1  0  0  0  0
  7  9  1  6  0  0  0
  7 30  1  0  0  0  0
  8 26  1  0  0  0  0
 10  9  1  1  0  0  0
 10 13  1  0  0  0  0
 10 21  1  0  0  0  0
 13 12  1  6  0  0  0
 13 15  1  0  0  0  0
 15  2  1  1  0  0  0
 15 17  1  0  0  0  0
 16 25  1  0  0  0  0
 16 23  1  0  0  0  0
 17 19  1  0  0  0  0
 19  5  1  1  0  0  0
 19 21  1  0  0  0  0
 21 14  1  6  0  0  0
 23 14  1  6  0  0  0
 23 29  1  0  0  0  0
 25 26  1  1  0  0  0
 25 27  1  0  0  0  0
 27 18  1  6  0  0  0
 27 28  1  0  0  0  0
 28 20  1  1  0  0  0
 28 29  1  0  0  0  0
 29 11  1  6  0  0  0
 30 22  1  1  0  0  0
 30 31  1  0  0  0  0
 31 24  1  6  0  0  0
M  END
>  <CHROM.1>
177.84366318,-62.36506199,-80.71457958,75.28184008,58.46543262,170.51789821
20.11126851,4.50504057,16.94398776,-2.97917627,-0.32589440,-2.45414414

>  <Name>
ligand

>  <RI>
0

>  <Rbt.Current_Directory>
/home/itssahil/PROJECTS/Mol_Feturizer/New_Systems/rnas/3DVV

>  <Rbt.Executable>
rbdock ($Id: //depot/dev/client3/rdock/2013.1/src/exe/rbdock.cxx#4 $)

>  <Rbt.Library>
libRbt.so (2013.1, Build901 2013/11/27)

>  <Rbt.Parameter_File>
/export/apps/rDock/src/rDock_2013.1_src/data/scripts/dock_solv.prm

>  <Rbt.Receptor>
prm/pocket_docking_4.prm

>  <SCORE>
-11.895

>  <SCORE.INTER>
-9.23706

>  <SCORE.INTER.CONST>
1

>  <SCORE.INTER.POLAR>
0

>  <SCORE.INTER.ROT>
6

>  <SCORE.INTER.SOLV>
22.5583

>  <SCORE.INTER.VDW>
-21.2775

>  <SCORE.INTER.norm>
-0.29797

>  <SCORE.INTRA>
-2.6579

>  <SCORE.INTRA.DIHEDRAL>
-7.16494

>  <SCORE.INTRA.DIHEDRAL.0>
10.8172

>  <SCORE.INTRA.POLAR>
0

>  <SCORE.INTRA.POLAR.0>
0

>  <SCORE.INTRA.REPUL>
0

>  <SCORE.INTRA.REPUL.0>
0

>  <SCORE.INTRA.SOLV>
-2.91692

>  <SCORE.INTRA.SOLV.lig_0>
-80.3833

>  <SCORE.INTRA.VDW>
2.38303

>  <SCORE.INTRA.VDW.0>
-4.63762

>  <SCORE.INTRA.norm>
-0.0857388

>  <SCORE.RESTR>
0

>  <SCORE.RESTR.CAVITY>
0

>  <SCORE.RESTR.norm>
0

>  <SCORE.SYSTEM>
0

>  <SCORE.SYSTEM.CONST>
0

>  <SCORE.SYSTEM.DIHEDRAL>
0

>  <SCORE.SYSTEM.SOLV>
0

>  <SCORE.SYSTEM.norm>
0

>  <SCORE.heavy>
31

>  <SCORE.norm>
-0.383708

>  <RMSD>
1.142

$$$$
ligand
 OpenBabel11021811473D
libRbt.so/2013.1/901 2013/11/27
 31 33  0  0  0  0  0  0  0  0999 V2000
   17.9865    7.3964   19.1617 C   0  0  0  0  0  0  0  0  0  0  0  0
   17.1640    0.5549   14.2133 N   0  0  0  0  0  0  0  0  0  0  0  0
   17.3895    8.1910   20.1917 O   0  0  0  0  0  0  0  0  0  0  0  0
   17.1381    6.1496   18.8987 C   0  0  1  0  0  0  0  0  0  0  0  0
   21.7083    2.3083   13.7912 N   0  0  0  0  0  0  0  0  0  0  0  0
   17.6913    5.3944   17.8033 O   0  0  0  0  0  0  0  0  0  0  0  0
   17.9148    4.0434   18.2446 C   0  0  1  0  0  0  0  0  0  0  0  0
   25.8166    3.4989   16.9041 N   0  0  0  0  0  0  0  0  0  0  0  0
   19.0650    3.4608   17.6118 O   0  0  0  0  0  0  0  0  0  0  0  0
   18.9282    3.3085   16.1912 C   0  0  2  0  0  0  0  0  0  0  0  0
   20.5428    7.1889   15.7970 N   0  0  0  0  0  0  0  0  0  0  0  0
   16.7639    2.2591   16.4302 O   0  0  0  0  0  0  0  0  0  0  0  0
   18.0931    2.0463   15.9469 C   0  0  1  0  0  0  0  0  0  0  0  0
   21.0145    4.4532   15.5444 O   0  0  0  0  0  0  0  0  0  0  0  0
   18.0388    1.7124   14.4548 C   0  0  1  0  0  0  0  0  0  0  0  0
   22.2777    4.3920   17.5289 O   0  0  0  0  0  0  0  0  0  0  0  0
   19.4531    1.4141   13.9565 C   0  0  0  0  0  0  0  0  0  0  0  0
   25.2285    5.9157   15.9644 O   0  0  0  0  0  0  0  0  0  0  0  0
   20.3235    2.6610   14.1391 C   0  0  1  0  0  0  0  0  0  0  0  0
   23.3150    8.0608   15.9207 O   0  0  0  0  0  0  0  0  0  0  0  0
   20.3202    3.1939   15.5770 C   0  0  2  0  0  0  0  0  0  0  0  0
   18.0348    2.9974   20.4694 O   0  0  0  0  0  0  0  0  0  0  0  0
   21.2143    5.0639   16.8288 C   0  0  1  0  0  0  0  0  0  0  0  0
   15.9079    4.5635   20.3224 O   0  0  0  0  0  0  0  0  0  0  0  0
   23.5452    4.4279   16.8511 C   0  0  2  0  0  0  0  0  0  0  0  0
   24.5821    3.6727   17.6860 C   0  0  0  0  0  0  0  0  0  0  0  0
   23.9994    5.8803   16.6946 C   0  0  2  0  0  0  0  0  0  0  0  0
   22.9376    6.6801   15.9370 C   0  0  1  0  0  0  0  0  0  0  0  0
   21.5744    6.5385   16.6194 C   0  0  1  0  0  0  0  0  0  0  0  0
   18.2166    4.2089   19.7326 C   0  0  2  0  0  0  0  0  0  0  0  0
   17.1559    5.2330   20.1253 C   0  0  1  0  0  0  0  0  0  0  0  0
  1  3  1  0  0  0  0
  4  1  1  1  0  0  0
  4  6  1  0  0  0  0
  4 31  1  0  0  0  0
  6  7  1  0  0  0  0
  7  9  1  6  0  0  0
  7 30  1  0  0  0  0
  8 26  1  0  0  0  0
 10  9  1  1  0  0  0
 10 13  1  0  0  0  0
 10 21  1  0  0  0  0
 13 12  1  6  0  0  0
 13 15  1  0  0  0  0
 15  2  1  1  0  0  0
 15 17  1  0  0  0  0
 16 25  1  0  0  0  0
 16 23  1  0  0  0  0
 17 19  1  0  0  0  0
 19  5  1  1  0  0  0
 19 21  1  0  0  0  0
 21 14  1  6  0  0  0
 23 14  1  6  0  0  0
 23 29  1  0  0  0  0
 25 26  1  1  0  0  0
 25 27  1  0  0  0  0
 27 18  1  6  0  0  0
 27 28  1  0  0  0  0
 28 20  1  1  0  0  0
 28 29  1  0  0  0  0
 29 11  1  6  0  0  0
 30 22  1  1  0  0  0
 30 31  1  0  0  0  0
 31 24  1  6  0  0  0
M  END
>  <CHROM.1>
176.28269617,-64.36213559,-80.00380884,76.09334447,59.47767208,170.23215628
20.09274209,4.44167401,16.99267762,-2.99054107,-0.34423084,-2.42789789

>  <Name>
ligand

>  <RI>
0

>  <Rbt.Current_Directory>
/home/itssahil/PROJECTS/Mol_Feturizer/New_Systems/rnas/3DVV

>  <Rbt.Executable>
rbdock ($Id: //depot/dev/client3/rdock/2013.1/src/exe/rbdock.cxx#4 $)

>  <Rbt.Library>
libRbt.so (2013.1, Build901 2013/11/27)

>  <Rbt.Parameter_File>
/export/apps/rDock/src/rDock_2013.1_src/data/scripts/dock_solv.prm

>  <Rbt.Receptor>
prm/pocket_docking_3.prm

>  <SCORE>
-11.8259

>  <SCORE.INTER>
-9.19961

>  <SCORE.INTER.CONST>
1

>  <SCORE.INTER.POLAR>
0

>  <SCORE.INTER.ROT>
6

>  <SCORE.INTER.SOLV>
22.691

>  <SCORE.INTER.VDW>
-21.2967

>  <SCORE.INTER.norm>
-0.296761

>  <SCORE.INTRA>
-2.62628

>  <SCORE.INTRA.DIHEDRAL>
-7.06642

>  <SCORE.INTRA.DIHEDRAL.0>
10.8172

>  <SCORE.INTRA.POLAR>
0

>  <SCORE.INTRA.POLAR.0>
0

>  <SCORE.INTRA.REPUL>
0

>  <SCORE.INTRA.REPUL.0>
0

>  <SCORE.INTRA.SOLV>
-2.92127

>  <SCORE.INTRA.SOLV.lig_0>
-80.3833

>  <SCORE.INTRA.VDW>
2.36756

>  <SCORE.INTRA.VDW.0>
-4.63762

>  <SCORE.INTRA.norm>
-0.0847188

>  <SCORE.RESTR>
0

>  <SCORE.RESTR.CAVITY>
0

>  <SCORE.RESTR.norm>
0

>  <SCORE.SYSTEM>
0

>  <SCORE.SYSTEM.CONST>
0

>  <SCORE.SYSTEM.DIHEDRAL>
0

>  <SCORE.SYSTEM.SOLV>
0

>  <SCORE.SYSTEM.norm>
0

>  <SCORE.heavy>
31

>  <SCORE.norm>
-0.38148

>  <RMSD>
1.144

$$$$
ligand
 OpenBabel11021811473D
libRbt.so/2013.1/901 2013/11/27
 31 33  0  0  0  0  0  0  0  0999 V2000
   18.0400    7.4685   19.0282 C   0  0  0  0  0  0  0  0  0  0  0  0
   17.1368    0.5353   14.2548 N   0  0  0  0  0  0  0  0  0  0  0  0
   17.4617    8.3127   20.0291 O   0  0  0  0  0  0  0  0  0  0  0  0
   17.1774    6.2198   18.8285 C   0  0  1  0  0  0  0  0  0  0  0  0
   21.6867    2.2660   13.8003 N   0  0  0  0  0  0  0  0  0  0  0  0
   17.7067    5.4169   17.7553 O   0  0  0  0  0  0  0  0  0  0  0  0
   17.9264    4.0826   18.2464 C   0  0  1  0  0  0  0  0  0  0  0  0
   25.8215    3.4159   16.8385 N   0  0  0  0  0  0  0  0  0  0  0  0
   19.0615    3.4655   17.6189 O   0  0  0  0  0  0  0  0  0  0  0  0
   18.9190    3.3003   16.2003 C   0  0  2  0  0  0  0  0  0  0  0  0
   20.5904    7.1747   15.7888 N   0  0  0  0  0  0  0  0  0  0  0  0
   16.7514    2.2620   16.4568 O   0  0  0  0  0  0  0  0  0  0  0  0
   18.0779    2.0392   15.9709 C   0  0  1  0  0  0  0  0  0  0  0  0
   21.0077    4.4302   15.5354 O   0  0  0  0  0  0  0  0  0  0  0  0
   18.0171    1.6914   14.4822 C   0  0  1  0  0  0  0  0  0  0  0  0
   22.2982    4.3494   17.5016 O   0  0  0  0  0  0  0  0  0  0  0  0
   19.4284    1.3826   13.9820 C   0  0  0  0  0  0  0  0  0  0  0  0
   25.2537    5.8152   15.8913 O   0  0  0  0  0  0  0  0  0  0  0  0
   20.3045    2.6276   14.1497 C   0  0  1  0  0  0  0  0  0  0  0  0
   23.3798    7.9953   15.8705 O   0  0  0  0  0  0  0  0  0  0  0  0
   20.3084    3.1742   15.5825 C   0  0  2  0  0  0  0  0  0  0  0  0
   18.0741    3.1246   20.5087 O   0  0  0  0  0  0  0  0  0  0  0  0
   21.2374    5.0396   16.8155 C   0  0  1  0  0  0  0  0  0  0  0  0
   15.9578    4.7020   20.3335 O   0  0  0  0  0  0  0  0  0  0  0  0
   23.5562    4.3606   16.8055 C   0  0  2  0  0  0  0  0  0  0  0  0
   24.5909    3.5878   17.6270 C   0  0  0  0  0  0  0  0  0  0  0  0
   24.0348    5.8040   16.6393 C   0  0  2  0  0  0  0  0  0  0  0  0
   22.9771    6.6218   15.8953 C   0  0  1  0  0  0  0  0  0  0  0  0
   21.6217    6.5069   16.5976 C   0  0  1  0  0  0  0  0  0  0  0  0
   18.2536    4.3043   19.7216 C   0  0  2  0  0  0  0  0  0  0  0  0
   17.2077    5.3523   20.0901 C   0  0  1  0  0  0  0  0  0  0  0  0
  1  3  1  0  0  0  0
  4  1  1  1  0  0  0
  4  6  1  0  0  0  0
  4 31  1  0  0  0  0
  6  7  1  0  0  0  0
  7  9  1  6  0  0  0
  7 30  1  0  0  0  0
  8 26  1  0  0  0  0
 10  9  1  1  0  0  0
 10 13  1  0  0  0  0
 10 21  1  0  0  0  0
 13 12  1  6  0  0  0
 13 15  1  0  0  0  0
 15  2  1  1  0  0  0
 15 17  1  0  0  0  0
 16 25  1  0  0  0  0
 16 23  1  0  0  0  0
 17 19  1  0  0  0  0
 19  5  1  1  0  0  0
 19 21  1  0  0  0  0
 21 14  1  6  0  0  0
 23 14  1  6  0  0  0
 23 29  1  0  0  0  0
 25 26  1  1  0  0  0
 25 27  1  0  0  0  0
 27 18  1  6  0  0  0
 27 28  1  0  0  0  0
 28 20  1  1  0  0  0
 28 29  1  0  0  0  0
 29 11  1  6  0  0  0
 30 22  1  1  0  0  0
 30 31  1  0  0  0  0
 31 24  1  6  0  0  0
M  END
>  <CHROM.1>
175.91411028,-62.32900706,-81.15482996,75.20123187,60.63109901,171.49153752
20.11013628,4.44127248,16.96984878,-2.97662770,-0.33530019,-2.44571096

>  <Name>
ligand

>  <RI>
0

>  <Rbt.Current_Directory>
/home/itssahil/PROJECTS/Mol_Feturizer/New_Systems/rnas/3DVV

>  <Rbt.Executable>
rbdock ($Id: //depot/dev/client3/rdock/2013.1/src/exe/rbdock.cxx#4 $)

>  <Rbt.Library>
libRbt.so (2013.1, Build901 2013/11/27)

>  <Rbt.Parameter_File>
/export/apps/rDock/src/rDock_2013.1_src/data/scripts/dock_solv.prm

>  <Rbt.Receptor>
prm/pocket_docking_3.prm

>  <SCORE>
-11.7648

>  <SCORE.INTER>
-9.07654

>  <SCORE.INTER.CONST>
1

>  <SCORE.INTER.POLAR>
0

>  <SCORE.INTER.ROT>
6

>  <SCORE.INTER.SOLV>
22.6266

>  <SCORE.INTER.VDW>
-21.1932

>  <SCORE.INTER.norm>
-0.292792

>  <SCORE.INTRA>
-2.68825

>  <SCORE.INTRA.DIHEDRAL>
-7.13147

>  <SCORE.INTRA.DIHEDRAL.0>
10.8172

>  <SCORE.INTRA.POLAR>
0

>  <SCORE.INTRA.POLAR.0>
0

>  <SCORE.INTRA.REPUL>
0

>  <SCORE.INTRA.REPUL.0>
0

>  <SCORE.INTRA.SOLV>
-2.79353

>  <SCORE.INTRA.SOLV.lig_0>
-80.3833

>  <SCORE.INTRA.VDW>
2.27425

>  <SCORE.INTRA.VDW.0>
-4.63762

>  <SCORE.INTRA.norm>
-0.0867177

>  <SCORE.RESTR>
0

>  <SCORE.RESTR.CAVITY>
0

>  <SCORE.RESTR.norm>
0

>  <SCORE.SYSTEM>
0

>  <SCORE.SYSTEM.CONST>
0

>  <SCORE.SYSTEM.DIHEDRAL>
0

>  <SCORE.SYSTEM.SOLV>
0

>  <SCORE.SYSTEM.norm>
0

>  <SCORE.heavy>
31

>  <SCORE.norm>
-0.379509

>  <RMSD>
1.151

$$$$
ligand
 OpenBabel11021811473D
libRbt.so/2013.1/901 2013/11/27
 31 33  0  0  0  0  0  0  0  0999 V2000
   17.2871    7.3219   19.5674 C   0  0  0  0  0  0  0  0  0  0  0  0
   16.7453    0.6079   14.5400 N   0  0  0  0  0  0  0  0  0  0  0  0
   18.7031    7.1364   19.6645 O   0  0  0  0  0  0  0  0  0  0  0  0
   16.5913    5.9739   19.3624 C   0  0  1  0  0  0  0  0  0  0  0  0
   21.0943    2.7052   13.7710 N   0  0  0  0  0  0  0  0  0  0  0  0
   17.1282    5.3092   18.2021 O   0  0  0  0  0  0  0  0  0  0  0  0
   17.5737    3.9975   18.5904 C   0  0  1  0  0  0  0  0  0  0  0  0
   24.4578    3.5037   17.0504 N   0  0  0  0  0  0  0  0  0  0  0  0
   18.7223    3.5811   17.8353 O   0  0  0  0  0  0  0  0  0  0  0  0
   18.4718    3.4468   16.4285 C   0  0  2  0  0  0  0  0  0  0  0  0
   19.2473    7.2275   16.2088 N   0  0  0  0  0  0  0  0  0  0  0  0
   16.4196    2.2335   16.8269 O   0  0  0  0  0  0  0  0  0  0  0  0
   17.7127    2.1305   16.2247 C   0  0  1  0  0  0  0  0  0  0  0  0
   20.4035    4.7572   15.6331 O   0  0  0  0  0  0  0  0  0  0  0  0
   17.5512    1.8228   14.7347 C   0  0  1  0  0  0  0  0  0  0  0  0
   21.9972    4.9974   17.3480 O   0  0  0  0  0  0  0  0  0  0  0  0
   18.9338    1.6412   14.1080 C   0  0  0  0  0  0  0  0  0  0  0  0
   24.0403    7.3657   15.4262 O   0  0  0  0  0  0  0  0  0  0  0  0
   19.7236    2.9461   14.2468 C   0  0  1  0  0  0  0  0  0  0  0  0
   21.6350    8.8625   15.9150 O   0  0  0  0  0  0  0  0  0  0  0  0
   19.8086    3.4490   15.6931 C   0  0  2  0  0  0  0  0  0  0  0  0
   18.0548    2.9598   20.7697 O   0  0  0  0  0  0  0  0  0  0  0  0
   20.6729    5.3550   16.9109 C   0  0  1  0  0  0  0  0  0  0  0  0
   15.7335    4.2246   20.8657 O   0  0  0  0  0  0  0  0  0  0  0  0
   23.0460    5.4234   16.4616 C   0  0  2  0  0  0  0  0  0  0  0  0
   24.3949    4.9738   17.0279 C   0  0  0  0  0  0  0  0  0  0  0  0
   23.0377    6.9496   16.3571 C   0  0  2  0  0  0  0  0  0  0  0  0
   21.6680    7.4319   15.8748 C   0  0  1  0  0  0  0  0  0  0  0  0
   20.5596    6.8770   16.7733 C   0  0  1  0  0  0  0  0  0  0  0  0
   17.9980    4.1905   20.0447 C   0  0  2  0  0  0  0  0  0  0  0  0
   16.8544    5.0584   20.5614 C   0  0  1  0  0  0  0  0  0  0  0  0
  1  3  1  0  0  0  0
  4  1  1  1  0  0  0
  4  6  1  0  0  0  0
  4 31  1  0  0  0  0
  6  7  1  0  0  0  0
  7  9  1  6  0  0  0
  7 30  1  0  0  0  0
  8 26  1  0  0  0  0
 10  9  1  1  0  0  0
 10 13  1  0  0  0  0
 10 21  1  0  0  0  0
 13 12  1  6  0  0  0
 13 15  1  0  0  0  0
 15  2  1  1  0  0  0
 15 17  1  0  0  0  0
 16 25  1  0  0  0  0
 16 23  1  0  0  0  0
 17 19  1  0  0  0  0
 19  5  1  1  0  0  0
 19 21  1  0  0  0  0
 21 14  1  6  0  0  0
 23 14  1  6  0  0  0
 23 29  1  0  0  0  0
 25 26  1  1  0  0  0
 25 27  1  0  0  0  0
 27 18  1  6  0  0  0
 27 28  1  0  0  0  0
 28 20  1  1  0  0  0
 28 29  1  0  0  0  0
 29 11  1  6  0  0  0
 30 22  1  1  0  0  0
 30 31  1  0  0  0  0
 31 24  1  6  0  0  0
M  END
>  <CHROM.1>
-56.01795434,-63.27441553,-76.98661392,89.98017650,59.56646440,64.38565828
19.55041521,4.68230887,17.10219020,-3.14038056,-0.53750502,-2.39847492

>  <Name>
ligand

>  <RI>
0

>  <Rbt.Current_Directory>
/home/itssahil/PROJECTS/Mol_Feturizer/New_Systems/rnas/3DVV

>  <Rbt.Executable>
rbdock ($Id: //depot/dev/client3/rdock/2013.1/src/exe/rbdock.cxx#4 $)

>  <Rbt.Library>
libRbt.so (2013.1, Build901 2013/11/27)

>  <Rbt.Parameter_File>
/export/apps/rDock/src/rDock_2013.1_src/data/scripts/dock_solv.prm

>  <Rbt.Receptor>
prm/pocket_docking_3.prm

>  <SCORE>
-10.4966

>  <SCORE.INTER>
-8.63681

>  <SCORE.INTER.CONST>
1

>  <SCORE.INTER.POLAR>
0

>  <SCORE.INTER.ROT>
6

>  <SCORE.INTER.SOLV>
22.5708

>  <SCORE.INTER.VDW>
-20.8815

>  <SCORE.INTER.norm>
-0.278607

>  <SCORE.INTRA>
-1.85976

>  <SCORE.INTRA.DIHEDRAL>
-5.43448

>  <SCORE.INTRA.DIHEDRAL.0>
10.8172

>  <SCORE.INTRA.POLAR>
0

>  <SCORE.INTRA.POLAR.0>
0

>  <SCORE.INTRA.REPUL>
0

>  <SCORE.INTRA.REPUL.0>
0

>  <SCORE.INTRA.SOLV>
-1.7503

>  <SCORE.INTRA.SOLV.lig_0>
-80.3833

>  <SCORE.INTRA.VDW>
1.73263

>  <SCORE.INTRA.VDW.0>
-4.63762

>  <SCORE.INTRA.norm>
-0.0599922

>  <SCORE.RESTR>
0

>  <SCORE.RESTR.CAVITY>
0

>  <SCORE.RESTR.norm>
0

>  <SCORE.SYSTEM>
0

>  <SCORE.SYSTEM.CONST>
0

>  <SCORE.SYSTEM.DIHEDRAL>
0

>  <SCORE.SYSTEM.SOLV>
0

>  <SCORE.SYSTEM.norm>
0

>  <SCORE.heavy>
31

>  <SCORE.norm>
-0.338599

>  <RMSD>
1.177

$$$$
ligand
 OpenBabel11021811473D
libRbt.so/2013.1/901 2013/11/27
 31 33  0  0  0  0  0  0  0  0999 V2000
   17.1467    7.1987   19.6144 C   0  0  0  0  0  0  0  0  0  0  0  0
   16.7351    0.5181   14.5058 N   0  0  0  0  0  0  0  0  0  0  0  0
   18.5529    7.0061   19.7995 O   0  0  0  0  0  0  0  0  0  0  0  0
   16.4590    5.8549   19.3607 C   0  0  1  0  0  0  0  0  0  0  0  0
   21.0940    2.6259   13.8270 N   0  0  0  0  0  0  0  0  0  0  0  0
   17.0283    5.2166   18.2011 O   0  0  0  0  0  0  0  0  0  0  0  0
   17.4653    3.8971   18.5722 C   0  0  1  0  0  0  0  0  0  0  0  0
   25.2399    3.9378   16.8206 N   0  0  0  0  0  0  0  0  0  0  0  0
   18.6347    3.4987   17.8397 O   0  0  0  0  0  0  0  0  0  0  0  0
   18.4142    3.3628   16.4280 C   0  0  2  0  0  0  0  0  0  0  0  0
   19.7469    7.3807   15.9702 N   0  0  0  0  0  0  0  0  0  0  0  0
   16.3572    2.1445   16.7841 O   0  0  0  0  0  0  0  0  0  0  0  0
   17.6629    2.0444   16.2094 C   0  0  1  0  0  0  0  0  0  0  0  0
   20.3589    4.6775   15.6726 O   0  0  0  0  0  0  0  0  0  0  0  0
   17.5336    1.7352   14.7165 C   0  0  1  0  0  0  0  0  0  0  0  0
   21.7000    4.6713   17.6064 O   0  0  0  0  0  0  0  0  0  0  0  0
   18.9296    1.5567   14.1192 C   0  0  0  0  0  0  0  0  0  0  0  0
   24.4988    6.3690   15.9448 O   0  0  0  0  0  0  0  0  0  0  0  0
   19.7130    2.8637   14.2737 C   0  0  1  0  0  0  0  0  0  0  0  0
   22.4694    8.4046   15.9959 O   0  0  0  0  0  0  0  0  0  0  0  0
   19.7662    3.3678   15.7210 C   0  0  2  0  0  0  0  0  0  0  0  0
   17.8887    2.8119   20.7404 O   0  0  0  0  0  0  0  0  0  0  0  0
   20.5745    5.2884   16.9544 C   0  0  1  0  0  0  0  0  0  0  0  0
   15.5635    4.0718   20.8011 O   0  0  0  0  0  0  0  0  0  0  0  0
   22.9362    4.7830   16.8808 C   0  0  2  0  0  0  0  0  0  0  0  0
   24.0449    4.0801   17.6676 C   0  0  0  0  0  0  0  0  0  0  0  0
   23.3029    6.2595   16.7213 C   0  0  2  0  0  0  0  0  0  0  0  0
   22.1698    7.0049   16.0130 C   0  0  1  0  0  0  0  0  0  0  0  0
   20.8441    6.7823   16.7459 C   0  0  1  0  0  0  0  0  0  0  0  0
   17.8495    4.0583   20.0416 C   0  0  2  0  0  0  0  0  0  0  0  0
   16.6909    4.9134   20.5460 C   0  0  1  0  0  0  0  0  0  0  0  0
  1  3  1  0  0  0  0
  4  1  1  1  0  0  0
  4  6  1  0  0  0  0
  4 31  1  0  0  0  0
  6  7  1  0  0  0  0
  7  9  1  6  0  0  0
  7 30  1  0  0  0  0
  8 26  1  0  0  0  0
 10  9  1  1  0  0  0
 10 13  1  0  0  0  0
 10 21  1  0  0  0  0
 13 12  1  6  0  0  0
 13 15  1  0  0  0  0
 15  2  1  1  0  0  0
 15 17  1  0  0  0  0
 16 25  1  0  0  0  0
 16 23  1  0  0  0  0
 17 19  1  0  0  0  0
 19  5  1  1  0  0  0
 19 21  1  0  0  0  0
 21 14  1  6  0  0  0
 23 14  1  6  0  0  0
 23 29  1  0  0  0  0
 25 26  1  1  0  0  0
 25 27  1  0  0  0  0
 27 18  1  6  0  0  0
 27 28  1  0  0  0  0
 28 20  1  1  0  0  0
 28 29  1  0  0  0  0
 29 11  1  6  0  0  0
 30 22  1  1  0  0  0
 30 31  1  0  0  0  0
 31 24  1  6  0  0  0
M  END
>  <CHROM.1>
-58.34496467,-64.75348408,-76.27556344,74.68451028,58.34550676,168.19597951
19.58622317,4.48380496,17.17008124,-3.08941644,-0.45598115,-2.35271349

>  <Name>
ligand

>  <RI>
0

>  <Rbt.Current_Directory>
/home/itssahil/PROJECTS/Mol_Feturizer/New_Systems/rnas/3DVV

>  <Rbt.Executable>
rbdock ($Id: //depot/dev/client3/rdock/2013.1/src/exe/rbdock.cxx#4 $)

>  <Rbt.Library>
libRbt.so (2013.1, Build901 2013/11/27)

>  <Rbt.Parameter_File>
/export/apps/rDock/src/rDock_2013.1_src/data/scripts/dock_solv.prm

>  <Rbt.Receptor>
prm/pocket_docking_4.prm

>  <SCORE>
-11.1607

>  <SCORE.INTER>
-8.43046

>  <SCORE.INTER.CONST>
1

>  <SCORE.INTER.POLAR>
0

>  <SCORE.INTER.ROT>
6

>  <SCORE.INTER.SOLV>
21.6737

>  <SCORE.INTER.VDW>
-20.4449

>  <SCORE.INTER.norm>
-0.27195

>  <SCORE.INTRA>
-2.73021

>  <SCORE.INTRA.DIHEDRAL>
-7.68496

>  <SCORE.INTRA.DIHEDRAL.0>
10.8172

>  <SCORE.INTRA.POLAR>
0

>  <SCORE.INTRA.POLAR.0>
0

>  <SCORE.INTRA.REPUL>
0

>  <SCORE.INTRA.REPUL.0>
0

>  <SCORE.INTRA.SOLV>
-2.46601

>  <SCORE.INTRA.SOLV.lig_0>
-80.3833

>  <SCORE.INTRA.VDW>
2.34528

>  <SCORE.INTRA.VDW.0>
-4.63762

>  <SCORE.INTRA.norm>
-0.0880711

>  <SCORE.RESTR>
0

>  <SCORE.RESTR.CAVITY>
0

>  <SCORE.RESTR.norm>
0

>  <SCORE.SYSTEM>
0

>  <SCORE.SYSTEM.CONST>
0

>  <SCORE.SYSTEM.DIHEDRAL>
0

>  <SCORE.SYSTEM.SOLV>
0

>  <SCORE.SYSTEM.norm>
0

>  <SCORE.heavy>
31

>  <SCORE.norm>
-0.360021

>  <RMSD>
1.184

$$$$
ligand
 OpenBabel11021811473D
libRbt.so/2013.1/901 2013/11/27
 31 33  0  0  0  0  0  0  0  0999 V2000
   17.2273    7.3282   19.6051 C   0  0  0  0  0  0  0  0  0  0  0  0
   16.7471    0.6291   14.5607 N   0  0  0  0  0  0  0  0  0  0  0  0
   18.6403    7.1526   19.7517 O   0  0  0  0  0  0  0  0  0  0  0  0
   16.5470    5.9740   19.3891 C   0  0  1  0  0  0  0  0  0  0  0  0
   21.0927    2.7355   13.7971 N   0  0  0  0  0  0  0  0  0  0  0  0
   17.0950    5.3227   18.2264 O   0  0  0  0  0  0  0  0  0  0  0  0
   17.5535    4.0135   18.6078 C   0  0  1  0  0  0  0  0  0  0  0  0
   24.4532    3.5124   17.0495 N   0  0  0  0  0  0  0  0  0  0  0  0
   18.7092    3.6145   17.8540 O   0  0  0  0  0  0  0  0  0  0  0  0
   18.4623    3.4765   16.4468 C   0  0  2  0  0  0  0  0  0  0  0  0
   19.2513    7.2741   16.1980 N   0  0  0  0  0  0  0  0  0  0  0  0
   16.4121    2.2590   16.8432 O   0  0  0  0  0  0  0  0  0  0  0  0
   17.7069    2.1579   16.2443 C   0  0  1  0  0  0  0  0  0  0  0  0
   20.3926    4.7899   15.6531 O   0  0  0  0  0  0  0  0  0  0  0  0
   17.5496    1.8465   14.7546 C   0  0  1  0  0  0  0  0  0  0  0  0
   21.9671    5.0277   17.3858 O   0  0  0  0  0  0  0  0  0  0  0  0
   18.9341    1.6669   14.1315 C   0  0  0  0  0  0  0  0  0  0  0  0
   24.0546    7.3649   15.4738 O   0  0  0  0  0  0  0  0  0  0  0  0
   19.7203    2.9740   14.2692 C   0  0  1  0  0  0  0  0  0  0  0  0
   21.6568    8.8860   15.9229 O   0  0  0  0  0  0  0  0  0  0  0  0
   19.8008    3.4804   15.7145 C   0  0  2  0  0  0  0  0  0  0  0  0
   18.0388    2.9671   20.7820 O   0  0  0  0  0  0  0  0  0  0  0  0
   20.6515    5.3939   16.9301 C   0  0  1  0  0  0  0  0  0  0  0  0
   15.7034    4.2058   20.8783 O   0  0  0  0  0  0  0  0  0  0  0  0
   23.0305    5.4385   16.5097 C   0  0  2  0  0  0  0  0  0  0  0  0
   24.3683    4.9808   17.0957 C   0  0  0  0  0  0  0  0  0  0  0  0
   23.0369    6.9639   16.3950 C   0  0  2  0  0  0  0  0  0  0  0  0
   21.6777    7.4550   15.8926 C   0  0  1  0  0  0  0  0  0  0  0  0
   20.5534    6.9159   16.7810 C   0  0  1  0  0  0  0  0  0  0  0  0
   17.9709    4.2018   20.0648 C   0  0  2  0  0  0  0  0  0  0  0  0
   16.8162    5.0538   20.5831 C   0  0  1  0  0  0  0  0  0  0  0  0
  1  3  1  0  0  0  0
  4  1  1  1  0  0  0
  4  6  1  0  0  0  0
  4 31  1  0  0  0  0
  6  7  1  0  0  0  0
  7  9  1  6  0  0  0
  7 30  1  0  0  0  0
  8 26  1  0  0  0  0
 10  9  1  1  0  0  0
 10 13  1  0  0  0  0
 10 21  1  0  0  0  0
 13 12  1  6  0  0  0
 13 15  1  0  0  0  0
 15  2  1  1  0  0  0
 15 17  1  0  0  0  0
 16 25  1  0  0  0  0
 16 23  1  0  0  0  0
 17 19  1  0  0  0  0
 19  5  1  1  0  0  0
 19 21  1  0  0  0  0
 21 14  1  6  0  0  0
 23 14  1  6  0  0  0
 23 29  1  0  0  0  0
 25 26  1  1  0  0  0
 25 27  1  0  0  0  0
 27 18  1  6  0  0  0
 27 28  1  0  0  0  0
 28 20  1  1  0  0  0
 28 29  1  0  0  0  0
 29 11  1  6  0  0  0
 30 22  1  1  0  0  0
 30 31  1  0  0  0  0
 31 24  1  6  0  0  0
M  END
>  <CHROM.1>
-58.00153582,-63.73082585,-76.24563460,89.23841916,59.27576975,67.97160419
19.53589320,4.70152810,17.12715973,-3.13598108,-0.53652831,-2.39857403

>  <Name>
ligand

>  <RI>
0

>  <Rbt.Current_Directory>
/home/itssahil/PROJECTS/Mol_Feturizer/New_Systems/rnas/3DVV

>  <Rbt.Executable>
rbdock ($Id: //depot/dev/client3/rdock/2013.1/src/exe/rbdock.cxx#4 $)

>  <Rbt.Library>
libRbt.so (2013.1, Build901 2013/11/27)

>  <Rbt.Parameter_File>
/export/apps/rDock/src/rDock_2013.1_src/data/scripts/dock_solv.prm

>  <Rbt.Receptor>
prm/pocket_docking_3.prm

>  <SCORE>
-10.4755

>  <SCORE.INTER>
-8.57113

>  <SCORE.INTER.CONST>
1

>  <SCORE.INTER.POLAR>
0

>  <SCORE.INTER.ROT>
6

>  <SCORE.INTER.SOLV>
22.5089

>  <SCORE.INTER.VDW>
-20.8171

>  <SCORE.INTER.norm>
-0.276488

>  <SCORE.INTRA>
-1.90434

>  <SCORE.INTRA.DIHEDRAL>
-5.5504

>  <SCORE.INTRA.DIHEDRAL.0>
10.8172

>  <SCORE.INTRA.POLAR>
0

>  <SCORE.INTRA.POLAR.0>
0

>  <SCORE.INTRA.REPUL>
0

>  <SCORE.INTRA.REPUL.0>
0

>  <SCORE.INTRA.SOLV>
-2.02702

>  <SCORE.INTRA.SOLV.lig_0>
-80.3833

>  <SCORE.INTRA.VDW>
1.88437

>  <SCORE.INTRA.VDW.0>
-4.63762

>  <SCORE.INTRA.norm>
-0.0614302

>  <SCORE.RESTR>
0

>  <SCORE.RESTR.CAVITY>
0

>  <SCORE.RESTR.norm>
0

>  <SCORE.SYSTEM>
0

>  <SCORE.SYSTEM.CONST>
0

>  <SCORE.SYSTEM.DIHEDRAL>
0

>  <SCORE.SYSTEM.SOLV>
0

>  <SCORE.SYSTEM.norm>
0

>  <SCORE.heavy>
31

>  <SCORE.norm>
-0.337918

>  <RMSD>
1.196

$$$$
ligand
 OpenBabel11021811473D
libRbt.so/2013.1/901 2013/11/27
 31 33  0  0  0  0  0  0  0  0999 V2000
   18.0584    7.2939   19.6177 C   0  0  0  0  0  0  0  0  0  0  0  0
   16.5312    0.6655   14.4207 N   0  0  0  0  0  0  0  0  0  0  0  0
   17.9328    8.1965   18.5138 O   0  0  0  0  0  0  0  0  0  0  0  0
   17.1307    6.0917   19.4243 C   0  0  1  0  0  0  0  0  0  0  0  0
   20.8912    2.6982   13.5476 N   0  0  0  0  0  0  0  0  0  0  0  0
   17.4955    5.3696   18.2318 O   0  0  0  0  0  0  0  0  0  0  0  0
   17.7215    3.9924   18.5810 C   0  0  1  0  0  0  0  0  0  0  0  0
   24.5145    4.0988   18.4045 N   0  0  0  0  0  0  0  0  0  0  0  0
   18.7481    3.3999   17.7697 O   0  0  0  0  0  0  0  0  0  0  0  0
   18.4246    3.3513   16.3723 C   0  0  2  0  0  0  0  0  0  0  0  0
   20.0530    7.3770   16.0906 N   0  0  0  0  0  0  0  0  0  0  0  0
   16.3629    2.1668   16.8074 O   0  0  0  0  0  0  0  0  0  0  0  0
   17.6214    2.0671   16.1352 C   0  0  1  0  0  0  0  0  0  0  0  0
   20.3488    4.6578   15.5529 O   0  0  0  0  0  0  0  0  0  0  0  0
   17.3780    1.8479   14.6407 C   0  0  1  0  0  0  0  0  0  0  0  0
   21.8743    4.3774   17.3227 O   0  0  0  0  0  0  0  0  0  0  0  0
   18.7225    1.6689   13.9352 C   0  0  0  0  0  0  0  0  0  0  0  0
   24.6470    5.9199   15.4763 O   0  0  0  0  0  0  0  0  0  0  0  0
   19.5527    2.9446   14.1053 C   0  0  1  0  0  0  0  0  0  0  0  0
   22.8547    8.1307   15.8824 O   0  0  0  0  0  0  0  0  0  0  0  0
   19.7228    3.3629   15.5708 C   0  0  2  0  0  0  0  0  0  0  0  0
   18.1041    2.8395   20.7216 O   0  0  0  0  0  0  0  0  0  0  0  0
   20.7573    5.1468   16.8400 C   0  0  1  0  0  0  0  0  0  0  0  0
   16.0442    4.4849   20.9388 O   0  0  0  0  0  0  0  0  0  0  0  0
   23.0339    4.4247   16.4740 C   0  0  2  0  0  0  0  0  0  0  0  0
   24.1394    3.5616   17.0868 C   0  0  0  0  0  0  0  0  0  0  0  0
   23.5327    5.8672   16.3711 C   0  0  2  0  0  0  0  0  0  0  0  0
   22.4156    6.7688   15.8417 C   0  0  1  0  0  0  0  0  0  0  0  0
   21.1568    6.6196   16.7002 C   0  0  1  0  0  0  0  0  0  0  0  0
   18.2325    4.0770   20.0177 C   0  0  2  0  0  0  0  0  0  0  0  0
   17.2797    5.1184   20.5971 C   0  0  1  0  0  0  0  0  0  0  0  0
  1  3  1  0  0  0  0
  4  1  1  1  0  0  0
  4  6  1  0  0  0  0
  4 31  1  0  0  0  0
  6  7  1  0  0  0  0
  7  9  1  6  0  0  0
  7 30  1  0  0  0  0
  8 26  1  0  0  0  0
 10  9  1  1  0  0  0
 10 13  1  0  0  0  0
 10 21  1  0  0  0  0
 13 12  1  1  0  0  0
 13 15  1  0  0  0  0
 15  2  1  1  0  0  0
 15 17  1  0  0  0  0
 16 25  1  0  0  0  0
 16 23  1  0  0  0  0
 17 19  1  0  0  0  0
 19  5  1  1  0  0  0
 19 21  1  0  0  0  0
 21 14  1  6  0  0  0
 23 14  1  6  0  0  0
 23 29  1  0  0  0  0
 25 26  1  1  0  0  0
 25 27  1  0  0  0  0
 27 18  1  6  0  0  0
 27 28  1  0  0  0  0
 28 20  1  1  0  0  0
 28 29  1  0  0  0  0
 29 11  1  6  0  0  0
 30 22  1  1  0  0  0
 30 31  1  0  0  0  0
 31 24  1  6  0  0  0
M  END
>  <CHROM.1>
61.62368375,-62.82369542,-85.98291808,70.15970894,62.51997602,-61.73219323
19.71103006,4.49444643,17.06493329,-3.07120066,-0.44433178,-2.31907612

>  <Name>
ligand

>  <RI>
0

>  <Rbt.Current_Directory>
/home/itssahil/PROJECTS/Mol_Feturizer/New_Systems/rnas/3DVV

>  <Rbt.Executable>
rbdock ($Id: //depot/dev/client3/rdock/2013.1/src/exe/rbdock.cxx#4 $)

>  <Rbt.Library>
libRbt.so (2013.1, Build901 2013/11/27)

>  <Rbt.Parameter_File>
/export/apps/rDock/src/rDock_2013.1_src/data/scripts/dock_solv.prm

>  <Rbt.Receptor>
prm/pocket_docking_4.prm

>  <SCORE>
-8.6607

>  <SCORE.INTER>
-5.84513

>  <SCORE.INTER.CONST>
1

>  <SCORE.INTER.POLAR>
0

>  <SCORE.INTER.ROT>
6

>  <SCORE.INTER.SOLV>
26.3935

>  <SCORE.INTER.VDW>
-20.2946

>  <SCORE.INTER.norm>
-0.188553

>  <SCORE.INTRA>
-2.81557

>  <SCORE.INTRA.DIHEDRAL>
-7.11046

>  <SCORE.INTRA.DIHEDRAL.0>
10.8172

>  <SCORE.INTRA.POLAR>
0

>  <SCORE.INTRA.POLAR.0>
0

>  <SCORE.INTRA.REPUL>
0

>  <SCORE.INTRA.REPUL.0>
0

>  <SCORE.INTRA.SOLV>
-1.55636

>  <SCORE.INTRA.SOLV.lig_0>
-80.3833

>  <SCORE.INTRA.VDW>
1.51785

>  <SCORE.INTRA.VDW.0>
-4.63762

>  <SCORE.INTRA.norm>
-0.0908247

>  <SCORE.RESTR>
0

>  <SCORE.RESTR.CAVITY>
0

>  <SCORE.RESTR.norm>
0

>  <SCORE.SYSTEM>
0

>  <SCORE.SYSTEM.CONST>
0

>  <SCORE.SYSTEM.DIHEDRAL>
0

>  <SCORE.SYSTEM.SOLV>
0

>  <SCORE.SYSTEM.norm>
0

>  <SCORE.heavy>
31

>  <SCORE.norm>
-0.279377

>  <RMSD>
1.214

$$$$
ligand
 OpenBabel11021811473D
libRbt.so/2013.1/901 2013/11/27
 31 33  0  0  0  0  0  0  0  0999 V2000
   18.0277    7.2924   19.8021 C   0  0  0  0  0  0  0  0  0  0  0  0
   16.3609    0.7366   14.4733 N   0  0  0  0  0  0  0  0  0  0  0  0
   17.9348    8.2232   18.7187 O   0  0  0  0  0  0  0  0  0  0  0  0
   17.0593    6.1276   19.5813 C   0  0  1  0  0  0  0  0  0  0  0  0
   20.6910    2.8329   13.6019 N   0  0  0  0  0  0  0  0  0  0  0  0
   17.3977    5.4230   18.3708 O   0  0  0  0  0  0  0  0  0  0  0  0
   17.5770    4.0307   18.6856 C   0  0  1  0  0  0  0  0  0  0  0  0
   24.3845    4.0851   18.3681 N   0  0  0  0  0  0  0  0  0  0  0  0
   18.5817    3.4236   17.8580 O   0  0  0  0  0  0  0  0  0  0  0  0
   18.2452    3.4007   16.4629 C   0  0  2  0  0  0  0  0  0  0  0  0
   19.8767    7.4477   16.2768 N   0  0  0  0  0  0  0  0  0  0  0  0
   16.2002    2.1858   16.8925 O   0  0  0  0  0  0  0  0  0  0  0  0
   17.4531    2.1134   16.2066 C   0  0  1  0  0  0  0  0  0  0  0  0
   20.1478    4.7444   15.6530 O   0  0  0  0  0  0  0  0  0  0  0  0
   17.1975    1.9229   14.7102 C   0  0  1  0  0  0  0  0  0  0  0  0
   21.7247    4.4099   17.3675 O   0  0  0  0  0  0  0  0  0  0  0  0
   18.5369    1.7730   13.9884 C   0  0  0  0  0  0  0  0  0  0  0  0
   24.4456    5.9985   15.4836 O   0  0  0  0  0  0  0  0  0  0  0  0
   19.3555    3.0535   14.1774 C   0  0  1  0  0  0  0  0  0  0  0  0
   22.6732    8.2008   16.0063 O   0  0  0  0  0  0  0  0  0  0  0  0
   19.5355    3.4429   15.6497 C   0  0  2  0  0  0  0  0  0  0  0  0
   17.9227    2.8132   20.7966 O   0  0  0  0  0  0  0  0  0  0  0  0
   20.5962    5.1953   16.9407 C   0  0  1  0  0  0  0  0  0  0  0  0
   15.9205    4.5221   21.0583 O   0  0  0  0  0  0  0  0  0  0  0  0
   22.8585    4.4789   16.4862 C   0  0  2  0  0  0  0  0  0  0  0  0
   23.9792    3.5962   17.0405 C   0  0  0  0  0  0  0  0  0  0  0  0
   23.3585    5.9227   16.4096 C   0  0  2  0  0  0  0  0  0  0  0  0
   22.2288    6.8416   15.9399 C   0  0  1  0  0  0  0  0  0  0  0  0
   20.9958    6.6706   16.8312 C   0  0  1  0  0  0  0  0  0  0  0  0
   18.0924    4.0626   20.1229 C   0  0  2  0  0  0  0  0  0  0  0  0
   17.1764    5.1213   20.7296 C   0  0  1  0  0  0  0  0  0  0  0  0
  1  3  1  0  0  0  0
  4  1  1  1  0  0  0
  4  6  1  0  0  0  0
  4 31  1  0  0  0  0
  6  7  1  0  0  0  0
  7  9  1  6  0  0  0
  7 30  1  0  0  0  0
  8 26  1  0  0  0  0
 10  9  1  1  0  0  0
 10 13  1  0  0  0  0
 10 21  1  0  0  0  0
 13 12  1  1  0  0  0
 13 15  1  0  0  0  0
 15  2  1  1  0  0  0
 15 17  1  0  0  0  0
 16 25  1  0  0  0  0
 16 23  1  0  0  0  0
 17 19  1  0  0  0  0
 19  5  1  1  0  0  0
 19 21  1  0  0  0  0
 21 14  1  6  0  0  0
 23 14  1  6  0  0  0
 23 29  1  0  0  0  0
 25 26  1  1  0  0  0
 25 27  1  0  0  0  0
 27 18  1  6  0  0  0
 27 28  1  0  0  0  0
 28 20  1  1  0  0  0
 28 29  1  0  0  0  0
 29 11  1  6  0  0  0
 30 22  1  1  0  0  0
 30 31  1  0  0  0  0
 31 24  1  6  0  0  0
M  END
>  <CHROM.1>
61.42973827,-63.78278863,-88.04639340,69.33091878,64.11577480,-61.07527331
19.55840199,4.54257147,17.15241032,-3.06285561,-0.45800411,-2.30205082

>  <Name>
ligand

>  <RI>
0

>  <Rbt.Current_Directory>
/home/itssahil/PROJECTS/Mol_Feturizer/New_Systems/rnas/3DVV

>  <Rbt.Executable>
rbdock ($Id: //depot/dev/client3/rdock/2013.1/src/exe/rbdock.cxx#4 $)

>  <Rbt.Library>
libRbt.so (2013.1, Build901 2013/11/27)

>  <Rbt.Parameter_File>
/export/apps/rDock/src/rDock_2013.1_src/data/scripts/dock_solv.prm

>  <Rbt.Receptor>
prm/pocket_docking_5.prm

>  <SCORE>
-8.64089

>  <SCORE.INTER>
-5.90135

>  <SCORE.INTER.CONST>
1

>  <SCORE.INTER.POLAR>
0

>  <SCORE.INTER.ROT>
6

>  <SCORE.INTER.SOLV>
26.0775

>  <SCORE.INTER.VDW>
-20.2267

>  <SCORE.INTER.norm>
-0.190366

>  <SCORE.INTRA>
-2.73954

>  <SCORE.INTRA.DIHEDRAL>
-6.73157

>  <SCORE.INTRA.DIHEDRAL.0>
10.8172

>  <SCORE.INTRA.POLAR>
0

>  <SCORE.INTRA.POLAR.0>
0

>  <SCORE.INTRA.REPUL>
0

>  <SCORE.INTRA.REPUL.0>
0

>  <SCORE.INTRA.SOLV>
-1.30425

>  <SCORE.INTRA.SOLV.lig_0>
-80.3833

>  <SCORE.INTRA.VDW>
1.27837

>  <SCORE.INTRA.VDW.0>
-4.63762

>  <SCORE.INTRA.norm>
-0.0883722

>  <SCORE.RESTR>
0

>  <SCORE.RESTR.CAVITY>
0

>  <SCORE.RESTR.norm>
0

>  <SCORE.SYSTEM>
0

>  <SCORE.SYSTEM.CONST>
0

>  <SCORE.SYSTEM.DIHEDRAL>
0

>  <SCORE.SYSTEM.SOLV>
0

>  <SCORE.SYSTEM.norm>
0

>  <SCORE.heavy>
31

>  <SCORE.norm>
-0.278738

>  <RMSD>
1.277

$$$$
ligand
 OpenBabel11021811473D
libRbt.so/2013.1/901 2013/11/27
 31 33  0  0  0  0  0  0  0  0999 V2000
   17.8177    7.2536   19.8044 C   0  0  0  0  0  0  0  0  0  0  0  0
   16.3595    0.7177   14.4895 N   0  0  0  0  0  0  0  0  0  0  0  0
   17.6230    8.1896   18.7392 O   0  0  0  0  0  0  0  0  0  0  0  0
   16.9177    6.0317   19.6041 C   0  0  1  0  0  0  0  0  0  0  0  0
   20.6686    2.8513   13.6044 N   0  0  0  0  0  0  0  0  0  0  0  0
   17.2798    5.3415   18.3921 O   0  0  0  0  0  0  0  0  0  0  0  0
   17.5468    3.9643   18.7111 C   0  0  1  0  0  0  0  0  0  0  0  0
   24.3580    4.0721   18.3611 N   0  0  0  0  0  0  0  0  0  0  0  0
   18.5737    3.4135   17.8715 O   0  0  0  0  0  0  0  0  0  0  0  0
   18.2312    3.3917   16.4778 C   0  0  2  0  0  0  0  0  0  0  0  0
   19.8566    7.4558   16.2917 N   0  0  0  0  0  0  0  0  0  0  0  0
   16.1980    2.1592   16.9133 O   0  0  0  0  0  0  0  0  0  0  0  0
   17.4483    2.0987   16.2216 C   0  0  1  0  0  0  0  0  0  0  0  0
   20.1192    4.7528   15.6630 O   0  0  0  0  0  0  0  0  0  0  0  0
   17.1875    1.9101   14.7258 C   0  0  1  0  0  0  0  0  0  0  0  0
   21.7048    4.4132   17.3685 O   0  0  0  0  0  0  0  0  0  0  0  0
   18.5248    1.7729   13.9976 C   0  0  0  0  0  0  0  0  0  0  0  0
   24.4184    5.9991   15.4716 O   0  0  0  0  0  0  0  0  0  0  0  0
   19.3340    3.0595   14.1864 C   0  0  1  0  0  0  0  0  0  0  0  0
   22.6530    8.2040   16.0068 O   0  0  0  0  0  0  0  0  0  0  0  0
   19.5174    3.4464   15.6590 C   0  0  2  0  0  0  0  0  0  0  0  0
   17.9959    2.7821   20.8226 O   0  0  0  0  0  0  0  0  0  0  0  0
   20.5755    5.2013   16.9488 C   0  0  1  0  0  0  0  0  0  0  0  0
   15.8990    4.3697   21.1060 O   0  0  0  0  0  0  0  0  0  0  0  0
   22.8340    4.4812   16.4810 C   0  0  2  0  0  0  0  0  0  0  0  0
   23.9560    3.5956   17.0280 C   0  0  0  0  0  0  0  0  0  0  0  0
   23.3362    5.9241   16.4035 C   0  0  2  0  0  0  0  0  0  0  0  0
   22.2057    6.8457   15.9412 C   0  0  1  0  0  0  0  0  0  0  0  0
   20.9773    6.6759   16.8390 C   0  0  1  0  0  0  0  0  0  0  0  0
   18.0805    4.0354   20.1403 C   0  0  2  0  0  0  0  0  0  0  0  0
   17.1118    5.0410   20.7555 C   0  0  1  0  0  0  0  0  0  0  0  0
  1  3  1  0  0  0  0
  4  1  1  1  0  0  0
  4  6  1  0  0  0  0
  4 31  1  0  0  0  0
  6  7  1  0  0  0  0
  7  9  1  6  0  0  0
  7 30  1  0  0  0  0
  8 26  1  0  0  0  0
 10  9  1  1  0  0  0
 10 13  1  0  0  0  0
 10 21  1  0  0  0  0
 13 12  1  1  0  0  0
 13 15  1  0  0  0  0
 15  2  1  1  0  0  0
 15 17  1  0  0  0  0
 16 25  1  0  0  0  0
 16 23  1  0  0  0  0
 17 19  1  0  0  0  0
 19  5  1  1  0  0  0
 19 21  1  0  0  0  0
 21 14  1  6  0  0  0
 23 14  1  6  0  0  0
 23 29  1  0  0  0  0
 25 26  1  1  0  0  0
 25 27  1  0  0  0  0
 27 18  1  6  0  0  0
 27 28  1  0  0  0  0
 28 20  1  1  0  0  0
 28 29  1  0  0  0  0
 29 11  1  6  0  0  0
 30 22  1  1  0  0  0
 30 31  1  0  0  0  0
 31 24  1  6  0  0  0
M  END
>  <CHROM.1>
63.19817473,-62.38387341,-85.82539818,68.69332949,64.40012994,-60.38016396
19.51817509,4.52132228,17.16341767,-3.04311339,-0.46149038,-2.30464484

>  <Name>
ligand

>  <RI>
0

>  <Rbt.Current_Directory>
/home/itssahil/PROJECTS/Mol_Feturizer/New_Systems/rnas/3DVV

>  <Rbt.Executable>
rbdock ($Id: //depot/dev/client3/rdock/2013.1/src/exe/rbdock.cxx#4 $)

>  <Rbt.Library>
libRbt.so (2013.1, Build901 2013/11/27)

>  <Rbt.Parameter_File>
/export/apps/rDock/src/rDock_2013.1_src/data/scripts/dock_solv.prm

>  <Rbt.Receptor>
prm/pocket_docking_4.prm

>  <SCORE>
-8.67732

>  <SCORE.INTER>
-5.68199

>  <SCORE.INTER.CONST>
1

>  <SCORE.INTER.POLAR>
0

>  <SCORE.INTER.ROT>
6

>  <SCORE.INTER.SOLV>
25.9796

>  <SCORE.INTER.VDW>
-20.0478

>  <SCORE.INTER.norm>
-0.18329

>  <SCORE.INTRA>
-2.99532

>  <SCORE.INTRA.DIHEDRAL>
-7.20063

>  <SCORE.INTRA.DIHEDRAL.0>
10.8172

>  <SCORE.INTRA.POLAR>
0

>  <SCORE.INTRA.POLAR.0>
0

>  <SCORE.INTRA.REPUL>
0

>  <SCORE.INTRA.REPUL.0>
0

>  <SCORE.INTRA.SOLV>
-1.64745

>  <SCORE.INTRA.SOLV.lig_0>
-80.3833

>  <SCORE.INTRA.VDW>
1.42871

>  <SCORE.INTRA.VDW.0>
-4.63762

>  <SCORE.INTRA.norm>
-0.0966234

>  <SCORE.RESTR>
0

>  <SCORE.RESTR.CAVITY>
0

>  <SCORE.RESTR.norm>
0

>  <SCORE.SYSTEM>
0

>  <SCORE.SYSTEM.CONST>
0

>  <SCORE.SYSTEM.DIHEDRAL>
0

>  <SCORE.SYSTEM.SOLV>
0

>  <SCORE.SYSTEM.norm>
0

>  <SCORE.heavy>
31

>  <SCORE.norm>
-0.279913

>  <RMSD>
1.303

$$$$
ligand
 OpenBabel11021811473D
libRbt.so/2013.1/901 2013/11/27
 31 33  0  0  0  0  0  0  0  0999 V2000
   17.1185    7.1111   19.7144 C   0  0  0  0  0  0  0  0  0  0  0  0
   16.5017    0.5689   14.5195 N   0  0  0  0  0  0  0  0  0  0  0  0
   18.5408    6.9561   19.7580 O   0  0  0  0  0  0  0  0  0  0  0  0
   16.4453    5.7501   19.5205 C   0  0  1  0  0  0  0  0  0  0  0  0
   20.7930    2.7578   13.6844 N   0  0  0  0  0  0  0  0  0  0  0  0
   16.9447    5.1144   18.3277 O   0  0  0  0  0  0  0  0  0  0  0  0
   17.4370    3.8082   18.6761 C   0  0  1  0  0  0  0  0  0  0  0  0
   24.3568    4.2428   18.4262 N   0  0  0  0  0  0  0  0  0  0  0  0
   18.5599    3.4294   17.8646 O   0  0  0  0  0  0  0  0  0  0  0  0
   18.2600    3.3506   16.4632 C   0  0  2  0  0  0  0  0  0  0  0  0
   19.7802    7.4272   16.2120 N   0  0  0  0  0  0  0  0  0  0  0  0
   16.2391    2.0928   16.8834 O   0  0  0  0  0  0  0  0  0  0  0  0
   17.5106    2.0333   16.2313 C   0  0  1  0  0  0  0  0  0  0  0  0
   20.1447    4.7202   15.6552 O   0  0  0  0  0  0  0  0  0  0  0  0
   17.2988    1.7859   14.7364 C   0  0  1  0  0  0  0  0  0  0  0  0
   21.7209    4.4797   17.3861 O   0  0  0  0  0  0  0  0  0  0  0  0
   18.6599    1.6503   14.0534 C   0  0  0  0  0  0  0  0  0  0  0  0
   24.3997    6.1123   15.4795 O   0  0  0  0  0  0  0  0  0  0  0  0
   19.4376    2.9592   14.2189 C   0  0  1  0  0  0  0  0  0  0  0  0
   22.5519    8.2663   15.9389 O   0  0  0  0  0  0  0  0  0  0  0  0
   19.5690    3.4024   15.6811 C   0  0  2  0  0  0  0  0  0  0  0  0
   18.0390    2.7519   20.8161 O   0  0  0  0  0  0  0  0  0  0  0  0
   20.5697    5.2166   16.9341 C   0  0  1  0  0  0  0  0  0  0  0  0
   15.6959    3.9603   21.0342 O   0  0  0  0  0  0  0  0  0  0  0  0
   22.8574    4.5652   16.5096 C   0  0  2  0  0  0  0  0  0  0  0  0
   24.0032    3.7338   17.0914 C   0  0  0  0  0  0  0  0  0  0  0  0
   23.3097    6.0226   16.4010 C   0  0  2  0  0  0  0  0  0  0  0  0
   22.1533    6.8919   15.9030 C   0  0  1  0  0  0  0  0  0  0  0  0
   20.9209    6.7013   16.7912 C   0  0  1  0  0  0  0  0  0  0  0  0
   17.9216    3.9910   20.1129 C   0  0  2  0  0  0  0  0  0  0  0  0
   16.7828    4.8245   20.6928 C   0  0  1  0  0  0  0  0  0  0  0  0
  1  3  1  0  0  0  0
  4  1  1  1  0  0  0
  4  6  1  0  0  0  0
  4 31  1  0  0  0  0
  6  7  1  0  0  0  0
  7  9  1  6  0  0  0
  7 30  1  0  0  0  0
  8 26  1  0  0  0  0
 10  9  1  1  0  0  0
 10 13  1  0  0  0  0
 10 21  1  0  0  0  0
 13 12  1  1  0  0  0
 13 15  1  0  0  0  0
 15  2  1  1  0  0  0
 15 17  1  0  0  0  0
 16 25  1  0  0  0  0
 16 23  1  0  0  0  0
 17 19  1  0  0  0  0
 19  5  1  1  0  0  0
 19 21  1  0  0  0  0
 21 14  1  6  0  0  0
 23 14  1  6  0  0  0
 23 29  1  0  0  0  0
 25 26  1  1  0  0  0
 25 27  1  0  0  0  0
 27 18  1  6  0  0  0
 27 28  1  0  0  0  0
 28 20  1  1  0  0  0
 28 29  1  0  0  0  0
 29 11  1  6  0  0  0
 30 22  1  1  0  0  0
 30 31  1  0  0  0  0
 31 24  1  6  0  0  0
M  END
>  <CHROM.1>
-56.54946404,-61.38750803,-77.46254333,69.66728853,65.19925234,-59.40495136
19.49668795,4.42705440,17.18945103,-3.03590826,-0.47988642,-2.26236447

>  <Name>
ligand

>  <RI>
0

>  <Rbt.Current_Directory>
/home/itssahil/PROJECTS/Mol_Feturizer/New_Systems/rnas/3DVV

>  <Rbt.Executable>
rbdock ($Id: //depot/dev/client3/rdock/2013.1/src/exe/rbdock.cxx#4 $)

>  <Rbt.Library>
libRbt.so (2013.1, Build901 2013/11/27)

>  <Rbt.Parameter_File>
/export/apps/rDock/src/rDock_2013.1_src/data/scripts/dock_solv.prm

>  <Rbt.Receptor>
prm/pocket_docking_4.prm

>  <SCORE>
-8.27821

>  <SCORE.INTER>
-5.10859

>  <SCORE.INTER.CONST>
1

>  <SCORE.INTER.POLAR>
0

>  <SCORE.INTER.ROT>
6

>  <SCORE.INTER.SOLV>
26.9264

>  <SCORE.INTER.VDW>
-19.9812

>  <SCORE.INTER.norm>
-0.164793

>  <SCORE.INTRA>
-3.16962

>  <SCORE.INTRA.DIHEDRAL>
-8.5051

>  <SCORE.INTRA.DIHEDRAL.0>
10.8172

>  <SCORE.INTRA.POLAR>
0

>  <SCORE.INTRA.POLAR.0>
0

>  <SCORE.INTRA.REPUL>
0

>  <SCORE.INTRA.REPUL.0>
0

>  <SCORE.INTRA.SOLV>
-1.65546

>  <SCORE.INTRA.SOLV.lig_0>
-80.3833

>  <SCORE.INTRA.VDW>
1.91066

>  <SCORE.INTRA.VDW.0>
-4.63762

>  <SCORE.INTRA.norm>
-0.102246

>  <SCORE.RESTR>
0

>  <SCORE.RESTR.CAVITY>
0

>  <SCORE.RESTR.norm>
0

>  <SCORE.SYSTEM>
0

>  <SCORE.SYSTEM.CONST>
0

>  <SCORE.SYSTEM.DIHEDRAL>
0

>  <SCORE.SYSTEM.SOLV>
0

>  <SCORE.SYSTEM.norm>
0

>  <SCORE.heavy>
31

>  <SCORE.norm>
-0.267039

>  <RMSD>
1.307

$$$$
ligand
 OpenBabel11021811473D
libRbt.so/2013.1/901 2013/11/27
 31 33  0  0  0  0  0  0  0  0999 V2000
   17.9497    8.4363   18.5785 C   0  0  0  0  0  0  0  0  0  0  0  0
   17.1815    0.9391   14.7908 N   0  0  0  0  0  0  0  0  0  0  0  0
   17.8687    9.1241   17.3259 O   0  0  0  0  0  0  0  0  0  0  0  0
   17.1549    7.1296   18.5152 C   0  0  1  0  0  0  0  0  0  0  0  0
   21.7450    2.5062   14.0024 N   0  0  0  0  0  0  0  0  0  0  0  0
   17.7269    6.2475   17.5297 O   0  0  0  0  0  0  0  0  0  0  0  0
   18.0168    4.9857   18.1571 C   0  0  1  0  0  0  0  0  0  0  0  0
   25.6746    3.5390   17.0777 N   0  0  0  0  0  0  0  0  0  0  0  0
   19.1836    4.3670   17.5924 O   0  0  0  0  0  0  0  0  0  0  0  0
   19.0209    3.9674   16.2235 C   0  0  2  0  0  0  0  0  0  0  0  0
   21.0591    7.7142   15.0819 N   0  0  0  0  0  0  0  0  0  0  0  0
   16.8448    3.0168   16.6745 O   0  0  0  0  0  0  0  0  0  0  0  0
   18.1622    2.6973   16.2189 C   0  0  1  0  0  0  0  0  0  0  0  0
   21.1138    4.9407   15.3554 O   0  0  0  0  0  0  0  0  0  0  0  0
   18.0782    2.1048   14.8108 C   0  0  1  0  0  0  0  0  0  0  0  0
   22.3180    5.0690   17.3732 O   0  0  0  0  0  0  0  0  0  0  0  0
   19.4792    1.6970   14.3545 C   0  0  0  0  0  0  0  0  0  0  0  0
   25.4931    5.8245   15.6928 O   0  0  0  0  0  0  0  0  0  0  0  0
   20.3718    2.9404   14.3007 C   0  0  1  0  0  0  0  0  0  0  0  0
   23.9291    8.1794   15.1704 O   0  0  0  0  0  0  0  0  0  0  0  0
   20.4006    3.7201   15.6209 C   0  0  2  0  0  0  0  0  0  0  0  0
   18.2134    4.2799   20.5068 O   0  0  0  0  0  0  0  0  0  0  0  0
   21.3815    5.7456   16.5143 C   0  0  1  0  0  0  0  0  0  0  0  0
   16.0164    5.7160   20.1770 O   0  0  0  0  0  0  0  0  0  0  0  0
   23.5879    4.7916   16.7588 C   0  0  2  0  0  0  0  0  0  0  0  0
   24.4831    4.0632   17.7641 C   0  0  0  0  0  0  0  0  0  0  0  0
   24.2603    6.1066   16.3603 C   0  0  2  0  0  0  0  0  0  0  0  0
   23.3459    6.8964   15.4216 C   0  0  1  0  0  0  0  0  0  0  0  0
   21.9653    7.0861   16.0555 C   0  0  1  0  0  0  0  0  0  0  0  0
   18.3306    5.3782   19.5993 C   0  0  2  0  0  0  0  0  0  0  0  0
   17.2302    6.4024   19.8607 C   0  0  1  0  0  0  0  0  0  0  0  0
  1  3  1  0  0  0  0
  4  1  1  1  0  0  0
  4  6  1  0  0  0  0
  4 31  1  0  0  0  0
  6  7  1  0  0  0  0
  7  9  1  6  0  0  0
  7 30  1  0  0  0  0
  8 26  1  0  0  0  0
 10  9  1  1  0  0  0
 10 13  1  0  0  0  0
 10 21  1  0  0  0  0
 13 12  1  6  0  0  0
 13 15  1  0  0  0  0
 15  2  1  1  0  0  0
 15 17  1  0  0  0  0
 16 25  1  0  0  0  0
 16 23  1  0  0  0  0
 17 19  1  0  0  0  0
 19  5  1  1  0  0  0
 19 21  1  0  0  0  0
 21 14  1  6  0  0  0
 23 14  1  6  0  0  0
 23 29  1  0  0  0  0
 25 26  1  1  0  0  0
 25 27  1  0  0  0  0
 27 18  1  6  0  0  0
 27 28  1  0  0  0  0
 28 20  1  1  0  0  0
 28 29  1  0  0  0  0
 29 11  1  6  0  0  0
 30 22  1  1  0  0  0
 30 31  1  0  0  0  0
 31 24  1  6  0  0  0
M  END
>  <CHROM.1>
62.95649487,-66.16009604,-75.65708249,67.37489246,61.36071636,168.86383116
20.23262630,5.05015600,16.78375061,-3.00307416,-0.31411053,-2.62851923

>  <Name>
ligand

>  <RI>
0

>  <Rbt.Current_Directory>
/home/itssahil/PROJECTS/Mol_Feturizer/New_Systems/rnas/3DVV

>  <Rbt.Executable>
rbdock ($Id: //depot/dev/client3/rdock/2013.1/src/exe/rbdock.cxx#4 $)

>  <Rbt.Library>
libRbt.so (2013.1, Build901 2013/11/27)

>  <Rbt.Parameter_File>
/export/apps/rDock/src/rDock_2013.1_src/data/scripts/dock_solv.prm

>  <Rbt.Receptor>
prm/pocket_docking_3.prm

>  <SCORE>
-12.6775

>  <SCORE.INTER>
-9.17583

>  <SCORE.INTER.CONST>
1

>  <SCORE.INTER.POLAR>
0

>  <SCORE.INTER.ROT>
6

>  <SCORE.INTER.SOLV>
21.2395

>  <SCORE.INTER.VDW>
-20.7971

>  <SCORE.INTER.norm>
-0.295995

>  <SCORE.INTRA>
-3.50171

>  <SCORE.INTRA.DIHEDRAL>
-8.48128

>  <SCORE.INTRA.DIHEDRAL.0>
10.8172

>  <SCORE.INTRA.POLAR>
0

>  <SCORE.INTRA.POLAR.0>
0

>  <SCORE.INTRA.REPUL>
0

>  <SCORE.INTRA.REPUL.0>
0

>  <SCORE.INTRA.SOLV>
-3.47819

>  <SCORE.INTRA.SOLV.lig_0>
-80.3833

>  <SCORE.INTRA.VDW>
2.47802

>  <SCORE.INTRA.VDW.0>
-4.63762

>  <SCORE.INTRA.norm>
-0.112958

>  <SCORE.RESTR>
0

>  <SCORE.RESTR.CAVITY>
0

>  <SCORE.RESTR.norm>
0

>  <SCORE.SYSTEM>
0

>  <SCORE.SYSTEM.CONST>
0

>  <SCORE.SYSTEM.DIHEDRAL>
0

>  <SCORE.SYSTEM.SOLV>
0

>  <SCORE.SYSTEM.norm>
0

>  <SCORE.heavy>
31

>  <SCORE.norm>
-0.408953

>  <RMSD>
1.392

$$$$
ligand
 OpenBabel11021811473D
libRbt.so/2013.1/901 2013/11/27
 31 33  0  0  0  0  0  0  0  0999 V2000
   15.3711    6.4342   16.5143 C   0  0  0  0  0  0  0  0  0  0  0  0
   18.5013   -0.2433   13.1990 N   0  0  0  0  0  0  0  0  0  0  0  0
   14.2462    7.0867   17.1122 O   0  0  0  0  0  0  0  0  0  0  0  0
   15.1604    4.9180   16.5096 C   0  0  1  0  0  0  0  0  0  0  0  0
   22.2991    2.6645   14.2113 N   0  0  0  0  0  0  0  0  0  0  0  0
   16.2838    4.2623   15.8897 O   0  0  0  0  0  0  0  0  0  0  0  0
   16.8013    3.2782   16.8028 C   0  0  1  0  0  0  0  0  0  0  0  0
   25.2236    4.2699   17.1291 N   0  0  0  0  0  0  0  0  0  0  0  0
   18.2251    3.1355   16.6796 O   0  0  0  0  0  0  0  0  0  0  0  0
   18.6705    2.9236   15.3318 C   0  0  2  0  0  0  0  0  0  0  0  0
   19.5575    7.1819   15.6407 N   0  0  0  0  0  0  0  0  0  0  0  0
   16.8998    1.3331   14.9103 O   0  0  0  0  0  0  0  0  0  0  0  0
   18.3218    1.4779   14.9590 C   0  0  1  0  0  0  0  0  0  0  0  0
   20.5006    4.5765   15.3360 O   0  0  0  0  0  0  0  0  0  0  0  0
   18.9121    1.1121   13.5956 C   0  0  1  0  0  0  0  0  0  0  0  0
   21.5551    4.6116   17.4395 O   0  0  0  0  0  0  0  0  0  0  0  0
   20.4367    1.1974   13.6708 C   0  0  0  0  0  0  0  0  0  0  0  0
   24.3503    6.6759   16.2554 O   0  0  0  0  0  0  0  0  0  0  0  0
   20.8437    2.6365   14.0007 C   0  0  1  0  0  0  0  0  0  0  0  0
   22.1201    8.4825   16.0905 O   0  0  0  0  0  0  0  0  0  0  0  0
   20.1737    3.1773   15.2697 C   0  0  2  0  0  0  0  0  0  0  0  0
   16.5087    2.9043   19.2178 O   0  0  0  0  0  0  0  0  0  0  0  0
   20.4687    5.1401   16.6567 C   0  0  1  0  0  0  0  0  0  0  0  0
   14.1567    3.3070   18.0758 O   0  0  0  0  0  0  0  0  0  0  0  0
   22.8593    4.8892   16.9017 C   0  0  2  0  0  0  0  0  0  0  0  0
   23.9203    4.2669   17.8125 C   0  0  0  0  0  0  0  0  0  0  0  0
   23.0785    6.4023   16.8494 C   0  0  2  0  0  0  0  0  0  0  0  0
   21.9780    7.0601   16.0143 C   0  0  1  0  0  0  0  0  0  0  0  0
   20.5971    6.6628   16.5426 C   0  0  1  0  0  0  0  0  0  0  0  0
   16.4947    3.8796   18.1728 C   0  0  2  0  0  0  0  0  0  0  0  0
   15.0763    4.3942   17.9461 C   0  0  1  0  0  0  0  0  0  0  0  0
  1  3  1  0  0  0  0
  4  1  1  1  0  0  0
  4  6  1  0  0  0  0
  4 31  1  0  0  0  0
  6  7  1  0  0  0  0
  7  9  1  6  0  0  0
  7 30  1  0  0  0  0
  8 26  1  0  0  0  0
 10  9  1  1  0  0  0
 10 13  1  0  0  0  0
 10 21  1  0  0  0  0
 13 12  1  6  0  0  0
 13 15  1  0  0  0  0
 15  2  1  1  0  0  0
 15 17  1  0  0  0  0
 16 25  1  0  0  0  0
 16 23  1  0  0  0  0
 17 19  1  0  0  0  0
 19  5  1  1  0  0  0
 19 21  1  0  0  0  0
 21 14  1  6  0  0  0
 23 14  1  6  0  0  0
 23 29  1  0  0  0  0
 25 26  1  1  0  0  0
 25 27  1  0  0  0  0
 27 18  1  6  0  0  0
 27 28  1  0  0  0  0
 28 20  1  1  0  0  0
 28 29  1  0  0  0  0
 29 11  1  6  0  0  0
 30 22  1  1  0  0  0
 30 31  1  0  0  0  0
 31 24  1  6  0  0  0
M  END
>  <CHROM.1>
179.14717005,-51.22257067,-74.70572781,69.24350061,79.35785094,167.08380815
19.30599978,4.21845220,16.17890089,2.97586443,-0.15836060,-2.67942120

>  <Name>
ligand

>  <RI>
0

>  <Rbt.Current_Directory>
/home/itssahil/PROJECTS/Mol_Feturizer/New_Systems/rnas/3DVV

>  <Rbt.Executable>
rbdock ($Id: //depot/dev/client3/rdock/2013.1/src/exe/rbdock.cxx#4 $)

>  <Rbt.Library>
libRbt.so (2013.1, Build901 2013/11/27)

>  <Rbt.Parameter_File>
/export/apps/rDock/src/rDock_2013.1_src/data/scripts/dock_solv.prm

>  <Rbt.Receptor>
prm/pocket_docking_5.prm

>  <SCORE>
-9.69875

>  <SCORE.INTER>
-7.54221

>  <SCORE.INTER.CONST>
1

>  <SCORE.INTER.POLAR>
0

>  <SCORE.INTER.ROT>
6

>  <SCORE.INTER.SOLV>
20.2286

>  <SCORE.INTER.VDW>
-19.371

>  <SCORE.INTER.norm>
-0.243297

>  <SCORE.INTRA>
-2.15654

>  <SCORE.INTRA.DIHEDRAL>
-6.52654

>  <SCORE.INTRA.DIHEDRAL.0>
10.8172

>  <SCORE.INTRA.POLAR>
0

>  <SCORE.INTRA.POLAR.0>
0

>  <SCORE.INTRA.REPUL>
0

>  <SCORE.INTRA.REPUL.0>
0

>  <SCORE.INTRA.SOLV>
-2.37549

>  <SCORE.INTRA.SOLV.lig_0>
-80.3833

>  <SCORE.INTRA.VDW>
2.29448

>  <SCORE.INTRA.VDW.0>
-4.63762

>  <SCORE.INTRA.norm>
-0.0695658

>  <SCORE.RESTR>
0

>  <SCORE.RESTR.CAVITY>
0

>  <SCORE.RESTR.norm>
0

>  <SCORE.SYSTEM>
0

>  <SCORE.SYSTEM.CONST>
0

>  <SCORE.SYSTEM.DIHEDRAL>
0

>  <SCORE.SYSTEM.SOLV>
0

>  <SCORE.SYSTEM.norm>
0

>  <SCORE.heavy>
31

>  <SCORE.norm>
-0.312863

>  <RMSD>
1.476

$$$$
ligand
 OpenBabel11021811473D
libRbt.so/2013.1/901 2013/11/27
 31 33  0  0  0  0  0  0  0  0999 V2000
   15.2043    6.2903   16.2872 C   0  0  0  0  0  0  0  0  0  0  0  0
   18.5775   -0.2663   13.1931 N   0  0  0  0  0  0  0  0  0  0  0  0
   15.2621    6.7197   14.9230 O   0  0  0  0  0  0  0  0  0  0  0  0
   15.0614    4.7677   16.3554 C   0  0  1  0  0  0  0  0  0  0  0  0
   22.3229    2.6934   14.2495 N   0  0  0  0  0  0  0  0  0  0  0  0
   16.2200    4.1338   15.7791 O   0  0  0  0  0  0  0  0  0  0  0  0
   16.7703    3.2199   16.7444 C   0  0  1  0  0  0  0  0  0  0  0  0
   25.2336    4.2732   17.0505 N   0  0  0  0  0  0  0  0  0  0  0  0
   18.2004    3.1357   16.6416 O   0  0  0  0  0  0  0  0  0  0  0  0
   18.6721    2.9187   15.3036 C   0  0  2  0  0  0  0  0  0  0  0  0
   19.5549    7.2014   15.6508 N   0  0  0  0  0  0  0  0  0  0  0  0
   16.9277    1.3044   14.8634 O   0  0  0  0  0  0  0  0  0  0  0  0
   18.3468    1.4662   14.9360 C   0  0  1  0  0  0  0  0  0  0  0  0
   20.4826    4.5928   15.3272 O   0  0  0  0  0  0  0  0  0  0  0  0
   18.9655    1.0969   13.5863 C   0  0  1  0  0  0  0  0  0  0  0  0
   21.5697    4.6200   17.4142 O   0  0  0  0  0  0  0  0  0  0  0  0
   20.4874    1.2005   13.6878 C   0  0  0  0  0  0  0  0  0  0  0  0
   24.3545    6.6752   16.1906 O   0  0  0  0  0  0  0  0  0  0  0  0
   20.8719    2.6468   14.0135 C   0  0  1  0  0  0  0  0  0  0  0  0
   22.1293    8.4910   16.0631 O   0  0  0  0  0  0  0  0  0  0  0  0
   20.1732    3.1894   15.2661 C   0  0  2  0  0  0  0  0  0  0  0  0
   16.4670    2.9517   19.1721 O   0  0  0  0  0  0  0  0  0  0  0  0
   20.4734    5.1542   16.6491 C   0  0  1  0  0  0  0  0  0  0  0  0
   14.1127    3.1916   17.9900 O   0  0  0  0  0  0  0  0  0  0  0  0
   22.8665    4.8933   16.8568 C   0  0  2  0  0  0  0  0  0  0  0  0
   23.9389    4.2652   17.7501 C   0  0  0  0  0  0  0  0  0  0  0  0
   23.0910    6.4056   16.8036 C   0  0  2  0  0  0  0  0  0  0  0  0
   21.9804    7.0693   15.9868 C   0  0  1  0  0  0  0  0  0  0  0  0
   20.6062    6.6766   16.5357 C   0  0  1  0  0  0  0  0  0  0  0  0
   16.4215    3.8731   18.0801 C   0  0  2  0  0  0  0  0  0  0  0  0
   14.9843    4.3115   17.8152 C   0  0  1  0  0  0  0  0  0  0  0  0
  1  3  1  0  0  0  0
  4  1  1  1  0  0  0
  4  6  1  0  0  0  0
  4 31  1  0  0  0  0
  6  7  1  0  0  0  0
  7  9  1  6  0  0  0
  7 30  1  0  0  0  0
  8 26  1  0  0  0  0
 10  9  1  1  0  0  0
 10 13  1  0  0  0  0
 10 21  1  0  0  0  0
 13 12  1  6  0  0  0
 13 15  1  0  0  0  0
 15  2  1  1  0  0  0
 15 17  1  0  0  0  0
 16 25  1  0  0  0  0
 16 23  1  0  0  0  0
 17 19  1  0  0  0  0
 19  5  1  1  0  0  0
 19 21  1  0  0  0  0
 21 14  1  6  0  0  0
 23 14  1  6  0  0  0
 23 29  1  0  0  0  0
 25 26  1  1  0  0  0
 25 27  1  0  0  0  0
 27 18  1  6  0  0  0
 27 28  1  0  0  0  0
 28 20  1  1  0  0  0
 28 29  1  0  0  0  0
 29 11  1  6  0  0  0
 30 22  1  1  0  0  0
 30 31  1  0  0  0  0
 31 24  1  6  0  0  0
M  END
>  <CHROM.1>
62.96683635,-49.44295560,-72.81789546,68.15507358,81.74737291,167.50006100
19.33378933,4.18673672,16.05472532,2.90288961,-0.12903935,-2.71601286

>  <Name>
ligand

>  <RI>
0

>  <Rbt.Current_Directory>
/home/itssahil/PROJECTS/Mol_Feturizer/New_Systems/rnas/3DVV

>  <Rbt.Executable>
rbdock ($Id: //depot/dev/client3/rdock/2013.1/src/exe/rbdock.cxx#4 $)

>  <Rbt.Library>
libRbt.so (2013.1, Build901 2013/11/27)

>  <Rbt.Parameter_File>
/export/apps/rDock/src/rDock_2013.1_src/data/scripts/dock_solv.prm

>  <Rbt.Receptor>
prm/pocket_docking_4.prm

>  <SCORE>
-9.90972

>  <SCORE.INTER>
-8.05572

>  <SCORE.INTER.CONST>
1

>  <SCORE.INTER.POLAR>
0

>  <SCORE.INTER.ROT>
6

>  <SCORE.INTER.SOLV>
19.8318

>  <SCORE.INTER.VDW>
-19.5811

>  <SCORE.INTER.norm>
-0.259862

>  <SCORE.INTRA>
-1.854

>  <SCORE.INTRA.DIHEDRAL>
-6.31386

>  <SCORE.INTRA.DIHEDRAL.0>
10.8172

>  <SCORE.INTRA.POLAR>
0

>  <SCORE.INTRA.POLAR.0>
0

>  <SCORE.INTRA.REPUL>
0

>  <SCORE.INTRA.REPUL.0>
0

>  <SCORE.INTRA.SOLV>
-2.2907

>  <SCORE.INTRA.SOLV.lig_0>
-80.3833

>  <SCORE.INTRA.VDW>
2.44828

>  <SCORE.INTRA.VDW.0>
-4.63762

>  <SCORE.INTRA.norm>
-0.0598066

>  <SCORE.RESTR>
0

>  <SCORE.RESTR.CAVITY>
0

>  <SCORE.RESTR.norm>
0

>  <SCORE.SYSTEM>
0

>  <SCORE.SYSTEM.CONST>
0

>  <SCORE.SYSTEM.DIHEDRAL>
0

>  <SCORE.SYSTEM.SOLV>
0

>  <SCORE.SYSTEM.norm>
0

>  <SCORE.heavy>
31

>  <SCORE.norm>
-0.319668

>  <RMSD>
1.569

$$$$
ligand
 OpenBabel11021811473D
libRbt.so/2013.1/901 2013/11/27
 31 33  0  0  0  0  0  0  0  0999 V2000
   14.5699    6.0850   16.3557 C   0  0  0  0  0  0  0  0  0  0  0  0
   18.7347   -0.2915   13.2093 N   0  0  0  0  0  0  0  0  0  0  0  0
   15.6293    6.4724   17.2367 O   0  0  0  0  0  0  0  0  0  0  0  0
   14.5680    4.5657   16.1689 C   0  0  1  0  0  0  0  0  0  0  0  0
   22.1609    2.9486   14.5003 N   0  0  0  0  0  0  0  0  0  0  0  0
   15.8250    4.1320   15.6136 O   0  0  0  0  0  0  0  0  0  0  0  0
   16.3795    3.1185   16.4710 C   0  0  1  0  0  0  0  0  0  0  0  0
   24.1065    3.6026   17.0231 N   0  0  0  0  0  0  0  0  0  0  0  0
   17.8147    3.1686   16.4940 O   0  0  0  0  0  0  0  0  0  0  0  0
   18.4215    2.9485   15.2120 C   0  0  2  0  0  0  0  0  0  0  0  0
   18.7924    7.1445   15.8754 N   0  0  0  0  0  0  0  0  0  0  0  0
   16.8367    1.2057   14.6703 O   0  0  0  0  0  0  0  0  0  0  0  0
   18.2291    1.4676   14.8654 C   0  0  1  0  0  0  0  0  0  0  0  0
   20.1064    4.7443   15.3432 O   0  0  0  0  0  0  0  0  0  0  0  0
   18.9930    1.1055   13.5902 C   0  0  1  0  0  0  0  0  0  0  0  0
   21.4897    4.9734   17.2332 O   0  0  0  0  0  0  0  0  0  0  0  0
   20.4888    1.3173   13.8252 C   0  0  0  0  0  0  0  0  0  0  0  0
   23.6327    7.4923   15.6395 O   0  0  0  0  0  0  0  0  0  0  0  0
   20.7442    2.7951   14.1358 C   0  0  1  0  0  0  0  0  0  0  0  0
   21.1282    8.8776   15.9102 O   0  0  0  0  0  0  0  0  0  0  0  0
   19.8982    3.3217   15.3013 C   0  0  2  0  0  0  0  0  0  0  0  0
   15.9062    2.4282   18.7857 O   0  0  0  0  0  0  0  0  0  0  0  0
   20.2082    5.2991   16.6640 C   0  0  1  0  0  0  0  0  0  0  0  0
   13.6441    2.6690   17.4357 O   0  0  0  0  0  0  0  0  0  0  0  0
   22.6115    5.4738   16.4858 C   0  0  2  0  0  0  0  0  0  0  0  0
   23.9071    5.0519   17.1828 C   0  0  0  0  0  0  0  0  0  0  0  0
   22.5515    7.0016   16.4367 C   0  0  2  0  0  0  0  0  0  0  0  0
   21.2247    7.4520   15.8220 C   0  0  1  0  0  0  0  0  0  0  0  0
   20.0478    6.8202   16.5700 C   0  0  1  0  0  0  0  0  0  0  0  0
   15.8621    3.5110   17.8534 C   0  0  2  0  0  0  0  0  0  0  0  0
   14.4160    3.8693   17.5242 C   0  0  1  0  0  0  0  0  0  0  0  0
  1  3  1  0  0  0  0
  4  1  1  1  0  0  0
  4  6  1  0  0  0  0
  4 31  1  0  0  0  0
  6  7  1  0  0  0  0
  7  9  1  1  0  0  0
  7 30  1  0  0  0  0
  8 26  1  0  0  0  0
 10  9  1  1  0  0  0
 10 13  1  0  0  0  0
 10 21  1  0  0  0  0
 13 12  1  6  0  0  0
 13 15  1  0  0  0  0
 15  2  1  1  0  0  0
 15 17  1  0  0  0  0
 16 25  1  0  0  0  0
 16 23  1  0  0  0  0
 17 19  1  0  0  0  0
 19  5  1  1  0  0  0
 19 21  1  0  0  0  0
 21 14  1  6  0  0  0
 23 14  1  6  0  0  0
 23 29  1  0  0  0  0
 25 26  1  1  0  0  0
 25 27  1  0  0  0  0
 27 18  1  6  0  0  0
 27 28  1  0  0  0  0
 28 20  1  1  0  0  0
 28 29  1  0  0  0  0
 29 11  1  6  0  0  0
 30 22  1  1  0  0  0
 30 31  1  0  0  0  0
 31 24  1  6  0  0  0
M  END
>  <CHROM.1>
-59.60579432,-61.13744827,-71.15157482,74.68741674,93.83378556,70.90872866
18.96580202,4.23712716,16.00374748,2.82892615,-0.19282545,-2.76773474

>  <Name>
ligand

>  <RI>
0

>  <Rbt.Current_Directory>
/home/itssahil/PROJECTS/Mol_Feturizer/New_Systems/rnas/3DVV

>  <Rbt.Executable>
rbdock ($Id: //depot/dev/client3/rdock/2013.1/src/exe/rbdock.cxx#4 $)

>  <Rbt.Library>
libRbt.so (2013.1, Build901 2013/11/27)

>  <Rbt.Parameter_File>
/export/apps/rDock/src/rDock_2013.1_src/data/scripts/dock_solv.prm

>  <Rbt.Receptor>
prm/pocket_docking_4.prm

>  <SCORE>
-8.43645

>  <SCORE.INTER>
-8.04577

>  <SCORE.INTER.CONST>
1

>  <SCORE.INTER.POLAR>
0

>  <SCORE.INTER.ROT>
6

>  <SCORE.INTER.SOLV>
19.3487

>  <SCORE.INTER.VDW>
-19.4134

>  <SCORE.INTER.norm>
-0.259541

>  <SCORE.INTRA>
-0.390675

>  <SCORE.INTRA.DIHEDRAL>
-4.30428

>  <SCORE.INTRA.DIHEDRAL.0>
10.8172

>  <SCORE.INTRA.POLAR>
0

>  <SCORE.INTRA.POLAR.0>
0

>  <SCORE.INTRA.REPUL>
0

>  <SCORE.INTRA.REPUL.0>
0

>  <SCORE.INTRA.SOLV>
-0.0705722

>  <SCORE.INTRA.SOLV.lig_0>
-80.3833

>  <SCORE.INTRA.VDW>
1.79675

>  <SCORE.INTRA.VDW.0>
-4.63762

>  <SCORE.INTRA.norm>
-0.0126024

>  <SCORE.RESTR>
0

>  <SCORE.RESTR.CAVITY>
0

>  <SCORE.RESTR.norm>
0

>  <SCORE.SYSTEM>
0

>  <SCORE.SYSTEM.CONST>
0

>  <SCORE.SYSTEM.DIHEDRAL>
0

>  <SCORE.SYSTEM.SOLV>
0

>  <SCORE.SYSTEM.norm>
0

>  <SCORE.heavy>
31

>  <SCORE.norm>
-0.272143

>  <RMSD>
1.698

$$$$
ligand
 OpenBabel11021811473D
libRbt.so/2013.1/901 2013/11/27
 31 33  0  0  0  0  0  0  0  0999 V2000
   17.0789    7.2897   20.0996 C   0  0  0  0  0  0  0  0  0  0  0  0
   16.2138    0.8360   14.5411 N   0  0  0  0  0  0  0  0  0  0  0  0
   18.4964    7.1207   19.9940 O   0  0  0  0  0  0  0  0  0  0  0  0
   16.3693    5.9542   19.8628 C   0  0  1  0  0  0  0  0  0  0  0  0
   20.0563    3.6285   13.3833 N   0  0  0  0  0  0  0  0  0  0  0  0
   16.7410    5.4151   18.5792 O   0  0  0  0  0  0  0  0  0  0  0  0
   17.2447    4.0811   18.7707 C   0  0  1  0  0  0  0  0  0  0  0  0
   24.0711    5.4020   17.4540 N   0  0  0  0  0  0  0  0  0  0  0  0
   18.2778    3.7621   17.8252 O   0  0  0  0  0  0  0  0  0  0  0  0
   17.8231    3.7200   16.4645 C   0  0  2  0  0  0  0  0  0  0  0  0
   18.7076    7.9054   16.4846 N   0  0  0  0  0  0  0  0  0  0  0  0
   16.0459    2.1788   17.0205 O   0  0  0  0  0  0  0  0  0  0  0  0
   17.2263    2.3279   16.2268 C   0  0  1  0  0  0  0  0  0  0  0  0
   19.4051    5.3744   15.5474 O   0  0  0  0  0  0  0  0  0  0  0  0
   16.8687    2.1361   14.7516 C   0  0  1  0  0  0  0  0  0  0  0  0
   21.3174    5.2910   16.9164 O   0  0  0  0  0  0  0  0  0  0  0  0
   18.1432    2.2236   13.9118 C   0  0  0  0  0  0  0  0  0  0  0  0
   23.2366    7.5592   14.7605 O   0  0  0  0  0  0  0  0  0  0  0  0
   18.7610    3.6149   14.0799 C   0  0  1  0  0  0  0  0  0  0  0  0
   21.1828    9.2758   15.8092 O   0  0  0  0  0  0  0  0  0  0  0  0
   19.0104    3.9913   15.5455 C   0  0  2  0  0  0  0  0  0  0  0  0
   18.0350    2.8482   20.7489 O   0  0  0  0  0  0  0  0  0  0  0  0
   19.9906    5.8316   16.7766 C   0  0  1  0  0  0  0  0  0  0  0  0
   15.7429    4.0517   21.2924 O   0  0  0  0  0  0  0  0  0  0  0  0
   22.2210    5.6653   15.8624 C   0  0  2  0  0  0  0  0  0  0  0  0
   23.5850    5.0201   16.1184 C   0  0  0  0  0  0  0  0  0  0  0  0
   22.3879    7.1858   15.8492 C   0  0  2  0  0  0  0  0  0  0  0  0
   21.0241    7.8589   15.6815 C   0  0  1  0  0  0  0  0  0  0  0  0
   20.0484    7.3627   16.7518 C   0  0  1  0  0  0  0  0  0  0  0  0
   17.8690    4.1417   20.1633 C   0  0  2  0  0  0  0  0  0  0  0  0
   16.8046    4.9330   20.9175 C   0  0  1  0  0  0  0  0  0  0  0  0
  1  3  1  0  0  0  0
  4  1  1  1  0  0  0
  4  6  1  0  0  0  0
  4 31  1  0  0  0  0
  6  7  1  0  0  0  0
  7  9  1  6  0  0  0
  7 30  1  0  0  0  0
  8 26  1  0  0  0  0
 10  9  1  1  0  0  0
 10 13  1  0  0  0  0
 10 21  1  0  0  0  0
 13 12  1  1  0  0  0
 13 15  1  0  0  0  0
 15  2  1  1  0  0  0
 15 17  1  0  0  0  0
 16 25  1  0  0  0  0
 16 23  1  0  0  0  0
 17 19  1  0  0  0  0
 19  5  1  6  0  0  0
 19 21  1  0  0  0  0
 21 14  1  6  0  0  0
 23 14  1  6  0  0  0
 23 29  1  0  0  0  0
 25 26  1  1  0  0  0
 25 27  1  0  0  0  0
 27 18  1  6  0  0  0
 27 28  1  0  0  0  0
 28 20  1  1  0  0  0
 28 29  1  0  0  0  0
 29 11  1  6  0  0  0
 30 22  1  1  0  0  0
 30 31  1  0  0  0  0
 31 24  1  6  0  0  0
M  END
>  <CHROM.1>
-56.67674505,-65.02576395,-83.70242937,72.96011737,68.84646952,-55.76163127
19.02984367,4.98345574,17.07692974,-3.02819961,-0.67390913,-2.20862118

>  <Name>
ligand

>  <RI>
0

>  <Rbt.Current_Directory>
/home/itssahil/PROJECTS/Mol_Feturizer/New_Systems/rnas/3DVV

>  <Rbt.Executable>
rbdock ($Id: //depot/dev/client3/rdock/2013.1/src/exe/rbdock.cxx#4 $)

>  <Rbt.Library>
libRbt.so (2013.1, Build901 2013/11/27)

>  <Rbt.Parameter_File>
/export/apps/rDock/src/rDock_2013.1_src/data/scripts/dock_solv.prm

>  <Rbt.Receptor>
prm/pocket_docking_3.prm

>  <SCORE>
-6.38696

>  <SCORE.INTER>
-3.82509

>  <SCORE.INTER.CONST>
1

>  <SCORE.INTER.POLAR>
0

>  <SCORE.INTER.ROT>
6

>  <SCORE.INTER.SOLV>
22.2677

>  <SCORE.INTER.VDW>
-17.5726

>  <SCORE.INTER.norm>
-0.12339

>  <SCORE.INTRA>
-2.56934

>  <SCORE.INTRA.DIHEDRAL>
-6.71805

>  <SCORE.INTRA.DIHEDRAL.0>
10.8172

>  <SCORE.INTRA.POLAR>
0

>  <SCORE.INTRA.POLAR.0>
0

>  <SCORE.INTRA.REPUL>
0

>  <SCORE.INTRA.REPUL.0>
0

>  <SCORE.INTRA.SOLV>
-0.859642

>  <SCORE.INTRA.SOLV.lig_0>
-80.3833

>  <SCORE.INTRA.VDW>
1.2195

>  <SCORE.INTRA.VDW.0>
-4.63762

>  <SCORE.INTRA.norm>
-0.082882

>  <SCORE.RESTR>
0.0074732

>  <SCORE.RESTR.CAVITY>
0.0074732

>  <SCORE.RESTR.norm>
0.000241071

>  <SCORE.SYSTEM>
0

>  <SCORE.SYSTEM.CONST>
0

>  <SCORE.SYSTEM.DIHEDRAL>
0

>  <SCORE.SYSTEM.SOLV>
0

>  <SCORE.SYSTEM.norm>
0

>  <SCORE.heavy>
31

>  <SCORE.norm>
-0.206031

>  <RMSD>
1.704

$$$$
ligand
 OpenBabel11021811473D
libRbt.so/2013.1/901 2013/11/27
 31 33  0  0  0  0  0  0  0  0999 V2000
   17.9532    9.0946   18.6910 C   0  0  0  0  0  0  0  0  0  0  0  0
   16.8413    1.3610   15.2540 N   0  0  0  0  0  0  0  0  0  0  0  0
   18.0516    9.7097   17.4023 O   0  0  0  0  0  0  0  0  0  0  0  0
   17.0726    7.8450   18.6133 C   0  0  1  0  0  0  0  0  0  0  0  0
   21.4276    2.7751   14.3213 N   0  0  0  0  0  0  0  0  0  0  0  0
   17.6152    6.9137   17.6569 O   0  0  0  0  0  0  0  0  0  0  0  0
   17.7959    5.6427   18.3064 C   0  0  1  0  0  0  0  0  0  0  0  0
   25.2869    3.5297   17.2359 N   0  0  0  0  0  0  0  0  0  0  0  0
   18.9355    4.9384   17.7886 O   0  0  0  0  0  0  0  0  0  0  0  0
   18.7528    4.4457   16.4530 C   0  0  2  0  0  0  0  0  0  0  0  0
   21.1024    8.0559   15.0762 N   0  0  0  0  0  0  0  0  0  0  0  0
   16.5624    3.5740   16.9870 O   0  0  0  0  0  0  0  0  0  0  0  0
   17.8692    3.1962   16.5455 C   0  0  1  0  0  0  0  0  0  0  0  0
   20.8565    5.3120   15.5018 O   0  0  0  0  0  0  0  0  0  0  0  0
   17.7609    2.5068   15.1839 C   0  0  1  0  0  0  0  0  0  0  0  0
   22.1091    5.4129   17.4915 O   0  0  0  0  0  0  0  0  0  0  0  0
   19.1495    2.0391   14.7474 C   0  0  0  0  0  0  0  0  0  0  0  0
   25.3127    5.7198   15.7253 O   0  0  0  0  0  0  0  0  0  0  0  0
   20.0659    3.2572   14.5982 C   0  0  1  0  0  0  0  0  0  0  0  0
   24.0074    8.2029   15.0966 O   0  0  0  0  0  0  0  0  0  0  0  0
   20.1218    4.1282   15.8591 C   0  0  2  0  0  0  0  0  0  0  0  0
   17.8638    4.9540   20.6684 O   0  0  0  0  0  0  0  0  0  0  0  0
   21.2354    6.1428   16.6104 C   0  0  1  0  0  0  0  0  0  0  0  0
   15.7837    6.5335   20.2488 O   0  0  0  0  0  0  0  0  0  0  0  0
   23.3277    4.9636   16.8747 C   0  0  2  0  0  0  0  0  0  0  0  0
   24.1577    4.1947   17.9055 C   0  0  0  0  0  0  0  0  0  0  0  0
   24.1326    6.1726   16.3943 C   0  0  2  0  0  0  0  0  0  0  0  0
   23.2916    7.0080   15.4269 C   0  0  1  0  0  0  0  0  0  0  0  0
   21.9538    7.3836   16.0696 C   0  0  1  0  0  0  0  0  0  0  0  0
   18.0872    6.0304   19.7547 C   0  0  2  0  0  0  0  0  0  0  0  0
   17.0520    7.1309   19.9678 C   0  0  1  0  0  0  0  0  0  0  0  0
  1  3  1  0  0  0  0
  4  1  1  1  0  0  0
  4  6  1  0  0  0  0
  4 31  1  0  0  0  0
  6  7  1  0  0  0  0
  7  9  1  6  0  0  0
  7 30  1  0  0  0  0
  8 26  1  0  0  0  0
 10  9  1  1  0  0  0
 10 13  1  0  0  0  0
 10 21  1  0  0  0  0
 13 12  1  6  0  0  0
 13 15  1  0  0  0  0
 15  2  1  1  0  0  0
 15 17  1  0  0  0  0
 16 25  1  0  0  0  0
 16 23  1  0  0  0  0
 17 19  1  0  0  0  0
 19  5  1  1  0  0  0
 19 21  1  0  0  0  0
 21 14  1  6  0  0  0
 23 14  1  6  0  0  0
 23 29  1  0  0  0  0
 25 26  1  1  0  0  0
 25 27  1  0  0  0  0
 27 18  1  6  0  0  0
 27 28  1  0  0  0  0
 28 20  1  1  0  0  0
 28 29  1  0  0  0  0
 29 11  1  6  0  0  0
 30 22  1  1  0  0  0
 30 31  1  0  0  0  0
 31 24  1  6  0  0  0
M  END
>  <CHROM.1>
58.18990808,-70.63393362,-76.84224931,61.96217224,65.70534863,170.10580423
20.03909873,5.45694368,16.94279112,-2.92871297,-0.30899454,-2.68915959

>  <Name>
ligand

>  <RI>
0

>  <Rbt.Current_Directory>
/home/itssahil/PROJECTS/Mol_Feturizer/New_Systems/rnas/3DVV

>  <Rbt.Executable>
rbdock ($Id: //depot/dev/client3/rdock/2013.1/src/exe/rbdock.cxx#4 $)

>  <Rbt.Library>
libRbt.so (2013.1, Build901 2013/11/27)

>  <Rbt.Parameter_File>
/export/apps/rDock/src/rDock_2013.1_src/data/scripts/dock_solv.prm

>  <Rbt.Receptor>
prm/pocket_docking_3.prm

>  <SCORE>
-13.4969

>  <SCORE.INTER>
-10.0694

>  <SCORE.INTER.CONST>
1

>  <SCORE.INTER.POLAR>
0

>  <SCORE.INTER.ROT>
6

>  <SCORE.INTER.SOLV>
20.5699

>  <SCORE.INTER.VDW>
-21.1696

>  <SCORE.INTER.norm>
-0.324819

>  <SCORE.INTRA>
-3.45003

>  <SCORE.INTRA.DIHEDRAL>
-8.18393

>  <SCORE.INTRA.DIHEDRAL.0>
10.8172

>  <SCORE.INTRA.POLAR>
0

>  <SCORE.INTRA.POLAR.0>
0

>  <SCORE.INTRA.REPUL>
0

>  <SCORE.INTRA.REPUL.0>
0

>  <SCORE.INTRA.SOLV>
-3.33408

>  <SCORE.INTRA.SOLV.lig_0>
-80.3833

>  <SCORE.INTRA.VDW>
2.30898

>  <SCORE.INTRA.VDW.0>
-4.63762

>  <SCORE.INTRA.norm>
-0.111291

>  <SCORE.RESTR>
0.0225388

>  <SCORE.RESTR.CAVITY>
0.0225388

>  <SCORE.RESTR.norm>
0.000727057

>  <SCORE.SYSTEM>
0

>  <SCORE.SYSTEM.CONST>
0

>  <SCORE.SYSTEM.DIHEDRAL>
0

>  <SCORE.SYSTEM.SOLV>
0

>  <SCORE.SYSTEM.norm>
0

>  <SCORE.heavy>
31

>  <SCORE.norm>
-0.435383

>  <RMSD>
1.709

$$$$
ligand
 OpenBabel11021811473D
libRbt.so/2013.1/901 2013/11/27
 31 33  0  0  0  0  0  0  0  0999 V2000
   17.0871    7.4617   20.1570 C   0  0  0  0  0  0  0  0  0  0  0  0
   16.4591    0.7727   14.7581 N   0  0  0  0  0  0  0  0  0  0  0  0
   16.6654    8.4276   19.1884 O   0  0  0  0  0  0  0  0  0  0  0  0
   16.3918    6.1218   19.9032 C   0  0  1  0  0  0  0  0  0  0  0  0
   20.1915    3.6677   13.4962 N   0  0  0  0  0  0  0  0  0  0  0  0
   16.7971    5.5855   18.6286 O   0  0  0  0  0  0  0  0  0  0  0  0
   17.3046    4.2548   18.8317 C   0  0  1  0  0  0  0  0  0  0  0  0
   23.5259    4.0799   16.7566 N   0  0  0  0  0  0  0  0  0  0  0  0
   18.3617    3.9427   17.9108 O   0  0  0  0  0  0  0  0  0  0  0  0
   17.9238    3.8143   16.5500 C   0  0  2  0  0  0  0  0  0  0  0  0
   18.4120    8.0071   16.1666 N   0  0  0  0  0  0  0  0  0  0  0  0
   16.2079    2.2273   17.1664 O   0  0  0  0  0  0  0  0  0  0  0  0
   17.3892    2.3879   16.3764 C   0  0  1  0  0  0  0  0  0  0  0  0
   19.4436    5.4882   15.5655 O   0  0  0  0  0  0  0  0  0  0  0  0
   17.0558    2.1086   14.9096 C   0  0  1  0  0  0  0  0  0  0  0  0
   21.1119    5.6738   17.2149 O   0  0  0  0  0  0  0  0  0  0  0  0
   18.3343    2.2095   14.0773 C   0  0  0  0  0  0  0  0  0  0  0  0
   23.1722    7.9448   15.1964 O   0  0  0  0  0  0  0  0  0  0  0  0
   18.8906    3.6326   14.1816 C   0  0  1  0  0  0  0  0  0  0  0  0
   20.8506    9.5415   15.7670 O   0  0  0  0  0  0  0  0  0  0  0  0
   19.1081    4.0909   15.6288 C   0  0  2  0  0  0  0  0  0  0  0  0
   18.0559    3.0262   20.8277 O   0  0  0  0  0  0  0  0  0  0  0  0
   19.7871    6.0824   16.8271 C   0  0  1  0  0  0  0  0  0  0  0  0
   15.7439    4.2148   21.3172 O   0  0  0  0  0  0  0  0  0  0  0  0
   22.1415    6.0512   16.2849 C   0  0  2  0  0  0  0  0  0  0  0  0
   23.4923    5.5504   16.8017 C   0  0  0  0  0  0  0  0  0  0  0  0
   22.1909    7.5757   16.1690 C   0  0  2  0  0  0  0  0  0  0  0  0
   20.8240    8.1105   15.7368 C   0  0  1  0  0  0  0  0  0  0  0  0
   19.7302    7.6069   16.6821 C   0  0  1  0  0  0  0  0  0  0  0  0
   17.8955    4.3187   20.2386 C   0  0  2  0  0  0  0  0  0  0  0  0
   16.8086    5.1030   20.9677 C   0  0  1  0  0  0  0  0  0  0  0  0
  1  3  1  0  0  0  0
  4  1  1  1  0  0  0
  4  6  1  0  0  0  0
  4 31  1  0  0  0  0
  6  7  1  0  0  0  0
  7  9  1  6  0  0  0
  7 30  1  0  0  0  0
  8 26  1  0  0  0  0
 10  9  1  1  0  0  0
 10 13  1  0  0  0  0
 10 21  1  0  0  0  0
 13 12  1  1  0  0  0
 13 15  1  0  0  0  0
 15  2  1  1  0  0  0
 15 17  1  0  0  0  0
 16 25  1  0  0  0  0
 16 23  1  0  0  0  0
 17 19  1  0  0  0  0
 19  5  1  6  0  0  0
 19 21  1  0  0  0  0
 21 14  1  6  0  0  0
 23 14  1  6  0  0  0
 23 29  1  0  0  0  0
 25 26  1  1  0  0  0
 25 27  1  0  0  0  0
 27 18  1  6  0  0  0
 27 28  1  0  0  0  0
 28 20  1  1  0  0  0
 28 29  1  0  0  0  0
 29 11  1  6  0  0  0
 30 22  1  1  0  0  0
 30 31  1  0  0  0  0
 31 24  1  6  0  0  0
M  END
>  <CHROM.1>
64.21382002,-68.77743999,-83.33127348,75.41366664,59.10197100,67.78098698
18.93722730,5.15445537,17.14132384,3.12289260,-0.70704614,-2.43746429

>  <Name>
ligand

>  <RI>
0

>  <Rbt.Current_Directory>
/home/itssahil/PROJECTS/Mol_Feturizer/New_Systems/rnas/3DVV

>  <Rbt.Executable>
rbdock ($Id: //depot/dev/client3/rdock/2013.1/src/exe/rbdock.cxx#4 $)

>  <Rbt.Library>
libRbt.so (2013.1, Build901 2013/11/27)

>  <Rbt.Parameter_File>
/export/apps/rDock/src/rDock_2013.1_src/data/scripts/dock_solv.prm

>  <Rbt.Receptor>
prm/pocket_docking_3.prm

>  <SCORE>
-9.57977

>  <SCORE.INTER>
-6.26432

>  <SCORE.INTER.CONST>
1

>  <SCORE.INTER.POLAR>
0

>  <SCORE.INTER.ROT>
6

>  <SCORE.INTER.SOLV>
18.4007

>  <SCORE.INTER.VDW>
-17.9098

>  <SCORE.INTER.norm>
-0.202075

>  <SCORE.INTRA>
-3.31545

>  <SCORE.INTRA.DIHEDRAL>
-6.42156

>  <SCORE.INTRA.DIHEDRAL.0>
10.8172

>  <SCORE.INTRA.POLAR>
0

>  <SCORE.INTRA.POLAR.0>
0

>  <SCORE.INTRA.REPUL>
0

>  <SCORE.INTRA.REPUL.0>
0

>  <SCORE.INTRA.SOLV>
-3.42478

>  <SCORE.INTRA.SOLV.lig_0>
-80.3833

>  <SCORE.INTRA.VDW>
1.60772

>  <SCORE.INTRA.VDW.0>
-4.63762

>  <SCORE.INTRA.norm>
-0.10695

>  <SCORE.RESTR>
0

>  <SCORE.RESTR.CAVITY>
0

>  <SCORE.RESTR.norm>
0

>  <SCORE.SYSTEM>
0

>  <SCORE.SYSTEM.CONST>
0

>  <SCORE.SYSTEM.DIHEDRAL>
0

>  <SCORE.SYSTEM.SOLV>
0

>  <SCORE.SYSTEM.norm>
0

>  <SCORE.heavy>
31

>  <SCORE.norm>
-0.309025

>  <RMSD>
1.744

$$$$
ligand
 OpenBabel11021811473D
libRbt.so/2013.1/901 2013/11/27
 31 33  0  0  0  0  0  0  0  0999 V2000
   14.8476    6.1117   16.3449 C   0  0  0  0  0  0  0  0  0  0  0  0
   18.7258   -0.3685   13.0769 N   0  0  0  0  0  0  0  0  0  0  0  0
   15.0067    6.7473   15.0723 O   0  0  0  0  0  0  0  0  0  0  0  0
   14.7439    4.5947   16.1676 C   0  0  1  0  0  0  0  0  0  0  0  0
   22.2111    2.7781   14.4390 N   0  0  0  0  0  0  0  0  0  0  0  0
   15.9672    4.0749   15.6110 O   0  0  0  0  0  0  0  0  0  0  0  0
   16.4562    3.0320   16.4730 C   0  0  1  0  0  0  0  0  0  0  0  0
   24.9874    4.1659   16.9287 N   0  0  0  0  0  0  0  0  0  0  0  0
   17.8916    2.9865   16.4909 O   0  0  0  0  0  0  0  0  0  0  0  0
   18.4805    2.8034   15.1949 C   0  0  2  0  0  0  0  0  0  0  0  0
   19.2868    7.1720   15.7981 N   0  0  0  0  0  0  0  0  0  0  0  0
   16.8656    1.1021   14.6117 O   0  0  0  0  0  0  0  0  0  0  0  0
   18.2636    1.3382   14.7992 C   0  0  1  0  0  0  0  0  0  0  0  0
   20.1916    4.5706   15.3684 O   0  0  0  0  0  0  0  0  0  0  0  0
   19.0078    1.0108   13.5031 C   0  0  1  0  0  0  0  0  0  0  0  0
   21.3417    4.5309   17.4212 O   0  0  0  0  0  0  0  0  0  0  0  0
   20.5090    1.1940   13.7275 C   0  0  0  0  0  0  0  0  0  0  0  0
   24.0980    6.6109   16.1750 O   0  0  0  0  0  0  0  0  0  0  0  0
   20.7884    2.6564   14.0863 C   0  0  1  0  0  0  0  0  0  0  0  0
   21.8788    8.4385   16.1700 O   0  0  0  0  0  0  0  0  0  0  0  0
   19.9632    3.1533   15.2795 C   0  0  2  0  0  0  0  0  0  0  0  0
   15.9465    2.3888   18.7934 O   0  0  0  0  0  0  0  0  0  0  0  0
   20.2253    5.0921   16.7062 C   0  0  1  0  0  0  0  0  0  0  0  0
   13.7005    2.7715   17.4494 O   0  0  0  0  0  0  0  0  0  0  0  0
   22.6223    4.8157   16.8328 C   0  0  2  0  0  0  0  0  0  0  0  0
   23.7184    4.1569   17.6737 C   0  0  0  0  0  0  0  0  0  0  0  0
   22.8524    6.3280   16.8181 C   0  0  2  0  0  0  0  0  0  0  0  0
   21.7207    7.0203   16.0558 C   0  0  1  0  0  0  0  0  0  0  0  0
   20.3619    6.6167   16.6343 C   0  0  1  0  0  0  0  0  0  0  0  0
   15.9712    3.4664   17.8545 C   0  0  2  0  0  0  0  0  0  0  0  0
   14.5509    3.9182   17.5278 C   0  0  1  0  0  0  0  0  0  0  0  0
  1  3  1  0  0  0  0
  4  1  1  1  0  0  0
  4  6  1  0  0  0  0
  4 31  1  0  0  0  0
  6  7  1  0  0  0  0
  7  9  1  1  0  0  0
  7 30  1  0  0  0  0
  8 26  1  0  0  0  0
 10  9  1  1  0  0  0
 10 13  1  0  0  0  0
 10 21  1  0  0  0  0
 13 12  1  6  0  0  0
 13 15  1  0  0  0  0
 15  2  1  1  0  0  0
 15 17  1  0  0  0  0
 16 25  1  0  0  0  0
 16 23  1  0  0  0  0
 17 19  1  0  0  0  0
 19  5  1  1  0  0  0
 19 21  1  0  0  0  0
 21 14  1  6  0  0  0
 23 14  1  6  0  0  0
 23 29  1  0  0  0  0
 25 26  1  1  0  0  0
 25 27  1  0  0  0  0
 27 18  1  6  0  0  0
 27 28  1  0  0  0  0
 28 20  1  1  0  0  0
 28 29  1  0  0  0  0
 29 11  1  6  0  0  0
 30 22  1  1  0  0  0
 30 31  1  0  0  0  0
 31 24  1  6  0  0  0
M  END
>  <CHROM.1>
63.26855261,-57.40052769,-74.46889741,64.14606856,89.78896300,166.80645910
19.10092232,4.06008924,15.98536350,2.88113555,-0.10979719,-2.74798135

>  <Name>
ligand

>  <RI>
0

>  <Rbt.Current_Directory>
/home/itssahil/PROJECTS/Mol_Feturizer/New_Systems/rnas/3DVV

>  <Rbt.Executable>
rbdock ($Id: //depot/dev/client3/rdock/2013.1/src/exe/rbdock.cxx#4 $)

>  <Rbt.Library>
libRbt.so (2013.1, Build901 2013/11/27)

>  <Rbt.Parameter_File>
/export/apps/rDock/src/rDock_2013.1_src/data/scripts/dock_solv.prm

>  <Rbt.Receptor>
prm/pocket_docking_4.prm

>  <SCORE>
-9.80599

>  <SCORE.INTER>
-8.53351

>  <SCORE.INTER.CONST>
1

>  <SCORE.INTER.POLAR>
0

>  <SCORE.INTER.ROT>
6

>  <SCORE.INTER.SOLV>
19.2652

>  <SCORE.INTER.VDW>
-19.7107

>  <SCORE.INTER.norm>
-0.275274

>  <SCORE.INTRA>
-1.27249

>  <SCORE.INTRA.DIHEDRAL>
-5.33438

>  <SCORE.INTRA.DIHEDRAL.0>
10.8172

>  <SCORE.INTRA.POLAR>
0

>  <SCORE.INTRA.POLAR.0>
0

>  <SCORE.INTRA.REPUL>
0

>  <SCORE.INTRA.REPUL.0>
0

>  <SCORE.INTRA.SOLV>
-1.41296

>  <SCORE.INTRA.SOLV.lig_0>
-80.3833

>  <SCORE.INTRA.VDW>
2.10118

>  <SCORE.INTRA.VDW.0>
-4.63762

>  <SCORE.INTRA.norm>
-0.0410479

>  <SCORE.RESTR>
0

>  <SCORE.RESTR.CAVITY>
0

>  <SCORE.RESTR.norm>
0

>  <SCORE.SYSTEM>
0

>  <SCORE.SYSTEM.CONST>
0

>  <SCORE.SYSTEM.DIHEDRAL>
0

>  <SCORE.SYSTEM.SOLV>
0

>  <SCORE.SYSTEM.norm>
0

>  <SCORE.heavy>
31

>  <SCORE.norm>
-0.316322

>  <RMSD>
1.758

$$$$
ligand
 OpenBabel11021811473D
libRbt.so/2013.1/901 2013/11/27
 31 33  0  0  0  0  0  0  0  0999 V2000
   18.0346    9.0819   18.1045 C   0  0  0  0  0  0  0  0  0  0  0  0
   17.0505    1.2941   15.1321 N   0  0  0  0  0  0  0  0  0  0  0  0
   17.5302   10.0995   18.9757 O   0  0  0  0  0  0  0  0  0  0  0  0
   17.1921    7.8106   18.2350 C   0  0  1  0  0  0  0  0  0  0  0  0
   21.6630    2.6826   14.2952 N   0  0  0  0  0  0  0  0  0  0  0  0
   17.7184    6.7761   17.3810 O   0  0  0  0  0  0  0  0  0  0  0  0
   17.9708    5.6065   18.1798 C   0  0  1  0  0  0  0  0  0  0  0  0
   25.5425    3.4617   17.1115 N   0  0  0  0  0  0  0  0  0  0  0  0
   19.1066    4.8699   17.6999 O   0  0  0  0  0  0  0  0  0  0  0  0
   18.9506    4.3735   16.3623 C   0  0  2  0  0  0  0  0  0  0  0  0
   21.2884    7.9787   15.0666 N   0  0  0  0  0  0  0  0  0  0  0  0
   16.7448    3.5144   16.8512 O   0  0  0  0  0  0  0  0  0  0  0  0
   18.0590    3.1287   16.4396 C   0  0  1  0  0  0  0  0  0  0  0  0
   21.0789    5.2263   15.4545 O   0  0  0  0  0  0  0  0  0  0  0  0
   17.9770    2.4351   15.0783 C   0  0  1  0  0  0  0  0  0  0  0  0
   22.3525    5.3128   17.4315 O   0  0  0  0  0  0  0  0  0  0  0  0
   19.3725    1.9592   14.6738 C   0  0  0  0  0  0  0  0  0  0  0  0
   25.5323    5.6828   15.6348 O   0  0  0  0  0  0  0  0  0  0  0  0
   20.2980    3.1722   14.5406 C   0  0  1  0  0  0  0  0  0  0  0  0
   24.1915    8.1594   15.0571 O   0  0  0  0  0  0  0  0  0  0  0  0
   20.3307    4.0473   15.7995 C   0  0  2  0  0  0  0  0  0  0  0  0
   18.1731    5.2357   20.6046 O   0  0  0  0  0  0  0  0  0  0  0  0
   21.4606    6.0451   16.5710 C   0  0  1  0  0  0  0  0  0  0  0  0
   16.0255    6.6923   20.0909 O   0  0  0  0  0  0  0  0  0  0  0  0
   23.5692    4.8868   16.7948 C   0  0  2  0  0  0  0  0  0  0  0  0
   24.4195    4.1127   17.8049 C   0  0  0  0  0  0  0  0  0  0  0  0
   24.3546    6.1119   16.3233 C   0  0  2  0  0  0  0  0  0  0  0  0
   23.4933    6.9515   15.3777 C   0  0  1  0  0  0  0  0  0  0  0  0
   22.1585    7.3020   16.0406 C   0  0  1  0  0  0  0  0  0  0  0  0
   18.3179    6.1883   19.5486 C   0  0  2  0  0  0  0  0  0  0  0  0
   17.2591    7.2801   19.6700 C   0  0  1  0  0  0  0  0  0  0  0  0
  1  3  1  0  0  0  0
  4  1  1  1  0  0  0
  4  6  1  0  0  0  0
  4 31  1  0  0  0  0
  6  7  1  0  0  0  0
  7  9  1  6  0  0  0
  7 30  1  0  0  0  0
  8 26  1  0  0  0  0
 10  9  1  1  0  0  0
 10 13  1  0  0  0  0
 10 21  1  0  0  0  0
 13 12  1  6  0  0  0
 13 15  1  0  0  0  0
 15  2  1  1  0  0  0
 15 17  1  0  0  0  0
 16 25  1  0  0  0  0
 16 23  1  0  0  0  0
 17 19  1  0  0  0  0
 19  5  1  1  0  0  0
 19 21  1  0  0  0  0
 21 14  1  6  0  0  0
 23 14  1  6  0  0  0
 23 29  1  0  0  0  0
 25 26  1  1  0  0  0
 25 27  1  0  0  0  0
 27 18  1  6  0  0  0
 27 28  1  0  0  0  0
 28 20  1  1  0  0  0
 28 29  1  0  0  0  0
 29 11  1  6  0  0  0
 30 22  1  1  0  0  0
 30 31  1  0  0  0  0
 31 24  1  6  0  0  0
M  END
>  <CHROM.1>
-178.67847949,-61.59494219,-78.11978129,63.55902690,66.88924567,169.64694781
20.21948438,5.43732246,16.88174585,-2.84026874,-0.27707877,-2.67630687

>  <Name>
ligand

>  <RI>
0

>  <Rbt.Current_Directory>
/home/itssahil/PROJECTS/Mol_Feturizer/New_Systems/rnas/3DVV

>  <Rbt.Executable>
rbdock ($Id: //depot/dev/client3/rdock/2013.1/src/exe/rbdock.cxx#4 $)

>  <Rbt.Library>
libRbt.so (2013.1, Build901 2013/11/27)

>  <Rbt.Parameter_File>
/export/apps/rDock/src/rDock_2013.1_src/data/scripts/dock_solv.prm

>  <Rbt.Receptor>
prm/pocket_docking_3.prm

>  <SCORE>
-13.7519

>  <SCORE.INTER>
-10.3086

>  <SCORE.INTER.CONST>
1

>  <SCORE.INTER.POLAR>
0

>  <SCORE.INTER.ROT>
6

>  <SCORE.INTER.SOLV>
21.1963

>  <SCORE.INTER.VDW>
-21.5378

>  <SCORE.INTER.norm>
-0.332536

>  <SCORE.INTRA>
-3.44792

>  <SCORE.INTRA.DIHEDRAL>
-8.35834

>  <SCORE.INTRA.DIHEDRAL.0>
10.8172

>  <SCORE.INTRA.POLAR>
0

>  <SCORE.INTRA.POLAR.0>
0

>  <SCORE.INTRA.REPUL>
0

>  <SCORE.INTRA.REPUL.0>
0

>  <SCORE.INTRA.SOLV>
-3.2524

>  <SCORE.INTRA.SOLV.lig_0>
-80.3833

>  <SCORE.INTRA.VDW>
2.35745

>  <SCORE.INTRA.VDW.0>
-4.63762

>  <SCORE.INTRA.norm>
-0.111223

>  <SCORE.RESTR>
0.00459435

>  <SCORE.RESTR.CAVITY>
0.00459435

>  <SCORE.RESTR.norm>
0.000148205

>  <SCORE.SYSTEM>
0

>  <SCORE.SYSTEM.CONST>
0

>  <SCORE.SYSTEM.DIHEDRAL>
0

>  <SCORE.SYSTEM.SOLV>
0

>  <SCORE.SYSTEM.norm>
0

>  <SCORE.heavy>
31

>  <SCORE.norm>
-0.443611

>  <RMSD>
1.764

$$$$
ligand
 OpenBabel11021811473D
libRbt.so/2013.1/901 2013/11/27
 31 33  0  0  0  0  0  0  0  0999 V2000
   15.8391    4.0406   19.9003 C   0  0  0  0  0  0  0  0  0  0  0  0
   18.5555   -0.2604   13.2219 N   0  0  0  0  0  0  0  0  0  0  0  0
   15.7349    2.6821   19.4617 O   0  0  0  0  0  0  0  0  0  0  0  0
   16.5356    4.8878   18.8323 C   0  0  1  0  0  0  0  0  0  0  0  0
   22.5266    2.5050   13.9189 N   0  0  0  0  0  0  0  0  0  0  0  0
   17.8427    4.3521   18.5479 O   0  0  0  0  0  0  0  0  0  0  0  0
   17.9424    4.1134   17.1327 C   0  0  1  0  0  0  0  0  0  0  0  0
   24.6090    2.9866   17.4293 N   0  0  0  0  0  0  0  0  0  0  0  0
   18.7656    2.9728   16.8426 O   0  0  0  0  0  0  0  0  0  0  0  0
   19.0531    2.8074   15.4462 C   0  0  2  0  0  0  0  0  0  0  0  0
   19.7281    6.8994   15.7127 N   0  0  0  0  0  0  0  0  0  0  0  0
   17.2002    1.2815   15.1621 O   0  0  0  0  0  0  0  0  0  0  0  0
   18.6225    1.3882   15.0577 C   0  0  1  0  0  0  0  0  0  0  0  0
   20.9208    4.4120   15.3119 O   0  0  0  0  0  0  0  0  0  0  0  0
   19.0477    1.0661   13.6237 C   0  0  1  0  0  0  0  0  0  0  0  0
   22.0943    4.5413   17.3476 O   0  0  0  0  0  0  0  0  0  0  0  0
   20.5732    1.1097   13.5317 C   0  0  0  0  0  0  0  0  0  0  0  0
   24.5764    6.9018   16.0269 O   0  0  0  0  0  0  0  0  0  0  0  0
   21.0567    2.5227   13.8709 C   0  0  1  0  0  0  0  0  0  0  0  0
   22.1616    8.4618   16.0253 O   0  0  0  0  0  0  0  0  0  0  0  0
   20.5472    3.0256   15.2271 C   0  0  2  0  0  0  0  0  0  0  0  0
   16.2725    3.9452   15.3323 O   0  0  0  0  0  0  0  0  0  0  0  0
   20.9116    4.9577   16.6404 C   0  0  1  0  0  0  0  0  0  0  0  0
   15.7889    6.0823   16.8145 O   0  0  0  0  0  0  0  0  0  0  0  0
   23.3259    4.9609   16.7357 C   0  0  2  0  0  0  0  0  0  0  0  0
   24.5013    4.4475   17.5707 C   0  0  0  0  0  0  0  0  0  0  0  0
   23.3801    6.4891   16.6930 C   0  0  2  0  0  0  0  0  0  0  0  0
   22.1664    7.0330   15.9365 C   0  0  1  0  0  0  0  0  0  0  0  0
   20.8708    6.4863   16.5417 C   0  0  1  0  0  0  0  0  0  0  0  0
   16.5055    3.7838   16.7335 C   0  0  2  0  0  0  0  0  0  0  0  0
   15.7413    4.8417   17.5239 C   0  0  1  0  0  0  0  0  0  0  0  0
  1  3  1  0  0  0  0
  4  1  1  1  0  0  0
  4  6  1  0  0  0  0
  4 31  1  0  0  0  0
  6  7  1  0  0  0  0
  7  9  1  1  0  0  0
  7 30  1  0  0  0  0
  8 26  1  0  0  0  0
 10  9  1  1  0  0  0
 10 13  1  0  0  0  0
 10 21  1  0  0  0  0
 13 12  1  6  0  0  0
 13 15  1  0  0  0  0
 15  2  1  1  0  0  0
 15 17  1  0  0  0  0
 16 25  1  0  0  0  0
 16 23  1  0  0  0  0
 17 19  1  0  0  0  0
 19  5  1  1  0  0  0
 19 21  1  0  0  0  0
 21 14  1  6  0  0  0
 23 14  1  6  0  0  0
 23 29  1  0  0  0  0
 25 26  1  1  0  0  0
 25 27  1  0  0  0  0
 27 18  1  6  0  0  0
 27 28  1  0  0  0  0
 28 20  1  1  0  0  0
 28 29  1  0  0  0  0
 29 11  1  6  0  0  0
 30 22  1  6  0  0  0
 30 31  1  0  0  0  0
 31 24  1  6  0  0  0
M  END
>  <CHROM.1>
-58.07288107,-171.51897279,-125.35342568,77.93398649,72.96423909,70.53613841
19.76054997,4.07494297,16.28610379,2.95552878,-0.27976801,-2.53680419

>  <Name>
ligand

>  <RI>
0

>  <Rbt.Current_Directory>
/home/itssahil/PROJECTS/Mol_Feturizer/New_Systems/rnas/3DVV

>  <Rbt.Executable>
rbdock ($Id: //depot/dev/client3/rdock/2013.1/src/exe/rbdock.cxx#4 $)

>  <Rbt.Library>
libRbt.so (2013.1, Build901 2013/11/27)

>  <Rbt.Parameter_File>
/export/apps/rDock/src/rDock_2013.1_src/data/scripts/dock_solv.prm

>  <Rbt.Receptor>
prm/pocket_docking_4.prm

>  <SCORE>
-7.43152

>  <SCORE.INTER>
-7.17755

>  <SCORE.INTER.CONST>
1

>  <SCORE.INTER.POLAR>
0

>  <SCORE.INTER.ROT>
6

>  <SCORE.INTER.SOLV>
24.2912

>  <SCORE.INTER.VDW>
-20.4821

>  <SCORE.INTER.norm>
-0.231534

>  <SCORE.INTRA>
-0.253967

>  <SCORE.INTRA.DIHEDRAL>
-0.497506

>  <SCORE.INTRA.DIHEDRAL.0>
10.8172

>  <SCORE.INTRA.POLAR>
0

>  <SCORE.INTRA.POLAR.0>
0

>  <SCORE.INTRA.REPUL>
0

>  <SCORE.INTRA.REPUL.0>
0

>  <SCORE.INTRA.SOLV>
-1.82038

>  <SCORE.INTRA.SOLV.lig_0>
-80.3833

>  <SCORE.INTRA.VDW>
0.904975

>  <SCORE.INTRA.VDW.0>
-4.63762

>  <SCORE.INTRA.norm>
-0.00819247

>  <SCORE.RESTR>
0

>  <SCORE.RESTR.CAVITY>
0

>  <SCORE.RESTR.norm>
0

>  <SCORE.SYSTEM>
0

>  <SCORE.SYSTEM.CONST>
0

>  <SCORE.SYSTEM.DIHEDRAL>
0

>  <SCORE.SYSTEM.SOLV>
0

>  <SCORE.SYSTEM.norm>
0

>  <SCORE.heavy>
31

>  <SCORE.norm>
-0.239726

>  <RMSD>
1.765

$$$$
ligand
 OpenBabel11021811473D
libRbt.so/2013.1/901 2013/11/27
 31 33  0  0  0  0  0  0  0  0999 V2000
   14.4474    5.8369   16.1395 C   0  0  0  0  0  0  0  0  0  0  0  0
   18.7703   -0.3796   13.1810 N   0  0  0  0  0  0  0  0  0  0  0  0
   15.4920    6.3354   16.9817 O   0  0  0  0  0  0  0  0  0  0  0  0
   14.5142    4.3094   16.0642 C   0  0  1  0  0  0  0  0  0  0  0  0
   22.1566    2.9226   14.4190 N   0  0  0  0  0  0  0  0  0  0  0  0
   15.7847    3.8938   15.5262 O   0  0  0  0  0  0  0  0  0  0  0  0
   16.3935    2.9723   16.4482 C   0  0  1  0  0  0  0  0  0  0  0  0
   23.9604    3.6166   17.2289 N   0  0  0  0  0  0  0  0  0  0  0  0
   17.8251    3.0893   16.4492 O   0  0  0  0  0  0  0  0  0  0  0  0
   18.4240    2.8695   15.1636 C   0  0  2  0  0  0  0  0  0  0  0  0
   18.7139    7.0814   15.7041 N   0  0  0  0  0  0  0  0  0  0  0  0
   16.8619    1.0984   14.6480 O   0  0  0  0  0  0  0  0  0  0  0  0
   18.2517    1.3833   14.8290 C   0  0  1  0  0  0  0  0  0  0  0  0
   20.0818    4.6921   15.2672 O   0  0  0  0  0  0  0  0  0  0  0  0
   19.0101    1.0240   13.5497 C   0  0  1  0  0  0  0  0  0  0  0  0
   21.3753    4.9671   17.2139 O   0  0  0  0  0  0  0  0  0  0  0  0
   20.5044    1.2606   13.7701 C   0  0  0  0  0  0  0  0  0  0  0  0
   23.5549    7.4921   15.6809 O   0  0  0  0  0  0  0  0  0  0  0  0
   20.7395    2.7444   14.0680 C   0  0  1  0  0  0  0  0  0  0  0  0
   21.0229    8.8466   15.8182 O   0  0  0  0  0  0  0  0  0  0  0  0
   19.8954    3.2662   15.2372 C   0  0  2  0  0  0  0  0  0  0  0  0
   15.9744    2.4332   18.8128 O   0  0  0  0  0  0  0  0  0  0  0  0
   20.1166    5.2670   16.5829 C   0  0  1  0  0  0  0  0  0  0  0  0
   13.6910    2.4709   17.4777 O   0  0  0  0  0  0  0  0  0  0  0  0
   22.5230    5.4721   16.5103 C   0  0  2  0  0  0  0  0  0  0  0  0
   23.7912    5.0779   17.2711 C   0  0  0  0  0  0  0  0  0  0  0  0
   22.4454    6.9981   16.4359 C   0  0  2  0  0  0  0  0  0  0  0  0
   21.1419    7.4215   15.7556 C   0  0  1  0  0  0  0  0  0  0  0  0
   19.9408    6.7843   16.4592 C   0  0  1  0  0  0  0  0  0  0  0  0
   15.8715    3.4414   17.8046 C   0  0  2  0  0  0  0  0  0  0  0  0
   14.4073    3.7084   17.4685 C   0  0  1  0  0  0  0  0  0  0  0  0
  1  3  1  0  0  0  0
  4  1  1  1  0  0  0
  4  6  1  0  0  0  0
  4 31  1  0  0  0  0
  6  7  1  0  0  0  0
  7  9  1  1  0  0  0
  7 30  1  0  0  0  0
  8 26  1  0  0  0  0
 10  9  1  1  0  0  0
 10 13  1  0  0  0  0
 10 21  1  0  0  0  0
 13 12  1  6  0  0  0
 13 15  1  0  0  0  0
 15  2  1  1  0  0  0
 15 17  1  0  0  0  0
 16 25  1  0  0  0  0
 16 23  1  0  0  0  0
 17 19  1  0  0  0  0
 19  5  1  1  0  0  0
 19 21  1  0  0  0  0
 21 14  1  6  0  0  0
 23 14  1  6  0  0  0
 23 29  1  0  0  0  0
 25 26  1  1  0  0  0
 25 27  1  0  0  0  0
 27 18  1  6  0  0  0
 27 28  1  0  0  0  0
 28 20  1  1  0  0  0
 28 29  1  0  0  0  0
 29 11  1  6  0  0  0
 30 22  1  1  0  0  0
 30 31  1  0  0  0  0
 31 24  1  6  0  0  0
M  END
>  <CHROM.1>
-59.88927181,-58.16724605,-69.17416547,74.63545561,90.74023444,66.59781205
18.92568551,4.16020706,15.95646682,2.79796260,-0.19099218,-2.77350041

>  <Name>
ligand

>  <RI>
0

>  <Rbt.Current_Directory>
/home/itssahil/PROJECTS/Mol_Feturizer/New_Systems/rnas/3DVV

>  <Rbt.Executable>
rbdock ($Id: //depot/dev/client3/rdock/2013.1/src/exe/rbdock.cxx#4 $)

>  <Rbt.Library>
libRbt.so (2013.1, Build901 2013/11/27)

>  <Rbt.Parameter_File>
/export/apps/rDock/src/rDock_2013.1_src/data/scripts/dock_solv.prm

>  <Rbt.Receptor>
prm/pocket_docking_5.prm

>  <SCORE>
-8.56235

>  <SCORE.INTER>
-7.80515

>  <SCORE.INTER.CONST>
1

>  <SCORE.INTER.POLAR>
0

>  <SCORE.INTER.ROT>
6

>  <SCORE.INTER.SOLV>
20.7085

>  <SCORE.INTER.VDW>
-19.7063

>  <SCORE.INTER.norm>
-0.251779

>  <SCORE.INTRA>
-0.757199

>  <SCORE.INTRA.DIHEDRAL>
-5.31746

>  <SCORE.INTRA.DIHEDRAL.0>
10.8172

>  <SCORE.INTRA.POLAR>
0

>  <SCORE.INTRA.POLAR.0>
0

>  <SCORE.INTRA.REPUL>
0.00368989

>  <SCORE.INTRA.REPUL.0>
0

>  <SCORE.INTRA.SOLV>
-0.565256

>  <SCORE.INTRA.SOLV.lig_0>
-80.3833

>  <SCORE.INTRA.VDW>
2.16571

>  <SCORE.INTRA.VDW.0>
-4.63762

>  <SCORE.INTRA.norm>
-0.0244258

>  <SCORE.RESTR>
0

>  <SCORE.RESTR.CAVITY>
0

>  <SCORE.RESTR.norm>
0

>  <SCORE.SYSTEM>
0

>  <SCORE.SYSTEM.CONST>
0

>  <SCORE.SYSTEM.DIHEDRAL>
0

>  <SCORE.SYSTEM.SOLV>
0

>  <SCORE.SYSTEM.norm>
0

>  <SCORE.heavy>
31

>  <SCORE.norm>
-0.276205

>  <RMSD>
1.800

$$$$
ligand
 OpenBabel11021811473D
libRbt.so/2013.1/901 2013/11/27
 31 33  0  0  0  0  0  0  0  0999 V2000
   15.6290    3.4570   19.9157 C   0  0  0  0  0  0  0  0  0  0  0  0
   18.4917   -0.3125   13.1371 N   0  0  0  0  0  0  0  0  0  0  0  0
   16.3225    3.4182   21.1673 O   0  0  0  0  0  0  0  0  0  0  0  0
   16.3315    4.4176   18.9529 C   0  0  1  0  0  0  0  0  0  0  0  0
   22.4053    2.5243   13.8713 N   0  0  0  0  0  0  0  0  0  0  0  0
   17.6671    3.9536   18.6748 O   0  0  0  0  0  0  0  0  0  0  0  0
   17.8265    3.8434   17.2492 C   0  0  1  0  0  0  0  0  0  0  0  0
   24.5892    2.7959   17.2190 N   0  0  0  0  0  0  0  0  0  0  0  0
   18.7016    2.7612   16.8942 O   0  0  0  0  0  0  0  0  0  0  0  0
   18.9611    2.6657   15.4858 C   0  0  2  0  0  0  0  0  0  0  0  0
   19.6184    6.7906   15.9572 N   0  0  0  0  0  0  0  0  0  0  0  0
   17.1420    1.1049   15.1738 O   0  0  0  0  0  0  0  0  0  0  0  0
   18.5584    1.2542   15.0433 C   0  0  1  0  0  0  0  0  0  0  0  0
   20.7834    4.3240   15.3832 O   0  0  0  0  0  0  0  0  0  0  0  0
   18.9587    1.0075   13.5874 C   0  0  1  0  0  0  0  0  0  0  0  0
   22.0347    4.3450   17.3762 O   0  0  0  0  0  0  0  0  0  0  0  0
   20.4800    1.0959   13.4643 C   0  0  0  0  0  0  0  0  0  0  0  0
   24.4752    6.7638   16.0842 O   0  0  0  0  0  0  0  0  0  0  0  0
   20.9347    2.5049   13.8561 C   0  0  1  0  0  0  0  0  0  0  0  0
   22.0694    8.3282   16.2558 O   0  0  0  0  0  0  0  0  0  0  0  0
   20.4436    2.9332   15.2443 C   0  0  2  0  0  0  0  0  0  0  0  0
   16.2301    3.7770   15.3770 O   0  0  0  0  0  0  0  0  0  0  0  0
   20.8276    4.8004   16.7374 C   0  0  1  0  0  0  0  0  0  0  0  0
   15.6141    5.7583   17.0181 O   0  0  0  0  0  0  0  0  0  0  0  0
   23.2438    4.7922   16.7397 C   0  0  2  0  0  0  0  0  0  0  0  0
   24.4479    4.2333   17.5014 C   0  0  0  0  0  0  0  0  0  0  0  0
   23.3034    6.3205   16.7737 C   0  0  2  0  0  0  0  0  0  0  0  0
   22.0642    6.9060   16.0935 C   0  0  1  0  0  0  0  0  0  0  0  0
   20.7902    6.3322   16.7192 C   0  0  1  0  0  0  0  0  0  0  0  0
   16.4182    3.5014   16.7671 C   0  0  2  0  0  0  0  0  0  0  0  0
   15.5872    4.4595   17.6153 C   0  0  1  0  0  0  0  0  0  0  0  0
  1  3  1  0  0  0  0
  4  1  1  1  0  0  0
  4  6  1  0  0  0  0
  4 31  1  0  0  0  0
  6  7  1  0  0  0  0
  7  9  1  1  0  0  0
  7 30  1  0  0  0  0
  8 26  1  0  0  0  0
 10  9  1  1  0  0  0
 10 13  1  0  0  0  0
 10 21  1  0  0  0  0
 13 12  1  6  0  0  0
 13 15  1  0  0  0  0
 15  2  1  1  0  0  0
 15 17  1  0  0  0  0
 16 25  1  0  0  0  0
 16 23  1  0  0  0  0
 17 19  1  0  0  0  0
 19  5  1  1  0  0  0
 19 21  1  0  0  0  0
 21 14  1  6  0  0  0
 23 14  1  6  0  0  0
 23 29  1  0  0  0  0
 25 26  1  1  0  0  0
 25 27  1  0  0  0  0
 27 18  1  6  0  0  0
 27 28  1  0  0  0  0
 28 20  1  1  0  0  0
 28 29  1  0  0  0  0
 29 11  1  6  0  0  0
 30 22  1  6  0  0  0
 30 31  1  0  0  0  0
 31 24  1  6  0  0  0
M  END
>  <CHROM.1>
62.43750036,-176.14840148,-123.73580850,75.96183307,74.64570682,73.77688155
19.68454297,3.92099813,16.39681397,3.04052394,-0.32276314,-2.43259965

>  <Name>
ligand

>  <RI>
0

>  <Rbt.Current_Directory>
/home/itssahil/PROJECTS/Mol_Feturizer/New_Systems/rnas/3DVV

>  <Rbt.Executable>
rbdock ($Id: //depot/dev/client3/rdock/2013.1/src/exe/rbdock.cxx#4 $)

>  <Rbt.Library>
libRbt.so (2013.1, Build901 2013/11/27)

>  <Rbt.Parameter_File>
/export/apps/rDock/src/rDock_2013.1_src/data/scripts/dock_solv.prm

>  <Rbt.Receptor>
prm/pocket_docking_3.prm

>  <SCORE>
-7.51327

>  <SCORE.INTER>
-7.16819

>  <SCORE.INTER.CONST>
1

>  <SCORE.INTER.POLAR>
0

>  <SCORE.INTER.ROT>
6

>  <SCORE.INTER.SOLV>
24.2214

>  <SCORE.INTER.VDW>
-20.4526

>  <SCORE.INTER.norm>
-0.231232

>  <SCORE.INTRA>
-0.349411

>  <SCORE.INTRA.DIHEDRAL>
-0.499041

>  <SCORE.INTRA.DIHEDRAL.0>
10.8172

>  <SCORE.INTRA.POLAR>
0

>  <SCORE.INTRA.POLAR.0>
0

>  <SCORE.INTRA.REPUL>
0

>  <SCORE.INTRA.REPUL.0>
0

>  <SCORE.INTRA.SOLV>
-2.2856

>  <SCORE.INTRA.SOLV.lig_0>
-80.3833

>  <SCORE.INTRA.VDW>
1.04291

>  <SCORE.INTRA.VDW.0>
-4.63762

>  <SCORE.INTRA.norm>
-0.0112713

>  <SCORE.RESTR>
0.00433915

>  <SCORE.RESTR.CAVITY>
0.00433915

>  <SCORE.RESTR.norm>
0.000139972

>  <SCORE.SYSTEM>
0

>  <SCORE.SYSTEM.CONST>
0

>  <SCORE.SYSTEM.DIHEDRAL>
0

>  <SCORE.SYSTEM.SOLV>
0

>  <SCORE.SYSTEM.norm>
0

>  <SCORE.heavy>
31

>  <SCORE.norm>
-0.242363

>  <RMSD>
1.801

$$$$
ligand
 OpenBabel11021811473D
libRbt.so/2013.1/901 2013/11/27
 31 33  0  0  0  0  0  0  0  0999 V2000
   15.8024    3.7523   20.0280 C   0  0  0  0  0  0  0  0  0  0  0  0
   18.4038   -0.2219   13.1578 N   0  0  0  0  0  0  0  0  0  0  0  0
   15.6525    2.4333   19.4927 O   0  0  0  0  0  0  0  0  0  0  0  0
   16.5048    4.6571   19.0124 C   0  0  1  0  0  0  0  0  0  0  0  0
   22.4071    2.4908   13.8779 N   0  0  0  0  0  0  0  0  0  0  0  0
   17.8079    4.1300   18.6955 O   0  0  0  0  0  0  0  0  0  0  0  0
   17.9055    3.9761   17.2684 C   0  0  1  0  0  0  0  0  0  0  0  0
   24.6263    2.7884   17.2492 N   0  0  0  0  0  0  0  0  0  0  0  0
   18.7204    2.8491   16.9097 O   0  0  0  0  0  0  0  0  0  0  0  0
   18.9732    2.7434   15.5008 C   0  0  2  0  0  0  0  0  0  0  0  0
   19.6995    6.8187   15.9616 N   0  0  0  0  0  0  0  0  0  0  0  0
   17.1048    1.2405   15.1957 O   0  0  0  0  0  0  0  0  0  0  0  0
   18.5249    1.3447   15.0615 C   0  0  1  0  0  0  0  0  0  0  0  0
   20.8467    4.3430   15.3912 O   0  0  0  0  0  0  0  0  0  0  0  0
   18.9134    1.0834   13.6049 C   0  0  1  0  0  0  0  0  0  0  0  0
   22.1041    4.3615   17.3803 O   0  0  0  0  0  0  0  0  0  0  0  0
   20.4365    1.1234   13.4779 C   0  0  0  0  0  0  0  0  0  0  0  0
   24.5563    6.7609   16.0741 O   0  0  0  0  0  0  0  0  0  0  0  0
   20.9365    2.5179   13.8664 C   0  0  1  0  0  0  0  0  0  0  0  0
   22.1612    8.3413   16.2485 O   0  0  0  0  0  0  0  0  0  0  0  0
   20.4628    2.9636   15.2552 C   0  0  2  0  0  0  0  0  0  0  0  0
   16.2341    3.9286   15.4623 O   0  0  0  0  0  0  0  0  0  0  0  0
   20.8981    4.8230   16.7439 C   0  0  1  0  0  0  0  0  0  0  0  0
   15.7663    5.9761   17.0706 O   0  0  0  0  0  0  0  0  0  0  0  0
   23.3142    4.7992   16.7389 C   0  0  2  0  0  0  0  0  0  0  0  0
   24.5170    4.2346   17.4986 C   0  0  0  0  0  0  0  0  0  0  0  0
   23.3837    6.3271   16.7684 C   0  0  2  0  0  0  0  0  0  0  0  0
   22.1463    6.9187   16.0902 C   0  0  1  0  0  0  0  0  0  0  0  0
   20.8705    6.3549   16.7214 C   0  0  1  0  0  0  0  0  0  0  0  0
   16.4662    3.6815   16.8510 C   0  0  2  0  0  0  0  0  0  0  0  0
   15.7099    4.6955   17.7041 C   0  0  1  0  0  0  0  0  0  0  0  0
  1  3  1  0  0  0  0
  4  1  1  1  0  0  0
  4  6  1  0  0  0  0
  4 31  1  0  0  0  0
  6  7  1  0  0  0  0
  7  9  1  1  0  0  0
  7 30  1  0  0  0  0
  8 26  1  0  0  0  0
 10  9  1  1  0  0  0
 10 13  1  0  0  0  0
 10 21  1  0  0  0  0
 13 12  1  6  0  0  0
 13 15  1  0  0  0  0
 15  2  1  1  0  0  0
 15 17  1  0  0  0  0
 16 25  1  0  0  0  0
 16 23  1  0  0  0  0
 17 19  1  0  0  0  0
 19  5  1  1  0  0  0
 19 21  1  0  0  0  0
 21 14  1  6  0  0  0
 23 14  1  6  0  0  0
 23 29  1  0  0  0  0
 25 26  1  1  0  0  0
 25 27  1  0  0  0  0
 27 18  1  6  0  0  0
 27 28  1  0  0  0  0
 28 20  1  1  0  0  0
 28 29  1  0  0  0  0
 29 11  1  6  0  0  0
 30 22  1  6  0  0  0
 30 31  1  0  0  0  0
 31 24  1  6  0  0  0
M  END
>  <CHROM.1>
-59.79041775,-173.27823139,-125.05166637,77.54503843,74.12629965,72.23764302
19.71127974,3.96154442,16.35832197,2.97955383,-0.29342382,-2.49624007

>  <Name>
ligand

>  <RI>
0

>  <Rbt.Current_Directory>
/home/itssahil/PROJECTS/Mol_Feturizer/New_Systems/rnas/3DVV

>  <Rbt.Executable>
rbdock ($Id: //depot/dev/client3/rdock/2013.1/src/exe/rbdock.cxx#4 $)

>  <Rbt.Library>
libRbt.so (2013.1, Build901 2013/11/27)

>  <Rbt.Parameter_File>
/export/apps/rDock/src/rDock_2013.1_src/data/scripts/dock_solv.prm

>  <Rbt.Receptor>
prm/pocket_docking_3.prm

>  <SCORE>
-7.44321

>  <SCORE.INTER>
-7.32314

>  <SCORE.INTER.CONST>
1

>  <SCORE.INTER.POLAR>
0

>  <SCORE.INTER.ROT>
6

>  <SCORE.INTER.SOLV>
24.6139

>  <SCORE.INTER.VDW>
-20.6867

>  <SCORE.INTER.norm>
-0.23623

>  <SCORE.INTRA>
-0.120065

>  <SCORE.INTRA.DIHEDRAL>
-0.407187

>  <SCORE.INTRA.DIHEDRAL.0>
10.8172

>  <SCORE.INTRA.POLAR>
0

>  <SCORE.INTRA.POLAR.0>
0

>  <SCORE.INTRA.REPUL>
0

>  <SCORE.INTRA.REPUL.0>
0

>  <SCORE.INTRA.SOLV>
-1.70212

>  <SCORE.INTRA.SOLV.lig_0>
-80.3833

>  <SCORE.INTRA.VDW>
0.934591

>  <SCORE.INTRA.VDW.0>
-4.63762

>  <SCORE.INTRA.norm>
-0.00387307

>  <SCORE.RESTR>
0

>  <SCORE.RESTR.CAVITY>
0

>  <SCORE.RESTR.norm>
0

>  <SCORE.SYSTEM>
0

>  <SCORE.SYSTEM.CONST>
0

>  <SCORE.SYSTEM.DIHEDRAL>
0

>  <SCORE.SYSTEM.SOLV>
0

>  <SCORE.SYSTEM.norm>
0

>  <SCORE.heavy>
31

>  <SCORE.norm>
-0.240103

>  <RMSD>
1.805

$$$$
ligand
 OpenBabel11021811473D
libRbt.so/2013.1/901 2013/11/27
 31 33  0  0  0  0  0  0  0  0999 V2000
   16.0446    3.7491   20.0647 C   0  0  0  0  0  0  0  0  0  0  0  0
   18.4138   -0.2315   13.1036 N   0  0  0  0  0  0  0  0  0  0  0  0
   15.8177    2.4577   19.4904 O   0  0  0  0  0  0  0  0  0  0  0  0
   16.7940    4.6430   19.0734 C   0  0  1  0  0  0  0  0  0  0  0  0
   22.4763    2.4098   13.7542 N   0  0  0  0  0  0  0  0  0  0  0  0
   18.0601    4.0484   18.7273 O   0  0  0  0  0  0  0  0  0  0  0  0
   18.1381    3.9371   17.2951 C   0  0  1  0  0  0  0  0  0  0  0  0
   24.6868    2.6843   17.3345 N   0  0  0  0  0  0  0  0  0  0  0  0
   18.8798    2.7751   16.8918 O   0  0  0  0  0  0  0  0  0  0  0  0
   19.0923    2.6879   15.4750 C   0  0  2  0  0  0  0  0  0  0  0  0
   19.8403    6.7490   15.8549 N   0  0  0  0  0  0  0  0  0  0  0  0
   17.1936    1.2178   15.1986 O   0  0  0  0  0  0  0  0  0  0  0  0
   18.6109    1.3030   15.0269 C   0  0  1  0  0  0  0  0  0  0  0  0
   20.9864    4.2610   15.3382 O   0  0  0  0  0  0  0  0  0  0  0  0
   18.9554    1.0589   13.5563 C   0  0  1  0  0  0  0  0  0  0  0  0
   22.1685    4.2777   17.3730 O   0  0  0  0  0  0  0  0  0  0  0  0
   20.4749    1.0783   13.3880 C   0  0  0  0  0  0  0  0  0  0  0  0
   24.6888    6.6500   16.1495 O   0  0  0  0  0  0  0  0  0  0  0  0
   21.0066    2.4589   13.7838 C   0  0  1  0  0  0  0  0  0  0  0  0
   22.3027    8.2517   16.2275 O   0  0  0  0  0  0  0  0  0  0  0  0
   20.5779    2.8897   15.1917 C   0  0  2  0  0  0  0  0  0  0  0  0
   16.4543    4.0525   15.5036 O   0  0  0  0  0  0  0  0  0  0  0  0
   20.9913    4.7466   16.6898 C   0  0  1  0  0  0  0  0  0  0  0  0
   16.1241    6.0693   17.1832 O   0  0  0  0  0  0  0  0  0  0  0  0
   23.4056    4.7021   16.7755 C   0  0  2  0  0  0  0  0  0  0  0  0
   24.5741    4.1306   17.5820 C   0  0  0  0  0  0  0  0  0  0  0  0
   23.4873    6.2294   16.8012 C   0  0  2  0  0  0  0  0  0  0  0  0
   22.2813    6.8286   16.0747 C   0  0  1  0  0  0  0  0  0  0  0  0
   20.9779    6.2786   16.6600 C   0  0  1  0  0  0  0  0  0  0  0  0
   16.6805    3.7450   16.8812 C   0  0  2  0  0  0  0  0  0  0  0  0
   15.9938    4.7739   17.7743 C   0  0  1  0  0  0  0  0  0  0  0  0
  1  3  1  0  0  0  0
  4  1  1  1  0  0  0
  4  6  1  0  0  0  0
  4 31  1  0  0  0  0
  6  7  1  0  0  0  0
  7  9  1  1  0  0  0
  7 30  1  0  0  0  0
  8 26  1  0  0  0  0
 10  9  1  1  0  0  0
 10 13  1  0  0  0  0
 10 21  1  0  0  0  0
 13 12  1  6  0  0  0
 13 15  1  0  0  0  0
 15  2  1  1  0  0  0
 15 17  1  0  0  0  0
 16 25  1  0  0  0  0
 16 23  1  0  0  0  0
 17 19  1  0  0  0  0
 19  5  1  1  0  0  0
 19 21  1  0  0  0  0
 21 14  1  6  0  0  0
 23 14  1  6  0  0  0
 23 29  1  0  0  0  0
 25 26  1  1  0  0  0
 25 27  1  0  0  0  0
 27 18  1  6  0  0  0
 27 28  1  0  0  0  0
 28 20  1  1  0  0  0
 28 29  1  0  0  0  0
 29 11  1  6  0  0  0
 30 22  1  6  0  0  0
 30 31  1  0  0  0  0
 31 24  1  6  0  0  0
M  END
>  <CHROM.1>
-59.43576855,-174.47521332,-127.41358146,78.37039738,69.94514818,72.69129671
19.85213450,3.91944384,16.35504811,2.98255000,-0.29605670,-2.47004815

>  <Name>
ligand

>  <RI>
0

>  <Rbt.Current_Directory>
/home/itssahil/PROJECTS/Mol_Feturizer/New_Systems/rnas/3DVV

>  <Rbt.Executable>
rbdock ($Id: //depot/dev/client3/rdock/2013.1/src/exe/rbdock.cxx#4 $)

>  <Rbt.Library>
libRbt.so (2013.1, Build901 2013/11/27)

>  <Rbt.Parameter_File>
/export/apps/rDock/src/rDock_2013.1_src/data/scripts/dock_solv.prm

>  <Rbt.Receptor>
prm/pocket_docking_2.prm

>  <SCORE>
-7.64449

>  <SCORE.INTER>
-7.31378

>  <SCORE.INTER.CONST>
1

>  <SCORE.INTER.POLAR>
0

>  <SCORE.INTER.ROT>
6

>  <SCORE.INTER.SOLV>
25.5682

>  <SCORE.INTER.VDW>
-20.9986

>  <SCORE.INTER.norm>
-0.235929

>  <SCORE.INTRA>
-0.330707

>  <SCORE.INTRA.DIHEDRAL>
-0.903686

>  <SCORE.INTRA.DIHEDRAL.0>
10.8172

>  <SCORE.INTRA.POLAR>
0

>  <SCORE.INTRA.POLAR.0>
0

>  <SCORE.INTRA.REPUL>
0

>  <SCORE.INTRA.REPUL.0>
0

>  <SCORE.INTRA.SOLV>
-2.00817

>  <SCORE.INTRA.SOLV.lig_0>
-80.3833

>  <SCORE.INTRA.VDW>
1.12522

>  <SCORE.INTRA.VDW.0>
-4.63762

>  <SCORE.INTRA.norm>
-0.010668

>  <SCORE.RESTR>
0

>  <SCORE.RESTR.CAVITY>
0

>  <SCORE.RESTR.norm>
0

>  <SCORE.SYSTEM>
0

>  <SCORE.SYSTEM.CONST>
0

>  <SCORE.SYSTEM.DIHEDRAL>
0

>  <SCORE.SYSTEM.SOLV>
0

>  <SCORE.SYSTEM.norm>
0

>  <SCORE.heavy>
31

>  <SCORE.norm>
-0.246596

>  <RMSD>
1.813

$$$$
ligand
 OpenBabel11021811473D
libRbt.so/2013.1/901 2013/11/27
 31 33  0  0  0  0  0  0  0  0999 V2000
   15.8736    3.8765   20.0847 C   0  0  0  0  0  0  0  0  0  0  0  0
   18.3158   -0.2247   13.1232 N   0  0  0  0  0  0  0  0  0  0  0  0
   15.6641    2.5620   19.5584 O   0  0  0  0  0  0  0  0  0  0  0  0
   16.6161    4.7416   19.0632 C   0  0  1  0  0  0  0  0  0  0  0  0
   22.3339    2.4647   13.8484 N   0  0  0  0  0  0  0  0  0  0  0  0
   17.8744    4.1311   18.7164 O   0  0  0  0  0  0  0  0  0  0  0  0
   17.9343    3.9848   17.2865 C   0  0  1  0  0  0  0  0  0  0  0  0
   25.6044    3.8004   16.8349 N   0  0  0  0  0  0  0  0  0  0  0  0
   18.6643    2.8090   16.9025 O   0  0  0  0  0  0  0  0  0  0  0  0
   18.9094    2.7157   15.4914 C   0  0  2  0  0  0  0  0  0  0  0  0
   19.9061    6.8948   15.9378 N   0  0  0  0  0  0  0  0  0  0  0  0
   17.0334    1.2234   15.1816 O   0  0  0  0  0  0  0  0  0  0  0  0
   18.4531    1.3231   15.0410 C   0  0  1  0  0  0  0  0  0  0  0  0
   20.7890    4.3087   15.3873 O   0  0  0  0  0  0  0  0  0  0  0  0
   18.8332    1.0742   13.5800 C   0  0  1  0  0  0  0  0  0  0  0  0
   21.9751    4.1806   17.4158 O   0  0  0  0  0  0  0  0  0  0  0  0
   20.3557    1.1092   13.4456 C   0  0  0  0  0  0  0  0  0  0  0  0
   24.7201    6.2962   16.2054 O   0  0  0  0  0  0  0  0  0  0  0  0
   20.8635    2.4978   13.8448 C   0  0  1  0  0  0  0  0  0  0  0  0
   22.5112    8.1330   16.3139 O   0  0  0  0  0  0  0  0  0  0  0  0
   20.3987    2.9322   15.2402 C   0  0  2  0  0  0  0  0  0  0  0  0
   16.2296    4.0674   15.5131 O   0  0  0  0  0  0  0  0  0  0  0  0
   20.8493    4.7755   16.7442 C   0  0  1  0  0  0  0  0  0  0  0  0
   15.9317    6.1261   17.1473 O   0  0  0  0  0  0  0  0  0  0  0  0
   23.2466    4.4828   16.8165 C   0  0  2  0  0  0  0  0  0  0  0  0
   24.3538    3.7854   17.6104 C   0  0  0  0  0  0  0  0  0  0  0  0
   23.4846    5.9934   16.8587 C   0  0  2  0  0  0  0  0  0  0  0  0
   22.3434    6.7213   16.1454 C   0  0  1  0  0  0  0  0  0  0  0  0
   20.9929    6.3011   16.7315 C   0  0  1  0  0  0  0  0  0  0  0  0
   16.4708    3.7918   16.8949 C   0  0  2  0  0  0  0  0  0  0  0  0
   15.8010    4.8462   17.7711 C   0  0  1  0  0  0  0  0  0  0  0  0
  1  3  1  0  0  0  0
  4  1  1  1  0  0  0
  4  6  1  0  0  0  0
  4 31  1  0  0  0  0
  6  7  1  0  0  0  0
  7  9  1  1  0  0  0
  7 30  1  0  0  0  0
  8 26  1  0  0  0  0
 10  9  1  1  0  0  0
 10 13  1  0  0  0  0
 10 21  1  0  0  0  0
 13 12  1  6  0  0  0
 13 15  1  0  0  0  0
 15  2  1  1  0  0  0
 15 17  1  0  0  0  0
 16 25  1  0  0  0  0
 16 23  1  0  0  0  0
 17 19  1  0  0  0  0
 19  5  1  1  0  0  0
 19 21  1  0  0  0  0
 21 14  1  6  0  0  0
 23 14  1  6  0  0  0
 23 29  1  0  0  0  0
 25 26  1  1  0  0  0
 25 27  1  0  0  0  0
 27 18  1  6  0  0  0
 27 28  1  0  0  0  0
 28 20  1  1  0  0  0
 28 29  1  0  0  0  0
 29 11  1  6  0  0  0
 30 22  1  6  0  0  0
 30 31  1  0  0  0  0
 31 24  1  6  0  0  0
M  END
>  <CHROM.1>
-57.87765096,-171.91740738,-129.10711835,71.02050410,74.12735924,165.94761592
19.75978984,3.94446328,16.37149970,3.01786711,-0.27354420,-2.44856904

>  <Name>
ligand

>  <RI>
0

>  <Rbt.Current_Directory>
/home/itssahil/PROJECTS/Mol_Feturizer/New_Systems/rnas/3DVV

>  <Rbt.Executable>
rbdock ($Id: //depot/dev/client3/rdock/2013.1/src/exe/rbdock.cxx#4 $)

>  <Rbt.Library>
libRbt.so (2013.1, Build901 2013/11/27)

>  <Rbt.Parameter_File>
/export/apps/rDock/src/rDock_2013.1_src/data/scripts/dock_solv.prm

>  <Rbt.Receptor>
prm/pocket_docking_3.prm

>  <SCORE>
-8.18146

>  <SCORE.INTER>
-7.97537

>  <SCORE.INTER.CONST>
1

>  <SCORE.INTER.POLAR>
0

>  <SCORE.INTER.ROT>
6

>  <SCORE.INTER.SOLV>
20.9845

>  <SCORE.INTER.VDW>
-19.9118

>  <SCORE.INTER.norm>
-0.25727

>  <SCORE.INTRA>
-0.207318

>  <SCORE.INTRA.DIHEDRAL>
-1.25041

>  <SCORE.INTRA.DIHEDRAL.0>
10.8172

>  <SCORE.INTRA.POLAR>
0

>  <SCORE.INTRA.POLAR.0>
0

>  <SCORE.INTRA.REPUL>
0

>  <SCORE.INTRA.REPUL.0>
0

>  <SCORE.INTRA.SOLV>
-1.37166

>  <SCORE.INTRA.SOLV.lig_0>
-80.3833

>  <SCORE.INTRA.VDW>
1.10372

>  <SCORE.INTRA.VDW.0>
-4.63762

>  <SCORE.INTRA.norm>
-0.00668767

>  <SCORE.RESTR>
0.00123273

>  <SCORE.RESTR.CAVITY>
0.00123273

>  <SCORE.RESTR.norm>
3.97655e-05

>  <SCORE.SYSTEM>
0

>  <SCORE.SYSTEM.CONST>
0

>  <SCORE.SYSTEM.DIHEDRAL>
0

>  <SCORE.SYSTEM.SOLV>
0

>  <SCORE.SYSTEM.norm>
0

>  <SCORE.heavy>
31

>  <SCORE.norm>
-0.263918

>  <RMSD>
1.817

$$$$
ligand
 OpenBabel11021811473D
libRbt.so/2013.1/901 2013/11/27
 31 33  0  0  0  0  0  0  0  0999 V2000
   15.6281    3.4056   19.9109 C   0  0  0  0  0  0  0  0  0  0  0  0
   18.5081   -0.2901   13.1384 N   0  0  0  0  0  0  0  0  0  0  0  0
   14.2684    3.7807   20.1545 O   0  0  0  0  0  0  0  0  0  0  0  0
   16.2748    4.3790   18.9222 C   0  0  1  0  0  0  0  0  0  0  0  0
   22.4330    2.5284   13.8828 N   0  0  0  0  0  0  0  0  0  0  0  0
   17.6305    3.9771   18.6444 O   0  0  0  0  0  0  0  0  0  0  0  0
   17.7864    3.8435   17.2205 C   0  0  1  0  0  0  0  0  0  0  0  0
   24.5657    2.7675   17.2975 N   0  0  0  0  0  0  0  0  0  0  0  0
   18.7131    2.7994   16.8828 O   0  0  0  0  0  0  0  0  0  0  0  0
   18.9803    2.6961   15.4764 C   0  0  2  0  0  0  0  0  0  0  0  0
   19.6840    6.8408   15.8895 N   0  0  0  0  0  0  0  0  0  0  0  0
   17.1544    1.1439   15.1607 O   0  0  0  0  0  0  0  0  0  0  0  0
   18.5724    1.2848   15.0379 C   0  0  1  0  0  0  0  0  0  0  0  0
   20.8123    4.3438   15.3771 O   0  0  0  0  0  0  0  0  0  0  0  0
   18.9798    1.0294   13.5854 C   0  0  1  0  0  0  0  0  0  0  0  0
   21.9995    4.3584   17.4089 O   0  0  0  0  0  0  0  0  0  0  0  0
   20.5023    1.1088   13.4709 C   0  0  0  0  0  0  0  0  0  0  0  0
   24.5324    6.7104   16.1725 O   0  0  0  0  0  0  0  0  0  0  0  0
   20.9625    2.5170   13.8591 C   0  0  1  0  0  0  0  0  0  0  0  0
   22.1573    8.3282   16.2517 O   0  0  0  0  0  0  0  0  0  0  0  0
   20.4657    2.9544   15.2424 C   0  0  2  0  0  0  0  0  0  0  0  0
   16.1837    3.6549   15.3620 O   0  0  0  0  0  0  0  0  0  0  0  0
   20.8237    4.8332   16.7273 C   0  0  1  0  0  0  0  0  0  0  0  0
   15.4782    5.6383   16.9639 O   0  0  0  0  0  0  0  0  0  0  0  0
   23.2379    4.7729   16.8072 C   0  0  2  0  0  0  0  0  0  0  0  0
   24.4046    4.1959   17.6125 C   0  0  0  0  0  0  0  0  0  0  0  0
   23.3298    6.2997   16.8283 C   0  0  2  0  0  0  0  0  0  0  0  0
   22.1261    6.9048   16.1031 C   0  0  1  0  0  0  0  0  0  0  0  0
   20.8205    6.3652   16.6931 C   0  0  1  0  0  0  0  0  0  0  0  0
   16.3943    3.4200   16.7563 C   0  0  2  0  0  0  0  0  0  0  0  0
   15.5210    4.3534   17.5895 C   0  0  1  0  0  0  0  0  0  0  0  0
  1  3  1  0  0  0  0
  4  1  1  1  0  0  0
  4  6  1  0  0  0  0
  4 31  1  0  0  0  0
  6  7  1  0  0  0  0
  7  9  1  1  0  0  0
  7 30  1  0  0  0  0
  8 26  1  0  0  0  0
 10  9  1  1  0  0  0
 10 13  1  0  0  0  0
 10 21  1  0  0  0  0
 13 12  1  6  0  0  0
 13 15  1  0  0  0  0
 15  2  1  1  0  0  0
 15 17  1  0  0  0  0
 16 25  1  0  0  0  0
 16 23  1  0  0  0  0
 17 19  1  0  0  0  0
 19  5  1  1  0  0  0
 19 21  1  0  0  0  0
 21 14  1  6  0  0  0
 23 14  1  6  0  0  0
 23 29  1  0  0  0  0
 25 26  1  1  0  0  0
 25 27  1  0  0  0  0
 27 18  1  6  0  0  0
 27 28  1  0  0  0  0
 28 20  1  1  0  0  0
 28 29  1  0  0  0  0
 29 11  1  6  0  0  0
 30 22  1  6  0  0  0
 30 31  1  0  0  0  0
 31 24  1  6  0  0  0
M  END
>  <CHROM.1>
-178.19458692,-175.46019884,-120.61780629,75.09924426,73.39575383,76.59299571
19.61069061,3.92490517,16.36340291,3.05133642,-0.29106177,-2.47535524

>  <Name>
ligand

>  <RI>
0

>  <Rbt.Current_Directory>
/home/itssahil/PROJECTS/Mol_Feturizer/New_Systems/rnas/3DVV

>  <Rbt.Executable>
rbdock ($Id: //depot/dev/client3/rdock/2013.1/src/exe/rbdock.cxx#4 $)

>  <Rbt.Library>
libRbt.so (2013.1, Build901 2013/11/27)

>  <Rbt.Parameter_File>
/export/apps/rDock/src/rDock_2013.1_src/data/scripts/dock_solv.prm

>  <Rbt.Receptor>
prm/pocket_docking_4.prm

>  <SCORE>
-7.14815

>  <SCORE.INTER>
-7.19587

>  <SCORE.INTER.CONST>
1

>  <SCORE.INTER.POLAR>
0

>  <SCORE.INTER.ROT>
6

>  <SCORE.INTER.SOLV>
24.3977

>  <SCORE.INTER.VDW>
-20.5298

>  <SCORE.INTER.norm>
-0.232125

>  <SCORE.INTRA>
0.0461788

>  <SCORE.INTRA.DIHEDRAL>
-0.409184

>  <SCORE.INTRA.DIHEDRAL.0>
10.8172

>  <SCORE.INTRA.POLAR>
0

>  <SCORE.INTRA.POLAR.0>
0

>  <SCORE.INTRA.REPUL>
0

>  <SCORE.INTRA.REPUL.0>
0

>  <SCORE.INTRA.SOLV>
-2.37081

>  <SCORE.INTRA.SOLV.lig_0>
-80.3833

>  <SCORE.INTRA.VDW>
1.43618

>  <SCORE.INTRA.VDW.0>
-4.63762

>  <SCORE.INTRA.norm>
0.00148964

>  <SCORE.RESTR>
0.00153979

>  <SCORE.RESTR.CAVITY>
0.00153979

>  <SCORE.RESTR.norm>
4.96707e-05

>  <SCORE.SYSTEM>
0

>  <SCORE.SYSTEM.CONST>
0

>  <SCORE.SYSTEM.DIHEDRAL>
0

>  <SCORE.SYSTEM.SOLV>
0

>  <SCORE.SYSTEM.norm>
0

>  <SCORE.heavy>
31

>  <SCORE.norm>
-0.230585

>  <RMSD>
1.858

$$$$
ligand
 OpenBabel11021811473D
libRbt.so/2013.1/901 2013/11/27
 31 33  0  0  0  0  0  0  0  0999 V2000
   17.0667    7.1795   20.2739 C   0  0  0  0  0  0  0  0  0  0  0  0
   16.2360    0.8498   14.6141 N   0  0  0  0  0  0  0  0  0  0  0  0
   18.4729    7.1248   20.0124 O   0  0  0  0  0  0  0  0  0  0  0  0
   16.4354    5.8023   20.0549 C   0  0  1  0  0  0  0  0  0  0  0  0
   19.8734    3.8501   13.3212 N   0  0  0  0  0  0  0  0  0  0  0  0
   16.7612    5.3100   18.7403 O   0  0  0  0  0  0  0  0  0  0  0  0
   17.3649    4.0110   18.8739 C   0  0  1  0  0  0  0  0  0  0  0  0
   24.0004    5.5822   17.3726 N   0  0  0  0  0  0  0  0  0  0  0  0
   18.3556    3.7784   17.8603 O   0  0  0  0  0  0  0  0  0  0  0  0
   17.8239    3.7523   16.5274 C   0  0  2  0  0  0  0  0  0  0  0  0
   18.5941    8.0364   16.5169 N   0  0  0  0  0  0  0  0  0  0  0  0
   16.1540    2.1149   17.1382 O   0  0  0  0  0  0  0  0  0  0  0  0
   17.2776    2.3409   16.2827 C   0  0  1  0  0  0  0  0  0  0  0  0
   19.2726    5.5036   15.5707 O   0  0  0  0  0  0  0  0  0  0  0  0
   16.8427    2.1729   14.8255 C   0  0  1  0  0  0  0  0  0  0  0  0
   21.2063    5.4182   16.9094 O   0  0  0  0  0  0  0  0  0  0  0  0
   18.0602    2.3431   13.9166 C   0  0  0  0  0  0  0  0  0  0  0  0
   23.0947    7.6817   14.7216 O   0  0  0  0  0  0  0  0  0  0  0  0
   18.6234    3.7567   14.0906 C   0  0  1  0  0  0  0  0  0  0  0  0
   21.0604    9.4024   15.8012 O   0  0  0  0  0  0  0  0  0  0  0  0
   18.9414    4.1041   15.5500 C   0  0  2  0  0  0  0  0  0  0  0  0
   18.3596    2.8045   20.7747 O   0  0  0  0  0  0  0  0  0  0  0  0
   19.8782    5.9608   16.7902 C   0  0  1  0  0  0  0  0  0  0  0  0
   16.0301    3.8392   21.4823 O   0  0  0  0  0  0  0  0  0  0  0  0
   22.0936    5.7902   15.8410 C   0  0  2  0  0  0  0  0  0  0  0  0
   23.4605    5.1431   16.0759 C   0  0  0  0  0  0  0  0  0  0  0  0
   22.2627    7.3105   15.8239 C   0  0  2  0  0  0  0  0  0  0  0  0
   20.8975    7.9856   15.6772 C   0  0  1  0  0  0  0  0  0  0  0  0
   19.9381    7.4918   16.7633 C   0  0  1  0  0  0  0  0  0  0  0  0
   18.0700    4.0925   20.2262 C   0  0  2  0  0  0  0  0  0  0  0  0
   17.0042    4.7970   21.0603 C   0  0  1  0  0  0  0  0  0  0  0  0
  1  3  1  0  0  0  0
  4  1  1  1  0  0  0
  4  6  1  0  0  0  0
  4 31  1  0  0  0  0
  6  7  1  0  0  0  0
  7  9  1  6  0  0  0
  7 30  1  0  0  0  0
  8 26  1  0  0  0  0
 10  9  1  1  0  0  0
 10 13  1  0  0  0  0
 10 21  1  0  0  0  0
 13 12  1  1  0  0  0
 13 15  1  0  0  0  0
 15  2  1  1  0  0  0
 15 17  1  0  0  0  0
 16 25  1  0  0  0  0
 16 23  1  0  0  0  0
 17 19  1  0  0  0  0
 19  5  1  6  0  0  0
 19 21  1  0  0  0  0
 21 14  1  6  0  0  0
 23 14  1  6  0  0  0
 23 29  1  0  0  0  0
 25 26  1  1  0  0  0
 25 27  1  0  0  0  0
 27 18  1  6  0  0  0
 27 28  1  0  0  0  0
 28 20  1  1  0  0  0
 28 29  1  0  0  0  0
 29 11  1  6  0  0  0
 30 22  1  1  0  0  0
 30 31  1  0  0  0  0
 31 24  1  6  0  0  0
M  END
>  <CHROM.1>
-53.78610103,-63.88086556,-83.18457931,69.76989166,67.37657562,-58.74954243
19.01649680,5.02539194,17.11906217,-2.99639545,-0.72848623,-2.15668236

>  <Name>
ligand

>  <RI>
0

>  <Rbt.Current_Directory>
/home/itssahil/PROJECTS/Mol_Feturizer/New_Systems/rnas/3DVV

>  <Rbt.Executable>
rbdock ($Id: //depot/dev/client3/rdock/2013.1/src/exe/rbdock.cxx#4 $)

>  <Rbt.Library>
libRbt.so (2013.1, Build901 2013/11/27)

>  <Rbt.Parameter_File>
/export/apps/rDock/src/rDock_2013.1_src/data/scripts/dock_solv.prm

>  <Rbt.Receptor>
prm/pocket_docking_4.prm

>  <SCORE>
-6.67905

>  <SCORE.INTER>
-3.80742

>  <SCORE.INTER.CONST>
1

>  <SCORE.INTER.POLAR>
0

>  <SCORE.INTER.ROT>
6

>  <SCORE.INTER.SOLV>
22.845

>  <SCORE.INTER.VDW>
-17.7533

>  <SCORE.INTER.norm>
-0.12282

>  <SCORE.INTRA>
-2.87163

>  <SCORE.INTRA.DIHEDRAL>
-7.26458

>  <SCORE.INTRA.DIHEDRAL.0>
10.8172

>  <SCORE.INTRA.POLAR>
0

>  <SCORE.INTRA.POLAR.0>
0

>  <SCORE.INTRA.REPUL>
0

>  <SCORE.INTRA.REPUL.0>
0

>  <SCORE.INTRA.SOLV>
-1.10576

>  <SCORE.INTRA.SOLV.lig_0>
-80.3833

>  <SCORE.INTRA.VDW>
1.31354

>  <SCORE.INTRA.VDW.0>
-4.63762

>  <SCORE.INTRA.norm>
-0.0926333

>  <SCORE.RESTR>
0

>  <SCORE.RESTR.CAVITY>
0

>  <SCORE.RESTR.norm>
0

>  <SCORE.SYSTEM>
0

>  <SCORE.SYSTEM.CONST>
0

>  <SCORE.SYSTEM.DIHEDRAL>
0

>  <SCORE.SYSTEM.SOLV>
0

>  <SCORE.SYSTEM.norm>
0

>  <SCORE.heavy>
31

>  <SCORE.norm>
-0.215453

>  <RMSD>
1.859

$$$$
ligand
 OpenBabel11021811473D
libRbt.so/2013.1/901 2013/11/27
 31 33  0  0  0  0  0  0  0  0999 V2000
   15.6382    3.3080   19.9535 C   0  0  0  0  0  0  0  0  0  0  0  0
   18.4924   -0.3122   13.0607 N   0  0  0  0  0  0  0  0  0  0  0  0
   14.3169    3.7287   20.3084 O   0  0  0  0  0  0  0  0  0  0  0  0
   16.2481    4.2819   18.9422 C   0  0  1  0  0  0  0  0  0  0  0  0
   22.3875    2.5318   13.8631 N   0  0  0  0  0  0  0  0  0  0  0  0
   17.6017    3.8952   18.6343 O   0  0  0  0  0  0  0  0  0  0  0  0
   17.7245    3.7527   17.2080 C   0  0  1  0  0  0  0  0  0  0  0  0
   24.5504    2.7731   17.1984 N   0  0  0  0  0  0  0  0  0  0  0  0
   18.6561    2.7178   16.8554 O   0  0  0  0  0  0  0  0  0  0  0  0
   18.9285    2.6400   15.4484 C   0  0  2  0  0  0  0  0  0  0  0  0
   19.5630    6.7528   16.0072 N   0  0  0  0  0  0  0  0  0  0  0  0
   17.1188    1.0756   15.1017 O   0  0  0  0  0  0  0  0  0  0  0  0
   18.5356    1.2322   14.9857 C   0  0  1  0  0  0  0  0  0  0  0  0
   20.7446    4.3068   15.3816 O   0  0  0  0  0  0  0  0  0  0  0  0
   18.9499    1.0044   13.5306 C   0  0  1  0  0  0  0  0  0  0  0  0
   22.0159    4.3073   17.3620 O   0  0  0  0  0  0  0  0  0  0  0  0
   20.4719    1.1003   13.4222 C   0  0  0  0  0  0  0  0  0  0  0  0
   24.4208    6.7694   16.0850 O   0  0  0  0  0  0  0  0  0  0  0  0
   20.9172    2.5065   13.8346 C   0  0  1  0  0  0  0  0  0  0  0  0
   22.0026    8.3083   16.3062 O   0  0  0  0  0  0  0  0  0  0  0  0
   20.4120    2.9164   15.2232 C   0  0  2  0  0  0  0  0  0  0  0  0
   16.0796    3.5296   15.3907 O   0  0  0  0  0  0  0  0  0  0  0  0
   20.7982    4.7617   16.7428 C   0  0  1  0  0  0  0  0  0  0  0  0
   15.3879    5.5161   16.9947 O   0  0  0  0  0  0  0  0  0  0  0  0
   23.2143    4.7760   16.7208 C   0  0  2  0  0  0  0  0  0  0  0  0
   24.4312    4.2161   17.4611 C   0  0  0  0  0  0  0  0  0  0  0  0
   23.2602    6.3040   16.7789 C   0  0  2  0  0  0  0  0  0  0  0  0
   22.0088    6.8889   16.1208 C   0  0  1  0  0  0  0  0  0  0  0  0
   20.7466    6.2931   16.7499 C   0  0  1  0  0  0  0  0  0  0  0  0
   16.3271    3.3081   16.7811 C   0  0  2  0  0  0  0  0  0  0  0  0
   15.4625    4.2366   17.6286 C   0  0  1  0  0  0  0  0  0  0  0  0
  1  3  1  0  0  0  0
  4  1  1  1  0  0  0
  4  6  1  0  0  0  0
  4 31  1  0  0  0  0
  6  7  1  0  0  0  0
  7  9  1  1  0  0  0
  7 30  1  0  0  0  0
  8 26  1  0  0  0  0
 10  9  1  1  0  0  0
 10 13  1  0  0  0  0
 10 21  1  0  0  0  0
 13 12  1  6  0  0  0
 13 15  1  0  0  0  0
 15  2  1  1  0  0  0
 15 17  1  0  0  0  0
 16 25  1  0  0  0  0
 16 23  1  0  0  0  0
 17 19  1  0  0  0  0
 19  5  1  1  0  0  0
 19 21  1  0  0  0  0
 21 14  1  6  0  0  0
 23 14  1  6  0  0  0
 23 29  1  0  0  0  0
 25 26  1  1  0  0  0
 25 27  1  0  0  0  0
 27 18  1  6  0  0  0
 27 28  1  0  0  0  0
 28 20  1  1  0  0  0
 28 29  1  0  0  0  0
 29 11  1  6  0  0  0
 30 22  1  6  0  0  0
 30 31  1  0  0  0  0
 31 24  1  6  0  0  0
M  END
>  <CHROM.1>
177.20969024,-173.25244544,-120.98127358,76.15703257,75.70641680,71.45082146
19.56142815,3.87566078,16.35286099,3.05768252,-0.30506555,-2.46249226

>  <Name>
ligand

>  <RI>
0

>  <Rbt.Current_Directory>
/home/itssahil/PROJECTS/Mol_Feturizer/New_Systems/rnas/3DVV

>  <Rbt.Executable>
rbdock ($Id: //depot/dev/client3/rdock/2013.1/src/exe/rbdock.cxx#4 $)

>  <Rbt.Library>
libRbt.so (2013.1, Build901 2013/11/27)

>  <Rbt.Parameter_File>
/export/apps/rDock/src/rDock_2013.1_src/data/scripts/dock_solv.prm

>  <Rbt.Receptor>
prm/pocket_docking_3.prm

>  <SCORE>
-7.28653

>  <SCORE.INTER>
-7.31367

>  <SCORE.INTER.CONST>
1

>  <SCORE.INTER.POLAR>
0

>  <SCORE.INTER.ROT>
6

>  <SCORE.INTER.SOLV>
23.9367

>  <SCORE.INTER.VDW>
-20.4547

>  <SCORE.INTER.norm>
-0.235925

>  <SCORE.INTRA>
0.0210539

>  <SCORE.INTRA.DIHEDRAL>
-0.320994

>  <SCORE.INTRA.DIHEDRAL.0>
10.8172

>  <SCORE.INTRA.POLAR>
0

>  <SCORE.INTRA.POLAR.0>
0

>  <SCORE.INTRA.REPUL>
0

>  <SCORE.INTRA.REPUL.0>
0

>  <SCORE.INTRA.SOLV>
-2.12716

>  <SCORE.INTRA.SOLV.lig_0>
-80.3833

>  <SCORE.INTRA.VDW>
1.24513

>  <SCORE.INTRA.VDW.0>
-4.63762

>  <SCORE.INTRA.norm>
0.000679159

>  <SCORE.RESTR>
0.00609229

>  <SCORE.RESTR.CAVITY>
0.00609229

>  <SCORE.RESTR.norm>
0.000196525

>  <SCORE.SYSTEM>
0

>  <SCORE.SYSTEM.CONST>
0

>  <SCORE.SYSTEM.DIHEDRAL>
0

>  <SCORE.SYSTEM.SOLV>
0

>  <SCORE.SYSTEM.norm>
0

>  <SCORE.heavy>
31

>  <SCORE.norm>
-0.235049

>  <RMSD>
1.874

$$$$
ligand
 OpenBabel11021811473D
libRbt.so/2013.1/901 2013/11/27
 31 33  0  0  0  0  0  0  0  0999 V2000
   14.6868    6.0342   16.0908 C   0  0  0  0  0  0  0  0  0  0  0  0
   18.7105   -0.3948   13.0974 N   0  0  0  0  0  0  0  0  0  0  0  0
   13.4183    6.5339   16.5270 O   0  0  0  0  0  0  0  0  0  0  0  0
   14.6487    4.5067   15.9987 C   0  0  1  0  0  0  0  0  0  0  0  0
   22.1976    2.7737   14.4027 N   0  0  0  0  0  0  0  0  0  0  0  0
   15.8944    4.0097   15.4719 O   0  0  0  0  0  0  0  0  0  0  0  0
   16.4257    3.0385   16.3907 C   0  0  1  0  0  0  0  0  0  0  0  0
   24.8637    4.3396   17.2120 N   0  0  0  0  0  0  0  0  0  0  0  0
   17.8618    3.0559   16.4110 O   0  0  0  0  0  0  0  0  0  0  0  0
   18.4609    2.8349   15.1256 C   0  0  2  0  0  0  0  0  0  0  0  0
   19.2448    7.2127   15.5288 N   0  0  0  0  0  0  0  0  0  0  0  0
   16.8436    1.1248   14.5753 O   0  0  0  0  0  0  0  0  0  0  0  0
   18.2410    1.3603   14.7683 C   0  0  1  0  0  0  0  0  0  0  0  0
   20.1780    4.5992   15.2654 O   0  0  0  0  0  0  0  0  0  0  0  0
   18.9947    0.9944   13.4881 C   0  0  1  0  0  0  0  0  0  0  0  0
   21.1778    4.6413   17.3953 O   0  0  0  0  0  0  0  0  0  0  0  0
   20.4947    1.1776   13.7202 C   0  0  0  0  0  0  0  0  0  0  0  0
   24.0165    6.6794   16.2711 O   0  0  0  0  0  0  0  0  0  0  0  0
   20.7774    2.6482   14.0413 C   0  0  1  0  0  0  0  0  0  0  0  0
   21.8035    8.4995   16.0367 O   0  0  0  0  0  0  0  0  0  0  0  0
   19.9442    3.1809   15.2133 C   0  0  2  0  0  0  0  0  0  0  0  0
   15.9389    2.5046   18.7436 O   0  0  0  0  0  0  0  0  0  0  0  0
   20.1156    5.1717   16.5811 C   0  0  1  0  0  0  0  0  0  0  0  0
   13.6815    2.7147   17.3805 O   0  0  0  0  0  0  0  0  0  0  0  0
   22.4973    4.9068   16.8898 C   0  0  2  0  0  0  0  0  0  0  0  0
   23.5302    4.2836   17.8318 C   0  0  0  0  0  0  0  0  0  0  0  0
   22.7279    6.4180   16.8336 C   0  0  2  0  0  0  0  0  0  0  0  0
   21.6540    7.0776   15.9660 C   0  0  1  0  0  0  0  0  0  0  0  0
   20.2572    6.6927   16.4607 C   0  0  1  0  0  0  0  0  0  0  0  0
   15.9194    3.5282   17.7459 C   0  0  2  0  0  0  0  0  0  0  0  0
   14.4818    3.8996   17.3946 C   0  0  1  0  0  0  0  0  0  0  0  0
  1  3  1  0  0  0  0
  4  1  1  1  0  0  0
  4  6  1  0  0  0  0
  4 31  1  0  0  0  0
  6  7  1  0  0  0  0
  7  9  1  1  0  0  0
  7 30  1  0  0  0  0
  8 26  1  0  0  0  0
 10  9  1  1  0  0  0
 10 13  1  0  0  0  0
 10 21  1  0  0  0  0
 13 12  1  6  0  0  0
 13 15  1  0  0  0  0
 15  2  1  1  0  0  0
 15 17  1  0  0  0  0
 16 25  1  0  0  0  0
 16 23  1  0  0  0  0
 17 19  1  0  0  0  0
 19  5  1  1  0  0  0
 19 21  1  0  0  0  0
 21 14  1  6  0  0  0
 23 14  1  6  0  0  0
 23 29  1  0  0  0  0
 25 26  1  1  0  0  0
 25 27  1  0  0  0  0
 27 18  1  6  0  0  0
 27 28  1  0  0  0  0
 28 20  1  1  0  0  0
 28 29  1  0  0  0  0
 29 11  1  6  0  0  0
 30 22  1  1  0  0  0
 30 31  1  0  0  0  0
 31 24  1  6  0  0  0
M  END
>  <CHROM.1>
176.04723636,-57.01079303,-71.45831621,64.69231805,85.89966580,170.12149549
18.98231982,4.08427859,15.98462800,2.90891524,-0.11419878,-2.72774691

>  <Name>
ligand

>  <RI>
0

>  <Rbt.Current_Directory>
/home/itssahil/PROJECTS/Mol_Feturizer/New_Systems/rnas/3DVV

>  <Rbt.Executable>
rbdock ($Id: //depot/dev/client3/rdock/2013.1/src/exe/rbdock.cxx#4 $)

>  <Rbt.Library>
libRbt.so (2013.1, Build901 2013/11/27)

>  <Rbt.Parameter_File>
/export/apps/rDock/src/rDock_2013.1_src/data/scripts/dock_solv.prm

>  <Rbt.Receptor>
prm/pocket_docking_5.prm

>  <SCORE>
-9.7206

>  <SCORE.INTER>
-8.13181

>  <SCORE.INTER.CONST>
1

>  <SCORE.INTER.POLAR>
0

>  <SCORE.INTER.ROT>
6

>  <SCORE.INTER.SOLV>
20.1309

>  <SCORE.INTER.VDW>
-19.7315

>  <SCORE.INTER.norm>
-0.262316

>  <SCORE.INTRA>
-1.58879

>  <SCORE.INTRA.DIHEDRAL>
-6.61105

>  <SCORE.INTRA.DIHEDRAL.0>
10.8172

>  <SCORE.INTRA.POLAR>
0

>  <SCORE.INTRA.POLAR.0>
0

>  <SCORE.INTRA.REPUL>
0

>  <SCORE.INTRA.REPUL.0>
0

>  <SCORE.INTRA.SOLV>
-1.8102

>  <SCORE.INTRA.SOLV.lig_0>
-80.3833

>  <SCORE.INTRA.VDW>
2.62184

>  <SCORE.INTRA.VDW.0>
-4.63762

>  <SCORE.INTRA.norm>
-0.0512513

>  <SCORE.RESTR>
0

>  <SCORE.RESTR.CAVITY>
0

>  <SCORE.RESTR.norm>
0

>  <SCORE.SYSTEM>
0

>  <SCORE.SYSTEM.CONST>
0

>  <SCORE.SYSTEM.DIHEDRAL>
0

>  <SCORE.SYSTEM.SOLV>
0

>  <SCORE.SYSTEM.norm>
0

>  <SCORE.heavy>
31

>  <SCORE.norm>
-0.313568

>  <RMSD>
1.897

$$$$
ligand
 OpenBabel11021811473D
libRbt.so/2013.1/901 2013/11/27
 31 33  0  0  0  0  0  0  0  0999 V2000
   14.4095    5.8328   16.5837 C   0  0  0  0  0  0  0  0  0  0  0  0
   18.0805   -0.3266   13.0318 N   0  0  0  0  0  0  0  0  0  0  0  0
   13.1979    6.3409   17.1517 O   0  0  0  0  0  0  0  0  0  0  0  0
   14.3568    4.3048   16.5087 C   0  0  1  0  0  0  0  0  0  0  0  0
   21.7488    2.6325   14.3320 N   0  0  0  0  0  0  0  0  0  0  0  0
   15.5555    3.7962   15.8915 O   0  0  0  0  0  0  0  0  0  0  0  0
   16.1517    2.8300   16.7751 C   0  0  1  0  0  0  0  0  0  0  0  0
   24.0295    4.2737   18.3345 N   0  0  0  0  0  0  0  0  0  0  0  0
   17.5850    2.8395   16.6840 O   0  0  0  0  0  0  0  0  0  0  0  0
   18.0798    2.7179   15.3422 C   0  0  2  0  0  0  0  0  0  0  0  0
   19.0381    6.9467   16.3553 N   0  0  0  0  0  0  0  0  0  0  0  0
   16.3754    1.1012   14.7734 O   0  0  0  0  0  0  0  0  0  0  0  0
   17.7897    1.2859   14.8779 C   0  0  1  0  0  0  0  0  0  0  0  0
   19.8549    4.4224   15.5002 O   0  0  0  0  0  0  0  0  0  0  0  0
   18.4347    1.0160   13.5170 C   0  0  1  0  0  0  0  0  0  0  0  0
   21.4338    4.2415   17.2359 O   0  0  0  0  0  0  0  0  0  0  0  0
   19.9527    1.1429   13.6482 C   0  0  0  0  0  0  0  0  0  0  0  0
   23.8186    6.5082   15.6077 O   0  0  0  0  0  0  0  0  0  0  0  0
   20.3026    2.5726   14.0713 C   0  0  1  0  0  0  0  0  0  0  0  0
   21.6328    8.2579   16.2600 O   0  0  0  0  0  0  0  0  0  0  0  0
   19.5753    3.0200   15.3451 C   0  0  2  0  0  0  0  0  0  0  0  0
   15.8460    2.3193   19.1634 O   0  0  0  0  0  0  0  0  0  0  0  0
   20.1797    4.8268   16.8395 C   0  0  1  0  0  0  0  0  0  0  0  0
   13.4908    2.5303   17.9774 O   0  0  0  0  0  0  0  0  0  0  0  0
   22.5477    4.6168   16.4079 C   0  0  2  0  0  0  0  0  0  0  0  0
   23.8112    3.9227   16.9222 C   0  0  0  0  0  0  0  0  0  0  0  0
   22.7510    6.1312   16.4812 C   0  0  2  0  0  0  0  0  0  0  0  0
   21.4699    6.8507   16.0542 C   0  0  1  0  0  0  0  0  0  0  0  0
   20.2790    6.3555   16.8791 C   0  0  1  0  0  0  0  0  0  0  0  0
   15.7543    3.3343   18.1609 C   0  0  2  0  0  0  0  0  0  0  0  0
   14.2957    3.7107   17.9187 C   0  0  1  0  0  0  0  0  0  0  0  0
  1  3  1  0  0  0  0
  4  1  1  1  0  0  0
  4  6  1  0  0  0  0
  4 31  1  0  0  0  0
  6  7  1  0  0  0  0
  7  9  1  1  0  0  0
  7 30  1  0  0  0  0
  8 26  1  0  0  0  0
 10  9  1  1  0  0  0
 10 13  1  0  0  0  0
 10 21  1  0  0  0  0
 13 12  1  6  0  0  0
 13 15  1  0  0  0  0
 15  2  1  1  0  0  0
 15 17  1  0  0  0  0
 16 25  1  0  0  0  0
 16 23  1  0  0  0  0
 17 19  1  0  0  0  0
 19  5  1  1  0  0  0
 19 21  1  0  0  0  0
 21 14  1  6  0  0  0
 23 14  1  6  0  0  0
 23 29  1  0  0  0  0
 25 26  1  1  0  0  0
 25 27  1  0  0  0  0
 27 18  1  6  0  0  0
 27 28  1  0  0  0  0
 28 20  1  1  0  0  0
 28 29  1  0  0  0  0
 29 11  1  6  0  0  0
 30 22  1  1  0  0  0
 30 31  1  0  0  0  0
 31 24  1  6  0  0  0
M  END
>  <CHROM.1>
177.87685566,-51.99061858,-70.24607697,66.57332578,98.11461764,-56.89616829
18.73027759,3.90013270,16.17290346,2.95485326,-0.18512008,-2.64635487

>  <Name>
ligand

>  <RI>
0

>  <Rbt.Current_Directory>
/home/itssahil/PROJECTS/Mol_Feturizer/New_Systems/rnas/3DVV

>  <Rbt.Executable>
rbdock ($Id: //depot/dev/client3/rdock/2013.1/src/exe/rbdock.cxx#4 $)

>  <Rbt.Library>
libRbt.so (2013.1, Build901 2013/11/27)

>  <Rbt.Parameter_File>
/export/apps/rDock/src/rDock_2013.1_src/data/scripts/dock_solv.prm

>  <Rbt.Receptor>
prm/pocket_docking_3.prm

>  <SCORE>
-6.22593

>  <SCORE.INTER>
-6.24779

>  <SCORE.INTER.CONST>
1

>  <SCORE.INTER.POLAR>
0

>  <SCORE.INTER.ROT>
6

>  <SCORE.INTER.SOLV>
24.0859

>  <SCORE.INTER.VDW>
-19.7938

>  <SCORE.INTER.norm>
-0.201542

>  <SCORE.INTRA>
0.0218587

>  <SCORE.INTRA.DIHEDRAL>
-4.53089

>  <SCORE.INTRA.DIHEDRAL.0>
10.8172

>  <SCORE.INTRA.POLAR>
0

>  <SCORE.INTRA.POLAR.0>
0

>  <SCORE.INTRA.REPUL>
0

>  <SCORE.INTRA.REPUL.0>
0

>  <SCORE.INTRA.SOLV>
-0.779587

>  <SCORE.INTRA.SOLV.lig_0>
-80.3833

>  <SCORE.INTRA.VDW>
2.6771

>  <SCORE.INTRA.VDW.0>
-4.63762

>  <SCORE.INTRA.norm>
0.00070512

>  <SCORE.RESTR>
0

>  <SCORE.RESTR.CAVITY>
0

>  <SCORE.RESTR.norm>
0

>  <SCORE.SYSTEM>
0

>  <SCORE.SYSTEM.CONST>
0

>  <SCORE.SYSTEM.DIHEDRAL>
0

>  <SCORE.SYSTEM.SOLV>
0

>  <SCORE.SYSTEM.norm>
0

>  <SCORE.heavy>
31

>  <SCORE.norm>
-0.200836

>  <RMSD>
1.911

$$$$
ligand
 OpenBabel11021811473D
libRbt.so/2013.1/901 2013/11/27
 31 33  0  0  0  0  0  0  0  0999 V2000
   15.3896    3.2723   19.5149 C   0  0  0  0  0  0  0  0  0  0  0  0
   18.5374   -0.2763   13.0108 N   0  0  0  0  0  0  0  0  0  0  0  0
   15.9962    2.9955   20.7815 O   0  0  0  0  0  0  0  0  0  0  0  0
   16.2283    4.2918   18.7399 C   0  0  1  0  0  0  0  0  0  0  0  0
   22.4926    2.4854   13.8061 N   0  0  0  0  0  0  0  0  0  0  0  0
   17.5729    3.8023   18.5702 O   0  0  0  0  0  0  0  0  0  0  0  0
   17.8951    3.8239   17.1682 C   0  0  1  0  0  0  0  0  0  0  0  0
   24.6609    2.7309   17.2307 N   0  0  0  0  0  0  0  0  0  0  0  0
   18.7733    2.7460   16.8079 O   0  0  0  0  0  0  0  0  0  0  0  0
   19.0406    2.6639   15.4001 C   0  0  2  0  0  0  0  0  0  0  0  0
   19.7334    6.7687   15.8788 N   0  0  0  0  0  0  0  0  0  0  0  0
   17.1979    1.1378   15.0566 O   0  0  0  0  0  0  0  0  0  0  0  0
   18.6174    1.2650   14.9371 C   0  0  1  0  0  0  0  0  0  0  0  0
   20.8907    4.2927   15.3304 O   0  0  0  0  0  0  0  0  0  0  0  0
   19.0232    1.0301   13.4808 C   0  0  1  0  0  0  0  0  0  0  0  0
   22.0753    4.2902   17.3638 O   0  0  0  0  0  0  0  0  0  0  0  0
   20.5466    1.0945   13.3687 C   0  0  0  0  0  0  0  0  0  0  0  0
   24.5827    6.6893   16.1666 O   0  0  0  0  0  0  0  0  0  0  0  0
   21.0220    2.4907   13.7813 C   0  0  1  0  0  0  0  0  0  0  0  0
   22.1892    8.2785   16.2668 O   0  0  0  0  0  0  0  0  0  0  0  0
   20.5289    2.9097   15.1716 C   0  0  2  0  0  0  0  0  0  0  0  0
   16.5279    4.0043   15.1295 O   0  0  0  0  0  0  0  0  0  0  0  0
   20.8950    4.7617   16.6878 C   0  0  1  0  0  0  0  0  0  0  0  0
   15.7827    5.8414   16.8809 O   0  0  0  0  0  0  0  0  0  0  0  0
   23.3095    4.7277   16.7702 C   0  0  2  0  0  0  0  0  0  0  0  0
   24.4817    4.1520   17.5684 C   0  0  0  0  0  0  0  0  0  0  0  0
   23.3840    6.2550   16.8144 C   0  0  2  0  0  0  0  0  0  0  0  0
   22.1743    6.8572   16.0967 C   0  0  1  0  0  0  0  0  0  0  0  0
   20.8743    6.2939   16.6767 C   0  0  1  0  0  0  0  0  0  0  0  0
   16.5435    3.5882   16.4971 C   0  0  2  0  0  0  0  0  0  0  0  0
   15.6475    4.4932   17.3374 C   0  0  1  0  0  0  0  0  0  0  0  0
  1  3  1  0  0  0  0
  4  1  1  1  0  0  0
  4  6  1  0  0  0  0
  4 31  1  0  0  0  0
  6  7  1  0  0  0  0
  7  9  1  1  0  0  0
  7 30  1  0  0  0  0
  8 26  1  0  0  0  0
 10  9  1  1  0  0  0
 10 13  1  0  0  0  0
 10 21  1  0  0  0  0
 13 12  1  6  0  0  0
 13 15  1  0  0  0  0
 15  2  1  1  0  0  0
 15 17  1  0  0  0  0
 16 25  1  0  0  0  0
 16 23  1  0  0  0  0
 17 19  1  0  0  0  0
 19  5  1  1  0  0  0
 19 21  1  0  0  0  0
 21 14  1  6  0  0  0
 23 14  1  6  0  0  0
 23 29  1  0  0  0  0
 25 26  1  1  0  0  0
 25 27  1  0  0  0  0
 27 18  1  6  0  0  0
 27 28  1  0  0  0  0
 28 20  1  1  0  0  0
 28 29  1  0  0  0  0
 29 11  1  6  0  0  0
 30 22  1  6  0  0  0
 30 31  1  0  0  0  0
 31 24  1  6  0  0  0
M  END
>  <CHROM.1>
57.33046603,175.42917398,-122.69822724,76.52256707,72.86981225,76.67653532
19.73784921,3.88457884,16.29816080,3.01071914,-0.30032530,-2.44462172

>  <Name>
ligand

>  <RI>
0

>  <Rbt.Current_Directory>
/home/itssahil/PROJECTS/Mol_Feturizer/New_Systems/rnas/3DVV

>  <Rbt.Executable>
rbdock ($Id: //depot/dev/client3/rdock/2013.1/src/exe/rbdock.cxx#4 $)

>  <Rbt.Library>
libRbt.so (2013.1, Build901 2013/11/27)

>  <Rbt.Parameter_File>
/export/apps/rDock/src/rDock_2013.1_src/data/scripts/dock_solv.prm

>  <Rbt.Receptor>
prm/pocket_docking_2.prm

>  <SCORE>
-6.66812

>  <SCORE.INTER>
-7.33151

>  <SCORE.INTER.CONST>
1

>  <SCORE.INTER.POLAR>
0

>  <SCORE.INTER.ROT>
6

>  <SCORE.INTER.SOLV>
24.5955

>  <SCORE.INTER.VDW>
-20.6862

>  <SCORE.INTER.norm>
-0.2365

>  <SCORE.INTRA>
0.203519

>  <SCORE.INTRA.DIHEDRAL>
-0.286245

>  <SCORE.INTRA.DIHEDRAL.0>
10.8172

>  <SCORE.INTRA.POLAR>
0

>  <SCORE.INTRA.POLAR.0>
0

>  <SCORE.INTRA.REPUL>
0

>  <SCORE.INTRA.REPUL.0>
0

>  <SCORE.INTRA.SOLV>
-2.32265

>  <SCORE.INTRA.SOLV.lig_0>
-80.3833

>  <SCORE.INTRA.VDW>
1.50797

>  <SCORE.INTRA.VDW.0>
-4.63762

>  <SCORE.INTRA.norm>
0.00656512

>  <SCORE.RESTR>
0.459863

>  <SCORE.RESTR.CAVITY>
0.459863

>  <SCORE.RESTR.norm>
0.0148343

>  <SCORE.SYSTEM>
0

>  <SCORE.SYSTEM.CONST>
0

>  <SCORE.SYSTEM.DIHEDRAL>
0

>  <SCORE.SYSTEM.SOLV>
0

>  <SCORE.SYSTEM.norm>
0

>  <SCORE.heavy>
31

>  <SCORE.norm>
-0.215101

>  <RMSD>
1.915

$$$$
ligand
 OpenBabel11021811473D
libRbt.so/2013.1/901 2013/11/27
 31 33  0  0  0  0  0  0  0  0999 V2000
   18.1578    9.3988   17.7555 C   0  0  0  0  0  0  0  0  0  0  0  0
   16.7087    1.5924   15.3275 N   0  0  0  0  0  0  0  0  0  0  0  0
   18.2198    9.6119   16.3415 O   0  0  0  0  0  0  0  0  0  0  0  0
   17.2497    8.2073   18.0701 C   0  0  1  0  0  0  0  0  0  0  0  0
   21.3964    2.6887   14.4751 N   0  0  0  0  0  0  0  0  0  0  0  0
   17.6735    7.0493   17.3244 O   0  0  0  0  0  0  0  0  0  0  0  0
   17.8950    5.9667   18.2456 C   0  0  1  0  0  0  0  0  0  0  0  0
   25.3750    3.4482   17.2725 N   0  0  0  0  0  0  0  0  0  0  0  0
   18.9617    5.1087   17.8109 O   0  0  0  0  0  0  0  0  0  0  0  0
   18.7810    4.5875   16.4858 C   0  0  2  0  0  0  0  0  0  0  0  0
   21.2512    8.0247   15.1036 N   0  0  0  0  0  0  0  0  0  0  0  0
   16.5277    3.8708   16.9873 O   0  0  0  0  0  0  0  0  0  0  0  0
   17.8184    3.3989   16.5915 C   0  0  1  0  0  0  0  0  0  0  0  0
   20.9578    5.2913   15.5655 O   0  0  0  0  0  0  0  0  0  0  0  0
   17.7001    2.6760   15.2483 C   0  0  1  0  0  0  0  0  0  0  0  0
   22.2346    5.3921   17.5398 O   0  0  0  0  0  0  0  0  0  0  0  0
   19.0667    2.1095   14.8623 C   0  0  0  0  0  0  0  0  0  0  0  0
   25.4232    5.6161   15.7345 O   0  0  0  0  0  0  0  0  0  0  0  0
   20.0615    3.2629   14.7018 C   0  0  1  0  0  0  0  0  0  0  0  0
   24.1585    8.1160   15.0899 O   0  0  0  0  0  0  0  0  0  0  0  0
   20.1414    4.1672   15.9378 C   0  0  2  0  0  0  0  0  0  0  0  0
   18.1911    5.8677   20.6870 O   0  0  0  0  0  0  0  0  0  0  0  0
   21.3651    6.1280   16.6596 C   0  0  1  0  0  0  0  0  0  0  0  0
   16.1099    7.3883   20.0915 O   0  0  0  0  0  0  0  0  0  0  0  0
   23.4373    4.9121   16.9151 C   0  0  2  0  0  0  0  0  0  0  0  0
   24.2642    4.1399   17.9459 C   0  0  0  0  0  0  0  0  0  0  0  0
   24.2596    6.0994   16.4109 C   0  0  2  0  0  0  0  0  0  0  0  0
   23.4238    6.9392   15.4428 C   0  0  1  0  0  0  0  0  0  0  0  0
   22.1008    7.3482   16.0957 C   0  0  1  0  0  0  0  0  0  0  0  0
   18.3405    6.6802   19.5203 C   0  0  2  0  0  0  0  0  0  0  0  0
   17.3542    7.8438   19.5540 C   0  0  1  0  0  0  0  0  0  0  0  0
  1  3  1  0  0  0  0
  4  1  1  1  0  0  0
  4  6  1  0  0  0  0
  4 31  1  0  0  0  0
  6  7  1  0  0  0  0
  7  9  1  6  0  0  0
  7 30  1  0  0  0  0
  8 26  1  0  0  0  0
 10  9  1  1  0  0  0
 10 13  1  0  0  0  0
 10 21  1  0  0  0  0
 13 12  1  6  0  0  0
 13 15  1  0  0  0  0
 15  2  1  1  0  0  0
 15 17  1  0  0  0  0
 16 25  1  0  0  0  0
 16 23  1  0  0  0  0
 17 19  1  0  0  0  0
 19  5  1  1  0  0  0
 19 21  1  0  0  0  0
 21 14  1  6  0  0  0
 23 14  1  6  0  0  0
 23 29  1  0  0  0  0
 25 26  1  1  0  0  0
 25 27  1  0  0  0  0
 27 18  1  6  0  0  0
 27 28  1  0  0  0  0
 28 20  1  1  0  0  0
 28 29  1  0  0  0  0
 29 11  1  6  0  0  0
 30 22  1  1  0  0  0
 30 31  1  0  0  0  0
 31 24  1  6  0  0  0
M  END
>  <CHROM.1>
53.58126742,-55.11476376,-80.53873712,65.28891551,65.91522933,170.26214688
20.13976594,5.61219290,16.85350603,-2.90044577,-0.23459444,-2.74700407

>  <Name>
ligand

>  <RI>
0

>  <Rbt.Current_Directory>
/home/itssahil/PROJECTS/Mol_Feturizer/New_Systems/rnas/3DVV

>  <Rbt.Executable>
rbdock ($Id: //depot/dev/client3/rdock/2013.1/src/exe/rbdock.cxx#4 $)

>  <Rbt.Library>
libRbt.so (2013.1, Build901 2013/11/27)

>  <Rbt.Parameter_File>
/export/apps/rDock/src/rDock_2013.1_src/data/scripts/dock_solv.prm

>  <Rbt.Receptor>
prm/pocket_docking_3.prm

>  <SCORE>
-13.4524

>  <SCORE.INTER>
-10.2736

>  <SCORE.INTER.CONST>
1

>  <SCORE.INTER.POLAR>
0

>  <SCORE.INTER.ROT>
6

>  <SCORE.INTER.SOLV>
20.6452

>  <SCORE.INTER.VDW>
-21.3308

>  <SCORE.INTER.norm>
-0.331405

>  <SCORE.INTRA>
-3.18089

>  <SCORE.INTRA.DIHEDRAL>
-7.76413

>  <SCORE.INTRA.DIHEDRAL.0>
10.8172

>  <SCORE.INTRA.POLAR>
0

>  <SCORE.INTRA.POLAR.0>
0

>  <SCORE.INTRA.REPUL>
0

>  <SCORE.INTRA.REPUL.0>
0

>  <SCORE.INTRA.SOLV>
-2.64091

>  <SCORE.INTRA.SOLV.lig_0>
-80.3833

>  <SCORE.INTRA.VDW>
2.02164

>  <SCORE.INTRA.VDW.0>
-4.63762

>  <SCORE.INTRA.norm>
-0.102609

>  <SCORE.RESTR>
0.00201488

>  <SCORE.RESTR.CAVITY>
0.00201488

>  <SCORE.RESTR.norm>
6.49963e-05

>  <SCORE.SYSTEM>
0

>  <SCORE.SYSTEM.CONST>
0

>  <SCORE.SYSTEM.DIHEDRAL>
0

>  <SCORE.SYSTEM.SOLV>
0

>  <SCORE.SYSTEM.norm>
0

>  <SCORE.heavy>
31

>  <SCORE.norm>
-0.433949

>  <RMSD>
1.984

$$$$
ligand
 OpenBabel11021811473D
libRbt.so/2013.1/901 2013/11/27
 31 33  0  0  0  0  0  0  0  0999 V2000
   15.4534    3.1321   19.8493 C   0  0  0  0  0  0  0  0  0  0  0  0
   18.5050   -0.3597   13.0017 N   0  0  0  0  0  0  0  0  0  0  0  0
   14.1074    3.5055   20.1615 O   0  0  0  0  0  0  0  0  0  0  0  0
   16.0623    4.1307   18.8616 C   0  0  1  0  0  0  0  0  0  0  0  0
   22.3437    2.5341   13.8926 N   0  0  0  0  0  0  0  0  0  0  0  0
   17.4319    3.7806   18.5822 O   0  0  0  0  0  0  0  0  0  0  0  0
   17.5916    3.6552   17.1580 C   0  0  1  0  0  0  0  0  0  0  0  0
   25.5186    3.8737   16.7454 N   0  0  0  0  0  0  0  0  0  0  0  0
   18.5566    2.6473   16.8179 O   0  0  0  0  0  0  0  0  0  0  0  0
   18.8555    2.5826   15.4156 C   0  0  2  0  0  0  0  0  0  0  0  0
   19.7321    6.8298   16.0299 N   0  0  0  0  0  0  0  0  0  0  0  0
   17.0750    0.9949   15.0263 O   0  0  0  0  0  0  0  0  0  0  0  0
   18.4913    1.1724   14.9369 C   0  0  1  0  0  0  0  0  0  0  0  0
   20.6484    4.2755   15.3923 O   0  0  0  0  0  0  0  0  0  0  0  0
   18.9350    0.9602   13.4882 C   0  0  1  0  0  0  0  0  0  0  0  0
   21.8831    4.1174   17.3895 O   0  0  0  0  0  0  0  0  0  0  0  0
   20.4571    1.0785   13.4080 C   0  0  0  0  0  0  0  0  0  0  0  0
   24.5610    6.3141   16.1730 O   0  0  0  0  0  0  0  0  0  0  0  0
   20.8747    2.4881   13.8373 C   0  0  1  0  0  0  0  0  0  0  0  0
   22.3224    8.1061   16.3792 O   0  0  0  0  0  0  0  0  0  0  0  0
   20.3387    2.8816   15.2192 C   0  0  2  0  0  0  0  0  0  0  0  0
   15.9957    3.4093   15.3004 O   0  0  0  0  0  0  0  0  0  0  0  0
   20.7316    4.7084   16.7592 C   0  0  1  0  0  0  0  0  0  0  0  0
   15.2173    5.3623   16.9059 O   0  0  0  0  0  0  0  0  0  0  0  0
   23.1348    4.4586   16.7698 C   0  0  2  0  0  0  0  0  0  0  0  0
   24.2724    3.7616   17.5199 C   0  0  0  0  0  0  0  0  0  0  0  0
   23.3465    5.9717   16.8459 C   0  0  2  0  0  0  0  0  0  0  0  0
   22.1762    6.6964   16.1778 C   0  0  1  0  0  0  0  0  0  0  0  0
   20.8474    6.2361   16.7831 C   0  0  1  0  0  0  0  0  0  0  0  0
   16.2161    3.1804   16.6941 C   0  0  2  0  0  0  0  0  0  0  0  0
   15.3089    4.0789   17.5295 C   0  0  1  0  0  0  0  0  0  0  0  0
  1  3  1  0  0  0  0
  4  1  1  1  0  0  0
  4  6  1  0  0  0  0
  4 31  1  0  0  0  0
  6  7  1  0  0  0  0
  7  9  1  1  0  0  0
  7 30  1  0  0  0  0
  8 26  1  0  0  0  0
 10  9  1  1  0  0  0
 10 13  1  0  0  0  0
 10 21  1  0  0  0  0
 13 12  1  6  0  0  0
 13 15  1  0  0  0  0
 15  2  1  1  0  0  0
 15 17  1  0  0  0  0
 16 25  1  0  0  0  0
 16 23  1  0  0  0  0
 17 19  1  0  0  0  0
 19  5  1  1  0  0  0
 19 21  1  0  0  0  0
 21 14  1  6  0  0  0
 23 14  1  6  0  0  0
 23 29  1  0  0  0  0
 25 26  1  1  0  0  0
 25 27  1  0  0  0  0
 27 18  1  6  0  0  0
 27 28  1  0  0  0  0
 28 20  1  1  0  0  0
 28 29  1  0  0  0  0
 29 11  1  6  0  0  0
 30 22  1  6  0  0  0
 30 31  1  0  0  0  0
 31 24  1  6  0  0  0
M  END
>  <CHROM.1>
178.06139846,-173.73925679,-120.24207706,68.35576689,78.43897326,168.53204003
19.54694266,3.78096996,16.31924566,3.05548293,-0.28761772,-2.42910556

>  <Name>
ligand

>  <RI>
0

>  <Rbt.Current_Directory>
/home/itssahil/PROJECTS/Mol_Feturizer/New_Systems/rnas/3DVV

>  <Rbt.Executable>
rbdock ($Id: //depot/dev/client3/rdock/2013.1/src/exe/rbdock.cxx#4 $)

>  <Rbt.Library>
libRbt.so (2013.1, Build901 2013/11/27)

>  <Rbt.Parameter_File>
/export/apps/rDock/src/rDock_2013.1_src/data/scripts/dock_solv.prm

>  <Rbt.Receptor>
prm/pocket_docking_3.prm

>  <SCORE>
-8.02363

>  <SCORE.INTER>
-8.40643

>  <SCORE.INTER.CONST>
1

>  <SCORE.INTER.POLAR>
0

>  <SCORE.INTER.ROT>
6

>  <SCORE.INTER.SOLV>
20.4046

>  <SCORE.INTER.VDW>
-20.0058

>  <SCORE.INTER.norm>
-0.271175

>  <SCORE.INTRA>
0.382798

>  <SCORE.INTRA.DIHEDRAL>
-0.845795

>  <SCORE.INTRA.DIHEDRAL.0>
10.8172

>  <SCORE.INTRA.POLAR>
0

>  <SCORE.INTRA.POLAR.0>
0

>  <SCORE.INTRA.REPUL>
0

>  <SCORE.INTRA.REPUL.0>
0

>  <SCORE.INTRA.SOLV>
-1.61118

>  <SCORE.INTRA.SOLV.lig_0>
-80.3833

>  <SCORE.INTRA.VDW>
1.61129

>  <SCORE.INTRA.VDW.0>
-4.63762

>  <SCORE.INTRA.norm>
0.0123483

>  <SCORE.RESTR>
0

>  <SCORE.RESTR.CAVITY>
0

>  <SCORE.RESTR.norm>
0

>  <SCORE.SYSTEM>
0

>  <SCORE.SYSTEM.CONST>
0

>  <SCORE.SYSTEM.DIHEDRAL>
0

>  <SCORE.SYSTEM.SOLV>
0

>  <SCORE.SYSTEM.norm>
0

>  <SCORE.heavy>
31

>  <SCORE.norm>
-0.258827

>  <RMSD>
1.987

$$$$
ligand
 OpenBabel11021811473D
libRbt.so/2013.1/901 2013/11/27
 31 33  0  0  0  0  0  0  0  0999 V2000
   16.6901    5.2729   20.2807 C   0  0  0  0  0  0  0  0  0  0  0  0
   17.8652    0.5184   13.2965 N   0  0  0  0  0  0  0  0  0  0  0  0
   17.0972    4.5820   21.4664 O   0  0  0  0  0  0  0  0  0  0  0  0
   17.9175    5.7107   19.4775 C   0  0  1  0  0  0  0  0  0  0  0  0
   22.3422    2.3952   13.8778 N   0  0  0  0  0  0  0  0  0  0  0  0
   18.7160    4.5638   19.1261 O   0  0  0  0  0  0  0  0  0  0  0  0
   18.9081    4.5585   17.7003 C   0  0  1  0  0  0  0  0  0  0  0  0
   25.4942    2.9395   17.9701 N   0  0  0  0  0  0  0  0  0  0  0  0
   18.9751    3.2223   17.1778 O   0  0  0  0  0  0  0  0  0  0  0  0
   19.1194    3.1660   15.7510 C   0  0  2  0  0  0  0  0  0  0  0  0
   21.2956    6.9997   16.5953 N   0  0  0  0  0  0  0  0  0  0  0  0
   16.9873    2.0557   15.4976 O   0  0  0  0  0  0  0  0  0  0  0  0
   18.3911    1.9058   15.2691 C   0  0  1  0  0  0  0  0  0  0  0  0
   21.2500    4.3978   15.5961 O   0  0  0  0  0  0  0  0  0  0  0  0
   18.6365    1.6751   13.7766 C   0  0  1  0  0  0  0  0  0  0  0  0
   22.8443    3.6666   17.1651 O   0  0  0  0  0  0  0  0  0  0  0  0
   20.1297    1.4429   13.5445 C   0  0  0  0  0  0  0  0  0  0  0  0
   25.6488    5.2196   15.3764 O   0  0  0  0  0  0  0  0  0  0  0  0
   20.9049    2.6928   13.9719 C   0  0  1  0  0  0  0  0  0  0  0  0
   24.1451    7.4951   16.2852 O   0  0  0  0  0  0  0  0  0  0  0  0
   20.6066    3.1245   15.4128 C   0  0  2  0  0  0  0  0  0  0  0  0
   17.7828    5.7216   15.8459 O   0  0  0  0  0  0  0  0  0  0  0  0
   21.7921    4.6149   16.9082 C   0  0  1  0  0  0  0  0  0  0  0  0
   18.3458    7.4382   17.7782 O   0  0  0  0  0  0  0  0  0  0  0  0
   23.9454    3.7434   16.2437 C   0  0  2  0  0  0  0  0  0  0  0  0
   24.9842    2.6820   16.6139 C   0  0  0  0  0  0  0  0  0  0  0  0
   24.5951    5.1251   16.3385 C   0  0  2  0  0  0  0  0  0  0  0  0
   23.5545    6.2111   16.0575 C   0  0  1  0  0  0  0  0  0  0  0  0
   22.3443    6.0426   16.9800 C   0  0  1  0  0  0  0  0  0  0  0  0
   17.6341    5.2172   17.1752 C   0  0  2  0  0  0  0  0  0  0  0  0
   17.4805    6.3678   18.1653 C   0  0  1  0  0  0  0  0  0  0  0  0
  1  3  1  0  0  0  0
  4  1  1  6  0  0  0
  4  6  1  0  0  0  0
  4 31  1  0  0  0  0
  6  7  1  0  0  0  0
  7  9  1  6  0  0  0
  7 30  1  0  0  0  0
  8 26  1  0  0  0  0
 10  9  1  1  0  0  0
 10 13  1  0  0  0  0
 10 21  1  0  0  0  0
 13 12  1  6  0  0  0
 13 15  1  0  0  0  0
 15  2  1  1  0  0  0
 15 17  1  0  0  0  0
 16 25  1  0  0  0  0
 16 23  1  0  0  0  0
 17 19  1  0  0  0  0
 19  5  1  1  0  0  0
 19 21  1  0  0  0  0
 21 14  1  6  0  0  0
 23 14  1  6  0  0  0
 23 29  1  0  0  0  0
 25 26  1  1  0  0  0
 25 27  1  0  0  0  0
 27 18  1  6  0  0  0
 27 28  1  0  0  0  0
 28 20  1  1  0  0  0
 28 29  1  0  0  0  0
 29 11  1  6  0  0  0
 30 22  1  6  0  0  0
 30 31  1  0  0  0  0
 31 24  1  6  0  0  0
M  END
>  <CHROM.1>
58.64678976,177.93328989,-147.51449121,63.90902126,90.03503864,-61.37580552
20.51750180,4.24370161,16.57142920,-2.92763022,-0.19218324,-2.34015976

>  <Name>
ligand

>  <RI>
0

>  <Rbt.Current_Directory>
/home/itssahil/PROJECTS/Mol_Feturizer/New_Systems/rnas/3DVV

>  <Rbt.Executable>
rbdock ($Id: //depot/dev/client3/rdock/2013.1/src/exe/rbdock.cxx#4 $)

>  <Rbt.Library>
libRbt.so (2013.1, Build901 2013/11/27)

>  <Rbt.Parameter_File>
/export/apps/rDock/src/rDock_2013.1_src/data/scripts/dock_solv.prm

>  <Rbt.Receptor>
prm/pocket_docking_3.prm

>  <SCORE>
-6.19717

>  <SCORE.INTER>
-6.76803

>  <SCORE.INTER.CONST>
1

>  <SCORE.INTER.POLAR>
0

>  <SCORE.INTER.ROT>
6

>  <SCORE.INTER.SOLV>
23.5927

>  <SCORE.INTER.VDW>
-19.9762

>  <SCORE.INTER.norm>
-0.218324

>  <SCORE.INTRA>
0.570866

>  <SCORE.INTRA.DIHEDRAL>
-2.8621

>  <SCORE.INTRA.DIHEDRAL.0>
10.8172

>  <SCORE.INTRA.POLAR>
0

>  <SCORE.INTRA.POLAR.0>
0

>  <SCORE.INTRA.REPUL>
0.0419988

>  <SCORE.INTRA.REPUL.0>
0

>  <SCORE.INTRA.SOLV>
1.36141

>  <SCORE.INTRA.SOLV.lig_0>
-80.3833

>  <SCORE.INTRA.VDW>
1.11122

>  <SCORE.INTRA.VDW.0>
-4.63762

>  <SCORE.INTRA.norm>
0.018415

>  <SCORE.RESTR>
0

>  <SCORE.RESTR.CAVITY>
0

>  <SCORE.RESTR.norm>
0

>  <SCORE.SYSTEM>
0

>  <SCORE.SYSTEM.CONST>
0

>  <SCORE.SYSTEM.DIHEDRAL>
0

>  <SCORE.SYSTEM.SOLV>
0

>  <SCORE.SYSTEM.norm>
0

>  <SCORE.heavy>
31

>  <SCORE.norm>
-0.199909

>  <RMSD>
2.044

$$$$
ligand
 OpenBabel11021811473D
libRbt.so/2013.1/901 2013/11/27
 31 33  0  0  0  0  0  0  0  0999 V2000
   18.0737    9.2550   17.8207 C   0  0  0  0  0  0  0  0  0  0  0  0
   17.5497    1.4661   15.1048 N   0  0  0  0  0  0  0  0  0  0  0  0
   18.0928    9.6036   16.4326 O   0  0  0  0  0  0  0  0  0  0  0  0
   17.2998    7.9504   18.0264 C   0  0  1  0  0  0  0  0  0  0  0  0
   22.2060    2.8675   14.5966 N   0  0  0  0  0  0  0  0  0  0  0  0
   17.9073    6.8875   17.2664 O   0  0  0  0  0  0  0  0  0  0  0  0
   18.2012    5.7969   18.1575 C   0  0  1  0  0  0  0  0  0  0  0  0
   25.8580    3.1519   17.0769 N   0  0  0  0  0  0  0  0  0  0  0  0
   19.3896    5.0934   17.7628 O   0  0  0  0  0  0  0  0  0  0  0  0
   19.3374    4.5752   16.4254 C   0  0  2  0  0  0  0  0  0  0  0  0
   22.0155    8.1588   15.4237 N   0  0  0  0  0  0  0  0  0  0  0  0
   17.1049    3.7113   16.7600 O   0  0  0  0  0  0  0  0  0  0  0  0
   18.4482    3.3267   16.4551 C   0  0  1  0  0  0  0  0  0  0  0  0
   21.5245    5.4257   15.6674 O   0  0  0  0  0  0  0  0  0  0  0  0
   18.4725    2.6114   15.1029 C   0  0  1  0  0  0  0  0  0  0  0  0
   22.8577    5.2626   17.5997 O   0  0  0  0  0  0  0  0  0  0  0  0
   19.8967    2.1371   14.8126 C   0  0  0  0  0  0  0  0  0  0  0  0
   26.0045    5.4005   15.7143 O   0  0  0  0  0  0  0  0  0  0  0  0
   20.8241    3.3531   14.7303 C   0  0  1  0  0  0  0  0  0  0  0  0
   24.9198    8.0337   15.3212 O   0  0  0  0  0  0  0  0  0  0  0  0
   20.7576    4.2480   15.9738 C   0  0  2  0  0  0  0  0  0  0  0  0
   18.3538    5.6194   20.6076 O   0  0  0  0  0  0  0  0  0  0  0  0
   22.0242    6.1335   16.8128 C   0  0  1  0  0  0  0  0  0  0  0  0
   16.1442    6.9075   19.9324 O   0  0  0  0  0  0  0  0  0  0  0  0
   24.0025    4.7489   16.8979 C   0  0  2  0  0  0  0  0  0  0  0  0
   24.7946    3.8323   17.8332 C   0  0  0  0  0  0  0  0  0  0  0  0
   24.9003    5.9101   16.4667 C   0  0  2  0  0  0  0  0  0  0  0  0
   24.1061    6.8892   15.5996 C   0  0  1  0  0  0  0  0  0  0  0  0
   22.8366    7.3388   16.3277 C   0  0  1  0  0  0  0  0  0  0  0  0
   18.4758    6.4977   19.4864 C   0  0  2  0  0  0  0  0  0  0  0  0
   17.3548    7.5327   19.4986 C   0  0  1  0  0  0  0  0  0  0  0  0
  1  3  1  0  0  0  0
  4  1  1  1  0  0  0
  4  6  1  0  0  0  0
  4 31  1  0  0  0  0
  6  7  1  0  0  0  0
  7  9  1  6  0  0  0
  7 30  1  0  0  0  0
  8 26  1  0  0  0  0
 10  9  1  1  0  0  0
 10 13  1  0  0  0  0
 10 21  1  0  0  0  0
 13 12  1  6  0  0  0
 13 15  1  0  0  0  0
 15  2  1  1  0  0  0
 15 17  1  0  0  0  0
 16 25  1  0  0  0  0
 16 23  1  0  0  0  0
 17 19  1  0  0  0  0
 19  5  1  1  0  0  0
 19 21  1  0  0  0  0
 21 14  1  6  0  0  0
 23 14  1  6  0  0  0
 23 29  1  0  0  0  0
 25 26  1  1  0  0  0
 25 27  1  0  0  0  0
 27 18  1  6  0  0  0
 27 28  1  0  0  0  0
 28 20  1  1  0  0  0
 28 29  1  0  0  0  0
 29 11  1  6  0  0  0
 30 22  1  1  0  0  0
 30 31  1  0  0  0  0
 31 24  1  6  0  0  0
M  END
>  <CHROM.1>
58.81875052,-57.24910332,-76.36629779,58.57419141,77.69739208,172.06615620
20.62241944,5.50697333,16.84964480,-2.88670400,-0.21496358,-2.77923099

>  <Name>
ligand

>  <RI>
0

>  <Rbt.Current_Directory>
/home/itssahil/PROJECTS/Mol_Feturizer/New_Systems/rnas/3DVV

>  <Rbt.Executable>
rbdock ($Id: //depot/dev/client3/rdock/2013.1/src/exe/rbdock.cxx#4 $)

>  <Rbt.Library>
libRbt.so (2013.1, Build901 2013/11/27)

>  <Rbt.Parameter_File>
/export/apps/rDock/src/rDock_2013.1_src/data/scripts/dock_solv.prm

>  <Rbt.Receptor>
prm/pocket_docking_6.prm

>  <SCORE>
-12.2337

>  <SCORE.INTER>
-9.40728

>  <SCORE.INTER.CONST>
1

>  <SCORE.INTER.POLAR>
0

>  <SCORE.INTER.ROT>
6

>  <SCORE.INTER.SOLV>
22.6628

>  <SCORE.INTER.VDW>
-21.4258

>  <SCORE.INTER.norm>
-0.303461

>  <SCORE.INTRA>
-2.82639

>  <SCORE.INTRA.DIHEDRAL>
-7.62882

>  <SCORE.INTRA.DIHEDRAL.0>
10.8172

>  <SCORE.INTRA.POLAR>
0

>  <SCORE.INTRA.POLAR.0>
0

>  <SCORE.INTRA.REPUL>
0

>  <SCORE.INTRA.REPUL.0>
0

>  <SCORE.INTRA.SOLV>
-2.60574

>  <SCORE.INTRA.SOLV.lig_0>
-80.3833

>  <SCORE.INTRA.VDW>
2.29089

>  <SCORE.INTRA.VDW.0>
-4.63762

>  <SCORE.INTRA.norm>
-0.091174

>  <SCORE.RESTR>
0

>  <SCORE.RESTR.CAVITY>
0

>  <SCORE.RESTR.norm>
0

>  <SCORE.SYSTEM>
0

>  <SCORE.SYSTEM.CONST>
0

>  <SCORE.SYSTEM.DIHEDRAL>
0

>  <SCORE.SYSTEM.SOLV>
0

>  <SCORE.SYSTEM.norm>
0

>  <SCORE.heavy>
31

>  <SCORE.norm>
-0.394635

>  <RMSD>
2.069

$$$$
ligand
 OpenBabel11021811473D
libRbt.so/2013.1/901 2013/11/27
 31 33  0  0  0  0  0  0  0  0999 V2000
   17.7318    9.4085   18.5004 C   0  0  0  0  0  0  0  0  0  0  0  0
   16.4757    1.6846   15.8041 N   0  0  0  0  0  0  0  0  0  0  0  0
   17.5511    9.8282   17.1439 O   0  0  0  0  0  0  0  0  0  0  0  0
   16.9516    8.1177   18.7616 C   0  0  1  0  0  0  0  0  0  0  0  0
   21.0763    2.8090   14.5904 N   0  0  0  0  0  0  0  0  0  0  0  0
   17.4139    7.0719   17.8847 O   0  0  0  0  0  0  0  0  0  0  0  0
   17.7920    5.9371   18.6840 C   0  0  1  0  0  0  0  0  0  0  0  0
   25.1628    3.5073   17.2043 N   0  0  0  0  0  0  0  0  0  0  0  0
   18.8913    5.2192   18.1017 O   0  0  0  0  0  0  0  0  0  0  0  0
   18.6120    4.6947   16.7952 C   0  0  2  0  0  0  0  0  0  0  0  0
   21.0071    8.1328   15.1885 N   0  0  0  0  0  0  0  0  0  0  0  0
   16.4089    3.9646   17.4702 O   0  0  0  0  0  0  0  0  0  0  0  0
   17.6682    3.5002   16.9764 C   0  0  1  0  0  0  0  0  0  0  0  0
   20.7066    5.4107   15.7085 O   0  0  0  0  0  0  0  0  0  0  0  0
   17.4510    2.7743   15.6472 C   0  0  1  0  0  0  0  0  0  0  0  0
   22.0879    5.5253   17.6104 O   0  0  0  0  0  0  0  0  0  0  0  0
   18.7873    2.2158   15.1573 C   0  0  0  0  0  0  0  0  0  0  0  0
   25.1781    5.6818   15.6349 O   0  0  0  0  0  0  0  0  0  0  0  0
   19.7592    3.3752   14.9190 C   0  0  1  0  0  0  0  0  0  0  0  0
   23.9104    8.1874   15.0190 O   0  0  0  0  0  0  0  0  0  0  0  0
   19.9287    4.2820   16.1440 C   0  0  2  0  0  0  0  0  0  0  0  0
   18.2747    5.6521   21.0807 O   0  0  0  0  0  0  0  0  0  0  0  0
   21.1814    6.2586   16.7660 C   0  0  1  0  0  0  0  0  0  0  0  0
   16.0362    7.0266   20.7685 O   0  0  0  0  0  0  0  0  0  0  0  0
   23.2499    5.0208   16.9303 C   0  0  2  0  0  0  0  0  0  0  0  0
   24.1214    4.2539   17.9278 C   0  0  0  0  0  0  0  0  0  0  0  0
   24.0580    6.1899   16.3645 C   0  0  2  0  0  0  0  0  0  0  0  0
   23.1817    7.0254   15.4290 C   0  0  1  0  0  0  0  0  0  0  0  0
   21.9003    7.4608   16.1446 C   0  0  1  0  0  0  0  0  0  0  0  0
   18.2696    6.5735   19.9877 C   0  0  2  0  0  0  0  0  0  0  0  0
   17.1951    7.6368   20.1949 C   0  0  1  0  0  0  0  0  0  0  0  0
  1  3  1  0  0  0  0
  4  1  1  6  0  0  0
  4  6  1  0  0  0  0
  4 31  1  0  0  0  0
  6  7  1  0  0  0  0
  7  9  1  6  0  0  0
  7 30  1  0  0  0  0
  8 26  1  0  0  0  0
 10  9  1  1  0  0  0
 10 13  1  0  0  0  0
 10 21  1  0  0  0  0
 13 12  1  6  0  0  0
 13 15  1  0  0  0  0
 15  2  1  1  0  0  0
 15 17  1  0  0  0  0
 16 25  1  0  0  0  0
 16 23  1  0  0  0  0
 17 19  1  0  0  0  0
 19  5  1  1  0  0  0
 19 21  1  0  0  0  0
 21 14  1  6  0  0  0
 23 14  1  6  0  0  0
 23 29  1  0  0  0  0
 25 26  1  1  0  0  0
 25 27  1  0  0  0  0
 27 18  1  6  0  0  0
 27 28  1  0  0  0  0
 28 20  1  1  0  0  0
 28 29  1  0  0  0  0
 29 11  1  6  0  0  0
 30 22  1  1  0  0  0
 30 31  1  0  0  0  0
 31 24  1  6  0  0  0
M  END
>  <CHROM.1>
59.87711385,-60.57414641,-73.42448741,63.66367156,65.36340726,168.64532063
19.92731253,5.65950018,17.13776290,-2.86503163,-0.31704282,-2.72005868

>  <Name>
ligand

>  <RI>
0

>  <Rbt.Current_Directory>
/home/itssahil/PROJECTS/Mol_Feturizer/New_Systems/rnas/3DVV

>  <Rbt.Executable>
rbdock ($Id: //depot/dev/client3/rdock/2013.1/src/exe/rbdock.cxx#4 $)

>  <Rbt.Library>
libRbt.so (2013.1, Build901 2013/11/27)

>  <Rbt.Parameter_File>
/export/apps/rDock/src/rDock_2013.1_src/data/scripts/dock_solv.prm

>  <Rbt.Receptor>
prm/pocket_docking_5.prm

>  <SCORE>
-14.1689

>  <SCORE.INTER>
-10.6184

>  <SCORE.INTER.CONST>
1

>  <SCORE.INTER.POLAR>
0

>  <SCORE.INTER.ROT>
6

>  <SCORE.INTER.SOLV>
20.8096

>  <SCORE.INTER.VDW>
-21.6155

>  <SCORE.INTER.norm>
-0.34253

>  <SCORE.INTRA>
-3.55044

>  <SCORE.INTRA.DIHEDRAL>
-9.03469

>  <SCORE.INTRA.DIHEDRAL.0>
10.8172

>  <SCORE.INTRA.POLAR>
0

>  <SCORE.INTRA.POLAR.0>
0

>  <SCORE.INTRA.REPUL>
0

>  <SCORE.INTRA.REPUL.0>
0

>  <SCORE.INTRA.SOLV>
-3.44918

>  <SCORE.INTRA.SOLV.lig_0>
-80.3833

>  <SCORE.INTRA.VDW>
2.6915

>  <SCORE.INTRA.VDW.0>
-4.63762

>  <SCORE.INTRA.norm>
-0.11453

>  <SCORE.RESTR>
0

>  <SCORE.RESTR.CAVITY>
0

>  <SCORE.RESTR.norm>
0

>  <SCORE.SYSTEM>
0

>  <SCORE.SYSTEM.CONST>
0

>  <SCORE.SYSTEM.DIHEDRAL>
0

>  <SCORE.SYSTEM.SOLV>
0

>  <SCORE.SYSTEM.norm>
0

>  <SCORE.heavy>
31

>  <SCORE.norm>
-0.45706

>  <RMSD>
2.071

$$$$
ligand
 OpenBabel11021811473D
libRbt.so/2013.1/901 2013/11/27
 31 33  0  0  0  0  0  0  0  0999 V2000
   17.1796    5.5979   21.9064 C   0  0  0  0  0  0  0  0  0  0  0  0
   16.5495    0.6620   14.7922 N   0  0  0  0  0  0  0  0  0  0  0  0
   16.2556    6.2480   22.7853 O   0  0  0  0  0  0  0  0  0  0  0  0
   17.1716    6.2785   20.5353 C   0  0  1  0  0  0  0  0  0  0  0  0
   20.3416    3.5622   13.7374 N   0  0  0  0  0  0  0  0  0  0  0  0
   18.1470    5.6645   19.6703 O   0  0  0  0  0  0  0  0  0  0  0  0
   17.4888    5.2466   18.4612 C   0  0  1  0  0  0  0  0  0  0  0  0
   24.4477    5.7856   15.8618 N   0  0  0  0  0  0  0  0  0  0  0  0
   18.0734    4.0496   17.9242 O   0  0  0  0  0  0  0  0  0  0  0  0
   17.7765    3.8334   16.5367 C   0  0  2  0  0  0  0  0  0  0  0  0
   18.3316    8.0251   16.1035 N   0  0  0  0  0  0  0  0  0  0  0  0
   16.0338    2.2466   17.0729 O   0  0  0  0  0  0  0  0  0  0  0  0
   17.2857    2.3878   16.3960 C   0  0  1  0  0  0  0  0  0  0  0  0
   19.3598    5.4815   15.6103 O   0  0  0  0  0  0  0  0  0  0  0  0
   17.1059    2.0173   14.9225 C   0  0  1  0  0  0  0  0  0  0  0  0
   21.0162    5.7275   17.2638 O   0  0  0  0  0  0  0  0  0  0  0  0
   18.4597    2.0987   14.2168 C   0  0  0  0  0  0  0  0  0  0  0  0
   23.0987    7.9110   15.1729 O   0  0  0  0  0  0  0  0  0  0  0  0
   18.9792    3.5376   14.2910 C   0  0  1  0  0  0  0  0  0  0  0  0
   20.7779    9.5356   15.6622 O   0  0  0  0  0  0  0  0  0  0  0  0
   19.0427    4.0830   15.7229 C   0  0  2  0  0  0  0  0  0  0  0  0
   15.1254    4.9142   17.8597 O   0  0  0  0  0  0  0  0  0  0  0  0
   19.6956    6.1242   16.8500 C   0  0  1  0  0  0  0  0  0  0  0  0
   15.4249    7.2365   19.0906 O   0  0  0  0  0  0  0  0  0  0  0  0
   22.0539    6.0649   16.3275 C   0  0  2  0  0  0  0  0  0  0  0  0
   23.3992    5.5811   16.8740 C   0  0  0  0  0  0  0  0  0  0  0  0
   22.1090    7.5835   16.1518 C   0  0  2  0  0  0  0  0  0  0  0  0
   20.7471    8.1046   15.6883 C   0  0  1  0  0  0  0  0  0  0  0  0
   19.6446    7.6419   16.6445 C   0  0  1  0  0  0  0  0  0  0  0  0
   16.0723    4.9216   18.9307 C   0  0  2  0  0  0  0  0  0  0  0  0
   15.8063    6.0973   19.8661 C   0  0  1  0  0  0  0  0  0  0  0  0
  1  3  1  0  0  0  0
  4  1  1  1  0  0  0
  4  6  1  0  0  0  0
  4 31  1  0  0  0  0
  6  7  1  0  0  0  0
  7  9  1  1  0  0  0
  7 30  1  0  0  0  0
  8 26  1  0  0  0  0
 10  9  1  1  0  0  0
 10 13  1  0  0  0  0
 10 21  1  0  0  0  0
 13 12  1  1  0  0  0
 13 15  1  0  0  0  0
 15  2  1  1  0  0  0
 15 17  1  0  0  0  0
 16 25  1  0  0  0  0
 16 23  1  0  0  0  0
 17 19  1  0  0  0  0
 19  5  1  1  0  0  0
 19 21  1  0  0  0  0
 21 14  1  6  0  0  0
 23 14  1  6  0  0  0
 23 29  1  0  0  0  0
 25 26  1  1  0  0  0
 25 27  1  0  0  0  0
 27 18  1  6  0  0  0
 27 28  1  0  0  0  0
 28 20  1  1  0  0  0
 28 29  1  0  0  0  0
 29 11  1  6  0  0  0
 30 22  1  6  0  0  0
 30 31  1  0  0  0  0
 31 24  1  6  0  0  0
M  END
>  <CHROM.1>
177.30240045,-160.54712634,-130.72433390,74.35292422,65.02580476,173.77647536
18.79026899,5.32614277,17.09966828,-2.95233095,-0.59109524,-2.36167163

>  <Name>
ligand

>  <RI>
0

>  <Rbt.Current_Directory>
/home/itssahil/PROJECTS/Mol_Feturizer/New_Systems/rnas/3DVV

>  <Rbt.Executable>
rbdock ($Id: //depot/dev/client3/rdock/2013.1/src/exe/rbdock.cxx#4 $)

>  <Rbt.Library>
libRbt.so (2013.1, Build901 2013/11/27)

>  <Rbt.Parameter_File>
/export/apps/rDock/src/rDock_2013.1_src/data/scripts/dock_solv.prm

>  <Rbt.Receptor>
prm/pocket_docking_5.prm

>  <SCORE>
-4.02427

>  <SCORE.INTER>
-4.49567

>  <SCORE.INTER.CONST>
1

>  <SCORE.INTER.POLAR>
0

>  <SCORE.INTER.ROT>
6

>  <SCORE.INTER.SOLV>
16.9412

>  <SCORE.INTER.VDW>
-16.2442

>  <SCORE.INTER.norm>
-0.145022

>  <SCORE.INTRA>
0.460083

>  <SCORE.INTRA.DIHEDRAL>
-1.01417

>  <SCORE.INTRA.DIHEDRAL.0>
10.8172

>  <SCORE.INTRA.POLAR>
0

>  <SCORE.INTRA.POLAR.0>
0

>  <SCORE.INTRA.REPUL>
0

>  <SCORE.INTRA.REPUL.0>
0

>  <SCORE.INTRA.SOLV>
-1.97009

>  <SCORE.INTRA.SOLV.lig_0>
-80.3833

>  <SCORE.INTRA.VDW>
1.95221

>  <SCORE.INTRA.VDW.0>
-4.63762

>  <SCORE.INTRA.norm>
0.0148414

>  <SCORE.RESTR>
0.0113126

>  <SCORE.RESTR.CAVITY>
0.0113126

>  <SCORE.RESTR.norm>
0.000364923

>  <SCORE.SYSTEM>
0

>  <SCORE.SYSTEM.CONST>
0

>  <SCORE.SYSTEM.DIHEDRAL>
0

>  <SCORE.SYSTEM.SOLV>
0

>  <SCORE.SYSTEM.norm>
0

>  <SCORE.heavy>
31

>  <SCORE.norm>
-0.129815

>  <RMSD>
2.091

$$$$
ligand
 OpenBabel11021811473D
libRbt.so/2013.1/901 2013/11/27
 31 33  0  0  0  0  0  0  0  0999 V2000
   17.7262    9.4418   18.5512 C   0  0  0  0  0  0  0  0  0  0  0  0
   16.4478    1.7668   15.8289 N   0  0  0  0  0  0  0  0  0  0  0  0
   17.5783    9.8216   17.1791 O   0  0  0  0  0  0  0  0  0  0  0  0
   16.9640    8.1425   18.8239 C   0  0  1  0  0  0  0  0  0  0  0  0
   21.0513    2.8449   14.5842 N   0  0  0  0  0  0  0  0  0  0  0  0
   17.4204    7.1033   17.9362 O   0  0  0  0  0  0  0  0  0  0  0  0
   17.8247    5.9707   18.7259 C   0  0  1  0  0  0  0  0  0  0  0  0
   25.1737    3.5157   17.2115 N   0  0  0  0  0  0  0  0  0  0  0  0
   18.9202    5.2652   18.1215 O   0  0  0  0  0  0  0  0  0  0  0  0
   18.6251    4.7490   16.8152 C   0  0  2  0  0  0  0  0  0  0  0  0
   21.0523    8.1640   15.1934 N   0  0  0  0  0  0  0  0  0  0  0  0
   16.4191    4.0408   17.5043 O   0  0  0  0  0  0  0  0  0  0  0  0
   17.6694    3.5644   16.9990 C   0  0  1  0  0  0  0  0  0  0  0  0
   20.7192    5.4460   15.7152 O   0  0  0  0  0  0  0  0  0  0  0  0
   17.4340    2.8462   15.6687 C   0  0  1  0  0  0  0  0  0  0  0  0
   22.1031    5.5449   17.6160 O   0  0  0  0  0  0  0  0  0  0  0  0
   18.7602    2.2749   15.1664 C   0  0  0  0  0  0  0  0  0  0  0  0
   25.1936    5.6626   15.6383 O   0  0  0  0  0  0  0  0  0  0  0  0
   19.7431    3.4243   14.9252 C   0  0  1  0  0  0  0  0  0  0  0  0
   23.9559    8.1831   15.0218 O   0  0  0  0  0  0  0  0  0  0  0  0
   19.9320    4.3243   16.1524 C   0  0  2  0  0  0  0  0  0  0  0  0
   18.3548    5.6857   21.1124 O   0  0  0  0  0  0  0  0  0  0  0  0
   21.2050    6.2887   16.7719 C   0  0  1  0  0  0  0  0  0  0  0  0
   16.0971    7.0382   20.8450 O   0  0  0  0  0  0  0  0  0  0  0  0
   23.2584    5.0259   16.9354 C   0  0  2  0  0  0  0  0  0  0  0  0
   24.1212    4.2491   17.9327 C   0  0  0  0  0  0  0  0  0  0  0  0
   24.0803    6.1848   16.3683 C   0  0  2  0  0  0  0  0  0  0  0  0
   23.2135    7.0303   15.4330 C   0  0  1  0  0  0  0  0  0  0  0  0
   21.9380    7.4817   16.1493 C   0  0  1  0  0  0  0  0  0  0  0  0
   18.3201    6.6092   20.0218 C   0  0  2  0  0  0  0  0  0  0  0  0
   17.2390    7.6612   20.2514 C   0  0  1  0  0  0  0  0  0  0  0  0
  1  3  1  0  0  0  0
  4  1  1  6  0  0  0
  4  6  1  0  0  0  0
  4 31  1  0  0  0  0
  6  7  1  0  0  0  0
  7  9  1  6  0  0  0
  7 30  1  0  0  0  0
  8 26  1  0  0  0  0
 10  9  1  1  0  0  0
 10 13  1  0  0  0  0
 10 21  1  0  0  0  0
 13 12  1  6  0  0  0
 13 15  1  0  0  0  0
 15  2  1  1  0  0  0
 15 17  1  0  0  0  0
 16 25  1  0  0  0  0
 16 23  1  0  0  0  0
 17 19  1  0  0  0  0
 19  5  1  1  0  0  0
 19 21  1  0  0  0  0
 21 14  1  6  0  0  0
 23 14  1  6  0  0  0
 23 29  1  0  0  0  0
 25 26  1  1  0  0  0
 25 27  1  0  0  0  0
 27 18  1  6  0  0  0
 27 28  1  0  0  0  0
 28 20  1  1  0  0  0
 28 29  1  0  0  0  0
 29 11  1  6  0  0  0
 30 22  1  1  0  0  0
 30 31  1  0  0  0  0
 31 24  1  6  0  0  0
M  END
>  <CHROM.1>
56.58917546,-60.14194623,-72.28533922,63.44213101,65.02249230,170.03494956
19.94468829,5.68891867,17.15929931,-2.85564457,-0.31710545,-2.70561978

>  <Name>
ligand

>  <RI>
0

>  <Rbt.Current_Directory>
/home/itssahil/PROJECTS/Mol_Feturizer/New_Systems/rnas/3DVV

>  <Rbt.Executable>
rbdock ($Id: //depot/dev/client3/rdock/2013.1/src/exe/rbdock.cxx#4 $)

>  <Rbt.Library>
libRbt.so (2013.1, Build901 2013/11/27)

>  <Rbt.Parameter_File>
/export/apps/rDock/src/rDock_2013.1_src/data/scripts/dock_solv.prm

>  <Rbt.Receptor>
prm/pocket_docking_5.prm

>  <SCORE>
-14.1611

>  <SCORE.INTER>
-10.6995

>  <SCORE.INTER.CONST>
1

>  <SCORE.INTER.POLAR>
0

>  <SCORE.INTER.ROT>
6

>  <SCORE.INTER.SOLV>
20.7886

>  <SCORE.INTER.VDW>
-21.6626

>  <SCORE.INTER.norm>
-0.345146

>  <SCORE.INTRA>
-3.4616

>  <SCORE.INTRA.DIHEDRAL>
-9.25667

>  <SCORE.INTRA.DIHEDRAL.0>
10.8172

>  <SCORE.INTRA.POLAR>
0

>  <SCORE.INTRA.POLAR.0>
0

>  <SCORE.INTRA.REPUL>
0

>  <SCORE.INTRA.REPUL.0>
0

>  <SCORE.INTRA.SOLV>
-3.39956

>  <SCORE.INTRA.SOLV.lig_0>
-80.3833

>  <SCORE.INTRA.VDW>
2.86651

>  <SCORE.INTRA.VDW.0>
-4.63762

>  <SCORE.INTRA.norm>
-0.111665

>  <SCORE.RESTR>
0

>  <SCORE.RESTR.CAVITY>
0

>  <SCORE.RESTR.norm>
0

>  <SCORE.SYSTEM>
0

>  <SCORE.SYSTEM.CONST>
0

>  <SCORE.SYSTEM.DIHEDRAL>
0

>  <SCORE.SYSTEM.SOLV>
0

>  <SCORE.SYSTEM.norm>
0

>  <SCORE.heavy>
31

>  <SCORE.norm>
-0.45681

>  <RMSD>
2.117

$$$$
ligand
 OpenBabel11021811473D
libRbt.so/2013.1/901 2013/11/27
 31 33  0  0  0  0  0  0  0  0999 V2000
   14.3794    3.5069   18.4768 C   0  0  0  0  0  0  0  0  0  0  0  0
   17.7325    0.2511   13.5777 N   0  0  0  0  0  0  0  0  0  0  0  0
   13.9978    4.0046   19.7635 O   0  0  0  0  0  0  0  0  0  0  0  0
   15.8898    3.2623   18.4324 C   0  0  1  0  0  0  0  0  0  0  0  0
   21.7075    2.6467   15.1153 N   0  0  0  0  0  0  0  0  0  0  0  0
   16.3401    3.1822   17.0659 O   0  0  0  0  0  0  0  0  0  0  0  0
   17.4015    4.1348   16.8764 C   0  0  1  0  0  0  0  0  0  0  0  0
   24.3925    3.8116   17.5687 N   0  0  0  0  0  0  0  0  0  0  0  0
   17.3957    4.6798   15.5476 O   0  0  0  0  0  0  0  0  0  0  0  0
   18.1530    3.9087   14.6031 C   0  0  2  0  0  0  0  0  0  0  0  0
   20.3630    7.8656   14.4195 N   0  0  0  0  0  0  0  0  0  0  0  0
   16.2155    2.5965   13.9976 O   0  0  0  0  0  0  0  0  0  0  0  0
   17.5299    2.5088   14.5545 C   0  0  1  0  0  0  0  0  0  0  0  0
   20.2912    5.1122   14.8490 O   0  0  0  0  0  0  0  0  0  0  0  0
   18.3781    1.5672   13.6973 C   0  0  1  0  0  0  0  0  0  0  0  0
   21.0568    5.3424   17.0624 O   0  0  0  0  0  0  0  0  0  0  0  0
   19.7598    1.4179   14.3345 C   0  0  0  0  0  0  0  0  0  0  0  0
   24.5277    5.9570   16.0371 O   0  0  0  0  0  0  0  0  0  0  0  0
   20.4470    2.7861   14.3702 C   0  0  1  0  0  0  0  0  0  0  0  0
   23.1638    8.2976   15.0748 O   0  0  0  0  0  0  0  0  0  0  0  0
   19.6069    3.8654   15.0637 C   0  0  2  0  0  0  0  0  0  0  0  0
   18.1639    6.0849   18.1701 O   0  0  0  0  0  0  0  0  0  0  0  0
   20.3344    5.9799   15.9927 C   0  0  1  0  0  0  0  0  0  0  0  0
   17.8041    4.0181   19.7815 O   0  0  0  0  0  0  0  0  0  0  0  0
   22.4188    5.0131   16.7402 C   0  0  2  0  0  0  0  0  0  0  0  0
   23.0694    4.3330   17.9472 C   0  0  0  0  0  0  0  0  0  0  0  0
   23.1912    6.2937   16.4186 C   0  0  2  0  0  0  0  0  0  0  0  0
   22.5097    7.0392   15.2693 C   0  0  1  0  0  0  0  0  0  0  0  0
   21.0333    7.2835   15.5924 C   0  0  1  0  0  0  0  0  0  0  0  0
   17.0459    5.2513   17.8560 C   0  0  2  0  0  0  0  0  0  0  0  0
   16.6319    4.4362   19.0775 C   0  0  1  0  0  0  0  0  0  0  0  0
  1  3  1  0  0  0  0
  4  1  1  6  0  0  0
  4  6  1  0  0  0  0
  4 31  1  0  0  0  0
  6  7  1  0  0  0  0
  7  9  1  6  0  0  0
  7 30  1  0  0  0  0
  8 26  1  0  0  0  0
 10  9  1  1  0  0  0
 10 13  1  0  0  0  0
 10 21  1  0  0  0  0
 13 12  1  6  0  0  0
 13 15  1  0  0  0  0
 15  2  1  1  0  0  0
 15 17  1  0  0  0  0
 16 25  1  0  0  0  0
 16 23  1  0  0  0  0
 17 19  1  0  0  0  0
 19  5  1  1  0  0  0
 19 21  1  0  0  0  0
 21 14  1  6  0  0  0
 23 14  1  6  0  0  0
 23 29  1  0  0  0  0
 25 26  1  1  0  0  0
 25 27  1  0  0  0  0
 27 18  1  6  0  0  0
 27 28  1  0  0  0  0
 28 20  1  1  0  0  0
 28 29  1  0  0  0  0
 29 11  1  6  0  0  0
 30 22  1  1  0  0  0
 30 31  1  0  0  0  0
 31 24  1  6  0  0  0
M  END
>  <CHROM.1>
-161.62418591,-88.05518460,60.14101902,62.21123016,96.23669819,171.61685975
19.36455299,4.42103300,16.26541776,3.05028224,-0.40058808,-2.28123593

>  <Name>
ligand

>  <RI>
0

>  <Rbt.Current_Directory>
/home/itssahil/PROJECTS/Mol_Feturizer/New_Systems/rnas/3DVV

>  <Rbt.Executable>
rbdock ($Id: //depot/dev/client3/rdock/2013.1/src/exe/rbdock.cxx#4 $)

>  <Rbt.Library>
libRbt.so (2013.1, Build901 2013/11/27)

>  <Rbt.Parameter_File>
/export/apps/rDock/src/rDock_2013.1_src/data/scripts/dock_solv.prm

>  <Rbt.Receptor>
prm/pocket_docking_2.prm

>  <SCORE>
-2.40766

>  <SCORE.INTER>
-4.99632

>  <SCORE.INTER.CONST>
1

>  <SCORE.INTER.POLAR>
0

>  <SCORE.INTER.ROT>
6

>  <SCORE.INTER.SOLV>
18.6231

>  <SCORE.INTER.VDW>
-17.1386

>  <SCORE.INTER.norm>
-0.161172

>  <SCORE.INTRA>
2.02018

>  <SCORE.INTRA.DIHEDRAL>
-1.41536

>  <SCORE.INTRA.DIHEDRAL.0>
10.8172

>  <SCORE.INTRA.POLAR>
0

>  <SCORE.INTRA.POLAR.0>
0

>  <SCORE.INTRA.REPUL>
0

>  <SCORE.INTRA.REPUL.0>
0

>  <SCORE.INTRA.SOLV>
0.262332

>  <SCORE.INTRA.SOLV.lig_0>
-80.3833

>  <SCORE.INTRA.VDW>
2.59669

>  <SCORE.INTRA.VDW.0>
-4.63762

>  <SCORE.INTRA.norm>
0.065167

>  <SCORE.RESTR>
0.568487

>  <SCORE.RESTR.CAVITY>
0.568487

>  <SCORE.RESTR.norm>
0.0183383

>  <SCORE.SYSTEM>
0

>  <SCORE.SYSTEM.CONST>
0

>  <SCORE.SYSTEM.DIHEDRAL>
0

>  <SCORE.SYSTEM.SOLV>
0

>  <SCORE.SYSTEM.norm>
0

>  <SCORE.heavy>
31

>  <SCORE.norm>
-0.0776663

>  <RMSD>
2.155

$$$$
ligand
 OpenBabel11021811473D
libRbt.so/2013.1/901 2013/11/27
 31 33  0  0  0  0  0  0  0  0999 V2000
   14.3334    5.2727   15.6996 C   0  0  0  0  0  0  0  0  0  0  0  0
   18.7395   -0.4414   12.8643 N   0  0  0  0  0  0  0  0  0  0  0  0
   13.0110    5.6994   16.0433 O   0  0  0  0  0  0  0  0  0  0  0  0
   14.4517    3.7534   15.8440 C   0  0  1  0  0  0  0  0  0  0  0  0
   22.1161    2.7554   14.3752 N   0  0  0  0  0  0  0  0  0  0  0  0
   15.7434    3.3099   15.3841 O   0  0  0  0  0  0  0  0  0  0  0  0
   16.3682    2.5510   16.4346 C   0  0  1  0  0  0  0  0  0  0  0  0
   24.0364    4.3120   18.4542 N   0  0  0  0  0  0  0  0  0  0  0  0
   17.7949    2.7168   16.4338 O   0  0  0  0  0  0  0  0  0  0  0  0
   18.3879    2.6158   15.1307 C   0  0  2  0  0  0  0  0  0  0  0  0
   19.1802    6.9721   16.1489 N   0  0  0  0  0  0  0  0  0  0  0  0
   16.8318    0.8894   14.4669 O   0  0  0  0  0  0  0  0  0  0  0  0
   18.2211    1.1645   14.6657 C   0  0  1  0  0  0  0  0  0  0  0  0
   20.0372    4.4309   15.3883 O   0  0  0  0  0  0  0  0  0  0  0  0
   18.9743    0.9249   13.3557 C   0  0  1  0  0  0  0  0  0  0  0  0
   21.5193    4.2823   17.2102 O   0  0  0  0  0  0  0  0  0  0  0  0
   20.4686    1.1490   13.5888 C   0  0  0  0  0  0  0  0  0  0  0  0
   23.9933    6.5148   15.6703 O   0  0  0  0  0  0  0  0  0  0  0  0
   20.6979    2.6016   14.0168 C   0  0  1  0  0  0  0  0  0  0  0  0
   21.7788    8.2788   16.1692 O   0  0  0  0  0  0  0  0  0  0  0  0
   19.8577    3.0124   15.2321 C   0  0  2  0  0  0  0  0  0  0  0  0
   15.9310    2.3400   18.8476 O   0  0  0  0  0  0  0  0  0  0  0  0
   20.2897    4.8610   16.7352 C   0  0  1  0  0  0  0  0  0  0  0  0
   13.6683    2.1074   17.4971 O   0  0  0  0  0  0  0  0  0  0  0  0
   22.6772    4.6404   16.4368 C   0  0  2  0  0  0  0  0  0  0  0  0
   23.9096    3.9553   17.0321 C   0  0  0  0  0  0  0  0  0  0  0  0
   22.8792    6.1558   16.4917 C   0  0  2  0  0  0  0  0  0  0  0  0
   21.6245    6.8680   15.9821 C   0  0  1  0  0  0  0  0  0  0  0  0
   20.3897    6.3900   16.7505 C   0  0  1  0  0  0  0  0  0  0  0  0
   15.8103    3.1901   17.7046 C   0  0  2  0  0  0  0  0  0  0  0  0
   14.3434    3.3551   17.3186 C   0  0  1  0  0  0  0  0  0  0  0  0
  1  3  1  0  0  0  0
  4  1  1  1  0  0  0
  4  6  1  0  0  0  0
  4 31  1  0  0  0  0
  6  7  1  0  0  0  0
  7  9  1  1  0  0  0
  7 30  1  0  0  0  0
  8 26  1  0  0  0  0
 10  9  1  1  0  0  0
 10 13  1  0  0  0  0
 10 21  1  0  0  0  0
 13 12  1  6  0  0  0
 13 15  1  0  0  0  0
 15  2  1  1  0  0  0
 15 17  1  0  0  0  0
 16 25  1  0  0  0  0
 16 23  1  0  0  0  0
 17 19  1  0  0  0  0
 19  5  1  1  0  0  0
 19 21  1  0  0  0  0
 21 14  1  6  0  0  0
 23 14  1  6  0  0  0
 23 29  1  0  0  0  0
 25 26  1  1  0  0  0
 25 27  1  0  0  0  0
 27 18  1  6  0  0  0
 27 28  1  0  0  0  0
 28 20  1  1  0  0  0
 28 29  1  0  0  0  0
 29 11  1  6  0  0  0
 30 22  1  1  0  0  0
 30 31  1  0  0  0  0
 31 24  1  6  0  0  0
M  END
>  <CHROM.1>
174.85904260,-45.54541241,-67.33726876,62.36524061,100.21610911,-55.76825008
18.92880740,3.77683454,15.93471228,2.87372142,-0.13487014,-2.67156611

>  <Name>
ligand

>  <RI>
0

>  <Rbt.Current_Directory>
/home/itssahil/PROJECTS/Mol_Feturizer/New_Systems/rnas/3DVV

>  <Rbt.Executable>
rbdock ($Id: //depot/dev/client3/rdock/2013.1/src/exe/rbdock.cxx#4 $)

>  <Rbt.Library>
libRbt.so (2013.1, Build901 2013/11/27)

>  <Rbt.Parameter_File>
/export/apps/rDock/src/rDock_2013.1_src/data/scripts/dock_solv.prm

>  <Rbt.Receptor>
prm/pocket_docking_5.prm

>  <SCORE>
-6.44737

>  <SCORE.INTER>
-7.61064

>  <SCORE.INTER.CONST>
1

>  <SCORE.INTER.POLAR>
0

>  <SCORE.INTER.ROT>
6

>  <SCORE.INTER.SOLV>
25.8904

>  <SCORE.INTER.VDW>
-21.3039

>  <SCORE.INTER.norm>
-0.245505

>  <SCORE.INTRA>
1.16327

>  <SCORE.INTRA.DIHEDRAL>
-3.8687

>  <SCORE.INTRA.DIHEDRAL.0>
10.8172

>  <SCORE.INTRA.POLAR>
0

>  <SCORE.INTRA.POLAR.0>
0

>  <SCORE.INTRA.REPUL>
0

>  <SCORE.INTRA.REPUL.0>
0

>  <SCORE.INTRA.SOLV>
-0.443173

>  <SCORE.INTRA.SOLV.lig_0>
-80.3833

>  <SCORE.INTRA.VDW>
3.31921

>  <SCORE.INTRA.VDW.0>
-4.63762

>  <SCORE.INTRA.norm>
0.0375249

>  <SCORE.RESTR>
0

>  <SCORE.RESTR.CAVITY>
0

>  <SCORE.RESTR.norm>
0

>  <SCORE.SYSTEM>
0

>  <SCORE.SYSTEM.CONST>
0

>  <SCORE.SYSTEM.DIHEDRAL>
0

>  <SCORE.SYSTEM.SOLV>
0

>  <SCORE.SYSTEM.norm>
0

>  <SCORE.heavy>
31

>  <SCORE.norm>
-0.20798

>  <RMSD>
2.171

$$$$
ligand
 OpenBabel11021811473D
libRbt.so/2013.1/901 2013/11/27
 31 33  0  0  0  0  0  0  0  0999 V2000
   14.4778    2.8631   19.0168 C   0  0  0  0  0  0  0  0  0  0  0  0
   18.8595   -0.4530   13.0894 N   0  0  0  0  0  0  0  0  0  0  0  0
   14.9256    2.9698   20.3722 O   0  0  0  0  0  0  0  0  0  0  0  0
   15.1495    3.9339   18.1534 C   0  0  1  0  0  0  0  0  0  0  0  0
   22.2925    2.8249   14.2615 N   0  0  0  0  0  0  0  0  0  0  0  0
   16.5783    3.7468   18.1525 O   0  0  0  0  0  0  0  0  0  0  0  0
   17.0274    3.6530   16.7889 C   0  0  1  0  0  0  0  0  0  0  0  0
   24.2297    3.3287   17.1489 N   0  0  0  0  0  0  0  0  0  0  0  0
   18.1498    2.7663   16.6587 O   0  0  0  0  0  0  0  0  0  0  0  0
   18.6389    2.6464   15.3147 C   0  0  2  0  0  0  0  0  0  0  0  0
   18.9074    6.8358   16.0398 N   0  0  0  0  0  0  0  0  0  0  0  0
   17.0636    0.8833   14.8120 O   0  0  0  0  0  0  0  0  0  0  0  0
   18.4596    1.1831   14.8938 C   0  0  1  0  0  0  0  0  0  0  0  0
   20.2734    4.4907   15.4034 O   0  0  0  0  0  0  0  0  0  0  0  0
   19.1102    0.9268   13.5329 C   0  0  1  0  0  0  0  0  0  0  0  0
   21.6369    4.6546   17.3145 O   0  0  0  0  0  0  0  0  0  0  0  0
   20.6143    1.1779   13.6415 C   0  0  0  0  0  0  0  0  0  0  0  0
   23.7414    7.2896   15.8641 O   0  0  0  0  0  0  0  0  0  0  0  0
   20.8531    2.6425   14.0206 C   0  0  1  0  0  0  0  0  0  0  0  0
   21.2077    8.6107   16.1795 O   0  0  0  0  0  0  0  0  0  0  0  0
   20.1054    3.0666   15.2905 C   0  0  2  0  0  0  0  0  0  0  0  0
   15.8657    3.2405   14.6586 O   0  0  0  0  0  0  0  0  0  0  0  0
   20.3536    4.9824   16.7505 C   0  0  1  0  0  0  0  0  0  0  0  0
   14.5684    5.0765   16.0528 O   0  0  0  0  0  0  0  0  0  0  0  0
   22.7542    5.2127   16.6023 C   0  0  2  0  0  0  0  0  0  0  0  0
   24.0525    4.7828   17.2895 C   0  0  0  0  0  0  0  0  0  0  0  0
   22.6641    6.7396   16.6268 C   0  0  2  0  0  0  0  0  0  0  0  0
   21.3334    7.1933   16.0230 C   0  0  1  0  0  0  0  0  0  0  0  0
   20.1635    6.5028   16.7290 C   0  0  1  0  0  0  0  0  0  0  0  0
   15.8335    3.0265   16.0717 C   0  0  2  0  0  0  0  0  0  0  0  0
   14.6830    3.8069   16.7004 C   0  0  1  0  0  0  0  0  0  0  0  0
  1  3  1  0  0  0  0
  4  1  1  1  0  0  0
  4  6  1  0  0  0  0
  4 31  1  0  0  0  0
  6  7  1  0  0  0  0
  7  9  1  1  0  0  0
  7 30  1  0  0  0  0
  8 26  1  0  0  0  0
 10  9  1  1  0  0  0
 10 13  1  0  0  0  0
 10 21  1  0  0  0  0
 13 12  1  6  0  0  0
 13 15  1  0  0  0  0
 15  2  1  1  0  0  0
 15 17  1  0  0  0  0
 16 25  1  0  0  0  0
 16 23  1  0  0  0  0
 17 19  1  0  0  0  0
 19  5  1  1  0  0  0
 19 21  1  0  0  0  0
 21 14  1  6  0  0  0
 23 14  1  6  0  0  0
 23 29  1  0  0  0  0
 25 26  1  1  0  0  0
 25 27  1  0  0  0  0
 27 18  1  6  0  0  0
 27 28  1  0  0  0  0
 28 20  1  1  0  0  0
 28 29  1  0  0  0  0
 29 11  1  6  0  0  0
 30 22  1  6  0  0  0
 30 31  1  0  0  0  0
 31 24  1  6  0  0  0
M  END
>  <CHROM.1>
61.62947481,-179.65650291,-117.46658480,74.18524516,88.10546352,66.61772248
19.14775030,3.90984832,16.13583158,2.88788161,-0.28900221,-2.57122752

>  <Name>
ligand

>  <RI>
0

>  <Rbt.Current_Directory>
/home/itssahil/PROJECTS/Mol_Feturizer/New_Systems/rnas/3DVV

>  <Rbt.Executable>
rbdock ($Id: //depot/dev/client3/rdock/2013.1/src/exe/rbdock.cxx#4 $)

>  <Rbt.Library>
libRbt.so (2013.1, Build901 2013/11/27)

>  <Rbt.Parameter_File>
/export/apps/rDock/src/rDock_2013.1_src/data/scripts/dock_solv.prm

>  <Rbt.Receptor>
prm/pocket_docking_8.prm

>  <SCORE>
-6.65423

>  <SCORE.INTER>
-8.17346

>  <SCORE.INTER.CONST>
1

>  <SCORE.INTER.POLAR>
0

>  <SCORE.INTER.ROT>
6

>  <SCORE.INTER.SOLV>
21.1714

>  <SCORE.INTER.VDW>
-20.1061

>  <SCORE.INTER.norm>
-0.26366

>  <SCORE.INTRA>
1.51922

>  <SCORE.INTRA.DIHEDRAL>
0.893

>  <SCORE.INTRA.DIHEDRAL.0>
10.8172

>  <SCORE.INTRA.POLAR>
0

>  <SCORE.INTRA.POLAR.0>
0

>  <SCORE.INTRA.REPUL>
0

>  <SCORE.INTRA.REPUL.0>
0

>  <SCORE.INTRA.SOLV>
-0.84823

>  <SCORE.INTRA.SOLV.lig_0>
-80.3833

>  <SCORE.INTRA.VDW>
1.49684

>  <SCORE.INTRA.VDW.0>
-4.63762

>  <SCORE.INTRA.norm>
0.0490072

>  <SCORE.RESTR>
0

>  <SCORE.RESTR.CAVITY>
0

>  <SCORE.RESTR.norm>
0

>  <SCORE.SYSTEM>
0

>  <SCORE.SYSTEM.CONST>
0

>  <SCORE.SYSTEM.DIHEDRAL>
0

>  <SCORE.SYSTEM.SOLV>
0

>  <SCORE.SYSTEM.norm>
0

>  <SCORE.heavy>
31

>  <SCORE.norm>
-0.214653

>  <RMSD>
2.204

$$$$
ligand
 OpenBabel11021811473D
libRbt.so/2013.1/901 2013/11/27
 31 33  0  0  0  0  0  0  0  0999 V2000
   18.0697    9.6575   18.2231 C   0  0  0  0  0  0  0  0  0  0  0  0
   16.4025    1.8420   15.8328 N   0  0  0  0  0  0  0  0  0  0  0  0
   17.5673   10.8081   18.9104 O   0  0  0  0  0  0  0  0  0  0  0  0
   17.1746    8.4464   18.4976 C   0  0  1  0  0  0  0  0  0  0  0  0
   21.0705    2.7438   14.6928 N   0  0  0  0  0  0  0  0  0  0  0  0
   17.5878    7.3294   17.6865 O   0  0  0  0  0  0  0  0  0  0  0  0
   17.8347    6.2038   18.5479 C   0  0  1  0  0  0  0  0  0  0  0  0
   25.1847    3.4193   17.2306 N   0  0  0  0  0  0  0  0  0  0  0  0
   18.8959    5.3749   18.0484 O   0  0  0  0  0  0  0  0  0  0  0  0
   18.6281    4.8083   16.7572 C   0  0  2  0  0  0  0  0  0  0  0  0
   21.1456    8.1012   15.1129 N   0  0  0  0  0  0  0  0  0  0  0  0
   16.3831    4.1889   17.4045 O   0  0  0  0  0  0  0  0  0  0  0  0
   17.6352    3.6582   16.9617 C   0  0  1  0  0  0  0  0  0  0  0  0
   20.7740    5.4009   15.6965 O   0  0  0  0  0  0  0  0  0  0  0  0
   17.4223    2.8872   15.6574 C   0  0  1  0  0  0  0  0  0  0  0  0
   22.1616    5.5228   17.5934 O   0  0  0  0  0  0  0  0  0  0  0  0
   18.7476    2.2599   15.2244 C   0  0  0  0  0  0  0  0  0  0  0  0
   25.2510    5.5511   15.6107 O   0  0  0  0  0  0  0  0  0  0  0  0
   19.7686    3.3715   14.9650 C   0  0  1  0  0  0  0  0  0  0  0  0
   24.0490    8.0746   14.9383 O   0  0  0  0  0  0  0  0  0  0  0  0
   19.9432    4.3206   16.1568 C   0  0  2  0  0  0  0  0  0  0  0  0
   18.1840    5.9860   20.9745 O   0  0  0  0  0  0  0  0  0  0  0  0
   21.2732    6.2602   16.7334 C   0  0  1  0  0  0  0  0  0  0  0  0
   16.0830    7.5216   20.4998 O   0  0  0  0  0  0  0  0  0  0  0  0
   23.3084    4.9719   16.9237 C   0  0  2  0  0  0  0  0  0  0  0  0
   24.1611    4.2055   17.9376 C   0  0  0  0  0  0  0  0  0  0  0  0
   24.1462    6.1057   16.3298 C   0  0  2  0  0  0  0  0  0  0  0  0
   23.2906    6.9422   15.3762 C   0  0  1  0  0  0  0  0  0  0  0  0
   22.0226    7.4280   16.0833 C   0  0  1  0  0  0  0  0  0  0  0  0
   18.3042    6.8561   19.8466 C   0  0  2  0  0  0  0  0  0  0  0  0
   17.3130    8.0106   19.9591 C   0  0  1  0  0  0  0  0  0  0  0  0
  1  3  1  0  0  0  0
  4  1  1  1  0  0  0
  4  6  1  0  0  0  0
  4 31  1  0  0  0  0
  6  7  1  0  0  0  0
  7  9  1  6  0  0  0
  7 30  1  0  0  0  0
  8 26  1  0  0  0  0
 10  9  1  1  0  0  0
 10 13  1  0  0  0  0
 10 21  1  0  0  0  0
 13 12  1  6  0  0  0
 13 15  1  0  0  0  0
 15  2  1  1  0  0  0
 15 17  1  0  0  0  0
 16 25  1  0  0  0  0
 16 23  1  0  0  0  0
 17 19  1  0  0  0  0
 19  5  1  1  0  0  0
 19 21  1  0  0  0  0
 21 14  1  6  0  0  0
 23 14  1  6  0  0  0
 23 29  1  0  0  0  0
 25 26  1  1  0  0  0
 25 27  1  0  0  0  0
 27 18  1  6  0  0  0
 27 28  1  0  0  0  0
 28 20  1  1  0  0  0
 28 29  1  0  0  0  0
 29 11  1  6  0  0  0
 30 22  1  1  0  0  0
 30 31  1  0  0  0  0
 31 24  1  6  0  0  0
M  END
>  <CHROM.1>
173.36676086,-61.10140029,-75.98949765,64.95636361,66.32923400,168.88479445
19.98362699,5.78810122,17.14010812,-2.74889884,-0.28685361,-2.72011739

>  <Name>
ligand

>  <RI>
0

>  <Rbt.Current_Directory>
/home/itssahil/PROJECTS/Mol_Feturizer/New_Systems/rnas/3DVV

>  <Rbt.Executable>
rbdock ($Id: //depot/dev/client3/rdock/2013.1/src/exe/rbdock.cxx#4 $)

>  <Rbt.Library>
libRbt.so (2013.1, Build901 2013/11/27)

>  <Rbt.Parameter_File>
/export/apps/rDock/src/rDock_2013.1_src/data/scripts/dock_solv.prm

>  <Rbt.Receptor>
prm/pocket_docking_5.prm

>  <SCORE>
-15.5843

>  <SCORE.INTER>
-12.1142

>  <SCORE.INTER.CONST>
1

>  <SCORE.INTER.POLAR>
0

>  <SCORE.INTER.ROT>
6

>  <SCORE.INTER.SOLV>
21.7728

>  <SCORE.INTER.VDW>
-22.9337

>  <SCORE.INTER.norm>
-0.39078

>  <SCORE.INTRA>
-3.4701

>  <SCORE.INTRA.DIHEDRAL>
-8.45307

>  <SCORE.INTRA.DIHEDRAL.0>
10.8172

>  <SCORE.INTRA.POLAR>
0

>  <SCORE.INTRA.POLAR.0>
0

>  <SCORE.INTRA.REPUL>
0

>  <SCORE.INTRA.REPUL.0>
0

>  <SCORE.INTRA.SOLV>
-3.35482

>  <SCORE.INTRA.SOLV.lig_0>
-80.3833

>  <SCORE.INTRA.VDW>
2.43385

>  <SCORE.INTRA.VDW.0>
-4.63762

>  <SCORE.INTRA.norm>
-0.111939

>  <SCORE.RESTR>
0

>  <SCORE.RESTR.CAVITY>
0

>  <SCORE.RESTR.norm>
0

>  <SCORE.SYSTEM>
0

>  <SCORE.SYSTEM.CONST>
0

>  <SCORE.SYSTEM.DIHEDRAL>
0

>  <SCORE.SYSTEM.SOLV>
0

>  <SCORE.SYSTEM.norm>
0

>  <SCORE.heavy>
31

>  <SCORE.norm>
-0.502719

>  <RMSD>
2.215

$$$$
ligand
 OpenBabel11021811473D
libRbt.so/2013.1/901 2013/11/27
 31 33  0  0  0  0  0  0  0  0999 V2000
   18.0790    9.6584   18.2064 C   0  0  0  0  0  0  0  0  0  0  0  0
   16.4449    1.8517   15.8067 N   0  0  0  0  0  0  0  0  0  0  0  0
   17.5839   10.8076   18.9015 O   0  0  0  0  0  0  0  0  0  0  0  0
   17.1870    8.4467   18.4880 C   0  0  1  0  0  0  0  0  0  0  0  0
   21.1192    2.7677   14.7041 N   0  0  0  0  0  0  0  0  0  0  0  0
   17.6035    7.3258   17.6840 O   0  0  0  0  0  0  0  0  0  0  0  0
   17.8530    6.2062   18.5524 C   0  0  1  0  0  0  0  0  0  0  0  0
   25.2537    3.4973   17.2556 N   0  0  0  0  0  0  0  0  0  0  0  0
   18.9166    5.3770   18.0585 O   0  0  0  0  0  0  0  0  0  0  0  0
   18.6588    4.8168   16.7625 C   0  0  2  0  0  0  0  0  0  0  0  0
   21.1512    8.1275   15.1559 N   0  0  0  0  0  0  0  0  0  0  0  0
   16.4105    4.1901   17.3908 O   0  0  0  0  0  0  0  0  0  0  0  0
   17.6665    3.6639   16.9539 C   0  0  1  0  0  0  0  0  0  0  0  0
   20.8110    5.4188   15.7199 O   0  0  0  0  0  0  0  0  0  0  0  0
   17.4641    2.8996   15.6440 C   0  0  1  0  0  0  0  0  0  0  0  0
   22.1911    5.5448   17.6219 O   0  0  0  0  0  0  0  0  0  0  0  0
   18.7935    2.2769   15.2169 C   0  0  0  0  0  0  0  0  0  0  0  0
   25.2860    5.6246   15.6492 O   0  0  0  0  0  0  0  0  0  0  0  0
   19.8143    3.3917   14.9705 C   0  0  1  0  0  0  0  0  0  0  0  0
   24.0552    8.1377   14.9903 O   0  0  0  0  0  0  0  0  0  0  0  0
   19.9789    4.3347   16.1686 C   0  0  2  0  0  0  0  0  0  0  0  0
   18.2019    6.0043   20.9804 O   0  0  0  0  0  0  0  0  0  0  0  0
   21.2963    6.2771   16.7642 C   0  0  1  0  0  0  0  0  0  0  0  0
   16.0970    7.5314   20.4955 O   0  0  0  0  0  0  0  0  0  0  0  0
   23.3466    5.0126   16.9521 C   0  0  2  0  0  0  0  0  0  0  0  0
   24.2056    4.2497   17.9634 C   0  0  0  0  0  0  0  0  0  0  0  0
   24.1723    6.1606   16.3685 C   0  0  2  0  0  0  0  0  0  0  0  0
   23.3094    6.9931   15.4180 C   0  0  1  0  0  0  0  0  0  0  0  0
   22.0333    7.4584   16.1244 C   0  0  1  0  0  0  0  0  0  0  0  0
   18.3202    6.8677   19.8473 C   0  0  2  0  0  0  0  0  0  0  0  0
   17.3259    8.0202   19.9522 C   0  0  1  0  0  0  0  0  0  0  0  0
  1  3  1  0  0  0  0
  4  1  1  1  0  0  0
  4  6  1  0  0  0  0
  4 31  1  0  0  0  0
  6  7  1  0  0  0  0
  7  9  1  6  0  0  0
  7 30  1  0  0  0  0
  8 26  1  0  0  0  0
 10  9  1  1  0  0  0
 10 13  1  0  0  0  0
 10 21  1  0  0  0  0
 13 12  1  6  0  0  0
 13 15  1  0  0  0  0
 15  2  1  1  0  0  0
 15 17  1  0  0  0  0
 16 25  1  0  0  0  0
 16 23  1  0  0  0  0
 17 19  1  0  0  0  0
 19  5  1  1  0  0  0
 19 21  1  0  0  0  0
 21 14  1  6  0  0  0
 23 14  1  6  0  0  0
 23 29  1  0  0  0  0
 25 26  1  1  0  0  0
 25 27  1  0  0  0  0
 27 18  1  6  0  0  0
 27 28  1  0  0  0  0
 28 20  1  1  0  0  0
 28 29  1  0  0  0  0
 29 11  1  6  0  0  0
 30 22  1  1  0  0  0
 30 31  1  0  0  0  0
 31 24  1  6  0  0  0
M  END
>  <CHROM.1>
174.17836963,-60.27478669,-76.24998914,65.66896933,66.05639625,169.74351199
20.01076000,5.81009570,17.15159584,-2.75915912,-0.28154458,-2.71798565

>  <Name>
ligand

>  <RI>
0

>  <Rbt.Current_Directory>
/home/itssahil/PROJECTS/Mol_Feturizer/New_Systems/rnas/3DVV

>  <Rbt.Executable>
rbdock ($Id: //depot/dev/client3/rdock/2013.1/src/exe/rbdock.cxx#4 $)

>  <Rbt.Library>
libRbt.so (2013.1, Build901 2013/11/27)

>  <Rbt.Parameter_File>
/export/apps/rDock/src/rDock_2013.1_src/data/scripts/dock_solv.prm

>  <Rbt.Receptor>
prm/pocket_docking_4.prm

>  <SCORE>
-15.6271

>  <SCORE.INTER>
-12.199

>  <SCORE.INTER.CONST>
1

>  <SCORE.INTER.POLAR>
0

>  <SCORE.INTER.ROT>
6

>  <SCORE.INTER.SOLV>
21.8251

>  <SCORE.INTER.VDW>
-23.0077

>  <SCORE.INTER.norm>
-0.393517

>  <SCORE.INTRA>
-3.42807

>  <SCORE.INTRA.DIHEDRAL>
-8.49885

>  <SCORE.INTRA.DIHEDRAL.0>
10.8172

>  <SCORE.INTRA.POLAR>
0

>  <SCORE.INTRA.POLAR.0>
0

>  <SCORE.INTRA.REPUL>
0

>  <SCORE.INTRA.REPUL.0>
0

>  <SCORE.INTRA.SOLV>
-3.29939

>  <SCORE.INTRA.SOLV.lig_0>
-80.3833

>  <SCORE.INTRA.VDW>
2.47104

>  <SCORE.INTRA.VDW.0>
-4.63762

>  <SCORE.INTRA.norm>
-0.110583

>  <SCORE.RESTR>
0

>  <SCORE.RESTR.CAVITY>
0

>  <SCORE.RESTR.norm>
0

>  <SCORE.SYSTEM>
0

>  <SCORE.SYSTEM.CONST>
0

>  <SCORE.SYSTEM.DIHEDRAL>
0

>  <SCORE.SYSTEM.SOLV>
0

>  <SCORE.SYSTEM.norm>
0

>  <SCORE.heavy>
31

>  <SCORE.norm>
-0.5041

>  <RMSD>
2.220

$$$$
ligand
 OpenBabel11021811473D
libRbt.so/2013.1/901 2013/11/27
 31 33  0  0  0  0  0  0  0  0999 V2000
   18.1046    9.6635   18.2039 C   0  0  0  0  0  0  0  0  0  0  0  0
   16.4479    1.8429   15.8209 N   0  0  0  0  0  0  0  0  0  0  0  0
   17.6183   10.8135   18.9039 O   0  0  0  0  0  0  0  0  0  0  0  0
   17.2064    8.4562   18.4845 C   0  0  1  0  0  0  0  0  0  0  0  0
   21.1153    2.7676   14.6965 N   0  0  0  0  0  0  0  0  0  0  0  0
   17.6179    7.3334   17.6805 O   0  0  0  0  0  0  0  0  0  0  0  0
   17.8611    6.2124   18.5488 C   0  0  1  0  0  0  0  0  0  0  0  0
   25.2571    3.4887   17.2191 N   0  0  0  0  0  0  0  0  0  0  0  0
   18.9211    5.3781   18.0555 O   0  0  0  0  0  0  0  0  0  0  0  0
   18.6590    4.8149   16.7616 C   0  0  2  0  0  0  0  0  0  0  0  0
   21.1552    8.1270   15.1432 N   0  0  0  0  0  0  0  0  0  0  0  0
   16.4148    4.1842   17.4007 O   0  0  0  0  0  0  0  0  0  0  0  0
   17.6702    3.6601   16.9595 C   0  0  1  0  0  0  0  0  0  0  0  0
   20.8053    5.4199   15.7088 O   0  0  0  0  0  0  0  0  0  0  0  0
   17.4639    2.8929   15.6519 C   0  0  1  0  0  0  0  0  0  0  0  0
   22.1972    5.5389   17.6026 O   0  0  0  0  0  0  0  0  0  0  0  0
   18.7929    2.2724   15.2202 C   0  0  0  0  0  0  0  0  0  0  0  0
   25.2808    5.6041   15.6118 O   0  0  0  0  0  0  0  0  0  0  0  0
   19.8101    3.3891   14.9674 C   0  0  1  0  0  0  0  0  0  0  0  0
   24.0582    8.1232   14.9605 O   0  0  0  0  0  0  0  0  0  0  0  0
   19.9777    4.3347   16.1630 C   0  0  2  0  0  0  0  0  0  0  0  0
   18.2072    6.0082   20.9771 O   0  0  0  0  0  0  0  0  0  0  0  0
   21.3009    6.2756   16.7503 C   0  0  1  0  0  0  0  0  0  0  0  0
   16.1103    7.5458   20.4909 O   0  0  0  0  0  0  0  0  0  0  0  0
   23.3462    5.0012   16.9259 C   0  0  2  0  0  0  0  0  0  0  0  0
   24.2075    4.2341   17.9321 C   0  0  0  0  0  0  0  0  0  0  0  0
   24.1739    6.1454   16.3377 C   0  0  2  0  0  0  0  0  0  0  0  0
   23.3094    6.9822   15.3924 C   0  0  1  0  0  0  0  0  0  0  0  0
   22.0398    7.4536   16.1064 C   0  0  1  0  0  0  0  0  0  0  0  0
   18.3306    6.8713   19.8442 C   0  0  2  0  0  0  0  0  0  0  0  0
   17.3420    8.0287   19.9487 C   0  0  1  0  0  0  0  0  0  0  0  0
  1  3  1  0  0  0  0
  4  1  1  1  0  0  0
  4  6  1  0  0  0  0
  4 31  1  0  0  0  0
  6  7  1  0  0  0  0
  7  9  1  6  0  0  0
  7 30  1  0  0  0  0
  8 26  1  0  0  0  0
 10  9  1  1  0  0  0
 10 13  1  0  0  0  0
 10 21  1  0  0  0  0
 13 12  1  6  0  0  0
 13 15  1  0  0  0  0
 15  2  1  1  0  0  0
 15 17  1  0  0  0  0
 16 25  1  0  0  0  0
 16 23  1  0  0  0  0
 17 19  1  0  0  0  0
 19  5  1  1  0  0  0
 19 21  1  0  0  0  0
 21 14  1  6  0  0  0
 23 14  1  6  0  0  0
 23 29  1  0  0  0  0
 25 26  1  1  0  0  0
 25 27  1  0  0  0  0
 27 18  1  6  0  0  0
 27 28  1  0  0  0  0
 28 20  1  1  0  0  0
 28 29  1  0  0  0  0
 29 11  1  6  0  0  0
 30 22  1  1  0  0  0
 30 31  1  0  0  0  0
 31 24  1  6  0  0  0
M  END
>  <CHROM.1>
174.44481399,-60.52708823,-76.61486962,65.29107876,66.47856311,170.37120820
20.01643672,5.80768031,17.14196912,-2.75499785,-0.28603053,-2.72013175

>  <Name>
ligand

>  <RI>
0

>  <Rbt.Current_Directory>
/home/itssahil/PROJECTS/Mol_Feturizer/New_Systems/rnas/3DVV

>  <Rbt.Executable>
rbdock ($Id: //depot/dev/client3/rdock/2013.1/src/exe/rbdock.cxx#4 $)

>  <Rbt.Library>
libRbt.so (2013.1, Build901 2013/11/27)

>  <Rbt.Parameter_File>
/export/apps/rDock/src/rDock_2013.1_src/data/scripts/dock_solv.prm

>  <Rbt.Receptor>
prm/pocket_docking_7.prm

>  <SCORE>
-15.6719

>  <SCORE.INTER>
-12.2364

>  <SCORE.INTER.CONST>
1

>  <SCORE.INTER.POLAR>
0

>  <SCORE.INTER.ROT>
6

>  <SCORE.INTER.SOLV>
21.8412

>  <SCORE.INTER.VDW>
-23.038

>  <SCORE.INTER.norm>
-0.394723

>  <SCORE.INTRA>
-3.43548

>  <SCORE.INTRA.DIHEDRAL>
-8.4946

>  <SCORE.INTRA.DIHEDRAL.0>
10.8172

>  <SCORE.INTRA.POLAR>
0

>  <SCORE.INTRA.POLAR.0>
0

>  <SCORE.INTRA.REPUL>
0

>  <SCORE.INTRA.REPUL.0>
0

>  <SCORE.INTRA.SOLV>
-3.27202

>  <SCORE.INTRA.SOLV.lig_0>
-80.3833

>  <SCORE.INTRA.VDW>
2.44783

>  <SCORE.INTRA.VDW.0>
-4.63762

>  <SCORE.INTRA.norm>
-0.110822

>  <SCORE.RESTR>
0

>  <SCORE.RESTR.CAVITY>
0

>  <SCORE.RESTR.norm>
0

>  <SCORE.SYSTEM>
0

>  <SCORE.SYSTEM.CONST>
0

>  <SCORE.SYSTEM.DIHEDRAL>
0

>  <SCORE.SYSTEM.SOLV>
0

>  <SCORE.SYSTEM.norm>
0

>  <SCORE.heavy>
31

>  <SCORE.norm>
-0.505545

>  <RMSD>
2.222

$$$$
ligand
 OpenBabel11021811473D
libRbt.so/2013.1/901 2013/11/27
 31 33  0  0  0  0  0  0  0  0999 V2000
   18.0518    9.6499   18.2159 C   0  0  0  0  0  0  0  0  0  0  0  0
   16.4285    1.8314   15.8651 N   0  0  0  0  0  0  0  0  0  0  0  0
   17.5805   10.7928   18.9373 O   0  0  0  0  0  0  0  0  0  0  0  0
   17.1711    8.4350   18.5187 C   0  0  1  0  0  0  0  0  0  0  0  0
   21.0832    2.7701   14.7006 N   0  0  0  0  0  0  0  0  0  0  0  0
   17.5812    7.3115   17.7148 O   0  0  0  0  0  0  0  0  0  0  0  0
   17.8506    6.1986   18.5859 C   0  0  1  0  0  0  0  0  0  0  0  0
   25.2394    3.5243   17.2580 N   0  0  0  0  0  0  0  0  0  0  0  0
   18.9110    5.3724   18.0802 O   0  0  0  0  0  0  0  0  0  0  0  0
   18.6393    4.8092   16.7883 C   0  0  2  0  0  0  0  0  0  0  0  0
   21.1264    8.1237   15.1324 N   0  0  0  0  0  0  0  0  0  0  0  0
   16.4025    4.1717   17.4466 O   0  0  0  0  0  0  0  0  0  0  0  0
   17.6555    3.6514   16.9941 C   0  0  1  0  0  0  0  0  0  0  0  0
   20.7745    5.4209   15.7171 O   0  0  0  0  0  0  0  0  0  0  0  0
   17.4401    2.8844   15.6879 C   0  0  1  0  0  0  0  0  0  0  0  0
   22.1606    5.5541   17.6143 O   0  0  0  0  0  0  0  0  0  0  0  0
   18.7669    2.2680   15.2443 C   0  0  0  0  0  0  0  0  0  0  0  0
   25.2503    5.6043   15.6325 O   0  0  0  0  0  0  0  0  0  0  0  0
   19.7787    3.3877   14.9833 C   0  0  1  0  0  0  0  0  0  0  0  0
   24.0299    8.1185   14.9586 O   0  0  0  0  0  0  0  0  0  0  0  0
   19.9540    4.3331   16.1779 C   0  0  2  0  0  0  0  0  0  0  0  0
   18.2386    6.0132   21.0093 O   0  0  0  0  0  0  0  0  0  0  0  0
   21.2670    6.2844   16.7538 C   0  0  1  0  0  0  0  0  0  0  0  0
   16.1179    7.5257   20.5484 O   0  0  0  0  0  0  0  0  0  0  0  0
   23.3117    5.0113   16.9452 C   0  0  2  0  0  0  0  0  0  0  0  0
   24.1698    4.2517   17.9597 C   0  0  0  0  0  0  0  0  0  0  0  0
   24.1413    6.1510   16.3510 C   0  0  2  0  0  0  0  0  0  0  0  0
   23.2798    6.9807   15.3968 C   0  0  1  0  0  0  0  0  0  0  0  0
   22.0080    7.4575   16.1033 C   0  0  1  0  0  0  0  0  0  0  0  0
   18.3343    6.8705   19.8693 C   0  0  2  0  0  0  0  0  0  0  0  0
   17.3354    8.0181   19.9830 C   0  0  1  0  0  0  0  0  0  0  0  0
  1  3  1  0  0  0  0
  4  1  1  6  0  0  0
  4  6  1  0  0  0  0
  4 31  1  0  0  0  0
  6  7  1  0  0  0  0
  7  9  1  6  0  0  0
  7 30  1  0  0  0  0
  8 26  1  0  0  0  0
 10  9  1  1  0  0  0
 10 13  1  0  0  0  0
 10 21  1  0  0  0  0
 13 12  1  6  0  0  0
 13 15  1  0  0  0  0
 15  2  1  1  0  0  0
 15 17  1  0  0  0  0
 16 25  1  0  0  0  0
 16 23  1  0  0  0  0
 17 19  1  0  0  0  0
 19  5  1  1  0  0  0
 19 21  1  0  0  0  0
 21 14  1  6  0  0  0
 23 14  1  6  0  0  0
 23 29  1  0  0  0  0
 25 26  1  1  0  0  0
 25 27  1  0  0  0  0
 27 18  1  6  0  0  0
 27 28  1  0  0  0  0
 28 20  1  1  0  0  0
 28 29  1  0  0  0  0
 29 11  1  6  0  0  0
 30 22  1  1  0  0  0
 30 31  1  0  0  0  0
 31 24  1  6  0  0  0
M  END
>  <CHROM.1>
175.57371651,-59.93598887,-76.35456591,64.82788054,65.94866426,171.59037045
19.99333312,5.80472819,17.16488180,-2.75620344,-0.29030540,-2.71732686

>  <Name>
ligand

>  <RI>
0

>  <Rbt.Current_Directory>
/home/itssahil/PROJECTS/Mol_Feturizer/New_Systems/rnas/3DVV

>  <Rbt.Executable>
rbdock ($Id: //depot/dev/client3/rdock/2013.1/src/exe/rbdock.cxx#4 $)

>  <Rbt.Library>
libRbt.so (2013.1, Build901 2013/11/27)

>  <Rbt.Parameter_File>
/export/apps/rDock/src/rDock_2013.1_src/data/scripts/dock_solv.prm

>  <Rbt.Receptor>
prm/pocket_docking_5.prm

>  <SCORE>
-15.5893

>  <SCORE.INTER>
-12.1455

>  <SCORE.INTER.CONST>
1

>  <SCORE.INTER.POLAR>
0

>  <SCORE.INTER.ROT>
6

>  <SCORE.INTER.SOLV>
21.9249

>  <SCORE.INTER.VDW>
-23.0053

>  <SCORE.INTER.norm>
-0.391789

>  <SCORE.INTRA>
-3.44383

>  <SCORE.INTRA.DIHEDRAL>
-8.70275

>  <SCORE.INTRA.DIHEDRAL.0>
10.8172

>  <SCORE.INTRA.POLAR>
0

>  <SCORE.INTRA.POLAR.0>
0

>  <SCORE.INTRA.REPUL>
0

>  <SCORE.INTRA.REPUL.0>
0

>  <SCORE.INTRA.SOLV>
-3.26912

>  <SCORE.INTRA.SOLV.lig_0>
-80.3833

>  <SCORE.INTRA.VDW>
2.54211

>  <SCORE.INTRA.VDW.0>
-4.63762

>  <SCORE.INTRA.norm>
-0.111091

>  <SCORE.RESTR>
0

>  <SCORE.RESTR.CAVITY>
0

>  <SCORE.RESTR.norm>
0

>  <SCORE.SYSTEM>
0

>  <SCORE.SYSTEM.CONST>
0

>  <SCORE.SYSTEM.DIHEDRAL>
0

>  <SCORE.SYSTEM.SOLV>
0

>  <SCORE.SYSTEM.norm>
0

>  <SCORE.heavy>
31

>  <SCORE.norm>
-0.50288

>  <RMSD>
2.228

$$$$
ligand
 OpenBabel11021811473D
libRbt.so/2013.1/901 2013/11/27
 31 33  0  0  0  0  0  0  0  0999 V2000
   18.0311    9.6691   18.2197 C   0  0  0  0  0  0  0  0  0  0  0  0
   16.4494    1.8577   15.8378 N   0  0  0  0  0  0  0  0  0  0  0  0
   17.5308   10.8088   18.9265 O   0  0  0  0  0  0  0  0  0  0  0  0
   17.1577    8.4452   18.5067 C   0  0  1  0  0  0  0  0  0  0  0  0
   21.1160    2.7781   14.7067 N   0  0  0  0  0  0  0  0  0  0  0  0
   17.5828    7.3310   17.6978 O   0  0  0  0  0  0  0  0  0  0  0  0
   17.8541    6.2138   18.5627 C   0  0  1  0  0  0  0  0  0  0  0  0
   25.2236    3.4554   17.2311 N   0  0  0  0  0  0  0  0  0  0  0  0
   18.9249    5.3995   18.0592 O   0  0  0  0  0  0  0  0  0  0  0  0
   18.6617    4.8323   16.7673 C   0  0  2  0  0  0  0  0  0  0  0  0
   21.1721    8.1366   15.1349 N   0  0  0  0  0  0  0  0  0  0  0  0
   16.4179    4.2040   17.4102 O   0  0  0  0  0  0  0  0  0  0  0  0
   17.6729    3.6783   16.9696 C   0  0  1  0  0  0  0  0  0  0  0  0
   20.8072    5.4336   15.7108 O   0  0  0  0  0  0  0  0  0  0  0  0
   17.4654    2.9070   15.6647 C   0  0  1  0  0  0  0  0  0  0  0  0
   22.1977    5.5527   17.6057 O   0  0  0  0  0  0  0  0  0  0  0  0
   18.7939    2.2849   15.2339 C   0  0  0  0  0  0  0  0  0  0  0  0
   25.2837    5.5937   15.6179 O   0  0  0  0  0  0  0  0  0  0  0  0
   19.8111    3.4007   14.9767 C   0  0  1  0  0  0  0  0  0  0  0  0
   24.0752    8.1167   14.9553 O   0  0  0  0  0  0  0  0  0  0  0  0
   19.9798    4.3500   16.1692 C   0  0  2  0  0  0  0  0  0  0  0  0
   18.2249    6.0134   20.9876 O   0  0  0  0  0  0  0  0  0  0  0  0
   21.3063    6.2908   16.7495 C   0  0  1  0  0  0  0  0  0  0  0  0
   16.0959    7.5127   20.5214 O   0  0  0  0  0  0  0  0  0  0  0  0
   23.3446    5.0063   16.9323 C   0  0  2  0  0  0  0  0  0  0  0  0
   24.2007    4.2387   17.9424 C   0  0  0  0  0  0  0  0  0  0  0  0
   24.1790    6.1437   16.3405 C   0  0  2  0  0  0  0  0  0  0  0  0
   23.3199    6.9814   15.3910 C   0  0  1  0  0  0  0  0  0  0  0  0
   22.0521    7.4623   16.1017 C   0  0  1  0  0  0  0  0  0  0  0  0
   18.3227    6.8798   19.8547 C   0  0  2  0  0  0  0  0  0  0  0  0
   17.3139    8.0187   19.9691 C   0  0  1  0  0  0  0  0  0  0  0  0
  1  3  1  0  0  0  0
  4  1  1  1  0  0  0
  4  6  1  0  0  0  0
  4 31  1  0  0  0  0
  6  7  1  0  0  0  0
  7  9  1  6  0  0  0
  7 30  1  0  0  0  0
  8 26  1  0  0  0  0
 10  9  1  1  0  0  0
 10 13  1  0  0  0  0
 10 21  1  0  0  0  0
 13 12  1  6  0  0  0
 13 15  1  0  0  0  0
 15  2  1  1  0  0  0
 15 17  1  0  0  0  0
 16 25  1  0  0  0  0
 16 23  1  0  0  0  0
 17 19  1  0  0  0  0
 19  5  1  1  0  0  0
 19 21  1  0  0  0  0
 21 14  1  6  0  0  0
 23 14  1  6  0  0  0
 23 29  1  0  0  0  0
 25 26  1  1  0  0  0
 25 27  1  0  0  0  0
 27 18  1  6  0  0  0
 27 28  1  0  0  0  0
 28 20  1  1  0  0  0
 28 29  1  0  0  0  0
 29 11  1  6  0  0  0
 30 22  1  1  0  0  0
 30 31  1  0  0  0  0
 31 24  1  6  0  0  0
M  END
>  <CHROM.1>
174.51667884,-60.56270069,-75.42262690,64.94104468,66.61167080,168.81204464
20.00869046,5.81177742,17.15120908,-2.75310114,-0.28704498,-2.72119410

>  <Name>
ligand

>  <RI>
0

>  <Rbt.Current_Directory>
/home/itssahil/PROJECTS/Mol_Feturizer/New_Systems/rnas/3DVV

>  <Rbt.Executable>
rbdock ($Id: //depot/dev/client3/rdock/2013.1/src/exe/rbdock.cxx#4 $)

>  <Rbt.Library>
libRbt.so (2013.1, Build901 2013/11/27)

>  <Rbt.Parameter_File>
/export/apps/rDock/src/rDock_2013.1_src/data/scripts/dock_solv.prm

>  <Rbt.Receptor>
prm/pocket_docking_5.prm

>  <SCORE>
-15.7135

>  <SCORE.INTER>
-12.2603

>  <SCORE.INTER.CONST>
1

>  <SCORE.INTER.POLAR>
0

>  <SCORE.INTER.ROT>
6

>  <SCORE.INTER.SOLV>
21.8491

>  <SCORE.INTER.VDW>
-23.0566

>  <SCORE.INTER.norm>
-0.395494

>  <SCORE.INTRA>
-3.45318

>  <SCORE.INTRA.DIHEDRAL>
-8.56199

>  <SCORE.INTRA.DIHEDRAL.0>
10.8172

>  <SCORE.INTRA.POLAR>
0

>  <SCORE.INTRA.POLAR.0>
0

>  <SCORE.INTRA.REPUL>
0

>  <SCORE.INTRA.REPUL.0>
0

>  <SCORE.INTRA.SOLV>
-3.34691

>  <SCORE.INTRA.SOLV.lig_0>
-80.3833

>  <SCORE.INTRA.VDW>
2.50127

>  <SCORE.INTRA.VDW.0>
-4.63762

>  <SCORE.INTRA.norm>
-0.111393

>  <SCORE.RESTR>
0

>  <SCORE.RESTR.CAVITY>
0

>  <SCORE.RESTR.norm>
0

>  <SCORE.SYSTEM>
0

>  <SCORE.SYSTEM.CONST>
0

>  <SCORE.SYSTEM.DIHEDRAL>
0

>  <SCORE.SYSTEM.SOLV>
0

>  <SCORE.SYSTEM.norm>
0

>  <SCORE.heavy>
31

>  <SCORE.norm>
-0.506887

>  <RMSD>
2.232

$$$$
ligand
 OpenBabel11021811473D
libRbt.so/2013.1/901 2013/11/27
 31 33  0  0  0  0  0  0  0  0999 V2000
   15.4082    3.2204   19.3718 C   0  0  0  0  0  0  0  0  0  0  0  0
   17.6972    0.3852   13.7943 N   0  0  0  0  0  0  0  0  0  0  0  0
   14.8860    1.9912   18.8570 O   0  0  0  0  0  0  0  0  0  0  0  0
   16.9070    3.3215   19.0772 C   0  0  1  0  0  0  0  0  0  0  0  0
   21.8025    2.7115   15.0745 N   0  0  0  0  0  0  0  0  0  0  0  0
   17.1427    3.2159   17.6595 O   0  0  0  0  0  0  0  0  0  0  0  0
   17.9017    4.3617   17.2344 C   0  0  1  0  0  0  0  0  0  0  0  0
   24.5687    3.7325   17.5059 N   0  0  0  0  0  0  0  0  0  0  0  0
   17.5567    4.7622   15.8989 O   0  0  0  0  0  0  0  0  0  0  0  0
   18.2302    4.0113   14.8779 C   0  0  2  0  0  0  0  0  0  0  0  0
   20.5306    7.9495   14.5939 N   0  0  0  0  0  0  0  0  0  0  0  0
   16.2392    2.7290   14.3936 O   0  0  0  0  0  0  0  0  0  0  0  0
   17.5926    2.6175   14.8424 C   0  0  1  0  0  0  0  0  0  0  0  0
   20.3919    5.1930   14.9851 O   0  0  0  0  0  0  0  0  0  0  0  0
   18.3621    1.6932   13.8966 C   0  0  1  0  0  0  0  0  0  0  0  0
   21.2592    5.3639   17.1661 O   0  0  0  0  0  0  0  0  0  0  0  0
   19.7883    1.5174   14.4186 C   0  0  0  0  0  0  0  0  0  0  0  0
   24.7000    5.8892   15.9995 O   0  0  0  0  0  0  0  0  0  0  0  0
   20.4885    2.8794   14.4353 C   0  0  1  0  0  0  0  0  0  0  0  0
   23.3692    8.2855   15.1326 O   0  0  0  0  0  0  0  0  0  0  0  0
   19.7154    3.9457   15.2208 C   0  0  2  0  0  0  0  0  0  0  0  0
   18.3687    6.5479   18.2641 O   0  0  0  0  0  0  0  0  0  0  0  0
   20.5114    6.0403   16.1386 C   0  0  1  0  0  0  0  0  0  0  0  0
   18.7723    4.6163   20.0259 O   0  0  0  0  0  0  0  0  0  0  0  0
   22.5951    4.9986   16.7799 C   0  0  2  0  0  0  0  0  0  0  0  0
   23.2757    4.2795   17.9470 C   0  0  0  0  0  0  0  0  0  0  0  0
   23.3924    6.2601   16.4439 C   0  0  2  0  0  0  0  0  0  0  0  0
   22.6853    7.0446   15.3367 C   0  0  1  0  0  0  0  0  0  0  0  0
   21.2325    7.3284   15.7276 C   0  0  1  0  0  0  0  0  0  0  0  0
   17.4477    5.4566   18.1976 C   0  0  2  0  0  0  0  0  0  0  0  0
   17.4384    4.6889   19.5161 C   0  0  1  0  0  0  0  0  0  0  0  0
  1  3  1  0  0  0  0
  4  1  1  6  0  0  0
  4  6  1  0  0  0  0
  4 31  1  0  0  0  0
  6  7  1  0  0  0  0
  7  9  1  6  0  0  0
  7 30  1  0  0  0  0
  8 26  1  0  0  0  0
 10  9  1  1  0  0  0
 10 13  1  0  0  0  0
 10 21  1  0  0  0  0
 13 12  1  6  0  0  0
 13 15  1  0  0  0  0
 15  2  1  1  0  0  0
 15 17  1  0  0  0  0
 16 25  1  0  0  0  0
 16 23  1  0  0  0  0
 17 19  1  0  0  0  0
 19  5  1  1  0  0  0
 19 21  1  0  0  0  0
 21 14  1  6  0  0  0
 23 14  1  6  0  0  0
 23 29  1  0  0  0  0
 25 26  1  1  0  0  0
 25 27  1  0  0  0  0
 27 18  1  6  0  0  0
 27 28  1  0  0  0  0
 28 20  1  1  0  0  0
 28 29  1  0  0  0  0
 29 11  1  6  0  0  0
 30 22  1  1  0  0  0
 30 31  1  0  0  0  0
 31 24  1  6  0  0  0
M  END
>  <CHROM.1>
57.31038967,-82.70190271,73.26152919,60.36787692,95.15596713,172.01321195
19.66928712,4.43404610,16.43730711,3.01688875,-0.47676752,-2.20370761

>  <Name>
ligand

>  <RI>
0

>  <Rbt.Current_Directory>
/home/itssahil/PROJECTS/Mol_Feturizer/New_Systems/rnas/3DVV

>  <Rbt.Executable>
rbdock ($Id: //depot/dev/client3/rdock/2013.1/src/exe/rbdock.cxx#4 $)

>  <Rbt.Library>
libRbt.so (2013.1, Build901 2013/11/27)

>  <Rbt.Parameter_File>
/export/apps/rDock/src/rDock_2013.1_src/data/scripts/dock_solv.prm

>  <Rbt.Receptor>
prm/pocket_docking_2.prm

>  <SCORE>
-4.2348

>  <SCORE.INTER>
-5.90178

>  <SCORE.INTER.CONST>
1

>  <SCORE.INTER.POLAR>
0

>  <SCORE.INTER.ROT>
6

>  <SCORE.INTER.SOLV>
21.1355

>  <SCORE.INTER.VDW>
-18.5797

>  <SCORE.INTER.norm>
-0.19038

>  <SCORE.INTRA>
0.883

>  <SCORE.INTRA.DIHEDRAL>
-2.86428

>  <SCORE.INTRA.DIHEDRAL.0>
10.8172

>  <SCORE.INTRA.POLAR>
0

>  <SCORE.INTRA.POLAR.0>
0

>  <SCORE.INTRA.REPUL>
0

>  <SCORE.INTRA.REPUL.0>
0

>  <SCORE.INTRA.SOLV>
0.111097

>  <SCORE.INTRA.SOLV.lig_0>
-80.3833

>  <SCORE.INTRA.VDW>
2.25959

>  <SCORE.INTRA.VDW.0>
-4.63762

>  <SCORE.INTRA.norm>
0.0284839

>  <SCORE.RESTR>
0.783981

>  <SCORE.RESTR.CAVITY>
0.783981

>  <SCORE.RESTR.norm>
0.0252897

>  <SCORE.SYSTEM>
0

>  <SCORE.SYSTEM.CONST>
0

>  <SCORE.SYSTEM.DIHEDRAL>
0

>  <SCORE.SYSTEM.SOLV>
0

>  <SCORE.SYSTEM.norm>
0

>  <SCORE.heavy>
31

>  <SCORE.norm>
-0.136606

>  <RMSD>
2.259

$$$$
ligand
 OpenBabel11021811473D
libRbt.so/2013.1/901 2013/11/27
 31 33  0  0  0  0  0  0  0  0999 V2000
   17.0011    7.7091   20.4136 C   0  0  0  0  0  0  0  0  0  0  0  0
   17.2380    1.2439   15.1861 N   0  0  0  0  0  0  0  0  0  0  0  0
   16.2515    6.5190   20.1483 O   0  0  0  0  0  0  0  0  0  0  0  0
   18.0039    7.9636   19.2853 C   0  0  1  0  0  0  0  0  0  0  0  0
   21.8076    2.8146   14.4406 N   0  0  0  0  0  0  0  0  0  0  0  0
   18.9086    6.8486   19.1641 O   0  0  0  0  0  0  0  0  0  0  0  0
   18.8747    6.3763   17.8056 C   0  0  1  0  0  0  0  0  0  0  0  0
   25.5619    3.4636   17.0289 N   0  0  0  0  0  0  0  0  0  0  0  0
   19.0694    4.9552   17.7318 O   0  0  0  0  0  0  0  0  0  0  0  0
   18.9708    4.4264   16.4011 C   0  0  2  0  0  0  0  0  0  0  0  0
   21.3574    8.1050   15.1839 N   0  0  0  0  0  0  0  0  0  0  0  0
   16.7915    3.4822   16.8504 O   0  0  0  0  0  0  0  0  0  0  0  0
   18.1316    3.1458   16.4811 C   0  0  1  0  0  0  0  0  0  0  0  0
   21.0842    5.3527   15.5314 O   0  0  0  0  0  0  0  0  0  0  0  0
   18.1160    2.4228   15.1328 C   0  0  1  0  0  0  0  0  0  0  0  0
   22.4172    5.3700   17.4707 O   0  0  0  0  0  0  0  0  0  0  0  0
   19.5409    2.0001   14.7745 C   0  0  0  0  0  0  0  0  0  0  0  0
   25.5517    5.6862   15.5863 O   0  0  0  0  0  0  0  0  0  0  0  0
   20.4167    3.2492   14.6403 C   0  0  1  0  0  0  0  0  0  0  0  0
   24.2629    8.2078   15.0908 O   0  0  0  0  0  0  0  0  0  0  0  0
   20.3782    4.1494   15.8813 C   0  0  2  0  0  0  0  0  0  0  0  0
   17.3051    6.7229   15.9417 O   0  0  0  0  0  0  0  0  0  0  0  0
   21.5208    6.1412   16.6496 C   0  0  1  0  0  0  0  0  0  0  0  0
   17.8843    9.0413   17.0762 O   0  0  0  0  0  0  0  0  0  0  0  0
   23.6025    4.9228   16.7908 C   0  0  2  0  0  0  0  0  0  0  0  0
   24.4607    4.1085   17.7618 C   0  0  0  0  0  0  0  0  0  0  0  0
   24.4070    6.1346   16.3168 C   0  0  2  0  0  0  0  0  0  0  0  0
   23.5416    7.0136   15.4117 C   0  0  1  0  0  0  0  0  0  0  0  0
   22.2369    7.3881   16.1199 C   0  0  1  0  0  0  0  0  0  0  0  0
   17.4467    6.6899   17.3638 C   0  0  2  0  0  0  0  0  0  0  0  0
   17.2696    8.0885   17.9473 C   0  0  1  0  0  0  0  0  0  0  0  0
  1  3  1  0  0  0  0
  4  1  1  1  0  0  0
  4  6  1  0  0  0  0
  4 31  1  0  0  0  0
  6  7  1  0  0  0  0
  7  9  1  1  0  0  0
  7 30  1  0  0  0  0
  8 26  1  0  0  0  0
 10  9  1  1  0  0  0
 10 13  1  0  0  0  0
 10 21  1  0  0  0  0
 13 12  1  6  0  0  0
 13 15  1  0  0  0  0
 15  2  1  1  0  0  0
 15 17  1  0  0  0  0
 16 25  1  0  0  0  0
 16 23  1  0  0  0  0
 17 19  1  0  0  0  0
 19  5  1  1  0  0  0
 19 21  1  0  0  0  0
 21 14  1  6  0  0  0
 23 14  1  6  0  0  0
 23 29  1  0  0  0  0
 25 26  1  1  0  0  0
 25 27  1  0  0  0  0
 27 18  1  6  0  0  0
 27 28  1  0  0  0  0
 28 20  1  1  0  0  0
 28 29  1  0  0  0  0
 29 11  1  6  0  0  0
 30 22  1  6  0  0  0
 30 31  1  0  0  0  0
 31 24  1  6  0  0  0
M  END
>  <CHROM.1>
-59.37430776,176.77985944,-136.11960144,60.27836270,72.98211290,170.87943394
20.29069323,5.50582921,16.71699545,-2.91511612,-0.21935715,-2.70385424

>  <Name>
ligand

>  <RI>
0

>  <Rbt.Current_Directory>
/home/itssahil/PROJECTS/Mol_Feturizer/New_Systems/rnas/3DVV

>  <Rbt.Executable>
rbdock ($Id: //depot/dev/client3/rdock/2013.1/src/exe/rbdock.cxx#4 $)

>  <Rbt.Library>
libRbt.so (2013.1, Build901 2013/11/27)

>  <Rbt.Parameter_File>
/export/apps/rDock/src/rDock_2013.1_src/data/scripts/dock_solv.prm

>  <Rbt.Receptor>
prm/pocket_docking_3.prm

>  <SCORE>
-9.91015

>  <SCORE.INTER>
-9.58582

>  <SCORE.INTER.CONST>
1

>  <SCORE.INTER.POLAR>
0

>  <SCORE.INTER.ROT>
6

>  <SCORE.INTER.SOLV>
20.9528

>  <SCORE.INTER.VDW>
-20.9748

>  <SCORE.INTER.norm>
-0.30922

>  <SCORE.INTRA>
-0.324325

>  <SCORE.INTRA.DIHEDRAL>
-3.43277

>  <SCORE.INTRA.DIHEDRAL.0>
10.8172

>  <SCORE.INTRA.POLAR>
0

>  <SCORE.INTRA.POLAR.0>
0

>  <SCORE.INTRA.REPUL>
0

>  <SCORE.INTRA.REPUL.0>
0

>  <SCORE.INTRA.SOLV>
-1.38338

>  <SCORE.INTRA.SOLV.lig_0>
-80.3833

>  <SCORE.INTRA.VDW>
2.08375

>  <SCORE.INTRA.VDW.0>
-4.63762

>  <SCORE.INTRA.norm>
-0.0104621

>  <SCORE.RESTR>
0

>  <SCORE.RESTR.CAVITY>
0

>  <SCORE.RESTR.norm>
0

>  <SCORE.SYSTEM>
0

>  <SCORE.SYSTEM.CONST>
0

>  <SCORE.SYSTEM.DIHEDRAL>
0

>  <SCORE.SYSTEM.SOLV>
0

>  <SCORE.SYSTEM.norm>
0

>  <SCORE.heavy>
31

>  <SCORE.norm>
-0.319682

>  <RMSD>
2.265

$$$$
ligand
 OpenBabel11021811473D
libRbt.so/2013.1/901 2013/11/27
 31 33  0  0  0  0  0  0  0  0999 V2000
   17.1269    9.7570   18.3135 C   0  0  0  0  0  0  0  0  0  0  0  0
   16.2181    2.0445   15.9783 N   0  0  0  0  0  0  0  0  0  0  0  0
   18.5470    9.6662   18.4687 O   0  0  0  0  0  0  0  0  0  0  0  0
   16.4723    8.4156   18.6529 C   0  0  1  0  0  0  0  0  0  0  0  0
   20.8863    2.9553   14.8459 N   0  0  0  0  0  0  0  0  0  0  0  0
   17.0138    7.3733   17.8181 O   0  0  0  0  0  0  0  0  0  0  0  0
   17.5070    6.3188   18.6634 C   0  0  1  0  0  0  0  0  0  0  0  0
   24.9457    3.4939   17.1771 N   0  0  0  0  0  0  0  0  0  0  0  0
   18.6577    5.6750   18.0937 O   0  0  0  0  0  0  0  0  0  0  0  0
   18.4063    5.0627   16.8202 C   0  0  2  0  0  0  0  0  0  0  0  0
   21.0440    8.3189   15.1558 N   0  0  0  0  0  0  0  0  0  0  0  0
   16.1622    4.4425   17.4700 O   0  0  0  0  0  0  0  0  0  0  0  0
   17.4232    3.9100   17.0553 C   0  0  1  0  0  0  0  0  0  0  0  0
   20.5549    5.6413   15.7574 O   0  0  0  0  0  0  0  0  0  0  0  0
   17.2289    3.0937   15.7760 C   0  0  1  0  0  0  0  0  0  0  0  0
   21.9993    5.6969   17.6144 O   0  0  0  0  0  0  0  0  0  0  0  0
   18.5639    2.4657   15.3749 C   0  0  0  0  0  0  0  0  0  0  0  0
   25.0297    5.5682   15.5464 O   0  0  0  0  0  0  0  0  0  0  0  0
   19.5759    3.5784   15.0864 C   0  0  1  0  0  0  0  0  0  0  0  0
   23.9364    8.1474   14.9005 O   0  0  0  0  0  0  0  0  0  0  0  0
   19.7311    4.5687   16.2470 C   0  0  2  0  0  0  0  0  0  0  0  0
   18.0525    6.1988   21.0605 O   0  0  0  0  0  0  0  0  0  0  0  0
   21.1250    6.4763   16.7774 C   0  0  1  0  0  0  0  0  0  0  0  0
   15.6930    7.3479   20.7286 O   0  0  0  0  0  0  0  0  0  0  0  0
   23.0981    5.0885   16.9147 C   0  0  2  0  0  0  0  0  0  0  0  0
   23.9397    4.2821   17.9066 C   0  0  0  0  0  0  0  0  0  0  0  0
   23.9744    6.1782   16.2944 C   0  0  2  0  0  0  0  0  0  0  0  0
   23.1352    7.0549   15.3626 C   0  0  1  0  0  0  0  0  0  0  0  0
   21.9131    7.6044   16.1033 C   0  0  1  0  0  0  0  0  0  0  0  0
   17.9455    7.0602   19.9246 C   0  0  2  0  0  0  0  0  0  0  0  0
   16.7819    8.0309   20.1024 C   0  0  1  0  0  0  0  0  0  0  0  0
  1  3  1  0  0  0  0
  4  1  1  6  0  0  0
  4  6  1  0  0  0  0
  4 31  1  0  0  0  0
  6  7  1  0  0  0  0
  7  9  1  6  0  0  0
  7 30  1  0  0  0  0
  8 26  1  0  0  0  0
 10  9  1  1  0  0  0
 10 13  1  0  0  0  0
 10 21  1  0  0  0  0
 13 12  1  6  0  0  0
 13 15  1  0  0  0  0
 15  2  1  1  0  0  0
 15 17  1  0  0  0  0
 16 25  1  0  0  0  0
 16 23  1  0  0  0  0
 17 19  1  0  0  0  0
 19  5  1  1  0  0  0
 19 21  1  0  0  0  0
 21 14  1  6  0  0  0
 23 14  1  6  0  0  0
 23 29  1  0  0  0  0
 25 26  1  1  0  0  0
 25 27  1  0  0  0  0
 27 18  1  6  0  0  0
 27 28  1  0  0  0  0
 28 20  1  1  0  0  0
 28 29  1  0  0  0  0
 29 11  1  6  0  0  0
 30 22  1  1  0  0  0
 30 31  1  0  0  0  0
 31 24  1  6  0  0  0
M  END
>  <CHROM.1>
-57.40219313,-60.57464166,-65.87598608,62.37564136,71.12664018,171.58917663
19.76049608,5.88687135,17.18853620,-2.81581168,-0.30215822,-2.70362765

>  <Name>
ligand

>  <RI>
0

>  <Rbt.Current_Directory>
/home/itssahil/PROJECTS/Mol_Feturizer/New_Systems/rnas/3DVV

>  <Rbt.Executable>
rbdock ($Id: //depot/dev/client3/rdock/2013.1/src/exe/rbdock.cxx#4 $)

>  <Rbt.Library>
libRbt.so (2013.1, Build901 2013/11/27)

>  <Rbt.Parameter_File>
/export/apps/rDock/src/rDock_2013.1_src/data/scripts/dock_solv.prm

>  <Rbt.Receptor>
prm/pocket_docking_3.prm

>  <SCORE>
-12.846

>  <SCORE.INTER>
-10.2609

>  <SCORE.INTER.CONST>
1

>  <SCORE.INTER.POLAR>
0

>  <SCORE.INTER.ROT>
6

>  <SCORE.INTER.SOLV>
19.9801

>  <SCORE.INTER.VDW>
-21.1006

>  <SCORE.INTER.norm>
-0.330997

>  <SCORE.INTRA>
-2.58512

>  <SCORE.INTRA.DIHEDRAL>
-9.49016

>  <SCORE.INTRA.DIHEDRAL.0>
10.8172

>  <SCORE.INTRA.POLAR>
0

>  <SCORE.INTRA.POLAR.0>
0

>  <SCORE.INTRA.REPUL>
0

>  <SCORE.INTRA.REPUL.0>
0

>  <SCORE.INTRA.SOLV>
-2.49085

>  <SCORE.INTRA.SOLV.lig_0>
-80.3833

>  <SCORE.INTRA.VDW>
3.40539

>  <SCORE.INTRA.VDW.0>
-4.63762

>  <SCORE.INTRA.norm>
-0.0833909

>  <SCORE.RESTR>
0

>  <SCORE.RESTR.CAVITY>
0

>  <SCORE.RESTR.norm>
0

>  <SCORE.SYSTEM>
0

>  <SCORE.SYSTEM.CONST>
0

>  <SCORE.SYSTEM.DIHEDRAL>
0

>  <SCORE.SYSTEM.SOLV>
0

>  <SCORE.SYSTEM.norm>
0

>  <SCORE.heavy>
31

>  <SCORE.norm>
-0.414388

>  <RMSD>
2.281

$$$$
ligand
 OpenBabel11021811473D
libRbt.so/2013.1/901 2013/11/27
 31 33  0  0  0  0  0  0  0  0999 V2000
   13.8962    2.4546   18.8683 C   0  0  0  0  0  0  0  0  0  0  0  0
   16.6931    0.6917   13.4779 N   0  0  0  0  0  0  0  0  0  0  0  0
   13.4841    3.7410   18.3948 O   0  0  0  0  0  0  0  0  0  0  0  0
   15.4217    2.3382   18.8190 C   0  0  1  0  0  0  0  0  0  0  0  0
   20.9517    2.4166   15.1492 N   0  0  0  0  0  0  0  0  0  0  0  0
   15.9001    2.6379   17.4932 O   0  0  0  0  0  0  0  0  0  0  0  0
   16.8865    3.6810   17.5867 C   0  0  1  0  0  0  0  0  0  0  0  0
   23.8412    4.2045   18.4076 N   0  0  0  0  0  0  0  0  0  0  0  0
   16.8606    4.5417   16.4372 O   0  0  0  0  0  0  0  0  0  0  0  0
   17.4797    3.9721   15.2743 C   0  0  2  0  0  0  0  0  0  0  0  0
   19.4224    7.6446   16.2591 N   0  0  0  0  0  0  0  0  0  0  0  0
   15.4036    2.9571   14.5659 O   0  0  0  0  0  0  0  0  0  0  0  0
   16.7456    2.6627   14.9629 C   0  0  1  0  0  0  0  0  0  0  0  0
   19.7193    4.9547   15.5907 O   0  0  0  0  0  0  0  0  0  0  0  0
   17.4484    1.9018   13.8368 C   0  0  1  0  0  0  0  0  0  0  0  0
   21.2664    4.5965   17.3275 O   0  0  0  0  0  0  0  0  0  0  0  0
   18.8586    1.5246   14.2911 C   0  0  0  0  0  0  0  0  0  0  0  0
   24.0128    6.2332   15.5234 O   0  0  0  0  0  0  0  0  0  0  0  0
   19.6529    2.8025   14.5769 C   0  0  1  0  0  0  0  0  0  0  0  0
   22.2193    8.4166   16.0539 O   0  0  0  0  0  0  0  0  0  0  0  0
   18.9566    3.7353   15.5753 C   0  0  2  0  0  0  0  0  0  0  0  0
   17.4712    5.2913   19.3539 O   0  0  0  0  0  0  0  0  0  0  0  0
   20.1417    5.3840   16.8945 C   0  0  1  0  0  0  0  0  0  0  0  0
   17.2475    2.8646   20.3828 O   0  0  0  0  0  0  0  0  0  0  0  0
   22.4158    4.6875   16.4685 C   0  0  2  0  0  0  0  0  0  0  0  0
   23.5308    3.8002   17.0270 C   0  0  0  0  0  0  0  0  0  0  0  0
   22.9093    6.1348   16.4277 C   0  0  2  0  0  0  0  0  0  0  0  0
   21.7835    7.0567   15.9544 C   0  0  1  0  0  0  0  0  0  0  0  0
   20.5354    6.8630   16.8196 C   0  0  1  0  0  0  0  0  0  0  0  0
   16.4276    4.4859   18.8009 C   0  0  2  0  0  0  0  0  0  0  0  0
   16.0582    3.3615   19.7638 C   0  0  1  0  0  0  0  0  0  0  0  0
  1  3  1  0  0  0  0
  4  1  1  6  0  0  0
  4  6  1  0  0  0  0
  4 31  1  0  0  0  0
  6  7  1  0  0  0  0
  7  9  1  6  0  0  0
  7 30  1  0  0  0  0
  8 26  1  0  0  0  0
 10  9  1  1  0  0  0
 10 13  1  0  0  0  0
 10 21  1  0  0  0  0
 13 12  1  6  0  0  0
 13 15  1  0  0  0  0
 15  2  1  1  0  0  0
 15 17  1  0  0  0  0
 16 25  1  0  0  0  0
 16 23  1  0  0  0  0
 17 19  1  0  0  0  0
 19  5  1  1  0  0  0
 19 21  1  0  0  0  0
 21 14  1  6  0  0  0
 23 14  1  6  0  0  0
 23 29  1  0  0  0  0
 25 26  1  1  0  0  0
 25 27  1  0  0  0  0
 27 18  1  6  0  0  0
 27 28  1  0  0  0  0
 28 20  1  1  0  0  0
 28 29  1  0  0  0  0
 29 11  1  6  0  0  0
 30 22  1  1  0  0  0
 30 31  1  0  0  0  0
 31 24  1  6  0  0  0
M  END
>  <CHROM.1>
-54.27678150,-76.83005072,58.22751054,77.24928589,107.81715133,-56.97461414
18.80754426,4.14960502,16.68077036,3.05661287,-0.41409030,-2.13068761

>  <Name>
ligand

>  <RI>
0

>  <Rbt.Current_Directory>
/home/itssahil/PROJECTS/Mol_Feturizer/New_Systems/rnas/3DVV

>  <Rbt.Executable>
rbdock ($Id: //depot/dev/client3/rdock/2013.1/src/exe/rbdock.cxx#4 $)

>  <Rbt.Library>
libRbt.so (2013.1, Build901 2013/11/27)

>  <Rbt.Parameter_File>
/export/apps/rDock/src/rDock_2013.1_src/data/scripts/dock_solv.prm

>  <Rbt.Receptor>
prm/pocket_docking_3.prm

>  <SCORE>
-3.37051

>  <SCORE.INTER>
-5.49227

>  <SCORE.INTER.CONST>
1

>  <SCORE.INTER.POLAR>
0

>  <SCORE.INTER.ROT>
6

>  <SCORE.INTER.SOLV>
22.8586

>  <SCORE.INTER.VDW>
-18.881

>  <SCORE.INTER.norm>
-0.17717

>  <SCORE.INTRA>
2.12177

>  <SCORE.INTRA.DIHEDRAL>
-1.43199

>  <SCORE.INTRA.DIHEDRAL.0>
10.8172

>  <SCORE.INTRA.POLAR>
0

>  <SCORE.INTRA.POLAR.0>
0

>  <SCORE.INTRA.REPUL>
0

>  <SCORE.INTRA.REPUL.0>
0

>  <SCORE.INTRA.SOLV>
0.430742

>  <SCORE.INTRA.SOLV.lig_0>
-80.3833

>  <SCORE.INTRA.VDW>
2.62239

>  <SCORE.INTRA.VDW.0>
-4.63762

>  <SCORE.INTRA.norm>
0.0684441

>  <SCORE.RESTR>
0

>  <SCORE.RESTR.CAVITY>
0

>  <SCORE.RESTR.norm>
0

>  <SCORE.SYSTEM>
0

>  <SCORE.SYSTEM.CONST>
0

>  <SCORE.SYSTEM.DIHEDRAL>
0

>  <SCORE.SYSTEM.SOLV>
0

>  <SCORE.SYSTEM.norm>
0

>  <SCORE.heavy>
31

>  <SCORE.norm>
-0.108726

>  <RMSD>
2.358

$$$$
ligand
 OpenBabel11021811473D
libRbt.so/2013.1/901 2013/11/27
 31 33  0  0  0  0  0  0  0  0999 V2000
   14.0194    2.3978   18.5101 C   0  0  0  0  0  0  0  0  0  0  0  0
   17.5808    0.5654   13.4453 N   0  0  0  0  0  0  0  0  0  0  0  0
   13.5459    3.6312   17.9593 O   0  0  0  0  0  0  0  0  0  0  0  0
   15.5498    2.3868   18.5407 C   0  0  1  0  0  0  0  0  0  0  0  0
   21.4016    3.0180   15.2591 N   0  0  0  0  0  0  0  0  0  0  0  0
   16.0749    2.6566   17.2261 O   0  0  0  0  0  0  0  0  0  0  0  0
   16.9819    3.7698   17.3145 C   0  0  1  0  0  0  0  0  0  0  0  0
   23.8727    4.1799   16.8300 N   0  0  0  0  0  0  0  0  0  0  0  0
   16.9572    4.5715   16.1230 O   0  0  0  0  0  0  0  0  0  0  0  0
   17.7388    4.0319   15.0468 C   0  0  2  0  0  0  0  0  0  0  0  0
   18.5548    7.7973   16.0172 N   0  0  0  0  0  0  0  0  0  0  0  0
   15.8937    2.6711   14.2810 O   0  0  0  0  0  0  0  0  0  0  0  0
   17.2311    2.6094   14.7841 C   0  0  1  0  0  0  0  0  0  0  0  0
   19.7790    5.3615   15.4353 O   0  0  0  0  0  0  0  0  0  0  0  0
   18.1205    1.8961   13.7638 C   0  0  1  0  0  0  0  0  0  0  0  0
   21.3205    5.6079   17.1964 O   0  0  0  0  0  0  0  0  0  0  0  0
   19.5329    1.7667   14.3344 C   0  0  0  0  0  0  0  0  0  0  0  0
   23.3631    8.0490   15.3674 O   0  0  0  0  0  0  0  0  0  0  0  0
   20.1066    3.1657   14.5776 C   0  0  1  0  0  0  0  0  0  0  0  0
   20.9139    9.4868   15.8135 O   0  0  0  0  0  0  0  0  0  0  0  0
   19.2078    4.0416   15.4589 C   0  0  2  0  0  0  0  0  0  0  0  0
   17.3635    5.4987   19.0242 O   0  0  0  0  0  0  0  0  0  0  0  0
   20.0011    5.9444   16.7290 C   0  0  1  0  0  0  0  0  0  0  0  0
   17.2521    3.1134   20.1625 O   0  0  0  0  0  0  0  0  0  0  0  0
   22.3833    6.0700   16.3455 C   0  0  2  0  0  0  0  0  0  0  0  0
   23.7259    5.6400   16.9414 C   0  0  0  0  0  0  0  0  0  0  0  0
   22.3450    7.5971   16.2643 C   0  0  2  0  0  0  0  0  0  0  0  0
   20.9787    8.0581   15.7523 C   0  0  1  0  0  0  0  0  0  0  0  0
   19.8588    7.4656   16.6117 C   0  0  1  0  0  0  0  0  0  0  0  0
   16.4071    4.5967   18.4627 C   0  0  2  0  0  0  0  0  0  0  0  0
   16.0655    3.4957   19.4623 C   0  0  1  0  0  0  0  0  0  0  0  0
  1  3  1  0  0  0  0
  4  1  1  6  0  0  0
  4  6  1  0  0  0  0
  4 31  1  0  0  0  0
  6  7  1  0  0  0  0
  7  9  1  6  0  0  0
  7 30  1  0  0  0  0
  8 26  1  0  0  0  0
 10  9  1  1  0  0  0
 10 13  1  0  0  0  0
 10 21  1  0  0  0  0
 13 12  1  6  0  0  0
 13 15  1  0  0  0  0
 15  2  1  1  0  0  0
 15 17  1  0  0  0  0
 16 25  1  0  0  0  0
 16 23  1  0  0  0  0
 17 19  1  0  0  0  0
 19  5  1  1  0  0  0
 19 21  1  0  0  0  0
 21 14  1  6  0  0  0
 23 14  1  6  0  0  0
 23 29  1  0  0  0  0
 25 26  1  1  0  0  0
 25 27  1  0  0  0  0
 27 18  1  6  0  0  0
 27 28  1  0  0  0  0
 28 20  1  1  0  0  0
 28 29  1  0  0  0  0
 29 11  1  6  0  0  0
 30 22  1  1  0  0  0
 30 31  1  0  0  0  0
 31 24  1  6  0  0  0
M  END
>  <CHROM.1>
-54.58864035,-80.34004437,55.92559684,90.13441295,106.19864903,69.55802665
18.81772107,4.57284276,16.44224796,2.82432031,-0.49455069,-2.45807133

>  <Name>
ligand

>  <RI>
0

>  <Rbt.Current_Directory>
/home/itssahil/PROJECTS/Mol_Feturizer/New_Systems/rnas/3DVV

>  <Rbt.Executable>
rbdock ($Id: //depot/dev/client3/rdock/2013.1/src/exe/rbdock.cxx#4 $)

>  <Rbt.Library>
libRbt.so (2013.1, Build901 2013/11/27)

>  <Rbt.Parameter_File>
/export/apps/rDock/src/rDock_2013.1_src/data/scripts/dock_solv.prm

>  <Rbt.Receptor>
prm/pocket_docking_3.prm

>  <SCORE>
-5.98157

>  <SCORE.INTER>
-9.23201

>  <SCORE.INTER.CONST>
1

>  <SCORE.INTER.POLAR>
0

>  <SCORE.INTER.ROT>
6

>  <SCORE.INTER.SOLV>
15.5545

>  <SCORE.INTER.VDW>
-18.9395

>  <SCORE.INTER.norm>
-0.297807

>  <SCORE.INTRA>
3.25044

>  <SCORE.INTRA.DIHEDRAL>
1.50239

>  <SCORE.INTRA.DIHEDRAL.0>
10.8172

>  <SCORE.INTRA.POLAR>
0

>  <SCORE.INTRA.POLAR.0>
0

>  <SCORE.INTRA.REPUL>
0

>  <SCORE.INTRA.REPUL.0>
0

>  <SCORE.INTRA.SOLV>
0.598689

>  <SCORE.INTRA.SOLV.lig_0>
-80.3833

>  <SCORE.INTRA.VDW>
2.1999

>  <SCORE.INTRA.VDW.0>
-4.63762

>  <SCORE.INTRA.norm>
0.104853

>  <SCORE.RESTR>
0

>  <SCORE.RESTR.CAVITY>
0

>  <SCORE.RESTR.norm>
0

>  <SCORE.SYSTEM>
0

>  <SCORE.SYSTEM.CONST>
0

>  <SCORE.SYSTEM.DIHEDRAL>
0

>  <SCORE.SYSTEM.SOLV>
0

>  <SCORE.SYSTEM.norm>
0

>  <SCORE.heavy>
31

>  <SCORE.norm>
-0.192954

>  <RMSD>
2.398

$$$$
ligand
 OpenBabel11021811473D
libRbt.so/2013.1/901 2013/11/27
 31 33  0  0  0  0  0  0  0  0999 V2000
   17.3962    2.9176   21.3132 C   0  0  0  0  0  0  0  0  0  0  0  0
   17.3338    0.9120   13.3958 N   0  0  0  0  0  0  0  0  0  0  0  0
   18.6318    3.1240   22.0056 O   0  0  0  0  0  0  0  0  0  0  0  0
   17.0857    4.1201   20.4182 C   0  0  1  0  0  0  0  0  0  0  0  0
   19.8211    5.0739   12.7671 N   0  0  0  0  0  0  0  0  0  0  0  0
   18.1437    4.3116   19.4590 O   0  0  0  0  0  0  0  0  0  0  0  0
   17.5693    4.3282   18.1401 C   0  0  1  0  0  0  0  0  0  0  0  0
   22.6501    4.1670   16.3710 N   0  0  0  0  0  0  0  0  0  0  0  0
   18.4600    3.7635   17.1651 O   0  0  0  0  0  0  0  0  0  0  0  0
   17.9473    3.7980   15.8250 C   0  0  2  0  0  0  0  0  0  0  0  0
   17.9130    8.5458   16.1423 N   0  0  0  0  0  0  0  0  0  0  0  0
   16.8878    1.6414   16.0879 O   0  0  0  0  0  0  0  0  0  0  0  0
   17.8718    2.3493   15.3289 C   0  0  1  0  0  0  0  0  0  0  0  0
   18.7568    6.0503   15.2307 O   0  0  0  0  0  0  0  0  0  0  0  0
   17.4941    2.3027   13.8470 C   0  0  1  0  0  0  0  0  0  0  0  0
   20.3988    5.8876   16.9086 O   0  0  0  0  0  0  0  0  0  0  0  0
   18.5842    2.9969   13.0302 C   0  0  0  0  0  0  0  0  0  0  0  0
   22.6734    8.2260   15.2249 O   0  0  0  0  0  0  0  0  0  0  0  0
   18.6742    4.4648   13.4577 C   0  0  1  0  0  0  0  0  0  0  0  0
   20.4723    9.9176   15.9723 O   0  0  0  0  0  0  0  0  0  0  0  0
   18.8843    4.6422   14.9663 C   0  0  2  0  0  0  0  0  0  0  0  0
   15.3920    3.6119   17.2433 O   0  0  0  0  0  0  0  0  0  0  0  0
   19.1187    6.4479   16.5625 C   0  0  1  0  0  0  0  0  0  0  0  0
   15.0356    5.0566   19.4304 O   0  0  0  0  0  0  0  0  0  0  0  0
   21.4744    6.2972   16.0469 C   0  0  2  0  0  0  0  0  0  0  0  0
   22.7705    5.6272   16.5092 C   0  0  0  0  0  0  0  0  0  0  0  0
   21.6456    7.8151   16.1304 C   0  0  2  0  0  0  0  0  0  0  0  0
   20.3344    8.5092   15.7562 C   0  0  1  0  0  0  0  0  0  0  0  0
   19.1845    7.9779   16.6161 C   0  0  1  0  0  0  0  0  0  0  0  0
   16.3586    3.4071   18.2763 C   0  0  2  0  0  0  0  0  0  0  0  0
   15.8030    3.8654   19.6214 C   0  0  1  0  0  0  0  0  0  0  0  0
  1  3  1  0  0  0  0
  4  1  1  1  0  0  0
  4  6  1  0  0  0  0
  4 31  1  0  0  0  0
  6  7  1  0  0  0  0
  7  9  1  6  0  0  0
  7 30  1  0  0  0  0
  8 26  1  0  0  0  0
 10  9  1  1  0  0  0
 10 13  1  0  0  0  0
 10 21  1  0  0  0  0
 13 12  1  1  0  0  0
 13 15  1  0  0  0  0
 15  2  1  6  0  0  0
 15 17  1  0  0  0  0
 16 25  1  0  0  0  0
 16 23  1  0  0  0  0
 17 19  1  0  0  0  0
 19  5  1  6  0  0  0
 19 21  1  0  0  0  0
 21 14  1  1  0  0  0
 23 14  1  6  0  0  0
 23 29  1  0  0  0  0
 25 26  1  1  0  0  0
 25 27  1  0  0  0  0
 27 18  1  6  0  0  0
 27 28  1  0  0  0  0
 28 20  1  1  0  0  0
 28 29  1  0  0  0  0
 29 11  1  6  0  0  0
 30 22  1  6  0  0  0
 30 31  1  0  0  0  0
 31 24  1  6  0  0  0
M  END
>  <CHROM.1>
59.31103188,-178.07602341,-120.30059934,49.21900034,63.45099538,63.42301039
18.72962631,4.91584905,16.66335285,-2.91485175,-0.87921562,-1.97715977

>  <Name>
ligand

>  <RI>
0

>  <Rbt.Current_Directory>
/home/itssahil/PROJECTS/Mol_Feturizer/New_Systems/rnas/3DVV

>  <Rbt.Executable>
rbdock ($Id: //depot/dev/client3/rdock/2013.1/src/exe/rbdock.cxx#4 $)

>  <Rbt.Library>
libRbt.so (2013.1, Build901 2013/11/27)

>  <Rbt.Parameter_File>
/export/apps/rDock/src/rDock_2013.1_src/data/scripts/dock_solv.prm

>  <Rbt.Receptor>
prm/pocket_docking_4.prm

>  <SCORE>
-5.39356

>  <SCORE.INTER>
-4.53854

>  <SCORE.INTER.CONST>
1

>  <SCORE.INTER.POLAR>
0

>  <SCORE.INTER.ROT>
6

>  <SCORE.INTER.SOLV>
15.5293

>  <SCORE.INTER.VDW>
-15.8021

>  <SCORE.INTER.norm>
-0.146405

>  <SCORE.INTRA>
-0.859063

>  <SCORE.INTRA.DIHEDRAL>
-2.67282

>  <SCORE.INTRA.DIHEDRAL.0>
10.8172

>  <SCORE.INTRA.POLAR>
0

>  <SCORE.INTRA.POLAR.0>
0

>  <SCORE.INTRA.REPUL>
0

>  <SCORE.INTRA.REPUL.0>
0

>  <SCORE.INTRA.SOLV>
-3.3436

>  <SCORE.INTRA.SOLV.lig_0>
-80.3833

>  <SCORE.INTRA.VDW>
2.14915

>  <SCORE.INTRA.VDW.0>
-4.63762

>  <SCORE.INTRA.norm>
-0.0277117

>  <SCORE.RESTR>
0.00404804

>  <SCORE.RESTR.CAVITY>
0.00404804

>  <SCORE.RESTR.norm>
0.000130582

>  <SCORE.SYSTEM>
0

>  <SCORE.SYSTEM.CONST>
0

>  <SCORE.SYSTEM.DIHEDRAL>
0

>  <SCORE.SYSTEM.SOLV>
0

>  <SCORE.SYSTEM.norm>
0

>  <SCORE.heavy>
31

>  <SCORE.norm>
-0.173986

>  <RMSD>
2.405

$$$$
ligand
 OpenBabel11021811473D
libRbt.so/2013.1/901 2013/11/27
 31 33  0  0  0  0  0  0  0  0999 V2000
   14.4250    2.9650   20.1420 C   0  0  0  0  0  0  0  0  0  0  0  0
   16.2408    0.8267   14.2904 N   0  0  0  0  0  0  0  0  0  0  0  0
   13.5692    2.1039   19.3838 O   0  0  0  0  0  0  0  0  0  0  0  0
   15.8899    2.6994   19.7861 C   0  0  1  0  0  0  0  0  0  0  0  0
   20.7642    2.4502   15.1888 N   0  0  0  0  0  0  0  0  0  0  0  0
   16.1104    2.9347   18.3816 O   0  0  0  0  0  0  0  0  0  0  0  0
   17.1876    3.8775   18.2383 C   0  0  1  0  0  0  0  0  0  0  0  0
   24.5000    4.0207   17.0582 N   0  0  0  0  0  0  0  0  0  0  0  0
   17.0053    4.7226   17.0913 O   0  0  0  0  0  0  0  0  0  0  0  0
   17.4056    4.1133   15.8549 C   0  0  2  0  0  0  0  0  0  0  0  0
   19.3100    7.7930   15.8296 N   0  0  0  0  0  0  0  0  0  0  0  0
   15.2134    3.1498   15.5258 O   0  0  0  0  0  0  0  0  0  0  0  0
   16.5945    2.8216   15.7002 C   0  0  1  0  0  0  0  0  0  0  0  0
   19.6924    5.0324   15.7711 O   0  0  0  0  0  0  0  0  0  0  0  0
   17.0780    2.0193   14.4906 C   0  0  1  0  0  0  0  0  0  0  0  0
   21.0141    5.0794   17.7177 O   0  0  0  0  0  0  0  0  0  0  0  0
   18.5336    1.6074   14.7121 C   0  0  0  0  0  0  0  0  0  0  0  0
   23.9589    6.3873   15.9586 O   0  0  0  0  0  0  0  0  0  0  0  0
   19.3990    2.8653   14.8321 C   0  0  1  0  0  0  0  0  0  0  0  0
   22.1093    8.5830   15.8076 O   0  0  0  0  0  0  0  0  0  0  0  0
   18.9051    3.8368   15.9110 C   0  0  2  0  0  0  0  0  0  0  0  0
   18.2716    5.4444   19.7964 O   0  0  0  0  0  0  0  0  0  0  0  0
   19.9499    5.7306   16.9995 C   0  0  1  0  0  0  0  0  0  0  0  0
   18.0399    3.0639   20.9266 O   0  0  0  0  0  0  0  0  0  0  0  0
   22.2605    5.0242   17.0031 C   0  0  2  0  0  0  0  0  0  0  0  0
   23.3000    4.3008   17.8626 C   0  0  0  0  0  0  0  0  0  0  0  0
   22.7524    6.4457   16.7243 C   0  0  2  0  0  0  0  0  0  0  0  0
   21.6918    7.2200   15.9390 C   0  0  1  0  0  0  0  0  0  0  0  0
   20.3469    7.1733   16.6690 C   0  0  1  0  0  0  0  0  0  0  0  0
   17.0660    4.7382   19.4942 C   0  0  2  0  0  0  0  0  0  0  0  0
   16.8001    3.6671   20.5478 C   0  0  1  0  0  0  0  0  0  0  0  0
  1  3  1  0  0  0  0
  4  1  1  1  0  0  0
  4  6  1  0  0  0  0
  4 31  1  0  0  0  0
  6  7  1  0  0  0  0
  7  9  1  6  0  0  0
  7 30  1  0  0  0  0
  8 26  1  0  0  0  0
 10  9  1  1  0  0  0
 10 13  1  0  0  0  0
 10 21  1  0  0  0  0
 13 12  1  6  0  0  0
 13 15  1  0  0  0  0
 15  2  1  1  0  0  0
 15 17  1  0  0  0  0
 16 25  1  0  0  0  0
 16 23  1  0  0  0  0
 17 19  1  0  0  0  0
 19  5  1  1  0  0  0
 19 21  1  0  0  0  0
 21 14  1  6  0  0  0
 23 14  1  6  0  0  0
 23 29  1  0  0  0  0
 25 26  1  1  0  0  0
 25 27  1  0  0  0  0
 27 18  1  6  0  0  0
 27 28  1  0  0  0  0
 28 20  1  1  0  0  0
 28 29  1  0  0  0  0
 29 11  1  6  0  0  0
 30 22  1  1  0  0  0
 30 31  1  0  0  0  0
 31 24  1  6  0  0  0
M  END
>  <CHROM.1>
59.64234028,-81.02652310,57.65405587,79.06497341,87.17378785,169.79929063
18.86829092,4.29194289,17.11222157,-3.10260483,-0.50880402,-1.98450887

>  <Name>
ligand

>  <RI>
0

>  <Rbt.Current_Directory>
/home/itssahil/PROJECTS/Mol_Feturizer/New_Systems/rnas/3DVV

>  <Rbt.Executable>
rbdock ($Id: //depot/dev/client3/rdock/2013.1/src/exe/rbdock.cxx#4 $)

>  <Rbt.Library>
libRbt.so (2013.1, Build901 2013/11/27)

>  <Rbt.Parameter_File>
/export/apps/rDock/src/rDock_2013.1_src/data/scripts/dock_solv.prm

>  <Rbt.Receptor>
prm/pocket_docking_3.prm

>  <SCORE>
-7.25281

>  <SCORE.INTER>
-7.29886

>  <SCORE.INTER.CONST>
1

>  <SCORE.INTER.POLAR>
0

>  <SCORE.INTER.ROT>
6

>  <SCORE.INTER.SOLV>
20.0297

>  <SCORE.INTER.VDW>
-19.1425

>  <SCORE.INTER.norm>
-0.235447

>  <SCORE.INTRA>
0.0460529

>  <SCORE.INTRA.DIHEDRAL>
-3.63087

>  <SCORE.INTRA.DIHEDRAL.0>
10.8172

>  <SCORE.INTRA.POLAR>
0

>  <SCORE.INTRA.POLAR.0>
0

>  <SCORE.INTRA.REPUL>
0

>  <SCORE.INTRA.REPUL.0>
0

>  <SCORE.INTRA.SOLV>
-1.45055

>  <SCORE.INTRA.SOLV.lig_0>
-80.3833

>  <SCORE.INTRA.VDW>
2.58676

>  <SCORE.INTRA.VDW.0>
-4.63762

>  <SCORE.INTRA.norm>
0.00148558

>  <SCORE.RESTR>
0

>  <SCORE.RESTR.CAVITY>
0

>  <SCORE.RESTR.norm>
0

>  <SCORE.SYSTEM>
0

>  <SCORE.SYSTEM.CONST>
0

>  <SCORE.SYSTEM.DIHEDRAL>
0

>  <SCORE.SYSTEM.SOLV>
0

>  <SCORE.SYSTEM.norm>
0

>  <SCORE.heavy>
31

>  <SCORE.norm>
-0.233962

>  <RMSD>
2.544

$$$$
ligand
 OpenBabel11021811473D
libRbt.so/2013.1/901 2013/11/27
 31 33  0  0  0  0  0  0  0  0999 V2000
   13.8735    2.4406   18.7759 C   0  0  0  0  0  0  0  0  0  0  0  0
   17.3907    0.5268   13.6364 N   0  0  0  0  0  0  0  0  0  0  0  0
   13.3945    2.0871   20.0776 O   0  0  0  0  0  0  0  0  0  0  0  0
   15.4018    2.3634   18.7372 C   0  0  1  0  0  0  0  0  0  0  0  0
   21.2306    3.1016   15.2270 N   0  0  0  0  0  0  0  0  0  0  0  0
   15.8796    2.6415   17.4065 O   0  0  0  0  0  0  0  0  0  0  0  0
   16.8375    3.7125   17.4779 C   0  0  1  0  0  0  0  0  0  0  0  0
   23.6647    4.2771   16.8555 N   0  0  0  0  0  0  0  0  0  0  0  0
   16.7954    4.5424   16.3063 O   0  0  0  0  0  0  0  0  0  0  0  0
   17.5349    4.0130   15.1960 C   0  0  2  0  0  0  0  0  0  0  0  0
   18.3241    7.8453   15.9989 N   0  0  0  0  0  0  0  0  0  0  0  0
   15.6913    2.5944   14.5394 O   0  0  0  0  0  0  0  0  0  0  0  0
   17.0540    2.5745   14.9729 C   0  0  1  0  0  0  0  0  0  0  0  0
   19.5548    5.4016   15.4659 O   0  0  0  0  0  0  0  0  0  0  0  0
   17.9090    1.8750   13.9143 C   0  0  1  0  0  0  0  0  0  0  0  0
   21.1156    5.7020   17.2013 O   0  0  0  0  0  0  0  0  0  0  0  0
   19.3521    1.7901   14.4119 C   0  0  0  0  0  0  0  0  0  0  0  0
   23.1228    8.1054   15.2852 O   0  0  0  0  0  0  0  0  0  0  0  0
   19.8985    3.2067   14.6124 C   0  0  1  0  0  0  0  0  0  0  0  0
   20.6710    9.5413   15.7232 O   0  0  0  0  0  0  0  0  0  0  0  0
   19.0224    4.0670   15.5311 C   0  0  2  0  0  0  0  0  0  0  0  0
   17.3694    5.3828   19.2057 O   0  0  0  0  0  0  0  0  0  0  0  0
   19.7889    6.0193   16.7412 C   0  0  1  0  0  0  0  0  0  0  0  0
   17.2041    2.9783   20.2960 O   0  0  0  0  0  0  0  0  0  0  0  0
   22.1658    6.1474   16.3260 C   0  0  2  0  0  0  0  0  0  0  0  0
   23.5177    5.7401   16.9168 C   0  0  0  0  0  0  0  0  0  0  0  0
   22.1179    7.6716   16.2056 C   0  0  2  0  0  0  0  0  0  0  0  0
   20.7432    8.1119   15.6983 C   0  0  1  0  0  0  0  0  0  0  0  0
   19.6368    7.5361   16.5862 C   0  0  1  0  0  0  0  0  0  0  0  0
   16.3507    4.5359   18.6685 C   0  0  2  0  0  0  0  0  0  0  0  0
   16.0056    3.4273   19.6584 C   0  0  1  0  0  0  0  0  0  0  0  0
  1  3  1  0  0  0  0
  4  1  1  6  0  0  0
  4  6  1  0  0  0  0
  4 31  1  0  0  0  0
  6  7  1  0  0  0  0
  7  9  1  6  0  0  0
  7 30  1  0  0  0  0
  8 26  1  0  0  0  0
 10  9  1  1  0  0  0
 10 13  1  0  0  0  0
 10 21  1  0  0  0  0
 13 12  1  6  0  0  0
 13 15  1  0  0  0  0
 15  2  1  1  0  0  0
 15 17  1  0  0  0  0
 16 25  1  0  0  0  0
 16 23  1  0  0  0  0
 17 19  1  0  0  0  0
 19  5  1  1  0  0  0
 19 21  1  0  0  0  0
 21 14  1  6  0  0  0
 23 14  1  6  0  0  0
 23 29  1  0  0  0  0
 25 26  1  1  0  0  0
 25 27  1  0  0  0  0
 27 18  1  6  0  0  0
 27 28  1  0  0  0  0
 28 20  1  1  0  0  0
 28 29  1  0  0  0  0
 29 11  1  6  0  0  0
 30 22  1  1  0  0  0
 30 31  1  0  0  0  0
 31 24  1  6  0  0  0
M  END
>  <CHROM.1>
176.58942574,-81.95844122,52.35046797,88.65609978,104.39048741,68.92049542
18.64055974,4.52739354,16.59955677,2.90058828,-0.60159497,-2.39030882

>  <Name>
ligand

>  <RI>
0

>  <Rbt.Current_Directory>
/home/itssahil/PROJECTS/Mol_Feturizer/New_Systems/rnas/3DVV

>  <Rbt.Executable>
rbdock ($Id: //depot/dev/client3/rdock/2013.1/src/exe/rbdock.cxx#4 $)

>  <Rbt.Library>
libRbt.so (2013.1, Build901 2013/11/27)

>  <Rbt.Parameter_File>
/export/apps/rDock/src/rDock_2013.1_src/data/scripts/dock_solv.prm

>  <Rbt.Receptor>
prm/pocket_docking_5.prm

>  <SCORE>
-6.47139

>  <SCORE.INTER>
-9.65814

>  <SCORE.INTER.CONST>
1

>  <SCORE.INTER.POLAR>
0

>  <SCORE.INTER.ROT>
6

>  <SCORE.INTER.SOLV>
15.9519

>  <SCORE.INTER.VDW>
-19.3561

>  <SCORE.INTER.norm>
-0.311553

>  <SCORE.INTRA>
3.18675

>  <SCORE.INTRA.DIHEDRAL>
1.34622

>  <SCORE.INTRA.DIHEDRAL.0>
10.8172

>  <SCORE.INTRA.POLAR>
0

>  <SCORE.INTRA.POLAR.0>
0

>  <SCORE.INTRA.REPUL>
0

>  <SCORE.INTRA.REPUL.0>
0

>  <SCORE.INTRA.SOLV>
-0.111217

>  <SCORE.INTRA.SOLV.lig_0>
-80.3833

>  <SCORE.INTRA.VDW>
2.56925

>  <SCORE.INTRA.VDW.0>
-4.63762

>  <SCORE.INTRA.norm>
0.102798

>  <SCORE.RESTR>
0

>  <SCORE.RESTR.CAVITY>
0

>  <SCORE.RESTR.norm>
0

>  <SCORE.SYSTEM>
0

>  <SCORE.SYSTEM.CONST>
0

>  <SCORE.SYSTEM.DIHEDRAL>
0

>  <SCORE.SYSTEM.SOLV>
0

>  <SCORE.SYSTEM.norm>
0

>  <SCORE.heavy>
31

>  <SCORE.norm>
-0.208754

>  <RMSD>
2.608

$$$$
ligand
 OpenBabel11021811473D
libRbt.so/2013.1/901 2013/11/27
 31 33  0  0  0  0  0  0  0  0999 V2000
   14.4900    3.0198   20.0533 C   0  0  0  0  0  0  0  0  0  0  0  0
   14.7346    2.7176   14.1857 N   0  0  0  0  0  0  0  0  0  0  0  0
   14.1127    4.3992   19.9926 O   0  0  0  0  0  0  0  0  0  0  0  0
   15.9633    2.8585   19.6705 C   0  0  1  0  0  0  0  0  0  0  0  0
   19.5937    2.4783   14.6717 N   0  0  0  0  0  0  0  0  0  0  0  0
   16.1944    3.3880   18.3504 O   0  0  0  0  0  0  0  0  0  0  0  0
   17.2554    4.3569   18.4244 C   0  0  1  0  0  0  0  0  0  0  0  0
   24.4687    4.1041   16.7756 N   0  0  0  0  0  0  0  0  0  0  0  0
   17.0698    5.4217   17.4785 O   0  0  0  0  0  0  0  0  0  0  0  0
   17.1262    4.9951   16.1093 C   0  0  2  0  0  0  0  0  0  0  0  0
   19.1422    7.8248   16.0708 N   0  0  0  0  0  0  0  0  0  0  0  0
   14.7156    4.9264   15.9463 O   0  0  0  0  0  0  0  0  0  0  0  0
   15.8934    4.1204   15.8537 C   0  0  1  0  0  0  0  0  0  0  0  0
   19.5769    5.0803   15.8485 O   0  0  0  0  0  0  0  0  0  0  0  0
   15.9594    3.4830   14.4644 C   0  0  1  0  0  0  0  0  0  0  0  0
   21.0179    5.0624   17.7089 O   0  0  0  0  0  0  0  0  0  0  0  0
   17.1797    2.5649   14.3920 C   0  0  0  0  0  0  0  0  0  0  0  0
   23.8179    6.5251   15.8389 O   0  0  0  0  0  0  0  0  0  0  0  0
   18.4480    3.3978   14.5998 C   0  0  1  0  0  0  0  0  0  0  0  0
   21.9177    8.6811   15.9149 O   0  0  0  0  0  0  0  0  0  0  0  0
   18.4236    4.2219   15.8928 C   0  0  2  0  0  0  0  0  0  0  0  0
   18.2934    5.5771   20.2929 O   0  0  0  0  0  0  0  0  0  0  0  0
   19.8972    5.7229   17.0923 C   0  0  1  0  0  0  0  0  0  0  0  0
   18.0938    3.0084   20.8929 O   0  0  0  0  0  0  0  0  0  0  0  0
   22.2175    5.0722   16.9163 C   0  0  2  0  0  0  0  0  0  0  0  0
   23.3239    4.3320   17.6717 C   0  0  0  0  0  0  0  0  0  0  0  0
   22.6614    6.5169   16.6800 C   0  0  2  0  0  0  0  0  0  0  0  0
   21.5375    7.3038   16.0026 C   0  0  1  0  0  0  0  0  0  0  0  0
   20.2427    7.1891   16.8115 C   0  0  1  0  0  0  0  0  0  0  0  0
   17.1045    4.9313   19.8314 C   0  0  2  0  0  0  0  0  0  0  0  0
   16.8472    3.6582   20.6319 C   0  0  1  0  0  0  0  0  0  0  0  0
  1  3  1  0  0  0  0
  4  1  1  1  0  0  0
  4  6  1  0  0  0  0
  4 31  1  0  0  0  0
  6  7  1  0  0  0  0
  7  9  1  6  0  0  0
  7 30  1  0  0  0  0
  8 26  1  0  0  0  0
 10  9  1  1  0  0  0
 10 13  1  0  0  0  0
 10 21  1  0  0  0  0
 13 12  1  6  0  0  0
 13 15  1  0  0  0  0
 15  2  1  1  0  0  0
 15 17  1  0  0  0  0
 16 25  1  0  0  0  0
 16 23  1  0  0  0  0
 17 19  1  0  0  0  0
 19  5  1  1  0  0  0
 19 21  1  0  0  0  0
 21 14  1  6  0  0  0
 23 14  1  6  0  0  0
 23 29  1  0  0  0  0
 25 26  1  1  0  0  0
 25 27  1  0  0  0  0
 27 18  1  6  0  0  0
 27 28  1  0  0  0  0
 28 20  1  1  0  0  0
 28 29  1  0  0  0  0
 29 11  1  6  0  0  0
 30 22  1  1  0  0  0
 30 31  1  0  0  0  0
 31 24  1  6  0  0  0
M  END
>  <CHROM.1>
-57.80608619,-64.25790039,67.88858299,103.19815622,67.50368527,169.02088891
18.61933463,4.75762104,17.16459880,-2.92412064,-0.34734877,-1.61334224

>  <Name>
ligand

>  <RI>
0

>  <Rbt.Current_Directory>
/home/itssahil/PROJECTS/Mol_Feturizer/New_Systems/rnas/3DVV

>  <Rbt.Executable>
rbdock ($Id: //depot/dev/client3/rdock/2013.1/src/exe/rbdock.cxx#4 $)

>  <Rbt.Library>
libRbt.so (2013.1, Build901 2013/11/27)

>  <Rbt.Parameter_File>
/export/apps/rDock/src/rDock_2013.1_src/data/scripts/dock_solv.prm

>  <Rbt.Receptor>
prm/pocket_docking_3.prm

>  <SCORE>
-4.33563

>  <SCORE.INTER>
-5.47896

>  <SCORE.INTER.CONST>
1

>  <SCORE.INTER.POLAR>
0

>  <SCORE.INTER.ROT>
6

>  <SCORE.INTER.SOLV>
14.1049

>  <SCORE.INTER.VDW>
-15.9543

>  <SCORE.INTER.norm>
-0.176741

>  <SCORE.INTRA>
1.14333

>  <SCORE.INTRA.DIHEDRAL>
-3.55328

>  <SCORE.INTRA.DIHEDRAL.0>
10.8172

>  <SCORE.INTRA.POLAR>
0

>  <SCORE.INTRA.POLAR.0>
0

>  <SCORE.INTRA.REPUL>
0

>  <SCORE.INTRA.REPUL.0>
0

>  <SCORE.INTRA.SOLV>
-1.48125

>  <SCORE.INTRA.SOLV.lig_0>
-80.3833

>  <SCORE.INTRA.VDW>
3.66059

>  <SCORE.INTRA.VDW.0>
-4.63762

>  <SCORE.INTRA.norm>
0.0368816

>  <SCORE.RESTR>
0

>  <SCORE.RESTR.CAVITY>
0

>  <SCORE.RESTR.norm>
0

>  <SCORE.SYSTEM>
0

>  <SCORE.SYSTEM.CONST>
0

>  <SCORE.SYSTEM.DIHEDRAL>
0

>  <SCORE.SYSTEM.SOLV>
0

>  <SCORE.SYSTEM.norm>
0

>  <SCORE.heavy>
31

>  <SCORE.norm>
-0.139859

>  <RMSD>
2.736

$$$$
ligand
 OpenBabel11021811473D
libRbt.so/2013.1/901 2013/11/27
 31 33  0  0  0  0  0  0  0  0999 V2000
   16.7741    7.1395   19.1711 C   0  0  0  0  0  0  0  0  0  0  0  0
   17.4506    0.6613   13.7055 N   0  0  0  0  0  0  0  0  0  0  0  0
   17.0323    8.1058   18.1471 O   0  0  0  0  0  0  0  0  0  0  0  0
   16.1016    5.9021   18.5713 C   0  0  1  0  0  0  0  0  0  0  0  0
   21.9332    2.4840   14.4038 N   0  0  0  0  0  0  0  0  0  0  0  0
   16.9601    5.3002   17.5829 O   0  0  0  0  0  0  0  0  0  0  0  0
   17.1524    3.9159   17.9245 C   0  0  1  0  0  0  0  0  0  0  0  0
   17.5770    7.9536   14.1441 N   0  0  0  0  0  0  0  0  0  0  0  0
   18.4600    3.4531   17.5518 O   0  0  0  0  0  0  0  0  0  0  0  0
   18.6562    3.3554   16.1334 C   0  0  2  0  0  0  0  0  0  0  0  0
   23.1055    6.0208   15.4413 N   0  0  0  0  0  0  0  0  0  0  0  0
   16.5170    2.2717   15.8300 O   0  0  0  0  0  0  0  0  0  0  0  0
   17.9257    2.0940   15.6585 C   0  0  1  0  0  0  0  0  0  0  0  0
   20.8111    4.5495   16.0256 O   0  0  0  0  0  0  0  0  0  0  0  0
   18.2225    1.8187   14.1830 C   0  0  1  0  0  0  0  0  0  0  0  0
   19.4742    5.9083   14.6457 O   0  0  0  0  0  0  0  0  0  0  0  0
   19.7192    1.5572   14.0134 C   0  0  0  0  0  0  0  0  0  0  0  0
   19.3668    8.6589   17.0745 O   0  0  0  0  0  0  0  0  0  0  0  0
   20.4985    2.8061   14.4359 C   0  0  1  0  0  0  0  0  0  0  0  0
   22.1293    8.6296   16.2791 O   0  0  0  0  0  0  0  0  0  0  0  0
   20.1541    3.2817   15.8526 C   0  0  2  0  0  0  0  0  0  0  0  0
   16.7766    2.6228   19.9847 O   0  0  0  0  0  0  0  0  0  0  0  0
   20.8014    5.3958   14.8653 C   0  0  1  0  0  0  0  0  0  0  0  0
   14.6583    4.1174   19.4588 O   0  0  0  0  0  0  0  0  0  0  0  0
   18.9567    6.6918   15.7346 C   0  0  2  0  0  0  0  0  0  0  0  0
   17.5433    7.1640   15.3855 C   0  0  0  0  0  0  0  0  0  0  0  0
   19.8477    7.9164   15.9509 C   0  0  2  0  0  0  0  0  0  0  0  0
   21.2879    7.4732   16.2162 C   0  0  1  0  0  0  0  0  0  0  0  0
   21.7788    6.5534   15.0951 C   0  0  1  0  0  0  0  0  0  0  0  0
   17.0590    3.9177   19.4490 C   0  0  2  0  0  0  0  0  0  0  0  0
   15.8697    4.8500   19.6596 C   0  0  1  0  0  0  0  0  0  0  0  0
  1  3  1  0  0  0  0
  4  1  1  1  0  0  0
  4  6  1  0  0  0  0
  4 31  1  0  0  0  0
  6  7  1  0  0  0  0
  7  9  1  1  0  0  0
  7 30  1  0  0  0  0
  8 26  1  0  0  0  0
 10  9  1  1  0  0  0
 10 13  1  0  0  0  0
 10 21  1  0  0  0  0
 13 12  1  6  0  0  0
 13 15  1  0  0  0  0
 15  2  1  1  0  0  0
 15 17  1  0  0  0  0
 16 25  1  0  0  0  0
 16 23  1  0  0  0  0
 17 19  1  0  0  0  0
 19  5  1  1  0  0  0
 19 21  1  0  0  0  0
 21 14  1  6  0  0  0
 23 14  1  1  0  0  0
 23 29  1  0  0  0  0
 25 26  1  6  0  0  0
 25 27  1  0  0  0  0
 27 18  1  1  0  0  0
 27 28  1  0  0  0  0
 28 20  1  6  0  0  0
 28 29  1  0  0  0  0
 29 11  1  1  0  0  0
 30 22  1  6  0  0  0
 30 31  1  0  0  0  0
 31 24  1  6  0  0  0
M  END
>  <CHROM.1>
60.41999794,-69.33495446,-76.24158583,71.71853776,-86.77080331,-58.47984416
18.70114572,4.94814749,16.44408139,2.98975239,-0.66420193,-2.80031582

>  <Name>
ligand

>  <RI>
0

>  <Rbt.Current_Directory>
/home/itssahil/PROJECTS/Mol_Feturizer/New_Systems/rnas/3DVV

>  <Rbt.Executable>
rbdock ($Id: //depot/dev/client3/rdock/2013.1/src/exe/rbdock.cxx#4 $)

>  <Rbt.Library>
libRbt.so (2013.1, Build901 2013/11/27)

>  <Rbt.Parameter_File>
/export/apps/rDock/src/rDock_2013.1_src/data/scripts/dock_solv.prm

>  <Rbt.Receptor>
prm/pocket_docking_2.prm

>  <SCORE>
3.80086

>  <SCORE.INTER>
1.48991

>  <SCORE.INTER.CONST>
1

>  <SCORE.INTER.POLAR>
0

>  <SCORE.INTER.ROT>
6

>  <SCORE.INTER.SOLV>
18.3342

>  <SCORE.INTER.VDW>
-12.7181

>  <SCORE.INTER.norm>
0.0480615

>  <SCORE.INTRA>
0.924309

>  <SCORE.INTRA.DIHEDRAL>
-5.33596

>  <SCORE.INTRA.DIHEDRAL.0>
10.8172

>  <SCORE.INTRA.POLAR>
0

>  <SCORE.INTRA.POLAR.0>
0

>  <SCORE.INTRA.REPUL>
0.00482357

>  <SCORE.INTRA.REPUL.0>
0

>  <SCORE.INTRA.SOLV>
-0.0737515

>  <SCORE.INTRA.SOLV.lig_0>
-80.3833

>  <SCORE.INTRA.VDW>
3.60505

>  <SCORE.INTRA.VDW.0>
-4.63762

>  <SCORE.INTRA.norm>
0.0298164

>  <SCORE.RESTR>
1.38664

>  <SCORE.RESTR.CAVITY>
1.38664

>  <SCORE.RESTR.norm>
0.0447304

>  <SCORE.SYSTEM>
0

>  <SCORE.SYSTEM.CONST>
0

>  <SCORE.SYSTEM.DIHEDRAL>
0

>  <SCORE.SYSTEM.SOLV>
0

>  <SCORE.SYSTEM.norm>
0

>  <SCORE.heavy>
31

>  <SCORE.norm>
0.122608

>  <RMSD>
2.852

$$$$
ligand
 OpenBabel11021811473D
libRbt.so/2013.1/901 2013/11/27
 31 33  0  0  0  0  0  0  0  0999 V2000
   15.0835    7.2616   17.9834 C   0  0  0  0  0  0  0  0  0  0  0  0
   16.2451    2.2234   16.5353 N   0  0  0  0  0  0  0  0  0  0  0  0
   14.2692    6.4290   18.8155 O   0  0  0  0  0  0  0  0  0  0  0  0
   16.2926    7.7729   18.7707 C   0  0  1  0  0  0  0  0  0  0  0  0
   20.8100    2.8653   14.9065 N   0  0  0  0  0  0  0  0  0  0  0  0
   17.1146    6.6669   19.1922 O   0  0  0  0  0  0  0  0  0  0  0  0
   18.4587    6.8932   18.7321 C   0  0  1  0  0  0  0  0  0  0  0  0
   25.0683    3.2630   17.2710 N   0  0  0  0  0  0  0  0  0  0  0  0
   19.1231    5.6624   18.4054 O   0  0  0  0  0  0  0  0  0  0  0  0
   18.6967    5.0877   17.1613 C   0  0  2  0  0  0  0  0  0  0  0  0
   21.3340    8.1724   15.1282 N   0  0  0  0  0  0  0  0  0  0  0  0
   16.5023    4.5954   18.0473 O   0  0  0  0  0  0  0  0  0  0  0  0
   17.6748    3.9937   17.4917 C   0  0  1  0  0  0  0  0  0  0  0  0
   20.7488    5.5512   15.8748 O   0  0  0  0  0  0  0  0  0  0  0  0
   17.2916    3.2119   16.2335 C   0  0  1  0  0  0  0  0  0  0  0  0
   22.2512    5.6313   17.6844 O   0  0  0  0  0  0  0  0  0  0  0  0
   18.5330    2.5101   15.6823 C   0  0  0  0  0  0  0  0  0  0  0  0
   25.2076    5.2687   15.5386 O   0  0  0  0  0  0  0  0  0  0  0  0
   19.5753    3.5634   15.2954 C   0  0  1  0  0  0  0  0  0  0  0  0
   24.2070    7.8601   14.7981 O   0  0  0  0  0  0  0  0  0  0  0  0
   19.9177    4.5231   16.4415 C   0  0  2  0  0  0  0  0  0  0  0  0
   19.4294    8.4012   17.0463 O   0  0  0  0  0  0  0  0  0  0  0  0
   21.3858    6.4079   16.8356 C   0  0  1  0  0  0  0  0  0  0  0  0
   17.7601    9.7410   18.6008 O   0  0  0  0  0  0  0  0  0  0  0  0
   23.3005    4.9417   16.9840 C   0  0  2  0  0  0  0  0  0  0  0  0
   24.1370    4.1471   17.9898 C   0  0  0  0  0  0  0  0  0  0  0  0
   24.2033    5.9603   16.2857 C   0  0  2  0  0  0  0  0  0  0  0  0
   23.3741    6.8278   15.3365 C   0  0  1  0  0  0  0  0  0  0  0  0
   22.2005    7.4660   16.0842 C   0  0  1  0  0  0  0  0  0  0  0  0
   18.2562    7.6874   17.4433 C   0  0  2  0  0  0  0  0  0  0  0  0
   17.1645    8.6606   17.8781 C   0  0  1  0  0  0  0  0  0  0  0  0
  1  3  1  0  0  0  0
  4  1  1  6  0  0  0
  4  6  1  0  0  0  0
  4 31  1  0  0  0  0
  6  7  1  0  0  0  0
  7  9  1  6  0  0  0
  7 30  1  0  0  0  0
  8 26  1  0  0  0  0
 10  9  1  1  0  0  0
 10 13  1  0  0  0  0
 10 21  1  0  0  0  0
 13 12  1  6  0  0  0
 13 15  1  0  0  0  0
 15  2  1  1  0  0  0
 15 17  1  0  0  0  0
 16 25  1  0  0  0  0
 16 23  1  0  0  0  0
 17 19  1  0  0  0  0
 19  5  1  1  0  0  0
 19 21  1  0  0  0  0
 21 14  1  6  0  0  0
 23 14  1  6  0  0  0
 23 29  1  0  0  0  0
 25 26  1  1  0  0  0
 25 27  1  0  0  0  0
 27 18  1  6  0  0  0
 27 28  1  0  0  0  0
 28 20  1  1  0  0  0
 28 29  1  0  0  0  0
 29 11  1  6  0  0  0
 30 22  1  1  0  0  0
 30 31  1  0  0  0  0
 31 24  1  1  0  0  0
M  END
>  <CHROM.1>
62.21515610,75.53492943,-98.85667612,61.11019952,65.90463031,170.58399500
19.85009366,5.81356842,17.00370427,-2.97999196,-0.23546274,-2.94254548

>  <Name>
ligand

>  <RI>
0

>  <Rbt.Current_Directory>
/home/itssahil/PROJECTS/Mol_Feturizer/New_Systems/rnas/3DVV

>  <Rbt.Executable>
rbdock ($Id: //depot/dev/client3/rdock/2013.1/src/exe/rbdock.cxx#4 $)

>  <Rbt.Library>
libRbt.so (2013.1, Build901 2013/11/27)

>  <Rbt.Parameter_File>
/export/apps/rDock/src/rDock_2013.1_src/data/scripts/dock_solv.prm

>  <Rbt.Receptor>
prm/pocket_docking_4.prm

>  <SCORE>
-6.07072

>  <SCORE.INTER>
-8.39424

>  <SCORE.INTER.CONST>
1

>  <SCORE.INTER.POLAR>
0

>  <SCORE.INTER.ROT>
6

>  <SCORE.INTER.SOLV>
19.9282

>  <SCORE.INTER.VDW>
-19.8389

>  <SCORE.INTER.norm>
-0.270782

>  <SCORE.INTRA>
2.32352

>  <SCORE.INTRA.DIHEDRAL>
-3.75641

>  <SCORE.INTRA.DIHEDRAL.0>
10.8172

>  <SCORE.INTRA.POLAR>
0

>  <SCORE.INTRA.POLAR.0>
0

>  <SCORE.INTRA.REPUL>
0

>  <SCORE.INTRA.REPUL.0>
0

>  <SCORE.INTRA.SOLV>
-0.0436368

>  <SCORE.INTRA.SOLV.lig_0>
-80.3833

>  <SCORE.INTRA.VDW>
4.22354

>  <SCORE.INTRA.VDW.0>
-4.63762

>  <SCORE.INTRA.norm>
0.0749522

>  <SCORE.RESTR>
0

>  <SCORE.RESTR.CAVITY>
0

>  <SCORE.RESTR.norm>
0

>  <SCORE.SYSTEM>
0

>  <SCORE.SYSTEM.CONST>
0

>  <SCORE.SYSTEM.DIHEDRAL>
0

>  <SCORE.SYSTEM.SOLV>
0

>  <SCORE.SYSTEM.norm>
0

>  <SCORE.heavy>
31

>  <SCORE.norm>
-0.19583

>  <RMSD>
2.915

$$$$
ligand
 OpenBabel11021811473D
libRbt.so/2013.1/901 2013/11/27
 31 33  0  0  0  0  0  0  0  0999 V2000
   14.0962    2.4535   19.2430 C   0  0  0  0  0  0  0  0  0  0  0  0
   15.7477    1.6922   13.2521 N   0  0  0  0  0  0  0  0  0  0  0  0
   13.9253    1.8331   20.5216 O   0  0  0  0  0  0  0  0  0  0  0  0
   15.5831    2.5254   18.8861 C   0  0  1  0  0  0  0  0  0  0  0  0
   20.1371    3.6198   14.2119 N   0  0  0  0  0  0  0  0  0  0  0  0
   15.7488    3.0392   17.5501 O   0  0  0  0  0  0  0  0  0  0  0  0
   16.6335    4.1725   17.6013 C   0  0  1  0  0  0  0  0  0  0  0  0
   22.4466    4.0201   17.0849 N   0  0  0  0  0  0  0  0  0  0  0  0
   16.2928    5.1580   16.6135 O   0  0  0  0  0  0  0  0  0  0  0  0
   16.6777    4.7960   15.2790 C   0  0  2  0  0  0  0  0  0  0  0  0
   18.0791    8.5780   15.7682 N   0  0  0  0  0  0  0  0  0  0  0  0
   14.5737    3.6715   14.8899 O   0  0  0  0  0  0  0  0  0  0  0  0
   15.9878    3.4667   14.9509 C   0  0  1  0  0  0  0  0  0  0  0  0
   18.8560    5.9515   15.2498 O   0  0  0  0  0  0  0  0  0  0  0  0
   16.4757    2.9197   13.6079 C   0  0  1  0  0  0  0  0  0  0  0  0
   20.2816    5.9040   17.1215 O   0  0  0  0  0  0  0  0  0  0  0  0
   17.9747    2.6330   13.6986 C   0  0  0  0  0  0  0  0  0  0  0  0
   22.8817    7.9050   15.4747 O   0  0  0  0  0  0  0  0  0  0  0  0
   18.7197    3.9402   13.9848 C   0  0  1  0  0  0  0  0  0  0  0  0
   20.7254    9.7852   15.7569 O   0  0  0  0  0  0  0  0  0  0  0  0
   18.1976    4.6729   15.2266 C   0  0  2  0  0  0  0  0  0  0  0  0
   17.4195    5.6129   19.4358 O   0  0  0  0  0  0  0  0  0  0  0  0
   19.0888    6.4850   16.5628 C   0  0  1  0  0  0  0  0  0  0  0  0
   17.6355    3.0694   20.1300 O   0  0  0  0  0  0  0  0  0  0  0  0
   21.4731    6.1522   16.3559 C   0  0  2  0  0  0  0  0  0  0  0  0
   22.6612    5.4754   17.0435 C   0  0  0  0  0  0  0  0  0  0  0  0
   21.7327    7.6583   16.2895 C   0  0  2  0  0  0  0  0  0  0  0  0
   20.5211    8.3703   15.6843 C   0  0  1  0  0  0  0  0  0  0  0  0
   19.2482    8.0050   16.4527 C   0  0  1  0  0  0  0  0  0  0  0  0
   16.3627    4.7631   18.9835 C   0  0  2  0  0  0  0  0  0  0  0  0
   16.3039    3.4938   19.8281 C   0  0  1  0  0  0  0  0  0  0  0  0
  1  3  1  0  0  0  0
  4  1  1  1  0  0  0
  4  6  1  0  0  0  0
  4 31  1  0  0  0  0
  6  7  1  0  0  0  0
  7  9  1  6  0  0  0
  7 30  1  0  0  0  0
  8 26  1  0  0  0  0
 10  9  1  1  0  0  0
 10 13  1  0  0  0  0
 10 21  1  0  0  0  0
 13 12  1  6  0  0  0
 13 15  1  0  0  0  0
 15  2  1  1  0  0  0
 15 17  1  0  0  0  0
 16 25  1  0  0  0  0
 16 23  1  0  0  0  0
 17 19  1  0  0  0  0
 19  5  1  1  0  0  0
 19 21  1  0  0  0  0
 21 14  1  6  0  0  0
 23 14  1  6  0  0  0
 23 29  1  0  0  0  0
 25 26  1  1  0  0  0
 25 27  1  0  0  0  0
 27 18  1  6  0  0  0
 27 28  1  0  0  0  0
 28 20  1  1  0  0  0
 28 29  1  0  0  0  0
 29 11  1  6  0  0  0
 30 22  1  1  0  0  0
 30 31  1  0  0  0  0
 31 24  1  6  0  0  0
M  END
>  <CHROM.1>
174.86800540,-75.28617209,58.20122486,82.23588000,85.85091880,62.05364943
18.13303954,4.90428335,16.57741522,-2.99422227,-0.67619269,-1.75069017

>  <Name>
ligand

>  <RI>
0

>  <Rbt.Current_Directory>
/home/itssahil/PROJECTS/Mol_Feturizer/New_Systems/rnas/3DVV

>  <Rbt.Executable>
rbdock ($Id: //depot/dev/client3/rdock/2013.1/src/exe/rbdock.cxx#4 $)

>  <Rbt.Library>
libRbt.so (2013.1, Build901 2013/11/27)

>  <Rbt.Parameter_File>
/export/apps/rDock/src/rDock_2013.1_src/data/scripts/dock_solv.prm

>  <Rbt.Receptor>
prm/pocket_docking_4.prm

>  <SCORE>
-5.95389

>  <SCORE.INTER>
-5.64678

>  <SCORE.INTER.CONST>
1

>  <SCORE.INTER.POLAR>
0

>  <SCORE.INTER.ROT>
6

>  <SCORE.INTER.SOLV>
14.4911

>  <SCORE.INTER.VDW>
-16.1949

>  <SCORE.INTER.norm>
-0.182154

>  <SCORE.INTRA>
-0.307115

>  <SCORE.INTRA.DIHEDRAL>
-4.45217

>  <SCORE.INTRA.DIHEDRAL.0>
10.8172

>  <SCORE.INTRA.POLAR>
0

>  <SCORE.INTRA.POLAR.0>
0

>  <SCORE.INTRA.REPUL>
0

>  <SCORE.INTRA.REPUL.0>
0

>  <SCORE.INTRA.SOLV>
-1.7346

>  <SCORE.INTRA.SOLV.lig_0>
-80.3833

>  <SCORE.INTRA.VDW>
2.78627

>  <SCORE.INTRA.VDW.0>
-4.63762

>  <SCORE.INTRA.norm>
-0.00990693

>  <SCORE.RESTR>
0

>  <SCORE.RESTR.CAVITY>
0

>  <SCORE.RESTR.norm>
0

>  <SCORE.SYSTEM>
0

>  <SCORE.SYSTEM.CONST>
0

>  <SCORE.SYSTEM.DIHEDRAL>
0

>  <SCORE.SYSTEM.SOLV>
0

>  <SCORE.SYSTEM.norm>
0

>  <SCORE.heavy>
31

>  <SCORE.norm>
-0.192061

>  <RMSD>
2.962

$$$$
ligand
 OpenBabel11021811473D
libRbt.so/2013.1/901 2013/11/27
 31 33  0  0  0  0  0  0  0  0999 V2000
   16.3089   10.0661   19.2628 C   0  0  0  0  0  0  0  0  0  0  0  0
   14.4951    2.1844   17.0349 N   0  0  0  0  0  0  0  0  0  0  0  0
   17.6892    9.7014   19.1597 O   0  0  0  0  0  0  0  0  0  0  0  0
   15.4766    8.8609   19.7077 C   0  0  1  0  0  0  0  0  0  0  0  0
   18.8072    3.5187   15.1564 N   0  0  0  0  0  0  0  0  0  0  0  0
   15.7433    7.7309   18.8542 O   0  0  0  0  0  0  0  0  0  0  0  0
   16.1376    6.6183   19.6767 C   0  0  1  0  0  0  0  0  0  0  0  0
   22.5817    4.4701   17.3238 N   0  0  0  0  0  0  0  0  0  0  0  0
   17.0964    5.7800   19.0128 O   0  0  0  0  0  0  0  0  0  0  0  0
   16.6401    5.2649   17.7532 C   0  0  2  0  0  0  0  0  0  0  0  0
   17.8521    8.7925   16.4054 N   0  0  0  0  0  0  0  0  0  0  0  0
   14.5969    4.4331   18.7412 O   0  0  0  0  0  0  0  0  0  0  0  0
   15.7824    4.0294   18.0504 C   0  0  1  0  0  0  0  0  0  0  0  0
   18.5133    6.0847   16.3748 O   0  0  0  0  0  0  0  0  0  0  0  0
   15.3917    3.3161   16.7545 C   0  0  1  0  0  0  0  0  0  0  0  0
   20.4533    6.4472   17.6566 O   0  0  0  0  0  0  0  0  0  0  0  0
   16.6573    2.8217   16.0537 C   0  0  0  0  0  0  0  0  0  0  0  0
   22.3416    7.8198   14.8235 O   0  0  0  0  0  0  0  0  0  0  0  0
   17.5354    4.0242   15.6951 C   0  0  1  0  0  0  0  0  0  0  0  0
   20.3213    9.8180   15.2600 O   0  0  0  0  0  0  0  0  0  0  0  0
   17.8559    4.9178   16.8994 C   0  0  2  0  0  0  0  0  0  0  0  0
   16.9045    6.4371   22.0084 O   0  0  0  0  0  0  0  0  0  0  0  0
   19.1273    6.9255   17.3641 C   0  0  1  0  0  0  0  0  0  0  0  0
   14.7514    7.9687   21.8834 O   0  0  0  0  0  0  0  0  0  0  0  0
   21.3370    6.4281   16.5226 C   0  0  2  0  0  0  0  0  0  0  0  0
   22.7019    5.8908   16.9592 C   0  0  0  0  0  0  0  0  0  0  0  0
   21.5135    7.8509   15.9889 C   0  0  2  0  0  0  0  0  0  0  0  0
   20.1509    8.4445   15.6257 C   0  0  1  0  0  0  0  0  0  0  0  0
   19.1946    8.3556   16.8180 C   0  0  1  0  0  0  0  0  0  0  0  0
   16.8255    7.2896   20.8636 C   0  0  2  0  0  0  0  0  0  0  0  0
   15.8678    8.4473   21.1292 C   0  0  1  0  0  0  0  0  0  0  0  0
  1  3  1  0  0  0  0
  4  1  1  6  0  0  0
  4  6  1  0  0  0  0
  4 31  1  0  0  0  0
  6  7  1  0  0  0  0
  7  9  1  6  0  0  0
  7 30  1  0  0  0  0
  8 26  1  0  0  0  0
 10  9  1  1  0  0  0
 10 13  1  0  0  0  0
 10 21  1  0  0  0  0
 13 12  1  6  0  0  0
 13 15  1  0  0  0  0
 15  2  1  1  0  0  0
 15 17  1  0  0  0  0
 16 25  1  0  0  0  0
 16 23  1  0  0  0  0
 17 19  1  0  0  0  0
 19  5  1  1  0  0  0
 19 21  1  0  0  0  0
 21 14  1  6  0  0  0
 23 14  1  6  0  0  0
 23 29  1  0  0  0  0
 25 26  1  1  0  0  0
 25 27  1  0  0  0  0
 27 18  1  6  0  0  0
 27 28  1  0  0  0  0
 28 20  1  1  0  0  0
 28 29  1  0  0  0  0
 29 11  1  6  0  0  0
 30 22  1  1  0  0  0
 30 31  1  0  0  0  0
 31 24  1  1  0  0  0
M  END
>  <CHROM.1>
-52.22681259,-57.21948015,-82.61264935,85.64729563,66.16579699,67.30855677
17.95709428,6.50893265,17.79569278,-2.93364435,-0.56857814,-2.65830868

>  <Name>
ligand

>  <RI>
0

>  <Rbt.Current_Directory>
/home/itssahil/PROJECTS/Mol_Feturizer/New_Systems/rnas/3DVV

>  <Rbt.Executable>
rbdock ($Id: //depot/dev/client3/rdock/2013.1/src/exe/rbdock.cxx#4 $)

>  <Rbt.Library>
libRbt.so (2013.1, Build901 2013/11/27)

>  <Rbt.Parameter_File>
/export/apps/rDock/src/rDock_2013.1_src/data/scripts/dock_solv.prm

>  <Rbt.Receptor>
prm/pocket_docking_5.prm

>  <SCORE>
-7.93468

>  <SCORE.INTER>
-6.09133

>  <SCORE.INTER.CONST>
1

>  <SCORE.INTER.POLAR>
0

>  <SCORE.INTER.ROT>
6

>  <SCORE.INTER.SOLV>
16.486

>  <SCORE.INTER.VDW>
-17.1562

>  <SCORE.INTER.norm>
-0.196495

>  <SCORE.INTRA>
-1.84335

>  <SCORE.INTRA.DIHEDRAL>
-4.88672

>  <SCORE.INTRA.DIHEDRAL.0>
10.8172

>  <SCORE.INTRA.POLAR>
0

>  <SCORE.INTRA.POLAR.0>
0

>  <SCORE.INTRA.REPUL>
0

>  <SCORE.INTRA.REPUL.0>
0

>  <SCORE.INTRA.SOLV>
-0.772566

>  <SCORE.INTRA.SOLV.lig_0>
-80.3833

>  <SCORE.INTRA.VDW>
0.986295

>  <SCORE.INTRA.VDW.0>
-4.63762

>  <SCORE.INTRA.norm>
-0.0594629

>  <SCORE.RESTR>
0

>  <SCORE.RESTR.CAVITY>
0

>  <SCORE.RESTR.norm>
0

>  <SCORE.SYSTEM>
0

>  <SCORE.SYSTEM.CONST>
0

>  <SCORE.SYSTEM.DIHEDRAL>
0

>  <SCORE.SYSTEM.SOLV>
0

>  <SCORE.SYSTEM.norm>
0

>  <SCORE.heavy>
31

>  <SCORE.norm>
-0.255957

>  <RMSD>
3.382

$$$$
ligand
 OpenBabel11021811473D
libRbt.so/2013.1/901 2013/11/27
 31 33  0  0  0  0  0  0  0  0999 V2000
   12.8913    2.6358   18.4286 C   0  0  0  0  0  0  0  0  0  0  0  0
   19.6448    0.3846   13.6501 N   0  0  0  0  0  0  0  0  0  0  0  0
   13.0543    2.5759   19.8493 O   0  0  0  0  0  0  0  0  0  0  0  0
   13.6963    3.8042   17.8540 C   0  0  1  0  0  0  0  0  0  0  0  0
   21.3739    4.3944   15.8491 N   0  0  0  0  0  0  0  0  0  0  0  0
   15.0996    3.6219   18.1261 O   0  0  0  0  0  0  0  0  0  0  0  0
   15.8207    3.6939   16.8833 C   0  0  1  0  0  0  0  0  0  0  0  0
   22.7293    6.7079   15.1073 N   0  0  0  0  0  0  0  0  0  0  0  0
   16.9695    2.8319   16.8845 O   0  0  0  0  0  0  0  0  0  0  0  0
   17.8287    3.0120   15.7490 C   0  0  2  0  0  0  0  0  0  0  0  0
   17.1195    6.4964   18.2808 N   0  0  0  0  0  0  0  0  0  0  0  0
   17.1080    0.9229   14.7698 O   0  0  0  0  0  0  0  0  0  0  0  0
   18.2524    1.6177   15.2729 C   0  0  1  0  0  0  0  0  0  0  0  0
   18.6934    5.2412   16.3526 O   0  0  0  0  0  0  0  0  0  0  0  0
   19.3059    1.7189   14.1681 C   0  0  1  0  0  0  0  0  0  0  0  0
   20.6220    6.4055   17.0330 O   0  0  0  0  0  0  0  0  0  0  0  0
   20.5561    2.3972   14.7287 C   0  0  0  0  0  0  0  0  0  0  0  0
   19.5907    9.5251   15.3956 O   0  0  0  0  0  0  0  0  0  0  0  0
   20.1975    3.8152   15.1828 C   0  0  1  0  0  0  0  0  0  0  0  0
   17.6501    9.2472   17.4984 O   0  0  0  0  0  0  0  0  0  0  0  0
   19.0281    3.8537   16.1742 C   0  0  2  0  0  0  0  0  0  0  0  0
   15.1312    3.5380   14.5257 O   0  0  0  0  0  0  0  0  0  0  0  0
   19.3502    5.8815   17.4578 C   0  0  1  0  0  0  0  0  0  0  0  0
   13.5267    5.1899   15.8275 O   0  0  0  0  0  0  0  0  0  0  0  0
   20.5361    7.3809   15.9802 C   0  0  2  0  0  0  0  0  0  0  0  0
   21.9467    7.8472   15.6122 C   0  0  0  0  0  0  0  0  0  0  0  0
   19.7279    8.5858   16.4651 C   0  0  2  0  0  0  0  0  0  0  0  0
   18.3396    8.1329   16.9220 C   0  0  1  0  0  0  0  0  0  0  0  0
   18.4578    7.0190   17.9656 C   0  0  1  0  0  0  0  0  0  0  0  0
   14.8162    3.1555   15.8666 C   0  0  2  0  0  0  0  0  0  0  0  0
   13.5406    3.8519   16.3314 C   0  0  1  0  0  0  0  0  0  0  0  0
  1  3  1  0  0  0  0
  4  1  1  6  0  0  0
  4  6  1  0  0  0  0
  4 31  1  0  0  0  0
  6  7  1  0  0  0  0
  7  9  1  1  0  0  0
  7 30  1  0  0  0  0
  8 26  1  0  0  0  0
 10  9  1  1  0  0  0
 10 13  1  0  0  0  0
 10 21  1  0  0  0  0
 13 12  1  6  0  0  0
 13 15  1  0  0  0  0
 15  2  1  1  0  0  0
 15 17  1  0  0  0  0
 16 25  1  0  0  0  0
 16 23  1  0  0  0  0
 17 19  1  0  0  0  0
 19  5  1  1  0  0  0
 19 21  1  0  0  0  0
 21 14  1  6  0  0  0
 23 14  1  6  0  0  0
 23 29  1  0  0  0  0
 25 26  1  1  0  0  0
 25 27  1  0  0  0  0
 27 18  1  6  0  0  0
 27 28  1  0  0  0  0
 28 20  1  1  0  0  0
 28 29  1  0  0  0  0
 29 11  1  6  0  0  0
 30 22  1  6  0  0  0
 30 31  1  0  0  0  0
 31 24  1  6  0  0  0
M  END
>  <CHROM.1>
61.35616483,-171.37829107,-137.75857567,87.76995431,141.81772350,62.11297896
17.77861114,4.70326567,16.34297600,2.63885537,-0.36648095,-2.80854547

>  <Name>
ligand

>  <RI>
0

>  <Rbt.Current_Directory>
/home/itssahil/PROJECTS/Mol_Feturizer/New_Systems/rnas/3DVV

>  <Rbt.Executable>
rbdock ($Id: //depot/dev/client3/rdock/2013.1/src/exe/rbdock.cxx#4 $)

>  <Rbt.Library>
libRbt.so (2013.1, Build901 2013/11/27)

>  <Rbt.Parameter_File>
/export/apps/rDock/src/rDock_2013.1_src/data/scripts/dock_solv.prm

>  <Rbt.Receptor>
prm/pocket_docking_5.prm

>  <SCORE>
-3.73787

>  <SCORE.INTER>
-8.32305

>  <SCORE.INTER.CONST>
1

>  <SCORE.INTER.POLAR>
0

>  <SCORE.INTER.ROT>
6

>  <SCORE.INTER.SOLV>
15.5826

>  <SCORE.INTER.VDW>
-18.3429

>  <SCORE.INTER.norm>
-0.268486

>  <SCORE.INTRA>
4.58518

>  <SCORE.INTRA.DIHEDRAL>
3.71258

>  <SCORE.INTRA.DIHEDRAL.0>
10.8172

>  <SCORE.INTRA.POLAR>
0

>  <SCORE.INTRA.POLAR.0>
0

>  <SCORE.INTRA.REPUL>
0

>  <SCORE.INTRA.REPUL.0>
0

>  <SCORE.INTRA.SOLV>
2.59887

>  <SCORE.INTRA.SOLV.lig_0>
-80.3833

>  <SCORE.INTRA.VDW>
1.42945

>  <SCORE.INTRA.VDW.0>
-4.63762

>  <SCORE.INTRA.norm>
0.147909

>  <SCORE.RESTR>
0

>  <SCORE.RESTR.CAVITY>
0

>  <SCORE.RESTR.norm>
0

>  <SCORE.SYSTEM>
0

>  <SCORE.SYSTEM.CONST>
0

>  <SCORE.SYSTEM.DIHEDRAL>
0

>  <SCORE.SYSTEM.SOLV>
0

>  <SCORE.SYSTEM.norm>
0

>  <SCORE.heavy>
31

>  <SCORE.norm>
-0.120576

>  <RMSD>
3.633

$$$$
ligand
 OpenBabel11021811473D
libRbt.so/2013.1/901 2013/11/27
 31 33  0  0  0  0  0  0  0  0999 V2000
   14.3184    2.5282   18.6448 C   0  0  0  0  0  0  0  0  0  0  0  0
   14.3223    3.2802   12.5584 N   0  0  0  0  0  0  0  0  0  0  0  0
   14.4259    1.7628   19.8496 O   0  0  0  0  0  0  0  0  0  0  0  0
   15.7116    2.8742   18.1135 C   0  0  1  0  0  0  0  0  0  0  0  0
   18.9678    4.7302   13.0285 N   0  0  0  0  0  0  0  0  0  0  0  0
   15.6034    3.6455   16.9011 O   0  0  0  0  0  0  0  0  0  0  0  0
   16.3526    4.8629   17.0638 C   0  0  1  0  0  0  0  0  0  0  0  0
   21.1537    4.3025   16.7386 N   0  0  0  0  0  0  0  0  0  0  0  0
   15.7505    5.9566   16.3537 O   0  0  0  0  0  0  0  0  0  0  0  0
   15.8652    5.8525   14.9269 C   0  0  2  0  0  0  0  0  0  0  0  0
   17.7100    9.5695   15.2813 N   0  0  0  0  0  0  0  0  0  0  0  0
   13.6325    4.9471   14.7319 O   0  0  0  0  0  0  0  0  0  0  0  0
   15.0115    4.6572   14.4875 C   0  0  1  0  0  0  0  0  0  0  0  0
   18.1014    6.8692   14.7106 O   0  0  0  0  0  0  0  0  0  0  0  0
   15.2089    4.3683   12.9980 C   0  0  1  0  0  0  0  0  0  0  0  0
   19.2996    6.5240   16.7065 O   0  0  0  0  0  0  0  0  0  0  0  0
   16.6689    3.9878   12.7508 C   0  0  0  0  0  0  0  0  0  0  0  0
   22.3450    8.1194   15.4193 O   0  0  0  0  0  0  0  0  0  0  0  0
   17.5674    5.1670   13.1353 C   0  0  1  0  0  0  0  0  0  0  0  0
   20.5036   10.3209   15.5850 O   0  0  0  0  0  0  0  0  0  0  0  0
   17.3357    5.6598   14.5689 C   0  0  2  0  0  0  0  0  0  0  0  0
   17.2554    6.0335   19.0317 O   0  0  0  0  0  0  0  0  0  0  0  0
   18.2806    7.3129   16.0648 C   0  0  1  0  0  0  0  0  0  0  0  0
   17.8625    3.4617   19.1548 O   0  0  0  0  0  0  0  0  0  0  0  0
   20.5881    6.5964   16.0726 C   0  0  2  0  0  0  0  0  0  0  0  0
   21.5737    5.7095   16.8371 C   0  0  0  0  0  0  0  0  0  0  0  0
   21.0932    8.0399   16.1062 C   0  0  2  0  0  0  0  0  0  0  0  0
   20.0817    8.9625   15.4231 C   0  0  1  0  0  0  0  0  0  0  0  0
   18.6942    8.7883   16.0461 C   0  0  1  0  0  0  0  0  0  0  0  0
   16.2416    5.1421   18.5613 C   0  0  2  0  0  0  0  0  0  0  0  0
   16.4608    3.7426   19.1282 C   0  0  1  0  0  0  0  0  0  0  0  0
  1  3  1  0  0  0  0
  4  1  1  1  0  0  0
  4  6  1  0  0  0  0
  4 31  1  0  0  0  0
  6  7  1  0  0  0  0
  7  9  1  6  0  0  0
  7 30  1  0  0  0  0
  8 26  1  0  0  0  0
 10  9  1  1  0  0  0
 10 13  1  0  0  0  0
 10 21  1  0  0  0  0
 13 12  1  6  0  0  0
 13 15  1  0  0  0  0
 15  2  1  1  0  0  0
 15 17  1  0  0  0  0
 16 25  1  0  0  0  0
 16 23  1  0  0  0  0
 17 19  1  0  0  0  0
 19  5  1  1  0  0  0
 19 21  1  0  0  0  0
 21 14  1  6  0  0  0
 23 14  1  6  0  0  0
 23 29  1  0  0  0  0
 25 26  1  1  0  0  0
 25 27  1  0  0  0  0
 27 18  1  6  0  0  0
 27 28  1  0  0  0  0
 28 20  1  1  0  0  0
 28 29  1  0  0  0  0
 29 11  1  6  0  0  0
 30 22  1  1  0  0  0
 30 31  1  0  0  0  0
 31 24  1  6  0  0  0
M  END
>  <CHROM.1>
-179.95856667,-70.67920805,67.23579436,77.68110022,68.97553157,64.37769231
17.54746210,5.60464662,16.07231754,-2.73252945,-0.62648112,-1.22086669

>  <Name>
ligand

>  <RI>
0

>  <Rbt.Current_Directory>
/home/itssahil/PROJECTS/Mol_Feturizer/New_Systems/rnas/3DVV

>  <Rbt.Executable>
rbdock ($Id: //depot/dev/client3/rdock/2013.1/src/exe/rbdock.cxx#4 $)

>  <Rbt.Library>
libRbt.so (2013.1, Build901 2013/11/27)

>  <Rbt.Parameter_File>
/export/apps/rDock/src/rDock_2013.1_src/data/scripts/dock_solv.prm

>  <Rbt.Receptor>
prm/pocket_docking_5.prm

>  <SCORE>
-5.48445

>  <SCORE.INTER>
-2.72873

>  <SCORE.INTER.CONST>
1

>  <SCORE.INTER.POLAR>
0

>  <SCORE.INTER.ROT>
6

>  <SCORE.INTER.SOLV>
13.175

>  <SCORE.INTER.VDW>
-13.8108

>  <SCORE.INTER.norm>
-0.0880236

>  <SCORE.INTRA>
-2.75572

>  <SCORE.INTRA.DIHEDRAL>
-7.87881

>  <SCORE.INTRA.DIHEDRAL.0>
10.8172

>  <SCORE.INTRA.POLAR>
0

>  <SCORE.INTRA.POLAR.0>
0

>  <SCORE.INTRA.REPUL>
0

>  <SCORE.INTRA.REPUL.0>
0

>  <SCORE.INTRA.SOLV>
-3.30438

>  <SCORE.INTRA.SOLV.lig_0>
-80.3833

>  <SCORE.INTRA.VDW>
2.83587

>  <SCORE.INTRA.VDW.0>
-4.63762

>  <SCORE.INTRA.norm>
-0.0888942

>  <SCORE.RESTR>
0

>  <SCORE.RESTR.CAVITY>
0

>  <SCORE.RESTR.norm>
0

>  <SCORE.SYSTEM>
0

>  <SCORE.SYSTEM.CONST>
0

>  <SCORE.SYSTEM.DIHEDRAL>
0

>  <SCORE.SYSTEM.SOLV>
0

>  <SCORE.SYSTEM.norm>
0

>  <SCORE.heavy>
31

>  <SCORE.norm>
-0.176918

>  <RMSD>
3.703

$$$$
ligand
 OpenBabel11021811473D
libRbt.so/2013.1/901 2013/11/27
 31 33  0  0  0  0  0  0  0  0999 V2000
   17.0560   10.7152   18.6973 C   0  0  0  0  0  0  0  0  0  0  0  0
   13.8947    5.3191   13.0790 N   0  0  0  0  0  0  0  0  0  0  0  0
   18.1877    9.8537   18.8579 O   0  0  0  0  0  0  0  0  0  0  0  0
   15.8205    9.8971   18.3131 C   0  0  1  0  0  0  0  0  0  0  0  0
   18.7690    5.0037   12.8665 N   0  0  0  0  0  0  0  0  0  0  0  0
   16.0988    9.0939   17.1495 O   0  0  0  0  0  0  0  0  0  0  0  0
   15.7962    7.7214   17.4568 C   0  0  1  0  0  0  0  0  0  0  0  0
   19.7577    3.1141   16.7532 N   0  0  0  0  0  0  0  0  0  0  0  0
   16.6759    6.8167   16.7709 O   0  0  0  0  0  0  0  0  0  0  0  0
   16.5576    6.8675   15.3414 C   0  0  2  0  0  0  0  0  0  0  0  0
   20.4132    9.3818   15.3920 N   0  0  0  0  0  0  0  0  0  0  0  0
   14.1437    6.8212   15.4582 O   0  0  0  0  0  0  0  0  0  0  0  0
   15.2805    6.1085   14.9630 C   0  0  1  0  0  0  0  0  0  0  0  0
   18.9611    7.0700   14.8284 O   0  0  0  0  0  0  0  0  0  0  0  0
   15.1636    5.9672   13.4440 C   0  0  1  0  0  0  0  0  0  0  0  0
   19.7670    5.9813   16.7529 O   0  0  0  0  0  0  0  0  0  0  0  0
   16.3421    5.1426   12.9256 C   0  0  0  0  0  0  0  0  0  0  0  0
   23.0564    5.3070   15.2692 O   0  0  0  0  0  0  0  0  0  0  0  0
   17.6476    5.8785   13.2412 C   0  0  1  0  0  0  0  0  0  0  0  0
   23.0548    8.1709   15.5205 O   0  0  0  0  0  0  0  0  0  0  0  0
   17.7991    6.2284   14.7266 C   0  0  2  0  0  0  0  0  0  0  0  0
   15.4437    6.5076   19.5688 O   0  0  0  0  0  0  0  0  0  0  0  0
   19.4534    7.2573   16.1646 C   0  0  1  0  0  0  0  0  0  0  0  0
   14.0441    8.7524   19.5739 O   0  0  0  0  0  0  0  0  0  0  0  0
   20.7695    5.2346   16.0426 C   0  0  2  0  0  0  0  0  0  0  0  0
   21.0014    3.9009   16.7566 C   0  0  0  0  0  0  0  0  0  0  0  0
   22.0803    6.0232   16.0304 C   0  0  2  0  0  0  0  0  0  0  0  0
   21.8556    7.3986   15.3987 C   0  0  1  0  0  0  0  0  0  0  0  0
   20.7114    8.1303   16.1052 C   0  0  1  0  0  0  0  0  0  0  0  0
   16.0829    7.6288   18.9541 C   0  0  2  0  0  0  0  0  0  0  0  0
   15.4568    8.9310   19.4442 C   0  0  1  0  0  0  0  0  0  0  0  0
  1  3  1  0  0  0  0
  4  1  1  1  0  0  0
  4  6  1  0  0  0  0
  4 31  1  0  0  0  0
  6  7  1  0  0  0  0
  7  9  1  6  0  0  0
  7 30  1  0  0  0  0
  8 26  1  0  0  0  0
 10  9  1  1  0  0  0
 10 13  1  0  0  0  0
 10 21  1  0  0  0  0
 13 12  1  6  0  0  0
 13 15  1  0  0  0  0
 15  2  1  1  0  0  0
 15 17  1  0  0  0  0
 16 25  1  0  0  0  0
 16 23  1  0  0  0  0
 17 19  1  0  0  0  0
 19  5  1  1  0  0  0
 19 21  1  0  0  0  0
 21 14  1  6  0  0  0
 23 14  1  6  0  0  0
 23 29  1  0  0  0  0
 25 26  1  1  0  0  0
 25 27  1  0  0  0  0
 27 18  1  6  0  0  0
 27 28  1  0  0  0  0
 28 20  1  1  0  0  0
 28 29  1  0  0  0  0
 29 11  1  6  0  0  0
 30 22  1  1  0  0  0
 30 31  1  0  0  0  0
 31 24  1  6  0  0  0
M  END
>  <CHROM.1>
-54.13133060,-63.58125291,-76.76582513,57.74035038,68.19672285,61.76243135
17.97359715,6.99222518,16.22644538,-2.65849238,0.02484914,-2.25504916

>  <Name>
ligand

>  <RI>
0

>  <Rbt.Current_Directory>
/home/itssahil/PROJECTS/Mol_Feturizer/New_Systems/rnas/3DVV

>  <Rbt.Executable>
rbdock ($Id: //depot/dev/client3/rdock/2013.1/src/exe/rbdock.cxx#4 $)

>  <Rbt.Library>
libRbt.so (2013.1, Build901 2013/11/27)

>  <Rbt.Parameter_File>
/export/apps/rDock/src/rDock_2013.1_src/data/scripts/dock_solv.prm

>  <Rbt.Receptor>
prm/pocket_docking_8.prm

>  <SCORE>
-6.61995

>  <SCORE.INTER>
-2.42502

>  <SCORE.INTER.CONST>
1

>  <SCORE.INTER.POLAR>
0

>  <SCORE.INTER.ROT>
6

>  <SCORE.INTER.SOLV>
16.2308

>  <SCORE.INTER.VDW>
-14.6269

>  <SCORE.INTER.norm>
-0.0782264

>  <SCORE.INTRA>
-4.19493

>  <SCORE.INTRA.DIHEDRAL>
-8.70157

>  <SCORE.INTRA.DIHEDRAL.0>
10.8172

>  <SCORE.INTRA.POLAR>
0

>  <SCORE.INTRA.POLAR.0>
0

>  <SCORE.INTRA.REPUL>
0

>  <SCORE.INTRA.REPUL.0>
0

>  <SCORE.INTRA.SOLV>
-3.38056

>  <SCORE.INTRA.SOLV.lig_0>
-80.3833

>  <SCORE.INTRA.VDW>
1.84613

>  <SCORE.INTRA.VDW.0>
-4.63762

>  <SCORE.INTRA.norm>
-0.13532

>  <SCORE.RESTR>
0

>  <SCORE.RESTR.CAVITY>
0

>  <SCORE.RESTR.norm>
0

>  <SCORE.SYSTEM>
0

>  <SCORE.SYSTEM.CONST>
0

>  <SCORE.SYSTEM.DIHEDRAL>
0

>  <SCORE.SYSTEM.SOLV>
0

>  <SCORE.SYSTEM.norm>
0

>  <SCORE.heavy>
31

>  <SCORE.norm>
-0.213547

>  <RMSD>
3.735

$$$$
ligand
 OpenBabel11021811473D
libRbt.so/2013.1/901 2013/11/27
 31 33  0  0  0  0  0  0  0  0999 V2000
   12.9853    7.6986   16.4946 C   0  0  0  0  0  0  0  0  0  0  0  0
   15.8142    2.9283   10.5782 N   0  0  0  0  0  0  0  0  0  0  0  0
   12.8567    8.6940   15.4740 O   0  0  0  0  0  0  0  0  0  0  0  0
   12.8798    6.2993   15.8831 C   0  0  1  0  0  0  0  0  0  0  0  0
   19.7502    5.4709   11.9733 N   0  0  0  0  0  0  0  0  0  0  0  0
   13.9419    6.0917   14.9317 O   0  0  0  0  0  0  0  0  0  0  0  0
   14.6537    4.8948   15.2932 C   0  0  1  0  0  0  0  0  0  0  0  0
   20.8592    3.9769   15.9609 N   0  0  0  0  0  0  0  0  0  0  0  0
   16.0504    4.9893   14.9718 O   0  0  0  0  0  0  0  0  0  0  0  0
   16.3083    5.2389   13.5822 C   0  0  2  0  0  0  0  0  0  0  0  0
   17.5232    9.3901   14.8717 N   0  0  0  0  0  0  0  0  0  0  0  0
   14.4769    3.8151   12.9028 O   0  0  0  0  0  0  0  0  0  0  0  0
   15.8943    3.9813   12.8092 C   0  0  1  0  0  0  0  0  0  0  0  0
   18.1433    6.8585   13.8832 O   0  0  0  0  0  0  0  0  0  0  0  0
   16.2918    4.0949   11.3361 C   0  0  1  0  0  0  0  0  0  0  0  0
   18.9671    6.1427   15.9682 O   0  0  0  0  0  0  0  0  0  0  0  0
   17.8137    4.1994   11.2346 C   0  0  0  0  0  0  0  0  0  0  0  0
   22.1173    7.9938   15.6129 O   0  0  0  0  0  0  0  0  0  0  0  0
   18.2795    5.4666   11.9576 C   0  0  1  0  0  0  0  0  0  0  0  0
   20.1728   10.0991   15.8400 O   0  0  0  0  0  0  0  0  0  0  0  0
   17.7927    5.5464   13.4096 C   0  0  2  0  0  0  0  0  0  0  0  0
   14.7454    3.5475   17.3510 O   0  0  0  0  0  0  0  0  0  0  0  0
   18.0474    7.0304   15.3059 C   0  0  1  0  0  0  0  0  0  0  0  0
   12.2292    4.0844   16.7356 O   0  0  0  0  0  0  0  0  0  0  0  0
   20.3455    6.3525   15.6173 C   0  0  2  0  0  0  0  0  0  0  0  0
   21.2145    5.3443   16.3728 C   0  0  0  0  0  0  0  0  0  0  0  0
   20.7654    7.7671   16.0206 C   0  0  2  0  0  0  0  0  0  0  0  0
   19.8543    8.7942   15.3452 C   0  0  1  0  0  0  0  0  0  0  0  0
   18.3855    8.4855   15.6474 C   0  0  1  0  0  0  0  0  0  0  0  0
   14.5116    4.8512   16.8133 C   0  0  2  0  0  0  0  0  0  0  0  0
   13.0436    5.2355   16.9724 C   0  0  1  0  0  0  0  0  0  0  0  0
  1  3  1  0  0  0  0
  4  1  1  1  0  0  0
  4  6  1  0  0  0  0
  4 31  1  0  0  0  0
  6  7  1  0  0  0  0
  7  9  1  1  0  0  0
  7 30  1  0  0  0  0
  8 26  1  0  0  0  0
 10  9  1  1  0  0  0
 10 13  1  0  0  0  0
 10 21  1  0  0  0  0
 13 12  1  6  0  0  0
 13 15  1  0  0  0  0
 15  2  1  6  0  0  0
 15 17  1  0  0  0  0
 16 25  1  0  0  0  0
 16 23  1  0  0  0  0
 17 19  1  0  0  0  0
 19  5  1  1  0  0  0
 19 21  1  0  0  0  0
 21 14  1  6  0  0  0
 23 14  1  6  0  0  0
 23 29  1  0  0  0  0
 25 26  1  1  0  0  0
 25 27  1  0  0  0  0
 27 18  1  6  0  0  0
 27 28  1  0  0  0  0
 28 20  1  1  0  0  0
 28 29  1  0  0  0  0
 29 11  1  6  0  0  0
 30 22  1  6  0  0  0
 30 31  1  0  0  0  0
 31 24  1  6  0  0  0
M  END
>  <CHROM.1>
61.30271274,-58.19034100,-68.28604139,62.26698796,68.02754662,62.62323511
16.96459049,5.99010912,14.77588875,2.94329632,-0.24101732,-2.31470203

>  <Name>
ligand

>  <RI>
0

>  <Rbt.Current_Directory>
/home/itssahil/PROJECTS/Mol_Feturizer/New_Systems/rnas/3DVV

>  <Rbt.Executable>
rbdock ($Id: //depot/dev/client3/rdock/2013.1/src/exe/rbdock.cxx#4 $)

>  <Rbt.Library>
libRbt.so (2013.1, Build901 2013/11/27)

>  <Rbt.Parameter_File>
/export/apps/rDock/src/rDock_2013.1_src/data/scripts/dock_solv.prm

>  <Rbt.Receptor>
prm/pocket_docking_8.prm

>  <SCORE>
-5.53505

>  <SCORE.INTER>
-1.52294

>  <SCORE.INTER.CONST>
1

>  <SCORE.INTER.POLAR>
0

>  <SCORE.INTER.ROT>
6

>  <SCORE.INTER.SOLV>
11.7258

>  <SCORE.INTER.VDW>
-12.5239

>  <SCORE.INTER.norm>
-0.0491272

>  <SCORE.INTRA>
-4.0121

>  <SCORE.INTRA.DIHEDRAL>
-9.83158

>  <SCORE.INTRA.DIHEDRAL.0>
10.8172

>  <SCORE.INTRA.POLAR>
0

>  <SCORE.INTRA.POLAR.0>
0

>  <SCORE.INTRA.REPUL>
0

>  <SCORE.INTRA.REPUL.0>
0

>  <SCORE.INTRA.SOLV>
-4.12227

>  <SCORE.INTRA.SOLV.lig_0>
-80.3833

>  <SCORE.INTRA.VDW>
2.96482

>  <SCORE.INTRA.VDW.0>
-4.63762

>  <SCORE.INTRA.norm>
-0.129423

>  <SCORE.RESTR>
0

>  <SCORE.RESTR.CAVITY>
0

>  <SCORE.RESTR.norm>
0

>  <SCORE.SYSTEM>
0

>  <SCORE.SYSTEM.CONST>
0

>  <SCORE.SYSTEM.DIHEDRAL>
0

>  <SCORE.SYSTEM.SOLV>
0

>  <SCORE.SYSTEM.norm>
0

>  <SCORE.heavy>
31

>  <SCORE.norm>
-0.17855

>  <RMSD>
3.803

$$$$
ligand
 OpenBabel11021811473D
libRbt.so/2013.1/901 2013/11/27
 31 33  0  0  0  0  0  0  0  0999 V2000
   13.3720    3.2206   18.1777 C   0  0  0  0  0  0  0  0  0  0  0  0
   16.2960    2.5682   10.5872 N   0  0  0  0  0  0  0  0  0  0  0  0
   13.8179    2.1628   17.3227 O   0  0  0  0  0  0  0  0  0  0  0  0
   13.7154    4.5785   17.5601 C   0  0  1  0  0  0  0  0  0  0  0  0
   19.7060    5.7356   12.0848 N   0  0  0  0  0  0  0  0  0  0  0  0
   15.1009    4.6083   17.1650 O   0  0  0  0  0  0  0  0  0  0  0  0
   15.1734    4.9731   15.7752 C   0  0  1  0  0  0  0  0  0  0  0  0
   21.0315    3.8908   15.7809 N   0  0  0  0  0  0  0  0  0  0  0  0
   16.2760    4.3324   15.1143 O   0  0  0  0  0  0  0  0  0  0  0  0
   16.4325    4.7216   13.7417 C   0  0  2  0  0  0  0  0  0  0  0  0
   17.1409    9.0156   15.3656 N   0  0  0  0  0  0  0  0  0  0  0  0
   14.8918    3.0144   12.9971 O   0  0  0  0  0  0  0  0  0  0  0  0
   16.2455    3.4625   12.8872 C   0  0  1  0  0  0  0  0  0  0  0  0
   17.9256    6.6467   14.1233 O   0  0  0  0  0  0  0  0  0  0  0  0
   16.5625    3.7518   11.4187 C   0  0  1  0  0  0  0  0  0  0  0  0
   18.9597    5.8515   16.0820 O   0  0  0  0  0  0  0  0  0  0  0  0
   18.0304    4.1607   11.2942 C   0  0  0  0  0  0  0  0  0  0  0  0
   21.8875    8.0314   15.6916 O   0  0  0  0  0  0  0  0  0  0  0  0
   18.2647    5.4428   12.0985 C   0  0  1  0  0  0  0  0  0  0  0  0
   19.7738    9.9062   16.2231 O   0  0  0  0  0  0  0  0  0  0  0  0
   17.8216    5.3265   13.5620 C   0  0  2  0  0  0  0  0  0  0  0  0
   13.5134    5.0213   13.9587 O   0  0  0  0  0  0  0  0  0  0  0  0
   17.9154    6.6930   15.5588 C   0  0  1  0  0  0  0  0  0  0  0  0
   12.5184    6.1758   16.1208 O   0  0  0  0  0  0  0  0  0  0  0  0
   20.2837    6.2258   15.6646 C   0  0  2  0  0  0  0  0  0  0  0  0
   21.2956    5.2522   16.2733 C   0  0  0  0  0  0  0  0  0  0  0  0
   20.5956    7.6383   16.1623 C   0  0  2  0  0  0  0  0  0  0  0  0
   19.5457    8.6199   15.6376 C   0  0  1  0  0  0  0  0  0  0  0  0
   18.1379    8.1424   16.0037 C   0  0  1  0  0  0  0  0  0  0  0  0
   13.8751    4.4111   15.1998 C   0  0  2  0  0  0  0  0  0  0  0  0
   12.8861    4.8048   16.2929 C   0  0  1  0  0  0  0  0  0  0  0  0
  1  3  1  0  0  0  0
  4  1  1  6  0  0  0
  4  6  1  0  0  0  0
  4 31  1  0  0  0  0
  6  7  1  0  0  0  0
  7  9  1  6  0  0  0
  7 30  1  0  0  0  0
  8 26  1  0  0  0  0
 10  9  1  1  0  0  0
 10 13  1  0  0  0  0
 10 21  1  0  0  0  0
 13 12  1  6  0  0  0
 13 15  1  0  0  0  0
 15  2  1  6  0  0  0
 15 17  1  0  0  0  0
 16 25  1  0  0  0  0
 16 23  1  0  0  0  0
 17 19  1  0  0  0  0
 19  5  1  1  0  0  0
 19 21  1  0  0  0  0
 21 14  1  6  0  0  0
 23 14  1  6  0  0  0
 23 29  1  0  0  0  0
 25 26  1  1  0  0  0
 25 27  1  0  0  0  0
 27 18  1  6  0  0  0
 27 28  1  0  0  0  0
 28 20  1  1  0  0  0
 28 29  1  0  0  0  0
 29 11  1  6  0  0  0
 30 22  1  6  0  0  0
 30 31  1  0  0  0  0
 31 24  1  6  0  0  0
M  END
>  <CHROM.1>
-49.96691340,-176.84262290,-117.94454021,55.44477660,71.05575744,61.87461274
17.04052526,5.43197063,14.92942024,2.91346101,-0.43914169,-2.11518211

>  <Name>
ligand

>  <RI>
0

>  <Rbt.Current_Directory>
/home/itssahil/PROJECTS/Mol_Feturizer/New_Systems/rnas/3DVV

>  <Rbt.Executable>
rbdock ($Id: //depot/dev/client3/rdock/2013.1/src/exe/rbdock.cxx#4 $)

>  <Rbt.Library>
libRbt.so (2013.1, Build901 2013/11/27)

>  <Rbt.Parameter_File>
/export/apps/rDock/src/rDock_2013.1_src/data/scripts/dock_solv.prm

>  <Rbt.Receptor>
prm/pocket_docking_6.prm

>  <SCORE>
-2.47048

>  <SCORE.INTER>
-1.90814

>  <SCORE.INTER.CONST>
1

>  <SCORE.INTER.POLAR>
0

>  <SCORE.INTER.ROT>
6

>  <SCORE.INTER.SOLV>
11.2048

>  <SCORE.INTER.VDW>
-12.607

>  <SCORE.INTER.norm>
-0.061553

>  <SCORE.INTRA>
-0.562337

>  <SCORE.INTRA.DIHEDRAL>
-2.27599

>  <SCORE.INTRA.DIHEDRAL.0>
10.8172

>  <SCORE.INTRA.POLAR>
0

>  <SCORE.INTRA.POLAR.0>
0

>  <SCORE.INTRA.REPUL>
0.000390467

>  <SCORE.INTRA.REPUL.0>
0

>  <SCORE.INTRA.SOLV>
-2.4894

>  <SCORE.INTRA.SOLV.lig_0>
-80.3833

>  <SCORE.INTRA.VDW>
1.8184

>  <SCORE.INTRA.VDW.0>
-4.63762

>  <SCORE.INTRA.norm>
-0.0181399

>  <SCORE.RESTR>
0

>  <SCORE.RESTR.CAVITY>
0

>  <SCORE.RESTR.norm>
0

>  <SCORE.SYSTEM>
0

>  <SCORE.SYSTEM.CONST>
0

>  <SCORE.SYSTEM.DIHEDRAL>
0

>  <SCORE.SYSTEM.SOLV>
0

>  <SCORE.SYSTEM.norm>
0

>  <SCORE.heavy>
31

>  <SCORE.norm>
-0.0796929

>  <RMSD>
3.915

$$$$
ligand
 OpenBabel11021811473D
libRbt.so/2013.1/901 2013/11/27
 31 33  0  0  0  0  0  0  0  0999 V2000
   14.1821    2.2315   17.8440 C   0  0  0  0  0  0  0  0  0  0  0  0
   18.4826    0.7963   13.2488 N   0  0  0  0  0  0  0  0  0  0  0  0
   13.7236    3.4706   17.2934 O   0  0  0  0  0  0  0  0  0  0  0  0
   15.6874    2.2992   18.1141 C   0  0  1  0  0  0  0  0  0  0  0  0
   21.8866    3.1834   15.8213 N   0  0  0  0  0  0  0  0  0  0  0  0
   16.3942    2.6383   16.9051 O   0  0  0  0  0  0  0  0  0  0  0  0
   17.2122    3.7938   17.1610 C   0  0  1  0  0  0  0  0  0  0  0  0
   17.0141    8.0175   12.9154 N   0  0  0  0  0  0  0  0  0  0  0  0
   17.3277    4.6311   15.9997 O   0  0  0  0  0  0  0  0  0  0  0  0
   18.2918    4.1648   15.0443 C   0  0  2  0  0  0  0  0  0  0  0  0
   22.3334    7.2770   15.5857 N   0  0  0  0  0  0  0  0  0  0  0  0
   16.6332    2.8294   13.9005 O   0  0  0  0  0  0  0  0  0  0  0  0
   17.8669    2.7541   14.6200 C   0  0  1  0  0  0  0  0  0  0  0  0
   20.2075    5.4932   15.8485 O   0  0  0  0  0  0  0  0  0  0  0  0
   18.9316    2.1123   13.7282 C   0  0  1  0  0  0  0  0  0  0  0  0
   19.0222    6.4985   14.0814 O   0  0  0  0  0  0  0  0  0  0  0  0
   20.2293    1.9664   14.5232 C   0  0  0  0  0  0  0  0  0  0  0  0
   17.9822    9.3727   16.1146 O   0  0  0  0  0  0  0  0  0  0  0  0
   20.7231    3.3554   14.9383 C   0  0  1  0  0  0  0  0  0  0  0  0
   20.8257    9.7433   15.9096 O   0  0  0  0  0  0  0  0  0  0  0  0
   19.6691    4.1676   15.7007 C   0  0  2  0  0  0  0  0  0  0  0  0
   17.2252    5.4841   18.9500 O   0  0  0  0  0  0  0  0  0  0  0  0
   20.3292    6.2333   14.6237 C   0  0  1  0  0  0  0  0  0  0  0  0
   17.0732    3.0608   19.9997 O   0  0  0  0  0  0  0  0  0  0  0  0
   18.1692    7.2668   14.9470 C   0  0  2  0  0  0  0  0  0  0  0  0
   16.8135    7.4678   14.2657 C   0  0  0  0  0  0  0  0  0  0  0  0
   18.8016    8.6359   15.2031 C   0  0  2  0  0  0  0  0  0  0  0  0
   20.1973    8.4613   15.8053 C   0  0  1  0  0  0  0  0  0  0  0  0
   21.0518    7.5521   14.9181 C   0  0  1  0  0  0  0  0  0  0  0  0
   16.4202    4.5522   18.2241 C   0  0  2  0  0  0  0  0  0  0  0  0
   15.9901    3.4032   19.1313 C   0  0  1  0  0  0  0  0  0  0  0  0
  1  3  1  0  0  0  0
  4  1  1  6  0  0  0
  4  6  1  0  0  0  0
  4 31  1  0  0  0  0
  6  7  1  0  0  0  0
  7  9  1  6  0  0  0
  7 30  1  0  0  0  0
  8 26  1  0  0  0  0
 10  9  1  1  0  0  0
 10 13  1  0  0  0  0
 10 21  1  0  0  0  0
 13 12  1  6  0  0  0
 13 15  1  0  0  0  0
 15  2  1  1  0  0  0
 15 17  1  0  0  0  0
 16 25  1  0  0  0  0
 16 23  1  0  0  0  0
 17 19  1  0  0  0  0
 19  5  1  1  0  0  0
 19 21  1  0  0  0  0
 21 14  1  6  0  0  0
 23 14  1  1  0  0  0
 23 29  1  0  0  0  0
 25 26  1  6  0  0  0
 25 27  1  0  0  0  0
 27 18  1  1  0  0  0
 27 28  1  0  0  0  0
 28 20  1  6  0  0  0
 28 29  1  0  0  0  0
 29 11  1  1  0  0  0
 30 22  1  1  0  0  0
 30 31  1  0  0  0  0
 31 24  1  1  0  0  0
M  END
>  <CHROM.1>
-56.36067462,-80.07592974,58.66053030,65.74259887,-57.51401579,-52.29266815
18.24381886,4.95088292,15.87930772,2.36729921,-0.65290444,-2.98325336

>  <Name>
ligand

>  <RI>
0

>  <Rbt.Current_Directory>
/home/itssahil/PROJECTS/Mol_Feturizer/New_Systems/rnas/3DVV

>  <Rbt.Executable>
rbdock ($Id: //depot/dev/client3/rdock/2013.1/src/exe/rbdock.cxx#4 $)

>  <Rbt.Library>
libRbt.so (2013.1, Build901 2013/11/27)

>  <Rbt.Parameter_File>
/export/apps/rDock/src/rDock_2013.1_src/data/scripts/dock_solv.prm

>  <Rbt.Receptor>
prm/pocket_docking_4.prm

>  <SCORE>
-2.32059

>  <SCORE.INTER>
-1.9149

>  <SCORE.INTER.CONST>
1

>  <SCORE.INTER.POLAR>
0

>  <SCORE.INTER.ROT>
6

>  <SCORE.INTER.SOLV>
15.8957

>  <SCORE.INTER.VDW>
-14.1752

>  <SCORE.INTER.norm>
-0.0617709

>  <SCORE.INTRA>
-0.405689

>  <SCORE.INTRA.DIHEDRAL>
-8.34731

>  <SCORE.INTRA.DIHEDRAL.0>
10.8172

>  <SCORE.INTRA.POLAR>
0

>  <SCORE.INTRA.POLAR.0>
0

>  <SCORE.INTRA.REPUL>
0

>  <SCORE.INTRA.REPUL.0>
0

>  <SCORE.INTRA.SOLV>
-1.74885

>  <SCORE.INTRA.SOLV.lig_0>
-80.3833

>  <SCORE.INTRA.VDW>
4.64239

>  <SCORE.INTRA.VDW.0>
-4.63762

>  <SCORE.INTRA.norm>
-0.0130868

>  <SCORE.RESTR>
0

>  <SCORE.RESTR.CAVITY>
0

>  <SCORE.RESTR.norm>
0

>  <SCORE.SYSTEM>
0

>  <SCORE.SYSTEM.CONST>
0

>  <SCORE.SYSTEM.DIHEDRAL>
0

>  <SCORE.SYSTEM.SOLV>
0

>  <SCORE.SYSTEM.norm>
0

>  <SCORE.heavy>
31

>  <SCORE.norm>
-0.0748576

>  <RMSD>
3.959

$$$$
ligand
 OpenBabel11021811473D
libRbt.so/2013.1/901 2013/11/27
 31 33  0  0  0  0  0  0  0  0999 V2000
   12.5027    2.5170   18.4899 C   0  0  0  0  0  0  0  0  0  0  0  0
   19.4812    0.5927   13.3369 N   0  0  0  0  0  0  0  0  0  0  0  0
   11.2316    3.1699   18.4074 O   0  0  0  0  0  0  0  0  0  0  0  0
   13.6314    3.5484   18.4154 C   0  0  1  0  0  0  0  0  0  0  0  0
   20.9401    4.0716   16.4468 N   0  0  0  0  0  0  0  0  0  0  0  0
   14.9113    2.8871   18.4463 O   0  0  0  0  0  0  0  0  0  0  0  0
   15.6725    3.3080   17.3003 C   0  0  1  0  0  0  0  0  0  0  0  0
   20.8403    7.7176   14.8527 N   0  0  0  0  0  0  0  0  0  0  0  0
   16.5251    2.2593   16.8140 O   0  0  0  0  0  0  0  0  0  0  0  0
   17.4521    2.6886   15.8060 C   0  0  2  0  0  0  0  0  0  0  0  0
   17.3475    5.0112   19.5633 N   0  0  0  0  0  0  0  0  0  0  0  0
   16.8607    0.8436   14.3608 O   0  0  0  0  0  0  0  0  0  0  0  0
   17.9479    1.4332   15.0790 C   0  0  1  0  0  0  0  0  0  0  0  0
   18.2081    4.7522   16.9245 O   0  0  0  0  0  0  0  0  0  0  0  0
   19.0691    1.7818   14.0981 C   0  0  1  0  0  0  0  0  0  0  0  0
   19.9121    6.3474   17.2244 O   0  0  0  0  0  0  0  0  0  0  0  0
   20.2585    2.3448   14.8764 C   0  0  0  0  0  0  0  0  0  0  0  0
   17.5887    9.1864   17.0906 O   0  0  0  0  0  0  0  0  0  0  0  0
   19.8285    3.6290   15.5916 C   0  0  1  0  0  0  0  0  0  0  0  0
   16.8393    7.8751   19.5367 O   0  0  0  0  0  0  0  0  0  0  0  0
   18.5951    3.4392   16.4829 C   0  0  2  0  0  0  0  0  0  0  0  0
   15.0634    4.4208   15.1911 O   0  0  0  0  0  0  0  0  0  0  0  0
   19.0993    5.3541   17.8765 C   0  0  1  0  0  0  0  0  0  0  0  0
   13.9483    5.6823   17.2314 O   0  0  0  0  0  0  0  0  0  0  0  0
   19.1651    7.4178   16.6216 C   0  0  2  0  0  0  0  0  0  0  0  0
   20.1369    8.3939   15.9543 C   0  0  0  0  0  0  0  0  0  0  0  0
   18.3793    8.1634   17.7017 C   0  0  2  0  0  0  0  0  0  0  0  0
   17.4613    7.1903   18.4443 C   0  0  1  0  0  0  0  0  0  0  0  0
   18.2652    6.0048   18.9850 C   0  0  1  0  0  0  0  0  0  0  0  0
   14.5979    3.5805   16.2498 C   0  0  2  0  0  0  0  0  0  0  0  0
   13.5578    4.3140   17.0912 C   0  0  1  0  0  0  0  0  0  0  0  0
  1  3  1  0  0  0  0
  4  1  1  6  0  0  0
  4  6  1  0  0  0  0
  4 31  1  0  0  0  0
  6  7  1  0  0  0  0
  7  9  1  6  0  0  0
  7 30  1  0  0  0  0
  8 26  1  0  0  0  0
 10  9  1  1  0  0  0
 10 13  1  0  0  0  0
 10 21  1  0  0  0  0
 13 12  1  6  0  0  0
 13 15  1  0  0  0  0
 15  2  1  1  0  0  0
 15 17  1  0  0  0  0
 16 25  1  0  0  0  0
 16 23  1  0  0  0  0
 17 19  1  0  0  0  0
 19  5  1  1  0  0  0
 19 21  1  0  0  0  0
 21 14  1  6  0  0  0
 23 14  1  6  0  0  0
 23 29  1  0  0  0  0
 25 26  1  1  0  0  0
 25 27  1  0  0  0  0
 27 18  1  6  0  0  0
 27 28  1  0  0  0  0
 28 20  1  1  0  0  0
 28 29  1  0  0  0  0
 29 11  1  6  0  0  0
 30 22  1  6  0  0  0
 30 31  1  0  0  0  0
 31 24  1  1  0  0  0
M  END
>  <CHROM.1>
-177.78504661,-170.92143270,-161.89693462,103.31383575,163.58179358,64.21501777
17.21374489,4.52708838,16.80349905,2.74810077,-0.38116044,-2.69037061

>  <Name>
ligand

>  <RI>
0

>  <Rbt.Current_Directory>
/home/itssahil/PROJECTS/Mol_Feturizer/New_Systems/rnas/3DVV

>  <Rbt.Executable>
rbdock ($Id: //depot/dev/client3/rdock/2013.1/src/exe/rbdock.cxx#4 $)

>  <Rbt.Library>
libRbt.so (2013.1, Build901 2013/11/27)

>  <Rbt.Parameter_File>
/export/apps/rDock/src/rDock_2013.1_src/data/scripts/dock_solv.prm

>  <Rbt.Receptor>
prm/pocket_docking_5.prm

>  <SCORE>
-4.76915

>  <SCORE.INTER>
-6.7063

>  <SCORE.INTER.CONST>
1

>  <SCORE.INTER.POLAR>
0

>  <SCORE.INTER.ROT>
6

>  <SCORE.INTER.SOLV>
13.6049

>  <SCORE.INTER.VDW>
-16.6058

>  <SCORE.INTER.norm>
-0.216332

>  <SCORE.INTRA>
1.93715

>  <SCORE.INTRA.DIHEDRAL>
-1.45175

>  <SCORE.INTRA.DIHEDRAL.0>
10.8172

>  <SCORE.INTRA.POLAR>
0

>  <SCORE.INTRA.POLAR.0>
0

>  <SCORE.INTRA.REPUL>
0

>  <SCORE.INTRA.REPUL.0>
0

>  <SCORE.INTRA.SOLV>
0.744116

>  <SCORE.INTRA.SOLV.lig_0>
-80.3833

>  <SCORE.INTRA.VDW>
2.29097

>  <SCORE.INTRA.VDW.0>
-4.63762

>  <SCORE.INTRA.norm>
0.0624887

>  <SCORE.RESTR>
0

>  <SCORE.RESTR.CAVITY>
0

>  <SCORE.RESTR.norm>
0

>  <SCORE.SYSTEM>
0

>  <SCORE.SYSTEM.CONST>
0

>  <SCORE.SYSTEM.DIHEDRAL>
0

>  <SCORE.SYSTEM.SOLV>
0

>  <SCORE.SYSTEM.norm>
0

>  <SCORE.heavy>
31

>  <SCORE.norm>
-0.153844

>  <RMSD>
4.254

$$$$
ligand
 OpenBabel11021811473D
libRbt.so/2013.1/901 2013/11/27
 31 33  0  0  0  0  0  0  0  0999 V2000
   16.4692   11.2908   18.8343 C   0  0  0  0  0  0  0  0  0  0  0  0
   12.8693    4.2665   16.2305 N   0  0  0  0  0  0  0  0  0  0  0  0
   17.7097   10.5896   18.9698 O   0  0  0  0  0  0  0  0  0  0  0  0
   15.2970   10.3502   19.1249 C   0  0  1  0  0  0  0  0  0  0  0  0
   17.6227    4.0312   15.1111 N   0  0  0  0  0  0  0  0  0  0  0  0
   15.3866    9.1744   18.2969 O   0  0  0  0  0  0  0  0  0  0  0  0
   15.3529    8.0128   19.1450 C   0  0  1  0  0  0  0  0  0  0  0  0
   22.9234    5.3981   15.9529 N   0  0  0  0  0  0  0  0  0  0  0  0
   16.1503    6.9430   18.6134 O   0  0  0  0  0  0  0  0  0  0  0  0
   15.7588    6.5297   17.2958 C   0  0  2  0  0  0  0  0  0  0  0  0
   17.7864    9.3975   16.4077 N   0  0  0  0  0  0  0  0  0  0  0  0
   13.4256    6.4582   17.9233 O   0  0  0  0  0  0  0  0  0  0  0  0
   14.5085    5.6552   17.4457 C   0  0  1  0  0  0  0  0  0  0  0  0
   17.9923    6.6218   16.2547 O   0  0  0  0  0  0  0  0  0  0  0  0
   14.1192    5.0313   16.1040 C   0  0  1  0  0  0  0  0  0  0  0  0
   19.8675    6.5882   17.6763 O   0  0  0  0  0  0  0  0  0  0  0  0
   15.2487    4.1162   15.6307 C   0  0  0  0  0  0  0  0  0  0  0  0
   22.1567    7.7604   15.0569 O   0  0  0  0  0  0  0  0  0  0  0  0
   16.5170    4.9494   15.4237 C   0  0  1  0  0  0  0  0  0  0  0  0
   20.4674   10.0469   15.4852 O   0  0  0  0  0  0  0  0  0  0  0  0
   16.9146    5.7610   16.6627 C   0  0  2  0  0  0  0  0  0  0  0  0
   15.6908    7.6818   21.5604 O   0  0  0  0  0  0  0  0  0  0  0  0
   18.6633    7.2971   17.3301 C   0  0  1  0  0  0  0  0  0  0  0  0
   14.0501    9.7158   21.1494 O   0  0  0  0  0  0  0  0  0  0  0  0
   20.8157    6.4762   16.6014 C   0  0  2  0  0  0  0  0  0  0  0  0
   22.0380    5.6954   17.0902 C   0  0  0  0  0  0  0  0  0  0  0  0
   21.2627    7.8733   16.1674 C   0  0  2  0  0  0  0  0  0  0  0  0
   20.0467    8.7055   15.7554 C   0  0  1  0  0  0  0  0  0  0  0  0
   19.0050    8.7206   16.8772 C   0  0  1  0  0  0  0  0  0  0  0  0
   16.0062    8.5047   20.4349 C   0  0  2  0  0  0  0  0  0  0  0  0
   15.3518    9.8754   20.5797 C   0  0  1  0  0  0  0  0  0  0  0  0
  1  3  1  0  0  0  0
  4  1  1  6  0  0  0
  4  6  1  0  0  0  0
  4 31  1  0  0  0  0
  6  7  1  0  0  0  0
  7  9  1  6  0  0  0
  7 30  1  0  0  0  0
  8 26  1  0  0  0  0
 10  9  1  1  0  0  0
 10 13  1  0  0  0  0
 10 21  1  0  0  0  0
 13 12  1  6  0  0  0
 13 15  1  0  0  0  0
 15  2  1  1  0  0  0
 15 17  1  0  0  0  0
 16 25  1  0  0  0  0
 16 23  1  0  0  0  0
 17 19  1  0  0  0  0
 19  5  1  1  0  0  0
 19 21  1  0  0  0  0
 21 14  1  6  0  0  0
 23 14  1  6  0  0  0
 23 29  1  0  0  0  0
 25 26  1  1  0  0  0
 25 27  1  0  0  0  0
 27 18  1  6  0  0  0
 27 28  1  0  0  0  0
 28 20  1  1  0  0  0
 28 29  1  0  0  0  0
 29 11  1  6  0  0  0
 30 22  1  1  0  0  0
 30 31  1  0  0  0  0
 31 24  1  6  0  0  0
M  END
>  <CHROM.1>
-53.99534288,-57.93852257,-77.86115279,98.18771452,64.97983863,171.55089164
17.34275593,7.43770076,17.48555290,-2.77502242,-0.31375588,-2.55508128

>  <Name>
ligand

>  <RI>
0

>  <Rbt.Current_Directory>
/home/itssahil/PROJECTS/Mol_Feturizer/New_Systems/rnas/3DVV

>  <Rbt.Executable>
rbdock ($Id: //depot/dev/client3/rdock/2013.1/src/exe/rbdock.cxx#4 $)

>  <Rbt.Library>
libRbt.so (2013.1, Build901 2013/11/27)

>  <Rbt.Parameter_File>
/export/apps/rDock/src/rDock_2013.1_src/data/scripts/dock_solv.prm

>  <Rbt.Receptor>
prm/pocket_docking_6.prm

>  <SCORE>
-7.76982

>  <SCORE.INTER>
-8.24099

>  <SCORE.INTER.CONST>
1

>  <SCORE.INTER.POLAR>
0

>  <SCORE.INTER.ROT>
6

>  <SCORE.INTER.SOLV>
12.7489

>  <SCORE.INTER.VDW>
-17.3436

>  <SCORE.INTER.norm>
-0.265839

>  <SCORE.INTRA>
0.471173

>  <SCORE.INTRA.DIHEDRAL>
-3.46114

>  <SCORE.INTRA.DIHEDRAL.0>
10.8172

>  <SCORE.INTRA.POLAR>
0

>  <SCORE.INTRA.POLAR.0>
0

>  <SCORE.INTRA.REPUL>
0

>  <SCORE.INTRA.REPUL.0>
0

>  <SCORE.INTRA.SOLV>
1.26369

>  <SCORE.INTRA.SOLV.lig_0>
-80.3833

>  <SCORE.INTRA.VDW>
1.5699

>  <SCORE.INTRA.VDW.0>
-4.63762

>  <SCORE.INTRA.norm>
0.0151991

>  <SCORE.RESTR>
0

>  <SCORE.RESTR.CAVITY>
0

>  <SCORE.RESTR.norm>
0

>  <SCORE.SYSTEM>
0

>  <SCORE.SYSTEM.CONST>
0

>  <SCORE.SYSTEM.DIHEDRAL>
0

>  <SCORE.SYSTEM.SOLV>
0

>  <SCORE.SYSTEM.norm>
0

>  <SCORE.heavy>
31

>  <SCORE.norm>
-0.250639

>  <RMSD>
4.322

$$$$
ligand
 OpenBabel11021811473D
libRbt.so/2013.1/901 2013/11/27
 31 33  0  0  0  0  0  0  0  0999 V2000
   16.3186   11.1168   19.0712 C   0  0  0  0  0  0  0  0  0  0  0  0
   12.7625    4.4074   15.9427 N   0  0  0  0  0  0  0  0  0  0  0  0
   16.0593   11.8026   17.8418 O   0  0  0  0  0  0  0  0  0  0  0  0
   15.2000   10.1129   19.3613 C   0  0  1  0  0  0  0  0  0  0  0  0
   17.4870    4.2531   14.6941 N   0  0  0  0  0  0  0  0  0  0  0  0
   15.2693    9.0108   18.4355 O   0  0  0  0  0  0  0  0  0  0  0  0
   15.3317    7.7850   19.1860 C   0  0  1  0  0  0  0  0  0  0  0  0
   21.4978    4.1582   16.9514 N   0  0  0  0  0  0  0  0  0  0  0  0
   16.1239    6.7915   18.5165 O   0  0  0  0  0  0  0  0  0  0  0  0
   15.6987    6.5225   17.1723 C   0  0  2  0  0  0  0  0  0  0  0  0
   17.8070    9.4663   16.4677 N   0  0  0  0  0  0  0  0  0  0  0  0
   13.3795    6.4041   17.8430 O   0  0  0  0  0  0  0  0  0  0  0  0
   14.4430    5.6472   17.2585 C   0  0  1  0  0  0  0  0  0  0  0  0
   17.9092    6.7057   16.0948 O   0  0  0  0  0  0  0  0  0  0  0  0
   14.0172    5.1713   15.8682 C   0  0  1  0  0  0  0  0  0  0  0  0
   19.7796    6.4894   17.5066 O   0  0  0  0  0  0  0  0  0  0  0  0
   15.1262    4.3020   15.2750 C   0  0  0  0  0  0  0  0  0  0  0  0
   22.1151    7.7792   14.9851 O   0  0  0  0  0  0  0  0  0  0  0  0
   16.3982    5.1421   15.1272 C   0  0  1  0  0  0  0  0  0  0  0  0
   20.5119   10.0860   15.5958 O   0  0  0  0  0  0  0  0  0  0  0  0
   16.8320    5.8154   16.4350 C   0  0  2  0  0  0  0  0  0  0  0  0
   15.8470    7.2757   21.5382 O   0  0  0  0  0  0  0  0  0  0  0  0
   18.6033    7.2681   17.2194 C   0  0  1  0  0  0  0  0  0  0  0  0
   14.1177    9.2731   21.4057 O   0  0  0  0  0  0  0  0  0  0  0  0
   20.7247    6.4276   16.4248 C   0  0  2  0  0  0  0  0  0  0  0  0
   21.9161    5.5653   16.8484 C   0  0  0  0  0  0  0  0  0  0  0  0
   21.2243    7.8370   16.1023 C   0  0  2  0  0  0  0  0  0  0  0  0
   20.0408    8.7442   15.7593 C   0  0  1  0  0  0  0  0  0  0  0  0
   18.9987    8.7092   16.8803 C   0  0  1  0  0  0  0  0  0  0  0  0
   16.0570    8.1968   20.4654 C   0  0  2  0  0  0  0  0  0  0  0  0
   15.3709    9.5262   20.7654 C   0  0  1  0  0  0  0  0  0  0  0  0
  1  3  1  0  0  0  0
  4  1  1  6  0  0  0
  4  6  1  0  0  0  0
  4 31  1  0  0  0  0
  6  7  1  0  0  0  0
  7  9  1  6  0  0  0
  7 30  1  0  0  0  0
  8 26  1  0  0  0  0
 10  9  1  1  0  0  0
 10 13  1  0  0  0  0
 10 21  1  0  0  0  0
 13 12  1  6  0  0  0
 13 15  1  0  0  0  0
 15  2  1  1  0  0  0
 15 17  1  0  0  0  0
 16 25  1  0  0  0  0
 16 23  1  0  0  0  0
 17 19  1  0  0  0  0
 19  5  1  1  0  0  0
 19 21  1  0  0  0  0
 21 14  1  6  0  0  0
 23 14  1  6  0  0  0
 23 29  1  0  0  0  0
 25 26  1  1  0  0  0
 25 27  1  0  0  0  0
 27 18  1  6  0  0  0
 27 28  1  0  0  0  0
 28 20  1  1  0  0  0
 28 29  1  0  0  0  0
 29 11  1  6  0  0  0
 30 22  1  1  0  0  0
 30 31  1  0  0  0  0
 31 24  1  6  0  0  0
M  END
>  <CHROM.1>
70.40962546,-54.75079136,-76.58497146,95.90061130,64.43985701,69.68993869
17.19286390,7.38486185,17.41358930,-2.71269569,-0.31728293,-2.56486968

>  <Name>
ligand

>  <RI>
0

>  <Rbt.Current_Directory>
/home/itssahil/PROJECTS/Mol_Feturizer/New_Systems/rnas/3DVV

>  <Rbt.Executable>
rbdock ($Id: //depot/dev/client3/rdock/2013.1/src/exe/rbdock.cxx#4 $)

>  <Rbt.Library>
libRbt.so (2013.1, Build901 2013/11/27)

>  <Rbt.Parameter_File>
/export/apps/rDock/src/rDock_2013.1_src/data/scripts/dock_solv.prm

>  <Rbt.Receptor>
prm/pocket_docking_8.prm

>  <SCORE>
-7.32428

>  <SCORE.INTER>
-6.53113

>  <SCORE.INTER.CONST>
1

>  <SCORE.INTER.POLAR>
0

>  <SCORE.INTER.ROT>
6

>  <SCORE.INTER.SOLV>
13.551

>  <SCORE.INTER.VDW>
-16.4711

>  <SCORE.INTER.norm>
-0.210681

>  <SCORE.INTRA>
-0.793153

>  <SCORE.INTRA.DIHEDRAL>
-3.63011

>  <SCORE.INTRA.DIHEDRAL.0>
10.8172

>  <SCORE.INTRA.POLAR>
0

>  <SCORE.INTRA.POLAR.0>
0

>  <SCORE.INTRA.REPUL>
0

>  <SCORE.INTRA.REPUL.0>
0

>  <SCORE.INTRA.SOLV>
-1.28757

>  <SCORE.INTRA.SOLV.lig_0>
-80.3833

>  <SCORE.INTRA.VDW>
1.66569

>  <SCORE.INTRA.VDW.0>
-4.63762

>  <SCORE.INTRA.norm>
-0.0255856

>  <SCORE.RESTR>
0

>  <SCORE.RESTR.CAVITY>
0

>  <SCORE.RESTR.norm>
0

>  <SCORE.SYSTEM>
0

>  <SCORE.SYSTEM.CONST>
0

>  <SCORE.SYSTEM.DIHEDRAL>
0

>  <SCORE.SYSTEM.SOLV>
0

>  <SCORE.SYSTEM.norm>
0

>  <SCORE.heavy>
31

>  <SCORE.norm>
-0.236267

>  <RMSD>
4.326

$$$$
ligand
 OpenBabel11021811473D
libRbt.so/2013.1/901 2013/11/27
 31 33  0  0  0  0  0  0  0  0999 V2000
   19.3322   10.0868   12.2153 C   0  0  0  0  0  0  0  0  0  0  0  0
   17.7275    2.3668   10.0682 N   0  0  0  0  0  0  0  0  0  0  0  0
   20.5610    9.8904   11.5079 O   0  0  0  0  0  0  0  0  0  0  0  0
   18.2161    9.2582   11.5743 C   0  0  1  0  0  0  0  0  0  0  0  0
   20.4381    2.2394   14.1351 N   0  0  0  0  0  0  0  0  0  0  0  0
   18.5050    7.8523   11.7027 O   0  0  0  0  0  0  0  0  0  0  0  0
   17.3837    7.2098   12.3349 C   0  0  1  0  0  0  0  0  0  0  0  0
   24.1121    3.9861   17.5032 N   0  0  0  0  0  0  0  0  0  0  0  0
   17.7977    6.1118   13.1631 O   0  0  0  0  0  0  0  0  0  0  0  0
   18.6516    5.1724   12.4934 C   0  0  2  0  0  0  0  0  0  0  0  0
   19.9596    7.8406   14.2403 N   0  0  0  0  0  0  0  0  0  0  0  0
   17.1927    5.0950   10.5678 O   0  0  0  0  0  0  0  0  0  0  0  0
   17.7580    4.2946   11.6094 C   0  0  1  0  0  0  0  0  0  0  0  0
   20.4366    5.0946   14.1931 O   0  0  0  0  0  0  0  0  0  0  0  0
   18.5649    3.1538   10.9862 C   0  0  1  0  0  0  0  0  0  0  0  0
   20.6903    5.0030   16.5309 O   0  0  0  0  0  0  0  0  0  0  0  0
   19.1079    2.2578   12.0997 C   0  0  0  0  0  0  0  0  0  0  0  0
   24.0601    6.4570   16.4486 O   0  0  0  0  0  0  0  0  0  0  0  0
   20.0442    3.0775   12.9925 C   0  0  1  0  0  0  0  0  0  0  0  0
   22.4090    8.6468   15.5862 O   0  0  0  0  0  0  0  0  0  0  0  0
   19.3905    4.3500   13.5448 C   0  0  2  0  0  0  0  0  0  0  0  0
   15.4633    8.0569   13.6203 O   0  0  0  0  0  0  0  0  0  0  0  0
   20.0606    5.7000   15.4400 C   0  0  1  0  0  0  0  0  0  0  0  0
   15.7708    9.4822   11.4131 O   0  0  0  0  0  0  0  0  0  0  0  0
   22.1273    5.0092   16.4837 C   0  0  2  0  0  0  0  0  0  0  0  0
   22.6719    4.2295   17.6829 C   0  0  0  0  0  0  0  0  0  0  0  0
   22.6344    6.4505   16.5597 C   0  0  2  0  0  0  0  0  0  0  0  0
   22.0342    7.2753   15.4193 C   0  0  1  0  0  0  0  0  0  0  0  0
   20.5072    7.1658   15.4271 C   0  0  1  0  0  0  0  0  0  0  0  0
   16.8176    8.3053   13.2359 C   0  0  2  0  0  0  0  0  0  0  0  0
   16.8915    9.5086   12.3007 C   0  0  1  0  0  0  0  0  0  0  0  0
  1  3  1  0  0  0  0
  4  1  1  1  0  0  0
  4  6  1  0  0  0  0
  4 31  1  0  0  0  0
  6  7  1  0  0  0  0
  7  9  1  1  0  0  0
  7 30  1  0  0  0  0
  8 26  1  0  0  0  0
 10  9  1  1  0  0  0
 10 13  1  0  0  0  0
 10 21  1  0  0  0  0
 13 12  1  6  0  0  0
 13 15  1  0  0  0  0
 15  2  1  6  0  0  0
 15 17  1  0  0  0  0
 16 25  1  0  0  0  0
 16 23  1  0  0  0  0
 17 19  1  0  0  0  0
 19  5  1  1  0  0  0
 19 21  1  0  0  0  0
 21 14  1  6  0  0  0
 23 14  1  6  0  0  0
 23 29  1  0  0  0  0
 25 26  1  1  0  0  0
 25 27  1  0  0  0  0
 27 18  1  6  0  0  0
 27 28  1  0  0  0  0
 28 20  1  1  0  0  0
 28 29  1  0  0  0  0
 29 11  1  6  0  0  0
 30 22  1  6  0  0  0
 30 31  1  0  0  0  0
 31 24  1  6  0  0  0
M  END
>  <CHROM.1>
64.40174440,-51.82765971,-77.95352152,108.20441571,95.71123879,168.27679481
19.58448411,6.19570900,13.64140170,-2.90573081,0.74974772,-3.02739764

>  <Name>
ligand

>  <RI>
0

>  <Rbt.Current_Directory>
/home/itssahil/PROJECTS/Mol_Feturizer/New_Systems/rnas/3DVV

>  <Rbt.Executable>
rbdock ($Id: //depot/dev/client3/rdock/2013.1/src/exe/rbdock.cxx#4 $)

>  <Rbt.Library>
libRbt.so (2013.1, Build901 2013/11/27)

>  <Rbt.Parameter_File>
/export/apps/rDock/src/rDock_2013.1_src/data/scripts/dock_solv.prm

>  <Rbt.Receptor>
prm/blind_docking_40.prm

>  <SCORE>
1.5094

>  <SCORE.INTER>
-2.48211

>  <SCORE.INTER.CONST>
1

>  <SCORE.INTER.POLAR>
0

>  <SCORE.INTER.ROT>
6

>  <SCORE.INTER.SOLV>
19.3625

>  <SCORE.INTER.VDW>
-15.7089

>  <SCORE.INTER.norm>
-0.0800681

>  <SCORE.INTRA>
3.84212

>  <SCORE.INTRA.DIHEDRAL>
2.8652

>  <SCORE.INTRA.DIHEDRAL.0>
10.8172

>  <SCORE.INTRA.POLAR>
0

>  <SCORE.INTRA.POLAR.0>
0

>  <SCORE.INTRA.REPUL>
0

>  <SCORE.INTRA.REPUL.0>
0

>  <SCORE.INTRA.SOLV>
2.52504

>  <SCORE.INTRA.SOLV.lig_0>
-80.3833

>  <SCORE.INTRA.VDW>
1.147

>  <SCORE.INTRA.VDW.0>
-4.63762

>  <SCORE.INTRA.norm>
0.123939

>  <SCORE.RESTR>
0.149394

>  <SCORE.RESTR.CAVITY>
0.149394

>  <SCORE.RESTR.norm>
0.00481917

>  <SCORE.SYSTEM>
0

>  <SCORE.SYSTEM.CONST>
0

>  <SCORE.SYSTEM.DIHEDRAL>
0

>  <SCORE.SYSTEM.SOLV>
0

>  <SCORE.SYSTEM.norm>
0

>  <SCORE.heavy>
31

>  <SCORE.norm>
0.0486904

>  <RMSD>
4.468

$$$$
ligand
 OpenBabel11021811473D
libRbt.so/2013.1/901 2013/11/27
 31 33  0  0  0  0  0  0  0  0999 V2000
   18.2497    9.9515   11.4638 C   0  0  0  0  0  0  0  0  0  0  0  0
   16.7186    1.1190   11.1142 N   0  0  0  0  0  0  0  0  0  0  0  0
   17.4279   10.7496   12.3219 O   0  0  0  0  0  0  0  0  0  0  0  0
   19.1238    9.0101   12.2963 C   0  0  1  0  0  0  0  0  0  0  0  0
   18.9894    2.1370   15.3226 N   0  0  0  0  0  0  0  0  0  0  0  0
   18.3203    7.9554   12.8605 O   0  0  0  0  0  0  0  0  0  0  0  0
   18.8940    6.6908   12.4843 C   0  0  1  0  0  0  0  0  0  0  0  0
   23.6134    3.5669   17.5439 N   0  0  0  0  0  0  0  0  0  0  0  0
   17.8869    5.6831   12.3025 O   0  0  0  0  0  0  0  0  0  0  0  0
   18.4056    4.3451   12.2775 C   0  0  2  0  0  0  0  0  0  0  0  0
   19.1126    6.9173   15.4205 N   0  0  0  0  0  0  0  0  0  0  0  0
   17.1188    3.7960   10.3064 O   0  0  0  0  0  0  0  0  0  0  0  0
   17.3176    3.4460   11.6788 C   0  0  1  0  0  0  0  0  0  0  0  0
   19.9582    4.5684   14.1803 O   0  0  0  0  0  0  0  0  0  0  0  0
   17.7210    1.9730   11.7695 C   0  0  1  0  0  0  0  0  0  0  0  0
   21.2034    3.9098   16.0655 O   0  0  0  0  0  0  0  0  0  0  0  0
   17.8622    1.5819   13.2407 C   0  0  0  0  0  0  0  0  0  0  0  0
   23.9276    6.2707   15.3717 O   0  0  0  0  0  0  0  0  0  0  0  0
   18.9699    2.4242   13.8803 C   0  0  1  0  0  0  0  0  0  0  0  0
   21.7375    8.0131   16.0291 O   0  0  0  0  0  0  0  0  0  0  0  0
   18.7593    3.9329   13.7033 C   0  0  2  0  0  0  0  0  0  0  0  0
   20.5244    6.0273   10.7639 O   0  0  0  0  0  0  0  0  0  0  0  0
   20.0627    4.6606   15.6097 C   0  0  1  0  0  0  0  0  0  0  0  0
   21.4155    8.1390   12.0845 O   0  0  0  0  0  0  0  0  0  0  0  0
   22.4588    4.3599   15.5281 C   0  0  2  0  0  0  0  0  0  0  0  0
   23.5836    3.4779   16.0753 C   0  0  0  0  0  0  0  0  0  0  0  0
   22.7098    5.8058   15.9599 C   0  0  2  0  0  0  0  0  0  0  0  0
   21.5536    6.6959   15.4995 C   0  0  1  0  0  0  0  0  0  0  0  0
   20.2180    6.1355   15.9954 C   0  0  1  0  0  0  0  0  0  0  0  0
   19.5290    6.9868   11.1271 C   0  0  2  0  0  0  0  0  0  0  0  0
   20.1740    8.3414   11.4048 C   0  0  1  0  0  0  0  0  0  0  0  0
  1  3  1  0  0  0  0
  4  1  1  6  0  0  0
  4  6  1  0  0  0  0
  4 31  1  0  0  0  0
  6  7  1  0  0  0  0
  7  9  1  6  0  0  0
  7 30  1  0  0  0  0
  8 26  1  0  0  0  0
 10  9  1  1  0  0  0
 10 13  1  0  0  0  0
 10 21  1  0  0  0  0
 13 12  1  6  0  0  0
 13 15  1  0  0  0  0
 15  2  1  1  0  0  0
 15 17  1  0  0  0  0
 16 25  1  0  0  0  0
 16 23  1  0  0  0  0
 17 19  1  0  0  0  0
 19  5  1  1  0  0  0
 19 21  1  0  0  0  0
 21 14  1  6  0  0  0
 23 14  1  6  0  0  0
 23 29  1  0  0  0  0
 25 26  1  1  0  0  0
 25 27  1  0  0  0  0
 27 18  1  6  0  0  0
 27 28  1  0  0  0  0
 28 20  1  1  0  0  0
 28 29  1  0  0  0  0
 29 11  1  6  0  0  0
 30 22  1  1  0  0  0
 30 31  1  0  0  0  0
 31 24  1  1  0  0  0
M  END
>  <CHROM.1>
72.46451492,-164.41063654,-163.70225521,117.38356679,156.48173423,-59.85213462
19.80177186,5.49246848,13.58844408,-2.71121804,0.76218177,2.91302653

>  <Name>
ligand

>  <RI>
0

>  <Rbt.Current_Directory>
/home/itssahil/PROJECTS/Mol_Feturizer/New_Systems/rnas/3DVV

>  <Rbt.Executable>
rbdock ($Id: //depot/dev/client3/rdock/2013.1/src/exe/rbdock.cxx#4 $)

>  <Rbt.Library>
libRbt.so (2013.1, Build901 2013/11/27)

>  <Rbt.Parameter_File>
/export/apps/rDock/src/rDock_2013.1_src/data/scripts/dock_solv.prm

>  <Rbt.Receptor>
prm/blind_docking_60.prm

>  <SCORE>
1.07015

>  <SCORE.INTER>
-2.27987

>  <SCORE.INTER.CONST>
1

>  <SCORE.INTER.POLAR>
0

>  <SCORE.INTER.ROT>
6

>  <SCORE.INTER.SOLV>
17.4989

>  <SCORE.INTER.VDW>
-14.9529

>  <SCORE.INTER.norm>
-0.0735442

>  <SCORE.INTRA>
3.25756

>  <SCORE.INTRA.DIHEDRAL>
1.82432

>  <SCORE.INTRA.DIHEDRAL.0>
10.8172

>  <SCORE.INTRA.POLAR>
0

>  <SCORE.INTRA.POLAR.0>
0

>  <SCORE.INTRA.REPUL>
0

>  <SCORE.INTRA.REPUL.0>
0

>  <SCORE.INTRA.SOLV>
2.26483

>  <SCORE.INTRA.SOLV.lig_0>
-80.3833

>  <SCORE.INTRA.VDW>
1.21299

>  <SCORE.INTRA.VDW.0>
-4.63762

>  <SCORE.INTRA.norm>
0.105083

>  <SCORE.RESTR>
0.0924587

>  <SCORE.RESTR.CAVITY>
0.0924587

>  <SCORE.RESTR.norm>
0.00298254

>  <SCORE.SYSTEM>
0

>  <SCORE.SYSTEM.CONST>
0

>  <SCORE.SYSTEM.DIHEDRAL>
0

>  <SCORE.SYSTEM.SOLV>
0

>  <SCORE.SYSTEM.norm>
0

>  <SCORE.heavy>
31

>  <SCORE.norm>
0.034521

>  <RMSD>
4.722

$$$$
ligand
 OpenBabel11021811473D
libRbt.so/2013.1/901 2013/11/27
 31 33  0  0  0  0  0  0  0  0999 V2000
   16.6895    0.7273   14.3872 C   0  0  0  0  0  0  0  0  0  0  0  0
   15.5435    5.2549   18.5203 N   0  0  0  0  0  0  0  0  0  0  0  0
   16.4141   -0.1536   13.2932 O   0  0  0  0  0  0  0  0  0  0  0  0
   17.5415    1.9073   13.9128 C   0  0  1  0  0  0  0  0  0  0  0  0
   18.0413    7.5771   15.0172 N   0  0  0  0  0  0  0  0  0  0  0  0
   17.7462    2.8383   14.9934 O   0  0  0  0  0  0  0  0  0  0  0  0
   19.1601    3.0504   15.1542 C   0  0  1  0  0  0  0  0  0  0  0  0
   24.3315    3.1226   16.9012 N   0  0  0  0  0  0  0  0  0  0  0  0
   19.5104    3.2794   16.5281 O   0  0  0  0  0  0  0  0  0  0  0  0
   18.9954    4.5094   17.0588 C   0  0  2  0  0  0  0  0  0  0  0  0
   21.2333    8.6735   15.4021 N   0  0  0  0  0  0  0  0  0  0  0  0
   17.6117    3.3357   18.6558 O   0  0  0  0  0  0  0  0  0  0  0  0
   17.5673    4.2336   17.5435 C   0  0  1  0  0  0  0  0  0  0  0  0
   20.3550    6.0434   15.6880 O   0  0  0  0  0  0  0  0  0  0  0  0
   16.8798    5.5317   17.9715 C   0  0  1  0  0  0  0  0  0  0  0  0
   21.7397    5.6846   17.5567 O   0  0  0  0  0  0  0  0  0  0  0  0
   16.7683    6.4615   16.7629 C   0  0  0  0  0  0  0  0  0  0  0  0
   24.7790    5.3543   15.5246 O   0  0  0  0  0  0  0  0  0  0  0  0
   18.1742    6.8044   16.2616 C   0  0  1  0  0  0  0  0  0  0  0  0
   24.0788    8.1191   15.1641 O   0  0  0  0  0  0  0  0  0  0  0  0
   19.0255    5.5655   15.9581 C   0  0  2  0  0  0  0  0  0  0  0  0
   21.1458    1.8249   14.3712 O   0  0  0  0  0  0  0  0  0  0  0  0
   21.0079    6.6694   16.8036 C   0  0  1  0  0  0  0  0  0  0  0  0
   19.4446    2.1571   12.3728 O   0  0  0  0  0  0  0  0  0  0  0  0
   22.7612    5.0068   16.8055 C   0  0  2  0  0  0  0  0  0  0  0  0
   23.4523    3.9829   17.7090 C   0  0  0  0  0  0  0  0  0  0  0  0
   23.7994    6.0220   16.3243 C   0  0  2  0  0  0  0  0  0  0  0  0
   23.1188    7.1080   15.4886 C   0  0  1  0  0  0  0  0  0  0  0  0
   21.9659    7.7409   16.2723 C   0  0  1  0  0  0  0  0  0  0  0  0
   19.7636    1.7164   14.7196 C   0  0  2  0  0  0  0  0  0  0  0  0
   18.9259    1.4161   13.4802 C   0  0  1  0  0  0  0  0  0  0  0  0
  1  3  1  0  0  0  0
  4  1  1  1  0  0  0
  4  6  1  0  0  0  0
  4 31  1  0  0  0  0
  6  7  1  0  0  0  0
  7  9  1  1  0  0  0
  7 30  1  0  0  0  0
  8 26  1  0  0  0  0
 10  9  1  6  0  0  0
 10 13  1  0  0  0  0
 10 21  1  0  0  0  0
 13 12  1  1  0  0  0
 13 15  1  0  0  0  0
 15  2  1  6  0  0  0
 15 17  1  0  0  0  0
 16 25  1  0  0  0  0
 16 23  1  0  0  0  0
 17 19  1  0  0  0  0
 19  5  1  6  0  0  0
 19 21  1  0  0  0  0
 21 14  1  1  0  0  0
 23 14  1  6  0  0  0
 23 29  1  0  0  0  0
 25 26  1  1  0  0  0
 25 27  1  0  0  0  0
 27 18  1  6  0  0  0
 27 28  1  0  0  0  0
 28 20  1  1  0  0  0
 28 29  1  0  0  0  0
 29 11  1  6  0  0  0
 30 22  1  6  0  0  0
 30 31  1  0  0  0  0
 31 24  1  6  0  0  0
M  END
>  <CHROM.1>
176.29375647,-66.86494654,85.19946937,90.13916269,-60.68328622,170.15480780
19.93834912,4.52648107,15.86602919,-2.48320435,0.16089282,0.47548402

>  <Name>
ligand

>  <RI>
0

>  <Rbt.Current_Directory>
/home/itssahil/PROJECTS/Mol_Feturizer/New_Systems/rnas/3DVV

>  <Rbt.Executable>
rbdock ($Id: //depot/dev/client3/rdock/2013.1/src/exe/rbdock.cxx#4 $)

>  <Rbt.Library>
libRbt.so (2013.1, Build901 2013/11/27)

>  <Rbt.Parameter_File>
/export/apps/rDock/src/rDock_2013.1_src/data/scripts/dock_solv.prm

>  <Rbt.Receptor>
prm/pocket_docking_2.prm

>  <SCORE>
-1.62138

>  <SCORE.INTER>
-4.4186

>  <SCORE.INTER.CONST>
1

>  <SCORE.INTER.POLAR>
0

>  <SCORE.INTER.ROT>
6

>  <SCORE.INTER.SOLV>
19.0557

>  <SCORE.INTER.VDW>
-16.8976

>  <SCORE.INTER.norm>
-0.142535

>  <SCORE.INTRA>
2.40143

>  <SCORE.INTRA.DIHEDRAL>
-3.6051

>  <SCORE.INTRA.DIHEDRAL.0>
10.8172

>  <SCORE.INTRA.POLAR>
0

>  <SCORE.INTRA.POLAR.0>
0

>  <SCORE.INTRA.REPUL>
0

>  <SCORE.INTRA.REPUL.0>
0

>  <SCORE.INTRA.SOLV>
-1.28889

>  <SCORE.INTRA.SOLV.lig_0>
-80.3833

>  <SCORE.INTRA.VDW>
4.84842

>  <SCORE.INTRA.VDW.0>
-4.63762

>  <SCORE.INTRA.norm>
0.0774653

>  <SCORE.RESTR>
0.395793

>  <SCORE.RESTR.CAVITY>
0.395793

>  <SCORE.RESTR.norm>
0.0127675

>  <SCORE.SYSTEM>
0

>  <SCORE.SYSTEM.CONST>
0

>  <SCORE.SYSTEM.DIHEDRAL>
0

>  <SCORE.SYSTEM.SOLV>
0

>  <SCORE.SYSTEM.norm>
0

>  <SCORE.heavy>
31

>  <SCORE.norm>
-0.0523026

>  <RMSD>
4.741

$$$$
ligand
 OpenBabel11021811473D
libRbt.so/2013.1/901 2013/11/27
 31 33  0  0  0  0  0  0  0  0999 V2000
   17.3372    0.7699   14.0497 C   0  0  0  0  0  0  0  0  0  0  0  0
   16.2831    5.3365   18.2803 N   0  0  0  0  0  0  0  0  0  0  0  0
   16.1007    1.1560   14.6585 O   0  0  0  0  0  0  0  0  0  0  0  0
   18.1248    2.0109   13.6220 C   0  0  1  0  0  0  0  0  0  0  0  0
   19.0219    7.7550   15.0317 N   0  0  0  0  0  0  0  0  0  0  0  0
   18.3515    2.8705   14.7560 O   0  0  0  0  0  0  0  0  0  0  0  0
   19.7637    3.1228   14.8649 C   0  0  1  0  0  0  0  0  0  0  0  0
   25.0347    2.8299   16.6989 N   0  0  0  0  0  0  0  0  0  0  0  0
   20.1739    3.2673   16.2338 O   0  0  0  0  0  0  0  0  0  0  0  0
   19.7221    4.4836   16.8474 C   0  0  2  0  0  0  0  0  0  0  0  0
   22.2412    8.6183   15.5824 N   0  0  0  0  0  0  0  0  0  0  0  0
   18.2218    3.2824   18.3134 O   0  0  0  0  0  0  0  0  0  0  0  0
   18.2661    4.2645   17.2746 C   0  0  1  0  0  0  0  0  0  0  0  0
   21.2144    6.0273   15.6345 O   0  0  0  0  0  0  0  0  0  0  0  0
   17.6494    5.5676   17.7870 C   0  0  1  0  0  0  0  0  0  0  0  0
   22.5301    5.4422   17.4959 O   0  0  0  0  0  0  0  0  0  0  0  0
   17.6315    6.5931   16.6532 C   0  0  0  0  0  0  0  0  0  0  0  0
   25.5971    5.1058   15.5068 O   0  0  0  0  0  0  0  0  0  0  0  0
   19.0701    6.8817   16.2141 C   0  0  1  0  0  0  0  0  0  0  0  0
   25.0575    7.9257   15.3587 O   0  0  0  0  0  0  0  0  0  0  0  0
   19.8503    5.6173   15.8344 C   0  0  2  0  0  0  0  0  0  0  0  0
   21.7480    2.0295   13.9032 O   0  0  0  0  0  0  0  0  0  0  0  0
   21.8721    6.5239   16.8107 C   0  0  1  0  0  0  0  0  0  0  0  0
   19.9398    2.4384   12.0161 O   0  0  0  0  0  0  0  0  0  0  0  0
   23.5318    4.7706   16.7131 C   0  0  2  0  0  0  0  0  0  0  0  0
   24.1433    3.6402   17.5442 C   0  0  0  0  0  0  0  0  0  0  0  0
   24.6355    5.7612   16.3380 C   0  0  2  0  0  0  0  0  0  0  0  0
   24.0361    6.9474   15.5798 C   0  0  1  0  0  0  0  0  0  0  0  0
   22.9000    7.5791   16.3885 C   0  0  1  0  0  0  0  0  0  0  0  0
   20.3892    1.8458   14.3074 C   0  0  2  0  0  0  0  0  0  0  0  0
   19.5017    1.6027   13.0904 C   0  0  1  0  0  0  0  0  0  0  0  0
  1  3  1  0  0  0  0
  4  1  1  1  0  0  0
  4  6  1  0  0  0  0
  4 31  1  0  0  0  0
  6  7  1  0  0  0  0
  7  9  1  1  0  0  0
  7 30  1  0  0  0  0
  8 26  1  0  0  0  0
 10  9  1  6  0  0  0
 10 13  1  0  0  0  0
 10 21  1  0  0  0  0
 13 12  1  1  0  0  0
 13 15  1  0  0  0  0
 15  2  1  6  0  0  0
 15 17  1  0  0  0  0
 16 25  1  0  0  0  0
 16 23  1  0  0  0  0
 17 19  1  0  0  0  0
 19  5  1  6  0  0  0
 19 21  1  0  0  0  0
 21 14  1  1  0  0  0
 23 14  1  6  0  0  0
 23 29  1  0  0  0  0
 25 26  1  1  0  0  0
 25 27  1  0  0  0  0
 27 18  1  6  0  0  0
 27 28  1  0  0  0  0
 28 20  1  1  0  0  0
 28 29  1  0  0  0  0
 29 11  1  6  0  0  0
 30 22  1  6  0  0  0
 30 31  1  0  0  0  0
 31 24  1  6  0  0  0
M  END
>  <CHROM.1>
57.10990539,-70.97788935,80.80520468,90.73441932,-60.79140401,172.29344221
20.65374808,4.54791959,15.76727028,-2.60333418,0.12565523,0.49900059

>  <Name>
ligand

>  <RI>
0

>  <Rbt.Current_Directory>
/home/itssahil/PROJECTS/Mol_Feturizer/New_Systems/rnas/3DVV

>  <Rbt.Executable>
rbdock ($Id: //depot/dev/client3/rdock/2013.1/src/exe/rbdock.cxx#4 $)

>  <Rbt.Library>
libRbt.so (2013.1, Build901 2013/11/27)

>  <Rbt.Parameter_File>
/export/apps/rDock/src/rDock_2013.1_src/data/scripts/dock_solv.prm

>  <Rbt.Receptor>
prm/pocket_docking_2.prm

>  <SCORE>
-2.88321

>  <SCORE.INTER>
-5.83898

>  <SCORE.INTER.CONST>
1

>  <SCORE.INTER.POLAR>
0

>  <SCORE.INTER.ROT>
6

>  <SCORE.INTER.SOLV>
20.5511

>  <SCORE.INTER.VDW>
-18.343

>  <SCORE.INTER.norm>
-0.188354

>  <SCORE.INTRA>
1.72932

>  <SCORE.INTRA.DIHEDRAL>
-4.07945

>  <SCORE.INTRA.DIHEDRAL.0>
10.8172

>  <SCORE.INTRA.POLAR>
0

>  <SCORE.INTRA.POLAR.0>
0

>  <SCORE.INTRA.REPUL>
0

>  <SCORE.INTRA.REPUL.0>
0

>  <SCORE.INTRA.SOLV>
-1.29755

>  <SCORE.INTRA.SOLV.lig_0>
-80.3833

>  <SCORE.INTRA.VDW>
4.41781

>  <SCORE.INTRA.VDW.0>
-4.63762

>  <SCORE.INTRA.norm>
0.0557844

>  <SCORE.RESTR>
1.22646

>  <SCORE.RESTR.CAVITY>
1.22646

>  <SCORE.RESTR.norm>
0.0395632

>  <SCORE.SYSTEM>
0

>  <SCORE.SYSTEM.CONST>
0

>  <SCORE.SYSTEM.DIHEDRAL>
0

>  <SCORE.SYSTEM.SOLV>
0

>  <SCORE.SYSTEM.norm>
0

>  <SCORE.heavy>
31

>  <SCORE.norm>
-0.0930066

>  <RMSD>
4.788

$$$$
ligand
 OpenBabel11021811473D
libRbt.so/2013.1/901 2013/11/27
 31 33  0  0  0  0  0  0  0  0999 V2000
   11.9561    3.7257   18.6975 C   0  0  0  0  0  0  0  0  0  0  0  0
   12.7217    4.2524   12.7814 N   0  0  0  0  0  0  0  0  0  0  0  0
   10.7959    3.3898   17.9295 O   0  0  0  0  0  0  0  0  0  0  0  0
   13.1210    2.8057   18.3234 C   0  0  1  0  0  0  0  0  0  0  0  0
   16.2884    0.9782   13.4606 N   0  0  0  0  0  0  0  0  0  0  0  0
   13.7520    3.2699   17.1140 O   0  0  0  0  0  0  0  0  0  0  0  0
   15.1569    3.4467   17.3687 C   0  0  1  0  0  0  0  0  0  0  0  0
   17.5746    6.9399   16.9328 N   0  0  0  0  0  0  0  0  0  0  0  0
   15.7020    4.5363   16.6082 O   0  0  0  0  0  0  0  0  0  0  0  0
   15.6883    4.3156   15.1901 C   0  0  2  0  0  0  0  0  0  0  0  0
   19.8297    1.9296   13.5596 N   0  0  0  0  0  0  0  0  0  0  0  0
   13.7930    5.7867   14.8972 O   0  0  0  0  0  0  0  0  0  0  0  0
   14.2327    4.4369   14.7244 C   0  0  1  0  0  0  0  0  0  0  0  0
   17.6875    2.8767   15.0710 O   0  0  0  0  0  0  0  0  0  0  0  0
   14.1009    4.0492   13.2502 C   0  0  1  0  0  0  0  0  0  0  0  0
   18.4323    5.1029   14.9050 O   0  0  0  0  0  0  0  0  0  0  0  0
   14.5024    2.5839   13.0798 C   0  0  0  0  0  0  0  0  0  0  0  0
   21.0922    4.6362   17.3917 O   0  0  0  0  0  0  0  0  0  0  0  0
   15.9673    2.4131   13.4930 C   0  0  1  0  0  0  0  0  0  0  0  0
   21.9791    2.9927   15.2061 O   0  0  0  0  0  0  0  0  0  0  0  0
   16.2595    2.9293   14.9072 C   0  0  2  0  0  0  0  0  0  0  0  0
   16.4848    3.6174   19.4339 O   0  0  0  0  0  0  0  0  0  0  0  0
   18.4206    3.8130   14.2657 C   0  0  1  0  0  0  0  0  0  0  0  0
   14.8228    1.5658   19.5971 O   0  0  0  0  0  0  0  0  0  0  0  0
   19.0414    5.1102   16.2074 C   0  0  2  0  0  0  0  0  0  0  0  0
   18.9791    6.5273   16.7822 C   0  0  0  0  0  0  0  0  0  0  0  0
   20.5072    4.6892   16.0878 C   0  0  2  0  0  0  0  0  0  0  0  0
   20.6017    3.3089   15.4345 C   0  0  1  0  0  0  0  0  0  0  0  0
   19.8541    3.2981   14.0985 C   0  0  1  0  0  0  0  0  0  0  0  0
   15.1975    3.8245   18.8479 C   0  0  2  0  0  0  0  0  0  0  0  0
   14.1878    2.8348   19.4216 C   0  0  1  0  0  0  0  0  0  0  0  0
  1  3  1  0  0  0  0
  4  1  1  1  0  0  0
  4  6  1  0  0  0  0
  4 31  1  0  0  0  0
  6  7  1  0  0  0  0
  7  9  1  6  0  0  0
  7 30  1  0  0  0  0
  8 26  1  0  0  0  0
 10  9  1  1  0  0  0
 10 13  1  0  0  0  0
 10 21  1  0  0  0  0
 13 12  1  6  0  0  0
 13 15  1  0  0  0  0
 15  2  1  1  0  0  0
 15 17  1  0  0  0  0
 16 25  1  0  0  0  0
 16 23  1  0  0  0  0
 17 19  1  0  0  0  0
 19  5  1  1  0  0  0
 19 21  1  0  0  0  0
 21 14  1  6  0  0  0
 23 14  1  1  0  0  0
 23 29  1  0  0  0  0
 25 26  1  6  0  0  0
 25 27  1  0  0  0  0
 27 18  1  1  0  0  0
 27 28  1  0  0  0  0
 28 20  1  6  0  0  0
 28 29  1  0  0  0  0
 29 11  1  1  0  0  0
 30 22  1  1  0  0  0
 30 31  1  0  0  0  0
 31 24  1  6  0  0  0
M  END
>  <CHROM.1>
80.95263561,-65.53030517,72.75072619,82.17254788,-56.87973988,61.78565907
16.40665193,3.74567793,16.01261717,-2.88236484,-0.09455838,-1.68267287

>  <Name>
ligand

>  <RI>
0

>  <Rbt.Current_Directory>
/home/itssahil/PROJECTS/Mol_Feturizer/New_Systems/rnas/3DVV

>  <Rbt.Executable>
rbdock ($Id: //depot/dev/client3/rdock/2013.1/src/exe/rbdock.cxx#4 $)

>  <Rbt.Library>
libRbt.so (2013.1, Build901 2013/11/27)

>  <Rbt.Parameter_File>
/export/apps/rDock/src/rDock_2013.1_src/data/scripts/dock_solv.prm

>  <Rbt.Receptor>
prm/pocket_docking_6.prm

>  <SCORE>
-1.43685

>  <SCORE.INTER>
-1.56037

>  <SCORE.INTER.CONST>
1

>  <SCORE.INTER.POLAR>
0

>  <SCORE.INTER.ROT>
6

>  <SCORE.INTER.SOLV>
15.8711

>  <SCORE.INTER.VDW>
-13.9306

>  <SCORE.INTER.norm>
-0.0503345

>  <SCORE.INTRA>
0.123519

>  <SCORE.INTRA.DIHEDRAL>
-5.96237

>  <SCORE.INTRA.DIHEDRAL.0>
10.8172

>  <SCORE.INTRA.POLAR>
0

>  <SCORE.INTRA.POLAR.0>
0

>  <SCORE.INTRA.REPUL>
0

>  <SCORE.INTRA.REPUL.0>
0

>  <SCORE.INTRA.SOLV>
-1.14395

>  <SCORE.INTRA.SOLV.lig_0>
-80.3833

>  <SCORE.INTRA.VDW>
3.67668

>  <SCORE.INTRA.VDW.0>
-4.63762

>  <SCORE.INTRA.norm>
0.00398449

>  <SCORE.RESTR>
0

>  <SCORE.RESTR.CAVITY>
0

>  <SCORE.RESTR.norm>
0

>  <SCORE.SYSTEM>
0

>  <SCORE.SYSTEM.CONST>
0

>  <SCORE.SYSTEM.DIHEDRAL>
0

>  <SCORE.SYSTEM.SOLV>
0

>  <SCORE.SYSTEM.norm>
0

>  <SCORE.heavy>
31

>  <SCORE.norm>
-0.04635

>  <RMSD>
4.805

$$$$
ligand
 OpenBabel11021811473D
libRbt.so/2013.1/901 2013/11/27
 31 33  0  0  0  0  0  0  0  0999 V2000
   21.8365    7.0209   15.7667 C   0  0  0  0  0  0  0  0  0  0  0  0
   18.7925   -0.7672   12.2368 N   0  0  0  0  0  0  0  0  0  0  0  0
   22.7734    7.8713   16.4360 O   0  0  0  0  0  0  0  0  0  0  0  0
   21.6203    5.7373   16.5722 C   0  0  1  0  0  0  0  0  0  0  0  0
   16.2108    2.7679   14.4143 N   0  0  0  0  0  0  0  0  0  0  0  0
   20.7265    4.8535   15.8676 O   0  0  0  0  0  0  0  0  0  0  0  0
   21.3703    3.5759   15.7160 C   0  0  1  0  0  0  0  0  0  0  0  0
   17.4669    3.6705   20.4127 N   0  0  0  0  0  0  0  0  0  0  0  0
   20.9940    2.9333   14.4878 O   0  0  0  0  0  0  0  0  0  0  0  0
   19.9288    1.9827   14.6354 C   0  0  2  0  0  0  0  0  0  0  0  0
   17.8768    5.3387   14.1890 N   0  0  0  0  0  0  0  0  0  0  0  0
   21.1401    0.3083   13.3817 O   0  0  0  0  0  0  0  0  0  0  0  0
   19.9412    1.0881   13.3905 C   0  0  1  0  0  0  0  0  0  0  0  0
   18.4655    3.3612   16.0635 O   0  0  0  0  0  0  0  0  0  0  0  0
   18.7314    0.1515   13.3838 C   0  0  1  0  0  0  0  0  0  0  0  0
   16.9662    4.2704   17.6332 O   0  0  0  0  0  0  0  0  0  0  0  0
   17.4521    0.9862   13.3198 C   0  0  0  0  0  0  0  0  0  0  0  0
   19.2302    7.0126   18.5446 O   0  0  0  0  0  0  0  0  0  0  0  0
   17.3676    1.8723   14.5661 C   0  0  1  0  0  0  0  0  0  0  0  0
   18.5318    7.6496   15.8296 O   0  0  0  0  0  0  0  0  0  0  0  0
   18.6131    2.7427   14.7733 C   0  0  2  0  0  0  0  0  0  0  0  0
   23.7075    2.8332   15.9263 O   0  0  0  0  0  0  0  0  0  0  0  0
   17.2594    4.1227   16.2315 C   0  0  1  0  0  0  0  0  0  0  0  0
   23.0472    4.3328   18.0030 O   0  0  0  0  0  0  0  0  0  0  0  0
   17.9908    4.9461   18.3821 C   0  0  2  0  0  0  0  0  0  0  0  0
   17.5679    5.0269   19.8508 C   0  0  0  0  0  0  0  0  0  0  0  0
   18.1675    6.3655   17.8397 C   0  0  2  0  0  0  0  0  0  0  0  0
   18.5061    6.3157   16.3484 C   0  0  1  0  0  0  0  0  0  0  0  0
   17.4562    5.5000   15.5893 C   0  0  1  0  0  0  0  0  0  0  0  0
   22.8513    3.9401   15.6343 C   0  0  2  0  0  0  0  0  0  0  0  0
   22.9467    4.9901   16.7372 C   0  0  1  0  0  0  0  0  0  0  0  0
  1  3  1  0  0  0  0
  4  1  1  6  0  0  0
  4  6  1  0  0  0  0
  4 31  1  0  0  0  0
  6  7  1  0  0  0  0
  7  9  1  6  0  0  0
  7 30  1  0  0  0  0
  8 26  1  0  0  0  0
 10  9  1  6  0  0  0
 10 13  1  0  0  0  0
 10 21  1  0  0  0  0
 13 12  1  1  0  0  0
 13 15  1  0  0  0  0
 15  2  1  6  0  0  0
 15 17  1  0  0  0  0
 16 25  1  0  0  0  0
 16 23  1  0  0  0  0
 17 19  1  0  0  0  0
 19  5  1  6  0  0  0
 19 21  1  0  0  0  0
 21 14  1  1  0  0  0
 23 14  1  1  0  0  0
 23 29  1  0  0  0  0
 25 26  1  1  0  0  0
 25 27  1  0  0  0  0
 27 18  1  1  0  0  0
 27 28  1  0  0  0  0
 28 20  1  6  0  0  0
 28 29  1  0  0  0  0
 29 11  1  6  0  0  0
 30 22  1  1  0  0  0
 30 31  1  0  0  0  0
 31 24  1  1  0  0  0
M  END
>  <CHROM.1>
-177.26896705,-96.49054692,-162.53491553,158.77519269,178.27538818,63.74515273
19.58134201,3.99245350,15.89726625,-1.42723081,-0.14147993,-2.47062587

>  <Name>
ligand

>  <RI>
0

>  <Rbt.Current_Directory>
/home/itssahil/PROJECTS/Mol_Feturizer/New_Systems/rnas/3DVV

>  <Rbt.Executable>
rbdock ($Id: //depot/dev/client3/rdock/2013.1/src/exe/rbdock.cxx#4 $)

>  <Rbt.Library>
libRbt.so (2013.1, Build901 2013/11/27)

>  <Rbt.Parameter_File>
/export/apps/rDock/src/rDock_2013.1_src/data/scripts/dock_solv.prm

>  <Rbt.Receptor>
prm/pocket_docking_3.prm

>  <SCORE>
-1.01534

>  <SCORE.INTER>
-4.98487

>  <SCORE.INTER.CONST>
1

>  <SCORE.INTER.POLAR>
0

>  <SCORE.INTER.ROT>
6

>  <SCORE.INTER.SOLV>
16.2008

>  <SCORE.INTER.VDW>
-16.3235

>  <SCORE.INTER.norm>
-0.160802

>  <SCORE.INTRA>
3.96954

>  <SCORE.INTRA.DIHEDRAL>
-2.45623

>  <SCORE.INTRA.DIHEDRAL.0>
10.8172

>  <SCORE.INTRA.POLAR>
0

>  <SCORE.INTRA.POLAR.0>
0

>  <SCORE.INTRA.REPUL>
0

>  <SCORE.INTRA.REPUL.0>
0

>  <SCORE.INTRA.SOLV>
2.44361

>  <SCORE.INTRA.SOLV.lig_0>
-80.3833

>  <SCORE.INTRA.VDW>
3.97585

>  <SCORE.INTRA.VDW.0>
-4.63762

>  <SCORE.INTRA.norm>
0.12805

>  <SCORE.RESTR>
0

>  <SCORE.RESTR.CAVITY>
0

>  <SCORE.RESTR.norm>
0

>  <SCORE.SYSTEM>
0

>  <SCORE.SYSTEM.CONST>
0

>  <SCORE.SYSTEM.DIHEDRAL>
0

>  <SCORE.SYSTEM.SOLV>
0

>  <SCORE.SYSTEM.norm>
0

>  <SCORE.heavy>
31

>  <SCORE.norm>
-0.0327528

>  <RMSD>
4.873

$$$$
ligand
 OpenBabel11021811473D
libRbt.so/2013.1/901 2013/11/27
 31 33  0  0  0  0  0  0  0  0999 V2000
   13.4009    2.5689   18.1348 C   0  0  0  0  0  0  0  0  0  0  0  0
   15.5331    7.4722   21.0779 N   0  0  0  0  0  0  0  0  0  0  0  0
   12.5876    3.3862   18.9830 O   0  0  0  0  0  0  0  0  0  0  0  0
   14.3304    3.4451   17.2914 C   0  0  1  0  0  0  0  0  0  0  0  0
   18.7002    8.2041   17.4259 N   0  0  0  0  0  0  0  0  0  0  0  0
   15.2887    4.1103   18.1373 O   0  0  0  0  0  0  0  0  0  0  0  0
   16.6108    3.8149   17.6528 C   0  0  1  0  0  0  0  0  0  0  0  0
   24.6997    4.3940   17.3134 N   0  0  0  0  0  0  0  0  0  0  0  0
   17.5648    3.7389   18.7239 O   0  0  0  0  0  0  0  0  0  0  0  0
   17.8673    5.0090   19.3199 C   0  0  2  0  0  0  0  0  0  0  0  0
   18.4559    4.9174   15.5110 N   0  0  0  0  0  0  0  0  0  0  0  0
   16.1568    4.7183   21.0028 O   0  0  0  0  0  0  0  0  0  0  0  0
   16.5643    5.5541   19.9161 C   0  0  1  0  0  0  0  0  0  0  0  0
   19.7747    5.5959   17.8713 O   0  0  0  0  0  0  0  0  0  0  0  0
   16.7575    6.9838   20.4254 C   0  0  1  0  0  0  0  0  0  0  0  0
   21.6484    6.4081   16.7019 O   0  0  0  0  0  0  0  0  0  0  0  0
   17.1222    7.8896   19.2490 C   0  0  0  0  0  0  0  0  0  0  0  0
   22.9183    3.0469   15.9495 O   0  0  0  0  0  0  0  0  0  0  0  0
   18.4440    7.4134   18.6394 C   0  0  1  0  0  0  0  0  0  0  0  0
   20.4967    3.1647   14.4047 O   0  0  0  0  0  0  0  0  0  0  0  0
   18.4262    5.9325   18.2416 C   0  0  2  0  0  0  0  0  0  0  0  0
   17.4995    2.1039   16.1229 O   0  0  0  0  0  0  0  0  0  0  0  0
   20.2271    6.1873   16.6432 C   0  0  1  0  0  0  0  0  0  0  0  0
   15.3552    3.2346   15.0640 O   0  0  0  0  0  0  0  0  0  0  0  0
   22.4235    5.2128   16.8966 C   0  0  2  0  0  0  0  0  0  0  0  0
   23.9078    5.5814   16.9545 C   0  0  0  0  0  0  0  0  0  0  0  0
   22.1962    4.2600   15.7216 C   0  0  2  0  0  0  0  0  0  0  0  0
   20.7052    3.9436   15.5875 C   0  0  1  0  0  0  0  0  0  0  0  0
   19.8916    5.2368   15.4890 C   0  0  1  0  0  0  0  0  0  0  0  0
   16.4558    2.4216   17.0467 C   0  0  2  0  0  0  0  0  0  0  0  0
   15.1271    2.5772   16.3131 C   0  0  1  0  0  0  0  0  0  0  0  0
  1  3  1  0  0  0  0
  4  1  1  1  0  0  0
  4  6  1  0  0  0  0
  4 31  1  0  0  0  0
  6  7  1  0  0  0  0
  7  9  1  1  0  0  0
  7 30  1  0  0  0  0
  8 26  1  0  0  0  0
 10  9  1  6  0  0  0
 10 13  1  0  0  0  0
 10 21  1  0  0  0  0
 13 12  1  1  0  0  0
 13 15  1  0  0  0  0
 15  2  1  6  0  0  0
 15 17  1  0  0  0  0
 16 25  1  0  0  0  0
 16 23  1  0  0  0  0
 17 19  1  0  0  0  0
 19  5  1  6  0  0  0
 19 21  1  0  0  0  0
 21 14  1  1  0  0  0
 23 14  1  1  0  0  0
 23 29  1  0  0  0  0
 25 26  1  6  0  0  0
 25 27  1  0  0  0  0
 27 18  1  1  0  0  0
 27 28  1  0  0  0  0
 28 20  1  6  0  0  0
 28 29  1  0  0  0  0
 29 11  1  1  0  0  0
 30 22  1  6  0  0  0
 30 31  1  0  0  0  0
 31 24  1  6  0  0  0
M  END
>  <CHROM.1>
66.42934017,-70.98801457,61.80239820,149.65451380,164.54824496,173.26455538
18.27839850,4.75120220,17.53217350,3.00572561,0.27689156,0.73607248

>  <Name>
ligand

>  <RI>
0

>  <Rbt.Current_Directory>
/home/itssahil/PROJECTS/Mol_Feturizer/New_Systems/rnas/3DVV

>  <Rbt.Executable>
rbdock ($Id: //depot/dev/client3/rdock/2013.1/src/exe/rbdock.cxx#4 $)

>  <Rbt.Library>
libRbt.so (2013.1, Build901 2013/11/27)

>  <Rbt.Parameter_File>
/export/apps/rDock/src/rDock_2013.1_src/data/scripts/dock_solv.prm

>  <Rbt.Receptor>
prm/pocket_docking_3.prm

>  <SCORE>
-2.35322

>  <SCORE.INTER>
-6.19433

>  <SCORE.INTER.CONST>
1

>  <SCORE.INTER.POLAR>
0

>  <SCORE.INTER.ROT>
6

>  <SCORE.INTER.SOLV>
14.003

>  <SCORE.INTER.VDW>
-16.3972

>  <SCORE.INTER.norm>
-0.199817

>  <SCORE.INTRA>
3.84111

>  <SCORE.INTRA.DIHEDRAL>
-4.90947

>  <SCORE.INTRA.DIHEDRAL.0>
10.8172

>  <SCORE.INTRA.POLAR>
0

>  <SCORE.INTRA.POLAR.0>
0

>  <SCORE.INTRA.REPUL>
0

>  <SCORE.INTRA.REPUL.0>
0

>  <SCORE.INTRA.SOLV>
3.47365

>  <SCORE.INTRA.SOLV.lig_0>
-80.3833

>  <SCORE.INTRA.VDW>
4.55902

>  <SCORE.INTRA.VDW.0>
-4.63762

>  <SCORE.INTRA.norm>
0.123907

>  <SCORE.RESTR>
0

>  <SCORE.RESTR.CAVITY>
0

>  <SCORE.RESTR.norm>
0

>  <SCORE.SYSTEM>
0

>  <SCORE.SYSTEM.CONST>
0

>  <SCORE.SYSTEM.DIHEDRAL>
0

>  <SCORE.SYSTEM.SOLV>
0

>  <SCORE.SYSTEM.norm>
0

>  <SCORE.heavy>
31

>  <SCORE.norm>
-0.0759102

>  <RMSD>
5.006

$$$$
ligand
 OpenBabel11021811473D
libRbt.so/2013.1/901 2013/11/27
 31 33  0  0  0  0  0  0  0  0999 V2000
   14.3457    4.9367   19.8452 C   0  0  0  0  0  0  0  0  0  0  0  0
   17.3721   10.1930   18.1159 N   0  0  0  0  0  0  0  0  0  0  0  0
   14.0172    6.2170   20.3945 O   0  0  0  0  0  0  0  0  0  0  0  0
   14.9335    5.1000   18.4413 C   0  0  1  0  0  0  0  0  0  0  0  0
   19.7708    7.8529   14.5559 N   0  0  0  0  0  0  0  0  0  0  0  0
   16.1237    5.9107   18.4924 O   0  0  0  0  0  0  0  0  0  0  0  0
   17.2010    5.1825   17.8767 C   0  0  1  0  0  0  0  0  0  0  0  0
   17.6678    3.1790   14.4879 N   0  0  0  0  0  0  0  0  0  0  0  0
   18.4628    5.4737   18.4981 O   0  0  0  0  0  0  0  0  0  0  0  0
   19.0155    6.7425   18.1176 C   0  0  2  0  0  0  0  0  0  0  0  0
   23.0229    5.0533   17.6096 N   0  0  0  0  0  0  0  0  0  0  0  0
   17.6709    7.9100   19.7522 O   0  0  0  0  0  0  0  0  0  0  0  0
   17.9300    7.8000   18.3500 C   0  0  1  0  0  0  0  0  0  0  0  0
   20.6316    5.9020   16.4555 O   0  0  0  0  0  0  0  0  0  0  0  0
   18.3753    9.1613   17.8119 C   0  0  1  0  0  0  0  0  0  0  0  0
   19.7311    3.7282   16.4959 O   0  0  0  0  0  0  0  0  0  0  0  0
   18.5817    9.0593   16.3005 C   0  0  0  0  0  0  0  0  0  0  0  0
   21.7178    2.6082   13.6193 O   0  0  0  0  0  0  0  0  0  0  0  0
   19.6899    8.0423   16.0122 C   0  0  1  0  0  0  0  0  0  0  0  0
   23.7188    3.0291   15.6401 O   0  0  0  0  0  0  0  0  0  0  0  0
   19.4329    6.6724   16.6518 C   0  0  2  0  0  0  0  0  0  0  0  0
   17.5125    2.8122   17.2916 O   0  0  0  0  0  0  0  0  0  0  0  0
   20.6505    4.6352   17.1319 C   0  0  1  0  0  0  0  0  0  0  0  0
   15.1374    3.6392   16.4714 O   0  0  0  0  0  0  0  0  0  0  0  0
   20.0243    3.4643   15.1133 C   0  0  2  0  0  0  0  0  0  0  0  0
   18.9735    2.5032   14.5523 C   0  0  0  0  0  0  0  0  0  0  0  0
   21.4028    2.8110   14.9994 C   0  0  2  0  0  0  0  0  0  0  0  0
   22.4624    3.7150   15.6327 C   0  0  1  0  0  0  0  0  0  0  0  0
   22.0728    4.0683   17.0705 C   0  0  1  0  0  0  0  0  0  0  0  0
   16.8466    3.7255   18.1668 C   0  0  2  0  0  0  0  0  0  0  0  0
   15.3476    3.7358   17.8824 C   0  0  1  0  0  0  0  0  0  0  0  0
  1  3  1  0  0  0  0
  4  1  1  1  0  0  0
  4  6  1  0  0  0  0
  4 31  1  0  0  0  0
  6  7  1  0  0  0  0
  7  9  1  1  0  0  0
  7 30  1  0  0  0  0
  8 26  1  0  0  0  0
 10  9  1  6  0  0  0
 10 13  1  0  0  0  0
 10 21  1  0  0  0  0
 13 12  1  1  0  0  0
 13 15  1  0  0  0  0
 15  2  1  6  0  0  0
 15 17  1  0  0  0  0
 16 25  1  0  0  0  0
 16 23  1  0  0  0  0
 17 19  1  0  0  0  0
 19  5  1  6  0  0  0
 19 21  1  0  0  0  0
 21 14  1  1  0  0  0
 23 14  1  6  0  0  0
 23 29  1  0  0  0  0
 25 26  1  1  0  0  0
 25 27  1  0  0  0  0
 27 18  1  6  0  0  0
 27 28  1  0  0  0  0
 28 20  1  1  0  0  0
 28 29  1  0  0  0  0
 29 11  1  6  0  0  0
 30 22  1  6  0  0  0
 30 31  1  0  0  0  0
 31 24  1  6  0  0  0
M  END
>  <CHROM.1>
59.59379363,-76.75980569,52.15337425,71.09795662,47.24515265,67.98337134
18.68602756,5.29036149,17.03786380,2.61012824,0.39717922,0.29459419

>  <Name>
ligand

>  <RI>
0

>  <Rbt.Current_Directory>
/home/itssahil/PROJECTS/Mol_Feturizer/New_Systems/rnas/3DVV

>  <Rbt.Executable>
rbdock ($Id: //depot/dev/client3/rdock/2013.1/src/exe/rbdock.cxx#4 $)

>  <Rbt.Library>
libRbt.so (2013.1, Build901 2013/11/27)

>  <Rbt.Parameter_File>
/export/apps/rDock/src/rDock_2013.1_src/data/scripts/dock_solv.prm

>  <Rbt.Receptor>
prm/pocket_docking_3.prm

>  <SCORE>
-2.88862

>  <SCORE.INTER>
-3.28192

>  <SCORE.INTER.CONST>
1

>  <SCORE.INTER.POLAR>
0

>  <SCORE.INTER.ROT>
6

>  <SCORE.INTER.SOLV>
17.5546

>  <SCORE.INTER.VDW>
-15.6395

>  <SCORE.INTER.norm>
-0.105869

>  <SCORE.INTRA>
0.393307

>  <SCORE.INTRA.DIHEDRAL>
-7.42945

>  <SCORE.INTRA.DIHEDRAL.0>
10.8172

>  <SCORE.INTRA.POLAR>
0

>  <SCORE.INTRA.POLAR.0>
0

>  <SCORE.INTRA.REPUL>
0

>  <SCORE.INTRA.REPUL.0>
0

>  <SCORE.INTRA.SOLV>
-0.470282

>  <SCORE.INTRA.SOLV.lig_0>
-80.3833

>  <SCORE.INTRA.VDW>
4.34317

>  <SCORE.INTRA.VDW.0>
-4.63762

>  <SCORE.INTRA.norm>
0.0126873

>  <SCORE.RESTR>
0

>  <SCORE.RESTR.CAVITY>
0

>  <SCORE.RESTR.norm>
0

>  <SCORE.SYSTEM>
0

>  <SCORE.SYSTEM.CONST>
0

>  <SCORE.SYSTEM.DIHEDRAL>
0

>  <SCORE.SYSTEM.SOLV>
0

>  <SCORE.SYSTEM.norm>
0

>  <SCORE.heavy>
31

>  <SCORE.norm>
-0.0931812

>  <RMSD>
5.068

$$$$
ligand
 OpenBabel11021811473D
libRbt.so/2013.1/901 2013/11/27
 31 33  0  0  0  0  0  0  0  0999 V2000
   15.7609    2.7409   20.6025 C   0  0  0  0  0  0  0  0  0  0  0  0
   17.1583   10.3364   17.8397 N   0  0  0  0  0  0  0  0  0  0  0  0
   15.4188    2.2810   21.9141 O   0  0  0  0  0  0  0  0  0  0  0  0
   17.2477    3.0999   20.5405 C   0  0  1  0  0  0  0  0  0  0  0  0
   20.5111    8.1824   15.0073 N   0  0  0  0  0  0  0  0  0  0  0  0
   17.6112    3.4808   19.1992 O   0  0  0  0  0  0  0  0  0  0  0  0
   18.2264    4.7806   19.2426 C   0  0  1  0  0  0  0  0  0  0  0  0
   25.5292    7.5817   16.7177 N   0  0  0  0  0  0  0  0  0  0  0  0
   17.9366    5.5456   18.0620 O   0  0  0  0  0  0  0  0  0  0  0  0
   18.6173    6.8081   18.0097 C   0  0  2  0  0  0  0  0  0  0  0  0
   20.6451    3.3010   16.2733 N   0  0  0  0  0  0  0  0  0  0  0  0
   16.8503    7.9041   19.2423 O   0  0  0  0  0  0  0  0  0  0  0  0
   17.5446    7.9033   17.9919 C   0  0  1  0  0  0  0  0  0  0  0  0
   20.6592    6.0237   16.8711 O   0  0  0  0  0  0  0  0  0  0  0  0
   18.1771    9.2781   17.7664 C   0  0  1  0  0  0  0  0  0  0  0  0
   22.3094    6.4666   15.2528 O   0  0  0  0  0  0  0  0  0  0  0  0
   18.8568    9.2981   16.3971 C   0  0  0  0  0  0  0  0  0  0  0  0
   25.0243    5.1226   17.3262 O   0  0  0  0  0  0  0  0  0  0  0  0
   19.9702    8.2467   16.3735 C   0  0  1  0  0  0  0  0  0  0  0  0
   23.4702    2.7791   16.7285 O   0  0  0  0  0  0  0  0  0  0  0  0
   19.4830    6.8433   16.7538 C   0  0  2  0  0  0  0  0  0  0  0  0
   18.2828    6.5604   20.9417 O   0  0  0  0  0  0  0  0  0  0  0  0
   21.2226    5.5971   15.6207 C   0  0  1  0  0  0  0  0  0  0  0  0
   18.8197    4.2254   22.0630 O   0  0  0  0  0  0  0  0  0  0  0  0
   23.3872    6.4986   16.2038 C   0  0  2  0  0  0  0  0  0  0  0  0
   24.4665    7.4632   15.7066 C   0  0  0  0  0  0  0  0  0  0  0  0
   23.9952    5.1008   16.3335 C   0  0  2  0  0  0  0  0  0  0  0  0
   22.9152    4.0985   16.7462 C   0  0  1  0  0  0  0  0  0  0  0  0
   21.7313    4.1601   15.7776 C   0  0  1  0  0  0  0  0  0  0  0  0
   17.5400    5.4509   20.4309 C   0  0  2  0  0  0  0  0  0  0  0  0
   17.5356    4.3059   21.4393 C   0  0  1  0  0  0  0  0  0  0  0  0
  1  3  1  0  0  0  0
  4  1  1  6  0  0  0
  4  6  1  0  0  0  0
  4 31  1  0  0  0  0
  6  7  1  0  0  0  0
  7  9  1  6  0  0  0
  7 30  1  0  0  0  0
  8 26  1  0  0  0  0
 10  9  1  6  0  0  0
 10 13  1  0  0  0  0
 10 21  1  0  0  0  0
 13 12  1  1  0  0  0
 13 15  1  0  0  0  0
 15  2  1  6  0  0  0
 15 17  1  0  0  0  0
 16 25  1  0  0  0  0
 16 23  1  0  0  0  0
 17 19  1  0  0  0  0
 19  5  1  6  0  0  0
 19 21  1  0  0  0  0
 21 14  1  1  0  0  0
 23 14  1  1  0  0  0
 23 29  1  0  0  0  0
 25 26  1  6  0  0  0
 25 27  1  0  0  0  0
 27 18  1  1  0  0  0
 27 28  1  0  0  0  0
 28 20  1  6  0  0  0
 28 29  1  0  0  0  0
 29 11  1  1  0  0  0
 30 22  1  1  0  0  0
 30 31  1  0  0  0  0
 31 24  1  6  0  0  0
M  END
>  <CHROM.1>
176.31917368,-175.21841004,-118.09330680,97.40606215,156.95190696,175.82478130
19.89049968,5.81642191,17.95707438,-2.71895388,0.48274146,-0.43813224

>  <Name>
ligand

>  <RI>
0

>  <Rbt.Current_Directory>
/home/itssahil/PROJECTS/Mol_Feturizer/New_Systems/rnas/3DVV

>  <Rbt.Executable>
rbdock ($Id: //depot/dev/client3/rdock/2013.1/src/exe/rbdock.cxx#4 $)

>  <Rbt.Library>
libRbt.so (2013.1, Build901 2013/11/27)

>  <Rbt.Parameter_File>
/export/apps/rDock/src/rDock_2013.1_src/data/scripts/dock_solv.prm

>  <Rbt.Receptor>
prm/pocket_docking_5.prm

>  <SCORE>
-2.62242

>  <SCORE.INTER>
-8.44605

>  <SCORE.INTER.CONST>
1

>  <SCORE.INTER.POLAR>
0

>  <SCORE.INTER.ROT>
6

>  <SCORE.INTER.SOLV>
22.7115

>  <SCORE.INTER.VDW>
-20.8012

>  <SCORE.INTER.norm>
-0.272453

>  <SCORE.INTRA>
5.82363

>  <SCORE.INTRA.DIHEDRAL>
4.06475

>  <SCORE.INTRA.DIHEDRAL.0>
10.8172

>  <SCORE.INTRA.POLAR>
0

>  <SCORE.INTRA.POLAR.0>
0

>  <SCORE.INTRA.REPUL>
0

>  <SCORE.INTRA.REPUL.0>
0

>  <SCORE.INTRA.SOLV>
0.537839

>  <SCORE.INTRA.SOLV.lig_0>
-80.3833

>  <SCORE.INTRA.VDW>
3.52234

>  <SCORE.INTRA.VDW.0>
-4.63762

>  <SCORE.INTRA.norm>
0.187859

>  <SCORE.RESTR>
0

>  <SCORE.RESTR.CAVITY>
0

>  <SCORE.RESTR.norm>
0

>  <SCORE.SYSTEM>
0

>  <SCORE.SYSTEM.CONST>
0

>  <SCORE.SYSTEM.DIHEDRAL>
0

>  <SCORE.SYSTEM.SOLV>
0

>  <SCORE.SYSTEM.norm>
0

>  <SCORE.heavy>
31

>  <SCORE.norm>
-0.0845941

>  <RMSD>
5.089

$$$$
ligand
 OpenBabel11021811473D
libRbt.so/2013.1/901 2013/11/27
 31 33  0  0  0  0  0  0  0  0999 V2000
   16.3377    1.6630   13.8462 C   0  0  0  0  0  0  0  0  0  0  0  0
   15.1770    5.4458   19.3626 N   0  0  0  0  0  0  0  0  0  0  0  0
   16.7340    0.5880   14.7042 O   0  0  0  0  0  0  0  0  0  0  0  0
   17.2868    2.8518   14.0171 C   0  0  1  0  0  0  0  0  0  0  0  0
   18.9657    7.7223   17.2730 N   0  0  0  0  0  0  0  0  0  0  0  0
   17.3052    3.2788   15.3933 O   0  0  0  0  0  0  0  0  0  0  0  0
   18.6682    3.2841   15.8534 C   0  0  1  0  0  0  0  0  0  0  0  0
   19.5349    7.6324   13.8524 N   0  0  0  0  0  0  0  0  0  0  0  0
   18.7609    2.9402   17.2448 O   0  0  0  0  0  0  0  0  0  0  0  0
   18.5112    4.0416   18.1305 C   0  0  2  0  0  0  0  0  0  0  0  0
   22.9769    4.1174   18.0853 N   0  0  0  0  0  0  0  0  0  0  0  0
   16.5231    2.9873   19.0127 O   0  0  0  0  0  0  0  0  0  0  0  0
   16.9925    4.1433   18.3137 C   0  0  1  0  0  0  0  0  0  0  0  0
   20.5280    5.3525   17.5872 O   0  0  0  0  0  0  0  0  0  0  0  0
   16.6252    5.3970   19.1102 C   0  0  1  0  0  0  0  0  0  0  0  0
   20.9348    5.4369   15.2708 O   0  0  0  0  0  0  0  0  0  0  0  0
   17.0632    6.6345   18.3266 C   0  0  0  0  0  0  0  0  0  0  0  0
   23.2706    8.2546   15.5551 O   0  0  0  0  0  0  0  0  0  0  0  0
   18.5843    6.6051   18.1503 C   0  0  1  0  0  0  0  0  0  0  0  0
   24.6909    6.1256   16.8647 O   0  0  0  0  0  0  0  0  0  0  0  0
   19.0925    5.3081   17.5091 C   0  0  2  0  0  0  0  0  0  0  0  0
   20.7400    2.2733   14.9908 O   0  0  0  0  0  0  0  0  0  0  0  0
   21.2102    4.7239   16.4908 C   0  0  1  0  0  0  0  0  0  0  0  0
   19.4482    3.4942   13.0316 O   0  0  0  0  0  0  0  0  0  0  0  0
   21.3520    6.8127   15.2846 C   0  0  2  0  0  0  0  0  0  0  0  0
   20.9933    7.4592   13.9445 C   0  0  0  0  0  0  0  0  0  0  0  0
   22.8678    6.8846   15.4782 C   0  0  2  0  0  0  0  0  0  0  0  0
   23.2631    6.1677   16.7708 C   0  0  1  0  0  0  0  0  0  0  0  0
   22.7154    4.7380   16.7776 C   0  0  1  0  0  0  0  0  0  0  0  0
   19.3152    2.1668   15.0375 C   0  0  2  0  0  0  0  0  0  0  0  0
   18.7174    2.4382   13.6602 C   0  0  1  0  0  0  0  0  0  0  0  0
  1  3  1  0  0  0  0
  4  1  1  1  0  0  0
  4  6  1  0  0  0  0
  4 31  1  0  0  0  0
  6  7  1  0  0  0  0
  7  9  1  1  0  0  0
  7 30  1  0  0  0  0
  8 26  1  0  0  0  0
 10  9  1  6  0  0  0
 10 13  1  0  0  0  0
 10 21  1  0  0  0  0
 13 12  1  1  0  0  0
 13 15  1  0  0  0  0
 15  2  1  6  0  0  0
 15 17  1  0  0  0  0
 16 25  1  0  0  0  0
 16 23  1  0  0  0  0
 17 19  1  0  0  0  0
 19  5  1  6  0  0  0
 19 21  1  0  0  0  0
 21 14  1  1  0  0  0
 23 14  1  1  0  0  0
 23 29  1  0  0  0  0
 25 26  1  6  0  0  0
 25 27  1  0  0  0  0
 27 18  1  1  0  0  0
 27 28  1  0  0  0  0
 28 20  1  6  0  0  0
 28 29  1  0  0  0  0
 29 11  1  1  0  0  0
 30 22  1  6  0  0  0
 30 31  1  0  0  0  0
 31 24  1  1  0  0  0
M  END
>  <CHROM.1>
-57.59991780,-82.31272290,84.50612257,64.78495094,87.79758029,71.25403887
19.53451227,4.71260235,16.26761515,-2.81610514,0.47404789,0.84495273

>  <Name>
ligand

>  <RI>
0

>  <Rbt.Current_Directory>
/home/itssahil/PROJECTS/Mol_Feturizer/New_Systems/rnas/3DVV

>  <Rbt.Executable>
rbdock ($Id: //depot/dev/client3/rdock/2013.1/src/exe/rbdock.cxx#4 $)

>  <Rbt.Library>
libRbt.so (2013.1, Build901 2013/11/27)

>  <Rbt.Parameter_File>
/export/apps/rDock/src/rDock_2013.1_src/data/scripts/dock_solv.prm

>  <Rbt.Receptor>
prm/pocket_docking_2.prm

>  <SCORE>
-2.00501

>  <SCORE.INTER>
-4.47051

>  <SCORE.INTER.CONST>
1

>  <SCORE.INTER.POLAR>
0

>  <SCORE.INTER.ROT>
6

>  <SCORE.INTER.SOLV>
20.2776

>  <SCORE.INTER.VDW>
-17.3395

>  <SCORE.INTER.norm>
-0.14421

>  <SCORE.INTRA>
1.56513

>  <SCORE.INTRA.DIHEDRAL>
-2.19167

>  <SCORE.INTRA.DIHEDRAL.0>
10.8172

>  <SCORE.INTRA.POLAR>
0

>  <SCORE.INTRA.POLAR.0>
0

>  <SCORE.INTRA.REPUL>
0

>  <SCORE.INTRA.REPUL.0>
0

>  <SCORE.INTRA.SOLV>
-0.104428

>  <SCORE.INTRA.SOLV.lig_0>
-80.3833

>  <SCORE.INTRA.VDW>
2.71318

>  <SCORE.INTRA.VDW.0>
-4.63762

>  <SCORE.INTRA.norm>
0.0504881

>  <SCORE.RESTR>
0.900362

>  <SCORE.RESTR.CAVITY>
0.900362

>  <SCORE.RESTR.norm>
0.0290439

>  <SCORE.SYSTEM>
0

>  <SCORE.SYSTEM.CONST>
0

>  <SCORE.SYSTEM.DIHEDRAL>
0

>  <SCORE.SYSTEM.SOLV>
0

>  <SCORE.SYSTEM.norm>
0

>  <SCORE.heavy>
31

>  <SCORE.norm>
-0.0646779

>  <RMSD>
5.102

$$$$
ligand
 OpenBabel11021811473D
libRbt.so/2013.1/901 2013/11/27
 31 33  0  0  0  0  0  0  0  0999 V2000
   20.6304    8.4688   15.8048 C   0  0  0  0  0  0  0  0  0  0  0  0
   20.2420    0.1582   12.1879 N   0  0  0  0  0  0  0  0  0  0  0  0
   19.9903    9.3671   14.8926 O   0  0  0  0  0  0  0  0  0  0  0  0
   19.6263    7.4333   16.3174 C   0  0  1  0  0  0  0  0  0  0  0  0
   16.2235    1.1567   14.7876 N   0  0  0  0  0  0  0  0  0  0  0  0
   19.1551    6.6166   15.2278 O   0  0  0  0  0  0  0  0  0  0  0  0
   19.3772    5.2348   15.5612 C   0  0  1  0  0  0  0  0  0  0  0  0
   14.7191    3.1107   20.3296 N   0  0  0  0  0  0  0  0  0  0  0  0
   19.6765    4.4485   14.3971 O   0  0  0  0  0  0  0  0  0  0  0  0
   19.5287    3.0354   14.6003 C   0  0  2  0  0  0  0  0  0  0  0  0
   16.2692    5.1346   14.8998 N   0  0  0  0  0  0  0  0  0  0  0  0
   21.3995    2.5488   13.1490 O   0  0  0  0  0  0  0  0  0  0  0  0
   19.9946    2.3396   13.3160 C   0  0  1  0  0  0  0  0  0  0  0  0
   17.6848    3.1383   16.2344 O   0  0  0  0  0  0  0  0  0  0  0  0
   19.7134    0.8371   13.3808 C   0  0  1  0  0  0  0  0  0  0  0  0
   15.9541    2.8250   17.7979 O   0  0  0  0  0  0  0  0  0  0  0  0
   18.2046    0.6139   13.4862 C   0  0  0  0  0  0  0  0  0  0  0  0
   16.7925    5.8668   19.6742 O   0  0  0  0  0  0  0  0  0  0  0  0
   17.6909    1.2556   14.7785 C   0  0  1  0  0  0  0  0  0  0  0  0
   15.8587    6.9131   17.1646 O   0  0  0  0  0  0  0  0  0  0  0  0
   18.0639    2.7376   14.9060 C   0  0  2  0  0  0  0  0  0  0  0  0
   20.7784    4.1140   17.2460 O   0  0  0  0  0  0  0  0  0  0  0  0
   16.2685    3.2326   16.4535 C   0  0  1  0  0  0  0  0  0  0  0  0
   19.4237    6.0893   18.3688 O   0  0  0  0  0  0  0  0  0  0  0  0
   16.5850    3.6182   18.8176 C   0  0  2  0  0  0  0  0  0  0  0  0
   16.1840    3.0787   20.1926 C   0  0  0  0  0  0  0  0  0  0  0  0
   16.1150    5.0691   18.6996 C   0  0  2  0  0  0  0  0  0  0  0  0
   16.4266    5.6062   17.3011 C   0  0  1  0  0  0  0  0  0  0  0  0
   15.8342    4.6852   16.2312 C   0  0  1  0  0  0  0  0  0  0  0  0
   20.6244    5.2855   16.4413 C   0  0  2  0  0  0  0  0  0  0  0  0
   20.3048    6.4929   17.3176 C   0  0  1  0  0  0  0  0  0  0  0  0
  1  3  1  0  0  0  0
  4  1  1  6  0  0  0
  4  6  1  0  0  0  0
  4 31  1  0  0  0  0
  6  7  1  0  0  0  0
  7  9  1  6  0  0  0
  7 30  1  0  0  0  0
  8 26  1  0  0  0  0
 10  9  1  6  0  0  0
 10 13  1  0  0  0  0
 10 21  1  0  0  0  0
 13 12  1  1  0  0  0
 13 15  1  0  0  0  0
 15  2  1  6  0  0  0
 15 17  1  0  0  0  0
 16 25  1  0  0  0  0
 16 23  1  0  0  0  0
 17 19  1  0  0  0  0
 19  5  1  6  0  0  0
 19 21  1  0  0  0  0
 21 14  1  1  0  0  0
 23 14  1  1  0  0  0
 23 29  1  0  0  0  0
 25 26  1  1  0  0  0
 25 27  1  0  0  0  0
 27 18  1  1  0  0  0
 27 28  1  0  0  0  0
 28 20  1  1  0  0  0
 28 29  1  0  0  0  0
 29 11  1  6  0  0  0
 30 22  1  1  0  0  0
 30 31  1  0  0  0  0
 31 24  1  1  0  0  0
M  END
>  <CHROM.1>
63.64429251,-163.07053530,-175.31112478,144.92297973,163.44112888,-58.16674539
18.25457333,4.25917623,16.14463899,-2.12130596,-0.73984413,-2.63878178

>  <Name>
ligand

>  <RI>
0

>  <Rbt.Current_Directory>
/home/itssahil/PROJECTS/Mol_Feturizer/New_Systems/rnas/3DVV

>  <Rbt.Executable>
rbdock ($Id: //depot/dev/client3/rdock/2013.1/src/exe/rbdock.cxx#4 $)

>  <Rbt.Library>
libRbt.so (2013.1, Build901 2013/11/27)

>  <Rbt.Parameter_File>
/export/apps/rDock/src/rDock_2013.1_src/data/scripts/dock_solv.prm

>  <Rbt.Receptor>
prm/pocket_docking_3.prm

>  <SCORE>
0.546889

>  <SCORE.INTER>
-0.651761

>  <SCORE.INTER.CONST>
1

>  <SCORE.INTER.POLAR>
0

>  <SCORE.INTER.ROT>
6

>  <SCORE.INTER.SOLV>
13.9812

>  <SCORE.INTER.VDW>
-12.6949

>  <SCORE.INTER.norm>
-0.0210245

>  <SCORE.INTRA>
1.18835

>  <SCORE.INTRA.DIHEDRAL>
-3.32519

>  <SCORE.INTRA.DIHEDRAL.0>
10.8172

>  <SCORE.INTRA.POLAR>
0

>  <SCORE.INTRA.POLAR.0>
0

>  <SCORE.INTRA.REPUL>
0

>  <SCORE.INTRA.REPUL.0>
0

>  <SCORE.INTRA.SOLV>
3.21056

>  <SCORE.INTRA.SOLV.lig_0>
-80.3833

>  <SCORE.INTRA.VDW>
1.24566

>  <SCORE.INTRA.VDW.0>
-4.63762

>  <SCORE.INTRA.norm>
0.0383338

>  <SCORE.RESTR>
0.0103004

>  <SCORE.RESTR.CAVITY>
0.0103004

>  <SCORE.RESTR.norm>
0.000332271

>  <SCORE.SYSTEM>
0

>  <SCORE.SYSTEM.CONST>
0

>  <SCORE.SYSTEM.DIHEDRAL>
0

>  <SCORE.SYSTEM.SOLV>
0

>  <SCORE.SYSTEM.norm>
0

>  <SCORE.heavy>
31

>  <SCORE.norm>
0.0176416

>  <RMSD>
5.142

$$$$
ligand
 OpenBabel11021811473D
libRbt.so/2013.1/901 2013/11/27
 31 33  0  0  0  0  0  0  0  0999 V2000
   17.9514    1.4091   15.3112 C   0  0  0  0  0  0  0  0  0  0  0  0
   17.7831    6.8742   18.2938 N   0  0  0  0  0  0  0  0  0  0  0  0
   16.8938    1.9291   16.1236 O   0  0  0  0  0  0  0  0  0  0  0  0
   18.6103    2.5392   14.5162 C   0  0  1  0  0  0  0  0  0  0  0  0
   20.5907    8.5302   14.6498 N   0  0  0  0  0  0  0  0  0  0  0  0
   19.1116    3.5501   15.4124 O   0  0  0  0  0  0  0  0  0  0  0  0
   20.5072    3.7595   15.1327 C   0  0  1  0  0  0  0  0  0  0  0  0
   24.9253    2.6916   17.7046 N   0  0  0  0  0  0  0  0  0  0  0  0
   21.2433    4.0922   16.3203 O   0  0  0  0  0  0  0  0  0  0  0  0
   20.9884    5.4185   16.8059 C   0  0  2  0  0  0  0  0  0  0  0  0
   24.5710    8.4664   14.7518 N   0  0  0  0  0  0  0  0  0  0  0  0
   19.4459    4.5982   18.4764 O   0  0  0  0  0  0  0  0  0  0  0  0
   19.5468    5.4434   17.3271 C   0  0  1  0  0  0  0  0  0  0  0  0
   22.5823    6.6056   15.3460 O   0  0  0  0  0  0  0  0  0  0  0  0
   19.1331    6.8657   17.7101 C   0  0  1  0  0  0  0  0  0  0  0  0
   23.5316    6.1202   17.4440 O   0  0  0  0  0  0  0  0  0  0  0  0
   19.1718    7.7512   16.4644 C   0  0  0  0  0  0  0  0  0  0  0  0
   26.2172    4.0710   16.0071 O   0  0  0  0  0  0  0  0  0  0  0  0
   20.6041    7.7959   15.9241 C   0  0  1  0  0  0  0  0  0  0  0  0
   26.8673    6.7089   15.0670 O   0  0  0  0  0  0  0  0  0  0  0  0
   21.1931    6.4048   15.6600 C   0  0  2  0  0  0  0  0  0  0  0  0
   22.1906    2.4557   13.8982 O   0  0  0  0  0  0  0  0  0  0  0  0
   23.3743    7.1254   16.4255 C   0  0  1  0  0  0  0  0  0  0  0  0
   19.9725    2.6472   12.4696 O   0  0  0  0  0  0  0  0  0  0  0  0
   24.1824    4.9202   16.9928 C   0  0  2  0  0  0  0  0  0  0  0  0
   24.2763    3.9321   18.1579 C   0  0  0  0  0  0  0  0  0  0  0  0
   25.5961    5.2553   16.5138 C   0  0  2  0  0  0  0  0  0  0  0  0
   25.5352    6.3085   15.4056 C   0  0  1  0  0  0  0  0  0  0  0  0
   24.7452    7.5329   15.8752 C   0  0  1  0  0  0  0  0  0  0  0  0
   20.9737    2.3893   14.6454 C   0  0  2  0  0  0  0  0  0  0  0  0
   19.8125    2.0011   13.7350 C   0  0  1  0  0  0  0  0  0  0  0  0
  1  3  1  0  0  0  0
  4  1  1  1  0  0  0
  4  6  1  0  0  0  0
  4 31  1  0  0  0  0
  6  7  1  0  0  0  0
  7  9  1  1  0  0  0
  7 30  1  0  0  0  0
  8 26  1  0  0  0  0
 10  9  1  6  0  0  0
 10 13  1  0  0  0  0
 10 21  1  0  0  0  0
 13 12  1  1  0  0  0
 13 15  1  0  0  0  0
 15  2  1  6  0  0  0
 15 17  1  0  0  0  0
 16 25  1  0  0  0  0
 16 23  1  0  0  0  0
 17 19  1  0  0  0  0
 19  5  1  6  0  0  0
 19 21  1  0  0  0  0
 21 14  1  1  0  0  0
 23 14  1  6  0  0  0
 23 29  1  0  0  0  0
 25 26  1  1  0  0  0
 25 27  1  0  0  0  0
 27 18  1  6  0  0  0
 27 28  1  0  0  0  0
 28 20  1  1  0  0  0
 28 29  1  0  0  0  0
 29 11  1  6  0  0  0
 30 22  1  6  0  0  0
 30 31  1  0  0  0  0
 31 24  1  6  0  0  0
M  END
>  <CHROM.1>
57.79514609,-72.71246396,68.75102528,70.25620901,-60.14401051,179.26534662
21.68416233,4.99674198,15.94196729,-2.72294914,0.07052234,0.32009994

>  <Name>
ligand

>  <RI>
0

>  <Rbt.Current_Directory>
/home/itssahil/PROJECTS/Mol_Feturizer/New_Systems/rnas/3DVV

>  <Rbt.Executable>
rbdock ($Id: //depot/dev/client3/rdock/2013.1/src/exe/rbdock.cxx#4 $)

>  <Rbt.Library>
libRbt.so (2013.1, Build901 2013/11/27)

>  <Rbt.Parameter_File>
/export/apps/rDock/src/rDock_2013.1_src/data/scripts/dock_solv.prm

>  <Rbt.Receptor>
prm/pocket_docking_4.prm

>  <SCORE>
-7.12651

>  <SCORE.INTER>
-6.27887

>  <SCORE.INTER.CONST>
1

>  <SCORE.INTER.POLAR>
0

>  <SCORE.INTER.ROT>
6

>  <SCORE.INTER.SOLV>
25.5428

>  <SCORE.INTER.VDW>
-20.3002

>  <SCORE.INTER.norm>
-0.202544

>  <SCORE.INTRA>
-0.847645

>  <SCORE.INTRA.DIHEDRAL>
-8.91319

>  <SCORE.INTRA.DIHEDRAL.0>
10.8172

>  <SCORE.INTRA.POLAR>
0

>  <SCORE.INTRA.POLAR.0>
0

>  <SCORE.INTRA.REPUL>
0

>  <SCORE.INTRA.REPUL.0>
0

>  <SCORE.INTRA.SOLV>
-2.12234

>  <SCORE.INTRA.SOLV.lig_0>
-80.3833

>  <SCORE.INTRA.VDW>
4.67012

>  <SCORE.INTRA.VDW.0>
-4.63762

>  <SCORE.INTRA.norm>
-0.0273434

>  <SCORE.RESTR>
0

>  <SCORE.RESTR.CAVITY>
0

>  <SCORE.RESTR.norm>
0

>  <SCORE.SYSTEM>
0

>  <SCORE.SYSTEM.CONST>
0

>  <SCORE.SYSTEM.DIHEDRAL>
0

>  <SCORE.SYSTEM.SOLV>
0

>  <SCORE.SYSTEM.norm>
0

>  <SCORE.heavy>
31

>  <SCORE.norm>
-0.229887

>  <RMSD>
5.144

$$$$
ligand
 OpenBabel11021811473D
libRbt.so/2013.1/901 2013/11/27
 31 33  0  0  0  0  0  0  0  0999 V2000
   14.7117    2.0461   17.3386 C   0  0  0  0  0  0  0  0  0  0  0  0
   16.0511    5.9204   21.5126 N   0  0  0  0  0  0  0  0  0  0  0  0
   13.8869    2.6117   18.3627 O   0  0  0  0  0  0  0  0  0  0  0  0
   15.5192    3.1457   16.6443 C   0  0  1  0  0  0  0  0  0  0  0  0
   18.3668    8.4004   17.9927 N   0  0  0  0  0  0  0  0  0  0  0  0
   16.3914    3.7941   17.5905 O   0  0  0  0  0  0  0  0  0  0  0  0
   17.7372    3.7403   17.0849 C   0  0  1  0  0  0  0  0  0  0  0  0
   19.1059    7.8856   13.6700 N   0  0  0  0  0  0  0  0  0  0  0  0
   18.6993    3.6278   18.1453 O   0  0  0  0  0  0  0  0  0  0  0  0
   18.7159    4.7555   19.0330 C   0  0  2  0  0  0  0  0  0  0  0  0
   22.3406    4.5129   18.1052 N   0  0  0  0  0  0  0  0  0  0  0  0
   17.3971    3.5799   20.6825 O   0  0  0  0  0  0  0  0  0  0  0  0
   17.4061    4.7276   19.8292 C   0  0  1  0  0  0  0  0  0  0  0  0
   20.1718    6.2103   17.6746 O   0  0  0  0  0  0  0  0  0  0  0  0
   17.2628    5.9899   20.6817 C   0  0  1  0  0  0  0  0  0  0  0  0
   20.2495    5.8735   15.3468 O   0  0  0  0  0  0  0  0  0  0  0  0
   17.1996    7.2103   19.7630 C   0  0  0  0  0  0  0  0  0  0  0  0
   23.1561    8.0705   14.8985 O   0  0  0  0  0  0  0  0  0  0  0  0
   18.5064    7.3108   18.9706 C   0  0  1  0  0  0  0  0  0  0  0  0
   24.2549    5.8693   16.3858 O   0  0  0  0  0  0  0  0  0  0  0  0
   18.8459    6.0282   18.2016 C   0  0  2  0  0  0  0  0  0  0  0  0
   18.8247    2.3968   15.3327 O   0  0  0  0  0  0  0  0  0  0  0  0
   20.5366    5.2922   16.6322 C   0  0  1  0  0  0  0  0  0  0  0  0
   16.5494    3.3938   14.4233 O   0  0  0  0  0  0  0  0  0  0  0  0
   20.9523    7.0999   15.0838 C   0  0  2  0  0  0  0  0  0  0  0  0
   20.5531    7.6202   13.7009 C   0  0  0  0  0  0  0  0  0  0  0  0
   22.4593    6.8376   15.0972 C   0  0  2  0  0  0  0  0  0  0  0  0
   22.8718    6.2343   16.4414 C   0  0  1  0  0  0  0  0  0  0  0  0
   22.0344    4.9898   16.7478 C   0  0  1  0  0  0  0  0  0  0  0  0
   17.7547    2.4427   16.2796 C   0  0  2  0  0  0  0  0  0  0  0  0
   16.4127    2.5371   15.5598 C   0  0  1  0  0  0  0  0  0  0  0  0
  1  3  1  0  0  0  0
  4  1  1  1  0  0  0
  4  6  1  0  0  0  0
  4 31  1  0  0  0  0
  6  7  1  0  0  0  0
  7  9  1  1  0  0  0
  7 30  1  0  0  0  0
  8 26  1  0  0  0  0
 10  9  1  6  0  0  0
 10 13  1  0  0  0  0
 10 21  1  0  0  0  0
 13 12  1  1  0  0  0
 13 15  1  0  0  0  0
 15  2  1  6  0  0  0
 15 17  1  0  0  0  0
 16 25  1  0  0  0  0
 16 23  1  0  0  0  0
 17 19  1  0  0  0  0
 19  5  1  6  0  0  0
 19 21  1  0  0  0  0
 21 14  1  1  0  0  0
 23 14  1  1  0  0  0
 23 29  1  0  0  0  0
 25 26  1  6  0  0  0
 25 27  1  0  0  0  0
 27 18  1  1  0  0  0
 27 28  1  0  0  0  0
 28 20  1  6  0  0  0
 28 29  1  0  0  0  0
 29 11  1  1  0  0  0
 30 22  1  6  0  0  0
 30 31  1  0  0  0  0
 31 24  1  6  0  0  0
M  END
>  <CHROM.1>
61.71000226,-63.07828333,69.43138313,93.50135997,70.71505587,60.84543417
18.86601095,5.14082856,17.18273896,2.97696543,0.58576411,1.13350902

>  <Name>
ligand

>  <RI>
0

>  <Rbt.Current_Directory>
/home/itssahil/PROJECTS/Mol_Feturizer/New_Systems/rnas/3DVV

>  <Rbt.Executable>
rbdock ($Id: //depot/dev/client3/rdock/2013.1/src/exe/rbdock.cxx#4 $)

>  <Rbt.Library>
libRbt.so (2013.1, Build901 2013/11/27)

>  <Rbt.Parameter_File>
/export/apps/rDock/src/rDock_2013.1_src/data/scripts/dock_solv.prm

>  <Rbt.Receptor>
prm/pocket_docking_5.prm

>  <SCORE>
-8.87436

>  <SCORE.INTER>
-8.01791

>  <SCORE.INTER.CONST>
1

>  <SCORE.INTER.POLAR>
0

>  <SCORE.INTER.ROT>
6

>  <SCORE.INTER.SOLV>
19.6483

>  <SCORE.INTER.VDW>
-19.4947

>  <SCORE.INTER.norm>
-0.258642

>  <SCORE.INTRA>
-0.861607

>  <SCORE.INTRA.DIHEDRAL>
-5.2612

>  <SCORE.INTRA.DIHEDRAL.0>
10.8172

>  <SCORE.INTRA.POLAR>
0

>  <SCORE.INTRA.POLAR.0>
0

>  <SCORE.INTRA.REPUL>
0

>  <SCORE.INTRA.REPUL.0>
0

>  <SCORE.INTRA.SOLV>
-3.21952

>  <SCORE.INTRA.SOLV.lig_0>
-80.3833

>  <SCORE.INTRA.VDW>
3.37875

>  <SCORE.INTRA.VDW.0>
-4.63762

>  <SCORE.INTRA.norm>
-0.0277938

>  <SCORE.RESTR>
0.0051543

>  <SCORE.RESTR.CAVITY>
0.0051543

>  <SCORE.RESTR.norm>
0.000166268

>  <SCORE.SYSTEM>
0

>  <SCORE.SYSTEM.CONST>
0

>  <SCORE.SYSTEM.DIHEDRAL>
0

>  <SCORE.SYSTEM.SOLV>
0

>  <SCORE.SYSTEM.norm>
0

>  <SCORE.heavy>
31

>  <SCORE.norm>
-0.28627

>  <RMSD>
5.159

$$$$
ligand
 OpenBabel11021811473D
libRbt.so/2013.1/901 2013/11/27
 31 33  0  0  0  0  0  0  0  0999 V2000
   22.9781    7.3830   16.1373 C   0  0  0  0  0  0  0  0  0  0  0  0
   19.7385   -0.0868   12.3101 N   0  0  0  0  0  0  0  0  0  0  0  0
   22.1779    8.5414   15.8790 O   0  0  0  0  0  0  0  0  0  0  0  0
   22.1643    6.3410   16.9088 C   0  0  1  0  0  0  0  0  0  0  0  0
   16.0751    2.3423   14.4509 N   0  0  0  0  0  0  0  0  0  0  0  0
   21.0317    5.9162   16.1258 O   0  0  0  0  0  0  0  0  0  0  0  0
   21.0651    4.4825   16.0117 C   0  0  1  0  0  0  0  0  0  0  0  0
   14.8037    5.4616   19.5965 N   0  0  0  0  0  0  0  0  0  0  0  0
   20.5416    4.0372   14.7505 O   0  0  0  0  0  0  0  0  0  0  0  0
   19.8367    2.7892   14.8253 C   0  0  2  0  0  0  0  0  0  0  0  0
   18.5378    5.9699   14.9291 N   0  0  0  0  0  0  0  0  0  0  0  0
   21.5689    1.6435   13.5886 O   0  0  0  0  0  0  0  0  0  0  0  0
   20.1827    1.9944   13.5608 C   0  0  1  0  0  0  0  0  0  0  0  0
   17.9555    3.5672   16.2170 O   0  0  0  0  0  0  0  0  0  0  0  0
   19.3421    0.7189   13.4751 C   0  0  1  0  0  0  0  0  0  0  0  0
   16.1656    4.5285   17.4045 O   0  0  0  0  0  0  0  0  0  0  0  0
   17.8647    1.0987   13.3722 C   0  0  0  0  0  0  0  0  0  0  0  0
   18.3713    6.2565   19.7762 O   0  0  0  0  0  0  0  0  0  0  0  0
   17.4532    1.8621   14.6344 C   0  0  1  0  0  0  0  0  0  0  0  0
   18.9273    7.6084   17.3007 O   0  0  0  0  0  0  0  0  0  0  0  0
   18.3417    3.0789   14.9204 C   0  0  2  0  0  0  0  0  0  0  0  0
   22.8229    2.8036   16.3985 O   0  0  0  0  0  0  0  0  0  0  0  0
   16.9498    4.5925   16.1990 C   0  0  1  0  0  0  0  0  0  0  0  0
   22.7245    4.4918   18.4327 O   0  0  0  0  0  0  0  0  0  0  0  0
   16.9239    4.7129   18.6120 C   0  0  2  0  0  0  0  0  0  0  0  0
   15.9838    4.6100   19.8154 C   0  0  0  0  0  0  0  0  0  0  0  0
   17.5668    6.1010   18.6042 C   0  0  2  0  0  0  0  0  0  0  0  0
   18.4459    6.2616   17.3622 C   0  0  1  0  0  0  0  0  0  0  0  0
   17.6419    5.9557   16.0957 C   0  0  1  0  0  0  0  0  0  0  0  0
   22.5585    4.1651   16.0518 C   0  0  2  0  0  0  0  0  0  0  0  0
   23.0168    5.0961   17.1703 C   0  0  1  0  0  0  0  0  0  0  0  0
  1  3  1  0  0  0  0
  4  1  1  6  0  0  0
  4  6  1  0  0  0  0
  4 31  1  0  0  0  0
  6  7  1  0  0  0  0
  7  9  1  6  0  0  0
  7 30  1  0  0  0  0
  8 26  1  0  0  0  0
 10  9  1  6  0  0  0
 10 13  1  0  0  0  0
 10 21  1  0  0  0  0
 13 12  1  1  0  0  0
 13 15  1  0  0  0  0
 15  2  1  6  0  0  0
 15 17  1  0  0  0  0
 16 25  1  0  0  0  0
 16 23  1  0  0  0  0
 17 19  1  0  0  0  0
 19  5  1  6  0  0  0
 19 21  1  0  0  0  0
 21 14  1  1  0  0  0
 23 14  1  1  0  0  0
 23 29  1  0  0  0  0
 25 26  1  1  0  0  0
 25 27  1  0  0  0  0
 27 18  1  1  0  0  0
 27 28  1  0  0  0  0
 28 20  1  6  0  0  0
 28 29  1  0  0  0  0
 29 11  1  6  0  0  0
 30 22  1  1  0  0  0
 30 31  1  0  0  0  0
 31 24  1  1  0  0  0
M  END
>  <CHROM.1>
61.71033784,-145.63954943,-141.39944410,150.57234770,141.92259624,-48.96281460
19.38547767,4.36614576,16.18205314,-1.86308974,-0.24750777,-2.43031982

>  <Name>
ligand

>  <RI>
0

>  <Rbt.Current_Directory>
/home/itssahil/PROJECTS/Mol_Feturizer/New_Systems/rnas/3DVV

>  <Rbt.Executable>
rbdock ($Id: //depot/dev/client3/rdock/2013.1/src/exe/rbdock.cxx#4 $)

>  <Rbt.Library>
libRbt.so (2013.1, Build901 2013/11/27)

>  <Rbt.Parameter_File>
/export/apps/rDock/src/rDock_2013.1_src/data/scripts/dock_solv.prm

>  <Rbt.Receptor>
prm/pocket_docking_2.prm

>  <SCORE>
0.0460931

>  <SCORE.INTER>
-5.5242

>  <SCORE.INTER.CONST>
1

>  <SCORE.INTER.POLAR>
0

>  <SCORE.INTER.ROT>
6

>  <SCORE.INTER.SOLV>
15.1066

>  <SCORE.INTER.VDW>
-16.3183

>  <SCORE.INTER.norm>
-0.1782

>  <SCORE.INTRA>
5.20608

>  <SCORE.INTRA.DIHEDRAL>
7.71374

>  <SCORE.INTRA.DIHEDRAL.0>
10.8172

>  <SCORE.INTRA.POLAR>
0

>  <SCORE.INTRA.POLAR.0>
0

>  <SCORE.INTRA.REPUL>
0

>  <SCORE.INTRA.REPUL.0>
0

>  <SCORE.INTRA.SOLV>
2.77506

>  <SCORE.INTRA.SOLV.lig_0>
-80.3833

>  <SCORE.INTRA.VDW>
-0.0383197

>  <SCORE.INTRA.VDW.0>
-4.63762

>  <SCORE.INTRA.norm>
0.167938

>  <SCORE.RESTR>
0.364219

>  <SCORE.RESTR.CAVITY>
0.364219

>  <SCORE.RESTR.norm>
0.011749

>  <SCORE.SYSTEM>
0

>  <SCORE.SYSTEM.CONST>
0

>  <SCORE.SYSTEM.DIHEDRAL>
0

>  <SCORE.SYSTEM.SOLV>
0

>  <SCORE.SYSTEM.norm>
0

>  <SCORE.heavy>
31

>  <SCORE.norm>
0.00148687

>  <RMSD>
5.178

$$$$
ligand
 OpenBabel11021811473D
libRbt.so/2013.1/901 2013/11/27
 31 33  0  0  0  0  0  0  0  0999 V2000
   20.1684    0.8747   12.7425 C   0  0  0  0  0  0  0  0  0  0  0  0
   14.8818    3.3042   19.3188 N   0  0  0  0  0  0  0  0  0  0  0  0
   20.1367    2.2729   12.4379 O   0  0  0  0  0  0  0  0  0  0  0  0
   19.0814    0.5327   13.7646 C   0  0  1  0  0  0  0  0  0  0  0  0
   18.5961    6.4832   19.2859 N   0  0  0  0  0  0  0  0  0  0  0  0
   19.2062    1.3787   14.9243 O   0  0  0  0  0  0  0  0  0  0  0  0
   17.9456    2.0337   15.1517 C   0  0  1  0  0  0  0  0  0  0  0  0
   20.4858    7.7556   13.5041 N   0  0  0  0  0  0  0  0  0  0  0  0
   18.1216    3.3503   15.6981 O   0  0  0  0  0  0  0  0  0  0  0  0
   18.0121    3.4021   17.1283 C   0  0  2  0  0  0  0  0  0  0  0  0
   22.5899    3.6226   17.3109 N   0  0  0  0  0  0  0  0  0  0  0  0
   16.0522    1.9874   17.1109 O   0  0  0  0  0  0  0  0  0  0  0  0
   16.5232    3.2877   17.4754 C   0  0  1  0  0  0  0  0  0  0  0  0
   20.0443    4.7316   17.5567 O   0  0  0  0  0  0  0  0  0  0  0  0
   16.2975    3.5034   18.9732 C   0  0  1  0  0  0  0  0  0  0  0  0
   20.1218    5.6275   15.3820 O   0  0  0  0  0  0  0  0  0  0  0  0
   16.7344    4.9201   19.3467 C   0  0  0  0  0  0  0  0  0  0  0  0
   22.3498    8.3793   16.3516 O   0  0  0  0  0  0  0  0  0  0  0  0
   18.2303    5.0770   19.0581 C   0  0  1  0  0  0  0  0  0  0  0  0
   24.0292    6.0679   16.6709 O   0  0  0  0  0  0  0  0  0  0  0  0
   18.6072    4.7199   17.6152 C   0  0  2  0  0  0  0  0  0  0  0  0
   15.9517    2.3798   13.7509 O   0  0  0  0  0  0  0  0  0  0  0  0
   20.5945    4.5723   16.2397 C   0  0  1  0  0  0  0  0  0  0  0  0
   16.7211   -0.1476   13.6163 O   0  0  0  0  0  0  0  0  0  0  0  0
   20.4767    6.9494   15.8225 C   0  0  2  0  0  0  0  0  0  0  0  0
   19.9078    7.9753   14.8395 C   0  0  0  0  0  0  0  0  0  0  0  0
   22.0001    7.0855   15.8527 C   0  0  2  0  0  0  0  0  0  0  0  0
   22.6017    6.0127   16.7629 C   0  0  1  0  0  0  0  0  0  0  0  0
   22.1229    4.6220   16.3380 C   0  0  1  0  0  0  0  0  0  0  0  0
   17.3657    2.1700   13.7454 C   0  0  2  0  0  0  0  0  0  0  0  0
   17.6962    0.7970   13.1677 C   0  0  1  0  0  0  0  0  0  0  0  0
  1  3  1  0  0  0  0
  4  1  1  6  0  0  0
  4  6  1  0  0  0  0
  4 31  1  0  0  0  0
  6  7  1  0  0  0  0
  7  9  1  6  0  0  0
  7 30  1  0  0  0  0
  8 26  1  0  0  0  0
 10  9  1  6  0  0  0
 10 13  1  0  0  0  0
 10 21  1  0  0  0  0
 13 12  1  1  0  0  0
 13 15  1  0  0  0  0
 15  2  1  6  0  0  0
 15 17  1  0  0  0  0
 16 25  1  0  0  0  0
 16 23  1  0  0  0  0
 17 19  1  0  0  0  0
 19  5  1  6  0  0  0
 19 21  1  0  0  0  0
 21 14  1  1  0  0  0
 23 14  1  1  0  0  0
 23 29  1  0  0  0  0
 25 26  1  6  0  0  0
 25 27  1  0  0  0  0
 27 18  1  1  0  0  0
 27 28  1  0  0  0  0
 28 20  1  6  0  0  0
 28 29  1  0  0  0  0
 29 11  1  1  0  0  0
 30 22  1  1  0  0  0
 30 31  1  0  0  0  0
 31 24  1  1  0  0  0
M  END
>  <CHROM.1>
-53.90595620,-96.18882586,-75.36234569,58.98074304,61.51888256,-61.19113278
19.15689275,4.03987102,15.99359346,-2.44855850,0.58388608,0.86575184

>  <Name>
ligand

>  <RI>
0

>  <Rbt.Current_Directory>
/home/itssahil/PROJECTS/Mol_Feturizer/New_Systems/rnas/3DVV

>  <Rbt.Executable>
rbdock ($Id: //depot/dev/client3/rdock/2013.1/src/exe/rbdock.cxx#4 $)

>  <Rbt.Library>
libRbt.so (2013.1, Build901 2013/11/27)

>  <Rbt.Parameter_File>
/export/apps/rDock/src/rDock_2013.1_src/data/scripts/dock_solv.prm

>  <Rbt.Receptor>
prm/pocket_docking_2.prm

>  <SCORE>
-4.76636

>  <SCORE.INTER>
-4.38352

>  <SCORE.INTER.CONST>
1

>  <SCORE.INTER.POLAR>
0

>  <SCORE.INTER.ROT>
6

>  <SCORE.INTER.SOLV>
20.9567

>  <SCORE.INTER.VDW>
-17.5079

>  <SCORE.INTER.norm>
-0.141404

>  <SCORE.INTRA>
-1.26174

>  <SCORE.INTRA.DIHEDRAL>
-4.74682

>  <SCORE.INTRA.DIHEDRAL.0>
10.8172

>  <SCORE.INTRA.POLAR>
0

>  <SCORE.INTRA.POLAR.0>
0

>  <SCORE.INTRA.REPUL>
0

>  <SCORE.INTRA.REPUL.0>
0

>  <SCORE.INTRA.SOLV>
-2.30927

>  <SCORE.INTRA.SOLV.lig_0>
-80.3833

>  <SCORE.INTRA.VDW>
2.26631

>  <SCORE.INTRA.VDW.0>
-4.63762

>  <SCORE.INTRA.norm>
-0.0407011

>  <SCORE.RESTR>
0.878901

>  <SCORE.RESTR.CAVITY>
0.878901

>  <SCORE.RESTR.norm>
0.0283516

>  <SCORE.SYSTEM>
0

>  <SCORE.SYSTEM.CONST>
0

>  <SCORE.SYSTEM.DIHEDRAL>
0

>  <SCORE.SYSTEM.SOLV>
0

>  <SCORE.SYSTEM.norm>
0

>  <SCORE.heavy>
31

>  <SCORE.norm>
-0.153753

>  <RMSD>
5.233

$$$$
ligand
 OpenBabel11021811473D
libRbt.so/2013.1/901 2013/11/27
 31 33  0  0  0  0  0  0  0  0999 V2000
   22.0595    4.0275   15.9091 C   0  0  0  0  0  0  0  0  0  0  0  0
   14.4414    1.8583   17.5499 N   0  0  0  0  0  0  0  0  0  0  0  0
   22.1118    4.3882   17.2932 O   0  0  0  0  0  0  0  0  0  0  0  0
   21.0424    2.9037   15.6948 C   0  0  1  0  0  0  0  0  0  0  0  0
   14.1360    6.6567   16.6637 N   0  0  0  0  0  0  0  0  0  0  0  0
   19.7249    3.3473   16.0740 O   0  0  0  0  0  0  0  0  0  0  0  0
   18.8338    3.1386   14.9640 C   0  0  1  0  0  0  0  0  0  0  0  0
   20.6300    6.6590   13.5877 N   0  0  0  0  0  0  0  0  0  0  0  0
   17.8132    4.1476   14.9047 O   0  0  0  0  0  0  0  0  0  0  0  0
   17.0414    4.2607   16.1095 C   0  0  2  0  0  0  0  0  0  0  0  0
   16.7947    7.9286   18.7115 N   0  0  0  0  0  0  0  0  0  0  0  0
   17.0325    1.8643   16.4255 O   0  0  0  0  0  0  0  0  0  0  0  0
   16.1822    2.9958   16.2202 C   0  0  1  0  0  0  0  0  0  0  0  0
   16.9536    6.7233   16.2030 O   0  0  0  0  0  0  0  0  0  0  0  0
   15.2015    3.1072   17.3893 C   0  0  1  0  0  0  0  0  0  0  0  0
   19.2959    6.5388   16.3356 O   0  0  0  0  0  0  0  0  0  0  0  0
   14.2466    4.2733   17.1326 C   0  0  0  0  0  0  0  0  0  0  0  0
   19.8432   10.0957   15.6108 O   0  0  0  0  0  0  0  0  0  0  0  0
   15.0515    5.5739   17.0543 C   0  0  1  0  0  0  0  0  0  0  0  0
   18.5776   10.1671   18.1911 O   0  0  0  0  0  0  0  0  0  0  0  0
   16.1854    5.5207   16.0232 C   0  0  2  0  0  0  0  0  0  0  0  0
   19.2008    2.7142   12.5675 O   0  0  0  0  0  0  0  0  0  0  0  0
   18.0732    6.5949   17.0934 C   0  0  1  0  0  0  0  0  0  0  0  0
   20.7524    1.1318   14.0119 O   0  0  0  0  0  0  0  0  0  0  0  0
   19.5417    7.7009   15.5255 C   0  0  2  0  0  0  0  0  0  0  0  0
   20.8563    7.5130   14.7645 C   0  0  0  0  0  0  0  0  0  0  0  0
   19.6623    8.9333   16.4238 C   0  0  2  0  0  0  0  0  0  0  0  0
   18.3921    9.0944   17.2615 C   0  0  1  0  0  0  0  0  0  0  0  0
   18.0936    7.8058   18.0323 C   0  0  1  0  0  0  0  0  0  0  0  0
   19.7455    3.3045   13.7500 C   0  0  2  0  0  0  0  0  0  0  0  0
   20.9764    2.5298   14.2113 C   0  0  1  0  0  0  0  0  0  0  0  0
  1  3  1  0  0  0  0
  4  1  1  6  0  0  0
  4  6  1  0  0  0  0
  4 31  1  0  0  0  0
  6  7  1  0  0  0  0
  7  9  1  6  0  0  0
  7 30  1  0  0  0  0
  8 26  1  0  0  0  0
 10  9  1  6  0  0  0
 10 13  1  0  0  0  0
 10 21  1  0  0  0  0
 13 12  1  1  0  0  0
 13 15  1  0  0  0  0
 15  2  1  6  0  0  0
 15 17  1  0  0  0  0
 16 25  1  0  0  0  0
 16 23  1  0  0  0  0
 17 19  1  0  0  0  0
 19  5  1  6  0  0  0
 19 21  1  0  0  0  0
 21 14  1  1  0  0  0
 23 14  1  6  0  0  0
 23 29  1  0  0  0  0
 25 26  1  1  0  0  0
 25 27  1  0  0  0  0
 27 18  1  6  0  0  0
 27 28  1  0  0  0  0
 28 20  1  1  0  0  0
 28 29  1  0  0  0  0
 29 11  1  6  0  0  0
 30 22  1  6  0  0  0
 30 31  1  0  0  0  0
 31 24  1  1  0  0  0
M  END
>  <CHROM.1>
61.72129313,-56.03111396,-69.64848786,104.44815839,-32.50722605,79.95625793
18.38052878,5.26764989,16.03901273,-1.41093813,0.35990554,0.26457610

>  <Name>
ligand

>  <RI>
0

>  <Rbt.Current_Directory>
/home/itssahil/PROJECTS/Mol_Feturizer/New_Systems/rnas/3DVV

>  <Rbt.Executable>
rbdock ($Id: //depot/dev/client3/rdock/2013.1/src/exe/rbdock.cxx#4 $)

>  <Rbt.Library>
libRbt.so (2013.1, Build901 2013/11/27)

>  <Rbt.Parameter_File>
/export/apps/rDock/src/rDock_2013.1_src/data/scripts/dock_solv.prm

>  <Rbt.Receptor>
prm/pocket_docking_4.prm

>  <SCORE>
0.225105

>  <SCORE.INTER>
-2.47818

>  <SCORE.INTER.CONST>
1

>  <SCORE.INTER.POLAR>
0

>  <SCORE.INTER.ROT>
6

>  <SCORE.INTER.SOLV>
19.715

>  <SCORE.INTER.VDW>
-15.8238

>  <SCORE.INTER.norm>
-0.0799413

>  <SCORE.INTRA>
2.70329

>  <SCORE.INTRA.DIHEDRAL>
0.42486

>  <SCORE.INTRA.DIHEDRAL.0>
10.8172

>  <SCORE.INTRA.POLAR>
0

>  <SCORE.INTRA.POLAR.0>
0

>  <SCORE.INTRA.REPUL>
0

>  <SCORE.INTRA.REPUL.0>
0

>  <SCORE.INTRA.SOLV>
0.0739886

>  <SCORE.INTRA.SOLV.lig_0>
-80.3833

>  <SCORE.INTRA.VDW>
2.45386

>  <SCORE.INTRA.VDW.0>
-4.63762

>  <SCORE.INTRA.norm>
0.0872027

>  <SCORE.RESTR>
0

>  <SCORE.RESTR.CAVITY>
0

>  <SCORE.RESTR.norm>
0

>  <SCORE.SYSTEM>
0

>  <SCORE.SYSTEM.CONST>
0

>  <SCORE.SYSTEM.DIHEDRAL>
0

>  <SCORE.SYSTEM.SOLV>
0

>  <SCORE.SYSTEM.norm>
0

>  <SCORE.heavy>
31

>  <SCORE.norm>
0.00726144

>  <RMSD>
5.251

$$$$
ligand
 OpenBabel11021811473D
libRbt.so/2013.1/901 2013/11/27
 31 33  0  0  0  0  0  0  0  0999 V2000
   13.9714    2.1394   19.6935 C   0  0  0  0  0  0  0  0  0  0  0  0
   17.4926    5.4936   22.5861 N   0  0  0  0  0  0  0  0  0  0  0  0
   13.8707    2.5910   21.0480 O   0  0  0  0  0  0  0  0  0  0  0  0
   14.0955    3.3356   18.7464 C   0  0  1  0  0  0  0  0  0  0  0  0
   16.7445    8.6863   18.9597 N   0  0  0  0  0  0  0  0  0  0  0  0
   15.3354    4.0304   18.9836 O   0  0  0  0  0  0  0  0  0  0  0  0
   16.0535    4.1241   17.7405 C   0  0  1  0  0  0  0  0  0  0  0  0
   20.0208    2.6706   15.1477 N   0  0  0  0  0  0  0  0  0  0  0  0
   17.4744    4.0665   17.9417 O   0  0  0  0  0  0  0  0  0  0  0  0
   17.9763    5.0875   18.8168 C   0  0  2  0  0  0  0  0  0  0  0  0
   19.2994    9.1099   15.9644 N   0  0  0  0  0  0  0  0  0  0  0  0
   18.1518    3.5347   20.6608 O   0  0  0  0  0  0  0  0  0  0  0  0
   17.5107    4.7403   20.2356 C   0  0  1  0  0  0  0  0  0  0  0  0
   18.0717    6.9109   17.1593 O   0  0  0  0  0  0  0  0  0  0  0  0
   17.8584    5.8666   21.2111 C   0  0  1  0  0  0  0  0  0  0  0  0
   20.0957    5.7141   17.2558 O   0  0  0  0  0  0  0  0  0  0  0  0
   17.1143    7.1361   20.7962 C   0  0  0  0  0  0  0  0  0  0  0  0
   20.0383    4.8862   13.6798 O   0  0  0  0  0  0  0  0  0  0  0  0
   17.5743    7.5532   19.3963 C   0  0  1  0  0  0  0  0  0  0  0  0
   20.4218    7.7353   13.6597 O   0  0  0  0  0  0  0  0  0  0  0  0
   17.4306    6.4357   18.3559 C   0  0  2  0  0  0  0  0  0  0  0  0
   15.8464    2.9547   15.5847 O   0  0  0  0  0  0  0  0  0  0  0  0
   19.5007    7.0250   17.2467 C   0  0  1  0  0  0  0  0  0  0  0  0
   13.4646    3.7607   16.4061 O   0  0  0  0  0  0  0  0  0  0  0  0
   19.8134    4.9301   16.0841 C   0  0  2  0  0  0  0  0  0  0  0  0
   20.4869    3.5626   16.2213 C   0  0  0  0  0  0  0  0  0  0  0  0
   20.3761    5.6366   14.8494 C   0  0  2  0  0  0  0  0  0  0  0  0
   19.7830    7.0426   14.7373 C   0  0  1  0  0  0  0  0  0  0  0  0
   20.0035    7.8204   16.0373 C   0  0  1  0  0  0  0  0  0  0  0  0
   15.6218    2.8638   16.9935 C   0  0  2  0  0  0  0  0  0  0  0  0
   14.1257    2.8547   17.2929 C   0  0  1  0  0  0  0  0  0  0  0  0
  1  3  1  0  0  0  0
  4  1  1  1  0  0  0
  4  6  1  0  0  0  0
  4 31  1  0  0  0  0
  6  7  1  0  0  0  0
  7  9  1  1  0  0  0
  7 30  1  0  0  0  0
  8 26  1  0  0  0  0
 10  9  1  6  0  0  0
 10 13  1  0  0  0  0
 10 21  1  0  0  0  0
 13 12  1  1  0  0  0
 13 15  1  0  0  0  0
 15  2  1  1  0  0  0
 15 17  1  0  0  0  0
 16 25  1  0  0  0  0
 16 23  1  0  0  0  0
 17 19  1  0  0  0  0
 19  5  1  6  0  0  0
 19 21  1  0  0  0  0
 21 14  1  6  0  0  0
 23 14  1  6  0  0  0
 23 29  1  0  0  0  0
 25 26  1  1  0  0  0
 25 27  1  0  0  0  0
 27 18  1  6  0  0  0
 27 28  1  0  0  0  0
 28 20  1  6  0  0  0
 28 29  1  0  0  0  0
 29 11  1  6  0  0  0
 30 22  1  6  0  0  0
 30 31  1  0  0  0  0
 31 24  1  6  0  0  0
M  END
>  <CHROM.1>
65.44923297,-57.64362029,71.22059142,71.99822195,-56.32627666,170.30978964
17.58313485,5.13925867,17.70457191,2.81439125,0.76502827,1.04597952

>  <Name>
ligand

>  <RI>
0

>  <Rbt.Current_Directory>
/home/itssahil/PROJECTS/Mol_Feturizer/New_Systems/rnas/3DVV

>  <Rbt.Executable>
rbdock ($Id: //depot/dev/client3/rdock/2013.1/src/exe/rbdock.cxx#4 $)

>  <Rbt.Library>
libRbt.so (2013.1, Build901 2013/11/27)

>  <Rbt.Parameter_File>
/export/apps/rDock/src/rDock_2013.1_src/data/scripts/dock_solv.prm

>  <Rbt.Receptor>
prm/pocket_docking_4.prm

>  <SCORE>
-3.37183

>  <SCORE.INTER>
-2.89435

>  <SCORE.INTER.CONST>
1

>  <SCORE.INTER.POLAR>
0

>  <SCORE.INTER.ROT>
6

>  <SCORE.INTER.SOLV>
14.0148

>  <SCORE.INTER.VDW>
-14.2012

>  <SCORE.INTER.norm>
-0.0933663

>  <SCORE.INTRA>
-0.477475

>  <SCORE.INTRA.DIHEDRAL>
-8.7207

>  <SCORE.INTRA.DIHEDRAL.0>
10.8172

>  <SCORE.INTRA.POLAR>
0

>  <SCORE.INTRA.POLAR.0>
0

>  <SCORE.INTRA.REPUL>
0

>  <SCORE.INTRA.REPUL.0>
0

>  <SCORE.INTRA.SOLV>
-2.04195

>  <SCORE.INTRA.SOLV.lig_0>
-80.3833

>  <SCORE.INTRA.VDW>
4.90385

>  <SCORE.INTRA.VDW.0>
-4.63762

>  <SCORE.INTRA.norm>
-0.0154024

>  <SCORE.RESTR>
0

>  <SCORE.RESTR.CAVITY>
0

>  <SCORE.RESTR.norm>
0

>  <SCORE.SYSTEM>
0

>  <SCORE.SYSTEM.CONST>
0

>  <SCORE.SYSTEM.DIHEDRAL>
0

>  <SCORE.SYSTEM.SOLV>
0

>  <SCORE.SYSTEM.norm>
0

>  <SCORE.heavy>
31

>  <SCORE.norm>
-0.108769

>  <RMSD>
5.253

$$$$
ligand
 OpenBabel11021811473D
libRbt.so/2013.1/901 2013/11/27
 31 33  0  0  0  0  0  0  0  0999 V2000
   19.9528    1.3896   12.9812 C   0  0  0  0  0  0  0  0  0  0  0  0
   14.8811    3.3758   20.0760 N   0  0  0  0  0  0  0  0  0  0  0  0
   21.2224    1.5498   13.6224 O   0  0  0  0  0  0  0  0  0  0  0  0
   18.9337    0.8109   13.9660 C   0  0  1  0  0  0  0  0  0  0  0  0
   18.6310    6.4176   19.3082 N   0  0  0  0  0  0  0  0  0  0  0  0
   18.8397    1.6499   15.1338 O   0  0  0  0  0  0  0  0  0  0  0  0
   17.4620    2.0178   15.3242 C   0  0  1  0  0  0  0  0  0  0  0  0
   20.4469    8.4832   14.3567 N   0  0  0  0  0  0  0  0  0  0  0  0
   17.3358    3.3348   15.8831 O   0  0  0  0  0  0  0  0  0  0  0  0
   17.5149    3.3784   17.3065 C   0  0  2  0  0  0  0  0  0  0  0  0
   21.3831    2.8171   16.1199 N   0  0  0  0  0  0  0  0  0  0  0  0
   15.5392    2.0362   17.6779 O   0  0  0  0  0  0  0  0  0  0  0  0
   16.1215    3.3154   17.9428 C   0  0  1  0  0  0  0  0  0  0  0  0
   19.6400    4.6292   17.3235 O   0  0  0  0  0  0  0  0  0  0  0  0
   16.2063    3.5263   19.4559 C   0  0  1  0  0  0  0  0  0  0  0  0
   19.8803    6.1735   15.5642 O   0  0  0  0  0  0  0  0  0  0  0  0
   16.7615    4.9229   19.7365 C   0  0  0  0  0  0  0  0  0  0  0  0
   23.1892    7.2905   16.6956 O   0  0  0  0  0  0  0  0  0  0  0  0
   18.1749    5.0276   19.1563 C   0  0  1  0  0  0  0  0  0  0  0  0
   23.6854    4.5785   15.8808 O   0  0  0  0  0  0  0  0  0  0  0  0
   18.2438    4.6694   17.6668 C   0  0  2  0  0  0  0  0  0  0  0  0
   15.4833    1.9473   13.8620 O   0  0  0  0  0  0  0  0  0  0  0  0
   19.9202    4.7799   15.9230 C   0  0  1  0  0  0  0  0  0  0  0  0
   16.7789   -0.3557   13.7383 O   0  0  0  0  0  0  0  0  0  0  0  0
   20.8312    6.9911   16.2675 C   0  0  2  0  0  0  0  0  0  0  0  0
   20.6798    8.4435   15.8092 C   0  0  0  0  0  0  0  0  0  0  0  0
   22.2494    6.5165   15.9455 C   0  0  2  0  0  0  0  0  0  0  0  0
   22.4014    5.0394   16.3145 C   0  0  1  0  0  0  0  0  0  0  0  0
   21.3114    4.2047   15.6370 C   0  0  1  0  0  0  0  0  0  0  0  0
   16.9090    2.0443   13.9007 C   0  0  2  0  0  0  0  0  0  0  0  0
   17.5427    0.7807   13.3264 C   0  0  1  0  0  0  0  0  0  0  0  0
  1  3  1  0  0  0  0
  4  1  1  6  0  0  0
  4  6  1  0  0  0  0
  4 31  1  0  0  0  0
  6  7  1  0  0  0  0
  7  9  1  6  0  0  0
  7 30  1  0  0  0  0
  8 26  1  0  0  0  0
 10  9  1  6  0  0  0
 10 13  1  0  0  0  0
 10 21  1  0  0  0  0
 13 12  1  1  0  0  0
 13 15  1  0  0  0  0
 15  2  1  1  0  0  0
 15 17  1  0  0  0  0
 16 25  1  0  0  0  0
 16 23  1  0  0  0  0
 17 19  1  0  0  0  0
 19  5  1  6  0  0  0
 19 21  1  0  0  0  0
 21 14  1  1  0  0  0
 23 14  1  1  0  0  0
 23 29  1  0  0  0  0
 25 26  1  6  0  0  0
 25 27  1  0  0  0  0
 27 18  1  1  0  0  0
 27 28  1  0  0  0  0
 28 20  1  6  0  0  0
 28 29  1  0  0  0  0
 29 11  1  1  0  0  0
 30 22  1  1  0  0  0
 30 31  1  0  0  0  0
 31 24  1  1  0  0  0
M  END
>  <CHROM.1>
56.28304169,-81.23651218,-95.51761578,80.79484201,75.56129175,-39.89597684
18.98517402,3.90377024,16.15758186,-2.55893173,0.53960445,0.77649352

>  <Name>
ligand

>  <RI>
0

>  <Rbt.Current_Directory>
/home/itssahil/PROJECTS/Mol_Feturizer/New_Systems/rnas/3DVV

>  <Rbt.Executable>
rbdock ($Id: //depot/dev/client3/rdock/2013.1/src/exe/rbdock.cxx#4 $)

>  <Rbt.Library>
libRbt.so (2013.1, Build901 2013/11/27)

>  <Rbt.Parameter_File>
/export/apps/rDock/src/rDock_2013.1_src/data/scripts/dock_solv.prm

>  <Rbt.Receptor>
prm/pocket_docking_2.prm

>  <SCORE>
-1.90001

>  <SCORE.INTER>
-3.51363

>  <SCORE.INTER.CONST>
1

>  <SCORE.INTER.POLAR>
0

>  <SCORE.INTER.ROT>
6

>  <SCORE.INTER.SOLV>
20.9998

>  <SCORE.INTER.VDW>
-16.9423

>  <SCORE.INTER.norm>
-0.113343

>  <SCORE.INTRA>
1.00133

>  <SCORE.INTRA.DIHEDRAL>
0.407936

>  <SCORE.INTRA.DIHEDRAL.0>
10.8172

>  <SCORE.INTRA.POLAR>
0

>  <SCORE.INTRA.POLAR.0>
0

>  <SCORE.INTRA.REPUL>
0

>  <SCORE.INTRA.REPUL.0>
0

>  <SCORE.INTRA.SOLV>
0.814576

>  <SCORE.INTRA.SOLV.lig_0>
-80.3833

>  <SCORE.INTRA.VDW>
0.390071

>  <SCORE.INTRA.VDW.0>
-4.63762

>  <SCORE.INTRA.norm>
0.0323009

>  <SCORE.RESTR>
0.612296

>  <SCORE.RESTR.CAVITY>
0.612296

>  <SCORE.RESTR.norm>
0.0197515

>  <SCORE.SYSTEM>
0

>  <SCORE.SYSTEM.CONST>
0

>  <SCORE.SYSTEM.DIHEDRAL>
0

>  <SCORE.SYSTEM.SOLV>
0

>  <SCORE.SYSTEM.norm>
0

>  <SCORE.heavy>
31

>  <SCORE.norm>
-0.0612907

>  <RMSD>
5.256

$$$$
ligand
 OpenBabel11021811473D
libRbt.so/2013.1/901 2013/11/27
 31 33  0  0  0  0  0  0  0  0999 V2000
   20.2148    1.1159   12.8412 C   0  0  0  0  0  0  0  0  0  0  0  0
   14.9069    3.2220   19.5782 N   0  0  0  0  0  0  0  0  0  0  0  0
   21.4166    1.4406   13.5477 O   0  0  0  0  0  0  0  0  0  0  0  0
   19.1244    0.6849   13.8253 C   0  0  1  0  0  0  0  0  0  0  0  0
   18.6014    6.4208   19.4272 N   0  0  0  0  0  0  0  0  0  0  0  0
   19.1612    1.5154   15.0023 O   0  0  0  0  0  0  0  0  0  0  0  0
   17.8546    2.0829   15.2040 C   0  0  1  0  0  0  0  0  0  0  0  0
   20.2993    7.8532   13.5971 N   0  0  0  0  0  0  0  0  0  0  0  0
   17.9289    3.3976   15.7776 O   0  0  0  0  0  0  0  0  0  0  0  0
   17.9032    3.4046   17.2126 C   0  0  2  0  0  0  0  0  0  0  0  0
   22.4182    3.5019   17.1410 N   0  0  0  0  0  0  0  0  0  0  0  0
   15.9508    1.9805   17.2657 O   0  0  0  0  0  0  0  0  0  0  0  0
   16.4376    3.2714   17.6424 C   0  0  1  0  0  0  0  0  0  0  0  0
   19.9522    4.7313   17.5627 O   0  0  0  0  0  0  0  0  0  0  0  0
   16.2993    3.4395   19.1568 C   0  0  1  0  0  0  0  0  0  0  0  0
   19.9674    5.7090   15.4221 O   0  0  0  0  0  0  0  0  0  0  0  0
   16.7521    4.8464   19.5481 C   0  0  0  0  0  0  0  0  0  0  0  0
   22.3875    8.2995   16.3753 O   0  0  0  0  0  0  0  0  0  0  0  0
   18.2280    5.0202   19.1776 C   0  0  1  0  0  0  0  0  0  0  0  0
   23.9534    5.8927   16.5182 O   0  0  0  0  0  0  0  0  0  0  0  0
   18.5210    4.7100   17.7046 C   0  0  2  0  0  0  0  0  0  0  0  0
   15.8822    2.3252   13.7518 O   0  0  0  0  0  0  0  0  0  0  0  0
   20.4253    4.5969   16.2133 C   0  0  1  0  0  0  0  0  0  0  0  0
   16.8186   -0.1440   13.5969 O   0  0  0  0  0  0  0  0  0  0  0  0
   20.4153    6.9917   15.8927 C   0  0  2  0  0  0  0  0  0  0  0  0
   19.8536    8.0847   14.9804 C   0  0  0  0  0  0  0  0  0  0  0  0
   21.9434    7.0469   15.8473 C   0  0  2  0  0  0  0  0  0  0  0  0
   22.5315    5.9083   16.6834 C   0  0  1  0  0  0  0  0  0  0  0  0
   21.9571    4.5628   16.2324 C   0  0  1  0  0  0  0  0  0  0  0  0
   17.3066    2.2076   13.7839 C   0  0  2  0  0  0  0  0  0  0  0  0
   17.7421    0.8701   13.1929 C   0  0  1  0  0  0  0  0  0  0  0  0
  1  3  1  0  0  0  0
  4  1  1  6  0  0  0
  4  6  1  0  0  0  0
  4 31  1  0  0  0  0
  6  7  1  0  0  0  0
  7  9  1  6  0  0  0
  7 30  1  0  0  0  0
  8 26  1  0  0  0  0
 10  9  1  6  0  0  0
 10 13  1  0  0  0  0
 10 21  1  0  0  0  0
 13 12  1  1  0  0  0
 13 15  1  0  0  0  0
 15  2  1  6  0  0  0
 15 17  1  0  0  0  0
 16 25  1  0  0  0  0
 16 23  1  0  0  0  0
 17 19  1  0  0  0  0
 19  5  1  6  0  0  0
 19 21  1  0  0  0  0
 21 14  1  1  0  0  0
 23 14  1  1  0  0  0
 23 29  1  0  0  0  0
 25 26  1  6  0  0  0
 25 27  1  0  0  0  0
 27 18  1  1  0  0  0
 27 28  1  0  0  0  0
 28 20  1  6  0  0  0
 28 29  1  0  0  0  0
 29 11  1  1  0  0  0
 30 22  1  1  0  0  0
 30 31  1  0  0  0  0
 31 24  1  1  0  0  0
M  END
>  <CHROM.1>
40.08969452,-90.62412338,-81.00969411,62.60554780,60.68378593,-58.56081173
19.14605409,4.01233267,16.08584390,-2.46666092,0.56888930,0.80482189

>  <Name>
ligand

>  <RI>
0

>  <Rbt.Current_Directory>
/home/itssahil/PROJECTS/Mol_Feturizer/New_Systems/rnas/3DVV

>  <Rbt.Executable>
rbdock ($Id: //depot/dev/client3/rdock/2013.1/src/exe/rbdock.cxx#4 $)

>  <Rbt.Library>
libRbt.so (2013.1, Build901 2013/11/27)

>  <Rbt.Parameter_File>
/export/apps/rDock/src/rDock_2013.1_src/data/scripts/dock_solv.prm

>  <Rbt.Receptor>
prm/pocket_docking_2.prm

>  <SCORE>
-3.5102

>  <SCORE.INTER>
-3.38674

>  <SCORE.INTER.CONST>
1

>  <SCORE.INTER.POLAR>
0

>  <SCORE.INTER.ROT>
6

>  <SCORE.INTER.SOLV>
21.6006

>  <SCORE.INTER.VDW>
-17.058

>  <SCORE.INTER.norm>
-0.10925

>  <SCORE.INTRA>
-1.24478

>  <SCORE.INTRA.DIHEDRAL>
-3.69157

>  <SCORE.INTRA.DIHEDRAL.0>
10.8172

>  <SCORE.INTRA.POLAR>
0

>  <SCORE.INTRA.POLAR.0>
0

>  <SCORE.INTRA.REPUL>
0

>  <SCORE.INTRA.REPUL.0>
0

>  <SCORE.INTRA.SOLV>
-2.70844

>  <SCORE.INTRA.SOLV.lig_0>
-80.3833

>  <SCORE.INTRA.VDW>
1.95523

>  <SCORE.INTRA.VDW.0>
-4.63762

>  <SCORE.INTRA.norm>
-0.0401542

>  <SCORE.RESTR>
1.12132

>  <SCORE.RESTR.CAVITY>
1.12132

>  <SCORE.RESTR.norm>
0.0361716

>  <SCORE.SYSTEM>
0

>  <SCORE.SYSTEM.CONST>
0

>  <SCORE.SYSTEM.DIHEDRAL>
0

>  <SCORE.SYSTEM.SOLV>
0

>  <SCORE.SYSTEM.norm>
0

>  <SCORE.heavy>
31

>  <SCORE.norm>
-0.113232

>  <RMSD>
5.259

$$$$
ligand
 OpenBabel11021811473D
libRbt.so/2013.1/901 2013/11/27
 31 33  0  0  0  0  0  0  0  0999 V2000
   20.4708    0.8766   13.5143 C   0  0  0  0  0  0  0  0  0  0  0  0
   14.9384    3.2130   19.5215 N   0  0  0  0  0  0  0  0  0  0  0  0
   20.7132    2.2621   13.2488 O   0  0  0  0  0  0  0  0  0  0  0  0
   19.0578    0.6856   14.0713 C   0  0  1  0  0  0  0  0  0  0  0  0
   18.5219    6.5353   19.3658 N   0  0  0  0  0  0  0  0  0  0  0  0
   18.8623    1.5230   15.2276 O   0  0  0  0  0  0  0  0  0  0  0  0
   17.6929    2.3334   15.0142 C   0  0  1  0  0  0  0  0  0  0  0  0
   19.8591    7.9802   13.3813 N   0  0  0  0  0  0  0  0  0  0  0  0
   17.8207    3.6239   15.6317 O   0  0  0  0  0  0  0  0  0  0  0  0
   17.8442    3.5788   17.0660 C   0  0  2  0  0  0  0  0  0  0  0  0
   22.3572    3.8200   16.9060 N   0  0  0  0  0  0  0  0  0  0  0  0
   15.9411    2.0900   17.1315 O   0  0  0  0  0  0  0  0  0  0  0  0
   16.3992    3.3821   17.5391 C   0  0  1  0  0  0  0  0  0  0  0  0
   19.8608    4.9590   17.3965 O   0  0  0  0  0  0  0  0  0  0  0  0
   16.3078    3.4913   19.0624 C   0  0  1  0  0  0  0  0  0  0  0  0
   19.7697    5.9148   15.2479 O   0  0  0  0  0  0  0  0  0  0  0  0
   16.7289    4.8974   19.4900 C   0  0  0  0  0  0  0  0  0  0  0  0
   22.1183    8.6049   16.0986 O   0  0  0  0  0  0  0  0  0  0  0  0
   18.1848    5.1330   19.0773 C   0  0  1  0  0  0  0  0  0  0  0  0
   23.7789    6.2609   16.2121 O   0  0  0  0  0  0  0  0  0  0  0  0
   18.4367    4.8855   17.5850 C   0  0  2  0  0  0  0  0  0  0  0  0
   16.3876    2.9101   13.0089 O   0  0  0  0  0  0  0  0  0  0  0  0
   20.2950    4.8289   16.0337 C   0  0  1  0  0  0  0  0  0  0  0  0
   16.8418    0.3048   13.0712 O   0  0  0  0  0  0  0  0  0  0  0  0
   20.1831    7.2183   15.6921 C   0  0  2  0  0  0  0  0  0  0  0  0
   19.5509    8.2798   14.7888 C   0  0  0  0  0  0  0  0  0  0  0  0
   21.7057    7.3310   15.5966 C   0  0  2  0  0  0  0  0  0  0  0  0
   22.3635    6.2242   16.4233 C   0  0  1  0  0  0  0  0  0  0  0  0
   21.8269    4.8533   16.0033 C   0  0  1  0  0  0  0  0  0  0  0  0
   17.6739    2.5247   13.4991 C   0  0  2  0  0  0  0  0  0  0  0  0
   18.0196    1.1144   13.0305 C   0  0  1  0  0  0  0  0  0  0  0  0
  1  3  1  0  0  0  0
  4  1  1  6  0  0  0
  4  6  1  0  0  0  0
  4 31  1  0  0  0  0
  6  7  1  0  0  0  0
  7  9  1  1  0  0  0
  7 30  1  0  0  0  0
  8 26  1  0  0  0  0
 10  9  1  6  0  0  0
 10 13  1  0  0  0  0
 10 21  1  0  0  0  0
 13 12  1  1  0  0  0
 13 15  1  0  0  0  0
 15  2  1  6  0  0  0
 15 17  1  0  0  0  0
 16 25  1  0  0  0  0
 16 23  1  0  0  0  0
 17 19  1  0  0  0  0
 19  5  1  6  0  0  0
 19 21  1  0  0  0  0
 21 14  1  1  0  0  0
 23 14  1  1  0  0  0
 23 29  1  0  0  0  0
 25 26  1  6  0  0  0
 25 27  1  0  0  0  0
 27 18  1  1  0  0  0
 27 28  1  0  0  0  0
 28 20  1  6  0  0  0
 28 29  1  0  0  0  0
 29 11  1  1  0  0  0
 30 22  1  6  0  0  0
 30 31  1  0  0  0  0
 31 24  1  1  0  0  0
M  END
>  <CHROM.1>
-54.67742872,-67.28844586,-77.70455480,62.57898829,58.04374086,-53.41818164
19.05760063,4.23255167,15.92740613,-2.46892324,0.64389765,0.83420201

>  <Name>
ligand

>  <RI>
0

>  <Rbt.Current_Directory>
/home/itssahil/PROJECTS/Mol_Feturizer/New_Systems/rnas/3DVV

>  <Rbt.Executable>
rbdock ($Id: //depot/dev/client3/rdock/2013.1/src/exe/rbdock.cxx#4 $)

>  <Rbt.Library>
libRbt.so (2013.1, Build901 2013/11/27)

>  <Rbt.Parameter_File>
/export/apps/rDock/src/rDock_2013.1_src/data/scripts/dock_solv.prm

>  <Rbt.Receptor>
prm/pocket_docking_3.prm

>  <SCORE>
-8.26196

>  <SCORE.INTER>
-4.83375

>  <SCORE.INTER.CONST>
1

>  <SCORE.INTER.POLAR>
0

>  <SCORE.INTER.ROT>
6

>  <SCORE.INTER.SOLV>
17.3196

>  <SCORE.INTER.VDW>
-16.5957

>  <SCORE.INTER.norm>
-0.155927

>  <SCORE.INTRA>
-3.42821

>  <SCORE.INTRA.DIHEDRAL>
-8.54472

>  <SCORE.INTRA.DIHEDRAL.0>
10.8172

>  <SCORE.INTRA.POLAR>
0

>  <SCORE.INTRA.POLAR.0>
0

>  <SCORE.INTRA.REPUL>
0

>  <SCORE.INTRA.REPUL.0>
0

>  <SCORE.INTRA.SOLV>
-2.56217

>  <SCORE.INTRA.SOLV.lig_0>
-80.3833

>  <SCORE.INTRA.VDW>
2.12524

>  <SCORE.INTRA.VDW.0>
-4.63762

>  <SCORE.INTRA.norm>
-0.110587

>  <SCORE.RESTR>
0

>  <SCORE.RESTR.CAVITY>
0

>  <SCORE.RESTR.norm>
0

>  <SCORE.SYSTEM>
0

>  <SCORE.SYSTEM.CONST>
0

>  <SCORE.SYSTEM.DIHEDRAL>
0

>  <SCORE.SYSTEM.SOLV>
0

>  <SCORE.SYSTEM.norm>
0

>  <SCORE.heavy>
31

>  <SCORE.norm>
-0.266515

>  <RMSD>
5.266

$$$$
ligand
 OpenBabel11021811473D
libRbt.so/2013.1/901 2013/11/27
 31 33  0  0  0  0  0  0  0  0999 V2000
   16.5401    3.0000    8.1894 C   0  0  0  0  0  0  0  0  0  0  0  0
   20.1586   -0.6026   12.5318 N   0  0  0  0  0  0  0  0  0  0  0  0
   17.0411    1.8137    7.5646 O   0  0  0  0  0  0  0  0  0  0  0  0
   16.4178    2.7891    9.7006 C   0  0  1  0  0  0  0  0  0  0  0  0
   19.6493    2.7508   16.0530 N   0  0  0  0  0  0  0  0  0  0  0  0
   17.7243    2.6284   10.2870 O   0  0  0  0  0  0  0  0  0  0  0  0
   17.8731    3.5911   11.3456 C   0  0  1  0  0  0  0  0  0  0  0  0
   23.4485    3.5046   17.1234 N   0  0  0  0  0  0  0  0  0  0  0  0
   19.2305    4.0456   11.4639 O   0  0  0  0  0  0  0  0  0  0  0  0
   20.0495    3.2105   12.2956 C   0  0  2  0  0  0  0  0  0  0  0  0
   18.8501    7.1543   14.3371 N   0  0  0  0  0  0  0  0  0  0  0  0
   20.1253    1.4733   10.6165 O   0  0  0  0  0  0  0  0  0  0  0  0
   19.7086    1.7549   11.9554 C   0  0  1  0  0  0  0  0  0  0  0  0
   20.3183    4.7906   14.1696 O   0  0  0  0  0  0  0  0  0  0  0  0
   20.4140    0.7944   12.9148 C   0  0  1  0  0  0  0  0  0  0  0  0
   20.8751    4.8637   16.4549 O   0  0  0  0  0  0  0  0  0  0  0  0
   19.9128    1.0486   14.3366 C   0  0  0  0  0  0  0  0  0  0  0  0
   23.4087    7.4784   15.9858 O   0  0  0  0  0  0  0  0  0  0  0  0
   20.2657    2.4818   14.7450 C   0  0  1  0  0  0  0  0  0  0  0  0
   20.9603    8.8600   15.3849 O   0  0  0  0  0  0  0  0  0  0  0  0
   19.7512    3.5351   13.7562 C   0  0  2  0  0  0  0  0  0  0  0  0
   16.6481    5.6412   11.9412 O   0  0  0  0  0  0  0  0  0  0  0  0
   19.8991    5.2425   15.4668 C   0  0  1  0  0  0  0  0  0  0  0  0
   14.9414    3.6789   11.4568 O   0  0  0  0  0  0  0  0  0  0  0  0
   22.1857    5.4100   16.2293 C   0  0  2  0  0  0  0  0  0  0  0  0
   23.1281    4.9254   17.3335 C   0  0  0  0  0  0  0  0  0  0  0  0
   22.1165    6.9376   16.2735 C   0  0  2  0  0  0  0  0  0  0  0  0
   21.1133    7.4446   15.2354 C   0  0  1  0  0  0  0  0  0  0  0  0
   19.7542    6.7676   15.4310 C   0  0  1  0  0  0  0  0  0  0  0  0
   17.0130    4.7620   10.8746 C   0  0  2  0  0  0  0  0  0  0  0  0
   15.7850    4.0209   10.3542 C   0  0  1  0  0  0  0  0  0  0  0  0
  1  3  1  0  0  0  0
  4  1  1  6  0  0  0
  4  6  1  0  0  0  0
  4 31  1  0  0  0  0
  6  7  1  0  0  0  0
  7  9  1  6  0  0  0
  7 30  1  0  0  0  0
  8 26  1  0  0  0  0
 10  9  1  6  0  0  0
 10 13  1  0  0  0  0
 10 21  1  0  0  0  0
 13 12  1  6  0  0  0
 13 15  1  0  0  0  0
 15  2  1  6  0  0  0
 15 17  1  0  0  0  0
 16 25  1  0  0  0  0
 16 23  1  0  0  0  0
 17 19  1  0  0  0  0
 19  5  1  1  0  0  0
 19 21  1  0  0  0  0
 21 14  1  1  0  0  0
 23 14  1  6  0  0  0
 23 29  1  0  0  0  0
 25 26  1  1  0  0  0
 25 27  1  0  0  0  0
 27 18  1  6  0  0  0
 27 28  1  0  0  0  0
 28 20  1  1  0  0  0
 28 29  1  0  0  0  0
 29 11  1  6  0  0  0
 30 22  1  1  0  0  0
 30 31  1  0  0  0  0
 31 24  1  1  0  0  0
M  END
>  <CHROM.1>
66.52802238,-86.42532112,42.10557228,96.23236965,170.89943704,73.24903307
19.51033335,4.07473690,13.24876350,2.47172206,0.78942962,-2.79015008

>  <Name>
ligand

>  <RI>
0

>  <Rbt.Current_Directory>
/home/itssahil/PROJECTS/Mol_Feturizer/New_Systems/rnas/3DVV

>  <Rbt.Executable>
rbdock ($Id: //depot/dev/client3/rdock/2013.1/src/exe/rbdock.cxx#4 $)

>  <Rbt.Library>
libRbt.so (2013.1, Build901 2013/11/27)

>  <Rbt.Parameter_File>
/export/apps/rDock/src/rDock_2013.1_src/data/scripts/dock_solv.prm

>  <Rbt.Receptor>
prm/blind_docking_80.prm

>  <SCORE>
-2.82481

>  <SCORE.INTER>
-9.98557

>  <SCORE.INTER.CONST>
1

>  <SCORE.INTER.POLAR>
0

>  <SCORE.INTER.ROT>
6

>  <SCORE.INTER.SOLV>
21.7195

>  <SCORE.INTER.VDW>
-21.4969

>  <SCORE.INTER.norm>
-0.322115

>  <SCORE.INTRA>
7.15877

>  <SCORE.INTRA.DIHEDRAL>
-0.363428

>  <SCORE.INTRA.DIHEDRAL.0>
10.8172

>  <SCORE.INTRA.POLAR>
0

>  <SCORE.INTRA.POLAR.0>
0

>  <SCORE.INTRA.REPUL>
0.151729

>  <SCORE.INTRA.REPUL.0>
0

>  <SCORE.INTRA.SOLV>
-0.510241

>  <SCORE.INTRA.SOLV.lig_0>
-80.3833

>  <SCORE.INTRA.VDW>
6.83696

>  <SCORE.INTRA.VDW.0>
-4.63762

>  <SCORE.INTRA.norm>
0.230928

>  <SCORE.RESTR>
0.00199455

>  <SCORE.RESTR.CAVITY>
0.00199455

>  <SCORE.RESTR.norm>
6.43404e-05

>  <SCORE.SYSTEM>
0

>  <SCORE.SYSTEM.CONST>
0

>  <SCORE.SYSTEM.DIHEDRAL>
0

>  <SCORE.SYSTEM.SOLV>
0

>  <SCORE.SYSTEM.norm>
0

>  <SCORE.heavy>
31

>  <SCORE.norm>
-0.0911228

>  <RMSD>
5.271

$$$$
ligand
 OpenBabel11021811473D
libRbt.so/2013.1/901 2013/11/27
 31 33  0  0  0  0  0  0  0  0999 V2000
   20.5207    0.7548   13.5215 C   0  0  0  0  0  0  0  0  0  0  0  0
   14.8568    3.2919   19.2726 N   0  0  0  0  0  0  0  0  0  0  0  0
   20.8534    2.1242   13.2707 O   0  0  0  0  0  0  0  0  0  0  0  0
   19.0700    0.6429   13.9969 C   0  0  1  0  0  0  0  0  0  0  0  0
   18.5581    6.4860   19.3103 N   0  0  0  0  0  0  0  0  0  0  0  0
   18.8588    1.4818   15.1493 O   0  0  0  0  0  0  0  0  0  0  0  0
   17.7524    2.3610   14.8797 C   0  0  1  0  0  0  0  0  0  0  0  0
   19.8684    9.5060   15.2767 N   0  0  0  0  0  0  0  0  0  0  0  0
   17.9200    3.6372   15.5169 O   0  0  0  0  0  0  0  0  0  0  0  0
   17.8788    3.5776   16.9504 C   0  0  2  0  0  0  0  0  0  0  0  0
   22.4521    3.7639   17.0102 N   0  0  0  0  0  0  0  0  0  0  0  0
   15.9235    2.1568   16.9162 O   0  0  0  0  0  0  0  0  0  0  0  0
   16.4084    3.4278   17.3577 C   0  0  1  0  0  0  0  0  0  0  0  0
   19.9261    4.8820   17.3838 O   0  0  0  0  0  0  0  0  0  0  0  0
   16.2539    3.5257   18.8768 C   0  0  1  0  0  0  0  0  0  0  0  0
   19.9101    5.8036   15.2185 O   0  0  0  0  0  0  0  0  0  0  0  0
   16.7049    4.9118   19.3379 C   0  0  0  0  0  0  0  0  0  0  0  0
   22.1942    8.5329   16.1187 O   0  0  0  0  0  0  0  0  0  0  0  0
   18.1850    5.0994   18.9918 C   0  0  1  0  0  0  0  0  0  0  0  0
   23.8740    6.2098   16.3346 O   0  0  0  0  0  0  0  0  0  0  0  0
   18.4934    4.8573   17.5092 C   0  0  2  0  0  0  0  0  0  0  0  0
   16.5975    3.0279   12.8110 O   0  0  0  0  0  0  0  0  0  0  0  0
   20.4154    4.7360   16.0414 C   0  0  1  0  0  0  0  0  0  0  0  0
   16.8953    0.4000   12.8709 O   0  0  0  0  0  0  0  0  0  0  0  0
   20.2916    7.1183   15.6580 C   0  0  2  0  0  0  0  0  0  0  0  0
   19.6844    8.1587   14.7139 C   0  0  0  0  0  0  0  0  0  0  0  0
   21.8155    7.2468   15.6210 C   0  0  2  0  0  0  0  0  0  0  0  0
   22.4518    6.1603   16.4903 C   0  0  1  0  0  0  0  0  0  0  0  0
   21.9469    4.7771   16.0712 C   0  0  1  0  0  0  0  0  0  0  0  0
   17.8297    2.5641   13.3680 C   0  0  2  0  0  0  0  0  0  0  0  0
   18.1187    1.1395   12.9044 C   0  0  1  0  0  0  0  0  0  0  0  0
  1  3  1  0  0  0  0
  4  1  1  6  0  0  0
  4  6  1  0  0  0  0
  4 31  1  0  0  0  0
  6  7  1  0  0  0  0
  7  9  1  1  0  0  0
  7 30  1  0  0  0  0
  8 26  1  0  0  0  0
 10  9  1  6  0  0  0
 10 13  1  0  0  0  0
 10 21  1  0  0  0  0
 13 12  1  1  0  0  0
 13 15  1  0  0  0  0
 15  2  1  6  0  0  0
 15 17  1  0  0  0  0
 16 25  1  0  0  0  0
 16 23  1  0  0  0  0
 17 19  1  0  0  0  0
 19  5  1  6  0  0  0
 19 21  1  0  0  0  0
 21 14  1  1  0  0  0
 23 14  1  1  0  0  0
 23 29  1  0  0  0  0
 25 26  1  6  0  0  0
 25 27  1  0  0  0  0
 27 18  1  1  0  0  0
 27 28  1  0  0  0  0
 28 20  1  6  0  0  0
 28 29  1  0  0  0  0
 29 11  1  1  0  0  0
 30 22  1  6  0  0  0
 30 31  1  0  0  0  0
 31 24  1  1  0  0  0
M  END
>  <CHROM.1>
-55.30145712,-66.46711961,-76.73966716,59.82999637,57.44078450,170.28897324
19.12295593,4.25543544,15.92058187,-2.33723247,0.57773460,0.76378038

>  <Name>
ligand

>  <RI>
0

>  <Rbt.Current_Directory>
/home/itssahil/PROJECTS/Mol_Feturizer/New_Systems/rnas/3DVV

>  <Rbt.Executable>
rbdock ($Id: //depot/dev/client3/rdock/2013.1/src/exe/rbdock.cxx#4 $)

>  <Rbt.Library>
libRbt.so (2013.1, Build901 2013/11/27)

>  <Rbt.Parameter_File>
/export/apps/rDock/src/rDock_2013.1_src/data/scripts/dock_solv.prm

>  <Rbt.Receptor>
prm/pocket_docking_8.prm

>  <SCORE>
-7.82268

>  <SCORE.INTER>
-4.493

>  <SCORE.INTER.CONST>
1

>  <SCORE.INTER.POLAR>
0

>  <SCORE.INTER.ROT>
6

>  <SCORE.INTER.SOLV>
20.3028

>  <SCORE.INTER.VDW>
-17.3629

>  <SCORE.INTER.norm>
-0.144935

>  <SCORE.INTRA>
-3.32968

>  <SCORE.INTRA.DIHEDRAL>
-8.60581

>  <SCORE.INTRA.DIHEDRAL.0>
10.8172

>  <SCORE.INTRA.POLAR>
0

>  <SCORE.INTRA.POLAR.0>
0

>  <SCORE.INTRA.REPUL>
0

>  <SCORE.INTRA.REPUL.0>
0

>  <SCORE.INTRA.SOLV>
-2.977

>  <SCORE.INTRA.SOLV.lig_0>
-80.3833

>  <SCORE.INTRA.VDW>
2.46172

>  <SCORE.INTRA.VDW.0>
-4.63762

>  <SCORE.INTRA.norm>
-0.107409

>  <SCORE.RESTR>
0

>  <SCORE.RESTR.CAVITY>
0

>  <SCORE.RESTR.norm>
0

>  <SCORE.SYSTEM>
0

>  <SCORE.SYSTEM.CONST>
0

>  <SCORE.SYSTEM.DIHEDRAL>
0

>  <SCORE.SYSTEM.SOLV>
0

>  <SCORE.SYSTEM.norm>
0

>  <SCORE.heavy>
31

>  <SCORE.norm>
-0.252344

>  <RMSD>
5.293

$$$$
ligand
 OpenBabel11021811473D
libRbt.so/2013.1/901 2013/11/27
 31 33  0  0  0  0  0  0  0  0999 V2000
   23.1468    7.5585   15.9857 C   0  0  0  0  0  0  0  0  0  0  0  0
   20.1941    0.1514   12.3744 N   0  0  0  0  0  0  0  0  0  0  0  0
   23.1244    7.1518   14.6135 O   0  0  0  0  0  0  0  0  0  0  0  0
   22.5661    6.4544   16.8728 C   0  0  1  0  0  0  0  0  0  0  0  0
   16.4902    1.6281   15.2036 N   0  0  0  0  0  0  0  0  0  0  0  0
   21.2886    6.0267   16.3612 O   0  0  0  0  0  0  0  0  0  0  0  0
   21.3265    4.6018   16.1665 C   0  0  1  0  0  0  0  0  0  0  0  0
   17.2502    2.5685   21.1018 N   0  0  0  0  0  0  0  0  0  0  0  0
   20.5260    4.1970   15.0449 O   0  0  0  0  0  0  0  0  0  0  0  0
   20.1015    2.8271   15.1019 C   0  0  2  0  0  0  0  0  0  0  0  0
   17.3490    5.1824   15.2202 N   0  0  0  0  0  0  0  0  0  0  0  0
   21.8183    2.1452   13.5430 O   0  0  0  0  0  0  0  0  0  0  0  0
   20.4022    2.2000   13.7356 C   0  0  1  0  0  0  0  0  0  0  0  0
   18.3367    3.1096   16.8009 O   0  0  0  0  0  0  0  0  0  0  0  0
   19.8274    0.7846   13.6504 C   0  0  1  0  0  0  0  0  0  0  0  0
   16.7045    3.4690   18.4577 O   0  0  0  0  0  0  0  0  0  0  0  0
   18.3059    0.8531   13.7839 C   0  0  0  0  0  0  0  0  0  0  0  0
   18.3925    6.4420   19.7951 O   0  0  0  0  0  0  0  0  0  0  0  0
   17.9476    1.4361   15.1540 C   0  0  1  0  0  0  0  0  0  0  0  0
   17.5527    7.3150   17.1879 O   0  0  0  0  0  0  0  0  0  0  0  0
   18.6108    2.7919   15.4251 C   0  0  2  0  0  0  0  0  0  0  0  0
   23.1638    2.9693   16.0334 O   0  0  0  0  0  0  0  0  0  0  0  0
   17.0059    3.5863   17.0549 C   0  0  1  0  0  0  0  0  0  0  0  0
   23.5177    4.5578   18.1189 O   0  0  0  0  0  0  0  0  0  0  0  0
   17.5836    4.2176   19.3145 C   0  0  2  0  0  0  0  0  0  0  0  0
   17.1690    4.0003   20.7717 C   0  0  0  0  0  0  0  0  0  0  0  0
   17.4708    5.7073   18.9853 C   0  0  2  0  0  0  0  0  0  0  0  0
   17.7964    5.9413   17.5088 C   0  0  1  0  0  0  0  0  0  0  0  0
   16.9200    5.0535   16.6213 C   0  0  1  0  0  0  0  0  0  0  0  0
   22.7928    4.3352   15.8324 C   0  0  2  0  0  0  0  0  0  0  0  0
   23.4847    5.2293   16.8570 C   0  0  1  0  0  0  0  0  0  0  0  0
  1  3  1  0  0  0  0
  4  1  1  6  0  0  0
  4  6  1  0  0  0  0
  4 31  1  0  0  0  0
  6  7  1  0  0  0  0
  7  9  1  6  0  0  0
  7 30  1  0  0  0  0
  8 26  1  0  0  0  0
 10  9  1  6  0  0  0
 10 13  1  0  0  0  0
 10 21  1  0  0  0  0
 13 12  1  1  0  0  0
 13 15  1  0  0  0  0
 15  2  1  6  0  0  0
 15 17  1  0  0  0  0
 16 25  1  0  0  0  0
 16 23  1  0  0  0  0
 17 19  1  0  0  0  0
 19  5  1  6  0  0  0
 19 21  1  0  0  0  0
 21 14  1  1  0  0  0
 23 14  1  1  0  0  0
 23 29  1  0  0  0  0
 25 26  1  1  0  0  0
 25 27  1  0  0  0  0
 27 18  1  1  0  0  0
 27 28  1  0  0  0  0
 28 20  1  6  0  0  0
 28 29  1  0  0  0  0
 29 11  1  6  0  0  0
 30 22  1  1  0  0  0
 30 31  1  0  0  0  0
 31 24  1  1  0  0  0
M  END
>  <CHROM.1>
-50.76406597,-157.06492463,-131.77902158,161.88984286,157.44416581,59.64722100
19.65740928,4.05095541,16.42073370,-0.52564675,0.43889832,0.78337742

>  <Name>
ligand

>  <RI>
0

>  <Rbt.Current_Directory>
/home/itssahil/PROJECTS/Mol_Feturizer/New_Systems/rnas/3DVV

>  <Rbt.Executable>
rbdock ($Id: //depot/dev/client3/rdock/2013.1/src/exe/rbdock.cxx#4 $)

>  <Rbt.Library>
libRbt.so (2013.1, Build901 2013/11/27)

>  <Rbt.Parameter_File>
/export/apps/rDock/src/rDock_2013.1_src/data/scripts/dock_solv.prm

>  <Rbt.Receptor>
prm/pocket_docking_3.prm

>  <SCORE>
-4.66668

>  <SCORE.INTER>
-8.03311

>  <SCORE.INTER.CONST>
1

>  <SCORE.INTER.POLAR>
0

>  <SCORE.INTER.ROT>
6

>  <SCORE.INTER.SOLV>
21.4618

>  <SCORE.INTER.VDW>
-20.1093

>  <SCORE.INTER.norm>
-0.259132

>  <SCORE.INTRA>
3.36467

>  <SCORE.INTRA.DIHEDRAL>
2.1657

>  <SCORE.INTRA.DIHEDRAL.0>
10.8172

>  <SCORE.INTRA.POLAR>
0

>  <SCORE.INTRA.POLAR.0>
0

>  <SCORE.INTRA.REPUL>
0

>  <SCORE.INTRA.REPUL.0>
0

>  <SCORE.INTRA.SOLV>
0.92416

>  <SCORE.INTRA.SOLV.lig_0>
-80.3833

>  <SCORE.INTRA.VDW>
1.81974

>  <SCORE.INTRA.VDW.0>
-4.63762

>  <SCORE.INTRA.norm>
0.108538

>  <SCORE.RESTR>
0.00175139

>  <SCORE.RESTR.CAVITY>
0.00175139

>  <SCORE.RESTR.norm>
5.64965e-05

>  <SCORE.SYSTEM>
0

>  <SCORE.SYSTEM.CONST>
0

>  <SCORE.SYSTEM.DIHEDRAL>
0

>  <SCORE.SYSTEM.SOLV>
0

>  <SCORE.SYSTEM.norm>
0

>  <SCORE.heavy>
31

>  <SCORE.norm>
-0.150538

>  <RMSD>
5.295

$$$$
ligand
 OpenBabel11021811473D
libRbt.so/2013.1/901 2013/11/27
 31 33  0  0  0  0  0  0  0  0999 V2000
   19.1917   10.0642   13.3048 C   0  0  0  0  0  0  0  0  0  0  0  0
   19.3271    1.1184   12.9329 N   0  0  0  0  0  0  0  0  0  0  0  0
   19.8817    9.1935   12.4022 O   0  0  0  0  0  0  0  0  0  0  0  0
   18.6897    9.2764   14.5175 C   0  0  1  0  0  0  0  0  0  0  0  0
   16.5781    2.4679   16.7442 N   0  0  0  0  0  0  0  0  0  0  0  0
   17.9420    8.1228   14.0855 O   0  0  0  0  0  0  0  0  0  0  0  0
   18.5115    6.9519   14.6975 C   0  0  1  0  0  0  0  0  0  0  0  0
   16.6867    6.0591   21.4640 N   0  0  0  0  0  0  0  0  0  0  0  0
   18.4120    5.8029   13.8413 O   0  0  0  0  0  0  0  0  0  0  0  0
   18.7943    4.5739   14.4764 C   0  0  2  0  0  0  0  0  0  0  0  0
   15.6661    6.4102   15.5638 N   0  0  0  0  0  0  0  0  0  0  0  0
   19.9849    3.8323   12.5079 O   0  0  0  0  0  0  0  0  0  0  0  0
   18.8985    3.5078   13.3796 C   0  0  1  0  0  0  0  0  0  0  0  0
   17.8163    5.0407   16.6915 O   0  0  0  0  0  0  0  0  0  0  0  0
   19.1375    2.1248   13.9887 C   0  0  1  0  0  0  0  0  0  0  0  0
   16.8941    5.1806   18.8521 O   0  0  0  0  0  0  0  0  0  0  0  0
   17.9409    1.7489   14.8630 C   0  0  0  0  0  0  0  0  0  0  0  0
   17.8184    8.7095   19.2632 O   0  0  0  0  0  0  0  0  0  0  0  0
   17.8149    2.7621   16.0046 C   0  0  1  0  0  0  0  0  0  0  0  0
   15.8314    8.8173   17.1884 O   0  0  0  0  0  0  0  0  0  0  0  0
   17.7382    4.2140   15.5171 C   0  0  2  0  0  0  0  0  0  0  0  0
   20.6620    6.5113   15.8105 O   0  0  0  0  0  0  0  0  0  0  0  0
   16.5967    5.1338   17.4443 C   0  0  1  0  0  0  0  0  0  0  0  0
   19.6078    8.7525   16.7398 O   0  0  0  0  0  0  0  0  0  0  0  0
   17.7104    6.2968   19.2458 C   0  0  2  0  0  0  0  0  0  0  0  0
   17.9646    6.2254   20.7533 C   0  0  0  0  0  0  0  0  0  0  0  0
   16.9778    7.6018   18.9292 C   0  0  2  0  0  0  0  0  0  0  0  0
   16.6340    7.6588   17.4393 C   0  0  1  0  0  0  0  0  0  0  0  0
   15.8567    6.4075   17.0224 C   0  0  1  0  0  0  0  0  0  0  0  0
   19.9872    7.3178   14.8422 C   0  0  2  0  0  0  0  0  0  0  0  0
   19.8758    8.7574   15.3353 C   0  0  1  0  0  0  0  0  0  0  0  0
  1  3  1  0  0  0  0
  4  1  1  6  0  0  0
  4  6  1  0  0  0  0
  4 31  1  0  0  0  0
  6  7  1  0  0  0  0
  7  9  1  6  0  0  0
  7 30  1  0  0  0  0
  8 26  1  0  0  0  0
 10  9  1  6  0  0  0
 10 13  1  0  0  0  0
 10 21  1  0  0  0  0
 13 12  1  6  0  0  0
 13 15  1  0  0  0  0
 15  2  1  6  0  0  0
 15 17  1  0  0  0  0
 16 25  1  0  0  0  0
 16 23  1  0  0  0  0
 17 19  1  0  0  0  0
 19  5  1  6  0  0  0
 19 21  1  0  0  0  0
 21 14  1  1  0  0  0
 23 14  1  6  0  0  0
 23 29  1  0  0  0  0
 25 26  1  1  0  0  0
 25 27  1  0  0  0  0
 27 18  1  6  0  0  0
 27 28  1  0  0  0  0
 28 20  1  1  0  0  0
 28 29  1  0  0  0  0
 29 11  1  6  0  0  0
 30 22  1  1  0  0  0
 30 31  1  0  0  0  0
 31 24  1  1  0  0  0
M  END
>  <CHROM.1>
-51.82901154,-171.74972691,-169.15000494,143.45786190,156.55141324,-51.07596001
18.12831536,6.06869280,15.98597514,-0.84033847,1.15901332,0.23948953

>  <Name>
ligand

>  <RI>
0

>  <Rbt.Current_Directory>
/home/itssahil/PROJECTS/Mol_Feturizer/New_Systems/rnas/3DVV

>  <Rbt.Executable>
rbdock ($Id: //depot/dev/client3/rdock/2013.1/src/exe/rbdock.cxx#4 $)

>  <Rbt.Library>
libRbt.so (2013.1, Build901 2013/11/27)

>  <Rbt.Parameter_File>
/export/apps/rDock/src/rDock_2013.1_src/data/scripts/dock_solv.prm

>  <Rbt.Receptor>
prm/pocket_docking_5.prm

>  <SCORE>
1.96422

>  <SCORE.INTER>
0.764662

>  <SCORE.INTER.CONST>
1

>  <SCORE.INTER.POLAR>
0

>  <SCORE.INTER.ROT>
6

>  <SCORE.INTER.SOLV>
8.4745

>  <SCORE.INTER.VDW>
-9.91506

>  <SCORE.INTER.norm>
0.0246665

>  <SCORE.INTRA>
1.19956

>  <SCORE.INTRA.DIHEDRAL>
-2.00092

>  <SCORE.INTRA.DIHEDRAL.0>
10.8172

>  <SCORE.INTRA.POLAR>
0

>  <SCORE.INTRA.POLAR.0>
0

>  <SCORE.INTRA.REPUL>
0

>  <SCORE.INTRA.REPUL.0>
0

>  <SCORE.INTRA.SOLV>
3.48306

>  <SCORE.INTRA.SOLV.lig_0>
-80.3833

>  <SCORE.INTRA.VDW>
0.458488

>  <SCORE.INTRA.VDW.0>
-4.63762

>  <SCORE.INTRA.norm>
0.0386954

>  <SCORE.RESTR>
0

>  <SCORE.RESTR.CAVITY>
0

>  <SCORE.RESTR.norm>
0

>  <SCORE.SYSTEM>
0

>  <SCORE.SYSTEM.CONST>
0

>  <SCORE.SYSTEM.DIHEDRAL>
0

>  <SCORE.SYSTEM.SOLV>
0

>  <SCORE.SYSTEM.norm>
0

>  <SCORE.heavy>
31

>  <SCORE.norm>
0.0633619

>  <RMSD>
5.295

$$$$
ligand
 OpenBabel11021811473D
libRbt.so/2013.1/901 2013/11/27
 31 33  0  0  0  0  0  0  0  0999 V2000
   20.4818    0.7936   13.5281 C   0  0  0  0  0  0  0  0  0  0  0  0
   14.8240    3.2611   19.3712 N   0  0  0  0  0  0  0  0  0  0  0  0
   20.7511    2.1652   13.2197 O   0  0  0  0  0  0  0  0  0  0  0  0
   19.0461    0.6392   14.0363 C   0  0  1  0  0  0  0  0  0  0  0  0
   18.5214    6.4599   19.3562 N   0  0  0  0  0  0  0  0  0  0  0  0
   18.8359    1.4737   15.1921 O   0  0  0  0  0  0  0  0  0  0  0  0
   17.6978    2.3188   14.9464 C   0  0  1  0  0  0  0  0  0  0  0  0
   18.3399    8.1876   14.8620 N   0  0  0  0  0  0  0  0  0  0  0  0
   17.8413    3.6007   15.5780 O   0  0  0  0  0  0  0  0  0  0  0  0
   17.8174    3.5447   17.0120 C   0  0  2  0  0  0  0  0  0  0  0  0
   22.3208    3.5930   17.0073 N   0  0  0  0  0  0  0  0  0  0  0  0
   15.8638    2.1214   17.0050 O   0  0  0  0  0  0  0  0  0  0  0  0
   16.3523    3.3941   17.4374 C   0  0  1  0  0  0  0  0  0  0  0  0
   19.8682    4.8527   17.4174 O   0  0  0  0  0  0  0  0  0  0  0  0
   16.2160    3.4956   18.9580 C   0  0  1  0  0  0  0  0  0  0  0  0
   19.8972    5.8161   15.2705 O   0  0  0  0  0  0  0  0  0  0  0  0
   16.6708    4.8835   19.4101 C   0  0  0  0  0  0  0  0  0  0  0  0
   22.3451    8.3855   16.2099 O   0  0  0  0  0  0  0  0  0  0  0  0
   18.1463    5.0720   19.0457 C   0  0  1  0  0  0  0  0  0  0  0  0
   23.8835    5.9623   16.3708 O   0  0  0  0  0  0  0  0  0  0  0  0
   18.4372    4.8266   17.5602 C   0  0  2  0  0  0  0  0  0  0  0  0
   16.4771    2.9466   12.9035 O   0  0  0  0  0  0  0  0  0  0  0  0
   20.3415    4.7041   16.0696 C   0  0  1  0  0  0  0  0  0  0  0  0
   16.8549    0.3290   12.9601 O   0  0  0  0  0  0  0  0  0  0  0  0
   20.3589    7.0967   15.7332 C   0  0  2  0  0  0  0  0  0  0  0  0
   19.8107    8.1900   14.8130 C   0  0  0  0  0  0  0  0  0  0  0  0
   21.8876    7.1345   15.6896 C   0  0  2  0  0  0  0  0  0  0  0  0
   22.4617    5.9949   16.5339 C   0  0  1  0  0  0  0  0  0  0  0  0
   21.8729    4.6530   16.0911 C   0  0  1  0  0  0  0  0  0  0  0  0
   17.7349    2.5211   13.4331 C   0  0  2  0  0  0  0  0  0  0  0  0
   18.0560    1.1048   12.9650 C   0  0  1  0  0  0  0  0  0  0  0  0
  1  3  1  0  0  0  0
  4  1  1  6  0  0  0
  4  6  1  0  0  0  0
  4 31  1  0  0  0  0
  6  7  1  0  0  0  0
  7  9  1  1  0  0  0
  7 30  1  0  0  0  0
  8 26  1  0  0  0  0
 10  9  1  6  0  0  0
 10 13  1  0  0  0  0
 10 21  1  0  0  0  0
 13 12  1  1  0  0  0
 13 15  1  0  0  0  0
 15  2  1  6  0  0  0
 15 17  1  0  0  0  0
 16 25  1  0  0  0  0
 16 23  1  0  0  0  0
 17 19  1  0  0  0  0
 19  5  1  6  0  0  0
 19 21  1  0  0  0  0
 21 14  1  1  0  0  0
 23 14  1  1  0  0  0
 23 29  1  0  0  0  0
 25 26  1  6  0  0  0
 25 27  1  0  0  0  0
 27 18  1  1  0  0  0
 27 28  1  0  0  0  0
 28 20  1  6  0  0  0
 28 29  1  0  0  0  0
 29 11  1  1  0  0  0
 30 22  1  6  0  0  0
 30 31  1  0  0  0  0
 31 24  1  1  0  0  0
M  END
>  <CHROM.1>
-57.50140253,-67.20328448,-78.06330635,63.57274655,57.45113408,61.67555707
19.04314638,4.16397944,15.96053300,-2.37399782,0.54417903,0.78786528

>  <Name>
ligand

>  <RI>
0

>  <Rbt.Current_Directory>
/home/itssahil/PROJECTS/Mol_Feturizer/New_Systems/rnas/3DVV

>  <Rbt.Executable>
rbdock ($Id: //depot/dev/client3/rdock/2013.1/src/exe/rbdock.cxx#4 $)

>  <Rbt.Library>
libRbt.so (2013.1, Build901 2013/11/27)

>  <Rbt.Parameter_File>
/export/apps/rDock/src/rDock_2013.1_src/data/scripts/dock_solv.prm

>  <Rbt.Receptor>
prm/pocket_docking_7.prm

>  <SCORE>
-8.94423

>  <SCORE.INTER>
-4.74251

>  <SCORE.INTER.CONST>
1

>  <SCORE.INTER.POLAR>
0

>  <SCORE.INTER.ROT>
6

>  <SCORE.INTER.SOLV>
16.9843

>  <SCORE.INTER.VDW>
-16.4231

>  <SCORE.INTER.norm>
-0.152984

>  <SCORE.INTRA>
-4.20172

>  <SCORE.INTRA.DIHEDRAL>
-8.68008

>  <SCORE.INTRA.DIHEDRAL.0>
10.8172

>  <SCORE.INTRA.POLAR>
0

>  <SCORE.INTRA.POLAR.0>
0

>  <SCORE.INTRA.REPUL>
0

>  <SCORE.INTRA.REPUL.0>
0

>  <SCORE.INTRA.SOLV>
-3.84986

>  <SCORE.INTRA.SOLV.lig_0>
-80.3833

>  <SCORE.INTRA.VDW>
2.06325

>  <SCORE.INTRA.VDW.0>
-4.63762

>  <SCORE.INTRA.norm>
-0.135539

>  <SCORE.RESTR>
0

>  <SCORE.RESTR.CAVITY>
0

>  <SCORE.RESTR.norm>
0

>  <SCORE.SYSTEM>
0

>  <SCORE.SYSTEM.CONST>
0

>  <SCORE.SYSTEM.DIHEDRAL>
0

>  <SCORE.SYSTEM.SOLV>
0

>  <SCORE.SYSTEM.norm>
0

>  <SCORE.heavy>
31

>  <SCORE.norm>
-0.288523

>  <RMSD>
5.295

$$$$
ligand
 OpenBabel11021811473D
libRbt.so/2013.1/901 2013/11/27
 31 33  0  0  0  0  0  0  0  0999 V2000
   20.5287    0.8127   13.5478 C   0  0  0  0  0  0  0  0  0  0  0  0
   14.8424    3.2780   19.3587 N   0  0  0  0  0  0  0  0  0  0  0  0
   20.8162    2.1937   13.3050 O   0  0  0  0  0  0  0  0  0  0  0  0
   19.0991    0.6557   14.0722 C   0  0  1  0  0  0  0  0  0  0  0  0
   18.4733    6.5521   19.3372 N   0  0  0  0  0  0  0  0  0  0  0  0
   18.8956    1.5020   15.2206 O   0  0  0  0  0  0  0  0  0  0  0  0
   17.7501    2.3377   14.9770 C   0  0  1  0  0  0  0  0  0  0  0  0
   18.2461    8.1948   14.8237 N   0  0  0  0  0  0  0  0  0  0  0  0
   17.8925    3.6275   15.5928 O   0  0  0  0  0  0  0  0  0  0  0  0
   17.8545    3.5908   17.0270 C   0  0  2  0  0  0  0  0  0  0  0  0
   22.3755    3.7692   17.0830 N   0  0  0  0  0  0  0  0  0  0  0  0
   15.9306    2.1275   17.0197 O   0  0  0  0  0  0  0  0  0  0  0  0
   16.3882    3.4159   17.4393 C   0  0  1  0  0  0  0  0  0  0  0  0
   19.8735    4.9465   17.4354 O   0  0  0  0  0  0  0  0  0  0  0  0
   16.2336    3.5355   18.9567 C   0  0  1  0  0  0  0  0  0  0  0  0
   19.8864    5.8473   15.2613 O   0  0  0  0  0  0  0  0  0  0  0  0
   16.6550    4.9386   19.3940 C   0  0  0  0  0  0  0  0  0  0  0  0
   22.2269    8.5339   16.1449 O   0  0  0  0  0  0  0  0  0  0  0  0
   18.1301    5.1526   19.0424 C   0  0  1  0  0  0  0  0  0  0  0  0
   23.8539    6.1764   16.3900 O   0  0  0  0  0  0  0  0  0  0  0  0
   18.4418    4.8927   17.5636 C   0  0  2  0  0  0  0  0  0  0  0  0
   16.5054    2.9355   12.9396 O   0  0  0  0  0  0  0  0  0  0  0  0
   20.3647    4.7767   16.0965 C   0  0  1  0  0  0  0  0  0  0  0  0
   16.8991    0.3209   13.0217 O   0  0  0  0  0  0  0  0  0  0  0  0
   20.2952    7.1574   15.6898 C   0  0  2  0  0  0  0  0  0  0  0  0
   19.7149    8.2018   14.7333 C   0  0  0  0  0  0  0  0  0  0  0  0
   21.8217    7.2518   15.6579 C   0  0  2  0  0  0  0  0  0  0  0  0
   22.4304    6.1599   16.5402 C   0  0  1  0  0  0  0  0  0  0  0  0
   21.8966    4.7842   16.1322 C   0  0  1  0  0  0  0  0  0  0  0  0
   17.7709    2.5232   13.4612 C   0  0  2  0  0  0  0  0  0  0  0  0
   18.0956    1.1036   13.0058 C   0  0  1  0  0  0  0  0  0  0  0  0
  1  3  1  0  0  0  0
  4  1  1  6  0  0  0
  4  6  1  0  0  0  0
  4 31  1  0  0  0  0
  6  7  1  0  0  0  0
  7  9  1  1  0  0  0
  7 30  1  0  0  0  0
  8 26  1  0  0  0  0
 10  9  1  6  0  0  0
 10 13  1  0  0  0  0
 10 21  1  0  0  0  0
 13 12  1  1  0  0  0
 13 15  1  0  0  0  0
 15  2  1  6  0  0  0
 15 17  1  0  0  0  0
 16 25  1  0  0  0  0
 16 23  1  0  0  0  0
 17 19  1  0  0  0  0
 19  5  1  6  0  0  0
 19 21  1  0  0  0  0
 21 14  1  1  0  0  0
 23 14  1  1  0  0  0
 23 29  1  0  0  0  0
 25 26  1  6  0  0  0
 25 27  1  0  0  0  0
 27 18  1  1  0  0  0
 27 28  1  0  0  0  0
 28 20  1  6  0  0  0
 28 29  1  0  0  0  0
 29 11  1  1  0  0  0
 30 22  1  6  0  0  0
 30 31  1  0  0  0  0
 31 24  1  1  0  0  0
M  END
>  <CHROM.1>
-53.69016761,-68.47157474,-76.66262923,62.57562656,56.90197872,64.70209215
19.04909229,4.22105450,15.97015662,-2.35242945,0.55477486,0.76788169

>  <Name>
ligand

>  <RI>
0

>  <Rbt.Current_Directory>
/home/itssahil/PROJECTS/Mol_Feturizer/New_Systems/rnas/3DVV

>  <Rbt.Executable>
rbdock ($Id: //depot/dev/client3/rdock/2013.1/src/exe/rbdock.cxx#4 $)

>  <Rbt.Library>
libRbt.so (2013.1, Build901 2013/11/27)

>  <Rbt.Parameter_File>
/export/apps/rDock/src/rDock_2013.1_src/data/scripts/dock_solv.prm

>  <Rbt.Receptor>
prm/pocket_docking_3.prm

>  <SCORE>
-8.91213

>  <SCORE.INTER>
-4.82231

>  <SCORE.INTER.CONST>
1

>  <SCORE.INTER.POLAR>
0

>  <SCORE.INTER.ROT>
6

>  <SCORE.INTER.SOLV>
16.7722

>  <SCORE.INTER.VDW>
-16.4056

>  <SCORE.INTER.norm>
-0.155558

>  <SCORE.INTRA>
-4.08982

>  <SCORE.INTRA.DIHEDRAL>
-8.61988

>  <SCORE.INTRA.DIHEDRAL.0>
10.8172

>  <SCORE.INTRA.POLAR>
0

>  <SCORE.INTRA.POLAR.0>
0

>  <SCORE.INTRA.REPUL>
0

>  <SCORE.INTRA.REPUL.0>
0

>  <SCORE.INTRA.SOLV>
-3.86829

>  <SCORE.INTRA.SOLV.lig_0>
-80.3833

>  <SCORE.INTRA.VDW>
2.15426

>  <SCORE.INTRA.VDW.0>
-4.63762

>  <SCORE.INTRA.norm>
-0.13193

>  <SCORE.RESTR>
0

>  <SCORE.RESTR.CAVITY>
0

>  <SCORE.RESTR.norm>
0

>  <SCORE.SYSTEM>
0

>  <SCORE.SYSTEM.CONST>
0

>  <SCORE.SYSTEM.DIHEDRAL>
0

>  <SCORE.SYSTEM.SOLV>
0

>  <SCORE.SYSTEM.norm>
0

>  <SCORE.heavy>
31

>  <SCORE.norm>
-0.287488

>  <RMSD>
5.298

$$$$
ligand
 OpenBabel11021811473D
libRbt.so/2013.1/901 2013/11/27
 31 33  0  0  0  0  0  0  0  0999 V2000
   22.7260    7.4892   16.2872 C   0  0  0  0  0  0  0  0  0  0  0  0
   17.4787    0.8207   13.0876 N   0  0  0  0  0  0  0  0  0  0  0  0
   23.2329    7.2109   14.9778 O   0  0  0  0  0  0  0  0  0  0  0  0
   22.1029    6.2280   16.8907 C   0  0  1  0  0  0  0  0  0  0  0  0
   17.3102    5.4844   11.6298 N   0  0  0  0  0  0  0  0  0  0  0  0
   21.0652    5.7245   16.0270 O   0  0  0  0  0  0  0  0  0  0  0  0
   21.3486    4.3468   15.7249 C   0  0  1  0  0  0  0  0  0  0  0  0
   19.2246    8.6381    9.3717 N   0  0  0  0  0  0  0  0  0  0  0  0
   20.9164    3.9929   14.4016 O   0  0  0  0  0  0  0  0  0  0  0  0
   19.4944    3.8413   14.2791 C   0  0  2  0  0  0  0  0  0  0  0  0
   19.5216    8.0555   15.8584 N   0  0  0  0  0  0  0  0  0  0  0  0
   19.6182    1.4859   14.8077 O   0  0  0  0  0  0  0  0  0  0  0  0
   19.2293    2.4126   13.7901 C   0  0  1  0  0  0  0  0  0  0  0  0
   18.9562    6.2089   13.8483 O   0  0  0  0  0  0  0  0  0  0  0  0
   17.7463    2.2156   13.4698 C   0  0  1  0  0  0  0  0  0  0  0  0
   20.6203    7.0925   12.4382 O   0  0  0  0  0  0  0  0  0  0  0  0
   17.3504    3.1566   12.3317 C   0  0  0  0  0  0  0  0  0  0  0  0
   18.5998   10.0130   11.5083 O   0  0  0  0  0  0  0  0  0  0  0  0
   17.5567    4.6055   12.7831 C   0  0  1  0  0  0  0  0  0  0  0  0
   19.1311   10.4773   14.2952 O   0  0  0  0  0  0  0  0  0  0  0  0
   18.9766    4.8827   13.2917 C   0  0  2  0  0  0  0  0  0  0  0  0
   23.3704    2.9589   15.9348 O   0  0  0  0  0  0  0  0  0  0  0  0
   20.2151    6.8988   13.8060 C   0  0  1  0  0  0  0  0  0  0  0  0
   22.9700    4.3138   18.1713 O   0  0  0  0  0  0  0  0  0  0  0  0
   19.6969    7.8663   11.6534 C   0  0  2  0  0  0  0  0  0  0  0  0
   20.2322    7.9881   10.2247 C   0  0  0  0  0  0  0  0  0  0  0  0
   19.5662    9.2673   12.2535 C   0  0  2  0  0  0  0  0  0  0  0  0
   19.1150    9.1700   13.7122 C   0  0  1  0  0  0  0  0  0  0  0  0
   20.0543    8.2546   14.5019 C   0  0  1  0  0  0  0  0  0  0  0  0
   22.8743    4.2887   15.7643 C   0  0  2  0  0  0  0  0  0  0  0  0
   23.1582    5.1247   17.0087 C   0  0  1  0  0  0  0  0  0  0  0  0
  1  3  1  0  0  0  0
  4  1  1  6  0  0  0
  4  6  1  0  0  0  0
  4 31  1  0  0  0  0
  6  7  1  0  0  0  0
  7  9  1  6  0  0  0
  7 30  1  0  0  0  0
  8 26  1  0  0  0  0
 10  9  1  6  0  0  0
 10 13  1  0  0  0  0
 10 21  1  0  0  0  0
 13 12  1  1  0  0  0
 13 15  1  0  0  0  0
 15  2  1  6  0  0  0
 15 17  1  0  0  0  0
 16 25  1  0  0  0  0
 16 23  1  0  0  0  0
 17 19  1  0  0  0  0
 19  5  1  6  0  0  0
 19 21  1  0  0  0  0
 21 14  1  1  0  0  0
 23 14  1  6  0  0  0
 23 29  1  0  0  0  0
 25 26  1  6  0  0  0
 25 27  1  0  0  0  0
 27 18  1  6  0  0  0
 27 28  1  0  0  0  0
 28 20  1  1  0  0  0
 28 29  1  0  0  0  0
 29 11  1  1  0  0  0
 30 22  1  1  0  0  0
 30 31  1  0  0  0  0
 31 24  1  1  0  0  0
M  END
>  <CHROM.1>
-56.99212317,-74.64447615,-121.43531724,62.84626579,82.36567856,173.29312554
20.14586901,5.83348925,14.02645285,-1.09853957,-0.79462358,-0.27212804

>  <Name>
ligand

>  <RI>
0

>  <Rbt.Current_Directory>
/home/itssahil/PROJECTS/Mol_Feturizer/New_Systems/rnas/3DVV

>  <Rbt.Executable>
rbdock ($Id: //depot/dev/client3/rdock/2013.1/src/exe/rbdock.cxx#4 $)

>  <Rbt.Library>
libRbt.so (2013.1, Build901 2013/11/27)

>  <Rbt.Parameter_File>
/export/apps/rDock/src/rDock_2013.1_src/data/scripts/dock_solv.prm

>  <Rbt.Receptor>
prm/blind_docking_100.prm

>  <SCORE>
-7.51352

>  <SCORE.INTER>
-8.92702

>  <SCORE.INTER.CONST>
1

>  <SCORE.INTER.POLAR>
0

>  <SCORE.INTER.ROT>
6

>  <SCORE.INTER.SOLV>
16.6025

>  <SCORE.INTER.VDW>
-19.0855

>  <SCORE.INTER.norm>
-0.287968

>  <SCORE.INTRA>
1.41071

>  <SCORE.INTRA.DIHEDRAL>
-0.0221232

>  <SCORE.INTRA.DIHEDRAL.0>
10.8172

>  <SCORE.INTRA.POLAR>
0

>  <SCORE.INTRA.POLAR.0>
0

>  <SCORE.INTRA.REPUL>
0

>  <SCORE.INTRA.REPUL.0>
0

>  <SCORE.INTRA.SOLV>
1.94295

>  <SCORE.INTRA.SOLV.lig_0>
-80.3833

>  <SCORE.INTRA.VDW>
0.450302

>  <SCORE.INTRA.VDW.0>
-4.63762

>  <SCORE.INTRA.norm>
0.0455069

>  <SCORE.RESTR>
0.00278973

>  <SCORE.RESTR.CAVITY>
0.00278973

>  <SCORE.RESTR.norm>
8.99913e-05

>  <SCORE.SYSTEM>
0

>  <SCORE.SYSTEM.CONST>
0

>  <SCORE.SYSTEM.DIHEDRAL>
0

>  <SCORE.SYSTEM.SOLV>
0

>  <SCORE.SYSTEM.norm>
0

>  <SCORE.heavy>
31

>  <SCORE.norm>
-0.242372

>  <RMSD>
5.299

$$$$
ligand
 OpenBabel11021811473D
libRbt.so/2013.1/901 2013/11/27
 31 33  0  0  0  0  0  0  0  0999 V2000
   20.5048    0.7981   13.5308 C   0  0  0  0  0  0  0  0  0  0  0  0
   14.8316    3.2660   19.3600 N   0  0  0  0  0  0  0  0  0  0  0  0
   20.7753    2.1740   13.2437 O   0  0  0  0  0  0  0  0  0  0  0  0
   19.0777    0.6407   14.0619 C   0  0  1  0  0  0  0  0  0  0  0  0
   18.4697    6.5320   19.3369 N   0  0  0  0  0  0  0  0  0  0  0  0
   18.8798    1.4858   15.2121 O   0  0  0  0  0  0  0  0  0  0  0  0
   17.7333    2.3218   14.9749 C   0  0  1  0  0  0  0  0  0  0  0  0
   18.2311    8.1417   14.7927 N   0  0  0  0  0  0  0  0  0  0  0  0
   17.8787    3.6109   15.5913 O   0  0  0  0  0  0  0  0  0  0  0  0
   17.8420    3.5735   17.0256 C   0  0  2  0  0  0  0  0  0  0  0  0
   22.3660    3.7497   17.0689 N   0  0  0  0  0  0  0  0  0  0  0  0
   15.9149    2.1144   17.0193 O   0  0  0  0  0  0  0  0  0  0  0  0
   16.3757    3.4015   17.4392 C   0  0  1  0  0  0  0  0  0  0  0  0
   19.8644    4.9244   17.4327 O   0  0  0  0  0  0  0  0  0  0  0  0
   16.2230    3.5206   18.9569 C   0  0  1  0  0  0  0  0  0  0  0  0
   19.8737    5.8389   15.2644 O   0  0  0  0  0  0  0  0  0  0  0  0
   16.6478    4.9226   19.3946 C   0  0  0  0  0  0  0  0  0  0  0  0
   22.2152    8.5202   16.1610 O   0  0  0  0  0  0  0  0  0  0  0  0
   18.1231    5.1335   19.0416 C   0  0  1  0  0  0  0  0  0  0  0  0
   23.8429    6.1615   16.3887 O   0  0  0  0  0  0  0  0  0  0  0  0
   18.4328    4.8737   17.5623 C   0  0  2  0  0  0  0  0  0  0  0  0
   16.4787    2.9217   12.9442 O   0  0  0  0  0  0  0  0  0  0  0  0
   20.3535    4.7631   16.0920 C   0  0  1  0  0  0  0  0  0  0  0  0
   16.8726    0.3070   13.0217 O   0  0  0  0  0  0  0  0  0  0  0  0
   20.2830    7.1464   15.7005 C   0  0  2  0  0  0  0  0  0  0  0  0
   19.7011    8.1967   14.7514 C   0  0  0  0  0  0  0  0  0  0  0  0
   21.8094    7.2412   15.6666 C   0  0  2  0  0  0  0  0  0  0  0  0
   22.4197    6.1439   16.5411 C   0  0  1  0  0  0  0  0  0  0  0  0
   21.8855    4.7707   16.1253 C   0  0  1  0  0  0  0  0  0  0  0  0
   17.7467    2.5088   13.4592 C   0  0  2  0  0  0  0  0  0  0  0  0
   18.0691    1.0897   13.0008 C   0  0  1  0  0  0  0  0  0  0  0  0
  1  3  1  0  0  0  0
  4  1  1  6  0  0  0
  4  6  1  0  0  0  0
  4 31  1  0  0  0  0
  6  7  1  0  0  0  0
  7  9  1  1  0  0  0
  7 30  1  0  0  0  0
  8 26  1  0  0  0  0
 10  9  1  6  0  0  0
 10 13  1  0  0  0  0
 10 21  1  0  0  0  0
 13 12  1  1  0  0  0
 13 15  1  0  0  0  0
 15  2  1  6  0  0  0
 15 17  1  0  0  0  0
 16 25  1  0  0  0  0
 16 23  1  0  0  0  0
 17 19  1  0  0  0  0
 19  5  1  6  0  0  0
 19 21  1  0  0  0  0
 21 14  1  1  0  0  0
 23 14  1  1  0  0  0
 23 29  1  0  0  0  0
 25 26  1  6  0  0  0
 25 27  1  0  0  0  0
 27 18  1  1  0  0  0
 27 28  1  0  0  0  0
 28 20  1  6  0  0  0
 28 29  1  0  0  0  0
 29 11  1  1  0  0  0
 30 22  1  6  0  0  0
 30 31  1  0  0  0  0
 31 24  1  1  0  0  0
M  END
>  <CHROM.1>
-55.70549958,-68.71768988,-76.68106419,62.39313558,57.29300197,61.81216609
19.03388840,4.20488377,15.96650955,-2.35225195,0.55515711,0.77245279

>  <Name>
ligand

>  <RI>
0

>  <Rbt.Current_Directory>
/home/itssahil/PROJECTS/Mol_Feturizer/New_Systems/rnas/3DVV

>  <Rbt.Executable>
rbdock ($Id: //depot/dev/client3/rdock/2013.1/src/exe/rbdock.cxx#4 $)

>  <Rbt.Library>
libRbt.so (2013.1, Build901 2013/11/27)

>  <Rbt.Parameter_File>
/export/apps/rDock/src/rDock_2013.1_src/data/scripts/dock_solv.prm

>  <Rbt.Receptor>
prm/pocket_docking_3.prm

>  <SCORE>
-8.98095

>  <SCORE.INTER>
-4.88303

>  <SCORE.INTER.CONST>
1

>  <SCORE.INTER.POLAR>
0

>  <SCORE.INTER.ROT>
6

>  <SCORE.INTER.SOLV>
16.7453

>  <SCORE.INTER.VDW>
-16.4371

>  <SCORE.INTER.norm>
-0.157517

>  <SCORE.INTRA>
-4.09792

>  <SCORE.INTRA.DIHEDRAL>
-8.7589

>  <SCORE.INTRA.DIHEDRAL.0>
10.8172

>  <SCORE.INTRA.POLAR>
0

>  <SCORE.INTRA.POLAR.0>
0

>  <SCORE.INTRA.REPUL>
0

>  <SCORE.INTRA.REPUL.0>
0

>  <SCORE.INTRA.SOLV>
-3.85354

>  <SCORE.INTRA.SOLV.lig_0>
-80.3833

>  <SCORE.INTRA.VDW>
2.20829

>  <SCORE.INTRA.VDW.0>
-4.63762

>  <SCORE.INTRA.norm>
-0.132191

>  <SCORE.RESTR>
0

>  <SCORE.RESTR.CAVITY>
0

>  <SCORE.RESTR.norm>
0

>  <SCORE.SYSTEM>
0

>  <SCORE.SYSTEM.CONST>
0

>  <SCORE.SYSTEM.DIHEDRAL>
0

>  <SCORE.SYSTEM.SOLV>
0

>  <SCORE.SYSTEM.norm>
0

>  <SCORE.heavy>
31

>  <SCORE.norm>
-0.289708

>  <RMSD>
5.300

$$$$
ligand
 OpenBabel11021811473D
libRbt.so/2013.1/901 2013/11/27
 31 33  0  0  0  0  0  0  0  0999 V2000
   16.4955    2.9198    8.1217 C   0  0  0  0  0  0  0  0  0  0  0  0
   20.0117   -0.7832   12.3798 N   0  0  0  0  0  0  0  0  0  0  0  0
   17.0609    1.7429    7.5353 O   0  0  0  0  0  0  0  0  0  0  0  0
   16.3633    2.7431    9.6365 C   0  0  1  0  0  0  0  0  0  0  0  0
   19.5716    2.5277   15.9503 N   0  0  0  0  0  0  0  0  0  0  0  0
   17.6610    2.5356   10.2274 O   0  0  0  0  0  0  0  0  0  0  0  0
   17.8521    3.5106   11.2679 C   0  0  1  0  0  0  0  0  0  0  0  0
   22.9659    4.3421   18.3532 N   0  0  0  0  0  0  0  0  0  0  0  0
   19.2283    3.9065   11.3794 O   0  0  0  0  0  0  0  0  0  0  0  0
   20.0157    3.0347   12.2039 C   0  0  2  0  0  0  0  0  0  0  0  0
   19.0686    7.0084   14.6550 N   0  0  0  0  0  0  0  0  0  0  0  0
   20.0546    1.3228   10.4979 O   0  0  0  0  0  0  0  0  0  0  0  0
   19.6354    1.5953   11.8378 C   0  0  1  0  0  0  0  0  0  0  0  0
   20.3151    4.5765   14.1050 O   0  0  0  0  0  0  0  0  0  0  0  0
   20.3046    0.5995   12.7872 C   0  0  1  0  0  0  0  0  0  0  0  0
   21.0897    4.3655   16.3171 O   0  0  0  0  0  0  0  0  0  0  0  0
   19.7993    0.8458   14.2089 C   0  0  0  0  0  0  0  0  0  0  0  0
   23.7739    6.8261   15.8513 O   0  0  0  0  0  0  0  0  0  0  0  0
   20.1906    2.2615   14.6429 C   0  0  1  0  0  0  0  0  0  0  0  0
   21.4015    8.4365   15.6443 O   0  0  0  0  0  0  0  0  0  0  0  0
   19.7150    3.3448   13.6672 C   0  0  2  0  0  0  0  0  0  0  0  0
   16.7192    5.6240   11.8231 O   0  0  0  0  0  0  0  0  0  0  0  0
   20.0591    4.9167   15.4766 C   0  0  1  0  0  0  0  0  0  0  0  0
   14.9271    3.7308   11.3736 O   0  0  0  0  0  0  0  0  0  0  0  0
   22.4136    4.8371   16.0133 C   0  0  2  0  0  0  0  0  0  0  0  0
   23.4133    4.1710   16.9617 C   0  0  0  0  0  0  0  0  0  0  0  0
   22.4746    6.3522   16.2152 C   0  0  2  0  0  0  0  0  0  0  0  0
   21.4228    7.0377   15.3407 C   0  0  1  0  0  0  0  0  0  0  0  0
   20.0373    6.4433   15.6068 C   0  0  1  0  0  0  0  0  0  0  0  0
   17.0451    4.7094   10.7738 C   0  0  2  0  0  0  0  0  0  0  0  0
   15.7856    4.0140   10.2658 C   0  0  1  0  0  0  0  0  0  0  0  0
  1  3  1  0  0  0  0
  4  1  1  6  0  0  0
  4  6  1  0  0  0  0
  4 31  1  0  0  0  0
  6  7  1  0  0  0  0
  7  9  1  6  0  0  0
  7 30  1  0  0  0  0
  8 26  1  0  0  0  0
 10  9  1  6  0  0  0
 10 13  1  0  0  0  0
 10 21  1  0  0  0  0
 13 12  1  6  0  0  0
 13 15  1  0  0  0  0
 15  2  1  6  0  0  0
 15 17  1  0  0  0  0
 16 25  1  0  0  0  0
 16 23  1  0  0  0  0
 17 19  1  0  0  0  0
 19  5  1  1  0  0  0
 19 21  1  0  0  0  0
 21 14  1  1  0  0  0
 23 14  1  6  0  0  0
 23 29  1  0  0  0  0
 25 26  1  1  0  0  0
 25 27  1  0  0  0  0
 27 18  1  6  0  0  0
 27 28  1  0  0  0  0
 28 20  1  1  0  0  0
 28 29  1  0  0  0  0
 29 11  1  6  0  0  0
 30 22  1  1  0  0  0
 30 31  1  0  0  0  0
 31 24  1  1  0  0  0
M  END
>  <CHROM.1>
61.17226727,-85.11562227,43.44008940,90.42850807,179.84882117,-51.65024925
19.56226273,3.87187320,13.22618182,2.52473158,0.79961367,-2.79915017

>  <Name>
ligand

>  <RI>
0

>  <Rbt.Current_Directory>
/home/itssahil/PROJECTS/Mol_Feturizer/New_Systems/rnas/3DVV

>  <Rbt.Executable>
rbdock ($Id: //depot/dev/client3/rdock/2013.1/src/exe/rbdock.cxx#4 $)

>  <Rbt.Library>
libRbt.so (2013.1, Build901 2013/11/27)

>  <Rbt.Parameter_File>
/export/apps/rDock/src/rDock_2013.1_src/data/scripts/dock_solv.prm

>  <Rbt.Receptor>
prm/blind_docking_100.prm

>  <SCORE>
-0.235547

>  <SCORE.INTER>
-8.49154

>  <SCORE.INTER.CONST>
1

>  <SCORE.INTER.POLAR>
0

>  <SCORE.INTER.ROT>
6

>  <SCORE.INTER.SOLV>
25.0639

>  <SCORE.INTER.VDW>
-21.6156

>  <SCORE.INTER.norm>
-0.273921

>  <SCORE.INTRA>
8.25599

>  <SCORE.INTRA.DIHEDRAL>
-2.76753

>  <SCORE.INTRA.DIHEDRAL.0>
10.8172

>  <SCORE.INTRA.POLAR>
0

>  <SCORE.INTRA.POLAR.0>
0

>  <SCORE.INTRA.REPUL>
0.090762

>  <SCORE.INTRA.REPUL.0>
0

>  <SCORE.INTRA.SOLV>
0.0962558

>  <SCORE.INTRA.SOLV.lig_0>
-80.3833

>  <SCORE.INTRA.VDW>
9.13782

>  <SCORE.INTRA.VDW.0>
-4.63762

>  <SCORE.INTRA.norm>
0.266322

>  <SCORE.RESTR>
0

>  <SCORE.RESTR.CAVITY>
0

>  <SCORE.RESTR.norm>
0

>  <SCORE.SYSTEM>
0

>  <SCORE.SYSTEM.CONST>
0

>  <SCORE.SYSTEM.DIHEDRAL>
0

>  <SCORE.SYSTEM.SOLV>
0

>  <SCORE.SYSTEM.norm>
0

>  <SCORE.heavy>
31

>  <SCORE.norm>
-0.00759828

>  <RMSD>
5.309

$$$$
ligand
 OpenBabel11021811473D
libRbt.so/2013.1/901 2013/11/27
 31 33  0  0  0  0  0  0  0  0999 V2000
   20.4993    0.5387   13.5288 C   0  0  0  0  0  0  0  0  0  0  0  0
   14.8413    3.2291   18.9884 N   0  0  0  0  0  0  0  0  0  0  0  0
   20.9936    1.8724   13.3683 O   0  0  0  0  0  0  0  0  0  0  0  0
   19.0044    0.5662   13.8574 C   0  0  1  0  0  0  0  0  0  0  0  0
   18.5786    6.3731   19.2148 N   0  0  0  0  0  0  0  0  0  0  0  0
   18.7630    1.4065   15.0027 O   0  0  0  0  0  0  0  0  0  0  0  0
   17.7806    2.3955   14.6468 C   0  0  1  0  0  0  0  0  0  0  0  0
   18.2478    8.0549   14.7369 N   0  0  0  0  0  0  0  0  0  0  0  0
   18.0085    3.6400   15.3268 O   0  0  0  0  0  0  0  0  0  0  0  0
   17.9280    3.5408   16.7563 C   0  0  2  0  0  0  0  0  0  0  0  0
   22.5395    3.7588   16.9424 N   0  0  0  0  0  0  0  0  0  0  0  0
   15.9573    2.1468   16.6301 O   0  0  0  0  0  0  0  0  0  0  0  0
   16.4454    3.3986   17.1201 C   0  0  1  0  0  0  0  0  0  0  0  0
   19.9785    4.8062   17.2808 O   0  0  0  0  0  0  0  0  0  0  0  0
   16.2513    3.4559   18.6366 C   0  0  1  0  0  0  0  0  0  0  0  0
   19.9889    5.7747   15.1360 O   0  0  0  0  0  0  0  0  0  0  0  0
   16.7065    4.8227   19.1486 C   0  0  0  0  0  0  0  0  0  0  0  0
   22.1829    8.5385   16.1478 O   0  0  0  0  0  0  0  0  0  0  0  0
   18.1975    5.0009   18.8474 C   0  0  1  0  0  0  0  0  0  0  0  0
   23.9149    6.2531   16.3530 O   0  0  0  0  0  0  0  0  0  0  0  0
   18.5428    4.7964   17.3673 C   0  0  2  0  0  0  0  0  0  0  0  0
   16.9088    3.2023   12.4911 O   0  0  0  0  0  0  0  0  0  0  0  0
   20.5019    4.7018   15.9474 C   0  0  1  0  0  0  0  0  0  0  0  0
   16.9395    0.5573   12.5188 O   0  0  0  0  0  0  0  0  0  0  0  0
   20.3273    7.0883   15.6125 C   0  0  2  0  0  0  0  0  0  0  0  0
   19.7160    8.1341   14.6769 C   0  0  0  0  0  0  0  0  0  0  0  0
   21.8480    7.2549   15.6138 C   0  0  2  0  0  0  0  0  0  0  0  0
   22.4912    6.1654   16.4743 C   0  0  1  0  0  0  0  0  0  0  0  0
   22.0308    4.7798   16.0138 C   0  0  1  0  0  0  0  0  0  0  0  0
   18.0278    2.6101   13.1550 C   0  0  2  0  0  0  0  0  0  0  0  0
   18.2201    1.1700   12.6889 C   0  0  1  0  0  0  0  0  0  0  0  0
  1  3  1  0  0  0  0
  4  1  1  6  0  0  0
  4  6  1  0  0  0  0
  4 31  1  0  0  0  0
  6  7  1  0  0  0  0
  7  9  1  1  0  0  0
  7 30  1  0  0  0  0
  8 26  1  0  0  0  0
 10  9  1  6  0  0  0
 10 13  1  0  0  0  0
 10 21  1  0  0  0  0
 13 12  1  1  0  0  0
 13 15  1  0  0  0  0
 15  2  1  6  0  0  0
 15 17  1  0  0  0  0
 16 25  1  0  0  0  0
 16 23  1  0  0  0  0
 17 19  1  0  0  0  0
 19  5  1  6  0  0  0
 19 21  1  0  0  0  0
 21 14  1  1  0  0  0
 23 14  1  1  0  0  0
 23 29  1  0  0  0  0
 25 26  1  6  0  0  0
 25 27  1  0  0  0  0
 27 18  1  1  0  0  0
 27 28  1  0  0  0  0
 28 20  1  6  0  0  0
 28 29  1  0  0  0  0
 29 11  1  1  0  0  0
 30 22  1  6  0  0  0
 30 31  1  0  0  0  0
 31 24  1  1  0  0  0
M  END
>  <CHROM.1>
-54.22673983,-61.57623484,-73.98815679,57.50513815,57.89729709,64.65188348
19.11980309,4.18174962,15.77517236,-2.30576781,0.52702473,0.78270124

>  <Name>
ligand

>  <RI>
0

>  <Rbt.Current_Directory>
/home/itssahil/PROJECTS/Mol_Feturizer/New_Systems/rnas/3DVV

>  <Rbt.Executable>
rbdock ($Id: //depot/dev/client3/rdock/2013.1/src/exe/rbdock.cxx#4 $)

>  <Rbt.Library>
libRbt.so (2013.1, Build901 2013/11/27)

>  <Rbt.Parameter_File>
/export/apps/rDock/src/rDock_2013.1_src/data/scripts/dock_solv.prm

>  <Rbt.Receptor>
prm/pocket_docking_6.prm

>  <SCORE>
-8.86229

>  <SCORE.INTER>
-4.68683

>  <SCORE.INTER.CONST>
1

>  <SCORE.INTER.POLAR>
0

>  <SCORE.INTER.ROT>
6

>  <SCORE.INTER.SOLV>
16.0448

>  <SCORE.INTER.VDW>
-16.0728

>  <SCORE.INTER.norm>
-0.151188

>  <SCORE.INTRA>
-4.17546

>  <SCORE.INTRA.DIHEDRAL>
-9.35481

>  <SCORE.INTRA.DIHEDRAL.0>
10.8172

>  <SCORE.INTRA.POLAR>
0

>  <SCORE.INTRA.POLAR.0>
0

>  <SCORE.INTRA.REPUL>
0

>  <SCORE.INTRA.REPUL.0>
0

>  <SCORE.INTRA.SOLV>
-3.76839

>  <SCORE.INTRA.SOLV.lig_0>
-80.3833

>  <SCORE.INTRA.VDW>
2.38614

>  <SCORE.INTRA.VDW.0>
-4.63762

>  <SCORE.INTRA.norm>
-0.134692

>  <SCORE.RESTR>
0

>  <SCORE.RESTR.CAVITY>
0

>  <SCORE.RESTR.norm>
0

>  <SCORE.SYSTEM>
0

>  <SCORE.SYSTEM.CONST>
0

>  <SCORE.SYSTEM.DIHEDRAL>
0

>  <SCORE.SYSTEM.SOLV>
0

>  <SCORE.SYSTEM.norm>
0

>  <SCORE.heavy>
31

>  <SCORE.norm>
-0.28588

>  <RMSD>
5.316

$$$$
ligand
 OpenBabel11021811473D
libRbt.so/2013.1/901 2013/11/27
 31 33  0  0  0  0  0  0  0  0999 V2000
   23.9835    7.1202   15.6857 C   0  0  0  0  0  0  0  0  0  0  0  0
   20.2120    0.2405   12.5336 N   0  0  0  0  0  0  0  0  0  0  0  0
   23.2756    8.2593   15.1854 O   0  0  0  0  0  0  0  0  0  0  0  0
   23.1149    6.3586   16.6901 C   0  0  1  0  0  0  0  0  0  0  0  0
   16.5482    1.9147   15.3044 N   0  0  0  0  0  0  0  0  0  0  0  0
   21.7945    6.1543   16.1502 O   0  0  0  0  0  0  0  0  0  0  0  0
   21.4931    4.7482   16.1961 C   0  0  1  0  0  0  0  0  0  0  0  0
   17.1904    2.6581   21.0988 N   0  0  0  0  0  0  0  0  0  0  0  0
   20.6662    4.3456   15.0929 O   0  0  0  0  0  0  0  0  0  0  0  0
   20.1970    2.9923   15.1858 C   0  0  2  0  0  0  0  0  0  0  0  0
   17.5633    5.5597   15.3674 N   0  0  0  0  0  0  0  0  0  0  0  0
   21.8962    2.2120   13.6540 O   0  0  0  0  0  0  0  0  0  0  0  0
   20.4820    2.3181   13.8387 C   0  0  1  0  0  0  0  0  0  0  0  0
   18.4363    3.3791   16.8684 O   0  0  0  0  0  0  0  0  0  0  0  0
   19.8616    0.9204   13.7900 C   0  0  1  0  0  0  0  0  0  0  0  0
   16.7655    3.7082   18.4927 O   0  0  0  0  0  0  0  0  0  0  0  0
   18.3427    1.0420   13.9147 C   0  0  0  0  0  0  0  0  0  0  0  0
   18.5028    6.5536   20.0293 O   0  0  0  0  0  0  0  0  0  0  0  0
   17.9987    1.6741   15.2667 C   0  0  1  0  0  0  0  0  0  0  0  0
   17.7721    7.5831   17.4465 O   0  0  0  0  0  0  0  0  0  0  0  0
   18.7048    3.0147   15.5032 C   0  0  2  0  0  0  0  0  0  0  0  0
   22.8824    2.7375   16.4875 O   0  0  0  0  0  0  0  0  0  0  0  0
   17.1137    3.8857   17.1072 C   0  0  1  0  0  0  0  0  0  0  0  0
   23.5236    4.5484   18.3062 O   0  0  0  0  0  0  0  0  0  0  0  0
   17.6404    4.3838   19.4121 C   0  0  2  0  0  0  0  0  0  0  0  0
   17.1741    4.1073   20.8434 C   0  0  0  0  0  0  0  0  0  0  0  0
   17.5843    5.8909   19.1563 C   0  0  2  0  0  0  0  0  0  0  0  0
   17.9628    6.1879   17.7038 C   0  0  1  0  0  0  0  0  0  0  0  0
   17.0872    5.3748   16.7468 C   0  0  1  0  0  0  0  0  0  0  0  0
   22.8633    4.0933   16.0346 C   0  0  2  0  0  0  0  0  0  0  0  0
   23.7080    4.9715   16.9529 C   0  0  1  0  0  0  0  0  0  0  0  0
  1  3  1  0  0  0  0
  4  1  1  6  0  0  0
  4  6  1  0  0  0  0
  4 31  1  0  0  0  0
  6  7  1  0  0  0  0
  7  9  1  6  0  0  0
  7 30  1  0  0  0  0
  8 26  1  0  0  0  0
 10  9  1  6  0  0  0
 10 13  1  0  0  0  0
 10 21  1  0  0  0  0
 13 12  1  1  0  0  0
 13 15  1  0  0  0  0
 15  2  1  6  0  0  0
 15 17  1  0  0  0  0
 16 25  1  0  0  0  0
 16 23  1  0  0  0  0
 17 19  1  0  0  0  0
 19  5  1  6  0  0  0
 19 21  1  0  0  0  0
 21 14  1  1  0  0  0
 23 14  1  1  0  0  0
 23 29  1  0  0  0  0
 25 26  1  1  0  0  0
 25 27  1  0  0  0  0
 27 18  1  1  0  0  0
 27 28  1  0  0  0  0
 28 20  1  6  0  0  0
 28 29  1  0  0  0  0
 29 11  1  6  0  0  0
 30 22  1  1  0  0  0
 30 31  1  0  0  0  0
 31 24  1  1  0  0  0
M  END
>  <CHROM.1>
47.97101732,-172.43773045,-130.83843386,156.83989776,158.39229362,59.20834535
19.79072741,4.19816136,16.53284333,-0.42205721,0.43128297,0.76141755

>  <Name>
ligand

>  <RI>
0

>  <Rbt.Current_Directory>
/home/itssahil/PROJECTS/Mol_Feturizer/New_Systems/rnas/3DVV

>  <Rbt.Executable>
rbdock ($Id: //depot/dev/client3/rdock/2013.1/src/exe/rbdock.cxx#4 $)

>  <Rbt.Library>
libRbt.so (2013.1, Build901 2013/11/27)

>  <Rbt.Parameter_File>
/export/apps/rDock/src/rDock_2013.1_src/data/scripts/dock_solv.prm

>  <Rbt.Receptor>
prm/pocket_docking_3.prm

>  <SCORE>
-4.944

>  <SCORE.INTER>
-7.78753

>  <SCORE.INTER.CONST>
1

>  <SCORE.INTER.POLAR>
0

>  <SCORE.INTER.ROT>
6

>  <SCORE.INTER.SOLV>
22.0274

>  <SCORE.INTER.VDW>
-20.1341

>  <SCORE.INTER.norm>
-0.251211

>  <SCORE.INTRA>
2.84353

>  <SCORE.INTRA.DIHEDRAL>
1.20126

>  <SCORE.INTRA.DIHEDRAL.0>
10.8172

>  <SCORE.INTRA.POLAR>
0

>  <SCORE.INTRA.POLAR.0>
0

>  <SCORE.INTRA.REPUL>
0

>  <SCORE.INTRA.REPUL.0>
0

>  <SCORE.INTRA.SOLV>
0.0946911

>  <SCORE.INTRA.SOLV.lig_0>
-80.3833

>  <SCORE.INTRA.VDW>
2.19555

>  <SCORE.INTRA.VDW.0>
-4.63762

>  <SCORE.INTRA.norm>
0.0917268

>  <SCORE.RESTR>
0

>  <SCORE.RESTR.CAVITY>
0

>  <SCORE.RESTR.norm>
0

>  <SCORE.SYSTEM>
0

>  <SCORE.SYSTEM.CONST>
0

>  <SCORE.SYSTEM.DIHEDRAL>
0

>  <SCORE.SYSTEM.SOLV>
0

>  <SCORE.SYSTEM.norm>
0

>  <SCORE.heavy>
31

>  <SCORE.norm>
-0.159484

>  <RMSD>
5.317

$$$$
ligand
 OpenBabel11021811473D
libRbt.so/2013.1/901 2013/11/27
 31 33  0  0  0  0  0  0  0  0999 V2000
   13.2731    4.3477   11.7579 C   0  0  0  0  0  0  0  0  0  0  0  0
   19.3715   -0.7164    9.5999 N   0  0  0  0  0  0  0  0  0  0  0  0
   14.2218    5.3660   12.0925 O   0  0  0  0  0  0  0  0  0  0  0  0
   13.9991    3.0558   11.3744 C   0  0  1  0  0  0  0  0  0  0  0  0
   20.5802    1.8001   13.6136 N   0  0  0  0  0  0  0  0  0  0  0  0
   15.0416    3.3365   10.4201 O   0  0  0  0  0  0  0  0  0  0  0  0
   16.2819    2.8151   10.9296 C   0  0  1  0  0  0  0  0  0  0  0  0
   19.3935    6.2131   16.9372 N   0  0  0  0  0  0  0  0  0  0  0  0
   17.4008    3.6250   10.5358 O   0  0  0  0  0  0  0  0  0  0  0  0
   18.6510    2.9201   10.5293 C   0  0  2  0  0  0  0  0  0  0  0  0
   18.9191    6.4967   10.9647 N   0  0  0  0  0  0  0  0  0  0  0  0
   17.9586    1.5443    8.6663 O   0  0  0  0  0  0  0  0  0  0  0  0
   18.3683    1.4963   10.0358 C   0  0  1  0  0  0  0  0  0  0  0  0
   19.7539    4.2081   12.3197 O   0  0  0  0  0  0  0  0  0  0  0  0
   19.6182    0.6223   10.1570 C   0  0  1  0  0  0  0  0  0  0  0  0
   19.0345    5.0586   14.3927 O   0  0  0  0  0  0  0  0  0  0  0  0
   20.0120    0.5131   11.6303 C   0  0  0  0  0  0  0  0  0  0  0  0
   21.8995    7.3319   14.7096 O   0  0  0  0  0  0  0  0  0  0  0  0
   20.3470    1.9084   12.1655 C   0  0  1  0  0  0  0  0  0  0  0  0
   20.4590    8.4419   12.4831 O   0  0  0  0  0  0  0  0  0  0  0  0
   19.2211    2.9258   11.9445 C   0  0  2  0  0  0  0  0  0  0  0  0
   17.0085    2.0822   13.1641 O   0  0  0  0  0  0  0  0  0  0  0  0
   18.8177    5.0820   12.9698 C   0  0  1  0  0  0  0  0  0  0  0  0
   14.6570    1.0173   12.5857 O   0  0  0  0  0  0  0  0  0  0  0  0
   20.3474    5.4834   14.7965 C   0  0  2  0  0  0  0  0  0  0  0  0
   20.4547    5.4009   16.3210 C   0  0  0  0  0  0  0  0  0  0  0  0
   20.5705    6.9335   14.3630 C   0  0  2  0  0  0  0  0  0  0  0  0
   20.3827    7.0603   12.8498 C   0  0  1  0  0  0  0  0  0  0  0  0
   19.0194    6.5028   12.4323 C   0  0  1  0  0  0  0  0  0  0  0  0
   16.1127    2.9314   12.4430 C   0  0  2  0  0  0  0  0  0  0  0  0
   14.6751    2.4468   12.6061 C   0  0  1  0  0  0  0  0  0  0  0  0
  1  3  1  0  0  0  0
  4  1  1  1  0  0  0
  4  6  1  0  0  0  0
  4 31  1  0  0  0  0
  6  7  1  0  0  0  0
  7  9  1  6  0  0  0
  7 30  1  0  0  0  0
  8 26  1  0  0  0  0
 10  9  1  1  0  0  0
 10 13  1  0  0  0  0
 10 21  1  0  0  0  0
 13 12  1  6  0  0  0
 13 15  1  0  0  0  0
 15  2  1  1  0  0  0
 15 17  1  0  0  0  0
 16 25  1  0  0  0  0
 16 23  1  0  0  0  0
 17 19  1  0  0  0  0
 19  5  1  1  0  0  0
 19 21  1  0  0  0  0
 21 14  1  6  0  0  0
 23 14  1  6  0  0  0
 23 29  1  0  0  0  0
 25 26  1  1  0  0  0
 25 27  1  0  0  0  0
 27 18  1  6  0  0  0
 27 28  1  0  0  0  0
 28 20  1  1  0  0  0
 28 29  1  0  0  0  0
 29 11  1  6  0  0  0
 30 22  1  1  0  0  0
 30 31  1  0  0  0  0
 31 24  1  6  0  0  0
M  END
>  <CHROM.1>
-48.65961309,-156.24557042,36.92635408,100.58940920,91.21057647,-56.71764483
18.22821605,3.83472260,12.31420751,2.19560680,0.13059558,-2.59183820

>  <Name>
ligand

>  <RI>
0

>  <Rbt.Current_Directory>
/home/itssahil/PROJECTS/Mol_Feturizer/New_Systems/rnas/3DVV

>  <Rbt.Executable>
rbdock ($Id: //depot/dev/client3/rdock/2013.1/src/exe/rbdock.cxx#4 $)

>  <Rbt.Library>
libRbt.so (2013.1, Build901 2013/11/27)

>  <Rbt.Parameter_File>
/export/apps/rDock/src/rDock_2013.1_src/data/scripts/dock_solv.prm

>  <Rbt.Receptor>
prm/blind_docking_60.prm

>  <SCORE>
2.32526

>  <SCORE.INTER>
-4.43675

>  <SCORE.INTER.CONST>
1

>  <SCORE.INTER.POLAR>
0

>  <SCORE.INTER.ROT>
6

>  <SCORE.INTER.SOLV>
16.3577

>  <SCORE.INTER.VDW>
-16.0104

>  <SCORE.INTER.norm>
-0.143121

>  <SCORE.INTRA>
6.43452

>  <SCORE.INTRA.DIHEDRAL>
3.83036

>  <SCORE.INTRA.DIHEDRAL.0>
10.8172

>  <SCORE.INTRA.POLAR>
0

>  <SCORE.INTRA.POLAR.0>
0

>  <SCORE.INTRA.REPUL>
0

>  <SCORE.INTRA.REPUL.0>
0

>  <SCORE.INTRA.SOLV>
0.850978

>  <SCORE.INTRA.SOLV.lig_0>
-80.3833

>  <SCORE.INTRA.VDW>
4.09384

>  <SCORE.INTRA.VDW.0>
-4.63762

>  <SCORE.INTRA.norm>
0.207565

>  <SCORE.RESTR>
0.327495

>  <SCORE.RESTR.CAVITY>
0.327495

>  <SCORE.RESTR.norm>
0.0105644

>  <SCORE.SYSTEM>
0

>  <SCORE.SYSTEM.CONST>
0

>  <SCORE.SYSTEM.DIHEDRAL>
0

>  <SCORE.SYSTEM.SOLV>
0

>  <SCORE.SYSTEM.norm>
0

>  <SCORE.heavy>
31

>  <SCORE.norm>
0.0750083

>  <RMSD>
5.338

$$$$
ligand
 OpenBabel11021811473D
libRbt.so/2013.1/901 2013/11/27
 31 33  0  0  0  0  0  0  0  0999 V2000
   23.2367    7.5843   15.9392 C   0  0  0  0  0  0  0  0  0  0  0  0
   20.1424    0.1061   12.5243 N   0  0  0  0  0  0  0  0  0  0  0  0
   23.1915    7.2022   14.5606 O   0  0  0  0  0  0  0  0  0  0  0  0
   22.5998    6.4976   16.8091 C   0  0  1  0  0  0  0  0  0  0  0  0
   16.2730    2.1364   14.7172 N   0  0  0  0  0  0  0  0  0  0  0  0
   21.3217    6.1125   16.2663 O   0  0  0  0  0  0  0  0  0  0  0  0
   21.3183    4.6875   16.0683 C   0  0  1  0  0  0  0  0  0  0  0  0
   15.5176    3.0875   20.1001 N   0  0  0  0  0  0  0  0  0  0  0  0
   20.5318    4.3112   14.9269 O   0  0  0  0  0  0  0  0  0  0  0  0
   19.9691    2.9943   15.0213 C   0  0  2  0  0  0  0  0  0  0  0  0
   18.3769    6.0072   15.1275 N   0  0  0  0  0  0  0  0  0  0  0  0
   21.7945    2.0354   13.7600 O   0  0  0  0  0  0  0  0  0  0  0  0
   20.3780    2.2326   13.7552 C   0  0  1  0  0  0  0  0  0  0  0  0
   18.0385    3.5726   16.4423 O   0  0  0  0  0  0  0  0  0  0  0  0
   19.6805    0.8723   13.6917 C   0  0  1  0  0  0  0  0  0  0  0  0
   16.1889    4.3769   17.6549 O   0  0  0  0  0  0  0  0  0  0  0  0
   18.1689    1.0877   13.6133 C   0  0  0  0  0  0  0  0  0  0  0  0
   18.2681    6.3190   19.9747 O   0  0  0  0  0  0  0  0  0  0  0  0
   17.6983    1.8110   14.8785 C   0  0  1  0  0  0  0  0  0  0  0  0
   18.6558    7.6946   17.4803 O   0  0  0  0  0  0  0  0  0  0  0  0
   18.4533    3.1196   15.1417 C   0  0  2  0  0  0  0  0  0  0  0  0
   23.1046    2.9969   15.9736 O   0  0  0  0  0  0  0  0  0  0  0  0
   16.9433    4.5017   16.4351 C   0  0  1  0  0  0  0  0  0  0  0  0
   23.4602    4.5684   18.0716 O   0  0  0  0  0  0  0  0  0  0  0  0
   16.9478    4.6399   18.8474 C   0  0  2  0  0  0  0  0  0  0  0  0
   16.0418    4.4622   20.0680 C   0  0  0  0  0  0  0  0  0  0  0  0
   17.4612    6.0807   18.8183 C   0  0  2  0  0  0  0  0  0  0  0  0
   18.3004    6.3101   17.5597 C   0  0  1  0  0  0  0  0  0  0  0  0
   17.5062    5.9214   16.3100 C   0  0  1  0  0  0  0  0  0  0  0  0
   22.7827    4.3745   15.7680 C   0  0  2  0  0  0  0  0  0  0  0  0
   23.4786    5.2435   16.8113 C   0  0  1  0  0  0  0  0  0  0  0  0
  1  3  1  0  0  0  0
  4  1  1  6  0  0  0
  4  6  1  0  0  0  0
  4 31  1  0  0  0  0
  6  7  1  0  0  0  0
  7  9  1  6  0  0  0
  7 30  1  0  0  0  0
  8 26  1  0  0  0  0
 10  9  1  6  0  0  0
 10 13  1  0  0  0  0
 10 21  1  0  0  0  0
 13 12  1  1  0  0  0
 13 15  1  0  0  0  0
 15  2  1  6  0  0  0
 15 17  1  0  0  0  0
 16 25  1  0  0  0  0
 16 23  1  0  0  0  0
 17 19  1  0  0  0  0
 19  5  1  6  0  0  0
 19 21  1  0  0  0  0
 21 14  1  1  0  0  0
 23 14  1  1  0  0  0
 23 29  1  0  0  0  0
 25 26  1  1  0  0  0
 25 27  1  0  0  0  0
 27 18  1  1  0  0  0
 27 28  1  0  0  0  0
 28 20  1  6  0  0  0
 28 29  1  0  0  0  0
 29 11  1  6  0  0  0
 30 22  1  1  0  0  0
 30 31  1  0  0  0  0
 31 24  1  1  0  0  0
M  END
>  <CHROM.1>
-48.75718952,-152.12564883,-126.57265435,151.10951525,140.77341921,59.52451131
19.58435069,4.31886128,16.24525527,-0.40975886,0.35454116,0.72360451

>  <Name>
ligand

>  <RI>
0

>  <Rbt.Current_Directory>
/home/itssahil/PROJECTS/Mol_Feturizer/New_Systems/rnas/3DVV

>  <Rbt.Executable>
rbdock ($Id: //depot/dev/client3/rdock/2013.1/src/exe/rbdock.cxx#4 $)

>  <Rbt.Library>
libRbt.so (2013.1, Build901 2013/11/27)

>  <Rbt.Parameter_File>
/export/apps/rDock/src/rDock_2013.1_src/data/scripts/dock_solv.prm

>  <Rbt.Receptor>
prm/pocket_docking_2.prm

>  <SCORE>
-1.76892

>  <SCORE.INTER>
-6.71432

>  <SCORE.INTER.CONST>
1

>  <SCORE.INTER.POLAR>
0

>  <SCORE.INTER.ROT>
6

>  <SCORE.INTER.SOLV>
17.1798

>  <SCORE.INTER.VDW>
-17.8028

>  <SCORE.INTER.norm>
-0.216591

>  <SCORE.INTRA>
4.94187

>  <SCORE.INTRA.DIHEDRAL>
8.4704

>  <SCORE.INTRA.DIHEDRAL.0>
10.8172

>  <SCORE.INTRA.POLAR>
0

>  <SCORE.INTRA.POLAR.0>
0

>  <SCORE.INTRA.REPUL>
0

>  <SCORE.INTRA.REPUL.0>
0

>  <SCORE.INTRA.SOLV>
1.1013

>  <SCORE.INTRA.SOLV.lig_0>
-80.3833

>  <SCORE.INTRA.VDW>
0.156015

>  <SCORE.INTRA.VDW.0>
-4.63762

>  <SCORE.INTRA.norm>
0.159415

>  <SCORE.RESTR>
0.00353353

>  <SCORE.RESTR.CAVITY>
0.00353353

>  <SCORE.RESTR.norm>
0.000113985

>  <SCORE.SYSTEM>
0

>  <SCORE.SYSTEM.CONST>
0

>  <SCORE.SYSTEM.DIHEDRAL>
0

>  <SCORE.SYSTEM.SOLV>
0

>  <SCORE.SYSTEM.norm>
0

>  <SCORE.heavy>
31

>  <SCORE.norm>
-0.0570618

>  <RMSD>
5.345

$$$$
ligand
 OpenBabel11021811473D
libRbt.so/2013.1/901 2013/11/27
 31 33  0  0  0  0  0  0  0  0999 V2000
   19.6703    0.5188   12.9732 C   0  0  0  0  0  0  0  0  0  0  0  0
   14.7609    3.0739   19.2712 N   0  0  0  0  0  0  0  0  0  0  0  0
   20.5927   -0.0393   13.9147 O   0  0  0  0  0  0  0  0  0  0  0  0
   18.2593    0.5406   13.5663 C   0  0  1  0  0  0  0  0  0  0  0  0
   18.5891    6.1150   19.2641 N   0  0  0  0  0  0  0  0  0  0  0  0
   18.2428    1.3166   14.7804 O   0  0  0  0  0  0  0  0  0  0  0  0
   17.2313    2.3327   14.6612 C   0  0  1  0  0  0  0  0  0  0  0  0
   18.6385    8.4888   15.3010 N   0  0  0  0  0  0  0  0  0  0  0  0
   17.6006    3.5345   15.3557 O   0  0  0  0  0  0  0  0  0  0  0  0
   17.6446    3.3874   16.7827 C   0  0  2  0  0  0  0  0  0  0  0  0
   22.0041    3.0979   16.4103 N   0  0  0  0  0  0  0  0  0  0  0  0
   15.6328    2.0476   16.7882 O   0  0  0  0  0  0  0  0  0  0  0  0
   16.1969    3.2691   17.2731 C   0  0  1  0  0  0  0  0  0  0  0  0
   19.7679    4.5827   17.1622 O   0  0  0  0  0  0  0  0  0  0  0  0
   16.1399    3.2780   18.8020 C   0  0  1  0  0  0  0  0  0  0  0  0
   19.8577    5.8857   15.2045 O   0  0  0  0  0  0  0  0  0  0  0  0
   16.6764    4.6144   19.3154 C   0  0  0  0  0  0  0  0  0  0  0  0
   22.6724    7.9102   16.4106 O   0  0  0  0  0  0  0  0  0  0  0  0
   18.1391    4.7663   18.8877 C   0  0  1  0  0  0  0  0  0  0  0  0
   23.8607    5.3130   16.0827 O   0  0  0  0  0  0  0  0  0  0  0  0
   18.3458    4.6053   17.3767 C   0  0  2  0  0  0  0  0  0  0  0  0
   16.0025    3.2680   12.7447 O   0  0  0  0  0  0  0  0  0  0  0  0
   20.1690    4.6048   15.7833 C   0  0  1  0  0  0  0  0  0  0  0  0
   15.9881    0.6256   12.6228 O   0  0  0  0  0  0  0  0  0  0  0  0
   20.5100    6.9961   15.8439 C   0  0  2  0  0  0  0  0  0  0  0  0
   20.0891    8.2931   15.1488 C   0  0  0  0  0  0  0  0  0  0  0  0
   22.0264    6.8380   15.7192 C   0  0  2  0  0  0  0  0  0  0  0  0
   22.4639    5.5053   16.3305 C   0  0  1  0  0  0  0  0  0  0  0  0
   21.6778    4.3485   15.7079 C   0  0  1  0  0  0  0  0  0  0  0  0
   17.2110    2.6294   13.1632 C   0  0  2  0  0  0  0  0  0  0  0  0
   17.2897    1.2165   12.5927 C   0  0  1  0  0  0  0  0  0  0  0  0
  1  3  1  0  0  0  0
  4  1  1  6  0  0  0
  4  6  1  0  0  0  0
  4 31  1  0  0  0  0
  6  7  1  0  0  0  0
  7  9  1  1  0  0  0
  7 30  1  0  0  0  0
  8 26  1  0  0  0  0
 10  9  1  6  0  0  0
 10 13  1  0  0  0  0
 10 21  1  0  0  0  0
 13 12  1  1  0  0  0
 13 15  1  0  0  0  0
 15  2  1  6  0  0  0
 15 17  1  0  0  0  0
 16 25  1  0  0  0  0
 16 23  1  0  0  0  0
 17 19  1  0  0  0  0
 19  5  1  6  0  0  0
 19 21  1  0  0  0  0
 21 14  1  1  0  0  0
 23 14  1  1  0  0  0
 23 29  1  0  0  0  0
 25 26  1  6  0  0  0
 25 27  1  0  0  0  0
 27 18  1  1  0  0  0
 27 28  1  0  0  0  0
 28 20  1  6  0  0  0
 28 29  1  0  0  0  0
 29 11  1  1  0  0  0
 30 22  1  1  0  0  0
 30 31  1  0  0  0  0
 31 24  1  1  0  0  0
M  END
>  <CHROM.1>
58.86652946,-67.49950140,-71.84339357,68.72045596,61.96861329,62.63538184
18.84642130,3.94575823,15.81155025,-2.35627472,0.47280030,0.79632994

>  <Name>
ligand

>  <RI>
0

>  <Rbt.Current_Directory>
/home/itssahil/PROJECTS/Mol_Feturizer/New_Systems/rnas/3DVV

>  <Rbt.Executable>
rbdock ($Id: //depot/dev/client3/rdock/2013.1/src/exe/rbdock.cxx#4 $)

>  <Rbt.Library>
libRbt.so (2013.1, Build901 2013/11/27)

>  <Rbt.Parameter_File>
/export/apps/rDock/src/rDock_2013.1_src/data/scripts/dock_solv.prm

>  <Rbt.Receptor>
prm/pocket_docking_5.prm

>  <SCORE>
-7.80956

>  <SCORE.INTER>
-3.64444

>  <SCORE.INTER.CONST>
1

>  <SCORE.INTER.POLAR>
0

>  <SCORE.INTER.ROT>
6

>  <SCORE.INTER.SOLV>
18.422

>  <SCORE.INTER.VDW>
-16.1703

>  <SCORE.INTER.norm>
-0.117563

>  <SCORE.INTRA>
-4.16511

>  <SCORE.INTRA.DIHEDRAL>
-9.19478

>  <SCORE.INTRA.DIHEDRAL.0>
10.8172

>  <SCORE.INTRA.POLAR>
0

>  <SCORE.INTRA.POLAR.0>
0

>  <SCORE.INTRA.REPUL>
0

>  <SCORE.INTRA.REPUL.0>
0

>  <SCORE.INTRA.SOLV>
-4.41463

>  <SCORE.INTRA.SOLV.lig_0>
-80.3833

>  <SCORE.INTRA.VDW>
2.63959

>  <SCORE.INTRA.VDW.0>
-4.63762

>  <SCORE.INTRA.norm>
-0.134359

>  <SCORE.RESTR>
0

>  <SCORE.RESTR.CAVITY>
0

>  <SCORE.RESTR.norm>
0

>  <SCORE.SYSTEM>
0

>  <SCORE.SYSTEM.CONST>
0

>  <SCORE.SYSTEM.DIHEDRAL>
0

>  <SCORE.SYSTEM.SOLV>
0

>  <SCORE.SYSTEM.norm>
0

>  <SCORE.heavy>
31

>  <SCORE.norm>
-0.251921

>  <RMSD>
5.360

$$$$
ligand
 OpenBabel11021811473D
libRbt.so/2013.1/901 2013/11/27
 31 33  0  0  0  0  0  0  0  0999 V2000
   19.9388    0.5547   12.7930 C   0  0  0  0  0  0  0  0  0  0  0  0
   14.8348    3.1212   19.2006 N   0  0  0  0  0  0  0  0  0  0  0  0
   20.9966   -0.0036   13.5793 O   0  0  0  0  0  0  0  0  0  0  0  0
   18.6060    0.4270   13.5350 C   0  0  1  0  0  0  0  0  0  0  0  0
   18.6677    6.1559   19.1454 N   0  0  0  0  0  0  0  0  0  0  0  0
   18.6281    1.2226   14.7362 O   0  0  0  0  0  0  0  0  0  0  0  0
   17.4980    2.1127   14.7174 C   0  0  1  0  0  0  0  0  0  0  0  0
   18.8732    8.4538   15.3164 N   0  0  0  0  0  0  0  0  0  0  0  0
   17.7962    3.3640   15.3563 O   0  0  0  0  0  0  0  0  0  0  0  0
   17.7953    3.2959   16.7899 C   0  0  2  0  0  0  0  0  0  0  0  0
   22.1620    3.0076   16.5094 N   0  0  0  0  0  0  0  0  0  0  0  0
   15.7815    1.9592   16.8064 O   0  0  0  0  0  0  0  0  0  0  0  0
   16.3328    3.2054   17.2406 C   0  0  1  0  0  0  0  0  0  0  0  0
   19.9082    4.5096   17.1691 O   0  0  0  0  0  0  0  0  0  0  0  0
   16.2281    3.2987   18.7641 C   0  0  1  0  0  0  0  0  0  0  0  0
   20.0656    5.7858   15.1981 O   0  0  0  0  0  0  0  0  0  0  0  0
   16.7511    4.6612   19.2196 C   0  0  0  0  0  0  0  0  0  0  0  0
   22.8476    7.8172   16.4670 O   0  0  0  0  0  0  0  0  0  0  0  0
   18.2268    4.7886   18.8301 C   0  0  1  0  0  0  0  0  0  0  0  0
   24.0362    5.2120   16.2121 O   0  0  0  0  0  0  0  0  0  0  0  0
   18.4802    4.5444   17.3375 C   0  0  2  0  0  0  0  0  0  0  0  0
   15.9718    2.8579   12.9360 O   0  0  0  0  0  0  0  0  0  0  0  0
   20.3535    4.5118   15.8036 C   0  0  1  0  0  0  0  0  0  0  0  0
   16.2531    0.2293   12.8417 O   0  0  0  0  0  0  0  0  0  0  0  0
   20.7011    6.9025   15.8432 C   0  0  2  0  0  0  0  0  0  0  0  0
   20.3075    8.1914   15.1177 C   0  0  0  0  0  0  0  0  0  0  0  0
   22.2202    6.7379   15.7695 C   0  0  2  0  0  0  0  0  0  0  0  0
   22.6329    5.4122   16.4123 C   0  0  1  0  0  0  0  0  0  0  0  0
   21.8630    4.2496   15.7802 C   0  0  1  0  0  0  0  0  0  0  0  0
   17.2842    2.3720   13.2275 C   0  0  2  0  0  0  0  0  0  0  0  0
   17.4662    0.9653   12.6654 C   0  0  1  0  0  0  0  0  0  0  0  0
  1  3  1  0  0  0  0
  4  1  1  6  0  0  0
  4  6  1  0  0  0  0
  4 31  1  0  0  0  0
  6  7  1  0  0  0  0
  7  9  1  1  0  0  0
  7 30  1  0  0  0  0
  8 26  1  0  0  0  0
 10  9  1  6  0  0  0
 10 13  1  0  0  0  0
 10 21  1  0  0  0  0
 13 12  1  1  0  0  0
 13 15  1  0  0  0  0
 15  2  1  6  0  0  0
 15 17  1  0  0  0  0
 16 25  1  0  0  0  0
 16 23  1  0  0  0  0
 17 19  1  0  0  0  0
 19  5  1  6  0  0  0
 19 21  1  0  0  0  0
 21 14  1  1  0  0  0
 23 14  1  1  0  0  0
 23 29  1  0  0  0  0
 25 26  1  6  0  0  0
 25 27  1  0  0  0  0
 27 18  1  1  0  0  0
 27 28  1  0  0  0  0
 28 20  1  6  0  0  0
 28 29  1  0  0  0  0
 29 11  1  1  0  0  0
 30 22  1  1  0  0  0
 30 31  1  0  0  0  0
 31 24  1  1  0  0  0
M  END
>  <CHROM.1>
64.97617423,-77.01205572,-74.17415889,68.50764775,64.44810568,67.38388586
19.02719562,3.84565397,15.81463899,-2.32428958,0.43978219,0.75457680

>  <Name>
ligand

>  <RI>
0

>  <Rbt.Current_Directory>
/home/itssahil/PROJECTS/Mol_Feturizer/New_Systems/rnas/3DVV

>  <Rbt.Executable>
rbdock ($Id: //depot/dev/client3/rdock/2013.1/src/exe/rbdock.cxx#4 $)

>  <Rbt.Library>
libRbt.so (2013.1, Build901 2013/11/27)

>  <Rbt.Parameter_File>
/export/apps/rDock/src/rDock_2013.1_src/data/scripts/dock_solv.prm

>  <Rbt.Receptor>
prm/pocket_docking_3.prm

>  <SCORE>
-7.7896

>  <SCORE.INTER>
-4.01295

>  <SCORE.INTER.CONST>
1

>  <SCORE.INTER.POLAR>
0

>  <SCORE.INTER.ROT>
6

>  <SCORE.INTER.SOLV>
19.8601

>  <SCORE.INTER.VDW>
-16.8953

>  <SCORE.INTER.norm>
-0.12945

>  <SCORE.INTRA>
-3.77665

>  <SCORE.INTRA.DIHEDRAL>
-7.58572

>  <SCORE.INTRA.DIHEDRAL.0>
10.8172

>  <SCORE.INTRA.POLAR>
0

>  <SCORE.INTRA.POLAR.0>
0

>  <SCORE.INTRA.REPUL>
0

>  <SCORE.INTRA.REPUL.0>
0

>  <SCORE.INTRA.SOLV>
-4.41237

>  <SCORE.INTRA.SOLV.lig_0>
-80.3833

>  <SCORE.INTRA.VDW>
2.2224

>  <SCORE.INTRA.VDW.0>
-4.63762

>  <SCORE.INTRA.norm>
-0.121827

>  <SCORE.RESTR>
0

>  <SCORE.RESTR.CAVITY>
0

>  <SCORE.RESTR.norm>
0

>  <SCORE.SYSTEM>
0

>  <SCORE.SYSTEM.CONST>
0

>  <SCORE.SYSTEM.DIHEDRAL>
0

>  <SCORE.SYSTEM.SOLV>
0

>  <SCORE.SYSTEM.norm>
0

>  <SCORE.heavy>
31

>  <SCORE.norm>
-0.251277

>  <RMSD>
5.362

$$$$
ligand
 OpenBabel11021811473D
libRbt.so/2013.1/901 2013/11/27
 31 33  0  0  0  0  0  0  0  0999 V2000
   20.0090    0.5590   12.8672 C   0  0  0  0  0  0  0  0  0  0  0  0
   14.8991    3.2223   19.1340 N   0  0  0  0  0  0  0  0  0  0  0  0
   21.0000   -0.1831   13.5855 O   0  0  0  0  0  0  0  0  0  0  0  0
   18.6678    0.4971   13.6025 C   0  0  1  0  0  0  0  0  0  0  0  0
   18.6262    6.3866   19.1325 N   0  0  0  0  0  0  0  0  0  0  0  0
   18.7160    1.3076   14.7929 O   0  0  0  0  0  0  0  0  0  0  0  0
   17.6240    2.2435   14.7548 C   0  0  1  0  0  0  0  0  0  0  0  0
   19.8831    9.4584   15.3957 N   0  0  0  0  0  0  0  0  0  0  0  0
   17.9703    3.4901   15.3785 O   0  0  0  0  0  0  0  0  0  0  0  0
   17.9266    3.4509   16.8125 C   0  0  2  0  0  0  0  0  0  0  0  0
   22.5021    3.6292   16.8013 N   0  0  0  0  0  0  0  0  0  0  0  0
   15.9599    2.0457   16.7954 O   0  0  0  0  0  0  0  0  0  0  0  0
   16.4544    3.3188   17.2198 C   0  0  1  0  0  0  0  0  0  0  0  0
   19.9838    4.7447   17.2307 O   0  0  0  0  0  0  0  0  0  0  0  0
   16.2987    3.4392   18.7370 C   0  0  1  0  0  0  0  0  0  0  0  0
   19.9746    5.7734   15.1142 O   0  0  0  0  0  0  0  0  0  0  0  0
   16.7603    4.8279   19.1793 C   0  0  0  0  0  0  0  0  0  0  0  0
   22.2772    8.4385   16.1493 O   0  0  0  0  0  0  0  0  0  0  0  0
   18.2423    4.9987   18.8329 C   0  0  1  0  0  0  0  0  0  0  0  0
   23.9409    6.0961   16.2486 O   0  0  0  0  0  0  0  0  0  0  0  0
   18.5508    4.7334   17.3543 C   0  0  2  0  0  0  0  0  0  0  0  0
   16.1403    3.0266   12.9539 O   0  0  0  0  0  0  0  0  0  0  0  0
   20.4724    4.6625   15.8827 C   0  0  1  0  0  0  0  0  0  0  0  0
   16.3127    0.3875   12.8972 O   0  0  0  0  0  0  0  0  0  0  0  0
   20.3650    7.0619   15.6188 C   0  0  2  0  0  0  0  0  0  0  0  0
   19.7652    8.1523   14.7279 C   0  0  0  0  0  0  0  0  0  0  0  0
   21.8898    7.1816   15.5880 C   0  0  2  0  0  0  0  0  0  0  0  0
   22.5184    6.0487   16.4019 C   0  0  1  0  0  0  0  0  0  0  0  0
   22.0042    4.6916   15.9142 C   0  0  1  0  0  0  0  0  0  0  0  0
   17.4297    2.4908   13.2603 C   0  0  2  0  0  0  0  0  0  0  0  0
   17.5563    1.0701   12.7185 C   0  0  1  0  0  0  0  0  0  0  0  0
  1  3  1  0  0  0  0
  4  1  1  6  0  0  0
  4  6  1  0  0  0  0
  4 31  1  0  0  0  0
  6  7  1  0  0  0  0
  7  9  1  1  0  0  0
  7 30  1  0  0  0  0
  8 26  1  0  0  0  0
 10  9  1  6  0  0  0
 10 13  1  0  0  0  0
 10 21  1  0  0  0  0
 13 12  1  1  0  0  0
 13 15  1  0  0  0  0
 15  2  1  6  0  0  0
 15 17  1  0  0  0  0
 16 25  1  0  0  0  0
 16 23  1  0  0  0  0
 17 19  1  0  0  0  0
 19  5  1  6  0  0  0
 19 21  1  0  0  0  0
 21 14  1  1  0  0  0
 23 14  1  1  0  0  0
 23 29  1  0  0  0  0
 25 26  1  6  0  0  0
 25 27  1  0  0  0  0
 27 18  1  1  0  0  0
 27 28  1  0  0  0  0
 28 20  1  6  0  0  0
 28 29  1  0  0  0  0
 29 11  1  1  0  0  0
 30 22  1  1  0  0  0
 30 31  1  0  0  0  0
 31 24  1  1  0  0  0
M  END
>  <CHROM.1>
72.50842593,-78.45514633,-69.18401399,59.40164283,61.26872137,166.77457531
19.06502948,4.08168805,15.80637834,-2.25959573,0.51123489,0.71647524

>  <Name>
ligand

>  <RI>
0

>  <Rbt.Current_Directory>
/home/itssahil/PROJECTS/Mol_Feturizer/New_Systems/rnas/3DVV

>  <Rbt.Executable>
rbdock ($Id: //depot/dev/client3/rdock/2013.1/src/exe/rbdock.cxx#4 $)

>  <Rbt.Library>
libRbt.so (2013.1, Build901 2013/11/27)

>  <Rbt.Parameter_File>
/export/apps/rDock/src/rDock_2013.1_src/data/scripts/dock_solv.prm

>  <Rbt.Receptor>
prm/pocket_docking_3.prm

>  <SCORE>
-6.47589

>  <SCORE.INTER>
-4.08464

>  <SCORE.INTER.CONST>
1

>  <SCORE.INTER.POLAR>
0

>  <SCORE.INTER.ROT>
6

>  <SCORE.INTER.SOLV>
21.208

>  <SCORE.INTER.VDW>
-17.3924

>  <SCORE.INTER.norm>
-0.131762

>  <SCORE.INTRA>
-2.39125

>  <SCORE.INTRA.DIHEDRAL>
-7.48241

>  <SCORE.INTRA.DIHEDRAL.0>
10.8172

>  <SCORE.INTRA.POLAR>
0

>  <SCORE.INTRA.POLAR.0>
0

>  <SCORE.INTRA.REPUL>
0

>  <SCORE.INTRA.REPUL.0>
0

>  <SCORE.INTRA.SOLV>
-3.63185

>  <SCORE.INTRA.SOLV.lig_0>
-80.3833

>  <SCORE.INTRA.VDW>
3.16588

>  <SCORE.INTRA.VDW.0>
-4.63762

>  <SCORE.INTRA.norm>
-0.0771371

>  <SCORE.RESTR>
0

>  <SCORE.RESTR.CAVITY>
0

>  <SCORE.RESTR.norm>
0

>  <SCORE.SYSTEM>
0

>  <SCORE.SYSTEM.CONST>
0

>  <SCORE.SYSTEM.DIHEDRAL>
0

>  <SCORE.SYSTEM.SOLV>
0

>  <SCORE.SYSTEM.norm>
0

>  <SCORE.heavy>
31

>  <SCORE.norm>
-0.2089

>  <RMSD>
5.371

$$$$
ligand
 OpenBabel11021811473D
libRbt.so/2013.1/901 2013/11/27
 31 33  0  0  0  0  0  0  0  0999 V2000
   21.7344    7.1095   15.2858 C   0  0  0  0  0  0  0  0  0  0  0  0
   12.8350    6.0198   16.2051 N   0  0  0  0  0  0  0  0  0  0  0  0
   22.8717    7.9607   15.1106 O   0  0  0  0  0  0  0  0  0  0  0  0
   20.4574    7.8423   14.8668 C   0  0  1  0  0  0  0  0  0  0  0  0
   15.9441    2.2567   16.4813 N   0  0  0  0  0  0  0  0  0  0  0  0
   19.3134    6.9826   15.0352 O   0  0  0  0  0  0  0  0  0  0  0  0
   18.3500    7.6583   15.8629 C   0  0  1  0  0  0  0  0  0  0  0  0
   19.6631    0.6574   12.1175 N   0  0  0  0  0  0  0  0  0  0  0  0
   17.6165    6.7370   16.6853 O   0  0  0  0  0  0  0  0  0  0  0  0
   16.6488    5.9613   15.9629 C   0  0  2  0  0  0  0  0  0  0  0  0
   20.1814    4.7083   17.2283 N   0  0  0  0  0  0  0  0  0  0  0  0
   15.0445    7.7687   16.0100 O   0  0  0  0  0  0  0  0  0  0  0  0
   15.2609    6.4180   16.4273 C   0  0  1  0  0  0  0  0  0  0  0  0
   18.0507    3.9670   15.5909 O   0  0  0  0  0  0  0  0  0  0  0  0
   14.1694    5.5262   15.8320 C   0  0  1  0  0  0  0  0  0  0  0  0
   18.7493    1.7204   15.5389 O   0  0  0  0  0  0  0  0  0  0  0  0
   14.3600    4.0960   16.3377 C   0  0  0  0  0  0  0  0  0  0  0  0
   21.4647    2.3842   13.1593 O   0  0  0  0  0  0  0  0  0  0  0  0
   15.7196    3.5730   15.8647 C   0  0  1  0  0  0  0  0  0  0  0  0
   22.3410    3.7752   15.5177 O   0  0  0  0  0  0  0  0  0  0  0  0
   16.8877    4.4842   16.2609 C   0  0  2  0  0  0  0  0  0  0  0  0
   18.4904    9.6037   17.3640 O   0  0  0  0  0  0  0  0  0  0  0  0
   18.7502    2.9376   16.3076 C   0  0  1  0  0  0  0  0  0  0  0  0
   19.6536   10.1607   15.0544 O   0  0  0  0  0  0  0  0  0  0  0  0
   19.3829    1.8342   14.2533 C   0  0  2  0  0  0  0  0  0  0  0  0
   19.3045    0.4854   13.5343 C   0  0  0  0  0  0  0  0  0  0  0  0
   20.8540    2.2098   14.4406 C   0  0  2  0  0  0  0  0  0  0  0  0
   20.9625    3.5133   15.2345 C   0  0  1  0  0  0  0  0  0  0  0  0
   20.1899    3.4023   16.5516 C   0  0  1  0  0  0  0  0  0  0  0  0
   19.2190    8.5266   16.7702 C   0  0  2  0  0  0  0  0  0  0  0  0
   20.2329    9.0628   15.7640 C   0  0  1  0  0  0  0  0  0  0  0  0
  1  3  1  0  0  0  0
  4  1  1  1  0  0  0
  4  6  1  0  0  0  0
  4 31  1  0  0  0  0
  6  7  1  0  0  0  0
  7  9  1  1  0  0  0
  7 30  1  0  0  0  0
  8 26  1  0  0  0  0
 10  9  1  1  0  0  0
 10 13  1  0  0  0  0
 10 21  1  0  0  0  0
 13 12  1  6  0  0  0
 13 15  1  0  0  0  0
 15  2  1  1  0  0  0
 15 17  1  0  0  0  0
 16 25  1  0  0  0  0
 16 23  1  0  0  0  0
 17 19  1  0  0  0  0
 19  5  1  1  0  0  0
 19 21  1  0  0  0  0
 21 14  1  6  0  0  0
 23 14  1  6  0  0  0
 23 29  1  0  0  0  0
 25 26  1  1  0  0  0
 25 27  1  0  0  0  0
 27 18  1  6  0  0  0
 27 28  1  0  0  0  0
 28 20  1  1  0  0  0
 28 29  1  0  0  0  0
 29 11  1  6  0  0  0
 30 22  1  6  0  0  0
 30 31  1  0  0  0  0
 31 24  1  6  0  0  0
M  END
>  <CHROM.1>
179.63578278,-73.53772953,-111.83216176,118.69285164,147.46486313,167.11132511
18.58147303,5.18143293,15.56118253,-1.93080867,-0.19597254,-2.93448426

>  <Name>
ligand

>  <RI>
0

>  <Rbt.Current_Directory>
/home/itssahil/PROJECTS/Mol_Feturizer/New_Systems/rnas/3DVV

>  <Rbt.Executable>
rbdock ($Id: //depot/dev/client3/rdock/2013.1/src/exe/rbdock.cxx#4 $)

>  <Rbt.Library>
libRbt.so (2013.1, Build901 2013/11/27)

>  <Rbt.Parameter_File>
/export/apps/rDock/src/rDock_2013.1_src/data/scripts/dock_solv.prm

>  <Rbt.Receptor>
prm/pocket_docking_4.prm

>  <SCORE>
0.508531

>  <SCORE.INTER>
-5.60622

>  <SCORE.INTER.CONST>
1

>  <SCORE.INTER.POLAR>
0

>  <SCORE.INTER.ROT>
6

>  <SCORE.INTER.SOLV>
16.2737

>  <SCORE.INTER.VDW>
-16.7621

>  <SCORE.INTER.norm>
-0.180846

>  <SCORE.INTRA>
6.10961

>  <SCORE.INTRA.DIHEDRAL>
8.88984

>  <SCORE.INTRA.DIHEDRAL.0>
10.8172

>  <SCORE.INTRA.POLAR>
0

>  <SCORE.INTRA.POLAR.0>
0

>  <SCORE.INTRA.REPUL>
0.115173

>  <SCORE.INTRA.REPUL.0>
0

>  <SCORE.INTRA.SOLV>
1.55675

>  <SCORE.INTRA.SOLV.lig_0>
-80.3833

>  <SCORE.INTRA.VDW>
0.310451

>  <SCORE.INTRA.VDW.0>
-4.63762

>  <SCORE.INTRA.norm>
0.197084

>  <SCORE.RESTR>
0.0051367

>  <SCORE.RESTR.CAVITY>
0.0051367

>  <SCORE.RESTR.norm>
0.0001657

>  <SCORE.SYSTEM>
0

>  <SCORE.SYSTEM.CONST>
0

>  <SCORE.SYSTEM.DIHEDRAL>
0

>  <SCORE.SYSTEM.SOLV>
0

>  <SCORE.SYSTEM.norm>
0

>  <SCORE.heavy>
31

>  <SCORE.norm>
0.0164042

>  <RMSD>
5.371

$$$$
ligand
 OpenBabel11021811473D
libRbt.so/2013.1/901 2013/11/27
 31 33  0  0  0  0  0  0  0  0999 V2000
   20.3347    0.7107   13.4665 C   0  0  0  0  0  0  0  0  0  0  0  0
   14.8934    3.3057   19.3779 N   0  0  0  0  0  0  0  0  0  0  0  0
   20.4881   -0.2082   12.3799 O   0  0  0  0  0  0  0  0  0  0  0  0
   18.9058    0.6489   14.0121 C   0  0  1  0  0  0  0  0  0  0  0  0
   18.5868    6.5089   19.4162 N   0  0  0  0  0  0  0  0  0  0  0  0
   18.7844    1.4812   15.1821 O   0  0  0  0  0  0  0  0  0  0  0  0
   17.7012    2.4055   14.9767 C   0  0  1  0  0  0  0  0  0  0  0  0
   20.0515    7.7629   13.3371 N   0  0  0  0  0  0  0  0  0  0  0  0
   17.9496    3.6665   15.6180 O   0  0  0  0  0  0  0  0  0  0  0  0
   17.9109    3.6037   17.0513 C   0  0  2  0  0  0  0  0  0  0  0  0
   22.4977    3.8216   17.1389 N   0  0  0  0  0  0  0  0  0  0  0  0
   15.9591    2.1782   17.0174 O   0  0  0  0  0  0  0  0  0  0  0  0
   16.4415    3.4495   17.4608 C   0  0  1  0  0  0  0  0  0  0  0  0
   19.9557    4.9123   17.4842 O   0  0  0  0  0  0  0  0  0  0  0  0
   16.2893    3.5437   18.9803 C   0  0  1  0  0  0  0  0  0  0  0  0
   19.9211    5.7659   15.2913 O   0  0  0  0  0  0  0  0  0  0  0  0
   16.7377    4.9300   19.4435 C   0  0  0  0  0  0  0  0  0  0  0  0
   22.1651    8.5562   16.1006 O   0  0  0  0  0  0  0  0  0  0  0  0
   18.2167    5.1220   19.0954 C   0  0  1  0  0  0  0  0  0  0  0  0
   23.8806    6.2668   16.3842 O   0  0  0  0  0  0  0  0  0  0  0  0
   18.5233    4.8838   17.6119 C   0  0  2  0  0  0  0  0  0  0  0  0
   16.4731    3.1415   12.9748 O   0  0  0  0  0  0  0  0  0  0  0  0
   20.4444    4.7321   16.1457 C   0  0  1  0  0  0  0  0  0  0  0  0
   16.6707    0.5036   12.9928 O   0  0  0  0  0  0  0  0  0  0  0  0
   20.2833    7.0992   15.6889 C   0  0  2  0  0  0  0  0  0  0  0  0
   19.6584    8.1004   14.7144 C   0  0  0  0  0  0  0  0  0  0  0  0
   21.8050    7.2497   15.6439 C   0  0  2  0  0  0  0  0  0  0  0  0
   22.4597    6.2005   16.5450 C   0  0  1  0  0  0  0  0  0  0  0  0
   21.9752    4.7975   16.1702 C   0  0  1  0  0  0  0  0  0  0  0  0
   17.7121    2.6239   13.4652 C   0  0  2  0  0  0  0  0  0  0  0  0
   17.9221    1.1950   12.9733 C   0  0  1  0  0  0  0  0  0  0  0  0
  1  3  1  0  0  0  0
  4  1  1  6  0  0  0
  4  6  1  0  0  0  0
  4 31  1  0  0  0  0
  6  7  1  0  0  0  0
  7  9  1  1  0  0  0
  7 30  1  0  0  0  0
  8 26  1  0  0  0  0
 10  9  1  6  0  0  0
 10 13  1  0  0  0  0
 10 21  1  0  0  0  0
 13 12  1  1  0  0  0
 13 15  1  0  0  0  0
 15  2  1  6  0  0  0
 15 17  1  0  0  0  0
 16 25  1  0  0  0  0
 16 23  1  0  0  0  0
 17 19  1  0  0  0  0
 19  5  1  6  0  0  0
 19 21  1  0  0  0  0
 21 14  1  1  0  0  0
 23 14  1  1  0  0  0
 23 29  1  0  0  0  0
 25 26  1  6  0  0  0
 25 27  1  0  0  0  0
 27 18  1  1  0  0  0
 27 28  1  0  0  0  0
 28 20  1  6  0  0  0
 28 29  1  0  0  0  0
 29 11  1  1  0  0  0
 30 22  1  6  0  0  0
 30 31  1  0  0  0  0
 31 24  1  1  0  0  0
M  END
>  <CHROM.1>
174.72720604,-69.38423890,-73.07238650,59.20529238,55.74721103,-54.65900247
19.09147748,4.13741401,15.89794281,-2.29972336,0.59663676,0.81305911

>  <Name>
ligand

>  <RI>
0

>  <Rbt.Current_Directory>
/home/itssahil/PROJECTS/Mol_Feturizer/New_Systems/rnas/3DVV

>  <Rbt.Executable>
rbdock ($Id: //depot/dev/client3/rdock/2013.1/src/exe/rbdock.cxx#4 $)

>  <Rbt.Library>
libRbt.so (2013.1, Build901 2013/11/27)

>  <Rbt.Parameter_File>
/export/apps/rDock/src/rDock_2013.1_src/data/scripts/dock_solv.prm

>  <Rbt.Receptor>
prm/pocket_docking_3.prm

>  <SCORE>
-7.80782

>  <SCORE.INTER>
-4.73289

>  <SCORE.INTER.CONST>
1

>  <SCORE.INTER.POLAR>
0

>  <SCORE.INTER.ROT>
6

>  <SCORE.INTER.SOLV>
18.0909

>  <SCORE.INTER.VDW>
-16.7856

>  <SCORE.INTER.norm>
-0.152674

>  <SCORE.INTRA>
-3.07493

>  <SCORE.INTRA.DIHEDRAL>
-9.03726

>  <SCORE.INTRA.DIHEDRAL.0>
10.8172

>  <SCORE.INTRA.POLAR>
0

>  <SCORE.INTRA.POLAR.0>
0

>  <SCORE.INTRA.REPUL>
0

>  <SCORE.INTRA.REPUL.0>
0

>  <SCORE.INTRA.SOLV>
-3.22048

>  <SCORE.INTRA.SOLV.lig_0>
-80.3833

>  <SCORE.INTRA.VDW>
3.05395

>  <SCORE.INTRA.VDW.0>
-4.63762

>  <SCORE.INTRA.norm>
-0.0991912

>  <SCORE.RESTR>
0

>  <SCORE.RESTR.CAVITY>
0

>  <SCORE.RESTR.norm>
0

>  <SCORE.SYSTEM>
0

>  <SCORE.SYSTEM.CONST>
0

>  <SCORE.SYSTEM.DIHEDRAL>
0

>  <SCORE.SYSTEM.SOLV>
0

>  <SCORE.SYSTEM.norm>
0

>  <SCORE.heavy>
31

>  <SCORE.norm>
-0.251865

>  <RMSD>
5.375

$$$$
ligand
 OpenBabel11021811473D
libRbt.so/2013.1/901 2013/11/27
 31 33  0  0  0  0  0  0  0  0999 V2000
   19.7666    0.5091   12.8276 C   0  0  0  0  0  0  0  0  0  0  0  0
   14.7762    3.0201   19.2041 N   0  0  0  0  0  0  0  0  0  0  0  0
   20.7368   -0.1321   13.6620 O   0  0  0  0  0  0  0  0  0  0  0  0
   18.3862    0.4560   13.4871 C   0  0  1  0  0  0  0  0  0  0  0  0
   18.6017    6.0646   19.1792 N   0  0  0  0  0  0  0  0  0  0  0  0
   18.3856    1.2320   14.7013 O   0  0  0  0  0  0  0  0  0  0  0  0
   17.3165    2.1922   14.6312 C   0  0  1  0  0  0  0  0  0  0  0  0
   18.6810    8.4538   15.3621 N   0  0  0  0  0  0  0  0  0  0  0  0
   17.6534    3.4131   15.3085 O   0  0  0  0  0  0  0  0  0  0  0  0
   17.6837    3.2917   16.7383 C   0  0  2  0  0  0  0  0  0  0  0  0
   22.0512    3.0399   16.3471 N   0  0  0  0  0  0  0  0  0  0  0  0
   15.6730    1.9502   16.7485 O   0  0  0  0  0  0  0  0  0  0  0  0
   16.2313    3.1808   17.2167 C   0  0  1  0  0  0  0  0  0  0  0  0
   19.8021    4.4959   17.1167 O   0  0  0  0  0  0  0  0  0  0  0  0
   16.1595    3.2172   18.7446 C   0  0  1  0  0  0  0  0  0  0  0  0
   19.9086    5.8545   15.1981 O   0  0  0  0  0  0  0  0  0  0  0  0
   16.6898    4.5632   19.2391 C   0  0  0  0  0  0  0  0  0  0  0  0
   22.7035    7.8522   16.4919 O   0  0  0  0  0  0  0  0  0  0  0  0
   18.1565    4.7088   18.8229 C   0  0  1  0  0  0  0  0  0  0  0  0
   23.9038    5.2690   16.1029 O   0  0  0  0  0  0  0  0  0  0  0  0
   18.3780    4.5209   17.3171 C   0  0  2  0  0  0  0  0  0  0  0  0
   15.9498    3.0572   12.7760 O   0  0  0  0  0  0  0  0  0  0  0  0
   20.2179    4.5586   15.7435 C   0  0  1  0  0  0  0  0  0  0  0  0
   16.0715    0.4176   12.6524 O   0  0  0  0  0  0  0  0  0  0  0  0
   20.5503    6.9481   15.8759 C   0  0  2  0  0  0  0  0  0  0  0  0
   20.1326    8.2632   15.2135 C   0  0  0  0  0  0  0  0  0  0  0  0
   22.0686    6.7982   15.7632 C   0  0  2  0  0  0  0  0  0  0  0  0
   22.5039    5.4500   16.3410 C   0  0  1  0  0  0  0  0  0  0  0  0
   21.7284    4.3090   15.6771 C   0  0  1  0  0  0  0  0  0  0  0  0
   17.2094    2.4850   13.1361 C   0  0  2  0  0  0  0  0  0  0  0  0
   17.3366    1.0775   12.5612 C   0  0  1  0  0  0  0  0  0  0  0  0
  1  3  1  0  0  0  0
  4  1  1  6  0  0  0
  4  6  1  0  0  0  0
  4 31  1  0  0  0  0
  6  7  1  0  0  0  0
  7  9  1  1  0  0  0
  7 30  1  0  0  0  0
  8 26  1  0  0  0  0
 10  9  1  6  0  0  0
 10 13  1  0  0  0  0
 10 21  1  0  0  0  0
 13 12  1  1  0  0  0
 13 15  1  0  0  0  0
 15  2  1  6  0  0  0
 15 17  1  0  0  0  0
 16 25  1  0  0  0  0
 16 23  1  0  0  0  0
 17 19  1  0  0  0  0
 19  5  1  6  0  0  0
 19 21  1  0  0  0  0
 21 14  1  1  0  0  0
 23 14  1  1  0  0  0
 23 29  1  0  0  0  0
 25 26  1  6  0  0  0
 25 27  1  0  0  0  0
 27 18  1  1  0  0  0
 27 28  1  0  0  0  0
 28 20  1  6  0  0  0
 28 29  1  0  0  0  0
 29 11  1  1  0  0  0
 30 22  1  1  0  0  0
 30 31  1  0  0  0  0
 31 24  1  1  0  0  0
M  END
>  <CHROM.1>
65.28102452,-71.50442300,-72.95900439,68.15792713,64.82397890,62.95271238
18.89414803,3.86576286,15.77760359,-2.32242584,0.45661122,0.77701571

>  <Name>
ligand

>  <RI>
0

>  <Rbt.Current_Directory>
/home/itssahil/PROJECTS/Mol_Feturizer/New_Systems/rnas/3DVV

>  <Rbt.Executable>
rbdock ($Id: //depot/dev/client3/rdock/2013.1/src/exe/rbdock.cxx#4 $)

>  <Rbt.Library>
libRbt.so (2013.1, Build901 2013/11/27)

>  <Rbt.Parameter_File>
/export/apps/rDock/src/rDock_2013.1_src/data/scripts/dock_solv.prm

>  <Rbt.Receptor>
prm/pocket_docking_6.prm

>  <SCORE>
-8.00666

>  <SCORE.INTER>
-3.89412

>  <SCORE.INTER.CONST>
1

>  <SCORE.INTER.POLAR>
0

>  <SCORE.INTER.ROT>
6

>  <SCORE.INTER.SOLV>
18.9744

>  <SCORE.INTER.VDW>
-16.5209

>  <SCORE.INTER.norm>
-0.125617

>  <SCORE.INTRA>
-4.11254

>  <SCORE.INTRA.DIHEDRAL>
-8.57037

>  <SCORE.INTRA.DIHEDRAL.0>
10.8172

>  <SCORE.INTRA.POLAR>
0

>  <SCORE.INTRA.POLAR.0>
0

>  <SCORE.INTRA.REPUL>
0

>  <SCORE.INTRA.REPUL.0>
0

>  <SCORE.INTRA.SOLV>
-4.39699

>  <SCORE.INTRA.SOLV.lig_0>
-80.3833

>  <SCORE.INTRA.VDW>
2.37115

>  <SCORE.INTRA.VDW.0>
-4.63762

>  <SCORE.INTRA.norm>
-0.132662

>  <SCORE.RESTR>
0

>  <SCORE.RESTR.CAVITY>
0

>  <SCORE.RESTR.norm>
0

>  <SCORE.SYSTEM>
0

>  <SCORE.SYSTEM.CONST>
0

>  <SCORE.SYSTEM.DIHEDRAL>
0

>  <SCORE.SYSTEM.SOLV>
0

>  <SCORE.SYSTEM.norm>
0

>  <SCORE.heavy>
31

>  <SCORE.norm>
-0.258279

>  <RMSD>
5.377

$$$$
ligand
 OpenBabel11021811473D
libRbt.so/2013.1/901 2013/11/27
 31 33  0  0  0  0  0  0  0  0999 V2000
   19.8207    0.4943   12.8130 C   0  0  0  0  0  0  0  0  0  0  0  0
   14.7925    3.1083   19.1607 N   0  0  0  0  0  0  0  0  0  0  0  0
   20.8051   -0.1348   13.6401 O   0  0  0  0  0  0  0  0  0  0  0  0
   18.4476    0.4319   13.4869 C   0  0  1  0  0  0  0  0  0  0  0  0
   18.6426    6.1209   19.0981 N   0  0  0  0  0  0  0  0  0  0  0  0
   18.4482    1.2252   14.6898 O   0  0  0  0  0  0  0  0  0  0  0  0
   17.3653    2.1696   14.6167 C   0  0  1  0  0  0  0  0  0  0  0  0
   18.6864    8.4798   15.3717 N   0  0  0  0  0  0  0  0  0  0  0  0
   17.6919    3.4047   15.2732 O   0  0  0  0  0  0  0  0  0  0  0  0
   17.7141    3.3100   16.7051 C   0  0  2  0  0  0  0  0  0  0  0  0
   22.1144    3.0819   16.3119 N   0  0  0  0  0  0  0  0  0  0  0  0
   15.6926    1.9851   16.7303 O   0  0  0  0  0  0  0  0  0  0  0  0
   16.2586    3.2198   17.1782 C   0  0  1  0  0  0  0  0  0  0  0  0
   19.8404    4.5041   17.0716 O   0  0  0  0  0  0  0  0  0  0  0  0
   16.1796    3.2856   18.7047 C   0  0  1  0  0  0  0  0  0  0  0  0
   19.9418    5.8720   15.1593 O   0  0  0  0  0  0  0  0  0  0  0  0
   16.7183    4.6364   19.1764 C   0  0  0  0  0  0  0  0  0  0  0  0
   22.7002    7.9020   16.4809 O   0  0  0  0  0  0  0  0  0  0  0  0
   18.1882    4.7623   18.7650 C   0  0  1  0  0  0  0  0  0  0  0  0
   23.9382    5.3370   16.0898 O   0  0  0  0  0  0  0  0  0  0  0  0
   18.4156    4.5442   17.2642 C   0  0  2  0  0  0  0  0  0  0  0  0
   15.9688    2.9891   12.7631 O   0  0  0  0  0  0  0  0  0  0  0  0
   20.2649    4.5781   15.7015 C   0  0  1  0  0  0  0  0  0  0  0  0
   16.1257    0.3499   12.6759 O   0  0  0  0  0  0  0  0  0  0  0  0
   20.5639    6.9714   15.8460 C   0  0  2  0  0  0  0  0  0  0  0  0
   20.1330    8.2834   15.1861 C   0  0  0  0  0  0  0  0  0  0  0  0
   22.0847    6.8426   15.7434 C   0  0  2  0  0  0  0  0  0  0  0  0
   22.5343    5.4979   16.3187 C   0  0  1  0  0  0  0  0  0  0  0  0
   21.7790    4.3493   15.6448 C   0  0  1  0  0  0  0  0  0  0  0  0
   17.2396    2.4394   13.1187 C   0  0  2  0  0  0  0  0  0  0  0  0
   17.3807    1.0256   12.5627 C   0  0  1  0  0  0  0  0  0  0  0  0
  1  3  1  0  0  0  0
  4  1  1  6  0  0  0
  4  6  1  0  0  0  0
  4 31  1  0  0  0  0
  6  7  1  0  0  0  0
  7  9  1  1  0  0  0
  7 30  1  0  0  0  0
  8 26  1  0  0  0  0
 10  9  1  6  0  0  0
 10 13  1  0  0  0  0
 10 21  1  0  0  0  0
 13 12  1  1  0  0  0
 13 15  1  0  0  0  0
 15  2  1  6  0  0  0
 15 17  1  0  0  0  0
 16 25  1  0  0  0  0
 16 23  1  0  0  0  0
 17 19  1  0  0  0  0
 19  5  1  6  0  0  0
 19 21  1  0  0  0  0
 21 14  1  1  0  0  0
 23 14  1  1  0  0  0
 23 29  1  0  0  0  0
 25 26  1  6  0  0  0
 25 27  1  0  0  0  0
 27 18  1  1  0  0  0
 27 28  1  0  0  0  0
 28 20  1  6  0  0  0
 28 29  1  0  0  0  0
 29 11  1  1  0  0  0
 30 22  1  1  0  0  0
 30 31  1  0  0  0  0
 31 24  1  1  0  0  0
M  END
>  <CHROM.1>
65.92466198,-72.56616558,-73.71729184,66.60315880,66.61261146,65.18109685
18.92850004,3.88282800,15.75099147,-2.30323511,0.44641242,0.75592923

>  <Name>
ligand

>  <RI>
0

>  <Rbt.Current_Directory>
/home/itssahil/PROJECTS/Mol_Feturizer/New_Systems/rnas/3DVV

>  <Rbt.Executable>
rbdock ($Id: //depot/dev/client3/rdock/2013.1/src/exe/rbdock.cxx#4 $)

>  <Rbt.Library>
libRbt.so (2013.1, Build901 2013/11/27)

>  <Rbt.Parameter_File>
/export/apps/rDock/src/rDock_2013.1_src/data/scripts/dock_solv.prm

>  <Rbt.Receptor>
prm/pocket_docking_6.prm

>  <SCORE>
-8.053

>  <SCORE.INTER>
-3.98415

>  <SCORE.INTER.CONST>
1

>  <SCORE.INTER.POLAR>
0

>  <SCORE.INTER.ROT>
6

>  <SCORE.INTER.SOLV>
18.7698

>  <SCORE.INTER.VDW>
-16.5127

>  <SCORE.INTER.norm>
-0.128521

>  <SCORE.INTRA>
-4.06885

>  <SCORE.INTRA.DIHEDRAL>
-8.28803

>  <SCORE.INTRA.DIHEDRAL.0>
10.8172

>  <SCORE.INTRA.POLAR>
0

>  <SCORE.INTRA.POLAR.0>
0

>  <SCORE.INTRA.REPUL>
0

>  <SCORE.INTRA.REPUL.0>
0

>  <SCORE.INTRA.SOLV>
-4.34745

>  <SCORE.INTRA.SOLV.lig_0>
-80.3833

>  <SCORE.INTRA.VDW>
2.24889

>  <SCORE.INTRA.VDW.0>
-4.63762

>  <SCORE.INTRA.norm>
-0.131253

>  <SCORE.RESTR>
0

>  <SCORE.RESTR.CAVITY>
0

>  <SCORE.RESTR.norm>
0

>  <SCORE.SYSTEM>
0

>  <SCORE.SYSTEM.CONST>
0

>  <SCORE.SYSTEM.DIHEDRAL>
0

>  <SCORE.SYSTEM.SOLV>
0

>  <SCORE.SYSTEM.norm>
0

>  <SCORE.heavy>
31

>  <SCORE.norm>
-0.259774

>  <RMSD>
5.380

$$$$
ligand
 OpenBabel11021811473D
libRbt.so/2013.1/901 2013/11/27
 31 33  0  0  0  0  0  0  0  0999 V2000
   20.3162    0.8728   13.1747 C   0  0  0  0  0  0  0  0  0  0  0  0
   14.9011    3.2786   19.5840 N   0  0  0  0  0  0  0  0  0  0  0  0
   20.3944   -0.0336   12.0696 O   0  0  0  0  0  0  0  0  0  0  0  0
   19.0721    0.5742   14.0150 C   0  0  1  0  0  0  0  0  0  0  0  0
   18.6182    6.4512   19.4394 N   0  0  0  0  0  0  0  0  0  0  0  0
   19.0487    1.4160   15.1843 O   0  0  0  0  0  0  0  0  0  0  0  0
   17.7942    2.1196   15.2176 C   0  0  1  0  0  0  0  0  0  0  0  0
   18.4599    8.0522   14.9676 N   0  0  0  0  0  0  0  0  0  0  0  0
   17.9341    3.4289   15.7912 O   0  0  0  0  0  0  0  0  0  0  0  0
   17.9047    3.4376   17.2261 C   0  0  2  0  0  0  0  0  0  0  0  0
   22.4086    3.4708   17.1959 N   0  0  0  0  0  0  0  0  0  0  0  0
   15.9423    2.0273   17.2756 O   0  0  0  0  0  0  0  0  0  0  0  0
   16.4371    3.3152   17.6522 C   0  0  1  0  0  0  0  0  0  0  0  0
   19.9620    4.7503   17.5803 O   0  0  0  0  0  0  0  0  0  0  0  0
   16.2960    3.4859   19.1661 C   0  0  1  0  0  0  0  0  0  0  0  0
   20.0026    5.6818   15.4195 O   0  0  0  0  0  0  0  0  0  0  0  0
   16.7577    4.8900   19.5570 C   0  0  0  0  0  0  0  0  0  0  0  0
   22.4623    8.2509   16.3283 O   0  0  0  0  0  0  0  0  0  0  0  0
   18.2357    5.0530   19.1903 C   0  0  1  0  0  0  0  0  0  0  0  0
   23.9866    5.8217   16.5294 O   0  0  0  0  0  0  0  0  0  0  0  0
   18.5304    4.7392   17.7184 C   0  0  2  0  0  0  0  0  0  0  0  0
   16.0553    2.5412   13.5275 O   0  0  0  0  0  0  0  0  0  0  0  0
   20.4384    4.5792   16.2362 C   0  0  1  0  0  0  0  0  0  0  0  0
   16.7386   -0.0142   13.5007 O   0  0  0  0  0  0  0  0  0  0  0  0
   20.4703    6.9665   15.8647 C   0  0  2  0  0  0  0  0  0  0  0  0
   19.9309    8.0492   14.9270 C   0  0  0  0  0  0  0  0  0  0  0  0
   21.9992    6.9950   15.8251 C   0  0  2  0  0  0  0  0  0  0  0  0
   22.5645    5.8648   16.6878 C   0  0  1  0  0  0  0  0  0  0  0  0
   21.9693    4.5198   16.2629 C   0  0  1  0  0  0  0  0  0  0  0  0
   17.4441    2.2767   13.7393 C   0  0  2  0  0  0  0  0  0  0  0  0
   17.8069    0.8914   13.2127 C   0  0  1  0  0  0  0  0  0  0  0  0
  1  3  1  0  0  0  0
  4  1  1  6  0  0  0
  4  6  1  0  0  0  0
  4 31  1  0  0  0  0
  6  7  1  0  0  0  0
  7  9  1  6  0  0  0
  7 30  1  0  0  0  0
  8 26  1  0  0  0  0
 10  9  1  6  0  0  0
 10 13  1  0  0  0  0
 10 21  1  0  0  0  0
 13 12  1  1  0  0  0
 13 15  1  0  0  0  0
 15  2  1  6  0  0  0
 15 17  1  0  0  0  0
 16 25  1  0  0  0  0
 16 23  1  0  0  0  0
 17 19  1  0  0  0  0
 19  5  1  6  0  0  0
 19 21  1  0  0  0  0
 21 14  1  1  0  0  0
 23 14  1  1  0  0  0
 23 29  1  0  0  0  0
 25 26  1  6  0  0  0
 25 27  1  0  0  0  0
 27 18  1  1  0  0  0
 27 28  1  0  0  0  0
 28 20  1  6  0  0  0
 28 29  1  0  0  0  0
 29 11  1  1  0  0  0
 30 22  1  1  0  0  0
 30 31  1  0  0  0  0
 31 24  1  1  0  0  0
M  END
>  <CHROM.1>
175.49841040,-82.90068889,-78.47115987,63.35388075,59.27220810,61.45411209
19.06914921,3.96714423,16.08956869,-2.24091505,0.52421964,0.76348731

>  <Name>
ligand

>  <RI>
0

>  <Rbt.Current_Directory>
/home/itssahil/PROJECTS/Mol_Feturizer/New_Systems/rnas/3DVV

>  <Rbt.Executable>
rbdock ($Id: //depot/dev/client3/rdock/2013.1/src/exe/rbdock.cxx#4 $)

>  <Rbt.Library>
libRbt.so (2013.1, Build901 2013/11/27)

>  <Rbt.Parameter_File>
/export/apps/rDock/src/rDock_2013.1_src/data/scripts/dock_solv.prm

>  <Rbt.Receptor>
prm/pocket_docking_2.prm

>  <SCORE>
-6.24088

>  <SCORE.INTER>
-3.92549

>  <SCORE.INTER.CONST>
1

>  <SCORE.INTER.POLAR>
0

>  <SCORE.INTER.ROT>
6

>  <SCORE.INTER.SOLV>
19.0468

>  <SCORE.INTER.VDW>
-16.5659

>  <SCORE.INTER.norm>
-0.126629

>  <SCORE.INTRA>
-3.31183

>  <SCORE.INTRA.DIHEDRAL>
-6.66221

>  <SCORE.INTRA.DIHEDRAL.0>
10.8172

>  <SCORE.INTRA.POLAR>
0

>  <SCORE.INTRA.POLAR.0>
0

>  <SCORE.INTRA.REPUL>
0

>  <SCORE.INTRA.REPUL.0>
0

>  <SCORE.INTRA.SOLV>
-4.34842

>  <SCORE.INTRA.SOLV.lig_0>
-80.3833

>  <SCORE.INTRA.VDW>
2.19348

>  <SCORE.INTRA.VDW.0>
-4.63762

>  <SCORE.INTRA.norm>
-0.106833

>  <SCORE.RESTR>
0.996442

>  <SCORE.RESTR.CAVITY>
0.996442

>  <SCORE.RESTR.norm>
0.0321433

>  <SCORE.SYSTEM>
0

>  <SCORE.SYSTEM.CONST>
0

>  <SCORE.SYSTEM.DIHEDRAL>
0

>  <SCORE.SYSTEM.SOLV>
0

>  <SCORE.SYSTEM.norm>
0

>  <SCORE.heavy>
31

>  <SCORE.norm>
-0.201319

>  <RMSD>
5.399

$$$$
ligand
 OpenBabel11021811473D
libRbt.so/2013.1/901 2013/11/27
 31 33  0  0  0  0  0  0  0  0999 V2000
   19.9311    1.6047   13.1097 C   0  0  0  0  0  0  0  0  0  0  0  0
   14.9316    3.1060   20.1823 N   0  0  0  0  0  0  0  0  0  0  0  0
   21.2028    1.6017   13.7667 O   0  0  0  0  0  0  0  0  0  0  0  0
   18.8483    1.0757   14.0537 C   0  0  1  0  0  0  0  0  0  0  0  0
   18.2978    6.6198   19.7076 N   0  0  0  0  0  0  0  0  0  0  0  0
   18.8062    1.8696   15.2555 O   0  0  0  0  0  0  0  0  0  0  0  0
   17.4621    2.3476   15.4422 C   0  0  1  0  0  0  0  0  0  0  0  0
   18.4974    9.5556   15.4692 N   0  0  0  0  0  0  0  0  0  0  0  0
   17.4401    3.6459   16.0563 O   0  0  0  0  0  0  0  0  0  0  0  0
   17.5897    3.6130   17.4834 C   0  0  2  0  0  0  0  0  0  0  0  0
   22.1348    4.3229   16.9528 N   0  0  0  0  0  0  0  0  0  0  0  0
   15.7852    2.0219   17.7175 O   0  0  0  0  0  0  0  0  0  0  0  0
   16.2041    3.3404   18.0803 C   0  0  1  0  0  0  0  0  0  0  0  0
   19.5474    5.1049   17.6342 O   0  0  0  0  0  0  0  0  0  0  0  0
   16.2386    3.4559   19.6055 C   0  0  1  0  0  0  0  0  0  0  0  0
   19.1187    5.9113   15.4653 O   0  0  0  0  0  0  0  0  0  0  0  0
   16.6161    4.8864   19.9911 C   0  0  0  0  0  0  0  0  0  0  0  0
   21.0939    8.9649   15.9660 O   0  0  0  0  0  0  0  0  0  0  0  0
   18.0157    5.1989   19.4533 C   0  0  1  0  0  0  0  0  0  0  0  0
   23.0975    6.9040   16.0188 O   0  0  0  0  0  0  0  0  0  0  0  0
   18.1512    4.9543   17.9455 C   0  0  2  0  0  0  0  0  0  0  0  0
   15.5113    2.5113   13.9504 O   0  0  0  0  0  0  0  0  0  0  0  0
   19.8725    4.9626   16.2425 C   0  0  1  0  0  0  0  0  0  0  0  0
   16.6054    0.1116   13.7448 O   0  0  0  0  0  0  0  0  0  0  0  0
   19.3655    7.2851   15.8102 C   0  0  2  0  0  0  0  0  0  0  0  0
   18.4997    8.1873   14.9276 C   0  0  0  0  0  0  0  0  0  0  0  0
   20.8381    7.6171   15.5622 C   0  0  2  0  0  0  0  0  0  0  0  0
   21.7292    6.6697   16.3681 C   0  0  1  0  0  0  0  0  0  0  0  0
   21.3736    5.2123   16.0621 C   0  0  1  0  0  0  0  0  0  0  0  0
   16.9391    2.4822   14.0136 C   0  0  2  0  0  0  0  0  0  0  0  0
   17.4716    1.1937   13.3937 C   0  0  1  0  0  0  0  0  0  0  0  0
  1  3  1  0  0  0  0
  4  1  1  6  0  0  0
  4  6  1  0  0  0  0
  4 31  1  0  0  0  0
  6  7  1  0  0  0  0
  7  9  1  6  0  0  0
  7 30  1  0  0  0  0
  8 26  1  0  0  0  0
 10  9  1  6  0  0  0
 10 13  1  0  0  0  0
 10 21  1  0  0  0  0
 13 12  1  1  0  0  0
 13 15  1  0  0  0  0
 15  2  1  1  0  0  0
 15 17  1  0  0  0  0
 16 25  1  0  0  0  0
 16 23  1  0  0  0  0
 17 19  1  0  0  0  0
 19  5  1  6  0  0  0
 19 21  1  0  0  0  0
 21 14  1  1  0  0  0
 23 14  1  1  0  0  0
 23 29  1  0  0  0  0
 25 26  1  6  0  0  0
 25 27  1  0  0  0  0
 27 18  1  1  0  0  0
 27 28  1  0  0  0  0
 28 20  1  6  0  0  0
 28 29  1  0  0  0  0
 29 11  1  1  0  0  0
 30 22  1  1  0  0  0
 30 31  1  0  0  0  0
 31 24  1  1  0  0  0
M  END
>  <CHROM.1>
57.42557307,-81.54110094,-83.42872234,57.04731400,56.87839648,166.80291109
18.63022574,4.37879490,16.26760817,-2.32903352,0.70702914,0.72206381

>  <Name>
ligand

>  <RI>
0

>  <Rbt.Current_Directory>
/home/itssahil/PROJECTS/Mol_Feturizer/New_Systems/rnas/3DVV

>  <Rbt.Executable>
rbdock ($Id: //depot/dev/client3/rdock/2013.1/src/exe/rbdock.cxx#4 $)

>  <Rbt.Library>
libRbt.so (2013.1, Build901 2013/11/27)

>  <Rbt.Parameter_File>
/export/apps/rDock/src/rDock_2013.1_src/data/scripts/dock_solv.prm

>  <Rbt.Receptor>
prm/pocket_docking_3.prm

>  <SCORE>
-5.49671

>  <SCORE.INTER>
-2.98301

>  <SCORE.INTER.CONST>
1

>  <SCORE.INTER.POLAR>
0

>  <SCORE.INTER.ROT>
6

>  <SCORE.INTER.SOLV>
18.3277

>  <SCORE.INTER.VDW>
-15.6979

>  <SCORE.INTER.norm>
-0.0962261

>  <SCORE.INTRA>
-2.51371

>  <SCORE.INTRA.DIHEDRAL>
-5.47888

>  <SCORE.INTRA.DIHEDRAL.0>
10.8172

>  <SCORE.INTRA.POLAR>
0

>  <SCORE.INTRA.POLAR.0>
0

>  <SCORE.INTRA.REPUL>
0

>  <SCORE.INTRA.REPUL.0>
0

>  <SCORE.INTRA.SOLV>
-3.51341

>  <SCORE.INTRA.SOLV.lig_0>
-80.3833

>  <SCORE.INTRA.VDW>
1.98244

>  <SCORE.INTRA.VDW.0>
-4.63762

>  <SCORE.INTRA.norm>
-0.0810873

>  <SCORE.RESTR>
0

>  <SCORE.RESTR.CAVITY>
0

>  <SCORE.RESTR.norm>
0

>  <SCORE.SYSTEM>
0

>  <SCORE.SYSTEM.CONST>
0

>  <SCORE.SYSTEM.DIHEDRAL>
0

>  <SCORE.SYSTEM.SOLV>
0

>  <SCORE.SYSTEM.norm>
0

>  <SCORE.heavy>
31

>  <SCORE.norm>
-0.177313

>  <RMSD>
5.400

$$$$
ligand
 OpenBabel11021811473D
libRbt.so/2013.1/901 2013/11/27
 31 33  0  0  0  0  0  0  0  0999 V2000
   21.3741    7.6074   16.0896 C   0  0  0  0  0  0  0  0  0  0  0  0
   18.6315   -0.4421   12.9782 N   0  0  0  0  0  0  0  0  0  0  0  0
   20.2459    8.4872   16.1336 O   0  0  0  0  0  0  0  0  0  0  0  0
   20.9728    6.2105   16.5702 C   0  0  1  0  0  0  0  0  0  0  0  0
   17.1889    3.5010   10.4733 N   0  0  0  0  0  0  0  0  0  0  0  0
   20.1513    5.5616   15.5800 O   0  0  0  0  0  0  0  0  0  0  0  0
   20.7439    4.2920   15.2533 C   0  0  1  0  0  0  0  0  0  0  0  0
   15.1711    8.5216   13.0882 N   0  0  0  0  0  0  0  0  0  0  0  0
   20.5247    3.9413   13.8779 O   0  0  0  0  0  0  0  0  0  0  0  0
   19.2805    3.2648   13.6449 C   0  0  2  0  0  0  0  0  0  0  0  0
   20.4173    5.3818   11.1328 N   0  0  0  0  0  0  0  0  0  0  0  0
   20.0822    1.2502   14.7132 O   0  0  0  0  0  0  0  0  0  0  0  0
   19.5974    1.7746   13.4741 C   0  0  1  0  0  0  0  0  0  0  0  0
   18.0733    5.1577   12.6248 O   0  0  0  0  0  0  0  0  0  0  0  0
   18.3473    0.9990   13.0539 C   0  0  1  0  0  0  0  0  0  0  0  0
   17.1884    7.1359   11.7072 O   0  0  0  0  0  0  0  0  0  0  0  0
   17.8730    1.5123   11.6941 C   0  0  0  0  0  0  0  0  0  0  0  0
   19.3095    9.3091   13.7698 O   0  0  0  0  0  0  0  0  0  0  0  0
   17.5016    2.9930   11.8177 C   0  0  1  0  0  0  0  0  0  0  0  0
   21.2154    8.0274   12.0408 O   0  0  0  0  0  0  0  0  0  0  0  0
   18.6327    3.8527   12.3949 C   0  0  2  0  0  0  0  0  0  0  0  0
   22.9810    3.3341   15.6214 O   0  0  0  0  0  0  0  0  0  0  0  0
   18.0717    6.0224   11.4781 C   0  0  1  0  0  0  0  0  0  0  0  0
   22.0929    4.4364   17.8561 O   0  0  0  0  0  0  0  0  0  0  0  0
   17.5447    7.9484   12.8386 C   0  0  2  0  0  0  0  0  0  0  0  0
   16.5273    9.0828   12.9819 C   0  0  0  0  0  0  0  0  0  0  0  0
   18.9319    8.5536   12.6158 C   0  0  2  0  0  0  0  0  0  0  0  0
   19.9554    7.4404   12.3827 C   0  0  1  0  0  0  0  0  0  0  0  0
   19.4996    6.5261   11.2424 C   0  0  1  0  0  0  0  0  0  0  0  0
   22.2370    4.5431   15.4538 C   0  0  2  0  0  0  0  0  0  0  0  0
   22.2188    5.3397   16.7549 C   0  0  1  0  0  0  0  0  0  0  0  0
  1  3  1  0  0  0  0
  4  1  1  6  0  0  0
  4  6  1  0  0  0  0
  4 31  1  0  0  0  0
  6  7  1  0  0  0  0
  7  9  1  6  0  0  0
  7 30  1  0  0  0  0
  8 26  1  0  0  0  0
 10  9  1  6  0  0  0
 10 13  1  0  0  0  0
 10 21  1  0  0  0  0
 13 12  1  1  0  0  0
 13 15  1  0  0  0  0
 15  2  1  6  0  0  0
 15 17  1  0  0  0  0
 16 25  1  0  0  0  0
 16 23  1  0  0  0  0
 17 19  1  0  0  0  0
 19  5  1  6  0  0  0
 19 21  1  0  0  0  0
 21 14  1  1  0  0  0
 23 14  1  1  0  0  0
 23 29  1  0  0  0  0
 25 26  1  6  0  0  0
 25 27  1  0  0  0  0
 27 18  1  1  0  0  0
 27 28  1  0  0  0  0
 28 20  1  6  0  0  0
 28 29  1  0  0  0  0
 29 11  1  1  0  0  0
 30 22  1  1  0  0  0
 30 31  1  0  0  0  0
 31 24  1  1  0  0  0
M  END
>  <CHROM.1>
72.14151294,-86.39992655,-102.75240356,164.64962612,149.96109904,56.00279474
19.46876968,5.23957997,13.63072556,-1.91798928,0.81307237,-3.03797462

>  <Name>
ligand

>  <RI>
0

>  <Rbt.Current_Directory>
/home/itssahil/PROJECTS/Mol_Feturizer/New_Systems/rnas/3DVV

>  <Rbt.Executable>
rbdock ($Id: //depot/dev/client3/rdock/2013.1/src/exe/rbdock.cxx#4 $)

>  <Rbt.Library>
libRbt.so (2013.1, Build901 2013/11/27)

>  <Rbt.Parameter_File>
/export/apps/rDock/src/rDock_2013.1_src/data/scripts/dock_solv.prm

>  <Rbt.Receptor>
prm/blind_docking_60.prm

>  <SCORE>
1.72623

>  <SCORE.INTER>
-2.03183

>  <SCORE.INTER.CONST>
1

>  <SCORE.INTER.POLAR>
0

>  <SCORE.INTER.ROT>
6

>  <SCORE.INTER.SOLV>
20.707

>  <SCORE.INTER.VDW>
-15.8569

>  <SCORE.INTER.norm>
-0.0655431

>  <SCORE.INTRA>
3.46266

>  <SCORE.INTRA.DIHEDRAL>
3.26729

>  <SCORE.INTRA.DIHEDRAL.0>
10.8172

>  <SCORE.INTRA.POLAR>
0

>  <SCORE.INTRA.POLAR.0>
0

>  <SCORE.INTRA.REPUL>
0.0632628

>  <SCORE.INTRA.REPUL.0>
0

>  <SCORE.INTRA.SOLV>
0.693061

>  <SCORE.INTRA.SOLV.lig_0>
-80.3833

>  <SCORE.INTRA.VDW>
1.16617

>  <SCORE.INTRA.VDW.0>
-4.63762

>  <SCORE.INTRA.norm>
0.111699

>  <SCORE.RESTR>
0.295411

>  <SCORE.RESTR.CAVITY>
0.295411

>  <SCORE.RESTR.norm>
0.00952938

>  <SCORE.SYSTEM>
0

>  <SCORE.SYSTEM.CONST>
0

>  <SCORE.SYSTEM.DIHEDRAL>
0

>  <SCORE.SYSTEM.SOLV>
0

>  <SCORE.SYSTEM.norm>
0

>  <SCORE.heavy>
31

>  <SCORE.norm>
0.0556849

>  <RMSD>
5.414

$$$$
ligand
 OpenBabel11021811473D
libRbt.so/2013.1/901 2013/11/27
 31 33  0  0  0  0  0  0  0  0999 V2000
   20.3696    0.6757   13.5038 C   0  0  0  0  0  0  0  0  0  0  0  0
   14.8237    3.3622   19.2955 N   0  0  0  0  0  0  0  0  0  0  0  0
   20.5441   -0.2825   12.4549 O   0  0  0  0  0  0  0  0  0  0  0  0
   18.9371    0.6160   14.0401 C   0  0  1  0  0  0  0  0  0  0  0  0
   18.5198    6.5620   19.3529 N   0  0  0  0  0  0  0  0  0  0  0  0
   18.8039    1.4653   15.1965 O   0  0  0  0  0  0  0  0  0  0  0  0
   17.7183    2.3817   14.9695 C   0  0  1  0  0  0  0  0  0  0  0  0
   18.2501    8.0560   14.7545 N   0  0  0  0  0  0  0  0  0  0  0  0
   17.9568    3.6533   15.5933 O   0  0  0  0  0  0  0  0  0  0  0  0
   17.8886    3.6160   17.0265 C   0  0  2  0  0  0  0  0  0  0  0  0
   22.4635    3.8157   17.1799 N   0  0  0  0  0  0  0  0  0  0  0  0
   15.9361    2.1920   16.9778 O   0  0  0  0  0  0  0  0  0  0  0  0
   16.4110    3.4705   17.4084 C   0  0  1  0  0  0  0  0  0  0  0  0
   19.9258    4.9301   17.4779 O   0  0  0  0  0  0  0  0  0  0  0  0
   16.2278    3.5918   18.9225 C   0  0  1  0  0  0  0  0  0  0  0  0
   19.9461    5.7966   15.2900 O   0  0  0  0  0  0  0  0  0  0  0  0
   16.6684    4.9857   19.3702 C   0  0  0  0  0  0  0  0  0  0  0  0
   22.2005    8.5592   16.1630 O   0  0  0  0  0  0  0  0  0  0  0  0
   18.1545    5.1701   19.0492 C   0  0  1  0  0  0  0  0  0  0  0  0
   23.8865    6.2509   16.4690 O   0  0  0  0  0  0  0  0  0  0  0  0
   18.4911    4.9053   17.5767 C   0  0  2  0  0  0  0  0  0  0  0  0
   16.5014    3.0821   12.9480 O   0  0  0  0  0  0  0  0  0  0  0  0
   20.4409    4.7527   16.1490 C   0  0  1  0  0  0  0  0  0  0  0  0
   16.7100    0.4457   13.0073 O   0  0  0  0  0  0  0  0  0  0  0  0
   20.3133    7.1239   15.7030 C   0  0  2  0  0  0  0  0  0  0  0  0
   19.7191    8.1370   14.7216 C   0  0  0  0  0  0  0  0  0  0  0  0
   21.8370    7.2591   15.6911 C   0  0  2  0  0  0  0  0  0  0  0  0
   22.4619    6.1982   16.5994 C   0  0  1  0  0  0  0  0  0  0  0  0
   21.9714    4.8023   16.2062 C   0  0  1  0  0  0  0  0  0  0  0  0
   17.7390    2.5774   13.4550 C   0  0  2  0  0  0  0  0  0  0  0  0
   17.9586    1.1421   12.9862 C   0  0  1  0  0  0  0  0  0  0  0  0
  1  3  1  0  0  0  0
  4  1  1  6  0  0  0
  4  6  1  0  0  0  0
  4 31  1  0  0  0  0
  6  7  1  0  0  0  0
  7  9  1  1  0  0  0
  7 30  1  0  0  0  0
  8 26  1  0  0  0  0
 10  9  1  6  0  0  0
 10 13  1  0  0  0  0
 10 21  1  0  0  0  0
 13 12  1  1  0  0  0
 13 15  1  0  0  0  0
 15  2  1  6  0  0  0
 15 17  1  0  0  0  0
 16 25  1  0  0  0  0
 16 23  1  0  0  0  0
 17 19  1  0  0  0  0
 19  5  1  6  0  0  0
 19 21  1  0  0  0  0
 21 14  1  1  0  0  0
 23 14  1  1  0  0  0
 23 29  1  0  0  0  0
 25 26  1  6  0  0  0
 25 27  1  0  0  0  0
 27 18  1  1  0  0  0
 27 28  1  0  0  0  0
 28 20  1  6  0  0  0
 28 29  1  0  0  0  0
 29 11  1  1  0  0  0
 30 22  1  6  0  0  0
 30 31  1  0  0  0  0
 31 24  1  1  0  0  0
M  END
>  <CHROM.1>
173.27099732,-70.25196616,-72.99990927,59.65660225,56.94478707,62.57758956
19.03434118,4.14718885,15.94319608,-2.18773745,0.52013769,0.73667716

>  <Name>
ligand

>  <RI>
0

>  <Rbt.Current_Directory>
/home/itssahil/PROJECTS/Mol_Feturizer/New_Systems/rnas/3DVV

>  <Rbt.Executable>
rbdock ($Id: //depot/dev/client3/rdock/2013.1/src/exe/rbdock.cxx#4 $)

>  <Rbt.Library>
libRbt.so (2013.1, Build901 2013/11/27)

>  <Rbt.Parameter_File>
/export/apps/rDock/src/rDock_2013.1_src/data/scripts/dock_solv.prm

>  <Rbt.Receptor>
prm/pocket_docking_3.prm

>  <SCORE>
-8.53801

>  <SCORE.INTER>
-4.64519

>  <SCORE.INTER.CONST>
1

>  <SCORE.INTER.POLAR>
0

>  <SCORE.INTER.ROT>
6

>  <SCORE.INTER.SOLV>
16.8141

>  <SCORE.INTER.VDW>
-16.3015

>  <SCORE.INTER.norm>
-0.149845

>  <SCORE.INTRA>
-3.89283

>  <SCORE.INTRA.DIHEDRAL>
-9.03153

>  <SCORE.INTRA.DIHEDRAL.0>
10.8172

>  <SCORE.INTRA.POLAR>
0

>  <SCORE.INTRA.POLAR.0>
0

>  <SCORE.INTRA.REPUL>
0

>  <SCORE.INTRA.REPUL.0>
0

>  <SCORE.INTRA.SOLV>
-4.44394

>  <SCORE.INTRA.SOLV.lig_0>
-80.3833

>  <SCORE.INTRA.VDW>
2.84491

>  <SCORE.INTRA.VDW.0>
-4.63762

>  <SCORE.INTRA.norm>
-0.125575

>  <SCORE.RESTR>
0

>  <SCORE.RESTR.CAVITY>
0

>  <SCORE.RESTR.norm>
0

>  <SCORE.SYSTEM>
0

>  <SCORE.SYSTEM.CONST>
0

>  <SCORE.SYSTEM.DIHEDRAL>
0

>  <SCORE.SYSTEM.SOLV>
0

>  <SCORE.SYSTEM.norm>
0

>  <SCORE.heavy>
31

>  <SCORE.norm>
-0.27542

>  <RMSD>
5.419

$$$$
ligand
 OpenBabel11021811473D
libRbt.so/2013.1/901 2013/11/27
 31 33  0  0  0  0  0  0  0  0999 V2000
   23.2279    7.5701   15.9610 C   0  0  0  0  0  0  0  0  0  0  0  0
   20.2313    0.0869   12.5087 N   0  0  0  0  0  0  0  0  0  0  0  0
   23.1771    7.1976   14.5799 O   0  0  0  0  0  0  0  0  0  0  0  0
   22.5930    6.4780   16.8256 C   0  0  1  0  0  0  0  0  0  0  0  0
   16.3127    2.0604   14.6659 N   0  0  0  0  0  0  0  0  0  0  0  0
   21.3185    6.0887   16.2774 O   0  0  0  0  0  0  0  0  0  0  0  0
   21.3222    4.6643   16.0755 C   0  0  1  0  0  0  0  0  0  0  0  0
   14.6518    4.9864   19.8139 N   0  0  0  0  0  0  0  0  0  0  0  0
   20.5413    4.2877   14.9304 O   0  0  0  0  0  0  0  0  0  0  0  0
   19.9941    2.9635   15.0138 C   0  0  2  0  0  0  0  0  0  0  0  0
   18.3512    6.0034   15.2038 N   0  0  0  0  0  0  0  0  0  0  0  0
   21.8453    2.0322   13.7694 O   0  0  0  0  0  0  0  0  0  0  0  0
   20.4265    2.2116   13.7496 C   0  0  1  0  0  0  0  0  0  0  0  0
   18.0408    3.5122   16.4155 O   0  0  0  0  0  0  0  0  0  0  0  0
   19.7469    0.8430   13.6737 C   0  0  1  0  0  0  0  0  0  0  0  0
   16.1240    4.2151   17.5859 O   0  0  0  0  0  0  0  0  0  0  0  0
   18.2337    1.0396   13.5793 C   0  0  0  0  0  0  0  0  0  0  0  0
   18.0555    6.1298   20.0516 O   0  0  0  0  0  0  0  0  0  0  0  0
   17.7401    1.7523   14.8418 C   0  0  1  0  0  0  0  0  0  0  0  0
   18.4912    7.6089   17.6253 O   0  0  0  0  0  0  0  0  0  0  0  0
   18.4756    3.0693   15.1179 C   0  0  2  0  0  0  0  0  0  0  0  0
   23.1164    2.9820   15.9820 O   0  0  0  0  0  0  0  0  0  0  0  0
   16.9182    4.4080   16.4008 C   0  0  1  0  0  0  0  0  0  0  0  0
   23.4579    4.5492   18.0856 O   0  0  0  0  0  0  0  0  0  0  0  0
   16.8303    4.4557   18.8149 C   0  0  2  0  0  0  0  0  0  0  0  0
   15.8861    4.2054   19.9933 C   0  0  0  0  0  0  0  0  0  0  0  0
   17.2992    5.9112   18.8578 C   0  0  2  0  0  0  0  0  0  0  0  0
   18.1764    6.2125   17.6409 C   0  0  1  0  0  0  0  0  0  0  0  0
   17.4409    5.8475   16.3487 C   0  0  1  0  0  0  0  0  0  0  0  0
   22.7889    4.3587   15.7792 C   0  0  2  0  0  0  0  0  0  0  0  0
   23.4774    5.2279   16.8273 C   0  0  1  0  0  0  0  0  0  0  0  0
  1  3  1  0  0  0  0
  4  1  1  6  0  0  0
  4  6  1  0  0  0  0
  4 31  1  0  0  0  0
  6  7  1  0  0  0  0
  7  9  1  6  0  0  0
  7 30  1  0  0  0  0
  8 26  1  0  0  0  0
 10  9  1  6  0  0  0
 10 13  1  0  0  0  0
 10 21  1  0  0  0  0
 13 12  1  1  0  0  0
 13 15  1  0  0  0  0
 15  2  1  6  0  0  0
 15 17  1  0  0  0  0
 16 25  1  0  0  0  0
 16 23  1  0  0  0  0
 17 19  1  0  0  0  0
 19  5  1  6  0  0  0
 19 21  1  0  0  0  0
 21 14  1  1  0  0  0
 23 14  1  1  0  0  0
 23 29  1  0  0  0  0
 25 26  1  1  0  0  0
 25 27  1  0  0  0  0
 27 18  1  1  0  0  0
 27 28  1  0  0  0  0
 28 20  1  6  0  0  0
 28 29  1  0  0  0  0
 29 11  1  6  0  0  0
 30 22  1  1  0  0  0
 30 31  1  0  0  0  0
 31 24  1  1  0  0  0
M  END
>  <CHROM.1>
-48.18525191,-152.65771091,-125.94305404,148.20993436,141.88376186,-52.80670271
19.53432596,4.31854669,16.24219935,-0.48535060,0.31410150,0.71780732

>  <Name>
ligand

>  <RI>
0

>  <Rbt.Current_Directory>
/home/itssahil/PROJECTS/Mol_Feturizer/New_Systems/rnas/3DVV

>  <Rbt.Executable>
rbdock ($Id: //depot/dev/client3/rdock/2013.1/src/exe/rbdock.cxx#4 $)

>  <Rbt.Library>
libRbt.so (2013.1, Build901 2013/11/27)

>  <Rbt.Parameter_File>
/export/apps/rDock/src/rDock_2013.1_src/data/scripts/dock_solv.prm

>  <Rbt.Receptor>
prm/pocket_docking_2.prm

>  <SCORE>
-0.952799

>  <SCORE.INTER>
-6.93774

>  <SCORE.INTER.CONST>
1

>  <SCORE.INTER.POLAR>
0

>  <SCORE.INTER.ROT>
6

>  <SCORE.INTER.SOLV>
15.8035

>  <SCORE.INTER.VDW>
-17.493

>  <SCORE.INTER.norm>
-0.223798

>  <SCORE.INTRA>
5.98368

>  <SCORE.INTRA.DIHEDRAL>
9.00688

>  <SCORE.INTRA.DIHEDRAL.0>
10.8172

>  <SCORE.INTRA.POLAR>
0

>  <SCORE.INTRA.POLAR.0>
0

>  <SCORE.INTRA.REPUL>
0

>  <SCORE.INTRA.REPUL.0>
0

>  <SCORE.INTRA.SOLV>
2.3728

>  <SCORE.INTRA.SOLV.lig_0>
-80.3833

>  <SCORE.INTRA.VDW>
0.293841

>  <SCORE.INTRA.VDW.0>
-4.63762

>  <SCORE.INTRA.norm>
0.193022

>  <SCORE.RESTR>
0.00126334

>  <SCORE.RESTR.CAVITY>
0.00126334

>  <SCORE.RESTR.norm>
4.07528e-05

>  <SCORE.SYSTEM>
0

>  <SCORE.SYSTEM.CONST>
0

>  <SCORE.SYSTEM.DIHEDRAL>
0

>  <SCORE.SYSTEM.SOLV>
0

>  <SCORE.SYSTEM.norm>
0

>  <SCORE.heavy>
31

>  <SCORE.norm>
-0.0307355

>  <RMSD>
5.443

$$$$
ligand
 OpenBabel11021811473D
libRbt.so/2013.1/901 2013/11/27
 31 33  0  0  0  0  0  0  0  0999 V2000
   23.0920    7.6359   15.9254 C   0  0  0  0  0  0  0  0  0  0  0  0
   20.2372    0.0403   12.5767 N   0  0  0  0  0  0  0  0  0  0  0  0
   23.1106    7.2140   14.5578 O   0  0  0  0  0  0  0  0  0  0  0  0
   22.4773    6.5449   16.8058 C   0  0  1  0  0  0  0  0  0  0  0  0
   16.2954    1.9677   14.7332 N   0  0  0  0  0  0  0  0  0  0  0  0
   21.2140    6.1187   16.2592 O   0  0  0  0  0  0  0  0  0  0  0  0
   21.2495    4.6915   16.0813 C   0  0  1  0  0  0  0  0  0  0  0  0
   14.5754    4.9099   19.8314 N   0  0  0  0  0  0  0  0  0  0  0  0
   20.4820    4.2788   14.9396 O   0  0  0  0  0  0  0  0  0  0  0  0
   19.9609    2.9456   15.0445 C   0  0  2  0  0  0  0  0  0  0  0  0
   18.3099    5.9784   15.2615 N   0  0  0  0  0  0  0  0  0  0  0  0
   21.8216    2.0331   13.8004 O   0  0  0  0  0  0  0  0  0  0  0  0
   20.3996    2.1851   13.7877 C   0  0  1  0  0  0  0  0  0  0  0  0
   18.0065    3.4759   16.4516 O   0  0  0  0  0  0  0  0  0  0  0  0
   19.7459    0.8028   13.7346 C   0  0  1  0  0  0  0  0  0  0  0  0
   16.0715    4.1550   17.6062 O   0  0  0  0  0  0  0  0  0  0  0  0
   18.2286    0.9692   13.6477 C   0  0  0  0  0  0  0  0  0  0  0  0
   17.9608    6.0667   20.1066 O   0  0  0  0  0  0  0  0  0  0  0  0
   17.7295    1.6894   14.9038 C   0  0  1  0  0  0  0  0  0  0  0  0
   18.4109    7.5671   17.6959 O   0  0  0  0  0  0  0  0  0  0  0  0
   18.4414    3.0238   15.1572 C   0  0  2  0  0  0  0  0  0  0  0  0
   23.0804    3.0475   16.0234 O   0  0  0  0  0  0  0  0  0  0  0  0
   16.8770    4.3628   16.4312 C   0  0  1  0  0  0  0  0  0  0  0  0
   23.3784    4.6569   18.1016 O   0  0  0  0  0  0  0  0  0  0  0  0
   16.7625    4.3921   18.8445 C   0  0  2  0  0  0  0  0  0  0  0  0
   15.8077    4.1257   20.0107 C   0  0  0  0  0  0  0  0  0  0  0  0
   17.2193    5.8509   18.9030 C   0  0  2  0  0  0  0  0  0  0  0  0
   18.1072    6.1682   17.6979 C   0  0  1  0  0  0  0  0  0  0  0  0
   17.3886    5.8068   16.3953 C   0  0  1  0  0  0  0  0  0  0  0  0
   22.7239    4.4131   15.7961 C   0  0  2  0  0  0  0  0  0  0  0  0
   23.3887    5.3146   16.8321 C   0  0  1  0  0  0  0  0  0  0  0  0
  1  3  1  0  0  0  0
  4  1  1  6  0  0  0
  4  6  1  0  0  0  0
  4 31  1  0  0  0  0
  6  7  1  0  0  0  0
  7  9  1  6  0  0  0
  7 30  1  0  0  0  0
  8 26  1  0  0  0  0
 10  9  1  6  0  0  0
 10 13  1  0  0  0  0
 10 21  1  0  0  0  0
 13 12  1  1  0  0  0
 13 15  1  0  0  0  0
 15  2  1  6  0  0  0
 15 17  1  0  0  0  0
 16 25  1  0  0  0  0
 16 23  1  0  0  0  0
 17 19  1  0  0  0  0
 19  5  1  6  0  0  0
 19 21  1  0  0  0  0
 21 14  1  1  0  0  0
 23 14  1  1  0  0  0
 23 29  1  0  0  0  0
 25 26  1  1  0  0  0
 25 27  1  0  0  0  0
 27 18  1  1  0  0  0
 27 28  1  0  0  0  0
 28 20  1  6  0  0  0
 28 29  1  0  0  0  0
 29 11  1  6  0  0  0
 30 22  1  1  0  0  0
 30 31  1  0  0  0  0
 31 24  1  1  0  0  0
M  END
>  <CHROM.1>
-50.79715261,-152.52259835,-126.64582990,146.96891620,141.15689416,-53.44477194
19.47787197,4.30231274,16.27240307,-0.46871731,0.33410581,0.70549988

>  <Name>
ligand

>  <RI>
0

>  <Rbt.Current_Directory>
/home/itssahil/PROJECTS/Mol_Feturizer/New_Systems/rnas/3DVV

>  <Rbt.Executable>
rbdock ($Id: //depot/dev/client3/rdock/2013.1/src/exe/rbdock.cxx#4 $)

>  <Rbt.Library>
libRbt.so (2013.1, Build901 2013/11/27)

>  <Rbt.Parameter_File>
/export/apps/rDock/src/rDock_2013.1_src/data/scripts/dock_solv.prm

>  <Rbt.Receptor>
prm/pocket_docking_2.prm

>  <SCORE>
-0.926633

>  <SCORE.INTER>
-6.94158

>  <SCORE.INTER.CONST>
1

>  <SCORE.INTER.POLAR>
0

>  <SCORE.INTER.ROT>
6

>  <SCORE.INTER.SOLV>
16.1725

>  <SCORE.INTER.VDW>
-17.6185

>  <SCORE.INTER.norm>
-0.223922

>  <SCORE.INTRA>
6.00311

>  <SCORE.INTRA.DIHEDRAL>
9.12001

>  <SCORE.INTRA.DIHEDRAL.0>
10.8172

>  <SCORE.INTRA.POLAR>
0

>  <SCORE.INTRA.POLAR.0>
0

>  <SCORE.INTRA.REPUL>
0

>  <SCORE.INTRA.REPUL.0>
0

>  <SCORE.INTRA.SOLV>
2.46007

>  <SCORE.INTRA.SOLV.lig_0>
-80.3833

>  <SCORE.INTRA.VDW>
0.21307

>  <SCORE.INTRA.VDW.0>
-4.63762

>  <SCORE.INTRA.norm>
0.193649

>  <SCORE.RESTR>
0.011836

>  <SCORE.RESTR.CAVITY>
0.011836

>  <SCORE.RESTR.norm>
0.000381805

>  <SCORE.SYSTEM>
0

>  <SCORE.SYSTEM.CONST>
0

>  <SCORE.SYSTEM.DIHEDRAL>
0

>  <SCORE.SYSTEM.SOLV>
0

>  <SCORE.SYSTEM.norm>
0

>  <SCORE.heavy>
31

>  <SCORE.norm>
-0.0298914

>  <RMSD>
5.448

$$$$
ligand
 OpenBabel11021811473D
libRbt.so/2013.1/901 2013/11/27
 31 33  0  0  0  0  0  0  0  0999 V2000
   17.9001    2.7194   12.7767 C   0  0  0  0  0  0  0  0  0  0  0  0
   24.6626    3.7230   17.4825 N   0  0  0  0  0  0  0  0  0  0  0  0
   17.4799    4.0641   13.0293 O   0  0  0  0  0  0  0  0  0  0  0  0
   18.5845    2.1387   14.0167 C   0  0  1  0  0  0  0  0  0  0  0  0
   23.4845    8.0212   15.4722 N   0  0  0  0  0  0  0  0  0  0  0  0
   19.7197    2.9476   14.3821 O   0  0  0  0  0  0  0  0  0  0  0  0
   19.5769    3.3432   15.7579 C   0  0  1  0  0  0  0  0  0  0  0  0
   17.4544    9.1344   16.5530 N   0  0  0  0  0  0  0  0  0  0  0  0
   20.1299    4.6471   15.9962 O   0  0  0  0  0  0  0  0  0  0  0  0
   21.5046    4.7728   15.6031 C   0  0  2  0  0  0  0  0  0  0  0  0
   20.0535    6.7993   11.6775 N   0  0  0  0  0  0  0  0  0  0  0  0
   22.1091    2.7458   16.7729 O   0  0  0  0  0  0  0  0  0  0  0  0
   22.3554    4.1535   16.7180 C   0  0  1  0  0  0  0  0  0  0  0  0
   21.2521    6.7808   14.1942 O   0  0  0  0  0  0  0  0  0  0  0  0
   23.8443    4.3945   16.4612 C   0  0  1  0  0  0  0  0  0  0  0  0
   19.2376    7.3637   15.2620 O   0  0  0  0  0  0  0  0  0  0  0  0
   24.1180    5.8986   16.4753 C   0  0  0  0  0  0  0  0  0  0  0  0
   19.4513   10.8830   14.2398 O   0  0  0  0  0  0  0  0  0  0  0  0
   23.3217    6.5646   15.3493 C   0  0  1  0  0  0  0  0  0  0  0  0
   19.0411    9.5255   11.7391 O   0  0  0  0  0  0  0  0  0  0  0  0
   21.8214    6.2520   15.4046 C   0  0  2  0  0  0  0  0  0  0  0  0
   17.6712    3.3601   17.3154 O   0  0  0  0  0  0  0  0  0  0  0  0
   19.8197    6.7073   14.1206 C   0  0  1  0  0  0  0  0  0  0  0  0
   17.7958    1.0309   16.0676 O   0  0  0  0  0  0  0  0  0  0  0  0
   19.5759    8.7563   15.3776 C   0  0  2  0  0  0  0  0  0  0  0  0
   18.9107    9.3317   16.6302 C   0  0  0  0  0  0  0  0  0  0  0  0
   19.0580    9.5109   14.1519 C   0  0  2  0  0  0  0  0  0  0  0  0
   19.6415    8.8980   12.8771 C   0  0  1  0  0  0  0  0  0  0  0  0
   19.3596    7.3940   12.8302 C   0  0  1  0  0  0  0  0  0  0  0  0
   18.0628    3.4217   15.9419 C   0  0  2  0  0  0  0  0  0  0  0  0
   17.6215    2.1594   15.2072 C   0  0  1  0  0  0  0  0  0  0  0  0
  1  3  1  0  0  0  0
  4  1  1  6  0  0  0
  4  6  1  0  0  0  0
  4 31  1  0  0  0  0
  6  7  1  0  0  0  0
  7  9  1  6  0  0  0
  7 30  1  0  0  0  0
  8 26  1  0  0  0  0
 10  9  1  1  0  0  0
 10 13  1  0  0  0  0
 10 21  1  0  0  0  0
 13 12  1  6  0  0  0
 13 15  1  0  0  0  0
 15  2  1  1  0  0  0
 15 17  1  0  0  0  0
 16 25  1  0  0  0  0
 16 23  1  0  0  0  0
 17 19  1  0  0  0  0
 19  5  1  1  0  0  0
 19 21  1  0  0  0  0
 21 14  1  6  0  0  0
 23 14  1  1  0  0  0
 23 29  1  0  0  0  0
 25 26  1  1  0  0  0
 25 27  1  0  0  0  0
 27 18  1  1  0  0  0
 27 28  1  0  0  0  0
 28 20  1  6  0  0  0
 28 29  1  0  0  0  0
 29 11  1  6  0  0  0
 30 22  1  1  0  0  0
 30 31  1  0  0  0  0
 31 24  1  1  0  0  0
M  END
>  <CHROM.1>
-58.56323684,-55.46600310,-79.98712090,55.66248668,60.65683331,-57.55228727
20.11000013,5.71012994,15.02401038,1.55085106,0.40182086,2.89696600

>  <Name>
ligand

>  <RI>
0

>  <Rbt.Current_Directory>
/home/itssahil/PROJECTS/Mol_Feturizer/New_Systems/rnas/3DVV

>  <Rbt.Executable>
rbdock ($Id: //depot/dev/client3/rdock/2013.1/src/exe/rbdock.cxx#4 $)

>  <Rbt.Library>
libRbt.so (2013.1, Build901 2013/11/27)

>  <Rbt.Parameter_File>
/export/apps/rDock/src/rDock_2013.1_src/data/scripts/dock_solv.prm

>  <Rbt.Receptor>
prm/pocket_docking_7.prm

>  <SCORE>
-8.52776

>  <SCORE.INTER>
-5.23376

>  <SCORE.INTER.CONST>
1

>  <SCORE.INTER.POLAR>
0

>  <SCORE.INTER.ROT>
6

>  <SCORE.INTER.SOLV>
23.7652

>  <SCORE.INTER.VDW>
-19.0109

>  <SCORE.INTER.norm>
-0.168831

>  <SCORE.INTRA>
-3.294

>  <SCORE.INTRA.DIHEDRAL>
-8.52505

>  <SCORE.INTRA.DIHEDRAL.0>
10.8172

>  <SCORE.INTRA.POLAR>
0

>  <SCORE.INTRA.POLAR.0>
0

>  <SCORE.INTRA.REPUL>
0

>  <SCORE.INTRA.REPUL.0>
0

>  <SCORE.INTRA.SOLV>
-2.16996

>  <SCORE.INTRA.SOLV.lig_0>
-80.3833

>  <SCORE.INTRA.VDW>
2.0535

>  <SCORE.INTRA.VDW.0>
-4.63762

>  <SCORE.INTRA.norm>
-0.106258

>  <SCORE.RESTR>
0

>  <SCORE.RESTR.CAVITY>
0

>  <SCORE.RESTR.norm>
0

>  <SCORE.SYSTEM>
0

>  <SCORE.SYSTEM.CONST>
0

>  <SCORE.SYSTEM.DIHEDRAL>
0

>  <SCORE.SYSTEM.SOLV>
0

>  <SCORE.SYSTEM.norm>
0

>  <SCORE.heavy>
31

>  <SCORE.norm>
-0.275089

>  <RMSD>
5.465

$$$$
ligand
 OpenBabel11021811473D
libRbt.so/2013.1/901 2013/11/27
 31 33  0  0  0  0  0  0  0  0999 V2000
   20.1392    1.7259   14.0251 C   0  0  0  0  0  0  0  0  0  0  0  0
   15.3561    3.7619   20.6870 N   0  0  0  0  0  0  0  0  0  0  0  0
   20.1065    3.0886   13.5882 O   0  0  0  0  0  0  0  0  0  0  0  0
   18.8588    1.3871   14.7926 C   0  0  1  0  0  0  0  0  0  0  0  0
   18.2494    7.5652   19.6539 N   0  0  0  0  0  0  0  0  0  0  0  0
   18.6926    2.2889   15.9041 O   0  0  0  0  0  0  0  0  0  0  0  0
   17.3950    2.9024   15.8064 C   0  0  1  0  0  0  0  0  0  0  0  0
   18.1280    8.9296   13.6632 N   0  0  0  0  0  0  0  0  0  0  0  0
   17.4042    4.2483   16.3079 O   0  0  0  0  0  0  0  0  0  0  0  0
   17.6851    4.3401   17.7124 C   0  0  2  0  0  0  0  0  0  0  0  0
   21.9988    5.4039   16.5889 N   0  0  0  0  0  0  0  0  0  0  0  0
   16.0994    2.5898   18.2268 O   0  0  0  0  0  0  0  0  0  0  0  0
   16.3987    3.9688   18.4593 C   0  0  1  0  0  0  0  0  0  0  0  0
   19.4684    6.0375   17.5717 O   0  0  0  0  0  0  0  0  0  0  0  0
   16.5579    4.2030   19.9628 C   0  0  1  0  0  0  0  0  0  0  0  0
   18.7720    6.8938   15.4932 O   0  0  0  0  0  0  0  0  0  0  0  0
   16.8057    5.6905   20.2146 C   0  0  0  0  0  0  0  0  0  0  0  0
   20.6527   10.0205   15.8965 O   0  0  0  0  0  0  0  0  0  0  0  0
   18.1068    6.1073   19.5225 C   0  0  1  0  0  0  0  0  0  0  0  0
   22.7396    8.0577   15.6567 O   0  0  0  0  0  0  0  0  0  0  0  0
   18.1319    5.7644   18.0280 C   0  0  2  0  0  0  0  0  0  0  0  0
   15.7621    3.1048   13.9760 O   0  0  0  0  0  0  0  0  0  0  0  0
   19.6469    5.9571   16.1489 C   0  0  1  0  0  0  0  0  0  0  0  0
   16.6145    0.6068   14.1524 O   0  0  0  0  0  0  0  0  0  0  0  0
   18.9937    8.2656   15.8620 C   0  0  2  0  0  0  0  0  0  0  0  0
   17.9983    9.1539   15.1118 C   0  0  0  0  0  0  0  0  0  0  0  0
   20.4146    8.6761   15.4712 C   0  0  2  0  0  0  0  0  0  0  0  0
   21.4288    7.7465   16.1408 C   0  0  1  0  0  0  0  0  0  0  0  0
   21.1070    6.2847   15.8191 C   0  0  1  0  0  0  0  0  0  0  0  0
   17.1459    2.9518   14.3004 C   0  0  2  0  0  0  0  0  0  0  0  0
   17.6384    1.5685   13.8857 C   0  0  1  0  0  0  0  0  0  0  0  0
  1  3  1  0  0  0  0
  4  1  1  6  0  0  0
  4  6  1  0  0  0  0
  4 31  1  0  0  0  0
  6  7  1  0  0  0  0
  7  9  1  6  0  0  0
  7 30  1  0  0  0  0
  8 26  1  0  0  0  0
 10  9  1  6  0  0  0
 10 13  1  0  0  0  0
 10 21  1  0  0  0  0
 13 12  1  1  0  0  0
 13 15  1  0  0  0  0
 15  2  1  1  0  0  0
 15 17  1  0  0  0  0
 16 25  1  0  0  0  0
 16 23  1  0  0  0  0
 17 19  1  0  0  0  0
 19  5  1  6  0  0  0
 19 21  1  0  0  0  0
 21 14  1  1  0  0  0
 23 14  1  1  0  0  0
 23 29  1  0  0  0  0
 25 26  1  6  0  0  0
 25 27  1  0  0  0  0
 27 18  1  1  0  0  0
 27 28  1  0  0  0  0
 28 20  1  6  0  0  0
 28 29  1  0  0  0  0
 29 11  1  1  0  0  0
 30 22  1  1  0  0  0
 30 31  1  0  0  0  0
 31 24  1  1  0  0  0
M  END
>  <CHROM.1>
-56.85346037,-64.59586184,-77.99126415,59.08541673,62.92846583,-56.21674846
18.53647877,5.12241132,16.36943075,-2.39319126,0.89536671,0.72497846

>  <Name>
ligand

>  <RI>
0

>  <Rbt.Current_Directory>
/home/itssahil/PROJECTS/Mol_Feturizer/New_Systems/rnas/3DVV

>  <Rbt.Executable>
rbdock ($Id: //depot/dev/client3/rdock/2013.1/src/exe/rbdock.cxx#4 $)

>  <Rbt.Library>
libRbt.so (2013.1, Build901 2013/11/27)

>  <Rbt.Parameter_File>
/export/apps/rDock/src/rDock_2013.1_src/data/scripts/dock_solv.prm

>  <Rbt.Receptor>
prm/pocket_docking_4.prm

>  <SCORE>
-8.15218

>  <SCORE.INTER>
-4.55332

>  <SCORE.INTER.CONST>
1

>  <SCORE.INTER.POLAR>
0

>  <SCORE.INTER.ROT>
6

>  <SCORE.INTER.SOLV>
15.8475

>  <SCORE.INTER.VDW>
-15.918

>  <SCORE.INTER.norm>
-0.146881

>  <SCORE.INTRA>
-3.59887

>  <SCORE.INTRA.DIHEDRAL>
-8.82701

>  <SCORE.INTRA.DIHEDRAL.0>
10.8172

>  <SCORE.INTRA.POLAR>
0

>  <SCORE.INTRA.POLAR.0>
0

>  <SCORE.INTRA.REPUL>
0

>  <SCORE.INTRA.REPUL.0>
0

>  <SCORE.INTRA.SOLV>
-2.39912

>  <SCORE.INTRA.SOLV.lig_0>
-80.3833

>  <SCORE.INTRA.VDW>
2.01419

>  <SCORE.INTRA.VDW.0>
-4.63762

>  <SCORE.INTRA.norm>
-0.116093

>  <SCORE.RESTR>
0

>  <SCORE.RESTR.CAVITY>
0

>  <SCORE.RESTR.norm>
0

>  <SCORE.SYSTEM>
0

>  <SCORE.SYSTEM.CONST>
0

>  <SCORE.SYSTEM.DIHEDRAL>
0

>  <SCORE.SYSTEM.SOLV>
0

>  <SCORE.SYSTEM.norm>
0

>  <SCORE.heavy>
31

>  <SCORE.norm>
-0.262974

>  <RMSD>
5.474

$$$$
ligand
 OpenBabel11021811473D
libRbt.so/2013.1/901 2013/11/27
 31 33  0  0  0  0  0  0  0  0999 V2000
   20.5439    0.0475   13.4083 C   0  0  0  0  0  0  0  0  0  0  0  0
   14.9388    3.1121   18.3849 N   0  0  0  0  0  0  0  0  0  0  0  0
   20.7895   -0.9494   12.4109 O   0  0  0  0  0  0  0  0  0  0  0  0
   19.0381    0.2651   13.5771 C   0  0  1  0  0  0  0  0  0  0  0  0
   18.6382    6.2889   18.7391 N   0  0  0  0  0  0  0  0  0  0  0  0
   18.7861    1.1626   14.6759 O   0  0  0  0  0  0  0  0  0  0  0  0
   17.9748    2.2518   14.2013 C   0  0  1  0  0  0  0  0  0  0  0  0
   20.2065    7.8821   13.0478 N   0  0  0  0  0  0  0  0  0  0  0  0
   18.2835    3.4796   14.8798 O   0  0  0  0  0  0  0  0  0  0  0  0
   18.1317    3.4063   16.3052 C   0  0  2  0  0  0  0  0  0  0  0  0
   22.7833    3.8366   16.6496 N   0  0  0  0  0  0  0  0  0  0  0  0
   16.1796    1.9949   16.1065 O   0  0  0  0  0  0  0  0  0  0  0  0
   16.6338    3.2594   16.5966 C   0  0  1  0  0  0  0  0  0  0  0  0
   20.1445    4.6973   16.9079 O   0  0  0  0  0  0  0  0  0  0  0  0
   16.3632    3.3433   18.1002 C   0  0  1  0  0  0  0  0  0  0  0  0
   20.1862    5.7595   14.8083 O   0  0  0  0  0  0  0  0  0  0  0  0
   16.7826    4.7229   18.6083 C   0  0  0  0  0  0  0  0  0  0  0  0
   22.1401    8.6134   16.0388 O   0  0  0  0  0  0  0  0  0  0  0  0
   18.2856    4.9071   18.3791 C   0  0  1  0  0  0  0  0  0  0  0  0
   24.0118    6.4398   16.2315 O   0  0  0  0  0  0  0  0  0  0  0  0
   18.7064    4.6779   16.9224 C   0  0  2  0  0  0  0  0  0  0  0  0
   17.4343    3.0927   11.9522 O   0  0  0  0  0  0  0  0  0  0  0  0
   20.7335    4.6874   15.5980 C   0  0  1  0  0  0  0  0  0  0  0  0
   17.1358    0.4653   12.0289 O   0  0  0  0  0  0  0  0  0  0  0  0
   20.4130    7.0699   15.3549 C   0  0  2  0  0  0  0  0  0  0  0  0
   19.7752    8.1141   14.4355 C   0  0  0  0  0  0  0  0  0  0  0  0
   21.9172    7.3357   15.4363 C   0  0  2  0  0  0  0  0  0  0  0  0
   22.5933    6.2534   16.2805 C   0  0  1  0  0  0  0  0  0  0  0  0
   22.2490    4.8626   15.7410 C   0  0  1  0  0  0  0  0  0  0  0  0
   18.3979    2.3900   12.7404 C   0  0  2  0  0  0  0  0  0  0  0  0
   18.4579    0.9238   12.3223 C   0  0  1  0  0  0  0  0  0  0  0  0
  1  3  1  0  0  0  0
  4  1  1  6  0  0  0
  4  6  1  0  0  0  0
  4 31  1  0  0  0  0
  6  7  1  0  0  0  0
  7  9  1  1  0  0  0
  7 30  1  0  0  0  0
  8 26  1  0  0  0  0
 10  9  1  6  0  0  0
 10 13  1  0  0  0  0
 10 21  1  0  0  0  0
 13 12  1  1  0  0  0
 13 15  1  0  0  0  0
 15  2  1  6  0  0  0
 15 17  1  0  0  0  0
 16 25  1  0  0  0  0
 16 23  1  0  0  0  0
 17 19  1  0  0  0  0
 19  5  1  6  0  0  0
 19 21  1  0  0  0  0
 21 14  1  1  0  0  0
 23 14  1  1  0  0  0
 23 29  1  0  0  0  0
 25 26  1  6  0  0  0
 25 27  1  0  0  0  0
 27 18  1  1  0  0  0
 27 28  1  0  0  0  0
 28 20  1  6  0  0  0
 28 29  1  0  0  0  0
 29 11  1  1  0  0  0
 30 22  1  6  0  0  0
 30 31  1  0  0  0  0
 31 24  1  1  0  0  0
M  END
>  <CHROM.1>
173.96936273,-57.59548411,-68.39751989,53.61299134,62.96761870,-50.45943780
19.32139883,3.98963827,15.34273085,-2.15286805,0.55723992,0.72322562

>  <Name>
ligand

>  <RI>
0

>  <Rbt.Current_Directory>
/home/itssahil/PROJECTS/Mol_Feturizer/New_Systems/rnas/3DVV

>  <Rbt.Executable>
rbdock ($Id: //depot/dev/client3/rdock/2013.1/src/exe/rbdock.cxx#4 $)

>  <Rbt.Library>
libRbt.so (2013.1, Build901 2013/11/27)

>  <Rbt.Parameter_File>
/export/apps/rDock/src/rDock_2013.1_src/data/scripts/dock_solv.prm

>  <Rbt.Receptor>
prm/pocket_docking_4.prm

>  <SCORE>
-7.92124

>  <SCORE.INTER>
-5.08169

>  <SCORE.INTER.CONST>
1

>  <SCORE.INTER.POLAR>
0

>  <SCORE.INTER.ROT>
6

>  <SCORE.INTER.SOLV>
17.0596

>  <SCORE.INTER.VDW>
-16.6743

>  <SCORE.INTER.norm>
-0.163925

>  <SCORE.INTRA>
-2.83955

>  <SCORE.INTRA.DIHEDRAL>
-9.48256

>  <SCORE.INTRA.DIHEDRAL.0>
10.8172

>  <SCORE.INTRA.POLAR>
0

>  <SCORE.INTRA.POLAR.0>
0

>  <SCORE.INTRA.REPUL>
0

>  <SCORE.INTRA.REPUL.0>
0

>  <SCORE.INTRA.SOLV>
-3.02677

>  <SCORE.INTRA.SOLV.lig_0>
-80.3833

>  <SCORE.INTRA.VDW>
3.41512

>  <SCORE.INTRA.VDW.0>
-4.63762

>  <SCORE.INTRA.norm>
-0.0915983

>  <SCORE.RESTR>
0

>  <SCORE.RESTR.CAVITY>
0

>  <SCORE.RESTR.norm>
0

>  <SCORE.SYSTEM>
0

>  <SCORE.SYSTEM.CONST>
0

>  <SCORE.SYSTEM.DIHEDRAL>
0

>  <SCORE.SYSTEM.SOLV>
0

>  <SCORE.SYSTEM.norm>
0

>  <SCORE.heavy>
31

>  <SCORE.norm>
-0.255524

>  <RMSD>
5.487

$$$$
ligand
 OpenBabel11021811473D
libRbt.so/2013.1/901 2013/11/27
 31 33  0  0  0  0  0  0  0  0999 V2000
   11.7440    5.5487   19.6128 C   0  0  0  0  0  0  0  0  0  0  0  0
   13.5534    3.9005   11.6942 N   0  0  0  0  0  0  0  0  0  0  0  0
   10.9836    5.1412   20.7550 O   0  0  0  0  0  0  0  0  0  0  0  0
   11.6923    4.4666   18.5313 C   0  0  1  0  0  0  0  0  0  0  0  0
   16.7797    7.2665   13.1654 N   0  0  0  0  0  0  0  0  0  0  0  0
   12.3789    4.9154   17.3465 O   0  0  0  0  0  0  0  0  0  0  0  0
   13.3785    3.9408   16.9991 C   0  0  1  0  0  0  0  0  0  0  0  0
   20.5655    7.3242   15.8851 N   0  0  0  0  0  0  0  0  0  0  0  0
   14.5353    4.5533   16.4078 O   0  0  0  0  0  0  0  0  0  0  0  0
   14.2552    5.2663   15.1941 C   0  0  2  0  0  0  0  0  0  0  0  0
   14.4998    8.9613   17.7329 N   0  0  0  0  0  0  0  0  0  0  0  0
   12.8164    3.4977   14.3911 O   0  0  0  0  0  0  0  0  0  0  0  0
   14.0142    4.2221   14.0978 C   0  0  1  0  0  0  0  0  0  0  0  0
   15.5195    7.3152   15.7277 O   0  0  0  0  0  0  0  0  0  0  0  0
   13.8741    4.8940   12.7303 C   0  0  1  0  0  0  0  0  0  0  0  0
   17.1995    6.4719   17.1436 O   0  0  0  0  0  0  0  0  0  0  0  0
   15.1820    5.6072   12.3864 C   0  0  0  0  0  0  0  0  0  0  0  0
   19.2531    9.5039   16.8865 O   0  0  0  0  0  0  0  0  0  0  0  0
   15.4511    6.6943   13.4312 C   0  0  1  0  0  0  0  0  0  0  0  0
   16.9405   10.4304   18.3210 O   0  0  0  0  0  0  0  0  0  0  0  0
   15.4462    6.1630   14.8697 C   0  0  2  0  0  0  0  0  0  0  0  0
   14.4215    2.0853   18.2348 O   0  0  0  0  0  0  0  0  0  0  0  0
   15.8734    7.0296   17.0900 C   0  0  1  0  0  0  0  0  0  0  0  0
   11.7949    2.0079   18.5390 O   0  0  0  0  0  0  0  0  0  0  0  0
   18.2239    7.3352   16.6214 C   0  0  2  0  0  0  0  0  0  0  0  0
   19.5766    6.6263   16.7221 C   0  0  0  0  0  0  0  0  0  0  0  0
   18.2773    8.6217   17.4473 C   0  0  2  0  0  0  0  0  0  0  0  0
   16.9092    9.3068   17.4347 C   0  0  1  0  0  0  0  0  0  0  0  0
   15.8203    8.3333   17.8935 C   0  0  1  0  0  0  0  0  0  0  0  0
   13.7812    3.3580   18.3521 C   0  0  2  0  0  0  0  0  0  0  0  0
   12.4149    3.2057   19.0138 C   0  0  1  0  0  0  0  0  0  0  0  0
  1  3  1  0  0  0  0
  4  1  1  1  0  0  0
  4  6  1  0  0  0  0
  4 31  1  0  0  0  0
  6  7  1  0  0  0  0
  7  9  1  1  0  0  0
  7 30  1  0  0  0  0
  8 26  1  0  0  0  0
 10  9  1  1  0  0  0
 10 13  1  0  0  0  0
 10 21  1  0  0  0  0
 13 12  1  1  0  0  0
 13 15  1  0  0  0  0
 15  2  1  6  0  0  0
 15 17  1  0  0  0  0
 16 25  1  0  0  0  0
 16 23  1  0  0  0  0
 17 19  1  0  0  0  0
 19  5  1  6  0  0  0
 19 21  1  0  0  0  0
 21 14  1  1  0  0  0
 23 14  1  6  0  0  0
 23 29  1  0  0  0  0
 25 26  1  1  0  0  0
 25 27  1  0  0  0  0
 27 18  1  6  0  0  0
 27 28  1  0  0  0  0
 28 20  1  1  0  0  0
 28 29  1  0  0  0  0
 29 11  1  6  0  0  0
 30 22  1  6  0  0  0
 30 31  1  0  0  0  0
 31 24  1  6  0  0  0
M  END
>  <CHROM.1>
175.99143616,-60.62910152,-73.90468447,63.33286695,69.98387730,165.11371149
15.05115472,5.92034762,16.51570638,3.10685128,-0.70391036,-1.88956842

>  <Name>
ligand

>  <RI>
0

>  <Rbt.Current_Directory>
/home/itssahil/PROJECTS/Mol_Feturizer/New_Systems/rnas/3DVV

>  <Rbt.Executable>
rbdock ($Id: //depot/dev/client3/rdock/2013.1/src/exe/rbdock.cxx#4 $)

>  <Rbt.Library>
libRbt.so (2013.1, Build901 2013/11/27)

>  <Rbt.Parameter_File>
/export/apps/rDock/src/rDock_2013.1_src/data/scripts/dock_solv.prm

>  <Rbt.Receptor>
prm/pocket_docking_6.prm

>  <SCORE>
-8.18692

>  <SCORE.INTER>
-4.86441

>  <SCORE.INTER.CONST>
1

>  <SCORE.INTER.POLAR>
0

>  <SCORE.INTER.ROT>
6

>  <SCORE.INTER.SOLV>
12.4219

>  <SCORE.INTER.VDW>
-14.9836

>  <SCORE.INTER.norm>
-0.156916

>  <SCORE.INTRA>
-3.32251

>  <SCORE.INTRA.DIHEDRAL>
-8.29257

>  <SCORE.INTRA.DIHEDRAL.0>
10.8172

>  <SCORE.INTRA.POLAR>
0

>  <SCORE.INTRA.POLAR.0>
0

>  <SCORE.INTRA.REPUL>
0

>  <SCORE.INTRA.REPUL.0>
0

>  <SCORE.INTRA.SOLV>
-3.25783

>  <SCORE.INTRA.SOLV.lig_0>
-80.3833

>  <SCORE.INTRA.VDW>
2.45269

>  <SCORE.INTRA.VDW.0>
-4.63762

>  <SCORE.INTRA.norm>
-0.107178

>  <SCORE.RESTR>
0

>  <SCORE.RESTR.CAVITY>
0

>  <SCORE.RESTR.norm>
0

>  <SCORE.SYSTEM>
0

>  <SCORE.SYSTEM.CONST>
0

>  <SCORE.SYSTEM.DIHEDRAL>
0

>  <SCORE.SYSTEM.SOLV>
0

>  <SCORE.SYSTEM.norm>
0

>  <SCORE.heavy>
31

>  <SCORE.norm>
-0.264094

>  <RMSD>
5.497

$$$$
ligand
 OpenBabel11021811473D
libRbt.so/2013.1/901 2013/11/27
 31 33  0  0  0  0  0  0  0  0999 V2000
   23.6754    7.3856   15.6187 C   0  0  0  0  0  0  0  0  0  0  0  0
   20.4035    0.0815   12.6423 N   0  0  0  0  0  0  0  0  0  0  0  0
   24.9759    7.6548   16.1526 O   0  0  0  0  0  0  0  0  0  0  0  0
   22.8738    6.5195   16.5936 C   0  0  1  0  0  0  0  0  0  0  0  0
   16.4379    2.0087   14.7549 N   0  0  0  0  0  0  0  0  0  0  0  0
   21.5745    6.2257   16.0441 O   0  0  0  0  0  0  0  0  0  0  0  0
   21.3908    4.7988   16.0395 C   0  0  1  0  0  0  0  0  0  0  0  0
   14.6701    5.0020   19.8025 N   0  0  0  0  0  0  0  0  0  0  0  0
   20.5992    4.3684   14.9210 O   0  0  0  0  0  0  0  0  0  0  0  0
   20.0923    3.0320   15.0516 C   0  0  2  0  0  0  0  0  0  0  0  0
   18.3791    6.0546   15.2082 N   0  0  0  0  0  0  0  0  0  0  0  0
   21.9645    2.1150   13.8283 O   0  0  0  0  0  0  0  0  0  0  0  0
   20.5410    2.2514   13.8107 C   0  0  1  0  0  0  0  0  0  0  0  0
   18.1301    3.5690   16.4453 O   0  0  0  0  0  0  0  0  0  0  0  0
   19.9023    0.8614   13.7842 C   0  0  1  0  0  0  0  0  0  0  0  0
   16.1791    4.2264   17.5853 O   0  0  0  0  0  0  0  0  0  0  0  0
   18.3834    1.0097   13.6920 C   0  0  0  0  0  0  0  0  0  0  0  0
   18.0223    6.2269   20.0505 O   0  0  0  0  0  0  0  0  0  0  0  0
   17.8747    1.7493   14.9329 C   0  0  1  0  0  0  0  0  0  0  0  0
   18.4417    7.6910   17.6122 O   0  0  0  0  0  0  0  0  0  0  0  0
   18.5718    3.0960   15.1608 C   0  0  2  0  0  0  0  0  0  0  0  0
   22.9422    2.9011   16.2624 O   0  0  0  0  0  0  0  0  0  0  0  0
   16.9811    4.4299   16.4073 C   0  0  1  0  0  0  0  0  0  0  0  0
   23.4326    4.6932   18.1454 O   0  0  0  0  0  0  0  0  0  0  0  0
   16.8631    4.5024   18.8195 C   0  0  2  0  0  0  0  0  0  0  0  0
   15.9131    4.2368   19.9897 C   0  0  0  0  0  0  0  0  0  0  0  0
   17.2872    5.9718   18.8506 C   0  0  2  0  0  0  0  0  0  0  0  0
   18.1692    6.2859   17.6405 C   0  0  1  0  0  0  0  0  0  0  0  0
   17.4605    5.8840   16.3443 C   0  0  1  0  0  0  0  0  0  0  0  0
   22.8105    4.2658   15.8577 C   0  0  2  0  0  0  0  0  0  0  0  0
   23.5801    5.1779   16.8084 C   0  0  1  0  0  0  0  0  0  0  0  0
  1  3  1  0  0  0  0
  4  1  1  6  0  0  0
  4  6  1  0  0  0  0
  4 31  1  0  0  0  0
  6  7  1  0  0  0  0
  7  9  1  6  0  0  0
  7 30  1  0  0  0  0
  8 26  1  0  0  0  0
 10  9  1  6  0  0  0
 10 13  1  0  0  0  0
 10 21  1  0  0  0  0
 13 12  1  1  0  0  0
 13 15  1  0  0  0  0
 15  2  1  6  0  0  0
 15 17  1  0  0  0  0
 16 25  1  0  0  0  0
 16 23  1  0  0  0  0
 17 19  1  0  0  0  0
 19  5  1  6  0  0  0
 19 21  1  0  0  0  0
 21 14  1  1  0  0  0
 23 14  1  1  0  0  0
 23 29  1  0  0  0  0
 25 26  1  1  0  0  0
 25 27  1  0  0  0  0
 27 18  1  1  0  0  0
 27 28  1  0  0  0  0
 28 20  1  6  0  0  0
 28 29  1  0  0  0  0
 29 11  1  6  0  0  0
 30 22  1  1  0  0  0
 30 31  1  0  0  0  0
 31 24  1  1  0  0  0
M  END
>  <CHROM.1>
-178.82579592,-164.46079521,-125.05138599,146.62538643,141.88848309,-54.09621786
19.67576499,4.36432365,16.30895321,-0.27178482,0.29287399,0.70176804

>  <Name>
ligand

>  <RI>
0

>  <Rbt.Current_Directory>
/home/itssahil/PROJECTS/Mol_Feturizer/New_Systems/rnas/3DVV

>  <Rbt.Executable>
rbdock ($Id: //depot/dev/client3/rdock/2013.1/src/exe/rbdock.cxx#4 $)

>  <Rbt.Library>
libRbt.so (2013.1, Build901 2013/11/27)

>  <Rbt.Parameter_File>
/export/apps/rDock/src/rDock_2013.1_src/data/scripts/dock_solv.prm

>  <Rbt.Receptor>
prm/pocket_docking_2.prm

>  <SCORE>
-1.88647

>  <SCORE.INTER>
-7.0929

>  <SCORE.INTER.CONST>
1

>  <SCORE.INTER.POLAR>
0

>  <SCORE.INTER.ROT>
6

>  <SCORE.INTER.SOLV>
16.6013

>  <SCORE.INTER.VDW>
-17.8624

>  <SCORE.INTER.norm>
-0.228803

>  <SCORE.INTRA>
5.15573

>  <SCORE.INTRA.DIHEDRAL>
6.91427

>  <SCORE.INTRA.DIHEDRAL.0>
10.8172

>  <SCORE.INTRA.POLAR>
0

>  <SCORE.INTRA.POLAR.0>
0

>  <SCORE.INTRA.REPUL>
0

>  <SCORE.INTRA.REPUL.0>
0

>  <SCORE.INTRA.SOLV>
1.73492

>  <SCORE.INTRA.SOLV.lig_0>
-80.3833

>  <SCORE.INTRA.VDW>
0.831134

>  <SCORE.INTRA.VDW.0>
-4.63762

>  <SCORE.INTRA.norm>
0.166314

>  <SCORE.RESTR>
0.0506924

>  <SCORE.RESTR.CAVITY>
0.0506924

>  <SCORE.RESTR.norm>
0.00163524

>  <SCORE.SYSTEM>
0

>  <SCORE.SYSTEM.CONST>
0

>  <SCORE.SYSTEM.DIHEDRAL>
0

>  <SCORE.SYSTEM.SOLV>
0

>  <SCORE.SYSTEM.norm>
0

>  <SCORE.heavy>
31

>  <SCORE.norm>
-0.060854

>  <RMSD>
5.500

$$$$
ligand
 OpenBabel11021811473D
libRbt.so/2013.1/901 2013/11/27
 31 33  0  0  0  0  0  0  0  0999 V2000
   20.5714    0.0954   13.4268 C   0  0  0  0  0  0  0  0  0  0  0  0
   14.7374    3.2029   18.2755 N   0  0  0  0  0  0  0  0  0  0  0  0
   20.8199   -0.9198   12.4488 O   0  0  0  0  0  0  0  0  0  0  0  0
   19.0646    0.2936   13.6102 C   0  0  1  0  0  0  0  0  0  0  0  0
   18.4896    6.2864   18.8386 N   0  0  0  0  0  0  0  0  0  0  0  0
   18.8111    1.1718   14.7242 O   0  0  0  0  0  0  0  0  0  0  0  0
   17.9842    2.2588   14.2722 C   0  0  1  0  0  0  0  0  0  0  0  0
   18.4103    7.7233   14.2915 N   0  0  0  0  0  0  0  0  0  0  0  0
   18.2845    3.4797   14.9666 O   0  0  0  0  0  0  0  0  0  0  0  0
   18.0500    3.4130   16.3810 C   0  0  2  0  0  0  0  0  0  0  0  0
   22.6964    3.7586   17.0416 N   0  0  0  0  0  0  0  0  0  0  0  0
   16.0774    2.0506   16.0721 O   0  0  0  0  0  0  0  0  0  0  0  0
   16.5347    3.3042   16.5867 C   0  0  1  0  0  0  0  0  0  0  0  0
   20.0571    4.6540   17.0969 O   0  0  0  0  0  0  0  0  0  0  0  0
   16.1811    3.3977   18.0723 C   0  0  1  0  0  0  0  0  0  0  0  0
   20.2283    5.5841   14.9419 O   0  0  0  0  0  0  0  0  0  0  0  0
   16.6055    4.7673   18.6030 C   0  0  0  0  0  0  0  0  0  0  0  0
   22.1420    8.4933   16.1039 O   0  0  0  0  0  0  0  0  0  0  0  0
   18.1233    4.9133   18.4597 C   0  0  1  0  0  0  0  0  0  0  0  0
   23.9755    6.3214   16.5350 O   0  0  0  0  0  0  0  0  0  0  0  0
   18.6204    4.6708   17.0294 C   0  0  2  0  0  0  0  0  0  0  0  0
   17.4171    3.1269   12.0400 O   0  0  0  0  0  0  0  0  0  0  0  0
   20.7183    4.5586   15.8255 C   0  0  1  0  0  0  0  0  0  0  0  0
   17.1483    0.4956   12.0796 O   0  0  0  0  0  0  0  0  0  0  0  0
   20.4387    6.9239   15.4191 C   0  0  2  0  0  0  0  0  0  0  0  0
   19.8652    7.9143   14.4029 C   0  0  0  0  0  0  0  0  0  0  0  0
   21.9390    7.1827   15.5691 C   0  0  2  0  0  0  0  0  0  0  0  0
   22.5545    6.1494   16.5149 C   0  0  1  0  0  0  0  0  0  0  0  0
   22.2254    4.7306   16.0430 C   0  0  1  0  0  0  0  0  0  0  0  0
   18.3944    2.4234   12.8102 C   0  0  2  0  0  0  0  0  0  0  0  0
   18.4675    0.9644   12.3698 C   0  0  1  0  0  0  0  0  0  0  0  0
  1  3  1  0  0  0  0
  4  1  1  6  0  0  0
  4  6  1  0  0  0  0
  4 31  1  0  0  0  0
  6  7  1  0  0  0  0
  7  9  1  1  0  0  0
  7 30  1  0  0  0  0
  8 26  1  0  0  0  0
 10  9  1  6  0  0  0
 10 13  1  0  0  0  0
 10 21  1  0  0  0  0
 13 12  1  1  0  0  0
 13 15  1  0  0  0  0
 15  2  1  6  0  0  0
 15 17  1  0  0  0  0
 16 25  1  0  0  0  0
 16 23  1  0  0  0  0
 17 19  1  0  0  0  0
 19  5  1  6  0  0  0
 19 21  1  0  0  0  0
 21 14  1  1  0  0  0
 23 14  1  1  0  0  0
 23 29  1  0  0  0  0
 25 26  1  6  0  0  0
 25 27  1  0  0  0  0
 27 18  1  1  0  0  0
 27 28  1  0  0  0  0
 28 20  1  6  0  0  0
 28 29  1  0  0  0  0
 29 11  1  1  0  0  0
 30 22  1  6  0  0  0
 30 31  1  0  0  0  0
 31 24  1  1  0  0  0
M  END
>  <CHROM.1>
171.79811959,-61.94150395,-68.40130124,52.55241728,59.96638537,63.19426423
19.22602822,3.95737770,15.47062075,-2.08001659,0.43847172,0.69368007

>  <Name>
ligand

>  <RI>
0

>  <Rbt.Current_Directory>
/home/itssahil/PROJECTS/Mol_Feturizer/New_Systems/rnas/3DVV

>  <Rbt.Executable>
rbdock ($Id: //depot/dev/client3/rdock/2013.1/src/exe/rbdock.cxx#4 $)

>  <Rbt.Library>
libRbt.so (2013.1, Build901 2013/11/27)

>  <Rbt.Parameter_File>
/export/apps/rDock/src/rDock_2013.1_src/data/scripts/dock_solv.prm

>  <Rbt.Receptor>
prm/pocket_docking_5.prm

>  <SCORE>
-9.02296

>  <SCORE.INTER>
-5.43186

>  <SCORE.INTER.CONST>
1

>  <SCORE.INTER.POLAR>
0

>  <SCORE.INTER.ROT>
6

>  <SCORE.INTER.SOLV>
15.2982

>  <SCORE.INTER.VDW>
-16.3206

>  <SCORE.INTER.norm>
-0.175221

>  <SCORE.INTRA>
-3.59111

>  <SCORE.INTRA.DIHEDRAL>
-9.6428

>  <SCORE.INTRA.DIHEDRAL.0>
10.8172

>  <SCORE.INTRA.POLAR>
0

>  <SCORE.INTRA.POLAR.0>
0

>  <SCORE.INTRA.REPUL>
0

>  <SCORE.INTRA.REPUL.0>
0

>  <SCORE.INTRA.SOLV>
-4.198

>  <SCORE.INTRA.SOLV.lig_0>
-80.3833

>  <SCORE.INTRA.VDW>
3.32929

>  <SCORE.INTRA.VDW.0>
-4.63762

>  <SCORE.INTRA.norm>
-0.115842

>  <SCORE.RESTR>
0

>  <SCORE.RESTR.CAVITY>
0

>  <SCORE.RESTR.norm>
0

>  <SCORE.SYSTEM>
0

>  <SCORE.SYSTEM.CONST>
0

>  <SCORE.SYSTEM.DIHEDRAL>
0

>  <SCORE.SYSTEM.SOLV>
0

>  <SCORE.SYSTEM.norm>
0

>  <SCORE.heavy>
31

>  <SCORE.norm>
-0.291063

>  <RMSD>
5.502

$$$$
ligand
 OpenBabel11021811473D
libRbt.so/2013.1/901 2013/11/27
 31 33  0  0  0  0  0  0  0  0999 V2000
   14.3507    2.5112   18.0816 C   0  0  0  0  0  0  0  0  0  0  0  0
   16.0375    6.7477   21.8065 N   0  0  0  0  0  0  0  0  0  0  0  0
   15.2996    1.6619   18.7351 O   0  0  0  0  0  0  0  0  0  0  0  0
   15.0764    3.5562   17.2304 C   0  0  1  0  0  0  0  0  0  0  0  0
   17.9294    8.9237   17.8582 N   0  0  0  0  0  0  0  0  0  0  0  0
   16.0183    4.2882   18.0389 O   0  0  0  0  0  0  0  0  0  0  0  0
   17.3150    4.2040   17.4215 C   0  0  1  0  0  0  0  0  0  0  0  0
   16.5747    6.6238   14.3670 N   0  0  0  0  0  0  0  0  0  0  0  0
   18.3685    4.1879   18.3976 O   0  0  0  0  0  0  0  0  0  0  0  0
   18.4546    5.3912   19.1752 C   0  0  2  0  0  0  0  0  0  0  0  0
   22.4198    6.1117   17.1329 N   0  0  0  0  0  0  0  0  0  0  0  0
   17.3360    4.3557   21.0511 O   0  0  0  0  0  0  0  0  0  0  0  0
   17.2347    5.4218   20.1032 C   0  0  1  0  0  0  0  0  0  0  0  0
   19.7341    6.7322   17.5487 O   0  0  0  0  0  0  0  0  0  0  0  0
   17.1555    6.7544   20.8508 C   0  0  1  0  0  0  0  0  0  0  0  0
   19.0748    5.6175   15.5838 O   0  0  0  0  0  0  0  0  0  0  0  0
   16.9742    7.8863   19.8392 C   0  0  0  0  0  0  0  0  0  0  0  0
   20.2458    8.3176   13.3896 O   0  0  0  0  0  0  0  0  0  0  0  0
   18.1901    7.9281   18.9089 C   0  0  1  0  0  0  0  0  0  0  0  0
   22.6965    7.2935   14.4895 O   0  0  0  0  0  0  0  0  0  0  0  0
   18.4734    6.5849   18.2253 C   0  0  2  0  0  0  0  0  0  0  0  0
   18.2648    2.7290   15.6951 O   0  0  0  0  0  0  0  0  0  0  0  0
   20.0554    5.6704   16.6365 C   0  0  1  0  0  0  0  0  0  0  0  0
   15.9029    3.6280   14.9136 O   0  0  0  0  0  0  0  0  0  0  0  0
   18.9823    6.8211   14.8028 C   0  0  2  0  0  0  0  0  0  0  0  0
   17.9026    6.6430   13.7328 C   0  0  0  0  0  0  0  0  0  0  0  0
   20.3220    7.0869   14.1139 C   0  0  2  0  0  0  0  0  0  0  0  0
   21.4358    7.1828   15.1585 C   0  0  1  0  0  0  0  0  0  0  0  0
   21.4444    5.9354   16.0461 C   0  0  1  0  0  0  0  0  0  0  0  0
   17.2819    2.8443   16.7267 C   0  0  2  0  0  0  0  0  0  0  0  0
   15.8804    2.8673   16.1241 C   0  0  1  0  0  0  0  0  0  0  0  0
  1  3  1  0  0  0  0
  4  1  1  1  0  0  0
  4  6  1  0  0  0  0
  4 31  1  0  0  0  0
  6  7  1  0  0  0  0
  7  9  1  1  0  0  0
  7 30  1  0  0  0  0
  8 26  1  0  0  0  0
 10  9  1  6  0  0  0
 10 13  1  0  0  0  0
 10 21  1  0  0  0  0
 13 12  1  1  0  0  0
 13 15  1  0  0  0  0
 15  2  1  1  0  0  0
 15 17  1  0  0  0  0
 16 25  1  0  0  0  0
 16 23  1  0  0  0  0
 17 19  1  0  0  0  0
 19  5  1  6  0  0  0
 19 21  1  0  0  0  0
 21 14  1  1  0  0  0
 23 14  1  1  0  0  0
 23 29  1  0  0  0  0
 25 26  1  6  0  0  0
 25 27  1  0  0  0  0
 27 18  1  1  0  0  0
 27 28  1  0  0  0  0
 28 20  1  6  0  0  0
 28 29  1  0  0  0  0
 29 11  1  1  0  0  0
 30 22  1  6  0  0  0
 30 31  1  0  0  0  0
 31 24  1  6  0  0  0
M  END
>  <CHROM.1>
-54.88166379,-63.71262269,70.47144664,62.15039743,65.99284178,70.47730779
18.14217394,5.53308519,17.14727750,2.77136565,0.76408422,1.16015935

>  <Name>
ligand

>  <RI>
0

>  <Rbt.Current_Directory>
/home/itssahil/PROJECTS/Mol_Feturizer/New_Systems/rnas/3DVV

>  <Rbt.Executable>
rbdock ($Id: //depot/dev/client3/rdock/2013.1/src/exe/rbdock.cxx#4 $)

>  <Rbt.Library>
libRbt.so (2013.1, Build901 2013/11/27)

>  <Rbt.Parameter_File>
/export/apps/rDock/src/rDock_2013.1_src/data/scripts/dock_solv.prm

>  <Rbt.Receptor>
prm/pocket_docking_4.prm

>  <SCORE>
-6.25221

>  <SCORE.INTER>
-3.54516

>  <SCORE.INTER.CONST>
1

>  <SCORE.INTER.POLAR>
0

>  <SCORE.INTER.ROT>
6

>  <SCORE.INTER.SOLV>
16.1562

>  <SCORE.INTER.VDW>
-15.3488

>  <SCORE.INTER.norm>
-0.11436

>  <SCORE.INTRA>
-2.70705

>  <SCORE.INTRA.DIHEDRAL>
-9.27036

>  <SCORE.INTRA.DIHEDRAL.0>
10.8172

>  <SCORE.INTRA.POLAR>
0

>  <SCORE.INTRA.POLAR.0>
0

>  <SCORE.INTRA.REPUL>
0

>  <SCORE.INTRA.REPUL.0>
0

>  <SCORE.INTRA.SOLV>
-1.0311

>  <SCORE.INTRA.SOLV.lig_0>
-80.3833

>  <SCORE.INTRA.VDW>
2.44368

>  <SCORE.INTRA.VDW.0>
-4.63762

>  <SCORE.INTRA.norm>
-0.0873243

>  <SCORE.RESTR>
0

>  <SCORE.RESTR.CAVITY>
0

>  <SCORE.RESTR.norm>
0

>  <SCORE.SYSTEM>
0

>  <SCORE.SYSTEM.CONST>
0

>  <SCORE.SYSTEM.DIHEDRAL>
0

>  <SCORE.SYSTEM.SOLV>
0

>  <SCORE.SYSTEM.norm>
0

>  <SCORE.heavy>
31

>  <SCORE.norm>
-0.201684

>  <RMSD>
5.508

$$$$
ligand
 OpenBabel11021811473D
libRbt.so/2013.1/901 2013/11/27
 31 33  0  0  0  0  0  0  0  0999 V2000
   20.0084    2.1435   13.7192 C   0  0  0  0  0  0  0  0  0  0  0  0
   15.3970    3.8668   20.8574 N   0  0  0  0  0  0  0  0  0  0  0  0
   21.2539    2.2550   14.4157 O   0  0  0  0  0  0  0  0  0  0  0  0
   18.9167    1.6417   14.6676 C   0  0  1  0  0  0  0  0  0  0  0  0
   18.2770    7.6473   19.7097 N   0  0  0  0  0  0  0  0  0  0  0  0
   18.8032    2.5208   15.8037 O   0  0  0  0  0  0  0  0  0  0  0  0
   17.4358    2.9546   15.9128 C   0  0  1  0  0  0  0  0  0  0  0  0
   18.0186    8.9305   13.7199 N   0  0  0  0  0  0  0  0  0  0  0  0
   17.3420    4.2931   16.4254 O   0  0  0  0  0  0  0  0  0  0  0  0
   17.6565    4.4008   17.8216 C   0  0  2  0  0  0  0  0  0  0  0  0
   21.9375    5.4064   16.5825 N   0  0  0  0  0  0  0  0  0  0  0  0
   16.0779    2.6624   18.3948 O   0  0  0  0  0  0  0  0  0  0  0  0
   16.3871    4.0432   18.6032 C   0  0  1  0  0  0  0  0  0  0  0  0
   19.4413    6.0902   17.6179 O   0  0  0  0  0  0  0  0  0  0  0  0
   16.5827    4.2950   20.0996 C   0  0  1  0  0  0  0  0  0  0  0  0
   18.7105    6.9393   15.5483 O   0  0  0  0  0  0  0  0  0  0  0  0
   16.8412    5.7845   20.3273 C   0  0  0  0  0  0  0  0  0  0  0  0
   20.6506   10.0382   15.8787 O   0  0  0  0  0  0  0  0  0  0  0  0
   18.1268    6.1883   19.5995 C   0  0  1  0  0  0  0  0  0  0  0  0
   22.6991    8.0394   15.6087 O   0  0  0  0  0  0  0  0  0  0  0  0
   18.1152    5.8273   18.1091 C   0  0  2  0  0  0  0  0  0  0  0  0
   15.5307    2.9242   14.3547 O   0  0  0  0  0  0  0  0  0  0  0  0
   19.5851    5.9943   16.1921 C   0  0  1  0  0  0  0  0  0  0  0  0
   16.7251    0.5639   14.3654 O   0  0  0  0  0  0  0  0  0  0  0  0
   18.9630    8.3106   15.8991 C   0  0  2  0  0  0  0  0  0  0  0  0
   17.9648    9.2083   15.1641 C   0  0  0  0  0  0  0  0  0  0  0  0
   20.3808    8.6941   15.4716 C   0  0  2  0  0  0  0  0  0  0  0  0
   21.3952    7.7540   16.1260 C   0  0  1  0  0  0  0  0  0  0  0  0
   21.0423    6.2949   15.8255 C   0  0  1  0  0  0  0  0  0  0  0  0
   16.9557    2.9599   14.4629 C   0  0  2  0  0  0  0  0  0  0  0  0
   17.5591    1.6521   13.9593 C   0  0  1  0  0  0  0  0  0  0  0  0
  1  3  1  0  0  0  0
  4  1  1  6  0  0  0
  4  6  1  0  0  0  0
  4 31  1  0  0  0  0
  6  7  1  0  0  0  0
  7  9  1  6  0  0  0
  7 30  1  0  0  0  0
  8 26  1  0  0  0  0
 10  9  1  6  0  0  0
 10 13  1  0  0  0  0
 10 21  1  0  0  0  0
 13 12  1  1  0  0  0
 13 15  1  0  0  0  0
 15  2  1  1  0  0  0
 15 17  1  0  0  0  0
 16 25  1  0  0  0  0
 16 23  1  0  0  0  0
 17 19  1  0  0  0  0
 19  5  1  6  0  0  0
 19 21  1  0  0  0  0
 21 14  1  1  0  0  0
 23 14  1  1  0  0  0
 23 29  1  0  0  0  0
 25 26  1  6  0  0  0
 25 27  1  0  0  0  0
 27 18  1  1  0  0  0
 27 28  1  0  0  0  0
 28 20  1  6  0  0  0
 28 29  1  0  0  0  0
 29 11  1  1  0  0  0
 30 22  1  1  0  0  0
 30 31  1  0  0  0  0
 31 24  1  1  0  0  0
M  END
>  <CHROM.1>
56.88646872,-72.12675702,-83.36264683,59.80116019,63.03094032,-53.95797076
18.55059800,5.15056526,16.45808152,-2.35063447,0.86425437,0.64654871

>  <Name>
ligand

>  <RI>
0

>  <Rbt.Current_Directory>
/home/itssahil/PROJECTS/Mol_Feturizer/New_Systems/rnas/3DVV

>  <Rbt.Executable>
rbdock ($Id: //depot/dev/client3/rdock/2013.1/src/exe/rbdock.cxx#4 $)

>  <Rbt.Library>
libRbt.so (2013.1, Build901 2013/11/27)

>  <Rbt.Parameter_File>
/export/apps/rDock/src/rDock_2013.1_src/data/scripts/dock_solv.prm

>  <Rbt.Receptor>
prm/pocket_docking_4.prm

>  <SCORE>
-7.90175

>  <SCORE.INTER>
-4.57317

>  <SCORE.INTER.CONST>
1

>  <SCORE.INTER.POLAR>
0

>  <SCORE.INTER.ROT>
6

>  <SCORE.INTER.SOLV>
16.6532

>  <SCORE.INTER.VDW>
-16.1999

>  <SCORE.INTER.norm>
-0.147522

>  <SCORE.INTRA>
-3.32859

>  <SCORE.INTRA.DIHEDRAL>
-7.29194

>  <SCORE.INTRA.DIHEDRAL.0>
10.8172

>  <SCORE.INTRA.POLAR>
0

>  <SCORE.INTRA.POLAR.0>
0

>  <SCORE.INTRA.REPUL>
0

>  <SCORE.INTRA.REPUL.0>
0

>  <SCORE.INTRA.SOLV>
-2.752

>  <SCORE.INTRA.SOLV.lig_0>
-80.3833

>  <SCORE.INTRA.VDW>
1.69339

>  <SCORE.INTRA.VDW.0>
-4.63762

>  <SCORE.INTRA.norm>
-0.107374

>  <SCORE.RESTR>
0

>  <SCORE.RESTR.CAVITY>
0

>  <SCORE.RESTR.norm>
0

>  <SCORE.SYSTEM>
0

>  <SCORE.SYSTEM.CONST>
0

>  <SCORE.SYSTEM.DIHEDRAL>
0

>  <SCORE.SYSTEM.SOLV>
0

>  <SCORE.SYSTEM.norm>
0

>  <SCORE.heavy>
31

>  <SCORE.norm>
-0.254895

>  <RMSD>
5.509

$$$$
ligand
 OpenBabel11021811473D
libRbt.so/2013.1/901 2013/11/27
 31 33  0  0  0  0  0  0  0  0999 V2000
   21.2704   -0.8550   12.9998 C   0  0  0  0  0  0  0  0  0  0  0  0
   15.0157    4.9266   11.9489 N   0  0  0  0  0  0  0  0  0  0  0  0
   21.1500   -2.1831   12.4796 O   0  0  0  0  0  0  0  0  0  0  0  0
   19.8958   -0.3241   13.4142 C   0  0  1  0  0  0  0  0  0  0  0  0
   18.9439    7.8336   12.0981 N   0  0  0  0  0  0  0  0  0  0  0  0
   19.9804    1.0789   13.7320 O   0  0  0  0  0  0  0  0  0  0  0  0
   19.0121    1.7878   12.9385 C   0  0  1  0  0  0  0  0  0  0  0  0
   22.5852    4.0451   17.7606 N   0  0  0  0  0  0  0  0  0  0  0  0
   19.4733    3.1013   12.5852 O   0  0  0  0  0  0  0  0  0  0  0  0
   18.6026    4.1562   13.0200 C   0  0  2  0  0  0  0  0  0  0  0  0
   19.6084    8.2509   14.6839 N   0  0  0  0  0  0  0  0  0  0  0  0
   16.6459    2.7631   12.7490 O   0  0  0  0  0  0  0  0  0  0  0  0
   17.2646    3.9700   12.2950 C   0  0  1  0  0  0  0  0  0  0  0  0
   20.3490    5.8148   13.5492 O   0  0  0  0  0  0  0  0  0  0  0  0
   16.3299    5.1495   12.5707 C   0  0  1  0  0  0  0  0  0  0  0  0
   20.8043    4.8655   15.6539 O   0  0  0  0  0  0  0  0  0  0  0  0
   16.9610    6.4282   12.0194 C   0  0  0  0  0  0  0  0  0  0  0  0
   23.9952    6.6438   16.0173 O   0  0  0  0  0  0  0  0  0  0  0  0
   18.2866    6.6860   12.7418 C   0  0  1  0  0  0  0  0  0  0  0  0
   22.0696    8.7748   16.1430 O   0  0  0  0  0  0  0  0  0  0  0  0
   19.2502    5.4947   12.6780 C   0  0  2  0  0  0  0  0  0  0  0  0
   17.7269    1.1946   10.9250 O   0  0  0  0  0  0  0  0  0  0  0  0
   20.0201    5.8441   14.9470 C   0  0  1  0  0  0  0  0  0  0  0  0
   17.5836   -0.7649   12.6963 O   0  0  0  0  0  0  0  0  0  0  0  0
   22.2247    5.0666   15.5579 C   0  0  2  0  0  0  0  0  0  0  0  0
   22.9417    3.9602   16.3353 C   0  0  0  0  0  0  0  0  0  0  0  0
   22.5913    6.4191   16.1715 C   0  0  2  0  0  0  0  0  0  0  0  0
   21.8197    7.5374   15.4679 C   0  0  1  0  0  0  0  0  0  0  0  0
   20.3169    7.2457   15.4908 C   0  0  1  0  0  0  0  0  0  0  0  0
   18.9253    0.9495   11.6648 C   0  0  2  0  0  0  0  0  0  0  0  0
   18.9077   -0.4586   12.2521 C   0  0  1  0  0  0  0  0  0  0  0  0
  1  3  1  0  0  0  0
  4  1  1  6  0  0  0
  4  6  1  0  0  0  0
  4 31  1  0  0  0  0
  6  7  1  0  0  0  0
  7  9  1  6  0  0  0
  7 30  1  0  0  0  0
  8 26  1  0  0  0  0
 10  9  1  6  0  0  0
 10 13  1  0  0  0  0
 10 21  1  0  0  0  0
 13 12  1  1  0  0  0
 13 15  1  0  0  0  0
 15  2  1  6  0  0  0
 15 17  1  0  0  0  0
 16 25  1  0  0  0  0
 16 23  1  0  0  0  0
 17 19  1  0  0  0  0
 19  5  1  6  0  0  0
 19 21  1  0  0  0  0
 21 14  1  1  0  0  0
 23 14  1  6  0  0  0
 23 29  1  0  0  0  0
 25 26  1  1  0  0  0
 25 27  1  0  0  0  0
 27 18  1  6  0  0  0
 27 28  1  0  0  0  0
 28 20  1  1  0  0  0
 28 29  1  0  0  0  0
 29 11  1  6  0  0  0
 30 22  1  1  0  0  0
 30 31  1  0  0  0  0
 31 24  1  1  0  0  0
M  END
>  <CHROM.1>
-170.69980092,-122.29983836,-63.15462919,119.46112823,-56.86968305,-62.82907566
19.71323339,3.99715763,13.72740560,-2.00078293,-0.58722230,0.18595380

>  <Name>
ligand

>  <RI>
0

>  <Rbt.Current_Directory>
/home/itssahil/PROJECTS/Mol_Feturizer/New_Systems/rnas/3DVV

>  <Rbt.Executable>
rbdock ($Id: //depot/dev/client3/rdock/2013.1/src/exe/rbdock.cxx#4 $)

>  <Rbt.Library>
libRbt.so (2013.1, Build901 2013/11/27)

>  <Rbt.Parameter_File>
/export/apps/rDock/src/rDock_2013.1_src/data/scripts/dock_solv.prm

>  <Rbt.Receptor>
prm/blind_docking_60.prm

>  <SCORE>
6.92281

>  <SCORE.INTER>
-1.03862

>  <SCORE.INTER.CONST>
1

>  <SCORE.INTER.POLAR>
0

>  <SCORE.INTER.ROT>
6

>  <SCORE.INTER.SOLV>
17.8746

>  <SCORE.INTER.VDW>
-14.2506

>  <SCORE.INTER.norm>
-0.0335039

>  <SCORE.INTRA>
7.74199

>  <SCORE.INTRA.DIHEDRAL>
3.94686

>  <SCORE.INTRA.DIHEDRAL.0>
10.8172

>  <SCORE.INTRA.POLAR>
0

>  <SCORE.INTRA.POLAR.0>
0

>  <SCORE.INTRA.REPUL>
0.00137551

>  <SCORE.INTRA.REPUL.0>
0

>  <SCORE.INTRA.SOLV>
1.8611

>  <SCORE.INTRA.SOLV.lig_0>
-80.3833

>  <SCORE.INTRA.VDW>
4.83113

>  <SCORE.INTRA.VDW.0>
-4.63762

>  <SCORE.INTRA.norm>
0.249742

>  <SCORE.RESTR>
0.219441

>  <SCORE.RESTR.CAVITY>
0.219441

>  <SCORE.RESTR.norm>
0.00707873

>  <SCORE.SYSTEM>
0

>  <SCORE.SYSTEM.CONST>
0

>  <SCORE.SYSTEM.DIHEDRAL>
0

>  <SCORE.SYSTEM.SOLV>
0

>  <SCORE.SYSTEM.norm>
0

>  <SCORE.heavy>
31

>  <SCORE.norm>
0.223316

>  <RMSD>
5.510

$$$$
ligand
 OpenBabel11021811473D
libRbt.so/2013.1/901 2013/11/27
 31 33  0  0  0  0  0  0  0  0999 V2000
   20.7020    0.0176   13.4425 C   0  0  0  0  0  0  0  0  0  0  0  0
   14.8153    3.1984   18.1742 N   0  0  0  0  0  0  0  0  0  0  0  0
   20.9543   -1.0280   12.4981 O   0  0  0  0  0  0  0  0  0  0  0  0
   19.1947    0.2289   13.6054 C   0  0  1  0  0  0  0  0  0  0  0  0
   18.5656    6.2774   18.7736 N   0  0  0  0  0  0  0  0  0  0  0  0
   18.9342    1.1176   14.7094 O   0  0  0  0  0  0  0  0  0  0  0  0
   18.1215    2.2075   14.2387 C   0  0  1  0  0  0  0  0  0  0  0  0
   19.8087    9.1637   14.8492 N   0  0  0  0  0  0  0  0  0  0  0  0
   18.4227    3.4313   14.9276 O   0  0  0  0  0  0  0  0  0  0  0  0
   18.1624    3.3798   16.3382 C   0  0  2  0  0  0  0  0  0  0  0  0
   22.8273    3.8137   17.0855 N   0  0  0  0  0  0  0  0  0  0  0  0
   16.1918    2.0198   16.0074 O   0  0  0  0  0  0  0  0  0  0  0  0
   16.6432    3.2774   16.5173 C   0  0  1  0  0  0  0  0  0  0  0  0
   20.1597    4.6228   17.0776 O   0  0  0  0  0  0  0  0  0  0  0  0
   16.2630    3.3872   17.9953 C   0  0  1  0  0  0  0  0  0  0  0  0
   20.3345    5.5015   14.9015 O   0  0  0  0  0  0  0  0  0  0  0  0
   16.6817    4.7610   18.5194 C   0  0  0  0  0  0  0  0  0  0  0  0
   22.1339    8.5016   16.0143 O   0  0  0  0  0  0  0  0  0  0  0  0
   18.2022    4.9014   18.4022 C   0  0  1  0  0  0  0  0  0  0  0  0
   24.0301    6.4033   16.5303 O   0  0  0  0  0  0  0  0  0  0  0  0
   18.7246    4.6427   16.9838 C   0  0  2  0  0  0  0  0  0  0  0  0
   17.5893    3.0628   11.9931 O   0  0  0  0  0  0  0  0  0  0  0  0
   20.8437    4.5161   15.8192 C   0  0  1  0  0  0  0  0  0  0  0  0
   17.2993    0.4340   12.0493 O   0  0  0  0  0  0  0  0  0  0  0  0
   20.4937    6.8596   15.3461 C   0  0  2  0  0  0  0  0  0  0  0  0
   19.9043    7.8036   14.2954 C   0  0  0  0  0  0  0  0  0  0  0  0
   21.9821    7.1715   15.5115 C   0  0  2  0  0  0  0  0  0  0  0  0
   22.6160    6.1840   16.4935 C   0  0  1  0  0  0  0  0  0  0  0  0
   22.3408    4.7434   16.0546 C   0  0  1  0  0  0  0  0  0  0  0  0
   18.5514    2.3576   12.7809 C   0  0  2  0  0  0  0  0  0  0  0  0
   18.6185    0.8948   12.3525 C   0  0  1  0  0  0  0  0  0  0  0  0
  1  3  1  0  0  0  0
  4  1  1  6  0  0  0
  4  6  1  0  0  0  0
  4 31  1  0  0  0  0
  6  7  1  0  0  0  0
  7  9  1  1  0  0  0
  7 30  1  0  0  0  0
  8 26  1  0  0  0  0
 10  9  1  6  0  0  0
 10 13  1  0  0  0  0
 10 21  1  0  0  0  0
 13 12  1  1  0  0  0
 13 15  1  0  0  0  0
 15  2  1  6  0  0  0
 15 17  1  0  0  0  0
 16 25  1  0  0  0  0
 16 23  1  0  0  0  0
 17 19  1  0  0  0  0
 19  5  1  6  0  0  0
 19 21  1  0  0  0  0
 21 14  1  1  0  0  0
 23 14  1  1  0  0  0
 23 29  1  0  0  0  0
 25 26  1  6  0  0  0
 25 27  1  0  0  0  0
 27 18  1  1  0  0  0
 27 28  1  0  0  0  0
 28 20  1  6  0  0  0
 28 29  1  0  0  0  0
 29 11  1  1  0  0  0
 30 22  1  6  0  0  0
 30 31  1  0  0  0  0
 31 24  1  1  0  0  0
M  END
>  <CHROM.1>
170.47679811,-62.29718156,-67.93591878,50.24695955,60.13055551,168.50644687
19.37017462,3.97132340,15.45247279,-2.06109818,0.46140209,0.65880327

>  <Name>
ligand

>  <RI>
0

>  <Rbt.Current_Directory>
/home/itssahil/PROJECTS/Mol_Feturizer/New_Systems/rnas/3DVV

>  <Rbt.Executable>
rbdock ($Id: //depot/dev/client3/rdock/2013.1/src/exe/rbdock.cxx#4 $)

>  <Rbt.Library>
libRbt.so (2013.1, Build901 2013/11/27)

>  <Rbt.Parameter_File>
/export/apps/rDock/src/rDock_2013.1_src/data/scripts/dock_solv.prm

>  <Rbt.Receptor>
prm/pocket_docking_3.prm

>  <SCORE>
-7.94554

>  <SCORE.INTER>
-5.40431

>  <SCORE.INTER.CONST>
1

>  <SCORE.INTER.POLAR>
0

>  <SCORE.INTER.ROT>
6

>  <SCORE.INTER.SOLV>
18.1068

>  <SCORE.INTER.VDW>
-17.2385

>  <SCORE.INTER.norm>
-0.174333

>  <SCORE.INTRA>
-2.54123

>  <SCORE.INTRA.DIHEDRAL>
-8.97825

>  <SCORE.INTRA.DIHEDRAL.0>
10.8172

>  <SCORE.INTRA.POLAR>
0

>  <SCORE.INTRA.POLAR.0>
0

>  <SCORE.INTRA.REPUL>
0

>  <SCORE.INTRA.REPUL.0>
0

>  <SCORE.INTRA.SOLV>
-3.48251

>  <SCORE.INTRA.SOLV.lig_0>
-80.3833

>  <SCORE.INTRA.VDW>
3.68915

>  <SCORE.INTRA.VDW.0>
-4.63762

>  <SCORE.INTRA.norm>
-0.0819752

>  <SCORE.RESTR>
0

>  <SCORE.RESTR.CAVITY>
0

>  <SCORE.RESTR.norm>
0

>  <SCORE.SYSTEM>
0

>  <SCORE.SYSTEM.CONST>
0

>  <SCORE.SYSTEM.DIHEDRAL>
0

>  <SCORE.SYSTEM.SOLV>
0

>  <SCORE.SYSTEM.norm>
0

>  <SCORE.heavy>
31

>  <SCORE.norm>
-0.256308

>  <RMSD>
5.510

$$$$
ligand
 OpenBabel11021811473D
libRbt.so/2013.1/901 2013/11/27
 31 33  0  0  0  0  0  0  0  0999 V2000
   22.6376    7.4211   16.1573 C   0  0  0  0  0  0  0  0  0  0  0  0
   17.7013    0.4708   12.9049 N   0  0  0  0  0  0  0  0  0  0  0  0
   21.7447    8.5368   16.0747 O   0  0  0  0  0  0  0  0  0  0  0  0
   21.9208    6.2160   16.7714 C   0  0  1  0  0  0  0  0  0  0  0  0
   17.3070    5.0798   11.3220 N   0  0  0  0  0  0  0  0  0  0  0  0
   20.9368    5.7022   15.8526 O   0  0  0  0  0  0  0  0  0  0  0  0
   21.1908    4.3014   15.6450 C   0  0  1  0  0  0  0  0  0  0  0  0
   15.6948    9.6038   11.8704 N   0  0  0  0  0  0  0  0  0  0  0  0
   20.8522    3.8918   14.3107 O   0  0  0  0  0  0  0  0  0  0  0  0
   19.4515    3.6437   14.1199 C   0  0  2  0  0  0  0  0  0  0  0  0
   21.0447    7.5886   13.6939 N   0  0  0  0  0  0  0  0  0  0  0  0
   19.7000    1.3139   14.7139 O   0  0  0  0  0  0  0  0  0  0  0  0
   19.3057    2.1902   13.6547 C   0  0  1  0  0  0  0  0  0  0  0  0
   18.7840    5.9605   13.6020 O   0  0  0  0  0  0  0  0  0  0  0  0
   17.8574    1.8885   13.2645 C   0  0  1  0  0  0  0  0  0  0  0  0
   17.6102    7.5046   12.2693 O   0  0  0  0  0  0  0  0  0  0  0  0
   17.4614    2.7758   12.0841 C   0  0  0  0  0  0  0  0  0  0  0  0
   16.9263    9.7581   15.0853 O   0  0  0  0  0  0  0  0  0  0  0  0
   17.5492    4.2448   12.5083 C   0  0  1  0  0  0  0  0  0  0  0  0
   19.7785    9.9660   14.7918 O   0  0  0  0  0  0  0  0  0  0  0  0
   18.9195    4.6266   13.0812 C   0  0  2  0  0  0  0  0  0  0  0  0
   23.1351    2.8592   16.0895 O   0  0  0  0  0  0  0  0  0  0  0  0
   18.9127    7.0044   12.6241 C   0  0  1  0  0  0  0  0  0  0  0  0
   22.6096    4.3452   18.2141 O   0  0  0  0  0  0  0  0  0  0  0  0
   16.8705    8.0577   13.3711 C   0  0  2  0  0  0  0  0  0  0  0  0
   15.5073    8.5391   12.8688 C   0  0  0  0  0  0  0  0  0  0  0  0
   17.6332    9.2504   13.9506 C   0  0  2  0  0  0  0  0  0  0  0  0
   19.0348    8.8137   14.3816 C   0  0  1  0  0  0  0  0  0  0  0  0
   19.7625    8.1317   13.2200 C   0  0  1  0  0  0  0  0  0  0  0  0
   22.7051    4.1939   15.8117 C   0  0  2  0  0  0  0  0  0  0  0  0
   22.9206    5.0855   17.0310 C   0  0  1  0  0  0  0  0  0  0  0  0
  1  3  1  0  0  0  0
  4  1  1  6  0  0  0
  4  6  1  0  0  0  0
  4 31  1  0  0  0  0
  6  7  1  0  0  0  0
  7  9  1  6  0  0  0
  7 30  1  0  0  0  0
  8 26  1  0  0  0  0
 10  9  1  6  0  0  0
 10 13  1  0  0  0  0
 10 21  1  0  0  0  0
 13 12  1  1  0  0  0
 13 15  1  0  0  0  0
 15  2  1  6  0  0  0
 15 17  1  0  0  0  0
 16 25  1  0  0  0  0
 16 23  1  0  0  0  0
 17 19  1  0  0  0  0
 19  5  1  6  0  0  0
 19 21  1  0  0  0  0
 21 14  1  1  0  0  0
 23 14  1  1  0  0  0
 23 29  1  0  0  0  0
 25 26  1  6  0  0  0
 25 27  1  0  0  0  0
 27 18  1  1  0  0  0
 27 28  1  0  0  0  0
 28 20  1  6  0  0  0
 28 29  1  0  0  0  0
 29 11  1  1  0  0  0
 30 22  1  1  0  0  0
 30 31  1  0  0  0  0
 31 24  1  1  0  0  0
M  END
>  <CHROM.1>
69.84190389,-80.94027043,-121.38095950,101.89644734,151.91611356,-62.00553186
19.49668545,5.78981360,14.27552648,-0.77534604,-0.64439078,0.12471001

>  <Name>
ligand

>  <RI>
0

>  <Rbt.Current_Directory>
/home/itssahil/PROJECTS/Mol_Feturizer/New_Systems/rnas/3DVV

>  <Rbt.Executable>
rbdock ($Id: //depot/dev/client3/rdock/2013.1/src/exe/rbdock.cxx#4 $)

>  <Rbt.Library>
libRbt.so (2013.1, Build901 2013/11/27)

>  <Rbt.Parameter_File>
/export/apps/rDock/src/rDock_2013.1_src/data/scripts/dock_solv.prm

>  <Rbt.Receptor>
prm/blind_docking_100.prm

>  <SCORE>
2.18114

>  <SCORE.INTER>
-5.29995

>  <SCORE.INTER.CONST>
1

>  <SCORE.INTER.POLAR>
0

>  <SCORE.INTER.ROT>
6

>  <SCORE.INTER.SOLV>
17.7981

>  <SCORE.INTER.VDW>
-17.066

>  <SCORE.INTER.norm>
-0.170966

>  <SCORE.INTRA>
7.48109

>  <SCORE.INTRA.DIHEDRAL>
7.7247

>  <SCORE.INTRA.DIHEDRAL.0>
10.8172

>  <SCORE.INTRA.POLAR>
0

>  <SCORE.INTRA.POLAR.0>
0

>  <SCORE.INTRA.REPUL>
0.138097

>  <SCORE.INTRA.REPUL.0>
0

>  <SCORE.INTRA.SOLV>
4.43203

>  <SCORE.INTRA.SOLV.lig_0>
-80.3833

>  <SCORE.INTRA.VDW>
0.712235

>  <SCORE.INTRA.VDW.0>
-4.63762

>  <SCORE.INTRA.norm>
0.241325

>  <SCORE.RESTR>
0

>  <SCORE.RESTR.CAVITY>
0

>  <SCORE.RESTR.norm>
0

>  <SCORE.SYSTEM>
0

>  <SCORE.SYSTEM.CONST>
0

>  <SCORE.SYSTEM.DIHEDRAL>
0

>  <SCORE.SYSTEM.SOLV>
0

>  <SCORE.SYSTEM.norm>
0

>  <SCORE.heavy>
31

>  <SCORE.norm>
0.0703593

>  <RMSD>
5.557

$$$$
ligand
 OpenBabel11021811473D
libRbt.so/2013.1/901 2013/11/27
 31 33  0  0  0  0  0  0  0  0999 V2000
   14.4288    2.1513   11.5372 C   0  0  0  0  0  0  0  0  0  0  0  0
   20.1497    1.0095   12.1113 N   0  0  0  0  0  0  0  0  0  0  0  0
   15.1240    0.9018   11.4723 O   0  0  0  0  0  0  0  0  0  0  0  0
   14.8470    2.9233   12.7911 C   0  0  1  0  0  0  0  0  0  0  0  0
   19.7765    3.7066   16.1721 N   0  0  0  0  0  0  0  0  0  0  0  0
   16.2567    3.2185   12.7455 O   0  0  0  0  0  0  0  0  0  0  0  0
   16.4338    4.6363   12.9130 C   0  0  1  0  0  0  0  0  0  0  0  0
   18.0267    8.9478   10.5997 N   0  0  0  0  0  0  0  0  0  0  0  0
   17.5634    5.1223   12.1708 O   0  0  0  0  0  0  0  0  0  0  0  0
   18.8156    4.5590   12.5888 C   0  0  2  0  0  0  0  0  0  0  0  0
   20.7041    7.4572   16.3686 N   0  0  0  0  0  0  0  0  0  0  0  0
   18.8854    3.0862   10.6734 O   0  0  0  0  0  0  0  0  0  0  0  0
   18.8457    3.1052   12.1029 C   0  0  1  0  0  0  0  0  0  0  0  0
   19.1647    5.9885   14.5676 O   0  0  0  0  0  0  0  0  0  0  0  0
   20.0741    2.3758   12.6506 C   0  0  1  0  0  0  0  0  0  0  0  0
   20.2829    6.9113   12.7139 O   0  0  0  0  0  0  0  0  0  0  0  0
   19.9926    2.3338   14.1767 C   0  0  0  0  0  0  0  0  0  0  0  0
   18.5019   10.1128   12.9478 O   0  0  0  0  0  0  0  0  0  0  0  0
   20.0017    3.7658   14.7198 C   0  0  1  0  0  0  0  0  0  0  0  0
   20.1048   10.1089   15.3343 O   0  0  0  0  0  0  0  0  0  0  0  0
   18.9074    4.6497   14.1091 C   0  0  2  0  0  0  0  0  0  0  0  0
   14.9047    6.5566   12.7332 O   0  0  0  0  0  0  0  0  0  0  0  0
   20.3997    6.5565   14.1042 C   0  0  1  0  0  0  0  0  0  0  0  0
   13.7915    4.6503   14.1908 O   0  0  0  0  0  0  0  0  0  0  0  0
   19.2530    7.8753   12.4357 C   0  0  2  0  0  0  0  0  0  0  0  0
   19.2220    8.1562   10.9315 C   0  0  0  0  0  0  0  0  0  0  0  0
   19.5602    9.1784   13.1757 C   0  0  2  0  0  0  0  0  0  0  0  0
   19.6830    8.9093   14.6769 C   0  0  1  0  0  0  0  0  0  0  0  0
   20.7090    7.8037   14.9391 C   0  0  1  0  0  0  0  0  0  0  0  0
   15.1650    5.2207   12.2957 C   0  0  2  0  0  0  0  0  0  0  0  0
   14.1129    4.2658   12.8516 C   0  0  1  0  0  0  0  0  0  0  0  0
  1  3  1  0  0  0  0
  4  1  1  6  0  0  0
  4  6  1  0  0  0  0
  4 31  1  0  0  0  0
  6  7  1  0  0  0  0
  7  9  1  6  0  0  0
  7 30  1  0  0  0  0
  8 26  1  0  0  0  0
 10  9  1  1  0  0  0
 10 13  1  0  0  0  0
 10 21  1  0  0  0  0
 13 12  1  6  0  0  0
 13 15  1  0  0  0  0
 15  2  1  6  0  0  0
 15 17  1  0  0  0  0
 16 25  1  0  0  0  0
 16 23  1  0  0  0  0
 17 19  1  0  0  0  0
 19  5  1  1  0  0  0
 19 21  1  0  0  0  0
 21 14  1  6  0  0  0
 23 14  1  1  0  0  0
 23 29  1  0  0  0  0
 25 26  1  6  0  0  0
 25 27  1  0  0  0  0
 27 18  1  1  0  0  0
 27 28  1  0  0  0  0
 28 20  1  1  0  0  0
 28 29  1  0  0  0  0
 29 11  1  1  0  0  0
 30 22  1  1  0  0  0
 30 31  1  0  0  0  0
 31 24  1  1  0  0  0
M  END
>  <CHROM.1>
61.79106003,-62.35016994,72.60708382,74.01612104,-60.95360442,169.87580547
18.14559842,5.37460936,13.14078880,2.15451284,0.34181141,-3.09238902

>  <Name>
ligand

>  <RI>
0

>  <Rbt.Current_Directory>
/home/itssahil/PROJECTS/Mol_Feturizer/New_Systems/rnas/3DVV

>  <Rbt.Executable>
rbdock ($Id: //depot/dev/client3/rdock/2013.1/src/exe/rbdock.cxx#4 $)

>  <Rbt.Library>
libRbt.so (2013.1, Build901 2013/11/27)

>  <Rbt.Parameter_File>
/export/apps/rDock/src/rDock_2013.1_src/data/scripts/dock_solv.prm

>  <Rbt.Receptor>
prm/pocket_docking_7.prm

>  <SCORE>
-6.56356

>  <SCORE.INTER>
-5.76955

>  <SCORE.INTER.CONST>
1

>  <SCORE.INTER.POLAR>
0

>  <SCORE.INTER.ROT>
6

>  <SCORE.INTER.SOLV>
14.9205

>  <SCORE.INTER.VDW>
-16.4199

>  <SCORE.INTER.norm>
-0.186115

>  <SCORE.INTRA>
-0.794005

>  <SCORE.INTRA.DIHEDRAL>
-8.45699

>  <SCORE.INTRA.DIHEDRAL.0>
10.8172

>  <SCORE.INTRA.POLAR>
0

>  <SCORE.INTRA.POLAR.0>
0

>  <SCORE.INTRA.REPUL>
0

>  <SCORE.INTRA.REPUL.0>
0

>  <SCORE.INTRA.SOLV>
-2.10533

>  <SCORE.INTRA.SOLV.lig_0>
-80.3833

>  <SCORE.INTRA.VDW>
4.48716

>  <SCORE.INTRA.VDW.0>
-4.63762

>  <SCORE.INTRA.norm>
-0.0256131

>  <SCORE.RESTR>
0

>  <SCORE.RESTR.CAVITY>
0

>  <SCORE.RESTR.norm>
0

>  <SCORE.SYSTEM>
0

>  <SCORE.SYSTEM.CONST>
0

>  <SCORE.SYSTEM.DIHEDRAL>
0

>  <SCORE.SYSTEM.SOLV>
0

>  <SCORE.SYSTEM.norm>
0

>  <SCORE.heavy>
31

>  <SCORE.norm>
-0.211728

>  <RMSD>
5.565

$$$$
ligand
 OpenBabel11021811473D
libRbt.so/2013.1/901 2013/11/27
 31 33  0  0  0  0  0  0  0  0999 V2000
   15.0865   -0.3081   11.1352 C   0  0  0  0  0  0  0  0  0  0  0  0
   20.2316   -1.4059   12.4774 N   0  0  0  0  0  0  0  0  0  0  0  0
   15.8199   -1.4124   11.6752 O   0  0  0  0  0  0  0  0  0  0  0  0
   15.3719    0.9604   11.9431 C   0  0  1  0  0  0  0  0  0  0  0  0
   20.0108    2.6387   15.2152 N   0  0  0  0  0  0  0  0  0  0  0  0
   16.7874    1.2295   11.9616 O   0  0  0  0  0  0  0  0  0  0  0  0
   17.0054    2.5699   11.4866 C   0  0  1  0  0  0  0  0  0  0  0  0
   21.4260    4.4000   17.0060 N   0  0  0  0  0  0  0  0  0  0  0  0
   18.2433    2.6842   10.7671 O   0  0  0  0  0  0  0  0  0  0  0  0
   19.3796    2.1862   11.4888 C   0  0  2  0  0  0  0  0  0  0  0  0
   18.5662    6.3373   11.5428 N   0  0  0  0  0  0  0  0  0  0  0  0
   19.3508    0.1052   10.2595 O   0  0  0  0  0  0  0  0  0  0  0  0
   19.2343    0.6622   11.5715 C   0  0  1  0  0  0  0  0  0  0  0  0
   19.8130    4.2057   12.8359 O   0  0  0  0  0  0  0  0  0  0  0  0
   20.3167    0.0624   12.4712 C   0  0  1  0  0  0  0  0  0  0  0  0
   19.5429    5.2065   14.9486 O   0  0  0  0  0  0  0  0  0  0  0  0
   20.1451    0.6040   13.8906 C   0  0  0  0  0  0  0  0  0  0  0  0
   22.2758    7.5988   14.4154 O   0  0  0  0  0  0  0  0  0  0  0  0
   20.3228    2.1250   13.8728 C   0  0  1  0  0  0  0  0  0  0  0  0
   20.3049    8.4601   12.5080 O   0  0  0  0  0  0  0  0  0  0  0  0
   19.3980    2.8290   12.8724 C   0  0  2  0  0  0  0  0  0  0  0  0
   15.6018    4.1643   10.2433 O   0  0  0  0  0  0  0  0  0  0  0  0
   19.0046    5.0990   13.6178 C   0  0  1  0  0  0  0  0  0  0  0  0
   14.2221    3.1155   12.2418 O   0  0  0  0  0  0  0  0  0  0  0  0
   20.8882    5.7110   15.0018 C   0  0  2  0  0  0  0  0  0  0  0  0
   21.3466    5.7647   16.4611 C   0  0  0  0  0  0  0  0  0  0  0  0
   20.9266    7.1250   14.4193 C   0  0  2  0  0  0  0  0  0  0  0  0
   20.3901    7.1136   12.9864 C   0  0  1  0  0  0  0  0  0  0  0  0
   18.9999    6.4741   12.9417 C   0  0  1  0  0  0  0  0  0  0  0  0
   15.8561    2.7818   10.5034 C   0  0  2  0  0  0  0  0  0  0  0  0
   14.6980    2.1669   11.2836 C   0  0  1  0  0  0  0  0  0  0  0  0
  1  3  1  0  0  0  0
  4  1  1  6  0  0  0
  4  6  1  0  0  0  0
  4 31  1  0  0  0  0
  6  7  1  0  0  0  0
  7  9  1  6  0  0  0
  7 30  1  0  0  0  0
  8 26  1  0  0  0  0
 10  9  1  6  0  0  0
 10 13  1  0  0  0  0
 10 21  1  0  0  0  0
 13 12  1  6  0  0  0
 13 15  1  0  0  0  0
 15  2  1  1  0  0  0
 15 17  1  0  0  0  0
 16 25  1  0  0  0  0
 16 23  1  0  0  0  0
 17 19  1  0  0  0  0
 19  5  1  1  0  0  0
 19 21  1  0  0  0  0
 21 14  1  6  0  0  0
 23 14  1  6  0  0  0
 23 29  1  0  0  0  0
 25 26  1  1  0  0  0
 25 27  1  0  0  0  0
 27 18  1  6  0  0  0
 27 28  1  0  0  0  0
 28 20  1  1  0  0  0
 28 29  1  0  0  0  0
 29 11  1  6  0  0  0
 30 22  1  1  0  0  0
 30 31  1  0  0  0  0
 31 24  1  1  0  0  0
M  END
>  <CHROM.1>
56.77880952,-52.43419144,69.40476455,90.92576695,134.53909106,65.31124686
18.70481342,3.27350504,12.75446586,2.28233462,0.58107979,-3.09292560

>  <Name>
ligand

>  <RI>
0

>  <Rbt.Current_Directory>
/home/itssahil/PROJECTS/Mol_Feturizer/New_Systems/rnas/3DVV

>  <Rbt.Executable>
rbdock ($Id: //depot/dev/client3/rdock/2013.1/src/exe/rbdock.cxx#4 $)

>  <Rbt.Library>
libRbt.so (2013.1, Build901 2013/11/27)

>  <Rbt.Parameter_File>
/export/apps/rDock/src/rDock_2013.1_src/data/scripts/dock_solv.prm

>  <Rbt.Receptor>
prm/blind_docking_100.prm

>  <SCORE>
-0.722847

>  <SCORE.INTER>
-5.37683

>  <SCORE.INTER.CONST>
1

>  <SCORE.INTER.POLAR>
0

>  <SCORE.INTER.ROT>
6

>  <SCORE.INTER.SOLV>
19.4612

>  <SCORE.INTER.VDW>
-17.6716

>  <SCORE.INTER.norm>
-0.173446

>  <SCORE.INTRA>
4.65398

>  <SCORE.INTRA.DIHEDRAL>
0.101802

>  <SCORE.INTRA.DIHEDRAL.0>
10.8172

>  <SCORE.INTRA.POLAR>
0

>  <SCORE.INTRA.POLAR.0>
0

>  <SCORE.INTRA.REPUL>
0

>  <SCORE.INTRA.REPUL.0>
0

>  <SCORE.INTRA.SOLV>
1.61916

>  <SCORE.INTRA.SOLV.lig_0>
-80.3833

>  <SCORE.INTRA.VDW>
3.7935

>  <SCORE.INTRA.VDW.0>
-4.63762

>  <SCORE.INTRA.norm>
0.150128

>  <SCORE.RESTR>
0

>  <SCORE.RESTR.CAVITY>
0

>  <SCORE.RESTR.norm>
0

>  <SCORE.SYSTEM>
0

>  <SCORE.SYSTEM.CONST>
0

>  <SCORE.SYSTEM.DIHEDRAL>
0

>  <SCORE.SYSTEM.SOLV>
0

>  <SCORE.SYSTEM.norm>
0

>  <SCORE.heavy>
31

>  <SCORE.norm>
-0.0233176

>  <RMSD>
5.567

$$$$
ligand
 OpenBabel11021811473D
libRbt.so/2013.1/901 2013/11/27
 31 33  0  0  0  0  0  0  0  0999 V2000
   20.1343    1.6576   13.9873 C   0  0  0  0  0  0  0  0  0  0  0  0
   15.3795    3.7785   20.6896 N   0  0  0  0  0  0  0  0  0  0  0  0
   20.2963    0.7300   12.9092 O   0  0  0  0  0  0  0  0  0  0  0  0
   18.8647    1.3312   14.7777 C   0  0  1  0  0  0  0  0  0  0  0  0
   18.3849    7.4988   19.6746 N   0  0  0  0  0  0  0  0  0  0  0  0
   18.7288    2.2329   15.8935 O   0  0  0  0  0  0  0  0  0  0  0  0
   17.4362    2.8605   15.8208 C   0  0  1  0  0  0  0  0  0  0  0  0
   16.6805    8.6228   15.5001 N   0  0  0  0  0  0  0  0  0  0  0  0
   17.4693    4.2053   16.3240 O   0  0  0  0  0  0  0  0  0  0  0  0
   17.7434    4.2898   17.7304 C   0  0  2  0  0  0  0  0  0  0  0  0
   22.1236    5.3468   16.6395 N   0  0  0  0  0  0  0  0  0  0  0  0
   16.1059    2.5849   18.2348 O   0  0  0  0  0  0  0  0  0  0  0  0
   16.4422    3.9551   18.4688 C   0  0  1  0  0  0  0  0  0  0  0  0
   19.5744    5.9366   17.6009 O   0  0  0  0  0  0  0  0  0  0  0  0
   16.5980    4.1855   19.9733 C   0  0  1  0  0  0  0  0  0  0  0  0
   18.8696    6.7475   15.5072 O   0  0  0  0  0  0  0  0  0  0  0  0
   16.8857    5.6656   20.2263 C   0  0  0  0  0  0  0  0  0  0  0  0
   20.6769    9.9215   15.8753 O   0  0  0  0  0  0  0  0  0  0  0  0
   18.2025    6.0453   19.5426 C   0  0  1  0  0  0  0  0  0  0  0  0
   22.8089    8.0035   15.6734 O   0  0  0  0  0  0  0  0  0  0  0  0
   18.2278    5.7012   18.0485 C   0  0  2  0  0  0  0  0  0  0  0  0
   15.7721    3.0835   14.0211 O   0  0  0  0  0  0  0  0  0  0  0  0
   19.7620    5.8403   16.1803 C   0  0  1  0  0  0  0  0  0  0  0  0
   16.6006    0.5762   14.1780 O   0  0  0  0  0  0  0  0  0  0  0  0
   19.0583    8.1291   15.8576 C   0  0  2  0  0  0  0  0  0  0  0  0
   18.0469    8.9839   15.0900 C   0  0  0  0  0  0  0  0  0  0  0  0
   20.4715    8.5662   15.4679 C   0  0  2  0  0  0  0  0  0  0  0  0
   21.5030    7.6693   16.1555 C   0  0  1  0  0  0  0  0  0  0  0  0
   21.2161    6.1962   15.8530 C   0  0  1  0  0  0  0  0  0  0  0  0
   17.1599    2.9151   14.3197 C   0  0  2  0  0  0  0  0  0  0  0  0
   17.6297    1.5273   13.8938 C   0  0  1  0  0  0  0  0  0  0  0  0
  1  3  1  0  0  0  0
  4  1  1  6  0  0  0
  4  6  1  0  0  0  0
  4 31  1  0  0  0  0
  6  7  1  0  0  0  0
  7  9  1  6  0  0  0
  7 30  1  0  0  0  0
  8 26  1  0  0  0  0
 10  9  1  6  0  0  0
 10 13  1  0  0  0  0
 10 21  1  0  0  0  0
 13 12  1  1  0  0  0
 13 15  1  0  0  0  0
 15  2  1  1  0  0  0
 15 17  1  0  0  0  0
 16 25  1  0  0  0  0
 16 23  1  0  0  0  0
 17 19  1  0  0  0  0
 19  5  1  6  0  0  0
 19 21  1  0  0  0  0
 21 14  1  1  0  0  0
 23 14  1  1  0  0  0
 23 29  1  0  0  0  0
 25 26  1  6  0  0  0
 25 27  1  0  0  0  0
 27 18  1  1  0  0  0
 27 28  1  0  0  0  0
 28 20  1  6  0  0  0
 28 29  1  0  0  0  0
 29 11  1  1  0  0  0
 30 22  1  1  0  0  0
 30 31  1  0  0  0  0
 31 24  1  1  0  0  0
M  END
>  <CHROM.1>
177.79916467,-66.09786914,-78.46368717,56.29873173,62.46547857,63.27044531
18.54870345,4.96803144,16.41373964,-2.11920301,0.80611346,0.62321876

>  <Name>
ligand

>  <RI>
0

>  <Rbt.Current_Directory>
/home/itssahil/PROJECTS/Mol_Feturizer/New_Systems/rnas/3DVV

>  <Rbt.Executable>
rbdock ($Id: //depot/dev/client3/rdock/2013.1/src/exe/rbdock.cxx#4 $)

>  <Rbt.Library>
libRbt.so (2013.1, Build901 2013/11/27)

>  <Rbt.Parameter_File>
/export/apps/rDock/src/rDock_2013.1_src/data/scripts/dock_solv.prm

>  <Rbt.Receptor>
prm/pocket_docking_4.prm

>  <SCORE>
-9.08556

>  <SCORE.INTER>
-4.76786

>  <SCORE.INTER.CONST>
1

>  <SCORE.INTER.POLAR>
0

>  <SCORE.INTER.ROT>
6

>  <SCORE.INTER.SOLV>
16.9603

>  <SCORE.INTER.VDW>
-16.432

>  <SCORE.INTER.norm>
-0.153802

>  <SCORE.INTRA>
-4.3177

>  <SCORE.INTRA.DIHEDRAL>
-8.66373

>  <SCORE.INTRA.DIHEDRAL.0>
10.8172

>  <SCORE.INTRA.POLAR>
0

>  <SCORE.INTRA.POLAR.0>
0

>  <SCORE.INTRA.REPUL>
0

>  <SCORE.INTRA.REPUL.0>
0

>  <SCORE.INTRA.SOLV>
-4.28345

>  <SCORE.INTRA.SOLV.lig_0>
-80.3833

>  <SCORE.INTRA.VDW>
2.15589

>  <SCORE.INTRA.VDW.0>
-4.63762

>  <SCORE.INTRA.norm>
-0.139281

>  <SCORE.RESTR>
0

>  <SCORE.RESTR.CAVITY>
0

>  <SCORE.RESTR.norm>
0

>  <SCORE.SYSTEM>
0

>  <SCORE.SYSTEM.CONST>
0

>  <SCORE.SYSTEM.DIHEDRAL>
0

>  <SCORE.SYSTEM.SOLV>
0

>  <SCORE.SYSTEM.norm>
0

>  <SCORE.heavy>
31

>  <SCORE.norm>
-0.293083

>  <RMSD>
5.577

$$$$
ligand
 OpenBabel11021811473D
libRbt.so/2013.1/901 2013/11/27
 31 33  0  0  0  0  0  0  0  0999 V2000
   18.5067    2.9491   21.3606 C   0  0  0  0  0  0  0  0  0  0  0  0
   17.2376   10.4419   18.3956 N   0  0  0  0  0  0  0  0  0  0  0  0
   18.0028    1.8702   22.1549 O   0  0  0  0  0  0  0  0  0  0  0  0
   17.4759    4.0785   21.2899 C   0  0  1  0  0  0  0  0  0  0  0  0
   19.9298    8.1940   14.9894 N   0  0  0  0  0  0  0  0  0  0  0  0
   17.8990    5.0786   20.3427 O   0  0  0  0  0  0  0  0  0  0  0  0
   16.8449    5.2771   19.3840 C   0  0  1  0  0  0  0  0  0  0  0  0
   16.2835    4.9720   14.2563 N   0  0  0  0  0  0  0  0  0  0  0  0
   17.3629    5.5948   18.0825 O   0  0  0  0  0  0  0  0  0  0  0  0
   18.2024    6.7588   18.0628 C   0  0  2  0  0  0  0  0  0  0  0  0
   21.9385    3.9470   17.1823 N   0  0  0  0  0  0  0  0  0  0  0  0
   16.7498    7.9326   19.5973 O   0  0  0  0  0  0  0  0  0  0  0  0
   17.2967    7.9772   18.2766 C   0  0  1  0  0  0  0  0  0  0  0  0
   19.9791    5.8472   16.6160 O   0  0  0  0  0  0  0  0  0  0  0  0
   18.0854    9.2765   18.1018 C   0  0  1  0  0  0  0  0  0  0  0  0
   18.4158    4.1940   16.0151 O   0  0  0  0  0  0  0  0  0  0  0  0
   18.6080    9.3561   16.6672 C   0  0  0  0  0  0  0  0  0  0  0  0
   19.9802    3.5810   12.7511 O   0  0  0  0  0  0  0  0  0  0  0  0
   19.5553    8.1802   16.4117 C   0  0  1  0  0  0  0  0  0  0  0  0
   21.9702    2.6241   14.5920 O   0  0  0  0  0  0  0  0  0  0  0  0
   18.9224    6.8176   16.7190 C   0  0  2  0  0  0  0  0  0  0  0  0
   14.8517    3.9664   18.7782 O   0  0  0  0  0  0  0  0  0  0  0  0
   19.5694    4.4866   16.8251 C   0  0  1  0  0  0  0  0  0  0  0  0
   15.0203    4.1881   21.4088 O   0  0  0  0  0  0  0  0  0  0  0  0
   18.6324    4.3492   14.6022 C   0  0  2  0  0  0  0  0  0  0  0  0
   17.3357    4.0238   13.8572 C   0  0  0  0  0  0  0  0  0  0  0  0
   19.7229    3.3795   14.1433 C   0  0  2  0  0  0  0  0  0  0  0  0
   21.0080    3.6266   14.9362 C   0  0  1  0  0  0  0  0  0  0  0  0
   20.7286    3.5613   16.4400 C   0  0  1  0  0  0  0  0  0  0  0  0
   16.1757    3.9060   19.3139 C   0  0  2  0  0  0  0  0  0  0  0  0
   16.1332    3.5348   20.7932 C   0  0  1  0  0  0  0  0  0  0  0  0
  1  3  1  0  0  0  0
  4  1  1  6  0  0  0
  4  6  1  0  0  0  0
  4 31  1  0  0  0  0
  6  7  1  0  0  0  0
  7  9  1  6  0  0  0
  7 30  1  0  0  0  0
  8 26  1  0  0  0  0
 10  9  1  6  0  0  0
 10 13  1  0  0  0  0
 10 21  1  0  0  0  0
 13 12  1  1  0  0  0
 13 15  1  0  0  0  0
 15  2  1  6  0  0  0
 15 17  1  0  0  0  0
 16 25  1  0  0  0  0
 16 23  1  0  0  0  0
 17 19  1  0  0  0  0
 19  5  1  6  0  0  0
 19 21  1  0  0  0  0
 21 14  1  1  0  0  0
 23 14  1  6  0  0  0
 23 29  1  0  0  0  0
 25 26  1  6  0  0  0
 25 27  1  0  0  0  0
 27 18  1  6  0  0  0
 27 28  1  0  0  0  0
 28 20  1  6  0  0  0
 28 29  1  0  0  0  0
 29 11  1  1  0  0  0
 30 22  1  1  0  0  0
 30 31  1  0  0  0  0
 31 24  1  1  0  0  0
M  END
>  <CHROM.1>
-171.93120626,-57.51899088,-71.09224001,49.60979308,56.71101799,62.18980561
18.31839571,5.25052164,17.51859095,-2.87318702,1.04266365,-0.33861345

>  <Name>
ligand

>  <RI>
0

>  <Rbt.Current_Directory>
/home/itssahil/PROJECTS/Mol_Feturizer/New_Systems/rnas/3DVV

>  <Rbt.Executable>
rbdock ($Id: //depot/dev/client3/rdock/2013.1/src/exe/rbdock.cxx#4 $)

>  <Rbt.Library>
libRbt.so (2013.1, Build901 2013/11/27)

>  <Rbt.Parameter_File>
/export/apps/rDock/src/rDock_2013.1_src/data/scripts/dock_solv.prm

>  <Rbt.Receptor>
prm/pocket_docking_5.prm

>  <SCORE>
-4.53453

>  <SCORE.INTER>
-1.5515

>  <SCORE.INTER.CONST>
1

>  <SCORE.INTER.POLAR>
0

>  <SCORE.INTER.ROT>
6

>  <SCORE.INTER.SOLV>
15.7342

>  <SCORE.INTER.VDW>
-13.8791

>  <SCORE.INTER.norm>
-0.0500484

>  <SCORE.INTRA>
-3.14415

>  <SCORE.INTRA.DIHEDRAL>
-9.09803

>  <SCORE.INTRA.DIHEDRAL.0>
10.8172

>  <SCORE.INTRA.POLAR>
0

>  <SCORE.INTRA.POLAR.0>
0

>  <SCORE.INTRA.REPUL>
0

>  <SCORE.INTRA.REPUL.0>
0

>  <SCORE.INTRA.SOLV>
-3.87586

>  <SCORE.INTRA.SOLV.lig_0>
-80.3833

>  <SCORE.INTRA.VDW>
3.34279

>  <SCORE.INTRA.VDW.0>
-4.63762

>  <SCORE.INTRA.norm>
-0.101424

>  <SCORE.RESTR>
0.161118

>  <SCORE.RESTR.CAVITY>
0.161118

>  <SCORE.RESTR.norm>
0.00519736

>  <SCORE.SYSTEM>
0

>  <SCORE.SYSTEM.CONST>
0

>  <SCORE.SYSTEM.DIHEDRAL>
0

>  <SCORE.SYSTEM.SOLV>
0

>  <SCORE.SYSTEM.norm>
0

>  <SCORE.heavy>
31

>  <SCORE.norm>
-0.146275

>  <RMSD>
5.579

$$$$
ligand
 OpenBabel11021811473D
libRbt.so/2013.1/901 2013/11/27
 31 33  0  0  0  0  0  0  0  0999 V2000
   17.9477    2.3550   21.6936 C   0  0  0  0  0  0  0  0  0  0  0  0
   17.0981   10.3460   18.4588 N   0  0  0  0  0  0  0  0  0  0  0  0
   17.1019    1.7517   22.6782 O   0  0  0  0  0  0  0  0  0  0  0  0
   18.0125    3.8690   21.9100 C   0  0  1  0  0  0  0  0  0  0  0  0
   19.6472    8.0782   14.9570 N   0  0  0  0  0  0  0  0  0  0  0  0
   18.7908    4.4870   20.8666 O   0  0  0  0  0  0  0  0  0  0  0  0
   17.9980    5.5192   20.2536 C   0  0  1  0  0  0  0  0  0  0  0  0
   16.7945    4.0723   15.4690 N   0  0  0  0  0  0  0  0  0  0  0  0
   18.2890    5.6520   18.8534 O   0  0  0  0  0  0  0  0  0  0  0  0
   18.8218    6.9351   18.4928 C   0  0  2  0  0  0  0  0  0  0  0  0
   22.9183    4.8307   17.3385 N   0  0  0  0  0  0  0  0  0  0  0  0
   17.4061    8.0637   20.0942 O   0  0  0  0  0  0  0  0  0  0  0  0
   17.7058    7.9658   18.6992 C   0  0  1  0  0  0  0  0  0  0  0  0
   20.5019    6.1399   16.8723 O   0  0  0  0  0  0  0  0  0  0  0  0
   18.1333    9.3395   18.1785 C   0  0  1  0  0  0  0  0  0  0  0  0
   19.2988    4.1174   16.8664 O   0  0  0  0  0  0  0  0  0  0  0  0
   18.3830    9.2489   16.6729 C   0  0  0  0  0  0  0  0  0  0  0  0
   20.4321    3.1912   13.4998 O   0  0  0  0  0  0  0  0  0  0  0  0
   19.5223    8.2594   16.4113 C   0  0  1  0  0  0  0  0  0  0  0  0
   22.8551    3.0486   15.0405 O   0  0  0  0  0  0  0  0  0  0  0  0
   19.2805    6.8811   17.0386 C   0  0  2  0  0  0  0  0  0  0  0  0
   15.5898    6.0272   20.2731 O   0  0  0  0  0  0  0  0  0  0  0  0
   20.4629    4.7949   17.3745 C   0  0  1  0  0  0  0  0  0  0  0  0
   16.4345    5.5665   22.7372 O   0  0  0  0  0  0  0  0  0  0  0  0
   19.2484    4.0260   15.4324 C   0  0  2  0  0  0  0  0  0  0  0  0
   17.9649    3.3010   15.0208 C   0  0  0  0  0  0  0  0  0  0  0  0
   20.4512    3.2259   14.9293 C   0  0  2  0  0  0  0  0  0  0  0  0
   21.7496    3.8830   15.4022 C   0  0  1  0  0  0  0  0  0  0  0  0
   21.7327    4.0662   16.9221 C   0  0  1  0  0  0  0  0  0  0  0  0
   16.5709    4.9954   20.4008 C   0  0  2  0  0  0  0  0  0  0  0  0
   16.6070    4.4719   21.8335 C   0  0  1  0  0  0  0  0  0  0  0  0
  1  3  1  0  0  0  0
  4  1  1  6  0  0  0
  4  6  1  0  0  0  0
  4 31  1  0  0  0  0
  6  7  1  0  0  0  0
  7  9  1  6  0  0  0
  7 30  1  0  0  0  0
  8 26  1  0  0  0  0
 10  9  1  6  0  0  0
 10 13  1  0  0  0  0
 10 21  1  0  0  0  0
 13 12  1  1  0  0  0
 13 15  1  0  0  0  0
 15  2  1  6  0  0  0
 15 17  1  0  0  0  0
 16 25  1  0  0  0  0
 16 23  1  0  0  0  0
 17 19  1  0  0  0  0
 19  5  1  6  0  0  0
 19 21  1  0  0  0  0
 21 14  1  1  0  0  0
 23 14  1  6  0  0  0
 23 29  1  0  0  0  0
 25 26  1  1  0  0  0
 25 27  1  0  0  0  0
 27 18  1  6  0  0  0
 27 28  1  0  0  0  0
 28 20  1  1  0  0  0
 28 29  1  0  0  0  0
 29 11  1  6  0  0  0
 30 22  1  1  0  0  0
 30 31  1  0  0  0  0
 31 24  1  1  0  0  0
M  END
>  <CHROM.1>
-176.16602997,-117.66554679,-67.37461669,50.30397870,55.97745920,61.86049230
18.81731119,5.40237609,18.11728435,-2.84280655,0.99276365,-0.47174183

>  <Name>
ligand

>  <RI>
0

>  <Rbt.Current_Directory>
/home/itssahil/PROJECTS/Mol_Feturizer/New_Systems/rnas/3DVV

>  <Rbt.Executable>
rbdock ($Id: //depot/dev/client3/rdock/2013.1/src/exe/rbdock.cxx#4 $)

>  <Rbt.Library>
libRbt.so (2013.1, Build901 2013/11/27)

>  <Rbt.Parameter_File>
/export/apps/rDock/src/rDock_2013.1_src/data/scripts/dock_solv.prm

>  <Rbt.Receptor>
prm/pocket_docking_5.prm

>  <SCORE>
-5.90243

>  <SCORE.INTER>
-6.36074

>  <SCORE.INTER.CONST>
1

>  <SCORE.INTER.POLAR>
0

>  <SCORE.INTER.ROT>
6

>  <SCORE.INTER.SOLV>
16.7524

>  <SCORE.INTER.VDW>
-17.4246

>  <SCORE.INTER.norm>
-0.205185

>  <SCORE.INTRA>
0.456397

>  <SCORE.INTRA.DIHEDRAL>
-2.82334

>  <SCORE.INTRA.DIHEDRAL.0>
10.8172

>  <SCORE.INTRA.POLAR>
0

>  <SCORE.INTRA.POLAR.0>
0

>  <SCORE.INTRA.REPUL>
0

>  <SCORE.INTRA.REPUL.0>
0

>  <SCORE.INTRA.SOLV>
-3.33405

>  <SCORE.INTRA.SOLV.lig_0>
-80.3833

>  <SCORE.INTRA.VDW>
3.53509

>  <SCORE.INTRA.VDW.0>
-4.63762

>  <SCORE.INTRA.norm>
0.0147225

>  <SCORE.RESTR>
0.00191122

>  <SCORE.RESTR.CAVITY>
0.00191122

>  <SCORE.RESTR.norm>
6.16522e-05

>  <SCORE.SYSTEM>
0

>  <SCORE.SYSTEM.CONST>
0

>  <SCORE.SYSTEM.DIHEDRAL>
0

>  <SCORE.SYSTEM.SOLV>
0

>  <SCORE.SYSTEM.norm>
0

>  <SCORE.heavy>
31

>  <SCORE.norm>
-0.190401

>  <RMSD>
5.604

$$$$
ligand
 OpenBabel11021811473D
libRbt.so/2013.1/901 2013/11/27
 31 33  0  0  0  0  0  0  0  0999 V2000
   20.0805    1.6961   13.9913 C   0  0  0  0  0  0  0  0  0  0  0  0
   15.4361    3.7764   20.6913 N   0  0  0  0  0  0  0  0  0  0  0  0
   20.2519    0.7641   12.9185 O   0  0  0  0  0  0  0  0  0  0  0  0
   18.8097    1.3666   14.7784 C   0  0  1  0  0  0  0  0  0  0  0  0
   18.1967    7.6401   19.5278 N   0  0  0  0  0  0  0  0  0  0  0  0
   18.6510    2.2888   15.8742 O   0  0  0  0  0  0  0  0  0  0  0  0
   17.3497    2.8949   15.7785 C   0  0  1  0  0  0  0  0  0  0  0  0
   17.9114    8.8479   13.4717 N   0  0  0  0  0  0  0  0  0  0  0  0
   17.3583    4.2501   16.2541 O   0  0  0  0  0  0  0  0  0  0  0  0
   17.6722    4.3712   17.6494 C   0  0  2  0  0  0  0  0  0  0  0  0
   21.9280    5.5094   16.4205 N   0  0  0  0  0  0  0  0  0  0  0  0
   16.1487    2.5868   18.2304 O   0  0  0  0  0  0  0  0  0  0  0  0
   16.4158    3.9769   18.4346 C   0  0  1  0  0  0  0  0  0  0  0  0
   19.4040    6.1139   17.4377 O   0  0  0  0  0  0  0  0  0  0  0  0
   16.6066    4.2386   19.9299 C   0  0  1  0  0  0  0  0  0  0  0  0
   18.6439    6.8878   15.3492 O   0  0  0  0  0  0  0  0  0  0  0  0
   16.8198    5.7360   20.1532 C   0  0  0  0  0  0  0  0  0  0  0  0
   20.4565   10.0691   15.6150 O   0  0  0  0  0  0  0  0  0  0  0  0
   18.0909    6.1770   19.4216 C   0  0  1  0  0  0  0  0  0  0  0  0
   22.5847    8.1494   15.3910 O   0  0  0  0  0  0  0  0  0  0  0  0
   18.0875    5.8118   17.9322 C   0  0  2  0  0  0  0  0  0  0  0  0
   15.6971    3.0554   13.9617 O   0  0  0  0  0  0  0  0  0  0  0  0
   19.5547    5.9931   16.0145 C   0  0  1  0  0  0  0  0  0  0  0  0
   16.5622    0.5648   14.1767 O   0  0  0  0  0  0  0  0  0  0  0  0
   18.8400    8.2755   15.6706 C   0  0  2  0  0  0  0  0  0  0  0  0
   17.8081    9.1160   14.9150 C   0  0  0  0  0  0  0  0  0  0  0  0
   20.2422    8.7067   15.2367 C   0  0  2  0  0  0  0  0  0  0  0  0
   21.2923    7.8227   15.9126 C   0  0  1  0  0  0  0  0  0  0  0  0
   20.9993    6.3444   15.6433 C   0  0  1  0  0  0  0  0  0  0  0  0
   17.0848    2.9144   14.2745 C   0  0  2  0  0  0  0  0  0  0  0  0
   17.5791    1.5256   13.8810 C   0  0  1  0  0  0  0  0  0  0  0  0
  1  3  1  0  0  0  0
  4  1  1  6  0  0  0
  4  6  1  0  0  0  0
  4 31  1  0  0  0  0
  6  7  1  0  0  0  0
  7  9  1  6  0  0  0
  7 30  1  0  0  0  0
  8 26  1  0  0  0  0
 10  9  1  6  0  0  0
 10 13  1  0  0  0  0
 10 21  1  0  0  0  0
 13 12  1  1  0  0  0
 13 15  1  0  0  0  0
 15  2  1  1  0  0  0
 15 17  1  0  0  0  0
 16 25  1  0  0  0  0
 16 23  1  0  0  0  0
 17 19  1  0  0  0  0
 19  5  1  6  0  0  0
 19 21  1  0  0  0  0
 21 14  1  1  0  0  0
 23 14  1  1  0  0  0
 23 29  1  0  0  0  0
 25 26  1  6  0  0  0
 25 27  1  0  0  0  0
 27 18  1  1  0  0  0
 27 28  1  0  0  0  0
 28 20  1  6  0  0  0
 28 29  1  0  0  0  0
 29 11  1  1  0  0  0
 30 22  1  1  0  0  0
 30 31  1  0  0  0  0
 31 24  1  1  0  0  0
M  END
>  <CHROM.1>
178.87777740,-63.75389752,-76.93511106,59.63623437,61.86638611,-56.12429886
18.47445278,5.05389363,16.24792363,-2.21647676,0.91627332,0.63441761

>  <Name>
ligand

>  <RI>
0

>  <Rbt.Current_Directory>
/home/itssahil/PROJECTS/Mol_Feturizer/New_Systems/rnas/3DVV

>  <Rbt.Executable>
rbdock ($Id: //depot/dev/client3/rdock/2013.1/src/exe/rbdock.cxx#4 $)

>  <Rbt.Library>
libRbt.so (2013.1, Build901 2013/11/27)

>  <Rbt.Parameter_File>
/export/apps/rDock/src/rDock_2013.1_src/data/scripts/dock_solv.prm

>  <Rbt.Receptor>
prm/pocket_docking_5.prm

>  <SCORE>
-7.83071

>  <SCORE.INTER>
-4.21602

>  <SCORE.INTER.CONST>
1

>  <SCORE.INTER.POLAR>
0

>  <SCORE.INTER.ROT>
6

>  <SCORE.INTER.SOLV>
15.2338

>  <SCORE.INTER.VDW>
-15.4886

>  <SCORE.INTER.norm>
-0.136

>  <SCORE.INTRA>
-3.62974

>  <SCORE.INTRA.DIHEDRAL>
-9.07706

>  <SCORE.INTRA.DIHEDRAL.0>
10.8172

>  <SCORE.INTRA.POLAR>
0

>  <SCORE.INTRA.POLAR.0>
0

>  <SCORE.INTRA.REPUL>
0

>  <SCORE.INTRA.REPUL.0>
0

>  <SCORE.INTRA.SOLV>
-3.08047

>  <SCORE.INTRA.SOLV.lig_0>
-80.3833

>  <SCORE.INTRA.VDW>
2.44903

>  <SCORE.INTRA.VDW.0>
-4.63762

>  <SCORE.INTRA.norm>
-0.117088

>  <SCORE.RESTR>
0.0150456

>  <SCORE.RESTR.CAVITY>
0.0150456

>  <SCORE.RESTR.norm>
0.000485342

>  <SCORE.SYSTEM>
0

>  <SCORE.SYSTEM.CONST>
0

>  <SCORE.SYSTEM.DIHEDRAL>
0

>  <SCORE.SYSTEM.SOLV>
0

>  <SCORE.SYSTEM.norm>
0

>  <SCORE.heavy>
31

>  <SCORE.norm>
-0.252603

>  <RMSD>
5.609

$$$$
ligand
 OpenBabel11021811473D
libRbt.so/2013.1/901 2013/11/27
 31 33  0  0  0  0  0  0  0  0999 V2000
   14.4702    7.9370   14.1395 C   0  0  0  0  0  0  0  0  0  0  0  0
   13.7455    1.9174   20.0420 N   0  0  0  0  0  0  0  0  0  0  0  0
   15.2796    8.6626   15.0709 O   0  0  0  0  0  0  0  0  0  0  0  0
   13.4458    7.0797   14.8870 C   0  0  1  0  0  0  0  0  0  0  0  0
   18.0752    4.1517   20.4484 N   0  0  0  0  0  0  0  0  0  0  0  0
   14.1089    6.2484   15.8595 O   0  0  0  0  0  0  0  0  0  0  0  0
   13.5082    6.4799   17.1461 C   0  0  1  0  0  0  0  0  0  0  0  0
   20.4415    7.8898   14.7011 N   0  0  0  0  0  0  0  0  0  0  0  0
   14.4661    6.3593   18.2095 O   0  0  0  0  0  0  0  0  0  0  0  0
   15.0622    5.0572   18.3057 C   0  0  2  0  0  0  0  0  0  0  0  0
   16.6069    7.7474   19.9875 N   0  0  0  0  0  0  0  0  0  0  0  0
   12.8996    3.9776   18.3046 O   0  0  0  0  0  0  0  0  0  0  0  0
   14.0856    4.1655   19.0813 C   0  0  1  0  0  0  0  0  0  0  0  0
   17.4186    5.7751   18.1926 O   0  0  0  0  0  0  0  0  0  0  0  0
   14.7145    2.8026   19.3779 C   0  0  1  0  0  0  0  0  0  0  0  0
   19.6044    6.6404   18.0844 O   0  0  0  0  0  0  0  0  0  0  0  0
   15.9410    3.0002   20.2689 C   0  0  0  0  0  0  0  0  0  0  0  0
   18.6341    9.4312   15.9058 O   0  0  0  0  0  0  0  0  0  0  0  0
   16.9714    3.8533   19.5233 C   0  0  1  0  0  0  0  0  0  0  0  0
   17.2996   10.0650   18.3720 O   0  0  0  0  0  0  0  0  0  0  0  0
   16.4024    5.1867   19.0232 C   0  0  2  0  0  0  0  0  0  0  0  0
   12.0600    8.2622   18.0316 O   0  0  0  0  0  0  0  0  0  0  0  0
   18.4289    6.5068   18.9045 C   0  0  1  0  0  0  0  0  0  0  0  0
   11.1473    7.4385   15.6893 O   0  0  0  0  0  0  0  0  0  0  0  0
   19.3837    7.3366   16.8459 C   0  0  2  0  0  0  0  0  0  0  0  0
   20.6983    7.3999   16.0648 C   0  0  0  0  0  0  0  0  0  0  0  0
   18.9134    8.7625   17.1387 C   0  0  2  0  0  0  0  0  0  0  0  0
   17.6454    8.7282   17.9943 C   0  0  1  0  0  0  0  0  0  0  0  0
   17.8747    7.8916   19.2557 C   0  0  1  0  0  0  0  0  0  0  0  0
   13.0613    7.9380   17.0642 C   0  0  2  0  0  0  0  0  0  0  0  0
   12.4719    7.9758   15.6573 C   0  0  1  0  0  0  0  0  0  0  0  0
  1  3  1  0  0  0  0
  4  1  1  1  0  0  0
  4  6  1  0  0  0  0
  4 31  1  0  0  0  0
  6  7  1  0  0  0  0
  7  9  1  1  0  0  0
  7 30  1  0  0  0  0
  8 26  1  0  0  0  0
 10  9  1  1  0  0  0
 10 13  1  0  0  0  0
 10 21  1  0  0  0  0
 13 12  1  6  0  0  0
 13 15  1  0  0  0  0
 15  2  1  1  0  0  0
 15 17  1  0  0  0  0
 16 25  1  0  0  0  0
 16 23  1  0  0  0  0
 17 19  1  0  0  0  0
 19  5  1  1  0  0  0
 19 21  1  0  0  0  0
 21 14  1  6  0  0  0
 23 14  1  6  0  0  0
 23 29  1  0  0  0  0
 25 26  1  1  0  0  0
 25 27  1  0  0  0  0
 27 18  1  6  0  0  0
 27 28  1  0  0  0  0
 28 20  1  1  0  0  0
 28 29  1  0  0  0  0
 29 11  1  6  0  0  0
 30 22  1  1  0  0  0
 30 31  1  0  0  0  0
 31 24  1  1  0  0  0
M  END
>  <CHROM.1>
-53.37755447,-61.28464033,-82.03894876,159.82742474,151.01292539,169.91307736
15.93657944,6.57545685,17.63488764,2.71786488,0.17864126,2.45593244

>  <Name>
ligand

>  <RI>
0

>  <Rbt.Current_Directory>
/home/itssahil/PROJECTS/Mol_Feturizer/New_Systems/rnas/3DVV

>  <Rbt.Executable>
rbdock ($Id: //depot/dev/client3/rdock/2013.1/src/exe/rbdock.cxx#4 $)

>  <Rbt.Library>
libRbt.so (2013.1, Build901 2013/11/27)

>  <Rbt.Parameter_File>
/export/apps/rDock/src/rDock_2013.1_src/data/scripts/dock_solv.prm

>  <Rbt.Receptor>
prm/pocket_docking_8.prm

>  <SCORE>
-0.787857

>  <SCORE.INTER>
-2.43641

>  <SCORE.INTER.CONST>
1

>  <SCORE.INTER.POLAR>
0

>  <SCORE.INTER.ROT>
6

>  <SCORE.INTER.SOLV>
12.4953

>  <SCORE.INTER.VDW>
-13.3894

>  <SCORE.INTER.norm>
-0.0785939

>  <SCORE.INTRA>
1.64855

>  <SCORE.INTRA.DIHEDRAL>
-2.72964

>  <SCORE.INTRA.DIHEDRAL.0>
10.8172

>  <SCORE.INTRA.POLAR>
0

>  <SCORE.INTRA.POLAR.0>
0

>  <SCORE.INTRA.REPUL>
0.00834017

>  <SCORE.INTRA.REPUL.0>
0

>  <SCORE.INTRA.SOLV>
1.24464

>  <SCORE.INTRA.SOLV.lig_0>
-80.3833

>  <SCORE.INTRA.VDW>
2.34936

>  <SCORE.INTRA.VDW.0>
-4.63762

>  <SCORE.INTRA.norm>
0.0531792

>  <SCORE.RESTR>
0

>  <SCORE.RESTR.CAVITY>
0

>  <SCORE.RESTR.norm>
0

>  <SCORE.SYSTEM>
0

>  <SCORE.SYSTEM.CONST>
0

>  <SCORE.SYSTEM.DIHEDRAL>
0

>  <SCORE.SYSTEM.SOLV>
0

>  <SCORE.SYSTEM.norm>
0

>  <SCORE.heavy>
31

>  <SCORE.norm>
-0.0254148

>  <RMSD>
5.612

$$$$
ligand
 OpenBabel11021811473D
libRbt.so/2013.1/901 2013/11/27
 31 33  0  0  0  0  0  0  0  0999 V2000
   15.1619   -0.2633   11.3782 C   0  0  0  0  0  0  0  0  0  0  0  0
   20.2655   -1.4195   12.4495 N   0  0  0  0  0  0  0  0  0  0  0  0
   15.8098   -0.3097   10.1027 O   0  0  0  0  0  0  0  0  0  0  0  0
   15.4455    1.0747   12.0656 C   0  0  1  0  0  0  0  0  0  0  0  0
   20.0115    2.6078   15.2100 N   0  0  0  0  0  0  0  0  0  0  0  0
   16.8606    1.3464   12.0589 O   0  0  0  0  0  0  0  0  0  0  0  0
   17.0766    2.6375   11.4622 C   0  0  1  0  0  0  0  0  0  0  0  0
   20.1576    6.4950   17.2961 N   0  0  0  0  0  0  0  0  0  0  0  0
   18.3142    2.6867   10.7350 O   0  0  0  0  0  0  0  0  0  0  0  0
   19.4378    2.1812   11.4712 C   0  0  2  0  0  0  0  0  0  0  0  0
   18.7130    6.3387   11.4771 N   0  0  0  0  0  0  0  0  0  0  0  0
   19.4234    0.1084   10.2279 O   0  0  0  0  0  0  0  0  0  0  0  0
   19.2876    0.6571   11.5416 C   0  0  1  0  0  0  0  0  0  0  0  0
   19.8550    4.1907   12.8382 O   0  0  0  0  0  0  0  0  0  0  0  0
   20.3543    0.0487   12.4542 C   0  0  1  0  0  0  0  0  0  0  0  0
   19.4611    5.1871   14.9335 O   0  0  0  0  0  0  0  0  0  0  0  0
   20.1617    0.5814   13.8743 C   0  0  0  0  0  0  0  0  0  0  0  0
   22.2450    7.5543   14.5839 O   0  0  0  0  0  0  0  0  0  0  0  0
   20.3434    2.1021   13.8693 C   0  0  1  0  0  0  0  0  0  0  0  0
   20.4071    8.4412   12.5589 O   0  0  0  0  0  0  0  0  0  0  0  0
   19.4361    2.8149   12.8591 C   0  0  2  0  0  0  0  0  0  0  0  0
   15.6707    4.1084   10.0774 O   0  0  0  0  0  0  0  0  0  0  0  0
   19.0072    5.0892   13.5709 C   0  0  1  0  0  0  0  0  0  0  0  0
   14.2925    3.2465   12.1644 O   0  0  0  0  0  0  0  0  0  0  0  0
   20.8051    5.6782   15.0737 C   0  0  2  0  0  0  0  0  0  0  0  0
   21.1705    5.7225   16.5593 C   0  0  0  0  0  0  0  0  0  0  0  0
   20.8937    7.0937   14.5005 C   0  0  2  0  0  0  0  0  0  0  0  0
   20.4491    7.0924   13.0364 C   0  0  1  0  0  0  0  0  0  0  0  0
   19.0584    6.4666   12.9012 C   0  0  1  0  0  0  0  0  0  0  0  0
   15.9269    2.7562   10.4639 C   0  0  2  0  0  0  0  0  0  0  0  0
   14.7697    2.2142   11.2977 C   0  0  1  0  0  0  0  0  0  0  0  0
  1  3  1  0  0  0  0
  4  1  1  6  0  0  0
  4  6  1  0  0  0  0
  4 31  1  0  0  0  0
  6  7  1  0  0  0  0
  7  9  1  6  0  0  0
  7 30  1  0  0  0  0
  8 26  1  0  0  0  0
 10  9  1  6  0  0  0
 10 13  1  0  0  0  0
 10 21  1  0  0  0  0
 13 12  1  6  0  0  0
 13 15  1  0  0  0  0
 15  2  1  1  0  0  0
 15 17  1  0  0  0  0
 16 25  1  0  0  0  0
 16 23  1  0  0  0  0
 17 19  1  0  0  0  0
 19  5  1  1  0  0  0
 19 21  1  0  0  0  0
 21 14  1  6  0  0  0
 23 14  1  6  0  0  0
 23 29  1  0  0  0  0
 25 26  1  1  0  0  0
 25 27  1  0  0  0  0
 27 18  1  6  0  0  0
 27 28  1  0  0  0  0
 28 20  1  1  0  0  0
 28 29  1  0  0  0  0
 29 11  1  6  0  0  0
 30 22  1  1  0  0  0
 30 31  1  0  0  0  0
 31 24  1  1  0  0  0
M  END
>  <CHROM.1>
-50.43059502,-48.77244943,72.59675277,90.06130010,132.24837670,-53.78191838
18.69601978,3.38301276,12.71682849,2.22320067,0.57572899,-2.99196328

>  <Name>
ligand

>  <RI>
0

>  <Rbt.Current_Directory>
/home/itssahil/PROJECTS/Mol_Feturizer/New_Systems/rnas/3DVV

>  <Rbt.Executable>
rbdock ($Id: //depot/dev/client3/rdock/2013.1/src/exe/rbdock.cxx#4 $)

>  <Rbt.Library>
libRbt.so (2013.1, Build901 2013/11/27)

>  <Rbt.Parameter_File>
/export/apps/rDock/src/rDock_2013.1_src/data/scripts/dock_solv.prm

>  <Rbt.Receptor>
prm/blind_docking_100.prm

>  <SCORE>
-0.0672123

>  <SCORE.INTER>
-5.07854

>  <SCORE.INTER.CONST>
1

>  <SCORE.INTER.POLAR>
0

>  <SCORE.INTER.ROT>
6

>  <SCORE.INTER.SOLV>
20.2494

>  <SCORE.INTER.VDW>
-17.7355

>  <SCORE.INTER.norm>
-0.163824

>  <SCORE.INTRA>
5.01133

>  <SCORE.INTRA.DIHEDRAL>
1.1806

>  <SCORE.INTRA.DIHEDRAL.0>
10.8172

>  <SCORE.INTRA.POLAR>
0

>  <SCORE.INTRA.POLAR.0>
0

>  <SCORE.INTRA.REPUL>
0

>  <SCORE.INTRA.REPUL.0>
0

>  <SCORE.INTRA.SOLV>
1.4973

>  <SCORE.INTRA.SOLV.lig_0>
-80.3833

>  <SCORE.INTRA.VDW>
3.67238

>  <SCORE.INTRA.VDW.0>
-4.63762

>  <SCORE.INTRA.norm>
0.161656

>  <SCORE.RESTR>
0

>  <SCORE.RESTR.CAVITY>
0

>  <SCORE.RESTR.norm>
0

>  <SCORE.SYSTEM>
0

>  <SCORE.SYSTEM.CONST>
0

>  <SCORE.SYSTEM.DIHEDRAL>
0

>  <SCORE.SYSTEM.SOLV>
0

>  <SCORE.SYSTEM.norm>
0

>  <SCORE.heavy>
31

>  <SCORE.norm>
-0.00216814

>  <RMSD>
5.620

$$$$
ligand
 OpenBabel11021811473D
libRbt.so/2013.1/901 2013/11/27
 31 33  0  0  0  0  0  0  0  0999 V2000
   20.0735    1.8012   14.0325 C   0  0  0  0  0  0  0  0  0  0  0  0
   15.3437    3.8019   20.8075 N   0  0  0  0  0  0  0  0  0  0  0  0
   20.2831    0.8477   12.9857 O   0  0  0  0  0  0  0  0  0  0  0  0
   18.8358    1.4234   14.8502 C   0  0  1  0  0  0  0  0  0  0  0  0
   18.2047    7.6065   19.6924 N   0  0  0  0  0  0  0  0  0  0  0  0
   18.6789    2.3283   15.9606 O   0  0  0  0  0  0  0  0  0  0  0  0
   17.3572    2.8941   15.9075 C   0  0  1  0  0  0  0  0  0  0  0  0
   16.5361    8.7689   15.5157 N   0  0  0  0  0  0  0  0  0  0  0  0
   17.3366    4.2438   16.3984 O   0  0  0  0  0  0  0  0  0  0  0  0
   17.6339    4.3545   17.7981 C   0  0  2  0  0  0  0  0  0  0  0  0
   21.9286    5.4109   16.6200 N   0  0  0  0  0  0  0  0  0  0  0  0
   16.0635    2.6028   18.3534 O   0  0  0  0  0  0  0  0  0  0  0  0
   16.3585    3.9862   18.5650 C   0  0  1  0  0  0  0  0  0  0  0  0
   19.4065    6.0590   17.6148 O   0  0  0  0  0  0  0  0  0  0  0  0
   16.5345    4.2400   20.0635 C   0  0  1  0  0  0  0  0  0  0  0  0
   18.6877    6.8715   15.5265 O   0  0  0  0  0  0  0  0  0  0  0  0
   16.7775    5.7317   20.2937 C   0  0  0  0  0  0  0  0  0  0  0  0
   20.5651   10.0097   15.8478 O   0  0  0  0  0  0  0  0  0  0  0  0
   18.0681    6.1463   19.5808 C   0  0  1  0  0  0  0  0  0  0  0  0
   22.6540    8.0469   15.6270 O   0  0  0  0  0  0  0  0  0  0  0  0
   18.0771    5.7848   18.0905 C   0  0  2  0  0  0  0  0  0  0  0  0
   15.6506    3.0219   14.1386 O   0  0  0  0  0  0  0  0  0  0  0  0
   19.5711    5.9502   16.1922 C   0  0  1  0  0  0  0  0  0  0  0  0
   16.5987    0.5577   14.3010 O   0  0  0  0  0  0  0  0  0  0  0  0
   18.9099    8.2511   15.8653 C   0  0  2  0  0  0  0  0  0  0  0  0
   17.9051    9.1218   15.1072 C   0  0  0  0  0  0  0  0  0  0  0  0
   20.3259    8.6565   15.4522 C   0  0  2  0  0  0  0  0  0  0  0  0
   21.3488    7.7427   16.1303 C   0  0  1  0  0  0  0  0  0  0  0  0
   21.0272    6.2741   15.8414 C   0  0  1  0  0  0  0  0  0  0  0  0
   17.0502    2.9214   14.4117 C   0  0  2  0  0  0  0  0  0  0  0  0
   17.5765    1.5531   13.9888 C   0  0  1  0  0  0  0  0  0  0  0  0
  1  3  1  0  0  0  0
  4  1  1  6  0  0  0
  4  6  1  0  0  0  0
  4 31  1  0  0  0  0
  6  7  1  0  0  0  0
  7  9  1  6  0  0  0
  7 30  1  0  0  0  0
  8 26  1  0  0  0  0
 10  9  1  6  0  0  0
 10 13  1  0  0  0  0
 10 21  1  0  0  0  0
 13 12  1  1  0  0  0
 13 15  1  0  0  0  0
 15  2  1  1  0  0  0
 15 17  1  0  0  0  0
 16 25  1  0  0  0  0
 16 23  1  0  0  0  0
 17 19  1  0  0  0  0
 19  5  1  6  0  0  0
 19 21  1  0  0  0  0
 21 14  1  1  0  0  0
 23 14  1  1  0  0  0
 23 29  1  0  0  0  0
 25 26  1  6  0  0  0
 25 27  1  0  0  0  0
 27 18  1  1  0  0  0
 27 28  1  0  0  0  0
 28 20  1  6  0  0  0
 28 29  1  0  0  0  0
 29 11  1  1  0  0  0
 30 22  1  1  0  0  0
 30 31  1  0  0  0  0
 31 24  1  1  0  0  0
M  END
>  <CHROM.1>
175.94960766,-66.06240761,-79.28440180,59.42378716,62.40659091,61.91228333
18.43708676,5.03912954,16.46069506,-2.10860385,0.82789842,0.59369211

>  <Name>
ligand

>  <RI>
0

>  <Rbt.Current_Directory>
/home/itssahil/PROJECTS/Mol_Feturizer/New_Systems/rnas/3DVV

>  <Rbt.Executable>
rbdock ($Id: //depot/dev/client3/rdock/2013.1/src/exe/rbdock.cxx#4 $)

>  <Rbt.Library>
libRbt.so (2013.1, Build901 2013/11/27)

>  <Rbt.Parameter_File>
/export/apps/rDock/src/rDock_2013.1_src/data/scripts/dock_solv.prm

>  <Rbt.Receptor>
prm/pocket_docking_6.prm

>  <SCORE>
-8.98102

>  <SCORE.INTER>
-4.61095

>  <SCORE.INTER.CONST>
1

>  <SCORE.INTER.POLAR>
0

>  <SCORE.INTER.ROT>
6

>  <SCORE.INTER.SOLV>
16.4338

>  <SCORE.INTER.VDW>
-16.1519

>  <SCORE.INTER.norm>
-0.14874

>  <SCORE.INTRA>
-4.37008

>  <SCORE.INTRA.DIHEDRAL>
-8.5894

>  <SCORE.INTRA.DIHEDRAL.0>
10.8172

>  <SCORE.INTRA.POLAR>
0

>  <SCORE.INTRA.POLAR.0>
0

>  <SCORE.INTRA.REPUL>
0

>  <SCORE.INTRA.REPUL.0>
0

>  <SCORE.INTRA.SOLV>
-4.33997

>  <SCORE.INTRA.SOLV.lig_0>
-80.3833

>  <SCORE.INTRA.VDW>
2.09461

>  <SCORE.INTRA.VDW.0>
-4.63762

>  <SCORE.INTRA.norm>
-0.14097

>  <SCORE.RESTR>
0

>  <SCORE.RESTR.CAVITY>
0

>  <SCORE.RESTR.norm>
0

>  <SCORE.SYSTEM>
0

>  <SCORE.SYSTEM.CONST>
0

>  <SCORE.SYSTEM.DIHEDRAL>
0

>  <SCORE.SYSTEM.SOLV>
0

>  <SCORE.SYSTEM.norm>
0

>  <SCORE.heavy>
31

>  <SCORE.norm>
-0.28971

>  <RMSD>
5.621

$$$$
ligand
 OpenBabel11021811473D
libRbt.so/2013.1/901 2013/11/27
 31 33  0  0  0  0  0  0  0  0999 V2000
   24.5706    4.1257   17.6384 C   0  0  0  0  0  0  0  0  0  0  0  0
   19.2176    3.2011   11.8521 N   0  0  0  0  0  0  0  0  0  0  0  0
   23.5322    4.1754   18.6224 O   0  0  0  0  0  0  0  0  0  0  0  0
   24.0876    4.7553   16.3294 C   0  0  1  0  0  0  0  0  0  0  0  0
   19.4593    8.0203   12.6397 N   0  0  0  0  0  0  0  0  0  0  0  0
   22.7964    4.2259   15.9704 O   0  0  0  0  0  0  0  0  0  0  0  0
   21.8870    5.3245   15.7812 C   0  0  1  0  0  0  0  0  0  0  0  0
   16.7190    4.9324   19.0039 N   0  0  0  0  0  0  0  0  0  0  0  0
   20.5487    4.9804   16.1729 O   0  0  0  0  0  0  0  0  0  0  0  0
   19.5806    5.1401   15.1255 C   0  0  2  0  0  0  0  0  0  0  0  0
   17.5202    9.7973   15.5879 N   0  0  0  0  0  0  0  0  0  0  0  0
   19.6225    2.7778   14.6153 O   0  0  0  0  0  0  0  0  0  0  0  0
   19.8767    4.0732   14.0651 C   0  0  1  0  0  0  0  0  0  0  0  0
   19.1628    7.5499   15.4408 O   0  0  0  0  0  0  0  0  0  0  0  0
   18.9969    4.2772   12.8302 C   0  0  1  0  0  0  0  0  0  0  0  0
   17.6482    6.2450   16.6823 O   0  0  0  0  0  0  0  0  0  0  0  0
   19.3224    5.6323   12.2016 C   0  0  0  0  0  0  0  0  0  0  0  0
   18.5915    7.7849   19.8783 O   0  0  0  0  0  0  0  0  0  0  0  0
   19.0041    6.7422   13.2077 C   0  0  1  0  0  0  0  0  0  0  0  0
   17.3203    9.9549   18.4855 O   0  0  0  0  0  0  0  0  0  0  0  0
   19.7043    6.5512   14.5586 C   0  0  2  0  0  0  0  0  0  0  0  0
   21.9586    7.6990   16.4253 O   0  0  0  0  0  0  0  0  0  0  0  0
   17.7811    7.3632   15.7854 C   0  0  1  0  0  0  0  0  0  0  0  0
   24.2570    6.9939   15.3217 O   0  0  0  0  0  0  0  0  0  0  0  0
   18.3676    6.3915   17.9184 C   0  0  2  0  0  0  0  0  0  0  0  0
   18.1576    5.1389   18.7725 C   0  0  0  0  0  0  0  0  0  0  0  0
   17.8316    7.6049   18.6803 C   0  0  2  0  0  0  0  0  0  0  0  0
   17.9501    8.8596   17.8126 C   0  0  1  0  0  0  0  0  0  0  0  0
   17.2677    8.6398   16.4599 C   0  0  1  0  0  0  0  0  0  0  0  0
   22.4142    6.3829   16.7478 C   0  0  2  0  0  0  0  0  0  0  0  0
   23.9160    6.2668   16.5047 C   0  0  1  0  0  0  0  0  0  0  0  0
  1  3  1  0  0  0  0
  4  1  1  1  0  0  0
  4  6  1  0  0  0  0
  4 31  1  0  0  0  0
  6  7  1  0  0  0  0
  7  9  1  1  0  0  0
  7 30  1  0  0  0  0
  8 26  1  0  0  0  0
 10  9  1  1  0  0  0
 10 13  1  0  0  0  0
 10 21  1  0  0  0  0
 13 12  1  1  0  0  0
 13 15  1  0  0  0  0
 15  2  1  6  0  0  0
 15 17  1  0  0  0  0
 16 25  1  0  0  0  0
 16 23  1  0  0  0  0
 17 19  1  0  0  0  0
 19  5  1  6  0  0  0
 19 21  1  0  0  0  0
 21 14  1  1  0  0  0
 23 14  1  1  0  0  0
 23 29  1  0  0  0  0
 25 26  1  1  0  0  0
 25 27  1  0  0  0  0
 27 18  1  1  0  0  0
 27 28  1  0  0  0  0
 28 20  1  1  0  0  0
 28 29  1  0  0  0  0
 29 11  1  6  0  0  0
 30 22  1  6  0  0  0
 30 31  1  0  0  0  0
 31 24  1  6  0  0  0
M  END
>  <CHROM.1>
-48.41988742,-122.61227057,68.41494751,71.94629774,-57.68518954,-57.45205513
19.99813028,6.17920861,16.07496879,-0.48158871,-0.43062282,1.18194565

>  <Name>
ligand

>  <RI>
0

>  <Rbt.Current_Directory>
/home/itssahil/PROJECTS/Mol_Feturizer/New_Systems/rnas/3DVV

>  <Rbt.Executable>
rbdock ($Id: //depot/dev/client3/rdock/2013.1/src/exe/rbdock.cxx#4 $)

>  <Rbt.Library>
libRbt.so (2013.1, Build901 2013/11/27)

>  <Rbt.Parameter_File>
/export/apps/rDock/src/rDock_2013.1_src/data/scripts/dock_solv.prm

>  <Rbt.Receptor>
prm/pocket_docking_4.prm

>  <SCORE>
-5.90825

>  <SCORE.INTER>
-7.4794

>  <SCORE.INTER.CONST>
1

>  <SCORE.INTER.POLAR>
0

>  <SCORE.INTER.ROT>
6

>  <SCORE.INTER.SOLV>
13.8895

>  <SCORE.INTER.VDW>
-17.2161

>  <SCORE.INTER.norm>
-0.241271

>  <SCORE.INTRA>
1.57115

>  <SCORE.INTRA.DIHEDRAL>
-2.14336

>  <SCORE.INTRA.DIHEDRAL.0>
10.8172

>  <SCORE.INTRA.POLAR>
0

>  <SCORE.INTRA.POLAR.0>
0

>  <SCORE.INTRA.REPUL>
0

>  <SCORE.INTRA.REPUL.0>
0

>  <SCORE.INTRA.SOLV>
-1.0956

>  <SCORE.INTRA.SOLV.lig_0>
-80.3833

>  <SCORE.INTRA.VDW>
3.19063

>  <SCORE.INTRA.VDW.0>
-4.63762

>  <SCORE.INTRA.norm>
0.0506822

>  <SCORE.RESTR>
0

>  <SCORE.RESTR.CAVITY>
0

>  <SCORE.RESTR.norm>
0

>  <SCORE.SYSTEM>
0

>  <SCORE.SYSTEM.CONST>
0

>  <SCORE.SYSTEM.DIHEDRAL>
0

>  <SCORE.SYSTEM.SOLV>
0

>  <SCORE.SYSTEM.norm>
0

>  <SCORE.heavy>
31

>  <SCORE.norm>
-0.190589

>  <RMSD>
5.638

$$$$
ligand
 OpenBabel11021811473D
libRbt.so/2013.1/901 2013/11/27
 31 33  0  0  0  0  0  0  0  0999 V2000
   14.8782    2.1330   19.2560 C   0  0  0  0  0  0  0  0  0  0  0  0
   17.3519    9.8776   19.0436 N   0  0  0  0  0  0  0  0  0  0  0  0
   15.5049    1.8540   17.9997 O   0  0  0  0  0  0  0  0  0  0  0  0
   14.9027    3.6379   19.5350 C   0  0  1  0  0  0  0  0  0  0  0  0
   18.5699    7.6560   14.8621 N   0  0  0  0  0  0  0  0  0  0  0  0
   16.2233    4.0461   19.9423 O   0  0  0  0  0  0  0  0  0  0  0  0
   16.6584    5.1145   19.0826 C   0  0  1  0  0  0  0  0  0  0  0  0
   16.2445    2.6165   14.0329 N   0  0  0  0  0  0  0  0  0  0  0  0
   18.0775    5.0766   18.8642 O   0  0  0  0  0  0  0  0  0  0  0  0
   18.6291    6.3282   18.4291 C   0  0  2  0  0  0  0  0  0  0  0  0
   22.1598    4.1976   16.3213 N   0  0  0  0  0  0  0  0  0  0  0  0
   17.8436    7.4583   20.4162 O   0  0  0  0  0  0  0  0  0  0  0  0
   17.7346    7.4397   18.9903 C   0  0  1  0  0  0  0  0  0  0  0  0
   19.6988    5.5059   16.3650 O   0  0  0  0  0  0  0  0  0  0  0  0
   18.1516    8.8032   18.4356 C   0  0  1  0  0  0  0  0  0  0  0  0
   18.5368    3.5059   16.7982 O   0  0  0  0  0  0  0  0  0  0  0  0
   17.9652    8.8050   16.9181 C   0  0  0  0  0  0  0  0  0  0  0  0
   18.8167    2.3278   13.3327 O   0  0  0  0  0  0  0  0  0  0  0  0
   18.8713    7.7365   16.2995 C   0  0  1  0  0  0  0  0  0  0  0  0
   21.5428    2.2587   14.2427 O   0  0  0  0  0  0  0  0  0  0  0  0
   18.6605    6.3429   16.9037 C   0  0  2  0  0  0  0  0  0  0  0  0
   15.8790    5.9421   16.8996 O   0  0  0  0  0  0  0  0  0  0  0  0
   19.7877    4.2005   16.9571 C   0  0  1  0  0  0  0  0  0  0  0  0
   13.8186    5.6019   18.5234 O   0  0  0  0  0  0  0  0  0  0  0  0
   18.1381    3.3143   15.4302 C   0  0  2  0  0  0  0  0  0  0  0  0
   16.7951    2.5810   15.3971 C   0  0  0  0  0  0  0  0  0  0  0  0
   19.1841    2.4630   14.7081 C   0  0  2  0  0  0  0  0  0  0  0  0
   20.5566    3.1328   14.8017 C   0  0  1  0  0  0  0  0  0  0  0  0
   20.9107    3.4230   16.2626 C   0  0  1  0  0  0  0  0  0  0  0  0
   15.9597    4.8038   17.7606 C   0  0  2  0  0  0  0  0  0  0  0  0
   14.5706    4.4151   18.2580 C   0  0  1  0  0  0  0  0  0  0  0  0
  1  3  1  0  0  0  0
  4  1  1  6  0  0  0
  4  6  1  0  0  0  0
  4 31  1  0  0  0  0
  6  7  1  0  0  0  0
  7  9  1  6  0  0  0
  7 30  1  0  0  0  0
  8 26  1  0  0  0  0
 10  9  1  6  0  0  0
 10 13  1  0  0  0  0
 10 21  1  0  0  0  0
 13 12  1  1  0  0  0
 13 15  1  0  0  0  0
 15  2  1  1  0  0  0
 15 17  1  0  0  0  0
 16 25  1  0  0  0  0
 16 23  1  0  0  0  0
 17 19  1  0  0  0  0
 19  5  1  6  0  0  0
 19 21  1  0  0  0  0
 21 14  1  1  0  0  0
 23 14  1  6  0  0  0
 23 29  1  0  0  0  0
 25 26  1  1  0  0  0
 25 27  1  0  0  0  0
 27 18  1  6  0  0  0
 27 28  1  0  0  0  0
 28 20  1  1  0  0  0
 28 29  1  0  0  0  0
 29 11  1  6  0  0  0
 30 22  1  6  0  0  0
 30 31  1  0  0  0  0
 31 24  1  1  0  0  0
M  END
>  <CHROM.1>
-75.76597475,-159.39068613,28.11553478,58.41292643,46.18219358,168.67006930
17.80877795,4.89190616,17.13612323,2.22392523,0.57092704,0.44121757

>  <Name>
ligand

>  <RI>
0

>  <Rbt.Current_Directory>
/home/itssahil/PROJECTS/Mol_Feturizer/New_Systems/rnas/3DVV

>  <Rbt.Executable>
rbdock ($Id: //depot/dev/client3/rdock/2013.1/src/exe/rbdock.cxx#4 $)

>  <Rbt.Library>
libRbt.so (2013.1, Build901 2013/11/27)

>  <Rbt.Parameter_File>
/export/apps/rDock/src/rDock_2013.1_src/data/scripts/dock_solv.prm

>  <Rbt.Receptor>
prm/pocket_docking_2.prm

>  <SCORE>
5.1539

>  <SCORE.INTER>
-1.51867

>  <SCORE.INTER.CONST>
1

>  <SCORE.INTER.POLAR>
0

>  <SCORE.INTER.ROT>
6

>  <SCORE.INTER.SOLV>
13.4432

>  <SCORE.INTER.VDW>
-13.0935

>  <SCORE.INTER.norm>
-0.0489893

>  <SCORE.INTRA>
5.26521

>  <SCORE.INTRA.DIHEDRAL>
-2.60235

>  <SCORE.INTRA.DIHEDRAL.0>
10.8172

>  <SCORE.INTRA.POLAR>
0

>  <SCORE.INTRA.POLAR.0>
0

>  <SCORE.INTRA.REPUL>
0.11878

>  <SCORE.INTRA.REPUL.0>
0

>  <SCORE.INTRA.SOLV>
-0.826973

>  <SCORE.INTRA.SOLV.lig_0>
-80.3833

>  <SCORE.INTRA.VDW>
6.38597

>  <SCORE.INTRA.VDW.0>
-4.63762

>  <SCORE.INTRA.norm>
0.169845

>  <SCORE.RESTR>
1.40736

>  <SCORE.RESTR.CAVITY>
1.40736

>  <SCORE.RESTR.norm>
0.0453987

>  <SCORE.SYSTEM>
0

>  <SCORE.SYSTEM.CONST>
0

>  <SCORE.SYSTEM.DIHEDRAL>
0

>  <SCORE.SYSTEM.SOLV>
0

>  <SCORE.SYSTEM.norm>
0

>  <SCORE.heavy>
31

>  <SCORE.norm>
0.166255

>  <RMSD>
5.654

$$$$
ligand
 OpenBabel11021811473D
libRbt.so/2013.1/901 2013/11/27
 31 33  0  0  0  0  0  0  0  0999 V2000
   17.3321    3.6500   12.1483 C   0  0  0  0  0  0  0  0  0  0  0  0
   24.7666    4.1906   16.2098 N   0  0  0  0  0  0  0  0  0  0  0  0
   17.9091    4.4817   11.1362 O   0  0  0  0  0  0  0  0  0  0  0  0
   18.4041    2.7468   12.7633 C   0  0  1  0  0  0  0  0  0  0  0  0
   22.2342    8.3711   16.3247 N   0  0  0  0  0  0  0  0  0  0  0  0
   19.4362    3.5457   13.3739 O   0  0  0  0  0  0  0  0  0  0  0  0
   19.5872    3.1309   14.7432 C   0  0  1  0  0  0  0  0  0  0  0  0
   16.9621    6.5777   18.6467 N   0  0  0  0  0  0  0  0  0  0  0  0
   19.9471    4.2300   15.5949 O   0  0  0  0  0  0  0  0  0  0  0  0
   21.1511    4.9012   15.1951 C   0  0  2  0  0  0  0  0  0  0  0  0
   18.3273    8.3044   13.0676 N   0  0  0  0  0  0  0  0  0  0  0  0
   22.4342    2.8576   15.3372 O   0  0  0  0  0  0  0  0  0  0  0  0
   22.3215    4.1790   15.8726 C   0  0  1  0  0  0  0  0  0  0  0  0
   20.1622    7.1261   14.8040 O   0  0  0  0  0  0  0  0  0  0  0  0
   23.6326    4.9314   15.6366 C   0  0  1  0  0  0  0  0  0  0  0  0
   18.4674    6.4633   16.2961 O   0  0  0  0  0  0  0  0  0  0  0  0
   23.5360    6.3179   16.2735 C   0  0  0  0  0  0  0  0  0  0  0  0
   18.0412    9.8417   17.6675 O   0  0  0  0  0  0  0  0  0  0  0  0
   22.4043    7.1014   15.6021 C   0  0  1  0  0  0  0  0  0  0  0  0
   17.1027   10.1365   14.9662 O   0  0  0  0  0  0  0  0  0  0  0  0
   21.0611    6.3618   15.6267 C   0  0  2  0  0  0  0  0  0  0  0  0
   18.1761    1.8106   16.2674 O   0  0  0  0  0  0  0  0  0  0  0  0
   18.7788    6.7588   14.9220 C   0  0  1  0  0  0  0  0  0  0  0  0
   18.3779    0.5821   13.9334 O   0  0  0  0  0  0  0  0  0  0  0  0
   18.6833    7.5611   17.1991 C   0  0  2  0  0  0  0  0  0  0  0  0
   18.3308    7.1178   18.6210 C   0  0  0  0  0  0  0  0  0  0  0  0
   17.7781    8.7303   16.8070 C   0  0  2  0  0  0  0  0  0  0  0  0
   18.0502    9.1372   15.3574 C   0  0  1  0  0  0  0  0  0  0  0  0
   17.9181    7.9269   14.4291 C   0  0  1  0  0  0  0  0  0  0  0  0
   18.1824    2.6676   15.1232 C   0  0  2  0  0  0  0  0  0  0  0  0
   17.7932    1.8855   13.8723 C   0  0  1  0  0  0  0  0  0  0  0  0
  1  3  1  0  0  0  0
  4  1  1  1  0  0  0
  4  6  1  0  0  0  0
  4 31  1  0  0  0  0
  6  7  1  0  0  0  0
  7  9  1  1  0  0  0
  7 30  1  0  0  0  0
  8 26  1  0  0  0  0
 10  9  1  1  0  0  0
 10 13  1  0  0  0  0
 10 21  1  0  0  0  0
 13 12  1  6  0  0  0
 13 15  1  0  0  0  0
 15  2  1  1  0  0  0
 15 17  1  0  0  0  0
 16 25  1  0  0  0  0
 16 23  1  0  0  0  0
 17 19  1  0  0  0  0
 19  5  1  1  0  0  0
 19 21  1  0  0  0  0
 21 14  1  6  0  0  0
 23 14  1  1  0  0  0
 23 29  1  0  0  0  0
 25 26  1  1  0  0  0
 25 27  1  0  0  0  0
 27 18  1  1  0  0  0
 27 28  1  0  0  0  0
 28 20  1  6  0  0  0
 28 29  1  0  0  0  0
 29 11  1  6  0  0  0
 30 22  1  1  0  0  0
 30 31  1  0  0  0  0
 31 24  1  1  0  0  0
M  END
>  <CHROM.1>
60.79086579,-57.16591161,-88.24813789,39.18434792,67.15128098,-54.28369062
19.56020989,5.57936688,15.27068482,1.41294558,0.30702970,-2.74612787

>  <Name>
ligand

>  <RI>
0

>  <Rbt.Current_Directory>
/home/itssahil/PROJECTS/Mol_Feturizer/New_Systems/rnas/3DVV

>  <Rbt.Executable>
rbdock ($Id: //depot/dev/client3/rdock/2013.1/src/exe/rbdock.cxx#4 $)

>  <Rbt.Library>
libRbt.so (2013.1, Build901 2013/11/27)

>  <Rbt.Parameter_File>
/export/apps/rDock/src/rDock_2013.1_src/data/scripts/dock_solv.prm

>  <Rbt.Receptor>
prm/pocket_docking_5.prm

>  <SCORE>
-3.62176

>  <SCORE.INTER>
-1.72797

>  <SCORE.INTER.CONST>
1

>  <SCORE.INTER.POLAR>
0

>  <SCORE.INTER.ROT>
6

>  <SCORE.INTER.SOLV>
16.0889

>  <SCORE.INTER.VDW>
-14.115

>  <SCORE.INTER.norm>
-0.055741

>  <SCORE.INTRA>
-1.89489

>  <SCORE.INTRA.DIHEDRAL>
-4.93933

>  <SCORE.INTRA.DIHEDRAL.0>
10.8172

>  <SCORE.INTRA.POLAR>
0

>  <SCORE.INTRA.POLAR.0>
0

>  <SCORE.INTRA.REPUL>
0

>  <SCORE.INTRA.REPUL.0>
0

>  <SCORE.INTRA.SOLV>
-2.6487

>  <SCORE.INTRA.SOLV.lig_0>
-80.3833

>  <SCORE.INTRA.VDW>
1.89913

>  <SCORE.INTRA.VDW.0>
-4.63762

>  <SCORE.INTRA.norm>
-0.0611254

>  <SCORE.RESTR>
0.00110378

>  <SCORE.RESTR.CAVITY>
0.00110378

>  <SCORE.RESTR.norm>
3.5606e-05

>  <SCORE.SYSTEM>
0

>  <SCORE.SYSTEM.CONST>
0

>  <SCORE.SYSTEM.DIHEDRAL>
0

>  <SCORE.SYSTEM.SOLV>
0

>  <SCORE.SYSTEM.norm>
0

>  <SCORE.heavy>
31

>  <SCORE.norm>
-0.116831

>  <RMSD>
5.660

$$$$
ligand
 OpenBabel11021811473D
libRbt.so/2013.1/901 2013/11/27
 31 33  0  0  0  0  0  0  0  0999 V2000
   23.8967    7.0792   15.6964 C   0  0  0  0  0  0  0  0  0  0  0  0
   19.8535    0.3733   12.8227 N   0  0  0  0  0  0  0  0  0  0  0  0
   23.1496    8.2147   15.2478 O   0  0  0  0  0  0  0  0  0  0  0  0
   23.1141    6.3252   16.7745 C   0  0  1  0  0  0  0  0  0  0  0  0
   16.3001    2.0430   15.7364 N   0  0  0  0  0  0  0  0  0  0  0  0
   21.7359    6.1820   16.3791 O   0  0  0  0  0  0  0  0  0  0  0  0
   21.3872    4.7871   16.4292 C   0  0  1  0  0  0  0  0  0  0  0  0
   17.1563    8.1438   15.7607 N   0  0  0  0  0  0  0  0  0  0  0  0
   20.4298    4.4418   15.4157 O   0  0  0  0  0  0  0  0  0  0  0  0
   19.9522    3.0915   15.5077 C   0  0  2  0  0  0  0  0  0  0  0  0
   18.4885    4.0783   19.9641 N   0  0  0  0  0  0  0  0  0  0  0  0
   21.5918    2.3163   13.9098 O   0  0  0  0  0  0  0  0  0  0  0  0
   20.1856    2.4320   14.1435 C   0  0  1  0  0  0  0  0  0  0  0  0
   18.2526    3.4716   17.2536 O   0  0  0  0  0  0  0  0  0  0  0  0
   19.5516    1.0402   14.0985 C   0  0  1  0  0  0  0  0  0  0  0  0
   18.2648    5.7454   16.6470 O   0  0  0  0  0  0  0  0  0  0  0  0
   18.0389    1.1730   14.2761 C   0  0  0  0  0  0  0  0  0  0  0  0
   14.7914    6.2799   17.7082 O   0  0  0  0  0  0  0  0  0  0  0  0
   17.7463    1.7907   15.6466 C   0  0  1  0  0  0  0  0  0  0  0  0
   16.1394    5.7777   20.1973 O   0  0  0  0  0  0  0  0  0  0  0  0
   18.4718    3.1222   15.8756 C   0  0  2  0  0  0  0  0  0  0  0  0
   22.7212    2.7210   16.5251 O   0  0  0  0  0  0  0  0  0  0  0  0
   18.7078    4.7831   17.6217 C   0  0  1  0  0  0  0  0  0  0  0  0
   23.6265    4.4624   18.2986 O   0  0  0  0  0  0  0  0  0  0  0  0
   16.8363    5.8269   16.5056 C   0  0  2  0  0  0  0  0  0  0  0  0
   16.4966    6.8687   15.4371 C   0  0  0  0  0  0  0  0  0  0  0  0
   16.2157    6.2614   17.8346 C   0  0  2  0  0  0  0  0  0  0  0  0
   16.6129    5.2817   18.9407 C   0  0  1  0  0  0  0  0  0  0  0  0
   18.1353    5.1314   18.9998 C   0  0  1  0  0  0  0  0  0  0  0  0
   22.7052    4.0872   16.1046 C   0  0  2  0  0  0  0  0  0  0  0  0
   23.6783    4.9115   16.9422 C   0  0  1  0  0  0  0  0  0  0  0  0
  1  3  1  0  0  0  0
  4  1  1  6  0  0  0
  4  6  1  0  0  0  0
  4 31  1  0  0  0  0
  6  7  1  0  0  0  0
  7  9  1  6  0  0  0
  7 30  1  0  0  0  0
  8 26  1  0  0  0  0
 10  9  1  6  0  0  0
 10 13  1  0  0  0  0
 10 21  1  0  0  0  0
 13 12  1  1  0  0  0
 13 15  1  0  0  0  0
 15  2  1  6  0  0  0
 15 17  1  0  0  0  0
 16 25  1  0  0  0  0
 16 23  1  0  0  0  0
 17 19  1  0  0  0  0
 19  5  1  6  0  0  0
 19 21  1  0  0  0  0
 21 14  1  1  0  0  0
 23 14  1  6  0  0  0
 23 29  1  0  0  0  0
 25 26  1  6  0  0  0
 25 27  1  0  0  0  0
 27 18  1  6  0  0  0
 27 28  1  0  0  0  0
 28 20  1  1  0  0  0
 28 29  1  0  0  0  0
 29 11  1  1  0  0  0
 30 22  1  1  0  0  0
 30 31  1  0  0  0  0
 31 24  1  1  0  0  0
M  END
>  <CHROM.1>
44.80980140,-174.23415912,-125.71681983,47.08158521,62.42614586,-53.57253846
19.51666308,4.49026828,16.42150444,-0.28693547,0.18870425,0.55285786

>  <Name>
ligand

>  <RI>
0

>  <Rbt.Current_Directory>
/home/itssahil/PROJECTS/Mol_Feturizer/New_Systems/rnas/3DVV

>  <Rbt.Executable>
rbdock ($Id: //depot/dev/client3/rdock/2013.1/src/exe/rbdock.cxx#4 $)

>  <Rbt.Library>
libRbt.so (2013.1, Build901 2013/11/27)

>  <Rbt.Parameter_File>
/export/apps/rDock/src/rDock_2013.1_src/data/scripts/dock_solv.prm

>  <Rbt.Receptor>
prm/pocket_docking_3.prm

>  <SCORE>
-6.15725

>  <SCORE.INTER>
-6.52448

>  <SCORE.INTER.CONST>
1

>  <SCORE.INTER.POLAR>
0

>  <SCORE.INTER.ROT>
6

>  <SCORE.INTER.SOLV>
19.6513

>  <SCORE.INTER.VDW>
-18.5001

>  <SCORE.INTER.norm>
-0.210467

>  <SCORE.INTRA>
0.367226

>  <SCORE.INTRA.DIHEDRAL>
-1.60645

>  <SCORE.INTRA.DIHEDRAL.0>
10.8172

>  <SCORE.INTRA.POLAR>
0

>  <SCORE.INTRA.POLAR.0>
0

>  <SCORE.INTRA.REPUL>
0

>  <SCORE.INTRA.REPUL.0>
0

>  <SCORE.INTRA.SOLV>
-2.28437

>  <SCORE.INTRA.SOLV.lig_0>
-80.3833

>  <SCORE.INTRA.VDW>
2.31264

>  <SCORE.INTRA.VDW.0>
-4.63762

>  <SCORE.INTRA.norm>
0.011846

>  <SCORE.RESTR>
0

>  <SCORE.RESTR.CAVITY>
0

>  <SCORE.RESTR.norm>
0

>  <SCORE.SYSTEM>
0

>  <SCORE.SYSTEM.CONST>
0

>  <SCORE.SYSTEM.DIHEDRAL>
0

>  <SCORE.SYSTEM.SOLV>
0

>  <SCORE.SYSTEM.norm>
0

>  <SCORE.heavy>
31

>  <SCORE.norm>
-0.198621

>  <RMSD>
5.686

$$$$
ligand
 OpenBabel11021811473D
libRbt.so/2013.1/901 2013/11/27
 31 33  0  0  0  0  0  0  0  0999 V2000
   24.5196    6.8260   16.6535 C   0  0  0  0  0  0  0  0  0  0  0  0
   18.5610    0.8140   13.8792 N   0  0  0  0  0  0  0  0  0  0  0  0
   24.2620    7.0864   15.2698 O   0  0  0  0  0  0  0  0  0  0  0  0
   23.7733    5.5667   17.1012 C   0  0  1  0  0  0  0  0  0  0  0  0
   16.3448    5.1714   13.8137 N   0  0  0  0  0  0  0  0  0  0  0  0
   22.3715    5.6823   16.7882 O   0  0  0  0  0  0  0  0  0  0  0  0
   21.9810    4.5406   16.0049 C   0  0  1  0  0  0  0  0  0  0  0  0
   16.2405    8.9662   19.3274 N   0  0  0  0  0  0  0  0  0  0  0  0
   20.9587    4.8738   15.0526 O   0  0  0  0  0  0  0  0  0  0  0  0
   19.7203    4.1808   15.2675 C   0  0  2  0  0  0  0  0  0  0  0  0
   19.9025    7.7956   14.0403 N   0  0  0  0  0  0  0  0  0  0  0  0
   20.8026    2.0261   15.0978 O   0  0  0  0  0  0  0  0  0  0  0  0
   19.8014    2.8553   14.5014 C   0  0  1  0  0  0  0  0  0  0  0  0
   18.3038    6.1649   15.6388 O   0  0  0  0  0  0  0  0  0  0  0  0
   18.4570    2.1257   14.5365 C   0  0  1  0  0  0  0  0  0  0  0  0
   16.6434    7.8214   15.8320 O   0  0  0  0  0  0  0  0  0  0  0  0
   17.4037    2.9825   13.8339 C   0  0  0  0  0  0  0  0  0  0  0  0
   18.5659    9.7839   18.2669 O   0  0  0  0  0  0  0  0  0  0  0  0
   17.2513    4.3081   14.5858 C   0  0  1  0  0  0  0  0  0  0  0  0
   20.1337   10.0439   15.8713 O   0  0  0  0  0  0  0  0  0  0  0  0
   18.5777    5.0570   14.7632 C   0  0  2  0  0  0  0  0  0  0  0  0
   23.2505    2.8501   14.7444 O   0  0  0  0  0  0  0  0  0  0  0  0
   17.6975    7.3002   15.0014 C   0  0  1  0  0  0  0  0  0  0  0  0
   24.3080    3.1650   17.1486 O   0  0  0  0  0  0  0  0  0  0  0  0
   17.0775    8.2581   17.1312 C   0  0  2  0  0  0  0  0  0  0  0  0
   15.8694    8.7745   17.9163 C   0  0  0  0  0  0  0  0  0  0  0  0
   18.0890    9.3952   16.9760 C   0  0  2  0  0  0  0  0  0  0  0  0
   19.2687    8.9306   16.1196 C   0  0  1  0  0  0  0  0  0  0  0  0
   18.7715    8.3713   14.7840 C   0  0  1  0  0  0  0  0  0  0  0  0
   23.2558    4.1911   15.2398 C   0  0  2  0  0  0  0  0  0  0  0  0
   24.2997    4.3455   16.3418 C   0  0  1  0  0  0  0  0  0  0  0  0
  1  3  1  0  0  0  0
  4  1  1  6  0  0  0
  4  6  1  0  0  0  0
  4 31  1  0  0  0  0
  6  7  1  0  0  0  0
  7  9  1  6  0  0  0
  7 30  1  0  0  0  0
  8 26  1  0  0  0  0
 10  9  1  6  0  0  0
 10 13  1  0  0  0  0
 10 21  1  0  0  0  0
 13 12  1  1  0  0  0
 13 15  1  0  0  0  0
 15  2  1  6  0  0  0
 15 17  1  0  0  0  0
 16 25  1  0  0  0  0
 16 23  1  0  0  0  0
 17 19  1  0  0  0  0
 19  5  1  6  0  0  0
 19 21  1  0  0  0  0
 21 14  1  1  0  0  0
 23 14  1  1  0  0  0
 23 29  1  0  0  0  0
 25 26  1  1  0  0  0
 25 27  1  0  0  0  0
 27 18  1  1  0  0  0
 27 28  1  0  0  0  0
 28 20  1  6  0  0  0
 28 29  1  0  0  0  0
 29 11  1  1  0  0  0
 30 22  1  1  0  0  0
 30 31  1  0  0  0  0
 31 24  1  1  0  0  0
M  END
>  <CHROM.1>
-53.96377081,-117.05652077,-88.26063065,137.25881848,154.38235513,168.53118973
19.93528725,5.82524861,15.74194098,-0.75871241,-0.13927648,0.38675812

>  <Name>
ligand

>  <RI>
0

>  <Rbt.Current_Directory>
/home/itssahil/PROJECTS/Mol_Feturizer/New_Systems/rnas/3DVV

>  <Rbt.Executable>
rbdock ($Id: //depot/dev/client3/rdock/2013.1/src/exe/rbdock.cxx#4 $)

>  <Rbt.Library>
libRbt.so (2013.1, Build901 2013/11/27)

>  <Rbt.Parameter_File>
/export/apps/rDock/src/rDock_2013.1_src/data/scripts/dock_solv.prm

>  <Rbt.Receptor>
prm/pocket_docking_4.prm

>  <SCORE>
2.1082

>  <SCORE.INTER>
-4.40493

>  <SCORE.INTER.CONST>
1

>  <SCORE.INTER.POLAR>
0

>  <SCORE.INTER.ROT>
6

>  <SCORE.INTER.SOLV>
15.1523

>  <SCORE.INTER.VDW>
-15.5874

>  <SCORE.INTER.norm>
-0.142094

>  <SCORE.INTRA>
6.51313

>  <SCORE.INTRA.DIHEDRAL>
8.69428

>  <SCORE.INTRA.DIHEDRAL.0>
10.8172

>  <SCORE.INTRA.POLAR>
0

>  <SCORE.INTRA.POLAR.0>
0

>  <SCORE.INTRA.REPUL>
0

>  <SCORE.INTRA.REPUL.0>
0

>  <SCORE.INTRA.SOLV>
0.255101

>  <SCORE.INTRA.SOLV.lig_0>
-80.3833

>  <SCORE.INTRA.VDW>
2.03844

>  <SCORE.INTRA.VDW.0>
-4.63762

>  <SCORE.INTRA.norm>
0.210101

>  <SCORE.RESTR>
0

>  <SCORE.RESTR.CAVITY>
0

>  <SCORE.RESTR.norm>
0

>  <SCORE.SYSTEM>
0

>  <SCORE.SYSTEM.CONST>
0

>  <SCORE.SYSTEM.DIHEDRAL>
0

>  <SCORE.SYSTEM.SOLV>
0

>  <SCORE.SYSTEM.norm>
0

>  <SCORE.heavy>
31

>  <SCORE.norm>
0.0680065

>  <RMSD>
5.704

$$$$
ligand
 OpenBabel11021811473D
libRbt.so/2013.1/901 2013/11/27
 31 33  0  0  0  0  0  0  0  0999 V2000
   19.3083    2.4902   10.5715 C   0  0  0  0  0  0  0  0  0  0  0  0
   14.4122    2.8903   17.6773 N   0  0  0  0  0  0  0  0  0  0  0  0
   20.0247    1.4668    9.8726 O   0  0  0  0  0  0  0  0  0  0  0  0
   20.0073    2.8139   11.8943 C   0  0  1  0  0  0  0  0  0  0  0  0
   17.1880    6.8871   18.1513 N   0  0  0  0  0  0  0  0  0  0  0  0
   19.3263    3.8923   12.5649 O   0  0  0  0  0  0  0  0  0  0  0  0
   18.9829    3.4616   13.8940 C   0  0  1  0  0  0  0  0  0  0  0  0
   18.7955    9.3464   12.9600 N   0  0  0  0  0  0  0  0  0  0  0  0
   17.7490    4.0460   14.3400 O   0  0  0  0  0  0  0  0  0  0  0  0
   17.5424    3.9491   15.7570 C   0  0  2  0  0  0  0  0  0  0  0  0
   21.8968    5.3709   16.2083 N   0  0  0  0  0  0  0  0  0  0  0  0
   16.0129    2.0967   15.4895 O   0  0  0  0  0  0  0  0  0  0  0  0
   16.1135    3.4382   15.9749 C   0  0  1  0  0  0  0  0  0  0  0  0
   19.1383    5.7031   16.4336 O   0  0  0  0  0  0  0  0  0  0  0  0
   15.7488    3.4647   17.4606 C   0  0  1  0  0  0  0  0  0  0  0  0
   19.0347    6.9733   14.4552 O   0  0  0  0  0  0  0  0  0  0  0  0
   15.7863    4.9093   17.9598 C   0  0  0  0  0  0  0  0  0  0  0  0
   20.3916    9.9876   16.0518 O   0  0  0  0  0  0  0  0  0  0  0  0
   17.2075    5.4581   17.8035 C   0  0  1  0  0  0  0  0  0  0  0  0
   22.6295    8.1840   16.1088 O   0  0  0  0  0  0  0  0  0  0  0  0
   17.7508    5.3283   16.3753 C   0  0  2  0  0  0  0  0  0  0  0  0
   18.8588    1.2501   14.9673 O   0  0  0  0  0  0  0  0  0  0  0  0
   19.7517    5.9409   15.1570 C   0  0  1  0  0  0  0  0  0  0  0  0
   21.1295    1.4773   13.6293 O   0  0  0  0  0  0  0  0  0  0  0  0
   18.9997    8.2370   15.1401 C   0  0  2  0  0  0  0  0  0  0  0  0
   18.2023    9.2395   14.3025 C   0  0  0  0  0  0  0  0  0  0  0  0
   20.4257    8.7626   15.3148 C   0  0  2  0  0  0  0  0  0  0  0  0
   21.2698    7.7379   16.0755 C   0  0  1  0  0  0  0  0  0  0  0  0
   21.2041    6.3733   15.3844 C   0  0  1  0  0  0  0  0  0  0  0  0
   18.7710    1.9581   13.7285 C   0  0  2  0  0  0  0  0  0  0  0  0
   19.9511    1.6023   12.8292 C   0  0  1  0  0  0  0  0  0  0  0  0
  1  3  1  0  0  0  0
  4  1  1  6  0  0  0
  4  6  1  0  0  0  0
  4 31  1  0  0  0  0
  6  7  1  0  0  0  0
  7  9  1  6  0  0  0
  7 30  1  0  0  0  0
  8 26  1  0  0  0  0
 10  9  1  6  0  0  0
 10 13  1  0  0  0  0
 10 21  1  0  0  0  0
 13 12  1  1  0  0  0
 13 15  1  0  0  0  0
 15  2  1  6  0  0  0
 15 17  1  0  0  0  0
 16 25  1  0  0  0  0
 16 23  1  0  0  0  0
 17 19  1  0  0  0  0
 19  5  1  6  0  0  0
 19 21  1  0  0  0  0
 21 14  1  1  0  0  0
 23 14  1  1  0  0  0
 23 29  1  0  0  0  0
 25 26  1  6  0  0  0
 25 27  1  0  0  0  0
 27 18  1  1  0  0  0
 27 28  1  0  0  0  0
 28 20  1  6  0  0  0
 28 29  1  0  0  0  0
 29 11  1  1  0  0  0
 30 22  1  1  0  0  0
 30 31  1  0  0  0  0
 31 24  1  1  0  0  0
M  END
>  <CHROM.1>
176.99401747,-164.04125004,-132.42066784,57.77028508,68.07450364,-56.50960118
18.85296281,4.97274087,14.95122669,-1.77210182,0.72842861,0.53320435

>  <Name>
ligand

>  <RI>
0

>  <Rbt.Current_Directory>
/home/itssahil/PROJECTS/Mol_Feturizer/New_Systems/rnas/3DVV

>  <Rbt.Executable>
rbdock ($Id: //depot/dev/client3/rdock/2013.1/src/exe/rbdock.cxx#4 $)

>  <Rbt.Library>
libRbt.so (2013.1, Build901 2013/11/27)

>  <Rbt.Parameter_File>
/export/apps/rDock/src/rDock_2013.1_src/data/scripts/dock_solv.prm

>  <Rbt.Receptor>
prm/pocket_docking_6.prm

>  <SCORE>
-4.10182

>  <SCORE.INTER>
-3.69298

>  <SCORE.INTER.CONST>
1

>  <SCORE.INTER.POLAR>
0

>  <SCORE.INTER.ROT>
6

>  <SCORE.INTER.SOLV>
13.1523

>  <SCORE.INTER.VDW>
-14.4461

>  <SCORE.INTER.norm>
-0.119128

>  <SCORE.INTRA>
-0.408837

>  <SCORE.INTRA.DIHEDRAL>
-2.54309

>  <SCORE.INTRA.DIHEDRAL.0>
10.8172

>  <SCORE.INTRA.POLAR>
0

>  <SCORE.INTRA.POLAR.0>
0

>  <SCORE.INTRA.REPUL>
0.0184665

>  <SCORE.INTRA.REPUL.0>
0

>  <SCORE.INTRA.SOLV>
-1.97468

>  <SCORE.INTRA.SOLV.lig_0>
-80.3833

>  <SCORE.INTRA.VDW>
1.75771

>  <SCORE.INTRA.VDW.0>
-4.63762

>  <SCORE.INTRA.norm>
-0.0131883

>  <SCORE.RESTR>
0

>  <SCORE.RESTR.CAVITY>
0

>  <SCORE.RESTR.norm>
0

>  <SCORE.SYSTEM>
0

>  <SCORE.SYSTEM.CONST>
0

>  <SCORE.SYSTEM.DIHEDRAL>
0

>  <SCORE.SYSTEM.SOLV>
0

>  <SCORE.SYSTEM.norm>
0

>  <SCORE.heavy>
31

>  <SCORE.norm>
-0.132317

>  <RMSD>
5.729

$$$$
ligand
 OpenBabel11021811473D
libRbt.so/2013.1/901 2013/11/27
 31 33  0  0  0  0  0  0  0  0999 V2000
   20.2207    2.6699   11.9183 C   0  0  0  0  0  0  0  0  0  0  0  0
   14.4773    2.9166   18.0848 N   0  0  0  0  0  0  0  0  0  0  0  0
   20.4852    2.1639   10.6057 O   0  0  0  0  0  0  0  0  0  0  0  0
   18.8275    2.2353   12.3804 C   0  0  1  0  0  0  0  0  0  0  0  0
   17.5155    6.6686   18.8562 N   0  0  0  0  0  0  0  0  0  0  0  0
   18.5508    2.7665   13.6910 O   0  0  0  0  0  0  0  0  0  0  0  0
   17.3143    3.5000   13.6365 C   0  0  1  0  0  0  0  0  0  0  0  0
   16.6218    8.8812   14.5768 N   0  0  0  0  0  0  0  0  0  0  0  0
   17.3217    4.6216   14.5337 O   0  0  0  0  0  0  0  0  0  0  0  0
   17.3302    4.2525   15.9207 C   0  0  2  0  0  0  0  0  0  0  0  0
   21.8200    5.3961   16.1467 N   0  0  0  0  0  0  0  0  0  0  0  0
   15.6750    2.5291   15.5561 O   0  0  0  0  0  0  0  0  0  0  0  0
   15.9250    3.7455   16.2655 C   0  0  1  0  0  0  0  0  0  0  0  0
   19.1081    5.7970   16.6518 O   0  0  0  0  0  0  0  0  0  0  0  0
   15.7952    3.4879   17.7681 C   0  0  1  0  0  0  0  0  0  0  0  0
   18.8244    7.0307   14.6679 O   0  0  0  0  0  0  0  0  0  0  0  0
   15.9909    4.8042   18.5207 C   0  0  0  0  0  0  0  0  0  0  0  0
   20.4049   10.0429   16.0481 O   0  0  0  0  0  0  0  0  0  0  0  0
   17.4001    5.3363   18.2439 C   0  0  1  0  0  0  0  0  0  0  0  0
   22.5978    8.1890   15.9101 O   0  0  0  0  0  0  0  0  0  0  0  0
   17.7091    5.4769   16.7484 C   0  0  2  0  0  0  0  0  0  0  0  0
   15.9737    4.4040   11.7809 O   0  0  0  0  0  0  0  0  0  0  0  0
   19.5890    5.9956   15.3131 C   0  0  1  0  0  0  0  0  0  0  0  0
   16.6606    1.9026   11.2625 O   0  0  0  0  0  0  0  0  0  0  0  0
   18.8883    8.3079   15.3250 C   0  0  2  0  0  0  0  0  0  0  0  0
   18.0287    9.3123   14.5538 C   0  0  0  0  0  0  0  0  0  0  0  0
   20.3355    8.8033   15.3383 C   0  0  2  0  0  0  0  0  0  0  0  0
   21.2328    7.7741   16.0287 C   0  0  1  0  0  0  0  0  0  0  0  0
   21.0661    6.3983   15.3781 C   0  0  1  0  0  0  0  0  0  0  0  0
   17.2867    4.0296   12.2043 C   0  0  2  0  0  0  0  0  0  0  0  0
   17.7609    2.7989   11.4372 C   0  0  1  0  0  0  0  0  0  0  0  0
  1  3  1  0  0  0  0
  4  1  1  6  0  0  0
  4  6  1  0  0  0  0
  4 31  1  0  0  0  0
  6  7  1  0  0  0  0
  7  9  1  1  0  0  0
  7 30  1  0  0  0  0
  8 26  1  0  0  0  0
 10  9  1  6  0  0  0
 10 13  1  0  0  0  0
 10 21  1  0  0  0  0
 13 12  1  6  0  0  0
 13 15  1  0  0  0  0
 15  2  1  6  0  0  0
 15 17  1  0  0  0  0
 16 25  1  0  0  0  0
 16 23  1  0  0  0  0
 17 19  1  0  0  0  0
 19  5  1  1  0  0  0
 19 21  1  0  0  0  0
 21 14  1  1  0  0  0
 23 14  1  1  0  0  0
 23 29  1  0  0  0  0
 25 26  1  6  0  0  0
 25 27  1  0  0  0  0
 27 18  1  1  0  0  0
 27 28  1  0  0  0  0
 28 20  1  6  0  0  0
 28 29  1  0  0  0  0
 29 11  1  1  0  0  0
 30 22  1  6  0  0  0
 30 31  1  0  0  0  0
 31 24  1  1  0  0  0
M  END
>  <CHROM.1>
-178.87514740,-67.75874764,-73.92126578,56.72246687,55.70586965,62.84859010
18.29327416,5.22299653,14.96472082,-2.03807778,0.69399488,0.88222522

>  <Name>
ligand

>  <RI>
0

>  <Rbt.Current_Directory>
/home/itssahil/PROJECTS/Mol_Feturizer/New_Systems/rnas/3DVV

>  <Rbt.Executable>
rbdock ($Id: //depot/dev/client3/rdock/2013.1/src/exe/rbdock.cxx#4 $)

>  <Rbt.Library>
libRbt.so (2013.1, Build901 2013/11/27)

>  <Rbt.Parameter_File>
/export/apps/rDock/src/rDock_2013.1_src/data/scripts/dock_solv.prm

>  <Rbt.Receptor>
prm/pocket_docking_7.prm

>  <SCORE>
-5.74333

>  <SCORE.INTER>
-1.82893

>  <SCORE.INTER.CONST>
1

>  <SCORE.INTER.POLAR>
0

>  <SCORE.INTER.ROT>
6

>  <SCORE.INTER.SOLV>
9.99825

>  <SCORE.INTER.VDW>
-12.152

>  <SCORE.INTER.norm>
-0.0589978

>  <SCORE.INTRA>
-3.91439

>  <SCORE.INTRA.DIHEDRAL>
-9.17272

>  <SCORE.INTRA.DIHEDRAL.0>
10.8172

>  <SCORE.INTRA.POLAR>
0

>  <SCORE.INTRA.POLAR.0>
0

>  <SCORE.INTRA.REPUL>
0

>  <SCORE.INTRA.REPUL.0>
0

>  <SCORE.INTRA.SOLV>
-4.3719

>  <SCORE.INTRA.SOLV.lig_0>
-80.3833

>  <SCORE.INTRA.VDW>
2.85791

>  <SCORE.INTRA.VDW.0>
-4.63762

>  <SCORE.INTRA.norm>
-0.126271

>  <SCORE.RESTR>
0

>  <SCORE.RESTR.CAVITY>
0

>  <SCORE.RESTR.norm>
0

>  <SCORE.SYSTEM>
0

>  <SCORE.SYSTEM.CONST>
0

>  <SCORE.SYSTEM.DIHEDRAL>
0

>  <SCORE.SYSTEM.SOLV>
0

>  <SCORE.SYSTEM.norm>
0

>  <SCORE.heavy>
31

>  <SCORE.norm>
-0.185269

>  <RMSD>
5.761

$$$$
ligand
 OpenBabel11021811473D
libRbt.so/2013.1/901 2013/11/27
 31 33  0  0  0  0  0  0  0  0999 V2000
   23.9154    7.0826   15.7012 C   0  0  0  0  0  0  0  0  0  0  0  0
   19.9335    0.3632   12.8418 N   0  0  0  0  0  0  0  0  0  0  0  0
   23.2077    8.2538   15.2813 O   0  0  0  0  0  0  0  0  0  0  0  0
   23.1165    6.3403   16.7754 C   0  0  1  0  0  0  0  0  0  0  0  0
   16.2908    2.0803   15.6142 N   0  0  0  0  0  0  0  0  0  0  0  0
   21.7418    6.2026   16.3657 O   0  0  0  0  0  0  0  0  0  0  0  0
   21.3843    4.8102   16.4209 C   0  0  1  0  0  0  0  0  0  0  0  0
   16.4996    6.3016   14.1112 N   0  0  0  0  0  0  0  0  0  0  0  0
   20.4362    4.4638   15.3991 O   0  0  0  0  0  0  0  0  0  0  0  0
   19.9516    3.1161   15.4929 C   0  0  2  0  0  0  0  0  0  0  0  0
   18.5127    4.1928   19.8640 N   0  0  0  0  0  0  0  0  0  0  0  0
   21.6409    2.3158   13.9604 O   0  0  0  0  0  0  0  0  0  0  0  0
   20.2281    2.4381   14.1459 C   0  0  1  0  0  0  0  0  0  0  0  0
   18.1965    3.5236   17.1765 O   0  0  0  0  0  0  0  0  0  0  0  0
   19.5917    1.0476   14.0981 C   0  0  1  0  0  0  0  0  0  0  0  0
   17.9209    5.7754   16.5508 O   0  0  0  0  0  0  0  0  0  0  0  0
   18.0743    1.1866   14.2237 C   0  0  0  0  0  0  0  0  0  0  0  0
   14.4736    5.9364   17.8025 O   0  0  0  0  0  0  0  0  0  0  0  0
   17.7384    1.8231   15.5756 C   0  0  1  0  0  0  0  0  0  0  0  0
   16.0050    5.6240   20.2154 O   0  0  0  0  0  0  0  0  0  0  0  0
   18.4600    3.1556   15.8112 C   0  0  2  0  0  0  0  0  0  0  0  0
   22.7049    2.7368   16.5449 O   0  0  0  0  0  0  0  0  0  0  0  0
   18.5220    4.8828   17.5070 C   0  0  1  0  0  0  0  0  0  0  0  0
   23.6010    4.4844   18.3171 O   0  0  0  0  0  0  0  0  0  0  0  0
   16.4866    5.6956   16.4898 C   0  0  2  0  0  0  0  0  0  0  0  0
   15.9740    6.6774   15.4334 C   0  0  0  0  0  0  0  0  0  0  0  0
   15.8959    6.0782   17.8481 C   0  0  2  0  0  0  0  0  0  0  0  0
   16.4606    5.1651   18.9383 C   0  0  1  0  0  0  0  0  0  0  0  0
   17.9913    5.1857   18.9123 C   0  0  1  0  0  0  0  0  0  0  0  0
   22.7017    4.1004   16.1155 C   0  0  2  0  0  0  0  0  0  0  0  0
   23.6704    4.9244   16.9584 C   0  0  1  0  0  0  0  0  0  0  0  0
  1  3  1  0  0  0  0
  4  1  1  6  0  0  0
  4  6  1  0  0  0  0
  4 31  1  0  0  0  0
  6  7  1  0  0  0  0
  7  9  1  6  0  0  0
  7 30  1  0  0  0  0
  8 26  1  0  0  0  0
 10  9  1  6  0  0  0
 10 13  1  0  0  0  0
 10 21  1  0  0  0  0
 13 12  1  1  0  0  0
 13 15  1  0  0  0  0
 15  2  1  6  0  0  0
 15 17  1  0  0  0  0
 16 25  1  0  0  0  0
 16 23  1  0  0  0  0
 17 19  1  0  0  0  0
 19  5  1  6  0  0  0
 19 21  1  0  0  0  0
 21 14  1  1  0  0  0
 23 14  1  6  0  0  0
 23 29  1  0  0  0  0
 25 26  1  6  0  0  0
 25 27  1  0  0  0  0
 27 18  1  6  0  0  0
 27 28  1  0  0  0  0
 28 20  1  1  0  0  0
 28 29  1  0  0  0  0
 29 11  1  1  0  0  0
 30 22  1  1  0  0  0
 30 31  1  0  0  0  0
 31 24  1  1  0  0  0
M  END
>  <CHROM.1>
47.47060017,-174.35764816,-124.34120819,50.99465474,68.30881461,62.23743852
19.42317484,4.41664819,16.35217507,-0.19177638,0.15611353,0.64178829

>  <Name>
ligand

>  <RI>
0

>  <Rbt.Current_Directory>
/home/itssahil/PROJECTS/Mol_Feturizer/New_Systems/rnas/3DVV

>  <Rbt.Executable>
rbdock ($Id: //depot/dev/client3/rdock/2013.1/src/exe/rbdock.cxx#4 $)

>  <Rbt.Library>
libRbt.so (2013.1, Build901 2013/11/27)

>  <Rbt.Parameter_File>
/export/apps/rDock/src/rDock_2013.1_src/data/scripts/dock_solv.prm

>  <Rbt.Receptor>
prm/pocket_docking_4.prm

>  <SCORE>
-7.09664

>  <SCORE.INTER>
-6.14311

>  <SCORE.INTER.CONST>
1

>  <SCORE.INTER.POLAR>
0

>  <SCORE.INTER.ROT>
6

>  <SCORE.INTER.SOLV>
19.4537

>  <SCORE.INTER.VDW>
-18.18

>  <SCORE.INTER.norm>
-0.198165

>  <SCORE.INTRA>
-0.953524

>  <SCORE.INTRA.DIHEDRAL>
-2.019

>  <SCORE.INTRA.DIHEDRAL.0>
10.8172

>  <SCORE.INTRA.POLAR>
0

>  <SCORE.INTRA.POLAR.0>
0

>  <SCORE.INTRA.REPUL>
0.0018963

>  <SCORE.INTRA.REPUL.0>
0

>  <SCORE.INTRA.SOLV>
-3.14972

>  <SCORE.INTRA.SOLV.lig_0>
-80.3833

>  <SCORE.INTRA.VDW>
1.62136

>  <SCORE.INTRA.VDW.0>
-4.63762

>  <SCORE.INTRA.norm>
-0.0307588

>  <SCORE.RESTR>
0

>  <SCORE.RESTR.CAVITY>
0

>  <SCORE.RESTR.norm>
0

>  <SCORE.SYSTEM>
0

>  <SCORE.SYSTEM.CONST>
0

>  <SCORE.SYSTEM.DIHEDRAL>
0

>  <SCORE.SYSTEM.SOLV>
0

>  <SCORE.SYSTEM.norm>
0

>  <SCORE.heavy>
31

>  <SCORE.norm>
-0.228924

>  <RMSD>
5.774

$$$$
ligand
 OpenBabel11021811473D
libRbt.so/2013.1/901 2013/11/27
 31 33  0  0  0  0  0  0  0  0999 V2000
   23.3258    7.0637   15.4520 C   0  0  0  0  0  0  0  0  0  0  0  0
   21.1774    1.4508   13.7083 N   0  0  0  0  0  0  0  0  0  0  0  0
   24.0198    8.1955   14.9171 O   0  0  0  0  0  0  0  0  0  0  0  0
   21.8868    7.0325   14.9309 C   0  0  1  0  0  0  0  0  0  0  0  0
   16.7047    3.4165   13.5214 N   0  0  0  0  0  0  0  0  0  0  0  0
   21.2889    5.7493   15.1998 O   0  0  0  0  0  0  0  0  0  0  0  0
   20.0638    5.9573   15.9248 C   0  0  1  0  0  0  0  0  0  0  0  0
   18.0694    5.9792   20.8888 N   0  0  0  0  0  0  0  0  0  0  0  0
   19.8083    4.8918   16.8536 O   0  0  0  0  0  0  0  0  0  0  0  0
   19.3649    3.6767   16.2316 C   0  0  2  0  0  0  0  0  0  0  0  0
   14.4011    3.0332   16.3669 N   0  0  0  0  0  0  0  0  0  0  0  0
   21.6164    2.8009   16.1503 O   0  0  0  0  0  0  0  0  0  0  0  0
   20.5053    3.1820   15.3343 C   0  0  1  0  0  0  0  0  0  0  0  0
   16.9476    4.1628   16.2673 O   0  0  0  0  0  0  0  0  0  0  0  0
   20.0569    1.9798   14.5009 C   0  0  1  0  0  0  0  0  0  0  0  0
   17.5135    3.3057   18.3847 O   0  0  0  0  0  0  0  0  0  0  0  0
   18.9168    2.4082   13.5768 C   0  0  0  0  0  0  0  0  0  0  0  0
   15.5331    5.8204   20.1820 O   0  0  0  0  0  0  0  0  0  0  0  0
   17.7304    2.8745   14.4256 C   0  0  1  0  0  0  0  0  0  0  0  0
   13.5154    4.2669   18.8477 O   0  0  0  0  0  0  0  0  0  0  0  0
   18.1013    3.9728   15.4295 C   0  0  2  0  0  0  0  0  0  0  0  0
   19.1452    7.8763   17.1624 O   0  0  0  0  0  0  0  0  0  0  0  0
   16.7069    3.1055   17.2091 C   0  0  1  0  0  0  0  0  0  0  0  0
   20.0559    8.6723   14.8098 O   0  0  0  0  0  0  0  0  0  0  0  0
   17.2558    4.5411   19.0735 C   0  0  2  0  0  0  0  0  0  0  0  0
   18.1802    4.6397   20.2893 C   0  0  0  0  0  0  0  0  0  0  0  0
   15.8035    4.5647   19.5535 C   0  0  2  0  0  0  0  0  0  0  0  0
   14.8582    4.3800   18.3646 C   0  0  1  0  0  0  0  0  0  0  0  0
   15.2214    3.1133   17.5852 C   0  0  1  0  0  0  0  0  0  0  0  0
   20.3418    7.2317   16.7193 C   0  0  2  0  0  0  0  0  0  0  0  0
   21.0404    8.0796   15.6605 C   0  0  1  0  0  0  0  0  0  0  0  0
  1  3  1  0  0  0  0
  4  1  1  1  0  0  0
  4  6  1  0  0  0  0
  4 31  1  0  0  0  0
  6  7  1  0  0  0  0
  7  9  1  1  0  0  0
  7 30  1  0  0  0  0
  8 26  1  0  0  0  0
 10  9  1  6  0  0  0
 10 13  1  0  0  0  0
 10 21  1  0  0  0  0
 13 12  1  1  0  0  0
 13 15  1  0  0  0  0
 15  2  1  6  0  0  0
 15 17  1  0  0  0  0
 16 25  1  0  0  0  0
 16 23  1  0  0  0  0
 17 19  1  0  0  0  0
 19  5  1  6  0  0  0
 19 21  1  0  0  0  0
 21 14  1  1  0  0  0
 23 14  1  6  0  0  0
 23 29  1  0  0  0  0
 25 26  1  1  0  0  0
 25 27  1  0  0  0  0
 27 18  1  6  0  0  0
 27 28  1  0  0  0  0
 28 20  1  1  0  0  0
 28 29  1  0  0  0  0
 29 11  1  6  0  0  0
 30 22  1  6  0  0  0
 30 31  1  0  0  0  0
 31 24  1  6  0  0  0
M  END
>  <CHROM.1>
166.33812429,-74.53195889,63.42226927,83.43819140,-52.56530344,171.74280569
18.70040335,4.79915440,16.58149637,-0.06162725,0.56742956,0.69529474

>  <Name>
ligand

>  <RI>
0

>  <Rbt.Current_Directory>
/home/itssahil/PROJECTS/Mol_Feturizer/New_Systems/rnas/3DVV

>  <Rbt.Executable>
rbdock ($Id: //depot/dev/client3/rdock/2013.1/src/exe/rbdock.cxx#4 $)

>  <Rbt.Library>
libRbt.so (2013.1, Build901 2013/11/27)

>  <Rbt.Parameter_File>
/export/apps/rDock/src/rDock_2013.1_src/data/scripts/dock_solv.prm

>  <Rbt.Receptor>
prm/pocket_docking_3.prm

>  <SCORE>
-3.86911

>  <SCORE.INTER>
-3.97455

>  <SCORE.INTER.CONST>
1

>  <SCORE.INTER.POLAR>
0

>  <SCORE.INTER.ROT>
6

>  <SCORE.INTER.SOLV>
19.3265

>  <SCORE.INTER.VDW>
-16.6919

>  <SCORE.INTER.norm>
-0.128211

>  <SCORE.INTRA>
0.104221

>  <SCORE.INTRA.DIHEDRAL>
-6.01194

>  <SCORE.INTRA.DIHEDRAL.0>
10.8172

>  <SCORE.INTRA.POLAR>
0

>  <SCORE.INTRA.POLAR.0>
0

>  <SCORE.INTRA.REPUL>
0

>  <SCORE.INTRA.REPUL.0>
0

>  <SCORE.INTRA.SOLV>
-1.82315

>  <SCORE.INTRA.SOLV.lig_0>
-80.3833

>  <SCORE.INTRA.VDW>
4.02177

>  <SCORE.INTRA.VDW.0>
-4.63762

>  <SCORE.INTRA.norm>
0.00336197

>  <SCORE.RESTR>
0.00121143

>  <SCORE.RESTR.CAVITY>
0.00121143

>  <SCORE.RESTR.norm>
3.90785e-05

>  <SCORE.SYSTEM>
0

>  <SCORE.SYSTEM.CONST>
0

>  <SCORE.SYSTEM.DIHEDRAL>
0

>  <SCORE.SYSTEM.SOLV>
0

>  <SCORE.SYSTEM.norm>
0

>  <SCORE.heavy>
31

>  <SCORE.norm>
-0.12481

>  <RMSD>
5.793

$$$$
ligand
 OpenBabel11021811473D
libRbt.so/2013.1/901 2013/11/27
 31 33  0  0  0  0  0  0  0  0999 V2000
   16.0666    7.3808   18.0560 C   0  0  0  0  0  0  0  0  0  0  0  0
   24.4549    5.1547   16.1717 N   0  0  0  0  0  0  0  0  0  0  0  0
   15.8916    7.1396   16.6560 O   0  0  0  0  0  0  0  0  0  0  0  0
   17.4996    7.8398   18.3372 C   0  0  1  0  0  0  0  0  0  0  0  0
   20.9120    2.0176   14.9428 N   0  0  0  0  0  0  0  0  0  0  0  0
   18.4377    6.8425   17.8882 O   0  0  0  0  0  0  0  0  0  0  0  0
   19.3758    7.4656   16.9929 C   0  0  1  0  0  0  0  0  0  0  0  0
   18.6029    3.1021   11.8584 N   0  0  0  0  0  0  0  0  0  0  0  0
   19.8091    6.5622   15.9638 O   0  0  0  0  0  0  0  0  0  0  0  0
   20.6589    5.5081   16.4401 C   0  0  2  0  0  0  0  0  0  0  0  0
   16.8714    3.8802   18.0559 N   0  0  0  0  0  0  0  0  0  0  0  0
   22.4743    7.0489   16.8557 O   0  0  0  0  0  0  0  0  0  0  0  0
   22.1017    5.8958   16.0961 C   0  0  1  0  0  0  0  0  0  0  0  0
   19.0145    3.6769   16.2850 O   0  0  0  0  0  0  0  0  0  0  0  0
   23.0625    4.7493   16.4172 C   0  0  1  0  0  0  0  0  0  0  0  0
   17.6524    4.1743   14.4316 O   0  0  0  0  0  0  0  0  0  0  0  0
   22.7074    3.5406   15.5509 C   0  0  0  0  0  0  0  0  0  0  0  0
   16.1542    0.8240   14.3479 O   0  0  0  0  0  0  0  0  0  0  0  0
   21.2844    3.0837   15.8852 C   0  0  1  0  0  0  0  0  0  0  0  0
   15.1360    1.9070   16.8086 O   0  0  0  0  0  0  0  0  0  0  0  0
   20.2458    4.2052   15.7620 C   0  0  2  0  0  0  0  0  0  0  0  0
   19.3660    9.5960   15.7604 O   0  0  0  0  0  0  0  0  0  0  0  0
   17.8311    4.3631   15.8475 C   0  0  1  0  0  0  0  0  0  0  0  0
   18.6641   10.0069   18.2777 O   0  0  0  0  0  0  0  0  0  0  0  0
   17.5061    2.8005   14.0335 C   0  0  2  0  0  0  0  0  0  0  0  0
   17.3378    2.7338   12.5137 C   0  0  0  0  0  0  0  0  0  0  0  0
   16.2610    2.2071   14.6953 C   0  0  2  0  0  0  0  0  0  0  0  0
   16.3649    2.3403   16.2160 C   0  0  1  0  0  0  0  0  0  0  0  0
   16.6272    3.7968   16.6078 C   0  0  1  0  0  0  0  0  0  0  0  0
   18.5521    8.5755   16.3432 C   0  0  2  0  0  0  0  0  0  0  0  0
   17.8043    9.1212   17.5561 C   0  0  1  0  0  0  0  0  0  0  0  0
  1  3  1  0  0  0  0
  4  1  1  6  0  0  0
  4  6  1  0  0  0  0
  4 31  1  0  0  0  0
  6  7  1  0  0  0  0
  7  9  1  6  0  0  0
  7 30  1  0  0  0  0
  8 26  1  0  0  0  0
 10  9  1  6  0  0  0
 10 13  1  0  0  0  0
 10 21  1  0  0  0  0
 13 12  1  1  0  0  0
 13 15  1  0  0  0  0
 15  2  1  6  0  0  0
 15 17  1  0  0  0  0
 16 25  1  0  0  0  0
 16 23  1  0  0  0  0
 17 19  1  0  0  0  0
 19  5  1  6  0  0  0
 19 21  1  0  0  0  0
 21 14  1  1  0  0  0
 23 14  1  1  0  0  0
 23 29  1  0  0  0  0
 25 26  1  6  0  0  0
 25 27  1  0  0  0  0
 27 18  1  1  0  0  0
 27 28  1  0  0  0  0
 28 20  1  1  0  0  0
 28 29  1  0  0  0  0
 29 11  1  1  0  0  0
 30 22  1  1  0  0  0
 30 31  1  0  0  0  0
 31 24  1  1  0  0  0
M  END
>  <CHROM.1>
-58.48663980,-70.22890735,-100.94732872,66.14501490,75.46967950,69.35034913
18.83244204,5.11155317,16.06011149,1.17675059,0.09034517,0.43460584

>  <Name>
ligand

>  <RI>
0

>  <Rbt.Current_Directory>
/home/itssahil/PROJECTS/Mol_Feturizer/New_Systems/rnas/3DVV

>  <Rbt.Executable>
rbdock ($Id: //depot/dev/client3/rdock/2013.1/src/exe/rbdock.cxx#4 $)

>  <Rbt.Library>
libRbt.so (2013.1, Build901 2013/11/27)

>  <Rbt.Parameter_File>
/export/apps/rDock/src/rDock_2013.1_src/data/scripts/dock_solv.prm

>  <Rbt.Receptor>
prm/pocket_docking_3.prm

>  <SCORE>
-4.75944

>  <SCORE.INTER>
-3.0077

>  <SCORE.INTER.CONST>
1

>  <SCORE.INTER.POLAR>
0

>  <SCORE.INTER.ROT>
6

>  <SCORE.INTER.SOLV>
17.0948

>  <SCORE.INTER.VDW>
-15.3034

>  <SCORE.INTER.norm>
-0.0970225

>  <SCORE.INTRA>
-1.75388

>  <SCORE.INTRA.DIHEDRAL>
-2.9202

>  <SCORE.INTRA.DIHEDRAL.0>
10.8172

>  <SCORE.INTRA.POLAR>
0

>  <SCORE.INTRA.POLAR.0>
0

>  <SCORE.INTRA.REPUL>
0

>  <SCORE.INTRA.REPUL.0>
0

>  <SCORE.INTRA.SOLV>
-0.451864

>  <SCORE.INTRA.SOLV.lig_0>
-80.3833

>  <SCORE.INTRA.VDW>
-0.0678522

>  <SCORE.INTRA.VDW.0>
-4.63762

>  <SCORE.INTRA.norm>
-0.0565769

>  <SCORE.RESTR>
0.00213695

>  <SCORE.RESTR.CAVITY>
0.00213695

>  <SCORE.RESTR.norm>
6.8934e-05

>  <SCORE.SYSTEM>
0

>  <SCORE.SYSTEM.CONST>
0

>  <SCORE.SYSTEM.DIHEDRAL>
0

>  <SCORE.SYSTEM.SOLV>
0

>  <SCORE.SYSTEM.norm>
0

>  <SCORE.heavy>
31

>  <SCORE.norm>
-0.15353

>  <RMSD>
5.803

$$$$
ligand
 OpenBabel11021811473D
libRbt.so/2013.1/901 2013/11/27
 31 33  0  0  0  0  0  0  0  0999 V2000
   13.8074    3.5123   11.8770 C   0  0  0  0  0  0  0  0  0  0  0  0
   17.4380    4.4732   19.5280 N   0  0  0  0  0  0  0  0  0  0  0  0
   14.6984    2.4829   11.4350 O   0  0  0  0  0  0  0  0  0  0  0  0
   13.6471    3.4538   13.3982 C   0  0  1  0  0  0  0  0  0  0  0  0
   20.4531    6.4898   16.2500 N   0  0  0  0  0  0  0  0  0  0  0  0
   14.9068    3.7297   14.0414 O   0  0  0  0  0  0  0  0  0  0  0  0
   14.7201    4.8129   14.9696 C   0  0  1  0  0  0  0  0  0  0  0  0
   17.9558    9.9108   14.6932 N   0  0  0  0  0  0  0  0  0  0  0  0
   15.8936    5.6350   15.0702 O   0  0  0  0  0  0  0  0  0  0  0  0
   16.9786    5.0104   15.7721 C   0  0  2  0  0  0  0  0  0  0  0  0
   18.9007    4.3143   11.6571 N   0  0  0  0  0  0  0  0  0  0  0  0
   15.4971    4.1876   17.4958 O   0  0  0  0  0  0  0  0  0  0  0  0
   16.6279    5.0321   17.2644 C   0  0  1  0  0  0  0  0  0  0  0  0
   18.7589    5.5481   14.1527 O   0  0  0  0  0  0  0  0  0  0  0  0
   17.8063    4.5373   18.1055 C   0  0  1  0  0  0  0  0  0  0  0  0
   17.7390    7.4676   13.2507 O   0  0  0  0  0  0  0  0  0  0  0  0
   18.9916    5.4835   17.9126 C   0  0  0  0  0  0  0  0  0  0  0  0
   20.8774    8.7486   11.8414 O   0  0  0  0  0  0  0  0  0  0  0  0
   19.4119    5.4685   16.4399 C   0  0  1  0  0  0  0  0  0  0  0  0
   20.4018    6.3863   10.2736 O   0  0  0  0  0  0  0  0  0  0  0  0
   18.2591    5.7869   15.4801 C   0  0  2  0  0  0  0  0  0  0  0  0
   12.9508    6.5001   15.2537 O   0  0  0  0  0  0  0  0  0  0  0  0
   17.9244    6.0484   13.0963 C   0  0  1  0  0  0  0  0  0  0  0  0
   11.8728    4.1004   14.9760 O   0  0  0  0  0  0  0  0  0  0  0  0
   18.9579    8.2293   13.2122 C   0  0  2  0  0  0  0  0  0  0  0  0
   18.6288    9.7122   13.3997 C   0  0  0  0  0  0  0  0  0  0  0  0
   19.6347    8.0411   11.8532 C   0  0  2  0  0  0  0  0  0  0  0  0
   19.8964    6.5546   11.6023 C   0  0  1  0  0  0  0  0  0  0  0  0
   18.6020    5.7513   11.7544 C   0  0  1  0  0  0  0  0  0  0  0  0
   13.6090    5.6375   14.3230 C   0  0  2  0  0  0  0  0  0  0  0  0
   12.6637    4.5307   13.8653 C   0  0  1  0  0  0  0  0  0  0  0  0
  1  3  1  0  0  0  0
  4  1  1  6  0  0  0
  4  6  1  0  0  0  0
  4 31  1  0  0  0  0
  6  7  1  0  0  0  0
  7  9  1  6  0  0  0
  7 30  1  0  0  0  0
  8 26  1  0  0  0  0
 10  9  1  6  0  0  0
 10 13  1  0  0  0  0
 10 21  1  0  0  0  0
 13 12  1  6  0  0  0
 13 15  1  0  0  0  0
 15  2  1  1  0  0  0
 15 17  1  0  0  0  0
 16 25  1  0  0  0  0
 16 23  1  0  0  0  0
 17 19  1  0  0  0  0
 19  5  1  1  0  0  0
 19 21  1  0  0  0  0
 21 14  1  6  0  0  0
 23 14  1  1  0  0  0
 23 29  1  0  0  0  0
 25 26  1  6  0  0  0
 25 27  1  0  0  0  0
 27 18  1  1  0  0  0
 27 28  1  0  0  0  0
 28 20  1  6  0  0  0
 28 29  1  0  0  0  0
 29 11  1  1  0  0  0
 30 22  1  1  0  0  0
 30 31  1  0  0  0  0
 31 24  1  1  0  0  0
M  END
>  <CHROM.1>
63.91781529,-72.24374228,-74.72939733,58.23900831,66.78694939,59.60245364
17.01744821,5.71999176,14.30438439,2.77293241,0.48662579,1.66381990

>  <Name>
ligand

>  <RI>
0

>  <Rbt.Current_Directory>
/home/itssahil/PROJECTS/Mol_Feturizer/New_Systems/rnas/3DVV

>  <Rbt.Executable>
rbdock ($Id: //depot/dev/client3/rdock/2013.1/src/exe/rbdock.cxx#4 $)

>  <Rbt.Library>
libRbt.so (2013.1, Build901 2013/11/27)

>  <Rbt.Parameter_File>
/export/apps/rDock/src/rDock_2013.1_src/data/scripts/dock_solv.prm

>  <Rbt.Receptor>
prm/pocket_docking_7.prm

>  <SCORE>
-7.49895

>  <SCORE.INTER>
-3.34413

>  <SCORE.INTER.CONST>
1

>  <SCORE.INTER.POLAR>
0

>  <SCORE.INTER.ROT>
6

>  <SCORE.INTER.SOLV>
13.6634

>  <SCORE.INTER.VDW>
-14.3839

>  <SCORE.INTER.norm>
-0.107875

>  <SCORE.INTRA>
-4.1563

>  <SCORE.INTRA.DIHEDRAL>
-8.54945

>  <SCORE.INTRA.DIHEDRAL.0>
10.8172

>  <SCORE.INTRA.POLAR>
0

>  <SCORE.INTRA.POLAR.0>
0

>  <SCORE.INTRA.REPUL>
0

>  <SCORE.INTRA.REPUL.0>
0

>  <SCORE.INTRA.SOLV>
-4.2111

>  <SCORE.INTRA.SOLV.lig_0>
-80.3833

>  <SCORE.INTRA.VDW>
2.22397

>  <SCORE.INTRA.VDW.0>
-4.63762

>  <SCORE.INTRA.norm>
-0.134074

>  <SCORE.RESTR>
0.00147132

>  <SCORE.RESTR.CAVITY>
0.00147132

>  <SCORE.RESTR.norm>
4.7462e-05

>  <SCORE.SYSTEM>
0

>  <SCORE.SYSTEM.CONST>
0

>  <SCORE.SYSTEM.DIHEDRAL>
0

>  <SCORE.SYSTEM.SOLV>
0

>  <SCORE.SYSTEM.norm>
0

>  <SCORE.heavy>
31

>  <SCORE.norm>
-0.241902

>  <RMSD>
5.831

$$$$
ligand
 OpenBabel11021811473D
libRbt.so/2013.1/901 2013/11/27
 31 33  0  0  0  0  0  0  0  0999 V2000
   14.1437    3.4352   12.5801 C   0  0  0  0  0  0  0  0  0  0  0  0
   13.7894    1.8921   20.6922 N   0  0  0  0  0  0  0  0  0  0  0  0
   14.9687    2.2782   12.4077 O   0  0  0  0  0  0  0  0  0  0  0  0
   13.2116    3.2445   13.7792 C   0  0  1  0  0  0  0  0  0  0  0  0
   18.0258    4.2395   20.0247 N   0  0  0  0  0  0  0  0  0  0  0  0
   13.9796    3.1440   14.9943 O   0  0  0  0  0  0  0  0  0  0  0  0
   13.4963    4.1290   15.9249 C   0  0  1  0  0  0  0  0  0  0  0  0
   17.0603    8.5235   18.6634 N   0  0  0  0  0  0  0  0  0  0  0  0
   14.5513    4.6374   16.7565 O   0  0  0  0  0  0  0  0  0  0  0  0
   15.1664    3.6396   17.5847 C   0  0  2  0  0  0  0  0  0  0  0  0
   18.5287    3.6577   14.7086 N   0  0  0  0  0  0  0  0  0  0  0  0
   13.0341    2.6081   18.0663 O   0  0  0  0  0  0  0  0  0  0  0  0
   14.1530    3.2619   18.6714 C   0  0  1  0  0  0  0  0  0  0  0  0
   17.5085    4.3184   17.2172 O   0  0  0  0  0  0  0  0  0  0  0  0
   14.7868    2.3251   19.7017 C   0  0  1  0  0  0  0  0  0  0  0  0
   17.1754    6.5634   16.5949 O   0  0  0  0  0  0  0  0  0  0  0  0
   15.9371    3.0520   20.3988 C   0  0  0  0  0  0  0  0  0  0  0  0
   20.7379    7.4047   16.8729 O   0  0  0  0  0  0  0  0  0  0  0  0
   17.0027    3.4172   19.3611 C   0  0  1  0  0  0  0  0  0  0  0  0
   20.6900    5.6029   14.6332 O   0  0  0  0  0  0  0  0  0  0  0  0
   16.4448    4.2214   18.1806 C   0  0  2  0  0  0  0  0  0  0  0  0
   12.0993    6.1397   15.6734 O   0  0  0  0  0  0  0  0  0  0  0  0
   17.2470    5.2065   16.1192 C   0  0  1  0  0  0  0  0  0  0  0  0
   10.9905    4.1054   14.3968 O   0  0  0  0  0  0  0  0  0  0  0  0
   18.3786    7.0305   17.2286 C   0  0  2  0  0  0  0  0  0  0  0  0
   18.1706    8.4721   17.6988 C   0  0  0  0  0  0  0  0  0  0  0  0
   19.5304    7.0001   16.2223 C   0  0  2  0  0  0  0  0  0  0  0  0
   19.7033    5.5836   15.6702 C   0  0  1  0  0  0  0  0  0  0  0  0
   18.3803    5.0686   15.0971 C   0  0  1  0  0  0  0  0  0  0  0  0
   13.0130    5.2579   15.0168 C   0  0  2  0  0  0  0  0  0  0  0  0
   12.2947    4.4615   13.9315 C   0  0  1  0  0  0  0  0  0  0  0  0
  1  3  1  0  0  0  0
  4  1  1  6  0  0  0
  4  6  1  0  0  0  0
  4 31  1  0  0  0  0
  6  7  1  0  0  0  0
  7  9  1  1  0  0  0
  7 30  1  0  0  0  0
  8 26  1  0  0  0  0
 10  9  1  6  0  0  0
 10 13  1  0  0  0  0
 10 21  1  0  0  0  0
 13 12  1  6  0  0  0
 13 15  1  0  0  0  0
 15  2  1  1  0  0  0
 15 17  1  0  0  0  0
 16 25  1  0  0  0  0
 16 23  1  0  0  0  0
 17 19  1  0  0  0  0
 19  5  1  1  0  0  0
 19 21  1  0  0  0  0
 21 14  1  6  0  0  0
 23 14  1  1  0  0  0
 23 29  1  0  0  0  0
 25 26  1  6  0  0  0
 25 27  1  0  0  0  0
 27 18  1  1  0  0  0
 27 28  1  0  0  0  0
 28 20  1  6  0  0  0
 28 29  1  0  0  0  0
 29 11  1  1  0  0  0
 30 22  1  1  0  0  0
 30 31  1  0  0  0  0
 31 24  1  1  0  0  0
M  END
>  <CHROM.1>
64.39892949,-62.25917742,-71.17750936,66.78011124,63.34526869,60.24416208
15.92611925,4.64696365,16.57044570,-3.00429030,0.45444143,1.75006222

>  <Name>
ligand

>  <RI>
0

>  <Rbt.Current_Directory>
/home/itssahil/PROJECTS/Mol_Feturizer/New_Systems/rnas/3DVV

>  <Rbt.Executable>
rbdock ($Id: //depot/dev/client3/rdock/2013.1/src/exe/rbdock.cxx#4 $)

>  <Rbt.Library>
libRbt.so (2013.1, Build901 2013/11/27)

>  <Rbt.Parameter_File>
/export/apps/rDock/src/rDock_2013.1_src/data/scripts/dock_solv.prm

>  <Rbt.Receptor>
prm/pocket_docking_8.prm

>  <SCORE>
-9.34247

>  <SCORE.INTER>
-5.04642

>  <SCORE.INTER.CONST>
1

>  <SCORE.INTER.POLAR>
0

>  <SCORE.INTER.ROT>
6

>  <SCORE.INTER.SOLV>
14.8579

>  <SCORE.INTER.VDW>
-15.9169

>  <SCORE.INTER.norm>
-0.162788

>  <SCORE.INTRA>
-4.29606

>  <SCORE.INTRA.DIHEDRAL>
-9.56928

>  <SCORE.INTRA.DIHEDRAL.0>
10.8172

>  <SCORE.INTRA.POLAR>
0

>  <SCORE.INTRA.POLAR.0>
0

>  <SCORE.INTRA.REPUL>
0

>  <SCORE.INTRA.REPUL.0>
0

>  <SCORE.INTRA.SOLV>
-4.38682

>  <SCORE.INTRA.SOLV.lig_0>
-80.3833

>  <SCORE.INTRA.VDW>
2.68199

>  <SCORE.INTRA.VDW.0>
-4.63762

>  <SCORE.INTRA.norm>
-0.138582

>  <SCORE.RESTR>
0

>  <SCORE.RESTR.CAVITY>
0

>  <SCORE.RESTR.norm>
0

>  <SCORE.SYSTEM>
0

>  <SCORE.SYSTEM.CONST>
0

>  <SCORE.SYSTEM.DIHEDRAL>
0

>  <SCORE.SYSTEM.SOLV>
0

>  <SCORE.SYSTEM.norm>
0

>  <SCORE.heavy>
31

>  <SCORE.norm>
-0.30137

>  <RMSD>
5.833

$$$$
ligand
 OpenBabel11021811473D
libRbt.so/2013.1/901 2013/11/27
 31 33  0  0  0  0  0  0  0  0999 V2000
   21.8085    7.5309   16.2918 C   0  0  0  0  0  0  0  0  0  0  0  0
   19.6172    3.2652   10.7339 N   0  0  0  0  0  0  0  0  0  0  0  0
   22.8493    6.6542   15.8479 O   0  0  0  0  0  0  0  0  0  0  0  0
   21.0446    8.0936   15.0906 C   0  0  1  0  0  0  0  0  0  0  0  0
   17.5720    1.4584   14.7905 N   0  0  0  0  0  0  0  0  0  0  0  0
   20.3737    7.0305   14.3863 O   0  0  0  0  0  0  0  0  0  0  0  0
   18.9773    7.3602   14.2811 C   0  0  1  0  0  0  0  0  0  0  0  0
   13.8590    3.7329   15.9899 N   0  0  0  0  0  0  0  0  0  0  0  0
   18.1493    6.1875   14.3274 O   0  0  0  0  0  0  0  0  0  0  0  0
   18.8602    4.9673   14.0711 C   0  0  2  0  0  0  0  0  0  0  0  0
   19.7197    4.9570   18.3244 N   0  0  0  0  0  0  0  0  0  0  0  0
   19.7034    5.8053   11.9665 O   0  0  0  0  0  0  0  0  0  0  0  0
   18.9015    4.7752   12.5506 C   0  0  1  0  0  0  0  0  0  0  0  0
   18.3208    3.8311   16.1923 O   0  0  0  0  0  0  0  0  0  0  0  0
   19.4948    3.4111   12.1924 C   0  0  1  0  0  0  0  0  0  0  0  0
   16.3050    4.8490   16.8546 O   0  0  0  0  0  0  0  0  0  0  0  0
   18.5960    2.3103   12.7562 C   0  0  0  0  0  0  0  0  0  0  0  0
   15.7428    2.4723   19.5953 O   0  0  0  0  0  0  0  0  0  0  0  0
   18.5523    2.4300   14.2824 C   0  0  1  0  0  0  0  0  0  0  0  0
   18.0681    3.9132   20.4793 O   0  0  0  0  0  0  0  0  0  0  0  0
   18.1299    3.8224   14.7667 C   0  0  2  0  0  0  0  0  0  0  0  0
   17.5391    8.9849   15.4429 O   0  0  0  0  0  0  0  0  0  0  0  0
   17.7405    4.9563   16.8704 C   0  0  1  0  0  0  0  0  0  0  0  0
   19.7770   10.1586   14.6607 O   0  0  0  0  0  0  0  0  0  0  0  0
   15.7946    3.6688   17.4980 C   0  0  2  0  0  0  0  0  0  0  0  0
   14.2671    3.6661   17.4022 C   0  0  0  0  0  0  0  0  0  0  0  0
   16.1974    3.6774   18.9738 C   0  0  2  0  0  0  0  0  0  0  0  0
   17.7196    3.7679   19.0985 C   0  0  1  0  0  0  0  0  0  0  0  0
   18.2489    4.9726   18.3159 C   0  0  1  0  0  0  0  0  0  0  0  0
   18.7180    8.1824   15.5418 C   0  0  2  0  0  0  0  0  0  0  0  0
   19.9613    9.0664   15.5649 C   0  0  1  0  0  0  0  0  0  0  0  0
  1  3  1  0  0  0  0
  4  1  1  1  0  0  0
  4  6  1  0  0  0  0
  4 31  1  0  0  0  0
  6  7  1  0  0  0  0
  7  9  1  1  0  0  0
  7 30  1  0  0  0  0
  8 26  1  0  0  0  0
 10  9  1  6  0  0  0
 10 13  1  0  0  0  0
 10 21  1  0  0  0  0
 13 12  1  6  0  0  0
 13 15  1  0  0  0  0
 15  2  1  6  0  0  0
 15 17  1  0  0  0  0
 16 25  1  0  0  0  0
 16 23  1  0  0  0  0
 17 19  1  0  0  0  0
 19  5  1  6  0  0  0
 19 21  1  0  0  0  0
 21 14  1  1  0  0  0
 23 14  1  6  0  0  0
 23 29  1  0  0  0  0
 25 26  1  1  0  0  0
 25 27  1  0  0  0  0
 27 18  1  6  0  0  0
 27 28  1  0  0  0  0
 28 20  1  1  0  0  0
 28 29  1  0  0  0  0
 29 11  1  6  0  0  0
 30 22  1  6  0  0  0
 30 31  1  0  0  0  0
 31 24  1  6  0  0  0
M  END
>  <CHROM.1>
64.18423461,-17.34494209,-85.74456177,70.44350550,66.07394368,57.44342642
18.41775683,5.19533062,15.66439973,-0.20494707,0.94060323,1.00922344

>  <Name>
ligand

>  <RI>
0

>  <Rbt.Current_Directory>
/home/itssahil/PROJECTS/Mol_Feturizer/New_Systems/rnas/3DVV

>  <Rbt.Executable>
rbdock ($Id: //depot/dev/client3/rdock/2013.1/src/exe/rbdock.cxx#4 $)

>  <Rbt.Library>
libRbt.so (2013.1, Build901 2013/11/27)

>  <Rbt.Parameter_File>
/export/apps/rDock/src/rDock_2013.1_src/data/scripts/dock_solv.prm

>  <Rbt.Receptor>
prm/pocket_docking_5.prm

>  <SCORE>
-0.94841

>  <SCORE.INTER>
-0.748529

>  <SCORE.INTER.CONST>
1

>  <SCORE.INTER.POLAR>
0

>  <SCORE.INTER.ROT>
6

>  <SCORE.INTER.SOLV>
17.87

>  <SCORE.INTER.VDW>
-14.0557

>  <SCORE.INTER.norm>
-0.0241461

>  <SCORE.INTRA>
-0.199881

>  <SCORE.INTRA.DIHEDRAL>
-1.39462

>  <SCORE.INTRA.DIHEDRAL.0>
10.8172

>  <SCORE.INTRA.POLAR>
0

>  <SCORE.INTRA.POLAR.0>
0

>  <SCORE.INTRA.REPUL>
0

>  <SCORE.INTRA.REPUL.0>
0

>  <SCORE.INTRA.SOLV>
-3.40775

>  <SCORE.INTRA.SOLV.lig_0>
-80.3833

>  <SCORE.INTRA.VDW>
2.2013

>  <SCORE.INTRA.VDW.0>
-4.63762

>  <SCORE.INTRA.norm>
-0.00644776

>  <SCORE.RESTR>
0

>  <SCORE.RESTR.CAVITY>
0

>  <SCORE.RESTR.norm>
0

>  <SCORE.SYSTEM>
0

>  <SCORE.SYSTEM.CONST>
0

>  <SCORE.SYSTEM.DIHEDRAL>
0

>  <SCORE.SYSTEM.SOLV>
0

>  <SCORE.SYSTEM.norm>
0

>  <SCORE.heavy>
31

>  <SCORE.norm>
-0.0305939

>  <RMSD>
5.839

$$$$
ligand
 OpenBabel11021811473D
libRbt.so/2013.1/901 2013/11/27
 31 33  0  0  0  0  0  0  0  0999 V2000
   23.8939    7.2172   15.7021 C   0  0  0  0  0  0  0  0  0  0  0  0
   19.9223    0.4992   12.8550 N   0  0  0  0  0  0  0  0  0  0  0  0
   25.2607    7.4176   16.0771 O   0  0  0  0  0  0  0  0  0  0  0  0
   23.1610    6.4216   16.7852 C   0  0  1  0  0  0  0  0  0  0  0  0
   16.3095    2.1498   15.7057 N   0  0  0  0  0  0  0  0  0  0  0  0
   21.7691    6.2790   16.4405 O   0  0  0  0  0  0  0  0  0  0  0  0
   21.4334    4.8802   16.4587 C   0  0  1  0  0  0  0  0  0  0  0  0
   16.6042    6.4469   14.2483 N   0  0  0  0  0  0  0  0  0  0  0  0
   20.4388    4.5594   15.4733 O   0  0  0  0  0  0  0  0  0  0  0  0
   19.9628    3.2076   15.5512 C   0  0  2  0  0  0  0  0  0  0  0  0
   18.5460    4.1998   19.9640 N   0  0  0  0  0  0  0  0  0  0  0  0
   21.6347    2.4422   13.9823 O   0  0  0  0  0  0  0  0  0  0  0  0
   20.2240    2.5537   14.1894 C   0  0  1  0  0  0  0  0  0  0  0  0
   18.2290    3.5774   17.2654 O   0  0  0  0  0  0  0  0  0  0  0  0
   19.5943    1.1607   14.1271 C   0  0  1  0  0  0  0  0  0  0  0  0
   17.9804    5.8419   16.6752 O   0  0  0  0  0  0  0  0  0  0  0  0
   18.0782    1.2892   14.2760 C   0  0  0  0  0  0  0  0  0  0  0  0
   14.5321    6.0219   17.9212 O   0  0  0  0  0  0  0  0  0  0  0  0
   17.7577    1.9012   15.6429 C   0  0  1  0  0  0  0  0  0  0  0  0
   16.0536    5.6536   20.3324 O   0  0  0  0  0  0  0  0  0  0  0  0
   18.4755    3.2336   15.8906 C   0  0  2  0  0  0  0  0  0  0  0  0
   22.7859    2.8240   16.4335 O   0  0  0  0  0  0  0  0  0  0  0  0
   18.5690    4.9274   17.6185 C   0  0  1  0  0  0  0  0  0  0  0  0
   23.7483    4.5149   18.2258 O   0  0  0  0  0  0  0  0  0  0  0  0
   16.5455    5.7794   16.6096 C   0  0  2  0  0  0  0  0  0  0  0  0
   16.0468    6.7837   15.5679 C   0  0  0  0  0  0  0  0  0  0  0  0
   15.9557    6.1468   17.9725 C   0  0  2  0  0  0  0  0  0  0  0  0
   16.5073    5.2100   19.0492 C   0  0  1  0  0  0  0  0  0  0  0  0
   18.0381    5.2137   19.0271 C   0  0  1  0  0  0  0  0  0  0  0  0
   22.7427    4.2029   16.0591 C   0  0  2  0  0  0  0  0  0  0  0  0
   23.7422    5.0083   16.8838 C   0  0  1  0  0  0  0  0  0  0  0  0
  1  3  1  0  0  0  0
  4  1  1  6  0  0  0
  4  6  1  0  0  0  0
  4 31  1  0  0  0  0
  6  7  1  0  0  0  0
  7  9  1  6  0  0  0
  7 30  1  0  0  0  0
  8 26  1  0  0  0  0
 10  9  1  6  0  0  0
 10 13  1  0  0  0  0
 10 21  1  0  0  0  0
 13 12  1  1  0  0  0
 13 15  1  0  0  0  0
 15  2  1  6  0  0  0
 15 17  1  0  0  0  0
 16 25  1  0  0  0  0
 16 23  1  0  0  0  0
 17 19  1  0  0  0  0
 19  5  1  6  0  0  0
 19 21  1  0  0  0  0
 21 14  1  1  0  0  0
 23 14  1  6  0  0  0
 23 29  1  0  0  0  0
 25 26  1  6  0  0  0
 25 27  1  0  0  0  0
 27 18  1  6  0  0  0
 27 28  1  0  0  0  0
 28 20  1  1  0  0  0
 28 29  1  0  0  0  0
 29 11  1  1  0  0  0
 30 22  1  1  0  0  0
 30 31  1  0  0  0  0
 31 24  1  1  0  0  0
M  END
>  <CHROM.1>
177.06047184,-173.45590863,-122.30393850,50.21636556,67.49921894,60.53476565
19.53562873,4.46430329,16.43602258,-0.14855886,0.14910271,0.69415732

>  <Name>
ligand

>  <RI>
0

>  <Rbt.Current_Directory>
/home/itssahil/PROJECTS/Mol_Feturizer/New_Systems/rnas/3DVV

>  <Rbt.Executable>
rbdock ($Id: //depot/dev/client3/rdock/2013.1/src/exe/rbdock.cxx#4 $)

>  <Rbt.Library>
libRbt.so (2013.1, Build901 2013/11/27)

>  <Rbt.Parameter_File>
/export/apps/rDock/src/rDock_2013.1_src/data/scripts/dock_solv.prm

>  <Rbt.Receptor>
prm/pocket_docking_7.prm

>  <SCORE>
-7.54039

>  <SCORE.INTER>
-6.50372

>  <SCORE.INTER.CONST>
1

>  <SCORE.INTER.POLAR>
0

>  <SCORE.INTER.ROT>
6

>  <SCORE.INTER.SOLV>
18.1449

>  <SCORE.INTER.VDW>
-17.9841

>  <SCORE.INTER.norm>
-0.209797

>  <SCORE.INTRA>
-1.03667

>  <SCORE.INTRA.DIHEDRAL>
-2.4169

>  <SCORE.INTRA.DIHEDRAL.0>
10.8172

>  <SCORE.INTRA.POLAR>
0

>  <SCORE.INTRA.POLAR.0>
0

>  <SCORE.INTRA.REPUL>
0.0122828

>  <SCORE.INTRA.REPUL.0>
0

>  <SCORE.INTRA.SOLV>
-3.18647

>  <SCORE.INTRA.SOLV.lig_0>
-80.3833

>  <SCORE.INTRA.VDW>
1.7036

>  <SCORE.INTRA.VDW.0>
-4.63762

>  <SCORE.INTRA.norm>
-0.0334408

>  <SCORE.RESTR>
0

>  <SCORE.RESTR.CAVITY>
0

>  <SCORE.RESTR.norm>
0

>  <SCORE.SYSTEM>
0

>  <SCORE.SYSTEM.CONST>
0

>  <SCORE.SYSTEM.DIHEDRAL>
0

>  <SCORE.SYSTEM.SOLV>
0

>  <SCORE.SYSTEM.norm>
0

>  <SCORE.heavy>
31

>  <SCORE.norm>
-0.243238

>  <RMSD>
5.840

$$$$
ligand
 OpenBabel11021811473D
libRbt.so/2013.1/901 2013/11/27
 31 33  0  0  0  0  0  0  0  0999 V2000
   23.3574    3.5970   16.8234 C   0  0  0  0  0  0  0  0  0  0  0  0
   20.3410    1.9689   11.6504 N   0  0  0  0  0  0  0  0  0  0  0  0
   24.5555    3.9996   17.4951 O   0  0  0  0  0  0  0  0  0  0  0  0
   22.7355    4.7902   16.0934 C   0  0  1  0  0  0  0  0  0  0  0  0
   18.8381    6.6166   11.4426 N   0  0  0  0  0  0  0  0  0  0  0  0
   21.5811    4.3663   15.3424 O   0  0  0  0  0  0  0  0  0  0  0  0
   20.4575    5.1754   15.7334 C   0  0  1  0  0  0  0  0  0  0  0  0
   15.9753    3.4441   17.8723 N   0  0  0  0  0  0  0  0  0  0  0  0
   19.2274    4.4355   15.6856 O   0  0  0  0  0  0  0  0  0  0  0  0
   18.7669    4.1648   14.3535 C   0  0  2  0  0  0  0  0  0  0  0  0
   15.5672    8.1009   13.3102 N   0  0  0  0  0  0  0  0  0  0  0  0
   19.6930    1.9326   14.3995 O   0  0  0  0  0  0  0  0  0  0  0  0
   19.7624    3.1877   13.7173 C   0  0  1  0  0  0  0  0  0  0  0  0
   17.5802    6.2951   13.9863 O   0  0  0  0  0  0  0  0  0  0  0  0
   19.4417    2.9744   12.2366 C   0  0  1  0  0  0  0  0  0  0  0  0
   16.0328    4.5581   14.3418 O   0  0  0  0  0  0  0  0  0  0  0  0
   19.5874    4.3039   11.4960 C   0  0  0  0  0  0  0  0  0  0  0  0
   14.9485    5.8838   17.5888 O   0  0  0  0  0  0  0  0  0  0  0  0
   18.5823    5.3091   12.0658 C   0  0  1  0  0  0  0  0  0  0  0  0
   13.9944    7.8739   15.7465 O   0  0  0  0  0  0  0  0  0  0  0  0
   18.6964    5.4812   13.5854 C   0  0  2  0  0  0  0  0  0  0  0  0
   20.0333    6.6493   17.6583 O   0  0  0  0  0  0  0  0  0  0  0  0
   16.2931    5.7750   13.6181 C   0  0  1  0  0  0  0  0  0  0  0  0
   22.4147    7.1701   16.6310 O   0  0  0  0  0  0  0  0  0  0  0  0
   16.0242    4.7122   15.7712 C   0  0  2  0  0  0  0  0  0  0  0  0
   15.7516    3.3534   16.4207 C   0  0  0  0  0  0  0  0  0  0  0  0
   14.9131    5.6840   16.1732 C   0  0  2  0  0  0  0  0  0  0  0  0
   15.1140    7.0266   15.4675 C   0  0  1  0  0  0  0  0  0  0  0  0
   15.2269    6.8230   13.9543 C   0  0  1  0  0  0  0  0  0  0  0  0
   20.7611    5.5107   17.1922 C   0  0  2  0  0  0  0  0  0  0  0  0
   22.2502    5.8316   17.1059 C   0  0  1  0  0  0  0  0  0  0  0  0
  1  3  1  0  0  0  0
  4  1  1  1  0  0  0
  4  6  1  0  0  0  0
  4 31  1  0  0  0  0
  6  7  1  0  0  0  0
  7  9  1  1  0  0  0
  7 30  1  0  0  0  0
  8 26  1  0  0  0  0
 10  9  1  1  0  0  0
 10 13  1  0  0  0  0
 10 21  1  0  0  0  0
 13 12  1  1  0  0  0
 13 15  1  0  0  0  0
 15  2  1  6  0  0  0
 15 17  1  0  0  0  0
 16 25  1  0  0  0  0
 16 23  1  0  0  0  0
 17 19  1  0  0  0  0
 19  5  1  6  0  0  0
 19 21  1  0  0  0  0
 21 14  1  1  0  0  0
 23 14  1  1  0  0  0
 23 29  1  0  0  0  0
 25 26  1  1  0  0  0
 25 27  1  0  0  0  0
 27 18  1  1  0  0  0
 27 28  1  0  0  0  0
 28 20  1  6  0  0  0
 28 29  1  0  0  0  0
 29 11  1  6  0  0  0
 30 22  1  6  0  0  0
 30 31  1  0  0  0  0
 31 24  1  6  0  0  0
M  END
>  <CHROM.1>
176.06661274,-72.42359780,67.55956928,66.53604137,-68.83159243,170.00236121
18.68216148,5.07211577,15.04541646,0.03922033,-0.27054221,1.25755924

>  <Name>
ligand

>  <RI>
0

>  <Rbt.Current_Directory>
/home/itssahil/PROJECTS/Mol_Feturizer/New_Systems/rnas/3DVV

>  <Rbt.Executable>
rbdock ($Id: //depot/dev/client3/rdock/2013.1/src/exe/rbdock.cxx#4 $)

>  <Rbt.Library>
libRbt.so (2013.1, Build901 2013/11/27)

>  <Rbt.Parameter_File>
/export/apps/rDock/src/rDock_2013.1_src/data/scripts/dock_solv.prm

>  <Rbt.Receptor>
prm/pocket_docking_6.prm

>  <SCORE>
-2.60555

>  <SCORE.INTER>
-1.85809

>  <SCORE.INTER.CONST>
1

>  <SCORE.INTER.POLAR>
0

>  <SCORE.INTER.ROT>
6

>  <SCORE.INTER.SOLV>
12.8683

>  <SCORE.INTER.VDW>
-13.1282

>  <SCORE.INTER.norm>
-0.0599385

>  <SCORE.INTRA>
-0.747459

>  <SCORE.INTRA.DIHEDRAL>
-8.58142

>  <SCORE.INTRA.DIHEDRAL.0>
10.8172

>  <SCORE.INTRA.POLAR>
0

>  <SCORE.INTRA.POLAR.0>
0

>  <SCORE.INTRA.REPUL>
0

>  <SCORE.INTRA.REPUL.0>
0

>  <SCORE.INTRA.SOLV>
-2.21797

>  <SCORE.INTRA.SOLV.lig_0>
-80.3833

>  <SCORE.INTRA.VDW>
4.65224

>  <SCORE.INTRA.VDW.0>
-4.63762

>  <SCORE.INTRA.norm>
-0.0241116

>  <SCORE.RESTR>
0

>  <SCORE.RESTR.CAVITY>
0

>  <SCORE.RESTR.norm>
0

>  <SCORE.SYSTEM>
0

>  <SCORE.SYSTEM.CONST>
0

>  <SCORE.SYSTEM.DIHEDRAL>
0

>  <SCORE.SYSTEM.SOLV>
0

>  <SCORE.SYSTEM.norm>
0

>  <SCORE.heavy>
31

>  <SCORE.norm>
-0.08405

>  <RMSD>
5.851

$$$$
ligand
 OpenBabel11021811473D
libRbt.so/2013.1/901 2013/11/27
 31 33  0  0  0  0  0  0  0  0999 V2000
   16.2333    1.6345    9.7888 C   0  0  0  0  0  0  0  0  0  0  0  0
   21.1030    0.8476   13.4782 N   0  0  0  0  0  0  0  0  0  0  0  0
   16.7805    2.6884    8.9897 O   0  0  0  0  0  0  0  0  0  0  0  0
   16.1229    2.0822   11.2485 C   0  0  1  0  0  0  0  0  0  0  0  0
   19.4351    4.1277   16.6974 N   0  0  0  0  0  0  0  0  0  0  0  0
   17.4052    2.5311   11.7287 O   0  0  0  0  0  0  0  0  0  0  0  0
   17.2576    3.8625   12.2537 C   0  0  1  0  0  0  0  0  0  0  0  0
   19.0277    7.3651   10.3282 N   0  0  0  0  0  0  0  0  0  0  0  0
   18.4401    4.6504   12.0445 O   0  0  0  0  0  0  0  0  0  0  0  0
   19.5366    4.2847   12.8954 C   0  0  2  0  0  0  0  0  0  0  0  0
   20.7239    7.3758   16.5315 N   0  0  0  0  0  0  0  0  0  0  0  0
   20.2305    2.5306   11.3842 O   0  0  0  0  0  0  0  0  0  0  0  0
   19.7707    2.7803   12.7152 C   0  0  1  0  0  0  0  0  0  0  0  0
   19.2258    6.0465   14.5926 O   0  0  0  0  0  0  0  0  0  0  0  0
   20.8134    2.2706   13.7121 C   0  0  1  0  0  0  0  0  0  0  0  0
   20.3255    7.1671   12.8396 O   0  0  0  0  0  0  0  0  0  0  0  0
   20.2880    2.4724   15.1335 C   0  0  0  0  0  0  0  0  0  0  0  0
   18.4653   10.2879   13.3656 O   0  0  0  0  0  0  0  0  0  0  0  0
   20.0753    3.9685   15.3828 C   0  0  1  0  0  0  0  0  0  0  0  0
   20.0617   10.0979   15.7489 O   0  0  0  0  0  0  0  0  0  0  0  0
   19.1726    4.6323   14.3358 C   0  0  2  0  0  0  0  0  0  0  0  0
   15.5118    5.5812   12.0173 O   0  0  0  0  0  0  0  0  0  0  0  0
   20.4476    6.6857   14.1908 C   0  0  1  0  0  0  0  0  0  0  0  0
   14.4066    3.2436   12.5757 O   0  0  0  0  0  0  0  0  0  0  0  0
   19.2728    8.1277   12.6485 C   0  0  2  0  0  0  0  0  0  0  0  0
   19.2387    8.5484   11.1773 C   0  0  0  0  0  0  0  0  0  0  0  0
   19.5458    9.3623   13.5096 C   0  0  2  0  0  0  0  0  0  0  0  0
   19.6714    8.9557   14.9793 C   0  0  1  0  0  0  0  0  0  0  0  0
   20.7238    7.8557   15.1411 C   0  0  1  0  0  0  0  0  0  0  0  0
   16.1322    4.4488   11.4039 C   0  0  2  0  0  0  0  0  0  0  0  0
   15.1637    3.2705   11.3631 C   0  0  1  0  0  0  0  0  0  0  0  0
  1  3  1  0  0  0  0
  4  1  1  6  0  0  0
  4  6  1  0  0  0  0
  4 31  1  0  0  0  0
  6  7  1  0  0  0  0
  7  9  1  6  0  0  0
  7 30  1  0  0  0  0
  8 26  1  0  0  0  0
 10  9  1  6  0  0  0
 10 13  1  0  0  0  0
 10 21  1  0  0  0  0
 13 12  1  6  0  0  0
 13 15  1  0  0  0  0
 15  2  1  6  0  0  0
 15 17  1  0  0  0  0
 16 25  1  0  0  0  0
 16 23  1  0  0  0  0
 17 19  1  0  0  0  0
 19  5  1  1  0  0  0
 19 21  1  0  0  0  0
 21 14  1  6  0  0  0
 23 14  1  1  0  0  0
 23 29  1  0  0  0  0
 25 26  1  6  0  0  0
 25 27  1  0  0  0  0
 27 18  1  1  0  0  0
 27 28  1  0  0  0  0
 28 20  1  1  0  0  0
 28 29  1  0  0  0  0
 29 11  1  1  0  0  0
 30 22  1  1  0  0  0
 30 31  1  0  0  0  0
 31 24  1  1  0  0  0
M  END
>  <CHROM.1>
-55.25183222,-73.12024285,53.88811658,91.06521043,-51.10117537,58.41996546
18.69680708,5.16807989,13.00827332,2.15036988,0.78561585,-3.08888833

>  <Name>
ligand

>  <RI>
0

>  <Rbt.Current_Directory>
/home/itssahil/PROJECTS/Mol_Feturizer/New_Systems/rnas/3DVV

>  <Rbt.Executable>
rbdock ($Id: //depot/dev/client3/rdock/2013.1/src/exe/rbdock.cxx#4 $)

>  <Rbt.Library>
libRbt.so (2013.1, Build901 2013/11/27)

>  <Rbt.Parameter_File>
/export/apps/rDock/src/rDock_2013.1_src/data/scripts/dock_solv.prm

>  <Rbt.Receptor>
prm/blind_docking_80.prm

>  <SCORE>
-1.55789

>  <SCORE.INTER>
-3.41348

>  <SCORE.INTER.CONST>
1

>  <SCORE.INTER.POLAR>
0

>  <SCORE.INTER.ROT>
6

>  <SCORE.INTER.SOLV>
20.6738

>  <SCORE.INTER.VDW>
-16.7669

>  <SCORE.INTER.norm>
-0.110112

>  <SCORE.INTRA>
1.49959

>  <SCORE.INTRA.DIHEDRAL>
-5.31316

>  <SCORE.INTRA.DIHEDRAL.0>
10.8172

>  <SCORE.INTRA.POLAR>
0

>  <SCORE.INTRA.POLAR.0>
0

>  <SCORE.INTRA.REPUL>
0

>  <SCORE.INTRA.REPUL.0>
0

>  <SCORE.INTRA.SOLV>
-0.45176

>  <SCORE.INTRA.SOLV.lig_0>
-80.3833

>  <SCORE.INTRA.VDW>
4.38205

>  <SCORE.INTRA.VDW.0>
-4.63762

>  <SCORE.INTRA.norm>
0.0483739

>  <SCORE.RESTR>
0.356

>  <SCORE.RESTR.CAVITY>
0.356

>  <SCORE.RESTR.norm>
0.0114839

>  <SCORE.SYSTEM>
0

>  <SCORE.SYSTEM.CONST>
0

>  <SCORE.SYSTEM.DIHEDRAL>
0

>  <SCORE.SYSTEM.SOLV>
0

>  <SCORE.SYSTEM.norm>
0

>  <SCORE.heavy>
31

>  <SCORE.norm>
-0.0502546

>  <RMSD>
5.868

$$$$
ligand
 OpenBabel11021811473D
libRbt.so/2013.1/901 2013/11/27
 31 33  0  0  0  0  0  0  0  0999 V2000
   17.8565   -2.0506   11.0286 C   0  0  0  0  0  0  0  0  0  0  0  0
   15.0618    2.4711   12.3670 N   0  0  0  0  0  0  0  0  0  0  0  0
   16.5904   -1.5325   10.6072 O   0  0  0  0  0  0  0  0  0  0  0  0
   18.9417   -0.9822   10.8734 C   0  0  1  0  0  0  0  0  0  0  0  0
   19.1209    5.0520   11.4920 N   0  0  0  0  0  0  0  0  0  0  0  0
   18.6527    0.1462   11.7217 O   0  0  0  0  0  0  0  0  0  0  0  0
   19.7966    0.3961   12.5576 C   0  0  1  0  0  0  0  0  0  0  0  0
   23.3600    3.9044   17.8544 N   0  0  0  0  0  0  0  0  0  0  0  0
   19.4128    0.8957   13.8484 O   0  0  0  0  0  0  0  0  0  0  0  0
   18.5849    2.0668   13.7922 C   0  0  2  0  0  0  0  0  0  0  0  0
   18.9565    6.0228   14.3592 N   0  0  0  0  0  0  0  0  0  0  0  0
   16.5697    0.7527   14.0259 O   0  0  0  0  0  0  0  0  0  0  0  0
   17.2547    1.6537   13.1516 C   0  0  1  0  0  0  0  0  0  0  0  0
   20.3975    3.7350   13.6810 O   0  0  0  0  0  0  0  0  0  0  0  0
   16.3721    2.8773   12.8975 C   0  0  1  0  0  0  0  0  0  0  0  0
   21.2349    3.4997   15.8676 O   0  0  0  0  0  0  0  0  0  0  0  0
   17.0750    3.8046   11.9058 C   0  0  0  0  0  0  0  0  0  0  0  0
   23.6846    6.2037   15.4627 O   0  0  0  0  0  0  0  0  0  0  0  0
   18.3964    4.2827   12.5150 C   0  0  1  0  0  0  0  0  0  0  0  0
   21.1773    7.6071   15.3686 O   0  0  0  0  0  0  0  0  0  0  0  0
   19.3028    3.1321   12.9690 C   0  0  2  0  0  0  0  0  0  0  0  0
   21.7720   -0.9462   13.1528 O   0  0  0  0  0  0  0  0  0  0  0  0
   20.1424    3.9933   15.0706 C   0  0  1  0  0  0  0  0  0  0  0  0
   21.3792   -1.0295   10.5382 O   0  0  0  0  0  0  0  0  0  0  0  0
   22.5059    4.0979   15.5614 C   0  0  2  0  0  0  0  0  0  0  0  0
   23.5799    3.4827   16.4618 C   0  0  0  0  0  0  0  0  0  0  0  0
   22.4395    5.6027   15.8284 C   0  0  2  0  0  0  0  0  0  0  0  0
   21.3135    6.2296   15.0036 C   0  0  1  0  0  0  0  0  0  0  0  0
   19.9909    5.5053   15.2680 C   0  0  1  0  0  0  0  0  0  0  0  0
   20.4040   -0.9932   12.7406 C   0  0  2  0  0  0  0  0  0  0  0  0
   20.2962   -1.5396   11.3201 C   0  0  1  0  0  0  0  0  0  0  0  0
  1  3  1  0  0  0  0
  4  1  1  1  0  0  0
  4  6  1  0  0  0  0
  4 31  1  0  0  0  0
  6  7  1  0  0  0  0
  7  9  1  1  0  0  0
  7 30  1  0  0  0  0
  8 26  1  0  0  0  0
 10  9  1  6  0  0  0
 10 13  1  0  0  0  0
 10 21  1  0  0  0  0
 13 12  1  1  0  0  0
 13 15  1  0  0  0  0
 15  2  1  6  0  0  0
 15 17  1  0  0  0  0
 16 25  1  0  0  0  0
 16 23  1  0  0  0  0
 17 19  1  0  0  0  0
 19  5  1  6  0  0  0
 19 21  1  0  0  0  0
 21 14  1  1  0  0  0
 23 14  1  6  0  0  0
 23 29  1  0  0  0  0
 25 26  1  1  0  0  0
 25 27  1  0  0  0  0
 27 18  1  6  0  0  0
 27 28  1  0  0  0  0
 28 20  1  1  0  0  0
 28 29  1  0  0  0  0
 29 11  1  6  0  0  0
 30 22  1  6  0  0  0
 30 31  1  0  0  0  0
 31 24  1  6  0  0  0
M  END
>  <CHROM.1>
62.54741807,-54.91162997,65.89306619,131.48297554,-40.14980505,-68.58335827
19.74699417,2.49804347,13.52061901,-2.08442009,-0.39811167,0.38056461

>  <Name>
ligand

>  <RI>
0

>  <Rbt.Current_Directory>
/home/itssahil/PROJECTS/Mol_Feturizer/New_Systems/rnas/3DVV

>  <Rbt.Executable>
rbdock ($Id: //depot/dev/client3/rdock/2013.1/src/exe/rbdock.cxx#4 $)

>  <Rbt.Library>
libRbt.so (2013.1, Build901 2013/11/27)

>  <Rbt.Parameter_File>
/export/apps/rDock/src/rDock_2013.1_src/data/scripts/dock_solv.prm

>  <Rbt.Receptor>
prm/blind_docking_80.prm

>  <SCORE>
4.50757

>  <SCORE.INTER>
-2.67964

>  <SCORE.INTER.CONST>
1

>  <SCORE.INTER.POLAR>
0

>  <SCORE.INTER.ROT>
6

>  <SCORE.INTER.SOLV>
19.3325

>  <SCORE.INTER.VDW>
-15.8306

>  <SCORE.INTER.norm>
-0.08644

>  <SCORE.INTRA>
7.18721

>  <SCORE.INTRA.DIHEDRAL>
-1.66994

>  <SCORE.INTRA.DIHEDRAL.0>
10.8172

>  <SCORE.INTRA.POLAR>
0

>  <SCORE.INTRA.POLAR.0>
0

>  <SCORE.INTRA.REPUL>
0

>  <SCORE.INTRA.REPUL.0>
0

>  <SCORE.INTRA.SOLV>
1.71743

>  <SCORE.INTRA.SOLV.lig_0>
-80.3833

>  <SCORE.INTRA.VDW>
7.16346

>  <SCORE.INTRA.VDW.0>
-4.63762

>  <SCORE.INTRA.norm>
0.231845

>  <SCORE.RESTR>
0

>  <SCORE.RESTR.CAVITY>
0

>  <SCORE.RESTR.norm>
0

>  <SCORE.SYSTEM>
0

>  <SCORE.SYSTEM.CONST>
0

>  <SCORE.SYSTEM.DIHEDRAL>
0

>  <SCORE.SYSTEM.SOLV>
0

>  <SCORE.SYSTEM.norm>
0

>  <SCORE.heavy>
31

>  <SCORE.norm>
0.145405

>  <RMSD>
5.875

$$$$
ligand
 OpenBabel11021811473D
libRbt.so/2013.1/901 2013/11/27
 31 33  0  0  0  0  0  0  0  0999 V2000
   16.2358    1.6034    9.8139 C   0  0  0  0  0  0  0  0  0  0  0  0
   21.0891    0.8229   13.4759 N   0  0  0  0  0  0  0  0  0  0  0  0
   16.7091    2.6738    8.9899 O   0  0  0  0  0  0  0  0  0  0  0  0
   16.1274    2.0660   11.2690 C   0  0  1  0  0  0  0  0  0  0  0  0
   19.4886    4.1479   16.6831 N   0  0  0  0  0  0  0  0  0  0  0  0
   17.4108    2.5181   11.7434 O   0  0  0  0  0  0  0  0  0  0  0  0
   17.2655    3.8549   12.2550 C   0  0  1  0  0  0  0  0  0  0  0  0
   20.5547    8.5262   10.3780 N   0  0  0  0  0  0  0  0  0  0  0  0
   18.4488    4.6392   12.0366 O   0  0  0  0  0  0  0  0  0  0  0  0
   19.5506    4.2701   12.8790 C   0  0  2  0  0  0  0  0  0  0  0  0
   20.6802    7.7001   16.3171 N   0  0  0  0  0  0  0  0  0  0  0  0
   20.2108    2.4958   11.3762 O   0  0  0  0  0  0  0  0  0  0  0  0
   19.7679    2.7619   12.7098 C   0  0  1  0  0  0  0  0  0  0  0  0
   19.2756    6.0500   14.5635 O   0  0  0  0  0  0  0  0  0  0  0  0
   20.8162    2.2507   13.7000 C   0  0  1  0  0  0  0  0  0  0  0  0
   20.3549    6.9689   12.6850 O   0  0  0  0  0  0  0  0  0  0  0  0
   20.3082    2.4704   15.1251 C   0  0  0  0  0  0  0  0  0  0  0  0
   18.3504   10.0435   12.7555 O   0  0  0  0  0  0  0  0  0  0  0  0
   20.1129    3.9706   15.3632 C   0  0  1  0  0  0  0  0  0  0  0  0
   19.9124   10.2558   15.1596 O   0  0  0  0  0  0  0  0  0  0  0  0
   19.2057    4.6341   14.3200 C   0  0  2  0  0  0  0  0  0  0  0  0
   15.5216    5.5734   12.0030 O   0  0  0  0  0  0  0  0  0  0  0  0
   20.4748    6.6835   14.0909 C   0  0  1  0  0  0  0  0  0  0  0  0
   14.4140    3.2430   12.5862 O   0  0  0  0  0  0  0  0  0  0  0  0
   19.2644    7.8447   12.3518 C   0  0  2  0  0  0  0  0  0  0  0  0
   19.2372    8.0576   10.8364 C   0  0  0  0  0  0  0  0  0  0  0  0
   19.4680    9.1970   13.0374 C   0  0  2  0  0  0  0  0  0  0  0  0
   19.5860    9.0021   14.5505 C   0  0  1  0  0  0  0  0  0  0  0  0
   20.6829    7.9842   14.8738 C   0  0  1  0  0  0  0  0  0  0  0  0
   16.1399    4.4340   11.4004 C   0  0  2  0  0  0  0  0  0  0  0  0
   15.1699    3.2566   11.3726 C   0  0  1  0  0  0  0  0  0  0  0  0
  1  3  1  0  0  0  0
  4  1  1  6  0  0  0
  4  6  1  0  0  0  0
  4 31  1  0  0  0  0
  6  7  1  0  0  0  0
  7  9  1  6  0  0  0
  7 30  1  0  0  0  0
  8 26  1  0  0  0  0
 10  9  1  6  0  0  0
 10 13  1  0  0  0  0
 10 21  1  0  0  0  0
 13 12  1  6  0  0  0
 13 15  1  0  0  0  0
 15  2  1  6  0  0  0
 15 17  1  0  0  0  0
 16 25  1  0  0  0  0
 16 23  1  0  0  0  0
 17 19  1  0  0  0  0
 19  5  1  1  0  0  0
 19 21  1  0  0  0  0
 21 14  1  6  0  0  0
 23 14  1  1  0  0  0
 23 29  1  0  0  0  0
 25 26  1  6  0  0  0
 25 27  1  0  0  0  0
 27 18  1  1  0  0  0
 27 28  1  0  0  0  0
 28 20  1  1  0  0  0
 28 29  1  0  0  0  0
 29 11  1  1  0  0  0
 30 22  1  1  0  0  0
 30 31  1  0  0  0  0
 31 24  1  1  0  0  0
M  END
>  <CHROM.1>
-58.65091582,-72.41659960,53.22125321,82.16365352,-48.53558324,-53.97090363
18.73483409,5.17414872,12.89426133,2.16126985,0.78194377,3.10205823

>  <Name>
ligand

>  <RI>
0

>  <Rbt.Current_Directory>
/home/itssahil/PROJECTS/Mol_Feturizer/New_Systems/rnas/3DVV

>  <Rbt.Executable>
rbdock ($Id: //depot/dev/client3/rdock/2013.1/src/exe/rbdock.cxx#4 $)

>  <Rbt.Library>
libRbt.so (2013.1, Build901 2013/11/27)

>  <Rbt.Parameter_File>
/export/apps/rDock/src/rDock_2013.1_src/data/scripts/dock_solv.prm

>  <Rbt.Receptor>
prm/blind_docking_60.prm

>  <SCORE>
-1.63426

>  <SCORE.INTER>
-3.12177

>  <SCORE.INTER.CONST>
1

>  <SCORE.INTER.POLAR>
0

>  <SCORE.INTER.ROT>
6

>  <SCORE.INTER.SOLV>
22.0253

>  <SCORE.INTER.VDW>
-17.0229

>  <SCORE.INTER.norm>
-0.100702

>  <SCORE.INTRA>
1.17143

>  <SCORE.INTRA.DIHEDRAL>
-6.70169

>  <SCORE.INTRA.DIHEDRAL.0>
10.8172

>  <SCORE.INTRA.POLAR>
0

>  <SCORE.INTRA.POLAR.0>
0

>  <SCORE.INTRA.REPUL>
0

>  <SCORE.INTRA.REPUL.0>
0

>  <SCORE.INTRA.SOLV>
-1.03285

>  <SCORE.INTRA.SOLV.lig_0>
-80.3833

>  <SCORE.INTRA.VDW>
5.0387

>  <SCORE.INTRA.VDW.0>
-4.63762

>  <SCORE.INTRA.norm>
0.0377881

>  <SCORE.RESTR>
0.316073

>  <SCORE.RESTR.CAVITY>
0.316073

>  <SCORE.RESTR.norm>
0.0101959

>  <SCORE.SYSTEM>
0

>  <SCORE.SYSTEM.CONST>
0

>  <SCORE.SYSTEM.DIHEDRAL>
0

>  <SCORE.SYSTEM.SOLV>
0

>  <SCORE.SYSTEM.norm>
0

>  <SCORE.heavy>
31

>  <SCORE.norm>
-0.0527181

>  <RMSD>
5.888

$$$$
ligand
 OpenBabel11021811473D
libRbt.so/2013.1/901 2013/11/27
 31 33  0  0  0  0  0  0  0  0999 V2000
   23.1066    7.5357   15.9623 C   0  0  0  0  0  0  0  0  0  0  0  0
   20.1958    0.3006   12.5168 N   0  0  0  0  0  0  0  0  0  0  0  0
   22.9977    7.1021   14.6026 O   0  0  0  0  0  0  0  0  0  0  0  0
   22.4910    6.4936   16.8994 C   0  0  1  0  0  0  0  0  0  0  0  0
   16.2611    1.6648   15.0781 N   0  0  0  0  0  0  0  0  0  0  0  0
   21.1668    6.1436   16.4516 O   0  0  0  0  0  0  0  0  0  0  0  0
   21.0998    4.7156   16.2905 C   0  0  1  0  0  0  0  0  0  0  0  0
   15.8593    5.8454   13.8808 N   0  0  0  0  0  0  0  0  0  0  0  0
   20.2264    4.3425   15.2131 O   0  0  0  0  0  0  0  0  0  0  0  0
   19.8364    2.9615   15.2367 C   0  0  2  0  0  0  0  0  0  0  0  0
   18.2366    3.8065   19.5091 N   0  0  0  0  0  0  0  0  0  0  0  0
   21.6778    2.3327   13.8026 O   0  0  0  0  0  0  0  0  0  0  0  0
   20.2506    2.3483   13.8939 C   0  0  1  0  0  0  0  0  0  0  0  0
   17.9480    3.1891   16.8062 O   0  0  0  0  0  0  0  0  0  0  0  0
   19.7221    0.9184   13.7648 C   0  0  1  0  0  0  0  0  0  0  0  0
   17.3643    5.4039   16.2657 O   0  0  0  0  0  0  0  0  0  0  0  0
   18.1937    0.9451   13.7897 C   0  0  0  0  0  0  0  0  0  0  0  0
   13.9561    5.0673   17.5875 O   0  0  0  0  0  0  0  0  0  0  0  0
   17.7230    1.5125   15.1321 C   0  0  1  0  0  0  0  0  0  0  0  0
   15.5715    4.8817   19.9584 O   0  0  0  0  0  0  0  0  0  0  0  0
   18.3280    2.8847   15.4527 C   0  0  2  0  0  0  0  0  0  0  0  0
   22.8149    2.9584   16.1217 O   0  0  0  0  0  0  0  0  0  0  0  0
   18.0998    4.5680   17.1783 C   0  0  1  0  0  0  0  0  0  0  0  0
   23.3646    4.5634   18.1513 O   0  0  0  0  0  0  0  0  0  0  0  0
   15.9519    5.1373   16.2292 C   0  0  2  0  0  0  0  0  0  0  0  0
   15.2902    6.0765   15.2181 C   0  0  0  0  0  0  0  0  0  0  0  0
   15.3481    5.3941   17.6112 C   0  0  2  0  0  0  0  0  0  0  0  0
   16.0534    4.5287   18.6575 C   0  0  1  0  0  0  0  0  0  0  0  0
   17.5670    4.7522   18.6032 C   0  0  1  0  0  0  0  0  0  0  0  0
   22.5290    4.3418   15.9028 C   0  0  2  0  0  0  0  0  0  0  0  0
   23.3231    5.2082   16.8758 C   0  0  1  0  0  0  0  0  0  0  0  0
  1  3  1  0  0  0  0
  4  1  1  6  0  0  0
  4  6  1  0  0  0  0
  4 31  1  0  0  0  0
  6  7  1  0  0  0  0
  7  9  1  6  0  0  0
  7 30  1  0  0  0  0
  8 26  1  0  0  0  0
 10  9  1  6  0  0  0
 10 13  1  0  0  0  0
 10 21  1  0  0  0  0
 13 12  1  1  0  0  0
 13 15  1  0  0  0  0
 15  2  1  6  0  0  0
 15 17  1  0  0  0  0
 16 25  1  0  0  0  0
 16 23  1  0  0  0  0
 17 19  1  0  0  0  0
 19  5  1  6  0  0  0
 19 21  1  0  0  0  0
 21 14  1  1  0  0  0
 23 14  1  6  0  0  0
 23 29  1  0  0  0  0
 25 26  1  6  0  0  0
 25 27  1  0  0  0  0
 27 18  1  6  0  0  0
 27 28  1  0  0  0  0
 28 20  1  1  0  0  0
 28 29  1  0  0  0  0
 29 11  1  1  0  0  0
 30 22  1  1  0  0  0
 30 31  1  0  0  0  0
 31 24  1  1  0  0  0
M  END
>  <CHROM.1>
-50.75132374,-163.88226599,-123.07314672,55.73954301,70.71492193,60.49480087
19.13990993,4.15254571,16.09802794,-0.14378352,0.16947852,0.71830558

>  <Name>
ligand

>  <RI>
0

>  <Rbt.Current_Directory>
/home/itssahil/PROJECTS/Mol_Feturizer/New_Systems/rnas/3DVV

>  <Rbt.Executable>
rbdock ($Id: //depot/dev/client3/rdock/2013.1/src/exe/rbdock.cxx#4 $)

>  <Rbt.Library>
libRbt.so (2013.1, Build901 2013/11/27)

>  <Rbt.Parameter_File>
/export/apps/rDock/src/rDock_2013.1_src/data/scripts/dock_solv.prm

>  <Rbt.Receptor>
prm/pocket_docking_6.prm

>  <SCORE>
-6.4095

>  <SCORE.INTER>
-5.69208

>  <SCORE.INTER.CONST>
1

>  <SCORE.INTER.POLAR>
0

>  <SCORE.INTER.ROT>
6

>  <SCORE.INTER.SOLV>
18.794

>  <SCORE.INTER.VDW>
-17.6594

>  <SCORE.INTER.norm>
-0.183615

>  <SCORE.INTRA>
-0.717426

>  <SCORE.INTRA.DIHEDRAL>
-1.30567

>  <SCORE.INTRA.DIHEDRAL.0>
10.8172

>  <SCORE.INTRA.POLAR>
0

>  <SCORE.INTRA.POLAR.0>
0

>  <SCORE.INTRA.REPUL>
0.0122453

>  <SCORE.INTRA.REPUL.0>
0

>  <SCORE.INTRA.SOLV>
-2.5846

>  <SCORE.INTRA.SOLV.lig_0>
-80.3833

>  <SCORE.INTRA.VDW>
1.16649

>  <SCORE.INTRA.VDW.0>
-4.63762

>  <SCORE.INTRA.norm>
-0.0231428

>  <SCORE.RESTR>
0

>  <SCORE.RESTR.CAVITY>
0

>  <SCORE.RESTR.norm>
0

>  <SCORE.SYSTEM>
0

>  <SCORE.SYSTEM.CONST>
0

>  <SCORE.SYSTEM.DIHEDRAL>
0

>  <SCORE.SYSTEM.SOLV>
0

>  <SCORE.SYSTEM.norm>
0

>  <SCORE.heavy>
31

>  <SCORE.norm>
-0.206758

>  <RMSD>
5.893

$$$$
ligand
 OpenBabel11021811473D
libRbt.so/2013.1/901 2013/11/27
 31 33  0  0  0  0  0  0  0  0999 V2000
   12.5688    3.5734   18.3129 C   0  0  0  0  0  0  0  0  0  0  0  0
   15.5675    7.9628   21.7085 N   0  0  0  0  0  0  0  0  0  0  0  0
   13.6874    2.7085   18.0907 O   0  0  0  0  0  0  0  0  0  0  0  0
   12.8055    4.9263   17.6369 C   0  0  1  0  0  0  0  0  0  0  0  0
   16.1026   10.5266   17.5801 N   0  0  0  0  0  0  0  0  0  0  0  0
   13.9960    5.5435   18.1644 O   0  0  0  0  0  0  0  0  0  0  0  0
   14.8717    5.8615   17.0682 C   0  0  1  0  0  0  0  0  0  0  0  0
   19.7591    3.7744   16.8076 N   0  0  0  0  0  0  0  0  0  0  0  0
   16.2539    5.7443   17.4407 O   0  0  0  0  0  0  0  0  0  0  0  0
   16.7294    6.8319   18.2477 C   0  0  2  0  0  0  0  0  0  0  0  0
   19.0519    9.9452   14.8173 N   0  0  0  0  0  0  0  0  0  0  0  0
   16.2711    5.6235   20.2903 O   0  0  0  0  0  0  0  0  0  0  0  0
   15.9361    6.8063   19.5593 C   0  0  1  0  0  0  0  0  0  0  0  0
   17.4561    8.3025   16.4064 O   0  0  0  0  0  0  0  0  0  0  0  0
   16.2598    8.0342   20.4127 C   0  0  1  0  0  0  0  0  0  0  0  0
   19.3262    7.3885   17.5044 O   0  0  0  0  0  0  0  0  0  0  0  0
   15.8338    9.2944   19.6591 C   0  0  0  0  0  0  0  0  0  0  0  0
   20.2181    5.2311   14.6713 O   0  0  0  0  0  0  0  0  0  0  0  0
   16.6294    9.3923   18.3541 C   0  0  1  0  0  0  0  0  0  0  0  0
   20.7068    7.8669   13.6330 O   0  0  0  0  0  0  0  0  0  0  0  0
   16.5172    8.1351   17.4831 C   0  0  2  0  0  0  0  0  0  0  0  0
   14.9643    5.1285   14.7204 O   0  0  0  0  0  0  0  0  0  0  0  0
   18.8097    8.5453   16.8205 C   0  0  1  0  0  0  0  0  0  0  0  0
   12.4865    5.8002   15.3587 O   0  0  0  0  0  0  0  0  0  0  0  0
   19.3446    6.1917   16.7078 C   0  0  2  0  0  0  0  0  0  0  0  0
   19.8990    5.0386   17.5477 C   0  0  0  0  0  0  0  0  0  0  0  0
   20.2522    6.4002   15.4942 C   0  0  2  0  0  0  0  0  0  0  0  0
   19.7697    7.6043   14.6827 C   0  0  1  0  0  0  0  0  0  0  0  0
   19.6565    8.8410   15.5781 C   0  0  1  0  0  0  0  0  0  0  0  0
   14.5556    4.7739   16.0436 C   0  0  2  0  0  0  0  0  0  0  0  0
   13.0332    4.7312   16.1352 C   0  0  1  0  0  0  0  0  0  0  0  0
  1  3  1  0  0  0  0
  4  1  1  1  0  0  0
  4  6  1  0  0  0  0
  4 31  1  0  0  0  0
  6  7  1  0  0  0  0
  7  9  1  1  0  0  0
  7 30  1  0  0  0  0
  8 26  1  0  0  0  0
 10  9  1  6  0  0  0
 10 13  1  0  0  0  0
 10 21  1  0  0  0  0
 13 12  1  1  0  0  0
 13 15  1  0  0  0  0
 15  2  1  1  0  0  0
 15 17  1  0  0  0  0
 16 25  1  0  0  0  0
 16 23  1  0  0  0  0
 17 19  1  0  0  0  0
 19  5  1  6  0  0  0
 19 21  1  0  0  0  0
 21 14  1  6  0  0  0
 23 14  1  6  0  0  0
 23 29  1  0  0  0  0
 25 26  1  1  0  0  0
 25 27  1  0  0  0  0
 27 18  1  6  0  0  0
 27 28  1  0  0  0  0
 28 20  1  6  0  0  0
 28 29  1  0  0  0  0
 29 11  1  6  0  0  0
 30 22  1  6  0  0  0
 30 31  1  0  0  0  0
 31 24  1  6  0  0  0
M  END
>  <CHROM.1>
-59.38627400,-75.81507904,63.18154714,65.28004851,-69.61705908,172.58636572
16.74096678,6.62059836,17.16723706,-3.10103021,0.52108520,0.73365523

>  <Name>
ligand

>  <RI>
0

>  <Rbt.Current_Directory>
/home/itssahil/PROJECTS/Mol_Feturizer/New_Systems/rnas/3DVV

>  <Rbt.Executable>
rbdock ($Id: //depot/dev/client3/rdock/2013.1/src/exe/rbdock.cxx#4 $)

>  <Rbt.Library>
libRbt.so (2013.1, Build901 2013/11/27)

>  <Rbt.Parameter_File>
/export/apps/rDock/src/rDock_2013.1_src/data/scripts/dock_solv.prm

>  <Rbt.Receptor>
prm/pocket_docking_7.prm

>  <SCORE>
-3.11919

>  <SCORE.INTER>
-2.62221

>  <SCORE.INTER.CONST>
1

>  <SCORE.INTER.POLAR>
0

>  <SCORE.INTER.ROT>
6

>  <SCORE.INTER.SOLV>
10.3112

>  <SCORE.INTER.VDW>
-12.7852

>  <SCORE.INTER.norm>
-0.0845873

>  <SCORE.INTRA>
-0.496979

>  <SCORE.INTRA.DIHEDRAL>
-8.61111

>  <SCORE.INTRA.DIHEDRAL.0>
10.8172

>  <SCORE.INTRA.POLAR>
0

>  <SCORE.INTRA.POLAR.0>
0

>  <SCORE.INTRA.REPUL>
0

>  <SCORE.INTRA.REPUL.0>
0

>  <SCORE.INTRA.SOLV>
-1.73468

>  <SCORE.INTRA.SOLV.lig_0>
-80.3833

>  <SCORE.INTRA.VDW>
4.67592

>  <SCORE.INTRA.VDW.0>
-4.63762

>  <SCORE.INTRA.norm>
-0.0160316

>  <SCORE.RESTR>
0

>  <SCORE.RESTR.CAVITY>
0

>  <SCORE.RESTR.norm>
0

>  <SCORE.SYSTEM>
0

>  <SCORE.SYSTEM.CONST>
0

>  <SCORE.SYSTEM.DIHEDRAL>
0

>  <SCORE.SYSTEM.SOLV>
0

>  <SCORE.SYSTEM.norm>
0

>  <SCORE.heavy>
31

>  <SCORE.norm>
-0.100619

>  <RMSD>
5.924

$$$$
ligand
 OpenBabel11021811473D
libRbt.so/2013.1/901 2013/11/27
 31 33  0  0  0  0  0  0  0  0999 V2000
   17.4878    4.5232   11.3149 C   0  0  0  0  0  0  0  0  0  0  0  0
   23.7977    3.9640   17.8412 N   0  0  0  0  0  0  0  0  0  0  0  0
   16.8318    4.9572   12.5108 O   0  0  0  0  0  0  0  0  0  0  0  0
   18.6728    3.6185   11.6620 C   0  0  1  0  0  0  0  0  0  0  0  0
   22.1418    8.2675   16.2158 N   0  0  0  0  0  0  0  0  0  0  0  0
   19.5592    4.2905   12.5780 O   0  0  0  0  0  0  0  0  0  0  0  0
   19.7452    3.4534   13.7332 C   0  0  1  0  0  0  0  0  0  0  0  0
   18.4774    8.6112   17.3985 N   0  0  0  0  0  0  0  0  0  0  0  0
   19.9169    4.2292   14.9298 O   0  0  0  0  0  0  0  0  0  0  0  0
   21.2474    4.7391   15.1022 C   0  0  2  0  0  0  0  0  0  0  0  0
   20.2634    7.2547   11.3283 N   0  0  0  0  0  0  0  0  0  0  0  0
   22.0014    2.6658   16.0900 O   0  0  0  0  0  0  0  0  0  0  0  0
   21.8364    4.0632   16.3459 C   0  0  1  0  0  0  0  0  0  0  0  0
   20.8931    6.9284   14.0241 O   0  0  0  0  0  0  0  0  0  0  0  0
   23.1932    4.6733   16.7033 C   0  0  1  0  0  0  0  0  0  0  0  0
   18.7177    7.5179   14.7008 O   0  0  0  0  0  0  0  0  0  0  0  0
   23.0030    6.1508   17.0472 C   0  0  0  0  0  0  0  0  0  0  0  0
   19.2656   11.1015   14.1231 O   0  0  0  0  0  0  0  0  0  0  0  0
   22.4533    6.8853   15.8208 C   0  0  1  0  0  0  0  0  0  0  0  0
   19.3551   10.0146   11.4631 O   0  0  0  0  0  0  0  0  0  0  0  0
   21.1714    6.2543   15.2639 C   0  0  2  0  0  0  0  0  0  0  0  0
   18.5226    1.5088   14.6173 O   0  0  0  0  0  0  0  0  0  0  0  0
   19.5081    6.9424   13.6442 C   0  0  1  0  0  0  0  0  0  0  0  0
   18.9542    1.2010   12.0256 O   0  0  0  0  0  0  0  0  0  0  0  0
   19.0706    8.8720   15.0310 C   0  0  2  0  0  0  0  0  0  0  0  0
   18.1724    9.3611   16.1696 C   0  0  0  0  0  0  0  0  0  0  0  0
   18.8537    9.7682   13.8104 C   0  0  2  0  0  0  0  0  0  0  0  0
   19.6757    9.2486   12.6291 C   0  0  1  0  0  0  0  0  0  0  0  0
   19.3592    7.7740   12.3658 C   0  0  1  0  0  0  0  0  0  0  0  0
   18.4204    2.7003   13.8340 C   0  0  2  0  0  0  0  0  0  0  0  0
   18.1791    2.3526   12.3681 C   0  0  1  0  0  0  0  0  0  0  0  0
  1  3  1  0  0  0  0
  4  1  1  1  0  0  0
  4  6  1  0  0  0  0
  4 31  1  0  0  0  0
  6  7  1  0  0  0  0
  7  9  1  1  0  0  0
  7 30  1  0  0  0  0
  8 26  1  0  0  0  0
 10  9  1  1  0  0  0
 10 13  1  0  0  0  0
 10 21  1  0  0  0  0
 13 12  1  6  0  0  0
 13 15  1  0  0  0  0
 15  2  1  1  0  0  0
 15 17  1  0  0  0  0
 16 25  1  0  0  0  0
 16 23  1  0  0  0  0
 17 19  1  0  0  0  0
 19  5  1  1  0  0  0
 19 21  1  0  0  0  0
 21 14  1  6  0  0  0
 23 14  1  1  0  0  0
 23 29  1  0  0  0  0
 25 26  1  1  0  0  0
 25 27  1  0  0  0  0
 27 18  1  1  0  0  0
 27 28  1  0  0  0  0
 28 20  1  6  0  0  0
 28 29  1  0  0  0  0
 29 11  1  6  0  0  0
 30 22  1  1  0  0  0
 30 31  1  0  0  0  0
 31 24  1  6  0  0  0
M  END
>  <CHROM.1>
-54.68379790,-80.56034314,-114.61240192,55.70771558,80.99930539,66.99496526
19.92991758,5.91374530,14.25810382,1.51954716,0.84943281,-3.05709103

>  <Name>
ligand

>  <RI>
0

>  <Rbt.Current_Directory>
/home/itssahil/PROJECTS/Mol_Feturizer/New_Systems/rnas/3DVV

>  <Rbt.Executable>
rbdock ($Id: //depot/dev/client3/rdock/2013.1/src/exe/rbdock.cxx#4 $)

>  <Rbt.Library>
libRbt.so (2013.1, Build901 2013/11/27)

>  <Rbt.Parameter_File>
/export/apps/rDock/src/rDock_2013.1_src/data/scripts/dock_solv.prm

>  <Rbt.Receptor>
prm/blind_docking_60.prm

>  <SCORE>
-1.75166

>  <SCORE.INTER>
-2.14215

>  <SCORE.INTER.CONST>
1

>  <SCORE.INTER.POLAR>
0

>  <SCORE.INTER.ROT>
6

>  <SCORE.INTER.SOLV>
26.0236

>  <SCORE.INTER.VDW>
-17.7026

>  <SCORE.INTER.norm>
-0.0691016

>  <SCORE.INTRA>
0.088441

>  <SCORE.INTRA.DIHEDRAL>
0.601509

>  <SCORE.INTRA.DIHEDRAL.0>
10.8172

>  <SCORE.INTRA.POLAR>
0

>  <SCORE.INTRA.POLAR.0>
0

>  <SCORE.INTRA.REPUL>
0

>  <SCORE.INTRA.REPUL.0>
0

>  <SCORE.INTRA.SOLV>
0.0531552

>  <SCORE.INTRA.SOLV.lig_0>
-80.3833

>  <SCORE.INTRA.VDW>
-0.238891

>  <SCORE.INTRA.VDW.0>
-4.63762

>  <SCORE.INTRA.norm>
0.00285294

>  <SCORE.RESTR>
0.302049

>  <SCORE.RESTR.CAVITY>
0.302049

>  <SCORE.RESTR.norm>
0.00974351

>  <SCORE.SYSTEM>
0

>  <SCORE.SYSTEM.CONST>
0

>  <SCORE.SYSTEM.DIHEDRAL>
0

>  <SCORE.SYSTEM.SOLV>
0

>  <SCORE.SYSTEM.norm>
0

>  <SCORE.heavy>
31

>  <SCORE.norm>
-0.0565051

>  <RMSD>
5.931

$$$$
ligand
 OpenBabel11021811473D
libRbt.so/2013.1/901 2013/11/27
 31 33  0  0  0  0  0  0  0  0999 V2000
   20.0516    0.4180   12.6046 C   0  0  0  0  0  0  0  0  0  0  0  0
   15.2274    7.5567   12.2880 N   0  0  0  0  0  0  0  0  0  0  0  0
   20.4230    0.1703   13.9646 O   0  0  0  0  0  0  0  0  0  0  0  0
   18.7050    1.1439   12.5494 C   0  0  1  0  0  0  0  0  0  0  0  0
   19.7745    9.2450   12.9028 N   0  0  0  0  0  0  0  0  0  0  0  0
   18.8573    2.5073   12.9902 O   0  0  0  0  0  0  0  0  0  0  0  0
   18.3458    3.3798   11.9670 C   0  0  1  0  0  0  0  0  0  0  0  0
   19.6138    2.8804   16.6392 N   0  0  0  0  0  0  0  0  0  0  0  0
   19.0759    4.6152   11.9080 O   0  0  0  0  0  0  0  0  0  0  0  0
   18.5156    5.6573   12.7205 C   0  0  2  0  0  0  0  0  0  0  0  0
   22.1866    8.1334   15.2830 N   0  0  0  0  0  0  0  0  0  0  0  0
   16.2608    4.9283   12.2438 O   0  0  0  0  0  0  0  0  0  0  0  0
   17.1603    6.0320   12.1095 C   0  0  1  0  0  0  0  0  0  0  0  0
   20.6409    6.6000   13.5423 O   0  0  0  0  0  0  0  0  0  0  0  0
   16.5671    7.2536   12.8143 C   0  0  1  0  0  0  0  0  0  0  0  0
   19.9349    5.1733   15.2755 O   0  0  0  0  0  0  0  0  0  0  0  0
   17.4952    8.4509   12.6077 C   0  0  0  0  0  0  0  0  0  0  0  0
   23.1294    3.3687   15.3969 O   0  0  0  0  0  0  0  0  0  0  0  0
   18.8569    8.1457   13.2387 C   0  0  1  0  0  0  0  0  0  0  0  0
   23.8522    5.9905   16.3289 O   0  0  0  0  0  0  0  0  0  0  0  0
   19.4792    6.8402   12.7288 C   0  0  2  0  0  0  0  0  0  0  0  0
   17.8071    3.0498    9.5882 O   0  0  0  0  0  0  0  0  0  0  0  0
   20.3797    6.5035   14.9512 C   0  0  1  0  0  0  0  0  0  0  0  0
   16.7714    1.0874   11.0283 O   0  0  0  0  0  0  0  0  0  0  0  0
   20.8833    4.1404   14.9581 C   0  0  2  0  0  0  0  0  0  0  0  0
   20.2897    2.7811   15.3358 C   0  0  0  0  0  0  0  0  0  0  0  0
   22.1659    4.3604   15.7622 C   0  0  2  0  0  0  0  0  0  0  0  0
   22.7340    5.7503   15.4680 C   0  0  1  0  0  0  0  0  0  0  0  0
   21.6707    6.8244   15.7118 C   0  0  1  0  0  0  0  0  0  0  0  0
   18.6128    2.6012   10.6805 C   0  0  2  0  0  0  0  0  0  0  0  0
   18.1949    1.1969   11.1065 C   0  0  1  0  0  0  0  0  0  0  0  0
  1  3  1  0  0  0  0
  4  1  1  6  0  0  0
  4  6  1  0  0  0  0
  4 31  1  0  0  0  0
  6  7  1  0  0  0  0
  7  9  1  6  0  0  0
  7 30  1  0  0  0  0
  8 26  1  0  0  0  0
 10  9  1  6  0  0  0
 10 13  1  0  0  0  0
 10 21  1  0  0  0  0
 13 12  1  1  0  0  0
 13 15  1  0  0  0  0
 15  2  1  6  0  0  0
 15 17  1  0  0  0  0
 16 25  1  0  0  0  0
 16 23  1  0  0  0  0
 17 19  1  0  0  0  0
 19  5  1  6  0  0  0
 19 21  1  0  0  0  0
 21 14  1  1  0  0  0
 23 14  1  6  0  0  0
 23 29  1  0  0  0  0
 25 26  1  1  0  0  0
 25 27  1  0  0  0  0
 27 18  1  6  0  0  0
 27 28  1  0  0  0  0
 28 20  1  1  0  0  0
 28 29  1  0  0  0  0
 29 11  1  6  0  0  0
 30 22  1  6  0  0  0
 30 31  1  0  0  0  0
 31 24  1  1  0  0  0
M  END
>  <CHROM.1>
71.94187544,-91.84678476,-66.93734786,82.59563594,-67.38248529,-42.35677068
19.48291130,4.68235206,13.43520904,-2.39178285,-0.67362595,0.14328034

>  <Name>
ligand

>  <RI>
0

>  <Rbt.Current_Directory>
/home/itssahil/PROJECTS/Mol_Feturizer/New_Systems/rnas/3DVV

>  <Rbt.Executable>
rbdock ($Id: //depot/dev/client3/rdock/2013.1/src/exe/rbdock.cxx#4 $)

>  <Rbt.Library>
libRbt.so (2013.1, Build901 2013/11/27)

>  <Rbt.Parameter_File>
/export/apps/rDock/src/rDock_2013.1_src/data/scripts/dock_solv.prm

>  <Rbt.Receptor>
prm/blind_docking_40.prm

>  <SCORE>
2.67528

>  <SCORE.INTER>
0.388688

>  <SCORE.INTER.CONST>
1

>  <SCORE.INTER.POLAR>
0

>  <SCORE.INTER.ROT>
6

>  <SCORE.INTER.SOLV>
22.2823

>  <SCORE.INTER.VDW>
-14.7683

>  <SCORE.INTER.norm>
0.0125383

>  <SCORE.INTRA>
2.26179

>  <SCORE.INTRA.DIHEDRAL>
-2.48202

>  <SCORE.INTRA.DIHEDRAL.0>
10.8172

>  <SCORE.INTRA.POLAR>
0

>  <SCORE.INTRA.POLAR.0>
0

>  <SCORE.INTRA.REPUL>
0

>  <SCORE.INTRA.REPUL.0>
0

>  <SCORE.INTRA.SOLV>
0.0802515

>  <SCORE.INTRA.SOLV.lig_0>
-80.3833

>  <SCORE.INTRA.VDW>
3.46267

>  <SCORE.INTRA.VDW.0>
-4.63762

>  <SCORE.INTRA.norm>
0.0729608

>  <SCORE.RESTR>
0.024808

>  <SCORE.RESTR.CAVITY>
0.024808

>  <SCORE.RESTR.norm>
0.00080026

>  <SCORE.SYSTEM>
0

>  <SCORE.SYSTEM.CONST>
0

>  <SCORE.SYSTEM.DIHEDRAL>
0

>  <SCORE.SYSTEM.SOLV>
0

>  <SCORE.SYSTEM.norm>
0

>  <SCORE.heavy>
31

>  <SCORE.norm>
0.0862994

>  <RMSD>
5.933

$$$$
ligand
 OpenBabel11021811473D
libRbt.so/2013.1/901 2013/11/27
 31 33  0  0  0  0  0  0  0  0999 V2000
   20.3617    0.9964   13.7354 C   0  0  0  0  0  0  0  0  0  0  0  0
   15.4351    6.9946   12.4754 N   0  0  0  0  0  0  0  0  0  0  0  0
   21.5159    1.8387   13.6521 O   0  0  0  0  0  0  0  0  0  0  0  0
   19.2610    1.5163   12.8073 C   0  0  1  0  0  0  0  0  0  0  0  0
   19.5722    9.5172   13.1271 N   0  0  0  0  0  0  0  0  0  0  0  0
   19.0715    2.9310   13.0054 O   0  0  0  0  0  0  0  0  0  0  0  0
   19.2031    3.5934   11.7351 C   0  0  1  0  0  0  0  0  0  0  0  0
   19.5033    3.8080   17.1678 N   0  0  0  0  0  0  0  0  0  0  0  0
   19.7788    4.9018   11.8749 O   0  0  0  0  0  0  0  0  0  0  0  0
   19.0435    5.7661   12.7538 C   0  0  2  0  0  0  0  0  0  0  0  0
   22.9244    8.3007   15.1460 N   0  0  0  0  0  0  0  0  0  0  0  0
   16.9664    4.6304   12.2653 O   0  0  0  0  0  0  0  0  0  0  0  0
   17.6264    5.8965   12.1834 C   0  0  1  0  0  0  0  0  0  0  0  0
   20.9598    7.0665   13.6007 O   0  0  0  0  0  0  0  0  0  0  0  0
   16.8207    6.9358   12.9655 C   0  0  1  0  0  0  0  0  0  0  0  0
   20.0217    5.9990   15.4765 O   0  0  0  0  0  0  0  0  0  0  0  0
   17.4884    8.3030   12.8164 C   0  0  0  0  0  0  0  0  0  0  0  0
   22.6813    3.4748   15.6524 O   0  0  0  0  0  0  0  0  0  0  0  0
   18.8985    8.2409   13.4108 C   0  0  1  0  0  0  0  0  0  0  0  0
   24.0710    5.9005   16.3230 O   0  0  0  0  0  0  0  0  0  0  0  0
   19.7541    7.1147   12.8180 C   0  0  2  0  0  0  0  0  0  0  0  0
   20.1450    2.9057    9.5677 O   0  0  0  0  0  0  0  0  0  0  0  0
   20.7594    7.1481   15.0206 C   0  0  1  0  0  0  0  0  0  0  0  0
   18.5579    1.0080   10.5045 O   0  0  0  0  0  0  0  0  0  0  0  0
   20.6709    4.7419   15.2211 C   0  0  2  0  0  0  0  0  0  0  0  0
   19.7851    3.6057   15.7376 C   0  0  0  0  0  0  0  0  0  0  0  0
   22.0100    4.6995   15.9596 C   0  0  2  0  0  0  0  0  0  0  0  0
   22.8832    5.8782   15.5243 C   0  0  1  0  0  0  0  0  0  0  0  0
   22.1287    7.1978   15.7065 C   0  0  1  0  0  0  0  0  0  0  0  0
   20.1952    2.7091   10.9827 C   0  0  2  0  0  0  0  0  0  0  0  0
   19.6712    1.3226   11.3448 C   0  0  1  0  0  0  0  0  0  0  0  0
  1  3  1  0  0  0  0
  4  1  1  1  0  0  0
  4  6  1  0  0  0  0
  4 31  1  0  0  0  0
  6  7  1  0  0  0  0
  7  9  1  1  0  0  0
  7 30  1  0  0  0  0
  8 26  1  0  0  0  0
 10  9  1  6  0  0  0
 10 13  1  0  0  0  0
 10 21  1  0  0  0  0
 13 12  1  1  0  0  0
 13 15  1  0  0  0  0
 15  2  1  6  0  0  0
 15 17  1  0  0  0  0
 16 25  1  0  0  0  0
 16 23  1  0  0  0  0
 17 19  1  0  0  0  0
 19  5  1  6  0  0  0
 19 21  1  0  0  0  0
 21 14  1  1  0  0  0
 23 14  1  6  0  0  0
 23 29  1  0  0  0  0
 25 26  1  1  0  0  0
 25 27  1  0  0  0  0
 27 18  1  6  0  0  0
 27 28  1  0  0  0  0
 28 20  1  1  0  0  0
 28 29  1  0  0  0  0
 29 11  1  6  0  0  0
 30 22  1  6  0  0  0
 30 31  1  0  0  0  0
 31 24  1  6  0  0  0
M  END
>  <CHROM.1>
-48.62105630,-57.30309205,-59.09802705,64.13118522,-80.80067217,-56.60254796
19.94828286,4.94961158,13.55299848,-2.08303703,-0.69631648,0.31298331

>  <Name>
ligand

>  <RI>
0

>  <Rbt.Current_Directory>
/home/itssahil/PROJECTS/Mol_Feturizer/New_Systems/rnas/3DVV

>  <Rbt.Executable>
rbdock ($Id: //depot/dev/client3/rdock/2013.1/src/exe/rbdock.cxx#4 $)

>  <Rbt.Library>
libRbt.so (2013.1, Build901 2013/11/27)

>  <Rbt.Parameter_File>
/export/apps/rDock/src/rDock_2013.1_src/data/scripts/dock_solv.prm

>  <Rbt.Receptor>
prm/blind_docking_60.prm

>  <SCORE>
-2.8532

>  <SCORE.INTER>
-4.02176

>  <SCORE.INTER.CONST>
1

>  <SCORE.INTER.POLAR>
0

>  <SCORE.INTER.ROT>
6

>  <SCORE.INTER.SOLV>
22.5097

>  <SCORE.INTER.VDW>
-17.7844

>  <SCORE.INTER.norm>
-0.129734

>  <SCORE.INTRA>
0.964796

>  <SCORE.INTRA.DIHEDRAL>
-8.03734

>  <SCORE.INTRA.DIHEDRAL.0>
10.8172

>  <SCORE.INTRA.POLAR>
0

>  <SCORE.INTRA.POLAR.0>
0

>  <SCORE.INTRA.REPUL>
0

>  <SCORE.INTRA.REPUL.0>
0

>  <SCORE.INTRA.SOLV>
-0.0803126

>  <SCORE.INTRA.SOLV.lig_0>
-80.3833

>  <SCORE.INTRA.VDW>
5.02362

>  <SCORE.INTRA.VDW.0>
-4.63762

>  <SCORE.INTRA.norm>
0.0311224

>  <SCORE.RESTR>
0.203771

>  <SCORE.RESTR.CAVITY>
0.203771

>  <SCORE.RESTR.norm>
0.00657326

>  <SCORE.SYSTEM>
0

>  <SCORE.SYSTEM.CONST>
0

>  <SCORE.SYSTEM.DIHEDRAL>
0

>  <SCORE.SYSTEM.SOLV>
0

>  <SCORE.SYSTEM.norm>
0

>  <SCORE.heavy>
31

>  <SCORE.norm>
-0.0920386

>  <RMSD>
5.946

$$$$
ligand
 OpenBabel11021811473D
libRbt.so/2013.1/901 2013/11/27
 31 33  0  0  0  0  0  0  0  0999 V2000
   15.8165   -0.4791   10.3700 C   0  0  0  0  0  0  0  0  0  0  0  0
   20.3022   -2.1258   10.0363 N   0  0  0  0  0  0  0  0  0  0  0  0
   16.3312   -1.6666   10.9814 O   0  0  0  0  0  0  0  0  0  0  0  0
   16.0230    0.7227   11.2953 C   0  0  1  0  0  0  0  0  0  0  0  0
   20.0838    0.0028   14.4323 N   0  0  0  0  0  0  0  0  0  0  0  0
   17.4300    0.9861   11.4608 O   0  0  0  0  0  0  0  0  0  0  0  0
   17.6835    2.3586   11.1117 C   0  0  1  0  0  0  0  0  0  0  0  0
   22.5216    3.9922   17.5778 N   0  0  0  0  0  0  0  0  0  0  0  0
   18.9801    2.5249   10.5166 O   0  0  0  0  0  0  0  0  0  0  0  0
   19.9489    1.5650   10.9638 C   0  0  2  0  0  0  0  0  0  0  0  0
   18.0484    4.0326   13.5743 N   0  0  0  0  0  0  0  0  0  0  0  0
   19.8956    0.4029    8.8450 O   0  0  0  0  0  0  0  0  0  0  0  0
   19.6475    0.2450   10.2446 C   0  0  1  0  0  0  0  0  0  0  0  0
   20.3783    2.5533   13.1818 O   0  0  0  0  0  0  0  0  0  0  0  0
   20.5281   -0.8819   10.7881 C   0  0  1  0  0  0  0  0  0  0  0  0
   21.0014    2.7581   15.4419 O   0  0  0  0  0  0  0  0  0  0  0  0
   20.2091   -1.0978   12.2676 C   0  0  0  0  0  0  0  0  0  0  0  0
   22.1200    6.2328   15.0529 O   0  0  0  0  0  0  0  0  0  0  0  0
   20.5329    0.1824   13.0433 C   0  0  1  0  0  0  0  0  0  0  0  0
   19.2807    6.4373   14.6512 O   0  0  0  0  0  0  0  0  0  0  0  0
   19.8319    1.4239   12.4784 C   0  0  2  0  0  0  0  0  0  0  0  0
   16.3894    4.0474    9.8742 O   0  0  0  0  0  0  0  0  0  0  0  0
   19.8934    2.7187   14.5236 C   0  0  1  0  0  0  0  0  0  0  0  0
   14.8414    2.8512   11.6549 O   0  0  0  0  0  0  0  0  0  0  0  0
   21.9292    3.8298   15.2013 C   0  0  2  0  0  0  0  0  0  0  0  0
   23.0605    3.7541   16.2293 C   0  0  0  0  0  0  0  0  0  0  0  0
   21.2105    5.1714   15.3550 C   0  0  2  0  0  0  0  0  0  0  0  0
   20.0193    5.2377   14.3970 C   0  0  1  0  0  0  0  0  0  0  0  0
   19.1023    4.0288   14.6005 C   0  0  1  0  0  0  0  0  0  0  0  0
   16.6256    2.6483   10.0490 C   0  0  2  0  0  0  0  0  0  0  0  0
   15.4052    1.9780   10.6729 C   0  0  1  0  0  0  0  0  0  0  0  0
  1  3  1  0  0  0  0
  4  1  1  6  0  0  0
  4  6  1  0  0  0  0
  4 31  1  0  0  0  0
  6  7  1  0  0  0  0
  7  9  1  6  0  0  0
  7 30  1  0  0  0  0
  8 26  1  0  0  0  0
 10  9  1  6  0  0  0
 10 13  1  0  0  0  0
 10 21  1  0  0  0  0
 13 12  1  6  0  0  0
 13 15  1  0  0  0  0
 15  2  1  6  0  0  0
 15 17  1  0  0  0  0
 16 25  1  0  0  0  0
 16 23  1  0  0  0  0
 17 19  1  0  0  0  0
 19  5  1  1  0  0  0
 19 21  1  0  0  0  0
 21 14  1  1  0  0  0
 23 14  1  6  0  0  0
 23 29  1  0  0  0  0
 25 26  1  1  0  0  0
 25 27  1  0  0  0  0
 27 18  1  6  0  0  0
 27 28  1  0  0  0  0
 28 20  1  1  0  0  0
 28 29  1  0  0  0  0
 29 11  1  6  0  0  0
 30 22  1  1  0  0  0
 30 31  1  0  0  0  0
 31 24  1  1  0  0  0
M  END
>  <CHROM.1>
65.37096472,-28.98760103,76.60581693,124.48443901,158.83356380,-64.74914059
19.17269759,2.16589381,12.59283798,2.22452397,0.54345939,-2.62877373

>  <Name>
ligand

>  <RI>
0

>  <Rbt.Current_Directory>
/home/itssahil/PROJECTS/Mol_Feturizer/New_Systems/rnas/3DVV

>  <Rbt.Executable>
rbdock ($Id: //depot/dev/client3/rdock/2013.1/src/exe/rbdock.cxx#4 $)

>  <Rbt.Library>
libRbt.so (2013.1, Build901 2013/11/27)

>  <Rbt.Parameter_File>
/export/apps/rDock/src/rDock_2013.1_src/data/scripts/dock_solv.prm

>  <Rbt.Receptor>
prm/blind_docking_80.prm

>  <SCORE>
6.43193

>  <SCORE.INTER>
-2.11844

>  <SCORE.INTER.CONST>
1

>  <SCORE.INTER.POLAR>
0

>  <SCORE.INTER.ROT>
6

>  <SCORE.INTER.SOLV>
21.2025

>  <SCORE.INTER.VDW>
-16.0798

>  <SCORE.INTER.norm>
-0.0683367

>  <SCORE.INTRA>
8.54919

>  <SCORE.INTRA.DIHEDRAL>
3.58381

>  <SCORE.INTRA.DIHEDRAL.0>
10.8172

>  <SCORE.INTRA.POLAR>
0

>  <SCORE.INTRA.POLAR.0>
0

>  <SCORE.INTRA.REPUL>
0

>  <SCORE.INTRA.REPUL.0>
0

>  <SCORE.INTRA.SOLV>
2.49215

>  <SCORE.INTRA.SOLV.lig_0>
-80.3833

>  <SCORE.INTRA.VDW>
5.51121

>  <SCORE.INTRA.VDW.0>
-4.63762

>  <SCORE.INTRA.norm>
0.27578

>  <SCORE.RESTR>
0.00117823

>  <SCORE.RESTR.CAVITY>
0.00117823

>  <SCORE.RESTR.norm>
3.80073e-05

>  <SCORE.SYSTEM>
0

>  <SCORE.SYSTEM.CONST>
0

>  <SCORE.SYSTEM.DIHEDRAL>
0

>  <SCORE.SYSTEM.SOLV>
0

>  <SCORE.SYSTEM.norm>
0

>  <SCORE.heavy>
31

>  <SCORE.norm>
0.207482

>  <RMSD>
5.949

$$$$
ligand
 OpenBabel11021811473D
libRbt.so/2013.1/901 2013/11/27
 31 33  0  0  0  0  0  0  0  0999 V2000
   15.4530    2.7123   14.0528 C   0  0  0  0  0  0  0  0  0  0  0  0
   13.9056    7.0392   21.1805 N   0  0  0  0  0  0  0  0  0  0  0  0
   16.2732    1.7550   14.7307 O   0  0  0  0  0  0  0  0  0  0  0  0
   14.4092    3.2872   15.0137 C   0  0  1  0  0  0  0  0  0  0  0  0
   18.5712    7.9221   20.0161 N   0  0  0  0  0  0  0  0  0  0  0  0
   15.0599    3.9297   16.1274 O   0  0  0  0  0  0  0  0  0  0  0  0
   14.5734    5.2800   16.2258 C   0  0  1  0  0  0  0  0  0  0  0  0
   19.4472    9.3522   14.2378 N   0  0  0  0  0  0  0  0  0  0  0  0
   15.5878    6.1770   16.7046 O   0  0  0  0  0  0  0  0  0  0  0  0
   15.9056    6.0021   18.0933 C   0  0  2  0  0  0  0  0  0  0  0  0
   19.6595    3.8838   16.6920 N   0  0  0  0  0  0  0  0  0  0  0  0
   13.5729    5.7661   18.6811 O   0  0  0  0  0  0  0  0  0  0  0  0
   14.7345    6.5702   18.9034 C   0  0  1  0  0  0  0  0  0  0  0  0
   18.3608    6.0517   17.8684 O   0  0  0  0  0  0  0  0  0  0  0  0
   15.0626    6.5788   20.3977 C   0  0  1  0  0  0  0  0  0  0  0  0
   18.4937    7.3240   15.8931 O   0  0  0  0  0  0  0  0  0  0  0  0
   16.2604    7.4969   20.6424 C   0  0  0  0  0  0  0  0  0  0  0  0
   22.0506    8.1004   16.3646 O   0  0  0  0  0  0  0  0  0  0  0  0
   17.4749    6.9502   19.8864 C   0  0  1  0  0  0  0  0  0  0  0  0
   22.0845    5.2676   15.8763 O   0  0  0  0  0  0  0  0  0  0  0  0
   17.2091    6.7367   18.3912 C   0  0  2  0  0  0  0  0  0  0  0  0
   13.3580    6.7490   14.6692 O   0  0  0  0  0  0  0  0  0  0  0  0
   18.4262    5.9920   16.4349 C   0  0  1  0  0  0  0  0  0  0  0  0
   12.2140    4.3649   14.7389 O   0  0  0  0  0  0  0  0  0  0  0  0
   19.6357    8.0810   16.3291 C   0  0  2  0  0  0  0  0  0  0  0  0
   19.5847    9.4743   15.6978 C   0  0  0  0  0  0  0  0  0  0  0  0
   20.9169    7.3792   15.8750 C   0  0  2  0  0  0  0  0  0  0  0  0
   20.9512    5.9507   16.4223 C   0  0  1  0  0  0  0  0  0  0  0  0
   19.6750    5.1994   16.0342 C   0  0  1  0  0  0  0  0  0  0  0  0
   14.2562    5.6420   14.7763 C   0  0  2  0  0  0  0  0  0  0  0  0
   13.5765    4.3597   14.3055 C   0  0  1  0  0  0  0  0  0  0  0  0
  1  3  1  0  0  0  0
  4  1  1  6  0  0  0
  4  6  1  0  0  0  0
  4 31  1  0  0  0  0
  6  7  1  0  0  0  0
  7  9  1  6  0  0  0
  7 30  1  0  0  0  0
  8 26  1  0  0  0  0
 10  9  1  6  0  0  0
 10 13  1  0  0  0  0
 10 21  1  0  0  0  0
 13 12  1  1  0  0  0
 13 15  1  0  0  0  0
 15  2  1  1  0  0  0
 15 17  1  0  0  0  0
 16 25  1  0  0  0  0
 16 23  1  0  0  0  0
 17 19  1  0  0  0  0
 19  5  1  6  0  0  0
 19 21  1  0  0  0  0
 21 14  1  1  0  0  0
 23 14  1  1  0  0  0
 23 29  1  0  0  0  0
 25 26  1  6  0  0  0
 25 27  1  0  0  0  0
 27 18  1  1  0  0  0
 27 28  1  0  0  0  0
 28 20  1  6  0  0  0
 28 29  1  0  0  0  0
 29 11  1  1  0  0  0
 30 22  1  1  0  0  0
 30 31  1  0  0  0  0
 31 24  1  1  0  0  0
M  END
>  <CHROM.1>
59.64139921,-71.33289463,-73.27377304,61.42119019,66.31522214,-53.50274686
16.98121384,6.02336426,16.78174658,-2.91766472,0.29170294,1.02789455

>  <Name>
ligand

>  <RI>
0

>  <Rbt.Current_Directory>
/home/itssahil/PROJECTS/Mol_Feturizer/New_Systems/rnas/3DVV

>  <Rbt.Executable>
rbdock ($Id: //depot/dev/client3/rdock/2013.1/src/exe/rbdock.cxx#4 $)

>  <Rbt.Library>
libRbt.so (2013.1, Build901 2013/11/27)

>  <Rbt.Parameter_File>
/export/apps/rDock/src/rDock_2013.1_src/data/scripts/dock_solv.prm

>  <Rbt.Receptor>
prm/pocket_docking_8.prm

>  <SCORE>
-4.24945

>  <SCORE.INTER>
-0.861872

>  <SCORE.INTER.CONST>
1

>  <SCORE.INTER.POLAR>
0

>  <SCORE.INTER.ROT>
6

>  <SCORE.INTER.SOLV>
15.0392

>  <SCORE.INTER.VDW>
-13.1876

>  <SCORE.INTER.norm>
-0.0278023

>  <SCORE.INTRA>
-3.38758

>  <SCORE.INTRA.DIHEDRAL>
-8.76822

>  <SCORE.INTRA.DIHEDRAL.0>
10.8172

>  <SCORE.INTRA.POLAR>
0

>  <SCORE.INTRA.POLAR.0>
0

>  <SCORE.INTRA.REPUL>
0

>  <SCORE.INTRA.REPUL.0>
0

>  <SCORE.INTRA.SOLV>
-3.0265

>  <SCORE.INTRA.SOLV.lig_0>
-80.3833

>  <SCORE.INTRA.VDW>
2.50978

>  <SCORE.INTRA.VDW.0>
-4.63762

>  <SCORE.INTRA.norm>
-0.109277

>  <SCORE.RESTR>
0

>  <SCORE.RESTR.CAVITY>
0

>  <SCORE.RESTR.norm>
0

>  <SCORE.SYSTEM>
0

>  <SCORE.SYSTEM.CONST>
0

>  <SCORE.SYSTEM.DIHEDRAL>
0

>  <SCORE.SYSTEM.SOLV>
0

>  <SCORE.SYSTEM.norm>
0

>  <SCORE.heavy>
31

>  <SCORE.norm>
-0.137079

>  <RMSD>
5.965

$$$$
ligand
 OpenBabel11021811473D
libRbt.so/2013.1/901 2013/11/27
 31 33  0  0  0  0  0  0  0  0999 V2000
   24.5531    6.2876   16.7516 C   0  0  0  0  0  0  0  0  0  0  0  0
   18.8040    2.2609   13.1043 N   0  0  0  0  0  0  0  0  0  0  0  0
   25.3300    7.4435   16.4213 O   0  0  0  0  0  0  0  0  0  0  0  0
   23.4525    6.0762   15.7090 C   0  0  1  0  0  0  0  0  0  0  0  0
   16.2062    5.5579   15.6113 N   0  0  0  0  0  0  0  0  0  0  0  0
   22.7056    4.8813   16.0105 O   0  0  0  0  0  0  0  0  0  0  0  0
   21.3101    5.2215   16.0925 C   0  0  1  0  0  0  0  0  0  0  0  0
   16.6573    9.9535   18.0820 N   0  0  0  0  0  0  0  0  0  0  0  0
   20.6223    4.4150   17.0617 O   0  0  0  0  0  0  0  0  0  0  0  0
   19.4390    3.7823   16.5524 C   0  0  2  0  0  0  0  0  0  0  0  0
   17.9860    4.0323   20.5185 N   0  0  0  0  0  0  0  0  0  0  0  0
   20.7369    2.2888   15.1639 O   0  0  0  0  0  0  0  0  0  0  0  0
   19.7483    3.3216   15.1232 C   0  0  1  0  0  0  0  0  0  0  0  0
   17.8011    5.0202   17.9184 O   0  0  0  0  0  0  0  0  0  0  0  0
   18.4878    2.7854   14.4416 C   0  0  1  0  0  0  0  0  0  0  0  0
   18.8810    7.0276   18.5035 O   0  0  0  0  0  0  0  0  0  0  0  0
   17.4592    3.9113   14.3339 C   0  0  0  0  0  0  0  0  0  0  0  0
   15.9080    8.4090   20.1557 O   0  0  0  0  0  0  0  0  0  0  0  0
   17.0815    4.3830   15.7411 C   0  0  1  0  0  0  0  0  0  0  0  0
   16.6182    6.2141   21.8712 O   0  0  0  0  0  0  0  0  0  0  0  0
   18.2942    4.7902   16.5869 C   0  0  2  0  0  0  0  0  0  0  0  0
   20.1093    7.3563   16.3352 O   0  0  0  0  0  0  0  0  0  0  0  0
   18.7456    5.6283   18.8133 C   0  0  1  0  0  0  0  0  0  0  0  0
   21.9535    7.5678   14.4504 O   0  0  0  0  0  0  0  0  0  0  0  0
   17.6597    7.7778   18.6174 C   0  0  2  0  0  0  0  0  0  0  0  0
   17.9324    9.2387   18.2515 C   0  0  0  0  0  0  0  0  0  0  0  0
   17.1550    7.7155   20.0602 C   0  0  2  0  0  0  0  0  0  0  0  0
   16.9569    6.2578   20.4810 C   0  0  1  0  0  0  0  0  0  0  0  0
   18.2404    5.4560   20.2497 C   0  0  1  0  0  0  0  0  0  0  0  0
   21.3325    6.6635   16.5952 C   0  0  2  0  0  0  0  0  0  0  0  0
   22.4609    7.2425   15.7470 C   0  0  1  0  0  0  0  0  0  0  0  0
  1  3  1  0  0  0  0
  4  1  1  1  0  0  0
  4  6  1  0  0  0  0
  4 31  1  0  0  0  0
  6  7  1  0  0  0  0
  7  9  1  1  0  0  0
  7 30  1  0  0  0  0
  8 26  1  0  0  0  0
 10  9  1  6  0  0  0
 10 13  1  0  0  0  0
 10 21  1  0  0  0  0
 13 12  1  1  0  0  0
 13 15  1  0  0  0  0
 15  2  1  6  0  0  0
 15 17  1  0  0  0  0
 16 25  1  0  0  0  0
 16 23  1  0  0  0  0
 17 19  1  0  0  0  0
 19  5  1  6  0  0  0
 19 21  1  0  0  0  0
 21 14  1  1  0  0  0
 23 14  1  6  0  0  0
 23 29  1  0  0  0  0
 25 26  1  1  0  0  0
 25 27  1  0  0  0  0
 27 18  1  6  0  0  0
 27 28  1  0  0  0  0
 28 20  1  1  0  0  0
 28 29  1  0  0  0  0
 29 11  1  6  0  0  0
 30 22  1  6  0  0  0
 30 31  1  0  0  0  0
 31 24  1  6  0  0  0
M  END
>  <CHROM.1>
177.61748249,-128.22886459,39.27484654,75.19674710,64.53370507,167.93844293
19.40848463,5.79467778,17.14976694,-0.65624857,0.36348675,0.72394237

>  <Name>
ligand

>  <RI>
0

>  <Rbt.Current_Directory>
/home/itssahil/PROJECTS/Mol_Feturizer/New_Systems/rnas/3DVV

>  <Rbt.Executable>
rbdock ($Id: //depot/dev/client3/rdock/2013.1/src/exe/rbdock.cxx#4 $)

>  <Rbt.Library>
libRbt.so (2013.1, Build901 2013/11/27)

>  <Rbt.Parameter_File>
/export/apps/rDock/src/rDock_2013.1_src/data/scripts/dock_solv.prm

>  <Rbt.Receptor>
prm/pocket_docking_4.prm

>  <SCORE>
-5.38274

>  <SCORE.INTER>
-8.20737

>  <SCORE.INTER.CONST>
1

>  <SCORE.INTER.POLAR>
0

>  <SCORE.INTER.ROT>
6

>  <SCORE.INTER.SOLV>
12.2794

>  <SCORE.INTER.VDW>
-17.1647

>  <SCORE.INTER.norm>
-0.264754

>  <SCORE.INTRA>
2.82463

>  <SCORE.INTRA.DIHEDRAL>
-0.354425

>  <SCORE.INTRA.DIHEDRAL.0>
10.8172

>  <SCORE.INTRA.POLAR>
0

>  <SCORE.INTRA.POLAR.0>
0

>  <SCORE.INTRA.REPUL>
0

>  <SCORE.INTRA.REPUL.0>
0

>  <SCORE.INTRA.SOLV>
-2.11902

>  <SCORE.INTRA.SOLV.lig_0>
-80.3833

>  <SCORE.INTRA.VDW>
4.06135

>  <SCORE.INTRA.VDW.0>
-4.63762

>  <SCORE.INTRA.norm>
0.0911171

>  <SCORE.RESTR>
0

>  <SCORE.RESTR.CAVITY>
0

>  <SCORE.RESTR.norm>
0

>  <SCORE.SYSTEM>
0

>  <SCORE.SYSTEM.CONST>
0

>  <SCORE.SYSTEM.DIHEDRAL>
0

>  <SCORE.SYSTEM.SOLV>
0

>  <SCORE.SYSTEM.norm>
0

>  <SCORE.heavy>
31

>  <SCORE.norm>
-0.173637

>  <RMSD>
5.970

$$$$
ligand
 OpenBabel11021811473D
libRbt.so/2013.1/901 2013/11/27
 31 33  0  0  0  0  0  0  0  0999 V2000
   24.6111    7.0072   15.5593 C   0  0  0  0  0  0  0  0  0  0  0  0
   20.2536    0.3292   12.5768 N   0  0  0  0  0  0  0  0  0  0  0  0
   23.9589    8.0966   14.8983 O   0  0  0  0  0  0  0  0  0  0  0  0
   23.6498    6.3357   16.5433 C   0  0  1  0  0  0  0  0  0  0  0  0
   16.6548    2.7124   14.8730 N   0  0  0  0  0  0  0  0  0  0  0  0
   22.3339    6.2385   15.9642 O   0  0  0  0  0  0  0  0  0  0  0  0
   21.9113    4.8642   16.0145 C   0  0  1  0  0  0  0  0  0  0  0  0
   13.7672    3.8932   18.0561 N   0  0  0  0  0  0  0  0  0  0  0  0
   21.0869    4.5201   14.8898 O   0  0  0  0  0  0  0  0  0  0  0  0
   20.4189    3.2572   15.0276 C   0  0  2  0  0  0  0  0  0  0  0  0
   19.1164    6.5594   17.5288 N   0  0  0  0  0  0  0  0  0  0  0  0
   22.1081    2.1286   13.7178 O   0  0  0  0  0  0  0  0  0  0  0  0
   20.7141    2.4454   13.7610 C   0  0  1  0  0  0  0  0  0  0  0  0
   18.5989    4.0179   16.5075 O   0  0  0  0  0  0  0  0  0  0  0  0
   19.9023    1.1486   13.7467 C   0  0  1  0  0  0  0  0  0  0  0  0
   16.2733    4.2962   16.7368 O   0  0  0  0  0  0  0  0  0  0  0  0
   18.4125    1.4905   13.7195 C   0  0  0  0  0  0  0  0  0  0  0  0
   16.3397    3.7605   20.3679 O   0  0  0  0  0  0  0  0  0  0  0  0
   18.0525    2.2694   14.9881 C   0  0  1  0  0  0  0  0  0  0  0  0
   17.7422    6.2528   20.0741 O   0  0  0  0  0  0  0  0  0  0  0  0
   18.9247    3.5127   15.2008 C   0  0  2  0  0  0  0  0  0  0  0  0
   23.1127    2.7456   16.3695 O   0  0  0  0  0  0  0  0  0  0  0  0
   17.5271    4.9736   16.5333 C   0  0  1  0  0  0  0  0  0  0  0  0
   23.8516    4.5175   18.1894 O   0  0  0  0  0  0  0  0  0  0  0  0
   16.1966    3.5540   17.9659 C   0  0  2  0  0  0  0  0  0  0  0  0
   14.8285    2.8738   18.0565 C   0  0  0  0  0  0  0  0  0  0  0  0
   16.3529    4.5099   19.1500 C   0  0  2  0  0  0  0  0  0  0  0  0
   17.6769    5.2683   19.0369 C   0  0  1  0  0  0  0  0  0  0  0  0
   17.7801    5.9625   17.6762 C   0  0  1  0  0  0  0  0  0  0  0  0
   23.2243    4.0921   15.9027 C   0  0  2  0  0  0  0  0  0  0  0  0
   24.1130    4.9062   16.8385 C   0  0  1  0  0  0  0  0  0  0  0  0
  1  3  1  0  0  0  0
  4  1  1  6  0  0  0
  4  6  1  0  0  0  0
  4 31  1  0  0  0  0
  6  7  1  0  0  0  0
  7  9  1  6  0  0  0
  7 30  1  0  0  0  0
  8 26  1  0  0  0  0
 10  9  1  6  0  0  0
 10 13  1  0  0  0  0
 10 21  1  0  0  0  0
 13 12  1  1  0  0  0
 13 15  1  0  0  0  0
 15  2  1  6  0  0  0
 15 17  1  0  0  0  0
 16 25  1  0  0  0  0
 16 23  1  0  0  0  0
 17 19  1  0  0  0  0
 19  5  1  6  0  0  0
 19 21  1  0  0  0  0
 21 14  1  1  0  0  0
 23 14  1  1  0  0  0
 23 29  1  0  0  0  0
 25 26  1  1  0  0  0
 25 27  1  0  0  0  0
 27 18  1  1  0  0  0
 27 28  1  0  0  0  0
 28 20  1  1  0  0  0
 28 29  1  0  0  0  0
 29 11  1  6  0  0  0
 30 22  1  1  0  0  0
 30 31  1  0  0  0  0
 31 24  1  1  0  0  0
M  END
>  <CHROM.1>
40.59721344,-167.92566059,-128.46158861,91.22653740,144.59778691,-61.11691897
19.69820834,4.17165345,16.35809734,-0.14025543,0.32358817,0.80186049

>  <Name>
ligand

>  <RI>
0

>  <Rbt.Current_Directory>
/home/itssahil/PROJECTS/Mol_Feturizer/New_Systems/rnas/3DVV

>  <Rbt.Executable>
rbdock ($Id: //depot/dev/client3/rdock/2013.1/src/exe/rbdock.cxx#4 $)

>  <Rbt.Library>
libRbt.so (2013.1, Build901 2013/11/27)

>  <Rbt.Parameter_File>
/export/apps/rDock/src/rDock_2013.1_src/data/scripts/dock_solv.prm

>  <Rbt.Receptor>
prm/pocket_docking_2.prm

>  <SCORE>
-0.444253

>  <SCORE.INTER>
-6.71624

>  <SCORE.INTER.CONST>
1

>  <SCORE.INTER.POLAR>
0

>  <SCORE.INTER.ROT>
6

>  <SCORE.INTER.SOLV>
18.1795

>  <SCORE.INTER.VDW>
-18.1373

>  <SCORE.INTER.norm>
-0.216653

>  <SCORE.INTRA>
5.81654

>  <SCORE.INTRA.DIHEDRAL>
6.51467

>  <SCORE.INTRA.DIHEDRAL.0>
10.8172

>  <SCORE.INTRA.POLAR>
0

>  <SCORE.INTRA.POLAR.0>
0

>  <SCORE.INTRA.REPUL>
0

>  <SCORE.INTRA.REPUL.0>
0

>  <SCORE.INTRA.SOLV>
1.63544

>  <SCORE.INTRA.SOLV.lig_0>
-80.3833

>  <SCORE.INTRA.VDW>
1.74148

>  <SCORE.INTRA.VDW.0>
-4.63762

>  <SCORE.INTRA.norm>
0.18763

>  <SCORE.RESTR>
0.45545

>  <SCORE.RESTR.CAVITY>
0.45545

>  <SCORE.RESTR.norm>
0.0146919

>  <SCORE.SYSTEM>
0

>  <SCORE.SYSTEM.CONST>
0

>  <SCORE.SYSTEM.DIHEDRAL>
0

>  <SCORE.SYSTEM.SOLV>
0

>  <SCORE.SYSTEM.norm>
0

>  <SCORE.heavy>
31

>  <SCORE.norm>
-0.0143307

>  <RMSD>
5.972

$$$$
ligand
 OpenBabel11021811473D
libRbt.so/2013.1/901 2013/11/27
 31 33  0  0  0  0  0  0  0  0999 V2000
   20.8176   -1.1561   11.1140 C   0  0  0  0  0  0  0  0  0  0  0  0
   14.7472    4.0183   12.0310 N   0  0  0  0  0  0  0  0  0  0  0  0
   20.2899   -2.2321   11.8967 O   0  0  0  0  0  0  0  0  0  0  0  0
   19.6938   -0.2003   10.7055 C   0  0  1  0  0  0  0  0  0  0  0  0
   18.6636    6.9175   11.6305 N   0  0  0  0  0  0  0  0  0  0  0  0
   19.0538    0.3431   11.8766 O   0  0  0  0  0  0  0  0  0  0  0  0
   19.0801    1.7789   11.7888 C   0  0  1  0  0  0  0  0  0  0  0  0
   23.1697    2.9878   15.7812 N   0  0  0  0  0  0  0  0  0  0  0  0
   19.2019    2.3886   13.0835 O   0  0  0  0  0  0  0  0  0  0  0  0
   18.3219    3.5050   13.2820 C   0  0  2  0  0  0  0  0  0  0  0  0
   18.8149    7.5770   14.3781 N   0  0  0  0  0  0  0  0  0  0  0  0
   16.3737    2.0743   13.2777 O   0  0  0  0  0  0  0  0  0  0  0  0
   16.9944    3.1663   12.5939 C   0  0  1  0  0  0  0  0  0  0  0  0
   20.0556    5.2472   13.4819 O   0  0  0  0  0  0  0  0  0  0  0  0
   16.0522    4.3716   12.6103 C   0  0  1  0  0  0  0  0  0  0  0  0
   20.7657    4.6781   15.6522 O   0  0  0  0  0  0  0  0  0  0  0  0
   16.6866    5.5141   11.8166 C   0  0  0  0  0  0  0  0  0  0  0  0
   23.4829    7.1466   15.6544 O   0  0  0  0  0  0  0  0  0  0  0  0
   18.0015    5.9222   12.4874 C   0  0  1  0  0  0  0  0  0  0  0  0
   21.1311    8.8000   15.6431 O   0  0  0  0  0  0  0  0  0  0  0  0
   18.9697    4.7489   12.6811 C   0  0  2  0  0  0  0  0  0  0  0  0
   20.3736    3.3578   10.4133 O   0  0  0  0  0  0  0  0  0  0  0  0
   19.7639    5.3688   14.8829 C   0  0  1  0  0  0  0  0  0  0  0  0
   19.3873    1.4327    8.8903 O   0  0  0  0  0  0  0  0  0  0  0  0
   22.1016    5.1747   15.4623 C   0  0  2  0  0  0  0  0  0  0  0  0
   23.0684    4.3539   16.3190 C   0  0  0  0  0  0  0  0  0  0  0  0
   22.1699    6.6378   15.9039 C   0  0  2  0  0  0  0  0  0  0  0  0
   21.1490    7.4669   15.1218 C   0  0  1  0  0  0  0  0  0  0  0  0
   19.7515    6.8557   15.2534 C   0  0  1  0  0  0  0  0  0  0  0  0
   20.3606    2.0560   11.0040 C   0  0  2  0  0  0  0  0  0  0  0  0
   20.2688    0.9835    9.9226 C   0  0  1  0  0  0  0  0  0  0  0  0
  1  3  1  0  0  0  0
  4  1  1  1  0  0  0
  4  6  1  0  0  0  0
  4 31  1  0  0  0  0
  6  7  1  0  0  0  0
  7  9  1  1  0  0  0
  7 30  1  0  0  0  0
  8 26  1  0  0  0  0
 10  9  1  6  0  0  0
 10 13  1  0  0  0  0
 10 21  1  0  0  0  0
 13 12  1  1  0  0  0
 13 15  1  0  0  0  0
 15  2  1  6  0  0  0
 15 17  1  0  0  0  0
 16 25  1  0  0  0  0
 16 23  1  0  0  0  0
 17 19  1  0  0  0  0
 19  5  1  6  0  0  0
 19 21  1  0  0  0  0
 21 14  1  1  0  0  0
 23 14  1  6  0  0  0
 23 29  1  0  0  0  0
 25 26  1  1  0  0  0
 25 27  1  0  0  0  0
 27 18  1  6  0  0  0
 27 28  1  0  0  0  0
 28 20  1  1  0  0  0
 28 29  1  0  0  0  0
 29 11  1  6  0  0  0
 30 22  1  6  0  0  0
 30 31  1  0  0  0  0
 31 24  1  6  0  0  0
M  END
>  <CHROM.1>
59.78845041,-135.59957107,37.70880984,127.03938178,-47.89579731,69.00539985
19.65954236,3.87876068,13.11138960,-1.88313171,-0.45400363,0.46529532

>  <Name>
ligand

>  <RI>
0

>  <Rbt.Current_Directory>
/home/itssahil/PROJECTS/Mol_Feturizer/New_Systems/rnas/3DVV

>  <Rbt.Executable>
rbdock ($Id: //depot/dev/client3/rdock/2013.1/src/exe/rbdock.cxx#4 $)

>  <Rbt.Library>
libRbt.so (2013.1, Build901 2013/11/27)

>  <Rbt.Parameter_File>
/export/apps/rDock/src/rDock_2013.1_src/data/scripts/dock_solv.prm

>  <Rbt.Receptor>
prm/blind_docking_80.prm

>  <SCORE>
6.65799

>  <SCORE.INTER>
-2.07288

>  <SCORE.INTER.CONST>
1

>  <SCORE.INTER.POLAR>
0

>  <SCORE.INTER.ROT>
6

>  <SCORE.INTER.SOLV>
15.6471

>  <SCORE.INTER.VDW>
-14.1976

>  <SCORE.INTER.norm>
-0.0668671

>  <SCORE.INTRA>
8.6203

>  <SCORE.INTRA.DIHEDRAL>
5.36385

>  <SCORE.INTRA.DIHEDRAL.0>
10.8172

>  <SCORE.INTRA.POLAR>
0

>  <SCORE.INTRA.POLAR.0>
0

>  <SCORE.INTRA.REPUL>
0

>  <SCORE.INTRA.REPUL.0>
0

>  <SCORE.INTRA.SOLV>
0.178003

>  <SCORE.INTRA.SOLV.lig_0>
-80.3833

>  <SCORE.INTRA.VDW>
5.84937

>  <SCORE.INTRA.VDW.0>
-4.63762

>  <SCORE.INTRA.norm>
0.278074

>  <SCORE.RESTR>
0.11057

>  <SCORE.RESTR.CAVITY>
0.11057

>  <SCORE.RESTR.norm>
0.00356676

>  <SCORE.SYSTEM>
0

>  <SCORE.SYSTEM.CONST>
0

>  <SCORE.SYSTEM.DIHEDRAL>
0

>  <SCORE.SYSTEM.SOLV>
0

>  <SCORE.SYSTEM.norm>
0

>  <SCORE.heavy>
31

>  <SCORE.norm>
0.214774

>  <RMSD>
5.983

$$$$
ligand
 OpenBabel11021811473D
libRbt.so/2013.1/901 2013/11/27
 31 33  0  0  0  0  0  0  0  0999 V2000
   23.8465    7.2193   15.4972 C   0  0  0  0  0  0  0  0  0  0  0  0
   21.0993    1.5418   13.4878 N   0  0  0  0  0  0  0  0  0  0  0  0
   24.4402    8.3038   14.7760 O   0  0  0  0  0  0  0  0  0  0  0  0
   22.4244    6.9650   14.9911 C   0  0  1  0  0  0  0  0  0  0  0  0
   16.6885    2.9521   15.0561 N   0  0  0  0  0  0  0  0  0  0  0  0
   21.9904    5.6447   15.3719 O   0  0  0  0  0  0  0  0  0  0  0  0
   20.7465    5.7592   16.0856 C   0  0  1  0  0  0  0  0  0  0  0  0
   16.4132    8.5120   17.2196 N   0  0  0  0  0  0  0  0  0  0  0  0
   20.6228    4.7529   17.1030 O   0  0  0  0  0  0  0  0  0  0  0  0
   20.1158    3.5005   16.6188 C   0  0  2  0  0  0  0  0  0  0  0  0
   17.4602    3.4820   20.3143 N   0  0  0  0  0  0  0  0  0  0  0  0
   22.2590    2.9056   15.6727 O   0  0  0  0  0  0  0  0  0  0  0  0
   20.8911    3.1588   15.3410 C   0  0  1  0  0  0  0  0  0  0  0  0
   17.8448    3.6890   17.5611 O   0  0  0  0  0  0  0  0  0  0  0  0
   20.3000    1.9213   14.6628 C   0  0  1  0  0  0  0  0  0  0  0  0
   17.6818    6.0360   17.6197 O   0  0  0  0  0  0  0  0  0  0  0  0
   18.8602    2.2193   14.2439 C   0  0  0  0  0  0  0  0  0  0  0  0
   14.0279    5.9990   17.9715 O   0  0  0  0  0  0  0  0  0  0  0  0
   18.0276    2.5277   15.4918 C   0  0  1  0  0  0  0  0  0  0  0  0
   14.9113    4.8753   20.4658 O   0  0  0  0  0  0  0  0  0  0  0  0
   18.6213    3.6507   16.3510 C   0  0  2  0  0  0  0  0  0  0  0  0
   19.5915    7.6468   17.1630 O   0  0  0  0  0  0  0  0  0  0  0  0
   18.0445    4.8606   18.3675 C   0  0  1  0  0  0  0  0  0  0  0  0
   20.4037    8.3476   14.7449 O   0  0  0  0  0  0  0  0  0  0  0  0
   16.3110    6.0597   17.1864 C   0  0  2  0  0  0  0  0  0  0  0  0
   16.0570    7.3456   16.3961 C   0  0  0  0  0  0  0  0  0  0  0  0
   15.3894    6.0395   18.4071 C   0  0  2  0  0  0  0  0  0  0  0  0
   15.6838    4.8056   19.2626 C   0  0  1  0  0  0  0  0  0  0  0  0
   17.1710    4.7469   19.6214 C   0  0  1  0  0  0  0  0  0  0  0  0
   20.8606    7.1211   16.7673 C   0  0  2  0  0  0  0  0  0  0  0  0
   21.4516    7.9565   15.6356 C   0  0  1  0  0  0  0  0  0  0  0  0
  1  3  1  0  0  0  0
  4  1  1  1  0  0  0
  4  6  1  0  0  0  0
  4 31  1  0  0  0  0
  6  7  1  0  0  0  0
  7  9  1  1  0  0  0
  7 30  1  0  0  0  0
  8 26  1  0  0  0  0
 10  9  1  6  0  0  0
 10 13  1  0  0  0  0
 10 21  1  0  0  0  0
 13 12  1  1  0  0  0
 13 15  1  0  0  0  0
 15  2  1  6  0  0  0
 15 17  1  0  0  0  0
 16 25  1  0  0  0  0
 16 23  1  0  0  0  0
 17 19  1  0  0  0  0
 19  5  1  6  0  0  0
 19 21  1  0  0  0  0
 21 14  1  1  0  0  0
 23 14  1  6  0  0  0
 23 29  1  0  0  0  0
 25 26  1  1  0  0  0
 25 27  1  0  0  0  0
 27 18  1  6  0  0  0
 27 28  1  0  0  0  0
 28 20  1  1  0  0  0
 28 29  1  0  0  0  0
 29 11  1  6  0  0  0
 30 22  1  6  0  0  0
 30 31  1  0  0  0  0
 31 24  1  6  0  0  0
M  END
>  <CHROM.1>
161.05704490,-84.57081248,46.88381117,60.43258777,67.90765670,-56.05818924
19.05640681,5.21567027,16.63273279,-0.02111601,0.49265346,0.21346393

>  <Name>
ligand

>  <RI>
0

>  <Rbt.Current_Directory>
/home/itssahil/PROJECTS/Mol_Feturizer/New_Systems/rnas/3DVV

>  <Rbt.Executable>
rbdock ($Id: //depot/dev/client3/rdock/2013.1/src/exe/rbdock.cxx#4 $)

>  <Rbt.Library>
libRbt.so (2013.1, Build901 2013/11/27)

>  <Rbt.Parameter_File>
/export/apps/rDock/src/rDock_2013.1_src/data/scripts/dock_solv.prm

>  <Rbt.Receptor>
prm/pocket_docking_3.prm

>  <SCORE>
-4.37981

>  <SCORE.INTER>
-4.52446

>  <SCORE.INTER.CONST>
1

>  <SCORE.INTER.POLAR>
0

>  <SCORE.INTER.ROT>
6

>  <SCORE.INTER.SOLV>
17.1595

>  <SCORE.INTER.VDW>
-16.3361

>  <SCORE.INTER.norm>
-0.14595

>  <SCORE.INTRA>
0.144651

>  <SCORE.INTRA.DIHEDRAL>
-5.72146

>  <SCORE.INTRA.DIHEDRAL.0>
10.8172

>  <SCORE.INTRA.POLAR>
0

>  <SCORE.INTRA.POLAR.0>
0

>  <SCORE.INTRA.REPUL>
0

>  <SCORE.INTRA.REPUL.0>
0

>  <SCORE.INTRA.SOLV>
-1.1406

>  <SCORE.INTRA.SOLV.lig_0>
-80.3833

>  <SCORE.INTRA.VDW>
3.57568

>  <SCORE.INTRA.VDW.0>
-4.63762

>  <SCORE.INTRA.norm>
0.00466617

>  <SCORE.RESTR>
0

>  <SCORE.RESTR.CAVITY>
0

>  <SCORE.RESTR.norm>
0

>  <SCORE.SYSTEM>
0

>  <SCORE.SYSTEM.CONST>
0

>  <SCORE.SYSTEM.DIHEDRAL>
0

>  <SCORE.SYSTEM.SOLV>
0

>  <SCORE.SYSTEM.norm>
0

>  <SCORE.heavy>
31

>  <SCORE.norm>
-0.141284

>  <RMSD>
5.985

$$$$
ligand
 OpenBabel11021811473D
libRbt.so/2013.1/901 2013/11/27
 31 33  0  0  0  0  0  0  0  0999 V2000
   17.1626    4.1511   11.6054 C   0  0  0  0  0  0  0  0  0  0  0  0
   24.0265    4.0060   17.6004 N   0  0  0  0  0  0  0  0  0  0  0  0
   17.4243    5.3941   10.9456 O   0  0  0  0  0  0  0  0  0  0  0  0
   18.4741    3.4060   11.8664 C   0  0  1  0  0  0  0  0  0  0  0  0
   22.3452    8.3649   16.1594 N   0  0  0  0  0  0  0  0  0  0  0  0
   19.3726    4.2345   12.6297 O   0  0  0  0  0  0  0  0  0  0  0  0
   19.7782    3.5097   13.8044 C   0  0  1  0  0  0  0  0  0  0  0  0
   18.4190    8.5481   17.4012 N   0  0  0  0  0  0  0  0  0  0  0  0
   19.9899    4.3855   14.9229 O   0  0  0  0  0  0  0  0  0  0  0  0
   21.3356    4.8732   15.0287 C   0  0  2  0  0  0  0  0  0  0  0  0
   20.2772    7.3917   11.3294 N   0  0  0  0  0  0  0  0  0  0  0  0
   22.1136    2.7696   15.9298 O   0  0  0  0  0  0  0  0  0  0  0  0
   21.9845    4.1635   16.2227 C   0  0  1  0  0  0  0  0  0  0  0  0
   20.9531    7.0893   14.0169 O   0  0  0  0  0  0  0  0  0  0  0  0
   23.3685    4.7472   16.5136 C   0  0  1  0  0  0  0  0  0  0  0  0
   18.7542    7.5475   14.7189 O   0  0  0  0  0  0  0  0  0  0  0  0
   23.2206    6.2197   16.8974 C   0  0  0  0  0  0  0  0  0  0  0  0
   19.0864   11.1598   14.1556 O   0  0  0  0  0  0  0  0  0  0  0  0
   22.6127    6.9871   15.7197 C   0  0  1  0  0  0  0  0  0  0  0  0
   19.2111   10.0933   11.4889 O   0  0  0  0  0  0  0  0  0  0  0  0
   21.2917    6.3857   15.2248 C   0  0  2  0  0  0  0  0  0  0  0  0
   18.8900    1.5164   14.9427 O   0  0  0  0  0  0  0  0  0  0  0  0
   19.5658    7.0244   13.6512 C   0  0  1  0  0  0  0  0  0  0  0  0
   19.0681    1.0658   12.3421 O   0  0  0  0  0  0  0  0  0  0  0  0
   19.0311    8.9183   15.0531 C   0  0  2  0  0  0  0  0  0  0  0  0
   18.1179    9.3485   16.2035 C   0  0  0  0  0  0  0  0  0  0  0  0
   18.7496    9.8064   13.8398 C   0  0  2  0  0  0  0  0  0  0  0  0
   19.5880    9.3415   12.6473 C   0  0  1  0  0  0  0  0  0  0  0  0
   19.3553    7.8523   12.3790 C   0  0  1  0  0  0  0  0  0  0  0  0
   18.5672    2.6290   14.1052 C   0  0  2  0  0  0  0  0  0  0  0  0
   18.2085    2.1503   12.7016 C   0  0  1  0  0  0  0  0  0  0  0  0
  1  3  1  0  0  0  0
  4  1  1  1  0  0  0
  4  6  1  0  0  0  0
  4 31  1  0  0  0  0
  6  7  1  0  0  0  0
  7  9  1  1  0  0  0
  7 30  1  0  0  0  0
  8 26  1  0  0  0  0
 10  9  1  1  0  0  0
 10 13  1  0  0  0  0
 10 21  1  0  0  0  0
 13 12  1  6  0  0  0
 13 15  1  0  0  0  0
 15  2  1  1  0  0  0
 15 17  1  0  0  0  0
 16 25  1  0  0  0  0
 16 23  1  0  0  0  0
 17 19  1  0  0  0  0
 19  5  1  1  0  0  0
 19 21  1  0  0  0  0
 21 14  1  6  0  0  0
 23 14  1  1  0  0  0
 23 29  1  0  0  0  0
 25 26  1  1  0  0  0
 25 27  1  0  0  0  0
 27 18  1  1  0  0  0
 27 28  1  0  0  0  0
 28 20  1  6  0  0  0
 28 29  1  0  0  0  0
 29 11  1  6  0  0  0
 30 22  1  1  0  0  0
 30 31  1  0  0  0  0
 31 24  1  6  0  0  0
M  END
>  <CHROM.1>
56.38155304,-90.28809776,-107.78093740,57.83998201,75.45148210,63.25696405
19.98330622,5.95430121,14.23221383,1.45492324,0.82302959,-3.05209990

>  <Name>
ligand

>  <RI>
0

>  <Rbt.Current_Directory>
/home/itssahil/PROJECTS/Mol_Feturizer/New_Systems/rnas/3DVV

>  <Rbt.Executable>
rbdock ($Id: //depot/dev/client3/rdock/2013.1/src/exe/rbdock.cxx#4 $)

>  <Rbt.Library>
libRbt.so (2013.1, Build901 2013/11/27)

>  <Rbt.Parameter_File>
/export/apps/rDock/src/rDock_2013.1_src/data/scripts/dock_solv.prm

>  <Rbt.Receptor>
prm/blind_docking_60.prm

>  <SCORE>
-1.24031

>  <SCORE.INTER>
-1.1211

>  <SCORE.INTER.CONST>
1

>  <SCORE.INTER.POLAR>
0

>  <SCORE.INTER.ROT>
6

>  <SCORE.INTER.SOLV>
25.7648

>  <SCORE.INTER.VDW>
-16.9357

>  <SCORE.INTER.norm>
-0.0361645

>  <SCORE.INTRA>
-0.270028

>  <SCORE.INTRA.DIHEDRAL>
0.622901

>  <SCORE.INTRA.DIHEDRAL.0>
10.8172

>  <SCORE.INTRA.POLAR>
0

>  <SCORE.INTRA.POLAR.0>
0

>  <SCORE.INTRA.REPUL>
0

>  <SCORE.INTRA.REPUL.0>
0

>  <SCORE.INTRA.SOLV>
-1.47012

>  <SCORE.INTRA.SOLV.lig_0>
-80.3833

>  <SCORE.INTRA.VDW>
0.153582

>  <SCORE.INTRA.VDW.0>
-4.63762

>  <SCORE.INTRA.norm>
-0.00871057

>  <SCORE.RESTR>
0.150816

>  <SCORE.RESTR.CAVITY>
0.150816

>  <SCORE.RESTR.norm>
0.00486502

>  <SCORE.SYSTEM>
0

>  <SCORE.SYSTEM.CONST>
0

>  <SCORE.SYSTEM.DIHEDRAL>
0

>  <SCORE.SYSTEM.SOLV>
0

>  <SCORE.SYSTEM.norm>
0

>  <SCORE.heavy>
31

>  <SCORE.norm>
-0.04001

>  <RMSD>
5.987

$$$$
ligand
 OpenBabel11021811473D
libRbt.so/2013.1/901 2013/11/27
 31 33  0  0  0  0  0  0  0  0999 V2000
   23.4818    6.9414   15.9353 C   0  0  0  0  0  0  0  0  0  0  0  0
   18.1515    1.0668   13.5395 N   0  0  0  0  0  0  0  0  0  0  0  0
   24.9080    6.9649   16.0546 O   0  0  0  0  0  0  0  0  0  0  0  0
   22.8680    6.1562   17.0973 C   0  0  1  0  0  0  0  0  0  0  0  0
   15.4086    2.8687   17.1635 N   0  0  0  0  0  0  0  0  0  0  0  0
   21.4299    6.2232   17.0372 O   0  0  0  0  0  0  0  0  0  0  0  0
   20.9079    4.8826   17.0421 C   0  0  1  0  0  0  0  0  0  0  0  0
   16.6171    8.7894   17.8101 N   0  0  0  0  0  0  0  0  0  0  0  0
   19.7050    4.7776   16.2643 O   0  0  0  0  0  0  0  0  0  0  0  0
   19.0739    3.4912   16.3464 C   0  0  2  0  0  0  0  0  0  0  0  0
   18.7428    4.1714   20.9933 N   0  0  0  0  0  0  0  0  0  0  0  0
   20.2953    2.6788   14.4253 O   0  0  0  0  0  0  0  0  0  0  0  0
   18.9786    2.9388   14.9194 C   0  0  1  0  0  0  0  0  0  0  0  0
   17.7666    3.9065   18.3957 O   0  0  0  0  0  0  0  0  0  0  0  0
   18.1657    1.6429   14.8928 C   0  0  1  0  0  0  0  0  0  0  0  0
   17.7913    6.2339   18.0482 O   0  0  0  0  0  0  0  0  0  0  0  0
   16.7378    1.9378   15.3525 C   0  0  0  0  0  0  0  0  0  0  0  0
   14.7627    6.7918   20.0464 O   0  0  0  0  0  0  0  0  0  0  0  0
   16.7708    2.4554   16.7936 C   0  0  1  0  0  0  0  0  0  0  0  0
   16.6690    5.9339   22.0198 O   0  0  0  0  0  0  0  0  0  0  0  0
   17.6965    3.6637   16.9797 C   0  0  2  0  0  0  0  0  0  0  0  0
   21.9220    2.6799   16.6205 O   0  0  0  0  0  0  0  0  0  0  0  0
   18.3988    5.1425   18.7639 C   0  0  1  0  0  0  0  0  0  0  0  0
   23.4465    4.0734   18.2732 O   0  0  0  0  0  0  0  0  0  0  0  0
   16.3853    6.3958   18.3019 C   0  0  2  0  0  0  0  0  0  0  0  0
   15.8590    7.5728   17.4772 C   0  0  0  0  0  0  0  0  0  0  0  0
   16.1654    6.6945   19.7860 C   0  0  2  0  0  0  0  0  0  0  0  0
   16.7615    5.5720   20.6379 C   0  0  1  0  0  0  0  0  0  0  0  0
   18.2314    5.3477   20.2732 C   0  0  1  0  0  0  0  0  0  0  0  0
   22.0039    4.0800   16.3440 C   0  0  2  0  0  0  0  0  0  0  0  0
   23.2495    4.6769   16.9921 C   0  0  1  0  0  0  0  0  0  0  0  0
  1  3  1  0  0  0  0
  4  1  1  6  0  0  0
  4  6  1  0  0  0  0
  4 31  1  0  0  0  0
  6  7  1  0  0  0  0
  7  9  1  6  0  0  0
  7 30  1  0  0  0  0
  8 26  1  0  0  0  0
 10  9  1  6  0  0  0
 10 13  1  0  0  0  0
 10 21  1  0  0  0  0
 13 12  1  1  0  0  0
 13 15  1  0  0  0  0
 15  2  1  6  0  0  0
 15 17  1  0  0  0  0
 16 25  1  0  0  0  0
 16 23  1  0  0  0  0
 17 19  1  0  0  0  0
 19  5  1  6  0  0  0
 19 21  1  0  0  0  0
 21 14  1  1  0  0  0
 23 14  1  6  0  0  0
 23 29  1  0  0  0  0
 25 26  1  6  0  0  0
 25 27  1  0  0  0  0
 27 18  1  6  0  0  0
 27 28  1  0  0  0  0
 28 20  1  1  0  0  0
 28 29  1  0  0  0  0
 29 11  1  1  0  0  0
 30 22  1  1  0  0  0
 30 31  1  0  0  0  0
 31 24  1  1  0  0  0
M  END
>  <CHROM.1>
175.39335415,-174.15813237,-121.97305375,52.14736749,64.99131182,-57.26016553
19.05127646,4.75431238,17.44976265,-0.44654503,0.23650720,0.74903789

>  <Name>
ligand

>  <RI>
0

>  <Rbt.Current_Directory>
/home/itssahil/PROJECTS/Mol_Feturizer/New_Systems/rnas/3DVV

>  <Rbt.Executable>
rbdock ($Id: //depot/dev/client3/rdock/2013.1/src/exe/rbdock.cxx#4 $)

>  <Rbt.Library>
libRbt.so (2013.1, Build901 2013/11/27)

>  <Rbt.Parameter_File>
/export/apps/rDock/src/rDock_2013.1_src/data/scripts/dock_solv.prm

>  <Rbt.Receptor>
prm/pocket_docking_4.prm

>  <SCORE>
-6.35277

>  <SCORE.INTER>
-6.02229

>  <SCORE.INTER.CONST>
1

>  <SCORE.INTER.POLAR>
0

>  <SCORE.INTER.ROT>
6

>  <SCORE.INTER.SOLV>
17.0705

>  <SCORE.INTER.VDW>
-17.305

>  <SCORE.INTER.norm>
-0.194268

>  <SCORE.INTRA>
-0.330473

>  <SCORE.INTRA.DIHEDRAL>
-2.68977

>  <SCORE.INTRA.DIHEDRAL.0>
10.8172

>  <SCORE.INTRA.POLAR>
0

>  <SCORE.INTRA.POLAR.0>
0

>  <SCORE.INTRA.REPUL>
0.0103426

>  <SCORE.INTRA.REPUL.0>
0

>  <SCORE.INTRA.SOLV>
-2.19045

>  <SCORE.INTRA.SOLV.lig_0>
-80.3833

>  <SCORE.INTRA.VDW>
2.05792

>  <SCORE.INTRA.VDW.0>
-4.63762

>  <SCORE.INTRA.norm>
-0.0106604

>  <SCORE.RESTR>
0

>  <SCORE.RESTR.CAVITY>
0

>  <SCORE.RESTR.norm>
0

>  <SCORE.SYSTEM>
0

>  <SCORE.SYSTEM.CONST>
0

>  <SCORE.SYSTEM.DIHEDRAL>
0

>  <SCORE.SYSTEM.SOLV>
0

>  <SCORE.SYSTEM.norm>
0

>  <SCORE.heavy>
31

>  <SCORE.norm>
-0.204928

>  <RMSD>
5.995

$$$$
ligand
 OpenBabel11021811473D
libRbt.so/2013.1/901 2013/11/27
 31 33  0  0  0  0  0  0  0  0999 V2000
   17.5341    9.7427   18.7253 C   0  0  0  0  0  0  0  0  0  0  0  0
   15.4044    4.1377   20.1652 N   0  0  0  0  0  0  0  0  0  0  0  0
   18.5370   10.7569   18.8448 O   0  0  0  0  0  0  0  0  0  0  0  0
   18.0149    8.6333   17.7865 C   0  0  1  0  0  0  0  0  0  0  0  0
   17.1794    2.5511   15.8949 N   0  0  0  0  0  0  0  0  0  0  0  0
   17.0384    7.5753   17.7268 O   0  0  0  0  0  0  0  0  0  0  0  0
   16.6920    7.3484   16.3490 C   0  0  1  0  0  0  0  0  0  0  0  0
   19.8490    5.5767   14.1021 N   0  0  0  0  0  0  0  0  0  0  0  0
   15.3195    6.9508   16.2045 O   0  0  0  0  0  0  0  0  0  0  0  0
   15.0537    5.6152   16.6579 C   0  0  2  0  0  0  0  0  0  0  0  0
   13.6208    4.8429   12.5528 N   0  0  0  0  0  0  0  0  0  0  0  0
   14.3670    6.4045   18.8370 O   0  0  0  0  0  0  0  0  0  0  0  0
   15.3270    5.5836   18.1662 C   0  0  1  0  0  0  0  0  0  0  0  0
   15.5397    4.4547   14.5371 O   0  0  0  0  0  0  0  0  0  0  0  0
   15.2314    4.1547   18.7046 C   0  0  1  0  0  0  0  0  0  0  0  0
   17.0398    5.9496   13.5109 O   0  0  0  0  0  0  0  0  0  0  0  0
   16.3067    3.2956   18.0390 C   0  0  0  0  0  0  0  0  0  0  0  0
   18.0050    3.5481   10.9075 O   0  0  0  0  0  0  0  0  0  0  0  0
   16.0561    3.2582   16.5286 C   0  0  1  0  0  0  0  0  0  0  0  0
   15.2579    4.1013   10.2657 O   0  0  0  0  0  0  0  0  0  0  0  0
   15.9614    4.6528   15.8979 C   0  0  2  0  0  0  0  0  0  0  0  0
   17.0076    8.6670   14.2949 O   0  0  0  0  0  0  0  0  0  0  0  0
   15.6523    5.6142   13.6972 C   0  0  1  0  0  0  0  0  0  0  0  0
   19.2668    8.5824   15.6685 O   0  0  0  0  0  0  0  0  0  0  0  0
   17.8195    4.9121   12.8920 C   0  0  2  0  0  0  0  0  0  0  0  0
   19.2698    5.3838   12.7631 C   0  0  0  0  0  0  0  0  0  0  0  0
   17.2675    4.6234   11.4948 C   0  0  2  0  0  0  0  0  0  0  0  0
   15.7910    4.2330   11.5876 C   0  0  1  0  0  0  0  0  0  0  0  0
   15.0019    5.3044   12.3447 C   0  0  1  0  0  0  0  0  0  0  0  0
   16.8626    8.7277   15.7157 C   0  0  2  0  0  0  0  0  0  0  0  0
   18.1685    9.1782   16.3637 C   0  0  1  0  0  0  0  0  0  0  0  0
  1  3  1  0  0  0  0
  4  1  1  1  0  0  0
  4  6  1  0  0  0  0
  4 31  1  0  0  0  0
  6  7  1  0  0  0  0
  7  9  1  1  0  0  0
  7 30  1  0  0  0  0
  8 26  1  0  0  0  0
 10  9  1  6  0  0  0
 10 13  1  0  0  0  0
 10 21  1  0  0  0  0
 13 12  1  1  0  0  0
 13 15  1  0  0  0  0
 15  2  1  1  0  0  0
 15 17  1  0  0  0  0
 16 25  1  0  0  0  0
 16 23  1  0  0  0  0
 17 19  1  0  0  0  0
 19  5  1  6  0  0  0
 19 21  1  0  0  0  0
 21 14  1  6  0  0  0
 23 14  1  1  0  0  0
 23 29  1  0  0  0  0
 25 26  1  6  0  0  0
 25 27  1  0  0  0  0
 27 18  1  1  0  0  0
 27 28  1  0  0  0  0
 28 20  1  6  0  0  0
 28 29  1  0  0  0  0
 29 11  1  1  0  0  0
 30 22  1  6  0  0  0
 30 31  1  0  0  0  0
 31 24  1  6  0  0  0
M  END
>  <CHROM.1>
176.68038009,-72.17359970,63.99036419,66.94657898,66.66366918,64.48190873
16.64104013,5.98434531,15.38330944,-1.44805524,-0.99869871,-1.98529236

>  <Name>
ligand

>  <RI>
0

>  <Rbt.Current_Directory>
/home/itssahil/PROJECTS/Mol_Feturizer/New_Systems/rnas/3DVV

>  <Rbt.Executable>
rbdock ($Id: //depot/dev/client3/rdock/2013.1/src/exe/rbdock.cxx#4 $)

>  <Rbt.Library>
libRbt.so (2013.1, Build901 2013/11/27)

>  <Rbt.Parameter_File>
/export/apps/rDock/src/rDock_2013.1_src/data/scripts/dock_solv.prm

>  <Rbt.Receptor>
prm/pocket_docking_7.prm

>  <SCORE>
-2.62976

>  <SCORE.INTER>
0.621622

>  <SCORE.INTER.CONST>
1

>  <SCORE.INTER.POLAR>
0

>  <SCORE.INTER.ROT>
6

>  <SCORE.INTER.SOLV>
10.5018

>  <SCORE.INTER.VDW>
-10.6862

>  <SCORE.INTER.norm>
0.0200523

>  <SCORE.INTRA>
-3.25138

>  <SCORE.INTRA.DIHEDRAL>
-9.23247

>  <SCORE.INTRA.DIHEDRAL.0>
10.8172

>  <SCORE.INTRA.POLAR>
0

>  <SCORE.INTRA.POLAR.0>
0

>  <SCORE.INTRA.REPUL>
0

>  <SCORE.INTRA.REPUL.0>
0

>  <SCORE.INTRA.SOLV>
-2.31823

>  <SCORE.INTRA.SOLV.lig_0>
-80.3833

>  <SCORE.INTRA.VDW>
2.52397

>  <SCORE.INTRA.VDW.0>
-4.63762

>  <SCORE.INTRA.norm>
-0.104883

>  <SCORE.RESTR>
0

>  <SCORE.RESTR.CAVITY>
0

>  <SCORE.RESTR.norm>
0

>  <SCORE.SYSTEM>
0

>  <SCORE.SYSTEM.CONST>
0

>  <SCORE.SYSTEM.DIHEDRAL>
0

>  <SCORE.SYSTEM.SOLV>
0

>  <SCORE.SYSTEM.norm>
0

>  <SCORE.heavy>
31

>  <SCORE.norm>
-0.0848309

>  <RMSD>
6.029

$$$$
ligand
 OpenBabel11021811473D
libRbt.so/2013.1/901 2013/11/27
 31 33  0  0  0  0  0  0  0  0999 V2000
   23.0031    7.3090   15.9542 C   0  0  0  0  0  0  0  0  0  0  0  0
   20.3111    0.1453   12.3178 N   0  0  0  0  0  0  0  0  0  0  0  0
   22.2202    8.4788   15.6944 O   0  0  0  0  0  0  0  0  0  0  0  0
   22.2342    6.3518   16.8684 C   0  0  1  0  0  0  0  0  0  0  0  0
   16.2633    1.3360   14.7879 N   0  0  0  0  0  0  0  0  0  0  0  0
   20.9643    6.0132   16.2773 O   0  0  0  0  0  0  0  0  0  0  0  0
   20.8626    4.5803   16.1993 C   0  0  1  0  0  0  0  0  0  0  0  0
   13.3772    4.5728   14.8347 N   0  0  0  0  0  0  0  0  0  0  0  0
   20.1180    4.1623   15.0444 O   0  0  0  0  0  0  0  0  0  0  0  0
   19.7810    2.7671   15.0476 C   0  0  2  0  0  0  0  0  0  0  0  0
   18.1127    3.6530   19.2432 N   0  0  0  0  0  0  0  0  0  0  0  0
   21.6808    2.2216   13.6564 O   0  0  0  0  0  0  0  0  0  0  0  0
   20.2523    2.1818   13.7113 C   0  0  1  0  0  0  0  0  0  0  0  0
   17.8462    2.9089   16.5700 O   0  0  0  0  0  0  0  0  0  0  0  0
   19.7826    0.7338   13.5579 C   0  0  1  0  0  0  0  0  0  0  0  0
   16.8691    4.9713   15.9953 O   0  0  0  0  0  0  0  0  0  0  0  0
   18.2541    0.7018   13.5439 C   0  0  0  0  0  0  0  0  0  0  0  0
   13.6169    4.0938   17.4546 O   0  0  0  0  0  0  0  0  0  0  0  0
   17.7282    1.2393   14.8781 C   0  0  1  0  0  0  0  0  0  0  0  0
   15.3177    4.2658   19.7661 O   0  0  0  0  0  0  0  0  0  0  0  0
   18.2717    2.6308   15.2244 C   0  0  2  0  0  0  0  0  0  0  0  0
   22.5155    2.7639   16.3631 O   0  0  0  0  0  0  0  0  0  0  0  0
   17.7684    4.3045   16.9004 C   0  0  1  0  0  0  0  0  0  0  0  0
   22.8672    4.4848   18.3412 O   0  0  0  0  0  0  0  0  0  0  0  0
   15.5241    4.4639   16.0197 C   0  0  2  0  0  0  0  0  0  0  0  0
   14.6761    5.2419   15.0107 C   0  0  0  0  0  0  0  0  0  0  0  0
   14.9310    4.6567   17.4166 C   0  0  2  0  0  0  0  0  0  0  0  0
   15.8102    3.9599   18.4572 C   0  0  1  0  0  0  0  0  0  0  0  0
   17.2593    4.4395   18.3393 C   0  0  1  0  0  0  0  0  0  0  0  0
   22.3135    4.1375   16.0225 C   0  0  2  0  0  0  0  0  0  0  0  0
   23.0118    5.0429   17.0328 C   0  0  1  0  0  0  0  0  0  0  0  0
  1  3  1  0  0  0  0
  4  1  1  6  0  0  0
  4  6  1  0  0  0  0
  4 31  1  0  0  0  0
  6  7  1  0  0  0  0
  7  9  1  6  0  0  0
  7 30  1  0  0  0  0
  8 26  1  0  0  0  0
 10  9  1  6  0  0  0
 10 13  1  0  0  0  0
 10 21  1  0  0  0  0
 13 12  1  1  0  0  0
 13 15  1  0  0  0  0
 15  2  1  6  0  0  0
 15 17  1  0  0  0  0
 16 25  1  0  0  0  0
 16 23  1  0  0  0  0
 17 19  1  0  0  0  0
 19  5  1  6  0  0  0
 19 21  1  0  0  0  0
 21 14  1  1  0  0  0
 23 14  1  6  0  0  0
 23 29  1  0  0  0  0
 25 26  1  6  0  0  0
 25 27  1  0  0  0  0
 27 18  1  6  0  0  0
 27 28  1  0  0  0  0
 28 20  1  1  0  0  0
 28 29  1  0  0  0  0
 29 11  1  1  0  0  0
 30 22  1  1  0  0  0
 30 31  1  0  0  0  0
 31 24  1  1  0  0  0
M  END
>  <CHROM.1>
56.74541980,-169.32675210,-127.57867791,57.73341307,78.48246208,169.16398677
18.84565181,3.86498091,16.03632668,0.01017230,0.16829529,0.70273560

>  <Name>
ligand

>  <RI>
0

>  <Rbt.Current_Directory>
/home/itssahil/PROJECTS/Mol_Feturizer/New_Systems/rnas/3DVV

>  <Rbt.Executable>
rbdock ($Id: //depot/dev/client3/rdock/2013.1/src/exe/rbdock.cxx#4 $)

>  <Rbt.Library>
libRbt.so (2013.1, Build901 2013/11/27)

>  <Rbt.Parameter_File>
/export/apps/rDock/src/rDock_2013.1_src/data/scripts/dock_solv.prm

>  <Rbt.Receptor>
prm/pocket_docking_7.prm

>  <SCORE>
-6.181

>  <SCORE.INTER>
-5.95129

>  <SCORE.INTER.CONST>
1

>  <SCORE.INTER.POLAR>
0

>  <SCORE.INTER.ROT>
6

>  <SCORE.INTER.SOLV>
20.7101

>  <SCORE.INTER.VDW>
-18.4709

>  <SCORE.INTER.norm>
-0.191977

>  <SCORE.INTRA>
-0.229712

>  <SCORE.INTRA.DIHEDRAL>
-1.1165

>  <SCORE.INTRA.DIHEDRAL.0>
10.8172

>  <SCORE.INTRA.POLAR>
0

>  <SCORE.INTRA.POLAR.0>
0

>  <SCORE.INTRA.REPUL>
0

>  <SCORE.INTRA.REPUL.0>
0

>  <SCORE.INTRA.SOLV>
-1.71271

>  <SCORE.INTRA.SOLV.lig_0>
-80.3833

>  <SCORE.INTRA.VDW>
1.18489

>  <SCORE.INTRA.VDW.0>
-4.63762

>  <SCORE.INTRA.norm>
-0.00741007

>  <SCORE.RESTR>
0

>  <SCORE.RESTR.CAVITY>
0

>  <SCORE.RESTR.norm>
0

>  <SCORE.SYSTEM>
0

>  <SCORE.SYSTEM.CONST>
0

>  <SCORE.SYSTEM.DIHEDRAL>
0

>  <SCORE.SYSTEM.SOLV>
0

>  <SCORE.SYSTEM.norm>
0

>  <SCORE.heavy>
31

>  <SCORE.norm>
-0.199387

>  <RMSD>
6.039

$$$$
ligand
 OpenBabel11021811473D
libRbt.so/2013.1/901 2013/11/27
 31 33  0  0  0  0  0  0  0  0999 V2000
   23.2665    7.0500   15.7890 C   0  0  0  0  0  0  0  0  0  0  0  0
   18.4046    0.6433   13.4574 N   0  0  0  0  0  0  0  0  0  0  0  0
   22.6299    8.3156   15.5845 O   0  0  0  0  0  0  0  0  0  0  0  0
   22.5943    6.3016   16.9428 C   0  0  1  0  0  0  0  0  0  0  0  0
   15.3422    2.6529   16.6958 N   0  0  0  0  0  0  0  0  0  0  0  0
   21.1676    6.2619   16.7448 O   0  0  0  0  0  0  0  0  0  0  0  0
   20.7353    4.8908   16.7984 C   0  0  1  0  0  0  0  0  0  0  0  0
   13.4820    6.7418   17.0529 N   0  0  0  0  0  0  0  0  0  0  0  0
   19.6233    4.6493   15.9220 O   0  0  0  0  0  0  0  0  0  0  0  0
   19.0334    3.3506   16.0808 C   0  0  2  0  0  0  0  0  0  0  0  0
   18.5654    4.5141   20.5137 N   0  0  0  0  0  0  0  0  0  0  0  0
   20.4199    2.4176   14.3344 O   0  0  0  0  0  0  0  0  0  0  0  0
   19.0623    2.6666   14.7090 C   0  0  1  0  0  0  0  0  0  0  0  0
   17.5658    3.8966   17.9859 O   0  0  0  0  0  0  0  0  0  0  0  0
   18.2995    1.3408   14.7481 C   0  0  1  0  0  0  0  0  0  0  0  0
   17.1043    6.1553   17.5130 O   0  0  0  0  0  0  0  0  0  0  0  0
   16.8323    1.6166   15.0775 C   0  0  0  0  0  0  0  0  0  0  0  0
   14.1032    6.2188   19.6263 O   0  0  0  0  0  0  0  0  0  0  0  0
   16.7415    2.2647   16.4622 C   0  0  1  0  0  0  0  0  0  0  0  0
   16.2173    5.8859   21.5459 O   0  0  0  0  0  0  0  0  0  0  0  0
   17.6082    3.5226   16.5976 C   0  0  2  0  0  0  0  0  0  0  0  0
   21.9256    2.7428   16.6337 O   0  0  0  0  0  0  0  0  0  0  0  0
   17.9474    5.2548   18.2552 C   0  0  1  0  0  0  0  0  0  0  0  0
   23.1886    4.3474   18.3154 O   0  0  0  0  0  0  0  0  0  0  0  0
   15.7054    6.0475   17.8272 C   0  0  2  0  0  0  0  0  0  0  0  0
   14.9203    7.0411   16.9676 C   0  0  0  0  0  0  0  0  0  0  0  0
   15.4857    6.3886   19.3022 C   0  0  2  0  0  0  0  0  0  0  0  0
   16.3290    5.4639   20.1825 C   0  0  1  0  0  0  0  0  0  0  0  0
   17.7990    5.5164   19.7578 C   0  0  1  0  0  0  0  0  0  0  0  0
   21.9436    4.1239   16.2652 C   0  0  2  0  0  0  0  0  0  0  0  0
   23.0790    4.8494   16.9811 C   0  0  1  0  0  0  0  0  0  0  0  0
  1  3  1  0  0  0  0
  4  1  1  6  0  0  0
  4  6  1  0  0  0  0
  4 31  1  0  0  0  0
  6  7  1  0  0  0  0
  7  9  1  6  0  0  0
  7 30  1  0  0  0  0
  8 26  1  0  0  0  0
 10  9  1  6  0  0  0
 10 13  1  0  0  0  0
 10 21  1  0  0  0  0
 13 12  1  1  0  0  0
 13 15  1  0  0  0  0
 15  2  1  6  0  0  0
 15 17  1  0  0  0  0
 16 25  1  0  0  0  0
 16 23  1  0  0  0  0
 17 19  1  0  0  0  0
 19  5  1  6  0  0  0
 19 21  1  0  0  0  0
 21 14  1  1  0  0  0
 23 14  1  1  0  0  0
 23 29  1  0  0  0  0
 25 26  1  6  0  0  0
 25 27  1  0  0  0  0
 27 18  1  1  0  0  0
 27 28  1  0  0  0  0
 28 20  1  1  0  0  0
 28 29  1  0  0  0  0
 29 11  1  1  0  0  0
 30 22  1  1  0  0  0
 30 31  1  0  0  0  0
 31 24  1  1  0  0  0
M  END
>  <CHROM.1>
51.00845380,-171.50397270,-123.84580115,57.42254617,73.45200914,167.49716320
18.64813419,4.64461045,17.12909955,-0.34503028,0.21200774,0.70239082

>  <Name>
ligand

>  <RI>
0

>  <Rbt.Current_Directory>
/home/itssahil/PROJECTS/Mol_Feturizer/New_Systems/rnas/3DVV

>  <Rbt.Executable>
rbdock ($Id: //depot/dev/client3/rdock/2013.1/src/exe/rbdock.cxx#4 $)

>  <Rbt.Library>
libRbt.so (2013.1, Build901 2013/11/27)

>  <Rbt.Parameter_File>
/export/apps/rDock/src/rDock_2013.1_src/data/scripts/dock_solv.prm

>  <Rbt.Receptor>
prm/pocket_docking_3.prm

>  <SCORE>
-5.32201

>  <SCORE.INTER>
-5.01731

>  <SCORE.INTER.CONST>
1

>  <SCORE.INTER.POLAR>
0

>  <SCORE.INTER.ROT>
6

>  <SCORE.INTER.SOLV>
17.9022

>  <SCORE.INTER.VDW>
-16.9123

>  <SCORE.INTER.norm>
-0.161849

>  <SCORE.INTRA>
-0.304706

>  <SCORE.INTRA.DIHEDRAL>
-1.3982

>  <SCORE.INTRA.DIHEDRAL.0>
10.8172

>  <SCORE.INTRA.POLAR>
0

>  <SCORE.INTRA.POLAR.0>
0

>  <SCORE.INTRA.REPUL>
0

>  <SCORE.INTRA.REPUL.0>
0

>  <SCORE.INTRA.SOLV>
-2.17865

>  <SCORE.INTRA.SOLV.lig_0>
-80.3833

>  <SCORE.INTRA.VDW>
1.48372

>  <SCORE.INTRA.VDW.0>
-4.63762

>  <SCORE.INTRA.norm>
-0.00982921

>  <SCORE.RESTR>
0

>  <SCORE.RESTR.CAVITY>
0

>  <SCORE.RESTR.norm>
0

>  <SCORE.SYSTEM>
0

>  <SCORE.SYSTEM.CONST>
0

>  <SCORE.SYSTEM.DIHEDRAL>
0

>  <SCORE.SYSTEM.SOLV>
0

>  <SCORE.SYSTEM.norm>
0

>  <SCORE.heavy>
31

>  <SCORE.norm>
-0.171678

>  <RMSD>
6.067

$$$$
ligand
 OpenBabel11021811473D
libRbt.so/2013.1/901 2013/11/27
 31 33  0  0  0  0  0  0  0  0999 V2000
   17.1120    3.6529   11.5618 C   0  0  0  0  0  0  0  0  0  0  0  0
   23.6041    3.9652   18.0110 N   0  0  0  0  0  0  0  0  0  0  0  0
   17.3081    4.9103   10.9065 O   0  0  0  0  0  0  0  0  0  0  0  0
   18.4626    2.9959   11.8577 C   0  0  1  0  0  0  0  0  0  0  0  0
   22.0623    8.1705   16.0509 N   0  0  0  0  0  0  0  0  0  0  0  0
   19.2860    3.8833   12.6393 O   0  0  0  0  0  0  0  0  0  0  0  0
   19.7092    3.1893   13.8264 C   0  0  1  0  0  0  0  0  0  0  0  0
   16.7582    9.3447   15.2487 N   0  0  0  0  0  0  0  0  0  0  0  0
   19.8356    4.0798   14.9462 O   0  0  0  0  0  0  0  0  0  0  0  0
   21.1652    4.5864   15.1348 C   0  0  2  0  0  0  0  0  0  0  0  0
   20.3456    6.7958   11.1705 N   0  0  0  0  0  0  0  0  0  0  0  0
   21.8568    2.5742   16.2816 O   0  0  0  0  0  0  0  0  0  0  0  0
   21.6999    3.9869   16.4405 C   0  0  1  0  0  0  0  0  0  0  0  0
   20.8778    6.7046   13.9053 O   0  0  0  0  0  0  0  0  0  0  0  0
   23.0503    4.6052   16.8080 C   0  0  1  0  0  0  0  0  0  0  0  0
   18.6969    7.4022   14.4487 O   0  0  0  0  0  0  0  0  0  0  0  0
   22.8661    6.1038   17.0486 C   0  0  0  0  0  0  0  0  0  0  0  0
   19.3545   10.9044   13.5666 O   0  0  0  0  0  0  0  0  0  0  0  0
   22.3707    6.7626   15.7578 C   0  0  1  0  0  0  0  0  0  0  0  0
   19.5039    9.5761   11.0214 O   0  0  0  0  0  0  0  0  0  0  0  0
   21.1022    6.1097   15.1954 C   0  0  2  0  0  0  0  0  0  0  0  0
   18.9255    1.1449   14.9507 O   0  0  0  0  0  0  0  0  0  0  0  0
   19.5068    6.7145   13.4773 C   0  0  1  0  0  0  0  0  0  0  0  0
   19.1965    0.7007   12.3570 O   0  0  0  0  0  0  0  0  0  0  0  0
   19.0731    8.7727   14.6664 C   0  0  2  0  0  0  0  0  0  0  0  0
   18.1506    9.3842   15.7235 C   0  0  0  0  0  0  0  0  0  0  0  0
   18.9193    9.5576   13.3623 C   0  0  2  0  0  0  0  0  0  0  0  0
   19.7663    8.9134   12.2629 C   0  0  1  0  0  0  0  0  0  0  0  0
   19.4213    7.4283   12.1240 C   0  0  1  0  0  0  0  0  0  0  0  0
   18.5513    2.2321   14.1012 C   0  0  2  0  0  0  0  0  0  0  0  0
   18.2592    1.7275   12.6912 C   0  0  1  0  0  0  0  0  0  0  0  0
  1  3  1  0  0  0  0
  4  1  1  1  0  0  0
  4  6  1  0  0  0  0
  4 31  1  0  0  0  0
  6  7  1  0  0  0  0
  7  9  1  1  0  0  0
  7 30  1  0  0  0  0
  8 26  1  0  0  0  0
 10  9  1  1  0  0  0
 10 13  1  0  0  0  0
 10 21  1  0  0  0  0
 13 12  1  6  0  0  0
 13 15  1  0  0  0  0
 15  2  1  1  0  0  0
 15 17  1  0  0  0  0
 16 25  1  0  0  0  0
 16 23  1  0  0  0  0
 17 19  1  0  0  0  0
 19  5  1  1  0  0  0
 19 21  1  0  0  0  0
 21 14  1  6  0  0  0
 23 14  1  1  0  0  0
 23 29  1  0  0  0  0
 25 26  1  1  0  0  0
 25 27  1  0  0  0  0
 27 18  1  1  0  0  0
 27 28  1  0  0  0  0
 28 20  1  6  0  0  0
 28 29  1  0  0  0  0
 29 11  1  6  0  0  0
 30 22  1  1  0  0  0
 30 31  1  0  0  0  0
 31 24  1  6  0  0  0
M  END
>  <CHROM.1>
56.24489740,-94.15112092,-112.36899237,57.25046522,81.32937395,-60.91860933
19.87234699,5.68762064,14.08648838,1.40277980,0.85731970,-3.12401415

>  <Name>
ligand

>  <RI>
0

>  <Rbt.Current_Directory>
/home/itssahil/PROJECTS/Mol_Feturizer/New_Systems/rnas/3DVV

>  <Rbt.Executable>
rbdock ($Id: //depot/dev/client3/rdock/2013.1/src/exe/rbdock.cxx#4 $)

>  <Rbt.Library>
libRbt.so (2013.1, Build901 2013/11/27)

>  <Rbt.Parameter_File>
/export/apps/rDock/src/rDock_2013.1_src/data/scripts/dock_solv.prm

>  <Rbt.Receptor>
prm/blind_docking_40.prm

>  <SCORE>
-1.82389

>  <SCORE.INTER>
-3.39149

>  <SCORE.INTER.CONST>
1

>  <SCORE.INTER.POLAR>
0

>  <SCORE.INTER.ROT>
6

>  <SCORE.INTER.SOLV>
25.4177

>  <SCORE.INTER.VDW>
-18.3335

>  <SCORE.INTER.norm>
-0.109403

>  <SCORE.INTRA>
1.56353

>  <SCORE.INTRA.DIHEDRAL>
2.60431

>  <SCORE.INTRA.DIHEDRAL.0>
10.8172

>  <SCORE.INTRA.POLAR>
0

>  <SCORE.INTRA.POLAR.0>
0

>  <SCORE.INTRA.REPUL>
0

>  <SCORE.INTRA.REPUL.0>
0

>  <SCORE.INTRA.SOLV>
0.0867742

>  <SCORE.INTRA.SOLV.lig_0>
-80.3833

>  <SCORE.INTRA.VDW>
0.217988

>  <SCORE.INTRA.VDW.0>
-4.63762

>  <SCORE.INTRA.norm>
0.0504364

>  <SCORE.RESTR>
0.0040726

>  <SCORE.RESTR.CAVITY>
0.0040726

>  <SCORE.RESTR.norm>
0.000131374

>  <SCORE.SYSTEM>
0

>  <SCORE.SYSTEM.CONST>
0

>  <SCORE.SYSTEM.DIHEDRAL>
0

>  <SCORE.SYSTEM.SOLV>
0

>  <SCORE.SYSTEM.norm>
0

>  <SCORE.heavy>
31

>  <SCORE.norm>
-0.0588351

>  <RMSD>
6.075

$$$$
ligand
 OpenBabel11021811473D
libRbt.so/2013.1/901 2013/11/27
 31 33  0  0  0  0  0  0  0  0999 V2000
   23.7196    7.1371   15.8442 C   0  0  0  0  0  0  0  0  0  0  0  0
   20.1257    0.2331   12.4433 N   0  0  0  0  0  0  0  0  0  0  0  0
   22.9843    8.2891   15.4186 O   0  0  0  0  0  0  0  0  0  0  0  0
   22.8817    6.3075   16.8204 C   0  0  1  0  0  0  0  0  0  0  0  0
   16.4938    1.6724   15.3830 N   0  0  0  0  0  0  0  0  0  0  0  0
   21.5719    6.0664   16.2701 O   0  0  0  0  0  0  0  0  0  0  0  0
   21.3291    4.6484   16.2688 C   0  0  1  0  0  0  0  0  0  0  0  0
   13.4509    3.6290   17.9344 N   0  0  0  0  0  0  0  0  0  0  0  0
   20.5215    4.2484   15.1505 O   0  0  0  0  0  0  0  0  0  0  0  0
   20.1000    2.8774   15.2027 C   0  0  2  0  0  0  0  0  0  0  0  0
   19.2056    5.1272   18.7186 N   0  0  0  0  0  0  0  0  0  0  0  0
   21.7772    2.2156   13.5927 O   0  0  0  0  0  0  0  0  0  0  0  0
   20.3664    2.2663   13.8221 C   0  0  1  0  0  0  0  0  0  0  0  0
   18.3789    3.1381   16.9493 O   0  0  0  0  0  0  0  0  0  0  0  0
   19.7911    0.8512   13.7354 C   0  0  1  0  0  0  0  0  0  0  0  0
   16.1318    3.8250   17.0790 O   0  0  0  0  0  0  0  0  0  0  0  0
   18.2734    0.9161   13.9085 C   0  0  0  0  0  0  0  0  0  0  0  0
   15.6203    2.2998   20.3787 O   0  0  0  0  0  0  0  0  0  0  0  0
   17.9496    1.4829   15.2939 C   0  0  1  0  0  0  0  0  0  0  0  0
   17.4746    4.4219   20.9473 O   0  0  0  0  0  0  0  0  0  0  0  0
   18.6181    2.8365   15.5634 C   0  0  2  0  0  0  0  0  0  0  0  0
   22.8002    2.6885   16.4982 O   0  0  0  0  0  0  0  0  0  0  0  0
   17.5028    4.2525   17.1803 C   0  0  1  0  0  0  0  0  0  0  0  0
   23.3626    4.4634   18.3773 O   0  0  0  0  0  0  0  0  0  0  0  0
   15.7611    2.8041   18.0210 C   0  0  2  0  0  0  0  0  0  0  0  0
   14.2932    2.4295   17.8030 C   0  0  0  0  0  0  0  0  0  0  0  0
   15.9289    3.3379   19.4447 C   0  0  2  0  0  0  0  0  0  0  0  0
   17.3709    3.8013   19.6615 C   0  0  1  0  0  0  0  0  0  0  0  0
   17.7762    4.8083   18.5819 C   0  0  1  0  0  0  0  0  0  0  0  0
   22.7256    4.0565   16.0900 C   0  0  2  0  0  0  0  0  0  0  0  0
   23.5315    4.9382   17.0392 C   0  0  1  0  0  0  0  0  0  0  0  0
  1  3  1  0  0  0  0
  4  1  1  6  0  0  0
  4  6  1  0  0  0  0
  4 31  1  0  0  0  0
  6  7  1  0  0  0  0
  7  9  1  6  0  0  0
  7 30  1  0  0  0  0
  8 26  1  0  0  0  0
 10  9  1  6  0  0  0
 10 13  1  0  0  0  0
 10 21  1  0  0  0  0
 13 12  1  1  0  0  0
 13 15  1  0  0  0  0
 15  2  1  6  0  0  0
 15 17  1  0  0  0  0
 16 25  1  0  0  0  0
 16 23  1  0  0  0  0
 17 19  1  0  0  0  0
 19  5  1  6  0  0  0
 19 21  1  0  0  0  0
 21 14  1  1  0  0  0
 23 14  1  1  0  0  0
 23 29  1  0  0  0  0
 25 26  1  6  0  0  0
 25 27  1  0  0  0  0
 27 18  1  1  0  0  0
 27 28  1  0  0  0  0
 28 20  1  1  0  0  0
 28 29  1  0  0  0  0
 29 11  1  6  0  0  0
 30 22  1  1  0  0  0
 30 31  1  0  0  0  0
 31 24  1  1  0  0  0
M  END
>  <CHROM.1>
50.15362197,-171.97635893,-132.89184996,82.33988671,122.37240757,-57.10787689
19.31589052,3.64306518,16.64642166,-0.09962157,0.42452355,0.89105682

>  <Name>
ligand

>  <RI>
0

>  <Rbt.Current_Directory>
/home/itssahil/PROJECTS/Mol_Feturizer/New_Systems/rnas/3DVV

>  <Rbt.Executable>
rbdock ($Id: //depot/dev/client3/rdock/2013.1/src/exe/rbdock.cxx#4 $)

>  <Rbt.Library>
libRbt.so (2013.1, Build901 2013/11/27)

>  <Rbt.Parameter_File>
/export/apps/rDock/src/rDock_2013.1_src/data/scripts/dock_solv.prm

>  <Rbt.Receptor>
prm/pocket_docking_3.prm

>  <SCORE>
-5.95236

>  <SCORE.INTER>
-10.4604

>  <SCORE.INTER.CONST>
1

>  <SCORE.INTER.POLAR>
0

>  <SCORE.INTER.ROT>
6

>  <SCORE.INTER.SOLV>
22.499

>  <SCORE.INTER.VDW>
-22.0733

>  <SCORE.INTER.norm>
-0.337431

>  <SCORE.INTRA>
4.50801

>  <SCORE.INTRA.DIHEDRAL>
5.70003

>  <SCORE.INTRA.DIHEDRAL.0>
10.8172

>  <SCORE.INTRA.POLAR>
0

>  <SCORE.INTRA.POLAR.0>
0

>  <SCORE.INTRA.REPUL>
0

>  <SCORE.INTRA.REPUL.0>
0

>  <SCORE.INTRA.SOLV>
1.95243

>  <SCORE.INTRA.SOLV.lig_0>
-80.3833

>  <SCORE.INTRA.VDW>
0.681779

>  <SCORE.INTRA.VDW.0>
-4.63762

>  <SCORE.INTRA.norm>
0.14542

>  <SCORE.RESTR>
0

>  <SCORE.RESTR.CAVITY>
0

>  <SCORE.RESTR.norm>
0

>  <SCORE.SYSTEM>
0

>  <SCORE.SYSTEM.CONST>
0

>  <SCORE.SYSTEM.DIHEDRAL>
0

>  <SCORE.SYSTEM.SOLV>
0

>  <SCORE.SYSTEM.norm>
0

>  <SCORE.heavy>
31

>  <SCORE.norm>
-0.192012

>  <RMSD>
6.077

$$$$
ligand
 OpenBabel11021811473D
libRbt.so/2013.1/901 2013/11/27
 31 33  0  0  0  0  0  0  0  0999 V2000
   17.8556    9.0680   16.8343 C   0  0  0  0  0  0  0  0  0  0  0  0
   25.7822    6.5948   15.9216 N   0  0  0  0  0  0  0  0  0  0  0  0
   18.0561    8.9157   18.2434 O   0  0  0  0  0  0  0  0  0  0  0  0
   19.1437    9.5578   16.1680 C   0  0  1  0  0  0  0  0  0  0  0  0
   22.7706    2.8153   16.6624 N   0  0  0  0  0  0  0  0  0  0  0  0
   20.1709    8.5528   16.2739 O   0  0  0  0  0  0  0  0  0  0  0  0
   20.6684    8.2650   14.9550 C   0  0  1  0  0  0  0  0  0  0  0  0
   20.1768    2.6165   12.7639 N   0  0  0  0  0  0  0  0  0  0  0  0
   21.0585    6.8891   14.8225 O   0  0  0  0  0  0  0  0  0  0  0  0
   21.9641    6.4440   15.8432 C   0  0  2  0  0  0  0  0  0  0  0  0
   18.3951    5.3559   18.3358 N   0  0  0  0  0  0  0  0  0  0  0  0
   23.5383    8.2046   15.3283 O   0  0  0  0  0  0  0  0  0  0  0  0
   23.3831    6.7835   15.3726 C   0  0  1  0  0  0  0  0  0  0  0  0
   20.5630    4.6252   16.7430 O   0  0  0  0  0  0  0  0  0  0  0  0
   24.4258    6.1926   16.3237 C   0  0  1  0  0  0  0  0  0  0  0  0
   19.2028    4.3844   14.8377 O   0  0  0  0  0  0  0  0  0  0  0  0
   24.3059    4.6685   16.3139 C   0  0  0  0  0  0  0  0  0  0  0  0
   17.8323    1.1639   15.9452 O   0  0  0  0  0  0  0  0  0  0  0  0
   22.9152    4.2707   16.8174 C   0  0  1  0  0  0  0  0  0  0  0  0
   16.7483    3.0040   17.8697 O   0  0  0  0  0  0  0  0  0  0  0  0
   21.7770    4.9427   16.0399 C   0  0  2  0  0  0  0  0  0  0  0  0
   19.8061    8.7182   12.6947 O   0  0  0  0  0  0  0  0  0  0  0  0
   19.3594    5.0667   16.0957 C   0  0  1  0  0  0  0  0  0  0  0  0
   19.6541   10.9062   14.1737 O   0  0  0  0  0  0  0  0  0  0  0  0
   19.1124    2.9539   14.9499 C   0  0  2  0  0  0  0  0  0  0  0  0
   18.9628    2.3496   13.5517 C   0  0  0  0  0  0  0  0  0  0  0  0
   17.8835    2.5838   15.7824 C   0  0  2  0  0  0  0  0  0  0  0  0
   17.9663    3.2481   17.1583 C   0  0  1  0  0  0  0  0  0  0  0  0
   18.1696    4.7583   17.0108 C   0  0  1  0  0  0  0  0  0  0  0  0
   19.4522    8.5082   14.0637 C   0  0  2  0  0  0  0  0  0  0  0  0
   18.9057    9.7954   14.6741 C   0  0  1  0  0  0  0  0  0  0  0  0
  1  3  1  0  0  0  0
  4  1  1  6  0  0  0
  4  6  1  0  0  0  0
  4 31  1  0  0  0  0
  6  7  1  0  0  0  0
  7  9  1  1  0  0  0
  7 30  1  0  0  0  0
  8 26  1  0  0  0  0
 10  9  1  6  0  0  0
 10 13  1  0  0  0  0
 10 21  1  0  0  0  0
 13 12  1  1  0  0  0
 13 15  1  0  0  0  0
 15  2  1  6  0  0  0
 15 17  1  0  0  0  0
 16 25  1  0  0  0  0
 16 23  1  0  0  0  0
 17 19  1  0  0  0  0
 19  5  1  6  0  0  0
 19 21  1  0  0  0  0
 21 14  1  1  0  0  0
 23 14  1  1  0  0  0
 23 29  1  0  0  0  0
 25 26  1  6  0  0  0
 25 27  1  0  0  0  0
 27 18  1  1  0  0  0
 27 28  1  0  0  0  0
 28 20  1  6  0  0  0
 28 29  1  0  0  0  0
 29 11  1  1  0  0  0
 30 22  1  6  0  0  0
 30 31  1  0  0  0  0
 31 24  1  6  0  0  0
M  END
>  <CHROM.1>
65.51648933,-52.22195918,-86.58995138,64.11014617,60.04248229,64.39015203
20.29155638,5.90483122,15.75590147,1.24172687,0.09169371,-0.08776840

>  <Name>
ligand

>  <RI>
0

>  <Rbt.Current_Directory>
/home/itssahil/PROJECTS/Mol_Feturizer/New_Systems/rnas/3DVV

>  <Rbt.Executable>
rbdock ($Id: //depot/dev/client3/rdock/2013.1/src/exe/rbdock.cxx#4 $)

>  <Rbt.Library>
libRbt.so (2013.1, Build901 2013/11/27)

>  <Rbt.Parameter_File>
/export/apps/rDock/src/rDock_2013.1_src/data/scripts/dock_solv.prm

>  <Rbt.Receptor>
prm/pocket_docking_5.prm

>  <SCORE>
-11.3451

>  <SCORE.INTER>
-7.69734

>  <SCORE.INTER.CONST>
1

>  <SCORE.INTER.POLAR>
0

>  <SCORE.INTER.ROT>
6

>  <SCORE.INTER.SOLV>
22.1569

>  <SCORE.INTER.VDW>
-20.1172

>  <SCORE.INTER.norm>
-0.248301

>  <SCORE.INTRA>
-3.64773

>  <SCORE.INTRA.DIHEDRAL>
-7.03734

>  <SCORE.INTRA.DIHEDRAL.0>
10.8172

>  <SCORE.INTRA.POLAR>
0

>  <SCORE.INTRA.POLAR.0>
0

>  <SCORE.INTRA.REPUL>
0

>  <SCORE.INTRA.REPUL.0>
0

>  <SCORE.INTRA.SOLV>
-3.44093

>  <SCORE.INTRA.SOLV.lig_0>
-80.3833

>  <SCORE.INTRA.VDW>
1.59141

>  <SCORE.INTRA.VDW.0>
-4.63762

>  <SCORE.INTRA.norm>
-0.117669

>  <SCORE.RESTR>
0

>  <SCORE.RESTR.CAVITY>
0

>  <SCORE.RESTR.norm>
0

>  <SCORE.SYSTEM>
0

>  <SCORE.SYSTEM.CONST>
0

>  <SCORE.SYSTEM.DIHEDRAL>
0

>  <SCORE.SYSTEM.SOLV>
0

>  <SCORE.SYSTEM.norm>
0

>  <SCORE.heavy>
31

>  <SCORE.norm>
-0.36597

>  <RMSD>
6.077

$$$$
ligand
 OpenBabel11021811473D
libRbt.so/2013.1/901 2013/11/27
 31 33  0  0  0  0  0  0  0  0999 V2000
   15.6160    0.2049   11.0682 C   0  0  0  0  0  0  0  0  0  0  0  0
   20.8301    0.3649   13.1106 N   0  0  0  0  0  0  0  0  0  0  0  0
   16.1304    0.6853    9.8218 O   0  0  0  0  0  0  0  0  0  0  0  0
   15.5342    1.3493   12.0815 C   0  0  1  0  0  0  0  0  0  0  0  0
   19.3253    3.9981   16.0155 N   0  0  0  0  0  0  0  0  0  0  0  0
   16.8338    1.9442   12.2648 O   0  0  0  0  0  0  0  0  0  0  0  0
   16.7294    3.3581   12.0200 C   0  0  1  0  0  0  0  0  0  0  0  0
   18.3485    7.6271    9.7432 N   0  0  0  0  0  0  0  0  0  0  0  0
   17.9311    3.8869   11.4377 O   0  0  0  0  0  0  0  0  0  0  0  0
   19.1060    3.6602   12.2303 C   0  0  2  0  0  0  0  0  0  0  0  0
   20.6143    6.5213   15.6946 N   0  0  0  0  0  0  0  0  0  0  0  0
   19.7310    1.7402   10.9017 O   0  0  0  0  0  0  0  0  0  0  0  0
   19.3749    2.1509   12.2245 C   0  0  1  0  0  0  0  0  0  0  0  0
   18.8778    5.6209   13.7085 O   0  0  0  0  0  0  0  0  0  0  0  0
   20.5132    1.7993   13.1845 C   0  0  1  0  0  0  0  0  0  0  0  0
   19.9489    6.9094   12.0560 O   0  0  0  0  0  0  0  0  0  0  0  0
   20.1009    2.1728   14.6085 C   0  0  0  0  0  0  0  0  0  0  0  0
   18.4072   10.0451   13.1814 O   0  0  0  0  0  0  0  0  0  0  0  0
   19.8593    3.6834   14.6817 C   0  0  1  0  0  0  0  0  0  0  0  0
   20.1396    9.3732   15.3751 O   0  0  0  0  0  0  0  0  0  0  0  0
   18.8511    4.1844   13.6404 C   0  0  2  0  0  0  0  0  0  0  0  0
   15.0299    4.7542   10.9153 O   0  0  0  0  0  0  0  0  0  0  0  0
   20.1203    6.2195   13.3078 C   0  0  1  0  0  0  0  0  0  0  0  0
   13.8659    3.0817   12.6022 O   0  0  0  0  0  0  0  0  0  0  0  0
   18.9731    7.9647   12.0929 C   0  0  2  0  0  0  0  0  0  0  0  0
   18.8757    8.6065   10.7068 C   0  0  0  0  0  0  0  0  0  0  0  0
   19.4104    9.0292   13.1008 C   0  0  2  0  0  0  0  0  0  0  0  0
   19.5999    8.3948   14.4802 C   0  0  1  0  0  0  0  0  0  0  0  0
   20.5613    7.2064   14.3940 C   0  0  1  0  0  0  0  0  0  0  0  0
   15.6115    3.4501   10.9835 C   0  0  2  0  0  0  0  0  0  0  0  0
   14.6101    2.4517   11.5564 C   0  0  1  0  0  0  0  0  0  0  0  0
  1  3  1  0  0  0  0
  4  1  1  6  0  0  0
  4  6  1  0  0  0  0
  4 31  1  0  0  0  0
  6  7  1  0  0  0  0
  7  9  1  6  0  0  0
  7 30  1  0  0  0  0
  8 26  1  0  0  0  0
 10  9  1  6  0  0  0
 10 13  1  0  0  0  0
 10 21  1  0  0  0  0
 13 12  1  6  0  0  0
 13 15  1  0  0  0  0
 15  2  1  1  0  0  0
 15 17  1  0  0  0  0
 16 25  1  0  0  0  0
 16 23  1  0  0  0  0
 17 19  1  0  0  0  0
 19  5  1  1  0  0  0
 19 21  1  0  0  0  0
 21 14  1  6  0  0  0
 23 14  1  1  0  0  0
 23 29  1  0  0  0  0
 25 26  1  6  0  0  0
 25 27  1  0  0  0  0
 27 18  1  1  0  0  0
 27 28  1  0  0  0  0
 28 20  1  1  0  0  0
 28 29  1  0  0  0  0
 29 11  1  1  0  0  0
 30 22  1  1  0  0  0
 30 31  1  0  0  0  0
 31 24  1  1  0  0  0
M  END
>  <CHROM.1>
-57.71062740,-57.43521973,67.54329123,110.06420948,-59.94008868,65.23599843
18.33514044,4.60284827,12.65739242,2.09435921,0.62912900,3.11505730

>  <Name>
ligand

>  <RI>
0

>  <Rbt.Current_Directory>
/home/itssahil/PROJECTS/Mol_Feturizer/New_Systems/rnas/3DVV

>  <Rbt.Executable>
rbdock ($Id: //depot/dev/client3/rdock/2013.1/src/exe/rbdock.cxx#4 $)

>  <Rbt.Library>
libRbt.so (2013.1, Build901 2013/11/27)

>  <Rbt.Parameter_File>
/export/apps/rDock/src/rDock_2013.1_src/data/scripts/dock_solv.prm

>  <Rbt.Receptor>
prm/blind_docking_100.prm

>  <SCORE>
0.381198

>  <SCORE.INTER>
-2.73207

>  <SCORE.INTER.CONST>
1

>  <SCORE.INTER.POLAR>
0

>  <SCORE.INTER.ROT>
6

>  <SCORE.INTER.SOLV>
18.9426

>  <SCORE.INTER.VDW>
-15.7356

>  <SCORE.INTER.norm>
-0.0881314

>  <SCORE.INTRA>
3.02407

>  <SCORE.INTRA.DIHEDRAL>
-3.392

>  <SCORE.INTRA.DIHEDRAL.0>
10.8172

>  <SCORE.INTRA.POLAR>
0

>  <SCORE.INTRA.POLAR.0>
0

>  <SCORE.INTRA.REPUL>
0

>  <SCORE.INTRA.REPUL.0>
0

>  <SCORE.INTRA.SOLV>
-0.351123

>  <SCORE.INTRA.SOLV.lig_0>
-80.3833

>  <SCORE.INTRA.VDW>
4.89563

>  <SCORE.INTRA.VDW.0>
-4.63762

>  <SCORE.INTRA.norm>
0.0975506

>  <SCORE.RESTR>
0.0892011

>  <SCORE.RESTR.CAVITY>
0.0892011

>  <SCORE.RESTR.norm>
0.00287746

>  <SCORE.SYSTEM>
0

>  <SCORE.SYSTEM.CONST>
0

>  <SCORE.SYSTEM.DIHEDRAL>
0

>  <SCORE.SYSTEM.SOLV>
0

>  <SCORE.SYSTEM.norm>
0

>  <SCORE.heavy>
31

>  <SCORE.norm>
0.0122967

>  <RMSD>
6.089

$$$$
ligand
 OpenBabel11021811473D
libRbt.so/2013.1/901 2013/11/27
 31 33  0  0  0  0  0  0  0  0999 V2000
   23.8076    7.3235   15.8939 C   0  0  0  0  0  0  0  0  0  0  0  0
   20.8856    1.6058   13.4228 N   0  0  0  0  0  0  0  0  0  0  0  0
   24.8072    6.3849   15.4834 O   0  0  0  0  0  0  0  0  0  0  0  0
   22.4586    6.9665   15.2648 C   0  0  1  0  0  0  0  0  0  0  0  0
   16.5941    2.7926   15.4421 N   0  0  0  0  0  0  0  0  0  0  0  0
   22.0897    5.6177   15.6129 O   0  0  0  0  0  0  0  0  0  0  0  0
   20.7821    5.6403   16.2125 C   0  0  1  0  0  0  0  0  0  0  0  0
   14.4168    7.0050   17.0144 N   0  0  0  0  0  0  0  0  0  0  0  0
   20.6420    4.6267   17.2205 O   0  0  0  0  0  0  0  0  0  0  0  0
   20.1304    3.3820   16.7215 C   0  0  2  0  0  0  0  0  0  0  0  0
   18.0800    2.9700   20.6116 N   0  0  0  0  0  0  0  0  0  0  0  0
   22.1965    2.9042   15.5616 O   0  0  0  0  0  0  0  0  0  0  0  0
   20.7975    3.1266   15.3650 C   0  0  1  0  0  0  0  0  0  0  0  0
   17.9486    3.4500   17.8688 O   0  0  0  0  0  0  0  0  0  0  0  0
   20.1844    1.9030   14.6811 C   0  0  1  0  0  0  0  0  0  0  0  0
   17.7035    5.7683   18.1907 O   0  0  0  0  0  0  0  0  0  0  0  0
   18.7046    2.1717   14.4062 C   0  0  0  0  0  0  0  0  0  0  0  0
   14.1792    5.4869   19.1787 O   0  0  0  0  0  0  0  0  0  0  0  0
   17.9788    2.3934   15.7364 C   0  0  1  0  0  0  0  0  0  0  0  0
   15.5467    4.1930   21.3513 O   0  0  0  0  0  0  0  0  0  0  0  0
   18.6141    3.4943   16.5944 C   0  0  2  0  0  0  0  0  0  0  0  0
   19.4013    7.4375   17.1724 O   0  0  0  0  0  0  0  0  0  0  0  0
   18.2438    4.5525   18.7406 C   0  0  1  0  0  0  0  0  0  0  0  0
   20.3724    8.1980   14.8322 O   0  0  0  0  0  0  0  0  0  0  0  0
   16.2770    5.7519   18.0117 C   0  0  2  0  0  0  0  0  0  0  0  0
   15.8313    7.0876   17.4121 C   0  0  0  0  0  0  0  0  0  0  0  0
   15.5944    5.5665   19.3681 C   0  0  2  0  0  0  0  0  0  0  0  0
   16.0895    4.2787   20.0295 C   0  0  1  0  0  0  0  0  0  0  0  0
   17.6183    4.2740   20.1115 C   0  0  1  0  0  0  0  0  0  0  0  0
   20.7355    7.0063   16.8941 C   0  0  2  0  0  0  0  0  0  0  0  0
   21.3625    7.8837   15.8147 C   0  0  1  0  0  0  0  0  0  0  0  0
  1  3  1  0  0  0  0
  4  1  1  1  0  0  0
  4  6  1  0  0  0  0
  4 31  1  0  0  0  0
  6  7  1  0  0  0  0
  7  9  1  1  0  0  0
  7 30  1  0  0  0  0
  8 26  1  0  0  0  0
 10  9  1  6  0  0  0
 10 13  1  0  0  0  0
 10 21  1  0  0  0  0
 13 12  1  1  0  0  0
 13 15  1  0  0  0  0
 15  2  1  6  0  0  0
 15 17  1  0  0  0  0
 16 25  1  0  0  0  0
 16 23  1  0  0  0  0
 17 19  1  0  0  0  0
 19  5  1  6  0  0  0
 19 21  1  0  0  0  0
 21 14  1  1  0  0  0
 23 14  1  6  0  0  0
 23 29  1  0  0  0  0
 25 26  1  1  0  0  0
 25 27  1  0  0  0  0
 27 18  1  6  0  0  0
 27 28  1  0  0  0  0
 28 20  1  1  0  0  0
 28 29  1  0  0  0  0
 29 11  1  6  0  0  0
 30 22  1  6  0  0  0
 30 31  1  0  0  0  0
 31 24  1  6  0  0  0
M  END
>  <CHROM.1>
56.64355532,-91.10104682,40.41264571,67.05610157,64.63415529,170.55909936
19.05438968,4.90746976,16.98280779,-0.07994523,0.53429560,0.29223796

>  <Name>
ligand

>  <RI>
0

>  <Rbt.Current_Directory>
/home/itssahil/PROJECTS/Mol_Feturizer/New_Systems/rnas/3DVV

>  <Rbt.Executable>
rbdock ($Id: //depot/dev/client3/rdock/2013.1/src/exe/rbdock.cxx#4 $)

>  <Rbt.Library>
libRbt.so (2013.1, Build901 2013/11/27)

>  <Rbt.Parameter_File>
/export/apps/rDock/src/rDock_2013.1_src/data/scripts/dock_solv.prm

>  <Rbt.Receptor>
prm/pocket_docking_3.prm

>  <SCORE>
-4.1772

>  <SCORE.INTER>
-5.11412

>  <SCORE.INTER.CONST>
1

>  <SCORE.INTER.POLAR>
0

>  <SCORE.INTER.ROT>
6

>  <SCORE.INTER.SOLV>
18.0177

>  <SCORE.INTER.VDW>
-17.0153

>  <SCORE.INTER.norm>
-0.164972

>  <SCORE.INTRA>
0.936919

>  <SCORE.INTRA.DIHEDRAL>
-4.47526

>  <SCORE.INTRA.DIHEDRAL.0>
10.8172

>  <SCORE.INTRA.POLAR>
0

>  <SCORE.INTRA.POLAR.0>
0

>  <SCORE.INTRA.REPUL>
0

>  <SCORE.INTRA.REPUL.0>
0

>  <SCORE.INTRA.SOLV>
-2.35776

>  <SCORE.INTRA.SOLV.lig_0>
-80.3833

>  <SCORE.INTRA.VDW>
4.35343

>  <SCORE.INTRA.VDW.0>
-4.63762

>  <SCORE.INTRA.norm>
0.0302232

>  <SCORE.RESTR>
0

>  <SCORE.RESTR.CAVITY>
0

>  <SCORE.RESTR.norm>
0

>  <SCORE.SYSTEM>
0

>  <SCORE.SYSTEM.CONST>
0

>  <SCORE.SYSTEM.DIHEDRAL>
0

>  <SCORE.SYSTEM.SOLV>
0

>  <SCORE.SYSTEM.norm>
0

>  <SCORE.heavy>
31

>  <SCORE.norm>
-0.134748

>  <RMSD>
6.093

$$$$
ligand
 OpenBabel11021811473D
libRbt.so/2013.1/901 2013/11/27
 31 33  0  0  0  0  0  0  0  0999 V2000
   12.2368    3.8284   18.3151 C   0  0  0  0  0  0  0  0  0  0  0  0
   14.9859    8.4407   21.5837 N   0  0  0  0  0  0  0  0  0  0  0  0
   11.8108    4.1855   19.6341 O   0  0  0  0  0  0  0  0  0  0  0  0
   12.5899    5.0856   17.5163 C   0  0  1  0  0  0  0  0  0  0  0  0
   15.9231   10.5942   17.2956 N   0  0  0  0  0  0  0  0  0  0  0  0
   13.7287    5.7441   18.1043 O   0  0  0  0  0  0  0  0  0  0  0  0
   14.7346    5.9136   17.0897 C   0  0  1  0  0  0  0  0  0  0  0  0
   18.7024    4.8219   18.9833 N   0  0  0  0  0  0  0  0  0  0  0  0
   16.0603    5.8216   17.6348 O   0  0  0  0  0  0  0  0  0  0  0  0
   16.4634    6.9839   18.3740 C   0  0  2  0  0  0  0  0  0  0  0  0
   19.1242    9.8577   15.0014 N   0  0  0  0  0  0  0  0  0  0  0  0
   15.8074    5.9775   20.4715 O   0  0  0  0  0  0  0  0  0  0  0  0
   15.5496    7.0826   19.6011 C   0  0  1  0  0  0  0  0  0  0  0  0
   17.3690    8.2719   16.4762 O   0  0  0  0  0  0  0  0  0  0  0  0
   15.7979    8.3887   20.3584 C   0  0  1  0  0  0  0  0  0  0  0  0
   19.1229    7.3385   17.7374 O   0  0  0  0  0  0  0  0  0  0  0  0
   15.4521    9.5683   19.4493 C   0  0  0  0  0  0  0  0  0  0  0  0
   20.1996    5.1198   15.0181 O   0  0  0  0  0  0  0  0  0  0  0  0
   16.3680    9.5422   18.2222 C   0  0  1  0  0  0  0  0  0  0  0  0
   20.8271    7.7290   13.9869 O   0  0  0  0  0  0  0  0  0  0  0  0
   16.3316    8.2061   17.4703 C   0  0  2  0  0  0  0  0  0  0  0  0
   15.0772    4.9000   14.8732 O   0  0  0  0  0  0  0  0  0  0  0  0
   18.6888    8.4943   16.9972 C   0  0  1  0  0  0  0  0  0  0  0  0
   12.5629    5.6815   15.1288 O   0  0  0  0  0  0  0  0  0  0  0  0
   19.1818    6.1292   16.9619 C   0  0  2  0  0  0  0  0  0  0  0  0
   19.6409    4.9787   17.8608 C   0  0  0  0  0  0  0  0  0  0  0  0
   20.1903    6.3008   15.8246 C   0  0  2  0  0  0  0  0  0  0  0  0
   19.8015    7.5013   14.9593 C   0  0  1  0  0  0  0  0  0  0  0  0
   19.6409    8.7538   15.8248 C   0  0  1  0  0  0  0  0  0  0  0  0
   14.5077    4.7147   16.1712 C   0  0  2  0  0  0  0  0  0  0  0  0
   12.9843    4.7065   16.0860 C   0  0  1  0  0  0  0  0  0  0  0  0
  1  3  1  0  0  0  0
  4  1  1  1  0  0  0
  4  6  1  0  0  0  0
  4 31  1  0  0  0  0
  6  7  1  0  0  0  0
  7  9  1  1  0  0  0
  7 30  1  0  0  0  0
  8 26  1  0  0  0  0
 10  9  1  6  0  0  0
 10 13  1  0  0  0  0
 10 21  1  0  0  0  0
 13 12  1  1  0  0  0
 13 15  1  0  0  0  0
 15  2  1  1  0  0  0
 15 17  1  0  0  0  0
 16 25  1  0  0  0  0
 16 23  1  0  0  0  0
 17 19  1  0  0  0  0
 19  5  1  6  0  0  0
 19 21  1  0  0  0  0
 21 14  1  6  0  0  0
 23 14  1  6  0  0  0
 23 29  1  0  0  0  0
 25 26  1  1  0  0  0
 25 27  1  0  0  0  0
 27 18  1  6  0  0  0
 27 28  1  0  0  0  0
 28 20  1  6  0  0  0
 28 29  1  0  0  0  0
 29 11  1  6  0  0  0
 30 22  1  6  0  0  0
 30 31  1  0  0  0  0
 31 24  1  6  0  0  0
M  END
>  <CHROM.1>
64.91581826,-74.96614125,64.94210939,68.22469387,-66.75025535,58.98922989
16.48355980,6.75697023,17.37027357,3.09989698,0.47082529,0.81057228

>  <Name>
ligand

>  <RI>
0

>  <Rbt.Current_Directory>
/home/itssahil/PROJECTS/Mol_Feturizer/New_Systems/rnas/3DVV

>  <Rbt.Executable>
rbdock ($Id: //depot/dev/client3/rdock/2013.1/src/exe/rbdock.cxx#4 $)

>  <Rbt.Library>
libRbt.so (2013.1, Build901 2013/11/27)

>  <Rbt.Parameter_File>
/export/apps/rDock/src/rDock_2013.1_src/data/scripts/dock_solv.prm

>  <Rbt.Receptor>
prm/pocket_docking_5.prm

>  <SCORE>
-3.49917

>  <SCORE.INTER>
-2.66111

>  <SCORE.INTER.CONST>
1

>  <SCORE.INTER.POLAR>
0

>  <SCORE.INTER.ROT>
6

>  <SCORE.INTER.SOLV>
9.52303

>  <SCORE.INTER.VDW>
-12.5484

>  <SCORE.INTER.norm>
-0.0858423

>  <SCORE.INTRA>
-0.838058

>  <SCORE.INTRA.DIHEDRAL>
-8.7809

>  <SCORE.INTRA.DIHEDRAL.0>
10.8172

>  <SCORE.INTRA.POLAR>
0

>  <SCORE.INTRA.POLAR.0>
0

>  <SCORE.INTRA.REPUL>
0

>  <SCORE.INTRA.REPUL.0>
0

>  <SCORE.INTRA.SOLV>
-0.513473

>  <SCORE.INTRA.SOLV.lig_0>
-80.3833

>  <SCORE.INTRA.VDW>
3.80913

>  <SCORE.INTRA.VDW.0>
-4.63762

>  <SCORE.INTRA.norm>
-0.0270341

>  <SCORE.RESTR>
0

>  <SCORE.RESTR.CAVITY>
0

>  <SCORE.RESTR.norm>
0

>  <SCORE.SYSTEM>
0

>  <SCORE.SYSTEM.CONST>
0

>  <SCORE.SYSTEM.DIHEDRAL>
0

>  <SCORE.SYSTEM.SOLV>
0

>  <SCORE.SYSTEM.norm>
0

>  <SCORE.heavy>
31

>  <SCORE.norm>
-0.112876

>  <RMSD>
6.123

$$$$
ligand
 OpenBabel11021811473D
libRbt.so/2013.1/901 2013/11/27
 31 33  0  0  0  0  0  0  0  0999 V2000
   19.6628   -0.0470   12.9467 C   0  0  0  0  0  0  0  0  0  0  0  0
   22.6194    3.4253   17.2287 N   0  0  0  0  0  0  0  0  0  0  0  0
   20.9152   -0.4126   13.5354 O   0  0  0  0  0  0  0  0  0  0  0  0
   18.8851    0.8737   13.8904 C   0  0  1  0  0  0  0  0  0  0  0  0
   18.9102    6.5951   17.5413 N   0  0  0  0  0  0  0  0  0  0  0  0
   19.6684    2.0426   14.2011 O   0  0  0  0  0  0  0  0  0  0  0  0
   18.8932    3.2119   13.8823 C   0  0  1  0  0  0  0  0  0  0  0  0
   20.4983    8.4452   10.1079 N   0  0  0  0  0  0  0  0  0  0  0  0
   19.7230    4.2914   13.4250 O   0  0  0  0  0  0  0  0  0  0  0  0
   20.4496    4.9469   14.4749 C   0  0  2  0  0  0  0  0  0  0  0  0
   19.2042    9.4273   15.8841 N   0  0  0  0  0  0  0  0  0  0  0  0
   22.1786    3.2580   14.4437 O   0  0  0  0  0  0  0  0  0  0  0  0
   21.1792    3.8591   15.2716 C   0  0  1  0  0  0  0  0  0  0  0  0
   18.9776    6.9120   14.7040 O   0  0  0  0  0  0  0  0  0  0  0  0
   21.8453    4.4521   16.5148 C   0  0  1  0  0  0  0  0  0  0  0  0
   20.2288    7.5768   12.8250 O   0  0  0  0  0  0  0  0  0  0  0  0
   20.7678    5.0297   17.4329 C   0  0  0  0  0  0  0  0  0  0  0  0
   17.4435    9.4637   11.3561 O   0  0  0  0  0  0  0  0  0  0  0  0
   20.0321    6.1544   16.6985 C   0  0  1  0  0  0  0  0  0  0  0  0
   18.0641   10.9901   13.7119 O   0  0  0  0  0  0  0  0  0  0  0  0
   19.4607    5.7179   15.3440 C   0  0  2  0  0  0  0  0  0  0  0  0
   16.8754    3.5740   12.5203 O   0  0  0  0  0  0  0  0  0  0  0  0
   20.0037    7.7979   14.2296 C   0  0  1  0  0  0  0  0  0  0  0  0
   16.5185    1.5046   14.1291 O   0  0  0  0  0  0  0  0  0  0  0  0
   19.0730    7.8014   11.9998 C   0  0  2  0  0  0  0  0  0  0  0  0
   19.4371    7.5216   10.5397 C   0  0  0  0  0  0  0  0  0  0  0  0
   18.6299    9.2600   12.1280 C   0  0  2  0  0  0  0  0  0  0  0  0
   18.3428    9.5909   13.5940 C   0  0  1  0  0  0  0  0  0  0  0  0
   19.5515    9.2427   14.4667 C   0  0  1  0  0  0  0  0  0  0  0  0
   18.0240    2.7458   12.7162 C   0  0  2  0  0  0  0  0  0  0  0  0
   17.6042    1.3643   13.2094 C   0  0  1  0  0  0  0  0  0  0  0  0
  1  3  1  0  0  0  0
  4  1  1  6  0  0  0
  4  6  1  0  0  0  0
  4 31  1  0  0  0  0
  6  7  1  0  0  0  0
  7  9  1  6  0  0  0
  7 30  1  0  0  0  0
  8 26  1  0  0  0  0
 10  9  1  6  0  0  0
 10 13  1  0  0  0  0
 10 21  1  0  0  0  0
 13 12  1  6  0  0  0
 13 15  1  0  0  0  0
 15  2  1  1  0  0  0
 15 17  1  0  0  0  0
 16 25  1  0  0  0  0
 16 23  1  0  0  0  0
 17 19  1  0  0  0  0
 19  5  1  1  0  0  0
 19 21  1  0  0  0  0
 21 14  1  6  0  0  0
 23 14  1  6  0  0  0
 23 29  1  0  0  0  0
 25 26  1  6  0  0  0
 25 27  1  0  0  0  0
 27 18  1  6  0  0  0
 27 28  1  0  0  0  0
 28 20  1  6  0  0  0
 28 29  1  0  0  0  0
 29 11  1  1  0  0  0
 30 22  1  1  0  0  0
 30 31  1  0  0  0  0
 31 24  1  1  0  0  0
M  END
>  <CHROM.1>
57.31296249,-75.50982944,51.55168618,97.52959399,-53.36280981,-61.56653238
19.45593503,5.35001666,14.00153886,1.37288454,1.05900037,-3.10806683

>  <Name>
ligand

>  <RI>
0

>  <Rbt.Current_Directory>
/home/itssahil/PROJECTS/Mol_Feturizer/New_Systems/rnas/3DVV

>  <Rbt.Executable>
rbdock ($Id: //depot/dev/client3/rdock/2013.1/src/exe/rbdock.cxx#4 $)

>  <Rbt.Library>
libRbt.so (2013.1, Build901 2013/11/27)

>  <Rbt.Parameter_File>
/export/apps/rDock/src/rDock_2013.1_src/data/scripts/dock_solv.prm

>  <Rbt.Receptor>
prm/blind_docking_100.prm

>  <SCORE>
2.45404

>  <SCORE.INTER>
-0.690024

>  <SCORE.INTER.CONST>
1

>  <SCORE.INTER.POLAR>
0

>  <SCORE.INTER.ROT>
6

>  <SCORE.INTER.SOLV>
22.0527

>  <SCORE.INTER.VDW>
-15.4109

>  <SCORE.INTER.norm>
-0.0222589

>  <SCORE.INTRA>
2.59511

>  <SCORE.INTRA.DIHEDRAL>
-3.89919

>  <SCORE.INTRA.DIHEDRAL.0>
10.8172

>  <SCORE.INTRA.POLAR>
0

>  <SCORE.INTRA.POLAR.0>
0

>  <SCORE.INTRA.REPUL>
0

>  <SCORE.INTRA.REPUL.0>
0

>  <SCORE.INTRA.SOLV>
-0.459947

>  <SCORE.INTRA.SOLV.lig_0>
-80.3833

>  <SCORE.INTRA.VDW>
4.77468

>  <SCORE.INTRA.VDW.0>
-4.63762

>  <SCORE.INTRA.norm>
0.0837133

>  <SCORE.RESTR>
0.548956

>  <SCORE.RESTR.CAVITY>
0.548956

>  <SCORE.RESTR.norm>
0.0177083

>  <SCORE.SYSTEM>
0

>  <SCORE.SYSTEM.CONST>
0

>  <SCORE.SYSTEM.DIHEDRAL>
0

>  <SCORE.SYSTEM.SOLV>
0

>  <SCORE.SYSTEM.norm>
0

>  <SCORE.heavy>
31

>  <SCORE.norm>
0.0791627

>  <RMSD>
6.128

$$$$
ligand
 OpenBabel11021811473D
libRbt.so/2013.1/901 2013/11/27
 31 33  0  0  0  0  0  0  0  0999 V2000
   16.6704    4.0103   11.5428 C   0  0  0  0  0  0  0  0  0  0  0  0
   23.4476    4.0246   17.5906 N   0  0  0  0  0  0  0  0  0  0  0  0
   15.8506    3.0806   10.8269 O   0  0  0  0  0  0  0  0  0  0  0  0
   18.0711    3.4284   11.7492 C   0  0  1  0  0  0  0  0  0  0  0  0
   22.2537    8.5158   16.0717 N   0  0  0  0  0  0  0  0  0  0  0  0
   18.9199    4.3952   12.3982 O   0  0  0  0  0  0  0  0  0  0  0  0
   19.4804    3.7938   13.5789 C   0  0  1  0  0  0  0  0  0  0  0  0
   18.1633    8.8566   17.0564 N   0  0  0  0  0  0  0  0  0  0  0  0
   19.6662    4.7562   14.6287 O   0  0  0  0  0  0  0  0  0  0  0  0
   21.0370    5.1268   14.8373 C   0  0  2  0  0  0  0  0  0  0  0  0
   20.5724    7.8254   11.0929 N   0  0  0  0  0  0  0  0  0  0  0  0
   21.5649    2.9615   15.7730 O   0  0  0  0  0  0  0  0  0  0  0  0
   21.5335    4.3604   16.0688 C   0  0  1  0  0  0  0  0  0  0  0  0
   20.9200    7.3706   13.8211 O   0  0  0  0  0  0  0  0  0  0  0  0
   22.9370    4.8228   16.4656 C   0  0  1  0  0  0  0  0  0  0  0  0
   18.6453    7.7698   14.2734 O   0  0  0  0  0  0  0  0  0  0  0  0
   22.8868    6.3013   16.8514 C   0  0  0  0  0  0  0  0  0  0  0  0
   18.9899   11.4114   13.9636 O   0  0  0  0  0  0  0  0  0  0  0  0
   22.4349    7.1216   15.6397 C   0  0  1  0  0  0  0  0  0  0  0  0
   19.4548   10.5047   11.2754 O   0  0  0  0  0  0  0  0  0  0  0  0
   21.1076    6.6368   15.0439 C   0  0  2  0  0  0  0  0  0  0  0  0
   18.8970    1.7925   14.8875 O   0  0  0  0  0  0  0  0  0  0  0  0
   19.5887    7.3166   13.2849 C   0  0  1  0  0  0  0  0  0  0  0  0
   18.9525    1.2003   12.3099 O   0  0  0  0  0  0  0  0  0  0  0  0
   18.8590    9.1205   14.7172 C   0  0  2  0  0  0  0  0  0  0  0  0
   17.8060    9.4752   15.7698 C   0  0  0  0  0  0  0  0  0  0  0  0
   18.7143   10.0763   13.5316 C   0  0  2  0  0  0  0  0  0  0  0  0
   19.6987    9.6889   12.4262 C   0  0  1  0  0  0  0  0  0  0  0  0
   19.5226    8.2163   12.0462 C   0  0  1  0  0  0  0  0  0  0  0  0
   18.3976    2.8089   14.0151 C   0  0  2  0  0  0  0  0  0  0  0  0
   18.0029    2.2067   12.6699 C   0  0  1  0  0  0  0  0  0  0  0  0
  1  3  1  0  0  0  0
  4  1  1  1  0  0  0
  4  6  1  0  0  0  0
  4 31  1  0  0  0  0
  6  7  1  0  0  0  0
  7  9  1  1  0  0  0
  7 30  1  0  0  0  0
  8 26  1  0  0  0  0
 10  9  1  1  0  0  0
 10 13  1  0  0  0  0
 10 21  1  0  0  0  0
 13 12  1  6  0  0  0
 13 15  1  0  0  0  0
 15  2  1  1  0  0  0
 15 17  1  0  0  0  0
 16 25  1  0  0  0  0
 16 23  1  0  0  0  0
 17 19  1  0  0  0  0
 19  5  1  1  0  0  0
 19 21  1  0  0  0  0
 21 14  1  6  0  0  0
 23 14  1  1  0  0  0
 23 29  1  0  0  0  0
 25 26  1  1  0  0  0
 25 27  1  0  0  0  0
 27 18  1  1  0  0  0
 27 28  1  0  0  0  0
 28 20  1  6  0  0  0
 28 29  1  0  0  0  0
 29 11  1  6  0  0  0
 30 22  1  1  0  0  0
 30 31  1  0  0  0  0
 31 24  1  6  0  0  0
M  END
>  <CHROM.1>
176.54635249,-105.99602937,-101.51282626,55.81593588,69.65881103,77.05143052
19.74326499,6.07161325,14.04370999,1.73576268,0.80812808,3.12689548

>  <Name>
ligand

>  <RI>
0

>  <Rbt.Current_Directory>
/home/itssahil/PROJECTS/Mol_Feturizer/New_Systems/rnas/3DVV

>  <Rbt.Executable>
rbdock ($Id: //depot/dev/client3/rdock/2013.1/src/exe/rbdock.cxx#4 $)

>  <Rbt.Library>
libRbt.so (2013.1, Build901 2013/11/27)

>  <Rbt.Parameter_File>
/export/apps/rDock/src/rDock_2013.1_src/data/scripts/dock_solv.prm

>  <Rbt.Receptor>
prm/blind_docking_80.prm

>  <SCORE>
-0.473082

>  <SCORE.INTER>
-1.16043

>  <SCORE.INTER.CONST>
1

>  <SCORE.INTER.POLAR>
0

>  <SCORE.INTER.ROT>
6

>  <SCORE.INTER.SOLV>
25.9438

>  <SCORE.INTER.VDW>
-17.0215

>  <SCORE.INTER.norm>
-0.0374331

>  <SCORE.INTRA>
0.524473

>  <SCORE.INTRA.DIHEDRAL>
2.64078

>  <SCORE.INTRA.DIHEDRAL.0>
10.8172

>  <SCORE.INTRA.POLAR>
0

>  <SCORE.INTRA.POLAR.0>
0

>  <SCORE.INTRA.REPUL>
0

>  <SCORE.INTRA.REPUL.0>
0

>  <SCORE.INTRA.SOLV>
-3.23224

>  <SCORE.INTRA.SOLV.lig_0>
-80.3833

>  <SCORE.INTRA.VDW>
0.820204

>  <SCORE.INTRA.VDW.0>
-4.63762

>  <SCORE.INTRA.norm>
0.0169185

>  <SCORE.RESTR>
0.162871

>  <SCORE.RESTR.CAVITY>
0.162871

>  <SCORE.RESTR.norm>
0.00525389

>  <SCORE.SYSTEM>
0

>  <SCORE.SYSTEM.CONST>
0

>  <SCORE.SYSTEM.DIHEDRAL>
0

>  <SCORE.SYSTEM.SOLV>
0

>  <SCORE.SYSTEM.norm>
0

>  <SCORE.heavy>
31

>  <SCORE.norm>
-0.0152607

>  <RMSD>
6.133

$$$$
ligand
 OpenBabel11021811473D
libRbt.so/2013.1/901 2013/11/27
 31 33  0  0  0  0  0  0  0  0999 V2000
   19.3501    2.5247   11.3478 C   0  0  0  0  0  0  0  0  0  0  0  0
   24.6131    4.2838   17.7688 N   0  0  0  0  0  0  0  0  0  0  0  0
   20.3047    3.0526   10.4212 O   0  0  0  0  0  0  0  0  0  0  0  0
   20.0687    1.8791   12.5353 C   0  0  1  0  0  0  0  0  0  0  0  0
   22.5500    8.3629   16.0343 N   0  0  0  0  0  0  0  0  0  0  0  0
   20.8160    2.8729   13.2636 O   0  0  0  0  0  0  0  0  0  0  0  0
   20.4134    2.8285   14.6441 C   0  0  1  0  0  0  0  0  0  0  0  0
   18.7119    8.4899   17.3977 N   0  0  0  0  0  0  0  0  0  0  0  0
   20.4591    4.1285   15.2532 O   0  0  0  0  0  0  0  0  0  0  0  0
   21.7668    4.7201   15.2558 C   0  0  2  0  0  0  0  0  0  0  0  0
   20.3424    6.7677   11.4155 N   0  0  0  0  0  0  0  0  0  0  0  0
   22.7371    2.7675   16.2990 O   0  0  0  0  0  0  0  0  0  0  0  0
   22.5135    4.1689   16.4761 C   0  0  1  0  0  0  0  0  0  0  0  0
   21.1778    6.8032   14.0747 O   0  0  0  0  0  0  0  0  0  0  0  0
   23.8591    4.8752   16.6528 C   0  0  1  0  0  0  0  0  0  0  0  0
   19.0042    7.2646   14.8499 O   0  0  0  0  0  0  0  0  0  0  0  0
   23.6142    6.3615   16.9144 C   0  0  0  0  0  0  0  0  0  0  0  0
   19.1570   10.7961   13.8592 O   0  0  0  0  0  0  0  0  0  0  0  0
   22.9047    6.9744   15.7034 C   0  0  1  0  0  0  0  0  0  0  0  0
   19.1774    9.4316   11.3289 O   0  0  0  0  0  0  0  0  0  0  0  0
   21.6153    6.2368   15.3224 C   0  0  2  0  0  0  0  0  0  0  0  0
   18.4765    1.8459   15.8020 O   0  0  0  0  0  0  0  0  0  0  0  0
   19.7761    6.6488   13.8023 C   0  0  1  0  0  0  0  0  0  0  0  0
   19.5138    0.0835   14.1239 O   0  0  0  0  0  0  0  0  0  0  0  0
   19.2430    8.6735   15.0083 C   0  0  2  0  0  0  0  0  0  0  0  0
   18.3781    9.2031   16.1546 C   0  0  0  0  0  0  0  0  0  0  0  0
   18.8587    9.4044   13.7205 C   0  0  2  0  0  0  0  0  0  0  0  0
   19.6481    8.8328   12.5410 C   0  0  1  0  0  0  0  0  0  0  0  0
   19.4619    7.3155   12.4588 C   0  0  1  0  0  0  0  0  0  0  0  0
   18.9542    2.3844   14.5669 C   0  0  2  0  0  0  0  0  0  0  0  0
   19.0467    1.2876   13.5103 C   0  0  1  0  0  0  0  0  0  0  0  0
  1  3  1  0  0  0  0
  4  1  1  6  0  0  0
  4  6  1  0  0  0  0
  4 31  1  0  0  0  0
  6  7  1  0  0  0  0
  7  9  1  6  0  0  0
  7 30  1  0  0  0  0
  8 26  1  0  0  0  0
 10  9  1  1  0  0  0
 10 13  1  0  0  0  0
 10 21  1  0  0  0  0
 13 12  1  6  0  0  0
 13 15  1  0  0  0  0
 15  2  1  1  0  0  0
 15 17  1  0  0  0  0
 16 25  1  0  0  0  0
 16 23  1  0  0  0  0
 17 19  1  0  0  0  0
 19  5  1  1  0  0  0
 19 21  1  0  0  0  0
 21 14  1  6  0  0  0
 23 14  1  1  0  0  0
 23 29  1  0  0  0  0
 25 26  1  1  0  0  0
 25 27  1  0  0  0  0
 27 18  1  1  0  0  0
 27 28  1  0  0  0  0
 28 20  1  6  0  0  0
 28 29  1  0  0  0  0
 29 11  1  6  0  0  0
 30 22  1  1  0  0  0
 30 31  1  0  0  0  0
 31 24  1  1  0  0  0
M  END
>  <CHROM.1>
63.59954953,-60.78683501,-83.95874755,58.84237567,77.66868214,59.27248675
20.51078870,5.49934413,14.44434344,1.39087552,0.89429463,-2.99525578

>  <Name>
ligand

>  <RI>
0

>  <Rbt.Current_Directory>
/home/itssahil/PROJECTS/Mol_Feturizer/New_Systems/rnas/3DVV

>  <Rbt.Executable>
rbdock ($Id: //depot/dev/client3/rdock/2013.1/src/exe/rbdock.cxx#4 $)

>  <Rbt.Library>
libRbt.so (2013.1, Build901 2013/11/27)

>  <Rbt.Parameter_File>
/export/apps/rDock/src/rDock_2013.1_src/data/scripts/dock_solv.prm

>  <Rbt.Receptor>
prm/pocket_docking_7.prm

>  <SCORE>
-8.36671

>  <SCORE.INTER>
-4.99783

>  <SCORE.INTER.CONST>
1

>  <SCORE.INTER.POLAR>
0

>  <SCORE.INTER.ROT>
6

>  <SCORE.INTER.SOLV>
29.7681

>  <SCORE.INTER.VDW>
-20.8546

>  <SCORE.INTER.norm>
-0.16122

>  <SCORE.INTRA>
-3.36888

>  <SCORE.INTRA.DIHEDRAL>
-6.60912

>  <SCORE.INTRA.DIHEDRAL.0>
10.8172

>  <SCORE.INTRA.POLAR>
0

>  <SCORE.INTRA.POLAR.0>
0

>  <SCORE.INTRA.REPUL>
0

>  <SCORE.INTRA.REPUL.0>
0

>  <SCORE.INTRA.SOLV>
-2.60081

>  <SCORE.INTRA.SOLV.lig_0>
-80.3833

>  <SCORE.INTRA.VDW>
1.23608

>  <SCORE.INTRA.VDW.0>
-4.63762

>  <SCORE.INTRA.norm>
-0.108674

>  <SCORE.RESTR>
0

>  <SCORE.RESTR.CAVITY>
0

>  <SCORE.RESTR.norm>
0

>  <SCORE.SYSTEM>
0

>  <SCORE.SYSTEM.CONST>
0

>  <SCORE.SYSTEM.DIHEDRAL>
0

>  <SCORE.SYSTEM.SOLV>
0

>  <SCORE.SYSTEM.norm>
0

>  <SCORE.heavy>
31

>  <SCORE.norm>
-0.269894

>  <RMSD>
6.133

$$$$
ligand
 OpenBabel11021811473D
libRbt.so/2013.1/901 2013/11/27
 31 33  0  0  0  0  0  0  0  0999 V2000
   20.2629    1.8842    9.5599 C   0  0  0  0  0  0  0  0  0  0  0  0
   15.1218    8.0354   12.6650 N   0  0  0  0  0  0  0  0  0  0  0  0
   20.1535    0.4722    9.3521 O   0  0  0  0  0  0  0  0  0  0  0  0
   20.2322    2.2011   11.0572 C   0  0  1  0  0  0  0  0  0  0  0  0
   19.5207    9.7364   13.9534 N   0  0  0  0  0  0  0  0  0  0  0  0
   20.5003    3.6001   11.2744 O   0  0  0  0  0  0  0  0  0  0  0  0
   19.4279    4.1566   12.0554 C   0  0  1  0  0  0  0  0  0  0  0  0
   21.2105    2.0989   14.2400 N   0  0  0  0  0  0  0  0  0  0  0  0
   19.1697    5.5253   11.7049 O   0  0  0  0  0  0  0  0  0  0  0  0
   18.5121    6.2727   12.7388 C   0  0  2  0  0  0  0  0  0  0  0  0
   21.9435    8.4014   15.9017 N   0  0  0  0  0  0  0  0  0  0  0  0
   16.3298    5.5801   11.9642 O   0  0  0  0  0  0  0  0  0  0  0  0
   17.1576    6.7259   12.1819 C   0  0  1  0  0  0  0  0  0  0  0  0
   20.5388    7.0689   13.8963 O   0  0  0  0  0  0  0  0  0  0  0  0
   16.4590    7.6733   13.1592 C   0  0  1  0  0  0  0  0  0  0  0  0
   19.8873    5.3491   15.3647 O   0  0  0  0  0  0  0  0  0  0  0  0
   17.3117    8.9302   13.3342 C   0  0  0  0  0  0  0  0  0  0  0  0
   23.1877    3.7426   15.3079 O   0  0  0  0  0  0  0  0  0  0  0  0
   18.6673    8.5387   13.9297 C   0  0  1  0  0  0  0  0  0  0  0  0
   23.7196    6.2251   16.6567 O   0  0  0  0  0  0  0  0  0  0  0  0
   19.3935    7.4588   13.1184 C   0  0  2  0  0  0  0  0  0  0  0  0
   17.1530    3.3805   12.5852 O   0  0  0  0  0  0  0  0  0  0  0  0
   20.2529    6.7379   15.2643 C   0  0  1  0  0  0  0  0  0  0  0  0
   18.8864    1.4183   12.9630 O   0  0  0  0  0  0  0  0  0  0  0  0
   20.9070    4.4372   14.9219 C   0  0  2  0  0  0  0  0  0  0  0  0
   20.3937    3.0026   15.0657 C   0  0  0  0  0  0  0  0  0  0  0  0
   22.1546    4.6054   15.7910 C   0  0  2  0  0  0  0  0  0  0  0  0
   22.6386    6.0557   15.7336 C   0  0  1  0  0  0  0  0  0  0  0  0
   21.5033    7.0128   16.1064 C   0  0  1  0  0  0  0  0  0  0  0  0
   18.2219    3.3174   11.6382 C   0  0  2  0  0  0  0  0  0  0  0  0
   18.8380    1.9216   11.6255 C   0  0  1  0  0  0  0  0  0  0  0  0
  1  3  1  0  0  0  0
  4  1  1  6  0  0  0
  4  6  1  0  0  0  0
  4 31  1  0  0  0  0
  6  7  1  0  0  0  0
  7  9  1  6  0  0  0
  7 30  1  0  0  0  0
  8 26  1  0  0  0  0
 10  9  1  6  0  0  0
 10 13  1  0  0  0  0
 10 21  1  0  0  0  0
 13 12  1  1  0  0  0
 13 15  1  0  0  0  0
 15  2  1  6  0  0  0
 15 17  1  0  0  0  0
 16 25  1  0  0  0  0
 16 23  1  0  0  0  0
 17 19  1  0  0  0  0
 19  5  1  6  0  0  0
 19 21  1  0  0  0  0
 21 14  1  1  0  0  0
 23 14  1  6  0  0  0
 23 29  1  0  0  0  0
 25 26  1  1  0  0  0
 25 27  1  0  0  0  0
 27 18  1  6  0  0  0
 27 28  1  0  0  0  0
 28 20  1  1  0  0  0
 28 29  1  0  0  0  0
 29 11  1  6  0  0  0
 30 22  1  1  0  0  0
 30 31  1  0  0  0  0
 31 24  1  1  0  0  0
M  END
>  <CHROM.1>
173.22688363,-157.38645352,-117.93970905,86.96912069,-74.92916964,161.88660818
19.68141852,5.15827273,13.37357520,-1.72149407,-0.59944811,0.50072327

>  <Name>
ligand

>  <RI>
0

>  <Rbt.Current_Directory>
/home/itssahil/PROJECTS/Mol_Feturizer/New_Systems/rnas/3DVV

>  <Rbt.Executable>
rbdock ($Id: //depot/dev/client3/rdock/2013.1/src/exe/rbdock.cxx#4 $)

>  <Rbt.Library>
libRbt.so (2013.1, Build901 2013/11/27)

>  <Rbt.Parameter_File>
/export/apps/rDock/src/rDock_2013.1_src/data/scripts/dock_solv.prm

>  <Rbt.Receptor>
prm/blind_docking_40.prm

>  <SCORE>
2.25884

>  <SCORE.INTER>
-3.6117

>  <SCORE.INTER.CONST>
1

>  <SCORE.INTER.POLAR>
0

>  <SCORE.INTER.ROT>
6

>  <SCORE.INTER.SOLV>
21.8065

>  <SCORE.INTER.VDW>
-17.2766

>  <SCORE.INTER.norm>
-0.116507

>  <SCORE.INTRA>
5.84937

>  <SCORE.INTRA.DIHEDRAL>
4.07625

>  <SCORE.INTRA.DIHEDRAL.0>
10.8172

>  <SCORE.INTRA.POLAR>
0

>  <SCORE.INTRA.POLAR.0>
0

>  <SCORE.INTRA.REPUL>
0

>  <SCORE.INTRA.REPUL.0>
0

>  <SCORE.INTRA.SOLV>
3.71767

>  <SCORE.INTRA.SOLV.lig_0>
-80.3833

>  <SCORE.INTRA.VDW>
1.95241

>  <SCORE.INTRA.VDW.0>
-4.63762

>  <SCORE.INTRA.norm>
0.188689

>  <SCORE.RESTR>
0.0211723

>  <SCORE.RESTR.CAVITY>
0.0211723

>  <SCORE.RESTR.norm>
0.000682977

>  <SCORE.SYSTEM>
0

>  <SCORE.SYSTEM.CONST>
0

>  <SCORE.SYSTEM.DIHEDRAL>
0

>  <SCORE.SYSTEM.SOLV>
0

>  <SCORE.SYSTEM.norm>
0

>  <SCORE.heavy>
31

>  <SCORE.norm>
0.0728659

>  <RMSD>
6.136

$$$$
ligand
 OpenBabel11021811473D
libRbt.so/2013.1/901 2013/11/27
 31 33  0  0  0  0  0  0  0  0999 V2000
   23.6866    7.2078   15.9214 C   0  0  0  0  0  0  0  0  0  0  0  0
   20.1808    0.2801   12.4679 N   0  0  0  0  0  0  0  0  0  0  0  0
   24.9936    7.4596   16.4477 O   0  0  0  0  0  0  0  0  0  0  0  0
   22.8866    6.3344   16.8912 C   0  0  1  0  0  0  0  0  0  0  0  0
   16.5187    1.6731   15.3922 N   0  0  0  0  0  0  0  0  0  0  0  0
   21.5706    6.0812   16.3616 O   0  0  0  0  0  0  0  0  0  0  0  0
   21.3567    4.6590   16.3259 C   0  0  1  0  0  0  0  0  0  0  0  0
   13.4441    3.6353   17.9555 N   0  0  0  0  0  0  0  0  0  0  0  0
   20.5338    4.2729   15.2138 O   0  0  0  0  0  0  0  0  0  0  0  0
   20.1195    2.8993   15.2505 C   0  0  2  0  0  0  0  0  0  0  0  0
   19.2017    5.0986   18.7876 N   0  0  0  0  0  0  0  0  0  0  0  0
   21.8125    2.2611   13.6477 O   0  0  0  0  0  0  0  0  0  0  0  0
   20.3998    2.3020   13.8666 C   0  0  1  0  0  0  0  0  0  0  0  0
   18.3836    3.1349   16.9861 O   0  0  0  0  0  0  0  0  0  0  0  0
   19.8329    0.8847   13.7628 C   0  0  1  0  0  0  0  0  0  0  0  0
   16.1391    3.8330   17.0991 O   0  0  0  0  0  0  0  0  0  0  0  0
   18.3136    0.9398   13.9248 C   0  0  0  0  0  0  0  0  0  0  0  0
   15.5827    2.2722   20.3748 O   0  0  0  0  0  0  0  0  0  0  0  0
   17.9762    1.4924   15.3127 C   0  0  1  0  0  0  0  0  0  0  0  0
   17.4422    4.3770   20.9886 O   0  0  0  0  0  0  0  0  0  0  0  0
   18.6351    2.8471   15.5995 C   0  0  2  0  0  0  0  0  0  0  0  0
   22.8718    2.7247   16.4703 O   0  0  0  0  0  0  0  0  0  0  0  0
   17.5111    4.2514   17.2205 C   0  0  1  0  0  0  0  0  0  0  0  0
   23.4378    4.4589   18.3860 O   0  0  0  0  0  0  0  0  0  0  0  0
   15.7523    2.8032   18.0249 C   0  0  2  0  0  0  0  0  0  0  0  0
   14.2849    2.4395   17.7863 C   0  0  0  0  0  0  0  0  0  0  0  0
   15.9073    3.3193   19.4565 C   0  0  2  0  0  0  0  0  0  0  0  0
   17.3493    3.7721   19.6946 C   0  0  1  0  0  0  0  0  0  0  0  0
   17.7721    4.7893   18.6314 C   0  0  1  0  0  0  0  0  0  0  0  0
   22.7608    4.1015   16.1019 C   0  0  2  0  0  0  0  0  0  0  0  0
   23.5686    4.9735   17.0584 C   0  0  1  0  0  0  0  0  0  0  0  0
  1  3  1  0  0  0  0
  4  1  1  6  0  0  0
  4  6  1  0  0  0  0
  4 31  1  0  0  0  0
  6  7  1  0  0  0  0
  7  9  1  6  0  0  0
  7 30  1  0  0  0  0
  8 26  1  0  0  0  0
 10  9  1  6  0  0  0
 10 13  1  0  0  0  0
 10 21  1  0  0  0  0
 13 12  1  1  0  0  0
 13 15  1  0  0  0  0
 15  2  1  6  0  0  0
 15 17  1  0  0  0  0
 16 25  1  0  0  0  0
 16 23  1  0  0  0  0
 17 19  1  0  0  0  0
 19  5  1  6  0  0  0
 19 21  1  0  0  0  0
 21 14  1  1  0  0  0
 23 14  1  1  0  0  0
 23 29  1  0  0  0  0
 25 26  1  6  0  0  0
 25 27  1  0  0  0  0
 27 18  1  1  0  0  0
 27 28  1  0  0  0  0
 28 20  1  1  0  0  0
 28 29  1  0  0  0  0
 29 11  1  6  0  0  0
 30 22  1  1  0  0  0
 30 31  1  0  0  0  0
 31 24  1  1  0  0  0
M  END
>  <CHROM.1>
179.98232324,-170.80302855,-131.51249692,82.26085397,121.73029856,-58.50950102
19.40175305,3.62356176,16.71449833,-0.07313242,0.38583322,0.92992978

>  <Name>
ligand

>  <RI>
0

>  <Rbt.Current_Directory>
/home/itssahil/PROJECTS/Mol_Feturizer/New_Systems/rnas/3DVV

>  <Rbt.Executable>
rbdock ($Id: //depot/dev/client3/rdock/2013.1/src/exe/rbdock.cxx#4 $)

>  <Rbt.Library>
libRbt.so (2013.1, Build901 2013/11/27)

>  <Rbt.Parameter_File>
/export/apps/rDock/src/rDock_2013.1_src/data/scripts/dock_solv.prm

>  <Rbt.Receptor>
prm/pocket_docking_3.prm

>  <SCORE>
-6.21702

>  <SCORE.INTER>
-10.6661

>  <SCORE.INTER.CONST>
1

>  <SCORE.INTER.POLAR>
0

>  <SCORE.INTER.ROT>
6

>  <SCORE.INTER.SOLV>
22.2268

>  <SCORE.INTER.VDW>
-22.1197

>  <SCORE.INTER.norm>
-0.344069

>  <SCORE.INTRA>
4.44913

>  <SCORE.INTRA.DIHEDRAL>
5.58937

>  <SCORE.INTRA.DIHEDRAL.0>
10.8172

>  <SCORE.INTRA.POLAR>
0

>  <SCORE.INTRA.POLAR.0>
0

>  <SCORE.INTRA.REPUL>
0

>  <SCORE.INTRA.REPUL.0>
0

>  <SCORE.INTRA.SOLV>
1.89057

>  <SCORE.INTRA.SOLV.lig_0>
-80.3833

>  <SCORE.INTRA.VDW>
0.709158

>  <SCORE.INTRA.VDW.0>
-4.63762

>  <SCORE.INTRA.norm>
0.14352

>  <SCORE.RESTR>
0

>  <SCORE.RESTR.CAVITY>
0

>  <SCORE.RESTR.norm>
0

>  <SCORE.SYSTEM>
0

>  <SCORE.SYSTEM.CONST>
0

>  <SCORE.SYSTEM.DIHEDRAL>
0

>  <SCORE.SYSTEM.SOLV>
0

>  <SCORE.SYSTEM.norm>
0

>  <SCORE.heavy>
31

>  <SCORE.norm>
-0.200549

>  <RMSD>
6.140

$$$$
ligand
 OpenBabel11021811473D
libRbt.so/2013.1/901 2013/11/27
 31 33  0  0  0  0  0  0  0  0999 V2000
   22.1369    7.3875   15.7373 C   0  0  0  0  0  0  0  0  0  0  0  0
   21.5303    1.9284   13.6272 N   0  0  0  0  0  0  0  0  0  0  0  0
   22.4158    6.7283   16.9768 O   0  0  0  0  0  0  0  0  0  0  0  0
   20.6708    7.1815   15.3484 C   0  0  1  0  0  0  0  0  0  0  0  0
   16.7217    2.7612   13.3318 N   0  0  0  0  0  0  0  0  0  0  0  0
   20.3205    5.7876   15.4524 O   0  0  0  0  0  0  0  0  0  0  0  0
   19.1703    5.6665   16.3080 C   0  0  1  0  0  0  0  0  0  0  0  0
   15.7507    6.7268   13.6412 N   0  0  0  0  0  0  0  0  0  0  0  0
   19.1974    4.4467   17.0657 O   0  0  0  0  0  0  0  0  0  0  0  0
   19.1021    3.2631   16.2595 C   0  0  2  0  0  0  0  0  0  0  0  0
   15.3572    2.5780   18.5707 N   0  0  0  0  0  0  0  0  0  0  0  0
   21.5024    2.9783   16.2493 O   0  0  0  0  0  0  0  0  0  0  0  0
   20.3708    3.1931   15.4016 C   0  0  1  0  0  0  0  0  0  0  0  0
   16.6411    3.1404   16.1612 O   0  0  0  0  0  0  0  0  0  0  0  0
   20.2773    2.0512   14.3876 C   0  0  1  0  0  0  0  0  0  0  0  0
   15.9105    5.3773   16.1853 O   0  0  0  0  0  0  0  0  0  0  0  0
   19.1107    2.3200   13.4366 C   0  0  0  0  0  0  0  0  0  0  0  0
   12.4964    4.5100   15.1519 O   0  0  0  0  0  0  0  0  0  0  0  0
   17.8069    2.3585   14.2393 C   0  0  1  0  0  0  0  0  0  0  0  0
   12.6691    3.3599   17.7810 O   0  0  0  0  0  0  0  0  0  0  0  0
   17.8435    3.3575   15.4022 C   0  0  2  0  0  0  0  0  0  0  0  0
   18.1068    7.1882   17.9240 O   0  0  0  0  0  0  0  0  0  0  0  0
   16.2515    4.2399   16.9991 C   0  0  1  0  0  0  0  0  0  0  0  0
   18.6001    8.4730   15.6648 O   0  0  0  0  0  0  0  0  0  0  0  0
   14.8233    5.1455   15.2734 C   0  0  2  0  0  0  0  0  0  0  0  0
   14.5690    6.4181   14.4621 C   0  0  0  0  0  0  0  0  0  0  0  0
   13.5590    4.8019   16.0633 C   0  0  2  0  0  0  0  0  0  0  0  0
   13.8139    3.5819   16.9508 C   0  0  1  0  0  0  0  0  0  0  0  0
   15.0413    3.8127   17.8364 C   0  0  1  0  0  0  0  0  0  0  0  0
   19.3314    6.8375   17.2752 C   0  0  2  0  0  0  0  0  0  0  0  0
   19.7584    7.9429   16.3142 C   0  0  1  0  0  0  0  0  0  0  0  0
  1  3  1  0  0  0  0
  4  1  1  1  0  0  0
  4  6  1  0  0  0  0
  4 31  1  0  0  0  0
  6  7  1  0  0  0  0
  7  9  1  1  0  0  0
  7 30  1  0  0  0  0
  8 26  1  0  0  0  0
 10  9  1  1  0  0  0
 10 13  1  0  0  0  0
 10 21  1  0  0  0  0
 13 12  1  1  0  0  0
 13 15  1  0  0  0  0
 15  2  1  6  0  0  0
 15 17  1  0  0  0  0
 16 25  1  0  0  0  0
 16 23  1  0  0  0  0
 17 19  1  0  0  0  0
 19  5  1  6  0  0  0
 19 21  1  0  0  0  0
 21 14  1  1  0  0  0
 23 14  1  6  0  0  0
 23 29  1  0  0  0  0
 25 26  1  1  0  0  0
 25 27  1  0  0  0  0
 27 18  1  6  0  0  0
 27 28  1  0  0  0  0
 28 20  1  1  0  0  0
 28 29  1  0  0  0  0
 29 11  1  6  0  0  0
 30 22  1  6  0  0  0
 30 31  1  0  0  0  0
 31 24  1  6  0  0  0
M  END
>  <CHROM.1>
-48.88998768,-64.90329850,65.64171560,64.94617994,74.96337406,63.44952605
17.77259207,4.72299739,15.87672728,0.14662518,0.12285355,0.28110064

>  <Name>
ligand

>  <RI>
0

>  <Rbt.Current_Directory>
/home/itssahil/PROJECTS/Mol_Feturizer/New_Systems/rnas/3DVV

>  <Rbt.Executable>
rbdock ($Id: //depot/dev/client3/rdock/2013.1/src/exe/rbdock.cxx#4 $)

>  <Rbt.Library>
libRbt.so (2013.1, Build901 2013/11/27)

>  <Rbt.Parameter_File>
/export/apps/rDock/src/rDock_2013.1_src/data/scripts/dock_solv.prm

>  <Rbt.Receptor>
prm/pocket_docking_5.prm

>  <SCORE>
-5.94717

>  <SCORE.INTER>
-3.48213

>  <SCORE.INTER.CONST>
1

>  <SCORE.INTER.POLAR>
0

>  <SCORE.INTER.ROT>
6

>  <SCORE.INTER.SOLV>
15.0384

>  <SCORE.INTER.VDW>
-14.9342

>  <SCORE.INTER.norm>
-0.112327

>  <SCORE.INTRA>
-2.46504

>  <SCORE.INTRA.DIHEDRAL>
-8.64934

>  <SCORE.INTRA.DIHEDRAL.0>
10.8172

>  <SCORE.INTRA.POLAR>
0

>  <SCORE.INTRA.POLAR.0>
0

>  <SCORE.INTRA.REPUL>
0

>  <SCORE.INTRA.REPUL.0>
0

>  <SCORE.INTRA.SOLV>
-1.76836

>  <SCORE.INTRA.SOLV.lig_0>
-80.3833

>  <SCORE.INTRA.VDW>
2.74381

>  <SCORE.INTRA.VDW.0>
-4.63762

>  <SCORE.INTRA.norm>
-0.0795176

>  <SCORE.RESTR>
0

>  <SCORE.RESTR.CAVITY>
0

>  <SCORE.RESTR.norm>
0

>  <SCORE.SYSTEM>
0

>  <SCORE.SYSTEM.CONST>
0

>  <SCORE.SYSTEM.DIHEDRAL>
0

>  <SCORE.SYSTEM.SOLV>
0

>  <SCORE.SYSTEM.norm>
0

>  <SCORE.heavy>
31

>  <SCORE.norm>
-0.191844

>  <RMSD>
6.142

$$$$
ligand
 OpenBabel11021811473D
libRbt.so/2013.1/901 2013/11/27
 31 33  0  0  0  0  0  0  0  0999 V2000
   17.8598    8.8900   16.5134 C   0  0  0  0  0  0  0  0  0  0  0  0
   25.6866    6.9722   16.2785 N   0  0  0  0  0  0  0  0  0  0  0  0
   18.0865    8.7400   17.9188 O   0  0  0  0  0  0  0  0  0  0  0  0
   19.1334    9.3851   15.8235 C   0  0  1  0  0  0  0  0  0  0  0  0
   23.1776    2.7782   16.4123 N   0  0  0  0  0  0  0  0  0  0  0  0
   20.1904    8.4182   15.9789 O   0  0  0  0  0  0  0  0  0  0  0  0
   20.6982    8.0807   14.6758 C   0  0  1  0  0  0  0  0  0  0  0  0
   19.0970    2.9225   11.7164 N   0  0  0  0  0  0  0  0  0  0  0  0
   21.1301    6.7124   14.6117 O   0  0  0  0  0  0  0  0  0  0  0  0
   21.9643    6.3173   15.7108 C   0  0  2  0  0  0  0  0  0  0  0  0
   18.2440    4.0688   17.5432 N   0  0  0  0  0  0  0  0  0  0  0  0
   23.3213    8.3067   15.5018 O   0  0  0  0  0  0  0  0  0  0  0  0
   23.3658    6.8784   15.4433 C   0  0  1  0  0  0  0  0  0  0  0  0
   20.7408    4.2645   16.3192 O   0  0  0  0  0  0  0  0  0  0  0  0
   24.3636    6.3627   16.4822 C   0  0  1  0  0  0  0  0  0  0  0  0
   19.7948    4.2023   14.1653 O   0  0  0  0  0  0  0  0  0  0  0  0
   24.4637    4.8414   16.3686 C   0  0  0  0  0  0  0  0  0  0  0  0
   19.1864    0.5842   14.2914 O   0  0  0  0  0  0  0  0  0  0  0  0
   23.0946    4.2241   16.6688 C   0  0  1  0  0  0  0  0  0  0  0  0
   17.3751    1.5963   16.2812 O   0  0  0  0  0  0  0  0  0  0  0  0
   21.9710    4.7939   15.7945 C   0  0  2  0  0  0  0  0  0  0  0  0
   19.8256    8.3949   12.3960 O   0  0  0  0  0  0  0  0  0  0  0  0
   19.5736    4.5689   15.5398 C   0  0  1  0  0  0  0  0  0  0  0  0
   19.6053   10.6479   13.7647 O   0  0  0  0  0  0  0  0  0  0  0  0
   20.0746    2.8063   13.9650 C   0  0  2  0  0  0  0  0  0  0  0  0
   20.3026    2.5494   12.4734 C   0  0  0  0  0  0  0  0  0  0  0  0
   18.8796    1.9738   14.4330 C   0  0  2  0  0  0  0  0  0  0  0  0
   18.5754    2.2776   15.9014 C   0  0  1  0  0  0  0  0  0  0  0  0
   18.3869    3.7829   16.1074 C   0  0  1  0  0  0  0  0  0  0  0  0
   19.4764    8.2423   13.7738 C   0  0  2  0  0  0  0  0  0  0  0  0
   18.8903    9.5410   14.3196 C   0  0  1  0  0  0  0  0  0  0  0  0
  1  3  1  0  0  0  0
  4  1  1  1  0  0  0
  4  6  1  0  0  0  0
  4 31  1  0  0  0  0
  6  7  1  0  0  0  0
  7  9  1  1  0  0  0
  7 30  1  0  0  0  0
  8 26  1  0  0  0  0
 10  9  1  6  0  0  0
 10 13  1  0  0  0  0
 10 21  1  0  0  0  0
 13 12  1  1  0  0  0
 13 15  1  0  0  0  0
 15  2  1  6  0  0  0
 15 17  1  0  0  0  0
 16 25  1  0  0  0  0
 16 23  1  0  0  0  0
 17 19  1  0  0  0  0
 19  5  1  6  0  0  0
 19 21  1  0  0  0  0
 21 14  1  1  0  0  0
 23 14  1  1  0  0  0
 23 29  1  0  0  0  0
 25 26  1  6  0  0  0
 25 27  1  0  0  0  0
 27 18  1  1  0  0  0
 27 28  1  0  0  0  0
 28 20  1  6  0  0  0
 28 29  1  0  0  0  0
 29 11  1  1  0  0  0
 30 22  1  6  0  0  0
 30 31  1  0  0  0  0
 31 24  1  6  0  0  0
M  END
>  <CHROM.1>
62.18573479,-47.63315347,-77.74155227,51.79829604,61.05510688,-60.03987266
20.50374452,5.64135295,15.25514425,1.38178692,-0.19113927,0.01570524

>  <Name>
ligand

>  <RI>
0

>  <Rbt.Current_Directory>
/home/itssahil/PROJECTS/Mol_Feturizer/New_Systems/rnas/3DVV

>  <Rbt.Executable>
rbdock ($Id: //depot/dev/client3/rdock/2013.1/src/exe/rbdock.cxx#4 $)

>  <Rbt.Library>
libRbt.so (2013.1, Build901 2013/11/27)

>  <Rbt.Parameter_File>
/export/apps/rDock/src/rDock_2013.1_src/data/scripts/dock_solv.prm

>  <Rbt.Receptor>
prm/pocket_docking_5.prm

>  <SCORE>
-11.0742

>  <SCORE.INTER>
-8.18388

>  <SCORE.INTER.CONST>
1

>  <SCORE.INTER.POLAR>
0

>  <SCORE.INTER.ROT>
6

>  <SCORE.INTER.SOLV>
21.8402

>  <SCORE.INTER.VDW>
-20.336

>  <SCORE.INTER.norm>
-0.263996

>  <SCORE.INTRA>
-2.89035

>  <SCORE.INTRA.DIHEDRAL>
-8.05206

>  <SCORE.INTRA.DIHEDRAL.0>
10.8172

>  <SCORE.INTRA.POLAR>
0

>  <SCORE.INTRA.POLAR.0>
0

>  <SCORE.INTRA.REPUL>
0

>  <SCORE.INTRA.REPUL.0>
0

>  <SCORE.INTRA.SOLV>
-2.9974

>  <SCORE.INTRA.SOLV.lig_0>
-80.3833

>  <SCORE.INTRA.VDW>
2.63438

>  <SCORE.INTRA.VDW.0>
-4.63762

>  <SCORE.INTRA.norm>
-0.0932372

>  <SCORE.RESTR>
0

>  <SCORE.RESTR.CAVITY>
0

>  <SCORE.RESTR.norm>
0

>  <SCORE.SYSTEM>
0

>  <SCORE.SYSTEM.CONST>
0

>  <SCORE.SYSTEM.DIHEDRAL>
0

>  <SCORE.SYSTEM.SOLV>
0

>  <SCORE.SYSTEM.norm>
0

>  <SCORE.heavy>
31

>  <SCORE.norm>
-0.357233

>  <RMSD>
6.155

$$$$
ligand
 OpenBabel11021811473D
libRbt.so/2013.1/901 2013/11/27
 31 33  0  0  0  0  0  0  0  0999 V2000
   15.9110    4.2783   12.9650 C   0  0  0  0  0  0  0  0  0  0  0  0
   14.9155    2.0782   20.9670 N   0  0  0  0  0  0  0  0  0  0  0  0
   15.5150    4.0908   11.6023 O   0  0  0  0  0  0  0  0  0  0  0  0
   14.9236    3.5784   13.9023 C   0  0  1  0  0  0  0  0  0  0  0  0
   17.9216    5.9249   20.7011 N   0  0  0  0  0  0  0  0  0  0  0  0
   15.3810    3.6725   15.2655 O   0  0  0  0  0  0  0  0  0  0  0  0
   14.3316    4.2502   16.0623 C   0  0  1  0  0  0  0  0  0  0  0  0
   14.7401    8.9867   19.2857 N   0  0  0  0  0  0  0  0  0  0  0  0
   14.8564    5.0567   17.1286 O   0  0  0  0  0  0  0  0  0  0  0  0
   15.7442    4.3483   18.0061 C   0  0  2  0  0  0  0  0  0  0  0  0
   19.3060    6.2493   15.6422 N   0  0  0  0  0  0  0  0  0  0  0  0
   14.1599    2.5443   18.2855 O   0  0  0  0  0  0  0  0  0  0  0  0
   14.8756    3.5601   18.9934 C   0  0  1  0  0  0  0  0  0  0  0  0
   17.6501    5.9061   17.8583 O   0  0  0  0  0  0  0  0  0  0  0  0
   15.7396    2.9071   20.0741 C   0  0  1  0  0  0  0  0  0  0  0  0
   16.2618    7.6944   17.2161 O   0  0  0  0  0  0  0  0  0  0  0  0
   16.4477    3.9988   20.8768 C   0  0  0  0  0  0  0  0  0  0  0  0
   18.6554   10.2471   18.3253 O   0  0  0  0  0  0  0  0  0  0  0  0
   17.3649    4.7941   19.9431 C   0  0  1  0  0  0  0  0  0  0  0  0
   20.0162    9.0320   16.1034 O   0  0  0  0  0  0  0  0  0  0  0  0
   16.6350    5.3611   18.7193 C   0  0  2  0  0  0  0  0  0  0  0  0
   12.2876    5.5017   15.5022 O   0  0  0  0  0  0  0  0  0  0  0  0
   17.1517    6.6652   16.7457 C   0  0  1  0  0  0  0  0  0  0  0  0
   12.4745    3.3495   13.9753 O   0  0  0  0  0  0  0  0  0  0  0  0
   16.8705    8.6332   18.1190 C   0  0  2  0  0  0  0  0  0  0  0  0
   15.8239    9.6617   18.5541 C   0  0  0  0  0  0  0  0  0  0  0  0
   18.0119    9.3607   17.4060 C   0  0  2  0  0  0  0  0  0  0  0  0
   19.0312    8.3462   16.8836 C   0  0  1  0  0  0  0  0  0  0  0  0
   18.3398    7.2953   16.0110 C   0  0  1  0  0  0  0  0  0  0  0  0
   13.6103    5.1666   15.0761 C   0  0  2  0  0  0  0  0  0  0  0  0
   13.5594    4.2713   13.8416 C   0  0  1  0  0  0  0  0  0  0  0  0
  1  3  1  0  0  0  0
  4  1  1  6  0  0  0
  4  6  1  0  0  0  0
  4 31  1  0  0  0  0
  6  7  1  0  0  0  0
  7  9  1  1  0  0  0
  7 30  1  0  0  0  0
  8 26  1  0  0  0  0
 10  9  1  6  0  0  0
 10 13  1  0  0  0  0
 10 21  1  0  0  0  0
 13 12  1  6  0  0  0
 13 15  1  0  0  0  0
 15  2  1  1  0  0  0
 15 17  1  0  0  0  0
 16 25  1  0  0  0  0
 16 23  1  0  0  0  0
 17 19  1  0  0  0  0
 19  5  1  1  0  0  0
 19 21  1  0  0  0  0
 21 14  1  6  0  0  0
 23 14  1  1  0  0  0
 23 29  1  0  0  0  0
 25 26  1  6  0  0  0
 25 27  1  0  0  0  0
 27 18  1  1  0  0  0
 27 28  1  0  0  0  0
 28 20  1  6  0  0  0
 28 29  1  0  0  0  0
 29 11  1  1  0  0  0
 30 22  1  1  0  0  0
 30 31  1  0  0  0  0
 31 24  1  1  0  0  0
M  END
>  <CHROM.1>
175.26539134,-57.25752685,-80.96948632,53.90413934,63.44979574,62.59324707
16.06261461,5.70682167,17.05314453,-2.85485407,0.93123273,1.81269014

>  <Name>
ligand

>  <RI>
0

>  <Rbt.Current_Directory>
/home/itssahil/PROJECTS/Mol_Feturizer/New_Systems/rnas/3DVV

>  <Rbt.Executable>
rbdock ($Id: //depot/dev/client3/rdock/2013.1/src/exe/rbdock.cxx#4 $)

>  <Rbt.Library>
libRbt.so (2013.1, Build901 2013/11/27)

>  <Rbt.Parameter_File>
/export/apps/rDock/src/rDock_2013.1_src/data/scripts/dock_solv.prm

>  <Rbt.Receptor>
prm/pocket_docking_5.prm

>  <SCORE>
-4.46103

>  <SCORE.INTER>
-0.255552

>  <SCORE.INTER.CONST>
1

>  <SCORE.INTER.POLAR>
0

>  <SCORE.INTER.ROT>
6

>  <SCORE.INTER.SOLV>
10.6756

>  <SCORE.INTER.VDW>
-11.3289

>  <SCORE.INTER.norm>
-0.0082436

>  <SCORE.INTRA>
-4.20891

>  <SCORE.INTRA.DIHEDRAL>
-8.20856

>  <SCORE.INTRA.DIHEDRAL.0>
10.8172

>  <SCORE.INTRA.POLAR>
0

>  <SCORE.INTRA.POLAR.0>
0

>  <SCORE.INTRA.REPUL>
0

>  <SCORE.INTRA.REPUL.0>
0

>  <SCORE.INTRA.SOLV>
-4.18529

>  <SCORE.INTRA.SOLV.lig_0>
-80.3833

>  <SCORE.INTRA.VDW>
1.98801

>  <SCORE.INTRA.VDW.0>
-4.63762

>  <SCORE.INTRA.norm>
-0.135771

>  <SCORE.RESTR>
0.00343614

>  <SCORE.RESTR.CAVITY>
0.00343614

>  <SCORE.RESTR.norm>
0.000110843

>  <SCORE.SYSTEM>
0

>  <SCORE.SYSTEM.CONST>
0

>  <SCORE.SYSTEM.DIHEDRAL>
0

>  <SCORE.SYSTEM.SOLV>
0

>  <SCORE.SYSTEM.norm>
0

>  <SCORE.heavy>
31

>  <SCORE.norm>
-0.143904

>  <RMSD>
6.193

$$$$
ligand
 OpenBabel11021811473D
libRbt.so/2013.1/901 2013/11/27
 31 33  0  0  0  0  0  0  0  0999 V2000
   17.0108    1.3933   13.2994 C   0  0  0  0  0  0  0  0  0  0  0  0
   23.5840    4.1375   17.9936 N   0  0  0  0  0  0  0  0  0  0  0  0
   17.5642    1.0161   14.5644 O   0  0  0  0  0  0  0  0  0  0  0  0
   17.9185    2.4152   12.6101 C   0  0  1  0  0  0  0  0  0  0  0  0
   22.3164    8.3057   15.7749 N   0  0  0  0  0  0  0  0  0  0  0  0
   18.1041    3.5659   13.4575 O   0  0  0  0  0  0  0  0  0  0  0  0
   19.5154    3.7814   13.6354 C   0  0  1  0  0  0  0  0  0  0  0  0
   18.2502    8.8692   16.5501 N   0  0  0  0  0  0  0  0  0  0  0  0
   19.8121    4.3137   14.9360 O   0  0  0  0  0  0  0  0  0  0  0  0
   21.1740    4.7401   15.0892 C   0  0  2  0  0  0  0  0  0  0  0  0
   20.5843    6.6725   10.9784 N   0  0  0  0  0  0  0  0  0  0  0  0
   21.7359    2.7618   16.3595 O   0  0  0  0  0  0  0  0  0  0  0  0
   21.6755    4.1890   16.4291 C   0  0  1  0  0  0  0  0  0  0  0  0
   21.0220    6.7912   13.7289 O   0  0  0  0  0  0  0  0  0  0  0  0
   23.0668    4.7365   16.7538 C   0  0  1  0  0  0  0  0  0  0  0  0
   18.8150    7.4944   14.1449 O   0  0  0  0  0  0  0  0  0  0  0  0
   22.9856    6.2563   16.8995 C   0  0  0  0  0  0  0  0  0  0  0  0
   19.4597   10.9315   13.0281 O   0  0  0  0  0  0  0  0  0  0  0  0
   22.5274    6.8645   15.5708 C   0  0  1  0  0  0  0  0  0  0  0  0
   19.7140    9.4214   10.5950 O   0  0  0  0  0  0  0  0  0  0  0  0
   21.2142    6.2648   15.0536 C   0  0  2  0  0  0  0  0  0  0  0  0
   21.4950    2.3695   13.2537 O   0  0  0  0  0  0  0  0  0  0  0  0
   19.6668    6.7492   13.2552 C   0  0  1  0  0  0  0  0  0  0  0  0
   19.8940    2.2660   11.1504 O   0  0  0  0  0  0  0  0  0  0  0  0
   19.1665    8.8827   14.2729 C   0  0  2  0  0  0  0  0  0  0  0  0
   18.2002    9.5568   15.2499 C   0  0  0  0  0  0  0  0  0  0  0  0
   19.0486    9.5669   12.9098 C   0  0  2  0  0  0  0  0  0  0  0  0
   19.9412    8.8561   11.8904 C   0  0  1  0  0  0  0  0  0  0  0  0
   19.6196    7.3598   11.8506 C   0  0  1  0  0  0  0  0  0  0  0  0
   20.0962    2.3715   13.5485 C   0  0  2  0  0  0  0  0  0  0  0  0
   19.3049    1.8104   12.3709 C   0  0  1  0  0  0  0  0  0  0  0  0
  1  3  1  0  0  0  0
  4  1  1  1  0  0  0
  4  6  1  0  0  0  0
  4 31  1  0  0  0  0
  6  7  1  0  0  0  0
  7  9  1  1  0  0  0
  7 30  1  0  0  0  0
  8 26  1  0  0  0  0
 10  9  1  1  0  0  0
 10 13  1  0  0  0  0
 10 21  1  0  0  0  0
 13 12  1  6  0  0  0
 13 15  1  0  0  0  0
 15  2  1  1  0  0  0
 15 17  1  0  0  0  0
 16 25  1  0  0  0  0
 16 23  1  0  0  0  0
 17 19  1  0  0  0  0
 19  5  1  1  0  0  0
 19 21  1  0  0  0  0
 21 14  1  6  0  0  0
 23 14  1  1  0  0  0
 23 29  1  0  0  0  0
 25 26  1  1  0  0  0
 25 27  1  0  0  0  0
 27 18  1  1  0  0  0
 27 28  1  0  0  0  0
 28 20  1  6  0  0  0
 28 29  1  0  0  0  0
 29 11  1  6  0  0  0
 30 22  1  6  0  0  0
 30 31  1  0  0  0  0
 31 24  1  6  0  0  0
M  END
>  <CHROM.1>
-57.16639112,-170.82528884,-133.90947874,58.76786988,75.68757694,57.76396458
20.12289796,5.61199827,14.08214633,1.58189545,0.88535031,3.06702547

>  <Name>
ligand

>  <RI>
0

>  <Rbt.Current_Directory>
/home/itssahil/PROJECTS/Mol_Feturizer/New_Systems/rnas/3DVV

>  <Rbt.Executable>
rbdock ($Id: //depot/dev/client3/rdock/2013.1/src/exe/rbdock.cxx#4 $)

>  <Rbt.Library>
libRbt.so (2013.1, Build901 2013/11/27)

>  <Rbt.Parameter_File>
/export/apps/rDock/src/rDock_2013.1_src/data/scripts/dock_solv.prm

>  <Rbt.Receptor>
prm/blind_docking_100.prm

>  <SCORE>
-5.55989

>  <SCORE.INTER>
-4.30546

>  <SCORE.INTER.CONST>
1

>  <SCORE.INTER.POLAR>
0

>  <SCORE.INTER.ROT>
6

>  <SCORE.INTER.SOLV>
29.5358

>  <SCORE.INTER.VDW>
-20.3156

>  <SCORE.INTER.norm>
-0.138886

>  <SCORE.INTRA>
-1.25443

>  <SCORE.INTRA.DIHEDRAL>
-2.69936

>  <SCORE.INTRA.DIHEDRAL.0>
10.8172

>  <SCORE.INTRA.POLAR>
0

>  <SCORE.INTRA.POLAR.0>
0

>  <SCORE.INTRA.REPUL>
0

>  <SCORE.INTRA.REPUL.0>
0

>  <SCORE.INTRA.SOLV>
-1.97752

>  <SCORE.INTRA.SOLV.lig_0>
-80.3833

>  <SCORE.INTRA.VDW>
1.08401

>  <SCORE.INTRA.VDW.0>
-4.63762

>  <SCORE.INTRA.norm>
-0.0404654

>  <SCORE.RESTR>
0

>  <SCORE.RESTR.CAVITY>
0

>  <SCORE.RESTR.norm>
0

>  <SCORE.SYSTEM>
0

>  <SCORE.SYSTEM.CONST>
0

>  <SCORE.SYSTEM.DIHEDRAL>
0

>  <SCORE.SYSTEM.SOLV>
0

>  <SCORE.SYSTEM.norm>
0

>  <SCORE.heavy>
31

>  <SCORE.norm>
-0.179351

>  <RMSD>
6.202

$$$$
ligand
 OpenBabel11021811473D
libRbt.so/2013.1/901 2013/11/27
 31 33  0  0  0  0  0  0  0  0999 V2000
   16.1957    3.3122   18.6133 C   0  0  0  0  0  0  0  0  0  0  0  0
   23.4860    6.7841   15.9046 N   0  0  0  0  0  0  0  0  0  0  0  0
   15.4897    4.4654   18.1437 O   0  0  0  0  0  0  0  0  0  0  0  0
   17.6339    3.6873   18.9798 C   0  0  1  0  0  0  0  0  0  0  0  0
   19.9514    7.9858   12.7477 N   0  0  0  0  0  0  0  0  0  0  0  0
   18.2982    4.2762   17.8448 O   0  0  0  0  0  0  0  0  0  0  0  0
   18.8233    5.5575   18.2350 C   0  0  1  0  0  0  0  0  0  0  0  0
   16.7591   10.5666   14.8882 N   0  0  0  0  0  0  0  0  0  0  0  0
   18.7979    6.4958   17.1479 O   0  0  0  0  0  0  0  0  0  0  0  0
   19.7166    6.1812   16.0910 C   0  0  2  0  0  0  0  0  0  0  0  0
   16.4031    4.1693   14.0680 N   0  0  0  0  0  0  0  0  0  0  0  0
   21.5120    5.7838   17.6599 O   0  0  0  0  0  0  0  0  0  0  0  0
   21.1130    6.6063   16.5600 C   0  0  1  0  0  0  0  0  0  0  0  0
   18.1224    6.3583   14.2180 O   0  0  0  0  0  0  0  0  0  0  0  0
   22.1322    6.4624   15.4280 C   0  0  1  0  0  0  0  0  0  0  0  0
   16.4720    7.7057   15.2175 O   0  0  0  0  0  0  0  0  0  0  0  0
   21.7435    7.3970   14.2823 C   0  0  0  0  0  0  0  0  0  0  0  0
   14.6780    8.2432   12.0601 O   0  0  0  0  0  0  0  0  0  0  0  0
   20.3682    6.9892   13.7459 C   0  0  1  0  0  0  0  0  0  0  0  0
   14.2762    5.4377   12.5421 O   0  0  0  0  0  0  0  0  0  0  0  0
   19.2888    6.9322   14.8337 C   0  0  2  0  0  0  0  0  0  0  0  0
   18.3776    7.0497   20.1410 O   0  0  0  0  0  0  0  0  0  0  0  0
   16.9457    6.3577   15.0415 C   0  0  1  0  0  0  0  0  0  0  0  0
   18.7292    4.5719   20.9981 O   0  0  0  0  0  0  0  0  0  0  0  0
   16.1206    8.3721   13.9928 C   0  0  2  0  0  0  0  0  0  0  0  0
   15.6480    9.7923   14.3123 C   0  0  0  0  0  0  0  0  0  0  0  0
   14.9817    7.6143   13.3080 C   0  0  2  0  0  0  0  0  0  0  0  0
   15.3980    6.1638   13.0555 C   0  0  1  0  0  0  0  0  0  0  0  0
   15.8691    5.5091   14.3568 C   0  0  1  0  0  0  0  0  0  0  0  0
   17.8354    6.0285   19.3003 C   0  0  2  0  0  0  0  0  0  0  0  0
   17.6358    4.7397   20.0922 C   0  0  1  0  0  0  0  0  0  0  0  0
  1  3  1  0  0  0  0
  4  1  1  6  0  0  0
  4  6  1  0  0  0  0
  4 31  1  0  0  0  0
  6  7  1  0  0  0  0
  7  9  1  6  0  0  0
  7 30  1  0  0  0  0
  8 26  1  0  0  0  0
 10  9  1  1  0  0  0
 10 13  1  0  0  0  0
 10 21  1  0  0  0  0
 13 12  1  1  0  0  0
 13 15  1  0  0  0  0
 15  2  1  1  0  0  0
 15 17  1  0  0  0  0
 16 25  1  0  0  0  0
 16 23  1  0  0  0  0
 17 19  1  0  0  0  0
 19  5  1  6  0  0  0
 19 21  1  0  0  0  0
 21 14  1  6  0  0  0
 23 14  1  6  0  0  0
 23 29  1  0  0  0  0
 25 26  1  1  0  0  0
 25 27  1  0  0  0  0
 27 18  1  6  0  0  0
 27 28  1  0  0  0  0
 28 20  1  1  0  0  0
 28 29  1  0  0  0  0
 29 11  1  6  0  0  0
 30 22  1  1  0  0  0
 30 31  1  0  0  0  0
 31 24  1  1  0  0  0
M  END
>  <CHROM.1>
-57.07121676,-68.58598317,-77.70339560,69.34580230,61.20870078,64.39899715
17.99758576,6.36353730,15.95954147,1.06094651,0.16084663,2.05473312

>  <Name>
ligand

>  <RI>
0

>  <Rbt.Current_Directory>
/home/itssahil/PROJECTS/Mol_Feturizer/New_Systems/rnas/3DVV

>  <Rbt.Executable>
rbdock ($Id: //depot/dev/client3/rdock/2013.1/src/exe/rbdock.cxx#4 $)

>  <Rbt.Library>
libRbt.so (2013.1, Build901 2013/11/27)

>  <Rbt.Parameter_File>
/export/apps/rDock/src/rDock_2013.1_src/data/scripts/dock_solv.prm

>  <Rbt.Receptor>
prm/pocket_docking_7.prm

>  <SCORE>
-6.07511

>  <SCORE.INTER>
-2.02908

>  <SCORE.INTER.CONST>
1

>  <SCORE.INTER.POLAR>
0

>  <SCORE.INTER.ROT>
6

>  <SCORE.INTER.SOLV>
15.0729

>  <SCORE.INTER.VDW>
-13.977

>  <SCORE.INTER.norm>
-0.0654542

>  <SCORE.INTRA>
-4.04603

>  <SCORE.INTRA.DIHEDRAL>
-8.2304

>  <SCORE.INTRA.DIHEDRAL.0>
10.8172

>  <SCORE.INTRA.POLAR>
0

>  <SCORE.INTRA.POLAR.0>
0

>  <SCORE.INTRA.REPUL>
0

>  <SCORE.INTRA.REPUL.0>
0

>  <SCORE.INTRA.SOLV>
-3.6596

>  <SCORE.INTRA.SOLV.lig_0>
-80.3833

>  <SCORE.INTRA.VDW>
1.89897

>  <SCORE.INTRA.VDW.0>
-4.63762

>  <SCORE.INTRA.norm>
-0.130517

>  <SCORE.RESTR>
0

>  <SCORE.RESTR.CAVITY>
0

>  <SCORE.RESTR.norm>
0

>  <SCORE.SYSTEM>
0

>  <SCORE.SYSTEM.CONST>
0

>  <SCORE.SYSTEM.DIHEDRAL>
0

>  <SCORE.SYSTEM.SOLV>
0

>  <SCORE.SYSTEM.norm>
0

>  <SCORE.heavy>
31

>  <SCORE.norm>
-0.195971

>  <RMSD>
6.210

$$$$
ligand
 OpenBabel11021811473D
libRbt.so/2013.1/901 2013/11/27
 31 33  0  0  0  0  0  0  0  0999 V2000
   15.0698    0.6558   11.3075 C   0  0  0  0  0  0  0  0  0  0  0  0
   20.1461    0.6398   11.2749 N   0  0  0  0  0  0  0  0  0  0  0  0
   16.0554   -0.2748   11.7674 O   0  0  0  0  0  0  0  0  0  0  0  0
   15.0244    1.8756   12.2311 C   0  0  1  0  0  0  0  0  0  0  0  0
   19.4008    3.4200   15.2269 N   0  0  0  0  0  0  0  0  0  0  0  0
   16.2953    2.5546   12.2201 O   0  0  0  0  0  0  0  0  0  0  0  0
   16.0748    3.9347   11.8791 C   0  0  1  0  0  0  0  0  0  0  0  0
   18.0720    8.5216    9.4031 N   0  0  0  0  0  0  0  0  0  0  0  0
   17.1705    4.4778   11.1258 O   0  0  0  0  0  0  0  0  0  0  0  0
   18.4597    4.0546   11.5935 C   0  0  2  0  0  0  0  0  0  0  0  0
   19.7912    7.1123   15.5340 N   0  0  0  0  0  0  0  0  0  0  0  0
   18.7252    2.5333    9.7340 O   0  0  0  0  0  0  0  0  0  0  0  0
   18.6447    2.5956   11.1606 C   0  0  1  0  0  0  0  0  0  0  0  0
   18.6135    5.5763   13.5279 O   0  0  0  0  0  0  0  0  0  0  0  0
   19.9229    2.0092   11.7631 C   0  0  1  0  0  0  0  0  0  0  0  0
   19.9867    6.5219   11.8672 O   0  0  0  0  0  0  0  0  0  0  0  0
   19.8043    2.0099   13.2874 C   0  0  0  0  0  0  0  0  0  0  0  0
   18.0872    9.6616   11.7655 O   0  0  0  0  0  0  0  0  0  0  0  0
   19.6588    3.4530   13.7792 C   0  0  1  0  0  0  0  0  0  0  0  0
   19.2808    9.7330   14.3799 O   0  0  0  0  0  0  0  0  0  0  0  0
   18.5006    4.2042   13.1114 C   0  0  2  0  0  0  0  0  0  0  0  0
   14.1803    5.1366   10.8670 O   0  0  0  0  0  0  0  0  0  0  0  0
   19.8880    6.1829   13.2628 C   0  0  1  0  0  0  0  0  0  0  0  0
   13.3142    3.5513   12.7995 O   0  0  0  0  0  0  0  0  0  0  0  0
   18.9846    7.4473   11.4126 C   0  0  2  0  0  0  0  0  0  0  0  0
   19.1889    7.7145    9.9195 C   0  0  0  0  0  0  0  0  0  0  0  0
   19.1246    8.7664   12.1746 C   0  0  2  0  0  0  0  0  0  0  0  0
   19.0109    8.5141   13.6794 C   0  0  1  0  0  0  0  0  0  0  0  0
   20.0166    7.4469   14.1195 C   0  0  1  0  0  0  0  0  0  0  0  0
   14.8482    3.8770   10.9709 C   0  0  2  0  0  0  0  0  0  0  0  0
   13.9803    2.8770   11.7290 C   0  0  1  0  0  0  0  0  0  0  0  0
  1  3  1  0  0  0  0
  4  1  1  6  0  0  0
  4  6  1  0  0  0  0
  4 31  1  0  0  0  0
  6  7  1  0  0  0  0
  7  9  1  6  0  0  0
  7 30  1  0  0  0  0
  8 26  1  0  0  0  0
 10  9  1  1  0  0  0
 10 13  1  0  0  0  0
 10 21  1  0  0  0  0
 13 12  1  6  0  0  0
 13 15  1  0  0  0  0
 15  2  1  6  0  0  0
 15 17  1  0  0  0  0
 16 25  1  0  0  0  0
 16 23  1  0  0  0  0
 17 19  1  0  0  0  0
 19  5  1  1  0  0  0
 19 21  1  0  0  0  0
 21 14  1  6  0  0  0
 23 14  1  6  0  0  0
 23 29  1  0  0  0  0
 25 26  1  6  0  0  0
 25 27  1  0  0  0  0
 27 18  1  6  0  0  0
 27 28  1  0  0  0  0
 28 20  1  1  0  0  0
 28 29  1  0  0  0  0
 29 11  1  1  0  0  0
 30 22  1  1  0  0  0
 30 31  1  0  0  0  0
 31 24  1  1  0  0  0
M  END
>  <CHROM.1>
61.73426256,-40.46342217,74.10754645,76.94297104,-70.54400518,172.80755874
17.87697363,4.74226252,12.20791833,2.04398960,0.37738663,3.12320582

>  <Name>
ligand

>  <RI>
0

>  <Rbt.Current_Directory>
/home/itssahil/PROJECTS/Mol_Feturizer/New_Systems/rnas/3DVV

>  <Rbt.Executable>
rbdock ($Id: //depot/dev/client3/rdock/2013.1/src/exe/rbdock.cxx#4 $)

>  <Rbt.Library>
libRbt.so (2013.1, Build901 2013/11/27)

>  <Rbt.Parameter_File>
/export/apps/rDock/src/rDock_2013.1_src/data/scripts/dock_solv.prm

>  <Rbt.Receptor>
prm/blind_docking_40.prm

>  <SCORE>
-3.37413

>  <SCORE.INTER>
-5.61075

>  <SCORE.INTER.CONST>
1

>  <SCORE.INTER.POLAR>
0

>  <SCORE.INTER.ROT>
6

>  <SCORE.INTER.SOLV>
16.1849

>  <SCORE.INTER.VDW>
-16.7355

>  <SCORE.INTER.norm>
-0.180992

>  <SCORE.INTRA>
2.04561

>  <SCORE.INTRA.DIHEDRAL>
-5.91488

>  <SCORE.INTRA.DIHEDRAL.0>
10.8172

>  <SCORE.INTRA.POLAR>
0

>  <SCORE.INTRA.POLAR.0>
0

>  <SCORE.INTRA.REPUL>
0

>  <SCORE.INTRA.REPUL.0>
0

>  <SCORE.INTRA.SOLV>
-1.48616

>  <SCORE.INTRA.SOLV.lig_0>
-80.3833

>  <SCORE.INTRA.VDW>
5.74613

>  <SCORE.INTRA.VDW.0>
-4.63762

>  <SCORE.INTRA.norm>
0.0659874

>  <SCORE.RESTR>
0.19101

>  <SCORE.RESTR.CAVITY>
0.19101

>  <SCORE.RESTR.norm>
0.00616161

>  <SCORE.SYSTEM>
0

>  <SCORE.SYSTEM.CONST>
0

>  <SCORE.SYSTEM.DIHEDRAL>
0

>  <SCORE.SYSTEM.SOLV>
0

>  <SCORE.SYSTEM.norm>
0

>  <SCORE.heavy>
31

>  <SCORE.norm>
-0.108843

>  <RMSD>
6.232

$$$$
ligand
 OpenBabel11021811473D
libRbt.so/2013.1/901 2013/11/27
 31 33  0  0  0  0  0  0  0  0999 V2000
   21.2000    7.4960   16.1483 C   0  0  0  0  0  0  0  0  0  0  0  0
   19.0137    1.9514   14.2835 N   0  0  0  0  0  0  0  0  0  0  0  0
   21.8662    6.6485   15.2067 O   0  0  0  0  0  0  0  0  0  0  0  0
   19.6848    7.4245   15.9426 C   0  0  1  0  0  0  0  0  0  0  0  0
   14.5157    3.6327   15.2028 N   0  0  0  0  0  0  0  0  0  0  0  0
   19.2139    6.0838   16.1815 O   0  0  0  0  0  0  0  0  0  0  0  0
   18.1677    6.1343   17.1678 C   0  0  1  0  0  0  0  0  0  0  0  0
   18.1793    4.1375   22.0883 N   0  0  0  0  0  0  0  0  0  0  0  0
   18.1648    4.9637   18.0001 O   0  0  0  0  0  0  0  0  0  0  0  0
   17.6572    3.7910   17.3466 C   0  0  2  0  0  0  0  0  0  0  0  0
   12.6816    3.4113   18.6416 N   0  0  0  0  0  0  0  0  0  0  0  0
   19.8808    3.0752   16.7256 O   0  0  0  0  0  0  0  0  0  0  0  0
   18.6118    3.4636   16.1925 C   0  0  1  0  0  0  0  0  0  0  0  0
   15.2788    4.1137   17.9124 O   0  0  0  0  0  0  0  0  0  0  0  0
   18.0558    2.3247   15.3354 C   0  0  1  0  0  0  0  0  0  0  0  0
   16.2195    2.5365   19.3840 O   0  0  0  0  0  0  0  0  0  0  0  0
   16.7344    2.7691   14.7080 C   0  0  0  0  0  0  0  0  0  0  0  0
   15.5808    4.5936   22.3567 O   0  0  0  0  0  0  0  0  0  0  0  0
   15.7261    3.0701   15.8207 C   0  0  1  0  0  0  0  0  0  0  0  0
   12.9294    3.8847   21.5009 O   0  0  0  0  0  0  0  0  0  0  0  0
   16.2454    4.0838   16.8476 C   0  0  2  0  0  0  0  0  0  0  0  0
   17.4599    7.8499   18.7845 O   0  0  0  0  0  0  0  0  0  0  0  0
   15.0729    2.8557   18.5740 C   0  0  1  0  0  0  0  0  0  0  0  0
   17.8041    8.9440   16.4008 O   0  0  0  0  0  0  0  0  0  0  0  0
   16.5044    3.5028   20.4099 C   0  0  2  0  0  0  0  0  0  0  0  0
   17.7456    3.0579   21.1871 C   0  0  0  0  0  0  0  0  0  0  0  0
   15.3205    3.5867   21.3751 C   0  0  2  0  0  0  0  0  0  0  0  0
   14.0464    3.9456   20.6077 C   0  0  1  0  0  0  0  0  0  0  0  0
   13.8233    2.9640   19.4542 C   0  0  1  0  0  0  0  0  0  0  0  0
   18.5578    7.3349   18.0275 C   0  0  2  0  0  0  0  0  0  0  0  0
   18.9738    8.3322   16.9504 C   0  0  1  0  0  0  0  0  0  0  0  0
  1  3  1  0  0  0  0
  4  1  1  1  0  0  0
  4  6  1  0  0  0  0
  4 31  1  0  0  0  0
  6  7  1  0  0  0  0
  7  9  1  1  0  0  0
  7 30  1  0  0  0  0
  8 26  1  0  0  0  0
 10  9  1  6  0  0  0
 10 13  1  0  0  0  0
 10 21  1  0  0  0  0
 13 12  1  1  0  0  0
 13 15  1  0  0  0  0
 15  2  1  6  0  0  0
 15 17  1  0  0  0  0
 16 25  1  0  0  0  0
 16 23  1  0  0  0  0
 17 19  1  0  0  0  0
 19  5  1  6  0  0  0
 19 21  1  0  0  0  0
 21 14  1  1  0  0  0
 23 14  1  1  0  0  0
 23 29  1  0  0  0  0
 25 26  1  1  0  0  0
 25 27  1  0  0  0  0
 27 18  1  1  0  0  0
 27 28  1  0  0  0  0
 28 20  1  1  0  0  0
 28 29  1  0  0  0  0
 29 11  1  6  0  0  0
 30 22  1  6  0  0  0
 30 31  1  0  0  0  0
 31 24  1  6  0  0  0
M  END
>  <CHROM.1>
62.37838780,-74.11411247,64.00588346,71.88784966,-65.55769541,170.72683035
17.14817671,4.61358434,17.91247423,-0.28641214,0.76893481,0.96026762

>  <Name>
ligand

>  <RI>
0

>  <Rbt.Current_Directory>
/home/itssahil/PROJECTS/Mol_Feturizer/New_Systems/rnas/3DVV

>  <Rbt.Executable>
rbdock ($Id: //depot/dev/client3/rdock/2013.1/src/exe/rbdock.cxx#4 $)

>  <Rbt.Library>
libRbt.so (2013.1, Build901 2013/11/27)

>  <Rbt.Parameter_File>
/export/apps/rDock/src/rDock_2013.1_src/data/scripts/dock_solv.prm

>  <Rbt.Receptor>
prm/pocket_docking_4.prm

>  <SCORE>
-3.0514

>  <SCORE.INTER>
-2.11056

>  <SCORE.INTER.CONST>
1

>  <SCORE.INTER.POLAR>
0

>  <SCORE.INTER.ROT>
6

>  <SCORE.INTER.SOLV>
11.5606

>  <SCORE.INTER.VDW>
-12.8606

>  <SCORE.INTER.norm>
-0.0680827

>  <SCORE.INTRA>
-0.940834

>  <SCORE.INTRA.DIHEDRAL>
-8.41871

>  <SCORE.INTRA.DIHEDRAL.0>
10.8172

>  <SCORE.INTRA.POLAR>
0

>  <SCORE.INTRA.POLAR.0>
0

>  <SCORE.INTRA.REPUL>
0

>  <SCORE.INTRA.REPUL.0>
0

>  <SCORE.INTRA.SOLV>
-2.15165

>  <SCORE.INTRA.SOLV.lig_0>
-80.3833

>  <SCORE.INTRA.VDW>
4.34435

>  <SCORE.INTRA.VDW.0>
-4.63762

>  <SCORE.INTRA.norm>
-0.0303495

>  <SCORE.RESTR>
0

>  <SCORE.RESTR.CAVITY>
0

>  <SCORE.RESTR.norm>
0

>  <SCORE.SYSTEM>
0

>  <SCORE.SYSTEM.CONST>
0

>  <SCORE.SYSTEM.DIHEDRAL>
0

>  <SCORE.SYSTEM.SOLV>
0

>  <SCORE.SYSTEM.norm>
0

>  <SCORE.heavy>
31

>  <SCORE.norm>
-0.0984321

>  <RMSD>
6.239

$$$$
ligand
 OpenBabel11021811473D
libRbt.so/2013.1/901 2013/11/27
 31 33  0  0  0  0  0  0  0  0999 V2000
   16.1866    3.0900   20.2464 C   0  0  0  0  0  0  0  0  0  0  0  0
   23.3404    6.1307   16.3582 N   0  0  0  0  0  0  0  0  0  0  0  0
   17.5782    2.9078   20.5275 O   0  0  0  0  0  0  0  0  0  0  0  0
   16.0090    3.8161   18.9105 C   0  0  1  0  0  0  0  0  0  0  0  0
   20.1429    9.7748   15.7258 N   0  0  0  0  0  0  0  0  0  0  0  0
   16.7189    5.0700   18.9286 O   0  0  0  0  0  0  0  0  0  0  0  0
   17.6093    5.1089   17.7993 C   0  0  1  0  0  0  0  0  0  0  0  0
   15.9338   10.5630   19.8434 N   0  0  0  0  0  0  0  0  0  0  0  0
   18.8127    5.8346   18.0960 O   0  0  0  0  0  0  0  0  0  0  0  0
   19.5627    6.2113   16.9316 C   0  0  2  0  0  0  0  0  0  0  0  0
   15.5913    6.9716   15.0520 N   0  0  0  0  0  0  0  0  0  0  0  0
   21.2441    4.5314   17.3712 O   0  0  0  0  0  0  0  0  0  0  0  0
   21.0409    5.9405   17.2348 C   0  0  1  0  0  0  0  0  0  0  0  0
   18.0005    7.9208   16.0841 O   0  0  0  0  0  0  0  0  0  0  0  0
   21.9313    6.4710   16.1094 C   0  0  1  0  0  0  0  0  0  0  0  0
   16.9700    8.6548   18.0684 O   0  0  0  0  0  0  0  0  0  0  0  0
   21.7669    7.9880   16.0135 C   0  0  0  0  0  0  0  0  0  0  0  0
   15.4973   11.6160   16.4751 O   0  0  0  0  0  0  0  0  0  0  0  0
   20.3107    8.3147   15.6694 C   0  0  1  0  0  0  0  0  0  0  0  0
   14.0840    9.4542   15.2127 O   0  0  0  0  0  0  0  0  0  0  0  0
   19.3053    7.6871   16.6425 C   0  0  2  0  0  0  0  0  0  0  0  0
   18.4786    3.3780   16.2806 O   0  0  0  0  0  0  0  0  0  0  0  0
   16.9093    7.7012   16.9917 C   0  0  1  0  0  0  0  0  0  0  0  0
   15.8626    3.1017   16.5602 O   0  0  0  0  0  0  0  0  0  0  0  0
   16.8885   10.0268   17.6465 C   0  0  2  0  0  0  0  0  0  0  0  0
   16.9773   10.9355   18.8749 C   0  0  0  0  0  0  0  0  0  0  0  0
   15.5484   10.2678   16.9492 C   0  0  2  0  0  0  0  0  0  0  0  0
   15.3962    9.3094   15.7663 C   0  0  1  0  0  0  0  0  0  0  0  0
   15.5932    7.8615   16.2232 C   0  0  1  0  0  0  0  0  0  0  0  0
   17.9721    3.6400   17.5915 C   0  0  2  0  0  0  0  0  0  0  0  0
   16.6078    2.9819   17.7746 C   0  0  1  0  0  0  0  0  0  0  0  0
  1  3  1  0  0  0  0
  4  1  1  1  0  0  0
  4  6  1  0  0  0  0
  4 31  1  0  0  0  0
  6  7  1  0  0  0  0
  7  9  1  1  0  0  0
  7 30  1  0  0  0  0
  8 26  1  0  0  0  0
 10  9  1  1  0  0  0
 10 13  1  0  0  0  0
 10 21  1  0  0  0  0
 13 12  1  6  0  0  0
 13 15  1  0  0  0  0
 15  2  1  1  0  0  0
 15 17  1  0  0  0  0
 16 25  1  0  0  0  0
 16 23  1  0  0  0  0
 17 19  1  0  0  0  0
 19  5  1  1  0  0  0
 19 21  1  0  0  0  0
 21 14  1  6  0  0  0
 23 14  1  6  0  0  0
 23 29  1  0  0  0  0
 25 26  1  1  0  0  0
 25 27  1  0  0  0  0
 27 18  1  6  0  0  0
 27 28  1  0  0  0  0
 28 20  1  1  0  0  0
 28 29  1  0  0  0  0
 29 11  1  6  0  0  0
 30 22  1  6  0  0  0
 30 31  1  0  0  0  0
 31 24  1  6  0  0  0
M  END
>  <CHROM.1>
-56.26093970,-164.21543336,-137.06216893,64.83533841,69.01143152,-55.42301250
17.84109997,6.85300912,17.23732030,1.18197534,-0.22042587,2.87700453

>  <Name>
ligand

>  <RI>
0

>  <Rbt.Current_Directory>
/home/itssahil/PROJECTS/Mol_Feturizer/New_Systems/rnas/3DVV

>  <Rbt.Executable>
rbdock ($Id: //depot/dev/client3/rdock/2013.1/src/exe/rbdock.cxx#4 $)

>  <Rbt.Library>
libRbt.so (2013.1, Build901 2013/11/27)

>  <Rbt.Parameter_File>
/export/apps/rDock/src/rDock_2013.1_src/data/scripts/dock_solv.prm

>  <Rbt.Receptor>
prm/pocket_docking_6.prm

>  <SCORE>
-5.12485

>  <SCORE.INTER>
-4.91467

>  <SCORE.INTER.CONST>
1

>  <SCORE.INTER.POLAR>
0

>  <SCORE.INTER.ROT>
6

>  <SCORE.INTER.SOLV>
18.8797

>  <SCORE.INTER.VDW>
-17.1697

>  <SCORE.INTER.norm>
-0.158538

>  <SCORE.INTRA>
-0.22838

>  <SCORE.INTRA.DIHEDRAL>
-2.95531

>  <SCORE.INTRA.DIHEDRAL.0>
10.8172

>  <SCORE.INTRA.POLAR>
0

>  <SCORE.INTRA.POLAR.0>
0

>  <SCORE.INTRA.REPUL>
0

>  <SCORE.INTRA.REPUL.0>
0

>  <SCORE.INTRA.SOLV>
-1.20136

>  <SCORE.INTRA.SOLV.lig_0>
-80.3833

>  <SCORE.INTRA.VDW>
1.84995

>  <SCORE.INTRA.VDW.0>
-4.63762

>  <SCORE.INTRA.norm>
-0.00736709

>  <SCORE.RESTR>
0.0182035

>  <SCORE.RESTR.CAVITY>
0.0182035

>  <SCORE.RESTR.norm>
0.000587211

>  <SCORE.SYSTEM>
0

>  <SCORE.SYSTEM.CONST>
0

>  <SCORE.SYSTEM.DIHEDRAL>
0

>  <SCORE.SYSTEM.SOLV>
0

>  <SCORE.SYSTEM.norm>
0

>  <SCORE.heavy>
31

>  <SCORE.norm>
-0.165318

>  <RMSD>
6.243

$$$$
ligand
 OpenBabel11021811473D
libRbt.so/2013.1/901 2013/11/27
 31 33  0  0  0  0  0  0  0  0999 V2000
   19.7511    2.4961   11.3774 C   0  0  0  0  0  0  0  0  0  0  0  0
   24.8142    4.7383   17.3264 N   0  0  0  0  0  0  0  0  0  0  0  0
   18.8590    3.5533   11.7452 O   0  0  0  0  0  0  0  0  0  0  0  0
   20.3586    1.8587   12.6296 C   0  0  1  0  0  0  0  0  0  0  0  0
   22.0264    8.5485   16.0559 N   0  0  0  0  0  0  0  0  0  0  0  0
   21.0004    2.8646   13.4374 O   0  0  0  0  0  0  0  0  0  0  0  0
   20.4576    2.7988   14.7682 C   0  0  1  0  0  0  0  0  0  0  0  0
   17.5361    9.6088   17.2368 N   0  0  0  0  0  0  0  0  0  0  0  0
   20.4065    4.0944   15.3861 O   0  0  0  0  0  0  0  0  0  0  0  0
   21.6154    4.8537   15.2381 C   0  0  2  0  0  0  0  0  0  0  0  0
   19.5496    6.8983   11.6556 N   0  0  0  0  0  0  0  0  0  0  0  0
   22.9625    3.0224   16.0594 O   0  0  0  0  0  0  0  0  0  0  0  0
   22.5881    4.3773   16.3232 C   0  0  1  0  0  0  0  0  0  0  0  0
   20.6072    6.8680   14.2346 O   0  0  0  0  0  0  0  0  0  0  0  0
   23.8438    5.2511   16.3473 C   0  0  1  0  0  0  0  0  0  0  0  0
   18.4753    6.6534   15.2079 O   0  0  0  0  0  0  0  0  0  0  0  0
   23.4493    6.6852   16.7011 C   0  0  0  0  0  0  0  0  0  0  0  0
   17.6275   10.1850   14.6736 O   0  0  0  0  0  0  0  0  0  0  0  0
   22.5066    7.2275   15.6228 C   0  0  1  0  0  0  0  0  0  0  0  0
   17.7436    9.1534   11.9927 O   0  0  0  0  0  0  0  0  0  0  0  0
   21.2819    6.3350   15.3876 C   0  0  2  0  0  0  0  0  0  0  0  0
   18.4365    1.7588   15.7122 O   0  0  0  0  0  0  0  0  0  0  0  0
   19.2708    6.3791   14.0398 C   0  0  1  0  0  0  0  0  0  0  0  0
   19.6874    0.0367   14.1414 O   0  0  0  0  0  0  0  0  0  0  0  0
   18.3629    8.0500   15.5304 C   0  0  2  0  0  0  0  0  0  0  0  0
   17.5095    8.2065   16.7912 C   0  0  0  0  0  0  0  0  0  0  0  0
   17.6803    8.7871   14.3768 C   0  0  2  0  0  0  0  0  0  0  0  0
   18.4684    8.5740   13.0827 C   0  0  1  0  0  0  0  0  0  0  0  0
   18.6664    7.0791   12.8180 C   0  0  1  0  0  0  0  0  0  0  0  0
   19.0262    2.3192   14.5368 C   0  0  2  0  0  0  0  0  0  0  0  0
   19.2562    1.2339   13.4893 C   0  0  1  0  0  0  0  0  0  0  0  0
  1  3  1  0  0  0  0
  4  1  1  6  0  0  0
  4  6  1  0  0  0  0
  4 31  1  0  0  0  0
  6  7  1  0  0  0  0
  7  9  1  6  0  0  0
  7 30  1  0  0  0  0
  8 26  1  0  0  0  0
 10  9  1  1  0  0  0
 10 13  1  0  0  0  0
 10 21  1  0  0  0  0
 13 12  1  6  0  0  0
 13 15  1  0  0  0  0
 15  2  1  1  0  0  0
 15 17  1  0  0  0  0
 16 25  1  0  0  0  0
 16 23  1  0  0  0  0
 17 19  1  0  0  0  0
 19  5  1  1  0  0  0
 19 21  1  0  0  0  0
 21 14  1  6  0  0  0
 23 14  1  1  0  0  0
 23 29  1  0  0  0  0
 25 26  1  1  0  0  0
 25 27  1  0  0  0  0
 27 18  1  1  0  0  0
 27 28  1  0  0  0  0
 28 20  1  6  0  0  0
 28 29  1  0  0  0  0
 29 11  1  6  0  0  0
 30 22  1  1  0  0  0
 30 31  1  0  0  0  0
 31 24  1  1  0  0  0
M  END
>  <CHROM.1>
-55.36334823,-46.39130424,-82.23950210,57.19017226,68.94739203,172.39169285
20.09513515,5.47330637,14.62724707,1.15939002,0.61783783,-2.84012079

>  <Name>
ligand

>  <RI>
0

>  <Rbt.Current_Directory>
/home/itssahil/PROJECTS/Mol_Feturizer/New_Systems/rnas/3DVV

>  <Rbt.Executable>
rbdock ($Id: //depot/dev/client3/rdock/2013.1/src/exe/rbdock.cxx#4 $)

>  <Rbt.Library>
libRbt.so (2013.1, Build901 2013/11/27)

>  <Rbt.Parameter_File>
/export/apps/rDock/src/rDock_2013.1_src/data/scripts/dock_solv.prm

>  <Rbt.Receptor>
prm/pocket_docking_8.prm

>  <SCORE>
-6.17935

>  <SCORE.INTER>
-3.84267

>  <SCORE.INTER.CONST>
1

>  <SCORE.INTER.POLAR>
0

>  <SCORE.INTER.ROT>
6

>  <SCORE.INTER.SOLV>
22.0089

>  <SCORE.INTER.VDW>
-17.4981

>  <SCORE.INTER.norm>
-0.123957

>  <SCORE.INTRA>
-2.33668

>  <SCORE.INTRA.DIHEDRAL>
-6.82851

>  <SCORE.INTRA.DIHEDRAL.0>
10.8172

>  <SCORE.INTRA.POLAR>
0

>  <SCORE.INTRA.POLAR.0>
0

>  <SCORE.INTRA.REPUL>
0

>  <SCORE.INTRA.REPUL.0>
0

>  <SCORE.INTRA.SOLV>
-1.64939

>  <SCORE.INTRA.SOLV.lig_0>
-80.3833

>  <SCORE.INTRA.VDW>
1.90227

>  <SCORE.INTRA.VDW.0>
-4.63762

>  <SCORE.INTRA.norm>
-0.0753767

>  <SCORE.RESTR>
0

>  <SCORE.RESTR.CAVITY>
0

>  <SCORE.RESTR.norm>
0

>  <SCORE.SYSTEM>
0

>  <SCORE.SYSTEM.CONST>
0

>  <SCORE.SYSTEM.DIHEDRAL>
0

>  <SCORE.SYSTEM.SOLV>
0

>  <SCORE.SYSTEM.norm>
0

>  <SCORE.heavy>
31

>  <SCORE.norm>
-0.199334

>  <RMSD>
6.245

$$$$
ligand
 OpenBabel11021811473D
libRbt.so/2013.1/901 2013/11/27
 31 33  0  0  0  0  0  0  0  0999 V2000
   24.6231    7.1179   16.3836 C   0  0  0  0  0  0  0  0  0  0  0  0
   19.5313    1.6779   14.5564 N   0  0  0  0  0  0  0  0  0  0  0  0
   25.6044    6.0938   16.5768 O   0  0  0  0  0  0  0  0  0  0  0  0
   23.4700    6.5887   15.5271 C   0  0  1  0  0  0  0  0  0  0  0  0
   16.2906    5.0779   15.9134 N   0  0  0  0  0  0  0  0  0  0  0  0
   22.7934    5.5169   16.2125 O   0  0  0  0  0  0  0  0  0  0  0  0
   21.3927    5.8355   16.2918 C   0  0  1  0  0  0  0  0  0  0  0  0
   15.5686    9.8662   16.6224 N   0  0  0  0  0  0  0  0  0  0  0  0
   20.8001    5.3304   17.4987 O   0  0  0  0  0  0  0  0  0  0  0  0
   19.7716    4.3550   17.2734 C   0  0  2  0  0  0  0  0  0  0  0  0
   18.2274    5.7721   20.9721 N   0  0  0  0  0  0  0  0  0  0  0  0
   21.3656    2.7529   16.4161 O   0  0  0  0  0  0  0  0  0  0  0  0
   20.2022    3.5090   16.0695 C   0  0  1  0  0  0  0  0  0  0  0  0
   17.8924    5.6500   18.2074 O   0  0  0  0  0  0  0  0  0  0  0  0
   19.0846    2.5508   15.6527 C   0  0  1  0  0  0  0  0  0  0  0  0
   18.4271    7.9270   17.9473 O   0  0  0  0  0  0  0  0  0  0  0  0
   17.8662    3.3631   15.2134 C   0  0  0  0  0  0  0  0  0  0  0  0
   15.1531    9.0664   19.1553 O   0  0  0  0  0  0  0  0  0  0  0  0
   17.3670    4.1991   16.3955 C   0  0  1  0  0  0  0  0  0  0  0  0
   16.3224    7.9034   21.5100 O   0  0  0  0  0  0  0  0  0  0  0  0
   18.4572    5.0842   17.0117 C   0  0  2  0  0  0  0  0  0  0  0  0
   20.1215    7.9219   15.9934 O   0  0  0  0  0  0  0  0  0  0  0  0
   18.6287    6.7539   18.7570 C   0  0  1  0  0  0  0  0  0  0  0  0
   21.8356    7.6173   14.0017 O   0  0  0  0  0  0  0  0  0  0  0  0
   17.0561    8.3496   17.8522 C   0  0  2  0  0  0  0  0  0  0  0  0
   16.9743    9.5900   16.9594 C   0  0  0  0  0  0  0  0  0  0  0  0
   16.5345    8.7077   19.2450 C   0  0  2  0  0  0  0  0  0  0  0  0
   16.6859    7.5083   20.1830 C   0  0  1  0  0  0  0  0  0  0  0  0
   18.1338    7.0108   20.1843 C   0  0  1  0  0  0  0  0  0  0  0  0
   21.3860    7.3615   16.3545 C   0  0  2  0  0  0  0  0  0  0  0  0
   22.4350    7.6938   15.2976 C   0  0  1  0  0  0  0  0  0  0  0  0
  1  3  1  0  0  0  0
  4  1  1  1  0  0  0
  4  6  1  0  0  0  0
  4 31  1  0  0  0  0
  6  7  1  0  0  0  0
  7  9  1  1  0  0  0
  7 30  1  0  0  0  0
  8 26  1  0  0  0  0
 10  9  1  6  0  0  0
 10 13  1  0  0  0  0
 10 21  1  0  0  0  0
 13 12  1  1  0  0  0
 13 15  1  0  0  0  0
 15  2  1  6  0  0  0
 15 17  1  0  0  0  0
 16 25  1  0  0  0  0
 16 23  1  0  0  0  0
 17 19  1  0  0  0  0
 19  5  1  6  0  0  0
 19 21  1  0  0  0  0
 21 14  1  1  0  0  0
 23 14  1  6  0  0  0
 23 29  1  0  0  0  0
 25 26  1  6  0  0  0
 25 27  1  0  0  0  0
 27 18  1  6  0  0  0
 27 28  1  0  0  0  0
 28 20  1  1  0  0  0
 28 29  1  0  0  0  0
 29 11  1  1  0  0  0
 30 22  1  6  0  0  0
 30 31  1  0  0  0  0
 31 24  1  6  0  0  0
M  END
>  <CHROM.1>
63.49902254,-117.25572200,36.63784423,74.08996038,68.97550176,168.18081047
19.38640843,6.26945913,17.17314713,-0.51502546,0.34096309,0.34828607

>  <Name>
ligand

>  <RI>
0

>  <Rbt.Current_Directory>
/home/itssahil/PROJECTS/Mol_Feturizer/New_Systems/rnas/3DVV

>  <Rbt.Executable>
rbdock ($Id: //depot/dev/client3/rdock/2013.1/src/exe/rbdock.cxx#4 $)

>  <Rbt.Library>
libRbt.so (2013.1, Build901 2013/11/27)

>  <Rbt.Parameter_File>
/export/apps/rDock/src/rDock_2013.1_src/data/scripts/dock_solv.prm

>  <Rbt.Receptor>
prm/pocket_docking_5.prm

>  <SCORE>
-5.2926

>  <SCORE.INTER>
-8.572

>  <SCORE.INTER.CONST>
1

>  <SCORE.INTER.POLAR>
0

>  <SCORE.INTER.ROT>
6

>  <SCORE.INTER.SOLV>
15.726

>  <SCORE.INTER.VDW>
-18.5567

>  <SCORE.INTER.norm>
-0.276516

>  <SCORE.INTRA>
3.27939

>  <SCORE.INTRA.DIHEDRAL>
0.52369

>  <SCORE.INTRA.DIHEDRAL.0>
10.8172

>  <SCORE.INTRA.POLAR>
0

>  <SCORE.INTRA.POLAR.0>
0

>  <SCORE.INTRA.REPUL>
0

>  <SCORE.INTRA.REPUL.0>
0

>  <SCORE.INTRA.SOLV>
-2.22229

>  <SCORE.INTRA.SOLV.lig_0>
-80.3833

>  <SCORE.INTRA.VDW>
4.12869

>  <SCORE.INTRA.VDW.0>
-4.63762

>  <SCORE.INTRA.norm>
0.105787

>  <SCORE.RESTR>
0

>  <SCORE.RESTR.CAVITY>
0

>  <SCORE.RESTR.norm>
0

>  <SCORE.SYSTEM>
0

>  <SCORE.SYSTEM.CONST>
0

>  <SCORE.SYSTEM.DIHEDRAL>
0

>  <SCORE.SYSTEM.SOLV>
0

>  <SCORE.SYSTEM.norm>
0

>  <SCORE.heavy>
31

>  <SCORE.norm>
-0.170729

>  <RMSD>
6.248

$$$$
ligand
 OpenBabel11021811473D
libRbt.so/2013.1/901 2013/11/27
 31 33  0  0  0  0  0  0  0  0999 V2000
   24.5257    6.7517   15.5641 C   0  0  0  0  0  0  0  0  0  0  0  0
   17.6530    8.3439   19.2199 N   0  0  0  0  0  0  0  0  0  0  0  0
   24.2916    8.0993   15.1424 O   0  0  0  0  0  0  0  0  0  0  0  0
   23.6568    6.4210   16.7802 C   0  0  1  0  0  0  0  0  0  0  0  0
   18.0639    3.4749   19.3848 N   0  0  0  0  0  0  0  0  0  0  0  0
   22.3145    6.9043   16.5777 O   0  0  0  0  0  0  0  0  0  0  0  0
   21.4003    5.8085   16.7602 C   0  0  1  0  0  0  0  0  0  0  0  0
   22.4599    2.7774   14.2268 N   0  0  0  0  0  0  0  0  0  0  0  0
   20.2531    5.9250   15.9039 O   0  0  0  0  0  0  0  0  0  0  0  0
   19.0021    5.9026   16.6071 C   0  0  2  0  0  0  0  0  0  0  0  0
   16.0981    2.8618   15.7054 N   0  0  0  0  0  0  0  0  0  0  0  0
   18.9138    8.3166   16.6923 O   0  0  0  0  0  0  0  0  0  0  0  0
   18.9638    7.1427   17.5077 C   0  0  1  0  0  0  0  0  0  0  0  0
   18.6717    3.4589   16.5944 O   0  0  0  0  0  0  0  0  0  0  0  0
   17.7369    7.1116   18.4213 C   0  0  1  0  0  0  0  0  0  0  0  0
   19.4999    3.6010   14.3962 O   0  0  0  0  0  0  0  0  0  0  0  0
   17.8290    5.8948   19.3424 C   0  0  0  0  0  0  0  0  0  0  0  0
   19.5744   -0.0417   13.9479 O   0  0  0  0  0  0  0  0  0  0  0  0
   17.8286    4.6205   18.4929 C   0  0  1  0  0  0  0  0  0  0  0  0
   16.7590    0.5131   14.1220 O   0  0  0  0  0  0  0  0  0  0  0  0
   18.9214    4.6121   17.4170 C   0  0  2  0  0  0  0  0  0  0  0  0
   21.6904    3.3649   16.8106 O   0  0  0  0  0  0  0  0  0  0  0  0
   18.3360    3.7543   15.2296 C   0  0  1  0  0  0  0  0  0  0  0  0
   23.5142    4.5215   18.3382 O   0  0  0  0  0  0  0  0  0  0  0  0
   20.0634    2.2783   14.4076 C   0  0  2  0  0  0  0  0  0  0  0  0
   21.2947    2.2499   13.4990 C   0  0  0  0  0  0  0  0  0  0  0  0
   19.0334    1.2801   13.8757 C   0  0  2  0  0  0  0  0  0  0  0  0
   17.7565    1.3507   14.7157 C   0  0  1  0  0  0  0  0  0  0  0  0
   17.2357    2.7891   14.7759 C   0  0  1  0  0  0  0  0  0  0  0  0
   22.2150    4.5973   16.3110 C   0  0  2  0  0  0  0  0  0  0  0  0
   23.5610    4.9034   16.9611 C   0  0  1  0  0  0  0  0  0  0  0  0
  1  3  1  0  0  0  0
  4  1  1  6  0  0  0
  4  6  1  0  0  0  0
  4 31  1  0  0  0  0
  6  7  1  0  0  0  0
  7  9  1  6  0  0  0
  7 30  1  0  0  0  0
  8 26  1  0  0  0  0
 10  9  1  1  0  0  0
 10 13  1  0  0  0  0
 10 21  1  0  0  0  0
 13 12  1  6  0  0  0
 13 15  1  0  0  0  0
 15  2  1  1  0  0  0
 15 17  1  0  0  0  0
 16 25  1  0  0  0  0
 16 23  1  0  0  0  0
 17 19  1  0  0  0  0
 19  5  1  1  0  0  0
 19 21  1  0  0  0  0
 21 14  1  6  0  0  0
 23 14  1  1  0  0  0
 23 29  1  0  0  0  0
 25 26  1  6  0  0  0
 25 27  1  0  0  0  0
 27 18  1  1  0  0  0
 27 28  1  0  0  0  0
 28 20  1  6  0  0  0
 28 29  1  0  0  0  0
 29 11  1  1  0  0  0
 30 22  1  1  0  0  0
 30 31  1  0  0  0  0
 31 24  1  1  0  0  0
M  END
>  <CHROM.1>
44.52029933,-124.26928673,63.91486482,99.02213175,-9.50870390,81.86583319
20.00654234,4.50234791,16.22968373,-0.92687584,-0.27029802,-2.54102170

>  <Name>
ligand

>  <RI>
0

>  <Rbt.Current_Directory>
/home/itssahil/PROJECTS/Mol_Feturizer/New_Systems/rnas/3DVV

>  <Rbt.Executable>
rbdock ($Id: //depot/dev/client3/rdock/2013.1/src/exe/rbdock.cxx#4 $)

>  <Rbt.Library>
libRbt.so (2013.1, Build901 2013/11/27)

>  <Rbt.Parameter_File>
/export/apps/rDock/src/rDock_2013.1_src/data/scripts/dock_solv.prm

>  <Rbt.Receptor>
prm/pocket_docking_2.prm

>  <SCORE>
4.89494

>  <SCORE.INTER>
-5.45664

>  <SCORE.INTER.CONST>
1

>  <SCORE.INTER.POLAR>
0

>  <SCORE.INTER.ROT>
6

>  <SCORE.INTER.SOLV>
26.2335

>  <SCORE.INTER.VDW>
-19.9823

>  <SCORE.INTER.norm>
-0.176021

>  <SCORE.INTRA>
9.93077

>  <SCORE.INTRA.DIHEDRAL>
10.5041

>  <SCORE.INTRA.DIHEDRAL.0>
10.8172

>  <SCORE.INTRA.POLAR>
0

>  <SCORE.INTRA.POLAR.0>
0

>  <SCORE.INTRA.REPUL>
0

>  <SCORE.INTRA.REPUL.0>
0

>  <SCORE.INTRA.SOLV>
0.568876

>  <SCORE.INTRA.SOLV.lig_0>
-80.3833

>  <SCORE.INTRA.VDW>
4.39427

>  <SCORE.INTRA.VDW.0>
-4.63762

>  <SCORE.INTRA.norm>
0.320348

>  <SCORE.RESTR>
0.420801

>  <SCORE.RESTR.CAVITY>
0.420801

>  <SCORE.RESTR.norm>
0.0135742

>  <SCORE.SYSTEM>
0

>  <SCORE.SYSTEM.CONST>
0

>  <SCORE.SYSTEM.DIHEDRAL>
0

>  <SCORE.SYSTEM.SOLV>
0

>  <SCORE.SYSTEM.norm>
0

>  <SCORE.heavy>
31

>  <SCORE.norm>
0.157901

>  <RMSD>
6.258

$$$$
ligand
 OpenBabel11021811473D
libRbt.so/2013.1/901 2013/11/27
 31 33  0  0  0  0  0  0  0  0999 V2000
   17.3381    0.9087   13.4432 C   0  0  0  0  0  0  0  0  0  0  0  0
   23.5919    4.0931   18.0460 N   0  0  0  0  0  0  0  0  0  0  0  0
   15.9771    1.3326   13.5735 O   0  0  0  0  0  0  0  0  0  0  0  0
   18.1559    1.9772   12.7133 C   0  0  1  0  0  0  0  0  0  0  0  0
   22.1428    8.2385   15.8967 N   0  0  0  0  0  0  0  0  0  0  0  0
   18.2244    3.1781   13.5067 O   0  0  0  0  0  0  0  0  0  0  0  0
   19.6076    3.5314   13.6850 C   0  0  1  0  0  0  0  0  0  0  0  0
   18.1565    9.0417   16.4118 N   0  0  0  0  0  0  0  0  0  0  0  0
   19.8385    4.1487   14.9612 O   0  0  0  0  0  0  0  0  0  0  0  0
   21.1772    4.6364   15.1338 C   0  0  2  0  0  0  0  0  0  0  0  0
   20.5166    6.3373   11.0804 N   0  0  0  0  0  0  0  0  0  0  0  0
   21.8237    2.6629   16.3707 O   0  0  0  0  0  0  0  0  0  0  0  0
   21.6947    4.0840   16.4670 C   0  0  1  0  0  0  0  0  0  0  0  0
   20.9373    6.7041   13.8115 O   0  0  0  0  0  0  0  0  0  0  0  0
   23.0558    4.6908   16.8136 C   0  0  1  0  0  0  0  0  0  0  0  0
   18.7317    7.4529   14.1467 O   0  0  0  0  0  0  0  0  0  0  0  0
   22.9009    6.2018   16.9876 C   0  0  0  0  0  0  0  0  0  0  0  0
   19.4022   10.7707   12.7258 O   0  0  0  0  0  0  0  0  0  0  0  0
   22.4239    6.8132   15.6669 C   0  0  1  0  0  0  0  0  0  0  0  0
   19.6637    9.0440   10.4422 O   0  0  0  0  0  0  0  0  0  0  0  0
   21.1447    6.1618   15.1275 C   0  0  2  0  0  0  0  0  0  0  0  0
   21.7134    2.2929   13.3854 O   0  0  0  0  0  0  0  0  0  0  0  0
   19.5850    6.6255   13.3344 C   0  0  1  0  0  0  0  0  0  0  0  0
   20.1540    1.9441   11.2773 O   0  0  0  0  0  0  0  0  0  0  0  0
   19.0899    8.8454   14.1501 C   0  0  2  0  0  0  0  0  0  0  0  0
   18.1211    9.6103   15.0549 C   0  0  0  0  0  0  0  0  0  0  0  0
   18.9843    9.4031   12.7295 C   0  0  2  0  0  0  0  0  0  0  0  0
   19.8796    8.5980   11.7853 C   0  0  1  0  0  0  0  0  0  0  0  0
   19.5501    7.1059   11.8797 C   0  0  1  0  0  0  0  0  0  0  0  0
   20.3170    2.1790   13.6692 C   0  0  2  0  0  0  0  0  0  0  0  0
   19.5948    1.4929   12.5135 C   0  0  1  0  0  0  0  0  0  0  0  0
  1  3  1  0  0  0  0
  4  1  1  1  0  0  0
  4  6  1  0  0  0  0
  4 31  1  0  0  0  0
  6  7  1  0  0  0  0
  7  9  1  1  0  0  0
  7 30  1  0  0  0  0
  8 26  1  0  0  0  0
 10  9  1  1  0  0  0
 10 13  1  0  0  0  0
 10 21  1  0  0  0  0
 13 12  1  6  0  0  0
 13 15  1  0  0  0  0
 15  2  1  1  0  0  0
 15 17  1  0  0  0  0
 16 25  1  0  0  0  0
 16 23  1  0  0  0  0
 17 19  1  0  0  0  0
 19  5  1  1  0  0  0
 19 21  1  0  0  0  0
 21 14  1  6  0  0  0
 23 14  1  1  0  0  0
 23 29  1  0  0  0  0
 25 26  1  1  0  0  0
 25 27  1  0  0  0  0
 27 18  1  1  0  0  0
 27 28  1  0  0  0  0
 28 20  1  6  0  0  0
 28 29  1  0  0  0  0
 29 11  1  6  0  0  0
 30 22  1  6  0  0  0
 30 31  1  0  0  0  0
 31 24  1  6  0  0  0
M  END
>  <CHROM.1>
65.13596495,-174.28157577,-129.20665836,65.34690989,76.61639559,57.62011175
20.08551967,5.46467909,14.06340969,1.58574076,0.84444575,3.09084276

>  <Name>
ligand

>  <RI>
0

>  <Rbt.Current_Directory>
/home/itssahil/PROJECTS/Mol_Feturizer/New_Systems/rnas/3DVV

>  <Rbt.Executable>
rbdock ($Id: //depot/dev/client3/rdock/2013.1/src/exe/rbdock.cxx#4 $)

>  <Rbt.Library>
libRbt.so (2013.1, Build901 2013/11/27)

>  <Rbt.Parameter_File>
/export/apps/rDock/src/rDock_2013.1_src/data/scripts/dock_solv.prm

>  <Rbt.Receptor>
prm/blind_docking_40.prm

>  <SCORE>
-5.6417

>  <SCORE.INTER>
-4.38191

>  <SCORE.INTER.CONST>
1

>  <SCORE.INTER.POLAR>
0

>  <SCORE.INTER.ROT>
6

>  <SCORE.INTER.SOLV>
29.3084

>  <SCORE.INTER.VDW>
-20.2908

>  <SCORE.INTER.norm>
-0.141352

>  <SCORE.INTRA>
-1.25979

>  <SCORE.INTRA.DIHEDRAL>
-2.10326

>  <SCORE.INTRA.DIHEDRAL.0>
10.8172

>  <SCORE.INTRA.POLAR>
0

>  <SCORE.INTRA.POLAR.0>
0

>  <SCORE.INTRA.REPUL>
0

>  <SCORE.INTRA.REPUL.0>
0

>  <SCORE.INTRA.SOLV>
-2.3644

>  <SCORE.INTRA.SOLV.lig_0>
-80.3833

>  <SCORE.INTRA.VDW>
0.97404

>  <SCORE.INTRA.VDW.0>
-4.63762

>  <SCORE.INTRA.norm>
-0.0406384

>  <SCORE.RESTR>
0

>  <SCORE.RESTR.CAVITY>
0

>  <SCORE.RESTR.norm>
0

>  <SCORE.SYSTEM>
0

>  <SCORE.SYSTEM.CONST>
0

>  <SCORE.SYSTEM.DIHEDRAL>
0

>  <SCORE.SYSTEM.SOLV>
0

>  <SCORE.SYSTEM.norm>
0

>  <SCORE.heavy>
31

>  <SCORE.norm>
-0.18199

>  <RMSD>
6.280

$$$$
ligand
 OpenBabel11021811473D
libRbt.so/2013.1/901 2013/11/27
 31 33  0  0  0  0  0  0  0  0999 V2000
   13.7337    2.2340   19.9541 C   0  0  0  0  0  0  0  0  0  0  0  0
   14.5906    4.1394   11.8434 N   0  0  0  0  0  0  0  0  0  0  0  0
   14.8212    2.1741   20.8828 O   0  0  0  0  0  0  0  0  0  0  0  0
   13.4445    3.6883   19.5734 C   0  0  1  0  0  0  0  0  0  0  0  0
   17.2925    7.7813   13.6709 N   0  0  0  0  0  0  0  0  0  0  0  0
   14.5841    4.2624   18.9040 O   0  0  0  0  0  0  0  0  0  0  0  0
   14.1527    4.7934   17.6383 C   0  0  1  0  0  0  0  0  0  0  0  0
   14.7645   11.8705   16.5899 N   0  0  0  0  0  0  0  0  0  0  0  0
   15.1756    4.6775   16.6367 O   0  0  0  0  0  0  0  0  0  0  0  0
   14.8938    5.4101   15.4351 C   0  0  2  0  0  0  0  0  0  0  0  0
   18.1534    6.4348   17.2685 N   0  0  0  0  0  0  0  0  0  0  0  0
   13.7302    3.5275   14.4633 O   0  0  0  0  0  0  0  0  0  0  0  0
   14.8507    4.3980   14.2843 C   0  0  1  0  0  0  0  0  0  0  0  0
   15.8693    7.5633   16.1371 O   0  0  0  0  0  0  0  0  0  0  0  0
   14.7227    5.1132   12.9379 C   0  0  1  0  0  0  0  0  0  0  0  0
   16.6732    9.7507   16.4646 O   0  0  0  0  0  0  0  0  0  0  0  0
   15.9569    5.9877   12.7159 C   0  0  0  0  0  0  0  0  0  0  0  0
   15.9252    9.7296   20.0586 O   0  0  0  0  0  0  0  0  0  0  0  0
   16.0263    7.0479   13.8190 C   0  0  1  0  0  0  0  0  0  0  0  0
   18.0302    7.7835   19.8427 O   0  0  0  0  0  0  0  0  0  0  0  0
   15.9893    6.4523   15.2316 C   0  0  2  0  0  0  0  0  0  0  0  0
   12.1322    4.4588   16.2732 O   0  0  0  0  0  0  0  0  0  0  0  0
   17.0473    8.3771   16.2509 C   0  0  1  0  0  0  0  0  0  0  0  0
   11.4557    4.9080   18.7908 O   0  0  0  0  0  0  0  0  0  0  0  0
   15.8993    9.9729   17.6558 C   0  0  2  0  0  0  0  0  0  0  0  0
   15.5560   11.4607   17.7608 C   0  0  0  0  0  0  0  0  0  0  0  0
   16.7204    9.5673   18.8811 C   0  0  2  0  0  0  0  0  0  0  0  0
   17.1513    8.1042   18.7593 C   0  0  1  0  0  0  0  0  0  0  0  0
   17.8801    7.8707   17.4333 C   0  0  1  0  0  0  0  0  0  0  0  0
   12.9949    3.8751   17.2523 C   0  0  2  0  0  0  0  0  0  0  0  0
   12.2722    3.7515   18.5903 C   0  0  1  0  0  0  0  0  0  0  0  0
  1  3  1  0  0  0  0
  4  1  1  6  0  0  0
  4  6  1  0  0  0  0
  4 31  1  0  0  0  0
  6  7  1  0  0  0  0
  7  9  1  6  0  0  0
  7 30  1  0  0  0  0
  8 26  1  0  0  0  0
 10  9  1  1  0  0  0
 10 13  1  0  0  0  0
 10 21  1  0  0  0  0
 13 12  1  1  0  0  0
 13 15  1  0  0  0  0
 15  2  1  6  0  0  0
 15 17  1  0  0  0  0
 16 25  1  0  0  0  0
 16 23  1  0  0  0  0
 17 19  1  0  0  0  0
 19  5  1  6  0  0  0
 19 21  1  0  0  0  0
 21 14  1  1  0  0  0
 23 14  1  1  0  0  0
 23 29  1  0  0  0  0
 25 26  1  1  0  0  0
 25 27  1  0  0  0  0
 27 18  1  1  0  0  0
 27 28  1  0  0  0  0
 28 20  1  1  0  0  0
 28 29  1  0  0  0  0
 29 11  1  6  0  0  0
 30 22  1  6  0  0  0
 30 31  1  0  0  0  0
 31 24  1  1  0  0  0
M  END
>  <CHROM.1>
62.89554746,-168.99823418,-120.00566751,146.23298106,163.66106953,60.57685424
15.22190772,6.34003611,16.88875212,3.03267185,-1.09557465,-1.71655255

>  <Name>
ligand

>  <RI>
0

>  <Rbt.Current_Directory>
/home/itssahil/PROJECTS/Mol_Feturizer/New_Systems/rnas/3DVV

>  <Rbt.Executable>
rbdock ($Id: //depot/dev/client3/rdock/2013.1/src/exe/rbdock.cxx#4 $)

>  <Rbt.Library>
libRbt.so (2013.1, Build901 2013/11/27)

>  <Rbt.Parameter_File>
/export/apps/rDock/src/rDock_2013.1_src/data/scripts/dock_solv.prm

>  <Rbt.Receptor>
prm/pocket_docking_7.prm

>  <SCORE>
-0.183689

>  <SCORE.INTER>
-4.25038

>  <SCORE.INTER.CONST>
1

>  <SCORE.INTER.POLAR>
0

>  <SCORE.INTER.ROT>
6

>  <SCORE.INTER.SOLV>
6.99982

>  <SCORE.INTER.VDW>
-12.7669

>  <SCORE.INTER.norm>
-0.137109

>  <SCORE.INTRA>
4.06669

>  <SCORE.INTRA.DIHEDRAL>
2.75023

>  <SCORE.INTRA.DIHEDRAL.0>
10.8172

>  <SCORE.INTRA.POLAR>
0

>  <SCORE.INTRA.POLAR.0>
0

>  <SCORE.INTRA.REPUL>
0

>  <SCORE.INTRA.REPUL.0>
0

>  <SCORE.INTRA.SOLV>
-0.445667

>  <SCORE.INTRA.SOLV.lig_0>
-80.3833

>  <SCORE.INTRA.VDW>
2.91441

>  <SCORE.INTRA.VDW.0>
-4.63762

>  <SCORE.INTRA.norm>
0.131184

>  <SCORE.RESTR>
0

>  <SCORE.RESTR.CAVITY>
0

>  <SCORE.RESTR.norm>
0

>  <SCORE.SYSTEM>
0

>  <SCORE.SYSTEM.CONST>
0

>  <SCORE.SYSTEM.DIHEDRAL>
0

>  <SCORE.SYSTEM.SOLV>
0

>  <SCORE.SYSTEM.norm>
0

>  <SCORE.heavy>
31

>  <SCORE.norm>
-0.00592546

>  <RMSD>
6.288

$$$$
ligand
 OpenBabel11021811473D
libRbt.so/2013.1/901 2013/11/27
 31 33  0  0  0  0  0  0  0  0999 V2000
   19.8790    9.2508   15.9643 C   0  0  0  0  0  0  0  0  0  0  0  0
   20.9243    3.7001   15.3815 N   0  0  0  0  0  0  0  0  0  0  0  0
   20.5434    8.4415   14.9884 O   0  0  0  0  0  0  0  0  0  0  0  0
   18.4643    8.7219   16.2136 C   0  0  1  0  0  0  0  0  0  0  0  0
   16.0401    3.5179   15.5034 N   0  0  0  0  0  0  0  0  0  0  0  0
   18.5151    7.3406   16.6209 O   0  0  0  0  0  0  0  0  0  0  0  0
   17.8113    7.2043   17.8683 C   0  0  1  0  0  0  0  0  0  0  0  0
   17.6925    5.4922   22.9486 N   0  0  0  0  0  0  0  0  0  0  0  0
   18.3959    6.1901   18.7005 O   0  0  0  0  0  0  0  0  0  0  0  0
   18.4873    4.9050   18.0679 C   0  0  2  0  0  0  0  0  0  0  0  0
   13.9370    2.5556   18.5016 N   0  0  0  0  0  0  0  0  0  0  0  0
   20.8853    5.0996   17.8348 O   0  0  0  0  0  0  0  0  0  0  0  0
   19.6700    4.9600   17.0939 C   0  0  1  0  0  0  0  0  0  0  0  0
   16.1071    4.2875   18.2527 O   0  0  0  0  0  0  0  0  0  0  0  0
   19.7379    3.6850   16.2509 C   0  0  1  0  0  0  0  0  0  0  0  0
   17.2567    3.2532   20.0266 O   0  0  0  0  0  0  0  0  0  0  0  0
   18.4690    3.5757   15.4050 C   0  0  0  0  0  0  0  0  0  0  0  0
   15.1812    4.8485   22.6003 O   0  0  0  0  0  0  0  0  0  0  0  0
   17.2543    3.4751   16.3323 C   0  0  1  0  0  0  0  0  0  0  0  0
   13.3210    3.0884   21.2940 O   0  0  0  0  0  0  0  0  0  0  0  0
   17.1728    4.6223   17.3467 C   0  0  2  0  0  0  0  0  0  0  0  0
   17.0694    8.8226   19.5679 O   0  0  0  0  0  0  0  0  0  0  0  0
   16.2937    3.0597   18.9741 C   0  0  1  0  0  0  0  0  0  0  0  0
   16.4018    9.6782   17.1555 O   0  0  0  0  0  0  0  0  0  0  0  0
   16.8817    4.2492   20.9934 C   0  0  2  0  0  0  0  0  0  0  0  0
   17.9873    4.3686   22.0451 C   0  0  0  0  0  0  0  0  0  0  0  0
   15.5847    3.8261   21.6855 C   0  0  2  0  0  0  0  0  0  0  0  0
   14.4832    3.6148   20.6448 C   0  0  1  0  0  0  0  0  0  0  0  0
   14.9476    2.6309   19.5677 C   0  0  1  0  0  0  0  0  0  0  0  0
   18.0261    8.5596   18.5388 C   0  0  2  0  0  0  0  0  0  0  0  0
   17.8060    9.4992   17.3570 C   0  0  1  0  0  0  0  0  0  0  0  0
  1  3  1  0  0  0  0
  4  1  1  1  0  0  0
  4  6  1  0  0  0  0
  4 31  1  0  0  0  0
  6  7  1  0  0  0  0
  7  9  1  1  0  0  0
  7 30  1  0  0  0  0
  8 26  1  0  0  0  0
 10  9  1  6  0  0  0
 10 13  1  0  0  0  0
 10 21  1  0  0  0  0
 13 12  1  1  0  0  0
 13 15  1  0  0  0  0
 15  2  1  6  0  0  0
 15 17  1  0  0  0  0
 16 25  1  0  0  0  0
 16 23  1  0  0  0  0
 17 19  1  0  0  0  0
 19  5  1  6  0  0  0
 19 21  1  0  0  0  0
 21 14  1  1  0  0  0
 23 14  1  1  0  0  0
 23 29  1  0  0  0  0
 25 26  1  1  0  0  0
 25 27  1  0  0  0  0
 27 18  1  1  0  0  0
 27 28  1  0  0  0  0
 28 20  1  1  0  0  0
 28 29  1  0  0  0  0
 29 11  1  6  0  0  0
 30 22  1  1  0  0  0
 30 31  1  0  0  0  0
 31 24  1  6  0  0  0
M  END
>  <CHROM.1>
56.65421585,-55.82927520,76.83565882,75.86512083,-65.18930985,173.34675347
17.45903316,5.40989013,18.39374720,0.32704560,0.96096041,0.32519227

>  <Name>
ligand

>  <RI>
0

>  <Rbt.Current_Directory>
/home/itssahil/PROJECTS/Mol_Feturizer/New_Systems/rnas/3DVV

>  <Rbt.Executable>
rbdock ($Id: //depot/dev/client3/rdock/2013.1/src/exe/rbdock.cxx#4 $)

>  <Rbt.Library>
libRbt.so (2013.1, Build901 2013/11/27)

>  <Rbt.Parameter_File>
/export/apps/rDock/src/rDock_2013.1_src/data/scripts/dock_solv.prm

>  <Rbt.Receptor>
prm/pocket_docking_5.prm

>  <SCORE>
-2.28888

>  <SCORE.INTER>
-2.45749

>  <SCORE.INTER.CONST>
1

>  <SCORE.INTER.POLAR>
0

>  <SCORE.INTER.ROT>
6

>  <SCORE.INTER.SOLV>
11.8976

>  <SCORE.INTER.VDW>
-13.2042

>  <SCORE.INTER.norm>
-0.0792738

>  <SCORE.INTRA>
0.168611

>  <SCORE.INTRA.DIHEDRAL>
-7.65629

>  <SCORE.INTRA.DIHEDRAL.0>
10.8172

>  <SCORE.INTRA.POLAR>
0

>  <SCORE.INTRA.POLAR.0>
0

>  <SCORE.INTRA.REPUL>
0

>  <SCORE.INTRA.REPUL.0>
0

>  <SCORE.INTRA.SOLV>
-1.88227

>  <SCORE.INTRA.SOLV.lig_0>
-80.3833

>  <SCORE.INTRA.VDW>
4.93789

>  <SCORE.INTRA.VDW.0>
-4.63762

>  <SCORE.INTRA.norm>
0.00543905

>  <SCORE.RESTR>
0

>  <SCORE.RESTR.CAVITY>
0

>  <SCORE.RESTR.norm>
0

>  <SCORE.SYSTEM>
0

>  <SCORE.SYSTEM.CONST>
0

>  <SCORE.SYSTEM.DIHEDRAL>
0

>  <SCORE.SYSTEM.SOLV>
0

>  <SCORE.SYSTEM.norm>
0

>  <SCORE.heavy>
31

>  <SCORE.norm>
-0.0738347

>  <RMSD>
6.321

$$$$
ligand
 OpenBabel11021811473D
libRbt.so/2013.1/901 2013/11/27
 31 33  0  0  0  0  0  0  0  0999 V2000
   19.3305    2.1347   10.9088 C   0  0  0  0  0  0  0  0  0  0  0  0
   23.6032    4.2651   18.1856 N   0  0  0  0  0  0  0  0  0  0  0  0
   18.3287    3.0615   11.3405 O   0  0  0  0  0  0  0  0  0  0  0  0
   20.1152    1.6073   12.1126 C   0  0  1  0  0  0  0  0  0  0  0  0
   21.7450    8.2355   16.0208 N   0  0  0  0  0  0  0  0  0  0  0  0
   20.6917    2.7037   12.8488 O   0  0  0  0  0  0  0  0  0  0  0  0
   20.2744    2.6034   14.2220 C   0  0  1  0  0  0  0  0  0  0  0  0
   16.7968    9.4067   14.6160 N   0  0  0  0  0  0  0  0  0  0  0  0
   20.1138    3.8973   14.8246 O   0  0  0  0  0  0  0  0  0  0  0  0
   21.3544    4.5604   15.1095 C   0  0  2  0  0  0  0  0  0  0  0  0
   20.5025    6.2843   11.0815 N   0  0  0  0  0  0  0  0  0  0  0  0
   22.1806    2.6574   16.3498 O   0  0  0  0  0  0  0  0  0  0  0  0
   21.8461    4.0430   16.4663 C   0  0  1  0  0  0  0  0  0  0  0  0
   20.9225    6.6158   13.8172 O   0  0  0  0  0  0  0  0  0  0  0  0
   23.0794    4.8215   16.9289 C   0  0  1  0  0  0  0  0  0  0  0  0
   18.7371    7.4226   14.1508 O   0  0  0  0  0  0  0  0  0  0  0  0
   22.7010    6.2901   17.1227 C   0  0  0  0  0  0  0  0  0  0  0  0
   19.5048   10.7326   12.7613 O   0  0  0  0  0  0  0  0  0  0  0  0
   22.2400    6.8711   15.7828 C   0  0  1  0  0  0  0  0  0  0  0  0
   19.7274    9.0190   10.4638 O   0  0  0  0  0  0  0  0  0  0  0  0
   21.1079    6.0659   15.1333 C   0  0  2  0  0  0  0  0  0  0  0  0
   18.4848    1.3453   15.3500 O   0  0  0  0  0  0  0  0  0  0  0  0
   19.5704    6.5789   13.3345 C   0  0  1  0  0  0  0  0  0  0  0  0
   19.8053   -0.2467   13.7009 O   0  0  0  0  0  0  0  0  0  0  0  0
   19.1338    8.8045   14.1676 C   0  0  2  0  0  0  0  0  0  0  0  0
   18.1830    9.5882   15.0755 C   0  0  0  0  0  0  0  0  0  0  0  0
   19.0493    9.3771   12.7515 C   0  0  2  0  0  0  0  0  0  0  0  0
   19.9256    8.5557   11.8037 C   0  0  1  0  0  0  0  0  0  0  0  0
   19.5546    7.0725   11.8839 C   0  0  1  0  0  0  0  0  0  0  0  0
   18.8997    1.9457   14.1208 C   0  0  2  0  0  0  0  0  0  0  0  0
   19.1750    0.8722   13.0722 C   0  0  1  0  0  0  0  0  0  0  0  0
  1  3  1  0  0  0  0
  4  1  1  6  0  0  0
  4  6  1  0  0  0  0
  4 31  1  0  0  0  0
  6  7  1  0  0  0  0
  7  9  1  6  0  0  0
  7 30  1  0  0  0  0
  8 26  1  0  0  0  0
 10  9  1  1  0  0  0
 10 13  1  0  0  0  0
 10 21  1  0  0  0  0
 13 12  1  6  0  0  0
 13 15  1  0  0  0  0
 15  2  1  1  0  0  0
 15 17  1  0  0  0  0
 16 25  1  0  0  0  0
 16 23  1  0  0  0  0
 17 19  1  0  0  0  0
 19  5  1  1  0  0  0
 19 21  1  0  0  0  0
 21 14  1  6  0  0  0
 23 14  1  1  0  0  0
 23 29  1  0  0  0  0
 25 26  1  1  0  0  0
 25 27  1  0  0  0  0
 27 18  1  1  0  0  0
 27 28  1  0  0  0  0
 28 20  1  6  0  0  0
 28 29  1  0  0  0  0
 29 11  1  6  0  0  0
 30 22  1  1  0  0  0
 30 31  1  0  0  0  0
 31 24  1  1  0  0  0
M  END
>  <CHROM.1>
-56.56433851,-73.43036556,-84.20694316,64.89613458,87.30960850,-56.38939072
20.19387749,5.36681794,14.02614863,1.35060354,0.98682853,-3.07624831

>  <Name>
ligand

>  <RI>
0

>  <Rbt.Current_Directory>
/home/itssahil/PROJECTS/Mol_Feturizer/New_Systems/rnas/3DVV

>  <Rbt.Executable>
rbdock ($Id: //depot/dev/client3/rdock/2013.1/src/exe/rbdock.cxx#4 $)

>  <Rbt.Library>
libRbt.so (2013.1, Build901 2013/11/27)

>  <Rbt.Parameter_File>
/export/apps/rDock/src/rDock_2013.1_src/data/scripts/dock_solv.prm

>  <Rbt.Receptor>
prm/blind_docking_40.prm

>  <SCORE>
-4.93906

>  <SCORE.INTER>
-4.27484

>  <SCORE.INTER.CONST>
1

>  <SCORE.INTER.POLAR>
0

>  <SCORE.INTER.ROT>
6

>  <SCORE.INTER.SOLV>
29.1877

>  <SCORE.INTER.VDW>
-20.1791

>  <SCORE.INTER.norm>
-0.137898

>  <SCORE.INTRA>
-1.07931

>  <SCORE.INTRA.DIHEDRAL>
-3.98247

>  <SCORE.INTRA.DIHEDRAL.0>
10.8172

>  <SCORE.INTRA.POLAR>
0

>  <SCORE.INTRA.POLAR.0>
0

>  <SCORE.INTRA.REPUL>
0

>  <SCORE.INTRA.REPUL.0>
0

>  <SCORE.INTRA.SOLV>
-0.362756

>  <SCORE.INTRA.SOLV.lig_0>
-80.3833

>  <SCORE.INTRA.VDW>
1.0933

>  <SCORE.INTRA.VDW.0>
-4.63762

>  <SCORE.INTRA.norm>
-0.0348166

>  <SCORE.RESTR>
0.415093

>  <SCORE.RESTR.CAVITY>
0.415093

>  <SCORE.RESTR.norm>
0.0133901

>  <SCORE.SYSTEM>
0

>  <SCORE.SYSTEM.CONST>
0

>  <SCORE.SYSTEM.DIHEDRAL>
0

>  <SCORE.SYSTEM.SOLV>
0

>  <SCORE.SYSTEM.norm>
0

>  <SCORE.heavy>
31

>  <SCORE.norm>
-0.159324

>  <RMSD>
6.335

$$$$
ligand
 OpenBabel11021811473D
libRbt.so/2013.1/901 2013/11/27
 31 33  0  0  0  0  0  0  0  0999 V2000
   21.8231    7.2075   16.0180 C   0  0  0  0  0  0  0  0  0  0  0  0
   20.9186    2.2759   13.1051 N   0  0  0  0  0  0  0  0  0  0  0  0
   21.4589    6.4565   17.1809 O   0  0  0  0  0  0  0  0  0  0  0  0
   20.5878    7.4751   15.1545 C   0  0  1  0  0  0  0  0  0  0  0  0
   17.0879    4.5447   11.0846 N   0  0  0  0  0  0  0  0  0  0  0  0
   19.9054    6.2389   14.8672 O   0  0  0  0  0  0  0  0  0  0  0  0
   18.5319    6.3678   15.2755 C   0  0  1  0  0  0  0  0  0  0  0  0
   16.3604    3.5189   17.9431 N   0  0  0  0  0  0  0  0  0  0  0  0
   17.9985    5.1209   15.7484 O   0  0  0  0  0  0  0  0  0  0  0  0
   17.9840    4.0846   14.7554 C   0  0  2  0  0  0  0  0  0  0  0  0
   13.6192    4.1293   12.1227 N   0  0  0  0  0  0  0  0  0  0  0  0
   19.9970    3.0882   15.6486 O   0  0  0  0  0  0  0  0  0  0  0  0
   19.4417    3.6975   14.4799 C   0  0  1  0  0  0  0  0  0  0  0  0
   15.8678    4.7203   13.6606 O   0  0  0  0  0  0  0  0  0  0  0  0
   19.5301    2.7157   13.3098 C   0  0  1  0  0  0  0  0  0  0  0  0
   15.3074    3.1002   15.2729 O   0  0  0  0  0  0  0  0  0  0  0  0
   19.0029    3.3946   12.0455 C   0  0  0  0  0  0  0  0  0  0  0  0
   12.6770    5.1758   16.7726 O   0  0  0  0  0  0  0  0  0  0  0  0
   17.5315    3.7665   12.2512 C   0  0  1  0  0  0  0  0  0  0  0  0
   11.6052    4.5846   14.1714 O   0  0  0  0  0  0  0  0  0  0  0  0
   17.2940    4.6187   13.5038 C   0  0  2  0  0  0  0  0  0  0  0  0
   17.3531    7.9569   16.7395 O   0  0  0  0  0  0  0  0  0  0  0  0
   15.1965    3.4708   13.8862 C   0  0  1  0  0  0  0  0  0  0  0  0
   18.9076    9.2700   15.0492 O   0  0  0  0  0  0  0  0  0  0  0  0
   14.7318    4.0507   16.1853 C   0  0  2  0  0  0  0  0  0  0  0  0
   14.9254    3.5505   17.6188 C   0  0  0  0  0  0  0  0  0  0  0  0
   13.2336    4.1836   15.9062 C   0  0  2  0  0  0  0  0  0  0  0  0
   13.0090    4.5992   14.4509 C   0  0  1  0  0  0  0  0  0  0  0  0
   13.7215    3.6310   13.5029 C   0  0  1  0  0  0  0  0  0  0  0  0
   18.6088    7.3361   16.4542 C   0  0  2  0  0  0  0  0  0  0  0  0
   19.5982    8.3639   15.9132 C   0  0  1  0  0  0  0  0  0  0  0  0
  1  3  1  0  0  0  0
  4  1  1  1  0  0  0
  4  6  1  0  0  0  0
  4 31  1  0  0  0  0
  6  7  1  0  0  0  0
  7  9  1  1  0  0  0
  7 30  1  0  0  0  0
  8 26  1  0  0  0  0
 10  9  1  1  0  0  0
 10 13  1  0  0  0  0
 10 21  1  0  0  0  0
 13 12  1  1  0  0  0
 13 15  1  0  0  0  0
 15  2  1  6  0  0  0
 15 17  1  0  0  0  0
 16 25  1  0  0  0  0
 16 23  1  0  0  0  0
 17 19  1  0  0  0  0
 19  5  1  6  0  0  0
 19 21  1  0  0  0  0
 21 14  1  1  0  0  0
 23 14  1  1  0  0  0
 23 29  1  0  0  0  0
 25 26  1  1  0  0  0
 25 27  1  0  0  0  0
 27 18  1  1  0  0  0
 27 28  1  0  0  0  0
 28 20  1  6  0  0  0
 28 29  1  0  0  0  0
 29 11  1  6  0  0  0
 30 22  1  6  0  0  0
 30 31  1  0  0  0  0
 31 24  1  6  0  0  0
M  END
>  <CHROM.1>
-53.23636890,-61.89932820,69.03964664,81.12846287,-62.83412942,65.05804573
17.21963525,4.95617112,14.87777204,0.29610008,0.16008626,0.79408361

>  <Name>
ligand

>  <RI>
0

>  <Rbt.Current_Directory>
/home/itssahil/PROJECTS/Mol_Feturizer/New_Systems/rnas/3DVV

>  <Rbt.Executable>
rbdock ($Id: //depot/dev/client3/rdock/2013.1/src/exe/rbdock.cxx#4 $)

>  <Rbt.Library>
libRbt.so (2013.1, Build901 2013/11/27)

>  <Rbt.Parameter_File>
/export/apps/rDock/src/rDock_2013.1_src/data/scripts/dock_solv.prm

>  <Rbt.Receptor>
prm/pocket_docking_6.prm

>  <SCORE>
-4.28682

>  <SCORE.INTER>
-3.99172

>  <SCORE.INTER.CONST>
1

>  <SCORE.INTER.POLAR>
0

>  <SCORE.INTER.ROT>
6

>  <SCORE.INTER.SOLV>
14.3297

>  <SCORE.INTER.VDW>
-15.0377

>  <SCORE.INTER.norm>
-0.128765

>  <SCORE.INTRA>
-0.295103

>  <SCORE.INTRA.DIHEDRAL>
-7.84401

>  <SCORE.INTRA.DIHEDRAL.0>
10.8172

>  <SCORE.INTRA.POLAR>
0

>  <SCORE.INTRA.POLAR.0>
0

>  <SCORE.INTRA.REPUL>
0

>  <SCORE.INTRA.REPUL.0>
0

>  <SCORE.INTRA.SOLV>
-0.709168

>  <SCORE.INTRA.SOLV.lig_0>
-80.3833

>  <SCORE.INTRA.VDW>
3.98149

>  <SCORE.INTRA.VDW.0>
-4.63762

>  <SCORE.INTRA.norm>
-0.00951946

>  <SCORE.RESTR>
0

>  <SCORE.RESTR.CAVITY>
0

>  <SCORE.RESTR.norm>
0

>  <SCORE.SYSTEM>
0

>  <SCORE.SYSTEM.CONST>
0

>  <SCORE.SYSTEM.DIHEDRAL>
0

>  <SCORE.SYSTEM.SOLV>
0

>  <SCORE.SYSTEM.norm>
0

>  <SCORE.heavy>
31

>  <SCORE.norm>
-0.138285

>  <RMSD>
6.336

$$$$
ligand
 OpenBabel11021811473D
libRbt.so/2013.1/901 2013/11/27
 31 33  0  0  0  0  0  0  0  0999 V2000
   16.2527    7.3993   24.0194 C   0  0  0  0  0  0  0  0  0  0  0  0
   12.1639    2.4813   18.5755 N   0  0  0  0  0  0  0  0  0  0  0  0
   15.1404    8.2994   23.9823 O   0  0  0  0  0  0  0  0  0  0  0  0
   15.7727    5.9590   23.8238 C   0  0  1  0  0  0  0  0  0  0  0  0
   14.0749    6.3222   16.2305 N   0  0  0  0  0  0  0  0  0  0  0  0
   15.1837    5.8049   22.5177 O   0  0  0  0  0  0  0  0  0  0  0  0
   15.8437    4.7195   21.8424 C   0  0  1  0  0  0  0  0  0  0  0  0
   19.4695    6.9830   16.1415 N   0  0  0  0  0  0  0  0  0  0  0  0
   15.9217    4.9436   20.4259 O   0  0  0  0  0  0  0  0  0  0  0  0
   14.6436    5.1205   19.7973 C   0  0  2  0  0  0  0  0  0  0  0  0
   15.0386    9.6802   20.1281 N   0  0  0  0  0  0  0  0  0  0  0  0
   13.7755    3.1047   20.8100 O   0  0  0  0  0  0  0  0  0  0  0  0
   14.0593    3.7243   19.5527 C   0  0  1  0  0  0  0  0  0  0  0  0
   15.1185    7.2820   18.7095 O   0  0  0  0  0  0  0  0  0  0  0  0
   12.7709    3.8118   18.7322 C   0  0  1  0  0  0  0  0  0  0  0  0
   17.3964    6.9568   19.2029 O   0  0  0  0  0  0  0  0  0  0  0  0
   13.0899    4.4078   17.3609 C   0  0  0  0  0  0  0  0  0  0  0  0
   18.5163    9.4418   16.7439 O   0  0  0  0  0  0  0  0  0  0  0  0
   13.6403    5.8251   17.5447 C   0  0  1  0  0  0  0  0  0  0  0  0
   17.1661   11.0578   18.7010 O   0  0  0  0  0  0  0  0  0  0  0  0
   14.8437    5.8868   18.4932 C   0  0  2  0  0  0  0  0  0  0  0  0
   17.9626    3.5310   22.2374 O   0  0  0  0  0  0  0  0  0  0  0  0
   16.1652    7.5497   19.6557 C   0  0  1  0  0  0  0  0  0  0  0  0
   16.6144    3.7486   24.5029 O   0  0  0  0  0  0  0  0  0  0  0  0
   17.8533    7.4452   17.9302 C   0  0  2  0  0  0  0  0  0  0  0  0
   19.1549    6.7319   17.5570 C   0  0  0  0  0  0  0  0  0  0  0  0
   18.1233    8.9478   18.0271 C   0  0  2  0  0  0  0  0  0  0  0  0
   16.8580    9.6768   18.4840 C   0  0  1  0  0  0  0  0  0  0  0  0
   16.3313    9.0675   19.7860 C   0  0  1  0  0  0  0  0  0  0  0  0
   17.2589    4.7627   22.4150 C   0  0  2  0  0  0  0  0  0  0  0  0
   16.9603    4.9947   23.8932 C   0  0  1  0  0  0  0  0  0  0  0  0
  1  3  1  0  0  0  0
  4  1  1  6  0  0  0
  4  6  1  0  0  0  0
  4 31  1  0  0  0  0
  6  7  1  0  0  0  0
  7  9  1  6  0  0  0
  7 30  1  0  0  0  0
  8 26  1  0  0  0  0
 10  9  1  6  0  0  0
 10 13  1  0  0  0  0
 10 21  1  0  0  0  0
 13 12  1  1  0  0  0
 13 15  1  0  0  0  0
 15  2  1  6  0  0  0
 15 17  1  0  0  0  0
 16 25  1  0  0  0  0
 16 23  1  0  0  0  0
 17 19  1  0  0  0  0
 19  5  1  6  0  0  0
 19 21  1  0  0  0  0
 21 14  1  1  0  0  0
 23 14  1  6  0  0  0
 23 29  1  0  0  0  0
 25 26  1  1  0  0  0
 25 27  1  0  0  0  0
 27 18  1  6  0  0  0
 27 28  1  0  0  0  0
 28 20  1  1  0  0  0
 28 29  1  0  0  0  0
 29 11  1  6  0  0  0
 30 22  1  1  0  0  0
 30 31  1  0  0  0  0
 31 24  1  6  0  0  0
M  END
>  <CHROM.1>
63.53805205,-58.43875876,-81.77314319,60.11002737,50.37317687,167.06151710
15.92894538,6.31856388,19.96624239,-2.10058217,-0.89105771,-1.25888028

>  <Name>
ligand

>  <RI>
0

>  <Rbt.Current_Directory>
/home/itssahil/PROJECTS/Mol_Feturizer/New_Systems/rnas/3DVV

>  <Rbt.Executable>
rbdock ($Id: //depot/dev/client3/rdock/2013.1/src/exe/rbdock.cxx#4 $)

>  <Rbt.Library>
libRbt.so (2013.1, Build901 2013/11/27)

>  <Rbt.Parameter_File>
/export/apps/rDock/src/rDock_2013.1_src/data/scripts/dock_solv.prm

>  <Rbt.Receptor>
prm/pocket_docking_7.prm

>  <SCORE>
-4.19855

>  <SCORE.INTER>
-1.27855

>  <SCORE.INTER.CONST>
1

>  <SCORE.INTER.POLAR>
0

>  <SCORE.INTER.ROT>
6

>  <SCORE.INTER.SOLV>
10.5157

>  <SCORE.INTER.VDW>
-11.9576

>  <SCORE.INTER.norm>
-0.0412435

>  <SCORE.INTRA>
-2.92

>  <SCORE.INTRA.DIHEDRAL>
-7.37244

>  <SCORE.INTRA.DIHEDRAL.0>
10.8172

>  <SCORE.INTRA.POLAR>
0

>  <SCORE.INTRA.POLAR.0>
0

>  <SCORE.INTRA.REPUL>
0

>  <SCORE.INTRA.REPUL.0>
0

>  <SCORE.INTRA.SOLV>
-3.57982

>  <SCORE.INTRA.SOLV.lig_0>
-80.3833

>  <SCORE.INTRA.VDW>
2.55613

>  <SCORE.INTRA.VDW.0>
-4.63762

>  <SCORE.INTRA.norm>
-0.0941937

>  <SCORE.RESTR>
0

>  <SCORE.RESTR.CAVITY>
0

>  <SCORE.RESTR.norm>
0

>  <SCORE.SYSTEM>
0

>  <SCORE.SYSTEM.CONST>
0

>  <SCORE.SYSTEM.DIHEDRAL>
0

>  <SCORE.SYSTEM.SOLV>
0

>  <SCORE.SYSTEM.norm>
0

>  <SCORE.heavy>
31

>  <SCORE.norm>
-0.135437

>  <RMSD>
6.341

$$$$
ligand
 OpenBabel11021811473D
libRbt.so/2013.1/901 2013/11/27
 31 33  0  0  0  0  0  0  0  0999 V2000
   17.7450    2.2031   15.7955 C   0  0  0  0  0  0  0  0  0  0  0  0
   13.7544    7.7557   21.2375 N   0  0  0  0  0  0  0  0  0  0  0  0
   17.4626    1.0096   15.0574 O   0  0  0  0  0  0  0  0  0  0  0  0
   16.6800    2.4213   16.8731 C   0  0  1  0  0  0  0  0  0  0  0  0
   17.4223   10.0744   18.9849 N   0  0  0  0  0  0  0  0  0  0  0  0
   16.8773    3.6960   17.5155 O   0  0  0  0  0  0  0  0  0  0  0  0
   15.6522    4.4458   17.4322 C   0  0  1  0  0  0  0  0  0  0  0  0
   15.9188    9.4982   14.6358 N   0  0  0  0  0  0  0  0  0  0  0  0
   15.8989    5.8557   17.3134 O   0  0  0  0  0  0  0  0  0  0  0  0
   16.1804    6.5009   18.5642 C   0  0  2  0  0  0  0  0  0  0  0  0
   20.6965    6.2628   17.3874 N   0  0  0  0  0  0  0  0  0  0  0  0
   14.2441    5.5002   19.6092 O   0  0  0  0  0  0  0  0  0  0  0  0
   14.8372    6.7535   19.2587 C   0  0  1  0  0  0  0  0  0  0  0  0
   18.2944    7.5817   17.8979 O   0  0  0  0  0  0  0  0  0  0  0  0
   15.0304    7.5907   20.5246 C   0  0  1  0  0  0  0  0  0  0  0  0
   17.7523    7.6787   15.6099 O   0  0  0  0  0  0  0  0  0  0  0  0
   15.5968    8.9576   20.1396 C   0  0  0  0  0  0  0  0  0  0  0  0
   20.1038   10.4163   14.9374 O   0  0  0  0  0  0  0  0  0  0  0  0
   16.9639    8.7661   19.4763 C   0  0  1  0  0  0  0  0  0  0  0  0
   21.8536    8.2281   15.5819 O   0  0  0  0  0  0  0  0  0  0  0  0
   16.9265    7.8020   18.2843 C   0  0  2  0  0  0  0  0  0  0  0  0
   13.6280    4.2150   16.0512 O   0  0  0  0  0  0  0  0  0  0  0  0
   18.4643    6.9437   16.6225 C   0  0  1  0  0  0  0  0  0  0  0  0
   14.2907    1.8695   17.0796 O   0  0  0  0  0  0  0  0  0  0  0  0
   18.1874    9.0401   15.4536 C   0  0  2  0  0  0  0  0  0  0  0  0
   17.3491    9.7126   14.3639 C   0  0  0  0  0  0  0  0  0  0  0  0
   19.6572    9.0609   15.0301 C   0  0  2  0  0  0  0  0  0  0  0  0
   20.5078    8.3173   16.0618 C   0  0  1  0  0  0  0  0  0  0  0  0
   19.9594    6.9061   16.2889 C   0  0  1  0  0  0  0  0  0  0  0  0
   15.0315    3.9541   16.1262 C   0  0  2  0  0  0  0  0  0  0  0  0
   15.2873    2.4541   16.2373 C   0  0  1  0  0  0  0  0  0  0  0  0
  1  3  1  0  0  0  0
  4  1  1  6  0  0  0
  4  6  1  0  0  0  0
  4 31  1  0  0  0  0
  6  7  1  0  0  0  0
  7  9  1  6  0  0  0
  7 30  1  0  0  0  0
  8 26  1  0  0  0  0
 10  9  1  6  0  0  0
 10 13  1  0  0  0  0
 10 21  1  0  0  0  0
 13 12  1  1  0  0  0
 13 15  1  0  0  0  0
 15  2  1  6  0  0  0
 15 17  1  0  0  0  0
 16 25  1  0  0  0  0
 16 23  1  0  0  0  0
 17 19  1  0  0  0  0
 19  5  1  6  0  0  0
 19 21  1  0  0  0  0
 21 14  1  1  0  0  0
 23 14  1  1  0  0  0
 23 29  1  0  0  0  0
 25 26  1  6  0  0  0
 25 27  1  0  0  0  0
 27 18  1  1  0  0  0
 27 28  1  0  0  0  0
 28 20  1  6  0  0  0
 28 29  1  0  0  0  0
 29 11  1  1  0  0  0
 30 22  1  1  0  0  0
 30 31  1  0  0  0  0
 31 24  1  1  0  0  0
M  END
>  <CHROM.1>
-173.56519647,-81.04907470,-80.39555674,54.02209747,67.64003515,50.77487668
17.03864719,6.45876415,17.11628651,-2.34890053,0.68035395,0.38592234

>  <Name>
ligand

>  <RI>
0

>  <Rbt.Current_Directory>
/home/itssahil/PROJECTS/Mol_Feturizer/New_Systems/rnas/3DVV

>  <Rbt.Executable>
rbdock ($Id: //depot/dev/client3/rdock/2013.1/src/exe/rbdock.cxx#4 $)

>  <Rbt.Library>
libRbt.so (2013.1, Build901 2013/11/27)

>  <Rbt.Parameter_File>
/export/apps/rDock/src/rDock_2013.1_src/data/scripts/dock_solv.prm

>  <Rbt.Receptor>
prm/pocket_docking_5.prm

>  <SCORE>
-4.13008

>  <SCORE.INTER>
-1.20411

>  <SCORE.INTER.CONST>
1

>  <SCORE.INTER.POLAR>
0

>  <SCORE.INTER.ROT>
6

>  <SCORE.INTER.SOLV>
16.9176

>  <SCORE.INTER.VDW>
-14.042

>  <SCORE.INTER.norm>
-0.0388421

>  <SCORE.INTRA>
-2.92597

>  <SCORE.INTRA.DIHEDRAL>
-5.88899

>  <SCORE.INTRA.DIHEDRAL.0>
10.8172

>  <SCORE.INTRA.POLAR>
0

>  <SCORE.INTRA.POLAR.0>
0

>  <SCORE.INTRA.REPUL>
0

>  <SCORE.INTRA.REPUL.0>
0

>  <SCORE.INTRA.SOLV>
-3.82799

>  <SCORE.INTRA.SOLV.lig_0>
-80.3833

>  <SCORE.INTRA.VDW>
1.93252

>  <SCORE.INTRA.VDW.0>
-4.63762

>  <SCORE.INTRA.norm>
-0.0943862

>  <SCORE.RESTR>
0

>  <SCORE.RESTR.CAVITY>
0

>  <SCORE.RESTR.norm>
0

>  <SCORE.SYSTEM>
0

>  <SCORE.SYSTEM.CONST>
0

>  <SCORE.SYSTEM.DIHEDRAL>
0

>  <SCORE.SYSTEM.SOLV>
0

>  <SCORE.SYSTEM.norm>
0

>  <SCORE.heavy>
31

>  <SCORE.norm>
-0.133228

>  <RMSD>
6.353

$$$$
ligand
 OpenBabel11021811473D
libRbt.so/2013.1/901 2013/11/27
 31 33  0  0  0  0  0  0  0  0999 V2000
   21.6245    7.8259   15.5830 C   0  0  0  0  0  0  0  0  0  0  0  0
   20.8396    2.0541   13.5313 N   0  0  0  0  0  0  0  0  0  0  0  0
   22.2414    7.2789   16.7531 O   0  0  0  0  0  0  0  0  0  0  0  0
   20.1699    7.3591   15.4863 C   0  0  1  0  0  0  0  0  0  0  0  0
   16.1668    2.2753   14.9523 N   0  0  0  0  0  0  0  0  0  0  0  0
   20.0912    5.9342   15.6854 O   0  0  0  0  0  0  0  0  0  0  0  0
   19.1575    5.6706   16.7477 C   0  0  1  0  0  0  0  0  0  0  0  0
   13.5915    4.6926   15.4345 N   0  0  0  0  0  0  0  0  0  0  0  0
   19.5347    4.5148   17.5124 O   0  0  0  0  0  0  0  0  0  0  0  0
   19.3281    3.2729   16.8232 C   0  0  2  0  0  0  0  0  0  0  0  0
   17.3021    2.8843   20.3876 N   0  0  0  0  0  0  0  0  0  0  0  0
   21.5872    3.2806   15.9634 O   0  0  0  0  0  0  0  0  0  0  0  0
   20.2121    3.2948   15.5707 C   0  0  1  0  0  0  0  0  0  0  0  0
   17.0314    2.8466   17.6134 O   0  0  0  0  0  0  0  0  0  0  0  0
   19.9286    2.0793   14.6857 C   0  0  1  0  0  0  0  0  0  0  0  0
   15.4008    4.5428   17.6551 O   0  0  0  0  0  0  0  0  0  0  0  0
   18.4774    2.1352   14.2078 C   0  0  0  0  0  0  0  0  0  0  0  0
   12.7495    2.2780   18.8030 O   0  0  0  0  0  0  0  0  0  0  0  0
   17.5460    2.0739   15.4220 C   0  0  1  0  0  0  0  0  0  0  0  0
   14.5204    2.3713   21.0657 O   0  0  0  0  0  0  0  0  0  0  0  0
   17.8488    3.1518   16.4699 C   0  0  2  0  0  0  0  0  0  0  0  0
   18.1641    7.0800   18.5040 O   0  0  0  0  0  0  0  0  0  0  0  0
   16.5471    3.9930   18.3303 C   0  0  1  0  0  0  0  0  0  0  0  0
   18.0017    8.3049   16.1650 O   0  0  0  0  0  0  0  0  0  0  0  0
   14.2948    3.6322   17.5336 C   0  0  2  0  0  0  0  0  0  0  0  0
   13.1516    4.3277   16.7906 C   0  0  0  0  0  0  0  0  0  0  0  0
   13.8074    3.2322   18.9274 C   0  0  2  0  0  0  0  0  0  0  0  0
   14.9572    2.6119   19.7239 C   0  0  1  0  0  0  0  0  0  0  0  0
   16.1612    3.5572   19.7478 C   0  0  1  0  0  0  0  0  0  0  0  0
   19.2896    6.9025   17.6407 C   0  0  2  0  0  0  0  0  0  0  0  0
   19.3340    8.0099   16.5921 C   0  0  1  0  0  0  0  0  0  0  0  0
  1  3  1  0  0  0  0
  4  1  1  1  0  0  0
  4  6  1  0  0  0  0
  4 31  1  0  0  0  0
  6  7  1  0  0  0  0
  7  9  1  1  0  0  0
  7 30  1  0  0  0  0
  8 26  1  0  0  0  0
 10  9  1  6  0  0  0
 10 13  1  0  0  0  0
 10 21  1  0  0  0  0
 13 12  1  1  0  0  0
 13 15  1  0  0  0  0
 15  2  1  6  0  0  0
 15 17  1  0  0  0  0
 16 25  1  0  0  0  0
 16 23  1  0  0  0  0
 17 19  1  0  0  0  0
 19  5  1  6  0  0  0
 19 21  1  0  0  0  0
 21 14  1  1  0  0  0
 23 14  1  6  0  0  0
 23 29  1  0  0  0  0
 25 26  1  6  0  0  0
 25 27  1  0  0  0  0
 27 18  1  6  0  0  0
 27 28  1  0  0  0  0
 28 20  1  1  0  0  0
 28 29  1  0  0  0  0
 29 11  1  6  0  0  0
 30 22  1  1  0  0  0
 30 31  1  0  0  0  0
 31 24  1  6  0  0  0
M  END
>  <CHROM.1>
-48.30408327,-72.77880076,61.67584252,80.31956752,89.12568316,61.86717341
17.72015857,4.33305323,16.99989875,0.19036909,0.52880582,0.42444198

>  <Name>
ligand

>  <RI>
0

>  <Rbt.Current_Directory>
/home/itssahil/PROJECTS/Mol_Feturizer/New_Systems/rnas/3DVV

>  <Rbt.Executable>
rbdock ($Id: //depot/dev/client3/rdock/2013.1/src/exe/rbdock.cxx#4 $)

>  <Rbt.Library>
libRbt.so (2013.1, Build901 2013/11/27)

>  <Rbt.Parameter_File>
/export/apps/rDock/src/rDock_2013.1_src/data/scripts/dock_solv.prm

>  <Rbt.Receptor>
prm/pocket_docking_4.prm

>  <SCORE>
-5.02267

>  <SCORE.INTER>
-4.95018

>  <SCORE.INTER.CONST>
1

>  <SCORE.INTER.POLAR>
0

>  <SCORE.INTER.ROT>
6

>  <SCORE.INTER.SOLV>
17.058

>  <SCORE.INTER.VDW>
-16.5861

>  <SCORE.INTER.norm>
-0.159683

>  <SCORE.INTRA>
-0.0724902

>  <SCORE.INTRA.DIHEDRAL>
-4.09332

>  <SCORE.INTRA.DIHEDRAL.0>
10.8172

>  <SCORE.INTRA.POLAR>
0

>  <SCORE.INTRA.POLAR.0>
0

>  <SCORE.INTRA.REPUL>
0

>  <SCORE.INTRA.REPUL.0>
0

>  <SCORE.INTRA.SOLV>
-0.973525

>  <SCORE.INTRA.SOLV.lig_0>
-80.3833

>  <SCORE.INTRA.VDW>
2.46093

>  <SCORE.INTRA.VDW.0>
-4.63762

>  <SCORE.INTRA.norm>
-0.00233839

>  <SCORE.RESTR>
0

>  <SCORE.RESTR.CAVITY>
0

>  <SCORE.RESTR.norm>
0

>  <SCORE.SYSTEM>
0

>  <SCORE.SYSTEM.CONST>
0

>  <SCORE.SYSTEM.DIHEDRAL>
0

>  <SCORE.SYSTEM.SOLV>
0

>  <SCORE.SYSTEM.norm>
0

>  <SCORE.heavy>
31

>  <SCORE.norm>
-0.162022

>  <RMSD>
6.354

$$$$
ligand
 OpenBabel11021811473D
libRbt.so/2013.1/901 2013/11/27
 31 33  0  0  0  0  0  0  0  0999 V2000
   12.5133    5.5179   15.6482 C   0  0  0  0  0  0  0  0  0  0  0  0
   19.2390    7.0412   10.9173 N   0  0  0  0  0  0  0  0  0  0  0  0
   12.0592    6.8664   15.4927 O   0  0  0  0  0  0  0  0  0  0  0  0
   13.3217    5.0886   14.4212 C   0  0  1  0  0  0  0  0  0  0  0  0
   20.2532    8.8809   15.3320 N   0  0  0  0  0  0  0  0  0  0  0  0
   14.5136    5.8902   14.3065 O   0  0  0  0  0  0  0  0  0  0  0  0
   15.6516    5.0125   14.2397 C   0  0  1  0  0  0  0  0  0  0  0  0
   15.9594   11.8067   18.1905 N   0  0  0  0  0  0  0  0  0  0  0  0
   16.8071    5.5917   14.8660 O   0  0  0  0  0  0  0  0  0  0  0  0
   17.3002    6.7631   14.1991 C   0  0  2  0  0  0  0  0  0  0  0  0
   19.0466    6.1570   17.5353 N   0  0  0  0  0  0  0  0  0  0  0  0
   16.9781    5.7596   12.0239 O   0  0  0  0  0  0  0  0  0  0  0  0
   17.9706    6.2995   12.9006 C   0  0  1  0  0  0  0  0  0  0  0  0
   17.6324    8.1576   16.2056 O   0  0  0  0  0  0  0  0  0  0  0  0
   18.6739    7.4676   12.2065 C   0  0  1  0  0  0  0  0  0  0  0  0
   17.9562    9.6867   17.9649 O   0  0  0  0  0  0  0  0  0  0  0  0
   19.7829    7.9965   13.1163 C   0  0  0  0  0  0  0  0  0  0  0  0
   15.4141    8.1171   20.0981 O   0  0  0  0  0  0  0  0  0  0  0  0
   19.1618    8.5135   14.4172 C   0  0  1  0  0  0  0  0  0  0  0  0
   17.4618    6.1030   19.9738 O   0  0  0  0  0  0  0  0  0  0  0  0
   18.2859    7.4715   15.1235 C   0  0  2  0  0  0  0  0  0  0  0  0
   15.9773    2.6342   14.7832 O   0  0  0  0  0  0  0  0  0  0  0  0
   18.4976    8.5378   17.2871 C   0  0  1  0  0  0  0  0  0  0  0  0
   13.7901    2.9353   13.3260 O   0  0  0  0  0  0  0  0  0  0  0  0
   16.6517    9.4766   18.5319 C   0  0  2  0  0  0  0  0  0  0  0  0
   16.1849   10.7678   19.2081 C   0  0  0  0  0  0  0  0  0  0  0  0
   16.7243    8.3668   19.5822 C   0  0  2  0  0  0  0  0  0  0  0  0
   17.2719    7.0855   18.9502 C   0  0  1  0  0  0  0  0  0  0  0  0
   18.6111    7.3601   18.2609 C   0  0  1  0  0  0  0  0  0  0  0  0
   15.2099    3.8066   15.0662 C   0  0  2  0  0  0  0  0  0  0  0  0
   13.7763    3.6342   14.5733 C   0  0  1  0  0  0  0  0  0  0  0  0
  1  3  1  0  0  0  0
  4  1  1  1  0  0  0
  4  6  1  0  0  0  0
  4 31  1  0  0  0  0
  6  7  1  0  0  0  0
  7  9  1  1  0  0  0
  7 30  1  0  0  0  0
  8 26  1  0  0  0  0
 10  9  1  1  0  0  0
 10 13  1  0  0  0  0
 10 21  1  0  0  0  0
 13 12  1  6  0  0  0
 13 15  1  0  0  0  0
 15  2  1  6  0  0  0
 15 17  1  0  0  0  0
 16 25  1  0  0  0  0
 16 23  1  0  0  0  0
 17 19  1  0  0  0  0
 19  5  1  1  0  0  0
 19 21  1  0  0  0  0
 21 14  1  1  0  0  0
 23 14  1  6  0  0  0
 23 29  1  0  0  0  0
 25 26  1  1  0  0  0
 25 27  1  0  0  0  0
 27 18  1  6  0  0  0
 27 28  1  0  0  0  0
 28 20  1  1  0  0  0
 28 29  1  0  0  0  0
 29 11  1  6  0  0  0
 30 22  1  6  0  0  0
 30 31  1  0  0  0  0
 31 24  1  6  0  0  0
M  END
>  <CHROM.1>
63.79749029,-65.42101830,-72.75399872,153.38205302,164.38407957,67.02591368
16.68554208,6.89959491,15.77451021,1.92538400,-0.56300319,-2.09130392

>  <Name>
ligand

>  <RI>
0

>  <Rbt.Current_Directory>
/home/itssahil/PROJECTS/Mol_Feturizer/New_Systems/rnas/3DVV

>  <Rbt.Executable>
rbdock ($Id: //depot/dev/client3/rdock/2013.1/src/exe/rbdock.cxx#4 $)

>  <Rbt.Library>
libRbt.so (2013.1, Build901 2013/11/27)

>  <Rbt.Parameter_File>
/export/apps/rDock/src/rDock_2013.1_src/data/scripts/dock_solv.prm

>  <Rbt.Receptor>
prm/pocket_docking_8.prm

>  <SCORE>
-2.38564

>  <SCORE.INTER>
-3.36786

>  <SCORE.INTER.CONST>
1

>  <SCORE.INTER.POLAR>
0

>  <SCORE.INTER.ROT>
6

>  <SCORE.INTER.SOLV>
15.9273

>  <SCORE.INTER.VDW>
-15.1544

>  <SCORE.INTER.norm>
-0.108641

>  <SCORE.INTRA>
0.982226

>  <SCORE.INTRA.DIHEDRAL>
-5.3274

>  <SCORE.INTRA.DIHEDRAL.0>
10.8172

>  <SCORE.INTRA.POLAR>
0

>  <SCORE.INTRA.POLAR.0>
0

>  <SCORE.INTRA.REPUL>
0.00247992

>  <SCORE.INTRA.REPUL.0>
0

>  <SCORE.INTRA.SOLV>
-0.765252

>  <SCORE.INTRA.SOLV.lig_0>
-80.3833

>  <SCORE.INTRA.VDW>
4.01615

>  <SCORE.INTRA.VDW.0>
-4.63762

>  <SCORE.INTRA.norm>
0.0316847

>  <SCORE.RESTR>
0

>  <SCORE.RESTR.CAVITY>
0

>  <SCORE.RESTR.norm>
0

>  <SCORE.SYSTEM>
0

>  <SCORE.SYSTEM.CONST>
0

>  <SCORE.SYSTEM.DIHEDRAL>
0

>  <SCORE.SYSTEM.SOLV>
0

>  <SCORE.SYSTEM.norm>
0

>  <SCORE.heavy>
31

>  <SCORE.norm>
-0.0769561

>  <RMSD>
6.357

$$$$
ligand
 OpenBabel11021811473D
libRbt.so/2013.1/901 2013/11/27
 31 33  0  0  0  0  0  0  0  0999 V2000
   21.9018    7.9188   15.8605 C   0  0  0  0  0  0  0  0  0  0  0  0
   21.3151    2.1596   13.6847 N   0  0  0  0  0  0  0  0  0  0  0  0
   22.8348    7.3129   14.9599 O   0  0  0  0  0  0  0  0  0  0  0  0
   20.4804    7.4469   15.5438 C   0  0  1  0  0  0  0  0  0  0  0  0
   16.5124    2.3009   14.5886 N   0  0  0  0  0  0  0  0  0  0  0  0
   20.3732    6.0240   15.7442 O   0  0  0  0  0  0  0  0  0  0  0  0
   19.2858    5.7694   16.6511 C   0  0  1  0  0  0  0  0  0  0  0  0
   13.7767    4.7218   14.9083 N   0  0  0  0  0  0  0  0  0  0  0  0
   19.5406    4.6230   17.4781 O   0  0  0  0  0  0  0  0  0  0  0  0
   19.4330    3.3725   16.7820 C   0  0  2  0  0  0  0  0  0  0  0  0
   17.1457    2.9560   20.1086 N   0  0  0  0  0  0  0  0  0  0  0  0
   21.7715    3.4176   16.1722 O   0  0  0  0  0  0  0  0  0  0  0  0
   20.4471    3.4025   15.6326 C   0  0  1  0  0  0  0  0  0  0  0  0
   17.0723    2.9077   17.3224 O   0  0  0  0  0  0  0  0  0  0  0  0
   20.2838    2.1755   14.7333 C   0  0  1  0  0  0  0  0  0  0  0  0
   15.4199    4.5814   17.2429 O   0  0  0  0  0  0  0  0  0  0  0  0
   18.8924    2.2001   14.1004 C   0  0  0  0  0  0  0  0  0  0  0  0
   12.7251    2.2832   18.2085 O   0  0  0  0  0  0  0  0  0  0  0  0
   17.8358    2.1295   15.2069 C   0  0  1  0  0  0  0  0  0  0  0  0
   14.3302    2.4065   20.5904 O   0  0  0  0  0  0  0  0  0  0  0  0
   18.0033    3.2204   16.2715 C   0  0  2  0  0  0  0  0  0  0  0  0
   18.0297    7.1951   18.2155 O   0  0  0  0  0  0  0  0  0  0  0  0
   16.5230    4.0491   17.9993 C   0  0  1  0  0  0  0  0  0  0  0  0
   18.2321    8.3940   15.8662 O   0  0  0  0  0  0  0  0  0  0  0  0
   14.3377    3.6554   17.0468 C   0  0  2  0  0  0  0  0  0  0  0  0
   13.2406    4.3332   16.2225 C   0  0  0  0  0  0  0  0  0  0  0  0
   13.7585    3.2522   18.4040 C   0  0  2  0  0  0  0  0  0  0  0  0
   14.8574    2.6498   19.2819 C   0  0  1  0  0  0  0  0  0  0  0  0
   16.0439    3.6116   19.3875 C   0  0  1  0  0  0  0  0  0  0  0  0
   19.2760    7.0113   17.5400 C   0  0  2  0  0  0  0  0  0  0  0  0
   19.4819    8.1074   16.4987 C   0  0  1  0  0  0  0  0  0  0  0  0
  1  3  1  0  0  0  0
  4  1  1  1  0  0  0
  4  6  1  0  0  0  0
  4 31  1  0  0  0  0
  6  7  1  0  0  0  0
  7  9  1  1  0  0  0
  7 30  1  0  0  0  0
  8 26  1  0  0  0  0
 10  9  1  6  0  0  0
 10 13  1  0  0  0  0
 10 21  1  0  0  0  0
 13 12  1  1  0  0  0
 13 15  1  0  0  0  0
 15  2  1  6  0  0  0
 15 17  1  0  0  0  0
 16 25  1  0  0  0  0
 16 23  1  0  0  0  0
 17 19  1  0  0  0  0
 19  5  1  6  0  0  0
 19 21  1  0  0  0  0
 21 14  1  1  0  0  0
 23 14  1  6  0  0  0
 23 29  1  0  0  0  0
 25 26  1  6  0  0  0
 25 27  1  0  0  0  0
 27 18  1  6  0  0  0
 27 28  1  0  0  0  0
 28 20  1  1  0  0  0
 28 29  1  0  0  0  0
 29 11  1  6  0  0  0
 30 22  1  6  0  0  0
 30 31  1  0  0  0  0
 31 24  1  6  0  0  0
M  END
>  <CHROM.1>
62.94440369,-73.32517629,59.04315228,82.56466461,87.30896825,60.88723645
17.85198311,4.40148186,16.73201581,0.25120609,0.46506807,0.32046886

>  <Name>
ligand

>  <RI>
0

>  <Rbt.Current_Directory>
/home/itssahil/PROJECTS/Mol_Feturizer/New_Systems/rnas/3DVV

>  <Rbt.Executable>
rbdock ($Id: //depot/dev/client3/rdock/2013.1/src/exe/rbdock.cxx#4 $)

>  <Rbt.Library>
libRbt.so (2013.1, Build901 2013/11/27)

>  <Rbt.Parameter_File>
/export/apps/rDock/src/rDock_2013.1_src/data/scripts/dock_solv.prm

>  <Rbt.Receptor>
prm/pocket_docking_5.prm

>  <SCORE>
-6.75141

>  <SCORE.INTER>
-6.45256

>  <SCORE.INTER.CONST>
1

>  <SCORE.INTER.POLAR>
0

>  <SCORE.INTER.ROT>
6

>  <SCORE.INTER.SOLV>
17.6507

>  <SCORE.INTER.VDW>
-17.7853

>  <SCORE.INTER.norm>
-0.208147

>  <SCORE.INTRA>
-0.298855

>  <SCORE.INTRA.DIHEDRAL>
-4.45331

>  <SCORE.INTRA.DIHEDRAL.0>
10.8172

>  <SCORE.INTRA.POLAR>
0

>  <SCORE.INTRA.POLAR.0>
0

>  <SCORE.INTRA.REPUL>
0

>  <SCORE.INTRA.REPUL.0>
0

>  <SCORE.INTRA.SOLV>
-1.68614

>  <SCORE.INTRA.SOLV.lig_0>
-80.3833

>  <SCORE.INTRA.VDW>
2.77087

>  <SCORE.INTRA.VDW.0>
-4.63762

>  <SCORE.INTRA.norm>
-0.00964048

>  <SCORE.RESTR>
0

>  <SCORE.RESTR.CAVITY>
0

>  <SCORE.RESTR.norm>
0

>  <SCORE.SYSTEM>
0

>  <SCORE.SYSTEM.CONST>
0

>  <SCORE.SYSTEM.DIHEDRAL>
0

>  <SCORE.SYSTEM.SOLV>
0

>  <SCORE.SYSTEM.norm>
0

>  <SCORE.heavy>
31

>  <SCORE.norm>
-0.217788

>  <RMSD>
6.365

$$$$
ligand
 OpenBabel11021811473D
libRbt.so/2013.1/901 2013/11/27
 31 33  0  0  0  0  0  0  0  0999 V2000
   18.4462    2.7479   10.9529 C   0  0  0  0  0  0  0  0  0  0  0  0
   23.5944    4.4746   18.1045 N   0  0  0  0  0  0  0  0  0  0  0  0
   17.5552    3.5453   11.7398 O   0  0  0  0  0  0  0  0  0  0  0  0
   19.5176    2.1169   11.8458 C   0  0  1  0  0  0  0  0  0  0  0  0
   21.8367    8.3281   15.6623 N   0  0  0  0  0  0  0  0  0  0  0  0
   20.1966    3.1372   12.6036 O   0  0  0  0  0  0  0  0  0  0  0  0
   20.1203    2.7983   13.9997 C   0  0  1  0  0  0  0  0  0  0  0  0
   16.7004    9.2074   14.0121 N   0  0  0  0  0  0  0  0  0  0  0  0
   20.0428    3.9695   14.8275 O   0  0  0  0  0  0  0  0  0  0  0  0
   21.3092    4.6094   15.0440 C   0  0  2  0  0  0  0  0  0  0  0  0
   20.5920    5.8357   10.9344 N   0  0  0  0  0  0  0  0  0  0  0  0
   22.0904    2.7802   16.4175 O   0  0  0  0  0  0  0  0  0  0  0  0
   21.8044    4.1814   16.4304 C   0  0  1  0  0  0  0  0  0  0  0  0
   20.9263    6.5727   13.6019 O   0  0  0  0  0  0  0  0  0  0  0  0
   23.0700    4.9502   16.8152 C   0  0  1  0  0  0  0  0  0  0  0  0
   18.7118    7.3529   13.7621 O   0  0  0  0  0  0  0  0  0  0  0  0
   22.7441    6.4415   16.8994 C   0  0  0  0  0  0  0  0  0  0  0  0
   19.4303   10.4483   11.9240 O   0  0  0  0  0  0  0  0  0  0  0  0
   22.2820    6.9331   15.5245 C   0  0  1  0  0  0  0  0  0  0  0  0
   19.7624    8.4273    9.9066 O   0  0  0  0  0  0  0  0  0  0  0  0
   21.1136    6.1199   14.9542 C   0  0  2  0  0  0  0  0  0  0  0  0
   18.7112    1.2372   15.2785 O   0  0  0  0  0  0  0  0  0  0  0  0
   19.5896    6.4254   13.0975 C   0  0  1  0  0  0  0  0  0  0  0  0
   19.6825    0.0277   13.1357 O   0  0  0  0  0  0  0  0  0  0  0  0
   19.0711    8.7340   13.5869 C   0  0  2  0  0  0  0  0  0  0  0  0
   18.0749    9.6119   14.3480 C   0  0  0  0  0  0  0  0  0  0  0  0
   19.0112    9.0925   12.1009 C   0  0  2  0  0  0  0  0  0  0  0  0
   19.9351    8.1692   11.3040 C   0  0  1  0  0  0  0  0  0  0  0  0
   19.6014    6.7028   11.5905 C   0  0  1  0  0  0  0  0  0  0  0  0
   18.7946    2.0471   14.1035 C   0  0  2  0  0  0  0  0  0  0  0  0
   18.8675    1.1691   12.8578 C   0  0  1  0  0  0  0  0  0  0  0  0
  1  3  1  0  0  0  0
  4  1  1  6  0  0  0
  4  6  1  0  0  0  0
  4 31  1  0  0  0  0
  6  7  1  0  0  0  0
  7  9  1  1  0  0  0
  7 30  1  0  0  0  0
  8 26  1  0  0  0  0
 10  9  1  1  0  0  0
 10 13  1  0  0  0  0
 10 21  1  0  0  0  0
 13 12  1  6  0  0  0
 13 15  1  0  0  0  0
 15  2  1  1  0  0  0
 15 17  1  0  0  0  0
 16 25  1  0  0  0  0
 16 23  1  0  0  0  0
 17 19  1  0  0  0  0
 19  5  1  1  0  0  0
 19 21  1  0  0  0  0
 21 14  1  6  0  0  0
 23 14  1  1  0  0  0
 23 29  1  0  0  0  0
 25 26  1  1  0  0  0
 25 27  1  0  0  0  0
 27 18  1  1  0  0  0
 27 28  1  0  0  0  0
 28 20  1  6  0  0  0
 28 29  1  0  0  0  0
 29 11  1  6  0  0  0
 30 22  1  1  0  0  0
 30 31  1  0  0  0  0
 31 24  1  1  0  0  0
M  END
>  <CHROM.1>
-54.71821000,-79.53298049,-100.31398472,69.87124083,81.60164827,-49.31129889
20.07905074,5.39944402,13.76436097,1.32490239,0.94273244,3.07993020

>  <Name>
ligand

>  <RI>
0

>  <Rbt.Current_Directory>
/home/itssahil/PROJECTS/Mol_Feturizer/New_Systems/rnas/3DVV

>  <Rbt.Executable>
rbdock ($Id: //depot/dev/client3/rdock/2013.1/src/exe/rbdock.cxx#4 $)

>  <Rbt.Library>
libRbt.so (2013.1, Build901 2013/11/27)

>  <Rbt.Parameter_File>
/export/apps/rDock/src/rDock_2013.1_src/data/scripts/dock_solv.prm

>  <Rbt.Receptor>
prm/blind_docking_60.prm

>  <SCORE>
-2.19064

>  <SCORE.INTER>
-2.99555

>  <SCORE.INTER.CONST>
1

>  <SCORE.INTER.POLAR>
0

>  <SCORE.INTER.ROT>
6

>  <SCORE.INTER.SOLV>
27.7612

>  <SCORE.INTER.VDW>
-18.8508

>  <SCORE.INTER.norm>
-0.0966308

>  <SCORE.INTRA>
0.263268

>  <SCORE.INTRA.DIHEDRAL>
-0.458468

>  <SCORE.INTRA.DIHEDRAL.0>
10.8172

>  <SCORE.INTRA.POLAR>
0

>  <SCORE.INTRA.POLAR.0>
0

>  <SCORE.INTRA.REPUL>
0

>  <SCORE.INTRA.REPUL.0>
0

>  <SCORE.INTRA.SOLV>
0.624645

>  <SCORE.INTRA.SOLV.lig_0>
-80.3833

>  <SCORE.INTRA.VDW>
0.18018

>  <SCORE.INTRA.VDW.0>
-4.63762

>  <SCORE.INTRA.norm>
0.00849252

>  <SCORE.RESTR>
0.54165

>  <SCORE.RESTR.CAVITY>
0.54165

>  <SCORE.RESTR.norm>
0.0174726

>  <SCORE.SYSTEM>
0

>  <SCORE.SYSTEM.CONST>
0

>  <SCORE.SYSTEM.DIHEDRAL>
0

>  <SCORE.SYSTEM.SOLV>
0

>  <SCORE.SYSTEM.norm>
0

>  <SCORE.heavy>
31

>  <SCORE.norm>
-0.0706657

>  <RMSD>
6.366

$$$$
ligand
 OpenBabel11021811473D
libRbt.so/2013.1/901 2013/11/27
 31 33  0  0  0  0  0  0  0  0999 V2000
   20.2065    2.1284   10.6303 C   0  0  0  0  0  0  0  0  0  0  0  0
   22.7853    4.1323   18.1249 N   0  0  0  0  0  0  0  0  0  0  0  0
   19.4213    3.3241   10.5797 O   0  0  0  0  0  0  0  0  0  0  0  0
   20.1756    1.5363   12.0416 C   0  0  1  0  0  0  0  0  0  0  0  0
   21.4949    8.1932   15.7274 N   0  0  0  0  0  0  0  0  0  0  0  0
   20.6160    2.5168   13.0013 O   0  0  0  0  0  0  0  0  0  0  0  0
   19.6032    2.6544   14.0137 C   0  0  1  0  0  0  0  0  0  0  0  0
   17.9050    9.4796   15.4967 N   0  0  0  0  0  0  0  0  0  0  0  0
   19.5338    3.9979   14.5170 O   0  0  0  0  0  0  0  0  0  0  0  0
   20.8097    4.5462   14.8795 C   0  0  2  0  0  0  0  0  0  0  0  0
   20.5556    5.9345   10.8017 N   0  0  0  0  0  0  0  0  0  0  0  0
   21.3493    2.6125   16.2257 O   0  0  0  0  0  0  0  0  0  0  0  0
   21.1464    4.0271   16.2822 C   0  0  1  0  0  0  0  0  0  0  0  0
   20.6803    6.5914   13.5079 O   0  0  0  0  0  0  0  0  0  0  0  0
   22.4133    4.6965   16.8184 C   0  0  1  0  0  0  0  0  0  0  0  0
   18.5179    7.5195   13.4791 O   0  0  0  0  0  0  0  0  0  0  0  0
   22.1693    6.2003   16.9467 C   0  0  0  0  0  0  0  0  0  0  0  0
   19.6153   10.5950   11.8020 O   0  0  0  0  0  0  0  0  0  0  0  0
   21.8683    6.7803   15.5615 C   0  0  1  0  0  0  0  0  0  0  0  0
   20.0040    8.5980    9.7708 O   0  0  0  0  0  0  0  0  0  0  0  0
   20.7128    6.0685   14.8474 C   0  0  2  0  0  0  0  0  0  0  0  0
   17.2335    1.9988   14.1242 O   0  0  0  0  0  0  0  0  0  0  0  0
   19.3915    6.5473   12.8756 C   0  0  1  0  0  0  0  0  0  0  0  0
   18.6879   -0.0221   13.2306 O   0  0  0  0  0  0  0  0  0  0  0  0
   18.9840    8.8757   13.3763 C   0  0  2  0  0  0  0  0  0  0  0  0
   17.9802    9.8045   14.0634 C   0  0  0  0  0  0  0  0  0  0  0  0
   19.0914    9.2681   11.9016 C   0  0  2  0  0  0  0  0  0  0  0  0
   20.0238    8.2998   11.1708 C   0  0  1  0  0  0  0  0  0  0  0  0
   19.5667    6.8544   11.3846 C   0  0  1  0  0  0  0  0  0  0  0  0
   18.3110    2.3571   13.2559 C   0  0  2  0  0  0  0  0  0  0  0  0
   18.7418    1.1550   12.4207 C   0  0  1  0  0  0  0  0  0  0  0  0
  1  3  1  0  0  0  0
  4  1  1  6  0  0  0
  4  6  1  0  0  0  0
  4 31  1  0  0  0  0
  6  7  1  0  0  0  0
  7  9  1  6  0  0  0
  7 30  1  0  0  0  0
  8 26  1  0  0  0  0
 10  9  1  1  0  0  0
 10 13  1  0  0  0  0
 10 21  1  0  0  0  0
 13 12  1  6  0  0  0
 13 15  1  0  0  0  0
 15  2  1  1  0  0  0
 15 17  1  0  0  0  0
 16 25  1  0  0  0  0
 16 23  1  0  0  0  0
 17 19  1  0  0  0  0
 19  5  1  1  0  0  0
 19 21  1  0  0  0  0
 21 14  1  6  0  0  0
 23 14  1  1  0  0  0
 23 29  1  0  0  0  0
 25 26  1  1  0  0  0
 25 27  1  0  0  0  0
 27 18  1  1  0  0  0
 27 28  1  0  0  0  0
 28 20  1  6  0  0  0
 28 29  1  0  0  0  0
 29 11  1  1  0  0  0
 30 22  1  1  0  0  0
 30 31  1  0  0  0  0
 31 24  1  1  0  0  0
M  END
>  <CHROM.1>
-55.74375724,-48.75213089,-81.68635183,71.32883405,81.41178914,62.92812442
19.96562906,5.37196549,13.61304781,1.45751990,1.17050784,3.11965701

>  <Name>
ligand

>  <RI>
0

>  <Rbt.Current_Directory>
/home/itssahil/PROJECTS/Mol_Feturizer/New_Systems/rnas/3DVV

>  <Rbt.Executable>
rbdock ($Id: //depot/dev/client3/rdock/2013.1/src/exe/rbdock.cxx#4 $)

>  <Rbt.Library>
libRbt.so (2013.1, Build901 2013/11/27)

>  <Rbt.Parameter_File>
/export/apps/rDock/src/rDock_2013.1_src/data/scripts/dock_solv.prm

>  <Rbt.Receptor>
prm/blind_docking_80.prm

>  <SCORE>
-4.63199

>  <SCORE.INTER>
-2.93821

>  <SCORE.INTER.CONST>
1

>  <SCORE.INTER.POLAR>
0

>  <SCORE.INTER.ROT>
6

>  <SCORE.INTER.SOLV>
28.1911

>  <SCORE.INTER.VDW>
-18.9558

>  <SCORE.INTER.norm>
-0.094781

>  <SCORE.INTRA>
-1.71797

>  <SCORE.INTRA.DIHEDRAL>
-5.1881

>  <SCORE.INTRA.DIHEDRAL.0>
10.8172

>  <SCORE.INTRA.POLAR>
0

>  <SCORE.INTRA.POLAR.0>
0

>  <SCORE.INTRA.REPUL>
0

>  <SCORE.INTRA.REPUL.0>
0

>  <SCORE.INTRA.SOLV>
-0.451247

>  <SCORE.INTRA.SOLV.lig_0>
-80.3833

>  <SCORE.INTRA.VDW>
1.10171

>  <SCORE.INTRA.VDW.0>
-4.63762

>  <SCORE.INTRA.norm>
-0.0554182

>  <SCORE.RESTR>
0.0241873

>  <SCORE.RESTR.CAVITY>
0.0241873

>  <SCORE.RESTR.norm>
0.000780236

>  <SCORE.SYSTEM>
0

>  <SCORE.SYSTEM.CONST>
0

>  <SCORE.SYSTEM.DIHEDRAL>
0

>  <SCORE.SYSTEM.SOLV>
0

>  <SCORE.SYSTEM.norm>
0

>  <SCORE.heavy>
31

>  <SCORE.norm>
-0.149419

>  <RMSD>
6.367

$$$$
ligand
 OpenBabel11021811473D
libRbt.so/2013.1/901 2013/11/27
 31 33  0  0  0  0  0  0  0  0999 V2000
   23.0980    7.4235   15.9342 C   0  0  0  0  0  0  0  0  0  0  0  0
   19.5341    0.8319   12.6754 N   0  0  0  0  0  0  0  0  0  0  0  0
   22.7582    6.9578   14.6241 O   0  0  0  0  0  0  0  0  0  0  0  0
   22.5249    6.4800   16.9947 C   0  0  1  0  0  0  0  0  0  0  0  0
   15.9429    1.7355   15.8677 N   0  0  0  0  0  0  0  0  0  0  0  0
   21.1158    6.2784   16.7706 O   0  0  0  0  0  0  0  0  0  0  0  0
   20.8641    4.8650   16.6771 C   0  0  1  0  0  0  0  0  0  0  0  0
   13.0495    4.8175   17.6988 N   0  0  0  0  0  0  0  0  0  0  0  0
   19.7952    4.5747   15.7627 O   0  0  0  0  0  0  0  0  0  0  0  0
   19.4597    3.1811   15.6892 C   0  0  2  0  0  0  0  0  0  0  0  0
   18.6093    4.3438   19.8980 N   0  0  0  0  0  0  0  0  0  0  0  0
   21.1077    2.7918   13.9643 O   0  0  0  0  0  0  0  0  0  0  0  0
   19.7068    2.7289   14.2453 C   0  0  1  0  0  0  0  0  0  0  0  0
   17.7975    3.1557   17.5106 O   0  0  0  0  0  0  0  0  0  0  0  0
   19.2149    1.2956   14.0343 C   0  0  1  0  0  0  0  0  0  0  0  0
   15.8070    4.4098   17.4536 O   0  0  0  0  0  0  0  0  0  0  0  0
   17.7042    1.2455   14.2645 C   0  0  0  0  0  0  0  0  0  0  0  0
   14.1760    2.3602   20.0256 O   0  0  0  0  0  0  0  0  0  0  0  0
   17.4028    1.6496   15.7106 C   0  0  1  0  0  0  0  0  0  0  0  0
   16.2768    3.6601   21.4959 O   0  0  0  0  0  0  0  0  0  0  0  0
   17.9986    3.0096   16.0939 C   0  0  2  0  0  0  0  0  0  0  0  0
   22.3226    2.9160   16.3133 O   0  0  0  0  0  0  0  0  0  0  0  0
   17.1734    4.3874   17.9061 C   0  0  1  0  0  0  0  0  0  0  0  0
   23.3627    4.4870   18.1702 O   0  0  0  0  0  0  0  0  0  0  0  0
   14.9943    3.3461   17.9783 C   0  0  2  0  0  0  0  0  0  0  0  0
   13.5769    3.4732   17.4151 C   0  0  0  0  0  0  0  0  0  0  0  0
   14.9321    3.4557   19.5029 C   0  0  2  0  0  0  0  0  0  0  0  0
   16.3460    3.4188   20.0865 C   0  0  1  0  0  0  0  0  0  0  0  0
   17.2213    4.4922   19.4341 C   0  0  1  0  0  0  0  0  0  0  0  0
   22.1630    4.3186   16.0880 C   0  0  2  0  0  0  0  0  0  0  0  0
   23.1930    5.1059   16.8924 C   0  0  1  0  0  0  0  0  0  0  0  0
  1  3  1  0  0  0  0
  4  1  1  6  0  0  0
  4  6  1  0  0  0  0
  4 31  1  0  0  0  0
  6  7  1  0  0  0  0
  7  9  1  6  0  0  0
  7 30  1  0  0  0  0
  8 26  1  0  0  0  0
 10  9  1  6  0  0  0
 10 13  1  0  0  0  0
 10 21  1  0  0  0  0
 13 12  1  1  0  0  0
 13 15  1  0  0  0  0
 15  2  1  6  0  0  0
 15 17  1  0  0  0  0
 16 25  1  0  0  0  0
 16 23  1  0  0  0  0
 17 19  1  0  0  0  0
 19  5  1  6  0  0  0
 19 21  1  0  0  0  0
 21 14  1  1  0  0  0
 23 14  1  1  0  0  0
 23 29  1  0  0  0  0
 25 26  1  6  0  0  0
 25 27  1  0  0  0  0
 27 18  1  1  0  0  0
 27 28  1  0  0  0  0
 28 20  1  1  0  0  0
 28 29  1  0  0  0  0
 29 11  1  1  0  0  0
 30 22  1  1  0  0  0
 30 31  1  0  0  0  0
 31 24  1  1  0  0  0
M  END
>  <CHROM.1>
-52.30960992,-176.87582068,-118.69306989,68.18209029,106.05781365,-54.76091885
18.71584514,3.80039478,16.88923783,-0.20019652,0.38575465,0.98916711

>  <Name>
ligand

>  <RI>
0

>  <Rbt.Current_Directory>
/home/itssahil/PROJECTS/Mol_Feturizer/New_Systems/rnas/3DVV

>  <Rbt.Executable>
rbdock ($Id: //depot/dev/client3/rdock/2013.1/src/exe/rbdock.cxx#4 $)

>  <Rbt.Library>
libRbt.so (2013.1, Build901 2013/11/27)

>  <Rbt.Parameter_File>
/export/apps/rDock/src/rDock_2013.1_src/data/scripts/dock_solv.prm

>  <Rbt.Receptor>
prm/pocket_docking_3.prm

>  <SCORE>
-3.87886

>  <SCORE.INTER>
-7.73263

>  <SCORE.INTER.CONST>
1

>  <SCORE.INTER.POLAR>
0

>  <SCORE.INTER.ROT>
6

>  <SCORE.INTER.SOLV>
19.3656

>  <SCORE.INTER.VDW>
-19.2103

>  <SCORE.INTER.norm>
-0.24944

>  <SCORE.INTRA>
3.84451

>  <SCORE.INTRA.DIHEDRAL>
3.44304

>  <SCORE.INTRA.DIHEDRAL.0>
10.8172

>  <SCORE.INTRA.POLAR>
0

>  <SCORE.INTRA.POLAR.0>
0

>  <SCORE.INTRA.REPUL>
0

>  <SCORE.INTRA.REPUL.0>
0

>  <SCORE.INTRA.SOLV>
1.07628

>  <SCORE.INTRA.SOLV.lig_0>
-80.3833

>  <SCORE.INTRA.VDW>
1.58485

>  <SCORE.INTRA.VDW.0>
-4.63762

>  <SCORE.INTRA.norm>
0.124017

>  <SCORE.RESTR>
0.00925877

>  <SCORE.RESTR.CAVITY>
0.00925877

>  <SCORE.RESTR.norm>
0.00029867

>  <SCORE.SYSTEM>
0

>  <SCORE.SYSTEM.CONST>
0

>  <SCORE.SYSTEM.DIHEDRAL>
0

>  <SCORE.SYSTEM.SOLV>
0

>  <SCORE.SYSTEM.norm>
0

>  <SCORE.heavy>
31

>  <SCORE.norm>
-0.125124

>  <RMSD>
6.374

$$$$
ligand
 OpenBabel11021811473D
libRbt.so/2013.1/901 2013/11/27
 31 33  0  0  0  0  0  0  0  0999 V2000
   18.3508    2.7712   10.9643 C   0  0  0  0  0  0  0  0  0  0  0  0
   23.6016    4.2260   18.0690 N   0  0  0  0  0  0  0  0  0  0  0  0
   17.7152    1.7476   10.1915 O   0  0  0  0  0  0  0  0  0  0  0  0
   19.4505    2.1651   11.8398 C   0  0  1  0  0  0  0  0  0  0  0  0
   21.9088    8.3067   15.9748 N   0  0  0  0  0  0  0  0  0  0  0  0
   20.1375    3.2040   12.5645 O   0  0  0  0  0  0  0  0  0  0  0  0
   20.0994    2.8865   13.9672 C   0  0  1  0  0  0  0  0  0  0  0  0
   16.7612    9.4653   14.5292 N   0  0  0  0  0  0  0  0  0  0  0  0
   20.0302    4.0698   14.7783 O   0  0  0  0  0  0  0  0  0  0  0  0
   21.3091    4.6652   15.0427 C   0  0  2  0  0  0  0  0  0  0  0  0
   20.5825    6.4415   11.0314 N   0  0  0  0  0  0  0  0  0  0  0  0
   22.0603    2.7107   16.2504 O   0  0  0  0  0  0  0  0  0  0  0  0
   21.8008    4.1107   16.3848 C   0  0  1  0  0  0  0  0  0  0  0  0
   20.9586    6.7517   13.7760 O   0  0  0  0  0  0  0  0  0  0  0  0
   23.0820    4.8201   16.8278 C   0  0  1  0  0  0  0  0  0  0  0  0
   18.7505    7.5032   14.0891 O   0  0  0  0  0  0  0  0  0  0  0  0
   22.7845    6.3045   17.0411 C   0  0  0  0  0  0  0  0  0  0  0  0
   19.4581   10.8459   12.7466 O   0  0  0  0  0  0  0  0  0  0  0  0
   22.3272    6.9207   15.7157 C   0  0  1  0  0  0  0  0  0  0  0  0
   19.7513    9.1641   10.4335 O   0  0  0  0  0  0  0  0  0  0  0  0
   21.1418    6.1811   15.0836 C   0  0  2  0  0  0  0  0  0  0  0  0
   18.7388    1.3317   15.3048 O   0  0  0  0  0  0  0  0  0  0  0  0
   19.6141    6.6886   13.2748 C   0  0  1  0  0  0  0  0  0  0  0  0
   19.6690    0.0983   13.1575 O   0  0  0  0  0  0  0  0  0  0  0  0
   19.1141    8.8937   14.1265 C   0  0  2  0  0  0  0  0  0  0  0  0
   18.1333    9.6446   15.0302 C   0  0  0  0  0  0  0  0  0  0  0  0
   19.0348    9.4802   12.7158 C   0  0  2  0  0  0  0  0  0  0  0  0
   19.9426    8.6904   11.7708 C   0  0  1  0  0  0  0  0  0  0  0  0
   19.6057    7.1981   11.8296 C   0  0  1  0  0  0  0  0  0  0  0  0
   18.7845    2.1238   14.1157 C   0  0  2  0  0  0  0  0  0  0  0  0
   18.8356    1.2270   12.8823 C   0  0  1  0  0  0  0  0  0  0  0  0
  1  3  1  0  0  0  0
  4  1  1  1  0  0  0
  4  6  1  0  0  0  0
  4 31  1  0  0  0  0
  6  7  1  0  0  0  0
  7  9  1  1  0  0  0
  7 30  1  0  0  0  0
  8 26  1  0  0  0  0
 10  9  1  1  0  0  0
 10 13  1  0  0  0  0
 10 21  1  0  0  0  0
 13 12  1  6  0  0  0
 13 15  1  0  0  0  0
 15  2  1  1  0  0  0
 15 17  1  0  0  0  0
 16 25  1  0  0  0  0
 16 23  1  0  0  0  0
 17 19  1  0  0  0  0
 19  5  1  1  0  0  0
 19 21  1  0  0  0  0
 21 14  1  6  0  0  0
 23 14  1  1  0  0  0
 23 29  1  0  0  0  0
 25 26  1  1  0  0  0
 25 27  1  0  0  0  0
 27 18  1  1  0  0  0
 27 28  1  0  0  0  0
 28 20  1  6  0  0  0
 28 29  1  0  0  0  0
 29 11  1  6  0  0  0
 30 22  1  1  0  0  0
 30 31  1  0  0  0  0
 31 24  1  1  0  0  0
M  END
>  <CHROM.1>
176.96516941,-84.28604941,-94.02931133,65.40498567,82.37630705,-57.89166706
20.09072536,5.47235180,13.89141666,1.48549136,0.95651805,-3.12190131

>  <Name>
ligand

>  <RI>
0

>  <Rbt.Current_Directory>
/home/itssahil/PROJECTS/Mol_Feturizer/New_Systems/rnas/3DVV

>  <Rbt.Executable>
rbdock ($Id: //depot/dev/client3/rdock/2013.1/src/exe/rbdock.cxx#4 $)

>  <Rbt.Library>
libRbt.so (2013.1, Build901 2013/11/27)

>  <Rbt.Parameter_File>
/export/apps/rDock/src/rDock_2013.1_src/data/scripts/dock_solv.prm

>  <Rbt.Receptor>
prm/blind_docking_100.prm

>  <SCORE>
-3.63519

>  <SCORE.INTER>
-3.43637

>  <SCORE.INTER.CONST>
1

>  <SCORE.INTER.POLAR>
0

>  <SCORE.INTER.ROT>
6

>  <SCORE.INTER.SOLV>
28.1021

>  <SCORE.INTER.VDW>
-19.2583

>  <SCORE.INTER.norm>
-0.110851

>  <SCORE.INTRA>
-0.361638

>  <SCORE.INTRA.DIHEDRAL>
-1.43446

>  <SCORE.INTRA.DIHEDRAL.0>
10.8172

>  <SCORE.INTRA.POLAR>
0

>  <SCORE.INTRA.POLAR.0>
0

>  <SCORE.INTRA.REPUL>
0

>  <SCORE.INTRA.REPUL.0>
0

>  <SCORE.INTRA.SOLV>
-1.08337

>  <SCORE.INTRA.SOLV.lig_0>
-80.3833

>  <SCORE.INTRA.VDW>
0.897281

>  <SCORE.INTRA.VDW.0>
-4.63762

>  <SCORE.INTRA.norm>
-0.0116657

>  <SCORE.RESTR>
0.16282

>  <SCORE.RESTR.CAVITY>
0.16282

>  <SCORE.RESTR.norm>
0.00525227

>  <SCORE.SYSTEM>
0

>  <SCORE.SYSTEM.CONST>
0

>  <SCORE.SYSTEM.DIHEDRAL>
0

>  <SCORE.SYSTEM.SOLV>
0

>  <SCORE.SYSTEM.norm>
0

>  <SCORE.heavy>
31

>  <SCORE.norm>
-0.117264

>  <RMSD>
6.393

$$$$
ligand
 OpenBabel11021811473D
libRbt.so/2013.1/901 2013/11/27
 31 33  0  0  0  0  0  0  0  0999 V2000
   16.5061    3.6962    9.6240 C   0  0  0  0  0  0  0  0  0  0  0  0
   21.6199    2.6901   16.6997 N   0  0  0  0  0  0  0  0  0  0  0  0
   15.6647    4.3001   10.6120 O   0  0  0  0  0  0  0  0  0  0  0  0
   17.6799    2.9803   10.2969 C   0  0  1  0  0  0  0  0  0  0  0  0
   20.8835    7.5104   16.3457 N   0  0  0  0  0  0  0  0  0  0  0  0
   18.4725    3.9221   11.0460 O   0  0  0  0  0  0  0  0  0  0  0  0
   18.5835    3.4521   12.4012 C   0  0  1  0  0  0  0  0  0  0  0  0
   16.5907   10.0655   15.9106 N   0  0  0  0  0  0  0  0  0  0  0  0
   18.6387    4.5394   13.3381 O   0  0  0  0  0  0  0  0  0  0  0  0
   19.9300    4.7207   13.9379 C   0  0  2  0  0  0  0  0  0  0  0  0
   20.5542    8.1884   11.0760 N   0  0  0  0  0  0  0  0  0  0  0  0
   20.1916    2.3433   14.2875 O   0  0  0  0  0  0  0  0  0  0  0  0
   20.1155    3.5995   14.9670 C   0  0  1  0  0  0  0  0  0  0  0  0
   20.0880    7.1617   13.6253 O   0  0  0  0  0  0  0  0  0  0  0  0
   21.3965    3.8127   15.7760 C   0  0  1  0  0  0  0  0  0  0  0  0
   17.7728    7.5504   13.4612 O   0  0  0  0  0  0  0  0  0  0  0  0
   21.2827    5.1212   16.5585 C   0  0  0  0  0  0  0  0  0  0  0  0
   18.1088   11.1595   14.0421 O   0  0  0  0  0  0  0  0  0  0  0  0
   21.1368    6.2847   15.5733 C   0  0  1  0  0  0  0  0  0  0  0  0
   19.3706   10.8143   11.4821 O   0  0  0  0  0  0  0  0  0  0  0  0
   19.9756    6.0998   14.5889 C   0  0  2  0  0  0  0  0  0  0  0  0
   17.3392    1.7799   13.7101 O   0  0  0  0  0  0  0  0  0  0  0  0
   18.9770    7.2749   12.7221 C   0  0  1  0  0  0  0  0  0  0  0  0
   17.9877    0.7774   11.3496 O   0  0  0  0  0  0  0  0  0  0  0  0
   17.8138    8.7692   14.2227 C   0  0  2  0  0  0  0  0  0  0  0  0
   16.4882    8.9396   14.9685 C   0  0  0  0  0  0  0  0  0  0  0  0
   18.0048    9.9561   13.2766 C   0  0  2  0  0  0  0  0  0  0  0  0
   19.2814    9.7675   12.4544 C   0  0  1  0  0  0  0  0  0  0  0  0
   19.2602    8.4147   11.7378 C   0  0  1  0  0  0  0  0  0  0  0  0
   17.2730    2.6978   12.6162 C   0  0  2  0  0  0  0  0  0  0  0  0
   17.1603    1.9422   11.2955 C   0  0  1  0  0  0  0  0  0  0  0  0
  1  3  1  0  0  0  0
  4  1  1  1  0  0  0
  4  6  1  0  0  0  0
  4 31  1  0  0  0  0
  6  7  1  0  0  0  0
  7  9  1  1  0  0  0
  7 30  1  0  0  0  0
  8 26  1  0  0  0  0
 10  9  1  1  0  0  0
 10 13  1  0  0  0  0
 10 21  1  0  0  0  0
 13 12  1  6  0  0  0
 13 15  1  0  0  0  0
 15  2  1  1  0  0  0
 15 17  1  0  0  0  0
 16 25  1  0  0  0  0
 16 23  1  0  0  0  0
 17 19  1  0  0  0  0
 19  5  1  1  0  0  0
 19 21  1  0  0  0  0
 21 14  1  6  0  0  0
 23 14  1  1  0  0  0
 23 29  1  0  0  0  0
 25 26  1  6  0  0  0
 25 27  1  0  0  0  0
 27 18  1  1  0  0  0
 27 28  1  0  0  0  0
 28 20  1  6  0  0  0
 28 29  1  0  0  0  0
 29 11  1  1  0  0  0
 30 22  1  1  0  0  0
 30 31  1  0  0  0  0
 31 24  1  1  0  0  0
M  END
>  <CHROM.1>
-60.78974891,-108.70255484,-74.69199189,61.29197853,62.97008569,171.25985700
18.81542577,5.80361067,13.32762742,1.64738814,0.93383458,-3.02801513

>  <Name>
ligand

>  <RI>
0

>  <Rbt.Current_Directory>
/home/itssahil/PROJECTS/Mol_Feturizer/New_Systems/rnas/3DVV

>  <Rbt.Executable>
rbdock ($Id: //depot/dev/client3/rdock/2013.1/src/exe/rbdock.cxx#4 $)

>  <Rbt.Library>
libRbt.so (2013.1, Build901 2013/11/27)

>  <Rbt.Parameter_File>
/export/apps/rDock/src/rDock_2013.1_src/data/scripts/dock_solv.prm

>  <Rbt.Receptor>
prm/blind_docking_40.prm

>  <SCORE>
2.02721

>  <SCORE.INTER>
2.26239

>  <SCORE.INTER.CONST>
1

>  <SCORE.INTER.POLAR>
0

>  <SCORE.INTER.ROT>
6

>  <SCORE.INTER.SOLV>
21.5236

>  <SCORE.INTER.VDW>
-13.2663

>  <SCORE.INTER.norm>
0.0729805

>  <SCORE.INTRA>
-0.235185

>  <SCORE.INTRA.DIHEDRAL>
-2.912

>  <SCORE.INTRA.DIHEDRAL.0>
10.8172

>  <SCORE.INTRA.POLAR>
0

>  <SCORE.INTRA.POLAR.0>
0

>  <SCORE.INTRA.REPUL>
0

>  <SCORE.INTRA.REPUL.0>
0

>  <SCORE.INTRA.SOLV>
-2.52264

>  <SCORE.INTRA.SOLV.lig_0>
-80.3833

>  <SCORE.INTRA.VDW>
2.48213

>  <SCORE.INTRA.VDW.0>
-4.63762

>  <SCORE.INTRA.norm>
-0.00758662

>  <SCORE.RESTR>
0

>  <SCORE.RESTR.CAVITY>
0

>  <SCORE.RESTR.norm>
0

>  <SCORE.SYSTEM>
0

>  <SCORE.SYSTEM.CONST>
0

>  <SCORE.SYSTEM.DIHEDRAL>
0

>  <SCORE.SYSTEM.SOLV>
0

>  <SCORE.SYSTEM.norm>
0

>  <SCORE.heavy>
31

>  <SCORE.norm>
0.0653938

>  <RMSD>
6.397

$$$$
ligand
 OpenBabel11021811473D
libRbt.so/2013.1/901 2013/11/27
 31 33  0  0  0  0  0  0  0  0999 V2000
   13.4021    2.8901   18.3718 C   0  0  0  0  0  0  0  0  0  0  0  0
   17.0383   10.5386   18.9633 N   0  0  0  0  0  0  0  0  0  0  0  0
   12.1946    2.1686   18.6371 O   0  0  0  0  0  0  0  0  0  0  0  0
   13.2559    4.3463   18.8204 C   0  0  1  0  0  0  0  0  0  0  0  0
   19.6638    7.9411   15.7597 N   0  0  0  0  0  0  0  0  0  0  0  0
   14.4726    5.0718   18.5565 O   0  0  0  0  0  0  0  0  0  0  0  0
   14.1533    6.2302   17.7653 C   0  0  1  0  0  0  0  0  0  0  0  0
   17.0528    7.1494   12.2110 N   0  0  0  0  0  0  0  0  0  0  0  0
   15.2132    6.5602   16.8540 O   0  0  0  0  0  0  0  0  0  0  0  0
   16.3912    7.0690   17.4971 C   0  0  2  0  0  0  0  0  0  0  0  0
   18.0990    2.9649   17.0155 N   0  0  0  0  0  0  0  0  0  0  0  0
   15.0835    8.4997   18.9414 O   0  0  0  0  0  0  0  0  0  0  0  0
   16.0899    8.5100   17.9252 C   0  0  1  0  0  0  0  0  0  0  0  0
   18.0347    5.6620   16.3138 O   0  0  0  0  0  0  0  0  0  0  0  0
   17.3485    9.1882   18.4699 C   0  0  1  0  0  0  0  0  0  0  0  0
   16.8234    5.2181   14.3455 O   0  0  0  0  0  0  0  0  0  0  0  0
   18.3972    9.2633   17.3599 C   0  0  0  0  0  0  0  0  0  0  0  0
   19.7627    3.9396   12.5561 O   0  0  0  0  0  0  0  0  0  0  0  0
   18.7674    7.8432   16.9217 C   0  0  1  0  0  0  0  0  0  0  0  0
   19.3543    1.9537   14.5943 O   0  0  0  0  0  0  0  0  0  0  0  0
   17.5525    7.0029   16.5098 C   0  0  2  0  0  0  0  0  0  0  0  0
   12.1851    6.8673   16.4318 O   0  0  0  0  0  0  0  0  0  0  0  0
   17.0988    4.7715   15.6862 C   0  0  1  0  0  0  0  0  0  0  0  0
   11.4194    5.9843   18.8049 O   0  0  0  0  0  0  0  0  0  0  0  0
   17.9797    5.2725   13.4928 C   0  0  2  0  0  0  0  0  0  0  0  0
   17.5590    5.7714   12.1084 C   0  0  0  0  0  0  0  0  0  0  0  0
   18.5771    3.8711   13.3527 C   0  0  2  0  0  0  0  0  0  0  0  0
   18.9269    3.3128   14.7336 C   0  0  1  0  0  0  0  0  0  0  0  0
   17.7058    3.3649   15.6557 C   0  0  1  0  0  0  0  0  0  0  0  0
   12.9441    5.7732   16.9518 C   0  0  2  0  0  0  0  0  0  0  0  0
   12.1454    5.0340   18.0211 C   0  0  1  0  0  0  0  0  0  0  0  0
  1  3  1  0  0  0  0
  4  1  1  6  0  0  0
  4  6  1  0  0  0  0
  4 31  1  0  0  0  0
  6  7  1  0  0  0  0
  7  9  1  6  0  0  0
  7 30  1  0  0  0  0
  8 26  1  0  0  0  0
 10  9  1  6  0  0  0
 10 13  1  0  0  0  0
 10 21  1  0  0  0  0
 13 12  1  1  0  0  0
 13 15  1  0  0  0  0
 15  2  1  6  0  0  0
 15 17  1  0  0  0  0
 16 25  1  0  0  0  0
 16 23  1  0  0  0  0
 17 19  1  0  0  0  0
 19  5  1  6  0  0  0
 19 21  1  0  0  0  0
 21 14  1  1  0  0  0
 23 14  1  6  0  0  0
 23 29  1  0  0  0  0
 25 26  1  6  0  0  0
 25 27  1  0  0  0  0
 27 18  1  6  0  0  0
 27 28  1  0  0  0  0
 28 20  1  6  0  0  0
 28 29  1  0  0  0  0
 29 11  1  1  0  0  0
 30 22  1  1  0  0  0
 30 31  1  0  0  0  0
 31 24  1  1  0  0  0
M  END
>  <CHROM.1>
179.85207088,-69.89242561,-75.02494900,64.43788689,65.53657821,63.78556812
16.24076266,5.77909305,16.44326775,2.75646886,0.56985846,0.42864541

>  <Name>
ligand

>  <RI>
0

>  <Rbt.Current_Directory>
/home/itssahil/PROJECTS/Mol_Feturizer/New_Systems/rnas/3DVV

>  <Rbt.Executable>
rbdock ($Id: //depot/dev/client3/rdock/2013.1/src/exe/rbdock.cxx#4 $)

>  <Rbt.Library>
libRbt.so (2013.1, Build901 2013/11/27)

>  <Rbt.Parameter_File>
/export/apps/rDock/src/rDock_2013.1_src/data/scripts/dock_solv.prm

>  <Rbt.Receptor>
prm/pocket_docking_7.prm

>  <SCORE>
-2.21995

>  <SCORE.INTER>
1.94408

>  <SCORE.INTER.CONST>
1

>  <SCORE.INTER.POLAR>
0

>  <SCORE.INTER.ROT>
6

>  <SCORE.INTER.SOLV>
12.5733

>  <SCORE.INTER.VDW>
-10.495

>  <SCORE.INTER.norm>
0.0627124

>  <SCORE.INTRA>
-4.16403

>  <SCORE.INTRA.DIHEDRAL>
-8.73965

>  <SCORE.INTRA.DIHEDRAL.0>
10.8172

>  <SCORE.INTRA.POLAR>
0

>  <SCORE.INTRA.POLAR.0>
0

>  <SCORE.INTRA.REPUL>
0

>  <SCORE.INTRA.REPUL.0>
0

>  <SCORE.INTRA.SOLV>
-4.27449

>  <SCORE.INTRA.SOLV.lig_0>
-80.3833

>  <SCORE.INTRA.VDW>
2.34304

>  <SCORE.INTRA.VDW.0>
-4.63762

>  <SCORE.INTRA.norm>
-0.134324

>  <SCORE.RESTR>
0

>  <SCORE.RESTR.CAVITY>
0

>  <SCORE.RESTR.norm>
0

>  <SCORE.SYSTEM>
0

>  <SCORE.SYSTEM.CONST>
0

>  <SCORE.SYSTEM.DIHEDRAL>
0

>  <SCORE.SYSTEM.SOLV>
0

>  <SCORE.SYSTEM.norm>
0

>  <SCORE.heavy>
31

>  <SCORE.norm>
-0.0716113

>  <RMSD>
6.405

$$$$
ligand
 OpenBabel11021811473D
libRbt.so/2013.1/901 2013/11/27
 31 33  0  0  0  0  0  0  0  0999 V2000
   21.3443    7.6323   15.7487 C   0  0  0  0  0  0  0  0  0  0  0  0
   20.3847    1.9650   13.6497 N   0  0  0  0  0  0  0  0  0  0  0  0
   21.9736    6.9965   16.8661 O   0  0  0  0  0  0  0  0  0  0  0  0
   19.8576    7.2704   15.7044 C   0  0  1  0  0  0  0  0  0  0  0  0
   15.6881    2.5432   14.8793 N   0  0  0  0  0  0  0  0  0  0  0  0
   19.6879    5.8476   15.8570 O   0  0  0  0  0  0  0  0  0  0  0  0
   18.7862    5.6083   16.9522 C   0  0  1  0  0  0  0  0  0  0  0  0
   14.0597    6.0148   15.4170 N   0  0  0  0  0  0  0  0  0  0  0  0
   19.1150    4.4010   17.6574 O   0  0  0  0  0  0  0  0  0  0  0  0
   18.8351    3.2042   16.9162 C   0  0  2  0  0  0  0  0  0  0  0  0
   16.3003    2.5579   20.3470 N   0  0  0  0  0  0  0  0  0  0  0  0
   21.1232    3.0443   16.1534 O   0  0  0  0  0  0  0  0  0  0  0  0
   19.7733    3.1896   15.7037 C   0  0  1  0  0  0  0  0  0  0  0  0
   16.4773    2.9527   17.5932 O   0  0  0  0  0  0  0  0  0  0  0  0
   19.4279    2.0320   14.7649 C   0  0  1  0  0  0  0  0  0  0  0  0
   15.3417    5.0100   17.7200 O   0  0  0  0  0  0  0  0  0  0  0  0
   18.0098    2.2281   14.2285 C   0  0  0  0  0  0  0  0  0  0  0  0
   12.0568    3.4279   18.1469 O   0  0  0  0  0  0  0  0  0  0  0  0
   17.0227    2.2087   15.3993 C   0  0  1  0  0  0  0  0  0  0  0  0
   13.4076    2.7419   20.5902 O   0  0  0  0  0  0  0  0  0  0  0  0
   17.3683    3.2225   16.4968 C   0  0  2  0  0  0  0  0  0  0  0  0
   17.9736    7.0145   18.8016 O   0  0  0  0  0  0  0  0  0  0  0  0
   16.1890    4.0857   18.4274 C   0  0  1  0  0  0  0  0  0  0  0  0
   17.7937    8.3361   16.5172 O   0  0  0  0  0  0  0  0  0  0  0  0
   14.0763    4.4598   17.3162 C   0  0  2  0  0  0  0  0  0  0  0  0
   13.2797    5.5307   16.5673 C   0  0  0  0  0  0  0  0  0  0  0  0
   13.2869    4.0324   18.5550 C   0  0  2  0  0  0  0  0  0  0  0  0
   14.1002    3.0245   19.3696 C   0  0  1  0  0  0  0  0  0  0  0  0
   15.4836    3.5935   19.6955 C   0  0  1  0  0  0  0  0  0  0  0  0
   19.0443    6.7933   17.8806 C   0  0  2  0  0  0  0  0  0  0  0  0
   19.1196    7.9343   16.8705 C   0  0  1  0  0  0  0  0  0  0  0  0
  1  3  1  0  0  0  0
  4  1  1  1  0  0  0
  4  6  1  0  0  0  0
  4 31  1  0  0  0  0
  6  7  1  0  0  0  0
  7  9  1  1  0  0  0
  7 30  1  0  0  0  0
  8 26  1  0  0  0  0
 10  9  1  6  0  0  0
 10 13  1  0  0  0  0
 10 21  1  0  0  0  0
 13 12  1  1  0  0  0
 13 15  1  0  0  0  0
 15  2  1  6  0  0  0
 15 17  1  0  0  0  0
 16 25  1  0  0  0  0
 16 23  1  0  0  0  0
 17 19  1  0  0  0  0
 19  5  1  6  0  0  0
 19 21  1  0  0  0  0
 21 14  1  1  0  0  0
 23 14  1  6  0  0  0
 23 29  1  0  0  0  0
 25 26  1  1  0  0  0
 25 27  1  0  0  0  0
 27 18  1  6  0  0  0
 27 28  1  0  0  0  0
 28 20  1  1  0  0  0
 28 29  1  0  0  0  0
 29 11  1  6  0  0  0
 30 22  1  1  0  0  0
 30 31  1  0  0  0  0
 31 24  1  6  0  0  0
M  END
>  <CHROM.1>
-48.11909308,-70.68299795,65.68510735,71.38739805,81.90653544,57.09629932
17.31126723,4.50796673,17.01531540,0.13106293,0.43745271,0.35313722

>  <Name>
ligand

>  <RI>
0

>  <Rbt.Current_Directory>
/home/itssahil/PROJECTS/Mol_Feturizer/New_Systems/rnas/3DVV

>  <Rbt.Executable>
rbdock ($Id: //depot/dev/client3/rdock/2013.1/src/exe/rbdock.cxx#4 $)

>  <Rbt.Library>
libRbt.so (2013.1, Build901 2013/11/27)

>  <Rbt.Parameter_File>
/export/apps/rDock/src/rDock_2013.1_src/data/scripts/dock_solv.prm

>  <Rbt.Receptor>
prm/pocket_docking_4.prm

>  <SCORE>
-4.7181

>  <SCORE.INTER>
-2.91462

>  <SCORE.INTER.CONST>
1

>  <SCORE.INTER.POLAR>
0

>  <SCORE.INTER.ROT>
6

>  <SCORE.INTER.SOLV>
14.3364

>  <SCORE.INTER.VDW>
-14.3219

>  <SCORE.INTER.norm>
-0.09402

>  <SCORE.INTRA>
-1.80348

>  <SCORE.INTRA.DIHEDRAL>
-6.64602

>  <SCORE.INTRA.DIHEDRAL.0>
10.8172

>  <SCORE.INTRA.POLAR>
0

>  <SCORE.INTRA.POLAR.0>
0

>  <SCORE.INTRA.REPUL>
0

>  <SCORE.INTRA.REPUL.0>
0

>  <SCORE.INTRA.SOLV>
-1.6746

>  <SCORE.INTRA.SOLV.lig_0>
-80.3833

>  <SCORE.INTRA.VDW>
2.35683

>  <SCORE.INTRA.VDW.0>
-4.63762

>  <SCORE.INTRA.norm>
-0.0581769

>  <SCORE.RESTR>
0

>  <SCORE.RESTR.CAVITY>
0

>  <SCORE.RESTR.norm>
0

>  <SCORE.SYSTEM>
0

>  <SCORE.SYSTEM.CONST>
0

>  <SCORE.SYSTEM.DIHEDRAL>
0

>  <SCORE.SYSTEM.SOLV>
0

>  <SCORE.SYSTEM.norm>
0

>  <SCORE.heavy>
31

>  <SCORE.norm>
-0.152197

>  <RMSD>
6.407

$$$$
ligand
 OpenBabel11021811473D
libRbt.so/2013.1/901 2013/11/27
 31 33  0  0  0  0  0  0  0  0999 V2000
   17.0240    3.4538   10.2204 C   0  0  0  0  0  0  0  0  0  0  0  0
   23.5026    2.9842   16.0466 N   0  0  0  0  0  0  0  0  0  0  0  0
   16.5198    2.6563    9.1440 O   0  0  0  0  0  0  0  0  0  0  0  0
   18.4137    2.9632   10.6345 C   0  0  1  0  0  0  0  0  0  0  0  0
   20.5353    6.5374   17.6194 N   0  0  0  0  0  0  0  0  0  0  0  0
   18.9554    3.8156   11.6623 O   0  0  0  0  0  0  0  0  0  0  0  0
   19.3238    2.9991   12.7880 C   0  0  1  0  0  0  0  0  0  0  0  0
   19.3252    7.7899   10.1927 N   0  0  0  0  0  0  0  0  0  0  0  0
   19.1386    3.6933   14.0316 O   0  0  0  0  0  0  0  0  0  0  0  0
   20.3092    4.3887   14.4855 C   0  0  2  0  0  0  0  0  0  0  0  0
   19.6294    9.0966   16.0398 N   0  0  0  0  0  0  0  0  0  0  0  0
   21.7418    2.5372   13.8836 O   0  0  0  0  0  0  0  0  0  0  0  0
   21.3004    3.3322   14.9875 C   0  0  1  0  0  0  0  0  0  0  0  0
   19.2067    6.5095   15.0917 O   0  0  0  0  0  0  0  0  0  0  0  0
   22.5115    3.9949   15.6469 C   0  0  1  0  0  0  0  0  0  0  0  0
   19.8404    7.1060   12.9052 O   0  0  0  0  0  0  0  0  0  0  0  0
   22.0458    4.7854   16.8698 C   0  0  0  0  0  0  0  0  0  0  0  0
   16.6614    8.8028   12.2045 O   0  0  0  0  0  0  0  0  0  0  0  0
   21.0813    5.8863   16.4189 C   0  0  1  0  0  0  0  0  0  0  0  0
   17.8441   10.4868   14.2121 O   0  0  0  0  0  0  0  0  0  0  0  0
   19.9028    5.3553   15.5938 C   0  0  2  0  0  0  0  0  0  0  0  0
   18.7571    0.6991   13.4563 O   0  0  0  0  0  0  0  0  0  0  0  0
   20.0104    7.4017   14.3039 C   0  0  1  0  0  0  0  0  0  0  0  0
   19.4565    0.7508   10.9057 O   0  0  0  0  0  0  0  0  0  0  0  0
   18.4887    7.2403   12.4340 C   0  0  2  0  0  0  0  0  0  0  0  0
   18.4391    6.8878   10.9455 C   0  0  0  0  0  0  0  0  0  0  0  0
   18.0264    8.6872   12.6150 C   0  0  2  0  0  0  0  0  0  0  0  0
   18.1488    9.0939   14.0850 C   0  0  1  0  0  0  0  0  0  0  0  0
   19.5709    8.8410   14.5924 C   0  0  1  0  0  0  0  0  0  0  0  0
   18.3219    1.8481   12.7256 C   0  0  2  0  0  0  0  0  0  0  0  0
   18.3191    1.5549   11.2282 C   0  0  1  0  0  0  0  0  0  0  0  0
  1  3  1  0  0  0  0
  4  1  1  1  0  0  0
  4  6  1  0  0  0  0
  4 31  1  0  0  0  0
  6  7  1  0  0  0  0
  7  9  1  1  0  0  0
  7 30  1  0  0  0  0
  8 26  1  0  0  0  0
 10  9  1  1  0  0  0
 10 13  1  0  0  0  0
 10 21  1  0  0  0  0
 13 12  1  6  0  0  0
 13 15  1  0  0  0  0
 15  2  1  1  0  0  0
 15 17  1  0  0  0  0
 16 25  1  0  0  0  0
 16 23  1  0  0  0  0
 17 19  1  0  0  0  0
 19  5  1  1  0  0  0
 19 21  1  0  0  0  0
 21 14  1  6  0  0  0
 23 14  1  1  0  0  0
 23 29  1  0  0  0  0
 25 26  1  6  0  0  0
 25 27  1  0  0  0  0
 27 18  1  1  0  0  0
 27 28  1  0  0  0  0
 28 20  1  6  0  0  0
 28 29  1  0  0  0  0
 29 11  1  1  0  0  0
 30 22  1  1  0  0  0
 30 31  1  0  0  0  0
 31 24  1  1  0  0  0
M  END
>  <CHROM.1>
176.51967031,-92.17565369,-73.19732819,96.00178942,-67.94491637,-59.49465698
19.39887345,5.20698328,13.44114809,1.63300884,0.91896378,-2.78142310

>  <Name>
ligand

>  <RI>
0

>  <Rbt.Current_Directory>
/home/itssahil/PROJECTS/Mol_Feturizer/New_Systems/rnas/3DVV

>  <Rbt.Executable>
rbdock ($Id: //depot/dev/client3/rdock/2013.1/src/exe/rbdock.cxx#4 $)

>  <Rbt.Library>
libRbt.so (2013.1, Build901 2013/11/27)

>  <Rbt.Parameter_File>
/export/apps/rDock/src/rDock_2013.1_src/data/scripts/dock_solv.prm

>  <Rbt.Receptor>
prm/blind_docking_40.prm

>  <SCORE>
0.99413

>  <SCORE.INTER>
-1.05283

>  <SCORE.INTER.CONST>
1

>  <SCORE.INTER.POLAR>
0

>  <SCORE.INTER.ROT>
6

>  <SCORE.INTER.SOLV>
21.6341

>  <SCORE.INTER.VDW>
-15.5132

>  <SCORE.INTER.norm>
-0.0339621

>  <SCORE.INTRA>
2.04696

>  <SCORE.INTRA.DIHEDRAL>
-0.833692

>  <SCORE.INTRA.DIHEDRAL.0>
10.8172

>  <SCORE.INTRA.POLAR>
0

>  <SCORE.INTRA.POLAR.0>
0

>  <SCORE.INTRA.REPUL>
0

>  <SCORE.INTRA.REPUL.0>
0

>  <SCORE.INTRA.SOLV>
0.106029

>  <SCORE.INTRA.SOLV.lig_0>
-80.3833

>  <SCORE.INTRA.VDW>
2.41079

>  <SCORE.INTRA.VDW.0>
-4.63762

>  <SCORE.INTRA.norm>
0.0660309

>  <SCORE.RESTR>
0

>  <SCORE.RESTR.CAVITY>
0

>  <SCORE.RESTR.norm>
0

>  <SCORE.SYSTEM>
0

>  <SCORE.SYSTEM.CONST>
0

>  <SCORE.SYSTEM.DIHEDRAL>
0

>  <SCORE.SYSTEM.SOLV>
0

>  <SCORE.SYSTEM.norm>
0

>  <SCORE.heavy>
31

>  <SCORE.norm>
0.0320687

>  <RMSD>
6.409

$$$$
ligand
 OpenBabel11021811473D
libRbt.so/2013.1/901 2013/11/27
 31 33  0  0  0  0  0  0  0  0999 V2000
   14.4731    3.8604   12.8124 C   0  0  0  0  0  0  0  0  0  0  0  0
   14.3374    1.8134   20.4083 N   0  0  0  0  0  0  0  0  0  0  0  0
   13.8000    3.8129   11.5501 O   0  0  0  0  0  0  0  0  0  0  0  0
   13.4909    3.5540   13.9459 C   0  0  1  0  0  0  0  0  0  0  0  0
   17.5935    5.4601   20.4647 N   0  0  0  0  0  0  0  0  0  0  0  0
   14.1656    3.6149   15.2177 O   0  0  0  0  0  0  0  0  0  0  0  0
   13.4574    4.5337   16.0687 C   0  0  1  0  0  0  0  0  0  0  0  0
   14.5165    8.8416   19.5103 N   0  0  0  0  0  0  0  0  0  0  0  0
   14.3470    5.2311   16.9548 O   0  0  0  0  0  0  0  0  0  0  0  0
   15.2145    4.3657   17.7021 C   0  0  2  0  0  0  0  0  0  0  0  0
   18.8261    6.3228   15.4377 N   0  0  0  0  0  0  0  0  0  0  0  0
   13.5191    2.6481   17.8369 O   0  0  0  0  0  0  0  0  0  0  0  0
   14.3294    3.5223   18.6272 C   0  0  1  0  0  0  0  0  0  0  0  0
   17.2181    5.8025   17.6545 O   0  0  0  0  0  0  0  0  0  0  0  0
   15.1844    2.6887   19.5837 C   0  0  1  0  0  0  0  0  0  0  0  0
   15.9205    7.7304   17.2839 O   0  0  0  0  0  0  0  0  0  0  0  0
   15.9959    3.6270   20.4774 C   0  0  0  0  0  0  0  0  0  0  0  0
   18.4931    9.9908   18.6062 O   0  0  0  0  0  0  0  0  0  0  0  0
   16.9318    4.4678   19.6041 C   0  0  1  0  0  0  0  0  0  0  0  0
   19.7138    8.9841   16.2060 O   0  0  0  0  0  0  0  0  0  0  0  0
   16.1994    5.2247   18.4895 C   0  0  2  0  0  0  0  0  0  0  0  0
   11.7799    6.2810   15.6320 O   0  0  0  0  0  0  0  0  0  0  0  0
   16.7335    6.7190   16.6606 C   0  0  1  0  0  0  0  0  0  0  0  0
   11.1182    4.0574   14.3610 O   0  0  0  0  0  0  0  0  0  0  0  0
   16.6101    8.5160   18.2711 C   0  0  2  0  0  0  0  0  0  0  0  0
   15.6397    9.5398   18.8649 C   0  0  0  0  0  0  0  0  0  0  0  0
   17.7714    9.2610   17.6104 C   0  0  2  0  0  0  0  0  0  0  0  0
   18.7129    8.2634   16.9326 C   0  0  1  0  0  0  0  0  0  0  0  0
   17.9350    7.3676   15.9650 C   0  0  1  0  0  0  0  0  0  0  0  0
   12.8730    5.5421   15.0818 C   0  0  2  0  0  0  0  0  0  0  0  0
   12.3812    4.6086   13.9796 C   0  0  1  0  0  0  0  0  0  0  0  0
  1  3  1  0  0  0  0
  4  1  1  6  0  0  0
  4  6  1  0  0  0  0
  4 31  1  0  0  0  0
  6  7  1  0  0  0  0
  7  9  1  1  0  0  0
  7 30  1  0  0  0  0
  8 26  1  0  0  0  0
 10  9  1  1  0  0  0
 10 13  1  0  0  0  0
 10 21  1  0  0  0  0
 13 12  1  6  0  0  0
 13 15  1  0  0  0  0
 15  2  1  1  0  0  0
 15 17  1  0  0  0  0
 16 25  1  0  0  0  0
 16 23  1  0  0  0  0
 17 19  1  0  0  0  0
 19  5  1  1  0  0  0
 19 21  1  0  0  0  0
 21 14  1  6  0  0  0
 23 14  1  1  0  0  0
 23 29  1  0  0  0  0
 25 26  1  6  0  0  0
 25 27  1  0  0  0  0
 27 18  1  1  0  0  0
 27 28  1  0  0  0  0
 28 20  1  6  0  0  0
 28 29  1  0  0  0  0
 29 11  1  1  0  0  0
 30 22  1  1  0  0  0
 30 31  1  0  0  0  0
 31 24  1  1  0  0  0
M  END
>  <CHROM.1>
-179.42759027,-51.98602278,-64.80374470,53.22580349,63.31869612,60.75678607
15.43711891,5.69361637,16.98500016,-3.01233927,0.84773858,2.03245307

>  <Name>
ligand

>  <RI>
0

>  <Rbt.Current_Directory>
/home/itssahil/PROJECTS/Mol_Feturizer/New_Systems/rnas/3DVV

>  <Rbt.Executable>
rbdock ($Id: //depot/dev/client3/rdock/2013.1/src/exe/rbdock.cxx#4 $)

>  <Rbt.Library>
libRbt.so (2013.1, Build901 2013/11/27)

>  <Rbt.Parameter_File>
/export/apps/rDock/src/rDock_2013.1_src/data/scripts/dock_solv.prm

>  <Rbt.Receptor>
prm/pocket_docking_8.prm

>  <SCORE>
-7.80973

>  <SCORE.INTER>
-4.79017

>  <SCORE.INTER.CONST>
1

>  <SCORE.INTER.POLAR>
0

>  <SCORE.INTER.ROT>
6

>  <SCORE.INTER.SOLV>
13.2124

>  <SCORE.INTER.VDW>
-15.1976

>  <SCORE.INTER.norm>
-0.154521

>  <SCORE.INTRA>
-3.01957

>  <SCORE.INTRA.DIHEDRAL>
-9.85069

>  <SCORE.INTRA.DIHEDRAL.0>
10.8172

>  <SCORE.INTRA.POLAR>
0

>  <SCORE.INTRA.POLAR.0>
0

>  <SCORE.INTRA.REPUL>
0

>  <SCORE.INTRA.REPUL.0>
0

>  <SCORE.INTRA.SOLV>
-3.97781

>  <SCORE.INTRA.SOLV.lig_0>
-80.3833

>  <SCORE.INTRA.VDW>
3.89468

>  <SCORE.INTRA.VDW.0>
-4.63762

>  <SCORE.INTRA.norm>
-0.0974054

>  <SCORE.RESTR>
0

>  <SCORE.RESTR.CAVITY>
0

>  <SCORE.RESTR.norm>
0

>  <SCORE.SYSTEM>
0

>  <SCORE.SYSTEM.CONST>
0

>  <SCORE.SYSTEM.DIHEDRAL>
0

>  <SCORE.SYSTEM.SOLV>
0

>  <SCORE.SYSTEM.norm>
0

>  <SCORE.heavy>
31

>  <SCORE.norm>
-0.251927

>  <RMSD>
6.427

$$$$
ligand
 OpenBabel11021811473D
libRbt.so/2013.1/901 2013/11/27
 31 33  0  0  0  0  0  0  0  0999 V2000
   19.2749    9.0492   16.2861 C   0  0  0  0  0  0  0  0  0  0  0  0
   22.1368    4.3241   17.1327 N   0  0  0  0  0  0  0  0  0  0  0  0
   18.9252    7.6793   16.5095 O   0  0  0  0  0  0  0  0  0  0  0  0
   19.5771    9.2816   14.8036 C   0  0  1  0  0  0  0  0  0  0  0  0
   19.0827    1.7771   14.2887 N   0  0  0  0  0  0  0  0  0  0  0  0
   20.4893    8.2767   14.3192 O   0  0  0  0  0  0  0  0  0  0  0  0
   19.9024    7.6406   13.1699 C   0  0  1  0  0  0  0  0  0  0  0  0
   20.6076    1.9347   10.3928 N   0  0  0  0  0  0  0  0  0  0  0  0
   20.2700    6.2549   13.0837 O   0  0  0  0  0  0  0  0  0  0  0  0
   19.9193    5.4903   14.2467 C   0  0  2  0  0  0  0  0  0  0  0  0
   15.7178    5.5313   12.4548 N   0  0  0  0  0  0  0  0  0  0  0  0
   21.5766    6.6243   15.5921 O   0  0  0  0  0  0  0  0  0  0  0  0
   21.1887    5.3412   15.0934 C   0  0  1  0  0  0  0  0  0  0  0  0
   18.0508    4.2282   13.2483 O   0  0  0  0  0  0  0  0  0  0  0  0
   20.9468    4.3953   16.2713 C   0  0  1  0  0  0  0  0  0  0  0  0
   18.7515    3.9261   11.0221 O   0  0  0  0  0  0  0  0  0  0  0  0
   20.6032    3.0054   15.7352 C   0  0  0  0  0  0  0  0  0  0  0  0
   16.3989    1.1736   10.4174 O   0  0  0  0  0  0  0  0  0  0  0  0
   19.3140    3.0888   14.9126 C   0  0  1  0  0  0  0  0  0  0  0  0
   14.6523    3.4334   10.7447 O   0  0  0  0  0  0  0  0  0  0  0  0
   19.3780    4.1371   13.7952 C   0  0  2  0  0  0  0  0  0  0  0  0
   17.6109    7.5652   12.2747 O   0  0  0  0  0  0  0  0  0  0  0  0
   17.9844    4.7558   11.9141 C   0  0  1  0  0  0  0  0  0  0  0  0
   18.2643   10.0579   12.8724 O   0  0  0  0  0  0  0  0  0  0  0  0
   18.3013    2.5624   10.9515 C   0  0  2  0  0  0  0  0  0  0  0  0
   19.2009    1.7865    9.9866 C   0  0  0  0  0  0  0  0  0  0  0  0
   16.8650    2.5256   10.4261 C   0  0  2  0  0  0  0  0  0  0  0  0
   15.9585    3.3674   11.3265 C   0  0  1  0  0  0  0  0  0  0  0  0
   16.5177    4.7852   11.4714 C   0  0  1  0  0  0  0  0  0  0  0  0
   18.4040    7.7242   13.4534 C   0  0  2  0  0  0  0  0  0  0  0  0
   18.2935    9.1525   13.9786 C   0  0  1  0  0  0  0  0  0  0  0  0
  1  3  1  0  0  0  0
  4  1  1  1  0  0  0
  4  6  1  0  0  0  0
  4 31  1  0  0  0  0
  6  7  1  0  0  0  0
  7  9  1  1  0  0  0
  7 30  1  0  0  0  0
  8 26  1  0  0  0  0
 10  9  1  6  0  0  0
 10 13  1  0  0  0  0
 10 21  1  0  0  0  0
 13 12  1  1  0  0  0
 13 15  1  0  0  0  0
 15  2  1  1  0  0  0
 15 17  1  0  0  0  0
 16 25  1  0  0  0  0
 16 23  1  0  0  0  0
 17 19  1  0  0  0  0
 19  5  1  6  0  0  0
 19 21  1  0  0  0  0
 21 14  1  1  0  0  0
 23 14  1  1  0  0  0
 23 29  1  0  0  0  0
 25 26  1  6  0  0  0
 25 27  1  0  0  0  0
 27 18  1  1  0  0  0
 27 28  1  0  0  0  0
 28 20  1  6  0  0  0
 28 29  1  0  0  0  0
 29 11  1  1  0  0  0
 30 22  1  6  0  0  0
 30 31  1  0  0  0  0
 31 24  1  6  0  0  0
M  END
>  <CHROM.1>
-48.91837837,57.15817490,-100.07752960,59.40597519,76.52548026,54.32924003
18.83135156,5.21904083,13.28378607,1.03438079,-0.77444911,0.28589018

>  <Name>
ligand

>  <RI>
0

>  <Rbt.Current_Directory>
/home/itssahil/PROJECTS/Mol_Feturizer/New_Systems/rnas/3DVV

>  <Rbt.Executable>
rbdock ($Id: //depot/dev/client3/rdock/2013.1/src/exe/rbdock.cxx#4 $)

>  <Rbt.Library>
libRbt.so (2013.1, Build901 2013/11/27)

>  <Rbt.Parameter_File>
/export/apps/rDock/src/rDock_2013.1_src/data/scripts/dock_solv.prm

>  <Rbt.Receptor>
prm/blind_docking_60.prm

>  <SCORE>
0.426834

>  <SCORE.INTER>
-0.898299

>  <SCORE.INTER.CONST>
1

>  <SCORE.INTER.POLAR>
0

>  <SCORE.INTER.ROT>
6

>  <SCORE.INTER.SOLV>
16.0506

>  <SCORE.INTER.VDW>
-13.5491

>  <SCORE.INTER.norm>
-0.0289774

>  <SCORE.INTRA>
0.953915

>  <SCORE.INTRA.DIHEDRAL>
-3.31127

>  <SCORE.INTRA.DIHEDRAL.0>
10.8172

>  <SCORE.INTRA.POLAR>
0

>  <SCORE.INTRA.POLAR.0>
0

>  <SCORE.INTRA.REPUL>
0

>  <SCORE.INTRA.REPUL.0>
0

>  <SCORE.INTRA.SOLV>
0.874123

>  <SCORE.INTRA.SOLV.lig_0>
-80.3833

>  <SCORE.INTRA.VDW>
2.17249

>  <SCORE.INTRA.VDW.0>
-4.63762

>  <SCORE.INTRA.norm>
0.0307714

>  <SCORE.RESTR>
0.371218

>  <SCORE.RESTR.CAVITY>
0.371218

>  <SCORE.RESTR.norm>
0.0119748

>  <SCORE.SYSTEM>
0

>  <SCORE.SYSTEM.CONST>
0

>  <SCORE.SYSTEM.DIHEDRAL>
0

>  <SCORE.SYSTEM.SOLV>
0

>  <SCORE.SYSTEM.norm>
0

>  <SCORE.heavy>
31

>  <SCORE.norm>
0.0137688

>  <RMSD>
6.429

$$$$
ligand
 OpenBabel11021811473D
libRbt.so/2013.1/901 2013/11/27
 31 33  0  0  0  0  0  0  0  0999 V2000
   24.0935    7.3768   15.4413 C   0  0  0  0  0  0  0  0  0  0  0  0
   17.8939    8.7929   18.5889 N   0  0  0  0  0  0  0  0  0  0  0  0
   25.4859    7.0615   15.5439 O   0  0  0  0  0  0  0  0  0  0  0  0
   23.3246    6.7570   16.6109 C   0  0  1  0  0  0  0  0  0  0  0  0
   17.5801    3.9767   19.3693 N   0  0  0  0  0  0  0  0  0  0  0  0
   21.9082    6.9550   16.4349 O   0  0  0  0  0  0  0  0  0  0  0  0
   21.2542    5.6755   16.5056 C   0  0  1  0  0  0  0  0  0  0  0  0
   20.6239    2.8228   12.2534 N   0  0  0  0  0  0  0  0  0  0  0  0
   20.1035    5.6186   15.6480 O   0  0  0  0  0  0  0  0  0  0  0  0
   18.8638    5.8693   16.3264 C   0  0  2  0  0  0  0  0  0  0  0  0
   15.7309    2.5302   15.7102 N   0  0  0  0  0  0  0  0  0  0  0  0
   19.1337    8.2613   16.1071 O   0  0  0  0  0  0  0  0  0  0  0  0
   19.0105    7.2054   17.0638 C   0  0  1  0  0  0  0  0  0  0  0  0
   18.1755    3.5189   16.6141 O   0  0  0  0  0  0  0  0  0  0  0  0
   17.7936    7.4706   17.9525 C   0  0  1  0  0  0  0  0  0  0  0  0
   19.0340    3.6602   14.4275 O   0  0  0  0  0  0  0  0  0  0  0  0
   17.7058    6.3799   19.0202 C   0  0  0  0  0  0  0  0  0  0  0  0
   19.6141    0.0438   14.1794 O   0  0  0  0  0  0  0  0  0  0  0  0
   17.5158    5.0224   18.3370 C   0  0  1  0  0  0  0  0  0  0  0  0
   16.7459    0.2160   14.2697 O   0  0  0  0  0  0  0  0  0  0  0  0
   18.5940    4.7176   17.2900 C   0  0  2  0  0  0  0  0  0  0  0  0
   22.0669    3.3582   16.3395 O   0  0  0  0  0  0  0  0  0  0  0  0
   17.8387    3.6952   15.2291 C   0  0  1  0  0  0  0  0  0  0  0  0
   23.6068    4.7381   17.9895 O   0  0  0  0  0  0  0  0  0  0  0  0
   19.7714    2.4295   14.5214 C   0  0  2  0  0  0  0  0  0  0  0  0
   21.0185    2.5234   13.6392 C   0  0  0  0  0  0  0  0  0  0  0  0
   18.9008    1.2736   14.0252 C   0  0  2  0  0  0  0  0  0  0  0  0
   17.6045    1.2117   14.8357 C   0  0  1  0  0  0  0  0  0  0  0  0
   16.8919    2.5664   14.8077 C   0  0  1  0  0  0  0  0  0  0  0  0
   22.3090    4.7151   15.9601 C   0  0  2  0  0  0  0  0  0  0  0  0
   23.5608    5.2446   16.6531 C   0  0  1  0  0  0  0  0  0  0  0  0
  1  3  1  0  0  0  0
  4  1  1  6  0  0  0
  4  6  1  0  0  0  0
  4 31  1  0  0  0  0
  6  7  1  0  0  0  0
  7  9  1  6  0  0  0
  7 30  1  0  0  0  0
  8 26  1  0  0  0  0
 10  9  1  1  0  0  0
 10 13  1  0  0  0  0
 10 21  1  0  0  0  0
 13 12  1  6  0  0  0
 13 15  1  0  0  0  0
 15  2  1  1  0  0  0
 15 17  1  0  0  0  0
 16 25  1  0  0  0  0
 16 23  1  0  0  0  0
 17 19  1  0  0  0  0
 19  5  1  1  0  0  0
 19 21  1  0  0  0  0
 21 14  1  6  0  0  0
 23 14  1  1  0  0  0
 23 29  1  0  0  0  0
 25 26  1  6  0  0  0
 25 27  1  0  0  0  0
 27 18  1  1  0  0  0
 27 28  1  0  0  0  0
 28 20  1  6  0  0  0
 28 29  1  0  0  0  0
 29 11  1  1  0  0  0
 30 22  1  1  0  0  0
 30 31  1  0  0  0  0
 31 24  1  1  0  0  0
M  END
>  <CHROM.1>
-174.03720144,-97.53053251,53.64633085,83.15088051,-11.67543782,-57.07774368
19.84325448,4.56071005,16.03808687,-0.83406751,-0.25796007,-2.56145672

>  <Name>
ligand

>  <RI>
0

>  <Rbt.Current_Directory>
/home/itssahil/PROJECTS/Mol_Feturizer/New_Systems/rnas/3DVV

>  <Rbt.Executable>
rbdock ($Id: //depot/dev/client3/rdock/2013.1/src/exe/rbdock.cxx#4 $)

>  <Rbt.Library>
libRbt.so (2013.1, Build901 2013/11/27)

>  <Rbt.Parameter_File>
/export/apps/rDock/src/rDock_2013.1_src/data/scripts/dock_solv.prm

>  <Rbt.Receptor>
prm/pocket_docking_2.prm

>  <SCORE>
0.563376

>  <SCORE.INTER>
-5.82493

>  <SCORE.INTER.CONST>
1

>  <SCORE.INTER.POLAR>
0

>  <SCORE.INTER.ROT>
6

>  <SCORE.INTER.SOLV>
21.5359

>  <SCORE.INTER.VDW>
-18.6619

>  <SCORE.INTER.norm>
-0.187901

>  <SCORE.INTRA>
6.20593

>  <SCORE.INTRA.DIHEDRAL>
3.28758

>  <SCORE.INTRA.DIHEDRAL.0>
10.8172

>  <SCORE.INTRA.POLAR>
0

>  <SCORE.INTRA.POLAR.0>
0

>  <SCORE.INTRA.REPUL>
0

>  <SCORE.INTRA.REPUL.0>
0

>  <SCORE.INTRA.SOLV>
-1.82017

>  <SCORE.INTRA.SOLV.lig_0>
-80.3833

>  <SCORE.INTRA.VDW>
5.47223

>  <SCORE.INTRA.VDW.0>
-4.63762

>  <SCORE.INTRA.norm>
0.200191

>  <SCORE.RESTR>
0.182376

>  <SCORE.RESTR.CAVITY>
0.182376

>  <SCORE.RESTR.norm>
0.0058831

>  <SCORE.SYSTEM>
0

>  <SCORE.SYSTEM.CONST>
0

>  <SCORE.SYSTEM.DIHEDRAL>
0

>  <SCORE.SYSTEM.SOLV>
0

>  <SCORE.SYSTEM.norm>
0

>  <SCORE.heavy>
31

>  <SCORE.norm>
0.0181734

>  <RMSD>
6.430

$$$$
ligand
 OpenBabel11021811473D
libRbt.so/2013.1/901 2013/11/27
 31 33  0  0  0  0  0  0  0  0999 V2000
   17.3617    0.9479   13.4736 C   0  0  0  0  0  0  0  0  0  0  0  0
   23.5293    4.3328   18.1072 N   0  0  0  0  0  0  0  0  0  0  0  0
   15.9975    1.3715   13.5647 O   0  0  0  0  0  0  0  0  0  0  0  0
   18.1905    1.9950   12.7253 C   0  0  1  0  0  0  0  0  0  0  0  0
   22.1616    8.3484   15.6764 N   0  0  0  0  0  0  0  0  0  0  0  0
   18.2524    3.2165   13.4872 O   0  0  0  0  0  0  0  0  0  0  0  0
   19.6342    3.5718   13.6723 C   0  0  1  0  0  0  0  0  0  0  0  0
   17.1358    9.9653   13.7859 N   0  0  0  0  0  0  0  0  0  0  0  0
   19.8513    4.2224   14.9342 O   0  0  0  0  0  0  0  0  0  0  0  0
   21.1890    4.7121   15.1095 C   0  0  2  0  0  0  0  0  0  0  0  0
   20.5240    5.8408   11.0486 N   0  0  0  0  0  0  0  0  0  0  0  0
   21.7916    2.8137   16.4789 O   0  0  0  0  0  0  0  0  0  0  0  0
   21.6705    4.2387   16.4859 C   0  0  1  0  0  0  0  0  0  0  0  0
   20.9956    6.6971   13.6592 O   0  0  0  0  0  0  0  0  0  0  0  0
   23.0272    4.8577   16.8282 C   0  0  1  0  0  0  0  0  0  0  0  0
   18.8890    7.7367   13.7990 O   0  0  0  0  0  0  0  0  0  0  0  0
   22.8789    6.3773   16.9066 C   0  0  0  0  0  0  0  0  0  0  0  0
   19.9197   10.6090   11.7585 O   0  0  0  0  0  0  0  0  0  0  0  0
   22.4381    6.9102   15.5402 C   0  0  1  0  0  0  0  0  0  0  0  0
   19.9762    8.4427    9.8693 O   0  0  0  0  0  0  0  0  0  0  0  0
   21.1675    6.2345   15.0102 C   0  0  2  0  0  0  0  0  0  0  0  0
   21.7405    2.3217   13.4308 O   0  0  0  0  0  0  0  0  0  0  0  0
   19.6407    6.6747   13.1831 C   0  0  1  0  0  0  0  0  0  0  0  0
   20.2053    1.9198   11.3144 O   0  0  0  0  0  0  0  0  0  0  0  0
   19.4006    9.0535   13.5316 C   0  0  2  0  0  0  0  0  0  0  0  0
   18.5275   10.0861   14.2487 C   0  0  0  0  0  0  0  0  0  0  0  0
   19.3516    9.3243   12.0268 C   0  0  2  0  0  0  0  0  0  0  0  0
   20.1469    8.2530   11.2779 C   0  0  1  0  0  0  0  0  0  0  0  0
   19.6532    6.8556   11.6615 C   0  0  1  0  0  0  0  0  0  0  0  0
   20.3406    2.2180   13.7010 C   0  0  2  0  0  0  0  0  0  0  0  0
   19.6306    1.5028   12.5554 C   0  0  1  0  0  0  0  0  0  0  0  0
  1  3  1  0  0  0  0
  4  1  1  1  0  0  0
  4  6  1  0  0  0  0
  4 31  1  0  0  0  0
  6  7  1  0  0  0  0
  7  9  1  1  0  0  0
  7 30  1  0  0  0  0
  8 26  1  0  0  0  0
 10  9  1  1  0  0  0
 10 13  1  0  0  0  0
 10 21  1  0  0  0  0
 13 12  1  6  0  0  0
 13 15  1  0  0  0  0
 15  2  1  1  0  0  0
 15 17  1  0  0  0  0
 16 25  1  0  0  0  0
 16 23  1  0  0  0  0
 17 19  1  0  0  0  0
 19  5  1  1  0  0  0
 19 21  1  0  0  0  0
 21 14  1  6  0  0  0
 23 14  1  1  0  0  0
 23 29  1  0  0  0  0
 25 26  1  1  0  0  0
 25 27  1  0  0  0  0
 27 18  1  1  0  0  0
 27 28  1  0  0  0  0
 28 20  1  6  0  0  0
 28 29  1  0  0  0  0
 29 11  1  6  0  0  0
 30 22  1  6  0  0  0
 30 31  1  0  0  0  0
 31 24  1  6  0  0  0
M  END
>  <CHROM.1>
65.71662017,-174.27469124,-131.29477079,73.37633345,80.28019280,-58.59433234
20.14287730,5.51245372,13.80755601,1.54434513,0.84524392,2.97423479

>  <Name>
ligand

>  <RI>
0

>  <Rbt.Current_Directory>
/home/itssahil/PROJECTS/Mol_Feturizer/New_Systems/rnas/3DVV

>  <Rbt.Executable>
rbdock ($Id: //depot/dev/client3/rdock/2013.1/src/exe/rbdock.cxx#4 $)

>  <Rbt.Library>
libRbt.so (2013.1, Build901 2013/11/27)

>  <Rbt.Parameter_File>
/export/apps/rDock/src/rDock_2013.1_src/data/scripts/dock_solv.prm

>  <Rbt.Receptor>
prm/blind_docking_40.prm

>  <SCORE>
-5.30082

>  <SCORE.INTER>
-5.33404

>  <SCORE.INTER.CONST>
1

>  <SCORE.INTER.POLAR>
0

>  <SCORE.INTER.ROT>
6

>  <SCORE.INTER.SOLV>
30.0358

>  <SCORE.INTER.VDW>
-21.168

>  <SCORE.INTER.norm>
-0.172066

>  <SCORE.INTRA>
0.0332152

>  <SCORE.INTRA.DIHEDRAL>
-1.03448

>  <SCORE.INTRA.DIHEDRAL.0>
10.8172

>  <SCORE.INTRA.POLAR>
0

>  <SCORE.INTRA.POLAR.0>
0

>  <SCORE.INTRA.REPUL>
0

>  <SCORE.INTRA.REPUL.0>
0

>  <SCORE.INTRA.SOLV>
-0.614447

>  <SCORE.INTRA.SOLV.lig_0>
-80.3833

>  <SCORE.INTRA.VDW>
0.85768

>  <SCORE.INTRA.VDW.0>
-4.63762

>  <SCORE.INTRA.norm>
0.00107146

>  <SCORE.RESTR>
0

>  <SCORE.RESTR.CAVITY>
0

>  <SCORE.RESTR.norm>
0

>  <SCORE.SYSTEM>
0

>  <SCORE.SYSTEM.CONST>
0

>  <SCORE.SYSTEM.DIHEDRAL>
0

>  <SCORE.SYSTEM.SOLV>
0

>  <SCORE.SYSTEM.norm>
0

>  <SCORE.heavy>
31

>  <SCORE.norm>
-0.170994

>  <RMSD>
6.442

$$$$
ligand
 OpenBabel11021811473D
libRbt.so/2013.1/901 2013/11/27
 31 33  0  0  0  0  0  0  0  0999 V2000
   15.2166    2.5922   17.7603 C   0  0  0  0  0  0  0  0  0  0  0  0
   13.5137   10.0459   20.3968 N   0  0  0  0  0  0  0  0  0  0  0  0
   15.8359    2.4599   19.0440 O   0  0  0  0  0  0  0  0  0  0  0  0
   14.0812    3.6169   17.8254 C   0  0  1  0  0  0  0  0  0  0  0  0
   18.0879   10.3659   18.7005 N   0  0  0  0  0  0  0  0  0  0  0  0
   14.5946    4.9022   18.2265 O   0  0  0  0  0  0  0  0  0  0  0  0
   14.2050    5.8783   17.2440 C   0  0  1  0  0  0  0  0  0  0  0  0
   19.2313    8.7719   13.2722 N   0  0  0  0  0  0  0  0  0  0  0  0
   15.1970    6.9059   17.0931 O   0  0  0  0  0  0  0  0  0  0  0  0
   15.5442    7.5594   18.3230 C   0  0  2  0  0  0  0  0  0  0  0  0
   19.2883    5.1394   18.0447 N   0  0  0  0  0  0  0  0  0  0  0  0
   13.2424    7.5722   19.0606 O   0  0  0  0  0  0  0  0  0  0  0  0
   14.3454    8.4220   18.7344 C   0  0  1  0  0  0  0  0  0  0  0  0
   17.9863    7.6034   17.9835 O   0  0  0  0  0  0  0  0  0  0  0  0
   14.6910    9.2868   19.9483 C   0  0  1  0  0  0  0  0  0  0  0  0
   18.2232    7.7769   15.6485 O   0  0  0  0  0  0  0  0  0  0  0  0
   15.8221   10.2452   19.5749 C   0  0  0  0  0  0  0  0  0  0  0  0
   21.7729    8.6910   15.8499 O   0  0  0  0  0  0  0  0  0  0  0  0
   17.0634    9.4330   19.1939 C   0  0  1  0  0  0  0  0  0  0  0  0
   21.7707    5.9695   16.7762 O   0  0  0  0  0  0  0  0  0  0  0  0
   16.7948    8.4020   18.0909 C   0  0  2  0  0  0  0  0  0  0  0  0
   13.3702    5.7023   14.9353 O   0  0  0  0  0  0  0  0  0  0  0  0
   18.1079    6.8658   16.7572 C   0  0  1  0  0  0  0  0  0  0  0  0
   12.0480    4.0310   16.5025 O   0  0  0  0  0  0  0  0  0  0  0  0
   19.3615    8.6524   15.7204 C   0  0  2  0  0  0  0  0  0  0  0  0
   19.3632    9.5743   14.4987 C   0  0  0  0  0  0  0  0  0  0  0  0
   20.6458    7.8213   15.7144 C   0  0  2  0  0  0  0  0  0  0  0  0
   20.6301    6.8284   16.8784 C   0  0  1  0  0  0  0  0  0  0  0  0
   19.3559    5.9805   16.8398 C   0  0  1  0  0  0  0  0  0  0  0  0
   14.1512    5.0678   15.9506 C   0  0  2  0  0  0  0  0  0  0  0  0
   13.4575    3.7996   16.4388 C   0  0  1  0  0  0  0  0  0  0  0  0
  1  3  1  0  0  0  0
  4  1  1  6  0  0  0
  4  6  1  0  0  0  0
  4 31  1  0  0  0  0
  6  7  1  0  0  0  0
  7  9  1  6  0  0  0
  7 30  1  0  0  0  0
  8 26  1  0  0  0  0
 10  9  1  6  0  0  0
 10 13  1  0  0  0  0
 10 21  1  0  0  0  0
 13 12  1  1  0  0  0
 13 15  1  0  0  0  0
 15  2  1  6  0  0  0
 15 17  1  0  0  0  0
 16 25  1  0  0  0  0
 16 23  1  0  0  0  0
 17 19  1  0  0  0  0
 19  5  1  6  0  0  0
 19 21  1  0  0  0  0
 21 14  1  1  0  0  0
 23 14  1  1  0  0  0
 23 29  1  0  0  0  0
 25 26  1  6  0  0  0
 25 27  1  0  0  0  0
 27 18  1  1  0  0  0
 27 28  1  0  0  0  0
 28 20  1  6  0  0  0
 28 29  1  0  0  0  0
 29 11  1  1  0  0  0
 30 22  1  6  0  0  0
 30 31  1  0  0  0  0
 31 24  1  1  0  0  0
M  END
>  <CHROM.1>
60.03741884,-54.74095353,-70.94878167,64.35075404,72.99745972,-51.40367311
16.66739480,6.93000335,17.31135137,-2.83539376,0.37595859,0.36117230

>  <Name>
ligand

>  <RI>
0

>  <Rbt.Current_Directory>
/home/itssahil/PROJECTS/Mol_Feturizer/New_Systems/rnas/3DVV

>  <Rbt.Executable>
rbdock ($Id: //depot/dev/client3/rdock/2013.1/src/exe/rbdock.cxx#4 $)

>  <Rbt.Library>
libRbt.so (2013.1, Build901 2013/11/27)

>  <Rbt.Parameter_File>
/export/apps/rDock/src/rDock_2013.1_src/data/scripts/dock_solv.prm

>  <Rbt.Receptor>
prm/pocket_docking_6.prm

>  <SCORE>
-7.34156

>  <SCORE.INTER>
-4.34635

>  <SCORE.INTER.CONST>
1

>  <SCORE.INTER.POLAR>
0

>  <SCORE.INTER.ROT>
6

>  <SCORE.INTER.SOLV>
16.1752

>  <SCORE.INTER.VDW>
-15.8893

>  <SCORE.INTER.norm>
-0.140205

>  <SCORE.INTRA>
-2.9952

>  <SCORE.INTRA.DIHEDRAL>
-8.70047

>  <SCORE.INTRA.DIHEDRAL.0>
10.8172

>  <SCORE.INTRA.POLAR>
0

>  <SCORE.INTRA.POLAR.0>
0

>  <SCORE.INTRA.REPUL>
0

>  <SCORE.INTRA.REPUL.0>
0

>  <SCORE.INTRA.SOLV>
-2.60291

>  <SCORE.INTRA.SOLV.lig_0>
-80.3833

>  <SCORE.INTRA.VDW>
2.65649

>  <SCORE.INTRA.VDW.0>
-4.63762

>  <SCORE.INTRA.norm>
-0.0966195

>  <SCORE.RESTR>
0

>  <SCORE.RESTR.CAVITY>
0

>  <SCORE.RESTR.norm>
0

>  <SCORE.SYSTEM>
0

>  <SCORE.SYSTEM.CONST>
0

>  <SCORE.SYSTEM.DIHEDRAL>
0

>  <SCORE.SYSTEM.SOLV>
0

>  <SCORE.SYSTEM.norm>
0

>  <SCORE.heavy>
31

>  <SCORE.norm>
-0.236824

>  <RMSD>
6.443

$$$$
ligand
 OpenBabel11021811473D
libRbt.so/2013.1/901 2013/11/27
 31 33  0  0  0  0  0  0  0  0999 V2000
   15.3426    6.1648   12.7372 C   0  0  0  0  0  0  0  0  0  0  0  0
   14.2839    1.6775   20.3045 N   0  0  0  0  0  0  0  0  0  0  0  0
   14.7515    7.2338   13.4834 O   0  0  0  0  0  0  0  0  0  0  0  0
   14.9868    4.8183   13.3723 C   0  0  1  0  0  0  0  0  0  0  0  0
   16.6089    5.9214   21.0026 N   0  0  0  0  0  0  0  0  0  0  0  0
   15.4205    4.7870   14.7461 O   0  0  0  0  0  0  0  0  0  0  0  0
   14.2934    4.4520   15.5751 C   0  0  1  0  0  0  0  0  0  0  0  0
   14.3166    9.5333   19.8721 N   0  0  0  0  0  0  0  0  0  0  0  0
   14.3644    5.0989   16.8555 O   0  0  0  0  0  0  0  0  0  0  0  0
   15.2005    4.4170   17.8021 C   0  0  2  0  0  0  0  0  0  0  0  0
   18.4302    6.5364   15.9176 N   0  0  0  0  0  0  0  0  0  0  0  0
   13.9149    2.3807   17.5937 O   0  0  0  0  0  0  0  0  0  0  0  0
   14.3243    3.3867   18.5242 C   0  0  1  0  0  0  0  0  0  0  0  0
   16.8180    6.2411   18.1724 O   0  0  0  0  0  0  0  0  0  0  0  0
   15.0944    2.7286   19.6708 C   0  0  1  0  0  0  0  0  0  0  0  0
   15.6264    8.2135   17.6949 O   0  0  0  0  0  0  0  0  0  0  0  0
   15.4680    3.7953   20.7004 C   0  0  0  0  0  0  0  0  0  0  0  0
   18.3344   10.4004   18.8613 O   0  0  0  0  0  0  0  0  0  0  0  0
   16.3814    4.8325   20.0404 C   0  0  1  0  0  0  0  0  0  0  0  0
   19.4728    9.1847   16.5180 O   0  0  0  0  0  0  0  0  0  0  0  0
   15.7798    5.4447   18.7696 C   0  0  2  0  0  0  0  0  0  0  0  0
   11.8621    4.4556   15.1922 O   0  0  0  0  0  0  0  0  0  0  0  0
   16.3753    7.1224   17.1283 C   0  0  1  0  0  0  0  0  0  0  0  0
   13.0909    3.2615   13.1768 O   0  0  0  0  0  0  0  0  0  0  0  0
   16.3687    9.0166   18.6283 C   0  0  2  0  0  0  0  0  0  0  0  0
   15.4629   10.1271   19.1658 C   0  0  0  0  0  0  0  0  0  0  0  0
   17.5631    9.6542   17.9161 C   0  0  2  0  0  0  0  0  0  0  0  0
   18.4405    8.5663   17.2934 C   0  0  1  0  0  0  0  0  0  0  0  0
   17.6041    7.6594   16.3869 C   0  0  1  0  0  0  0  0  0  0  0  0
   13.1101    5.0359   14.8060 C   0  0  2  0  0  0  0  0  0  0  0  0
   13.4676    4.6257   13.3806 C   0  0  1  0  0  0  0  0  0  0  0  0
  1  3  1  0  0  0  0
  4  1  1  1  0  0  0
  4  6  1  0  0  0  0
  4 31  1  0  0  0  0
  6  7  1  0  0  0  0
  7  9  1  1  0  0  0
  7 30  1  0  0  0  0
  8 26  1  0  0  0  0
 10  9  1  6  0  0  0
 10 13  1  0  0  0  0
 10 21  1  0  0  0  0
 13 12  1  6  0  0  0
 13 15  1  0  0  0  0
 15  2  1  1  0  0  0
 15 17  1  0  0  0  0
 16 25  1  0  0  0  0
 16 23  1  0  0  0  0
 17 19  1  0  0  0  0
 19  5  1  1  0  0  0
 19 21  1  0  0  0  0
 21 14  1  6  0  0  0
 23 14  1  1  0  0  0
 23 29  1  0  0  0  0
 25 26  1  6  0  0  0
 25 27  1  0  0  0  0
 27 18  1  1  0  0  0
 27 28  1  0  0  0  0
 28 20  1  6  0  0  0
 28 29  1  0  0  0  0
 29 11  1  1  0  0  0
 30 22  1  1  0  0  0
 30 31  1  0  0  0  0
 31 24  1  1  0  0  0
M  END
>  <CHROM.1>
-57.36072932,-82.24150474,-87.98822839,72.17378768,67.15145027,61.35878198
15.55492865,6.03541008,17.09869919,-2.97004761,1.01913527,1.91275226

>  <Name>
ligand

>  <RI>
0

>  <Rbt.Current_Directory>
/home/itssahil/PROJECTS/Mol_Feturizer/New_Systems/rnas/3DVV

>  <Rbt.Executable>
rbdock ($Id: //depot/dev/client3/rdock/2013.1/src/exe/rbdock.cxx#4 $)

>  <Rbt.Library>
libRbt.so (2013.1, Build901 2013/11/27)

>  <Rbt.Parameter_File>
/export/apps/rDock/src/rDock_2013.1_src/data/scripts/dock_solv.prm

>  <Rbt.Receptor>
prm/pocket_docking_8.prm

>  <SCORE>
-5.42483

>  <SCORE.INTER>
-2.78045

>  <SCORE.INTER.CONST>
1

>  <SCORE.INTER.POLAR>
0

>  <SCORE.INTER.ROT>
6

>  <SCORE.INTER.SOLV>
11.7007

>  <SCORE.INTER.VDW>
-13.3539

>  <SCORE.INTER.norm>
-0.0896918

>  <SCORE.INTRA>
-2.64438

>  <SCORE.INTRA.DIHEDRAL>
-4.25993

>  <SCORE.INTRA.DIHEDRAL.0>
10.8172

>  <SCORE.INTRA.POLAR>
0

>  <SCORE.INTRA.POLAR.0>
0

>  <SCORE.INTRA.REPUL>
0

>  <SCORE.INTRA.REPUL.0>
0

>  <SCORE.INTRA.SOLV>
-3.0058

>  <SCORE.INTRA.SOLV.lig_0>
-80.3833

>  <SCORE.INTRA.VDW>
0.988482

>  <SCORE.INTRA.VDW.0>
-4.63762

>  <SCORE.INTRA.norm>
-0.0853027

>  <SCORE.RESTR>
0

>  <SCORE.RESTR.CAVITY>
0

>  <SCORE.RESTR.norm>
0

>  <SCORE.SYSTEM>
0

>  <SCORE.SYSTEM.CONST>
0

>  <SCORE.SYSTEM.DIHEDRAL>
0

>  <SCORE.SYSTEM.SOLV>
0

>  <SCORE.SYSTEM.norm>
0

>  <SCORE.heavy>
31

>  <SCORE.norm>
-0.174995

>  <RMSD>
6.489

$$$$
ligand
 OpenBabel11021811473D
libRbt.so/2013.1/901 2013/11/27
 31 33  0  0  0  0  0  0  0  0999 V2000
   17.1654    1.0739   13.1551 C   0  0  0  0  0  0  0  0  0  0  0  0
   23.3476    4.4074   18.0502 N   0  0  0  0  0  0  0  0  0  0  0  0
   17.5306    0.9324   14.5318 O   0  0  0  0  0  0  0  0  0  0  0  0
   18.0561    2.1186   12.4778 C   0  0  1  0  0  0  0  0  0  0  0  0
   21.8657    8.3949   15.6403 N   0  0  0  0  0  0  0  0  0  0  0  0
   18.1343    3.3063   13.2900 O   0  0  0  0  0  0  0  0  0  0  0  0
   19.5204    3.6033   13.5354 C   0  0  1  0  0  0  0  0  0  0  0  0
   18.1682   11.0849   14.0459 N   0  0  0  0  0  0  0  0  0  0  0  0
   19.7161    4.1957   14.8292 O   0  0  0  0  0  0  0  0  0  0  0  0
   21.0329    4.7317   15.0264 C   0  0  2  0  0  0  0  0  0  0  0  0
   20.5864    5.8943   10.9385 N   0  0  0  0  0  0  0  0  0  0  0  0
   21.6867    2.8427   16.3853 O   0  0  0  0  0  0  0  0  0  0  0  0
   21.5139    4.2623   16.4043 C   0  0  1  0  0  0  0  0  0  0  0  0
   20.7857    6.7228   13.5926 O   0  0  0  0  0  0  0  0  0  0  0  0
   22.8428    4.9265   16.7699 C   0  0  1  0  0  0  0  0  0  0  0  0
   18.5379    7.4175   13.6433 O   0  0  0  0  0  0  0  0  0  0  0  0
   22.6386    6.4389   16.8609 C   0  0  0  0  0  0  0  0  0  0  0  0
   19.2071   10.4836   11.7387 O   0  0  0  0  0  0  0  0  0  0  0  0
   22.1958    6.9691   15.4940 C   0  0  1  0  0  0  0  0  0  0  0  0
   19.6976    8.4189    9.7994 O   0  0  0  0  0  0  0  0  0  0  0  0
   20.9574    6.2532   14.9413 C   0  0  2  0  0  0  0  0  0  0  0  0
   21.5886    2.2875   13.3143 O   0  0  0  0  0  0  0  0  0  0  0  0
   19.4769    6.5069   13.0421 C   0  0  1  0  0  0  0  0  0  0  0  0
   20.1150    2.0251   11.1332 O   0  0  0  0  0  0  0  0  0  0  0  0
   18.8496    8.8062   13.4391 C   0  0  2  0  0  0  0  0  0  0  0  0
   17.7904    9.6654   14.1337 C   0  0  0  0  0  0  0  0  0  0  0  0
   18.8347    9.1179   11.9415 C   0  0  2  0  0  0  0  0  0  0  0  0
   19.8248    8.2094   11.2098 C   0  0  1  0  0  0  0  0  0  0  0  0
   19.5375    6.7399   11.5288 C   0  0  1  0  0  0  0  0  0  0  0  0
   20.1774    2.2246   13.5331 C   0  0  2  0  0  0  0  0  0  0  0  0
   19.4830    1.5812   12.3365 C   0  0  1  0  0  0  0  0  0  0  0  0
  1  3  1  0  0  0  0
  4  1  1  1  0  0  0
  4  6  1  0  0  0  0
  4 31  1  0  0  0  0
  6  7  1  0  0  0  0
  7  9  1  1  0  0  0
  7 30  1  0  0  0  0
  8 26  1  0  0  0  0
 10  9  1  1  0  0  0
 10 13  1  0  0  0  0
 10 21  1  0  0  0  0
 13 12  1  6  0  0  0
 13 15  1  0  0  0  0
 15  2  1  1  0  0  0
 15 17  1  0  0  0  0
 16 25  1  0  0  0  0
 16 23  1  0  0  0  0
 17 19  1  0  0  0  0
 19  5  1  1  0  0  0
 19 21  1  0  0  0  0
 21 14  1  6  0  0  0
 23 14  1  1  0  0  0
 23 29  1  0  0  0  0
 25 26  1  1  0  0  0
 25 27  1  0  0  0  0
 27 18  1  1  0  0  0
 27 28  1  0  0  0  0
 28 20  1  6  0  0  0
 28 29  1  0  0  0  0
 29 11  1  1  0  0  0
 30 22  1  6  0  0  0
 30 31  1  0  0  0  0
 31 24  1  6  0  0  0
M  END
>  <CHROM.1>
-47.68475866,-169.24877429,-133.93619652,73.02325164,73.06065532,174.47051577
20.00866060,5.50969428,13.74453688,1.43092224,0.93442700,3.05114915

>  <Name>
ligand

>  <RI>
0

>  <Rbt.Current_Directory>
/home/itssahil/PROJECTS/Mol_Feturizer/New_Systems/rnas/3DVV

>  <Rbt.Executable>
rbdock ($Id: //depot/dev/client3/rdock/2013.1/src/exe/rbdock.cxx#4 $)

>  <Rbt.Library>
libRbt.so (2013.1, Build901 2013/11/27)

>  <Rbt.Parameter_File>
/export/apps/rDock/src/rDock_2013.1_src/data/scripts/dock_solv.prm

>  <Rbt.Receptor>
prm/blind_docking_60.prm

>  <SCORE>
-2.40069

>  <SCORE.INTER>
-2.54701

>  <SCORE.INTER.CONST>
1

>  <SCORE.INTER.POLAR>
0

>  <SCORE.INTER.ROT>
6

>  <SCORE.INTER.SOLV>
30.7492

>  <SCORE.INTER.VDW>
-19.5477

>  <SCORE.INTER.norm>
-0.0821615

>  <SCORE.INTRA>
0.141637

>  <SCORE.INTRA.DIHEDRAL>
-1.49654

>  <SCORE.INTRA.DIHEDRAL.0>
10.8172

>  <SCORE.INTRA.POLAR>
0

>  <SCORE.INTRA.POLAR.0>
0

>  <SCORE.INTRA.REPUL>
0

>  <SCORE.INTRA.REPUL.0>
0

>  <SCORE.INTRA.SOLV>
-0.872704

>  <SCORE.INTRA.SOLV.lig_0>
-80.3833

>  <SCORE.INTRA.VDW>
1.32626

>  <SCORE.INTRA.VDW.0>
-4.63762

>  <SCORE.INTRA.norm>
0.00456892

>  <SCORE.RESTR>
0.00468311

>  <SCORE.RESTR.CAVITY>
0.00468311

>  <SCORE.RESTR.norm>
0.000151068

>  <SCORE.SYSTEM>
0

>  <SCORE.SYSTEM.CONST>
0

>  <SCORE.SYSTEM.DIHEDRAL>
0

>  <SCORE.SYSTEM.SOLV>
0

>  <SCORE.SYSTEM.norm>
0

>  <SCORE.heavy>
31

>  <SCORE.norm>
-0.0774415

>  <RMSD>
6.493

$$$$
ligand
 OpenBabel11021811473D
libRbt.so/2013.1/901 2013/11/27
 31 33  0  0  0  0  0  0  0  0999 V2000
   16.0757    5.2233   12.8706 C   0  0  0  0  0  0  0  0  0  0  0  0
   14.2940    1.8231   20.3772 N   0  0  0  0  0  0  0  0  0  0  0  0
   17.4381    4.8146   13.0303 O   0  0  0  0  0  0  0  0  0  0  0  0
   15.1423    4.2346   13.5737 C   0  0  1  0  0  0  0  0  0  0  0  0
   16.6940    6.0325   21.0285 N   0  0  0  0  0  0  0  0  0  0  0  0
   15.4085    4.2214   14.9898 O   0  0  0  0  0  0  0  0  0  0  0  0
   14.1795    4.4850   15.6898 C   0  0  1  0  0  0  0  0  0  0  0  0
   14.4071    9.6241   19.9161 N   0  0  0  0  0  0  0  0  0  0  0  0
   14.4060    5.2186   16.9037 O   0  0  0  0  0  0  0  0  0  0  0  0
   15.2375    4.5295   17.8490 C   0  0  2  0  0  0  0  0  0  0  0  0
   18.4936    6.6359   15.9370 N   0  0  0  0  0  0  0  0  0  0  0  0
   13.9169    2.5135   17.6643 O   0  0  0  0  0  0  0  0  0  0  0  0
   14.3497    3.5190   18.5846 C   0  0  1  0  0  0  0  0  0  0  0  0
   16.8877    6.3291   18.1948 O   0  0  0  0  0  0  0  0  0  0  0  0
   15.1172    2.8562   19.7303 C   0  0  1  0  0  0  0  0  0  0  0  0
   15.7122    8.3175   17.7448 O   0  0  0  0  0  0  0  0  0  0  0  0
   15.5160    3.9236   20.7496 C   0  0  0  0  0  0  0  0  0  0  0  0
   18.4444   10.4662   18.9254 O   0  0  0  0  0  0  0  0  0  0  0  0
   16.4416    4.9409   20.0757 C   0  0  1  0  0  0  0  0  0  0  0  0
   19.5626    9.2675   16.5637 O   0  0  0  0  0  0  0  0  0  0  0  0
   15.8408    5.5542   18.8050 C   0  0  2  0  0  0  0  0  0  0  0  0
   12.0094    5.4119   14.9902 O   0  0  0  0  0  0  0  0  0  0  0  0
   16.4490    7.2263   17.1627 C   0  0  1  0  0  0  0  0  0  0  0  0
   12.7950    3.5596   13.2728 O   0  0  0  0  0  0  0  0  0  0  0  0
   16.4654    9.1030   18.6844 C   0  0  2  0  0  0  0  0  0  0  0  0
   15.5719   10.2153   19.2383 C   0  0  0  0  0  0  0  0  0  0  0  0
   17.6627    9.7380   17.9749 C   0  0  2  0  0  0  0  0  0  0  0  0
   18.5278    8.6495   17.3361 C   0  0  1  0  0  0  0  0  0  0  0  0
   17.6797    7.7608   16.4225 C   0  0  1  0  0  0  0  0  0  0  0  0
   13.4130    5.3829   14.7208 C   0  0  2  0  0  0  0  0  0  0  0  0
   13.6851    4.6715   13.3988 C   0  0  1  0  0  0  0  0  0  0  0  0
  1  3  1  0  0  0  0
  4  1  1  6  0  0  0
  4  6  1  0  0  0  0
  4 31  1  0  0  0  0
  6  7  1  0  0  0  0
  7  9  1  1  0  0  0
  7 30  1  0  0  0  0
  8 26  1  0  0  0  0
 10  9  1  6  0  0  0
 10 13  1  0  0  0  0
 10 21  1  0  0  0  0
 13 12  1  6  0  0  0
 13 15  1  0  0  0  0
 15  2  1  1  0  0  0
 15 17  1  0  0  0  0
 16 25  1  0  0  0  0
 16 23  1  0  0  0  0
 17 19  1  0  0  0  0
 19  5  1  1  0  0  0
 19 21  1  0  0  0  0
 21 14  1  6  0  0  0
 23 14  1  1  0  0  0
 23 29  1  0  0  0  0
 25 26  1  6  0  0  0
 25 27  1  0  0  0  0
 27 18  1  1  0  0  0
 27 28  1  0  0  0  0
 28 20  1  6  0  0  0
 28 29  1  0  0  0  0
 29 11  1  1  0  0  0
 30 22  1  1  0  0  0
 30 31  1  0  0  0  0
 31 24  1  1  0  0  0
M  END
>  <CHROM.1>
62.49516167,-61.05459508,-80.64697855,71.00884945,68.12722604,60.08956258
15.73298873,6.01154547,17.13258300,-2.66017476,1.01156981,1.60646023

>  <Name>
ligand

>  <RI>
0

>  <Rbt.Current_Directory>
/home/itssahil/PROJECTS/Mol_Feturizer/New_Systems/rnas/3DVV

>  <Rbt.Executable>
rbdock ($Id: //depot/dev/client3/rdock/2013.1/src/exe/rbdock.cxx#4 $)

>  <Rbt.Library>
libRbt.so (2013.1, Build901 2013/11/27)

>  <Rbt.Parameter_File>
/export/apps/rDock/src/rDock_2013.1_src/data/scripts/dock_solv.prm

>  <Rbt.Receptor>
prm/pocket_docking_8.prm

>  <SCORE>
-5.25708

>  <SCORE.INTER>
-1.30184

>  <SCORE.INTER.CONST>
1

>  <SCORE.INTER.POLAR>
0

>  <SCORE.INTER.ROT>
6

>  <SCORE.INTER.SOLV>
11.2937

>  <SCORE.INTER.VDW>
-12.2325

>  <SCORE.INTER.norm>
-0.0419948

>  <SCORE.INTRA>
-3.95524

>  <SCORE.INTRA.DIHEDRAL>
-7.71436

>  <SCORE.INTRA.DIHEDRAL.0>
10.8172

>  <SCORE.INTRA.POLAR>
0

>  <SCORE.INTRA.POLAR.0>
0

>  <SCORE.INTRA.REPUL>
0

>  <SCORE.INTRA.REPUL.0>
0

>  <SCORE.INTRA.SOLV>
-3.2678

>  <SCORE.INTRA.SOLV.lig_0>
-80.3833

>  <SCORE.INTRA.VDW>
1.53584

>  <SCORE.INTRA.VDW.0>
-4.63762

>  <SCORE.INTRA.norm>
-0.127588

>  <SCORE.RESTR>
0

>  <SCORE.RESTR.CAVITY>
0

>  <SCORE.RESTR.norm>
0

>  <SCORE.SYSTEM>
0

>  <SCORE.SYSTEM.CONST>
0

>  <SCORE.SYSTEM.DIHEDRAL>
0

>  <SCORE.SYSTEM.SOLV>
0

>  <SCORE.SYSTEM.norm>
0

>  <SCORE.heavy>
31

>  <SCORE.norm>
-0.169583

>  <RMSD>
6.495

$$$$
ligand
 OpenBabel11021811473D
libRbt.so/2013.1/901 2013/11/27
 31 33  0  0  0  0  0  0  0  0999 V2000
   20.0155    9.0592   15.8027 C   0  0  0  0  0  0  0  0  0  0  0  0
   21.9454    3.8075   15.3195 N   0  0  0  0  0  0  0  0  0  0  0  0
   19.7433   10.3231   15.1884 O   0  0  0  0  0  0  0  0  0  0  0  0
   18.7241    8.2478   15.9347 C   0  0  1  0  0  0  0  0  0  0  0  0
   17.2624    2.4308   15.5980 N   0  0  0  0  0  0  0  0  0  0  0  0
   19.0177    6.9219   16.4166 O   0  0  0  0  0  0  0  0  0  0  0  0
   18.2252    6.6753   17.5917 C   0  0  1  0  0  0  0  0  0  0  0  0
   14.2170    5.2559   15.4861 N   0  0  0  0  0  0  0  0  0  0  0  0
   18.9140    5.8343   18.5305 O   0  0  0  0  0  0  0  0  0  0  0  0
   19.3155    4.5684   17.9864 C   0  0  2  0  0  0  0  0  0  0  0  0
   16.7119    3.0747   21.0153 N   0  0  0  0  0  0  0  0  0  0  0  0
   21.5866    5.3330   17.6697 O   0  0  0  0  0  0  0  0  0  0  0  0
   20.4361    4.8417   16.9764 C   0  0  1  0  0  0  0  0  0  0  0  0
   17.1665    3.3962   18.2839 O   0  0  0  0  0  0  0  0  0  0  0  0
   20.8101    3.5640   16.2225 C   0  0  1  0  0  0  0  0  0  0  0  0
   15.4016    4.9389   18.0758 O   0  0  0  0  0  0  0  0  0  0  0  0
   19.5990    3.0809   15.4241 C   0  0  0  0  0  0  0  0  0  0  0  0
   12.8133    2.3392   18.2110 O   0  0  0  0  0  0  0  0  0  0  0  0
   18.4582    2.7521   16.3916 C   0  0  1  0  0  0  0  0  0  0  0  0
   13.9240    2.2592   20.8614 O   0  0  0  0  0  0  0  0  0  0  0  0
   18.1049    3.9159   17.3257 C   0  0  2  0  0  0  0  0  0  0  0  0
   16.9789    8.1472   19.1209 O   0  0  0  0  0  0  0  0  0  0  0  0
   16.3906    4.3925   18.9680 C   0  0  1  0  0  0  0  0  0  0  0  0
   16.4164    8.7689   16.6119 O   0  0  0  0  0  0  0  0  0  0  0  0
   14.4718    3.9703   17.5615 C   0  0  2  0  0  0  0  0  0  0  0  0
   13.4871    4.6700   16.6217 C   0  0  0  0  0  0  0  0  0  0  0  0
   13.6913    3.3466   18.7200 C   0  0  2  0  0  0  0  0  0  0  0  0
   14.6603    2.7144   19.7212 C   0  0  1  0  0  0  0  0  0  0  0  0
   15.7054    3.7382   20.1724 C   0  0  1  0  0  0  0  0  0  0  0  0
   18.0767    8.0644   18.2089 C   0  0  2  0  0  0  0  0  0  0  0  0
   17.7961    8.9000   16.9635 C   0  0  1  0  0  0  0  0  0  0  0  0
  1  3  1  0  0  0  0
  4  1  1  1  0  0  0
  4  6  1  0  0  0  0
  4 31  1  0  0  0  0
  6  7  1  0  0  0  0
  7  9  1  1  0  0  0
  7 30  1  0  0  0  0
  8 26  1  0  0  0  0
 10  9  1  6  0  0  0
 10 13  1  0  0  0  0
 10 21  1  0  0  0  0
 13 12  1  1  0  0  0
 13 15  1  0  0  0  0
 15  2  1  6  0  0  0
 15 17  1  0  0  0  0
 16 25  1  0  0  0  0
 16 23  1  0  0  0  0
 17 19  1  0  0  0  0
 19  5  1  6  0  0  0
 19 21  1  0  0  0  0
 21 14  1  1  0  0  0
 23 14  1  6  0  0  0
 23 29  1  0  0  0  0
 25 26  1  6  0  0  0
 25 27  1  0  0  0  0
 27 18  1  6  0  0  0
 27 28  1  0  0  0  0
 28 20  1  1  0  0  0
 28 29  1  0  0  0  0
 29 11  1  1  0  0  0
 30 22  1  1  0  0  0
 30 31  1  0  0  0  0
 31 24  1  6  0  0  0
M  END
>  <CHROM.1>
173.73036765,-57.11256180,69.63840715,73.40166952,73.71820875,61.58250219
17.40919287,5.17597231,17.52468569,0.69229216,0.32544345,-0.17486062

>  <Name>
ligand

>  <RI>
0

>  <Rbt.Current_Directory>
/home/itssahil/PROJECTS/Mol_Feturizer/New_Systems/rnas/3DVV

>  <Rbt.Executable>
rbdock ($Id: //depot/dev/client3/rdock/2013.1/src/exe/rbdock.cxx#4 $)

>  <Rbt.Library>
libRbt.so (2013.1, Build901 2013/11/27)

>  <Rbt.Parameter_File>
/export/apps/rDock/src/rDock_2013.1_src/data/scripts/dock_solv.prm

>  <Rbt.Receptor>
prm/pocket_docking_4.prm

>  <SCORE>
-5.9802

>  <SCORE.INTER>
-3.92338

>  <SCORE.INTER.CONST>
1

>  <SCORE.INTER.POLAR>
0

>  <SCORE.INTER.ROT>
6

>  <SCORE.INTER.SOLV>
14.5085

>  <SCORE.INTER.VDW>
-15.0517

>  <SCORE.INTER.norm>
-0.12656

>  <SCORE.INTRA>
-2.05682

>  <SCORE.INTRA.DIHEDRAL>
-8.19448

>  <SCORE.INTRA.DIHEDRAL.0>
10.8172

>  <SCORE.INTRA.POLAR>
0

>  <SCORE.INTRA.POLAR.0>
0

>  <SCORE.INTRA.REPUL>
0

>  <SCORE.INTRA.REPUL.0>
0

>  <SCORE.INTRA.SOLV>
-3.03492

>  <SCORE.INTRA.SOLV.lig_0>
-80.3833

>  <SCORE.INTRA.VDW>
3.55788

>  <SCORE.INTRA.VDW.0>
-4.63762

>  <SCORE.INTRA.norm>
-0.066349

>  <SCORE.RESTR>
0

>  <SCORE.RESTR.CAVITY>
0

>  <SCORE.RESTR.norm>
0

>  <SCORE.SYSTEM>
0

>  <SCORE.SYSTEM.CONST>
0

>  <SCORE.SYSTEM.DIHEDRAL>
0

>  <SCORE.SYSTEM.SOLV>
0

>  <SCORE.SYSTEM.norm>
0

>  <SCORE.heavy>
31

>  <SCORE.norm>
-0.19291

>  <RMSD>
6.496

$$$$
ligand
 OpenBabel11021811473D
libRbt.so/2013.1/901 2013/11/27
 31 33  0  0  0  0  0  0  0  0999 V2000
   17.1346    0.8169   13.7259 C   0  0  0  0  0  0  0  0  0  0  0  0
   23.4529    4.3580   18.0436 N   0  0  0  0  0  0  0  0  0  0  0  0
   16.9611   -0.3955   12.9852 O   0  0  0  0  0  0  0  0  0  0  0  0
   17.9718    1.8128   12.9193 C   0  0  1  0  0  0  0  0  0  0  0  0
   21.9241    8.3121   15.6081 N   0  0  0  0  0  0  0  0  0  0  0  0
   18.0532    3.0718   13.6155 O   0  0  0  0  0  0  0  0  0  0  0  0
   19.4403    3.4188   13.7745 C   0  0  1  0  0  0  0  0  0  0  0  0
   18.3005   11.1033   13.9581 N   0  0  0  0  0  0  0  0  0  0  0  0
   19.6728    4.1320   14.9994 O   0  0  0  0  0  0  0  0  0  0  0  0
   21.0056    4.6501   15.1226 C   0  0  2  0  0  0  0  0  0  0  0  0
   20.3631    5.6486   11.0623 N   0  0  0  0  0  0  0  0  0  0  0  0
   21.6919    2.7829   16.4956 O   0  0  0  0  0  0  0  0  0  0  0  0
   21.5426    4.2052   16.4879 C   0  0  1  0  0  0  0  0  0  0  0  0
   20.7238    6.6107   13.6537 O   0  0  0  0  0  0  0  0  0  0  0  0
   22.8975    4.8552   16.7757 C   0  0  1  0  0  0  0  0  0  0  0  0
   18.5116    7.4055   13.7676 O   0  0  0  0  0  0  0  0  0  0  0  0
   22.7217    6.3726   16.8390 C   0  0  0  0  0  0  0  0  0  0  0  0
   19.2151   10.3310   11.6645 O   0  0  0  0  0  0  0  0  0  0  0  0
   22.2244    6.8779   15.4815 C   0  0  1  0  0  0  0  0  0  0  0  0
   19.5260    8.1442    9.8244 O   0  0  0  0  0  0  0  0  0  0  0  0
   20.9504    6.1702   15.0040 C   0  0  2  0  0  0  0  0  0  0  0  0
   21.5296    2.1312   13.5882 O   0  0  0  0  0  0  0  0  0  0  0  0
   19.3822    6.4230   13.1765 C   0  0  1  0  0  0  0  0  0  0  0  0
   19.9772    1.6381   11.5039 O   0  0  0  0  0  0  0  0  0  0  0  0
   18.8704    8.7659   13.4714 C   0  0  2  0  0  0  0  0  0  0  0  0
   17.8824    9.7074   14.1640 C   0  0  0  0  0  0  0  0  0  0  0  0
   18.7966    8.9960   11.9608 C   0  0  2  0  0  0  0  0  0  0  0  0
   19.7119    8.0064   11.2371 C   0  0  1  0  0  0  0  0  0  0  0  0
   19.3797    6.5704   11.6512 C   0  0  1  0  0  0  0  0  0  0  0  0
   20.1301    2.0596   13.8708 C   0  0  2  0  0  0  0  0  0  0  0  0
   19.4047    1.2942   12.7681 C   0  0  1  0  0  0  0  0  0  0  0  0
  1  3  1  0  0  0  0
  4  1  1  1  0  0  0
  4  6  1  0  0  0  0
  4 31  1  0  0  0  0
  6  7  1  0  0  0  0
  7  9  1  1  0  0  0
  7 30  1  0  0  0  0
  8 26  1  0  0  0  0
 10  9  1  1  0  0  0
 10 13  1  0  0  0  0
 10 21  1  0  0  0  0
 13 12  1  6  0  0  0
 13 15  1  0  0  0  0
 15  2  1  1  0  0  0
 15 17  1  0  0  0  0
 16 25  1  0  0  0  0
 16 23  1  0  0  0  0
 17 19  1  0  0  0  0
 19  5  1  1  0  0  0
 19 21  1  0  0  0  0
 21 14  1  6  0  0  0
 23 14  1  1  0  0  0
 23 29  1  0  0  0  0
 25 26  1  1  0  0  0
 25 27  1  0  0  0  0
 27 18  1  1  0  0  0
 27 28  1  0  0  0  0
 28 20  1  6  0  0  0
 28 29  1  0  0  0  0
 29 11  1  6  0  0  0
 30 22  1  6  0  0  0
 30 31  1  0  0  0  0
 31 24  1  6  0  0  0
M  END
>  <CHROM.1>
175.24127417,-172.39525738,-129.20516005,74.83920772,73.97796998,175.50555156
19.95665096,5.33076792,13.81686050,1.54824438,0.87979952,3.01750215

>  <Name>
ligand

>  <RI>
0

>  <Rbt.Current_Directory>
/home/itssahil/PROJECTS/Mol_Feturizer/New_Systems/rnas/3DVV

>  <Rbt.Executable>
rbdock ($Id: //depot/dev/client3/rdock/2013.1/src/exe/rbdock.cxx#4 $)

>  <Rbt.Library>
libRbt.so (2013.1, Build901 2013/11/27)

>  <Rbt.Parameter_File>
/export/apps/rDock/src/rDock_2013.1_src/data/scripts/dock_solv.prm

>  <Rbt.Receptor>
prm/blind_docking_60.prm

>  <SCORE>
-3.83158

>  <SCORE.INTER>
-3.84404

>  <SCORE.INTER.CONST>
1

>  <SCORE.INTER.POLAR>
0

>  <SCORE.INTER.ROT>
6

>  <SCORE.INTER.SOLV>
29.884

>  <SCORE.INTER.VDW>
-20.124

>  <SCORE.INTER.norm>
-0.124001

>  <SCORE.INTRA>
0.00743636

>  <SCORE.INTRA.DIHEDRAL>
-1.41042

>  <SCORE.INTRA.DIHEDRAL.0>
10.8172

>  <SCORE.INTRA.POLAR>
0

>  <SCORE.INTRA.POLAR.0>
0

>  <SCORE.INTRA.REPUL>
0

>  <SCORE.INTRA.REPUL.0>
0

>  <SCORE.INTRA.SOLV>
-1.35377

>  <SCORE.INTRA.SOLV.lig_0>
-80.3833

>  <SCORE.INTRA.VDW>
1.38953

>  <SCORE.INTRA.VDW.0>
-4.63762

>  <SCORE.INTRA.norm>
0.000239883

>  <SCORE.RESTR>
0.00502355

>  <SCORE.RESTR.CAVITY>
0.00502355

>  <SCORE.RESTR.norm>
0.00016205

>  <SCORE.SYSTEM>
0

>  <SCORE.SYSTEM.CONST>
0

>  <SCORE.SYSTEM.DIHEDRAL>
0

>  <SCORE.SYSTEM.SOLV>
0

>  <SCORE.SYSTEM.norm>
0

>  <SCORE.heavy>
31

>  <SCORE.norm>
-0.1236

>  <RMSD>
6.500

$$$$
ligand
 OpenBabel11021811473D
libRbt.so/2013.1/901 2013/11/27
 31 33  0  0  0  0  0  0  0  0999 V2000
   21.5503    7.9853   15.7193 C   0  0  0  0  0  0  0  0  0  0  0  0
   17.1499    1.1584   14.3012 N   0  0  0  0  0  0  0  0  0  0  0  0
   20.4179    8.7578   16.1312 O   0  0  0  0  0  0  0  0  0  0  0  0
   21.1392    6.9809   14.6397 C   0  0  1  0  0  0  0  0  0  0  0  0
   14.7952    3.5201   17.8763 N   0  0  0  0  0  0  0  0  0  0  0  0
   20.1386    6.0807   15.1541 O   0  0  0  0  0  0  0  0  0  0  0  0
   18.9971    6.1157   14.2791 C   0  0  1  0  0  0  0  0  0  0  0  0
   13.4109    7.2231   15.4545 N   0  0  0  0  0  0  0  0  0  0  0  0
   17.7690    5.9268   14.9994 O   0  0  0  0  0  0  0  0  0  0  0  0
   17.6946    4.6745   15.6968 C   0  0  2  0  0  0  0  0  0  0  0  0
   18.3070    7.0531   19.6288 N   0  0  0  0  0  0  0  0  0  0  0  0
   18.6799    3.4869   13.8363 O   0  0  0  0  0  0  0  0  0  0  0  0
   17.5026    3.5774   14.6433 C   0  0  1  0  0  0  0  0  0  0  0  0
   16.8071    5.5463   17.8260 O   0  0  0  0  0  0  0  0  0  0  0  0
   17.2439    2.2248   15.3099 C   0  0  1  0  0  0  0  0  0  0  0  0
   15.8828    7.4726   16.8396 O   0  0  0  0  0  0  0  0  0  0  0  0
   15.9458    2.3026   16.1137 C   0  0  0  0  0  0  0  0  0  0  0  0
   13.5521    8.0509   19.6163 O   0  0  0  0  0  0  0  0  0  0  0  0
   16.0976    3.3591   17.2121 C   0  0  1  0  0  0  0  0  0  0  0  0
   16.1118    8.5339   20.8326 O   0  0  0  0  0  0  0  0  0  0  0  0
   16.5254    4.7304   16.6754 C   0  0  2  0  0  0  0  0  0  0  0  0
   18.2665    7.6828   12.5274 O   0  0  0  0  0  0  0  0  0  0  0  0
   17.0211    6.9373   17.5396 C   0  0  1  0  0  0  0  0  0  0  0  0
   20.8250    7.0948   12.2017 O   0  0  0  0  0  0  0  0  0  0  0  0
   14.6469    7.3849   17.5691 C   0  0  2  0  0  0  0  0  0  0  0  0
   13.5188    7.9714   16.7171 C   0  0  0  0  0  0  0  0  0  0  0  0
   14.7598    8.1923   18.8635 C   0  0  2  0  0  0  0  0  0  0  0  0
   15.9376    7.6814   19.6959 C   0  0  1  0  0  0  0  0  0  0  0  0
   17.2218    7.6844   18.8624 C   0  0  1  0  0  0  0  0  0  0  0  0
   19.0205    7.5421   13.7337 C   0  0  2  0  0  0  0  0  0  0  0  0
   20.5101    7.7139   13.4515 C   0  0  1  0  0  0  0  0  0  0  0  0
  1  3  1  0  0  0  0
  4  1  1  1  0  0  0
  4  6  1  0  0  0  0
  4 31  1  0  0  0  0
  6  7  1  0  0  0  0
  7  9  1  1  0  0  0
  7 30  1  0  0  0  0
  8 26  1  0  0  0  0
 10  9  1  6  0  0  0
 10 13  1  0  0  0  0
 10 21  1  0  0  0  0
 13 12  1  1  0  0  0
 13 15  1  0  0  0  0
 15  2  1  6  0  0  0
 15 17  1  0  0  0  0
 16 25  1  0  0  0  0
 16 23  1  0  0  0  0
 17 19  1  0  0  0  0
 19  5  1  6  0  0  0
 19 21  1  0  0  0  0
 21 14  1  1  0  0  0
 23 14  1  1  0  0  0
 23 29  1  0  0  0  0
 25 26  1  6  0  0  0
 25 27  1  0  0  0  0
 27 18  1  1  0  0  0
 27 28  1  0  0  0  0
 28 20  1  1  0  0  0
 28 29  1  0  0  0  0
 29 11  1  1  0  0  0
 30 22  1  6  0  0  0
 30 31  1  0  0  0  0
 31 24  1  6  0  0  0
M  END
>  <CHROM.1>
-60.51332572,-60.03305221,-72.48300058,56.20019620,64.01185405,59.48939255
17.35633974,6.18509000,16.24329238,-0.51202325,0.66229151,0.51274509

>  <Name>
ligand

>  <RI>
0

>  <Rbt.Current_Directory>
/home/itssahil/PROJECTS/Mol_Feturizer/New_Systems/rnas/3DVV

>  <Rbt.Executable>
rbdock ($Id: //depot/dev/client3/rdock/2013.1/src/exe/rbdock.cxx#4 $)

>  <Rbt.Library>
libRbt.so (2013.1, Build901 2013/11/27)

>  <Rbt.Parameter_File>
/export/apps/rDock/src/rDock_2013.1_src/data/scripts/dock_solv.prm

>  <Rbt.Receptor>
prm/pocket_docking_5.prm

>  <SCORE>
-2.62457

>  <SCORE.INTER>
1.51831

>  <SCORE.INTER.CONST>
1

>  <SCORE.INTER.POLAR>
0

>  <SCORE.INTER.ROT>
6

>  <SCORE.INTER.SOLV>
12.5223

>  <SCORE.INTER.VDW>
-10.7619

>  <SCORE.INTER.norm>
0.0489778

>  <SCORE.INTRA>
-4.14288

>  <SCORE.INTRA.DIHEDRAL>
-9.65222

>  <SCORE.INTRA.DIHEDRAL.0>
10.8172

>  <SCORE.INTRA.POLAR>
0

>  <SCORE.INTRA.POLAR.0>
0

>  <SCORE.INTRA.REPUL>
0

>  <SCORE.INTRA.REPUL.0>
0

>  <SCORE.INTRA.SOLV>
-3.62948

>  <SCORE.INTRA.SOLV.lig_0>
-80.3833

>  <SCORE.INTRA.VDW>
2.49797

>  <SCORE.INTRA.VDW.0>
-4.63762

>  <SCORE.INTRA.norm>
-0.133641

>  <SCORE.RESTR>
0

>  <SCORE.RESTR.CAVITY>
0

>  <SCORE.RESTR.norm>
0

>  <SCORE.SYSTEM>
0

>  <SCORE.SYSTEM.CONST>
0

>  <SCORE.SYSTEM.DIHEDRAL>
0

>  <SCORE.SYSTEM.SOLV>
0

>  <SCORE.SYSTEM.norm>
0

>  <SCORE.heavy>
31

>  <SCORE.norm>
-0.0846636

>  <RMSD>
6.501

$$$$
ligand
 OpenBabel11021811473D
libRbt.so/2013.1/901 2013/11/27
 31 33  0  0  0  0  0  0  0  0999 V2000
   24.1658    7.3989   15.4187 C   0  0  0  0  0  0  0  0  0  0  0  0
   17.4409    8.3213   19.7114 N   0  0  0  0  0  0  0  0  0  0  0  0
   25.5403    7.0011   15.4562 O   0  0  0  0  0  0  0  0  0  0  0  0
   23.4361    6.8937   16.6659 C   0  0  1  0  0  0  0  0  0  0  0  0
   18.3984    3.5281   19.6018 N   0  0  0  0  0  0  0  0  0  0  0  0
   22.0645    7.3352   16.6519 O   0  0  0  0  0  0  0  0  0  0  0  0
   21.2114    6.1854   16.7924 C   0  0  1  0  0  0  0  0  0  0  0  0
   19.6876    1.1597   12.5172 N   0  0  0  0  0  0  0  0  0  0  0  0
   19.9801    6.3457   16.0703 O   0  0  0  0  0  0  0  0  0  0  0  0
   18.8081    6.1535   16.8762 C   0  0  2  0  0  0  0  0  0  0  0  0
   16.4277    4.9304   15.8530 N   0  0  0  0  0  0  0  0  0  0  0  0
   18.4627    8.5365   17.0868 O   0  0  0  0  0  0  0  0  0  0  0  0
   18.7153    7.3450   17.8364 C   0  0  1  0  0  0  0  0  0  0  0  0
   18.7489    3.6904   16.7722 O   0  0  0  0  0  0  0  0  0  0  0  0
   17.5872    7.1386   18.8492 C   0  0  1  0  0  0  0  0  0  0  0  0
   19.3544    3.0051   14.6039 O   0  0  0  0  0  0  0  0  0  0  0  0
   17.8958    5.9053   19.6983 C   0  0  0  0  0  0  0  0  0  0  0  0
   16.8984    0.2776   14.5357 O   0  0  0  0  0  0  0  0  0  0  0  0
   17.9586    4.6733   18.7905 C   0  0  1  0  0  0  0  0  0  0  0  0
   15.2346    2.6221   14.5456 O   0  0  0  0  0  0  0  0  0  0  0  0
   18.9436    4.8316   17.6259 C   0  0  2  0  0  0  0  0  0  0  0  0
   21.5881    3.7675   16.5282 O   0  0  0  0  0  0  0  0  0  0  0  0
   18.6475    3.9960   15.3726 C   0  0  1  0  0  0  0  0  0  0  0  0
   23.5166    4.8257   17.9974 O   0  0  0  0  0  0  0  0  0  0  0  0
   18.8609    1.6653   14.7724 C   0  0  2  0  0  0  0  0  0  0  0  0
   19.6991    0.7108   13.9186 C   0  0  0  0  0  0  0  0  0  0  0  0
   17.4051    1.5953   14.3076 C   0  0  2  0  0  0  0  0  0  0  0  0
   16.5596    2.6045   15.0871 C   0  0  1  0  0  0  0  0  0  0  0  0
   17.1665    4.0059   14.9793 C   0  0  1  0  0  0  0  0  0  0  0  0
   22.0172    5.0710   16.1280 C   0  0  2  0  0  0  0  0  0  0  0  0
   23.4108    5.3626   16.6764 C   0  0  1  0  0  0  0  0  0  0  0  0
  1  3  1  0  0  0  0
  4  1  1  6  0  0  0
  4  6  1  0  0  0  0
  4 31  1  0  0  0  0
  6  7  1  0  0  0  0
  7  9  1  6  0  0  0
  7 30  1  0  0  0  0
  8 26  1  0  0  0  0
 10  9  1  6  0  0  0
 10 13  1  0  0  0  0
 10 21  1  0  0  0  0
 13 12  1  6  0  0  0
 13 15  1  0  0  0  0
 15  2  1  1  0  0  0
 15 17  1  0  0  0  0
 16 25  1  0  0  0  0
 16 23  1  0  0  0  0
 17 19  1  0  0  0  0
 19  5  1  1  0  0  0
 19 21  1  0  0  0  0
 21 14  1  6  0  0  0
 23 14  1  1  0  0  0
 23 29  1  0  0  0  0
 25 26  1  6  0  0  0
 25 27  1  0  0  0  0
 27 18  1  1  0  0  0
 27 28  1  0  0  0  0
 28 20  1  6  0  0  0
 28 29  1  0  0  0  0
 29 11  1  1  0  0  0
 30 22  1  1  0  0  0
 30 31  1  0  0  0  0
 31 24  1  1  0  0  0
M  END
>  <CHROM.1>
177.92546116,-125.76944483,70.21153275,140.00503644,7.97137155,-55.52492749
19.57652813,4.73560640,16.35900992,-0.77041464,-0.23914836,-2.47923894

>  <Name>
ligand

>  <RI>
0

>  <Rbt.Current_Directory>
/home/itssahil/PROJECTS/Mol_Feturizer/New_Systems/rnas/3DVV

>  <Rbt.Executable>
rbdock ($Id: //depot/dev/client3/rdock/2013.1/src/exe/rbdock.cxx#4 $)

>  <Rbt.Library>
libRbt.so (2013.1, Build901 2013/11/27)

>  <Rbt.Parameter_File>
/export/apps/rDock/src/rDock_2013.1_src/data/scripts/dock_solv.prm

>  <Rbt.Receptor>
prm/pocket_docking_2.prm

>  <SCORE>
5.28939

>  <SCORE.INTER>
-5.79211

>  <SCORE.INTER.CONST>
1

>  <SCORE.INTER.POLAR>
0

>  <SCORE.INTER.ROT>
6

>  <SCORE.INTER.SOLV>
18.9657

>  <SCORE.INTER.VDW>
-17.7833

>  <SCORE.INTER.norm>
-0.186842

>  <SCORE.INTRA>
10.3139

>  <SCORE.INTRA.DIHEDRAL>
8.87529

>  <SCORE.INTRA.DIHEDRAL.0>
10.8172

>  <SCORE.INTRA.POLAR>
0

>  <SCORE.INTRA.POLAR.0>
0

>  <SCORE.INTRA.REPUL>
0

>  <SCORE.INTRA.REPUL.0>
0

>  <SCORE.INTRA.SOLV>
0.809277

>  <SCORE.INTRA.SOLV.lig_0>
-80.3833

>  <SCORE.INTRA.VDW>
5.47157

>  <SCORE.INTRA.VDW.0>
-4.63762

>  <SCORE.INTRA.norm>
0.332705

>  <SCORE.RESTR>
0.767645

>  <SCORE.RESTR.CAVITY>
0.767645

>  <SCORE.RESTR.norm>
0.0247627

>  <SCORE.SYSTEM>
0

>  <SCORE.SYSTEM.CONST>
0

>  <SCORE.SYSTEM.DIHEDRAL>
0

>  <SCORE.SYSTEM.SOLV>
0

>  <SCORE.SYSTEM.norm>
0

>  <SCORE.heavy>
31

>  <SCORE.norm>
0.170626

>  <RMSD>
6.505

$$$$
ligand
 OpenBabel11021811473D
libRbt.so/2013.1/901 2013/11/27
 31 33  0  0  0  0  0  0  0  0999 V2000
   21.2762    7.3308   15.3751 C   0  0  0  0  0  0  0  0  0  0  0  0
   16.8258    3.7785   21.1428 N   0  0  0  0  0  0  0  0  0  0  0  0
   22.5713    7.8637   15.0793 O   0  0  0  0  0  0  0  0  0  0  0  0
   21.3155    6.5481   16.6900 C   0  0  1  0  0  0  0  0  0  0  0  0
   14.3059    2.7142   17.0905 N   0  0  0  0  0  0  0  0  0  0  0  0
   20.0065    6.0315   16.9999 O   0  0  0  0  0  0  0  0  0  0  0  0
   20.1098    4.6105   17.1994 C   0  0  1  0  0  0  0  0  0  0  0  0
   17.4071    0.3263   12.5841 N   0  0  0  0  0  0  0  0  0  0  0  0
   18.9253    3.9250   16.7635 O   0  0  0  0  0  0  0  0  0  0  0  0
   17.7386    4.3147   17.4705 C   0  0  2  0  0  0  0  0  0  0  0  0
   16.3846    6.1560   13.5580 N   0  0  0  0  0  0  0  0  0  0  0  0
   18.9716    4.6448   19.5231 O   0  0  0  0  0  0  0  0  0  0  0  0
   17.9160    3.8830   18.9308 C   0  0  1  0  0  0  0  0  0  0  0  0
   16.1835    4.2253   15.5587 O   0  0  0  0  0  0  0  0  0  0  0  0
   16.6268    4.1081   19.7232 C   0  0  1  0  0  0  0  0  0  0  0  0
   17.2839    2.6130   14.2443 O   0  0  0  0  0  0  0  0  0  0  0  0
   15.5175    3.2372   19.1329 C   0  0  0  0  0  0  0  0  0  0  0  0
   14.3368    1.9818   12.1485 O   0  0  0  0  0  0  0  0  0  0  0  0
   15.2690    3.6561   17.6809 C   0  0  1  0  0  0  0  0  0  0  0  0
   15.0459    4.6766   11.4415 O   0  0  0  0  0  0  0  0  0  0  0  0
   16.5382    3.6331   16.8206 C   0  0  2  0  0  0  0  0  0  0  0  0
   21.8370    2.9520   16.6299 O   0  0  0  0  0  0  0  0  0  0  0  0
   17.1408    4.0211   14.5076 C   0  0  1  0  0  0  0  0  0  0  0  0
   22.9534    5.0622   17.7694 O   0  0  0  0  0  0  0  0  0  0  0  0
   16.0695    1.9638   13.8309 C   0  0  2  0  0  0  0  0  0  0  0  0
   16.3500    0.4775   13.5966 C   0  0  0  0  0  0  0  0  0  0  0  0
   15.5776    2.5862   12.5230 C   0  0  2  0  0  0  0  0  0  0  0  0
   15.3722    4.0913   12.7064 C   0  0  1  0  0  0  0  0  0  0  0  0
   16.6474    4.7421   13.2488 C   0  0  1  0  0  0  0  0  0  0  0  0
   21.2620    4.2129   16.2791 C   0  0  2  0  0  0  0  0  0  0  0  0
   22.2498    5.3422   16.5566 C   0  0  1  0  0  0  0  0  0  0  0  0
  1  3  1  0  0  0  0
  4  1  1  6  0  0  0
  4  6  1  0  0  0  0
  4 31  1  0  0  0  0
  6  7  1  0  0  0  0
  7  9  1  6  0  0  0
  7 30  1  0  0  0  0
  8 26  1  0  0  0  0
 10  9  1  6  0  0  0
 10 13  1  0  0  0  0
 10 21  1  0  0  0  0
 13 12  1  1  0  0  0
 13 15  1  0  0  0  0
 15  2  1  1  0  0  0
 15 17  1  0  0  0  0
 16 25  1  0  0  0  0
 16 23  1  0  0  0  0
 17 19  1  0  0  0  0
 19  5  1  6  0  0  0
 19 21  1  0  0  0  0
 21 14  1  6  0  0  0
 23 14  1  1  0  0  0
 23 29  1  0  0  0  0
 25 26  1  6  0  0  0
 25 27  1  0  0  0  0
 27 18  1  1  0  0  0
 27 28  1  0  0  0  0
 28 20  1  6  0  0  0
 28 29  1  0  0  0  0
 29 11  1  1  0  0  0
 30 22  1  1  0  0  0
 30 31  1  0  0  0  0
 31 24  1  1  0  0  0
M  END
>  <CHROM.1>
178.98618385,-61.29336600,-64.97417737,61.39236299,68.30580285,-57.88464154
17.97842720,4.06847625,15.88063822,-0.56679456,-0.45691419,-1.56280125

>  <Name>
ligand

>  <RI>
0

>  <Rbt.Current_Directory>
/home/itssahil/PROJECTS/Mol_Feturizer/New_Systems/rnas/3DVV

>  <Rbt.Executable>
rbdock ($Id: //depot/dev/client3/rdock/2013.1/src/exe/rbdock.cxx#4 $)

>  <Rbt.Library>
libRbt.so (2013.1, Build901 2013/11/27)

>  <Rbt.Parameter_File>
/export/apps/rDock/src/rDock_2013.1_src/data/scripts/dock_solv.prm

>  <Rbt.Receptor>
prm/pocket_docking_6.prm

>  <SCORE>
-6.95967

>  <SCORE.INTER>
-4.23596

>  <SCORE.INTER.CONST>
1

>  <SCORE.INTER.POLAR>
0

>  <SCORE.INTER.ROT>
6

>  <SCORE.INTER.SOLV>
15.3631

>  <SCORE.INTER.VDW>
-15.545

>  <SCORE.INTER.norm>
-0.136644

>  <SCORE.INTRA>
-2.72371

>  <SCORE.INTRA.DIHEDRAL>
-10.0586

>  <SCORE.INTRA.DIHEDRAL.0>
10.8172

>  <SCORE.INTRA.POLAR>
0

>  <SCORE.INTRA.POLAR.0>
0

>  <SCORE.INTRA.REPUL>
0

>  <SCORE.INTRA.REPUL.0>
0

>  <SCORE.INTRA.SOLV>
-2.69587

>  <SCORE.INTRA.SOLV.lig_0>
-80.3833

>  <SCORE.INTRA.VDW>
3.65354

>  <SCORE.INTRA.VDW.0>
-4.63762

>  <SCORE.INTRA.norm>
-0.0878615

>  <SCORE.RESTR>
0

>  <SCORE.RESTR.CAVITY>
0

>  <SCORE.RESTR.norm>
0

>  <SCORE.SYSTEM>
0

>  <SCORE.SYSTEM.CONST>
0

>  <SCORE.SYSTEM.DIHEDRAL>
0

>  <SCORE.SYSTEM.SOLV>
0

>  <SCORE.SYSTEM.norm>
0

>  <SCORE.heavy>
31

>  <SCORE.norm>
-0.224505

>  <RMSD>
6.523

$$$$
ligand
 OpenBabel11021811473D
libRbt.so/2013.1/901 2013/11/27
 31 33  0  0  0  0  0  0  0  0999 V2000
   19.6979    2.2112   10.3774 C   0  0  0  0  0  0  0  0  0  0  0  0
   22.7934    4.2396   18.1969 N   0  0  0  0  0  0  0  0  0  0  0  0
   18.5594    3.0296   10.6650 O   0  0  0  0  0  0  0  0  0  0  0  0
   20.2414    1.5914   11.6673 C   0  0  1  0  0  0  0  0  0  0  0  0
   21.0155    8.0965   15.7749 N   0  0  0  0  0  0  0  0  0  0  0  0
   20.6582    2.6268   12.5786 O   0  0  0  0  0  0  0  0  0  0  0  0
   19.9865    2.4290   13.8354 C   0  0  1  0  0  0  0  0  0  0  0  0
   16.6239    9.6428   13.6702 N   0  0  0  0  0  0  0  0  0  0  0  0
   19.7041    3.6762   14.4893 O   0  0  0  0  0  0  0  0  0  0  0  0
   20.8782    4.3961   14.8932 C   0  0  2  0  0  0  0  0  0  0  0  0
   20.2269    5.7833   10.8241 N   0  0  0  0  0  0  0  0  0  0  0  0
   21.6446    2.5474   16.2488 O   0  0  0  0  0  0  0  0  0  0  0  0
   21.2422    3.9187   16.3039 C   0  0  1  0  0  0  0  0  0  0  0  0
   20.5029    6.4134   13.5255 O   0  0  0  0  0  0  0  0  0  0  0  0
   22.3851    4.7559   16.8816 C   0  0  1  0  0  0  0  0  0  0  0  0
   18.3878    7.4427   13.5985 O   0  0  0  0  0  0  0  0  0  0  0  0
   21.9274    6.2092   17.0074 C   0  0  0  0  0  0  0  0  0  0  0  0
   19.5545   10.4754   11.8903 O   0  0  0  0  0  0  0  0  0  0  0  0
   21.5895    6.7518   15.6157 C   0  0  1  0  0  0  0  0  0  0  0  0
   19.7572    8.4774    9.8332 O   0  0  0  0  0  0  0  0  0  0  0  0
   20.5683    5.8897   14.8635 C   0  0  2  0  0  0  0  0  0  0  0  0
   18.0232    1.1039   14.5044 O   0  0  0  0  0  0  0  0  0  0  0  0
   19.1866    6.4349   12.9513 C   0  0  1  0  0  0  0  0  0  0  0  0
   19.6465   -0.3719   13.0264 O   0  0  0  0  0  0  0  0  0  0  0  0
   18.9128    8.7762   13.4821 C   0  0  2  0  0  0  0  0  0  0  0  0
   17.9857    9.7462   14.2184 C   0  0  0  0  0  0  0  0  0  0  0  0
   18.9731    9.1740   12.0062 C   0  0  2  0  0  0  0  0  0  0  0  0
   19.8250    8.1682   11.2293 C   0  0  1  0  0  0  0  0  0  0  0  0
   19.3097    6.7445   11.4556 C   0  0  1  0  0  0  0  0  0  0  0  0
   18.6615    1.7900   13.4249 C   0  0  2  0  0  0  0  0  0  0  0  0
   19.1403    0.7944   12.3725 C   0  0  1  0  0  0  0  0  0  0  0  0
  1  3  1  0  0  0  0
  4  1  1  6  0  0  0
  4  6  1  0  0  0  0
  4 31  1  0  0  0  0
  6  7  1  0  0  0  0
  7  9  1  6  0  0  0
  7 30  1  0  0  0  0
  8 26  1  0  0  0  0
 10  9  1  1  0  0  0
 10 13  1  0  0  0  0
 10 21  1  0  0  0  0
 13 12  1  6  0  0  0
 13 15  1  0  0  0  0
 15  2  1  1  0  0  0
 15 17  1  0  0  0  0
 16 25  1  0  0  0  0
 16 23  1  0  0  0  0
 17 19  1  0  0  0  0
 19  5  1  1  0  0  0
 19 21  1  0  0  0  0
 21 14  1  6  0  0  0
 23 14  1  1  0  0  0
 23 29  1  0  0  0  0
 25 26  1  1  0  0  0
 25 27  1  0  0  0  0
 27 18  1  1  0  0  0
 27 28  1  0  0  0  0
 28 20  1  6  0  0  0
 28 29  1  0  0  0  0
 29 11  1  1  0  0  0
 30 22  1  1  0  0  0
 30 31  1  0  0  0  0
 31 24  1  1  0  0  0
M  END
>  <CHROM.1>
-61.04536170,-65.38470686,-88.83128639,70.84147624,93.26843210,-57.09394848
19.90580598,5.22911682,13.56721751,1.26653703,1.13438874,-3.00596158

>  <Name>
ligand

>  <RI>
0

>  <Rbt.Current_Directory>
/home/itssahil/PROJECTS/Mol_Feturizer/New_Systems/rnas/3DVV

>  <Rbt.Executable>
rbdock ($Id: //depot/dev/client3/rdock/2013.1/src/exe/rbdock.cxx#4 $)

>  <Rbt.Library>
libRbt.so (2013.1, Build901 2013/11/27)

>  <Rbt.Parameter_File>
/export/apps/rDock/src/rDock_2013.1_src/data/scripts/dock_solv.prm

>  <Rbt.Receptor>
prm/blind_docking_100.prm

>  <SCORE>
-3.26132

>  <SCORE.INTER>
-3.39931

>  <SCORE.INTER.CONST>
1

>  <SCORE.INTER.POLAR>
0

>  <SCORE.INTER.ROT>
6

>  <SCORE.INTER.SOLV>
25.4745

>  <SCORE.INTER.VDW>
-18.3577

>  <SCORE.INTER.norm>
-0.109655

>  <SCORE.INTRA>
0.128145

>  <SCORE.INTRA.DIHEDRAL>
-2.33149

>  <SCORE.INTRA.DIHEDRAL.0>
10.8172

>  <SCORE.INTRA.POLAR>
0

>  <SCORE.INTRA.POLAR.0>
0

>  <SCORE.INTRA.REPUL>
0

>  <SCORE.INTRA.REPUL.0>
0

>  <SCORE.INTRA.SOLV>
1.24675

>  <SCORE.INTRA.SOLV.lig_0>
-80.3833

>  <SCORE.INTRA.VDW>
0.670515

>  <SCORE.INTRA.VDW.0>
-4.63762

>  <SCORE.INTRA.norm>
0.00413372

>  <SCORE.RESTR>
0.00984139

>  <SCORE.RESTR.CAVITY>
0.00984139

>  <SCORE.RESTR.norm>
0.000317464

>  <SCORE.SYSTEM>
0

>  <SCORE.SYSTEM.CONST>
0

>  <SCORE.SYSTEM.DIHEDRAL>
0

>  <SCORE.SYSTEM.SOLV>
0

>  <SCORE.SYSTEM.norm>
0

>  <SCORE.heavy>
31

>  <SCORE.norm>
-0.105204

>  <RMSD>
6.526

$$$$
ligand
 OpenBabel11021811473D
libRbt.so/2013.1/901 2013/11/27
 31 33  0  0  0  0  0  0  0  0999 V2000
   20.0384    2.3742   10.4292 C   0  0  0  0  0  0  0  0  0  0  0  0
   22.7571    4.1146   18.0856 N   0  0  0  0  0  0  0  0  0  0  0  0
   19.6043    1.4133    9.4612 O   0  0  0  0  0  0  0  0  0  0  0  0
   20.1173    1.7284   11.8149 C   0  0  1  0  0  0  0  0  0  0  0  0
   21.5224    8.2322   15.7564 N   0  0  0  0  0  0  0  0  0  0  0  0
   20.5900    2.6856   12.7828 O   0  0  0  0  0  0  0  0  0  0  0  0
   19.6418    2.7521   13.8627 C   0  0  1  0  0  0  0  0  0  0  0  0
   16.9953   10.0638   13.4586 N   0  0  0  0  0  0  0  0  0  0  0  0
   19.5654    4.0726   14.4225 O   0  0  0  0  0  0  0  0  0  0  0  0
   20.8372    4.6074   14.8179 C   0  0  2  0  0  0  0  0  0  0  0  0
   20.5205    6.0088   10.7932 N   0  0  0  0  0  0  0  0  0  0  0  0
   21.3469    2.6426   16.1303 O   0  0  0  0  0  0  0  0  0  0  0  0
   21.1485    4.0565   16.2143 C   0  0  1  0  0  0  0  0  0  0  0  0
   20.7386    6.6825   13.4893 O   0  0  0  0  0  0  0  0  0  0  0  0
   22.4090    4.7087   16.7859 C   0  0  1  0  0  0  0  0  0  0  0  0
   18.6687    7.8022   13.4741 O   0  0  0  0  0  0  0  0  0  0  0  0
   22.1688    6.2104   16.9428 C   0  0  0  0  0  0  0  0  0  0  0  0
   20.0182   10.7464   11.7458 O   0  0  0  0  0  0  0  0  0  0  0  0
   21.8930    6.8216   15.5659 C   0  0  1  0  0  0  0  0  0  0  0  0
   20.1988    8.6992    9.7355 O   0  0  0  0  0  0  0  0  0  0  0  0
   20.7468    6.1304   14.8175 C   0  0  2  0  0  0  0  0  0  0  0  0
   17.3048    2.0166   14.0984 O   0  0  0  0  0  0  0  0  0  0  0  0
   19.4432    6.7481   12.8727 C   0  0  1  0  0  0  0  0  0  0  0  0
   18.7574    0.0789   13.0337 O   0  0  0  0  0  0  0  0  0  0  0  0
   19.2541    9.1094   13.3488 C   0  0  2  0  0  0  0  0  0  0  0  0
   18.3472   10.1331   14.0359 C   0  0  0  0  0  0  0  0  0  0  0  0
   19.3778    9.4736   11.8682 C   0  0  2  0  0  0  0  0  0  0  0  0
   20.2095    8.4165   11.1388 C   0  0  1  0  0  0  0  0  0  0  0  0
   19.6264    7.0210   11.3760 C   0  0  1  0  0  0  0  0  0  0  0  0
   18.3123    2.4421   13.1778 C   0  0  2  0  0  0  0  0  0  0  0  0
   18.7233    1.2870   12.2696 C   0  0  1  0  0  0  0  0  0  0  0  0
  1  3  1  0  0  0  0
  4  1  1  6  0  0  0
  4  6  1  0  0  0  0
  4 31  1  0  0  0  0
  6  7  1  0  0  0  0
  7  9  1  6  0  0  0
  7 30  1  0  0  0  0
  8 26  1  0  0  0  0
 10  9  1  1  0  0  0
 10 13  1  0  0  0  0
 10 21  1  0  0  0  0
 13 12  1  6  0  0  0
 13 15  1  0  0  0  0
 15  2  1  1  0  0  0
 15 17  1  0  0  0  0
 16 25  1  0  0  0  0
 16 23  1  0  0  0  0
 17 19  1  0  0  0  0
 19  5  1  1  0  0  0
 19 21  1  0  0  0  0
 21 14  1  6  0  0  0
 23 14  1  1  0  0  0
 23 29  1  0  0  0  0
 25 26  1  1  0  0  0
 25 27  1  0  0  0  0
 27 18  1  1  0  0  0
 27 28  1  0  0  0  0
 28 20  1  6  0  0  0
 28 29  1  0  0  0  0
 29 11  1  1  0  0  0
 30 22  1  1  0  0  0
 30 31  1  0  0  0  0
 31 24  1  1  0  0  0
M  END
>  <CHROM.1>
178.39954790,-53.21845057,-83.04618469,73.40996411,85.78074917,-56.34378439
20.00969383,5.42816368,13.44590838,1.50460761,1.17274188,3.12729218

>  <Name>
ligand

>  <RI>
0

>  <Rbt.Current_Directory>
/home/itssahil/PROJECTS/Mol_Feturizer/New_Systems/rnas/3DVV

>  <Rbt.Executable>
rbdock ($Id: //depot/dev/client3/rdock/2013.1/src/exe/rbdock.cxx#4 $)

>  <Rbt.Library>
libRbt.so (2013.1, Build901 2013/11/27)

>  <Rbt.Parameter_File>
/export/apps/rDock/src/rDock_2013.1_src/data/scripts/dock_solv.prm

>  <Rbt.Receptor>
prm/blind_docking_100.prm

>  <SCORE>
-5.5135

>  <SCORE.INTER>
-4.39485

>  <SCORE.INTER.CONST>
1

>  <SCORE.INTER.POLAR>
0

>  <SCORE.INTER.ROT>
6

>  <SCORE.INTER.SOLV>
27.6041

>  <SCORE.INTER.VDW>
-19.7313

>  <SCORE.INTER.norm>
-0.14177

>  <SCORE.INTRA>
-1.1317

>  <SCORE.INTRA.DIHEDRAL>
-4.36835

>  <SCORE.INTRA.DIHEDRAL.0>
10.8172

>  <SCORE.INTRA.POLAR>
0

>  <SCORE.INTRA.POLAR.0>
0

>  <SCORE.INTRA.REPUL>
0

>  <SCORE.INTRA.REPUL.0>
0

>  <SCORE.INTRA.SOLV>
-0.747061

>  <SCORE.INTRA.SOLV.lig_0>
-80.3833

>  <SCORE.INTRA.VDW>
1.426

>  <SCORE.INTRA.VDW.0>
-4.63762

>  <SCORE.INTRA.norm>
-0.0365065

>  <SCORE.RESTR>
0.0130606

>  <SCORE.RESTR.CAVITY>
0.0130606

>  <SCORE.RESTR.norm>
0.00042131

>  <SCORE.SYSTEM>
0

>  <SCORE.SYSTEM.CONST>
0

>  <SCORE.SYSTEM.DIHEDRAL>
0

>  <SCORE.SYSTEM.SOLV>
0

>  <SCORE.SYSTEM.norm>
0

>  <SCORE.heavy>
31

>  <SCORE.norm>
-0.177855

>  <RMSD>
6.559

$$$$
ligand
 OpenBabel11021811473D
libRbt.so/2013.1/901 2013/11/27
 31 33  0  0  0  0  0  0  0  0999 V2000
   24.1004    7.3227   15.5798 C   0  0  0  0  0  0  0  0  0  0  0  0
   18.1829    8.9814   18.5023 N   0  0  0  0  0  0  0  0  0  0  0  0
   25.4879    6.9709   15.5787 O   0  0  0  0  0  0  0  0  0  0  0  0
   23.3602    6.5464   16.6719 C   0  0  1  0  0  0  0  0  0  0  0  0
   17.6928    4.2336   19.5614 N   0  0  0  0  0  0  0  0  0  0  0  0
   21.9405    6.7678   16.5633 O   0  0  0  0  0  0  0  0  0  0  0  0
   21.2831    5.4913   16.4727 C   0  0  1  0  0  0  0  0  0  0  0  0
   20.7156    2.4825   12.5321 N   0  0  0  0  0  0  0  0  0  0  0  0
   20.1098    5.5550   15.6468 O   0  0  0  0  0  0  0  0  0  0  0  0
   18.9155    5.8993   16.3645 C   0  0  2  0  0  0  0  0  0  0  0  0
   15.7593    2.1509   16.7344 N   0  0  0  0  0  0  0  0  0  0  0  0
   19.2806    8.2610   16.0014 O   0  0  0  0  0  0  0  0  0  0  0  0
   19.1555    7.2644   17.0196 C   0  0  1  0  0  0  0  0  0  0  0  0
   18.1379    3.6023   16.8120 O   0  0  0  0  0  0  0  0  0  0  0  0
   17.9945    7.6333   17.9452 C   0  0  1  0  0  0  0  0  0  0  0  0
   18.0241    4.0923   14.5131 O   0  0  0  0  0  0  0  0  0  0  0  0
   17.9084    6.6063   19.0745 C   0  0  0  0  0  0  0  0  0  0  0  0
   19.1070    0.7303   13.5127 O   0  0  0  0  0  0  0  0  0  0  0  0
   17.6267    5.2247   18.4766 C   0  0  1  0  0  0  0  0  0  0  0  0
   16.5271    0.2382   14.6818 O   0  0  0  0  0  0  0  0  0  0  0  0
   18.6403    4.8144   17.4014 C   0  0  2  0  0  0  0  0  0  0  0  0
   22.0810    3.2193   15.9638 O   0  0  0  0  0  0  0  0  0  0  0  0
   17.2567    3.7965   15.6946 C   0  0  1  0  0  0  0  0  0  0  0  0
   23.6701    4.3550   17.7478 O   0  0  0  0  0  0  0  0  0  0  0  0
   18.9494    3.0582   14.1365 C   0  0  2  0  0  0  0  0  0  0  0  0
   19.7083    3.4967   12.8818 C   0  0  0  0  0  0  0  0  0  0  0  0
   18.1798    1.7733   13.8250 C   0  0  2  0  0  0  0  0  0  0  0  0
   17.3426    1.3598   15.0371 C   0  0  1  0  0  0  0  0  0  0  0  0
   16.4430    2.5152   15.4840 C   0  0  1  0  0  0  0  0  0  0  0  0
   22.3188    4.6156   15.7706 C   0  0  2  0  0  0  0  0  0  0  0  0
   23.5909    5.0427   16.4968 C   0  0  1  0  0  0  0  0  0  0  0  0
  1  3  1  0  0  0  0
  4  1  1  6  0  0  0
  4  6  1  0  0  0  0
  4 31  1  0  0  0  0
  6  7  1  0  0  0  0
  7  9  1  6  0  0  0
  7 30  1  0  0  0  0
  8 26  1  0  0  0  0
 10  9  1  1  0  0  0
 10 13  1  0  0  0  0
 10 21  1  0  0  0  0
 13 12  1  6  0  0  0
 13 15  1  0  0  0  0
 15  2  1  1  0  0  0
 15 17  1  0  0  0  0
 16 25  1  0  0  0  0
 16 23  1  0  0  0  0
 17 19  1  0  0  0  0
 19  5  1  1  0  0  0
 19 21  1  0  0  0  0
 21 14  1  6  0  0  0
 23 14  1  1  0  0  0
 23 29  1  0  0  0  0
 25 26  1  6  0  0  0
 25 27  1  0  0  0  0
 27 18  1  1  0  0  0
 27 28  1  0  0  0  0
 28 20  1  6  0  0  0
 28 29  1  0  0  0  0
 29 11  1  1  0  0  0
 30 22  1  1  0  0  0
 30 31  1  0  0  0  0
 31 24  1  1  0  0  0
M  END
>  <CHROM.1>
-172.63708237,-89.11385384,58.72158630,78.84892529,-36.37771342,176.63136770
19.70562802,4.63649148,16.06559922,-0.70683998,-0.28019801,-2.50407409

>  <Name>
ligand

>  <RI>
0

>  <Rbt.Current_Directory>
/home/itssahil/PROJECTS/Mol_Feturizer/New_Systems/rnas/3DVV

>  <Rbt.Executable>
rbdock ($Id: //depot/dev/client3/rdock/2013.1/src/exe/rbdock.cxx#4 $)

>  <Rbt.Library>
libRbt.so (2013.1, Build901 2013/11/27)

>  <Rbt.Parameter_File>
/export/apps/rDock/src/rDock_2013.1_src/data/scripts/dock_solv.prm

>  <Rbt.Receptor>
prm/pocket_docking_2.prm

>  <SCORE>
-1.9548

>  <SCORE.INTER>
-4.34822

>  <SCORE.INTER.CONST>
1

>  <SCORE.INTER.POLAR>
0

>  <SCORE.INTER.ROT>
6

>  <SCORE.INTER.SOLV>
21.6747

>  <SCORE.INTER.VDW>
-17.7237

>  <SCORE.INTER.norm>
-0.140265

>  <SCORE.INTRA>
2.18704

>  <SCORE.INTRA.DIHEDRAL>
-3.04512

>  <SCORE.INTRA.DIHEDRAL.0>
10.8172

>  <SCORE.INTRA.POLAR>
0

>  <SCORE.INTRA.POLAR.0>
0

>  <SCORE.INTRA.REPUL>
0

>  <SCORE.INTRA.REPUL.0>
0

>  <SCORE.INTRA.SOLV>
-1.32738

>  <SCORE.INTRA.SOLV.lig_0>
-80.3833

>  <SCORE.INTRA.VDW>
4.37329

>  <SCORE.INTRA.VDW.0>
-4.63762

>  <SCORE.INTRA.norm>
0.0705498

>  <SCORE.RESTR>
0.206375

>  <SCORE.RESTR.CAVITY>
0.206375

>  <SCORE.RESTR.norm>
0.00665726

>  <SCORE.SYSTEM>
0

>  <SCORE.SYSTEM.CONST>
0

>  <SCORE.SYSTEM.DIHEDRAL>
0

>  <SCORE.SYSTEM.SOLV>
0

>  <SCORE.SYSTEM.norm>
0

>  <SCORE.heavy>
31

>  <SCORE.norm>
-0.0630581

>  <RMSD>
6.559

$$$$
ligand
 OpenBabel11021811473D
libRbt.so/2013.1/901 2013/11/27
 31 33  0  0  0  0  0  0  0  0999 V2000
   17.6964    2.5217   11.1396 C   0  0  0  0  0  0  0  0  0  0  0  0
   24.5251    4.2117   16.0804 N   0  0  0  0  0  0  0  0  0  0  0  0
   17.5554    3.9272   10.9083 O   0  0  0  0  0  0  0  0  0  0  0  0
   19.1752    2.1585   11.2962 C   0  0  1  0  0  0  0  0  0  0  0  0
   20.3138    5.8642   17.9345 N   0  0  0  0  0  0  0  0  0  0  0  0
   19.7492    2.8799   12.4037 O   0  0  0  0  0  0  0  0  0  0  0  0
   20.3538    1.9336   13.3031 C   0  0  1  0  0  0  0  0  0  0  0  0
   17.8951    3.3906   19.7049 N   0  0  0  0  0  0  0  0  0  0  0  0
   20.2585    2.3638   14.6701 O   0  0  0  0  0  0  0  0  0  0  0  0
   20.9301    3.6045   14.9340 C   0  0  2  0  0  0  0  0  0  0  0  0
   17.1134    5.2724   13.5526 N   0  0  0  0  0  0  0  0  0  0  0  0
   23.0506    2.7067   14.1990 O   0  0  0  0  0  0  0  0  0  0  0  0
   22.3729    3.2665   15.3272 C   0  0  1  0  0  0  0  0  0  0  0  0
   18.9479    4.9020   15.6184 O   0  0  0  0  0  0  0  0  0  0  0  0
   23.1167    4.5209   15.7898 C   0  0  1  0  0  0  0  0  0  0  0  0
   17.4826    3.4831   16.7921 O   0  0  0  0  0  0  0  0  0  0  0  0
   22.4330    5.0765   17.0394 C   0  0  0  0  0  0  0  0  0  0  0  0
   15.3957    6.2556   17.9896 O   0  0  0  0  0  0  0  0  0  0  0  0
   20.9946    5.4710   16.6915 C   0  0  1  0  0  0  0  0  0  0  0  0
   14.9049    6.2768   15.1570 O   0  0  0  0  0  0  0  0  0  0  0  0
   20.1925    4.3289   16.0560 C   0  0  2  0  0  0  0  0  0  0  0  0
   20.1441   -0.5039   13.5722 O   0  0  0  0  0  0  0  0  0  0  0  0
   17.8660    3.9660   15.4913 C   0  0  1  0  0  0  0  0  0  0  0  0
   20.4877    0.0955   11.0187 O   0  0  0  0  0  0  0  0  0  0  0  0
   17.0385    4.5099   17.6953 C   0  0  2  0  0  0  0  0  0  0  0  0
   16.6749    3.8733   19.0388 C   0  0  0  0  0  0  0  0  0  0  0  0
   15.7968    5.1936   17.1200 C   0  0  2  0  0  0  0  0  0  0  0  0
   16.1099    5.7643   15.7353 C   0  0  1  0  0  0  0  0  0  0  0  0
   16.6815    4.6741   14.8251 C   0  0  1  0  0  0  0  0  0  0  0  0
   19.4888    0.6870   13.1295 C   0  0  2  0  0  0  0  0  0  0  0  0
   19.3199    0.6674   11.6132 C   0  0  1  0  0  0  0  0  0  0  0  0
  1  3  1  0  0  0  0
  4  1  1  1  0  0  0
  4  6  1  0  0  0  0
  4 31  1  0  0  0  0
  6  7  1  0  0  0  0
  7  9  1  1  0  0  0
  7 30  1  0  0  0  0
  8 26  1  0  0  0  0
 10  9  1  1  0  0  0
 10 13  1  0  0  0  0
 10 21  1  0  0  0  0
 13 12  1  6  0  0  0
 13 15  1  0  0  0  0
 15  2  1  1  0  0  0
 15 17  1  0  0  0  0
 16 25  1  0  0  0  0
 16 23  1  0  0  0  0
 17 19  1  0  0  0  0
 19  5  1  1  0  0  0
 19 21  1  0  0  0  0
 21 14  1  6  0  0  0
 23 14  1  1  0  0  0
 23 29  1  0  0  0  0
 25 26  1  1  0  0  0
 25 27  1  0  0  0  0
 27 18  1  1  0  0  0
 27 28  1  0  0  0  0
 28 20  1  6  0  0  0
 28 29  1  0  0  0  0
 29 11  1  6  0  0  0
 30 22  1  6  0  0  0
 30 31  1  0  0  0  0
 31 24  1  6  0  0  0
M  END
>  <CHROM.1>
59.52215527,-61.47607897,-89.73801659,67.97412877,78.22050545,69.16220174
19.14422865,3.63834732,14.99390694,0.98950016,0.19701397,-2.08303340

>  <Name>
ligand

>  <RI>
0

>  <Rbt.Current_Directory>
/home/itssahil/PROJECTS/Mol_Feturizer/New_Systems/rnas/3DVV

>  <Rbt.Executable>
rbdock ($Id: //depot/dev/client3/rdock/2013.1/src/exe/rbdock.cxx#4 $)

>  <Rbt.Library>
libRbt.so (2013.1, Build901 2013/11/27)

>  <Rbt.Parameter_File>
/export/apps/rDock/src/rDock_2013.1_src/data/scripts/dock_solv.prm

>  <Rbt.Receptor>
prm/pocket_docking_4.prm

>  <SCORE>
-2.38904

>  <SCORE.INTER>
-0.0495761

>  <SCORE.INTER.CONST>
1

>  <SCORE.INTER.POLAR>
0

>  <SCORE.INTER.ROT>
6

>  <SCORE.INTER.SOLV>
18.2077

>  <SCORE.INTER.VDW>
-13.7023

>  <SCORE.INTER.norm>
-0.00159923

>  <SCORE.INTRA>
-2.33947

>  <SCORE.INTRA.DIHEDRAL>
-4.899

>  <SCORE.INTRA.DIHEDRAL.0>
10.8172

>  <SCORE.INTRA.POLAR>
0

>  <SCORE.INTRA.POLAR.0>
0

>  <SCORE.INTRA.REPUL>
0

>  <SCORE.INTRA.REPUL.0>
0

>  <SCORE.INTRA.SOLV>
-1.0717

>  <SCORE.INTRA.SOLV.lig_0>
-80.3833

>  <SCORE.INTRA.VDW>
0.645886

>  <SCORE.INTRA.VDW.0>
-4.63762

>  <SCORE.INTRA.norm>
-0.0754667

>  <SCORE.RESTR>
0

>  <SCORE.RESTR.CAVITY>
0

>  <SCORE.RESTR.norm>
0

>  <SCORE.SYSTEM>
0

>  <SCORE.SYSTEM.CONST>
0

>  <SCORE.SYSTEM.DIHEDRAL>
0

>  <SCORE.SYSTEM.SOLV>
0

>  <SCORE.SYSTEM.norm>
0

>  <SCORE.heavy>
31

>  <SCORE.norm>
-0.0770659

>  <RMSD>
6.562

$$$$
ligand
 OpenBabel11021811473D
libRbt.so/2013.1/901 2013/11/27
 31 33  0  0  0  0  0  0  0  0999 V2000
   17.7330   10.3242   13.5404 C   0  0  0  0  0  0  0  0  0  0  0  0
   22.1947    3.6339   16.9409 N   0  0  0  0  0  0  0  0  0  0  0  0
   18.6630    9.9881   12.5055 O   0  0  0  0  0  0  0  0  0  0  0  0
   18.0096    9.4859   14.7910 C   0  0  1  0  0  0  0  0  0  0  0  0
   20.0654    1.6876   12.9935 N   0  0  0  0  0  0  0  0  0  0  0  0
   17.8849    8.0831   14.4861 O   0  0  0  0  0  0  0  0  0  0  0  0
   19.1009    7.4197   14.8748 C   0  0  1  0  0  0  0  0  0  0  0  0
   17.3645   -0.6250   12.8754 N   0  0  0  0  0  0  0  0  0  0  0  0
   19.4086    6.3202   14.0034 O   0  0  0  0  0  0  0  0  0  0  0  0
   19.4656    5.0513   14.6715 C   0  0  2  0  0  0  0  0  0  0  0  0
   17.3427    5.5184   11.0168 N   0  0  0  0  0  0  0  0  0  0  0  0
   20.6956    5.9920   16.5275 O   0  0  0  0  0  0  0  0  0  0  0  0
   20.7677    5.0206   15.4803 C   0  0  1  0  0  0  0  0  0  0  0  0
   18.1168    3.7746   13.0492 O   0  0  0  0  0  0  0  0  0  0  0  0
   20.9935    3.6365   16.0921 C   0  0  1  0  0  0  0  0  0  0  0  0
   17.7783    1.8860   11.6865 O   0  0  0  0  0  0  0  0  0  0  0  0
   21.1427    2.6105   14.9685 C   0  0  0  0  0  0  0  0  0  0  0  0
   14.1250    2.0194   12.0207 O   0  0  0  0  0  0  0  0  0  0  0  0
   19.8486    2.5696   14.1504 C   0  0  1  0  0  0  0  0  0  0  0  0
   14.7060    4.3978   10.5139 O   0  0  0  0  0  0  0  0  0  0  0  0
   19.4254    3.9453   13.6213 C   0  0  2  0  0  0  0  0  0  0  0  0
   21.3627    8.2289   15.4106 O   0  0  0  0  0  0  0  0  0  0  0  0
   18.1094    3.2870   11.6983 C   0  0  1  0  0  0  0  0  0  0  0  0
   19.5589    9.6777   16.6932 O   0  0  0  0  0  0  0  0  0  0  0  0
   16.4892    1.5799   12.2448 C   0  0  2  0  0  0  0  0  0  0  0  0
   16.2637    0.0672   12.1863 C   0  0  0  0  0  0  0  0  0  0  0  0
   15.4000    2.2741   11.4253 C   0  0  2  0  0  0  0  0  0  0  0  0
   15.6519    3.7830   11.3951 C   0  0  1  0  0  0  0  0  0  0  0  0
   17.0694    4.0780   10.8977 C   0  0  1  0  0  0  0  0  0  0  0  0
   20.1635    8.4994   14.6810 C   0  0  2  0  0  0  0  0  0  0  0  0
   19.4470    9.7117   15.2682 C   0  0  1  0  0  0  0  0  0  0  0  0
  1  3  1  0  0  0  0
  4  1  1  6  0  0  0
  4  6  1  0  0  0  0
  4 31  1  0  0  0  0
  6  7  1  0  0  0  0
  7  9  1  6  0  0  0
  7 30  1  0  0  0  0
  8 26  1  0  0  0  0
 10  9  1  6  0  0  0
 10 13  1  0  0  0  0
 10 21  1  0  0  0  0
 13 12  1  1  0  0  0
 13 15  1  0  0  0  0
 15  2  1  6  0  0  0
 15 17  1  0  0  0  0
 16 25  1  0  0  0  0
 16 23  1  0  0  0  0
 17 19  1  0  0  0  0
 19  5  1  6  0  0  0
 19 21  1  0  0  0  0
 21 14  1  1  0  0  0
 23 14  1  1  0  0  0
 23 29  1  0  0  0  0
 25 26  1  6  0  0  0
 25 27  1  0  0  0  0
 27 18  1  1  0  0  0
 27 28  1  0  0  0  0
 28 20  1  6  0  0  0
 28 29  1  0  0  0  0
 29 11  1  1  0  0  0
 30 22  1  1  0  0  0
 30 31  1  0  0  0  0
 31 24  1  1  0  0  0
M  END
>  <CHROM.1>
-59.73541753,-119.44252093,-73.89532415,102.56099985,150.94115387,55.87733578
18.51262818,5.01192101,13.63736075,1.06071357,-0.68628207,0.10150994

>  <Name>
ligand

>  <RI>
0

>  <Rbt.Current_Directory>
/home/itssahil/PROJECTS/Mol_Feturizer/New_Systems/rnas/3DVV

>  <Rbt.Executable>
rbdock ($Id: //depot/dev/client3/rdock/2013.1/src/exe/rbdock.cxx#4 $)

>  <Rbt.Library>
libRbt.so (2013.1, Build901 2013/11/27)

>  <Rbt.Parameter_File>
/export/apps/rDock/src/rDock_2013.1_src/data/scripts/dock_solv.prm

>  <Rbt.Receptor>
prm/blind_docking_100.prm

>  <SCORE>
3.62278

>  <SCORE.INTER>
-2.5494

>  <SCORE.INTER.CONST>
1

>  <SCORE.INTER.POLAR>
0

>  <SCORE.INTER.ROT>
6

>  <SCORE.INTER.SOLV>
18.6897

>  <SCORE.INTER.VDW>
-15.5295

>  <SCORE.INTER.norm>
-0.0822388

>  <SCORE.INTRA>
6.17218

>  <SCORE.INTRA.DIHEDRAL>
6.43864

>  <SCORE.INTRA.DIHEDRAL.0>
10.8172

>  <SCORE.INTRA.POLAR>
0

>  <SCORE.INTRA.POLAR.0>
0

>  <SCORE.INTRA.REPUL>
0.0209964

>  <SCORE.INTRA.REPUL.0>
0

>  <SCORE.INTRA.SOLV>
0.618361

>  <SCORE.INTRA.SOLV.lig_0>
-80.3833

>  <SCORE.INTRA.VDW>
2.5387

>  <SCORE.INTRA.VDW.0>
-4.63762

>  <SCORE.INTRA.norm>
0.199103

>  <SCORE.RESTR>
0

>  <SCORE.RESTR.CAVITY>
0

>  <SCORE.RESTR.norm>
0

>  <SCORE.SYSTEM>
0

>  <SCORE.SYSTEM.CONST>
0

>  <SCORE.SYSTEM.DIHEDRAL>
0

>  <SCORE.SYSTEM.SOLV>
0

>  <SCORE.SYSTEM.norm>
0

>  <SCORE.heavy>
31

>  <SCORE.norm>
0.116864

>  <RMSD>
6.569

$$$$
ligand
 OpenBabel11021811473D
libRbt.so/2013.1/901 2013/11/27
 31 33  0  0  0  0  0  0  0  0999 V2000
   16.0102    6.9814   20.8219 C   0  0  0  0  0  0  0  0  0  0  0  0
   21.1055    3.4834   14.9487 N   0  0  0  0  0  0  0  0  0  0  0  0
   16.2488    5.8584   21.6768 O   0  0  0  0  0  0  0  0  0  0  0  0
   17.2828    7.3348   20.0479 C   0  0  1  0  0  0  0  0  0  0  0  0
   16.7199    1.3681   15.3911 N   0  0  0  0  0  0  0  0  0  0  0  0
   17.6177    6.2742   19.1318 O   0  0  0  0  0  0  0  0  0  0  0  0
   17.7432    6.8314   17.8114 C   0  0  1  0  0  0  0  0  0  0  0  0
   13.9721    1.3962   20.9485 N   0  0  0  0  0  0  0  0  0  0  0  0
   17.3207    5.9030   16.8002 O   0  0  0  0  0  0  0  0  0  0  0  0
   18.0010    4.6404   16.8541 C   0  0  2  0  0  0  0  0  0  0  0  0
   14.7500    4.2628   15.1832 N   0  0  0  0  0  0  0  0  0  0  0  0
   20.1409    5.6833   16.4348 O   0  0  0  0  0  0  0  0  0  0  0  0
   19.2080    4.7330   15.9133 C   0  0  1  0  0  0  0  0  0  0  0  0
   16.0486    3.2494   17.4321 O   0  0  0  0  0  0  0  0  0  0  0  0
   19.8963    3.3733   15.7789 C   0  0  1  0  0  0  0  0  0  0  0  0
   14.1713    1.9762   18.0588 O   0  0  0  0  0  0  0  0  0  0  0  0
   18.9196    2.3770   15.1536 C   0  0  0  0  0  0  0  0  0  0  0  0
   12.3510    4.8856   19.3619 O   0  0  0  0  0  0  0  0  0  0  0  0
   17.7086    2.2140   16.0769 C   0  0  1  0  0  0  0  0  0  0  0  0
   12.4507    5.4188   16.5386 O   0  0  0  0  0  0  0  0  0  0  0  0
   17.0303    3.5450   16.4232 C   0  0  2  0  0  0  0  0  0  0  0  0
   17.0264    8.9617   16.8083 O   0  0  0  0  0  0  0  0  0  0  0  0
   14.8804    2.5649   16.9529 C   0  0  1  0  0  0  0  0  0  0  0  0
   18.2235    9.4125   19.1238 O   0  0  0  0  0  0  0  0  0  0  0  0
   13.7223    2.9233   19.0430 C   0  0  2  0  0  0  0  0  0  0  0  0
   12.9995    2.1753   20.1658 C   0  0  0  0  0  0  0  0  0  0  0  0
   12.7461    3.9075   18.3963 C   0  0  2  0  0  0  0  0  0  0  0  0
   13.4180    4.6072   17.2131 C   0  0  1  0  0  0  0  0  0  0  0  0
   13.9816    3.5755   16.2324 C   0  0  1  0  0  0  0  0  0  0  0  0
   16.7604    8.0003   17.8323 C   0  0  2  0  0  0  0  0  0  0  0  0
   17.0542    8.5939   19.2068 C   0  0  1  0  0  0  0  0  0  0  0  0
  1  3  1  0  0  0  0
  4  1  1  6  0  0  0
  4  6  1  0  0  0  0
  4 31  1  0  0  0  0
  6  7  1  0  0  0  0
  7  9  1  6  0  0  0
  7 30  1  0  0  0  0
  8 26  1  0  0  0  0
 10  9  1  6  0  0  0
 10 13  1  0  0  0  0
 10 21  1  0  0  0  0
 13 12  1  1  0  0  0
 13 15  1  0  0  0  0
 15  2  1  6  0  0  0
 15 17  1  0  0  0  0
 16 25  1  0  0  0  0
 16 23  1  0  0  0  0
 17 19  1  0  0  0  0
 19  5  1  6  0  0  0
 19 21  1  0  0  0  0
 21 14  1  1  0  0  0
 23 14  1  1  0  0  0
 23 29  1  0  0  0  0
 25 26  1  1  0  0  0
 25 27  1  0  0  0  0
 27 18  1  1  0  0  0
 27 28  1  0  0  0  0
 28 20  1  6  0  0  0
 28 29  1  0  0  0  0
 29 11  1  6  0  0  0
 30 22  1  6  0  0  0
 30 31  1  0  0  0  0
 31 24  1  6  0  0  0
M  END
>  <CHROM.1>
66.22274462,-55.39123136,-92.74099239,163.01724832,161.06272740,70.19407458
16.29752078,4.77144509,17.69909024,2.86304182,-0.49374513,-2.61224186

>  <Name>
ligand

>  <RI>
0

>  <Rbt.Current_Directory>
/home/itssahil/PROJECTS/Mol_Feturizer/New_Systems/rnas/3DVV

>  <Rbt.Executable>
rbdock ($Id: //depot/dev/client3/rdock/2013.1/src/exe/rbdock.cxx#4 $)

>  <Rbt.Library>
libRbt.so (2013.1, Build901 2013/11/27)

>  <Rbt.Parameter_File>
/export/apps/rDock/src/rDock_2013.1_src/data/scripts/dock_solv.prm

>  <Rbt.Receptor>
prm/pocket_docking_5.prm

>  <SCORE>
-0.86843

>  <SCORE.INTER>
-2.67562

>  <SCORE.INTER.CONST>
1

>  <SCORE.INTER.POLAR>
0

>  <SCORE.INTER.ROT>
6

>  <SCORE.INTER.SOLV>
15.0701

>  <SCORE.INTER.VDW>
-14.4071

>  <SCORE.INTER.norm>
-0.0863104

>  <SCORE.INTRA>
1.80719

>  <SCORE.INTRA.DIHEDRAL>
-2.90281

>  <SCORE.INTRA.DIHEDRAL.0>
10.8172

>  <SCORE.INTRA.POLAR>
0

>  <SCORE.INTRA.POLAR.0>
0

>  <SCORE.INTRA.REPUL>
0.0714955

>  <SCORE.INTRA.REPUL.0>
0

>  <SCORE.INTRA.SOLV>
-0.317869

>  <SCORE.INTRA.SOLV.lig_0>
-80.3833

>  <SCORE.INTRA.VDW>
3.06005

>  <SCORE.INTRA.VDW.0>
-4.63762

>  <SCORE.INTRA.norm>
0.0582965

>  <SCORE.RESTR>
0

>  <SCORE.RESTR.CAVITY>
0

>  <SCORE.RESTR.norm>
0

>  <SCORE.SYSTEM>
0

>  <SCORE.SYSTEM.CONST>
0

>  <SCORE.SYSTEM.DIHEDRAL>
0

>  <SCORE.SYSTEM.SOLV>
0

>  <SCORE.SYSTEM.norm>
0

>  <SCORE.heavy>
31

>  <SCORE.norm>
-0.0280139

>  <RMSD>
6.594

$$$$
ligand
 OpenBabel11021811473D
libRbt.so/2013.1/901 2013/11/27
 31 33  0  0  0  0  0  0  0  0999 V2000
   21.0018    7.4988   15.8444 C   0  0  0  0  0  0  0  0  0  0  0  0
   16.1685    3.0038   20.9684 N   0  0  0  0  0  0  0  0  0  0  0  0
   22.3354    7.9851   15.6604 O   0  0  0  0  0  0  0  0  0  0  0  0
   20.9483    6.5457   17.0411 C   0  0  1  0  0  0  0  0  0  0  0  0
   13.5647    3.5174   16.8624 N   0  0  0  0  0  0  0  0  0  0  0  0
   19.5904    6.1290   17.2838 O   0  0  0  0  0  0  0  0  0  0  0  0
   19.5462    4.6910   17.2887 C   0  0  1  0  0  0  0  0  0  0  0  0
   16.0435    2.3060   11.6922 N   0  0  0  0  0  0  0  0  0  0  0  0
   18.3022    4.1956   16.7691 O   0  0  0  0  0  0  0  0  0  0  0  0
   17.1688    4.4982   17.5961 C   0  0  2  0  0  0  0  0  0  0  0  0
   16.2770    7.5798   14.5391 N   0  0  0  0  0  0  0  0  0  0  0  0
   18.4184    4.0455   19.6150 O   0  0  0  0  0  0  0  0  0  0  0  0
   17.2796    3.6310   18.8555 C   0  0  1  0  0  0  0  0  0  0  0  0
   15.6291    5.1759   15.7930 O   0  0  0  0  0  0  0  0  0  0  0  0
   16.0232    3.7647   19.7182 C   0  0  1  0  0  0  0  0  0  0  0  0
   16.3494    3.9090   13.9453 O   0  0  0  0  0  0  0  0  0  0  0  0
   14.8174    3.2530   18.9297 C   0  0  0  0  0  0  0  0  0  0  0  0
   13.3540    4.6747   11.9660 O   0  0  0  0  0  0  0  0  0  0  0  0
   14.6344    4.1142   17.6766 C   0  0  1  0  0  0  0  0  0  0  0  0
   14.6577    7.2304   12.1482 O   0  0  0  0  0  0  0  0  0  0  0  0
   15.8970    4.1945   16.8099 C   0  0  2  0  0  0  0  0  0  0  0  0
   21.1004    2.9564   16.4927 O   0  0  0  0  0  0  0  0  0  0  0  0
   16.5247    5.1399   14.6709 C   0  0  1  0  0  0  0  0  0  0  0  0
   22.4154    4.7677   17.9025 O   0  0  0  0  0  0  0  0  0  0  0  0
   15.0235    3.7153   13.4239 C   0  0  2  0  0  0  0  0  0  0  0  0
   14.9641    2.3734   12.6902 C   0  0  0  0  0  0  0  0  0  0  0  0
   14.6957    4.8348   12.4342 C   0  0  2  0  0  0  0  0  0  0  0  0
   14.8329    6.1951   13.1211 C   0  0  1  0  0  0  0  0  0  0  0  0
   16.2172    6.3334   13.7603 C   0  0  1  0  0  0  0  0  0  0  0  0
   20.6606    4.3054   16.3182 C   0  0  2  0  0  0  0  0  0  0  0  0
   21.7558    5.2796   16.7418 C   0  0  1  0  0  0  0  0  0  0  0  0
  1  3  1  0  0  0  0
  4  1  1  6  0  0  0
  4  6  1  0  0  0  0
  4 31  1  0  0  0  0
  6  7  1  0  0  0  0
  7  9  1  6  0  0  0
  7 30  1  0  0  0  0
  8 26  1  0  0  0  0
 10  9  1  6  0  0  0
 10 13  1  0  0  0  0
 10 21  1  0  0  0  0
 13 12  1  1  0  0  0
 13 15  1  0  0  0  0
 15  2  1  1  0  0  0
 15 17  1  0  0  0  0
 16 25  1  0  0  0  0
 16 23  1  0  0  0  0
 17 19  1  0  0  0  0
 19  5  1  6  0  0  0
 19 21  1  0  0  0  0
 21 14  1  6  0  0  0
 23 14  1  1  0  0  0
 23 29  1  0  0  0  0
 25 26  1  6  0  0  0
 25 27  1  0  0  0  0
 27 18  1  1  0  0  0
 27 28  1  0  0  0  0
 28 20  1  6  0  0  0
 28 29  1  0  0  0  0
 29 11  1  1  0  0  0
 30 22  1  1  0  0  0
 30 31  1  0  0  0  0
 31 24  1  1  0  0  0
M  END
>  <CHROM.1>
176.01941131,-66.90164632,-71.01439712,66.05724393,70.99325798,-53.05890453
17.34034195,4.78333785,15.93989699,-0.54654089,-0.33126875,-1.21737612

>  <Name>
ligand

>  <RI>
0

>  <Rbt.Current_Directory>
/home/itssahil/PROJECTS/Mol_Feturizer/New_Systems/rnas/3DVV

>  <Rbt.Executable>
rbdock ($Id: //depot/dev/client3/rdock/2013.1/src/exe/rbdock.cxx#4 $)

>  <Rbt.Library>
libRbt.so (2013.1, Build901 2013/11/27)

>  <Rbt.Parameter_File>
/export/apps/rDock/src/rDock_2013.1_src/data/scripts/dock_solv.prm

>  <Rbt.Receptor>
prm/pocket_docking_7.prm

>  <SCORE>
-7.67015

>  <SCORE.INTER>
-4.5697

>  <SCORE.INTER.CONST>
1

>  <SCORE.INTER.POLAR>
0

>  <SCORE.INTER.ROT>
6

>  <SCORE.INTER.SOLV>
13.568

>  <SCORE.INTER.VDW>
-15.1691

>  <SCORE.INTER.norm>
-0.14741

>  <SCORE.INTRA>
-3.10045

>  <SCORE.INTRA.DIHEDRAL>
-8.76756

>  <SCORE.INTRA.DIHEDRAL.0>
10.8172

>  <SCORE.INTRA.POLAR>
0

>  <SCORE.INTRA.POLAR.0>
0

>  <SCORE.INTRA.REPUL>
0

>  <SCORE.INTRA.REPUL.0>
0

>  <SCORE.INTRA.SOLV>
-2.69386

>  <SCORE.INTRA.SOLV.lig_0>
-80.3833

>  <SCORE.INTRA.VDW>
2.63026

>  <SCORE.INTRA.VDW.0>
-4.63762

>  <SCORE.INTRA.norm>
-0.100014

>  <SCORE.RESTR>
0

>  <SCORE.RESTR.CAVITY>
0

>  <SCORE.RESTR.norm>
0

>  <SCORE.SYSTEM>
0

>  <SCORE.SYSTEM.CONST>
0

>  <SCORE.SYSTEM.DIHEDRAL>
0

>  <SCORE.SYSTEM.SOLV>
0

>  <SCORE.SYSTEM.norm>
0

>  <SCORE.heavy>
31

>  <SCORE.norm>
-0.247424

>  <RMSD>
6.597

$$$$
ligand
 OpenBabel11021811473D
libRbt.so/2013.1/901 2013/11/27
 31 33  0  0  0  0  0  0  0  0999 V2000
   17.8779    2.8225   11.1879 C   0  0  0  0  0  0  0  0  0  0  0  0
   24.7802    4.1500   15.9658 N   0  0  0  0  0  0  0  0  0  0  0  0
   17.7781    4.2486   11.1168 O   0  0  0  0  0  0  0  0  0  0  0  0
   19.3482    2.3967   11.2022 C   0  0  1  0  0  0  0  0  0  0  0  0
   20.5252    5.2273   18.1195 N   0  0  0  0  0  0  0  0  0  0  0  0
   20.0111    2.9391   12.3610 O   0  0  0  0  0  0  0  0  0  0  0  0
   20.6290    1.8590   13.0831 C   0  0  1  0  0  0  0  0  0  0  0  0
   17.7859    8.9089   17.6357 N   0  0  0  0  0  0  0  0  0  0  0  0
   20.6276    2.0972   14.4995 O   0  0  0  0  0  0  0  0  0  0  0  0
   21.2043    3.3569   14.8745 C   0  0  2  0  0  0  0  0  0  0  0  0
   16.8634    3.0109   14.9748 N   0  0  0  0  0  0  0  0  0  0  0  0
   23.3603    2.7285   13.9804 O   0  0  0  0  0  0  0  0  0  0  0  0
   22.6849    3.1060   15.1832 C   0  0  1  0  0  0  0  0  0  0  0  0
   19.1509    4.3986   15.7573 O   0  0  0  0  0  0  0  0  0  0  0  0
   23.3404    4.3646   15.7549 C   0  0  1  0  0  0  0  0  0  0  0  0
   18.1024    5.2221   17.6965 O   0  0  0  0  0  0  0  0  0  0  0  0
   22.6643    4.7246   17.0781 C   0  0  0  0  0  0  0  0  0  0  0  0
   16.1654    7.7379   15.8539 O   0  0  0  0  0  0  0  0  0  0  0  0
   21.1853    5.0272   16.8204 C   0  0  1  0  0  0  0  0  0  0  0  0
   15.0264    5.2657   14.9290 O   0  0  0  0  0  0  0  0  0  0  0  0
   20.4554    3.8928   16.0909 C   0  0  2  0  0  0  0  0  0  0  0  0
   20.3416   -0.5848   13.0274 O   0  0  0  0  0  0  0  0  0  0  0  0
   18.1369    4.1448   16.7423 C   0  0  1  0  0  0  0  0  0  0  0  0
   20.5630    0.3539   10.5641 O   0  0  0  0  0  0  0  0  0  0  0  0
   17.8113    6.5084   17.1237 C   0  0  2  0  0  0  0  0  0  0  0  0
   17.8166    7.5639   18.2321 C   0  0  0  0  0  0  0  0  0  0  0  0
   16.4251    6.4774   16.4773 C   0  0  2  0  0  0  0  0  0  0  0  0
   16.3658    5.3698   15.4233 C   0  0  1  0  0  0  0  0  0  0  0  0
   16.7834    4.0292   16.0333 C   0  0  1  0  0  0  0  0  0  0  0  0
   19.7084    0.6753   12.7934 C   0  0  2  0  0  0  0  0  0  0  0  0
   19.4534    0.8723   11.3020 C   0  0  1  0  0  0  0  0  0  0  0  0
  1  3  1  0  0  0  0
  4  1  1  1  0  0  0
  4  6  1  0  0  0  0
  4 31  1  0  0  0  0
  6  7  1  0  0  0  0
  7  9  1  1  0  0  0
  7 30  1  0  0  0  0
  8 26  1  0  0  0  0
 10  9  1  1  0  0  0
 10 13  1  0  0  0  0
 10 21  1  0  0  0  0
 13 12  1  6  0  0  0
 13 15  1  0  0  0  0
 15  2  1  1  0  0  0
 15 17  1  0  0  0  0
 16 25  1  0  0  0  0
 16 23  1  0  0  0  0
 17 19  1  0  0  0  0
 19  5  1  1  0  0  0
 19 21  1  0  0  0  0
 21 14  1  6  0  0  0
 23 14  1  6  0  0  0
 23 29  1  0  0  0  0
 25 26  1  1  0  0  0
 25 27  1  0  0  0  0
 27 18  1  6  0  0  0
 27 28  1  0  0  0  0
 28 20  1  1  0  0  0
 28 29  1  0  0  0  0
 29 11  1  6  0  0  0
 30 22  1  6  0  0  0
 30 31  1  0  0  0  0
 31 24  1  6  0  0  0
M  END
>  <CHROM.1>
61.40226184,-53.62129988,-93.33996870,89.25659043,143.09397611,168.89532015
19.43267481,3.94848194,14.85720144,1.10370842,0.28118307,-2.27001840

>  <Name>
ligand

>  <RI>
0

>  <Rbt.Current_Directory>
/home/itssahil/PROJECTS/Mol_Feturizer/New_Systems/rnas/3DVV

>  <Rbt.Executable>
rbdock ($Id: //depot/dev/client3/rdock/2013.1/src/exe/rbdock.cxx#4 $)

>  <Rbt.Library>
libRbt.so (2013.1, Build901 2013/11/27)

>  <Rbt.Parameter_File>
/export/apps/rDock/src/rDock_2013.1_src/data/scripts/dock_solv.prm

>  <Rbt.Receptor>
prm/pocket_docking_5.prm

>  <SCORE>
0.686096

>  <SCORE.INTER>
-2.94678

>  <SCORE.INTER.CONST>
1

>  <SCORE.INTER.POLAR>
0

>  <SCORE.INTER.ROT>
6

>  <SCORE.INTER.SOLV>
16.8071

>  <SCORE.INTER.VDW>
-15.1669

>  <SCORE.INTER.norm>
-0.0950575

>  <SCORE.INTRA>
3.63288

>  <SCORE.INTRA.DIHEDRAL>
2.51211

>  <SCORE.INTRA.DIHEDRAL.0>
10.8172

>  <SCORE.INTRA.POLAR>
0

>  <SCORE.INTRA.POLAR.0>
0

>  <SCORE.INTRA.REPUL>
0.0108339

>  <SCORE.INTRA.REPUL.0>
0

>  <SCORE.INTRA.SOLV>
0.54322

>  <SCORE.INTRA.SOLV.lig_0>
-80.3833

>  <SCORE.INTRA.VDW>
2.05104

>  <SCORE.INTRA.VDW.0>
-4.63762

>  <SCORE.INTRA.norm>
0.11719

>  <SCORE.RESTR>
0

>  <SCORE.RESTR.CAVITY>
0

>  <SCORE.RESTR.norm>
0

>  <SCORE.SYSTEM>
0

>  <SCORE.SYSTEM.CONST>
0

>  <SCORE.SYSTEM.DIHEDRAL>
0

>  <SCORE.SYSTEM.SOLV>
0

>  <SCORE.SYSTEM.norm>
0

>  <SCORE.heavy>
31

>  <SCORE.norm>
0.0221321

>  <RMSD>
6.600

$$$$
ligand
 OpenBabel11021811473D
libRbt.so/2013.1/901 2013/11/27
 31 33  0  0  0  0  0  0  0  0999 V2000
   19.7068    2.1786   10.3941 C   0  0  0  0  0  0  0  0  0  0  0  0
   22.7624    4.3412   18.1532 N   0  0  0  0  0  0  0  0  0  0  0  0
   18.6092    3.0575   10.6616 O   0  0  0  0  0  0  0  0  0  0  0  0
   20.2205    1.5639   11.6985 C   0  0  1  0  0  0  0  0  0  0  0  0
   20.9053    8.1280   15.6803 N   0  0  0  0  0  0  0  0  0  0  0  0
   20.6231    2.6027   12.6123 O   0  0  0  0  0  0  0  0  0  0  0  0
   19.9246    2.4152   13.8560 C   0  0  1  0  0  0  0  0  0  0  0  0
   15.8857    8.7361   13.1953 N   0  0  0  0  0  0  0  0  0  0  0  0
   19.6344    3.6675   14.4968 O   0  0  0  0  0  0  0  0  0  0  0  0
   20.8042    4.4097   14.8718 C   0  0  2  0  0  0  0  0  0  0  0  0
   20.4614    5.7041   10.7709 N   0  0  0  0  0  0  0  0  0  0  0  0
   21.6110    2.5973   16.2527 O   0  0  0  0  0  0  0  0  0  0  0  0
   21.1919    3.9643   16.2866 C   0  0  1  0  0  0  0  0  0  0  0  0
   20.3861    6.3952   13.4704 O   0  0  0  0  0  0  0  0  0  0  0  0
   22.3312    4.8268   16.8335 C   0  0  1  0  0  0  0  0  0  0  0  0
   18.0923    6.9115   13.3713 O   0  0  0  0  0  0  0  0  0  0  0  0
   21.8565    6.2764   16.9372 C   0  0  0  0  0  0  0  0  0  0  0  0
   18.6570   10.1219   11.6828 O   0  0  0  0  0  0  0  0  0  0  0  0
   21.4944    6.7877   15.5397 C   0  0  1  0  0  0  0  0  0  0  0  0
   19.4622    8.2128    9.6899 O   0  0  0  0  0  0  0  0  0  0  0  0
   20.4749    5.8985   14.8173 C   0  0  2  0  0  0  0  0  0  0  0  0
   17.9417    1.1030   14.4917 O   0  0  0  0  0  0  0  0  0  0  0  0
   19.1458    6.1108   12.8045 C   0  0  1  0  0  0  0  0  0  0  0  0
   19.5884   -0.3888   13.0562 O   0  0  0  0  0  0  0  0  0  0  0  0
   18.3054    8.3293   13.2627 C   0  0  2  0  0  0  0  0  0  0  0  0
   17.1294    9.0644   13.9101 C   0  0  0  0  0  0  0  0  0  0  0  0
   18.3817    8.7224   11.7863 C   0  0  2  0  0  0  0  0  0  0  0  0
   19.4960    7.9350   11.0938 C   0  0  1  0  0  0  0  0  0  0  0  0
   19.3047    6.4322   11.3147 C   0  0  1  0  0  0  0  0  0  0  0  0
   18.6054    1.7799   13.4217 C   0  0  2  0  0  0  0  0  0  0  0  0
   19.1013    0.7760   12.3852 C   0  0  1  0  0  0  0  0  0  0  0  0
  1  3  1  0  0  0  0
  4  1  1  6  0  0  0
  4  6  1  0  0  0  0
  4 31  1  0  0  0  0
  6  7  1  0  0  0  0
  7  9  1  6  0  0  0
  7 30  1  0  0  0  0
  8 26  1  0  0  0  0
 10  9  1  1  0  0  0
 10 13  1  0  0  0  0
 10 21  1  0  0  0  0
 13 12  1  6  0  0  0
 13 15  1  0  0  0  0
 15  2  1  1  0  0  0
 15 17  1  0  0  0  0
 16 25  1  0  0  0  0
 16 23  1  0  0  0  0
 17 19  1  0  0  0  0
 19  5  1  1  0  0  0
 19 21  1  0  0  0  0
 21 14  1  6  0  0  0
 23 14  1  1  0  0  0
 23 29  1  0  0  0  0
 25 26  1  6  0  0  0
 25 27  1  0  0  0  0
 27 18  1  1  0  0  0
 27 28  1  0  0  0  0
 28 20  1  6  0  0  0
 28 29  1  0  0  0  0
 29 11  1  1  0  0  0
 30 22  1  1  0  0  0
 30 31  1  0  0  0  0
 31 24  1  1  0  0  0
M  END
>  <CHROM.1>
-58.09575042,-62.97556751,-89.19297218,71.31840182,79.61217188,-61.90641775
19.72681732,5.09078696,13.48376560,1.07710247,1.08197916,-2.94221703

>  <Name>
ligand

>  <RI>
0

>  <Rbt.Current_Directory>
/home/itssahil/PROJECTS/Mol_Feturizer/New_Systems/rnas/3DVV

>  <Rbt.Executable>
rbdock ($Id: //depot/dev/client3/rdock/2013.1/src/exe/rbdock.cxx#4 $)

>  <Rbt.Library>
libRbt.so (2013.1, Build901 2013/11/27)

>  <Rbt.Parameter_File>
/export/apps/rDock/src/rDock_2013.1_src/data/scripts/dock_solv.prm

>  <Rbt.Receptor>
prm/blind_docking_100.prm

>  <SCORE>
-3.68904

>  <SCORE.INTER>
-2.32224

>  <SCORE.INTER.CONST>
1

>  <SCORE.INTER.POLAR>
0

>  <SCORE.INTER.ROT>
6

>  <SCORE.INTER.SOLV>
25.6367

>  <SCORE.INTER.VDW>
-17.6937

>  <SCORE.INTER.norm>
-0.074911

>  <SCORE.INTRA>
-1.36862

>  <SCORE.INTRA.DIHEDRAL>
-4.72482

>  <SCORE.INTRA.DIHEDRAL.0>
10.8172

>  <SCORE.INTRA.POLAR>
0

>  <SCORE.INTRA.POLAR.0>
0

>  <SCORE.INTRA.REPUL>
0

>  <SCORE.INTRA.REPUL.0>
0

>  <SCORE.INTRA.SOLV>
0.589047

>  <SCORE.INTRA.SOLV.lig_0>
-80.3833

>  <SCORE.INTRA.VDW>
0.699269

>  <SCORE.INTRA.VDW.0>
-4.63762

>  <SCORE.INTRA.norm>
-0.044149

>  <SCORE.RESTR>
0.00181586

>  <SCORE.RESTR.CAVITY>
0.00181586

>  <SCORE.RESTR.norm>
5.85762e-05

>  <SCORE.SYSTEM>
0

>  <SCORE.SYSTEM.CONST>
0

>  <SCORE.SYSTEM.DIHEDRAL>
0

>  <SCORE.SYSTEM.SOLV>
0

>  <SCORE.SYSTEM.norm>
0

>  <SCORE.heavy>
31

>  <SCORE.norm>
-0.119001

>  <RMSD>
6.609

$$$$
ligand
 OpenBabel11021811473D
libRbt.so/2013.1/901 2013/11/27
 31 33  0  0  0  0  0  0  0  0999 V2000
   19.3930    2.3842   10.1758 C   0  0  0  0  0  0  0  0  0  0  0  0
   22.6040    4.0134   17.7566 N   0  0  0  0  0  0  0  0  0  0  0  0
   20.6456    2.5517    9.5037 O   0  0  0  0  0  0  0  0  0  0  0  0
   19.6112    1.7328   11.5438 C   0  0  1  0  0  0  0  0  0  0  0  0
   21.3552    8.1734   15.5120 N   0  0  0  0  0  0  0  0  0  0  0  0
   20.1648    2.6905   12.4672 O   0  0  0  0  0  0  0  0  0  0  0  0
   19.3240    2.7416   13.6335 C   0  0  1  0  0  0  0  0  0  0  0  0
   16.0413    9.0425   13.1697 N   0  0  0  0  0  0  0  0  0  0  0  0
   19.2880    4.0585   14.2056 O   0  0  0  0  0  0  0  0  0  0  0  0
   20.5810    4.5695   14.5621 C   0  0  2  0  0  0  0  0  0  0  0  0
   20.5601    6.1167   10.5255 N   0  0  0  0  0  0  0  0  0  0  0  0
   21.1044    2.5836   15.8368 O   0  0  0  0  0  0  0  0  0  0  0  0
   20.9314    3.9994   15.9415 C   0  0  1  0  0  0  0  0  0  0  0  0
   20.4696    6.6596   13.2582 O   0  0  0  0  0  0  0  0  0  0  0  0
   22.2209    4.6261   16.4756 C   0  0  1  0  0  0  0  0  0  0  0  0
   18.1993    7.2713   13.1574 O   0  0  0  0  0  0  0  0  0  0  0  0
   22.0100    6.1297   16.6555 C   0  0  0  0  0  0  0  0  0  0  0  0
   18.9148   10.5454   11.6591 O   0  0  0  0  0  0  0  0  0  0  0  0
   21.6967    6.7593   15.2950 C   0  0  1  0  0  0  0  0  0  0  0  0
   19.6763    8.7193    9.5734 O   0  0  0  0  0  0  0  0  0  0  0  0
   20.5147    6.0937   14.5798 C   0  0  2  0  0  0  0  0  0  0  0  0
   17.0282    1.9797   14.0882 O   0  0  0  0  0  0  0  0  0  0  0  0
   19.2297    6.4619   12.5608 C   0  0  1  0  0  0  0  0  0  0  0  0
   18.3917    0.0629   12.8780 O   0  0  0  0  0  0  0  0  0  0  0  0
   18.4691    8.6833   13.1312 C   0  0  2  0  0  0  0  0  0  0  0  0
   17.3126    9.4274   13.8029 C   0  0  0  0  0  0  0  0  0  0  0  0
   18.5838    9.1543   11.6803 C   0  0  2  0  0  0  0  0  0  0  0  0
   19.6773    8.3629   10.9598 C   0  0  1  0  0  0  0  0  0  0  0  0
   19.4243    6.8590   11.0936 C   0  0  1  0  0  0  0  0  0  0  0  0
   17.9382    2.4204   13.0777 C   0  0  2  0  0  0  0  0  0  0  0  0
   18.2719    1.2741   12.1276 C   0  0  1  0  0  0  0  0  0  0  0  0
  1  3  1  0  0  0  0
  4  1  1  6  0  0  0
  4  6  1  0  0  0  0
  4 31  1  0  0  0  0
  6  7  1  0  0  0  0
  7  9  1  6  0  0  0
  7 30  1  0  0  0  0
  8 26  1  0  0  0  0
 10  9  1  1  0  0  0
 10 13  1  0  0  0  0
 10 21  1  0  0  0  0
 13 12  1  6  0  0  0
 13 15  1  0  0  0  0
 15  2  1  1  0  0  0
 15 17  1  0  0  0  0
 16 25  1  0  0  0  0
 16 23  1  0  0  0  0
 17 19  1  0  0  0  0
 19  5  1  1  0  0  0
 19 21  1  0  0  0  0
 21 14  1  6  0  0  0
 23 14  1  1  0  0  0
 23 29  1  0  0  0  0
 25 26  1  6  0  0  0
 25 27  1  0  0  0  0
 27 18  1  1  0  0  0
 27 28  1  0  0  0  0
 28 20  1  6  0  0  0
 28 29  1  0  0  0  0
 29 11  1  1  0  0  0
 30 22  1  1  0  0  0
 30 31  1  0  0  0  0
 31 24  1  1  0  0  0
M  END
>  <CHROM.1>
74.74461448,-57.12265865,-82.90513731,70.91170358,71.47289822,-54.10445485
19.65042939,5.33331363,13.22524308,1.30659642,1.11536236,-3.08542751

>  <Name>
ligand

>  <RI>
0

>  <Rbt.Current_Directory>
/home/itssahil/PROJECTS/Mol_Feturizer/New_Systems/rnas/3DVV

>  <Rbt.Executable>
rbdock ($Id: //depot/dev/client3/rdock/2013.1/src/exe/rbdock.cxx#4 $)

>  <Rbt.Library>
libRbt.so (2013.1, Build901 2013/11/27)

>  <Rbt.Parameter_File>
/export/apps/rDock/src/rDock_2013.1_src/data/scripts/dock_solv.prm

>  <Rbt.Receptor>
prm/blind_docking_40.prm

>  <SCORE>
-3.56954

>  <SCORE.INTER>
-1.10158

>  <SCORE.INTER.CONST>
1

>  <SCORE.INTER.POLAR>
0

>  <SCORE.INTER.ROT>
6

>  <SCORE.INTER.SOLV>
24.0474

>  <SCORE.INTER.VDW>
-16.3502

>  <SCORE.INTER.norm>
-0.0355349

>  <SCORE.INTRA>
-2.46796

>  <SCORE.INTRA.DIHEDRAL>
-6.14714

>  <SCORE.INTRA.DIHEDRAL.0>
10.8172

>  <SCORE.INTRA.POLAR>
0

>  <SCORE.INTRA.POLAR.0>
0

>  <SCORE.INTRA.REPUL>
0

>  <SCORE.INTRA.REPUL.0>
0

>  <SCORE.INTRA.SOLV>
-1.66656

>  <SCORE.INTRA.SOLV.lig_0>
-80.3833

>  <SCORE.INTRA.VDW>
1.43888

>  <SCORE.INTRA.VDW.0>
-4.63762

>  <SCORE.INTRA.norm>
-0.0796117

>  <SCORE.RESTR>
0

>  <SCORE.RESTR.CAVITY>
0

>  <SCORE.RESTR.norm>
0

>  <SCORE.SYSTEM>
0

>  <SCORE.SYSTEM.CONST>
0

>  <SCORE.SYSTEM.DIHEDRAL>
0

>  <SCORE.SYSTEM.SOLV>
0

>  <SCORE.SYSTEM.norm>
0

>  <SCORE.heavy>
31

>  <SCORE.norm>
-0.115147

>  <RMSD>
6.610

$$$$
ligand
 OpenBabel11021811473D
libRbt.so/2013.1/901 2013/11/27
 31 33  0  0  0  0  0  0  0  0999 V2000
   20.3281    0.2051   13.6640 C   0  0  0  0  0  0  0  0  0  0  0  0
   13.0790    3.2491   11.0651 N   0  0  0  0  0  0  0  0  0  0  0  0
   20.9069    1.4901   13.4138 O   0  0  0  0  0  0  0  0  0  0  0  0
   19.2077   -0.0737   12.6588 C   0  0  1  0  0  0  0  0  0  0  0  0
   15.8312    6.9662   12.6500 N   0  0  0  0  0  0  0  0  0  0  0  0
   18.2769    1.0260   12.6349 O   0  0  0  0  0  0  0  0  0  0  0  0
   18.1482    1.4882   11.2786 C   0  0  1  0  0  0  0  0  0  0  0  0
   19.5448    8.3418   10.6041 N   0  0  0  0  0  0  0  0  0  0  0  0
   17.9231    2.9055   11.2191 O   0  0  0  0  0  0  0  0  0  0  0  0
   16.7883    3.3432   11.9811 C   0  0  2  0  0  0  0  0  0  0  0  0
   19.4775    3.6344   15.0308 N   0  0  0  0  0  0  0  0  0  0  0  0
   15.3848    1.6178   11.0345 O   0  0  0  0  0  0  0  0  0  0  0  0
   15.5365    3.0352   11.1512 C   0  0  1  0  0  0  0  0  0  0  0  0
   17.9255    5.1216   13.2559 O   0  0  0  0  0  0  0  0  0  0  0  0
   14.2887    3.6222   11.8140 C   0  0  1  0  0  0  0  0  0  0  0  0
   19.8188    5.8511   12.0638 O   0  0  0  0  0  0  0  0  0  0  0  0
   14.4213    5.1442   11.8719 C   0  0  0  0  0  0  0  0  0  0  0  0
   20.7687    8.3008   14.6276 O   0  0  0  0  0  0  0  0  0  0  0  0
   15.6377    5.5102   12.7275 C   0  0  1  0  0  0  0  0  0  0  0  0
   21.1875    5.7925   15.9685 O   0  0  0  0  0  0  0  0  0  0  0  0
   16.9322    4.8372   12.2552 C   0  0  2  0  0  0  0  0  0  0  0  0
   19.5010    1.1518    9.2501 O   0  0  0  0  0  0  0  0  0  0  0  0
   19.2720    4.7963   12.8769 C   0  0  1  0  0  0  0  0  0  0  0  0
   19.0928   -1.1665   10.4569 O   0  0  0  0  0  0  0  0  0  0  0  0
   19.8693    7.1320   12.7150 C   0  0  2  0  0  0  0  0  0  0  0  0
   20.4539    8.1638   11.7476 C   0  0  0  0  0  0  0  0  0  0  0  0
   20.7715    7.0430   13.9473 C   0  0  2  0  0  0  0  0  0  0  0  0
   20.2573    5.9553   14.8926 C   0  0  1  0  0  0  0  0  0  0  0  0
   20.1110    4.6258   14.1478 C   0  0  1  0  0  0  0  0  0  0  0  0
   19.5216    1.1936   10.6789 C   0  0  2  0  0  0  0  0  0  0  0  0
   19.7869   -0.1975   11.2467 C   0  0  1  0  0  0  0  0  0  0  0  0
  1  3  1  0  0  0  0
  4  1  1  1  0  0  0
  4  6  1  0  0  0  0
  4 31  1  0  0  0  0
  6  7  1  0  0  0  0
  7  9  1  1  0  0  0
  7 30  1  0  0  0  0
  8 26  1  0  0  0  0
 10  9  1  6  0  0  0
 10 13  1  0  0  0  0
 10 21  1  0  0  0  0
 13 12  1  1  0  0  0
 13 15  1  0  0  0  0
 15  2  1  6  0  0  0
 15 17  1  0  0  0  0
 16 25  1  0  0  0  0
 16 23  1  0  0  0  0
 17 19  1  0  0  0  0
 19  5  1  6  0  0  0
 19 21  1  0  0  0  0
 21 14  1  1  0  0  0
 23 14  1  1  0  0  0
 23 29  1  0  0  0  0
 25 26  1  6  0  0  0
 25 27  1  0  0  0  0
 27 18  1  1  0  0  0
 27 28  1  0  0  0  0
 28 20  1  1  0  0  0
 28 29  1  0  0  0  0
 29 11  1  1  0  0  0
 30 22  1  6  0  0  0
 30 31  1  0  0  0  0
 31 24  1  6  0  0  0
M  END
>  <CHROM.1>
-51.74360613,-55.55876266,-78.95178291,81.38615471,65.96060084,64.98102791
18.42290424,3.84869904,12.41479404,-1.89051491,-0.34905648,0.23883568

>  <Name>
ligand

>  <RI>
0

>  <Rbt.Current_Directory>
/home/itssahil/PROJECTS/Mol_Feturizer/New_Systems/rnas/3DVV

>  <Rbt.Executable>
rbdock ($Id: //depot/dev/client3/rdock/2013.1/src/exe/rbdock.cxx#4 $)

>  <Rbt.Library>
libRbt.so (2013.1, Build901 2013/11/27)

>  <Rbt.Parameter_File>
/export/apps/rDock/src/rDock_2013.1_src/data/scripts/dock_solv.prm

>  <Rbt.Receptor>
prm/blind_docking_40.prm

>  <SCORE>
-3.35131

>  <SCORE.INTER>
-1.65479

>  <SCORE.INTER.CONST>
1

>  <SCORE.INTER.POLAR>
0

>  <SCORE.INTER.ROT>
6

>  <SCORE.INTER.SOLV>
18.1619

>  <SCORE.INTER.VDW>
-14.7572

>  <SCORE.INTER.norm>
-0.0533802

>  <SCORE.INTRA>
-2.56294

>  <SCORE.INTRA.DIHEDRAL>
-6.28237

>  <SCORE.INTRA.DIHEDRAL.0>
10.8172

>  <SCORE.INTRA.POLAR>
0

>  <SCORE.INTRA.POLAR.0>
0

>  <SCORE.INTRA.REPUL>
0

>  <SCORE.INTRA.REPUL.0>
0

>  <SCORE.INTRA.SOLV>
-1.6435

>  <SCORE.INTRA.SOLV.lig_0>
-80.3833

>  <SCORE.INTRA.VDW>
1.4

>  <SCORE.INTRA.VDW.0>
-4.63762

>  <SCORE.INTRA.norm>
-0.0826753

>  <SCORE.RESTR>
0.866409

>  <SCORE.RESTR.CAVITY>
0.866409

>  <SCORE.RESTR.norm>
0.0279487

>  <SCORE.SYSTEM>
0

>  <SCORE.SYSTEM.CONST>
0

>  <SCORE.SYSTEM.DIHEDRAL>
0

>  <SCORE.SYSTEM.SOLV>
0

>  <SCORE.SYSTEM.norm>
0

>  <SCORE.heavy>
31

>  <SCORE.norm>
-0.108107

>  <RMSD>
6.611

$$$$
ligand
 OpenBabel11021811473D
libRbt.so/2013.1/901 2013/11/27
 31 33  0  0  0  0  0  0  0  0999 V2000
   19.8575    8.8704   10.9537 C   0  0  0  0  0  0  0  0  0  0  0  0
   24.7582    6.6688   16.1563 N   0  0  0  0  0  0  0  0  0  0  0  0
   20.8616    9.8895   10.9080 O   0  0  0  0  0  0  0  0  0  0  0  0
   20.4456    7.5753   11.5194 C   0  0  1  0  0  0  0  0  0  0  0  0
   21.4669    3.0975   16.7195 N   0  0  0  0  0  0  0  0  0  0  0  0
   20.9245    7.7918   12.8611 O   0  0  0  0  0  0  0  0  0  0  0  0
   20.3062    6.8261   13.7299 C   0  0  1  0  0  0  0  0  0  0  0  0
   17.1690    9.6334   16.6749 N   0  0  0  0  0  0  0  0  0  0  0  0
   20.0795    7.3611   15.0435 O   0  0  0  0  0  0  0  0  0  0  0  0
   20.9403    6.8074   16.0497 C   0  0  2  0  0  0  0  0  0  0  0  0
   18.0890    3.5270   18.7860 N   0  0  0  0  0  0  0  0  0  0  0  0
   22.6457    8.4652   15.6186 O   0  0  0  0  0  0  0  0  0  0  0  0
   22.3848    7.0591   15.6019 C   0  0  1  0  0  0  0  0  0  0  0  0
   19.3997    5.0625   16.8638 O   0  0  0  0  0  0  0  0  0  0  0  0
   23.3720    6.3527   16.5332 C   0  0  1  0  0  0  0  0  0  0  0  0
   19.2841    6.9992   18.1957 O   0  0  0  0  0  0  0  0  0  0  0  0
   23.1390    4.8436   16.4584 C   0  0  0  0  0  0  0  0  0  0  0  0
   15.7315    7.5641   17.4635 O   0  0  0  0  0  0  0  0  0  0  0  0
   21.7182    4.5303   16.9366 C   0  0  1  0  0  0  0  0  0  0  0  0
   15.6778    5.1390   19.0065 O   0  0  0  0  0  0  0  0  0  0  0  0
   20.6401    5.3173   16.1817 C   0  0  2  0  0  0  0  0  0  0  0  0
   18.3480    5.3547   13.4883 O   0  0  0  0  0  0  0  0  0  0  0  0
   19.3393    5.5607   18.2095 C   0  0  1  0  0  0  0  0  0  0  0  0
   19.8720    5.1895   11.3324 O   0  0  0  0  0  0  0  0  0  0  0  0
   18.1462    7.5392   17.5023 C   0  0  2  0  0  0  0  0  0  0  0  0
   18.2103    9.0677   17.5474 C   0  0  0  0  0  0  0  0  0  0  0  0
   16.8615    7.0777   18.1926 C   0  0  2  0  0  0  0  0  0  0  0  0
   16.8142    5.5491   18.2386 C   0  0  1  0  0  0  0  0  0  0  0  0
   18.0861    4.9946   18.8856 C   0  0  1  0  0  0  0  0  0  0  0  0
   18.9510    6.5814   13.0696 C   0  0  2  0  0  0  0  0  0  0  0  0
   19.3611    6.4974   11.6023 C   0  0  1  0  0  0  0  0  0  0  0  0
  1  3  1  0  0  0  0
  4  1  1  1  0  0  0
  4  6  1  0  0  0  0
  4 31  1  0  0  0  0
  6  7  1  0  0  0  0
  7  9  1  1  0  0  0
  7 30  1  0  0  0  0
  8 26  1  0  0  0  0
 10  9  1  6  0  0  0
 10 13  1  0  0  0  0
 10 21  1  0  0  0  0
 13 12  1  1  0  0  0
 13 15  1  0  0  0  0
 15  2  1  6  0  0  0
 15 17  1  0  0  0  0
 16 25  1  0  0  0  0
 16 23  1  0  0  0  0
 17 19  1  0  0  0  0
 19  5  1  6  0  0  0
 19 21  1  0  0  0  0
 21 14  1  1  0  0  0
 23 14  1  6  0  0  0
 23 29  1  0  0  0  0
 25 26  1  1  0  0  0
 25 27  1  0  0  0  0
 27 18  1  6  0  0  0
 27 28  1  0  0  0  0
 28 20  1  1  0  0  0
 28 29  1  0  0  0  0
 29 11  1  6  0  0  0
 30 22  1  1  0  0  0
 30 31  1  0  0  0  0
 31 24  1  1  0  0  0
M  END
>  <CHROM.1>
60.85185860,-108.90419843,57.13441746,70.10033017,-60.70168252,171.56858181
19.74704376,6.56468444,15.65449836,1.05410617,0.27297998,-1.12828298

>  <Name>
ligand

>  <RI>
0

>  <Rbt.Current_Directory>
/home/itssahil/PROJECTS/Mol_Feturizer/New_Systems/rnas/3DVV

>  <Rbt.Executable>
rbdock ($Id: //depot/dev/client3/rdock/2013.1/src/exe/rbdock.cxx#4 $)

>  <Rbt.Library>
libRbt.so (2013.1, Build901 2013/11/27)

>  <Rbt.Parameter_File>
/export/apps/rDock/src/rDock_2013.1_src/data/scripts/dock_solv.prm

>  <Rbt.Receptor>
prm/pocket_docking_8.prm

>  <SCORE>
-7.43356

>  <SCORE.INTER>
-8.44658

>  <SCORE.INTER.CONST>
1

>  <SCORE.INTER.POLAR>
0

>  <SCORE.INTER.ROT>
6

>  <SCORE.INTER.SOLV>
22.4131

>  <SCORE.INTER.VDW>
-20.7021

>  <SCORE.INTER.norm>
-0.27247

>  <SCORE.INTRA>
1.01302

>  <SCORE.INTRA.DIHEDRAL>
-3.43754

>  <SCORE.INTRA.DIHEDRAL.0>
10.8172

>  <SCORE.INTRA.POLAR>
0

>  <SCORE.INTRA.POLAR.0>
0

>  <SCORE.INTRA.REPUL>
0

>  <SCORE.INTRA.REPUL.0>
0

>  <SCORE.INTRA.SOLV>
-2.0736

>  <SCORE.INTRA.SOLV.lig_0>
-80.3833

>  <SCORE.INTRA.VDW>
3.76859

>  <SCORE.INTRA.VDW.0>
-4.63762

>  <SCORE.INTRA.norm>
0.0326782

>  <SCORE.RESTR>
0

>  <SCORE.RESTR.CAVITY>
0

>  <SCORE.RESTR.norm>
0

>  <SCORE.SYSTEM>
0

>  <SCORE.SYSTEM.CONST>
0

>  <SCORE.SYSTEM.DIHEDRAL>
0

>  <SCORE.SYSTEM.SOLV>
0

>  <SCORE.SYSTEM.norm>
0

>  <SCORE.heavy>
31

>  <SCORE.norm>
-0.239792

>  <RMSD>
6.613

$$$$
ligand
 OpenBabel11021811473D
libRbt.so/2013.1/901 2013/11/27
 31 33  0  0  0  0  0  0  0  0999 V2000
   17.3030    2.2391   12.0270 C   0  0  0  0  0  0  0  0  0  0  0  0
   24.7446    4.4730   16.3706 N   0  0  0  0  0  0  0  0  0  0  0  0
   16.6013    1.5445   10.9906 O   0  0  0  0  0  0  0  0  0  0  0  0
   18.8129    2.1553   11.7894 C   0  0  1  0  0  0  0  0  0  0  0  0
   20.3549    6.0398   17.8470 N   0  0  0  0  0  0  0  0  0  0  0  0
   19.5170    2.9014   12.8013 O   0  0  0  0  0  0  0  0  0  0  0  0
   20.4800    2.0329   13.4244 C   0  0  1  0  0  0  0  0  0  0  0  0
   15.9728    2.8412   18.9014 N   0  0  0  0  0  0  0  0  0  0  0  0
   20.6611    2.3497   14.8136 O   0  0  0  0  0  0  0  0  0  0  0  0
   21.2614    3.6335   15.0403 C   0  0  2  0  0  0  0  0  0  0  0  0
   17.2617    5.1626   13.5182 N   0  0  0  0  0  0  0  0  0  0  0  0
   23.4614    2.7911   14.4989 O   0  0  0  0  0  0  0  0  0  0  0  0
   22.6880    3.3864   15.5444 C   0  0  1  0  0  0  0  0  0  0  0  0
   19.1860    4.8779   15.5149 O   0  0  0  0  0  0  0  0  0  0  0  0
   23.3467    4.6992   15.9728 C   0  0  1  0  0  0  0  0  0  0  0  0
   17.8195    3.4171   16.7546 O   0  0  0  0  0  0  0  0  0  0  0  0
   22.5596    5.2973   17.1390 C   0  0  0  0  0  0  0  0  0  0  0  0
   15.6792    6.1224   18.0102 O   0  0  0  0  0  0  0  0  0  0  0  0
   21.1320    5.6038   16.6768 C   0  0  1  0  0  0  0  0  0  0  0  0
   15.0805    6.1002   15.1985 O   0  0  0  0  0  0  0  0  0  0  0  0
   20.4219    4.3898   16.0655 C   0  0  2  0  0  0  0  0  0  0  0  0
   20.7604   -0.4119   13.4699 O   0  0  0  0  0  0  0  0  0  0  0  0
   18.1351    3.9020   15.4364 C   0  0  1  0  0  0  0  0  0  0  0  0
   20.3425    0.4022   10.9879 O   0  0  0  0  0  0  0  0  0  0  0  0
   17.3726    4.4351   17.6663 C   0  0  2  0  0  0  0  0  0  0  0  0
   17.0841    3.7977   19.0276 C   0  0  0  0  0  0  0  0  0  0  0  0
   16.0856    5.0679   17.1339 C   0  0  2  0  0  0  0  0  0  0  0  0
   16.3247    5.6372   15.7340 C   0  0  1  0  0  0  0  0  0  0  0  0
   16.9009    4.5604   14.8108 C   0  0  1  0  0  0  0  0  0  0  0  0
   19.8229    0.6577   13.3262 C   0  0  2  0  0  0  0  0  0  0  0  0
   19.2830    0.7021   11.8999 C   0  0  1  0  0  0  0  0  0  0  0  0
  1  3  1  0  0  0  0
  4  1  1  1  0  0  0
  4  6  1  0  0  0  0
  4 31  1  0  0  0  0
  6  7  1  0  0  0  0
  7  9  1  1  0  0  0
  7 30  1  0  0  0  0
  8 26  1  0  0  0  0
 10  9  1  1  0  0  0
 10 13  1  0  0  0  0
 10 21  1  0  0  0  0
 13 12  1  6  0  0  0
 13 15  1  0  0  0  0
 15  2  1  1  0  0  0
 15 17  1  0  0  0  0
 16 25  1  0  0  0  0
 16 23  1  0  0  0  0
 17 19  1  0  0  0  0
 19  5  1  1  0  0  0
 19 21  1  0  0  0  0
 21 14  1  6  0  0  0
 23 14  1  1  0  0  0
 23 29  1  0  0  0  0
 25 26  1  1  0  0  0
 25 27  1  0  0  0  0
 27 18  1  1  0  0  0
 27 28  1  0  0  0  0
 28 20  1  6  0  0  0
 28 29  1  0  0  0  0
 29 11  1  6  0  0  0
 30 22  1  6  0  0  0
 30 31  1  0  0  0  0
 31 24  1  6  0  0  0
M  END
>  <CHROM.1>
177.60859729,-66.37830956,-108.69538982,60.65074581,80.95809106,-63.97977641
19.21954404,3.54708218,15.07537381,0.93336850,0.08149306,-2.18912271

>  <Name>
ligand

>  <RI>
0

>  <Rbt.Current_Directory>
/home/itssahil/PROJECTS/Mol_Feturizer/New_Systems/rnas/3DVV

>  <Rbt.Executable>
rbdock ($Id: //depot/dev/client3/rdock/2013.1/src/exe/rbdock.cxx#4 $)

>  <Rbt.Library>
libRbt.so (2013.1, Build901 2013/11/27)

>  <Rbt.Parameter_File>
/export/apps/rDock/src/rDock_2013.1_src/data/scripts/dock_solv.prm

>  <Rbt.Receptor>
prm/pocket_docking_4.prm

>  <SCORE>
-2.63577

>  <SCORE.INTER>
-2.11679

>  <SCORE.INTER.CONST>
1

>  <SCORE.INTER.POLAR>
0

>  <SCORE.INTER.ROT>
6

>  <SCORE.INTER.SOLV>
16.5525

>  <SCORE.INTER.VDW>
-14.5287

>  <SCORE.INTER.norm>
-0.0682834

>  <SCORE.INTRA>
-0.518985

>  <SCORE.INTRA.DIHEDRAL>
-1.78791

>  <SCORE.INTRA.DIHEDRAL.0>
10.8172

>  <SCORE.INTRA.POLAR>
0

>  <SCORE.INTRA.POLAR.0>
0

>  <SCORE.INTRA.REPUL>
0

>  <SCORE.INTRA.REPUL.0>
0

>  <SCORE.INTRA.SOLV>
0.223087

>  <SCORE.INTRA.SOLV.lig_0>
-80.3833

>  <SCORE.INTRA.VDW>
0.263426

>  <SCORE.INTRA.VDW.0>
-4.63762

>  <SCORE.INTRA.norm>
-0.0167414

>  <SCORE.RESTR>
0

>  <SCORE.RESTR.CAVITY>
0

>  <SCORE.RESTR.norm>
0

>  <SCORE.SYSTEM>
0

>  <SCORE.SYSTEM.CONST>
0

>  <SCORE.SYSTEM.DIHEDRAL>
0

>  <SCORE.SYSTEM.SOLV>
0

>  <SCORE.SYSTEM.norm>
0

>  <SCORE.heavy>
31

>  <SCORE.norm>
-0.0850248

>  <RMSD>
6.620

$$$$
ligand
 OpenBabel11021811473D
libRbt.so/2013.1/901 2013/11/27
 31 33  0  0  0  0  0  0  0  0999 V2000
   18.9526    9.2928   13.3108 C   0  0  0  0  0  0  0  0  0  0  0  0
   22.7022    6.0878   17.1897 N   0  0  0  0  0  0  0  0  0  0  0  0
   19.6562    9.8544   14.4237 O   0  0  0  0  0  0  0  0  0  0  0  0
   19.7316    8.1057   12.7388 C   0  0  1  0  0  0  0  0  0  0  0  0
   22.8939    2.4479   13.9312 N   0  0  0  0  0  0  0  0  0  0  0  0
   19.9407    7.1105   13.7597 O   0  0  0  0  0  0  0  0  0  0  0  0
   19.4384    5.8502   13.2810 C   0  0  1  0  0  0  0  0  0  0  0  0
   19.3364    1.9030    8.9374 N   0  0  0  0  0  0  0  0  0  0  0  0
   18.8999    5.0529   14.3474 O   0  0  0  0  0  0  0  0  0  0  0  0
   19.9009    4.4434   15.1759 C   0  0  2  0  0  0  0  0  0  0  0  0
   17.6574    1.0082   14.6323 N   0  0  0  0  0  0  0  0  0  0  0  0
   19.9376    6.3433   16.6698 O   0  0  0  0  0  0  0  0  0  0  0  0
   20.7457    5.5736   15.7754 C   0  0  1  0  0  0  0  0  0  0  0  0
   20.0427    2.2933   13.9768 O   0  0  0  0  0  0  0  0  0  0  0  0
   21.9441    5.0078   16.5400 C   0  0  1  0  0  0  0  0  0  0  0  0
   19.3577    2.6335   11.7513 O   0  0  0  0  0  0  0  0  0  0  0  0
   22.8448    4.2464   15.5671 C   0  0  0  0  0  0  0  0  0  0  0  0
   19.9747   -0.8553   10.7901 O   0  0  0  0  0  0  0  0  0  0  0  0
   22.0602    3.0756   14.9677 C   0  0  1  0  0  0  0  0  0  0  0  0
   17.7680   -1.0873   12.6180 O   0  0  0  0  0  0  0  0  0  0  0  0
   20.7406    3.5047   14.3148 C   0  0  2  0  0  0  0  0  0  0  0  0
   17.9312    5.2299   11.4367 O   0  0  0  0  0  0  0  0  0  0  0  0
   18.9113    2.4721   13.1104 C   0  0  1  0  0  0  0  0  0  0  0  0
   19.7582    6.9370   10.5733 O   0  0  0  0  0  0  0  0  0  0  0  0
   20.1004    1.5148   11.2376 C   0  0  2  0  0  0  0  0  0  0  0  0
   20.5266    1.8139    9.7984 C   0  0  0  0  0  0  0  0  0  0  0  0
   19.2138    0.2682   11.2416 C   0  0  2  0  0  0  0  0  0  0  0  0
   18.7022   -0.0035   12.6578 C   0  0  1  0  0  0  0  0  0  0  0  0
   18.0086    1.2390   13.2226 C   0  0  1  0  0  0  0  0  0  0  0  0
   18.2910    6.2602   12.3601 C   0  0  2  0  0  0  0  0  0  0  0  0
   18.9250    7.4359   11.6227 C   0  0  1  0  0  0  0  0  0  0  0  0
  1  3  1  0  0  0  0
  4  1  1  1  0  0  0
  4  6  1  0  0  0  0
  4 31  1  0  0  0  0
  6  7  1  0  0  0  0
  7  9  1  1  0  0  0
  7 30  1  0  0  0  0
  8 26  1  0  0  0  0
 10  9  1  6  0  0  0
 10 13  1  0  0  0  0
 10 21  1  0  0  0  0
 13 12  1  1  0  0  0
 13 15  1  0  0  0  0
 15  2  1  6  0  0  0
 15 17  1  0  0  0  0
 16 25  1  0  0  0  0
 16 23  1  0  0  0  0
 17 19  1  0  0  0  0
 19  5  1  6  0  0  0
 19 21  1  0  0  0  0
 21 14  1  1  0  0  0
 23 14  1  1  0  0  0
 23 29  1  0  0  0  0
 25 26  1  6  0  0  0
 25 27  1  0  0  0  0
 27 18  1  1  0  0  0
 27 28  1  0  0  0  0
 28 20  1  6  0  0  0
 28 29  1  0  0  0  0
 29 11  1  1  0  0  0
 30 22  1  6  0  0  0
 30 31  1  0  0  0  0
 31 24  1  6  0  0  0
M  END
>  <CHROM.1>
57.76862498,-75.51626685,59.38451837,78.84705642,66.78129610,-65.68714739
19.81462675,4.05256737,13.27253751,1.29087736,-1.09444769,0.12052910

>  <Name>
ligand

>  <RI>
0

>  <Rbt.Current_Directory>
/home/itssahil/PROJECTS/Mol_Feturizer/New_Systems/rnas/3DVV

>  <Rbt.Executable>
rbdock ($Id: //depot/dev/client3/rdock/2013.1/src/exe/rbdock.cxx#4 $)

>  <Rbt.Library>
libRbt.so (2013.1, Build901 2013/11/27)

>  <Rbt.Parameter_File>
/export/apps/rDock/src/rDock_2013.1_src/data/scripts/dock_solv.prm

>  <Rbt.Receptor>
prm/blind_docking_80.prm

>  <SCORE>
-1.38151

>  <SCORE.INTER>
0.138452

>  <SCORE.INTER.CONST>
1

>  <SCORE.INTER.POLAR>
0

>  <SCORE.INTER.ROT>
6

>  <SCORE.INTER.SOLV>
26.6267

>  <SCORE.INTER.VDW>
-16.3833

>  <SCORE.INTER.norm>
0.00446618

>  <SCORE.INTRA>
-1.55927

>  <SCORE.INTRA.DIHEDRAL>
-7.50197

>  <SCORE.INTRA.DIHEDRAL.0>
10.8172

>  <SCORE.INTRA.POLAR>
0

>  <SCORE.INTRA.POLAR.0>
0

>  <SCORE.INTRA.REPUL>
0

>  <SCORE.INTRA.REPUL.0>
0

>  <SCORE.INTRA.SOLV>
-1.90515

>  <SCORE.INTRA.SOLV.lig_0>
-80.3833

>  <SCORE.INTRA.VDW>
3.14429

>  <SCORE.INTRA.VDW.0>
-4.63762

>  <SCORE.INTRA.norm>
-0.050299

>  <SCORE.RESTR>
0.0393044

>  <SCORE.RESTR.CAVITY>
0.0393044

>  <SCORE.RESTR.norm>
0.00126789

>  <SCORE.SYSTEM>
0

>  <SCORE.SYSTEM.CONST>
0

>  <SCORE.SYSTEM.DIHEDRAL>
0

>  <SCORE.SYSTEM.SOLV>
0

>  <SCORE.SYSTEM.norm>
0

>  <SCORE.heavy>
31

>  <SCORE.norm>
-0.0445649

>  <RMSD>
6.628

$$$$
ligand
 OpenBabel11021811473D
libRbt.so/2013.1/901 2013/11/27
 31 33  0  0  0  0  0  0  0  0999 V2000
   14.6072    1.5786   12.3293 C   0  0  0  0  0  0  0  0  0  0  0  0
   12.4344    4.9676   16.8211 N   0  0  0  0  0  0  0  0  0  0  0  0
   14.4692    0.7264   11.1876 O   0  0  0  0  0  0  0  0  0  0  0  0
   14.5696    3.0472   11.8990 C   0  0  1  0  0  0  0  0  0  0  0  0
   13.3984    8.8272   13.9790 N   0  0  0  0  0  0  0  0  0  0  0  0
   14.6798    3.9053   13.0513 O   0  0  0  0  0  0  0  0  0  0  0  0
   15.7778    4.8116   12.8446 C   0  0  1  0  0  0  0  0  0  0  0  0
   18.3651    5.4099   16.7999 N   0  0  0  0  0  0  0  0  0  0  0  0
   16.4409    5.1332   14.0774 O   0  0  0  0  0  0  0  0  0  0  0  0
   15.6429    5.9188   14.9753 C   0  0  2  0  0  0  0  0  0  0  0  0
   16.6849   10.8624   13.8256 N   0  0  0  0  0  0  0  0  0  0  0  0
   15.0141    3.9665   16.2542 O   0  0  0  0  0  0  0  0  0  0  0  0
   14.4894    5.0303   15.4553 C   0  0  1  0  0  0  0  0  0  0  0  0
   16.1675    8.1301   14.0182 O   0  0  0  0  0  0  0  0  0  0  0  0
   13.4916    5.8393   16.2864 C   0  0  1  0  0  0  0  0  0  0  0  0
   17.3502    7.9531   16.0450 O   0  0  0  0  0  0  0  0  0  0  0  0
   12.8779    6.9308   15.4093 C   0  0  0  0  0  0  0  0  0  0  0  0
   20.6310    8.0878   14.4035 O   0  0  0  0  0  0  0  0  0  0  0  0
   13.9858    7.8756   14.9344 C   0  0  1  0  0  0  0  0  0  0  0  0
   19.5881   10.7268   13.9423 O   0  0  0  0  0  0  0  0  0  0  0  0
   15.1368    7.1490   14.2281 C   0  0  2  0  0  0  0  0  0  0  0  0
   17.6799    4.8230   11.2827 O   0  0  0  0  0  0  0  0  0  0  0  0
   16.5816    8.8307   15.2015 C   0  0  1  0  0  0  0  0  0  0  0  0
   15.4402    4.3074    9.9729 O   0  0  0  0  0  0  0  0  0  0  0  0
   18.5431    7.4383   15.4292 C   0  0  2  0  0  0  0  0  0  0  0  0
   19.2591    6.5144   16.4172 C   0  0  0  0  0  0  0  0  0  0  0  0
   19.4748    8.5981   15.0727 C   0  0  2  0  0  0  0  0  0  0  0  0
   18.7519    9.5842   14.1529 C   0  0  1  0  0  0  0  0  0  0  0  0
   17.4325   10.0352   14.7851 C   0  0  1  0  0  0  0  0  0  0  0  0
   16.7395    4.0011   11.9782 C   0  0  2  0  0  0  0  0  0  0  0  0
   15.7647    3.3610   10.9944 C   0  0  1  0  0  0  0  0  0  0  0  0
  1  3  1  0  0  0  0
  4  1  1  1  0  0  0
  4  6  1  0  0  0  0
  4 31  1  0  0  0  0
  6  7  1  0  0  0  0
  7  9  1  1  0  0  0
  7 30  1  0  0  0  0
  8 26  1  0  0  0  0
 10  9  1  6  0  0  0
 10 13  1  0  0  0  0
 10 21  1  0  0  0  0
 13 12  1  1  0  0  0
 13 15  1  0  0  0  0
 15  2  1  6  0  0  0
 15 17  1  0  0  0  0
 16 25  1  0  0  0  0
 16 23  1  0  0  0  0
 17 19  1  0  0  0  0
 19  5  1  6  0  0  0
 19 21  1  0  0  0  0
 21 14  1  1  0  0  0
 23 14  1  6  0  0  0
 23 29  1  0  0  0  0
 25 26  1  1  0  0  0
 25 27  1  0  0  0  0
 27 18  1  6  0  0  0
 27 28  1  0  0  0  0
 28 20  1  1  0  0  0
 28 29  1  0  0  0  0
 29 11  1  6  0  0  0
 30 22  1  6  0  0  0
 30 31  1  0  0  0  0
 31 24  1  6  0  0  0
M  END
>  <CHROM.1>
178.77662718,-68.00081713,67.95279382,72.20861572,-71.45928749,59.08150712
16.20235088,6.23910699,14.09792570,-2.13662948,0.47553563,0.66493928

>  <Name>
ligand

>  <RI>
0

>  <Rbt.Current_Directory>
/home/itssahil/PROJECTS/Mol_Feturizer/New_Systems/rnas/3DVV

>  <Rbt.Executable>
rbdock ($Id: //depot/dev/client3/rdock/2013.1/src/exe/rbdock.cxx#4 $)

>  <Rbt.Library>
libRbt.so (2013.1, Build901 2013/11/27)

>  <Rbt.Parameter_File>
/export/apps/rDock/src/rDock_2013.1_src/data/scripts/dock_solv.prm

>  <Rbt.Receptor>
prm/pocket_docking_8.prm

>  <SCORE>
-1.26912

>  <SCORE.INTER>
-0.917621

>  <SCORE.INTER.CONST>
1

>  <SCORE.INTER.POLAR>
0

>  <SCORE.INTER.ROT>
6

>  <SCORE.INTER.SOLV>
10.334

>  <SCORE.INTER.VDW>
-11.6564

>  <SCORE.INTER.norm>
-0.0296007

>  <SCORE.INTRA>
-0.351495

>  <SCORE.INTRA.DIHEDRAL>
-8.60811

>  <SCORE.INTRA.DIHEDRAL.0>
10.8172

>  <SCORE.INTRA.POLAR>
0

>  <SCORE.INTRA.POLAR.0>
0

>  <SCORE.INTRA.REPUL>
0

>  <SCORE.INTRA.REPUL.0>
0

>  <SCORE.INTRA.SOLV>
-0.743819

>  <SCORE.INTRA.SOLV.lig_0>
-80.3833

>  <SCORE.INTRA.VDW>
4.32447

>  <SCORE.INTRA.VDW.0>
-4.63762

>  <SCORE.INTRA.norm>
-0.0113385

>  <SCORE.RESTR>
0

>  <SCORE.RESTR.CAVITY>
0

>  <SCORE.RESTR.norm>
0

>  <SCORE.SYSTEM>
0

>  <SCORE.SYSTEM.CONST>
0

>  <SCORE.SYSTEM.DIHEDRAL>
0

>  <SCORE.SYSTEM.SOLV>
0

>  <SCORE.SYSTEM.norm>
0

>  <SCORE.heavy>
31

>  <SCORE.norm>
-0.0409392

>  <RMSD>
6.659

$$$$
ligand
 OpenBabel11021811473D
libRbt.so/2013.1/901 2013/11/27
 31 33  0  0  0  0  0  0  0  0999 V2000
   11.5713    5.3699   19.6721 C   0  0  0  0  0  0  0  0  0  0  0  0
   14.2881    3.7041   11.5115 N   0  0  0  0  0  0  0  0  0  0  0  0
   12.9320    5.7201   19.9456 O   0  0  0  0  0  0  0  0  0  0  0  0
   11.5131    4.2686   18.6105 C   0  0  1  0  0  0  0  0  0  0  0  0
   15.5392    8.0382   13.3967 N   0  0  0  0  0  0  0  0  0  0  0  0
   12.0960    4.7354   17.3782 O   0  0  0  0  0  0  0  0  0  0  0  0
   13.1258    3.8131   16.9799 C   0  0  1  0  0  0  0  0  0  0  0  0
   17.9913    6.7013   17.6476 N   0  0  0  0  0  0  0  0  0  0  0  0
   14.2056    4.4799   16.3072 O   0  0  0  0  0  0  0  0  0  0  0  0
   13.8303    5.0672   15.0526 C   0  0  2  0  0  0  0  0  0  0  0  0
   11.8108    8.4088   17.1274 N   0  0  0  0  0  0  0  0  0  0  0  0
   13.4066    2.8991   14.0715 O   0  0  0  0  0  0  0  0  0  0  0  0
   14.2151    4.0727   13.9511 C   0  0  1  0  0  0  0  0  0  0  0  0
   14.0187    7.4291   15.7360 O   0  0  0  0  0  0  0  0  0  0  0  0
   14.0048    4.6890   12.5666 C   0  0  1  0  0  0  0  0  0  0  0  0
   15.1622    6.9116   17.7266 O   0  0  0  0  0  0  0  0  0  0  0  0
   14.9237    5.9013   12.4131 C   0  0  0  0  0  0  0  0  0  0  0  0
   16.0540   10.4104   18.3899 O   0  0  0  0  0  0  0  0  0  0  0  0
   14.5536    6.9489   13.4672 C   0  0  1  0  0  0  0  0  0  0  0  0
   13.1970   10.4181   18.7093 O   0  0  0  0  0  0  0  0  0  0  0  0
   14.5644    6.3957   14.8975 C   0  0  2  0  0  0  0  0  0  0  0  0
   14.3502    2.0405   18.1702 O   0  0  0  0  0  0  0  0  0  0  0  0
   13.8671    7.0660   17.1173 C   0  0  1  0  0  0  0  0  0  0  0  0
   11.7570    1.8201   18.6441 O   0  0  0  0  0  0  0  0  0  0  0  0
   15.9736    8.0982   17.6966 C   0  0  2  0  0  0  0  0  0  0  0  0
   17.3211    7.8015   18.3589 C   0  0  0  0  0  0  0  0  0  0  0  0
   15.2750    9.2142   18.4755 C   0  0  2  0  0  0  0  0  0  0  0  0
   13.8865    9.4714   17.8862 C   0  0  1  0  0  0  0  0  0  0  0  0
   13.0806    8.1709   17.8307 C   0  0  1  0  0  0  0  0  0  0  0  0
   13.6466    3.2768   18.3117 C   0  0  2  0  0  0  0  0  0  0  0  0
   12.3361    3.0588   19.0621 C   0  0  1  0  0  0  0  0  0  0  0  0
  1  3  1  0  0  0  0
  4  1  1  1  0  0  0
  4  6  1  0  0  0  0
  4 31  1  0  0  0  0
  6  7  1  0  0  0  0
  7  9  1  1  0  0  0
  7 30  1  0  0  0  0
  8 26  1  0  0  0  0
 10  9  1  1  0  0  0
 10 13  1  0  0  0  0
 10 21  1  0  0  0  0
 13 12  1  6  0  0  0
 13 15  1  0  0  0  0
 15  2  1  6  0  0  0
 15 17  1  0  0  0  0
 16 25  1  0  0  0  0
 16 23  1  0  0  0  0
 17 19  1  0  0  0  0
 19  5  1  1  0  0  0
 19 21  1  0  0  0  0
 21 14  1  1  0  0  0
 23 14  1  6  0  0  0
 23 29  1  0  0  0  0
 25 26  1  1  0  0  0
 25 27  1  0  0  0  0
 27 18  1  6  0  0  0
 27 28  1  0  0  0  0
 28 20  1  1  0  0  0
 28 29  1  0  0  0  0
 29 11  1  6  0  0  0
 30 22  1  6  0  0  0
 30 31  1  0  0  0  0
 31 24  1  6  0  0  0
M  END
>  <CHROM.1>
-61.59534014,-65.20233032,-96.85952492,68.44530296,50.83464022,58.84182476
14.00790903,5.99948887,16.72209903,1.01549603,1.09865091,0.94146021

>  <Name>
ligand

>  <RI>
0

>  <Rbt.Current_Directory>
/home/itssahil/PROJECTS/Mol_Feturizer/New_Systems/rnas/3DVV

>  <Rbt.Executable>
rbdock ($Id: //depot/dev/client3/rdock/2013.1/src/exe/rbdock.cxx#4 $)

>  <Rbt.Library>
libRbt.so (2013.1, Build901 2013/11/27)

>  <Rbt.Parameter_File>
/export/apps/rDock/src/rDock_2013.1_src/data/scripts/dock_solv.prm

>  <Rbt.Receptor>
prm/pocket_docking_7.prm

>  <SCORE>
-5.99173

>  <SCORE.INTER>
-3.42763

>  <SCORE.INTER.CONST>
1

>  <SCORE.INTER.POLAR>
0

>  <SCORE.INTER.ROT>
6

>  <SCORE.INTER.SOLV>
9.85805

>  <SCORE.INTER.VDW>
-13.1711

>  <SCORE.INTER.norm>
-0.110569

>  <SCORE.INTRA>
-2.5641

>  <SCORE.INTRA.DIHEDRAL>
-4.80053

>  <SCORE.INTRA.DIHEDRAL.0>
10.8172

>  <SCORE.INTRA.POLAR>
0

>  <SCORE.INTRA.POLAR.0>
0

>  <SCORE.INTRA.REPUL>
0

>  <SCORE.INTRA.REPUL.0>
0

>  <SCORE.INTRA.SOLV>
-2.30651

>  <SCORE.INTRA.SOLV.lig_0>
-80.3833

>  <SCORE.INTRA.VDW>
0.98942

>  <SCORE.INTRA.VDW.0>
-4.63762

>  <SCORE.INTRA.norm>
-0.082713

>  <SCORE.RESTR>
0

>  <SCORE.RESTR.CAVITY>
0

>  <SCORE.RESTR.norm>
0

>  <SCORE.SYSTEM>
0

>  <SCORE.SYSTEM.CONST>
0

>  <SCORE.SYSTEM.DIHEDRAL>
0

>  <SCORE.SYSTEM.SOLV>
0

>  <SCORE.SYSTEM.norm>
0

>  <SCORE.heavy>
31

>  <SCORE.norm>
-0.193282

>  <RMSD>
6.660

$$$$
ligand
 OpenBabel11021811473D
libRbt.so/2013.1/901 2013/11/27
 31 33  0  0  0  0  0  0  0  0999 V2000
   19.4077   10.9284   11.5333 C   0  0  0  0  0  0  0  0  0  0  0  0
   22.3544    5.3433   17.4419 N   0  0  0  0  0  0  0  0  0  0  0  0
   19.9090   11.2559   12.8334 O   0  0  0  0  0  0  0  0  0  0  0  0
   18.6404    9.6047   11.5817 C   0  0  1  0  0  0  0  0  0  0  0  0
   20.0141    2.4143   14.3038 N   0  0  0  0  0  0  0  0  0  0  0  0
   19.5620    8.4979   11.6272 O   0  0  0  0  0  0  0  0  0  0  0  0
   19.2434    7.6828   12.7691 C   0  0  1  0  0  0  0  0  0  0  0  0
   20.3731    2.2941    9.1819 N   0  0  0  0  0  0  0  0  0  0  0  0
   20.4182    7.0855   13.3402 O   0  0  0  0  0  0  0  0  0  0  0  0
   20.1440    6.2158   14.4486 C   0  0  2  0  0  0  0  0  0  0  0  0
   16.2184    5.4904   12.0981 N   0  0  0  0  0  0  0  0  0  0  0  0
   21.4726    7.5710   15.9456 O   0  0  0  0  0  0  0  0  0  0  0  0
   21.3631    6.2633   15.3770 C   0  0  1  0  0  0  0  0  0  0  0  0
   18.6103    4.6799   13.2782 O   0  0  0  0  0  0  0  0  0  0  0  0
   21.2285    5.2348   16.5017 C   0  0  1  0  0  0  0  0  0  0  0  0
   19.5512    4.1061   11.1989 O   0  0  0  0  0  0  0  0  0  0  0  0
   21.1847    3.8321   15.8952 C   0  0  0  0  0  0  0  0  0  0  0  0
   17.6297    0.9894   10.9348 O   0  0  0  0  0  0  0  0  0  0  0  0
   19.9569    3.7154   14.9872 C   0  0  1  0  0  0  0  0  0  0  0  0
   15.5909    3.0051   10.7234 O   0  0  0  0  0  0  0  0  0  0  0  0
   19.8941    4.8089   13.9138 C   0  0  2  0  0  0  0  0  0  0  0  0
   17.8955    8.0717   14.7914 O   0  0  0  0  0  0  0  0  0  0  0  0
   18.6053    4.9594   11.8695 C   0  0  1  0  0  0  0  0  0  0  0  0
   16.5544    8.8533   12.6494 O   0  0  0  0  0  0  0  0  0  0  0  0
   19.2840    2.7009   11.3437 C   0  0  2  0  0  0  0  0  0  0  0  0
   20.3611    1.9063   10.6014 C   0  0  0  0  0  0  0  0  0  0  0  0
   17.9200    2.3750   10.7326 C   0  0  2  0  0  0  0  0  0  0  0  0
   16.8340    3.2220   11.3992 C   0  0  1  0  0  0  0  0  0  0  0  0
   17.1951    4.7079   11.3252 C   0  0  1  0  0  0  0  0  0  0  0  0
   18.6809    8.6903   13.7696 C   0  0  2  0  0  0  0  0  0  0  0  0
   17.7952    9.5330   12.8567 C   0  0  1  0  0  0  0  0  0  0  0  0
  1  3  1  0  0  0  0
  4  1  1  1  0  0  0
  4  6  1  0  0  0  0
  4 31  1  0  0  0  0
  6  7  1  0  0  0  0
  7  9  1  1  0  0  0
  7 30  1  0  0  0  0
  8 26  1  0  0  0  0
 10  9  1  6  0  0  0
 10 13  1  0  0  0  0
 10 21  1  0  0  0  0
 13 12  1  1  0  0  0
 13 15  1  0  0  0  0
 15  2  1  1  0  0  0
 15 17  1  0  0  0  0
 16 25  1  0  0  0  0
 16 23  1  0  0  0  0
 17 19  1  0  0  0  0
 19  5  1  6  0  0  0
 19 21  1  0  0  0  0
 21 14  1  1  0  0  0
 23 14  1  1  0  0  0
 23 29  1  0  0  0  0
 25 26  1  6  0  0  0
 25 27  1  0  0  0  0
 27 18  1  1  0  0  0
 27 28  1  0  0  0  0
 28 20  1  6  0  0  0
 28 29  1  0  0  0  0
 29 11  1  1  0  0  0
 30 22  1  1  0  0  0
 30 31  1  0  0  0  0
 31 24  1  6  0  0  0
M  END
>  <CHROM.1>
-77.16877975,-177.45214111,-150.23878620,56.63637765,90.28066139,-58.36479239
19.14133196,5.71135085,12.93032950,1.33007144,-0.90570911,0.14943817

>  <Name>
ligand

>  <RI>
0

>  <Rbt.Current_Directory>
/home/itssahil/PROJECTS/Mol_Feturizer/New_Systems/rnas/3DVV

>  <Rbt.Executable>
rbdock ($Id: //depot/dev/client3/rdock/2013.1/src/exe/rbdock.cxx#4 $)

>  <Rbt.Library>
libRbt.so (2013.1, Build901 2013/11/27)

>  <Rbt.Parameter_File>
/export/apps/rDock/src/rDock_2013.1_src/data/scripts/dock_solv.prm

>  <Rbt.Receptor>
prm/blind_docking_40.prm

>  <SCORE>
0.666719

>  <SCORE.INTER>
-0.499098

>  <SCORE.INTER.CONST>
1

>  <SCORE.INTER.POLAR>
0

>  <SCORE.INTER.ROT>
6

>  <SCORE.INTER.SOLV>
20.217

>  <SCORE.INTER.VDW>
-14.6717

>  <SCORE.INTER.norm>
-0.0160999

>  <SCORE.INTRA>
1.16135

>  <SCORE.INTRA.DIHEDRAL>
-2.35987

>  <SCORE.INTRA.DIHEDRAL.0>
10.8172

>  <SCORE.INTRA.POLAR>
0

>  <SCORE.INTRA.POLAR.0>
0

>  <SCORE.INTRA.REPUL>
0.0159924

>  <SCORE.INTRA.REPUL.0>
0

>  <SCORE.INTRA.SOLV>
1.29068

>  <SCORE.INTRA.SOLV.lig_0>
-80.3833

>  <SCORE.INTRA.VDW>
1.61598

>  <SCORE.INTRA.VDW.0>
-4.63762

>  <SCORE.INTRA.norm>
0.0374628

>  <SCORE.RESTR>
0.00446937

>  <SCORE.RESTR.CAVITY>
0.00446937

>  <SCORE.RESTR.norm>
0.000144173

>  <SCORE.SYSTEM>
0

>  <SCORE.SYSTEM.CONST>
0

>  <SCORE.SYSTEM.DIHEDRAL>
0

>  <SCORE.SYSTEM.SOLV>
0

>  <SCORE.SYSTEM.norm>
0

>  <SCORE.heavy>
31

>  <SCORE.norm>
0.0215071

>  <RMSD>
6.663

$$$$
ligand
 OpenBabel11021811473D
libRbt.so/2013.1/901 2013/11/27
 31 33  0  0  0  0  0  0  0  0999 V2000
   19.0406    9.4174   13.4230 C   0  0  0  0  0  0  0  0  0  0  0  0
   22.3790    5.6251   17.2317 N   0  0  0  0  0  0  0  0  0  0  0  0
   19.6873    9.8238   14.6336 O   0  0  0  0  0  0  0  0  0  0  0  0
   19.7714    8.2197   12.8110 C   0  0  1  0  0  0  0  0  0  0  0  0
   22.4454    2.2517   13.6935 N   0  0  0  0  0  0  0  0  0  0  0  0
   19.8560    7.1468   13.7692 O   0  0  0  0  0  0  0  0  0  0  0  0
   19.3002    5.9589   13.1776 C   0  0  1  0  0  0  0  0  0  0  0  0
   20.6825    2.5660    9.2735 N   0  0  0  0  0  0  0  0  0  0  0  0
   18.6504    5.1320   14.1558 O   0  0  0  0  0  0  0  0  0  0  0  0
   19.5596    4.3792   14.9723 C   0  0  2  0  0  0  0  0  0  0  0  0
   16.9925    1.6723   14.3710 N   0  0  0  0  0  0  0  0  0  0  0  0
   19.6712    6.1452   16.6188 O   0  0  0  0  0  0  0  0  0  0  0  0
   20.4596    5.3857   15.6985 C   0  0  1  0  0  0  0  0  0  0  0  0
   19.5920    2.3265   13.6060 O   0  0  0  0  0  0  0  0  0  0  0  0
   21.5718    4.6653   16.4633 C   0  0  1  0  0  0  0  0  0  0  0  0
   18.9633    2.5912   11.3537 O   0  0  0  0  0  0  0  0  0  0  0  0
   22.4567    3.9127   15.4694 C   0  0  0  0  0  0  0  0  0  0  0  0
   18.7781   -1.0243   10.7455 O   0  0  0  0  0  0  0  0  0  0  0  0
   21.6136    2.8609   14.7424 C   0  0  1  0  0  0  0  0  0  0  0  0
   16.6044   -0.5820   12.5742 O   0  0  0  0  0  0  0  0  0  0  0  0
   20.3647    3.4465   14.0724 C   0  0  2  0  0  0  0  0  0  0  0  0
   17.8635    5.5685   11.2177 O   0  0  0  0  0  0  0  0  0  0  0  0
   18.5143    2.6662   12.7194 C   0  0  1  0  0  0  0  0  0  0  0  0
   19.8450    7.1982   10.5733 O   0  0  0  0  0  0  0  0  0  0  0  0
   19.4320    1.2910   10.9574 C   0  0  2  0  0  0  0  0  0  0  0  0
   19.8905    1.3462    9.4982 C   0  0  0  0  0  0  0  0  0  0  0  0
   18.2918    0.2784   11.0793 C   0  0  2  0  0  0  0  0  0  0  0  0
   17.7558    0.2665   12.5124 C   0  0  1  0  0  0  0  0  0  0  0  0
   17.3632    1.6808   12.9475 C   0  0  1  0  0  0  0  0  0  0  0  0
   18.2368    6.5077   12.2286 C   0  0  2  0  0  0  0  0  0  0  0  0
   18.9877    7.6830   11.6098 C   0  0  1  0  0  0  0  0  0  0  0  0
  1  3  1  0  0  0  0
  4  1  1  1  0  0  0
  4  6  1  0  0  0  0
  4 31  1  0  0  0  0
  6  7  1  0  0  0  0
  7  9  1  1  0  0  0
  7 30  1  0  0  0  0
  8 26  1  0  0  0  0
 10  9  1  6  0  0  0
 10 13  1  0  0  0  0
 10 21  1  0  0  0  0
 13 12  1  1  0  0  0
 13 15  1  0  0  0  0
 15  2  1  6  0  0  0
 15 17  1  0  0  0  0
 16 25  1  0  0  0  0
 16 23  1  0  0  0  0
 17 19  1  0  0  0  0
 19  5  1  6  0  0  0
 19 21  1  0  0  0  0
 21 14  1  1  0  0  0
 23 14  1  1  0  0  0
 23 29  1  0  0  0  0
 25 26  1  6  0  0  0
 25 27  1  0  0  0  0
 27 18  1  1  0  0  0
 27 28  1  0  0  0  0
 28 20  1  6  0  0  0
 28 29  1  0  0  0  0
 29 11  1  1  0  0  0
 30 22  1  6  0  0  0
 30 31  1  0  0  0  0
 31 24  1  6  0  0  0
M  END
>  <CHROM.1>
55.72565394,-76.76409784,59.72585714,92.58095475,66.28018487,43.76400406
19.48311765,4.09785807,13.15300536,1.09958849,-1.12818371,-0.04655504

>  <Name>
ligand

>  <RI>
0

>  <Rbt.Current_Directory>
/home/itssahil/PROJECTS/Mol_Feturizer/New_Systems/rnas/3DVV

>  <Rbt.Executable>
rbdock ($Id: //depot/dev/client3/rdock/2013.1/src/exe/rbdock.cxx#4 $)

>  <Rbt.Library>
libRbt.so (2013.1, Build901 2013/11/27)

>  <Rbt.Parameter_File>
/export/apps/rDock/src/rDock_2013.1_src/data/scripts/dock_solv.prm

>  <Rbt.Receptor>
prm/blind_docking_40.prm

>  <SCORE>
1.71709

>  <SCORE.INTER>
1.64375

>  <SCORE.INTER.CONST>
1

>  <SCORE.INTER.POLAR>
0

>  <SCORE.INTER.ROT>
6

>  <SCORE.INTER.SOLV>
25.5785

>  <SCORE.INTER.VDW>
-15.0303

>  <SCORE.INTER.norm>
0.0530241

>  <SCORE.INTRA>
-0.448691

>  <SCORE.INTRA.DIHEDRAL>
-4.0707

>  <SCORE.INTRA.DIHEDRAL.0>
10.8172

>  <SCORE.INTRA.POLAR>
0

>  <SCORE.INTRA.POLAR.0>
0

>  <SCORE.INTRA.REPUL>
0

>  <SCORE.INTRA.REPUL.0>
0

>  <SCORE.INTRA.SOLV>
-3.09852

>  <SCORE.INTRA.SOLV.lig_0>
-80.3833

>  <SCORE.INTRA.VDW>
3.13592

>  <SCORE.INTRA.VDW.0>
-4.63762

>  <SCORE.INTRA.norm>
-0.0144739

>  <SCORE.RESTR>
0.522029

>  <SCORE.RESTR.CAVITY>
0.522029

>  <SCORE.RESTR.norm>
0.0168396

>  <SCORE.SYSTEM>
0

>  <SCORE.SYSTEM.CONST>
0

>  <SCORE.SYSTEM.DIHEDRAL>
0

>  <SCORE.SYSTEM.SOLV>
0

>  <SCORE.SYSTEM.norm>
0

>  <SCORE.heavy>
31

>  <SCORE.norm>
0.0553898

>  <RMSD>
6.690

$$$$
ligand
 OpenBabel11021811473D
libRbt.so/2013.1/901 2013/11/27
 31 33  0  0  0  0  0  0  0  0999 V2000
   23.6912    6.5124   15.4942 C   0  0  0  0  0  0  0  0  0  0  0  0
   16.3035    7.9338   11.7975 N   0  0  0  0  0  0  0  0  0  0  0  0
   24.7249    7.3062   16.0860 O   0  0  0  0  0  0  0  0  0  0  0  0
   22.5469    7.4090   15.0144 C   0  0  1  0  0  0  0  0  0  0  0  0
   16.0548    3.0965   12.4627 N   0  0  0  0  0  0  0  0  0  0  0  0
   21.6183    6.6463   14.2192 O   0  0  0  0  0  0  0  0  0  0  0  0
   20.3014    6.8019   14.7772 C   0  0  1  0  0  0  0  0  0  0  0  0
   15.2979    0.5501   12.0667 N   0  0  0  0  0  0  0  0  0  0  0  0
   19.5112    5.6136   14.6143 O   0  0  0  0  0  0  0  0  0  0  0  0
   18.8420    5.5335   13.3472 C   0  0  2  0  0  0  0  0  0  0  0  0
   21.0526    2.1219   14.5293 N   0  0  0  0  0  0  0  0  0  0  0  0
   18.7952    7.9402   13.1279 O   0  0  0  0  0  0  0  0  0  0  0  0
   17.9613    6.7818   13.2177 C   0  0  1  0  0  0  0  0  0  0  0  0
   18.8271    3.0756   13.1481 O   0  0  0  0  0  0  0  0  0  0  0  0
   17.0810    6.6971   11.9692 C   0  0  1  0  0  0  0  0  0  0  0  0
   17.5273    1.2142   13.7675 O   0  0  0  0  0  0  0  0  0  0  0  0
   16.1397    5.4995   12.1004 C   0  0  0  0  0  0  0  0  0  0  0  0
   19.1502   -1.0111   11.3404 O   0  0  0  0  0  0  0  0  0  0  0  0
   16.9698    4.2157   12.1916 C   0  0  1  0  0  0  0  0  0  0  0  0
   21.2704   -0.4566   13.2011 O   0  0  0  0  0  0  0  0  0  0  0  0
   18.0153    4.2516   13.3128 C   0  0  2  0  0  0  0  0  0  0  0  0
   19.4796    7.6060   16.9534 O   0  0  0  0  0  0  0  0  0  0  0  0
   18.6276    2.0619   14.1457 C   0  0  1  0  0  0  0  0  0  0  0  0
   21.2892    9.2819   15.9973 O   0  0  0  0  0  0  0  0  0  0  0  0
   17.7112    0.5326   12.5149 C   0  0  2  0  0  0  0  0  0  0  0  0
   16.4746   -0.3201   12.2216 C   0  0  0  0  0  0  0  0  0  0  0  0
   18.9329   -0.3835   12.6069 C   0  0  2  0  0  0  0  0  0  0  0  0
   20.1700    0.4333   12.9856 C   0  0  1  0  0  0  0  0  0  0  0  0
   19.9108    1.2330   14.2652 C   0  0  1  0  0  0  0  0  0  0  0  0
   20.5756    6.9969   16.2670 C   0  0  2  0  0  0  0  0  0  0  0  0
   21.7650    7.9511   16.2142 C   0  0  1  0  0  0  0  0  0  0  0  0
  1  3  1  0  0  0  0
  4  1  1  1  0  0  0
  4  6  1  0  0  0  0
  4 31  1  0  0  0  0
  6  7  1  0  0  0  0
  7  9  1  1  0  0  0
  7 30  1  0  0  0  0
  8 26  1  0  0  0  0
 10  9  1  1  0  0  0
 10 13  1  0  0  0  0
 10 21  1  0  0  0  0
 13 12  1  6  0  0  0
 13 15  1  0  0  0  0
 15  2  1  1  0  0  0
 15 17  1  0  0  0  0
 16 25  1  0  0  0  0
 16 23  1  0  0  0  0
 17 19  1  0  0  0  0
 19  5  1  1  0  0  0
 19 21  1  0  0  0  0
 21 14  1  6  0  0  0
 23 14  1  6  0  0  0
 23 29  1  0  0  0  0
 25 26  1  1  0  0  0
 25 27  1  0  0  0  0
 27 18  1  6  0  0  0
 27 28  1  0  0  0  0
 28 20  1  1  0  0  0
 28 29  1  0  0  0  0
 29 11  1  6  0  0  0
 30 22  1  1  0  0  0
 30 31  1  0  0  0  0
 31 24  1  6  0  0  0
M  END
>  <CHROM.1>
170.17753059,-85.22991202,-57.64972900,85.83862444,125.91508606,63.18497940
19.28982300,4.31279645,13.76230153,-1.10128822,0.43822345,-2.97567236

>  <Name>
ligand

>  <RI>
0

>  <Rbt.Current_Directory>
/home/itssahil/PROJECTS/Mol_Feturizer/New_Systems/rnas/3DVV

>  <Rbt.Executable>
rbdock ($Id: //depot/dev/client3/rdock/2013.1/src/exe/rbdock.cxx#4 $)

>  <Rbt.Library>
libRbt.so (2013.1, Build901 2013/11/27)

>  <Rbt.Parameter_File>
/export/apps/rDock/src/rDock_2013.1_src/data/scripts/dock_solv.prm

>  <Rbt.Receptor>
prm/blind_docking_100.prm

>  <SCORE>
2.95576

>  <SCORE.INTER>
-3.02004

>  <SCORE.INTER.CONST>
1

>  <SCORE.INTER.POLAR>
0

>  <SCORE.INTER.ROT>
6

>  <SCORE.INTER.SOLV>
20.6124

>  <SCORE.INTER.VDW>
-16.4842

>  <SCORE.INTER.norm>
-0.0974206

>  <SCORE.INTRA>
5.70905

>  <SCORE.INTRA.DIHEDRAL>
2.10555

>  <SCORE.INTRA.DIHEDRAL.0>
10.8172

>  <SCORE.INTRA.POLAR>
0

>  <SCORE.INTRA.POLAR.0>
0

>  <SCORE.INTRA.REPUL>
0

>  <SCORE.INTRA.REPUL.0>
0

>  <SCORE.INTRA.SOLV>
1.10273

>  <SCORE.INTRA.SOLV.lig_0>
-80.3833

>  <SCORE.INTRA.VDW>
4.10491

>  <SCORE.INTRA.VDW.0>
-4.63762

>  <SCORE.INTRA.norm>
0.184163

>  <SCORE.RESTR>
0.266754

>  <SCORE.RESTR.CAVITY>
0.266754

>  <SCORE.RESTR.norm>
0.00860496

>  <SCORE.SYSTEM>
0

>  <SCORE.SYSTEM.CONST>
0

>  <SCORE.SYSTEM.DIHEDRAL>
0

>  <SCORE.SYSTEM.SOLV>
0

>  <SCORE.SYSTEM.norm>
0

>  <SCORE.heavy>
31

>  <SCORE.norm>
0.0953472

>  <RMSD>
6.697

$$$$
ligand
 OpenBabel11021811473D
libRbt.so/2013.1/901 2013/11/27
 31 33  0  0  0  0  0  0  0  0999 V2000
   19.5926    2.1529   10.4519 C   0  0  0  0  0  0  0  0  0  0  0  0
   23.1138    4.5843   17.6537 N   0  0  0  0  0  0  0  0  0  0  0  0
   19.3491    1.1013    9.5119 O   0  0  0  0  0  0  0  0  0  0  0  0
   20.1658    1.5782   11.7497 C   0  0  1  0  0  0  0  0  0  0  0  0
   20.3653    8.1864   15.8167 N   0  0  0  0  0  0  0  0  0  0  0  0
   20.5166    2.6447   12.6529 O   0  0  0  0  0  0  0  0  0  0  0  0
   19.8520    2.4192   13.9088 C   0  0  1  0  0  0  0  0  0  0  0  0
   17.9835   11.3604   13.7314 N   0  0  0  0  0  0  0  0  0  0  0  0
   19.4935    3.6535   14.5497 O   0  0  0  0  0  0  0  0  0  0  0  0
   20.6050    4.5342   14.7709 C   0  0  2  0  0  0  0  0  0  0  0  0
   17.9376    5.7445   11.5770 N   0  0  0  0  0  0  0  0  0  0  0  0
   21.8760    2.7892   15.8581 O   0  0  0  0  0  0  0  0  0  0  0  0
   21.2956    4.0802   16.0622 C   0  0  1  0  0  0  0  0  0  0  0  0
   19.6868    6.5062   13.6094 O   0  0  0  0  0  0  0  0  0  0  0  0
   22.3926    5.0673   16.4663 C   0  0  1  0  0  0  0  0  0  0  0  0
   18.4283    8.4335   14.0991 O   0  0  0  0  0  0  0  0  0  0  0  0
   21.7599    6.4289   16.7545 C   0  0  0  0  0  0  0  0  0  0  0  0
   19.6723   10.2645   11.1706 O   0  0  0  0  0  0  0  0  0  0  0  0
   21.0887    6.9507   15.4806 C   0  0  1  0  0  0  0  0  0  0  0  0
   18.0993    8.1719    9.9825 O   0  0  0  0  0  0  0  0  0  0  0  0
   20.0804    5.9626   14.8816 C   0  0  2  0  0  0  0  0  0  0  0  0
   17.9672    0.9868   14.5824 O   0  0  0  0  0  0  0  0  0  0  0  0
   18.3749    7.0901   13.5844 C   0  0  1  0  0  0  0  0  0  0  0  0
   19.6815   -0.4042   13.1250 O   0  0  0  0  0  0  0  0  0  0  0  0
   19.2888    9.3154   13.3581 C   0  0  2  0  0  0  0  0  0  0  0  0
   19.2689   10.7001   14.0096 C   0  0  0  0  0  0  0  0  0  0  0  0
   18.7787    9.4378   11.9211 C   0  0  2  0  0  0  0  0  0  0  0  0
   18.7061    8.0534   11.2736 C   0  0  1  0  0  0  0  0  0  0  0  0
   17.8721    7.1032   12.1369 C   0  0  1  0  0  0  0  0  0  0  0  0
   18.5688    1.6994   13.4990 C   0  0  2  0  0  0  0  0  0  0  0  0
   19.1103    0.7241   12.4580 C   0  0  1  0  0  0  0  0  0  0  0  0
  1  3  1  0  0  0  0
  4  1  1  6  0  0  0
  4  6  1  0  0  0  0
  4 31  1  0  0  0  0
  6  7  1  0  0  0  0
  7  9  1  6  0  0  0
  7 30  1  0  0  0  0
  8 26  1  0  0  0  0
 10  9  1  1  0  0  0
 10 13  1  0  0  0  0
 10 21  1  0  0  0  0
 13 12  1  6  0  0  0
 13 15  1  0  0  0  0
 15  2  1  1  0  0  0
 15 17  1  0  0  0  0
 16 25  1  0  0  0  0
 16 23  1  0  0  0  0
 17 19  1  0  0  0  0
 19  5  1  1  0  0  0
 19 21  1  0  0  0  0
 21 14  1  6  0  0  0
 23 14  1  6  0  0  0
 23 29  1  0  0  0  0
 25 26  1  1  0  0  0
 25 27  1  0  0  0  0
 27 18  1  6  0  0  0
 27 28  1  0  0  0  0
 28 20  1  6  0  0  0
 28 29  1  0  0  0  0
 29 11  1  6  0  0  0
 30 22  1  1  0  0  0
 30 31  1  0  0  0  0
 31 24  1  1  0  0  0
M  END
>  <CHROM.1>
175.15146249,-56.56563293,-82.72468095,82.19879461,129.43950950,-72.97033770
19.69778030,5.35658044,13.53737078,1.34982442,1.07028746,-2.96485842

>  <Name>
ligand

>  <RI>
0

>  <Rbt.Current_Directory>
/home/itssahil/PROJECTS/Mol_Feturizer/New_Systems/rnas/3DVV

>  <Rbt.Executable>
rbdock ($Id: //depot/dev/client3/rdock/2013.1/src/exe/rbdock.cxx#4 $)

>  <Rbt.Library>
libRbt.so (2013.1, Build901 2013/11/27)

>  <Rbt.Parameter_File>
/export/apps/rDock/src/rDock_2013.1_src/data/scripts/dock_solv.prm

>  <Rbt.Receptor>
prm/blind_docking_80.prm

>  <SCORE>
-0.486816

>  <SCORE.INTER>
-4.5459

>  <SCORE.INTER.CONST>
1

>  <SCORE.INTER.POLAR>
0

>  <SCORE.INTER.ROT>
6

>  <SCORE.INTER.SOLV>
20.623

>  <SCORE.INTER.VDW>
-17.5049

>  <SCORE.INTER.norm>
-0.146642

>  <SCORE.INTRA>
3.12772

>  <SCORE.INTRA.DIHEDRAL>
1.19343

>  <SCORE.INTRA.DIHEDRAL.0>
10.8172

>  <SCORE.INTRA.POLAR>
0

>  <SCORE.INTRA.POLAR.0>
0

>  <SCORE.INTRA.REPUL>
0

>  <SCORE.INTRA.REPUL.0>
0

>  <SCORE.INTRA.SOLV>
0.888301

>  <SCORE.INTRA.SOLV.lig_0>
-80.3833

>  <SCORE.INTRA.VDW>
2.08686

>  <SCORE.INTRA.VDW.0>
-4.63762

>  <SCORE.INTRA.norm>
0.100894

>  <SCORE.RESTR>
0.93136

>  <SCORE.RESTR.CAVITY>
0.93136

>  <SCORE.RESTR.norm>
0.0300439

>  <SCORE.SYSTEM>
0

>  <SCORE.SYSTEM.CONST>
0

>  <SCORE.SYSTEM.DIHEDRAL>
0

>  <SCORE.SYSTEM.SOLV>
0

>  <SCORE.SYSTEM.norm>
0

>  <SCORE.heavy>
31

>  <SCORE.norm>
-0.0157037

>  <RMSD>
6.697

$$$$
ligand
 OpenBabel11021811473D
libRbt.so/2013.1/901 2013/11/27
 31 33  0  0  0  0  0  0  0  0999 V2000
   19.4779    1.8416   10.3653 C   0  0  0  0  0  0  0  0  0  0  0  0
   22.7553    4.7801   17.6166 N   0  0  0  0  0  0  0  0  0  0  0  0
   20.3970    2.6890    9.6682 O   0  0  0  0  0  0  0  0  0  0  0  0
   20.0792    1.3971   11.7010 C   0  0  1  0  0  0  0  0  0  0  0  0
   20.1648    8.2743   15.3842 N   0  0  0  0  0  0  0  0  0  0  0  0
   20.4002    2.5468   12.5083 O   0  0  0  0  0  0  0  0  0  0  0  0
   19.7524    2.4057   13.7851 C   0  0  1  0  0  0  0  0  0  0  0  0
   19.6128   10.7659   14.4634 N   0  0  0  0  0  0  0  0  0  0  0  0
   19.3569    3.6770   14.3239 O   0  0  0  0  0  0  0  0  0  0  0  0
   20.4554    4.5669   14.5716 C   0  0  2  0  0  0  0  0  0  0  0  0
   17.9598    5.4379   11.2593 N   0  0  0  0  0  0  0  0  0  0  0  0
   21.6362    2.8858   15.8453 O   0  0  0  0  0  0  0  0  0  0  0  0
   21.0507    4.1877   15.9326 C   0  0  1  0  0  0  0  0  0  0  0  0
   19.6331    6.4696   13.2357 O   0  0  0  0  0  0  0  0  0  0  0  0
   22.1225    5.1945   16.3551 C   0  0  1  0  0  0  0  0  0  0  0  0
   18.3647    8.4441   13.4115 O   0  0  0  0  0  0  0  0  0  0  0  0
   21.4793    6.5718   16.5184 C   0  0  0  0  0  0  0  0  0  0  0  0
   19.7270    9.8633   10.3121 O   0  0  0  0  0  0  0  0  0  0  0  0
   20.9026    7.0198   15.1722 C   0  0  1  0  0  0  0  0  0  0  0  0
   18.1921    7.6274    9.3585 O   0  0  0  0  0  0  0  0  0  0  0  0
   19.9330    6.0004   14.5619 C   0  0  2  0  0  0  0  0  0  0  0  0
   17.9219    0.9734   14.5947 O   0  0  0  0  0  0  0  0  0  0  0  0
   18.3255    7.0433   13.0815 C   0  0  1  0  0  0  0  0  0  0  0  0
   19.6719   -0.4777   13.2421 O   0  0  0  0  0  0  0  0  0  0  0  0
   19.2564    9.2185   12.5916 C   0  0  2  0  0  0  0  0  0  0  0  0
   19.2173   10.6786   13.0486 C   0  0  0  0  0  0  0  0  0  0  0  0
   18.8022    9.1447   11.1327 C   0  0  2  0  0  0  0  0  0  0  0  0
   18.7487    7.6853   10.6762 C   0  0  1  0  0  0  0  0  0  0  0  0
   17.8785    6.8597   11.6274 C   0  0  1  0  0  0  0  0  0  0  0  0
   18.4914    1.6120   13.4496 C   0  0  2  0  0  0  0  0  0  0  0  0
   19.0583    0.5712   12.4887 C   0  0  1  0  0  0  0  0  0  0  0  0
  1  3  1  0  0  0  0
  4  1  1  6  0  0  0
  4  6  1  0  0  0  0
  4 31  1  0  0  0  0
  6  7  1  0  0  0  0
  7  9  1  6  0  0  0
  7 30  1  0  0  0  0
  8 26  1  0  0  0  0
 10  9  1  1  0  0  0
 10 13  1  0  0  0  0
 10 21  1  0  0  0  0
 13 12  1  6  0  0  0
 13 15  1  0  0  0  0
 15  2  1  1  0  0  0
 15 17  1  0  0  0  0
 16 25  1  0  0  0  0
 16 23  1  0  0  0  0
 17 19  1  0  0  0  0
 19  5  1  1  0  0  0
 19 21  1  0  0  0  0
 21 14  1  6  0  0  0
 23 14  1  6  0  0  0
 23 29  1  0  0  0  0
 25 26  1  1  0  0  0
 25 27  1  0  0  0  0
 27 18  1  6  0  0  0
 27 28  1  0  0  0  0
 28 20  1  6  0  0  0
 28 29  1  0  0  0  0
 29 11  1  6  0  0  0
 30 22  1  1  0  0  0
 30 31  1  0  0  0  0
 31 24  1  1  0  0  0
M  END
>  <CHROM.1>
58.43057980,-61.83490473,-82.60773948,87.19839789,128.93284059,58.85990065
19.69846117,5.31814596,13.26797581,1.36700383,1.16063115,-3.07009883

>  <Name>
ligand

>  <RI>
0

>  <Rbt.Current_Directory>
/home/itssahil/PROJECTS/Mol_Feturizer/New_Systems/rnas/3DVV

>  <Rbt.Executable>
rbdock ($Id: //depot/dev/client3/rdock/2013.1/src/exe/rbdock.cxx#4 $)

>  <Rbt.Library>
libRbt.so (2013.1, Build901 2013/11/27)

>  <Rbt.Parameter_File>
/export/apps/rDock/src/rDock_2013.1_src/data/scripts/dock_solv.prm

>  <Rbt.Receptor>
prm/blind_docking_100.prm

>  <SCORE>
-0.482554

>  <SCORE.INTER>
-3.44538

>  <SCORE.INTER.CONST>
1

>  <SCORE.INTER.POLAR>
0

>  <SCORE.INTER.ROT>
6

>  <SCORE.INTER.SOLV>
25.1763

>  <SCORE.INTER.VDW>
-18.289

>  <SCORE.INTER.norm>
-0.111141

>  <SCORE.INTRA>
2.96283

>  <SCORE.INTRA.DIHEDRAL>
1.42828

>  <SCORE.INTRA.DIHEDRAL.0>
10.8172

>  <SCORE.INTRA.POLAR>
0

>  <SCORE.INTRA.POLAR.0>
0

>  <SCORE.INTRA.REPUL>
0

>  <SCORE.INTRA.REPUL.0>
0

>  <SCORE.INTRA.SOLV>
1.81088

>  <SCORE.INTRA.SOLV.lig_0>
-80.3833

>  <SCORE.INTRA.VDW>
1.34325

>  <SCORE.INTRA.VDW.0>
-4.63762

>  <SCORE.INTRA.norm>
0.0955751

>  <SCORE.RESTR>
0

>  <SCORE.RESTR.CAVITY>
0

>  <SCORE.RESTR.norm>
0

>  <SCORE.SYSTEM>
0

>  <SCORE.SYSTEM.CONST>
0

>  <SCORE.SYSTEM.DIHEDRAL>
0

>  <SCORE.SYSTEM.SOLV>
0

>  <SCORE.SYSTEM.norm>
0

>  <SCORE.heavy>
31

>  <SCORE.norm>
-0.0155663

>  <RMSD>
6.699

$$$$
ligand
 OpenBabel11021811473D
libRbt.so/2013.1/901 2013/11/27
 31 33  0  0  0  0  0  0  0  0999 V2000
   19.9634    2.1889   10.4697 C   0  0  0  0  0  0  0  0  0  0  0  0
   22.4264    4.4399   17.9908 N   0  0  0  0  0  0  0  0  0  0  0  0
   19.5732    1.1418    9.5751 O   0  0  0  0  0  0  0  0  0  0  0  0
   20.0135    1.6636   11.9066 C   0  0  1  0  0  0  0  0  0  0  0  0
   21.0031    8.4649   15.6083 N   0  0  0  0  0  0  0  0  0  0  0  0
   20.4190    2.7143   12.8056 O   0  0  0  0  0  0  0  0  0  0  0  0
   19.4307    2.8359   13.8440 C   0  0  1  0  0  0  0  0  0  0  0  0
   19.9874    8.1275    8.4024 N   0  0  0  0  0  0  0  0  0  0  0  0
   19.2904    4.1947   14.2877 O   0  0  0  0  0  0  0  0  0  0  0  0
   20.5263    4.8006   14.6944 C   0  0  2  0  0  0  0  0  0  0  0  0
   18.0156    7.7694   14.5956 N   0  0  0  0  0  0  0  0  0  0  0  0
   21.1235    2.8774   16.0313 O   0  0  0  0  0  0  0  0  0  0  0  0
   20.8482    4.2792   16.0997 C   0  0  1  0  0  0  0  0  0  0  0  0
   20.3338    6.8561   13.3457 O   0  0  0  0  0  0  0  0  0  0  0  0
   22.0641    5.0032   16.6813 C   0  0  1  0  0  0  0  0  0  0  0  0
   20.4926    8.7915   12.0163 O   0  0  0  0  0  0  0  0  0  0  0  0
   21.7414    6.4911   16.8214 C   0  0  0  0  0  0  0  0  0  0  0  0
   17.8173    7.7219    9.7414 O   0  0  0  0  0  0  0  0  0  0  0  0
   21.4514    7.0748   15.4355 C   0  0  1  0  0  0  0  0  0  0  0  0
   16.4061    8.1688   12.2059 O   0  0  0  0  0  0  0  0  0  0  0  0
   20.3541    6.3165   14.6789 C   0  0  2  0  0  0  0  0  0  0  0  0
   17.1125    2.0387   14.0631 O   0  0  0  0  0  0  0  0  0  0  0  0
   20.0234    8.2562   13.2676 C   0  0  1  0  0  0  0  0  0  0  0  0
   18.6659    0.0730   13.2142 O   0  0  0  0  0  0  0  0  0  0  0  0
   19.9122    8.1728   10.8554 C   0  0  2  0  0  0  0  0  0  0  0  0
   20.4991    8.8173    9.5974 C   0  0  0  0  0  0  0  0  0  0  0  0
   18.3983    8.3923   10.8631 C   0  0  2  0  0  0  0  0  0  0  0  0
   17.7967    7.8331   12.1540 C   0  0  1  0  0  0  0  0  0  0  0  0
   18.5044    8.4278   13.3744 C   0  0  1  0  0  0  0  0  0  0  0  0
   18.1379    2.4224   13.1439 C   0  0  2  0  0  0  0  0  0  0  0  0
   18.6194    1.2115   12.3503 C   0  0  1  0  0  0  0  0  0  0  0  0
  1  3  1  0  0  0  0
  4  1  1  6  0  0  0
  4  6  1  0  0  0  0
  4 31  1  0  0  0  0
  6  7  1  0  0  0  0
  7  9  1  6  0  0  0
  7 30  1  0  0  0  0
  8 26  1  0  0  0  0
 10  9  1  1  0  0  0
 10 13  1  0  0  0  0
 10 21  1  0  0  0  0
 13 12  1  6  0  0  0
 13 15  1  0  0  0  0
 15  2  1  1  0  0  0
 15 17  1  0  0  0  0
 16 25  1  0  0  0  0
 16 23  1  0  0  0  0
 17 19  1  0  0  0  0
 19  5  1  1  0  0  0
 19 21  1  0  0  0  0
 21 14  1  6  0  0  0
 23 14  1  6  0  0  0
 23 29  1  0  0  0  0
 25 26  1  6  0  0  0
 25 27  1  0  0  0  0
 27 18  1  6  0  0  0
 27 28  1  0  0  0  0
 28 20  1  1  0  0  0
 28 29  1  0  0  0  0
 29 11  1  1  0  0  0
 30 22  1  1  0  0  0
 30 31  1  0  0  0  0
 31 24  1  1  0  0  0
M  END
>  <CHROM.1>
179.43864487,-53.94945634,-78.20043929,159.18416657,173.29208453,175.90680834
19.68140155,5.36029681,13.19763578,1.34925150,1.18330206,3.00071134

>  <Name>
ligand

>  <RI>
0

>  <Rbt.Current_Directory>
/home/itssahil/PROJECTS/Mol_Feturizer/New_Systems/rnas/3DVV

>  <Rbt.Executable>
rbdock ($Id: //depot/dev/client3/rdock/2013.1/src/exe/rbdock.cxx#4 $)

>  <Rbt.Library>
libRbt.so (2013.1, Build901 2013/11/27)

>  <Rbt.Parameter_File>
/export/apps/rDock/src/rDock_2013.1_src/data/scripts/dock_solv.prm

>  <Rbt.Receptor>
prm/blind_docking_80.prm

>  <SCORE>
0.404321

>  <SCORE.INTER>
-3.13201

>  <SCORE.INTER.CONST>
1

>  <SCORE.INTER.POLAR>
0

>  <SCORE.INTER.ROT>
6

>  <SCORE.INTER.SOLV>
25.7024

>  <SCORE.INTER.VDW>
-18.2555

>  <SCORE.INTER.norm>
-0.101032

>  <SCORE.INTRA>
3.18841

>  <SCORE.INTRA.DIHEDRAL>
-6.64967

>  <SCORE.INTRA.DIHEDRAL.0>
10.8172

>  <SCORE.INTRA.POLAR>
0

>  <SCORE.INTRA.POLAR.0>
0

>  <SCORE.INTRA.REPUL>
0.00441752

>  <SCORE.INTRA.REPUL.0>
0

>  <SCORE.INTRA.SOLV>
1.40344

>  <SCORE.INTRA.SOLV.lig_0>
-80.3833

>  <SCORE.INTRA.VDW>
5.78944

>  <SCORE.INTRA.VDW.0>
-4.63762

>  <SCORE.INTRA.norm>
0.102852

>  <SCORE.RESTR>
0.347916

>  <SCORE.RESTR.CAVITY>
0.347916

>  <SCORE.RESTR.norm>
0.0112231

>  <SCORE.SYSTEM>
0

>  <SCORE.SYSTEM.CONST>
0

>  <SCORE.SYSTEM.DIHEDRAL>
0

>  <SCORE.SYSTEM.SOLV>
0

>  <SCORE.SYSTEM.norm>
0

>  <SCORE.heavy>
31

>  <SCORE.norm>
0.0130426

>  <RMSD>
6.701

$$$$
ligand
 OpenBabel11021811473D
libRbt.so/2013.1/901 2013/11/27
 31 33  0  0  0  0  0  0  0  0999 V2000
   24.9450    6.9569   15.9312 C   0  0  0  0  0  0  0  0  0  0  0  0
   19.7051    9.8537   15.2276 N   0  0  0  0  0  0  0  0  0  0  0  0
   26.2249    6.8221   16.5577 O   0  0  0  0  0  0  0  0  0  0  0  0
   23.8569    6.3452   16.8173 C   0  0  1  0  0  0  0  0  0  0  0  0
   17.6471    6.4251   18.0406 N   0  0  0  0  0  0  0  0  0  0  0  0
   22.5606    6.5426   16.2197 O   0  0  0  0  0  0  0  0  0  0  0  0
   21.9128    5.2638   16.0974 C   0  0  1  0  0  0  0  0  0  0  0  0
   18.6774    3.4186   11.1896 N   0  0  0  0  0  0  0  0  0  0  0  0
   21.0753    5.2015   14.9322 O   0  0  0  0  0  0  0  0  0  0  0  0
   19.9157    6.0440   15.0079 C   0  0  2  0  0  0  0  0  0  0  0  0
   16.0380    3.0666   16.5653 N   0  0  0  0  0  0  0  0  0  0  0  0
   21.0202    7.8123   13.7848 O   0  0  0  0  0  0  0  0  0  0  0  0
   20.4087    7.4954   15.0382 C   0  0  1  0  0  0  0  0  0  0  0  0
   18.4276    4.4386   16.1432 O   0  0  0  0  0  0  0  0  0  0  0  0
   19.2459    8.4577   15.2887 C   0  0  1  0  0  0  0  0  0  0  0  0
   18.1499    4.3944   13.8068 O   0  0  0  0  0  0  0  0  0  0  0  0
   18.6397    8.1644   16.6613 C   0  0  0  0  0  0  0  0  0  0  0  0
   19.1295    0.8673   13.5304 O   0  0  0  0  0  0  0  0  0  0  0  0
   18.0916    6.7344   16.6731 C   0  0  1  0  0  0  0  0  0  0  0  0
   16.6382    0.7182   14.9572 O   0  0  0  0  0  0  0  0  0  0  0  0
   19.1342    5.6852   16.2681 C   0  0  2  0  0  0  0  0  0  0  0  0
   22.7321    2.9452   16.1995 O   0  0  0  0  0  0  0  0  0  0  0  0
   17.4686    4.3947   15.0750 C   0  0  1  0  0  0  0  0  0  0  0  0
   23.7040    4.3355   18.2292 O   0  0  0  0  0  0  0  0  0  0  0  0
   19.0367    3.2793   13.6138 C   0  0  2  0  0  0  0  0  0  0  0  0
   19.7054    3.4016   12.2425 C   0  0  0  0  0  0  0  0  0  0  0  0
   18.2361    1.9766   13.6590 C   0  0  2  0  0  0  0  0  0  0  0  0
   17.4865    1.8709   14.9887 C   0  0  1  0  0  0  0  0  0  0  0  0
   16.6314    3.1195   15.2204 C   0  0  1  0  0  0  0  0  0  0  0  0
   23.0808    4.2993   15.9025 C   0  0  2  0  0  0  0  0  0  0  0  0
   24.0657    4.8331   16.9385 C   0  0  1  0  0  0  0  0  0  0  0  0
  1  3  1  0  0  0  0
  4  1  1  6  0  0  0
  4  6  1  0  0  0  0
  4 31  1  0  0  0  0
  6  7  1  0  0  0  0
  7  9  1  6  0  0  0
  7 30  1  0  0  0  0
  8 26  1  0  0  0  0
 10  9  1  1  0  0  0
 10 13  1  0  0  0  0
 10 21  1  0  0  0  0
 13 12  1  6  0  0  0
 13 15  1  0  0  0  0
 15  2  1  1  0  0  0
 15 17  1  0  0  0  0
 16 25  1  0  0  0  0
 16 23  1  0  0  0  0
 17 19  1  0  0  0  0
 19  5  1  1  0  0  0
 19 21  1  0  0  0  0
 21 14  1  6  0  0  0
 23 14  1  1  0  0  0
 23 29  1  0  0  0  0
 25 26  1  6  0  0  0
 25 27  1  0  0  0  0
 27 18  1  1  0  0  0
 27 28  1  0  0  0  0
 28 20  1  6  0  0  0
 28 29  1  0  0  0  0
 29 11  1  1  0  0  0
 30 22  1  1  0  0  0
 30 31  1  0  0  0  0
 31 24  1  1  0  0  0
M  END
>  <CHROM.1>
177.01708703,-68.50872647,65.37130340,69.57852562,-59.46405399,-59.29549541
20.16131648,4.97901832,15.38050309,-0.60805238,0.15552650,-2.89417858

>  <Name>
ligand

>  <RI>
0

>  <Rbt.Current_Directory>
/home/itssahil/PROJECTS/Mol_Feturizer/New_Systems/rnas/3DVV

>  <Rbt.Executable>
rbdock ($Id: //depot/dev/client3/rdock/2013.1/src/exe/rbdock.cxx#4 $)

>  <Rbt.Library>
libRbt.so (2013.1, Build901 2013/11/27)

>  <Rbt.Parameter_File>
/export/apps/rDock/src/rDock_2013.1_src/data/scripts/dock_solv.prm

>  <Rbt.Receptor>
prm/pocket_docking_4.prm

>  <SCORE>
-6.35042

>  <SCORE.INTER>
-5.32045

>  <SCORE.INTER.CONST>
1

>  <SCORE.INTER.POLAR>
0

>  <SCORE.INTER.ROT>
6

>  <SCORE.INTER.SOLV>
17.5141

>  <SCORE.INTER.VDW>
-16.985

>  <SCORE.INTER.norm>
-0.171627

>  <SCORE.INTRA>
-1.02997

>  <SCORE.INTRA.DIHEDRAL>
-9.58958

>  <SCORE.INTRA.DIHEDRAL.0>
10.8172

>  <SCORE.INTRA.POLAR>
0

>  <SCORE.INTRA.POLAR.0>
0

>  <SCORE.INTRA.REPUL>
0

>  <SCORE.INTRA.REPUL.0>
0

>  <SCORE.INTRA.SOLV>
-1.92157

>  <SCORE.INTRA.SOLV.lig_0>
-80.3833

>  <SCORE.INTRA.VDW>
4.7256

>  <SCORE.INTRA.VDW.0>
-4.63762

>  <SCORE.INTRA.norm>
-0.0332249

>  <SCORE.RESTR>
0

>  <SCORE.RESTR.CAVITY>
0

>  <SCORE.RESTR.norm>
0

>  <SCORE.SYSTEM>
0

>  <SCORE.SYSTEM.CONST>
0

>  <SCORE.SYSTEM.DIHEDRAL>
0

>  <SCORE.SYSTEM.SOLV>
0

>  <SCORE.SYSTEM.norm>
0

>  <SCORE.heavy>
31

>  <SCORE.norm>
-0.204852

>  <RMSD>
6.706

$$$$
ligand
 OpenBabel11021811473D
libRbt.so/2013.1/901 2013/11/27
 31 33  0  0  0  0  0  0  0  0999 V2000
   19.6113    2.1525   10.1465 C   0  0  0  0  0  0  0  0  0  0  0  0
   22.4279    4.4063   17.9861 N   0  0  0  0  0  0  0  0  0  0  0  0
   18.4537    2.9624   10.3766 O   0  0  0  0  0  0  0  0  0  0  0  0
   20.1525    1.6164   11.4743 C   0  0  1  0  0  0  0  0  0  0  0  0
   20.5374    8.2405   15.6137 N   0  0  0  0  0  0  0  0  0  0  0  0
   20.5031    2.7095   12.3453 O   0  0  0  0  0  0  0  0  0  0  0  0
   19.8129    2.5387   13.5960 C   0  0  1  0  0  0  0  0  0  0  0  0
   16.5010    8.7743   14.6925 N   0  0  0  0  0  0  0  0  0  0  0  0
   19.4616    3.8002   14.1859 O   0  0  0  0  0  0  0  0  0  0  0  0
   20.5912    4.5615   14.6381 C   0  0  2  0  0  0  0  0  0  0  0  0
   20.6029    5.7957   10.6774 N   0  0  0  0  0  0  0  0  0  0  0  0
   21.4068    2.7149   15.9674 O   0  0  0  0  0  0  0  0  0  0  0  0
   20.9410    4.0648   16.0457 C   0  0  1  0  0  0  0  0  0  0  0  0
   20.1587    6.5944   13.3109 O   0  0  0  0  0  0  0  0  0  0  0  0
   22.0297    4.9374   16.6735 C   0  0  1  0  0  0  0  0  0  0  0  0
   17.8559    6.8960   12.9305 O   0  0  0  0  0  0  0  0  0  0  0  0
   21.5032    6.3650   16.8230 C   0  0  0  0  0  0  0  0  0  0  0  0
   18.3363   10.0675   11.1453 O   0  0  0  0  0  0  0  0  0  0  0  0
   21.1759    6.9274   15.4366 C   0  0  1  0  0  0  0  0  0  0  0  0
   19.5252    8.1541    9.3593 O   0  0  0  0  0  0  0  0  0  0  0  0
   20.2143    6.0400   14.6370 C   0  0  2  0  0  0  0  0  0  0  0  0
   17.8951    1.1586   14.2854 O   0  0  0  0  0  0  0  0  0  0  0  0
   19.0320    6.1700   12.5278 C   0  0  1  0  0  0  0  0  0  0  0  0
   19.6140   -0.3083   12.9101 O   0  0  0  0  0  0  0  0  0  0  0  0
   17.9588    8.3211   12.7703 C   0  0  2  0  0  0  0  0  0  0  0  0
   16.6579    8.9743   13.2430 C   0  0  0  0  0  0  0  0  0  0  0  0
   18.1710    8.6547   11.2925 C   0  0  2  0  0  0  0  0  0  0  0  0
   19.4205    7.9420   10.7711 C   0  0  1  0  0  0  0  0  0  0  0  0
   19.3336    6.4392   11.0497 C   0  0  1  0  0  0  0  0  0  0  0  0
   18.5266    1.8232   13.1885 C   0  0  2  0  0  0  0  0  0  0  0  0
   19.0718    0.8036   12.1930 C   0  0  1  0  0  0  0  0  0  0  0  0
  1  3  1  0  0  0  0
  4  1  1  6  0  0  0
  4  6  1  0  0  0  0
  4 31  1  0  0  0  0
  6  7  1  0  0  0  0
  7  9  1  6  0  0  0
  7 30  1  0  0  0  0
  8 26  1  0  0  0  0
 10  9  1  1  0  0  0
 10 13  1  0  0  0  0
 10 21  1  0  0  0  0
 13 12  1  6  0  0  0
 13 15  1  0  0  0  0
 15  2  1  1  0  0  0
 15 17  1  0  0  0  0
 16 25  1  0  0  0  0
 16 23  1  0  0  0  0
 17 19  1  0  0  0  0
 19  5  1  1  0  0  0
 19 21  1  0  0  0  0
 21 14  1  6  0  0  0
 23 14  1  1  0  0  0
 23 29  1  0  0  0  0
 25 26  1  6  0  0  0
 25 27  1  0  0  0  0
 27 18  1  1  0  0  0
 27 28  1  0  0  0  0
 28 20  1  6  0  0  0
 28 29  1  0  0  0  0
 29 11  1  1  0  0  0
 30 22  1  1  0  0  0
 30 31  1  0  0  0  0
 31 24  1  1  0  0  0
M  END
>  <CHROM.1>
-59.41621903,-68.19850941,-84.55525034,78.24122433,72.43239490,65.95537628
19.57907476,5.14297271,13.27159748,1.01659686,1.15845698,-2.84456959

>  <Name>
ligand

>  <RI>
0

>  <Rbt.Current_Directory>
/home/itssahil/PROJECTS/Mol_Feturizer/New_Systems/rnas/3DVV

>  <Rbt.Executable>
rbdock ($Id: //depot/dev/client3/rdock/2013.1/src/exe/rbdock.cxx#4 $)

>  <Rbt.Library>
libRbt.so (2013.1, Build901 2013/11/27)

>  <Rbt.Parameter_File>
/export/apps/rDock/src/rDock_2013.1_src/data/scripts/dock_solv.prm

>  <Rbt.Receptor>
prm/blind_docking_100.prm

>  <SCORE>
-4.8085

>  <SCORE.INTER>
-2.49559

>  <SCORE.INTER.CONST>
1

>  <SCORE.INTER.POLAR>
0

>  <SCORE.INTER.ROT>
6

>  <SCORE.INTER.SOLV>
23.929

>  <SCORE.INTER.VDW>
-17.2401

>  <SCORE.INTER.norm>
-0.080503

>  <SCORE.INTRA>
-2.36045

>  <SCORE.INTRA.DIHEDRAL>
-5.27838

>  <SCORE.INTRA.DIHEDRAL.0>
10.8172

>  <SCORE.INTRA.POLAR>
0

>  <SCORE.INTRA.POLAR.0>
0

>  <SCORE.INTRA.REPUL>
0

>  <SCORE.INTRA.REPUL.0>
0

>  <SCORE.INTRA.SOLV>
-1.32827

>  <SCORE.INTRA.SOLV.lig_0>
-80.3833

>  <SCORE.INTRA.VDW>
0.94287

>  <SCORE.INTRA.VDW.0>
-4.63762

>  <SCORE.INTRA.norm>
-0.0761437

>  <SCORE.RESTR>
0.0475489

>  <SCORE.RESTR.CAVITY>
0.0475489

>  <SCORE.RESTR.norm>
0.00153383

>  <SCORE.SYSTEM>
0

>  <SCORE.SYSTEM.CONST>
0

>  <SCORE.SYSTEM.DIHEDRAL>
0

>  <SCORE.SYSTEM.SOLV>
0

>  <SCORE.SYSTEM.norm>
0

>  <SCORE.heavy>
31

>  <SCORE.norm>
-0.155113

>  <RMSD>
6.720

$$$$
ligand
 OpenBabel11021811473D
libRbt.so/2013.1/901 2013/11/27
 31 33  0  0  0  0  0  0  0  0999 V2000
   23.1203    3.0217   16.5141 C   0  0  0  0  0  0  0  0  0  0  0  0
   18.7750    8.8015   11.5593 N   0  0  0  0  0  0  0  0  0  0  0  0
   21.8018    2.4974   16.7030 O   0  0  0  0  0  0  0  0  0  0  0  0
   23.0491    4.4991   16.1200 C   0  0  1  0  0  0  0  0  0  0  0  0
   17.1523    4.2136   11.0882 N   0  0  0  0  0  0  0  0  0  0  0  0
   22.1180    4.6794   15.0351 O   0  0  0  0  0  0  0  0  0  0  0  0
   21.1486    5.6693   15.4227 C   0  0  1  0  0  0  0  0  0  0  0  0
   15.7537   -0.2084   12.0230 N   0  0  0  0  0  0  0  0  0  0  0  0
   19.8571    5.3994   14.8551 O   0  0  0  0  0  0  0  0  0  0  0  0
   19.7872    5.6324   13.4406 C   0  0  2  0  0  0  0  0  0  0  0  0
   21.6181    2.1481   13.7457 N   0  0  0  0  0  0  0  0  0  0  0  0
   20.3980    7.9555   13.7108 O   0  0  0  0  0  0  0  0  0  0  0  0
   19.3603    7.0912   13.2400 C   0  0  1  0  0  0  0  0  0  0  0  0
   19.2871    3.3158   12.7592 O   0  0  0  0  0  0  0  0  0  0  0  0
   19.0964    7.3804   11.7610 C   0  0  1  0  0  0  0  0  0  0  0  0
   17.9211    1.9436   14.0968 O   0  0  0  0  0  0  0  0  0  0  0  0
   17.9380    6.5070   11.2787 C   0  0  0  0  0  0  0  0  0  0  0  0
   18.3805   -0.9958   11.9462 O   0  0  0  0  0  0  0  0  0  0  0  0
   18.3285    5.0327   11.4183 C   0  0  1  0  0  0  0  0  0  0  0  0
   21.0055   -0.6097   13.0528 O   0  0  0  0  0  0  0  0  0  0  0  0
   18.7795    4.6595   12.8357 C   0  0  2  0  0  0  0  0  0  0  0  0
   20.5044    6.6350   17.5931 O   0  0  0  0  0  0  0  0  0  0  0  0
   19.2111    2.5729   13.9859 C   0  0  1  0  0  0  0  0  0  0  0  0
   23.1391    6.6248   17.3566 O   0  0  0  0  0  0  0  0  0  0  0  0
   17.6212    1.0220   13.0348 C   0  0  2  0  0  0  0  0  0  0  0  0
   16.2259    0.4344   13.2596 C   0  0  0  0  0  0  0  0  0  0  0  0
   18.6438   -0.1157   13.0422 C   0  0  2  0  0  0  0  0  0  0  0  0
   20.0577    0.4529   12.9060 C   0  0  1  0  0  0  0  0  0  0  0  0
   20.3145    1.5096   13.9837 C   0  0  1  0  0  0  0  0  0  0  0  0
   21.0556    5.4909   16.9367 C   0  0  2  0  0  0  0  0  0  0  0  0
   22.5302    5.3326   17.2952 C   0  0  1  0  0  0  0  0  0  0  0  0
  1  3  1  0  0  0  0
  4  1  1  1  0  0  0
  4  6  1  0  0  0  0
  4 31  1  0  0  0  0
  6  7  1  0  0  0  0
  7  9  1  6  0  0  0
  7 30  1  0  0  0  0
  8 26  1  0  0  0  0
 10  9  1  1  0  0  0
 10 13  1  0  0  0  0
 10 21  1  0  0  0  0
 13 12  1  6  0  0  0
 13 15  1  0  0  0  0
 15  2  1  1  0  0  0
 15 17  1  0  0  0  0
 16 25  1  0  0  0  0
 16 23  1  0  0  0  0
 17 19  1  0  0  0  0
 19  5  1  1  0  0  0
 19 21  1  0  0  0  0
 21 14  1  6  0  0  0
 23 14  1  6  0  0  0
 23 29  1  0  0  0  0
 25 26  1  1  0  0  0
 25 27  1  0  0  0  0
 27 18  1  6  0  0  0
 27 28  1  0  0  0  0
 28 20  1  1  0  0  0
 28 29  1  0  0  0  0
 29 11  1  6  0  0  0
 30 22  1  1  0  0  0
 30 31  1  0  0  0  0
 31 24  1  6  0  0  0
M  END
>  <CHROM.1>
-49.79814216,-71.48000517,-90.23988914,86.36503328,80.75511262,164.52001897
19.83063625,3.81585378,13.96981656,-0.85116265,0.80151076,3.07002532

>  <Name>
ligand

>  <RI>
0

>  <Rbt.Current_Directory>
/home/itssahil/PROJECTS/Mol_Feturizer/New_Systems/rnas/3DVV

>  <Rbt.Executable>
rbdock ($Id: //depot/dev/client3/rdock/2013.1/src/exe/rbdock.cxx#4 $)

>  <Rbt.Library>
libRbt.so (2013.1, Build901 2013/11/27)

>  <Rbt.Parameter_File>
/export/apps/rDock/src/rDock_2013.1_src/data/scripts/dock_solv.prm

>  <Rbt.Receptor>
prm/blind_docking_80.prm

>  <SCORE>
-1.32499

>  <SCORE.INTER>
-2.30306

>  <SCORE.INTER.CONST>
1

>  <SCORE.INTER.POLAR>
0

>  <SCORE.INTER.ROT>
6

>  <SCORE.INTER.SOLV>
22.0728

>  <SCORE.INTER.VDW>
-16.493

>  <SCORE.INTER.norm>
-0.0742922

>  <SCORE.INTRA>
0.940009

>  <SCORE.INTRA.DIHEDRAL>
-0.314937

>  <SCORE.INTRA.DIHEDRAL.0>
10.8172

>  <SCORE.INTRA.POLAR>
0

>  <SCORE.INTRA.POLAR.0>
0

>  <SCORE.INTRA.REPUL>
0

>  <SCORE.INTRA.REPUL.0>
0

>  <SCORE.INTRA.SOLV>
1.59038

>  <SCORE.INTRA.SOLV.lig_0>
-80.3833

>  <SCORE.INTRA.VDW>
0.302286

>  <SCORE.INTRA.VDW.0>
-4.63762

>  <SCORE.INTRA.norm>
0.0303229

>  <SCORE.RESTR>
0.0380567

>  <SCORE.RESTR.CAVITY>
0.0380567

>  <SCORE.RESTR.norm>
0.00122763

>  <SCORE.SYSTEM>
0

>  <SCORE.SYSTEM.CONST>
0

>  <SCORE.SYSTEM.DIHEDRAL>
0

>  <SCORE.SYSTEM.SOLV>
0

>  <SCORE.SYSTEM.norm>
0

>  <SCORE.heavy>
31

>  <SCORE.norm>
-0.0427417

>  <RMSD>
6.721

$$$$
ligand
 OpenBabel11021811473D
libRbt.so/2013.1/901 2013/11/27
 31 33  0  0  0  0  0  0  0  0999 V2000
   20.1424   10.3093   11.2161 C   0  0  0  0  0  0  0  0  0  0  0  0
   22.0534    4.6657   17.6370 N   0  0  0  0  0  0  0  0  0  0  0  0
   20.7090    9.9843    9.9425 O   0  0  0  0  0  0  0  0  0  0  0  0
   19.0943    9.2651   11.6092 C   0  0  1  0  0  0  0  0  0  0  0  0
   19.9976    1.8730   14.1905 N   0  0  0  0  0  0  0  0  0  0  0  0
   19.6988    7.9593   11.6864 O   0  0  0  0  0  0  0  0  0  0  0  0
   19.4244    7.4032   12.9846 C   0  0  1  0  0  0  0  0  0  0  0  0
   20.1110    0.5404    9.8761 N   0  0  0  0  0  0  0  0  0  0  0  0
   20.5027    6.5745   13.4466 O   0  0  0  0  0  0  0  0  0  0  0  0
   20.1263    5.6654   14.4916 C   0  0  2  0  0  0  0  0  0  0  0  0
   16.3957    5.4061   12.1445 N   0  0  0  0  0  0  0  0  0  0  0  0
   21.3182    6.9541   16.1533 O   0  0  0  0  0  0  0  0  0  0  0  0
   21.2564    5.6696   15.5276 C   0  0  1  0  0  0  0  0  0  0  0  0
   18.6999    4.1852   13.1295 O   0  0  0  0  0  0  0  0  0  0  0  0
   21.0169    4.6003   16.5954 C   0  0  1  0  0  0  0  0  0  0  0  0
   19.6566    4.0453   10.9840 O   0  0  0  0  0  0  0  0  0  0  0  0
   21.0238    3.2218   15.9343 C   0  0  0  0  0  0  0  0  0  0  0  0
   17.5495    1.2111    9.9824 O   0  0  0  0  0  0  0  0  0  0  0  0
   19.8829    3.1478   14.9152 C   0  0  1  0  0  0  0  0  0  0  0  0
   15.6483    3.3540   10.2232 O   0  0  0  0  0  0  0  0  0  0  0  0
   19.9213    4.2814   13.8831 C   0  0  2  0  0  0  0  0  0  0  0  0
   18.6552    8.3831   15.1073 O   0  0  0  0  0  0  0  0  0  0  0  0
   18.7494    4.7824   11.8243 C   0  0  1  0  0  0  0  0  0  0  0  0
   17.1475    9.2509   13.1144 O   0  0  0  0  0  0  0  0  0  0  0  0
   19.2974    2.6660   10.7954 C   0  0  2  0  0  0  0  0  0  0  0  0
   20.3412    1.9936    9.9004 C   0  0  0  0  0  0  0  0  0  0  0  0
   17.9320    2.5830   10.1107 C   0  0  2  0  0  0  0  0  0  0  0  0
   16.8847    3.3244   10.9442 C   0  0  1  0  0  0  0  0  0  0  0  0
   17.3408    4.7593   11.2214 C   0  0  1  0  0  0  0  0  0  0  0  0
   19.3467    8.6365   13.8821 C   0  0  2  0  0  0  0  0  0  0  0  0
   18.5344    9.5794   12.9994 C   0  0  1  0  0  0  0  0  0  0  0  0
  1  3  1  0  0  0  0
  4  1  1  1  0  0  0
  4  6  1  0  0  0  0
  4 31  1  0  0  0  0
  6  7  1  0  0  0  0
  7  9  1  1  0  0  0
  7 30  1  0  0  0  0
  8 26  1  0  0  0  0
 10  9  1  6  0  0  0
 10 13  1  0  0  0  0
 10 21  1  0  0  0  0
 13 12  1  1  0  0  0
 13 15  1  0  0  0  0
 15  2  1  1  0  0  0
 15 17  1  0  0  0  0
 16 25  1  0  0  0  0
 16 23  1  0  0  0  0
 17 19  1  0  0  0  0
 19  5  1  6  0  0  0
 19 21  1  0  0  0  0
 21 14  1  1  0  0  0
 23 14  1  1  0  0  0
 23 29  1  0  0  0  0
 25 26  1  6  0  0  0
 25 27  1  0  0  0  0
 27 18  1  1  0  0  0
 27 28  1  0  0  0  0
 28 20  1  6  0  0  0
 28 29  1  0  0  0  0
 29 11  1  1  0  0  0
 30 22  1  1  0  0  0
 30 31  1  0  0  0  0
 31 24  1  6  0  0  0
M  END
>  <CHROM.1>
59.82620823,-160.74601166,-138.00991643,66.74168679,77.59051713,170.86406179
19.29288252,5.39825335,12.76395037,1.17639389,-1.08310705,0.04602157

>  <Name>
ligand

>  <RI>
0

>  <Rbt.Current_Directory>
/home/itssahil/PROJECTS/Mol_Feturizer/New_Systems/rnas/3DVV

>  <Rbt.Executable>
rbdock ($Id: //depot/dev/client3/rdock/2013.1/src/exe/rbdock.cxx#4 $)

>  <Rbt.Library>
libRbt.so (2013.1, Build901 2013/11/27)

>  <Rbt.Parameter_File>
/export/apps/rDock/src/rDock_2013.1_src/data/scripts/dock_solv.prm

>  <Rbt.Receptor>
prm/blind_docking_100.prm

>  <SCORE>
-4.20911

>  <SCORE.INTER>
-3.93456

>  <SCORE.INTER.CONST>
1

>  <SCORE.INTER.POLAR>
0

>  <SCORE.INTER.ROT>
6

>  <SCORE.INTER.SOLV>
17.7954

>  <SCORE.INTER.VDW>
-16.1548

>  <SCORE.INTER.norm>
-0.126921

>  <SCORE.INTRA>
-0.297589

>  <SCORE.INTRA.DIHEDRAL>
-1.32796

>  <SCORE.INTRA.DIHEDRAL.0>
10.8172

>  <SCORE.INTRA.POLAR>
0

>  <SCORE.INTRA.POLAR.0>
0

>  <SCORE.INTRA.REPUL>
0

>  <SCORE.INTRA.REPUL.0>
0

>  <SCORE.INTRA.SOLV>
-1.41161

>  <SCORE.INTRA.SOLV.lig_0>
-80.3833

>  <SCORE.INTRA.VDW>
1.0722

>  <SCORE.INTRA.VDW.0>
-4.63762

>  <SCORE.INTRA.norm>
-0.00959964

>  <SCORE.RESTR>
0.0230475

>  <SCORE.RESTR.CAVITY>
0.0230475

>  <SCORE.RESTR.norm>
0.000743468

>  <SCORE.SYSTEM>
0

>  <SCORE.SYSTEM.CONST>
0

>  <SCORE.SYSTEM.DIHEDRAL>
0

>  <SCORE.SYSTEM.SOLV>
0

>  <SCORE.SYSTEM.norm>
0

>  <SCORE.heavy>
31

>  <SCORE.norm>
-0.135778

>  <RMSD>
6.733

$$$$
ligand
 OpenBabel11021811473D
libRbt.so/2013.1/901 2013/11/27
 31 33  0  0  0  0  0  0  0  0999 V2000
   21.4658    7.3473   15.9979 C   0  0  0  0  0  0  0  0  0  0  0  0
   16.4037    6.8928   12.1264 N   0  0  0  0  0  0  0  0  0  0  0  0
   22.4773    6.8529   15.1140 O   0  0  0  0  0  0  0  0  0  0  0  0
   20.3504    6.3109   16.1554 C   0  0  1  0  0  0  0  0  0  0  0  0
   15.8185    2.1333   13.0793 N   0  0  0  0  0  0  0  0  0  0  0  0
   19.8374    5.9329   14.8630 O   0  0  0  0  0  0  0  0  0  0  0  0
   19.9140    4.5016   14.7400 C   0  0  1  0  0  0  0  0  0  0  0  0
   16.8733   -2.5397   10.2895 N   0  0  0  0  0  0  0  0  0  0  0  0
   20.1728    4.0974   13.3863 O   0  0  0  0  0  0  0  0  0  0  0  0
   19.0133    4.1315   12.5410 C   0  0  2  0  0  0  0  0  0  0  0  0
   20.9810    1.1389   13.7931 N   0  0  0  0  0  0  0  0  0  0  0  0
   19.2016    6.5226   12.2414 O   0  0  0  0  0  0  0  0  0  0  0  0
   18.3425    5.4952   12.7431 C   0  0  1  0  0  0  0  0  0  0  0  0
   18.5805    1.7043   12.4937 O   0  0  0  0  0  0  0  0  0  0  0  0
   17.0028    5.5549   12.0065 C   0  0  1  0  0  0  0  0  0  0  0  0
   17.6250   -0.3376   13.1689 O   0  0  0  0  0  0  0  0  0  0  0  0
   16.0609    4.5037   12.5941 C   0  0  0  0  0  0  0  0  0  0  0  0
   19.4982   -2.2931   10.6903 O   0  0  0  0  0  0  0  0  0  0  0  0
   16.6653    3.1126   12.3813 C   0  0  1  0  0  0  0  0  0  0  0  0
   21.5668   -1.3829   12.4671 O   0  0  0  0  0  0  0  0  0  0  0  0
   18.0897    2.9825   12.9342 C   0  0  2  0  0  0  0  0  0  0  0  0
   21.1457    2.7691   15.9807 O   0  0  0  0  0  0  0  0  0  0  0  0
   18.5857    0.6815   13.5020 C   0  0  1  0  0  0  0  0  0  0  0  0
   19.9533    4.4153   17.6736 O   0  0  0  0  0  0  0  0  0  0  0  0
   17.8713   -0.9925   11.9129 C   0  0  2  0  0  0  0  0  0  0  0  0
   16.7801   -2.0378   11.6698 C   0  0  0  0  0  0  0  0  0  0  0  0
   19.2284   -1.6967   11.9618 C   0  0  2  0  0  0  0  0  0  0  0  0
   20.3290   -0.6859   12.2903 C   0  0  1  0  0  0  0  0  0  0  0  0
   19.9904    0.0735   13.5758 C   0  0  1  0  0  0  0  0  0  0  0  0
   21.1315    4.1441   15.5900 C   0  0  2  0  0  0  0  0  0  0  0  0
   20.9024    5.0386   16.8047 C   0  0  1  0  0  0  0  0  0  0  0  0
  1  3  1  0  0  0  0
  4  1  1  6  0  0  0
  4  6  1  0  0  0  0
  4 31  1  0  0  0  0
  6  7  1  0  0  0  0
  7  9  1  6  0  0  0
  7 30  1  0  0  0  0
  8 26  1  0  0  0  0
 10  9  1  1  0  0  0
 10 13  1  0  0  0  0
 10 21  1  0  0  0  0
 13 12  1  6  0  0  0
 13 15  1  0  0  0  0
 15  2  1  1  0  0  0
 15 17  1  0  0  0  0
 16 25  1  0  0  0  0
 16 23  1  0  0  0  0
 17 19  1  0  0  0  0
 19  5  1  1  0  0  0
 19 21  1  0  0  0  0
 21 14  1  6  0  0  0
 23 14  1  6  0  0  0
 23 29  1  0  0  0  0
 25 26  1  1  0  0  0
 25 27  1  0  0  0  0
 27 18  1  6  0  0  0
 27 28  1  0  0  0  0
 28 20  1  1  0  0  0
 28 29  1  0  0  0  0
 29 11  1  6  0  0  0
 30 22  1  1  0  0  0
 30 31  1  0  0  0  0
 31 24  1  1  0  0  0
M  END
>  <CHROM.1>
-54.50511154,-78.78227403,49.03550854,112.73308111,131.37637437,169.68106254
19.13314732,2.72530612,13.45852641,-1.30758845,0.61448950,-2.87589543

>  <Name>
ligand

>  <RI>
0

>  <Rbt.Current_Directory>
/home/itssahil/PROJECTS/Mol_Feturizer/New_Systems/rnas/3DVV

>  <Rbt.Executable>
rbdock ($Id: //depot/dev/client3/rdock/2013.1/src/exe/rbdock.cxx#4 $)

>  <Rbt.Library>
libRbt.so (2013.1, Build901 2013/11/27)

>  <Rbt.Parameter_File>
/export/apps/rDock/src/rDock_2013.1_src/data/scripts/dock_solv.prm

>  <Rbt.Receptor>
prm/blind_docking_40.prm

>  <SCORE>
3.49748

>  <SCORE.INTER>
-3.75782

>  <SCORE.INTER.CONST>
1

>  <SCORE.INTER.POLAR>
0

>  <SCORE.INTER.ROT>
6

>  <SCORE.INTER.SOLV>
16.0592

>  <SCORE.INTER.VDW>
-15.4583

>  <SCORE.INTER.norm>
-0.12122

>  <SCORE.INTRA>
7.25531

>  <SCORE.INTRA.DIHEDRAL>
5.39905

>  <SCORE.INTRA.DIHEDRAL.0>
10.8172

>  <SCORE.INTRA.POLAR>
0

>  <SCORE.INTRA.POLAR.0>
0

>  <SCORE.INTRA.REPUL>
0

>  <SCORE.INTRA.REPUL.0>
0

>  <SCORE.INTRA.SOLV>
2.14959

>  <SCORE.INTRA.SOLV.lig_0>
-80.3833

>  <SCORE.INTRA.VDW>
3.48099

>  <SCORE.INTRA.VDW.0>
-4.63762

>  <SCORE.INTRA.norm>
0.234042

>  <SCORE.RESTR>
0

>  <SCORE.RESTR.CAVITY>
0

>  <SCORE.RESTR.norm>
0

>  <SCORE.SYSTEM>
0

>  <SCORE.SYSTEM.CONST>
0

>  <SCORE.SYSTEM.DIHEDRAL>
0

>  <SCORE.SYSTEM.SOLV>
0

>  <SCORE.SYSTEM.norm>
0

>  <SCORE.heavy>
31

>  <SCORE.norm>
0.112822

>  <RMSD>
6.735

$$$$
ligand
 OpenBabel11021811473D
libRbt.so/2013.1/901 2013/11/27
 31 33  0  0  0  0  0  0  0  0999 V2000
   23.0853    4.5613   17.5027 C   0  0  0  0  0  0  0  0  0  0  0  0
   18.3652    8.8308   11.0054 N   0  0  0  0  0  0  0  0  0  0  0  0
   21.7648    4.7330   18.0277 O   0  0  0  0  0  0  0  0  0  0  0  0
   23.2872    5.4584   16.2789 C   0  0  1  0  0  0  0  0  0  0  0  0
   17.2571    4.0944   11.4970 N   0  0  0  0  0  0  0  0  0  0  0  0
   22.2867    5.1716   15.2823 O   0  0  0  0  0  0  0  0  0  0  0  0
   21.6134    6.3968   14.9429 C   0  0  1  0  0  0  0  0  0  0  0  0
   16.1884    0.1011   14.0557 N   0  0  0  0  0  0  0  0  0  0  0  0
   20.2324    6.1722   14.6183 O   0  0  0  0  0  0  0  0  0  0  0  0
   19.9663    6.1491   13.2081 C   0  0  2  0  0  0  0  0  0  0  0  0
   21.7521    2.3658   14.2500 N   0  0  0  0  0  0  0  0  0  0  0  0
   20.3233    8.5323   13.0192 O   0  0  0  0  0  0  0  0  0  0  0  0
   19.3474    7.5024   12.8393 C   0  0  1  0  0  0  0  0  0  0  0  0
   19.6683    3.7120   12.9786 O   0  0  0  0  0  0  0  0  0  0  0  0
   18.8757    7.5043   11.3838 C   0  0  1  0  0  0  0  0  0  0  0  0
   18.0380    2.4022   14.0578 O   0  0  0  0  0  0  0  0  0  0  0  0
   17.7805    6.4517   11.2108 C   0  0  0  0  0  0  0  0  0  0  0  0
   18.6200   -0.5073   11.8963 O   0  0  0  0  0  0  0  0  0  0  0  0
   18.3581    5.0691   11.5275 C   0  0  1  0  0  0  0  0  0  0  0  0
   21.0745   -0.3265   13.3820 O   0  0  0  0  0  0  0  0  0  0  0  0
   19.0169    4.9925   12.9102 C   0  0  2  0  0  0  0  0  0  0  0  0
   21.4776    8.6002   16.0312 O   0  0  0  0  0  0  0  0  0  0  0  0
   19.3675    2.9457   14.1555 C   0  0  1  0  0  0  0  0  0  0  0  0
   23.9946    7.7913   15.9429 O   0  0  0  0  0  0  0  0  0  0  0  0
   17.8387    1.5295   12.9327 C   0  0  2  0  0  0  0  0  0  0  0  0
   16.3914    1.0319   12.9341 C   0  0  0  0  0  0  0  0  0  0  0  0
   18.7755    0.3256   13.0483 C   0  0  2  0  0  0  0  0  0  0  0  0
   20.2272    0.8009   13.1367 C   0  0  1  0  0  0  0  0  0  0  0  0
   20.3901    1.8108   14.2758 C   0  0  1  0  0  0  0  0  0  0  0  0
   21.6782    7.2004   16.2400 C   0  0  2  0  0  0  0  0  0  0  0  0
   23.1166    6.9289   16.6707 C   0  0  1  0  0  0  0  0  0  0  0  0
  1  3  1  0  0  0  0
  4  1  1  1  0  0  0
  4  6  1  0  0  0  0
  4 31  1  0  0  0  0
  6  7  1  0  0  0  0
  7  9  1  1  0  0  0
  7 30  1  0  0  0  0
  8 26  1  0  0  0  0
 10  9  1  1  0  0  0
 10 13  1  0  0  0  0
 10 21  1  0  0  0  0
 13 12  1  6  0  0  0
 13 15  1  0  0  0  0
 15  2  1  1  0  0  0
 15 17  1  0  0  0  0
 16 25  1  0  0  0  0
 16 23  1  0  0  0  0
 17 19  1  0  0  0  0
 19  5  1  1  0  0  0
 19 21  1  0  0  0  0
 21 14  1  6  0  0  0
 23 14  1  6  0  0  0
 23 29  1  0  0  0  0
 25 26  1  1  0  0  0
 25 27  1  0  0  0  0
 27 18  1  6  0  0  0
 27 28  1  0  0  0  0
 28 20  1  1  0  0  0
 28 29  1  0  0  0  0
 29 11  1  6  0  0  0
 30 22  1  6  0  0  0
 30 31  1  0  0  0  0
 31 24  1  6  0  0  0
M  END
>  <CHROM.1>
-56.85089701,-100.56009221,-102.20874585,74.54533975,104.78706469,-70.03604049
20.03460736,4.46497236,13.94146963,-0.83929051,0.76856156,2.97042423

>  <Name>
ligand

>  <RI>
0

>  <Rbt.Current_Directory>
/home/itssahil/PROJECTS/Mol_Feturizer/New_Systems/rnas/3DVV

>  <Rbt.Executable>
rbdock ($Id: //depot/dev/client3/rdock/2013.1/src/exe/rbdock.cxx#4 $)

>  <Rbt.Library>
libRbt.so (2013.1, Build901 2013/11/27)

>  <Rbt.Parameter_File>
/export/apps/rDock/src/rDock_2013.1_src/data/scripts/dock_solv.prm

>  <Rbt.Receptor>
prm/blind_docking_100.prm

>  <SCORE>
-0.704811

>  <SCORE.INTER>
-6.1322

>  <SCORE.INTER.CONST>
1

>  <SCORE.INTER.POLAR>
0

>  <SCORE.INTER.ROT>
6

>  <SCORE.INTER.SOLV>
24.3654

>  <SCORE.INTER.VDW>
-19.8099

>  <SCORE.INTER.norm>
-0.197813

>  <SCORE.INTRA>
5.4128

>  <SCORE.INTRA.DIHEDRAL>
7.78652

>  <SCORE.INTRA.DIHEDRAL.0>
10.8172

>  <SCORE.INTRA.POLAR>
0

>  <SCORE.INTRA.POLAR.0>
0

>  <SCORE.INTRA.REPUL>
0.0122941

>  <SCORE.INTRA.REPUL.0>
0

>  <SCORE.INTRA.SOLV>
2.00333

>  <SCORE.INTRA.SOLV.lig_0>
-80.3833

>  <SCORE.INTRA.VDW>
0.456406

>  <SCORE.INTRA.VDW.0>
-4.63762

>  <SCORE.INTRA.norm>
0.174607

>  <SCORE.RESTR>
0.0145825

>  <SCORE.RESTR.CAVITY>
0.0145825

>  <SCORE.RESTR.norm>
0.000470402

>  <SCORE.SYSTEM>
0

>  <SCORE.SYSTEM.CONST>
0

>  <SCORE.SYSTEM.DIHEDRAL>
0

>  <SCORE.SYSTEM.SOLV>
0

>  <SCORE.SYSTEM.norm>
0

>  <SCORE.heavy>
31

>  <SCORE.norm>
-0.0227358

>  <RMSD>
6.737

$$$$
ligand
 OpenBabel11021811473D
libRbt.so/2013.1/901 2013/11/27
 31 33  0  0  0  0  0  0  0  0999 V2000
   23.2714    4.2613   17.2474 C   0  0  0  0  0  0  0  0  0  0  0  0
   18.3318    9.6483   12.3113 N   0  0  0  0  0  0  0  0  0  0  0  0
   21.9265    4.1425   17.7230 O   0  0  0  0  0  0  0  0  0  0  0  0
   23.3470    5.3106   16.1355 C   0  0  1  0  0  0  0  0  0  0  0  0
   16.7570    5.1436   11.2477 N   0  0  0  0  0  0  0  0  0  0  0  0
   22.4124    4.9909   15.0864 O   0  0  0  0  0  0  0  0  0  0  0  0
   21.5638    6.1314   14.8651 C   0  0  1  0  0  0  0  0  0  0  0  0
   19.1906   -0.4450    9.9733 N   0  0  0  0  0  0  0  0  0  0  0  0
   20.2367    5.7399   14.4801 O   0  0  0  0  0  0  0  0  0  0  0  0
   19.8327    6.2476   13.1998 C   0  0  2  0  0  0  0  0  0  0  0  0
   17.6449    3.3682   14.3371 N   0  0  0  0  0  0  0  0  0  0  0  0
   20.4325    8.5067   13.8155 O   0  0  0  0  0  0  0  0  0  0  0  0
   19.3351    7.6816   13.4151 C   0  0  1  0  0  0  0  0  0  0  0  0
   19.2443    4.0858   12.1696 O   0  0  0  0  0  0  0  0  0  0  0  0
   18.7262    8.2431   12.1287 C   0  0  1  0  0  0  0  0  0  0  0  0
   18.7082    2.1149   11.0007 O   0  0  0  0  0  0  0  0  0  0  0  0
   17.5089    7.4025   11.7423 C   0  0  0  0  0  0  0  0  0  0  0  0
   20.9291    0.0282   13.0475 O   0  0  0  0  0  0  0  0  0  0  0  0
   17.9573    5.9629   11.4738 C   0  0  1  0  0  0  0  0  0  0  0  0
   18.8936    0.8071   14.9222 O   0  0  0  0  0  0  0  0  0  0  0  0
   18.7358    5.3456   12.6420 C   0  0  2  0  0  0  0  0  0  0  0  0
   21.0825    8.1526   16.1846 O   0  0  0  0  0  0  0  0  0  0  0  0
   18.2482    3.0695   11.9752 C   0  0  1  0  0  0  0  0  0  0  0  0
   23.6942    7.7462   16.0772 O   0  0  0  0  0  0  0  0  0  0  0  0
   19.9240    1.4394   11.3648 C   0  0  2  0  0  0  0  0  0  0  0  0
   20.3119    0.4677   10.2477 C   0  0  0  0  0  0  0  0  0  0  0  0
   19.7012    0.6469   12.6542 C   0  0  2  0  0  0  0  0  0  0  0  0
   19.2276    1.5839   13.7672 C   0  0  1  0  0  0  0  0  0  0  0  0
   17.9942    2.3699   13.3147 C   0  0  1  0  0  0  0  0  0  0  0  0
   21.4919    6.7842   16.2440 C   0  0  2  0  0  0  0  0  0  0  0  0
   22.9502    6.6852   16.6815 C   0  0  1  0  0  0  0  0  0  0  0  0
  1  3  1  0  0  0  0
  4  1  1  1  0  0  0
  4  6  1  0  0  0  0
  4 31  1  0  0  0  0
  6  7  1  0  0  0  0
  7  9  1  1  0  0  0
  7 30  1  0  0  0  0
  8 26  1  0  0  0  0
 10  9  1  1  0  0  0
 10 13  1  0  0  0  0
 10 21  1  0  0  0  0
 13 12  1  6  0  0  0
 13 15  1  0  0  0  0
 15  2  1  1  0  0  0
 15 17  1  0  0  0  0
 16 25  1  0  0  0  0
 16 23  1  0  0  0  0
 17 19  1  0  0  0  0
 19  5  1  1  0  0  0
 19 21  1  0  0  0  0
 21 14  1  6  0  0  0
 23 14  1  1  0  0  0
 23 29  1  0  0  0  0
 25 26  1  6  0  0  0
 25 27  1  0  0  0  0
 27 18  1  1  0  0  0
 27 28  1  0  0  0  0
 28 20  1  1  0  0  0
 28 29  1  0  0  0  0
 29 11  1  1  0  0  0
 30 22  1  6  0  0  0
 30 31  1  0  0  0  0
 31 24  1  6  0  0  0
M  END
>  <CHROM.1>
-55.05585161,-120.73329617,-82.61308593,154.96505342,163.90391899,-54.97537094
20.02408166,4.62821107,13.63566148,-1.04281258,0.82858982,-2.99132226

>  <Name>
ligand

>  <RI>
0

>  <Rbt.Current_Directory>
/home/itssahil/PROJECTS/Mol_Feturizer/New_Systems/rnas/3DVV

>  <Rbt.Executable>
rbdock ($Id: //depot/dev/client3/rdock/2013.1/src/exe/rbdock.cxx#4 $)

>  <Rbt.Library>
libRbt.so (2013.1, Build901 2013/11/27)

>  <Rbt.Parameter_File>
/export/apps/rDock/src/rDock_2013.1_src/data/scripts/dock_solv.prm

>  <Rbt.Receptor>
prm/blind_docking_40.prm

>  <SCORE>
4.60434

>  <SCORE.INTER>
-2.12035

>  <SCORE.INTER.CONST>
1

>  <SCORE.INTER.POLAR>
0

>  <SCORE.INTER.ROT>
6

>  <SCORE.INTER.SOLV>
15.0948

>  <SCORE.INTER.VDW>
-14.0452

>  <SCORE.INTER.norm>
-0.0683983

>  <SCORE.INTRA>
5.94936

>  <SCORE.INTRA.DIHEDRAL>
2.6047

>  <SCORE.INTRA.DIHEDRAL.0>
10.8172

>  <SCORE.INTRA.POLAR>
0

>  <SCORE.INTRA.POLAR.0>
0

>  <SCORE.INTRA.REPUL>
0

>  <SCORE.INTRA.REPUL.0>
0

>  <SCORE.INTRA.SOLV>
1.95718

>  <SCORE.INTRA.SOLV.lig_0>
-80.3833

>  <SCORE.INTRA.VDW>
3.66842

>  <SCORE.INTRA.VDW.0>
-4.63762

>  <SCORE.INTRA.norm>
0.191915

>  <SCORE.RESTR>
0.775324

>  <SCORE.RESTR.CAVITY>
0.775324

>  <SCORE.RESTR.norm>
0.0250105

>  <SCORE.SYSTEM>
0

>  <SCORE.SYSTEM.CONST>
0

>  <SCORE.SYSTEM.DIHEDRAL>
0

>  <SCORE.SYSTEM.SOLV>
0

>  <SCORE.SYSTEM.norm>
0

>  <SCORE.heavy>
31

>  <SCORE.norm>
0.148527

>  <RMSD>
6.741

$$$$
ligand
 OpenBabel11021811473D
libRbt.so/2013.1/901 2013/11/27
 31 33  0  0  0  0  0  0  0  0999 V2000
   23.3530    3.4255   16.4812 C   0  0  0  0  0  0  0  0  0  0  0  0
   17.5654    7.7762   11.9121 N   0  0  0  0  0  0  0  0  0  0  0  0
   24.1545    3.6414   17.6473 O   0  0  0  0  0  0  0  0  0  0  0  0
   22.7418    4.7471   16.0091 C   0  0  1  0  0  0  0  0  0  0  0  0
   16.2656    3.0880   11.4280 N   0  0  0  0  0  0  0  0  0  0  0  0
   21.8011    4.5069   14.9442 O   0  0  0  0  0  0  0  0  0  0  0  0
   20.5392    5.0957   15.3059 C   0  0  1  0  0  0  0  0  0  0  0  0
   15.7422   -0.6609   11.1288 N   0  0  0  0  0  0  0  0  0  0  0  0
   19.4324    4.3376   14.7928 O   0  0  0  0  0  0  0  0  0  0  0  0
   19.1187    4.6278   13.4226 C   0  0  2  0  0  0  0  0  0  0  0  0
   20.7388    1.6926   14.4957 N   0  0  0  0  0  0  0  0  0  0  0  0
   19.5745    6.9814   13.7316 O   0  0  0  0  0  0  0  0  0  0  0  0
   18.5484    6.0502   13.3774 C   0  0  1  0  0  0  0  0  0  0  0  0
   18.7056    2.3093   12.6912 O   0  0  0  0  0  0  0  0  0  0  0  0
   18.0290    6.3819   11.9770 C   0  0  1  0  0  0  0  0  0  0  0  0
   17.5222    0.3416   13.2069 O   0  0  0  0  0  0  0  0  0  0  0  0
   16.8831    5.4313   11.6296 C   0  0  0  0  0  0  0  0  0  0  0  0
   19.7785   -1.7963   11.2538 O   0  0  0  0  0  0  0  0  0  0  0  0
   17.4091    3.9930   11.6194 C   0  0  1  0  0  0  0  0  0  0  0  0
   21.4627   -0.9056   13.4067 O   0  0  0  0  0  0  0  0  0  0  0  0
   18.1096    3.5973   12.9250 C   0  0  2  0  0  0  0  0  0  0  0  0
   19.6025    5.8914   17.4383 O   0  0  0  0  0  0  0  0  0  0  0  0
   18.4410    1.3301   13.7080 C   0  0  1  0  0  0  0  0  0  0  0  0
   22.0554    6.8307   17.1241 O   0  0  0  0  0  0  0  0  0  0  0  0
   17.9975   -0.3752   12.0547 C   0  0  2  0  0  0  0  0  0  0  0  0
   16.9307   -1.3803   11.6141 C   0  0  0  0  0  0  0  0  0  0  0  0
   19.2739   -1.1363   12.4177 C   0  0  2  0  0  0  0  0  0  0  0  0
   20.3297   -0.1624   12.9449 C   0  0  1  0  0  0  0  0  0  0  0  0
   19.7635    0.6641   14.1025 C   0  0  1  0  0  0  0  0  0  0  0  0
   20.5298    4.9898   16.8295 C   0  0  2  0  0  0  0  0  0  0  0  0
   21.9624    5.4042   17.1518 C   0  0  1  0  0  0  0  0  0  0  0  0
  1  3  1  0  0  0  0
  4  1  1  1  0  0  0
  4  6  1  0  0  0  0
  4 31  1  0  0  0  0
  6  7  1  0  0  0  0
  7  9  1  6  0  0  0
  7 30  1  0  0  0  0
  8 26  1  0  0  0  0
 10  9  1  1  0  0  0
 10 13  1  0  0  0  0
 10 21  1  0  0  0  0
 13 12  1  6  0  0  0
 13 15  1  0  0  0  0
 15  2  1  1  0  0  0
 15 17  1  0  0  0  0
 16 25  1  0  0  0  0
 16 23  1  0  0  0  0
 17 19  1  0  0  0  0
 19  5  1  1  0  0  0
 19 21  1  0  0  0  0
 21 14  1  6  0  0  0
 23 14  1  6  0  0  0
 23 29  1  0  0  0  0
 25 26  1  1  0  0  0
 25 27  1  0  0  0  0
 27 18  1  6  0  0  0
 27 28  1  0  0  0  0
 28 20  1  1  0  0  0
 28 29  1  0  0  0  0
 29 11  1  6  0  0  0
 30 22  1  1  0  0  0
 30 31  1  0  0  0  0
 31 24  1  6  0  0  0
M  END
>  <CHROM.1>
-172.61899351,-82.25328340,-69.07680587,108.05955554,103.13855454,66.34979475
19.53713570,3.12066193,13.86667047,-0.97111025,0.69907019,-2.92503878

>  <Name>
ligand

>  <RI>
0

>  <Rbt.Current_Directory>
/home/itssahil/PROJECTS/Mol_Feturizer/New_Systems/rnas/3DVV

>  <Rbt.Executable>
rbdock ($Id: //depot/dev/client3/rdock/2013.1/src/exe/rbdock.cxx#4 $)

>  <Rbt.Library>
libRbt.so (2013.1, Build901 2013/11/27)

>  <Rbt.Parameter_File>
/export/apps/rDock/src/rDock_2013.1_src/data/scripts/dock_solv.prm

>  <Rbt.Receptor>
prm/blind_docking_80.prm

>  <SCORE>
1.94851

>  <SCORE.INTER>
-3.2725

>  <SCORE.INTER.CONST>
1

>  <SCORE.INTER.POLAR>
0

>  <SCORE.INTER.ROT>
6

>  <SCORE.INTER.SOLV>
18.0349

>  <SCORE.INTER.VDW>
-15.7933

>  <SCORE.INTER.norm>
-0.105564

>  <SCORE.INTRA>
4.8283

>  <SCORE.INTRA.DIHEDRAL>
4.52961

>  <SCORE.INTRA.DIHEDRAL.0>
10.8172

>  <SCORE.INTRA.POLAR>
0

>  <SCORE.INTRA.POLAR.0>
0

>  <SCORE.INTRA.REPUL>
0.0327282

>  <SCORE.INTRA.REPUL.0>
0

>  <SCORE.INTRA.SOLV>
0.995515

>  <SCORE.INTRA.SOLV.lig_0>
-80.3833

>  <SCORE.INTRA.VDW>
1.9021

>  <SCORE.INTRA.VDW.0>
-4.63762

>  <SCORE.INTRA.norm>
0.155752

>  <SCORE.RESTR>
0.392703

>  <SCORE.RESTR.CAVITY>
0.392703

>  <SCORE.RESTR.norm>
0.0126678

>  <SCORE.SYSTEM>
0

>  <SCORE.SYSTEM.CONST>
0

>  <SCORE.SYSTEM.DIHEDRAL>
0

>  <SCORE.SYSTEM.SOLV>
0

>  <SCORE.SYSTEM.norm>
0

>  <SCORE.heavy>
31

>  <SCORE.norm>
0.0628551

>  <RMSD>
6.743

$$$$
ligand
 OpenBabel11021811473D
libRbt.so/2013.1/901 2013/11/27
 31 33  0  0  0  0  0  0  0  0999 V2000
   22.6526    4.7698   17.5764 C   0  0  0  0  0  0  0  0  0  0  0  0
   16.6319    5.5713   12.2867 N   0  0  0  0  0  0  0  0  0  0  0  0
   24.0649    4.6116   17.7479 O   0  0  0  0  0  0  0  0  0  0  0  0
   22.3512    5.3531   16.1936 C   0  0  1  0  0  0  0  0  0  0  0  0
   14.5427    6.3192   16.6433 N   0  0  0  0  0  0  0  0  0  0  0  0
   20.9283    5.3888   15.9690 O   0  0  0  0  0  0  0  0  0  0  0  0
   20.5527    6.7333   15.6211 C   0  0  1  0  0  0  0  0  0  0  0  0
   16.2888   10.3662   17.7079 N   0  0  0  0  0  0  0  0  0  0  0  0
   19.2408    7.0609   16.1053 O   0  0  0  0  0  0  0  0  0  0  0  0
   18.2290    6.1208   15.7151 C   0  0  2  0  0  0  0  0  0  0  0  0
   18.1821    4.6475   20.0948 N   0  0  0  0  0  0  0  0  0  0  0  0
   19.1620    5.9143   13.4949 O   0  0  0  0  0  0  0  0  0  0  0  0
   17.9890    6.3076   14.2125 C   0  0  1  0  0  0  0  0  0  0  0  0
   17.0849    5.9596   17.8937 O   0  0  0  0  0  0  0  0  0  0  0  0
   16.8041    5.4610   13.7433 C   0  0  1  0  0  0  0  0  0  0  0  0
   17.8476    8.0557   18.6441 O   0  0  0  0  0  0  0  0  0  0  0  0
   15.5376    5.9319   14.4585 C   0  0  0  0  0  0  0  0  0  0  0  0
   15.2309    8.3445   21.2025 O   0  0  0  0  0  0  0  0  0  0  0  0
   15.7072    5.7278   15.9669 C   0  0  1  0  0  0  0  0  0  0  0  0
   16.8243    6.1588   22.1764 O   0  0  0  0  0  0  0  0  0  0  0  0
   16.9678    6.3966   16.5283 C   0  0  2  0  0  0  0  0  0  0  0  0
   21.6826    8.9083   15.8459 O   0  0  0  0  0  0  0  0  0  0  0  0
   18.0942    6.6374   18.6582 C   0  0  1  0  0  0  0  0  0  0  0  0
   23.3462    7.1301   14.8123 O   0  0  0  0  0  0  0  0  0  0  0  0
   16.5786    8.4393   19.2006 C   0  0  2  0  0  0  0  0  0  0  0  0
   16.4326    9.9604   19.1151 C   0  0  0  0  0  0  0  0  0  0  0  0
   16.5175    8.0186   20.6701 C   0  0  2  0  0  0  0  0  0  0  0  0
   16.7479    6.5108   20.7910 C   0  0  1  0  0  0  0  0  0  0  0  0
   18.0535    6.1128   20.0974 C   0  0  1  0  0  0  0  0  0  0  0  0
   21.5710    7.5853   16.3759 C   0  0  2  0  0  0  0  0  0  0  0  0
   22.8511    6.7982   16.1120 C   0  0  1  0  0  0  0  0  0  0  0  0
  1  3  1  0  0  0  0
  4  1  1  1  0  0  0
  4  6  1  0  0  0  0
  4 31  1  0  0  0  0
  6  7  1  0  0  0  0
  7  9  1  1  0  0  0
  7 30  1  0  0  0  0
  8 26  1  0  0  0  0
 10  9  1  1  0  0  0
 10 13  1  0  0  0  0
 10 21  1  0  0  0  0
 13 12  1  6  0  0  0
 13 15  1  0  0  0  0
 15  2  1  6  0  0  0
 15 17  1  0  0  0  0
 16 25  1  0  0  0  0
 16 23  1  0  0  0  0
 17 19  1  0  0  0  0
 19  5  1  1  0  0  0
 19 21  1  0  0  0  0
 21 14  1  1  0  0  0
 23 14  1  6  0  0  0
 23 29  1  0  0  0  0
 25 26  1  1  0  0  0
 25 27  1  0  0  0  0
 27 18  1  6  0  0  0
 27 28  1  0  0  0  0
 28 20  1  1  0  0  0
 28 29  1  0  0  0  0
 29 11  1  6  0  0  0
 30 22  1  6  0  0  0
 30 31  1  0  0  0  0
 31 24  1  6  0  0  0
M  END
>  <CHROM.1>
174.32277556,-53.02275422,-71.35998115,57.02992793,63.60846929,68.87048135
18.58507421,6.69333866,17.16163949,-0.65027887,-0.12773133,1.41791846

>  <Name>
ligand

>  <RI>
0

>  <Rbt.Current_Directory>
/home/itssahil/PROJECTS/Mol_Feturizer/New_Systems/rnas/3DVV

>  <Rbt.Executable>
rbdock ($Id: //depot/dev/client3/rdock/2013.1/src/exe/rbdock.cxx#4 $)

>  <Rbt.Library>
libRbt.so (2013.1, Build901 2013/11/27)

>  <Rbt.Parameter_File>
/export/apps/rDock/src/rDock_2013.1_src/data/scripts/dock_solv.prm

>  <Rbt.Receptor>
prm/pocket_docking_6.prm

>  <SCORE>
-9.68466

>  <SCORE.INTER>
-5.8416

>  <SCORE.INTER.CONST>
1

>  <SCORE.INTER.POLAR>
0

>  <SCORE.INTER.ROT>
6

>  <SCORE.INTER.SOLV>
11.9307

>  <SCORE.INTER.VDW>
-15.4713

>  <SCORE.INTER.norm>
-0.188439

>  <SCORE.INTRA>
-3.84305

>  <SCORE.INTRA.DIHEDRAL>
-9.20042

>  <SCORE.INTRA.DIHEDRAL.0>
10.8172

>  <SCORE.INTRA.POLAR>
0

>  <SCORE.INTRA.POLAR.0>
0

>  <SCORE.INTRA.REPUL>
0

>  <SCORE.INTRA.REPUL.0>
0

>  <SCORE.INTRA.SOLV>
-4.22018

>  <SCORE.INTRA.SOLV.lig_0>
-80.3833

>  <SCORE.INTRA.VDW>
2.86725

>  <SCORE.INTRA.VDW.0>
-4.63762

>  <SCORE.INTRA.norm>
-0.123969

>  <SCORE.RESTR>
0

>  <SCORE.RESTR.CAVITY>
0

>  <SCORE.RESTR.norm>
0

>  <SCORE.SYSTEM>
0

>  <SCORE.SYSTEM.CONST>
0

>  <SCORE.SYSTEM.DIHEDRAL>
0

>  <SCORE.SYSTEM.SOLV>
0

>  <SCORE.SYSTEM.norm>
0

>  <SCORE.heavy>
31

>  <SCORE.norm>
-0.312408

>  <RMSD>
6.747

$$$$
ligand
 OpenBabel11021811473D
libRbt.so/2013.1/901 2013/11/27
 31 33  0  0  0  0  0  0  0  0999 V2000
   22.6179    5.3187   17.2912 C   0  0  0  0  0  0  0  0  0  0  0  0
   16.0574    5.7316   12.4328 N   0  0  0  0  0  0  0  0  0  0  0  0
   22.3139    3.9259   17.4198 O   0  0  0  0  0  0  0  0  0  0  0  0
   22.1250    5.8438   15.9404 C   0  0  1  0  0  0  0  0  0  0  0  0
   14.2815    6.0119   16.9794 N   0  0  0  0  0  0  0  0  0  0  0  0
   20.6927    5.7144   15.8500 O   0  0  0  0  0  0  0  0  0  0  0  0
   20.1351    7.0023   15.5334 C   0  0  1  0  0  0  0  0  0  0  0  0
   16.3288   10.2171   17.8694 N   0  0  0  0  0  0  0  0  0  0  0  0
   18.8449    7.1859   16.1372 O   0  0  0  0  0  0  0  0  0  0  0  0
   17.8827    6.1903   15.7592 C   0  0  2  0  0  0  0  0  0  0  0  0
   18.1562    4.4613   20.1286 N   0  0  0  0  0  0  0  0  0  0  0  0
   18.6429    6.2098   13.4648 O   0  0  0  0  0  0  0  0  0  0  0  0
   17.5055    6.4537   14.2967 C   0  0  1  0  0  0  0  0  0  0  0  0
   16.9387    5.7899   18.0019 O   0  0  0  0  0  0  0  0  0  0  0  0
   16.3574    5.5414   13.8602 C   0  0  1  0  0  0  0  0  0  0  0  0
   17.7578    7.8780   18.7143 O   0  0  0  0  0  0  0  0  0  0  0  0
   15.1207    5.8547   14.7026 C   0  0  0  0  0  0  0  0  0  0  0  0
   15.2992    8.1711   21.4246 O   0  0  0  0  0  0  0  0  0  0  0  0
   15.4298    5.5677   16.1749 C   0  0  1  0  0  0  0  0  0  0  0  0
   16.9337    5.9715   22.2933 O   0  0  0  0  0  0  0  0  0  0  0  0
   16.6749    6.3037   16.6845 C   0  0  2  0  0  0  0  0  0  0  0  0
   21.0247    9.2946   15.6430 O   0  0  0  0  0  0  0  0  0  0  0  0
   17.9959    6.4582   18.7080 C   0  0  1  0  0  0  0  0  0  0  0  0
   22.7779    7.7020   14.4651 O   0  0  0  0  0  0  0  0  0  0  0  0
   16.5264    8.2667   19.3467 C   0  0  2  0  0  0  0  0  0  0  0  0
   16.3852    9.7891   19.2763 C   0  0  0  0  0  0  0  0  0  0  0  0
   16.5499    7.8398   20.8155 C   0  0  2  0  0  0  0  0  0  0  0  0
   16.7776    6.3302   20.9163 C   0  0  1  0  0  0  0  0  0  0  0  0
   18.0372    5.9273   20.1449 C   0  0  1  0  0  0  0  0  0  0  0  0
   21.1147    7.9754   16.1862 C   0  0  2  0  0  0  0  0  0  0  0  0
   22.4466    7.3350   15.8067 C   0  0  1  0  0  0  0  0  0  0  0  0
  1  3  1  0  0  0  0
  4  1  1  1  0  0  0
  4  6  1  0  0  0  0
  4 31  1  0  0  0  0
  6  7  1  0  0  0  0
  7  9  1  1  0  0  0
  7 30  1  0  0  0  0
  8 26  1  0  0  0  0
 10  9  1  1  0  0  0
 10 13  1  0  0  0  0
 10 21  1  0  0  0  0
 13 12  1  6  0  0  0
 13 15  1  0  0  0  0
 15  2  1  6  0  0  0
 15 17  1  0  0  0  0
 16 25  1  0  0  0  0
 16 23  1  0  0  0  0
 17 19  1  0  0  0  0
 19  5  1  1  0  0  0
 19 21  1  0  0  0  0
 21 14  1  1  0  0  0
 23 14  1  6  0  0  0
 23 29  1  0  0  0  0
 25 26  1  1  0  0  0
 25 27  1  0  0  0  0
 27 18  1  6  0  0  0
 27 28  1  0  0  0  0
 28 20  1  1  0  0  0
 28 29  1  0  0  0  0
 29 11  1  6  0  0  0
 30 22  1  6  0  0  0
 30 31  1  0  0  0  0
 31 24  1  6  0  0  0
M  END
>  <CHROM.1>
62.15027485,-57.85883365,-71.48099146,52.43292541,60.66601443,61.87371223
18.28878454,6.72347333,17.17813140,-0.80362758,-0.03890072,1.46756774

>  <Name>
ligand

>  <RI>
0

>  <Rbt.Current_Directory>
/home/itssahil/PROJECTS/Mol_Feturizer/New_Systems/rnas/3DVV

>  <Rbt.Executable>
rbdock ($Id: //depot/dev/client3/rdock/2013.1/src/exe/rbdock.cxx#4 $)

>  <Rbt.Library>
libRbt.so (2013.1, Build901 2013/11/27)

>  <Rbt.Parameter_File>
/export/apps/rDock/src/rDock_2013.1_src/data/scripts/dock_solv.prm

>  <Rbt.Receptor>
prm/pocket_docking_5.prm

>  <SCORE>
-9.0041

>  <SCORE.INTER>
-5.05902

>  <SCORE.INTER.CONST>
1

>  <SCORE.INTER.POLAR>
0

>  <SCORE.INTER.ROT>
6

>  <SCORE.INTER.SOLV>
11.6923

>  <SCORE.INTER.VDW>
-14.8701

>  <SCORE.INTER.norm>
-0.163194

>  <SCORE.INTRA>
-3.95153

>  <SCORE.INTRA.DIHEDRAL>
-9.57851

>  <SCORE.INTRA.DIHEDRAL.0>
10.8172

>  <SCORE.INTRA.POLAR>
0

>  <SCORE.INTRA.POLAR.0>
0

>  <SCORE.INTRA.REPUL>
0

>  <SCORE.INTRA.REPUL.0>
0

>  <SCORE.INTRA.SOLV>
-4.22101

>  <SCORE.INTRA.SOLV.lig_0>
-80.3833

>  <SCORE.INTRA.VDW>
2.94823

>  <SCORE.INTRA.VDW.0>
-4.63762

>  <SCORE.INTRA.norm>
-0.127469

>  <SCORE.RESTR>
0.0064509

>  <SCORE.RESTR.CAVITY>
0.0064509

>  <SCORE.RESTR.norm>
0.000208094

>  <SCORE.SYSTEM>
0

>  <SCORE.SYSTEM.CONST>
0

>  <SCORE.SYSTEM.DIHEDRAL>
0

>  <SCORE.SYSTEM.SOLV>
0

>  <SCORE.SYSTEM.norm>
0

>  <SCORE.heavy>
31

>  <SCORE.norm>
-0.290455

>  <RMSD>
6.748

$$$$
ligand
 OpenBabel11021811473D
libRbt.so/2013.1/901 2013/11/27
 31 33  0  0  0  0  0  0  0  0999 V2000
   19.7311    9.2977   10.4557 C   0  0  0  0  0  0  0  0  0  0  0  0
   22.2421    4.5564   17.7289 N   0  0  0  0  0  0  0  0  0  0  0  0
   19.8680    8.5199    9.2619 O   0  0  0  0  0  0  0  0  0  0  0  0
   18.7922    8.5941   11.4389 C   0  0  1  0  0  0  0  0  0  0  0  0
   20.3305    1.5942   14.3416 N   0  0  0  0  0  0  0  0  0  0  0  0
   19.2890    7.2763   11.7436 O   0  0  0  0  0  0  0  0  0  0  0  0
   19.4100    7.1509   13.1717 C   0  0  1  0  0  0  0  0  0  0  0  0
   20.1682    0.4980    9.6309 N   0  0  0  0  0  0  0  0  0  0  0  0
   20.5144    6.3096   13.5398 O   0  0  0  0  0  0  0  0  0  0  0  0
   20.2125    5.3901   14.5997 C   0  0  2  0  0  0  0  0  0  0  0  0
   16.4614    5.0078   12.5517 N   0  0  0  0  0  0  0  0  0  0  0  0
   21.3382    6.7739   16.2308 O   0  0  0  0  0  0  0  0  0  0  0  0
   21.3532    5.4808   15.6199 C   0  0  1  0  0  0  0  0  0  0  0  0
   18.8693    3.8032   13.2735 O   0  0  0  0  0  0  0  0  0  0  0  0
   21.1988    4.4107   16.7025 C   0  0  1  0  0  0  0  0  0  0  0  0
   19.6778    3.8782   11.0646 O   0  0  0  0  0  0  0  0  0  0  0  0
   21.2880    3.0280   16.0563 C   0  0  0  0  0  0  0  0  0  0  0  0
   17.6038    1.0538    9.9700 O   0  0  0  0  0  0  0  0  0  0  0  0
   20.1414    2.8670   15.0539 C   0  0  1  0  0  0  0  0  0  0  0  0
   15.6520    3.0922   10.5180 O   0  0  0  0  0  0  0  0  0  0  0  0
   20.0914    3.9885   14.0091 C   0  0  2  0  0  0  0  0  0  0  0  0
   19.4479    8.7893   15.0081 O   0  0  0  0  0  0  0  0  0  0  0  0
   18.8068    4.5070   12.0231 C   0  0  1  0  0  0  0  0  0  0  0  0
   17.4445    9.3223   13.3649 O   0  0  0  0  0  0  0  0  0  0  0  0
   19.3536    2.5057   10.7845 C   0  0  2  0  0  0  0  0  0  0  0  0
   20.3545    1.9514    9.7680 C   0  0  0  0  0  0  0  0  0  0  0  0
   17.9472    2.4248   10.1881 C   0  0  2  0  0  0  0  0  0  0  0  0
   16.9361    3.0529   11.1495 C   0  0  1  0  0  0  0  0  0  0  0  0
   17.3611    4.4772   11.5160 C   0  0  1  0  0  0  0  0  0  0  0  0
   19.7210    8.5771   13.6210 C   0  0  2  0  0  0  0  0  0  0  0  0
   18.7394    9.3665   12.7601 C   0  0  1  0  0  0  0  0  0  0  0  0
  1  3  1  0  0  0  0
  4  1  1  6  0  0  0
  4  6  1  0  0  0  0
  4 31  1  0  0  0  0
  6  7  1  0  0  0  0
  7  9  1  6  0  0  0
  7 30  1  0  0  0  0
  8 26  1  0  0  0  0
 10  9  1  6  0  0  0
 10 13  1  0  0  0  0
 10 21  1  0  0  0  0
 13 12  1  1  0  0  0
 13 15  1  0  0  0  0
 15  2  1  1  0  0  0
 15 17  1  0  0  0  0
 16 25  1  0  0  0  0
 16 23  1  0  0  0  0
 17 19  1  0  0  0  0
 19  5  1  6  0  0  0
 19 21  1  0  0  0  0
 21 14  1  1  0  0  0
 23 14  1  1  0  0  0
 23 29  1  0  0  0  0
 25 26  1  6  0  0  0
 25 27  1  0  0  0  0
 27 18  1  1  0  0  0
 27 28  1  0  0  0  0
 28 20  1  6  0  0  0
 28 29  1  0  0  0  0
 29 11  1  1  0  0  0
 30 22  1  1  0  0  0
 30 31  1  0  0  0  0
 31 24  1  1  0  0  0
M  END
>  <CHROM.1>
57.58903396,-137.01881992,-132.31386484,72.31900245,71.17528664,171.16417261
19.35061391,5.11457593,12.78499468,1.07492491,-1.08314320,0.11364464

>  <Name>
ligand

>  <RI>
0

>  <Rbt.Current_Directory>
/home/itssahil/PROJECTS/Mol_Feturizer/New_Systems/rnas/3DVV

>  <Rbt.Executable>
rbdock ($Id: //depot/dev/client3/rdock/2013.1/src/exe/rbdock.cxx#4 $)

>  <Rbt.Library>
libRbt.so (2013.1, Build901 2013/11/27)

>  <Rbt.Parameter_File>
/export/apps/rDock/src/rDock_2013.1_src/data/scripts/dock_solv.prm

>  <Rbt.Receptor>
prm/blind_docking_80.prm

>  <SCORE>
-1.5308

>  <SCORE.INTER>
-3.92795

>  <SCORE.INTER.CONST>
1

>  <SCORE.INTER.POLAR>
0

>  <SCORE.INTER.ROT>
6

>  <SCORE.INTER.SOLV>
18.2313

>  <SCORE.INTER.VDW>
-16.2957

>  <SCORE.INTER.norm>
-0.126708

>  <SCORE.INTRA>
2.17061

>  <SCORE.INTRA.DIHEDRAL>
3.13223

>  <SCORE.INTRA.DIHEDRAL.0>
10.8172

>  <SCORE.INTRA.POLAR>
0

>  <SCORE.INTRA.POLAR.0>
0

>  <SCORE.INTRA.REPUL>
0

>  <SCORE.INTRA.REPUL.0>
0

>  <SCORE.INTRA.SOLV>
-1.39912

>  <SCORE.INTRA.SOLV.lig_0>
-80.3833

>  <SCORE.INTRA.VDW>
1.30405

>  <SCORE.INTRA.VDW.0>
-4.63762

>  <SCORE.INTRA.norm>
0.0700197

>  <SCORE.RESTR>
0.226535

>  <SCORE.RESTR.CAVITY>
0.226535

>  <SCORE.RESTR.norm>
0.00730758

>  <SCORE.SYSTEM>
0

>  <SCORE.SYSTEM.CONST>
0

>  <SCORE.SYSTEM.DIHEDRAL>
0

>  <SCORE.SYSTEM.SOLV>
0

>  <SCORE.SYSTEM.norm>
0

>  <SCORE.heavy>
31

>  <SCORE.norm>
-0.0493808

>  <RMSD>
6.758

$$$$
ligand
 OpenBabel11021811473D
libRbt.so/2013.1/901 2013/11/27
 31 33  0  0  0  0  0  0  0  0999 V2000
   22.9052    3.8724   17.2877 C   0  0  0  0  0  0  0  0  0  0  0  0
   18.6686    8.8671   11.1159 N   0  0  0  0  0  0  0  0  0  0  0  0
   23.6113    4.1527   18.5009 O   0  0  0  0  0  0  0  0  0  0  0  0
   23.0619    5.0358   16.3053 C   0  0  1  0  0  0  0  0  0  0  0  0
   17.1906    4.2068   11.0956 N   0  0  0  0  0  0  0  0  0  0  0  0
   22.1545    4.8759   15.1974 O   0  0  0  0  0  0  0  0  0  0  0  0
   21.3592    6.0691   15.0803 C   0  0  1  0  0  0  0  0  0  0  0  0
   15.8541   -0.0128   12.1308 N   0  0  0  0  0  0  0  0  0  0  0  0
   20.0329    5.7801   14.6110 O   0  0  0  0  0  0  0  0  0  0  0  0
   19.8852    5.8951   13.1880 C   0  0  2  0  0  0  0  0  0  0  0  0
   21.7342    2.3392   13.7698 N   0  0  0  0  0  0  0  0  0  0  0  0
   20.4246    8.2507   13.2407 O   0  0  0  0  0  0  0  0  0  0  0  0
   19.3968    7.3184   12.8946 C   0  0  1  0  0  0  0  0  0  0  0  0
   19.4358    3.5161   12.7197 O   0  0  0  0  0  0  0  0  0  0  0  0
   19.0503    7.4781   11.4129 C   0  0  1  0  0  0  0  0  0  0  0  0
   18.0316    2.2318   14.1042 O   0  0  0  0  0  0  0  0  0  0  0  0
   17.9018    6.5319   11.0623 C   0  0  0  0  0  0  0  0  0  0  0  0
   18.4371   -0.8046   12.0813 O   0  0  0  0  0  0  0  0  0  0  0  0
   18.3514    5.0870   11.2982 C   0  0  1  0  0  0  0  0  0  0  0  0
   21.0638   -0.4309   13.1885 O   0  0  0  0  0  0  0  0  0  0  0  0
   18.8846    4.8447   12.7155 C   0  0  2  0  0  0  0  0  0  0  0  0
   20.9084    7.9479   16.6050 O   0  0  0  0  0  0  0  0  0  0  0  0
   19.3360    2.8271   13.9759 C   0  0  1  0  0  0  0  0  0  0  0  0
   23.5047    7.4455   16.5355 O   0  0  0  0  0  0  0  0  0  0  0  0
   17.7171    1.2734   13.0796 C   0  0  2  0  0  0  0  0  0  0  0  0
   16.3077    0.7269   13.3194 C   0  0  0  0  0  0  0  0  0  0  0  0
   18.7138    0.1146   13.1414 C   0  0  2  0  0  0  0  0  0  0  0  0
   20.1409    0.6455   12.9911 C   0  0  1  0  0  0  0  0  0  0  0  0
   20.4152    1.7403   14.0255 C   0  0  1  0  0  0  0  0  0  0  0  0
   21.2623    6.5654   16.5214 C   0  0  2  0  0  0  0  0  0  0  0  0
   22.6987    6.3559   16.9912 C   0  0  1  0  0  0  0  0  0  0  0  0
  1  3  1  0  0  0  0
  4  1  1  1  0  0  0
  4  6  1  0  0  0  0
  4 31  1  0  0  0  0
  6  7  1  0  0  0  0
  7  9  1  1  0  0  0
  7 30  1  0  0  0  0
  8 26  1  0  0  0  0
 10  9  1  1  0  0  0
 10 13  1  0  0  0  0
 10 21  1  0  0  0  0
 13 12  1  6  0  0  0
 13 15  1  0  0  0  0
 15  2  1  1  0  0  0
 15 17  1  0  0  0  0
 16 25  1  0  0  0  0
 16 23  1  0  0  0  0
 17 19  1  0  0  0  0
 19  5  1  1  0  0  0
 19 21  1  0  0  0  0
 21 14  1  6  0  0  0
 23 14  1  6  0  0  0
 23 29  1  0  0  0  0
 25 26  1  1  0  0  0
 25 27  1  0  0  0  0
 27 18  1  6  0  0  0
 27 28  1  0  0  0  0
 28 20  1  1  0  0  0
 28 29  1  0  0  0  0
 29 11  1  6  0  0  0
 30 22  1  6  0  0  0
 30 31  1  0  0  0  0
 31 24  1  6  0  0  0
M  END
>  <CHROM.1>
-169.06409052,-93.70748599,-93.29464713,82.78938657,86.17695522,167.25627844
19.98406224,4.21621395,13.91473473,-0.75427126,0.79912722,3.01201838

>  <Name>
ligand

>  <RI>
0

>  <Rbt.Current_Directory>
/home/itssahil/PROJECTS/Mol_Feturizer/New_Systems/rnas/3DVV

>  <Rbt.Executable>
rbdock ($Id: //depot/dev/client3/rdock/2013.1/src/exe/rbdock.cxx#4 $)

>  <Rbt.Library>
libRbt.so (2013.1, Build901 2013/11/27)

>  <Rbt.Parameter_File>
/export/apps/rDock/src/rDock_2013.1_src/data/scripts/dock_solv.prm

>  <Rbt.Receptor>
prm/blind_docking_100.prm

>  <SCORE>
-2.46536

>  <SCORE.INTER>
-5.31374

>  <SCORE.INTER.CONST>
1

>  <SCORE.INTER.POLAR>
0

>  <SCORE.INTER.ROT>
6

>  <SCORE.INTER.SOLV>
23.0333

>  <SCORE.INTER.VDW>
-18.8203

>  <SCORE.INTER.norm>
-0.171411

>  <SCORE.INTRA>
2.83216

>  <SCORE.INTRA.DIHEDRAL>
3.84546

>  <SCORE.INTRA.DIHEDRAL.0>
10.8172

>  <SCORE.INTRA.POLAR>
0

>  <SCORE.INTRA.POLAR.0>
0

>  <SCORE.INTRA.REPUL>
0

>  <SCORE.INTRA.REPUL.0>
0

>  <SCORE.INTRA.SOLV>
0.101296

>  <SCORE.INTRA.SOLV.lig_0>
-80.3833

>  <SCORE.INTRA.VDW>
0.858782

>  <SCORE.INTRA.VDW.0>
-4.63762

>  <SCORE.INTRA.norm>
0.09136

>  <SCORE.RESTR>
0.016217

>  <SCORE.RESTR.CAVITY>
0.016217

>  <SCORE.RESTR.norm>
0.000523129

>  <SCORE.SYSTEM>
0

>  <SCORE.SYSTEM.CONST>
0

>  <SCORE.SYSTEM.DIHEDRAL>
0

>  <SCORE.SYSTEM.SOLV>
0

>  <SCORE.SYSTEM.norm>
0

>  <SCORE.heavy>
31

>  <SCORE.norm>
-0.0795277

>  <RMSD>
6.764

$$$$
ligand
 OpenBabel11021811473D
libRbt.so/2013.1/901 2013/11/27
 31 33  0  0  0  0  0  0  0  0999 V2000
   19.1932    9.6957   12.8958 C   0  0  0  0  0  0  0  0  0  0  0  0
   22.5748    6.1078   17.0615 N   0  0  0  0  0  0  0  0  0  0  0  0
   19.6674   10.1631   14.1629 O   0  0  0  0  0  0  0  0  0  0  0  0
   19.9834    8.4592   12.4602 C   0  0  1  0  0  0  0  0  0  0  0  0
   22.4352    2.3618   13.9228 N   0  0  0  0  0  0  0  0  0  0  0  0
   20.0187    7.4911   13.5270 O   0  0  0  0  0  0  0  0  0  0  0  0
   19.5241    6.2371   13.0245 C   0  0  1  0  0  0  0  0  0  0  0  0
   19.7025    1.7364    8.7712 N   0  0  0  0  0  0  0  0  0  0  0  0
   18.8215    5.4988   14.0366 O   0  0  0  0  0  0  0  0  0  0  0  0
   19.6840    4.7888   14.9378 C   0  0  2  0  0  0  0  0  0  0  0  0
   16.9522    1.7527   14.1105 N   0  0  0  0  0  0  0  0  0  0  0  0
   19.9030    6.7180   16.3774 O   0  0  0  0  0  0  0  0  0  0  0  0
   20.6435    5.8143   15.5527 C   0  0  1  0  0  0  0  0  0  0  0  0
   19.5914    2.5979   13.8096 O   0  0  0  0  0  0  0  0  0  0  0  0
   21.7105    5.1184   16.4001 C   0  0  1  0  0  0  0  0  0  0  0  0
   19.3623    2.7922   11.4756 O   0  0  0  0  0  0  0  0  0  0  0  0
   22.5478    4.2074   15.5020 C   0  0  0  0  0  0  0  0  0  0  0  0
   19.5583   -0.8324   10.9278 O   0  0  0  0  0  0  0  0  0  0  0  0
   21.6423    3.1335   14.8919 C   0  0  1  0  0  0  0  0  0  0  0  0
   17.0632   -0.5416   12.3259 O   0  0  0  0  0  0  0  0  0  0  0  0
   20.4307    3.7145   14.1528 C   0  0  2  0  0  0  0  0  0  0  0  0
   18.2324    5.6174   11.0232 O   0  0  0  0  0  0  0  0  0  0  0  0
   18.6696    2.8453   12.7364 C   0  0  1  0  0  0  0  0  0  0  0  0
   20.2275    7.2183   10.3492 O   0  0  0  0  0  0  0  0  0  0  0  0
   19.9898    1.5283   11.2000 C   0  0  2  0  0  0  0  0  0  0  0  0
   20.6991    1.6050    9.8460 C   0  0  0  0  0  0  0  0  0  0  0  0
   18.9245    0.4321   11.1387 C   0  0  2  0  0  0  0  0  0  0  0  0
   18.1407    0.3924   12.4521 C   0  0  1  0  0  0  0  0  0  0  0  0
   17.5724    1.7764   12.7769 C   0  0  1  0  0  0  0  0  0  0  0  0
   18.5201    6.6625   11.9551 C   0  0  2  0  0  0  0  0  0  0  0  0
   19.2931    7.7859   11.2707 C   0  0  1  0  0  0  0  0  0  0  0  0
  1  3  1  0  0  0  0
  4  1  1  1  0  0  0
  4  6  1  0  0  0  0
  4 31  1  0  0  0  0
  6  7  1  0  0  0  0
  7  9  1  1  0  0  0
  7 30  1  0  0  0  0
  8 26  1  0  0  0  0
 10  9  1  6  0  0  0
 10 13  1  0  0  0  0
 10 21  1  0  0  0  0
 13 12  1  1  0  0  0
 13 15  1  0  0  0  0
 15  2  1  6  0  0  0
 15 17  1  0  0  0  0
 16 25  1  0  0  0  0
 16 23  1  0  0  0  0
 17 19  1  0  0  0  0
 19  5  1  6  0  0  0
 19 21  1  0  0  0  0
 21 14  1  1  0  0  0
 23 14  1  1  0  0  0
 23 29  1  0  0  0  0
 25 26  1  6  0  0  0
 25 27  1  0  0  0  0
 27 18  1  1  0  0  0
 27 28  1  0  0  0  0
 28 20  1  6  0  0  0
 28 29  1  0  0  0  0
 29 11  1  1  0  0  0
 30 22  1  6  0  0  0
 30 31  1  0  0  0  0
 31 24  1  6  0  0  0
M  END
>  <CHROM.1>
50.30332776,-80.26528679,56.13808903,77.46443096,75.36897468,-67.21945125
19.70036839,4.30693381,13.05037249,1.15794540,-1.15081329,-0.03726772

>  <Name>
ligand

>  <RI>
0

>  <Rbt.Current_Directory>
/home/itssahil/PROJECTS/Mol_Feturizer/New_Systems/rnas/3DVV

>  <Rbt.Executable>
rbdock ($Id: //depot/dev/client3/rdock/2013.1/src/exe/rbdock.cxx#4 $)

>  <Rbt.Library>
libRbt.so (2013.1, Build901 2013/11/27)

>  <Rbt.Parameter_File>
/export/apps/rDock/src/rDock_2013.1_src/data/scripts/dock_solv.prm

>  <Rbt.Receptor>
prm/blind_docking_100.prm

>  <SCORE>
1.0166

>  <SCORE.INTER>
1.52274

>  <SCORE.INTER.CONST>
1

>  <SCORE.INTER.POLAR>
0

>  <SCORE.INTER.ROT>
6

>  <SCORE.INTER.SOLV>
24.5765

>  <SCORE.INTER.VDW>
-14.777

>  <SCORE.INTER.norm>
0.0491207

>  <SCORE.INTRA>
-0.646062

>  <SCORE.INTRA.DIHEDRAL>
-5.72138

>  <SCORE.INTRA.DIHEDRAL.0>
10.8172

>  <SCORE.INTRA.POLAR>
0

>  <SCORE.INTRA.POLAR.0>
0

>  <SCORE.INTRA.REPUL>
0.00262804

>  <SCORE.INTRA.REPUL.0>
0

>  <SCORE.INTRA.SOLV>
-1.4233

>  <SCORE.INTRA.SOLV.lig_0>
-80.3833

>  <SCORE.INTRA.VDW>
2.91313

>  <SCORE.INTRA.VDW.0>
-4.63762

>  <SCORE.INTRA.norm>
-0.0208407

>  <SCORE.RESTR>
0.139925

>  <SCORE.RESTR.CAVITY>
0.139925

>  <SCORE.RESTR.norm>
0.0045137

>  <SCORE.SYSTEM>
0

>  <SCORE.SYSTEM.CONST>
0

>  <SCORE.SYSTEM.DIHEDRAL>
0

>  <SCORE.SYSTEM.SOLV>
0

>  <SCORE.SYSTEM.norm>
0

>  <SCORE.heavy>
31

>  <SCORE.norm>
0.0327937

>  <RMSD>
6.777

$$$$
ligand
 OpenBabel11021811473D
libRbt.so/2013.1/901 2013/11/27
 31 33  0  0  0  0  0  0  0  0999 V2000
   23.2959    6.3051   15.5802 C   0  0  0  0  0  0  0  0  0  0  0  0
   18.9404    9.0380   13.4623 N   0  0  0  0  0  0  0  0  0  0  0  0
   22.9444    7.5738   16.1421 O   0  0  0  0  0  0  0  0  0  0  0  0
   22.6116    5.1767   16.3558 C   0  0  1  0  0  0  0  0  0  0  0  0
   17.4668    5.2155   10.7938 N   0  0  0  0  0  0  0  0  0  0  0  0
   21.1845    5.3760   16.3669 O   0  0  0  0  0  0  0  0  0  0  0  0
   20.5518    4.1883   15.8581 C   0  0  1  0  0  0  0  0  0  0  0  0
   19.7183    0.3612    8.3715 N   0  0  0  0  0  0  0  0  0  0  0  0
   19.3490    4.4947   15.1354 O   0  0  0  0  0  0  0  0  0  0  0  0
   19.5654    5.3017   13.9683 C   0  0  2  0  0  0  0  0  0  0  0  0
   17.1759    2.0965   13.5204 N   0  0  0  0  0  0  0  0  0  0  0  0
   20.0987    7.2413   15.3086 O   0  0  0  0  0  0  0  0  0  0  0  0
   19.1814    6.7406   14.3322 C   0  0  1  0  0  0  0  0  0  0  0  0
   19.2236    3.5305   12.2869 O   0  0  0  0  0  0  0  0  0  0  0  0
   19.2207    7.6413   13.0960 C   0  0  1  0  0  0  0  0  0  0  0  0
   18.9788    2.3329   10.2759 O   0  0  0  0  0  0  0  0  0  0  0  0
   18.1875    7.1471   12.0831 C   0  0  0  0  0  0  0  0  0  0  0  0
   20.6855   -0.6449   11.5782 O   0  0  0  0  0  0  0  0  0  0  0  0
   18.5483    5.7225   11.6520 C   0  0  1  0  0  0  0  0  0  0  0  0
   18.2719   -0.5706   13.1383 O   0  0  0  0  0  0  0  0  0  0  0  0
   18.7051    4.7562   12.8324 C   0  0  2  0  0  0  0  0  0  0  0  0
   21.3798    2.2577   14.5756 O   0  0  0  0  0  0  0  0  0  0  0  0
   18.3036    2.8045   11.4567 C   0  0  1  0  0  0  0  0  0  0  0  0
   23.0062    2.7601   16.6005 O   0  0  0  0  0  0  0  0  0  0  0  0
   20.0832    1.4511   10.5404 C   0  0  2  0  0  0  0  0  0  0  0  0
   20.7208    1.0337    9.2131 C   0  0  0  0  0  0  0  0  0  0  0  0
   19.5764    0.2001   11.2604 C   0  0  2  0  0  0  0  0  0  0  0  0
   18.8564    0.5967   12.5510 C   0  0  1  0  0  0  0  0  0  0  0  0
   17.7545    1.6177   12.2556 C   0  0  1  0  0  0  0  0  0  0  0  0
   21.5806    3.6420   14.8704 C   0  0  2  0  0  0  0  0  0  0  0  0
   22.8682    3.8337   15.6663 C   0  0  1  0  0  0  0  0  0  0  0  0
  1  3  1  0  0  0  0
  4  1  1  6  0  0  0
  4  6  1  0  0  0  0
  4 31  1  0  0  0  0
  6  7  1  0  0  0  0
  7  9  1  6  0  0  0
  7 30  1  0  0  0  0
  8 26  1  0  0  0  0
 10  9  1  1  0  0  0
 10 13  1  0  0  0  0
 10 21  1  0  0  0  0
 13 12  1  1  0  0  0
 13 15  1  0  0  0  0
 15  2  1  1  0  0  0
 15 17  1  0  0  0  0
 16 25  1  0  0  0  0
 16 23  1  0  0  0  0
 17 19  1  0  0  0  0
 19  5  1  6  0  0  0
 19 21  1  0  0  0  0
 21 14  1  6  0  0  0
 23 14  1  1  0  0  0
 23 29  1  0  0  0  0
 25 26  1  6  0  0  0
 25 27  1  0  0  0  0
 27 18  1  1  0  0  0
 27 28  1  0  0  0  0
 28 20  1  6  0  0  0
 28 29  1  0  0  0  0
 29 11  1  1  0  0  0
 30 22  1  1  0  0  0
 30 31  1  0  0  0  0
 31 24  1  1  0  0  0
M  END
>  <CHROM.1>
56.40119712,62.54813852,-101.27894682,136.26063689,165.41826902,-58.97184935
19.96660618,3.82778354,13.29954174,-1.14634345,0.84795970,-2.78889365

>  <Name>
ligand

>  <RI>
0

>  <Rbt.Current_Directory>
/home/itssahil/PROJECTS/Mol_Feturizer/New_Systems/rnas/3DVV

>  <Rbt.Executable>
rbdock ($Id: //depot/dev/client3/rdock/2013.1/src/exe/rbdock.cxx#4 $)

>  <Rbt.Library>
libRbt.so (2013.1, Build901 2013/11/27)

>  <Rbt.Parameter_File>
/export/apps/rDock/src/rDock_2013.1_src/data/scripts/dock_solv.prm

>  <Rbt.Receptor>
prm/blind_docking_80.prm

>  <SCORE>
2.45762

>  <SCORE.INTER>
-3.37513

>  <SCORE.INTER.CONST>
1

>  <SCORE.INTER.POLAR>
0

>  <SCORE.INTER.ROT>
6

>  <SCORE.INTER.SOLV>
14.1523

>  <SCORE.INTER.VDW>
-14.5675

>  <SCORE.INTER.norm>
-0.108875

>  <SCORE.INTRA>
5.67147

>  <SCORE.INTRA.DIHEDRAL>
2.07889

>  <SCORE.INTRA.DIHEDRAL.0>
10.8172

>  <SCORE.INTRA.POLAR>
0

>  <SCORE.INTRA.POLAR.0>
0

>  <SCORE.INTRA.REPUL>
0

>  <SCORE.INTRA.REPUL.0>
0

>  <SCORE.INTRA.SOLV>
1.38731

>  <SCORE.INTRA.SOLV.lig_0>
-80.3833

>  <SCORE.INTRA.VDW>
3.93836

>  <SCORE.INTRA.VDW.0>
-4.63762

>  <SCORE.INTRA.norm>
0.182951

>  <SCORE.RESTR>
0.161283

>  <SCORE.RESTR.CAVITY>
0.161283

>  <SCORE.RESTR.norm>
0.00520267

>  <SCORE.SYSTEM>
0

>  <SCORE.SYSTEM.CONST>
0

>  <SCORE.SYSTEM.DIHEDRAL>
0

>  <SCORE.SYSTEM.SOLV>
0

>  <SCORE.SYSTEM.norm>
0

>  <SCORE.heavy>
31

>  <SCORE.norm>
0.079278

>  <RMSD>
6.779

$$$$
ligand
 OpenBabel11021811473D
libRbt.so/2013.1/901 2013/11/27
 31 33  0  0  0  0  0  0  0  0999 V2000
   19.3104    9.2563   10.4861 C   0  0  0  0  0  0  0  0  0  0  0  0
   21.9858    4.5850   17.4665 N   0  0  0  0  0  0  0  0  0  0  0  0
   20.3857    9.4946   11.4003 O   0  0  0  0  0  0  0  0  0  0  0  0
   18.4135    8.1311   11.0083 C   0  0  1  0  0  0  0  0  0  0  0  0
   20.1033    1.2883   14.3857 N   0  0  0  0  0  0  0  0  0  0  0  0
   19.1946    6.9441   11.2480 O   0  0  0  0  0  0  0  0  0  0  0  0
   18.9798    6.5204   12.6059 C   0  0  1  0  0  0  0  0  0  0  0  0
   20.3044    1.6323    8.7425 N   0  0  0  0  0  0  0  0  0  0  0  0
   20.1562    5.9169   13.1669 O   0  0  0  0  0  0  0  0  0  0  0  0
   19.8925    5.0882   14.3087 C   0  0  2  0  0  0  0  0  0  0  0  0
   16.1420    4.2871   12.1484 N   0  0  0  0  0  0  0  0  0  0  0  0
   21.0052    6.6381   15.7927 O   0  0  0  0  0  0  0  0  0  0  0  0
   21.0446    5.2966   15.2985 C   0  0  1  0  0  0  0  0  0  0  0  0
   18.5718    3.3579   13.1499 O   0  0  0  0  0  0  0  0  0  0  0  0
   20.9324    4.3236   16.4738 C   0  0  1  0  0  0  0  0  0  0  0  0
   19.4680    3.0917   10.9902 O   0  0  0  0  0  0  0  0  0  0  0  0
   21.0478    2.8914   15.9512 C   0  0  0  0  0  0  0  0  0  0  0  0
   17.5781    0.0123   10.3404 O   0  0  0  0  0  0  0  0  0  0  0  0
   19.8918    2.6145   14.9855 C   0  0  1  0  0  0  0  0  0  0  0  0
   15.5106    2.0065   10.4569 O   0  0  0  0  0  0  0  0  0  0  0  0
   19.7989    3.6372   13.8465 C   0  0  2  0  0  0  0  0  0  0  0  0
   18.0451    7.6375   14.5900 O   0  0  0  0  0  0  0  0  0  0  0  0
   18.5287    3.8294   11.7940 C   0  0  1  0  0  0  0  0  0  0  0  0
   16.4635    8.0282   12.5059 O   0  0  0  0  0  0  0  0  0  0  0  0
   19.2213    1.6759   10.9448 C   0  0  2  0  0  0  0  0  0  0  0  0
   20.2893    1.0083   10.0752 C   0  0  0  0  0  0  0  0  0  0  0  0
   17.8467    1.4169   10.3257 C   0  0  2  0  0  0  0  0  0  0  0  0
   16.7674    2.1468   11.1278 C   0  0  1  0  0  0  0  0  0  0  0  0
   17.1086    3.6340   11.2524 C   0  0  1  0  0  0  0  0  0  0  0  0
   18.7143    7.8321   13.3418 C   0  0  2  0  0  0  0  0  0  0  0  0
   17.7919    8.5331   12.3489 C   0  0  1  0  0  0  0  0  0  0  0  0
  1  3  1  0  0  0  0
  4  1  1  1  0  0  0
  4  6  1  0  0  0  0
  4 31  1  0  0  0  0
  6  7  1  0  0  0  0
  7  9  1  1  0  0  0
  7 30  1  0  0  0  0
  8 26  1  0  0  0  0
 10  9  1  6  0  0  0
 10 13  1  0  0  0  0
 10 21  1  0  0  0  0
 13 12  1  1  0  0  0
 13 15  1  0  0  0  0
 15  2  1  1  0  0  0
 15 17  1  0  0  0  0
 16 25  1  0  0  0  0
 16 23  1  0  0  0  0
 17 19  1  0  0  0  0
 19  5  1  6  0  0  0
 19 21  1  0  0  0  0
 21 14  1  1  0  0  0
 23 14  1  1  0  0  0
 23 29  1  0  0  0  0
 25 26  1  6  0  0  0
 25 27  1  0  0  0  0
 27 18  1  1  0  0  0
 27 28  1  0  0  0  0
 28 20  1  6  0  0  0
 28 29  1  0  0  0  0
 29 11  1  1  0  0  0
 30 22  1  1  0  0  0
 30 31  1  0  0  0  0
 31 24  1  6  0  0  0
M  END
>  <CHROM.1>
-55.82282814,-160.05778725,-142.23895547,67.35293267,77.23933237,-55.71951513
19.03369855,4.63657428,12.64426544,1.22382595,-1.02631154,0.11221527

>  <Name>
ligand

>  <RI>
0

>  <Rbt.Current_Directory>
/home/itssahil/PROJECTS/Mol_Feturizer/New_Systems/rnas/3DVV

>  <Rbt.Executable>
rbdock ($Id: //depot/dev/client3/rdock/2013.1/src/exe/rbdock.cxx#4 $)

>  <Rbt.Library>
libRbt.so (2013.1, Build901 2013/11/27)

>  <Rbt.Parameter_File>
/export/apps/rDock/src/rDock_2013.1_src/data/scripts/dock_solv.prm

>  <Rbt.Receptor>
prm/blind_docking_40.prm

>  <SCORE>
0.437602

>  <SCORE.INTER>
0.178784

>  <SCORE.INTER.CONST>
1

>  <SCORE.INTER.POLAR>
0

>  <SCORE.INTER.ROT>
6

>  <SCORE.INTER.SOLV>
18.8996

>  <SCORE.INTER.VDW>
-13.7807

>  <SCORE.INTER.norm>
0.00576721

>  <SCORE.INTRA>
0.0927773

>  <SCORE.INTRA.DIHEDRAL>
-2.08432

>  <SCORE.INTRA.DIHEDRAL.0>
10.8172

>  <SCORE.INTRA.POLAR>
0

>  <SCORE.INTRA.POLAR.0>
0

>  <SCORE.INTRA.REPUL>
0

>  <SCORE.INTRA.REPUL.0>
0

>  <SCORE.INTRA.SOLV>
-0.219174

>  <SCORE.INTRA.SOLV.lig_0>
-80.3833

>  <SCORE.INTRA.VDW>
1.24453

>  <SCORE.INTRA.VDW.0>
-4.63762

>  <SCORE.INTRA.norm>
0.00299282

>  <SCORE.RESTR>
0.166041

>  <SCORE.RESTR.CAVITY>
0.166041

>  <SCORE.RESTR.norm>
0.00535616

>  <SCORE.SYSTEM>
0

>  <SCORE.SYSTEM.CONST>
0

>  <SCORE.SYSTEM.DIHEDRAL>
0

>  <SCORE.SYSTEM.SOLV>
0

>  <SCORE.SYSTEM.norm>
0

>  <SCORE.heavy>
31

>  <SCORE.norm>
0.0141162

>  <RMSD>
6.782

$$$$
ligand
 OpenBabel11021811473D
libRbt.so/2013.1/901 2013/11/27
 31 33  0  0  0  0  0  0  0  0999 V2000
   23.1715    4.4789   17.4832 C   0  0  0  0  0  0  0  0  0  0  0  0
   18.5664    8.8833   11.1022 N   0  0  0  0  0  0  0  0  0  0  0  0
   21.8485    4.5835   18.0197 O   0  0  0  0  0  0  0  0  0  0  0  0
   23.3274    5.4106   16.2787 C   0  0  1  0  0  0  0  0  0  0  0  0
   17.1488    4.2132   11.3929 N   0  0  0  0  0  0  0  0  0  0  0  0
   22.3585    5.0785   15.2652 O   0  0  0  0  0  0  0  0  0  0  0  0
   21.6102    6.2637   14.9405 C   0  0  1  0  0  0  0  0  0  0  0  0
   15.3695    1.9779   13.0987 N   0  0  0  0  0  0  0  0  0  0  0  0
   20.2504    5.9559   14.5953 O   0  0  0  0  0  0  0  0  0  0  0  0
   19.9851    6.0106   13.1859 C   0  0  2  0  0  0  0  0  0  0  0  0
   21.7584    2.3663   13.9702 N   0  0  0  0  0  0  0  0  0  0  0  0
   20.4982    8.3710   13.0983 O   0  0  0  0  0  0  0  0  0  0  0  0
   19.4569    7.4162   12.8762 C   0  0  1  0  0  0  0  0  0  0  0  0
   19.5279    3.6103   12.8531 O   0  0  0  0  0  0  0  0  0  0  0  0
   18.9882    7.5112   11.4229 C   0  0  1  0  0  0  0  0  0  0  0  0
   18.0438    2.3251   14.1506 O   0  0  0  0  0  0  0  0  0  0  0  0
   17.8264    6.5412   11.2068 C   0  0  0  0  0  0  0  0  0  0  0  0
   18.4751   -0.6754   12.0800 O   0  0  0  0  0  0  0  0  0  0  0  0
   18.3115    5.1113   11.4633 C   0  0  1  0  0  0  0  0  0  0  0  0
   21.0604   -0.3771   13.3015 O   0  0  0  0  0  0  0  0  0  0  0  0
   18.9621    4.9327   12.8404 C   0  0  2  0  0  0  0  0  0  0  0  0
   21.3192    8.4322   16.0677 O   0  0  0  0  0  0  0  0  0  0  0  0
   19.3635    2.8971   14.0887 C   0  0  1  0  0  0  0  0  0  0  0  0
   23.8845    7.7907   15.9944 O   0  0  0  0  0  0  0  0  0  0  0  0
   17.7539    1.3950   13.0933 C   0  0  2  0  0  0  0  0  0  0  0  0
   16.3257    0.8715   13.2633 C   0  0  0  0  0  0  0  0  0  0  0  0
   18.7251    0.2156   13.1703 C   0  0  2  0  0  0  0  0  0  0  0  0
   20.1670    0.7212   13.0901 C   0  0  1  0  0  0  0  0  0  0  0  0
   20.4189    1.7884   14.1586 C   0  0  1  0  0  0  0  0  0  0  0  0
   21.6086    7.0446   16.2530 C   0  0  2  0  0  0  0  0  0  0  0  0
   23.0569    6.8591   16.6956 C   0  0  1  0  0  0  0  0  0  0  0  0
  1  3  1  0  0  0  0
  4  1  1  1  0  0  0
  4  6  1  0  0  0  0
  4 31  1  0  0  0  0
  6  7  1  0  0  0  0
  7  9  1  1  0  0  0
  7 30  1  0  0  0  0
  8 26  1  0  0  0  0
 10  9  1  1  0  0  0
 10 13  1  0  0  0  0
 10 21  1  0  0  0  0
 13 12  1  6  0  0  0
 13 15  1  0  0  0  0
 15  2  1  1  0  0  0
 15 17  1  0  0  0  0
 16 25  1  0  0  0  0
 16 23  1  0  0  0  0
 17 19  1  0  0  0  0
 19  5  1  1  0  0  0
 19 21  1  0  0  0  0
 21 14  1  6  0  0  0
 23 14  1  6  0  0  0
 23 29  1  0  0  0  0
 25 26  1  1  0  0  0
 25 27  1  0  0  0  0
 27 18  1  6  0  0  0
 27 28  1  0  0  0  0
 28 20  1  1  0  0  0
 28 29  1  0  0  0  0
 29 11  1  6  0  0  0
 30 22  1  6  0  0  0
 30 31  1  0  0  0  0
 31 24  1  6  0  0  0
M  END
>  <CHROM.1>
-58.54526095,-103.61165236,-93.84692822,80.75682032,94.92728281,64.46569491
20.00242125,4.45148978,13.91872719,-0.79578572,0.74262656,2.99125967

>  <Name>
ligand

>  <RI>
0

>  <Rbt.Current_Directory>
/home/itssahil/PROJECTS/Mol_Feturizer/New_Systems/rnas/3DVV

>  <Rbt.Executable>
rbdock ($Id: //depot/dev/client3/rdock/2013.1/src/exe/rbdock.cxx#4 $)

>  <Rbt.Library>
libRbt.so (2013.1, Build901 2013/11/27)

>  <Rbt.Parameter_File>
/export/apps/rDock/src/rDock_2013.1_src/data/scripts/dock_solv.prm

>  <Rbt.Receptor>
prm/blind_docking_100.prm

>  <SCORE>
-3.71099

>  <SCORE.INTER>
-7.333

>  <SCORE.INTER.CONST>
1

>  <SCORE.INTER.POLAR>
0

>  <SCORE.INTER.ROT>
6

>  <SCORE.INTER.SOLV>
21.0737

>  <SCORE.INTER.VDW>
-19.5132

>  <SCORE.INTER.norm>
-0.236548

>  <SCORE.INTRA>
3.57139

>  <SCORE.INTRA.DIHEDRAL>
5.86661

>  <SCORE.INTRA.DIHEDRAL.0>
10.8172

>  <SCORE.INTRA.POLAR>
0

>  <SCORE.INTRA.POLAR.0>
0

>  <SCORE.INTRA.REPUL>
0

>  <SCORE.INTRA.REPUL.0>
0

>  <SCORE.INTRA.SOLV>
0.882041

>  <SCORE.INTRA.SOLV.lig_0>
-80.3833

>  <SCORE.INTRA.VDW>
0.197059

>  <SCORE.INTRA.VDW.0>
-4.63762

>  <SCORE.INTRA.norm>
0.115206

>  <SCORE.RESTR>
0.0506226

>  <SCORE.RESTR.CAVITY>
0.0506226

>  <SCORE.RESTR.norm>
0.00163299

>  <SCORE.SYSTEM>
0

>  <SCORE.SYSTEM.CONST>
0

>  <SCORE.SYSTEM.DIHEDRAL>
0

>  <SCORE.SYSTEM.SOLV>
0

>  <SCORE.SYSTEM.norm>
0

>  <SCORE.heavy>
31

>  <SCORE.norm>
-0.119709

>  <RMSD>
6.783

$$$$
ligand
 OpenBabel11021811473D
libRbt.so/2013.1/901 2013/11/27
 31 33  0  0  0  0  0  0  0  0999 V2000
   17.7877    9.3461   18.1504 C   0  0  0  0  0  0  0  0  0  0  0  0
   20.5336    2.5171   13.8481 N   0  0  0  0  0  0  0  0  0  0  0  0
   17.9389    8.7197   19.4285 O   0  0  0  0  0  0  0  0  0  0  0  0
   18.8275    8.7999   17.1688 C   0  0  1  0  0  0  0  0  0  0  0  0
   16.0379    1.5759   15.5234 N   0  0  0  0  0  0  0  0  0  0  0  0
   18.6067    7.3940   16.9426 O   0  0  0  0  0  0  0  0  0  0  0  0
   18.4794    7.1719   15.5269 C   0  0  1  0  0  0  0  0  0  0  0  0
   13.0190    4.1024   13.5816 N   0  0  0  0  0  0  0  0  0  0  0  0
   17.5643    6.1036   15.2366 O   0  0  0  0  0  0  0  0  0  0  0  0
   18.0450    4.8086   15.6265 C   0  0  2  0  0  0  0  0  0  0  0  0
   15.7174    5.4119   19.3109 N   0  0  0  0  0  0  0  0  0  0  0  0
   20.2026    5.2152   14.6156 O   0  0  0  0  0  0  0  0  0  0  0  0
   19.0572    4.3603   14.5658 C   0  0  1  0  0  0  0  0  0  0  0  0
   16.0464    4.0893   16.8792 O   0  0  0  0  0  0  0  0  0  0  0  0
   19.4962    2.9155   14.8117 C   0  0  1  0  0  0  0  0  0  0  0  0
   14.3405    5.3472   15.8565 O   0  0  0  0  0  0  0  0  0  0  0  0
   18.2821    1.9948   14.6861 C   0  0  0  0  0  0  0  0  0  0  0  0
   11.6540    3.4600   17.4988 O   0  0  0  0  0  0  0  0  0  0  0  0
   17.2522    2.3730   15.7546 C   0  0  1  0  0  0  0  0  0  0  0  0
   12.8931    4.8342   19.6990 O   0  0  0  0  0  0  0  0  0  0  0  0
   16.8578    3.8544   15.7150 C   0  0  2  0  0  0  0  0  0  0  0  0
   18.0587    8.6691   13.6192 O   0  0  0  0  0  0  0  0  0  0  0  0
   15.3492    5.3450   16.8836 C   0  0  1  0  0  0  0  0  0  0  0  0
   19.9480    9.6874   15.1656 O   0  0  0  0  0  0  0  0  0  0  0  0
   13.3455    4.3200   16.0047 C   0  0  2  0  0  0  0  0  0  0  0  0
   12.3452    4.4205   14.8507 C   0  0  0  0  0  0  0  0  0  0  0  0
   12.5988    4.5193   17.3249 C   0  0  2  0  0  0  0  0  0  0  0  0
   13.5894    4.5102   18.4909 C   0  0  1  0  0  0  0  0  0  0  0  0
   14.6987    5.5392   18.2574 C   0  0  1  0  0  0  0  0  0  0  0  0
   17.8693    8.4783   15.0233 C   0  0  2  0  0  0  0  0  0  0  0  0
   18.6872    9.4964   15.8122 C   0  0  1  0  0  0  0  0  0  0  0  0
  1  3  1  0  0  0  0
  4  1  1  1  0  0  0
  4  6  1  0  0  0  0
  4 31  1  0  0  0  0
  6  7  1  0  0  0  0
  7  9  1  1  0  0  0
  7 30  1  0  0  0  0
  8 26  1  0  0  0  0
 10  9  1  6  0  0  0
 10 13  1  0  0  0  0
 10 21  1  0  0  0  0
 13 12  1  1  0  0  0
 13 15  1  0  0  0  0
 15  2  1  6  0  0  0
 15 17  1  0  0  0  0
 16 25  1  0  0  0  0
 16 23  1  0  0  0  0
 17 19  1  0  0  0  0
 19  5  1  6  0  0  0
 19 21  1  0  0  0  0
 21 14  1  1  0  0  0
 23 14  1  1  0  0  0
 23 29  1  0  0  0  0
 25 26  1  6  0  0  0
 25 27  1  0  0  0  0
 27 18  1  1  0  0  0
 27 28  1  0  0  0  0
 28 20  1  1  0  0  0
 28 29  1  0  0  0  0
 29 11  1  1  0  0  0
 30 22  1  6  0  0  0
 30 31  1  0  0  0  0
 31 24  1  6  0  0  0
M  END
>  <CHROM.1>
63.77158448,-68.85718143,-77.91749302,67.69294614,66.84552184,66.00448293
16.61852535,5.50405848,16.20205522,0.41073378,0.44770672,0.44228418

>  <Name>
ligand

>  <RI>
0

>  <Rbt.Current_Directory>
/home/itssahil/PROJECTS/Mol_Feturizer/New_Systems/rnas/3DVV

>  <Rbt.Executable>
rbdock ($Id: //depot/dev/client3/rdock/2013.1/src/exe/rbdock.cxx#4 $)

>  <Rbt.Library>
libRbt.so (2013.1, Build901 2013/11/27)

>  <Rbt.Parameter_File>
/export/apps/rDock/src/rDock_2013.1_src/data/scripts/dock_solv.prm

>  <Rbt.Receptor>
prm/pocket_docking_5.prm

>  <SCORE>
-4.53204

>  <SCORE.INTER>
-0.324405

>  <SCORE.INTER.CONST>
1

>  <SCORE.INTER.POLAR>
0

>  <SCORE.INTER.ROT>
6

>  <SCORE.INTER.SOLV>
14.9982

>  <SCORE.INTER.VDW>
-12.8157

>  <SCORE.INTER.norm>
-0.0104647

>  <SCORE.INTRA>
-4.20763

>  <SCORE.INTRA.DIHEDRAL>
-8.01438

>  <SCORE.INTRA.DIHEDRAL.0>
10.8172

>  <SCORE.INTRA.POLAR>
0

>  <SCORE.INTRA.POLAR.0>
0

>  <SCORE.INTRA.REPUL>
0

>  <SCORE.INTRA.REPUL.0>
0

>  <SCORE.INTRA.SOLV>
-4.01317

>  <SCORE.INTRA.SOLV.lig_0>
-80.3833

>  <SCORE.INTRA.VDW>
1.80614

>  <SCORE.INTRA.VDW.0>
-4.63762

>  <SCORE.INTRA.norm>
-0.13573

>  <SCORE.RESTR>
0

>  <SCORE.RESTR.CAVITY>
0

>  <SCORE.RESTR.norm>
0

>  <SCORE.SYSTEM>
0

>  <SCORE.SYSTEM.CONST>
0

>  <SCORE.SYSTEM.DIHEDRAL>
0

>  <SCORE.SYSTEM.SOLV>
0

>  <SCORE.SYSTEM.norm>
0

>  <SCORE.heavy>
31

>  <SCORE.norm>
-0.146195

>  <RMSD>
6.784

$$$$
ligand
 OpenBabel11021811473D
libRbt.so/2013.1/901 2013/11/27
 31 33  0  0  0  0  0  0  0  0999 V2000
   22.7477    4.8678   17.4987 C   0  0  0  0  0  0  0  0  0  0  0  0
   16.6563    5.5046   12.3617 N   0  0  0  0  0  0  0  0  0  0  0  0
   24.1673    4.8158   17.6742 O   0  0  0  0  0  0  0  0  0  0  0  0
   22.4068    5.4598   16.1288 C   0  0  1  0  0  0  0  0  0  0  0  0
   14.5852    6.3286   16.7132 N   0  0  0  0  0  0  0  0  0  0  0  0
   20.9789    5.4754   15.9359 O   0  0  0  0  0  0  0  0  0  0  0  0
   20.5751    6.8172   15.6099 C   0  0  1  0  0  0  0  0  0  0  0  0
   16.1765   10.3982   17.7075 N   0  0  0  0  0  0  0  0  0  0  0  0
   19.2693    7.1197   16.1262 O   0  0  0  0  0  0  0  0  0  0  0  0
   18.2677    6.1571   15.7653 C   0  0  2  0  0  0  0  0  0  0  0  0
   18.3064    4.8090   20.1710 N   0  0  0  0  0  0  0  0  0  0  0  0
   19.1892    5.9100   13.5443 O   0  0  0  0  0  0  0  0  0  0  0  0
   18.0157    6.3047   14.2602 C   0  0  1  0  0  0  0  0  0  0  0  0
   17.1399    6.0328   17.9547 O   0  0  0  0  0  0  0  0  0  0  0  0
   16.8393    5.4314   13.8193 C   0  0  1  0  0  0  0  0  0  0  0  0
   17.7948    8.1754   18.6749 O   0  0  0  0  0  0  0  0  0  0  0  0
   15.5712    5.9024   14.5316 C   0  0  0  0  0  0  0  0  0  0  0  0
   15.1705    8.3641   21.2349 O   0  0  0  0  0  0  0  0  0  0  0  0
   15.7532    5.7368   16.0433 C   0  0  1  0  0  0  0  0  0  0  0  0
   16.8757    6.2767   22.2349 O   0  0  0  0  0  0  0  0  0  0  0  0
   17.0083    6.4355   16.5801 C   0  0  2  0  0  0  0  0  0  0  0  0
   21.6760    9.0074   15.8318 O   0  0  0  0  0  0  0  0  0  0  0  0
   18.1142    6.7720   18.7078 C   0  0  1  0  0  0  0  0  0  0  0  0
   23.3435    7.2656   14.7440 O   0  0  0  0  0  0  0  0  0  0  0  0
   16.5086    8.5007   19.2290 C   0  0  2  0  0  0  0  0  0  0  0  0
   16.2844   10.0111   19.1232 C   0  0  0  0  0  0  0  0  0  0  0  0
   16.4714    8.0975   20.7042 C   0  0  2  0  0  0  0  0  0  0  0  0
   16.7793    6.6054   20.8450 C   0  0  1  0  0  0  0  0  0  0  0  0
   18.1025    6.2656   20.1540 C   0  0  1  0  0  0  0  0  0  0  0  0
   21.5965    7.6777   16.3507 C   0  0  2  0  0  0  0  0  0  0  0  0
   22.8825    6.9133   16.0508 C   0  0  1  0  0  0  0  0  0  0  0  0
  1  3  1  0  0  0  0
  4  1  1  1  0  0  0
  4  6  1  0  0  0  0
  4 31  1  0  0  0  0
  6  7  1  0  0  0  0
  7  9  1  1  0  0  0
  7 30  1  0  0  0  0
  8 26  1  0  0  0  0
 10  9  1  1  0  0  0
 10 13  1  0  0  0  0
 10 21  1  0  0  0  0
 13 12  1  6  0  0  0
 13 15  1  0  0  0  0
 15  2  1  6  0  0  0
 15 17  1  0  0  0  0
 16 25  1  0  0  0  0
 16 23  1  0  0  0  0
 17 19  1  0  0  0  0
 19  5  1  1  0  0  0
 19 21  1  0  0  0  0
 21 14  1  1  0  0  0
 23 14  1  6  0  0  0
 23 29  1  0  0  0  0
 25 26  1  1  0  0  0
 25 27  1  0  0  0  0
 27 18  1  6  0  0  0
 27 28  1  0  0  0  0
 28 20  1  1  0  0  0
 28 29  1  0  0  0  0
 29 11  1  6  0  0  0
 30 22  1  6  0  0  0
 30 31  1  0  0  0  0
 31 24  1  6  0  0  0
M  END
>  <CHROM.1>
178.30057171,-52.15068687,-69.73322335,57.63594714,65.56393515,66.41194903
18.60301808,6.76328389,17.18179358,-0.65493501,-0.11008461,1.39959447

>  <Name>
ligand

>  <RI>
0

>  <Rbt.Current_Directory>
/home/itssahil/PROJECTS/Mol_Feturizer/New_Systems/rnas/3DVV

>  <Rbt.Executable>
rbdock ($Id: //depot/dev/client3/rdock/2013.1/src/exe/rbdock.cxx#4 $)

>  <Rbt.Library>
libRbt.so (2013.1, Build901 2013/11/27)

>  <Rbt.Parameter_File>
/export/apps/rDock/src/rDock_2013.1_src/data/scripts/dock_solv.prm

>  <Rbt.Receptor>
prm/pocket_docking_6.prm

>  <SCORE>
-9.61919

>  <SCORE.INTER>
-5.87668

>  <SCORE.INTER.CONST>
1

>  <SCORE.INTER.POLAR>
0

>  <SCORE.INTER.ROT>
6

>  <SCORE.INTER.SOLV>
12.1298

>  <SCORE.INTER.VDW>
-15.561

>  <SCORE.INTER.norm>
-0.18957

>  <SCORE.INTRA>
-3.74252

>  <SCORE.INTRA.DIHEDRAL>
-9.46669

>  <SCORE.INTRA.DIHEDRAL.0>
10.8172

>  <SCORE.INTRA.POLAR>
0

>  <SCORE.INTRA.POLAR.0>
0

>  <SCORE.INTRA.REPUL>
0

>  <SCORE.INTRA.REPUL.0>
0

>  <SCORE.INTRA.SOLV>
-4.12178

>  <SCORE.INTRA.SOLV.lig_0>
-80.3833

>  <SCORE.INTRA.VDW>
3.05172

>  <SCORE.INTRA.VDW.0>
-4.63762

>  <SCORE.INTRA.norm>
-0.120726

>  <SCORE.RESTR>
0

>  <SCORE.RESTR.CAVITY>
0

>  <SCORE.RESTR.norm>
0

>  <SCORE.SYSTEM>
0

>  <SCORE.SYSTEM.CONST>
0

>  <SCORE.SYSTEM.DIHEDRAL>
0

>  <SCORE.SYSTEM.SOLV>
0

>  <SCORE.SYSTEM.norm>
0

>  <SCORE.heavy>
31

>  <SCORE.norm>
-0.310297

>  <RMSD>
6.786

$$$$
ligand
 OpenBabel11021811473D
libRbt.so/2013.1/901 2013/11/27
 31 33  0  0  0  0  0  0  0  0999 V2000
   23.2351    4.8842   17.3422 C   0  0  0  0  0  0  0  0  0  0  0  0
   17.5751    9.6823   12.3035 N   0  0  0  0  0  0  0  0  0  0  0  0
   23.2933    3.4819   17.0612 O   0  0  0  0  0  0  0  0  0  0  0  0
   23.1895    5.6824   16.0368 C   0  0  1  0  0  0  0  0  0  0  0  0
   15.9624    5.0713   12.5074 N   0  0  0  0  0  0  0  0  0  0  0  0
   22.0066    5.3421   15.2876 O   0  0  0  0  0  0  0  0  0  0  0  0
   21.2846    6.5519   14.9964 C   0  0  1  0  0  0  0  0  0  0  0  0
   15.7813    3.8264   16.7250 N   0  0  0  0  0  0  0  0  0  0  0  0
   19.8654    6.3320   14.9751 O   0  0  0  0  0  0  0  0  0  0  0  0
   19.2662    6.5474   13.6888 C   0  0  2  0  0  0  0  0  0  0  0  0
   20.6337    2.4108   12.7179 N   0  0  0  0  0  0  0  0  0  0  0  0
   19.8992    8.8801   13.6940 O   0  0  0  0  0  0  0  0  0  0  0  0
   18.7737    7.9988   13.6532 C   0  0  1  0  0  0  0  0  0  0  0  0
   18.5814    4.2174   13.2607 O   0  0  0  0  0  0  0  0  0  0  0  0
   17.9697    8.2674   12.3795 C   0  0  1  0  0  0  0  0  0  0  0  0
   18.3280    3.4142   15.4582 O   0  0  0  0  0  0  0  0  0  0  0  0
   16.7281    7.3754   12.3734 C   0  0  0  0  0  0  0  0  0  0  0  0
   16.5433    0.3900   14.3880 O   0  0  0  0  0  0  0  0  0  0  0  0
   17.1643    5.9073   12.3662 C   0  0  1  0  0  0  0  0  0  0  0  0
   19.1857   -0.0345   13.3383 O   0  0  0  0  0  0  0  0  0  0  0  0
   18.1198    5.5561   13.5131 C   0  0  2  0  0  0  0  0  0  0  0  0
   21.3827    8.8332   15.9149 O   0  0  0  0  0  0  0  0  0  0  0  0
   19.2504    3.5927   14.3675 C   0  0  1  0  0  0  0  0  0  0  0  0
   23.8258    7.9684   15.3847 O   0  0  0  0  0  0  0  0  0  0  0  0
   17.1926    2.5907   15.1418 C   0  0  2  0  0  0  0  0  0  0  0  0
   16.2874    2.4904   16.3718 C   0  0  0  0  0  0  0  0  0  0  0  0
   17.6695    1.1874   14.7632 C   0  0  2  0  0  0  0  0  0  0  0  0
   18.6464    1.2678   13.5883 C   0  0  1  0  0  0  0  0  0  0  0  0
   19.7900    2.2335   13.9097 C   0  0  1  0  0  0  0  0  0  0  0  0
   21.6146    7.4492   16.1874 C   0  0  2  0  0  0  0  0  0  0  0  0
   23.1090    7.1814   16.3393 C   0  0  1  0  0  0  0  0  0  0  0  0
  1  3  1  0  0  0  0
  4  1  1  1  0  0  0
  4  6  1  0  0  0  0
  4 31  1  0  0  0  0
  6  7  1  0  0  0  0
  7  9  1  1  0  0  0
  7 30  1  0  0  0  0
  8 26  1  0  0  0  0
 10  9  1  1  0  0  0
 10 13  1  0  0  0  0
 10 21  1  0  0  0  0
 13 12  1  6  0  0  0
 13 15  1  0  0  0  0
 15  2  1  1  0  0  0
 15 17  1  0  0  0  0
 16 25  1  0  0  0  0
 16 23  1  0  0  0  0
 17 19  1  0  0  0  0
 19  5  1  1  0  0  0
 19 21  1  0  0  0  0
 21 14  1  6  0  0  0
 23 14  1  6  0  0  0
 23 29  1  0  0  0  0
 25 26  1  1  0  0  0
 25 27  1  0  0  0  0
 27 18  1  6  0  0  0
 27 28  1  0  0  0  0
 28 20  1  1  0  0  0
 28 29  1  0  0  0  0
 29 11  1  6  0  0  0
 30 22  1  6  0  0  0
 30 31  1  0  0  0  0
 31 24  1  6  0  0  0
M  END
>  <CHROM.1>
61.62305940,-115.64613134,-93.48951678,64.67352824,67.78274787,62.44116142
19.46101986,5.04039097,14.53880387,-0.84913699,0.45634953,2.93862816

>  <Name>
ligand

>  <RI>
0

>  <Rbt.Current_Directory>
/home/itssahil/PROJECTS/Mol_Feturizer/New_Systems/rnas/3DVV

>  <Rbt.Executable>
rbdock ($Id: //depot/dev/client3/rdock/2013.1/src/exe/rbdock.cxx#4 $)

>  <Rbt.Library>
libRbt.so (2013.1, Build901 2013/11/27)

>  <Rbt.Parameter_File>
/export/apps/rDock/src/rDock_2013.1_src/data/scripts/dock_solv.prm

>  <Rbt.Receptor>
prm/pocket_docking_6.prm

>  <SCORE>
-7.76787

>  <SCORE.INTER>
-7.4643

>  <SCORE.INTER.CONST>
1

>  <SCORE.INTER.POLAR>
0

>  <SCORE.INTER.ROT>
6

>  <SCORE.INTER.SOLV>
14.942

>  <SCORE.INTER.VDW>
-17.5569

>  <SCORE.INTER.norm>
-0.240784

>  <SCORE.INTRA>
-0.311546

>  <SCORE.INTRA.DIHEDRAL>
0.925693

>  <SCORE.INTRA.DIHEDRAL.0>
10.8172

>  <SCORE.INTRA.POLAR>
0

>  <SCORE.INTRA.POLAR.0>
0

>  <SCORE.INTRA.REPUL>
0

>  <SCORE.INTRA.REPUL.0>
0

>  <SCORE.INTRA.SOLV>
-3.62951

>  <SCORE.INTRA.SOLV.lig_0>
-80.3833

>  <SCORE.INTRA.VDW>
1.04036

>  <SCORE.INTRA.VDW.0>
-4.63762

>  <SCORE.INTRA.norm>
-0.0100499

>  <SCORE.RESTR>
0.00798135

>  <SCORE.RESTR.CAVITY>
0.00798135

>  <SCORE.RESTR.norm>
0.000257463

>  <SCORE.SYSTEM>
0

>  <SCORE.SYSTEM.CONST>
0

>  <SCORE.SYSTEM.DIHEDRAL>
0

>  <SCORE.SYSTEM.SOLV>
0

>  <SCORE.SYSTEM.norm>
0

>  <SCORE.heavy>
31

>  <SCORE.norm>
-0.250576

>  <RMSD>
6.788

$$$$
ligand
 OpenBabel11021811473D
libRbt.so/2013.1/901 2013/11/27
 31 33  0  0  0  0  0  0  0  0999 V2000
   13.3549    1.5017   21.0904 C   0  0  0  0  0  0  0  0  0  0  0  0
   18.2333    5.0445   22.4516 N   0  0  0  0  0  0  0  0  0  0  0  0
   13.9037    1.7493   22.3890 O   0  0  0  0  0  0  0  0  0  0  0  0
   13.4226    2.7714   20.2381 C   0  0  1  0  0  0  0  0  0  0  0  0
   16.9737    7.7602   18.5861 N   0  0  0  0  0  0  0  0  0  0  0  0
   14.7902    3.2039   20.0990 O   0  0  0  0  0  0  0  0  0  0  0  0
   15.0898    3.3331   18.6979 C   0  0  1  0  0  0  0  0  0  0  0  0
   12.9367    7.8583   15.9824 N   0  0  0  0  0  0  0  0  0  0  0  0
   16.4590    3.0044   18.4146 O   0  0  0  0  0  0  0  0  0  0  0  0
   17.3970    3.9884   18.8750 C   0  0  2  0  0  0  0  0  0  0  0  0
   18.4483    4.6505   14.5065 N   0  0  0  0  0  0  0  0  0  0  0  0
   17.8606    2.7252   20.8830 O   0  0  0  0  0  0  0  0  0  0  0  0
   17.3548    3.9756   20.4075 C   0  0  1  0  0  0  0  0  0  0  0  0
   17.2956    5.4721   16.9079 O   0  0  0  0  0  0  0  0  0  0  0  0
   18.2016    5.1127   20.9827 C   0  0  1  0  0  0  0  0  0  0  0  0
   15.1345    4.8939   16.1775 O   0  0  0  0  0  0  0  0  0  0  0  0
   17.6156    6.4510   20.5321 C   0  0  0  0  0  0  0  0  0  0  0  0
   14.8255    7.8519   14.0255 O   0  0  0  0  0  0  0  0  0  0  0  0
   17.6718    6.5350   19.0039 C   0  0  1  0  0  0  0  0  0  0  0  0
   16.8913    6.3375   12.7202 O   0  0  0  0  0  0  0  0  0  0  0  0
   16.9952    5.3471   18.3090 C   0  0  2  0  0  0  0  0  0  0  0  0
   13.9872    2.5087   16.6576 O   0  0  0  0  0  0  0  0  0  0  0  0
   16.5388    4.6036   16.0502 C   0  0  1  0  0  0  0  0  0  0  0  0
   12.1983    3.6011   18.2713 O   0  0  0  0  0  0  0  0  0  0  0  0
   14.7762    6.2407   15.8240 C   0  0  2  0  0  0  0  0  0  0  0  0
   13.2687    6.4249   16.0136 C   0  0  0  0  0  0  0  0  0  0  0  0
   15.1243    6.4930   14.3559 C   0  0  2  0  0  0  0  0  0  0  0  0
   16.6132    6.2307   14.1204 C   0  0  1  0  0  0  0  0  0  0  0  0
   16.9913    4.8280   14.6035 C   0  0  1  0  0  0  0  0  0  0  0  0
   14.1975    2.2751   18.0522 C   0  0  2  0  0  0  0  0  0  0  0  0
   12.9002    2.4864   18.8271 C   0  0  1  0  0  0  0  0  0  0  0  0
  1  3  1  0  0  0  0
  4  1  1  1  0  0  0
  4  6  1  0  0  0  0
  4 31  1  0  0  0  0
  6  7  1  0  0  0  0
  7  9  1  1  0  0  0
  7 30  1  0  0  0  0
  8 26  1  0  0  0  0
 10  9  1  6  0  0  0
 10 13  1  0  0  0  0
 10 21  1  0  0  0  0
 13 12  1  1  0  0  0
 13 15  1  0  0  0  0
 15  2  1  1  0  0  0
 15 17  1  0  0  0  0
 16 25  1  0  0  0  0
 16 23  1  0  0  0  0
 17 19  1  0  0  0  0
 19  5  1  6  0  0  0
 19 21  1  0  0  0  0
 21 14  1  6  0  0  0
 23 14  1  1  0  0  0
 23 29  1  0  0  0  0
 25 26  1  6  0  0  0
 25 27  1  0  0  0  0
 27 18  1  1  0  0  0
 27 28  1  0  0  0  0
 28 20  1  6  0  0  0
 28 29  1  0  0  0  0
 29 11  1  1  0  0  0
 30 22  1  6  0  0  0
 30 31  1  0  0  0  0
 31 24  1  6  0  0  0
M  END
>  <CHROM.1>
59.51723302,-71.92583744,67.02766256,60.96677876,66.14982210,166.07434065
15.69942946,4.66399107,17.86726289,1.63187605,0.45451438,2.03746510

>  <Name>
ligand

>  <RI>
0

>  <Rbt.Current_Directory>
/home/itssahil/PROJECTS/Mol_Feturizer/New_Systems/rnas/3DVV

>  <Rbt.Executable>
rbdock ($Id: //depot/dev/client3/rdock/2013.1/src/exe/rbdock.cxx#4 $)

>  <Rbt.Library>
libRbt.so (2013.1, Build901 2013/11/27)

>  <Rbt.Parameter_File>
/export/apps/rDock/src/rDock_2013.1_src/data/scripts/dock_solv.prm

>  <Rbt.Receptor>
prm/pocket_docking_6.prm

>  <SCORE>
-6.69123

>  <SCORE.INTER>
-3.79576

>  <SCORE.INTER.CONST>
1

>  <SCORE.INTER.POLAR>
0

>  <SCORE.INTER.ROT>
6

>  <SCORE.INTER.SOLV>
9.1888

>  <SCORE.INTER.VDW>
-13.1934

>  <SCORE.INTER.norm>
-0.122444

>  <SCORE.INTRA>
-2.89548

>  <SCORE.INTRA.DIHEDRAL>
-8.7991

>  <SCORE.INTRA.DIHEDRAL.0>
10.8172

>  <SCORE.INTRA.POLAR>
0

>  <SCORE.INTRA.POLAR.0>
0

>  <SCORE.INTRA.REPUL>
0

>  <SCORE.INTRA.REPUL.0>
0

>  <SCORE.INTRA.SOLV>
-2.35146

>  <SCORE.INTRA.SOLV.lig_0>
-80.3833

>  <SCORE.INTRA.VDW>
2.6798

>  <SCORE.INTRA.VDW.0>
-4.63762

>  <SCORE.INTRA.norm>
-0.0934025

>  <SCORE.RESTR>
0

>  <SCORE.RESTR.CAVITY>
0

>  <SCORE.RESTR.norm>
0

>  <SCORE.SYSTEM>
0

>  <SCORE.SYSTEM.CONST>
0

>  <SCORE.SYSTEM.DIHEDRAL>
0

>  <SCORE.SYSTEM.SOLV>
0

>  <SCORE.SYSTEM.norm>
0

>  <SCORE.heavy>
31

>  <SCORE.norm>
-0.215846

>  <RMSD>
6.794

$$$$
ligand
 OpenBabel11021811473D
libRbt.so/2013.1/901 2013/11/27
 31 33  0  0  0  0  0  0  0  0999 V2000
   13.3843    1.5115   21.0240 C   0  0  0  0  0  0  0  0  0  0  0  0
   18.1893    5.1859   22.3221 N   0  0  0  0  0  0  0  0  0  0  0  0
   13.8820    1.7916   22.3366 O   0  0  0  0  0  0  0  0  0  0  0  0
   13.4047    2.7817   20.1699 C   0  0  1  0  0  0  0  0  0  0  0  0
   16.7775    7.8704   18.4875 N   0  0  0  0  0  0  0  0  0  0  0  0
   14.7572    3.2537   20.0141 O   0  0  0  0  0  0  0  0  0  0  0  0
   15.0362    3.3900   18.6093 C   0  0  1  0  0  0  0  0  0  0  0  0
   12.8006    6.6602   17.0612 N   0  0  0  0  0  0  0  0  0  0  0  0
   16.4109    3.1011   18.3098 O   0  0  0  0  0  0  0  0  0  0  0  0
   17.3250    4.1131   18.7571 C   0  0  2  0  0  0  0  0  0  0  0  0
   18.3762    4.5998   14.5050 N   0  0  0  0  0  0  0  0  0  0  0  0
   17.8631    2.8600   20.7528 O   0  0  0  0  0  0  0  0  0  0  0  0
   17.3099    4.0950   20.2900 C   0  0  1  0  0  0  0  0  0  0  0  0
   17.1426    5.5980   16.7968 O   0  0  0  0  0  0  0  0  0  0  0  0
   18.1301    5.2569   20.8541 C   0  0  1  0  0  0  0  0  0  0  0  0
   14.9975    5.0660   15.9882 O   0  0  0  0  0  0  0  0  0  0  0  0
   17.4942    6.5771   20.4179 C   0  0  0  0  0  0  0  0  0  0  0  0
   14.9198    7.9101   13.6684 O   0  0  0  0  0  0  0  0  0  0  0  0
   17.5213    6.6668   18.8893 C   0  0  1  0  0  0  0  0  0  0  0  0
   16.9815    6.2453   12.5536 O   0  0  0  0  0  0  0  0  0  0  0  0
   16.8707    5.4599   18.2024 C   0  0  2  0  0  0  0  0  0  0  0  0
   13.9337    2.5313   16.5832 O   0  0  0  0  0  0  0  0  0  0  0  0
   16.3929    4.7139   15.9489 C   0  0  1  0  0  0  0  0  0  0  0  0
   12.1331    3.5729   18.2173 O   0  0  0  0  0  0  0  0  0  0  0  0
   14.7142    6.4043   15.5454 C   0  0  2  0  0  0  0  0  0  0  0  0
   13.2083    6.6580   15.6472 C   0  0  0  0  0  0  0  0  0  0  0  0
   15.1444    6.5609   14.0858 C   0  0  2  0  0  0  0  0  0  0  0  0
   16.6306    6.2273   13.9413 C   0  0  1  0  0  0  0  0  0  0  0  0
   16.9250    4.8397   14.5174 C   0  0  1  0  0  0  0  0  0  0  0  0
   14.1674    2.3056   17.9753 C   0  0  2  0  0  0  0  0  0  0  0  0
   12.8740    2.4798   18.7656 C   0  0  1  0  0  0  0  0  0  0  0  0
  1  3  1  0  0  0  0
  4  1  1  1  0  0  0
  4  6  1  0  0  0  0
  4 31  1  0  0  0  0
  6  7  1  0  0  0  0
  7  9  1  1  0  0  0
  7 30  1  0  0  0  0
  8 26  1  0  0  0  0
 10  9  1  6  0  0  0
 10 13  1  0  0  0  0
 10 21  1  0  0  0  0
 13 12  1  1  0  0  0
 13 15  1  0  0  0  0
 15  2  1  1  0  0  0
 15 17  1  0  0  0  0
 16 25  1  0  0  0  0
 16 23  1  0  0  0  0
 17 19  1  0  0  0  0
 19  5  1  1  0  0  0
 19 21  1  0  0  0  0
 21 14  1  6  0  0  0
 23 14  1  1  0  0  0
 23 29  1  0  0  0  0
 25 26  1  6  0  0  0
 25 27  1  0  0  0  0
 27 18  1  1  0  0  0
 27 28  1  0  0  0  0
 28 20  1  6  0  0  0
 28 29  1  0  0  0  0
 29 11  1  1  0  0  0
 30 22  1  6  0  0  0
 30 31  1  0  0  0  0
 31 24  1  6  0  0  0
M  END
>  <CHROM.1>
62.26854206,-71.97403279,67.44674318,67.37045474,66.51568271,66.80985438
15.64406147,4.69691932,17.77564129,1.66632335,0.48071433,1.99937912

>  <Name>
ligand

>  <RI>
0

>  <Rbt.Current_Directory>
/home/itssahil/PROJECTS/Mol_Feturizer/New_Systems/rnas/3DVV

>  <Rbt.Executable>
rbdock ($Id: //depot/dev/client3/rdock/2013.1/src/exe/rbdock.cxx#4 $)

>  <Rbt.Library>
libRbt.so (2013.1, Build901 2013/11/27)

>  <Rbt.Parameter_File>
/export/apps/rDock/src/rDock_2013.1_src/data/scripts/dock_solv.prm

>  <Rbt.Receptor>
prm/pocket_docking_7.prm

>  <SCORE>
-7.03812

>  <SCORE.INTER>
-3.61486

>  <SCORE.INTER.CONST>
1

>  <SCORE.INTER.POLAR>
0

>  <SCORE.INTER.ROT>
6

>  <SCORE.INTER.SOLV>
9.00911

>  <SCORE.INTER.VDW>
-13.0129

>  <SCORE.INTER.norm>
-0.116608

>  <SCORE.INTRA>
-3.42326

>  <SCORE.INTRA.DIHEDRAL>
-8.96461

>  <SCORE.INTRA.DIHEDRAL.0>
10.8172

>  <SCORE.INTRA.POLAR>
0

>  <SCORE.INTRA.POLAR.0>
0

>  <SCORE.INTRA.REPUL>
0

>  <SCORE.INTRA.REPUL.0>
0

>  <SCORE.INTRA.SOLV>
-2.33962

>  <SCORE.INTRA.SOLV.lig_0>
-80.3833

>  <SCORE.INTRA.VDW>
2.22886

>  <SCORE.INTRA.VDW.0>
-4.63762

>  <SCORE.INTRA.norm>
-0.110428

>  <SCORE.RESTR>
0

>  <SCORE.RESTR.CAVITY>
0

>  <SCORE.RESTR.norm>
0

>  <SCORE.SYSTEM>
0

>  <SCORE.SYSTEM.CONST>
0

>  <SCORE.SYSTEM.DIHEDRAL>
0

>  <SCORE.SYSTEM.SOLV>
0

>  <SCORE.SYSTEM.norm>
0

>  <SCORE.heavy>
31

>  <SCORE.norm>
-0.227036

>  <RMSD>
6.800

$$$$
ligand
 OpenBabel11021811473D
libRbt.so/2013.1/901 2013/11/27
 31 33  0  0  0  0  0  0  0  0999 V2000
   15.1157    9.5803   20.3303 C   0  0  0  0  0  0  0  0  0  0  0  0
   22.1208    7.9306   15.2556 N   0  0  0  0  0  0  0  0  0  0  0  0
   15.6908    8.9241   21.4650 O   0  0  0  0  0  0  0  0  0  0  0  0
   16.2027   10.3065   19.5338 C   0  0  1  0  0  0  0  0  0  0  0  0
   19.8766    4.0630   17.2328 N   0  0  0  0  0  0  0  0  0  0  0  0
   17.1817    9.3635   19.0557 O   0  0  0  0  0  0  0  0  0  0  0  0
   17.3051    9.5139   17.6302 C   0  0  1  0  0  0  0  0  0  0  0  0
   13.8158    4.3388   16.5720 N   0  0  0  0  0  0  0  0  0  0  0  0
   17.5930    8.2626   16.9866 O   0  0  0  0  0  0  0  0  0  0  0  0
   18.8938    7.7400   17.2944 C   0  0  2  0  0  0  0  0  0  0  0  0
   17.1101    6.1936   21.2283 N   0  0  0  0  0  0  0  0  0  0  0  0
   19.9878    9.5587   16.1377 O   0  0  0  0  0  0  0  0  0  0  0  0
   19.8278    8.1375   16.1455 C   0  0  1  0  0  0  0  0  0  0  0  0
   18.1543    5.8310   18.6693 O   0  0  0  0  0  0  0  0  0  0  0  0
   21.1985    7.4774   16.3079 C   0  0  1  0  0  0  0  0  0  0  0  0
   16.0093    5.6821   17.7128 O   0  0  0  0  0  0  0  0  0  0  0  0
   21.0339    5.9588   16.2430 C   0  0  0  0  0  0  0  0  0  0  0  0
   15.4675    2.2537   18.9081 O   0  0  0  0  0  0  0  0  0  0  0  0
   20.1394    5.5006   17.3987 C   0  0  1  0  0  0  0  0  0  0  0  0
   15.5024    3.7725   21.3487 O   0  0  0  0  0  0  0  0  0  0  0  0
   18.7883    6.2248   17.4397 C   0  0  2  0  0  0  0  0  0  0  0  0
   15.8996   10.5962   15.9239 O   0  0  0  0  0  0  0  0  0  0  0  0
   16.7816    6.2345   18.7949 C   0  0  1  0  0  0  0  0  0  0  0  0
   16.2256   12.2200   17.9866 O   0  0  0  0  0  0  0  0  0  0  0  0
   16.0157    4.2454   17.6569 C   0  0  2  0  0  0  0  0  0  0  0  0
   15.1753    3.7862   16.4630 C   0  0  0  0  0  0  0  0  0  0  0  0
   15.4016    3.6819   18.9396 C   0  0  2  0  0  0  0  0  0  0  0  0
   16.1721    4.1972   20.1569 C   0  0  1  0  0  0  0  0  0  0  0  0
   16.2425    5.7264   20.1363 C   0  0  1  0  0  0  0  0  0  0  0  0
   15.9085    9.9633   17.2057 C   0  0  2  0  0  0  0  0  0  0  0  0
   15.5914   10.9775   18.3005 C   0  0  1  0  0  0  0  0  0  0  0  0
  1  3  1  0  0  0  0
  4  1  1  6  0  0  0
  4  6  1  0  0  0  0
  4 31  1  0  0  0  0
  6  7  1  0  0  0  0
  7  9  1  6  0  0  0
  7 30  1  0  0  0  0
  8 26  1  0  0  0  0
 10  9  1  6  0  0  0
 10 13  1  0  0  0  0
 10 21  1  0  0  0  0
 13 12  1  1  0  0  0
 13 15  1  0  0  0  0
 15  2  1  6  0  0  0
 15 17  1  0  0  0  0
 16 25  1  0  0  0  0
 16 23  1  0  0  0  0
 17 19  1  0  0  0  0
 19  5  1  6  0  0  0
 19 21  1  0  0  0  0
 21 14  1  1  0  0  0
 23 14  1  6  0  0  0
 23 29  1  0  0  0  0
 25 26  1  6  0  0  0
 25 27  1  0  0  0  0
 27 18  1  6  0  0  0
 27 28  1  0  0  0  0
 28 20  1  1  0  0  0
 28 29  1  0  0  0  0
 29 11  1  1  0  0  0
 30 22  1  6  0  0  0
 30 31  1  0  0  0  0
 31 24  1  6  0  0  0
M  END
>  <CHROM.1>
60.88438331,-67.74794685,-97.38844281,58.74088486,64.16560595,-56.37340584
17.27505225,7.06437824,18.09508634,1.17496464,0.58807750,-0.06110629

>  <Name>
ligand

>  <RI>
0

>  <Rbt.Current_Directory>
/home/itssahil/PROJECTS/Mol_Feturizer/New_Systems/rnas/3DVV

>  <Rbt.Executable>
rbdock ($Id: //depot/dev/client3/rdock/2013.1/src/exe/rbdock.cxx#4 $)

>  <Rbt.Library>
libRbt.so (2013.1, Build901 2013/11/27)

>  <Rbt.Parameter_File>
/export/apps/rDock/src/rDock_2013.1_src/data/scripts/dock_solv.prm

>  <Rbt.Receptor>
prm/pocket_docking_8.prm

>  <SCORE>
-7.76735

>  <SCORE.INTER>
-5.31439

>  <SCORE.INTER.CONST>
1

>  <SCORE.INTER.POLAR>
0

>  <SCORE.INTER.ROT>
6

>  <SCORE.INTER.SOLV>
15.7877

>  <SCORE.INTER.VDW>
-16.4055

>  <SCORE.INTER.norm>
-0.171432

>  <SCORE.INTRA>
-2.45296

>  <SCORE.INTRA.DIHEDRAL>
-5.16752

>  <SCORE.INTRA.DIHEDRAL.0>
10.8172

>  <SCORE.INTRA.POLAR>
0

>  <SCORE.INTRA.POLAR.0>
0

>  <SCORE.INTRA.REPUL>
0

>  <SCORE.INTRA.REPUL.0>
0

>  <SCORE.INTRA.SOLV>
-1.17211

>  <SCORE.INTRA.SOLV.lig_0>
-80.3833

>  <SCORE.INTRA.VDW>
0.71685

>  <SCORE.INTRA.VDW.0>
-4.63762

>  <SCORE.INTRA.norm>
-0.0791279

>  <SCORE.RESTR>
0

>  <SCORE.RESTR.CAVITY>
0

>  <SCORE.RESTR.norm>
0

>  <SCORE.SYSTEM>
0

>  <SCORE.SYSTEM.CONST>
0

>  <SCORE.SYSTEM.DIHEDRAL>
0

>  <SCORE.SYSTEM.SOLV>
0

>  <SCORE.SYSTEM.norm>
0

>  <SCORE.heavy>
31

>  <SCORE.norm>
-0.25056

>  <RMSD>
6.800

$$$$
ligand
 OpenBabel11021811473D
libRbt.so/2013.1/901 2013/11/27
 31 33  0  0  0  0  0  0  0  0999 V2000
   13.3326    1.5165   21.0445 C   0  0  0  0  0  0  0  0  0  0  0  0
   18.1244    5.2073   22.3213 N   0  0  0  0  0  0  0  0  0  0  0  0
   13.8575    1.7902   22.3478 O   0  0  0  0  0  0  0  0  0  0  0  0
   13.3718    2.7817   20.1837 C   0  0  1  0  0  0  0  0  0  0  0  0
   16.8508    7.8150   18.3867 N   0  0  0  0  0  0  0  0  0  0  0  0
   14.7308    3.2349   20.0285 O   0  0  0  0  0  0  0  0  0  0  0  0
   15.0148    3.3600   18.6237 C   0  0  1  0  0  0  0  0  0  0  0  0
   12.5181    5.2859   14.9278 N   0  0  0  0  0  0  0  0  0  0  0  0
   16.3862    3.0513   18.3290 O   0  0  0  0  0  0  0  0  0  0  0  0
   17.3122    4.0559   18.7686 C   0  0  2  0  0  0  0  0  0  0  0  0
   18.4514    4.5443   14.4600 N   0  0  0  0  0  0  0  0  0  0  0  0
   17.7815    2.8468   20.8083 O   0  0  0  0  0  0  0  0  0  0  0  0
   17.2646    4.0799   20.3008 C   0  0  1  0  0  0  0  0  0  0  0  0
   17.2026    5.4903   16.7657 O   0  0  0  0  0  0  0  0  0  0  0  0
   18.0974    5.2394   20.8510 C   0  0  1  0  0  0  0  0  0  0  0  0
   15.0748    4.8528   15.9885 O   0  0  0  0  0  0  0  0  0  0  0  0
   17.4992    6.5602   20.3661 C   0  0  0  0  0  0  0  0  0  0  0  0
   14.8285    7.6814   13.6615 O   0  0  0  0  0  0  0  0  0  0  0  0
   17.5601    6.6076   18.8365 C   0  0  1  0  0  0  0  0  0  0  0  0
   16.9525    6.1137   12.5233 O   0  0  0  0  0  0  0  0  0  0  0  0
   16.8984    5.3962   18.1684 C   0  0  2  0  0  0  0  0  0  0  0  0
   13.9057    2.5049   16.5996 O   0  0  0  0  0  0  0  0  0  0  0  0
   16.4848    4.5681   15.9309 C   0  0  1  0  0  0  0  0  0  0  0  0
   12.1152    3.5791   18.2238 O   0  0  0  0  0  0  0  0  0  0  0  0
   14.7213    6.1743   15.5457 C   0  0  2  0  0  0  0  0  0  0  0  0
   13.2065    6.3557   15.6676 C   0  0  0  0  0  0  0  0  0  0  0  0
   15.1234    6.3461   14.0798 C   0  0  2  0  0  0  0  0  0  0  0  0
   16.6219    6.0839   13.9158 C   0  0  1  0  0  0  0  0  0  0  0  0
   16.9906    4.7142   14.4918 C   0  0  1  0  0  0  0  0  0  0  0  0
   14.1332    2.2837   17.9935 C   0  0  2  0  0  0  0  0  0  0  0  0
   12.8404    2.4792   18.7797 C   0  0  1  0  0  0  0  0  0  0  0  0
  1  3  1  0  0  0  0
  4  1  1  1  0  0  0
  4  6  1  0  0  0  0
  4 31  1  0  0  0  0
  6  7  1  0  0  0  0
  7  9  1  1  0  0  0
  7 30  1  0  0  0  0
  8 26  1  0  0  0  0
 10  9  1  6  0  0  0
 10 13  1  0  0  0  0
 10 21  1  0  0  0  0
 13 12  1  1  0  0  0
 13 15  1  0  0  0  0
 15  2  1  1  0  0  0
 15 17  1  0  0  0  0
 16 25  1  0  0  0  0
 16 23  1  0  0  0  0
 17 19  1  0  0  0  0
 19  5  1  6  0  0  0
 19 21  1  0  0  0  0
 21 14  1  6  0  0  0
 23 14  1  1  0  0  0
 23 29  1  0  0  0  0
 25 26  1  6  0  0  0
 25 27  1  0  0  0  0
 27 18  1  1  0  0  0
 27 28  1  0  0  0  0
 28 20  1  6  0  0  0
 28 29  1  0  0  0  0
 29 11  1  1  0  0  0
 30 22  1  6  0  0  0
 30 31  1  0  0  0  0
 31 24  1  6  0  0  0
M  END
>  <CHROM.1>
61.03724244,-72.19544735,65.84153729,63.92762436,64.52025550,-55.11765479
15.62907328,4.57859136,17.70235578,1.63783108,0.49359291,1.96262162

>  <Name>
ligand

>  <RI>
0

>  <Rbt.Current_Directory>
/home/itssahil/PROJECTS/Mol_Feturizer/New_Systems/rnas/3DVV

>  <Rbt.Executable>
rbdock ($Id: //depot/dev/client3/rdock/2013.1/src/exe/rbdock.cxx#4 $)

>  <Rbt.Library>
libRbt.so (2013.1, Build901 2013/11/27)

>  <Rbt.Parameter_File>
/export/apps/rDock/src/rDock_2013.1_src/data/scripts/dock_solv.prm

>  <Rbt.Receptor>
prm/pocket_docking_8.prm

>  <SCORE>
-6.4161

>  <SCORE.INTER>
-3.76501

>  <SCORE.INTER.CONST>
1

>  <SCORE.INTER.POLAR>
0

>  <SCORE.INTER.ROT>
6

>  <SCORE.INTER.SOLV>
10.6617

>  <SCORE.INTER.VDW>
-13.6639

>  <SCORE.INTER.norm>
-0.121452

>  <SCORE.INTRA>
-2.65109

>  <SCORE.INTRA.DIHEDRAL>
-9.43333

>  <SCORE.INTRA.DIHEDRAL.0>
10.8172

>  <SCORE.INTRA.POLAR>
0

>  <SCORE.INTRA.POLAR.0>
0

>  <SCORE.INTRA.REPUL>
0

>  <SCORE.INTRA.REPUL.0>
0

>  <SCORE.INTRA.SOLV>
-0.981865

>  <SCORE.INTRA.SOLV.lig_0>
-80.3833

>  <SCORE.INTRA.VDW>
2.5565

>  <SCORE.INTRA.VDW.0>
-4.63762

>  <SCORE.INTRA.norm>
-0.0855192

>  <SCORE.RESTR>
0

>  <SCORE.RESTR.CAVITY>
0

>  <SCORE.RESTR.norm>
0

>  <SCORE.SYSTEM>
0

>  <SCORE.SYSTEM.CONST>
0

>  <SCORE.SYSTEM.DIHEDRAL>
0

>  <SCORE.SYSTEM.SOLV>
0

>  <SCORE.SYSTEM.norm>
0

>  <SCORE.heavy>
31

>  <SCORE.norm>
-0.206971

>  <RMSD>
6.800

$$$$
ligand
 OpenBabel11021811473D
libRbt.so/2013.1/901 2013/11/27
 31 33  0  0  0  0  0  0  0  0999 V2000
   14.6048    9.8413   21.7286 C   0  0  0  0  0  0  0  0  0  0  0  0
   11.9435    4.8055   14.6631 N   0  0  0  0  0  0  0  0  0  0  0  0
   13.3203   10.1926   21.2036 O   0  0  0  0  0  0  0  0  0  0  0  0
   15.5155    9.3415   20.6043 C   0  0  1  0  0  0  0  0  0  0  0  0
   12.8639    3.5128   19.2875 N   0  0  0  0  0  0  0  0  0  0  0  0
   14.8895    8.2461   19.9080 O   0  0  0  0  0  0  0  0  0  0  0  0
   14.8440    8.5609   18.5050 C   0  0  1  0  0  0  0  0  0  0  0  0
   18.7998    6.4936   16.7132 N   0  0  0  0  0  0  0  0  0  0  0  0
   13.6748    8.0138   17.8751 O   0  0  0  0  0  0  0  0  0  0  0  0
   13.8482    6.6698   17.4023 C   0  0  2  0  0  0  0  0  0  0  0  0
   15.9619    4.1612   21.4542 N   0  0  0  0  0  0  0  0  0  0  0  0
   13.1961    7.2883   15.1585 O   0  0  0  0  0  0  0  0  0  0  0  0
   12.8430    6.4539   16.2651 C   0  0  1  0  0  0  0  0  0  0  0  0
   14.6907    5.6969   19.5059 O   0  0  0  0  0  0  0  0  0  0  0  0
   12.8413    4.9922   15.8131 C   0  0  1  0  0  0  0  0  0  0  0  0
   16.5349    5.5491   18.0516 O   0  0  0  0  0  0  0  0  0  0  0  0
   12.3931    4.1084   16.9774 C   0  0  0  0  0  0  0  0  0  0  0  0
   18.5024    8.0126   19.9321 O   0  0  0  0  0  0  0  0  0  0  0  0
   13.3898    4.2540   18.1311 C   0  0  1  0  0  0  0  0  0  0  0  0
   18.3420    5.8040   21.7654 O   0  0  0  0  0  0  0  0  0  0  0  0
   13.6046    5.7098   18.5629 C   0  0  2  0  0  0  0  0  0  0  0  0
   15.1102   10.6555   17.2403 O   0  0  0  0  0  0  0  0  0  0  0  0
   15.8174    4.8965   19.1154 C   0  0  1  0  0  0  0  0  0  0  0  0
   17.0556   10.4213   19.0175 O   0  0  0  0  0  0  0  0  0  0  0  0
   17.0481    6.8473   18.3958 C   0  0  2  0  0  0  0  0  0  0  0  0
   17.7737    7.4373   17.1843 C   0  0  0  0  0  0  0  0  0  0  0  0
   18.0424    6.7134   19.5506 C   0  0  2  0  0  0  0  0  0  0  0  0
   17.3641    6.0450   20.7482 C   0  0  1  0  0  0  0  0  0  0  0  0
   16.7332    4.7141   20.3304 C   0  0  1  0  0  0  0  0  0  0  0  0
   14.7286   10.0837   18.4937 C   0  0  2  0  0  0  0  0  0  0  0  0
   15.7394   10.4532   19.5752 C   0  0  1  0  0  0  0  0  0  0  0  0
  1  3  1  0  0  0  0
  4  1  1  1  0  0  0
  4  6  1  0  0  0  0
  4 31  1  0  0  0  0
  6  7  1  0  0  0  0
  7  9  1  1  0  0  0
  7 30  1  0  0  0  0
  8 26  1  0  0  0  0
 10  9  1  1  0  0  0
 10 13  1  0  0  0  0
 10 21  1  0  0  0  0
 13 12  1  6  0  0  0
 13 15  1  0  0  0  0
 15  2  1  6  0  0  0
 15 17  1  0  0  0  0
 16 25  1  0  0  0  0
 16 23  1  0  0  0  0
 17 19  1  0  0  0  0
 19  5  1  1  0  0  0
 19 21  1  0  0  0  0
 21 14  1  1  0  0  0
 23 14  1  1  0  0  0
 23 29  1  0  0  0  0
 25 26  1  6  0  0  0
 25 27  1  0  0  0  0
 27 18  1  1  0  0  0
 27 28  1  0  0  0  0
 28 20  1  1  0  0  0
 28 29  1  0  0  0  0
 29 11  1  1  0  0  0
 30 22  1  6  0  0  0
 30 31  1  0  0  0  0
 31 24  1  6  0  0  0
M  END
>  <CHROM.1>
-55.48985019,-87.53458284,-155.14467886,72.67329337,-80.23656279,-54.45080038
15.24193757,7.01723603,18.69551173,0.65485885,-0.70543010,0.07212142

>  <Name>
ligand

>  <RI>
0

>  <Rbt.Current_Directory>
/home/itssahil/PROJECTS/Mol_Feturizer/New_Systems/rnas/3DVV

>  <Rbt.Executable>
rbdock ($Id: //depot/dev/client3/rdock/2013.1/src/exe/rbdock.cxx#4 $)

>  <Rbt.Library>
libRbt.so (2013.1, Build901 2013/11/27)

>  <Rbt.Parameter_File>
/export/apps/rDock/src/rDock_2013.1_src/data/scripts/dock_solv.prm

>  <Rbt.Receptor>
prm/pocket_docking_8.prm

>  <SCORE>
-1.23999

>  <SCORE.INTER>
-3.24737

>  <SCORE.INTER.CONST>
1

>  <SCORE.INTER.POLAR>
0

>  <SCORE.INTER.ROT>
6

>  <SCORE.INTER.SOLV>
10.8042

>  <SCORE.INTER.VDW>
-13.3663

>  <SCORE.INTER.norm>
-0.104754

>  <SCORE.INTRA>
2.00738

>  <SCORE.INTRA.DIHEDRAL>
-2.16474

>  <SCORE.INTRA.DIHEDRAL.0>
10.8172

>  <SCORE.INTRA.POLAR>
0

>  <SCORE.INTRA.POLAR.0>
0

>  <SCORE.INTRA.REPUL>
0.225114

>  <SCORE.INTRA.REPUL.0>
0

>  <SCORE.INTRA.SOLV>
0.518006

>  <SCORE.INTRA.SOLV.lig_0>
-80.3833

>  <SCORE.INTRA.VDW>
1.70518

>  <SCORE.INTRA.VDW.0>
-4.63762

>  <SCORE.INTRA.norm>
0.0647543

>  <SCORE.RESTR>
0

>  <SCORE.RESTR.CAVITY>
0

>  <SCORE.RESTR.norm>
0

>  <SCORE.SYSTEM>
0

>  <SCORE.SYSTEM.CONST>
0

>  <SCORE.SYSTEM.DIHEDRAL>
0

>  <SCORE.SYSTEM.SOLV>
0

>  <SCORE.SYSTEM.norm>
0

>  <SCORE.heavy>
31

>  <SCORE.norm>
-0.0399996

>  <RMSD>
6.803

$$$$
ligand
 OpenBabel11021811473D
libRbt.so/2013.1/901 2013/11/27
 31 33  0  0  0  0  0  0  0  0999 V2000
   16.3760    8.9430   13.3253 C   0  0  0  0  0  0  0  0  0  0  0  0
   22.1523    5.0433   17.2954 N   0  0  0  0  0  0  0  0  0  0  0  0
   16.3966    8.0869   12.1783 O   0  0  0  0  0  0  0  0  0  0  0  0
   17.8007    9.1795   13.8327 C   0  0  1  0  0  0  0  0  0  0  0  0
   20.2420    1.7480   14.2302 N   0  0  0  0  0  0  0  0  0  0  0  0
   18.4057    7.9289   14.2154 O   0  0  0  0  0  0  0  0  0  0  0  0
   19.6495    7.7856   13.5068 C   0  0  1  0  0  0  0  0  0  0  0  0
   20.2188    0.5098    9.6478 N   0  0  0  0  0  0  0  0  0  0  0  0
   19.9296    6.4114   13.1971 O   0  0  0  0  0  0  0  0  0  0  0  0
   19.8018    5.5279   14.3210 C   0  0  2  0  0  0  0  0  0  0  0  0
   15.9031    4.4795   12.4872 N   0  0  0  0  0  0  0  0  0  0  0  0
   20.9291    7.0900   15.7809 O   0  0  0  0  0  0  0  0  0  0  0  0
   21.0106    5.7719   15.2318 C   0  0  1  0  0  0  0  0  0  0  0  0
   18.5025    3.7614   13.1929 O   0  0  0  0  0  0  0  0  0  0  0  0
   21.0446    4.7526   16.3723 C   0  0  1  0  0  0  0  0  0  0  0  0
   19.2310    3.8356   10.9564 O   0  0  0  0  0  0  0  0  0  0  0  0
   21.2049    3.3498   15.7858 C   0  0  0  0  0  0  0  0  0  0  0  0
   17.6609    0.6292   10.1019 O   0  0  0  0  0  0  0  0  0  0  0  0
   19.9981    3.0364   14.8964 C   0  0  1  0  0  0  0  0  0  0  0  0
   15.3945    2.3268   10.5984 O   0  0  0  0  0  0  0  0  0  0  0  0
   19.7597    4.0912   13.8091 C   0  0  2  0  0  0  0  0  0  0  0  0
   20.6003    8.9052   11.5318 O   0  0  0  0  0  0  0  0  0  0  0  0
   18.2865    4.3626   11.9066 C   0  0  1  0  0  0  0  0  0  0  0  0
   19.6275   10.7055   13.2082 O   0  0  0  0  0  0  0  0  0  0  0  0
   19.1469    2.4126   10.7684 C   0  0  2  0  0  0  0  0  0  0  0  0
   20.2048    1.9777    9.7513 C   0  0  0  0  0  0  0  0  0  0  0  0
   17.7626    2.0501   10.2275 C   0  0  2  0  0  0  0  0  0  0  0  0
   16.6804    2.5521   11.1856 C   0  0  1  0  0  0  0  0  0  0  0  0
   16.8567    4.0491   11.4533 C   0  0  1  0  0  0  0  0  0  0  0  0
   19.3925    8.5309   12.1986 C   0  0  2  0  0  0  0  0  0  0  0  0
   18.6659    9.7691   12.7152 C   0  0  1  0  0  0  0  0  0  0  0  0
  1  3  1  0  0  0  0
  4  1  1  6  0  0  0
  4  6  1  0  0  0  0
  4 31  1  0  0  0  0
  6  7  1  0  0  0  0
  7  9  1  6  0  0  0
  7 30  1  0  0  0  0
  8 26  1  0  0  0  0
 10  9  1  6  0  0  0
 10 13  1  0  0  0  0
 10 21  1  0  0  0  0
 13 12  1  1  0  0  0
 13 15  1  0  0  0  0
 15  2  1  1  0  0  0
 15 17  1  0  0  0  0
 16 25  1  0  0  0  0
 16 23  1  0  0  0  0
 17 19  1  0  0  0  0
 19  5  1  6  0  0  0
 19 21  1  0  0  0  0
 21 14  1  1  0  0  0
 23 14  1  1  0  0  0
 23 29  1  0  0  0  0
 25 26  1  6  0  0  0
 25 27  1  0  0  0  0
 27 18  1  1  0  0  0
 27 28  1  0  0  0  0
 28 20  1  6  0  0  0
 28 29  1  0  0  0  0
 29 11  1  1  0  0  0
 30 22  1  1  0  0  0
 30 31  1  0  0  0  0
 31 24  1  1  0  0  0
M  END
>  <CHROM.1>
-60.71306833,-49.65487425,-73.63523259,65.88766684,72.62757664,174.48160379
18.98011143,5.18151772,12.87793176,1.35510998,-0.82936650,0.26259786

>  <Name>
ligand

>  <RI>
0

>  <Rbt.Current_Directory>
/home/itssahil/PROJECTS/Mol_Feturizer/New_Systems/rnas/3DVV

>  <Rbt.Executable>
rbdock ($Id: //depot/dev/client3/rdock/2013.1/src/exe/rbdock.cxx#4 $)

>  <Rbt.Library>
libRbt.so (2013.1, Build901 2013/11/27)

>  <Rbt.Parameter_File>
/export/apps/rDock/src/rDock_2013.1_src/data/scripts/dock_solv.prm

>  <Rbt.Receptor>
prm/blind_docking_40.prm

>  <SCORE>
-4.54866

>  <SCORE.INTER>
-2.24612

>  <SCORE.INTER.CONST>
1

>  <SCORE.INTER.POLAR>
0

>  <SCORE.INTER.ROT>
6

>  <SCORE.INTER.SOLV>
16.8302

>  <SCORE.INTER.VDW>
-14.7075

>  <SCORE.INTER.norm>
-0.0724555

>  <SCORE.INTRA>
-2.30283

>  <SCORE.INTRA.DIHEDRAL>
-8.15442

>  <SCORE.INTRA.DIHEDRAL.0>
10.8172

>  <SCORE.INTRA.POLAR>
0

>  <SCORE.INTRA.POLAR.0>
0

>  <SCORE.INTRA.REPUL>
0

>  <SCORE.INTRA.REPUL.0>
0

>  <SCORE.INTRA.SOLV>
-1.71925

>  <SCORE.INTRA.SOLV.lig_0>
-80.3833

>  <SCORE.INTRA.VDW>
2.63401

>  <SCORE.INTRA.VDW.0>
-4.63762

>  <SCORE.INTRA.norm>
-0.0742849

>  <SCORE.RESTR>
0.000294058

>  <SCORE.RESTR.CAVITY>
0.000294058

>  <SCORE.RESTR.norm>
9.48573e-06

>  <SCORE.SYSTEM>
0

>  <SCORE.SYSTEM.CONST>
0

>  <SCORE.SYSTEM.DIHEDRAL>
0

>  <SCORE.SYSTEM.SOLV>
0

>  <SCORE.SYSTEM.norm>
0

>  <SCORE.heavy>
31

>  <SCORE.norm>
-0.146731

>  <RMSD>
6.815

$$$$
ligand
 OpenBabel11021811473D
libRbt.so/2013.1/901 2013/11/27
 31 33  0  0  0  0  0  0  0  0999 V2000
   20.2051   -0.1908   13.0245 C   0  0  0  0  0  0  0  0  0  0  0  0
   12.6071    3.6913   11.0491 N   0  0  0  0  0  0  0  0  0  0  0  0
   20.2151    0.3607   14.3453 O   0  0  0  0  0  0  0  0  0  0  0  0
   18.7648   -0.4169   12.5581 C   0  0  1  0  0  0  0  0  0  0  0  0
   15.9691    6.8987   12.5700 N   0  0  0  0  0  0  0  0  0  0  0  0
   18.0057    0.8017   12.6814 O   0  0  0  0  0  0  0  0  0  0  0  0
   17.4142    1.1044   11.4053 C   0  0  1  0  0  0  0  0  0  0  0  0
   19.5650    8.9254   11.0725 N   0  0  0  0  0  0  0  0  0  0  0  0
   17.3208    2.5207   11.1853 O   0  0  0  0  0  0  0  0  0  0  0  0
   16.2835    3.1568   11.9464 C   0  0  2  0  0  0  0  0  0  0  0  0
   19.5465    3.7124   15.0344 N   0  0  0  0  0  0  0  0  0  0  0  0
   14.5975    1.6871   11.0301 O   0  0  0  0  0  0  0  0  0  0  0  0
   14.9917    3.0585   11.1267 C   0  0  1  0  0  0  0  0  0  0  0  0
   17.7187    4.7289   13.1915 O   0  0  0  0  0  0  0  0  0  0  0  0
   13.8682    3.8600   11.7871 C   0  0  1  0  0  0  0  0  0  0  0  0
   19.4222    5.2820   11.6649 O   0  0  0  0  0  0  0  0  0  0  0  0
   14.2612    5.3370   11.8236 C   0  0  0  0  0  0  0  0  0  0  0  0
   20.4661    8.2489   13.5581 O   0  0  0  0  0  0  0  0  0  0  0  0
   15.5283    5.4990   12.6684 C   0  0  1  0  0  0  0  0  0  0  0  0
   21.1939    6.0932   15.3154 O   0  0  0  0  0  0  0  0  0  0  0  0
   16.6843    4.6071   12.1994 C   0  0  2  0  0  0  0  0  0  0  0  0
   17.8513    0.3112    9.1167 O   0  0  0  0  0  0  0  0  0  0  0  0
   19.0371    4.3941   12.7306 C   0  0  1  0  0  0  0  0  0  0  0  0
   17.7137   -1.7463   10.7737 O   0  0  0  0  0  0  0  0  0  0  0  0
   19.4530    6.6707   12.0363 C   0  0  2  0  0  0  0  0  0  0  0  0
   19.8609    7.5061   10.8204 C   0  0  0  0  0  0  0  0  0  0  0  0
   20.4835    6.8791   13.1475 C   0  0  2  0  0  0  0  0  0  0  0  0
   20.1470    5.9878   14.3448 C   0  0  1  0  0  0  0  0  0  0  0  0
   20.0145    4.5279   13.9032 C   0  0  1  0  0  0  0  0  0  0  0  0
   18.4195    0.5282   10.4104 C   0  0  2  0  0  0  0  0  0  0  0  0
   18.7464   -0.8049   11.0768 C   0  0  1  0  0  0  0  0  0  0  0  0
  1  3  1  0  0  0  0
  4  1  1  6  0  0  0
  4  6  1  0  0  0  0
  4 31  1  0  0  0  0
  6  7  1  0  0  0  0
  7  9  1  6  0  0  0
  7 30  1  0  0  0  0
  8 26  1  0  0  0  0
 10  9  1  6  0  0  0
 10 13  1  0  0  0  0
 10 21  1  0  0  0  0
 13 12  1  1  0  0  0
 13 15  1  0  0  0  0
 15  2  1  6  0  0  0
 15 17  1  0  0  0  0
 16 25  1  0  0  0  0
 16 23  1  0  0  0  0
 17 19  1  0  0  0  0
 19  5  1  6  0  0  0
 19 21  1  0  0  0  0
 21 14  1  1  0  0  0
 23 14  1  1  0  0  0
 23 29  1  0  0  0  0
 25 26  1  6  0  0  0
 25 27  1  0  0  0  0
 27 18  1  1  0  0  0
 27 28  1  0  0  0  0
 28 20  1  1  0  0  0
 28 29  1  0  0  0  0
 29 11  1  1  0  0  0
 30 22  1  6  0  0  0
 30 31  1  0  0  0  0
 31 24  1  1  0  0  0
M  END
>  <CHROM.1>
53.84201625,-74.37028314,-86.97047338,61.44927802,76.58809107,165.45531903
17.97296427,3.61973055,12.24710882,-1.90923247,-0.37009988,0.12048857

>  <Name>
ligand

>  <RI>
0

>  <Rbt.Current_Directory>
/home/itssahil/PROJECTS/Mol_Feturizer/New_Systems/rnas/3DVV

>  <Rbt.Executable>
rbdock ($Id: //depot/dev/client3/rdock/2013.1/src/exe/rbdock.cxx#4 $)

>  <Rbt.Library>
libRbt.so (2013.1, Build901 2013/11/27)

>  <Rbt.Parameter_File>
/export/apps/rDock/src/rDock_2013.1_src/data/scripts/dock_solv.prm

>  <Rbt.Receptor>
prm/blind_docking_60.prm

>  <SCORE>
-1.5365

>  <SCORE.INTER>
-0.494598

>  <SCORE.INTER.CONST>
1

>  <SCORE.INTER.POLAR>
0

>  <SCORE.INTER.ROT>
6

>  <SCORE.INTER.SOLV>
19.4159

>  <SCORE.INTER.VDW>
-14.4017

>  <SCORE.INTER.norm>
-0.0159548

>  <SCORE.INTRA>
-2.0411

>  <SCORE.INTRA.DIHEDRAL>
-4.47739

>  <SCORE.INTRA.DIHEDRAL.0>
10.8172

>  <SCORE.INTRA.POLAR>
0

>  <SCORE.INTRA.POLAR.0>
0

>  <SCORE.INTRA.REPUL>
0

>  <SCORE.INTRA.REPUL.0>
0

>  <SCORE.INTRA.SOLV>
-1.90876

>  <SCORE.INTRA.SOLV.lig_0>
-80.3833

>  <SCORE.INTRA.VDW>
1.15198

>  <SCORE.INTRA.VDW.0>
-4.63762

>  <SCORE.INTRA.norm>
-0.0658418

>  <SCORE.RESTR>
0.999189

>  <SCORE.RESTR.CAVITY>
0.999189

>  <SCORE.RESTR.norm>
0.0322319

>  <SCORE.SYSTEM>
0

>  <SCORE.SYSTEM.CONST>
0

>  <SCORE.SYSTEM.DIHEDRAL>
0

>  <SCORE.SYSTEM.SOLV>
0

>  <SCORE.SYSTEM.norm>
0

>  <SCORE.heavy>
31

>  <SCORE.norm>
-0.0495646

>  <RMSD>
6.817

$$$$
ligand
 OpenBabel11021811473D
libRbt.so/2013.1/901 2013/11/27
 31 33  0  0  0  0  0  0  0  0999 V2000
   24.2147    6.6605   15.9613 C   0  0  0  0  0  0  0  0  0  0  0  0
   19.9079   10.2228   15.1118 N   0  0  0  0  0  0  0  0  0  0  0  0
   25.5265    6.4027   16.4727 O   0  0  0  0  0  0  0  0  0  0  0  0
   23.1565    6.2019   16.9680 C   0  0  1  0  0  0  0  0  0  0  0  0
   17.4618    7.8051   18.5867 N   0  0  0  0  0  0  0  0  0  0  0  0
   21.8395    6.5464   16.4957 O   0  0  0  0  0  0  0  0  0  0  0  0
   21.0336    5.3548   16.4753 C   0  0  1  0  0  0  0  0  0  0  0  0
   18.6099    4.8440   21.2455 N   0  0  0  0  0  0  0  0  0  0  0  0
   20.0808    5.3757   15.4007 O   0  0  0  0  0  0  0  0  0  0  0  0
   19.1746    6.4875   15.4531 C   0  0  2  0  0  0  0  0  0  0  0  0
   16.5421    3.4624   15.2649 N   0  0  0  0  0  0  0  0  0  0  0  0
   20.5062    7.7517   13.8811 O   0  0  0  0  0  0  0  0  0  0  0  0
   19.9992    7.7585   15.2184 C   0  0  1  0  0  0  0  0  0  0  0  0
   17.5013    5.4660   16.9490 O   0  0  0  0  0  0  0  0  0  0  0  0
   19.1404    9.0078   15.4250 C   0  0  1  0  0  0  0  0  0  0  0  0
   18.3618    3.8987   18.4791 O   0  0  0  0  0  0  0  0  0  0  0  0
   18.6592    9.0505   16.8755 C   0  0  0  0  0  0  0  0  0  0  0  0
   15.0599    3.1143   19.8786 O   0  0  0  0  0  0  0  0  0  0  0  0
   17.7918    7.8193   17.1535 C   0  0  1  0  0  0  0  0  0  0  0  0
   14.8708    2.0799   17.2030 O   0  0  0  0  0  0  0  0  0  0  0  0
   18.4947    6.4980   16.8189 C   0  0  2  0  0  0  0  0  0  0  0  0
   21.5743    2.9553   16.5638 O   0  0  0  0  0  0  0  0  0  0  0  0
   18.0285    4.1385   17.0992 C   0  0  1  0  0  0  0  0  0  0  0  0
   22.9072    4.2505   18.4463 O   0  0  0  0  0  0  0  0  0  0  0  0
   17.2484    4.0072   19.3823 C   0  0  2  0  0  0  0  0  0  0  0  0
   17.7334    3.7450   20.8101 C   0  0  0  0  0  0  0  0  0  0  0  0
   16.1925    2.9616   19.0190 C   0  0  2  0  0  0  0  0  0  0  0  0
   15.7530    3.1475   17.5652 C   0  0  1  0  0  0  0  0  0  0  0  0
   16.9682    3.1348   16.6341 C   0  0  1  0  0  0  0  0  0  0  0  0
   22.0514    4.2512   16.1945 C   0  0  2  0  0  0  0  0  0  0  0  0
   23.1933    4.6778   17.1121 C   0  0  1  0  0  0  0  0  0  0  0  0
  1  3  1  0  0  0  0
  4  1  1  6  0  0  0
  4  6  1  0  0  0  0
  4 31  1  0  0  0  0
  6  7  1  0  0  0  0
  7  9  1  6  0  0  0
  7 30  1  0  0  0  0
  8 26  1  0  0  0  0
 10  9  1  1  0  0  0
 10 13  1  0  0  0  0
 10 21  1  0  0  0  0
 13 12  1  6  0  0  0
 13 15  1  0  0  0  0
 15  2  1  1  0  0  0
 15 17  1  0  0  0  0
 16 25  1  0  0  0  0
 16 23  1  0  0  0  0
 17 19  1  0  0  0  0
 19  5  1  1  0  0  0
 19 21  1  0  0  0  0
 21 14  1  6  0  0  0
 23 14  1  1  0  0  0
 23 29  1  0  0  0  0
 25 26  1  1  0  0  0
 25 27  1  0  0  0  0
 27 18  1  1  0  0  0
 27 28  1  0  0  0  0
 28 20  1  6  0  0  0
 28 29  1  0  0  0  0
 29 11  1  6  0  0  0
 30 22  1  1  0  0  0
 30 31  1  0  0  0  0
 31 24  1  1  0  0  0
M  END
>  <CHROM.1>
175.97355516,-59.03230218,66.40679892,83.55453479,73.57190390,68.27175399
19.36903653,5.42598699,17.10240978,-0.58390282,-0.07901059,2.61720272

>  <Name>
ligand

>  <RI>
0

>  <Rbt.Current_Directory>
/home/itssahil/PROJECTS/Mol_Feturizer/New_Systems/rnas/3DVV

>  <Rbt.Executable>
rbdock ($Id: //depot/dev/client3/rdock/2013.1/src/exe/rbdock.cxx#4 $)

>  <Rbt.Library>
libRbt.so (2013.1, Build901 2013/11/27)

>  <Rbt.Parameter_File>
/export/apps/rDock/src/rDock_2013.1_src/data/scripts/dock_solv.prm

>  <Rbt.Receptor>
prm/pocket_docking_5.prm

>  <SCORE>
-8.60203

>  <SCORE.INTER>
-7.70059

>  <SCORE.INTER.CONST>
1

>  <SCORE.INTER.POLAR>
0

>  <SCORE.INTER.ROT>
6

>  <SCORE.INTER.SOLV>
21.879

>  <SCORE.INTER.VDW>
-20.0267

>  <SCORE.INTER.norm>
-0.248406

>  <SCORE.INTRA>
-0.901441

>  <SCORE.INTRA.DIHEDRAL>
-6.78215

>  <SCORE.INTRA.DIHEDRAL.0>
10.8172

>  <SCORE.INTRA.POLAR>
0

>  <SCORE.INTRA.POLAR.0>
0

>  <SCORE.INTRA.REPUL>
0

>  <SCORE.INTRA.REPUL.0>
0

>  <SCORE.INTRA.SOLV>
-3.00432

>  <SCORE.INTRA.SOLV.lig_0>
-80.3833

>  <SCORE.INTRA.VDW>
3.99179

>  <SCORE.INTRA.VDW.0>
-4.63762

>  <SCORE.INTRA.norm>
-0.0290787

>  <SCORE.RESTR>
0

>  <SCORE.RESTR.CAVITY>
0

>  <SCORE.RESTR.norm>
0

>  <SCORE.SYSTEM>
0

>  <SCORE.SYSTEM.CONST>
0

>  <SCORE.SYSTEM.DIHEDRAL>
0

>  <SCORE.SYSTEM.SOLV>
0

>  <SCORE.SYSTEM.norm>
0

>  <SCORE.heavy>
31

>  <SCORE.norm>
-0.277485

>  <RMSD>
6.820

$$$$
ligand
 OpenBabel11021811473D
libRbt.so/2013.1/901 2013/11/27
 31 33  0  0  0  0  0  0  0  0999 V2000
   12.6393    4.5020   15.0507 C   0  0  0  0  0  0  0  0  0  0  0  0
   17.6406   10.1415   18.9673 N   0  0  0  0  0  0  0  0  0  0  0  0
   13.2291    4.9081   13.8112 O   0  0  0  0  0  0  0  0  0  0  0  0
   12.7513    5.6277   16.0819 C   0  0  1  0  0  0  0  0  0  0  0  0
   20.0918    8.5772   15.0368 N   0  0  0  0  0  0  0  0  0  0  0  0
   14.1172    6.0758   16.1818 O   0  0  0  0  0  0  0  0  0  0  0  0
   14.1504    7.4974   15.9633 C   0  0  1  0  0  0  0  0  0  0  0  0
   19.8791    9.3921   10.6386 N   0  0  0  0  0  0  0  0  0  0  0  0
   15.3600    7.9060   15.3054 O   0  0  0  0  0  0  0  0  0  0  0  0
   16.5263    7.8261   16.1381 C   0  0  2  0  0  0  0  0  0  0  0  0
   17.5468    4.0883   13.6579 N   0  0  0  0  0  0  0  0  0  0  0  0
   15.3501    8.7885   18.0177 O   0  0  0  0  0  0  0  0  0  0  0  0
   16.4559    8.9901   17.1333 C   0  0  1  0  0  0  0  0  0  0  0  0
   18.0025    6.7018   14.5140 O   0  0  0  0  0  0  0  0  0  0  0  0
   17.7451    9.0823   17.9520 C   0  0  1  0  0  0  0  0  0  0  0  0
   17.2170    7.6030   12.4870 O   0  0  0  0  0  0  0  0  0  0  0  0
   18.9159    9.3703   17.0120 C   0  0  0  0  0  0  0  0  0  0  0  0
   20.2859    6.7551   10.6596 O   0  0  0  0  0  0  0  0  0  0  0  0
   19.0587    8.2135   16.0185 C   0  0  1  0  0  0  0  0  0  0  0  0
   19.1681    4.1719   11.2444 O   0  0  0  0  0  0  0  0  0  0  0  0
   17.7650    7.9135   15.2516 C   0  0  2  0  0  0  0  0  0  0  0  0
   12.5413    9.0901   14.9979 O   0  0  0  0  0  0  0  0  0  0  0  0
   17.1215    6.4932   13.3991 C   0  0  1  0  0  0  0  0  0  0  0  0
   11.3200    7.5183   16.7401 O   0  0  0  0  0  0  0  0  0  0  0  0
   18.5321    7.8083   11.9434 C   0  0  2  0  0  0  0  0  0  0  0  0
   18.5041    9.0175   11.0055 C   0  0  0  0  0  0  0  0  0  0  0  0
   18.9532    6.5731   11.1451 C   0  0  2  0  0  0  0  0  0  0  0  0
   18.9056    5.3328   12.0398 C   0  0  1  0  0  0  0  0  0  0  0  0
   17.5266    5.1963   12.6906 C   0  0  1  0  0  0  0  0  0  0  0  0
   12.9813    7.7300   15.0085 C   0  0  2  0  0  0  0  0  0  0  0  0
   11.9187    6.8334   15.6369 C   0  0  1  0  0  0  0  0  0  0  0  0
  1  3  1  0  0  0  0
  4  1  1  6  0  0  0
  4  6  1  0  0  0  0
  4 31  1  0  0  0  0
  6  7  1  0  0  0  0
  7  9  1  6  0  0  0
  7 30  1  0  0  0  0
  8 26  1  0  0  0  0
 10  9  1  6  0  0  0
 10 13  1  0  0  0  0
 10 21  1  0  0  0  0
 13 12  1  1  0  0  0
 13 15  1  0  0  0  0
 15  2  1  1  0  0  0
 15 17  1  0  0  0  0
 16 25  1  0  0  0  0
 16 23  1  0  0  0  0
 17 19  1  0  0  0  0
 19  5  1  6  0  0  0
 19 21  1  0  0  0  0
 21 14  1  1  0  0  0
 23 14  1  1  0  0  0
 23 29  1  0  0  0  0
 25 26  1  6  0  0  0
 25 27  1  0  0  0  0
 27 18  1  1  0  0  0
 27 28  1  0  0  0  0
 28 20  1  6  0  0  0
 28 29  1  0  0  0  0
 29 11  1  1  0  0  0
 30 22  1  1  0  0  0
 30 31  1  0  0  0  0
 31 24  1  1  0  0  0
M  END
>  <CHROM.1>
-52.41533405,-71.23977651,-74.08351452,57.74943803,75.06774516,169.57630718
16.48560708,7.26844007,14.55857231,2.59161712,0.36144056,0.96001451

>  <Name>
ligand

>  <RI>
0

>  <Rbt.Current_Directory>
/home/itssahil/PROJECTS/Mol_Feturizer/New_Systems/rnas/3DVV

>  <Rbt.Executable>
rbdock ($Id: //depot/dev/client3/rdock/2013.1/src/exe/rbdock.cxx#4 $)

>  <Rbt.Library>
libRbt.so (2013.1, Build901 2013/11/27)

>  <Rbt.Parameter_File>
/export/apps/rDock/src/rDock_2013.1_src/data/scripts/dock_solv.prm

>  <Rbt.Receptor>
prm/pocket_docking_6.prm

>  <SCORE>
-3.98522

>  <SCORE.INTER>
-1.32701

>  <SCORE.INTER.CONST>
1

>  <SCORE.INTER.POLAR>
0

>  <SCORE.INTER.ROT>
6

>  <SCORE.INTER.SOLV>
13.3203

>  <SCORE.INTER.VDW>
-12.9248

>  <SCORE.INTER.norm>
-0.0428069

>  <SCORE.INTRA>
-2.6582

>  <SCORE.INTRA.DIHEDRAL>
-7.37815

>  <SCORE.INTRA.DIHEDRAL.0>
10.8172

>  <SCORE.INTRA.POLAR>
0

>  <SCORE.INTRA.POLAR.0>
0

>  <SCORE.INTRA.REPUL>
0

>  <SCORE.INTRA.REPUL.0>
0

>  <SCORE.INTRA.SOLV>
-2.32004

>  <SCORE.INTRA.SOLV.lig_0>
-80.3833

>  <SCORE.INTRA.VDW>
2.19089

>  <SCORE.INTRA.VDW.0>
-4.63762

>  <SCORE.INTRA.norm>
-0.0857485

>  <SCORE.RESTR>
0

>  <SCORE.RESTR.CAVITY>
0

>  <SCORE.RESTR.norm>
0

>  <SCORE.SYSTEM>
0

>  <SCORE.SYSTEM.CONST>
0

>  <SCORE.SYSTEM.DIHEDRAL>
0

>  <SCORE.SYSTEM.SOLV>
0

>  <SCORE.SYSTEM.norm>
0

>  <SCORE.heavy>
31

>  <SCORE.norm>
-0.128555

>  <RMSD>
6.820

$$$$
ligand
 OpenBabel11021811473D
libRbt.so/2013.1/901 2013/11/27
 31 33  0  0  0  0  0  0  0  0999 V2000
   16.4544    8.8015   13.0009 C   0  0  0  0  0  0  0  0  0  0  0  0
   22.2357    5.1528   17.3666 N   0  0  0  0  0  0  0  0  0  0  0  0
   16.5741    7.8407   11.9467 O   0  0  0  0  0  0  0  0  0  0  0  0
   17.8313    9.1052   13.5968 C   0  0  1  0  0  0  0  0  0  0  0  0
   20.3978    1.7711   14.3517 N   0  0  0  0  0  0  0  0  0  0  0  0
   18.4533    7.8889   14.0554 O   0  0  0  0  0  0  0  0  0  0  0  0
   19.7473    7.7744   13.4372 C   0  0  1  0  0  0  0  0  0  0  0  0
   20.4272    0.5918    9.6277 N   0  0  0  0  0  0  0  0  0  0  0  0
   20.0975    6.4041   13.1869 O   0  0  0  0  0  0  0  0  0  0  0  0
   19.9477    5.5508   14.3312 C   0  0  2  0  0  0  0  0  0  0  0  0
   16.0692    4.4677   12.5461 N   0  0  0  0  0  0  0  0  0  0  0  0
   21.0406    7.1547   15.7720 O   0  0  0  0  0  0  0  0  0  0  0  0
   21.1364    5.8226   15.2605 C   0  0  1  0  0  0  0  0  0  0  0  0
   18.6764    3.7512   13.2240 O   0  0  0  0  0  0  0  0  0  0  0  0
   21.1484    4.8344   16.4286 C   0  0  1  0  0  0  0  0  0  0  0  0
   19.3945    3.8816   10.9867 O   0  0  0  0  0  0  0  0  0  0  0  0
   21.3241    3.4168   15.8836 C   0  0  0  0  0  0  0  0  0  0  0  0
   17.8421    0.6852   10.0654 O   0  0  0  0  0  0  0  0  0  0  0  0
   20.1371    3.0763   14.9776 C   0  0  1  0  0  0  0  0  0  0  0  0
   15.5667    2.3555   10.6104 O   0  0  0  0  0  0  0  0  0  0  0  0
   19.9195    4.1008   13.8575 C   0  0  2  0  0  0  0  0  0  0  0  0
   20.7908    8.8771   11.4999 O   0  0  0  0  0  0  0  0  0  0  0  0
   18.4508    4.3803   11.9528 C   0  0  1  0  0  0  0  0  0  0  0  0
   19.6406   10.6825   13.0540 O   0  0  0  0  0  0  0  0  0  0  0  0
   19.3191    2.4629   10.7664 C   0  0  2  0  0  0  0  0  0  0  0  0
   20.3753    2.0586    9.7351 C   0  0  0  0  0  0  0  0  0  0  0  0
   17.9349    2.1035   10.2232 C   0  0  2  0  0  0  0  0  0  0  0  0
   16.8536    2.5760   11.1972 C   0  0  1  0  0  0  0  0  0  0  0  0
   17.0211    4.0676   11.4984 C   0  0  1  0  0  0  0  0  0  0  0  0
   19.5543    8.4748   12.0938 C   0  0  2  0  0  0  0  0  0  0  0  0
   18.7496    9.6977   12.5241 C   0  0  1  0  0  0  0  0  0  0  0  0
  1  3  1  0  0  0  0
  4  1  1  6  0  0  0
  4  6  1  0  0  0  0
  4 31  1  0  0  0  0
  6  7  1  0  0  0  0
  7  9  1  6  0  0  0
  7 30  1  0  0  0  0
  8 26  1  0  0  0  0
 10  9  1  6  0  0  0
 10 13  1  0  0  0  0
 10 21  1  0  0  0  0
 13 12  1  1  0  0  0
 13 15  1  0  0  0  0
 15  2  1  1  0  0  0
 15 17  1  0  0  0  0
 16 25  1  0  0  0  0
 16 23  1  0  0  0  0
 17 19  1  0  0  0  0
 19  5  1  6  0  0  0
 19 21  1  0  0  0  0
 21 14  1  1  0  0  0
 23 14  1  1  0  0  0
 23 29  1  0  0  0  0
 25 26  1  6  0  0  0
 25 27  1  0  0  0  0
 27 18  1  1  0  0  0
 27 28  1  0  0  0  0
 28 20  1  6  0  0  0
 28 29  1  0  0  0  0
 29 11  1  1  0  0  0
 30 22  1  1  0  0  0
 30 31  1  0  0  0  0
 31 24  1  1  0  0  0
M  END
>  <CHROM.1>
-56.44908881,-50.72820334,-76.41379162,67.34072580,69.07936613,172.77148195
19.11819361,5.18698775,12.84894126,1.34085655,-0.85451422,0.24888363

>  <Name>
ligand

>  <RI>
0

>  <Rbt.Current_Directory>
/home/itssahil/PROJECTS/Mol_Feturizer/New_Systems/rnas/3DVV

>  <Rbt.Executable>
rbdock ($Id: //depot/dev/client3/rdock/2013.1/src/exe/rbdock.cxx#4 $)

>  <Rbt.Library>
libRbt.so (2013.1, Build901 2013/11/27)

>  <Rbt.Parameter_File>
/export/apps/rDock/src/rDock_2013.1_src/data/scripts/dock_solv.prm

>  <Rbt.Receptor>
prm/blind_docking_100.prm

>  <SCORE>
-4.93776

>  <SCORE.INTER>
-2.3594

>  <SCORE.INTER.CONST>
1

>  <SCORE.INTER.POLAR>
0

>  <SCORE.INTER.ROT>
6

>  <SCORE.INTER.SOLV>
19.0205

>  <SCORE.INTER.VDW>
-15.5131

>  <SCORE.INTER.norm>
-0.0761098

>  <SCORE.INTRA>
-2.57836

>  <SCORE.INTRA.DIHEDRAL>
-8.01229

>  <SCORE.INTRA.DIHEDRAL.0>
10.8172

>  <SCORE.INTRA.POLAR>
0

>  <SCORE.INTRA.POLAR.0>
0

>  <SCORE.INTRA.REPUL>
0

>  <SCORE.INTRA.REPUL.0>
0

>  <SCORE.INTRA.SOLV>
-1.66467

>  <SCORE.INTRA.SOLV.lig_0>
-80.3833

>  <SCORE.INTRA.VDW>
2.26012

>  <SCORE.INTRA.VDW.0>
-4.63762

>  <SCORE.INTRA.norm>
-0.0831729

>  <SCORE.RESTR>
0

>  <SCORE.RESTR.CAVITY>
0

>  <SCORE.RESTR.norm>
0

>  <SCORE.SYSTEM>
0

>  <SCORE.SYSTEM.CONST>
0

>  <SCORE.SYSTEM.DIHEDRAL>
0

>  <SCORE.SYSTEM.SOLV>
0

>  <SCORE.SYSTEM.norm>
0

>  <SCORE.heavy>
31

>  <SCORE.norm>
-0.159283

>  <RMSD>
6.822

$$$$
ligand
 OpenBabel11021811473D
libRbt.so/2013.1/901 2013/11/27
 31 33  0  0  0  0  0  0  0  0999 V2000
   23.2839    4.4452   17.5068 C   0  0  0  0  0  0  0  0  0  0  0  0
   18.4103    8.8761   11.4111 N   0  0  0  0  0  0  0  0  0  0  0  0
   21.9883    4.5659   18.1032 O   0  0  0  0  0  0  0  0  0  0  0  0
   23.3839    5.3486   16.2751 C   0  0  1  0  0  0  0  0  0  0  0  0
   16.9845    4.2010   11.5286 N   0  0  0  0  0  0  0  0  0  0  0  0
   22.3999    4.9635   15.2955 O   0  0  0  0  0  0  0  0  0  0  0  0
   21.6111    6.1188   14.9594 C   0  0  1  0  0  0  0  0  0  0  0  0
   15.7966    0.0420   12.0987 N   0  0  0  0  0  0  0  0  0  0  0  0
   20.2523    5.7650   14.6570 O   0  0  0  0  0  0  0  0  0  0  0  0
   19.9167    5.8943   13.2675 C   0  0  2  0  0  0  0  0  0  0  0  0
   21.7235    2.2280   13.7577 N   0  0  0  0  0  0  0  0  0  0  0  0
   20.4373    8.2547   13.2777 O   0  0  0  0  0  0  0  0  0  0  0  0
   19.3811    7.3156   13.0588 C   0  0  1  0  0  0  0  0  0  0  0  0
   19.4307    3.5160   12.8332 O   0  0  0  0  0  0  0  0  0  0  0  0
   18.8404    7.4880   11.6380 C   0  0  1  0  0  0  0  0  0  0  0  0
   18.0260    2.1670   14.1542 O   0  0  0  0  0  0  0  0  0  0  0  0
   17.6641    6.5337   11.4304 C   0  0  0  0  0  0  0  0  0  0  0  0
   18.3355   -0.7321   11.9235 O   0  0  0  0  0  0  0  0  0  0  0  0
   18.1539    5.0910   11.5869 C   0  0  1  0  0  0  0  0  0  0  0  0
   20.9882   -0.4833   13.0034 O   0  0  0  0  0  0  0  0  0  0  0  0
   18.8720    4.8387   12.9183 C   0  0  2  0  0  0  0  0  0  0  0  0
   21.2875    8.3076   16.0374 O   0  0  0  0  0  0  0  0  0  0  0  0
   19.3396    2.7452   14.0417 C   0  0  1  0  0  0  0  0  0  0  0  0
   23.8672    7.7346   15.9156 O   0  0  0  0  0  0  0  0  0  0  0  0
   17.6746    1.2864   13.0733 C   0  0  2  0  0  0  0  0  0  0  0  0
   16.2591    0.7511   13.3024 C   0  0  0  0  0  0  0  0  0  0  0  0
   18.6491    0.1077   13.0378 C   0  0  2  0  0  0  0  0  0  0  0  0
   20.0836    0.6210   12.8966 C   0  0  1  0  0  0  0  0  0  0  0  0
   20.3977    1.6377   13.9973 C   0  0  1  0  0  0  0  0  0  0  0  0
   21.6201    6.9338   16.2510 C   0  0  2  0  0  0  0  0  0  0  0  0
   23.0835    6.7996   16.6613 C   0  0  1  0  0  0  0  0  0  0  0  0
  1  3  1  0  0  0  0
  4  1  1  1  0  0  0
  4  6  1  0  0  0  0
  4 31  1  0  0  0  0
  6  7  1  0  0  0  0
  7  9  1  1  0  0  0
  7 30  1  0  0  0  0
  8 26  1  0  0  0  0
 10  9  1  1  0  0  0
 10 13  1  0  0  0  0
 10 21  1  0  0  0  0
 13 12  1  6  0  0  0
 13 15  1  0  0  0  0
 15  2  1  1  0  0  0
 15 17  1  0  0  0  0
 16 25  1  0  0  0  0
 16 23  1  0  0  0  0
 17 19  1  0  0  0  0
 19  5  1  1  0  0  0
 19 21  1  0  0  0  0
 21 14  1  6  0  0  0
 23 14  1  6  0  0  0
 23 29  1  0  0  0  0
 25 26  1  1  0  0  0
 25 27  1  0  0  0  0
 27 18  1  6  0  0  0
 27 28  1  0  0  0  0
 28 20  1  1  0  0  0
 28 29  1  0  0  0  0
 29 11  1  6  0  0  0
 30 22  1  6  0  0  0
 30 31  1  0  0  0  0
 31 24  1  6  0  0  0
M  END
>  <CHROM.1>
-60.71180589,-109.05117699,-90.73755960,81.11730944,94.19500767,170.15055950
19.97025448,4.30217201,13.89836965,-0.82981555,0.73185341,3.04052696

>  <Name>
ligand

>  <RI>
0

>  <Rbt.Current_Directory>
/home/itssahil/PROJECTS/Mol_Feturizer/New_Systems/rnas/3DVV

>  <Rbt.Executable>
rbdock ($Id: //depot/dev/client3/rdock/2013.1/src/exe/rbdock.cxx#4 $)

>  <Rbt.Library>
libRbt.so (2013.1, Build901 2013/11/27)

>  <Rbt.Parameter_File>
/export/apps/rDock/src/rDock_2013.1_src/data/scripts/dock_solv.prm

>  <Rbt.Receptor>
prm/blind_docking_80.prm

>  <SCORE>
-2.9008

>  <SCORE.INTER>
-6.94873

>  <SCORE.INTER.CONST>
1

>  <SCORE.INTER.POLAR>
0

>  <SCORE.INTER.ROT>
6

>  <SCORE.INTER.SOLV>
21.244

>  <SCORE.INTER.VDW>
-19.3138

>  <SCORE.INTER.norm>
-0.224153

>  <SCORE.INTRA>
3.99371

>  <SCORE.INTRA.DIHEDRAL>
6.11802

>  <SCORE.INTRA.DIHEDRAL.0>
10.8172

>  <SCORE.INTRA.POLAR>
0

>  <SCORE.INTRA.POLAR.0>
0

>  <SCORE.INTRA.REPUL>
0

>  <SCORE.INTRA.REPUL.0>
0

>  <SCORE.INTRA.SOLV>
0.383262

>  <SCORE.INTRA.SOLV.lig_0>
-80.3833

>  <SCORE.INTRA.VDW>
0.743071

>  <SCORE.INTRA.VDW.0>
-4.63762

>  <SCORE.INTRA.norm>
0.128829

>  <SCORE.RESTR>
0.0542115

>  <SCORE.RESTR.CAVITY>
0.0542115

>  <SCORE.RESTR.norm>
0.00174876

>  <SCORE.SYSTEM>
0

>  <SCORE.SYSTEM.CONST>
0

>  <SCORE.SYSTEM.DIHEDRAL>
0

>  <SCORE.SYSTEM.SOLV>
0

>  <SCORE.SYSTEM.norm>
0

>  <SCORE.heavy>
31

>  <SCORE.norm>
-0.0935743

>  <RMSD>
6.835

$$$$
ligand
 OpenBabel11021811473D
libRbt.so/2013.1/901 2013/11/27
 31 33  0  0  0  0  0  0  0  0999 V2000
   22.9245    3.9906   17.4276 C   0  0  0  0  0  0  0  0  0  0  0  0
   18.6680    8.8561   11.1741 N   0  0  0  0  0  0  0  0  0  0  0  0
   23.8242    4.2600   18.5078 O   0  0  0  0  0  0  0  0  0  0  0  0
   23.1111    5.0254   16.3151 C   0  0  1  0  0  0  0  0  0  0  0  0
   17.0230    4.2521   11.2134 N   0  0  0  0  0  0  0  0  0  0  0  0
   22.1747    4.7812   15.2474 O   0  0  0  0  0  0  0  0  0  0  0  0
   21.4299    5.9882   15.0059 C   0  0  1  0  0  0  0  0  0  0  0  0
   15.7770   -0.1050   12.0621 N   0  0  0  0  0  0  0  0  0  0  0  0
   20.0827    5.7082   14.5942 O   0  0  0  0  0  0  0  0  0  0  0  0
   19.8724    5.8341   13.1800 C   0  0  2  0  0  0  0  0  0  0  0  0
   21.6042    2.2903   13.7915 N   0  0  0  0  0  0  0  0  0  0  0  0
   20.4987    8.1685   13.2123 O   0  0  0  0  0  0  0  0  0  0  0  0
   19.4226    7.2752   12.9130 C   0  0  1  0  0  0  0  0  0  0  0  0
   19.3157    3.4746   12.7282 O   0  0  0  0  0  0  0  0  0  0  0  0
   19.0128    7.4530   11.4497 C   0  0  1  0  0  0  0  0  0  0  0  0
   17.8979    2.1654   14.0750 O   0  0  0  0  0  0  0  0  0  0  0  0
   17.8154    6.5502   11.1517 C   0  0  0  0  0  0  0  0  0  0  0  0
   18.3412   -0.8396   12.0135 O   0  0  0  0  0  0  0  0  0  0  0  0
   18.2231    5.0891   11.3629 C   0  0  1  0  0  0  0  0  0  0  0  0
   20.9516   -0.4733   13.1609 O   0  0  0  0  0  0  0  0  0  0  0  0
   18.8134    4.8222   12.7529 C   0  0  2  0  0  0  0  0  0  0  0  0
   21.0934    8.0480   16.3105 O   0  0  0  0  0  0  0  0  0  0  0  0
   19.2018    2.7669   13.9727 C   0  0  1  0  0  0  0  0  0  0  0  0
   23.6633    7.4229   16.2585 O   0  0  0  0  0  0  0  0  0  0  0  0
   17.6005    1.2210   13.0324 C   0  0  2  0  0  0  0  0  0  0  0  0
   16.1901    0.6663   13.2454 C   0  0  0  0  0  0  0  0  0  0  0  0
   18.6005    0.0648   13.0904 C   0  0  2  0  0  0  0  0  0  0  0  0
   20.0275    0.6028   12.9669 C   0  0  1  0  0  0  0  0  0  0  0  0
   20.2841    1.6832   14.0208 C   0  0  1  0  0  0  0  0  0  0  0  0
   21.3849    6.6503   16.3815 C   0  0  2  0  0  0  0  0  0  0  0  0
   22.8204    6.4307   16.8496 C   0  0  1  0  0  0  0  0  0  0  0  0
  1  3  1  0  0  0  0
  4  1  1  1  0  0  0
  4  6  1  0  0  0  0
  4 31  1  0  0  0  0
  6  7  1  0  0  0  0
  7  9  1  1  0  0  0
  7 30  1  0  0  0  0
  8 26  1  0  0  0  0
 10  9  1  1  0  0  0
 10 13  1  0  0  0  0
 10 21  1  0  0  0  0
 13 12  1  6  0  0  0
 13 15  1  0  0  0  0
 15  2  1  1  0  0  0
 15 17  1  0  0  0  0
 16 25  1  0  0  0  0
 16 23  1  0  0  0  0
 17 19  1  0  0  0  0
 19  5  1  1  0  0  0
 19 21  1  0  0  0  0
 21 14  1  6  0  0  0
 23 14  1  6  0  0  0
 23 29  1  0  0  0  0
 25 26  1  1  0  0  0
 25 27  1  0  0  0  0
 27 18  1  6  0  0  0
 27 28  1  0  0  0  0
 28 20  1  1  0  0  0
 28 29  1  0  0  0  0
 29 11  1  6  0  0  0
 30 22  1  6  0  0  0
 30 31  1  0  0  0  0
 31 24  1  6  0  0  0
M  END
>  <CHROM.1>
-178.07148547,-101.23868135,-91.45781186,85.41947770,88.52501478,169.60645678
19.96105584,4.19602360,13.88955318,-0.73417297,0.76971558,3.00115144

>  <Name>
ligand

>  <RI>
0

>  <Rbt.Current_Directory>
/home/itssahil/PROJECTS/Mol_Feturizer/New_Systems/rnas/3DVV

>  <Rbt.Executable>
rbdock ($Id: //depot/dev/client3/rdock/2013.1/src/exe/rbdock.cxx#4 $)

>  <Rbt.Library>
libRbt.so (2013.1, Build901 2013/11/27)

>  <Rbt.Parameter_File>
/export/apps/rDock/src/rDock_2013.1_src/data/scripts/dock_solv.prm

>  <Rbt.Receptor>
prm/blind_docking_60.prm

>  <SCORE>
-2.11078

>  <SCORE.INTER>
-5.90282

>  <SCORE.INTER.CONST>
1

>  <SCORE.INTER.POLAR>
0

>  <SCORE.INTER.ROT>
6

>  <SCORE.INTER.SOLV>
22.1688

>  <SCORE.INTER.VDW>
-18.9248

>  <SCORE.INTER.norm>
-0.190414

>  <SCORE.INTRA>
3.4256

>  <SCORE.INTRA.DIHEDRAL>
5.05003

>  <SCORE.INTRA.DIHEDRAL.0>
10.8172

>  <SCORE.INTRA.POLAR>
0

>  <SCORE.INTRA.POLAR.0>
0

>  <SCORE.INTRA.REPUL>
0

>  <SCORE.INTRA.REPUL.0>
0

>  <SCORE.INTRA.SOLV>
0.211983

>  <SCORE.INTRA.SOLV.lig_0>
-80.3833

>  <SCORE.INTRA.VDW>
0.794599

>  <SCORE.INTRA.VDW.0>
-4.63762

>  <SCORE.INTRA.norm>
0.110503

>  <SCORE.RESTR>
0.366436

>  <SCORE.RESTR.CAVITY>
0.366436

>  <SCORE.RESTR.norm>
0.0118205

>  <SCORE.SYSTEM>
0

>  <SCORE.SYSTEM.CONST>
0

>  <SCORE.SYSTEM.DIHEDRAL>
0

>  <SCORE.SYSTEM.SOLV>
0

>  <SCORE.SYSTEM.norm>
0

>  <SCORE.heavy>
31

>  <SCORE.norm>
-0.0680897

>  <RMSD>
6.836

$$$$
ligand
 OpenBabel11021811473D
libRbt.so/2013.1/901 2013/11/27
 31 33  0  0  0  0  0  0  0  0999 V2000
   23.3073    4.3707   17.4610 C   0  0  0  0  0  0  0  0  0  0  0  0
   18.5228    8.9014   11.3984 N   0  0  0  0  0  0  0  0  0  0  0  0
   22.0223    4.4728   18.0833 O   0  0  0  0  0  0  0  0  0  0  0  0
   23.3932    5.3262   16.2682 C   0  0  1  0  0  0  0  0  0  0  0  0
   16.9928    4.2585   11.4759 N   0  0  0  0  0  0  0  0  0  0  0  0
   22.4251    4.9581   15.2663 O   0  0  0  0  0  0  0  0  0  0  0  0
   21.6105    6.1069   14.9721 C   0  0  1  0  0  0  0  0  0  0  0  0
   15.2398    1.9074   13.0945 N   0  0  0  0  0  0  0  0  0  0  0  0
   20.2627    5.7332   14.6453 O   0  0  0  0  0  0  0  0  0  0  0  0
   19.9441    5.8772   13.2533 C   0  0  2  0  0  0  0  0  0  0  0  0
   21.6717    2.1875   13.7497 N   0  0  0  0  0  0  0  0  0  0  0  0
   20.5166    8.2254   13.2816 O   0  0  0  0  0  0  0  0  0  0  0  0
   19.4422    7.3111   13.0471 C   0  0  1  0  0  0  0  0  0  0  0  0
   19.4101    3.5126   12.8011 O   0  0  0  0  0  0  0  0  0  0  0  0
   18.9198    7.5029   11.6219 C   0  0  1  0  0  0  0  0  0  0  0  0
   17.9688    2.1792   14.0983 O   0  0  0  0  0  0  0  0  0  0  0  0
   17.7248    6.5760   11.3974 C   0  0  0  0  0  0  0  0  0  0  0  0
   18.2648   -0.7154   11.8600 O   0  0  0  0  0  0  0  0  0  0  0  0
   18.1810    5.1221   11.5509 C   0  0  1  0  0  0  0  0  0  0  0  0
   20.9067   -0.5097   12.9750 O   0  0  0  0  0  0  0  0  0  0  0  0
   18.8799    4.8469   12.8879 C   0  0  2  0  0  0  0  0  0  0  0  0
   21.2267    8.2411   16.1365 O   0  0  0  0  0  0  0  0  0  0  0  0
   19.2920    2.7386   14.0051 C   0  0  1  0  0  0  0  0  0  0  0  0
   23.8203    7.7360   16.0104 O   0  0  0  0  0  0  0  0  0  0  0  0
   17.6186    1.3080   13.0095 C   0  0  2  0  0  0  0  0  0  0  0  0
   16.1926    0.7927   13.2180 C   0  0  0  0  0  0  0  0  0  0  0  0
   18.5762    0.1153   12.9816 C   0  0  2  0  0  0  0  0  0  0  0  0
   20.0197    0.6081   12.8611 C   0  0  1  0  0  0  0  0  0  0  0  0
   20.3343    1.6159   13.9698 C   0  0  1  0  0  0  0  0  0  0  0  0
   21.5913    6.8681   16.2960 C   0  0  2  0  0  0  0  0  0  0  0  0
   23.0549    6.7525   16.7113 C   0  0  1  0  0  0  0  0  0  0  0  0
  1  3  1  0  0  0  0
  4  1  1  1  0  0  0
  4  6  1  0  0  0  0
  4 31  1  0  0  0  0
  6  7  1  0  0  0  0
  7  9  1  1  0  0  0
  7 30  1  0  0  0  0
  8 26  1  0  0  0  0
 10  9  1  1  0  0  0
 10 13  1  0  0  0  0
 10 21  1  0  0  0  0
 13 12  1  6  0  0  0
 13 15  1  0  0  0  0
 15  2  1  1  0  0  0
 15 17  1  0  0  0  0
 16 25  1  0  0  0  0
 16 23  1  0  0  0  0
 17 19  1  0  0  0  0
 19  5  1  1  0  0  0
 19 21  1  0  0  0  0
 21 14  1  6  0  0  0
 23 14  1  6  0  0  0
 23 29  1  0  0  0  0
 25 26  1  1  0  0  0
 25 27  1  0  0  0  0
 27 18  1  6  0  0  0
 27 28  1  0  0  0  0
 28 20  1  1  0  0  0
 28 29  1  0  0  0  0
 29 11  1  6  0  0  0
 30 22  1  6  0  0  0
 30 31  1  0  0  0  0
 31 24  1  6  0  0  0
M  END
>  <CHROM.1>
-62.90550480,-107.45514540,-88.35284471,81.62128517,94.08147288,66.97018903
19.94402578,4.35121958,13.91422974,-0.79472144,0.71574975,3.03832821

>  <Name>
ligand

>  <RI>
0

>  <Rbt.Current_Directory>
/home/itssahil/PROJECTS/Mol_Feturizer/New_Systems/rnas/3DVV

>  <Rbt.Executable>
rbdock ($Id: //depot/dev/client3/rdock/2013.1/src/exe/rbdock.cxx#4 $)

>  <Rbt.Library>
libRbt.so (2013.1, Build901 2013/11/27)

>  <Rbt.Parameter_File>
/export/apps/rDock/src/rDock_2013.1_src/data/scripts/dock_solv.prm

>  <Rbt.Receptor>
prm/blind_docking_60.prm

>  <SCORE>
-3.1882

>  <SCORE.INTER>
-6.62205

>  <SCORE.INTER.CONST>
1

>  <SCORE.INTER.POLAR>
0

>  <SCORE.INTER.ROT>
6

>  <SCORE.INTER.SOLV>
20.6878

>  <SCORE.INTER.VDW>
-18.9106

>  <SCORE.INTER.norm>
-0.213614

>  <SCORE.INTRA>
3.41892

>  <SCORE.INTRA.DIHEDRAL>
5.42892

>  <SCORE.INTRA.DIHEDRAL.0>
10.8172

>  <SCORE.INTRA.POLAR>
0

>  <SCORE.INTRA.POLAR.0>
0

>  <SCORE.INTRA.REPUL>
0

>  <SCORE.INTRA.REPUL.0>
0

>  <SCORE.INTRA.SOLV>
0.395947

>  <SCORE.INTRA.SOLV.lig_0>
-80.3833

>  <SCORE.INTRA.VDW>
0.506484

>  <SCORE.INTRA.VDW.0>
-4.63762

>  <SCORE.INTRA.norm>
0.110288

>  <SCORE.RESTR>
0.0149319

>  <SCORE.RESTR.CAVITY>
0.0149319

>  <SCORE.RESTR.norm>
0.000481675

>  <SCORE.SYSTEM>
0

>  <SCORE.SYSTEM.CONST>
0

>  <SCORE.SYSTEM.DIHEDRAL>
0

>  <SCORE.SYSTEM.SOLV>
0

>  <SCORE.SYSTEM.norm>
0

>  <SCORE.heavy>
31

>  <SCORE.norm>
-0.102845

>  <RMSD>
6.837

$$$$
ligand
 OpenBabel11021811473D
libRbt.so/2013.1/901 2013/11/27
 31 33  0  0  0  0  0  0  0  0999 V2000
   23.1703    4.3308   17.4304 C   0  0  0  0  0  0  0  0  0  0  0  0
   18.5223    8.8630   11.2109 N   0  0  0  0  0  0  0  0  0  0  0  0
   23.5225    3.0225   16.9688 O   0  0  0  0  0  0  0  0  0  0  0  0
   23.2802    5.3413   16.2859 C   0  0  1  0  0  0  0  0  0  0  0  0
   17.1073    4.1848   11.3388 N   0  0  0  0  0  0  0  0  0  0  0  0
   22.3337    5.0208   15.2477 O   0  0  0  0  0  0  0  0  0  0  0  0
   21.5243    6.1822   14.9908 C   0  0  1  0  0  0  0  0  0  0  0  0
   15.8621    0.0154   12.1054 N   0  0  0  0  0  0  0  0  0  0  0  0
   20.1840    5.8243   14.6187 O   0  0  0  0  0  0  0  0  0  0  0  0
   19.9288    5.9248   13.2099 C   0  0  2  0  0  0  0  0  0  0  0  0
   21.7417    2.2697   13.8126 N   0  0  0  0  0  0  0  0  0  0  0  0
   20.4402    8.2872   13.2031 O   0  0  0  0  0  0  0  0  0  0  0  0
   19.4015    7.3393   12.9424 C   0  0  1  0  0  0  0  0  0  0  0  0
   19.4764    3.5364   12.7956 O   0  0  0  0  0  0  0  0  0  0  0  0
   18.9431    7.4814   11.4896 C   0  0  1  0  0  0  0  0  0  0  0  0
   18.0359    2.2346   14.1254 O   0  0  0  0  0  0  0  0  0  0  0  0
   17.7839    6.5181   11.2337 C   0  0  0  0  0  0  0  0  0  0  0  0
   18.3839   -0.7342   11.9943 O   0  0  0  0  0  0  0  0  0  0  0  0
   18.2685    5.0810   11.4468 C   0  0  1  0  0  0  0  0  0  0  0  0
   21.0121   -0.4613   13.1268 O   0  0  0  0  0  0  0  0  0  0  0  0
   18.9094    4.8580   12.8220 C   0  0  2  0  0  0  0  0  0  0  0  0
   21.1142    8.2592   16.2460 O   0  0  0  0  0  0  0  0  0  0  0  0
   19.3542    2.8042   14.0251 C   0  0  1  0  0  0  0  0  0  0  0  0
   23.7103    7.7605   16.1507 O   0  0  0  0  0  0  0  0  0  0  0  0
   17.7055    1.3217   13.0648 C   0  0  2  0  0  0  0  0  0  0  0  0
   16.2828    0.7991   13.2778 C   0  0  0  0  0  0  0  0  0  0  0  0
   18.6754    0.1390   13.0887 C   0  0  2  0  0  0  0  0  0  0  0  0
   20.1150    0.6424   12.9647 C   0  0  1  0  0  0  0  0  0  0  0  0
   20.4082    1.6921   14.0399 C   0  0  1  0  0  0  0  0  0  0  0  0
   21.4767    6.8802   16.3484 C   0  0  2  0  0  0  0  0  0  0  0  0
   22.9314    6.7452   16.7884 C   0  0  1  0  0  0  0  0  0  0  0  0
  1  3  1  0  0  0  0
  4  1  1  1  0  0  0
  4  6  1  0  0  0  0
  4 31  1  0  0  0  0
  6  7  1  0  0  0  0
  7  9  1  1  0  0  0
  7 30  1  0  0  0  0
  8 26  1  0  0  0  0
 10  9  1  1  0  0  0
 10 13  1  0  0  0  0
 10 21  1  0  0  0  0
 13 12  1  6  0  0  0
 13 15  1  0  0  0  0
 15  2  1  1  0  0  0
 15 17  1  0  0  0  0
 16 25  1  0  0  0  0
 16 23  1  0  0  0  0
 17 19  1  0  0  0  0
 19  5  1  1  0  0  0
 19 21  1  0  0  0  0
 21 14  1  6  0  0  0
 23 14  1  6  0  0  0
 23 29  1  0  0  0  0
 25 26  1  1  0  0  0
 25 27  1  0  0  0  0
 27 18  1  6  0  0  0
 27 28  1  0  0  0  0
 28 20  1  1  0  0  0
 28 29  1  0  0  0  0
 29 11  1  6  0  0  0
 30 22  1  6  0  0  0
 30 31  1  0  0  0  0
 31 24  1  6  0  0  0
M  END
>  <CHROM.1>
63.53046169,-102.41073966,-91.09132758,80.50687698,92.38154367,172.07254287
20.02244197,4.25765882,13.84753408,-0.84639792,0.71810198,3.04694146

>  <Name>
ligand

>  <RI>
0

>  <Rbt.Current_Directory>
/home/itssahil/PROJECTS/Mol_Feturizer/New_Systems/rnas/3DVV

>  <Rbt.Executable>
rbdock ($Id: //depot/dev/client3/rdock/2013.1/src/exe/rbdock.cxx#4 $)

>  <Rbt.Library>
libRbt.so (2013.1, Build901 2013/11/27)

>  <Rbt.Parameter_File>
/export/apps/rDock/src/rDock_2013.1_src/data/scripts/dock_solv.prm

>  <Rbt.Receptor>
prm/blind_docking_100.prm

>  <SCORE>
-3.1375

>  <SCORE.INTER>
-6.43496

>  <SCORE.INTER.CONST>
1

>  <SCORE.INTER.POLAR>
0

>  <SCORE.INTER.ROT>
6

>  <SCORE.INTER.SOLV>
21.3967

>  <SCORE.INTER.VDW>
-19.0222

>  <SCORE.INTER.norm>
-0.207579

>  <SCORE.INTRA>
3.2632

>  <SCORE.INTRA.DIHEDRAL>
4.87357

>  <SCORE.INTRA.DIHEDRAL.0>
10.8172

>  <SCORE.INTRA.POLAR>
0

>  <SCORE.INTRA.POLAR.0>
0

>  <SCORE.INTRA.REPUL>
0

>  <SCORE.INTRA.REPUL.0>
0

>  <SCORE.INTRA.SOLV>
0.284847

>  <SCORE.INTRA.SOLV.lig_0>
-80.3833

>  <SCORE.INTRA.VDW>
0.683989

>  <SCORE.INTRA.VDW.0>
-4.63762

>  <SCORE.INTRA.norm>
0.105264

>  <SCORE.RESTR>
0.0342587

>  <SCORE.RESTR.CAVITY>
0.0342587

>  <SCORE.RESTR.norm>
0.00110512

>  <SCORE.SYSTEM>
0

>  <SCORE.SYSTEM.CONST>
0

>  <SCORE.SYSTEM.DIHEDRAL>
0

>  <SCORE.SYSTEM.SOLV>
0

>  <SCORE.SYSTEM.norm>
0

>  <SCORE.heavy>
31

>  <SCORE.norm>
-0.10121

>  <RMSD>
6.856

$$$$
ligand
 OpenBabel11021811473D
libRbt.so/2013.1/901 2013/11/27
 31 33  0  0  0  0  0  0  0  0999 V2000
   23.2332    4.3272   17.4145 C   0  0  0  0  0  0  0  0  0  0  0  0
   18.4947    8.8405   11.2504 N   0  0  0  0  0  0  0  0  0  0  0  0
   23.5110    3.0094   16.9295 O   0  0  0  0  0  0  0  0  0  0  0  0
   23.3253    5.3406   16.2709 C   0  0  1  0  0  0  0  0  0  0  0  0
   17.1151    4.1518   11.3767 N   0  0  0  0  0  0  0  0  0  0  0  0
   22.3719    5.0149   15.2407 O   0  0  0  0  0  0  0  0  0  0  0  0
   21.5516    6.1706   14.9933 C   0  0  1  0  0  0  0  0  0  0  0  0
   15.9020   -0.0159   12.0738 N   0  0  0  0  0  0  0  0  0  0  0  0
   20.2107    5.8035   14.6326 O   0  0  0  0  0  0  0  0  0  0  0  0
   19.9414    5.9065   13.2266 C   0  0  2  0  0  0  0  0  0  0  0  0
   21.7659    2.2416   13.8206 N   0  0  0  0  0  0  0  0  0  0  0  0
   20.4355    8.2726   13.2225 O   0  0  0  0  0  0  0  0  0  0  0  0
   19.4013    7.3179   12.9687 C   0  0  1  0  0  0  0  0  0  0  0  0
   19.5025    3.5161   12.8089 O   0  0  0  0  0  0  0  0  0  0  0  0
   18.9282    7.4612   11.5207 C   0  0  1  0  0  0  0  0  0  0  0  0
   18.0589    2.1979   14.1191 O   0  0  0  0  0  0  0  0  0  0  0  0
   17.7736    6.4902   11.2726 C   0  0  0  0  0  0  0  0  0  0  0  0
   18.4192   -0.7470   11.9571 O   0  0  0  0  0  0  0  0  0  0  0  0
   18.2707    5.0561   11.4765 C   0  0  1  0  0  0  0  0  0  0  0  0
   21.0428   -0.4828   13.1024 O   0  0  0  0  0  0  0  0  0  0  0  0
   18.9262    4.8334   12.8449 C   0  0  2  0  0  0  0  0  0  0  0  0
   21.1374    8.2423   16.2560 O   0  0  0  0  0  0  0  0  0  0  0  0
   19.3767    2.7705   14.0300 C   0  0  1  0  0  0  0  0  0  0  0  0
   23.7362    7.7631   16.1363 O   0  0  0  0  0  0  0  0  0  0  0  0
   17.7339    1.2962   13.0474 C   0  0  2  0  0  0  0  0  0  0  0  0
   16.3112    0.7693   13.2493 C   0  0  0  0  0  0  0  0  0  0  0  0
   18.7054    0.1146   13.0620 C   0  0  2  0  0  0  0  0  0  0  0  0
   20.1447    0.6213   12.9489 C   0  0  1  0  0  0  0  0  0  0  0  0
   20.4323    1.6597   14.0366 C   0  0  1  0  0  0  0  0  0  0  0  0
   21.5110    6.8659   16.3525 C   0  0  2  0  0  0  0  0  0  0  0  0
   22.9706    6.7409   16.7791 C   0  0  1  0  0  0  0  0  0  0  0  0
  1  3  1  0  0  0  0
  4  1  1  1  0  0  0
  4  6  1  0  0  0  0
  4 31  1  0  0  0  0
  6  7  1  0  0  0  0
  7  9  1  1  0  0  0
  7 30  1  0  0  0  0
  8 26  1  0  0  0  0
 10  9  1  1  0  0  0
 10 13  1  0  0  0  0
 10 21  1  0  0  0  0
 13 12  1  6  0  0  0
 13 15  1  0  0  0  0
 15  2  1  1  0  0  0
 15 17  1  0  0  0  0
 16 25  1  0  0  0  0
 16 23  1  0  0  0  0
 17 19  1  0  0  0  0
 19  5  1  1  0  0  0
 19 21  1  0  0  0  0
 21 14  1  6  0  0  0
 23 14  1  6  0  0  0
 23 29  1  0  0  0  0
 25 26  1  1  0  0  0
 25 27  1  0  0  0  0
 27 18  1  6  0  0  0
 27 28  1  0  0  0  0
 28 20  1  1  0  0  0
 28 29  1  0  0  0  0
 29 11  1  6  0  0  0
 30 22  1  6  0  0  0
 30 31  1  0  0  0  0
 31 24  1  6  0  0  0
M  END
>  <CHROM.1>
59.99392071,-102.49900636,-91.06051739,80.13795115,93.41407775,172.75426293
20.04294680,4.23803247,13.84796344,-0.85375677,0.71186655,3.05857588

>  <Name>
ligand

>  <RI>
0

>  <Rbt.Current_Directory>
/home/itssahil/PROJECTS/Mol_Feturizer/New_Systems/rnas/3DVV

>  <Rbt.Executable>
rbdock ($Id: //depot/dev/client3/rdock/2013.1/src/exe/rbdock.cxx#4 $)

>  <Rbt.Library>
libRbt.so (2013.1, Build901 2013/11/27)

>  <Rbt.Parameter_File>
/export/apps/rDock/src/rDock_2013.1_src/data/scripts/dock_solv.prm

>  <Rbt.Receptor>
prm/blind_docking_100.prm

>  <SCORE>
-3.10944

>  <SCORE.INTER>
-6.48908

>  <SCORE.INTER.CONST>
1

>  <SCORE.INTER.POLAR>
0

>  <SCORE.INTER.ROT>
6

>  <SCORE.INTER.SOLV>
21.379

>  <SCORE.INTER.VDW>
-19.0524

>  <SCORE.INTER.norm>
-0.209325

>  <SCORE.INTRA>
3.35833

>  <SCORE.INTRA.DIHEDRAL>
4.92304

>  <SCORE.INTRA.DIHEDRAL.0>
10.8172

>  <SCORE.INTRA.POLAR>
0

>  <SCORE.INTRA.POLAR.0>
0

>  <SCORE.INTRA.REPUL>
0

>  <SCORE.INTRA.REPUL.0>
0

>  <SCORE.INTRA.SOLV>
0.386183

>  <SCORE.INTRA.SOLV.lig_0>
-80.3833

>  <SCORE.INTRA.VDW>
0.703719

>  <SCORE.INTRA.VDW.0>
-4.63762

>  <SCORE.INTRA.norm>
0.108333

>  <SCORE.RESTR>
0.0213086

>  <SCORE.RESTR.CAVITY>
0.0213086

>  <SCORE.RESTR.norm>
0.000687374

>  <SCORE.SYSTEM>
0

>  <SCORE.SYSTEM.CONST>
0

>  <SCORE.SYSTEM.DIHEDRAL>
0

>  <SCORE.SYSTEM.SOLV>
0

>  <SCORE.SYSTEM.norm>
0

>  <SCORE.heavy>
31

>  <SCORE.norm>
-0.100305

>  <RMSD>
6.860

$$$$
ligand
 OpenBabel11021811473D
libRbt.so/2013.1/901 2013/11/27
 31 33  0  0  0  0  0  0  0  0999 V2000
   23.2191    4.3089   17.4224 C   0  0  0  0  0  0  0  0  0  0  0  0
   18.4424    8.8675   11.3289 N   0  0  0  0  0  0  0  0  0  0  0  0
   23.5433    2.9940   16.9591 O   0  0  0  0  0  0  0  0  0  0  0  0
   23.3081    5.3115   16.2691 C   0  0  1  0  0  0  0  0  0  0  0  0
   17.0249    4.1894   11.4278 N   0  0  0  0  0  0  0  0  0  0  0  0
   22.3434    4.9833   15.2502 O   0  0  0  0  0  0  0  0  0  0  0  0
   21.5289    6.1425   14.9997 C   0  0  1  0  0  0  0  0  0  0  0  0
   15.8273   -0.0229   12.1114 N   0  0  0  0  0  0  0  0  0  0  0  0
   20.1824    5.7814   14.6539 O   0  0  0  0  0  0  0  0  0  0  0  0
   19.8932    5.9012   13.2532 C   0  0  2  0  0  0  0  0  0  0  0  0
   21.7069    2.2411   13.7890 N   0  0  0  0  0  0  0  0  0  0  0  0
   20.4074    8.2630   13.2660 O   0  0  0  0  0  0  0  0  0  0  0  0
   19.3614    7.3197   13.0178 C   0  0  1  0  0  0  0  0  0  0  0  0
   19.4279    3.5190   12.8178 O   0  0  0  0  0  0  0  0  0  0  0  0
   18.8681    7.4819   11.5787 C   0  0  1  0  0  0  0  0  0  0  0  0
   18.0045    2.1890   14.1381 O   0  0  0  0  0  0  0  0  0  0  0  0
   17.7017    6.5233   11.3379 C   0  0  0  0  0  0  0  0  0  0  0  0
   18.3397   -0.7397   11.9503 O   0  0  0  0  0  0  0  0  0  0  0  0
   18.1896    5.0829   11.5197 C   0  0  1  0  0  0  0  0  0  0  0  0
   20.9784   -0.4793   13.0613 O   0  0  0  0  0  0  0  0  0  0  0  0
   18.8633    4.8407   12.8758 C   0  0  2  0  0  0  0  0  0  0  0  0
   21.1399    8.2280   16.2474 O   0  0  0  0  0  0  0  0  0  0  0  0
   19.3201    2.7644   14.0350 C   0  0  1  0  0  0  0  0  0  0  0  0
   23.7342    7.7300   16.1094 O   0  0  0  0  0  0  0  0  0  0  0  0
   17.6662    1.2945   13.0645 C   0  0  2  0  0  0  0  0  0  0  0  0
   16.2472    0.7637   13.2821 C   0  0  0  0  0  0  0  0  0  0  0  0
   18.6397    0.1144   13.0573 C   0  0  2  0  0  0  0  0  0  0  0  0
   20.0765    0.6244   12.9281 C   0  0  1  0  0  0  0  0  0  0  0  0
   20.3774    1.6554   14.0191 C   0  0  1  0  0  0  0  0  0  0  0  0
   21.5050    6.8499   16.3530 C   0  0  2  0  0  0  0  0  0  0  0  0
   22.9673    6.7187   16.7680 C   0  0  1  0  0  0  0  0  0  0  0  0
  1  3  1  0  0  0  0
  4  1  1  1  0  0  0
  4  6  1  0  0  0  0
  4 31  1  0  0  0  0
  6  7  1  0  0  0  0
  7  9  1  1  0  0  0
  7 30  1  0  0  0  0
  8 26  1  0  0  0  0
 10  9  1  1  0  0  0
 10 13  1  0  0  0  0
 10 21  1  0  0  0  0
 13 12  1  6  0  0  0
 13 15  1  0  0  0  0
 15  2  1  1  0  0  0
 15 17  1  0  0  0  0
 16 25  1  0  0  0  0
 16 23  1  0  0  0  0
 17 19  1  0  0  0  0
 19  5  1  1  0  0  0
 19 21  1  0  0  0  0
 21 14  1  6  0  0  0
 23 14  1  6  0  0  0
 23 29  1  0  0  0  0
 25 26  1  1  0  0  0
 25 27  1  0  0  0  0
 27 18  1  6  0  0  0
 27 28  1  0  0  0  0
 28 20  1  1  0  0  0
 28 29  1  0  0  0  0
 29 11  1  6  0  0  0
 30 22  1  6  0  0  0
 30 31  1  0  0  0  0
 31 24  1  6  0  0  0
M  END
>  <CHROM.1>
62.61841918,-103.75735886,-90.64956994,80.80701681,93.10249234,173.20924999
19.99822267,4.23416651,13.86276420,-0.84922962,0.69991643,3.06298057

>  <Name>
ligand

>  <RI>
0

>  <Rbt.Current_Directory>
/home/itssahil/PROJECTS/Mol_Feturizer/New_Systems/rnas/3DVV

>  <Rbt.Executable>
rbdock ($Id: //depot/dev/client3/rdock/2013.1/src/exe/rbdock.cxx#4 $)

>  <Rbt.Library>
libRbt.so (2013.1, Build901 2013/11/27)

>  <Rbt.Parameter_File>
/export/apps/rDock/src/rDock_2013.1_src/data/scripts/dock_solv.prm

>  <Rbt.Receptor>
prm/blind_docking_80.prm

>  <SCORE>
-3.00572

>  <SCORE.INTER>
-6.48651

>  <SCORE.INTER.CONST>
1

>  <SCORE.INTER.POLAR>
0

>  <SCORE.INTER.ROT>
6

>  <SCORE.INTER.SOLV>
21.008

>  <SCORE.INTER.VDW>
-18.927

>  <SCORE.INTER.norm>
-0.209242

>  <SCORE.INTRA>
3.42345

>  <SCORE.INTRA.DIHEDRAL>
5.07944

>  <SCORE.INTRA.DIHEDRAL.0>
10.8172

>  <SCORE.INTRA.POLAR>
0

>  <SCORE.INTRA.POLAR.0>
0

>  <SCORE.INTRA.REPUL>
0

>  <SCORE.INTRA.REPUL.0>
0

>  <SCORE.INTRA.SOLV>
0.294694

>  <SCORE.INTRA.SOLV.lig_0>
-80.3833

>  <SCORE.INTRA.VDW>
0.736381

>  <SCORE.INTRA.VDW.0>
-4.63762

>  <SCORE.INTRA.norm>
0.110434

>  <SCORE.RESTR>
0.0573408

>  <SCORE.RESTR.CAVITY>
0.0573408

>  <SCORE.RESTR.norm>
0.0018497

>  <SCORE.SYSTEM>
0

>  <SCORE.SYSTEM.CONST>
0

>  <SCORE.SYSTEM.DIHEDRAL>
0

>  <SCORE.SYSTEM.SOLV>
0

>  <SCORE.SYSTEM.norm>
0

>  <SCORE.heavy>
31

>  <SCORE.norm>
-0.0969587

>  <RMSD>
6.870

$$$$
ligand
 OpenBabel11021811473D
libRbt.so/2013.1/901 2013/11/27
 31 33  0  0  0  0  0  0  0  0999 V2000
   23.3465    4.2990   17.4504 C   0  0  0  0  0  0  0  0  0  0  0  0
   18.3861    8.9463   11.5532 N   0  0  0  0  0  0  0  0  0  0  0  0
   23.5716    2.9651   16.9826 O   0  0  0  0  0  0  0  0  0  0  0  0
   23.4285    5.2878   16.2846 C   0  0  1  0  0  0  0  0  0  0  0  0
   17.0687    4.2380   11.5345 N   0  0  0  0  0  0  0  0  0  0  0  0
   22.4385    4.9646   15.2887 O   0  0  0  0  0  0  0  0  0  0  0  0
   21.6380    6.1342   15.0418 C   0  0  1  0  0  0  0  0  0  0  0  0
   16.1061    0.0128   14.0899 N   0  0  0  0  0  0  0  0  0  0  0  0
   20.2792    5.7916   14.7268 O   0  0  0  0  0  0  0  0  0  0  0  0
   19.9496    5.9508   13.3390 C   0  0  2  0  0  0  0  0  0  0  0  0
   21.7115    2.1382   13.7927 N   0  0  0  0  0  0  0  0  0  0  0  0
   20.4150    8.3214   13.4164 O   0  0  0  0  0  0  0  0  0  0  0  0
   19.3824    7.3644   13.1649 C   0  0  1  0  0  0  0  0  0  0  0  0
   19.5219    3.5746   12.8373 O   0  0  0  0  0  0  0  0  0  0  0  0
   18.8469    7.5628   11.7455 C   0  0  1  0  0  0  0  0  0  0  0  0
   17.9972    2.1910   13.9772 O   0  0  0  0  0  0  0  0  0  0  0  0
   17.6945    6.5876   11.5041 C   0  0  0  0  0  0  0  0  0  0  0  0
   18.3369   -0.5543   11.5639 O   0  0  0  0  0  0  0  0  0  0  0  0
   18.2167    5.1530   11.6250 C   0  0  1  0  0  0  0  0  0  0  0  0
   20.9291   -0.4835   12.8050 O   0  0  0  0  0  0  0  0  0  0  0  0
   18.9320    4.8812   12.9541 C   0  0  2  0  0  0  0  0  0  0  0  0
   21.3079    8.2390   16.2741 O   0  0  0  0  0  0  0  0  0  0  0  0
   19.3341    2.7251   13.9800 C   0  0  1  0  0  0  0  0  0  0  0  0
   23.8905    7.6970   16.0901 O   0  0  0  0  0  0  0  0  0  0  0  0
   17.6795    1.4024   12.8177 C   0  0  2  0  0  0  0  0  0  0  0  0
   16.2356    0.9070   12.9283 C   0  0  0  0  0  0  0  0  0  0  0  0
   18.6135    0.1927   12.7515 C   0  0  2  0  0  0  0  0  0  0  0  0
   20.0705    0.6593   12.7280 C   0  0  1  0  0  0  0  0  0  0  0  0
   20.3545    1.5837   13.9148 C   0  0  1  0  0  0  0  0  0  0  0  0
   21.6527    6.8563   16.3875 C   0  0  2  0  0  0  0  0  0  0  0  0
   23.1207    6.7055   16.7747 C   0  0  1  0  0  0  0  0  0  0  0  0
  1  3  1  0  0  0  0
  4  1  1  1  0  0  0
  4  6  1  0  0  0  0
  4 31  1  0  0  0  0
  6  7  1  0  0  0  0
  7  9  1  1  0  0  0
  7 30  1  0  0  0  0
  8 26  1  0  0  0  0
 10  9  1  1  0  0  0
 10 13  1  0  0  0  0
 10 21  1  0  0  0  0
 13 12  1  6  0  0  0
 13 15  1  0  0  0  0
 15  2  1  1  0  0  0
 15 17  1  0  0  0  0
 16 25  1  0  0  0  0
 16 23  1  0  0  0  0
 17 19  1  0  0  0  0
 19  5  1  1  0  0  0
 19 21  1  0  0  0  0
 21 14  1  6  0  0  0
 23 14  1  6  0  0  0
 23 29  1  0  0  0  0
 25 26  1  1  0  0  0
 25 27  1  0  0  0  0
 27 18  1  6  0  0  0
 27 28  1  0  0  0  0
 28 20  1  1  0  0  0
 28 29  1  0  0  0  0
 29 11  1  6  0  0  0
 30 22  1  6  0  0  0
 30 31  1  0  0  0  0
 31 24  1  6  0  0  0
M  END
>  <CHROM.1>
59.62841265,-106.03145499,-92.31675166,77.42883349,99.63216537,-63.69984063
20.05098573,4.26158374,13.90660659,-0.86178634,0.68057100,3.07871779

>  <Name>
ligand

>  <RI>
0

>  <Rbt.Current_Directory>
/home/itssahil/PROJECTS/Mol_Feturizer/New_Systems/rnas/3DVV

>  <Rbt.Executable>
rbdock ($Id: //depot/dev/client3/rdock/2013.1/src/exe/rbdock.cxx#4 $)

>  <Rbt.Library>
libRbt.so (2013.1, Build901 2013/11/27)

>  <Rbt.Parameter_File>
/export/apps/rDock/src/rDock_2013.1_src/data/scripts/dock_solv.prm

>  <Rbt.Receptor>
prm/blind_docking_60.prm

>  <SCORE>
0.0581751

>  <SCORE.INTER>
-4.0118

>  <SCORE.INTER.CONST>
1

>  <SCORE.INTER.POLAR>
0

>  <SCORE.INTER.ROT>
6

>  <SCORE.INTER.SOLV>
23.4108

>  <SCORE.INTER.VDW>
-18.0781

>  <SCORE.INTER.norm>
-0.129413

>  <SCORE.INTRA>
4.03862

>  <SCORE.INTRA.DIHEDRAL>
6.13276

>  <SCORE.INTRA.DIHEDRAL.0>
10.8172

>  <SCORE.INTRA.POLAR>
0

>  <SCORE.INTRA.POLAR.0>
0

>  <SCORE.INTRA.REPUL>
0

>  <SCORE.INTRA.REPUL.0>
0

>  <SCORE.INTRA.SOLV>
0.882347

>  <SCORE.INTRA.SOLV.lig_0>
-80.3833

>  <SCORE.INTRA.VDW>
0.53106

>  <SCORE.INTRA.VDW.0>
-4.63762

>  <SCORE.INTRA.norm>
0.130278

>  <SCORE.RESTR>
0.031356

>  <SCORE.RESTR.CAVITY>
0.031356

>  <SCORE.RESTR.norm>
0.00101148

>  <SCORE.SYSTEM>
0

>  <SCORE.SYSTEM.CONST>
0

>  <SCORE.SYSTEM.DIHEDRAL>
0

>  <SCORE.SYSTEM.SOLV>
0

>  <SCORE.SYSTEM.norm>
0

>  <SCORE.heavy>
31

>  <SCORE.norm>
0.00187662

>  <RMSD>
6.872

$$$$
ligand
 OpenBabel11021811473D
libRbt.so/2013.1/901 2013/11/27
 31 33  0  0  0  0  0  0  0  0999 V2000
   16.3932    2.3916   14.8235 C   0  0  0  0  0  0  0  0  0  0  0  0
   11.0850    8.2774   16.7226 N   0  0  0  0  0  0  0  0  0  0  0  0
   16.4415    2.1155   16.2272 O   0  0  0  0  0  0  0  0  0  0  0  0
   15.0073    2.9134   14.4359 C   0  0  1  0  0  0  0  0  0  0  0  0
   15.5377   10.2466   17.1690 N   0  0  0  0  0  0  0  0  0  0  0  0
   14.7718    4.1978   15.0453 O   0  0  0  0  0  0  0  0  0  0  0  0
   14.4191    5.1368   14.0139 C   0  0  1  0  0  0  0  0  0  0  0  0
   17.2942   10.7733   13.0961 N   0  0  0  0  0  0  0  0  0  0  0  0
   14.8930    6.4590   14.3141 O   0  0  0  0  0  0  0  0  0  0  0  0
   14.4860    6.9401   15.6037 C   0  0  2  0  0  0  0  0  0  0  0  0
   18.5467    5.7876   16.9819 N   0  0  0  0  0  0  0  0  0  0  0  0
   12.2300    6.1339   15.2827 O   0  0  0  0  0  0  0  0  0  0  0  0
   13.0034    7.3168   15.5020 C   0  0  1  0  0  0  0  0  0  0  0  0
   16.6878    7.7653   16.3467 O   0  0  0  0  0  0  0  0  0  0  0  0
   12.5278    7.9984   16.7865 C   0  0  1  0  0  0  0  0  0  0  0  0
   17.7194    8.2027   14.2773 O   0  0  0  0  0  0  0  0  0  0  0  0
   13.3058    9.3001   16.9805 C   0  0  0  0  0  0  0  0  0  0  0  0
   20.4823   10.0832   15.7962 O   0  0  0  0  0  0  0  0  0  0  0  0
   14.7954    8.9774   17.1303 C   0  0  1  0  0  0  0  0  0  0  0  0
   20.9503    7.4074   16.7374 O   0  0  0  0  0  0  0  0  0  0  0  0
   15.3514    8.1418   15.9708 C   0  0  2  0  0  0  0  0  0  0  0  0
   14.6494    5.1109   11.5636 O   0  0  0  0  0  0  0  0  0  0  0  0
   17.4761    7.2042   15.2853 C   0  0  1  0  0  0  0  0  0  0  0  0
   13.6310    2.8166   12.3982 O   0  0  0  0  0  0  0  0  0  0  0  0
   18.4278    9.3602   14.7524 C   0  0  2  0  0  0  0  0  0  0  0  0
   18.6107   10.3460   13.5960 C   0  0  0  0  0  0  0  0  0  0  0  0
   19.8059    8.9399   15.2664 C   0  0  2  0  0  0  0  0  0  0  0  0
   19.6537    7.8874   16.3664 C   0  0  1  0  0  0  0  0  0  0  0  0
   18.8054    6.7139   15.8690 C   0  0  1  0  0  0  0  0  0  0  0  0
   15.1804    4.6178   12.7958 C   0  0  2  0  0  0  0  0  0  0  0  0
   14.9274    3.1184   12.9204 C   0  0  1  0  0  0  0  0  0  0  0  0
  1  3  1  0  0  0  0
  4  1  1  6  0  0  0
  4  6  1  0  0  0  0
  4 31  1  0  0  0  0
  6  7  1  0  0  0  0
  7  9  1  1  0  0  0
  7 30  1  0  0  0  0
  8 26  1  0  0  0  0
 10  9  1  6  0  0  0
 10 13  1  0  0  0  0
 10 21  1  0  0  0  0
 13 12  1  1  0  0  0
 13 15  1  0  0  0  0
 15  2  1  6  0  0  0
 15 17  1  0  0  0  0
 16 25  1  0  0  0  0
 16 23  1  0  0  0  0
 17 19  1  0  0  0  0
 19  5  1  6  0  0  0
 19 21  1  0  0  0  0
 21 14  1  1  0  0  0
 23 14  1  1  0  0  0
 23 29  1  0  0  0  0
 25 26  1  6  0  0  0
 25 27  1  0  0  0  0
 27 18  1  1  0  0  0
 27 28  1  0  0  0  0
 28 20  1  6  0  0  0
 28 29  1  0  0  0  0
 29 11  1  1  0  0  0
 30 22  1  6  0  0  0
 30 31  1  0  0  0  0
 31 24  1  1  0  0  0
M  END
>  <CHROM.1>
66.16465414,-53.57385622,-74.98932994,65.83493575,66.44495960,61.12113270
16.04631370,6.82488469,15.14571154,-2.32568525,0.04194825,0.31832849

>  <Name>
ligand

>  <RI>
0

>  <Rbt.Current_Directory>
/home/itssahil/PROJECTS/Mol_Feturizer/New_Systems/rnas/3DVV

>  <Rbt.Executable>
rbdock ($Id: //depot/dev/client3/rdock/2013.1/src/exe/rbdock.cxx#4 $)

>  <Rbt.Library>
libRbt.so (2013.1, Build901 2013/11/27)

>  <Rbt.Parameter_File>
/export/apps/rDock/src/rDock_2013.1_src/data/scripts/dock_solv.prm

>  <Rbt.Receptor>
prm/pocket_docking_6.prm

>  <SCORE>
-6.01831

>  <SCORE.INTER>
-1.80572

>  <SCORE.INTER.CONST>
1

>  <SCORE.INTER.POLAR>
0

>  <SCORE.INTER.ROT>
6

>  <SCORE.INTER.SOLV>
9.77742

>  <SCORE.INTER.VDW>
-12.063

>  <SCORE.INTER.norm>
-0.0582489

>  <SCORE.INTRA>
-4.21259

>  <SCORE.INTRA.DIHEDRAL>
-8.78865

>  <SCORE.INTRA.DIHEDRAL.0>
10.8172

>  <SCORE.INTRA.POLAR>
0

>  <SCORE.INTRA.POLAR.0>
0

>  <SCORE.INTRA.REPUL>
0

>  <SCORE.INTRA.REPUL.0>
0

>  <SCORE.INTRA.SOLV>
-4.18914

>  <SCORE.INTRA.SOLV.lig_0>
-80.3833

>  <SCORE.INTRA.VDW>
2.2763

>  <SCORE.INTRA.VDW.0>
-4.63762

>  <SCORE.INTRA.norm>
-0.13589

>  <SCORE.RESTR>
0

>  <SCORE.RESTR.CAVITY>
0

>  <SCORE.RESTR.norm>
0

>  <SCORE.SYSTEM>
0

>  <SCORE.SYSTEM.CONST>
0

>  <SCORE.SYSTEM.DIHEDRAL>
0

>  <SCORE.SYSTEM.SOLV>
0

>  <SCORE.SYSTEM.norm>
0

>  <SCORE.heavy>
31

>  <SCORE.norm>
-0.194139

>  <RMSD>
6.872

$$$$
ligand
 OpenBabel11021811473D
libRbt.so/2013.1/901 2013/11/27
 31 33  0  0  0  0  0  0  0  0999 V2000
   23.7040    4.1344   17.3755 C   0  0  0  0  0  0  0  0  0  0  0  0
   17.7188    8.7335   12.5333 N   0  0  0  0  0  0  0  0  0  0  0  0
   24.8880    4.4092   18.1314 O   0  0  0  0  0  0  0  0  0  0  0  0
   23.5734    5.1292   16.2194 C   0  0  1  0  0  0  0  0  0  0  0  0
   16.6049    3.9774   12.3296 N   0  0  0  0  0  0  0  0  0  0  0  0
   22.4803    4.7511   15.3599 O   0  0  0  0  0  0  0  0  0  0  0  0
   21.5879    5.8725   15.2331 C   0  0  1  0  0  0  0  0  0  0  0  0
   15.5742   -0.0088   12.2925 N   0  0  0  0  0  0  0  0  0  0  0  0
   20.2214    5.4516   15.0972 O   0  0  0  0  0  0  0  0  0  0  0  0
   19.6673    5.6979   13.7963 C   0  0  2  0  0  0  0  0  0  0  0  0
   21.6480    1.9966   13.6651 N   0  0  0  0  0  0  0  0  0  0  0  0
   20.0438    8.0771   13.9969 O   0  0  0  0  0  0  0  0  0  0  0  0
   19.0234    7.0888   13.8316 C   0  0  1  0  0  0  0  0  0  0  0  0
   19.2599    3.3473   13.1719 O   0  0  0  0  0  0  0  0  0  0  0  0
   18.2595    7.3657   12.5352 C   0  0  1  0  0  0  0  0  0  0  0  0
   18.0112    1.7876   14.4153 O   0  0  0  0  0  0  0  0  0  0  0  0
   17.1232    6.3522   12.3971 C   0  0  0  0  0  0  0  0  0  0  0  0
   18.1198   -0.7510   11.7657 O   0  0  0  0  0  0  0  0  0  0  0  0
   17.7151    4.9420   12.3149 C   0  0  1  0  0  0  0  0  0  0  0  0
   20.8664   -0.5950   12.6003 O   0  0  0  0  0  0  0  0  0  0  0  0
   18.6446    4.6084   13.4880 C   0  0  2  0  0  0  0  0  0  0  0  0
   21.3032    7.9511   16.5200 O   0  0  0  0  0  0  0  0  0  0  0  0
   19.3005    2.4083   14.2579 C   0  0  1  0  0  0  0  0  0  0  0  0
   23.8656    7.5619   15.9902 O   0  0  0  0  0  0  0  0  0  0  0  0
   17.5599    1.0636   13.2579 C   0  0  2  0  0  0  0  0  0  0  0  0
   16.1806    0.4661   13.5464 C   0  0  0  0  0  0  0  0  0  0  0  0
   18.5373   -0.0732   12.9537 C   0  0  2  0  0  0  0  0  0  0  0  0
   19.9446    0.4904   12.7466 C   0  0  1  0  0  0  0  0  0  0  0  0
   20.3595    1.3453   13.9470 C   0  0  1  0  0  0  0  0  0  0  0  0
   21.7393    6.5907   16.5724 C   0  0  2  0  0  0  0  0  0  0  0  0
   23.2520    6.5252   16.7605 C   0  0  1  0  0  0  0  0  0  0  0  0
  1  3  1  0  0  0  0
  4  1  1  1  0  0  0
  4  6  1  0  0  0  0
  4 31  1  0  0  0  0
  6  7  1  0  0  0  0
  7  9  1  1  0  0  0
  7 30  1  0  0  0  0
  8 26  1  0  0  0  0
 10  9  1  1  0  0  0
 10 13  1  0  0  0  0
 10 21  1  0  0  0  0
 13 12  1  6  0  0  0
 13 15  1  0  0  0  0
 15  2  1  1  0  0  0
 15 17  1  0  0  0  0
 16 25  1  0  0  0  0
 16 23  1  0  0  0  0
 17 19  1  0  0  0  0
 19  5  1  1  0  0  0
 19 21  1  0  0  0  0
 21 14  1  6  0  0  0
 23 14  1  6  0  0  0
 23 29  1  0  0  0  0
 25 26  1  1  0  0  0
 25 27  1  0  0  0  0
 27 18  1  6  0  0  0
 27 28  1  0  0  0  0
 28 20  1  1  0  0  0
 28 29  1  0  0  0  0
 29 11  1  6  0  0  0
 30 22  1  6  0  0  0
 30 31  1  0  0  0  0
 31 24  1  6  0  0  0
M  END
>  <CHROM.1>
172.68901561,-110.95131407,-90.78327209,78.43029868,99.21779894,167.16406229
19.94024711,4.08790328,14.18997192,-0.82369303,0.55903532,-3.06235623

>  <Name>
ligand

>  <RI>
0

>  <Rbt.Current_Directory>
/home/itssahil/PROJECTS/Mol_Feturizer/New_Systems/rnas/3DVV

>  <Rbt.Executable>
rbdock ($Id: //depot/dev/client3/rdock/2013.1/src/exe/rbdock.cxx#4 $)

>  <Rbt.Library>
libRbt.so (2013.1, Build901 2013/11/27)

>  <Rbt.Parameter_File>
/export/apps/rDock/src/rDock_2013.1_src/data/scripts/dock_solv.prm

>  <Rbt.Receptor>
prm/pocket_docking_5.prm

>  <SCORE>
-1.9027

>  <SCORE.INTER>
-6.2654

>  <SCORE.INTER.CONST>
1

>  <SCORE.INTER.POLAR>
0

>  <SCORE.INTER.ROT>
6

>  <SCORE.INTER.SOLV>
19.6191

>  <SCORE.INTER.VDW>
-18.3166

>  <SCORE.INTER.norm>
-0.20211

>  <SCORE.INTRA>
4.3627

>  <SCORE.INTRA.DIHEDRAL>
7.13873

>  <SCORE.INTRA.DIHEDRAL.0>
10.8172

>  <SCORE.INTRA.POLAR>
0

>  <SCORE.INTRA.POLAR.0>
0

>  <SCORE.INTRA.REPUL>
0

>  <SCORE.INTRA.REPUL.0>
0

>  <SCORE.INTRA.SOLV>
0.154304

>  <SCORE.INTRA.SOLV.lig_0>
-80.3833

>  <SCORE.INTRA.VDW>
0.716186

>  <SCORE.INTRA.VDW.0>
-4.63762

>  <SCORE.INTRA.norm>
0.140732

>  <SCORE.RESTR>
0

>  <SCORE.RESTR.CAVITY>
0

>  <SCORE.RESTR.norm>
0

>  <SCORE.SYSTEM>
0

>  <SCORE.SYSTEM.CONST>
0

>  <SCORE.SYSTEM.DIHEDRAL>
0

>  <SCORE.SYSTEM.SOLV>
0

>  <SCORE.SYSTEM.norm>
0

>  <SCORE.heavy>
31

>  <SCORE.norm>
-0.0613774

>  <RMSD>
6.875

$$$$
ligand
 OpenBabel11021811473D
libRbt.so/2013.1/901 2013/11/27
 31 33  0  0  0  0  0  0  0  0999 V2000
   24.2804    6.3153   15.8573 C   0  0  0  0  0  0  0  0  0  0  0  0
   19.9829    9.9832   15.0113 N   0  0  0  0  0  0  0  0  0  0  0  0
   24.1989    7.7051   15.5246 O   0  0  0  0  0  0  0  0  0  0  0  0
   23.2509    5.9698   16.9362 C   0  0  1  0  0  0  0  0  0  0  0  0
   17.6475    7.8061   18.7139 N   0  0  0  0  0  0  0  0  0  0  0  0
   21.9279    6.3314   16.4942 O   0  0  0  0  0  0  0  0  0  0  0  0
   21.0796    5.1736   16.5917 C   0  0  1  0  0  0  0  0  0  0  0  0
   17.9880    1.8410   14.5110 N   0  0  0  0  0  0  0  0  0  0  0  0
   20.0827    5.1563   15.5579 O   0  0  0  0  0  0  0  0  0  0  0  0
   19.1993    6.2872   15.5876 C   0  0  2  0  0  0  0  0  0  0  0  0
   15.1194    6.5087   17.8936 N   0  0  0  0  0  0  0  0  0  0  0  0
   20.4837    7.4378   13.8937 O   0  0  0  0  0  0  0  0  0  0  0  0
   20.0353    7.5269   15.2489 C   0  0  1  0  0  0  0  0  0  0  0  0
   17.5747    5.3816   17.2066 O   0  0  0  0  0  0  0  0  0  0  0  0
   19.2084    8.8024   15.4228 C   0  0  1  0  0  0  0  0  0  0  0  0
   16.6276    4.1730   15.4233 O   0  0  0  0  0  0  0  0  0  0  0  0
   18.7913    8.9331   16.8879 C   0  0  0  0  0  0  0  0  0  0  0  0
   15.1206    1.6573   17.6316 O   0  0  0  0  0  0  0  0  0  0  0  0
   17.9153    7.7362   17.2694 C   0  0  1  0  0  0  0  0  0  0  0  0
   13.6411    4.0343   18.2842 O   0  0  0  0  0  0  0  0  0  0  0  0
   18.5796    6.3850   16.9783 C   0  0  2  0  0  0  0  0  0  0  0  0
   21.5370    2.7669   16.8298 O   0  0  0  0  0  0  0  0  0  0  0  0
   16.5172    5.3567   16.2351 C   0  0  1  0  0  0  0  0  0  0  0  0
   22.9956    4.1378   18.5592 O   0  0  0  0  0  0  0  0  0  0  0  0
   16.5419    2.9418   16.1608 C   0  0  2  0  0  0  0  0  0  0  0  0
   16.6857    1.7656   15.1921 C   0  0  0  0  0  0  0  0  0  0  0  0
   15.1781    2.8522   16.8481 C   0  0  2  0  0  0  0  0  0  0  0  0
   14.9722    4.0646   17.7585 C   0  0  1  0  0  0  0  0  0  0  0  0
   15.1741    5.3630   16.9727 C   0  0  1  0  0  0  0  0  0  0  0  0
   22.0440    4.0143   16.3496 C   0  0  2  0  0  0  0  0  0  0  0  0
   23.2389    4.4593   17.1874 C   0  0  1  0  0  0  0  0  0  0  0  0
  1  3  1  0  0  0  0
  4  1  1  6  0  0  0
  4  6  1  0  0  0  0
  4 31  1  0  0  0  0
  6  7  1  0  0  0  0
  7  9  1  6  0  0  0
  7 30  1  0  0  0  0
  8 26  1  0  0  0  0
 10  9  1  1  0  0  0
 10 13  1  0  0  0  0
 10 21  1  0  0  0  0
 13 12  1  6  0  0  0
 13 15  1  0  0  0  0
 15  2  1  1  0  0  0
 15 17  1  0  0  0  0
 16 25  1  0  0  0  0
 16 23  1  0  0  0  0
 17 19  1  0  0  0  0
 19  5  1  1  0  0  0
 19 21  1  0  0  0  0
 21 14  1  6  0  0  0
 23 14  1  1  0  0  0
 23 29  1  0  0  0  0
 25 26  1  6  0  0  0
 25 27  1  0  0  0  0
 27 18  1  1  0  0  0
 27 28  1  0  0  0  0
 28 20  1  6  0  0  0
 28 29  1  0  0  0  0
 29 11  1  1  0  0  0
 30 22  1  1  0  0  0
 30 31  1  0  0  0  0
 31 24  1  1  0  0  0
M  END
>  <CHROM.1>
56.52790521,-60.48530980,66.48147301,109.73395682,-55.11959910,60.03179902
18.98206166,5.42009929,16.48524435,-0.37369205,-0.10136708,3.08722281

>  <Name>
ligand

>  <RI>
0

>  <Rbt.Current_Directory>
/home/itssahil/PROJECTS/Mol_Feturizer/New_Systems/rnas/3DVV

>  <Rbt.Executable>
rbdock ($Id: //depot/dev/client3/rdock/2013.1/src/exe/rbdock.cxx#4 $)

>  <Rbt.Library>
libRbt.so (2013.1, Build901 2013/11/27)

>  <Rbt.Parameter_File>
/export/apps/rDock/src/rDock_2013.1_src/data/scripts/dock_solv.prm

>  <Rbt.Receptor>
prm/pocket_docking_3.prm

>  <SCORE>
-3.24493

>  <SCORE.INTER>
-6.07731

>  <SCORE.INTER.CONST>
1

>  <SCORE.INTER.POLAR>
0

>  <SCORE.INTER.ROT>
6

>  <SCORE.INTER.SOLV>
19.4963

>  <SCORE.INTER.VDW>
-18.1503

>  <SCORE.INTER.norm>
-0.196042

>  <SCORE.INTRA>
2.44193

>  <SCORE.INTRA.DIHEDRAL>
-3.49078

>  <SCORE.INTRA.DIHEDRAL.0>
10.8172

>  <SCORE.INTRA.POLAR>
0

>  <SCORE.INTRA.POLAR.0>
0

>  <SCORE.INTRA.REPUL>
0

>  <SCORE.INTRA.REPUL.0>
0

>  <SCORE.INTRA.SOLV>
-0.996374

>  <SCORE.INTRA.SOLV.lig_0>
-80.3833

>  <SCORE.INTRA.VDW>
4.6855

>  <SCORE.INTRA.VDW.0>
-4.63762

>  <SCORE.INTRA.norm>
0.0787718

>  <SCORE.RESTR>
0.390453

>  <SCORE.RESTR.CAVITY>
0.390453

>  <SCORE.RESTR.norm>
0.0125953

>  <SCORE.SYSTEM>
0

>  <SCORE.SYSTEM.CONST>
0

>  <SCORE.SYSTEM.DIHEDRAL>
0

>  <SCORE.SYSTEM.SOLV>
0

>  <SCORE.SYSTEM.norm>
0

>  <SCORE.heavy>
31

>  <SCORE.norm>
-0.104675

>  <RMSD>
6.880

$$$$
ligand
 OpenBabel11021811473D
libRbt.so/2013.1/901 2013/11/27
 31 33  0  0  0  0  0  0  0  0999 V2000
   23.2345    4.3103   17.4483 C   0  0  0  0  0  0  0  0  0  0  0  0
   18.5134    8.8434   11.3260 N   0  0  0  0  0  0  0  0  0  0  0  0
   23.5326    2.9867   16.9924 O   0  0  0  0  0  0  0  0  0  0  0  0
   23.3213    5.3011   16.2847 C   0  0  1  0  0  0  0  0  0  0  0  0
   17.0145    4.1905   11.4151 N   0  0  0  0  0  0  0  0  0  0  0  0
   22.3680    4.9513   15.2624 O   0  0  0  0  0  0  0  0  0  0  0  0
   21.5428    6.0987   14.9931 C   0  0  1  0  0  0  0  0  0  0  0  0
   15.7779    0.0054   12.0626 N   0  0  0  0  0  0  0  0  0  0  0  0
   20.2030    5.7191   14.6414 O   0  0  0  0  0  0  0  0  0  0  0  0
   19.9143    5.8474   13.2413 C   0  0  2  0  0  0  0  0  0  0  0  0
   21.6875    2.2049   13.7788 N   0  0  0  0  0  0  0  0  0  0  0  0
   20.4697    8.1999   13.2593 O   0  0  0  0  0  0  0  0  0  0  0  0
   19.4071    7.2756   13.0100 C   0  0  1  0  0  0  0  0  0  0  0  0
   19.4069    3.4748   12.8006 O   0  0  0  0  0  0  0  0  0  0  0  0
   18.9151    7.4499   11.5718 C   0  0  1  0  0  0  0  0  0  0  0  0
   17.9848    2.1460   14.1234 O   0  0  0  0  0  0  0  0  0  0  0  0
   17.7319    6.5124   11.3301 C   0  0  0  0  0  0  0  0  0  0  0  0
   18.3289   -0.7890   11.9454 O   0  0  0  0  0  0  0  0  0  0  0  0
   18.1947    5.0633   11.5078 C   0  0  1  0  0  0  0  0  0  0  0  0
   20.9656   -0.5193   13.0588 O   0  0  0  0  0  0  0  0  0  0  0  0
   18.8656    4.8060   12.8626 C   0  0  2  0  0  0  0  0  0  0  0  0
   21.1219    8.1934   16.2149 O   0  0  0  0  0  0  0  0  0  0  0  0
   19.2992    2.7239   14.0202 C   0  0  1  0  0  0  0  0  0  0  0  0
   23.7224    7.7222   16.1015 O   0  0  0  0  0  0  0  0  0  0  0  0
   17.6497    1.2473   13.0523 C   0  0  2  0  0  0  0  0  0  0  0  0
   16.2316    0.7142   13.2699 C   0  0  0  0  0  0  0  0  0  0  0  0
   18.6257    0.0694   13.0500 C   0  0  2  0  0  0  0  0  0  0  0  0
   20.0615    0.5820   12.9210 C   0  0  1  0  0  0  0  0  0  0  0  0
   20.3589    1.6171   14.0091 C   0  0  1  0  0  0  0  0  0  0  0  0
   21.5011    6.8206   16.3383 C   0  0  2  0  0  0  0  0  0  0  0  0
   22.9616    6.7099   16.7655 C   0  0  1  0  0  0  0  0  0  0  0  0
  1  3  1  0  0  0  0
  4  1  1  1  0  0  0
  4  6  1  0  0  0  0
  4 31  1  0  0  0  0
  6  7  1  0  0  0  0
  7  9  1  1  0  0  0
  7 30  1  0  0  0  0
  8 26  1  0  0  0  0
 10  9  1  1  0  0  0
 10 13  1  0  0  0  0
 10 21  1  0  0  0  0
 13 12  1  6  0  0  0
 13 15  1  0  0  0  0
 15  2  1  1  0  0  0
 15 17  1  0  0  0  0
 16 25  1  0  0  0  0
 16 23  1  0  0  0  0
 17 19  1  0  0  0  0
 19  5  1  1  0  0  0
 19 21  1  0  0  0  0
 21 14  1  6  0  0  0
 23 14  1  6  0  0  0
 23 29  1  0  0  0  0
 25 26  1  1  0  0  0
 25 27  1  0  0  0  0
 27 18  1  6  0  0  0
 27 28  1  0  0  0  0
 28 20  1  1  0  0  0
 28 29  1  0  0  0  0
 29 11  1  6  0  0  0
 30 22  1  6  0  0  0
 30 31  1  0  0  0  0
 31 24  1  6  0  0  0
M  END
>  <CHROM.1>
60.67962825,-105.00588035,-88.67540211,82.10178946,92.51444274,169.15035662
20.00061299,4.20288466,13.85533926,-0.84051923,0.70299534,3.05614007

>  <Name>
ligand

>  <RI>
0

>  <Rbt.Current_Directory>
/home/itssahil/PROJECTS/Mol_Feturizer/New_Systems/rnas/3DVV

>  <Rbt.Executable>
rbdock ($Id: //depot/dev/client3/rdock/2013.1/src/exe/rbdock.cxx#4 $)

>  <Rbt.Library>
libRbt.so (2013.1, Build901 2013/11/27)

>  <Rbt.Parameter_File>
/export/apps/rDock/src/rDock_2013.1_src/data/scripts/dock_solv.prm

>  <Rbt.Receptor>
prm/blind_docking_60.prm

>  <SCORE>
-3.02709

>  <SCORE.INTER>
-6.40216

>  <SCORE.INTER.CONST>
1

>  <SCORE.INTER.POLAR>
0

>  <SCORE.INTER.ROT>
6

>  <SCORE.INTER.SOLV>
21.1957

>  <SCORE.INTER.VDW>
-18.9333

>  <SCORE.INTER.norm>
-0.206521

>  <SCORE.INTRA>
3.34092

>  <SCORE.INTRA.DIHEDRAL>
5.20953

>  <SCORE.INTRA.DIHEDRAL.0>
10.8172

>  <SCORE.INTRA.POLAR>
0

>  <SCORE.INTRA.POLAR.0>
0

>  <SCORE.INTRA.REPUL>
0

>  <SCORE.INTRA.REPUL.0>
0

>  <SCORE.INTRA.SOLV>
0.10228

>  <SCORE.INTRA.SOLV.lig_0>
-80.3833

>  <SCORE.INTRA.VDW>
0.685019

>  <SCORE.INTRA.VDW.0>
-4.63762

>  <SCORE.INTRA.norm>
0.107772

>  <SCORE.RESTR>
0.0341428

>  <SCORE.RESTR.CAVITY>
0.0341428

>  <SCORE.RESTR.norm>
0.00110138

>  <SCORE.SYSTEM>
0

>  <SCORE.SYSTEM.CONST>
0

>  <SCORE.SYSTEM.DIHEDRAL>
0

>  <SCORE.SYSTEM.SOLV>
0

>  <SCORE.SYSTEM.norm>
0

>  <SCORE.heavy>
31

>  <SCORE.norm>
-0.0976481

>  <RMSD>
6.882

$$$$
ligand
 OpenBabel11021811473D
libRbt.so/2013.1/901 2013/11/27
 31 33  0  0  0  0  0  0  0  0999 V2000
   16.1206    8.4627   12.4915 C   0  0  0  0  0  0  0  0  0  0  0  0
   22.0136    5.0369   17.1520 N   0  0  0  0  0  0  0  0  0  0  0  0
   15.1382    7.9585   13.4023 O   0  0  0  0  0  0  0  0  0  0  0  0
   17.4238    8.7653   13.2355 C   0  0  1  0  0  0  0  0  0  0  0  0
   20.3811    1.5152   14.1794 N   0  0  0  0  0  0  0  0  0  0  0  0
   18.0147    7.5433   13.7192 O   0  0  0  0  0  0  0  0  0  0  0  0
   19.3672    7.4651   13.2349 C   0  0  1  0  0  0  0  0  0  0  0  0
   20.5011    0.4487    9.3599 N   0  0  0  0  0  0  0  0  0  0  0  0
   19.7633    6.1081   12.9811 O   0  0  0  0  0  0  0  0  0  0  0  0
   19.6800    5.2563   14.1333 C   0  0  2  0  0  0  0  0  0  0  0  0
   15.8537    3.8515   12.4085 N   0  0  0  0  0  0  0  0  0  0  0  0
   20.6750    6.9414   15.5520 O   0  0  0  0  0  0  0  0  0  0  0  0
   20.8553    5.6143   15.0502 C   0  0  1  0  0  0  0  0  0  0  0  0
   18.5226    3.3667   13.0511 O   0  0  0  0  0  0  0  0  0  0  0  0
   20.9425    4.6390   16.2258 C   0  0  1  0  0  0  0  0  0  0  0  0
   19.2031    3.6039   10.8108 O   0  0  0  0  0  0  0  0  0  0  0  0
   21.2079    3.2317   15.6904 C   0  0  0  0  0  0  0  0  0  0  0  0
   17.9432    0.2950    9.8414 O   0  0  0  0  0  0  0  0  0  0  0  0
   20.0390    2.8053   14.7973 C   0  0  1  0  0  0  0  0  0  0  0  0
   15.5289    1.7376   10.4371 O   0  0  0  0  0  0  0  0  0  0  0  0
   19.7447    3.8037   13.6711 C   0  0  2  0  0  0  0  0  0  0  0  0
   20.5867    8.6418   11.4499 O   0  0  0  0  0  0  0  0  0  0  0  0
   18.2271    3.9954   11.7940 C   0  0  1  0  0  0  0  0  0  0  0  0
   19.2536   10.3822   12.9304 O   0  0  0  0  0  0  0  0  0  0  0  0
   19.2568    2.1885   10.5640 C   0  0  2  0  0  0  0  0  0  0  0  0
   20.3354    1.9025    9.5165 C   0  0  0  0  0  0  0  0  0  0  0  0
   17.9063    1.7126   10.0256 C   0  0  2  0  0  0  0  0  0  0  0  0
   16.7958    2.0653   11.0173 C   0  0  1  0  0  0  0  0  0  0  0  0
   16.8279    3.5603   11.3456 C   0  0  1  0  0  0  0  0  0  0  0  0
   19.3022    8.2050   11.9004 C   0  0  2  0  0  0  0  0  0  0  0  0
   18.4379    9.4032   12.2818 C   0  0  1  0  0  0  0  0  0  0  0  0
  1  3  1  0  0  0  0
  4  1  1  6  0  0  0
  4  6  1  0  0  0  0
  4 31  1  0  0  0  0
  6  7  1  0  0  0  0
  7  9  1  6  0  0  0
  7 30  1  0  0  0  0
  8 26  1  0  0  0  0
 10  9  1  6  0  0  0
 10 13  1  0  0  0  0
 10 21  1  0  0  0  0
 13 12  1  1  0  0  0
 13 15  1  0  0  0  0
 15  2  1  1  0  0  0
 15 17  1  0  0  0  0
 16 25  1  0  0  0  0
 16 23  1  0  0  0  0
 17 19  1  0  0  0  0
 19  5  1  6  0  0  0
 19 21  1  0  0  0  0
 21 14  1  1  0  0  0
 23 14  1  1  0  0  0
 23 29  1  0  0  0  0
 25 26  1  6  0  0  0
 25 27  1  0  0  0  0
 27 18  1  1  0  0  0
 27 28  1  0  0  0  0
 28 20  1  6  0  0  0
 28 29  1  0  0  0  0
 29 11  1  1  0  0  0
 30 22  1  1  0  0  0
 30 31  1  0  0  0  0
 31 24  1  1  0  0  0
M  END
>  <CHROM.1>
66.62212325,-58.70601887,-74.43456428,66.45285820,67.47627741,173.96962068
18.87819116,4.88796839,12.70138805,1.46759146,-0.78338468,0.33836587

>  <Name>
ligand

>  <RI>
0

>  <Rbt.Current_Directory>
/home/itssahil/PROJECTS/Mol_Feturizer/New_Systems/rnas/3DVV

>  <Rbt.Executable>
rbdock ($Id: //depot/dev/client3/rdock/2013.1/src/exe/rbdock.cxx#4 $)

>  <Rbt.Library>
libRbt.so (2013.1, Build901 2013/11/27)

>  <Rbt.Parameter_File>
/export/apps/rDock/src/rDock_2013.1_src/data/scripts/dock_solv.prm

>  <Rbt.Receptor>
prm/blind_docking_40.prm

>  <SCORE>
-5.50156

>  <SCORE.INTER>
-2.16303

>  <SCORE.INTER.CONST>
1

>  <SCORE.INTER.POLAR>
0

>  <SCORE.INTER.ROT>
6

>  <SCORE.INTER.SOLV>
16.209

>  <SCORE.INTER.VDW>
-14.445

>  <SCORE.INTER.norm>
-0.069775

>  <SCORE.INTRA>
-3.33854

>  <SCORE.INTRA.DIHEDRAL>
-8.79652

>  <SCORE.INTRA.DIHEDRAL.0>
10.8172

>  <SCORE.INTRA.POLAR>
0

>  <SCORE.INTRA.POLAR.0>
0

>  <SCORE.INTRA.REPUL>
0

>  <SCORE.INTRA.REPUL.0>
0

>  <SCORE.INTRA.SOLV>
-3.18271

>  <SCORE.INTRA.SOLV.lig_0>
-80.3833

>  <SCORE.INTRA.VDW>
2.65108

>  <SCORE.INTRA.VDW.0>
-4.63762

>  <SCORE.INTRA.norm>
-0.107695

>  <SCORE.RESTR>
0

>  <SCORE.RESTR.CAVITY>
0

>  <SCORE.RESTR.norm>
0

>  <SCORE.SYSTEM>
0

>  <SCORE.SYSTEM.CONST>
0

>  <SCORE.SYSTEM.DIHEDRAL>
0

>  <SCORE.SYSTEM.SOLV>
0

>  <SCORE.SYSTEM.norm>
0

>  <SCORE.heavy>
31

>  <SCORE.norm>
-0.17747

>  <RMSD>
6.888

$$$$
ligand
 OpenBabel11021811473D
libRbt.so/2013.1/901 2013/11/27
 31 33  0  0  0  0  0  0  0  0999 V2000
   17.1509    9.0001   11.1760 C   0  0  0  0  0  0  0  0  0  0  0  0
   21.5205    4.2056   17.0375 N   0  0  0  0  0  0  0  0  0  0  0  0
   18.2407    8.4969   10.3964 O   0  0  0  0  0  0  0  0  0  0  0  0
   17.3021    8.5660   12.6362 C   0  0  1  0  0  0  0  0  0  0  0  0
   20.7322    1.0943   13.3495 N   0  0  0  0  0  0  0  0  0  0  0  0
   17.4505    7.1349   12.7161 O   0  0  0  0  0  0  0  0  0  0  0  0
   18.6534    6.8389   13.4476 C   0  0  1  0  0  0  0  0  0  0  0  0
   21.1009    0.1410    8.8574 N   0  0  0  0  0  0  0  0  0  0  0  0
   19.2854    5.6411   12.9692 O   0  0  0  0  0  0  0  0  0  0  0  0
   19.3200    4.5802   13.9352 C   0  0  2  0  0  0  0  0  0  0  0  0
   15.9746    3.1280   11.5729 N   0  0  0  0  0  0  0  0  0  0  0  0
   19.9069    6.1087   15.7134 O   0  0  0  0  0  0  0  0  0  0  0  0
   20.3630    4.9608   14.9924 C   0  0  1  0  0  0  0  0  0  0  0  0
   18.5992    2.7593   12.4366 O   0  0  0  0  0  0  0  0  0  0  0  0
   20.5878    3.8074   15.9722 C   0  0  1  0  0  0  0  0  0  0  0  0
   19.4623    3.1437   10.2812 O   0  0  0  0  0  0  0  0  0  0  0  0
   21.1443    2.6043   15.2103 C   0  0  0  0  0  0  0  0  0  0  0  0
   18.4920   -0.1775    9.0548 O   0  0  0  0  0  0  0  0  0  0  0  0
   20.1198    2.1544   14.1646 C   0  0  1  0  0  0  0  0  0  0  0  0
   15.9530    1.0993    9.4885 O   0  0  0  0  0  0  0  0  0  0  0  0
   19.6855    3.2825   13.2210 C   0  0  2  0  0  0  0  0  0  0  0  0
   20.6211    8.1819   14.0658 O   0  0  0  0  0  0  0  0  0  0  0  0
   18.3808    3.4321   11.1866 C   0  0  1  0  0  0  0  0  0  0  0  0
   18.4066    9.5193   14.6179 O   0  0  0  0  0  0  0  0  0  0  0  0
   19.6214    1.7472    9.9782 C   0  0  2  0  0  0  0  0  0  0  0  0
   20.8045    1.5729    9.0229 C   0  0  0  0  0  0  0  0  0  0  0  0
   18.3550    1.2252    9.2971 C   0  0  2  0  0  0  0  0  0  0  0  0
   17.1414    1.4670   10.1969 C   0  0  1  0  0  0  0  0  0  0  0  0
   17.0555    2.9435   10.5924 C   0  0  1  0  0  0  0  0  0  0  0  0
   19.5595    8.0243   13.1215 C   0  0  2  0  0  0  0  0  0  0  0  0
   18.5694    9.1792   13.2386 C   0  0  1  0  0  0  0  0  0  0  0  0
  1  3  1  0  0  0  0
  4  1  1  6  0  0  0
  4  6  1  0  0  0  0
  4 31  1  0  0  0  0
  6  7  1  0  0  0  0
  7  9  1  6  0  0  0
  7 30  1  0  0  0  0
  8 26  1  0  0  0  0
 10  9  1  6  0  0  0
 10 13  1  0  0  0  0
 10 21  1  0  0  0  0
 13 12  1  1  0  0  0
 13 15  1  0  0  0  0
 15  2  1  1  0  0  0
 15 17  1  0  0  0  0
 16 25  1  0  0  0  0
 16 23  1  0  0  0  0
 17 19  1  0  0  0  0
 19  5  1  6  0  0  0
 19 21  1  0  0  0  0
 21 14  1  1  0  0  0
 23 14  1  1  0  0  0
 23 29  1  0  0  0  0
 25 26  1  6  0  0  0
 25 27  1  0  0  0  0
 27 18  1  1  0  0  0
 27 28  1  0  0  0  0
 28 20  1  6  0  0  0
 28 29  1  0  0  0  0
 29 11  1  1  0  0  0
 30 22  1  1  0  0  0
 30 31  1  0  0  0  0
 31 24  1  1  0  0  0
M  END
>  <CHROM.1>
-54.15092038,-115.45288901,-72.90003481,69.88899933,77.02607654,171.88467373
19.00459146,4.41733010,12.36992849,1.52609480,-0.97068534,0.47780247

>  <Name>
ligand

>  <RI>
0

>  <Rbt.Current_Directory>
/home/itssahil/PROJECTS/Mol_Feturizer/New_Systems/rnas/3DVV

>  <Rbt.Executable>
rbdock ($Id: //depot/dev/client3/rdock/2013.1/src/exe/rbdock.cxx#4 $)

>  <Rbt.Library>
libRbt.so (2013.1, Build901 2013/11/27)

>  <Rbt.Parameter_File>
/export/apps/rDock/src/rDock_2013.1_src/data/scripts/dock_solv.prm

>  <Rbt.Receptor>
prm/blind_docking_60.prm

>  <SCORE>
-0.265796

>  <SCORE.INTER>
-1.20673

>  <SCORE.INTER.CONST>
1

>  <SCORE.INTER.POLAR>
0

>  <SCORE.INTER.ROT>
6

>  <SCORE.INTER.SOLV>
16.7308

>  <SCORE.INTER.VDW>
-13.9814

>  <SCORE.INTER.norm>
-0.0389267

>  <SCORE.INTRA>
0.940931

>  <SCORE.INTRA.DIHEDRAL>
-0.835581

>  <SCORE.INTRA.DIHEDRAL.0>
10.8172

>  <SCORE.INTRA.POLAR>
0

>  <SCORE.INTRA.POLAR.0>
0

>  <SCORE.INTRA.REPUL>
0

>  <SCORE.INTRA.REPUL.0>
0

>  <SCORE.INTRA.SOLV>
-1.62947

>  <SCORE.INTRA.SOLV.lig_0>
-80.3833

>  <SCORE.INTRA.VDW>
2.17346

>  <SCORE.INTRA.VDW.0>
-4.63762

>  <SCORE.INTRA.norm>
0.0303526

>  <SCORE.RESTR>
0

>  <SCORE.RESTR.CAVITY>
0

>  <SCORE.RESTR.norm>
0

>  <SCORE.SYSTEM>
0

>  <SCORE.SYSTEM.CONST>
0

>  <SCORE.SYSTEM.DIHEDRAL>
0

>  <SCORE.SYSTEM.SOLV>
0

>  <SCORE.SYSTEM.norm>
0

>  <SCORE.heavy>
31

>  <SCORE.norm>
-0.00857406

>  <RMSD>
6.890

$$$$
ligand
 OpenBabel11021811473D
libRbt.so/2013.1/901 2013/11/27
 31 33  0  0  0  0  0  0  0  0999 V2000
   16.5258    9.0564   12.9865 C   0  0  0  0  0  0  0  0  0  0  0  0
   22.3141    5.4868   17.3221 N   0  0  0  0  0  0  0  0  0  0  0  0
   16.5417    8.0010   12.0197 O   0  0  0  0  0  0  0  0  0  0  0  0
   17.9460    9.3383   13.4832 C   0  0  1  0  0  0  0  0  0  0  0  0
   20.2906    1.9667   14.5986 N   0  0  0  0  0  0  0  0  0  0  0  0
   18.5443    8.1291   13.9894 O   0  0  0  0  0  0  0  0  0  0  0  0
   19.7947    7.9171   13.3100 C   0  0  1  0  0  0  0  0  0  0  0  0
   20.0903    1.8801    9.0030 N   0  0  0  0  0  0  0  0  0  0  0  0
   20.0746    6.5192   13.1356 O   0  0  0  0  0  0  0  0  0  0  0  0
   19.9398    5.7481   14.3386 C   0  0  2  0  0  0  0  0  0  0  0  0
   16.0388    4.6007   12.4925 N   0  0  0  0  0  0  0  0  0  0  0  0
   21.1209    7.4120   15.6343 O   0  0  0  0  0  0  0  0  0  0  0  0
   21.1649    6.0468   15.2106 C   0  0  1  0  0  0  0  0  0  0  0  0
   18.5861    3.9160   13.3941 O   0  0  0  0  0  0  0  0  0  0  0  0
   21.1889    5.1381   16.4413 C   0  0  1  0  0  0  0  0  0  0  0  0
   19.3618    3.5362   11.2050 O   0  0  0  0  0  0  0  0  0  0  0  0
   21.3093    3.6832   15.9874 C   0  0  0  0  0  0  0  0  0  0  0  0
   17.6569    0.2975   10.9210 O   0  0  0  0  0  0  0  0  0  0  0  0
   20.0849    3.3174   15.1433 C   0  0  1  0  0  0  0  0  0  0  0  0
   15.4652    2.1550   11.0260 O   0  0  0  0  0  0  0  0  0  0  0  0
   19.8580    4.2713   13.9642 C   0  0  2  0  0  0  0  0  0  0  0  0
   20.7673    8.8419   11.2468 O   0  0  0  0  0  0  0  0  0  0  0  0
   18.4250    4.2731   12.0124 C   0  0  1  0  0  0  0  0  0  0  0  0
   19.7824   10.7952   12.7342 O   0  0  0  0  0  0  0  0  0  0  0  0
   19.2132    2.1083   11.2842 C   0  0  2  0  0  0  0  0  0  0  0  0
   20.2690    1.4442   10.3972 C   0  0  0  0  0  0  0  0  0  0  0  0
   17.8242    1.7109   10.7814 C   0  0  2  0  0  0  0  0  0  0  0  0
   16.7485    2.4308   11.5973 C   0  0  1  0  0  0  0  0  0  0  0  0
   16.9911    3.9423   11.5850 C   0  0  1  0  0  0  0  0  0  0  0  0
   19.5522    8.5346   11.9343 C   0  0  2  0  0  0  0  0  0  0  0  0
   18.8235    9.8174   12.3233 C   0  0  1  0  0  0  0  0  0  0  0  0
  1  3  1  0  0  0  0
  4  1  1  6  0  0  0
  4  6  1  0  0  0  0
  4 31  1  0  0  0  0
  6  7  1  0  0  0  0
  7  9  1  6  0  0  0
  7 30  1  0  0  0  0
  8 26  1  0  0  0  0
 10  9  1  6  0  0  0
 10 13  1  0  0  0  0
 10 21  1  0  0  0  0
 13 12  1  1  0  0  0
 13 15  1  0  0  0  0
 15  2  1  1  0  0  0
 15 17  1  0  0  0  0
 16 25  1  0  0  0  0
 16 23  1  0  0  0  0
 17 19  1  0  0  0  0
 19  5  1  6  0  0  0
 19 21  1  0  0  0  0
 21 14  1  1  0  0  0
 23 14  1  1  0  0  0
 23 29  1  0  0  0  0
 25 26  1  6  0  0  0
 25 27  1  0  0  0  0
 27 18  1  1  0  0  0
 27 28  1  0  0  0  0
 28 20  1  6  0  0  0
 28 29  1  0  0  0  0
 29 11  1  1  0  0  0
 30 22  1  1  0  0  0
 30 31  1  0  0  0  0
 31 24  1  1  0  0  0
M  END
>  <CHROM.1>
-55.04623446,-49.92765868,-75.24749854,64.41175742,79.04075179,-60.04876563
19.09182948,5.26580038,12.92798591,1.29604306,-0.84730367,0.12786190

>  <Name>
ligand

>  <RI>
0

>  <Rbt.Current_Directory>
/home/itssahil/PROJECTS/Mol_Feturizer/New_Systems/rnas/3DVV

>  <Rbt.Executable>
rbdock ($Id: //depot/dev/client3/rdock/2013.1/src/exe/rbdock.cxx#4 $)

>  <Rbt.Library>
libRbt.so (2013.1, Build901 2013/11/27)

>  <Rbt.Parameter_File>
/export/apps/rDock/src/rDock_2013.1_src/data/scripts/dock_solv.prm

>  <Rbt.Receptor>
prm/blind_docking_100.prm

>  <SCORE>
-2.97631

>  <SCORE.INTER>
-0.986564

>  <SCORE.INTER.CONST>
1

>  <SCORE.INTER.POLAR>
0

>  <SCORE.INTER.ROT>
6

>  <SCORE.INTER.SOLV>
19.478

>  <SCORE.INTER.VDW>
-14.7504

>  <SCORE.INTER.norm>
-0.0318247

>  <SCORE.INTRA>
-1.98975

>  <SCORE.INTRA.DIHEDRAL>
-7.20001

>  <SCORE.INTRA.DIHEDRAL.0>
10.8172

>  <SCORE.INTRA.POLAR>
0

>  <SCORE.INTRA.POLAR.0>
0

>  <SCORE.INTRA.REPUL>
0

>  <SCORE.INTRA.REPUL.0>
0

>  <SCORE.INTRA.SOLV>
-0.805867

>  <SCORE.INTRA.SOLV.lig_0>
-80.3833

>  <SCORE.INTRA.VDW>
2.01319

>  <SCORE.INTRA.VDW.0>
-4.63762

>  <SCORE.INTRA.norm>
-0.0641853

>  <SCORE.RESTR>
0

>  <SCORE.RESTR.CAVITY>
0

>  <SCORE.RESTR.norm>
0

>  <SCORE.SYSTEM>
0

>  <SCORE.SYSTEM.CONST>
0

>  <SCORE.SYSTEM.DIHEDRAL>
0

>  <SCORE.SYSTEM.SOLV>
0

>  <SCORE.SYSTEM.norm>
0

>  <SCORE.heavy>
31

>  <SCORE.norm>
-0.09601

>  <RMSD>
6.901

$$$$
ligand
 OpenBabel11021811473D
libRbt.so/2013.1/901 2013/11/27
 31 33  0  0  0  0  0  0  0  0999 V2000
   19.5574    9.0189   15.5406 C   0  0  0  0  0  0  0  0  0  0  0  0
   11.3566    7.3765   16.3897 N   0  0  0  0  0  0  0  0  0  0  0  0
   19.4060    9.3985   14.1688 O   0  0  0  0  0  0  0  0  0  0  0  0
   18.2599    9.2852   16.3080 C   0  0  1  0  0  0  0  0  0  0  0  0
   13.1837    3.5811   13.9076 N   0  0  0  0  0  0  0  0  0  0  0  0
   17.1881    8.4920   15.7617 O   0  0  0  0  0  0  0  0  0  0  0  0
   16.5974    7.7247   16.8256 C   0  0  1  0  0  0  0  0  0  0  0  0
   15.2547    0.1735   12.0417 N   0  0  0  0  0  0  0  0  0  0  0  0
   16.1260    6.4492   16.3630 O   0  0  0  0  0  0  0  0  0  0  0  0
   14.9780    6.5334   15.5056 C   0  0  2  0  0  0  0  0  0  0  0  0
   18.4940    4.9827   13.5806 N   0  0  0  0  0  0  0  0  0  0  0  0
   13.9926    8.2758   16.8605 O   0  0  0  0  0  0  0  0  0  0  0  0
   13.7869    6.9450   16.3787 C   0  0  1  0  0  0  0  0  0  0  0  0
   15.7180    4.8944   13.8183 O   0  0  0  0  0  0  0  0  0  0  0  0
   12.4845    6.8952   15.5774 C   0  0  1  0  0  0  0  0  0  0  0  0
   15.6737    2.5586   13.5351 O   0  0  0  0  0  0  0  0  0  0  0  0
   12.2294    5.4573   15.1250 C   0  0  0  0  0  0  0  0  0  0  0  0
   16.2148    2.7612    9.9099 O   0  0  0  0  0  0  0  0  0  0  0  0
   13.3735    5.0076   14.2117 C   0  0  1  0  0  0  0  0  0  0  0  0
   18.7106    3.7132   10.9725 O   0  0  0  0  0  0  0  0  0  0  0  0
   14.7572    5.1727   14.8519 C   0  0  2  0  0  0  0  0  0  0  0  0
   17.3454    7.1422   19.0970 O   0  0  0  0  0  0  0  0  0  0  0  0
   16.4567    3.6755   13.9954 C   0  0  1  0  0  0  0  0  0  0  0  0
   17.7042    9.7271   18.6642 O   0  0  0  0  0  0  0  0  0  0  0  0
   15.3110    2.6253   12.1454 C   0  0  2  0  0  0  0  0  0  0  0  0
   14.4748    1.3949   11.7856 C   0  0  0  0  0  0  0  0  0  0  0  0
   16.5772    2.6307   11.2871 C   0  0  2  0  0  0  0  0  0  0  0  0
   17.4738    3.8041   11.6876 C   0  0  1  0  0  0  0  0  0  0  0  0
   17.7579    3.7701   13.1916 C   0  0  1  0  0  0  0  0  0  0  0  0
   17.7691    7.4886   17.7764 C   0  0  2  0  0  0  0  0  0  0  0  0
   18.4202    8.8685   17.7728 C   0  0  1  0  0  0  0  0  0  0  0  0
  1  3  1  0  0  0  0
  4  1  1  6  0  0  0
  4  6  1  0  0  0  0
  4 31  1  0  0  0  0
  6  7  1  0  0  0  0
  7  9  1  6  0  0  0
  7 30  1  0  0  0  0
  8 26  1  0  0  0  0
 10  9  1  1  0  0  0
 10 13  1  0  0  0  0
 10 21  1  0  0  0  0
 13 12  1  6  0  0  0
 13 15  1  0  0  0  0
 15  2  1  1  0  0  0
 15 17  1  0  0  0  0
 16 25  1  0  0  0  0
 16 23  1  0  0  0  0
 17 19  1  0  0  0  0
 19  5  1  1  0  0  0
 19 21  1  0  0  0  0
 21 14  1  6  0  0  0
 23 14  1  6  0  0  0
 23 29  1  0  0  0  0
 25 26  1  6  0  0  0
 25 27  1  0  0  0  0
 27 18  1  6  0  0  0
 27 28  1  0  0  0  0
 28 20  1  6  0  0  0
 28 29  1  0  0  0  0
 29 11  1  1  0  0  0
 30 22  1  1  0  0  0
 30 31  1  0  0  0  0
 31 24  1  1  0  0  0
M  END
>  <CHROM.1>
61.91864587,-69.79185523,-70.86410558,81.53884277,123.99768671,-59.55812867
16.05662586,5.69968253,14.68471926,-1.40419967,-0.25905721,-2.38746375

>  <Name>
ligand

>  <RI>
0

>  <Rbt.Current_Directory>
/home/itssahil/PROJECTS/Mol_Feturizer/New_Systems/rnas/3DVV

>  <Rbt.Executable>
rbdock ($Id: //depot/dev/client3/rdock/2013.1/src/exe/rbdock.cxx#4 $)

>  <Rbt.Library>
libRbt.so (2013.1, Build901 2013/11/27)

>  <Rbt.Parameter_File>
/export/apps/rDock/src/rDock_2013.1_src/data/scripts/dock_solv.prm

>  <Rbt.Receptor>
prm/pocket_docking_6.prm

>  <SCORE>
0.54336

>  <SCORE.INTER>
-1.63873

>  <SCORE.INTER.CONST>
1

>  <SCORE.INTER.POLAR>
0

>  <SCORE.INTER.ROT>
6

>  <SCORE.INTER.SOLV>
13.5817

>  <SCORE.INTER.VDW>
-13.2197

>  <SCORE.INTER.norm>
-0.0528622

>  <SCORE.INTRA>
2.18209

>  <SCORE.INTRA.DIHEDRAL>
-0.531719

>  <SCORE.INTRA.DIHEDRAL.0>
10.8172

>  <SCORE.INTRA.POLAR>
0

>  <SCORE.INTRA.POLAR.0>
0

>  <SCORE.INTRA.REPUL>
0

>  <SCORE.INTRA.REPUL.0>
0

>  <SCORE.INTRA.SOLV>
0.129325

>  <SCORE.INTRA.SOLV.lig_0>
-80.3833

>  <SCORE.INTRA.VDW>
2.38328

>  <SCORE.INTRA.VDW.0>
-4.63762

>  <SCORE.INTRA.norm>
0.0703899

>  <SCORE.RESTR>
0

>  <SCORE.RESTR.CAVITY>
0

>  <SCORE.RESTR.norm>
0

>  <SCORE.SYSTEM>
0

>  <SCORE.SYSTEM.CONST>
0

>  <SCORE.SYSTEM.DIHEDRAL>
0

>  <SCORE.SYSTEM.SOLV>
0

>  <SCORE.SYSTEM.norm>
0

>  <SCORE.heavy>
31

>  <SCORE.norm>
0.0175278

>  <RMSD>
6.902

$$$$
ligand
 OpenBabel11021811473D
libRbt.so/2013.1/901 2013/11/27
 31 33  0  0  0  0  0  0  0  0999 V2000
   16.3361    9.0182   13.0707 C   0  0  0  0  0  0  0  0  0  0  0  0
   22.4382    5.4853   17.1316 N   0  0  0  0  0  0  0  0  0  0  0  0
   16.3869    8.0392   12.0277 O   0  0  0  0  0  0  0  0  0  0  0  0
   17.7458    9.3060   13.5933 C   0  0  1  0  0  0  0  0  0  0  0  0
   20.4650    1.9745   14.3595 N   0  0  0  0  0  0  0  0  0  0  0  0
   18.3708    8.0849   14.0347 O   0  0  0  0  0  0  0  0  0  0  0  0
   19.6302    7.9424   13.3539 C   0  0  1  0  0  0  0  0  0  0  0  0
   19.9732    1.6516    8.9885 N   0  0  0  0  0  0  0  0  0  0  0  0
   19.9458    6.5639   13.1027 O   0  0  0  0  0  0  0  0  0  0  0  0
   19.9097    5.7394   14.2770 C   0  0  2  0  0  0  0  0  0  0  0  0
   16.0410    4.5551   12.4656 N   0  0  0  0  0  0  0  0  0  0  0  0
   21.0669    7.4105   15.5851 O   0  0  0  0  0  0  0  0  0  0  0  0
   21.1595    6.0674   15.1022 C   0  0  1  0  0  0  0  0  0  0  0  0
   18.6063    3.8774   13.3204 O   0  0  0  0  0  0  0  0  0  0  0  0
   21.2903    5.1129   16.2908 C   0  0  1  0  0  0  0  0  0  0  0  0
   19.3094    3.3876   11.1287 O   0  0  0  0  0  0  0  0  0  0  0  0
   21.4621    3.6857   15.7704 C   0  0  0  0  0  0  0  0  0  0  0  0
   17.5569    0.1631   11.0454 O   0  0  0  0  0  0  0  0  0  0  0  0
   20.2178    3.2896   14.9701 C   0  0  1  0  0  0  0  0  0  0  0  0
   15.3924    2.0532   11.1311 O   0  0  0  0  0  0  0  0  0  0  0  0
   19.8849    4.2764   13.8445 C   0  0  2  0  0  0  0  0  0  0  0  0
   20.5922    9.0063   11.3538 O   0  0  0  0  0  0  0  0  0  0  0  0
   18.4071    4.1733   11.9292 C   0  0  1  0  0  0  0  0  0  0  0  0
   19.5501   10.8474   12.9418 O   0  0  0  0  0  0  0  0  0  0  0  0
   19.1458    1.9670   11.2778 C   0  0  2  0  0  0  0  0  0  0  0  0
   20.1655    1.2488   10.3908 C   0  0  0  0  0  0  0  0  0  0  0  0
   17.7372    1.5662   10.8360 C   0  0  2  0  0  0  0  0  0  0  0  0
   16.6960    2.3371   11.6501 C   0  0  1  0  0  0  0  0  0  0  0  0
   16.9567    3.8431   11.5610 C   0  0  1  0  0  0  0  0  0  0  0  0
   19.3809    8.6309   12.0136 C   0  0  2  0  0  0  0  0  0  0  0  0
   18.6183    9.8714   12.4690 C   0  0  1  0  0  0  0  0  0  0  0  0
  1  3  1  0  0  0  0
  4  1  1  6  0  0  0
  4  6  1  0  0  0  0
  4 31  1  0  0  0  0
  6  7  1  0  0  0  0
  7  9  1  6  0  0  0
  7 30  1  0  0  0  0
  8 26  1  0  0  0  0
 10  9  1  6  0  0  0
 10 13  1  0  0  0  0
 10 21  1  0  0  0  0
 13 12  1  1  0  0  0
 13 15  1  0  0  0  0
 15  2  1  6  0  0  0
 15 17  1  0  0  0  0
 16 25  1  0  0  0  0
 16 23  1  0  0  0  0
 17 19  1  0  0  0  0
 19  5  1  6  0  0  0
 19 21  1  0  0  0  0
 21 14  1  1  0  0  0
 23 14  1  1  0  0  0
 23 29  1  0  0  0  0
 25 26  1  6  0  0  0
 25 27  1  0  0  0  0
 27 18  1  1  0  0  0
 27 28  1  0  0  0  0
 28 20  1  6  0  0  0
 28 29  1  0  0  0  0
 29 11  1  1  0  0  0
 30 22  1  1  0  0  0
 30 31  1  0  0  0  0
 31 24  1  1  0  0  0
M  END
>  <CHROM.1>
-56.17511280,-53.87184810,-74.06090644,66.15035739,84.41420081,-58.50040292
19.02949004,5.22982859,12.91472811,1.35774866,-0.77258066,0.17547404

>  <Name>
ligand

>  <RI>
0

>  <Rbt.Current_Directory>
/home/itssahil/PROJECTS/Mol_Feturizer/New_Systems/rnas/3DVV

>  <Rbt.Executable>
rbdock ($Id: //depot/dev/client3/rdock/2013.1/src/exe/rbdock.cxx#4 $)

>  <Rbt.Library>
libRbt.so (2013.1, Build901 2013/11/27)

>  <Rbt.Parameter_File>
/export/apps/rDock/src/rDock_2013.1_src/data/scripts/dock_solv.prm

>  <Rbt.Receptor>
prm/blind_docking_60.prm

>  <SCORE>
-2.38532

>  <SCORE.INTER>
-0.752877

>  <SCORE.INTER.CONST>
1

>  <SCORE.INTER.POLAR>
0

>  <SCORE.INTER.ROT>
6

>  <SCORE.INTER.SOLV>
17.8668

>  <SCORE.INTER.VDW>
-14.0575

>  <SCORE.INTER.norm>
-0.0242863

>  <SCORE.INTRA>
-1.63244

>  <SCORE.INTRA.DIHEDRAL>
-6.69362

>  <SCORE.INTRA.DIHEDRAL.0>
10.8172

>  <SCORE.INTRA.POLAR>
0

>  <SCORE.INTRA.POLAR.0>
0

>  <SCORE.INTRA.REPUL>
0

>  <SCORE.INTRA.REPUL.0>
0

>  <SCORE.INTRA.SOLV>
-0.573723

>  <SCORE.INTRA.SOLV.lig_0>
-80.3833

>  <SCORE.INTRA.VDW>
2.00123

>  <SCORE.INTRA.VDW.0>
-4.63762

>  <SCORE.INTRA.norm>
-0.0526595

>  <SCORE.RESTR>
0

>  <SCORE.RESTR.CAVITY>
0

>  <SCORE.RESTR.norm>
0

>  <SCORE.SYSTEM>
0

>  <SCORE.SYSTEM.CONST>
0

>  <SCORE.SYSTEM.DIHEDRAL>
0

>  <SCORE.SYSTEM.SOLV>
0

>  <SCORE.SYSTEM.norm>
0

>  <SCORE.heavy>
31

>  <SCORE.norm>
-0.0769458

>  <RMSD>
6.903

$$$$
ligand
 OpenBabel11021811473D
libRbt.so/2013.1/901 2013/11/27
 31 33  0  0  0  0  0  0  0  0999 V2000
   23.0429    4.6645   17.3138 C   0  0  0  0  0  0  0  0  0  0  0  0
   19.6475    8.6198   10.3581 N   0  0  0  0  0  0  0  0  0  0  0  0
   22.9242    3.2816   16.9640 O   0  0  0  0  0  0  0  0  0  0  0  0
   23.2167    5.5146   16.0527 C   0  0  1  0  0  0  0  0  0  0  0  0
   16.0181    6.0692   12.4137 N   0  0  0  0  0  0  0  0  0  0  0  0
   22.0567    5.3911   15.2067 O   0  0  0  0  0  0  0  0  0  0  0  0
   21.5479    6.7083   14.9313 C   0  0  1  0  0  0  0  0  0  0  0  0
   16.0736    8.0037   16.5761 N   0  0  0  0  0  0  0  0  0  0  0  0
   20.1175    6.7091   14.8006 O   0  0  0  0  0  0  0  0  0  0  0  0
   19.6581    6.4077   13.4747 C   0  0  2  0  0  0  0  0  0  0  0  0
   18.4656    2.2152   15.0686 N   0  0  0  0  0  0  0  0  0  0  0  0
   21.3374    7.8339   12.4807 O   0  0  0  0  0  0  0  0  0  0  0  0
   19.9257    7.6437   12.6081 C   0  0  1  0  0  0  0  0  0  0  0  0
   17.9219    4.7725   14.1018 O   0  0  0  0  0  0  0  0  0  0  0  0
   19.3130    7.4733   11.2166 C   0  0  1  0  0  0  0  0  0  0  0  0
   17.6440    5.6367   16.2730 O   0  0  0  0  0  0  0  0  0  0  0  0
   17.7955    7.3428   11.3500 C   0  0  0  0  0  0  0  0  0  0  0  0
   14.3119    4.1515   16.6815 O   0  0  0  0  0  0  0  0  0  0  0  0
   17.4692    6.0947   12.1754 C   0  0  1  0  0  0  0  0  0  0  0  0
   16.0242    1.8435   16.6055 O   0  0  0  0  0  0  0  0  0  0  0  0
   18.1710    6.0725   13.5387 C   0  0  2  0  0  0  0  0  0  0  0  0
   21.9155    8.9070   15.9747 O   0  0  0  0  0  0  0  0  0  0  0  0
   18.3009    4.6308   15.4798 C   0  0  1  0  0  0  0  0  0  0  0  0
   24.2351    7.7020   15.5688 O   0  0  0  0  0  0  0  0  0  0  0  0
   16.2081    5.5773   16.2297 C   0  0  2  0  0  0  0  0  0  0  0  0
   15.6333    6.6997   17.0971 C   0  0  0  0  0  0  0  0  0  0  0  0
   15.7359    4.2324   16.7849 C   0  0  2  0  0  0  0  0  0  0  0  0
   16.3668    3.0887   15.9880 C   0  0  1  0  0  0  0  0  0  0  0  0
   17.8905    3.2345   15.9596 C   0  0  1  0  0  0  0  0  0  0  0  0
   21.9165    7.4935   16.1884 C   0  0  2  0  0  0  0  0  0  0  0  0
   23.3382    6.9942   16.4284 C   0  0  1  0  0  0  0  0  0  0  0  0
  1  3  1  0  0  0  0
  4  1  1  1  0  0  0
  4  6  1  0  0  0  0
  4 31  1  0  0  0  0
  6  7  1  0  0  0  0
  7  9  1  1  0  0  0
  7 30  1  0  0  0  0
  8 26  1  0  0  0  0
 10  9  1  1  0  0  0
 10 13  1  0  0  0  0
 10 21  1  0  0  0  0
 13 12  1  6  0  0  0
 13 15  1  0  0  0  0
 15  2  1  6  0  0  0
 15 17  1  0  0  0  0
 16 25  1  0  0  0  0
 16 23  1  0  0  0  0
 17 19  1  0  0  0  0
 19  5  1  1  0  0  0
 19 21  1  0  0  0  0
 21 14  1  6  0  0  0
 23 14  1  6  0  0  0
 23 29  1  0  0  0  0
 25 26  1  1  0  0  0
 25 27  1  0  0  0  0
 27 18  1  6  0  0  0
 27 28  1  0  0  0  0
 28 20  1  1  0  0  0
 28 29  1  0  0  0  0
 29 11  1  6  0  0  0
 30 22  1  6  0  0  0
 30 31  1  0  0  0  0
 31 24  1  6  0  0  0
M  END
>  <CHROM.1>
62.13810532,-86.54197842,-73.95227194,55.88623601,64.86965994,60.71576817
19.19767630,5.83060585,14.92883623,-0.32004320,0.23021075,2.24272656

>  <Name>
ligand

>  <RI>
0

>  <Rbt.Current_Directory>
/home/itssahil/PROJECTS/Mol_Feturizer/New_Systems/rnas/3DVV

>  <Rbt.Executable>
rbdock ($Id: //depot/dev/client3/rdock/2013.1/src/exe/rbdock.cxx#4 $)

>  <Rbt.Library>
libRbt.so (2013.1, Build901 2013/11/27)

>  <Rbt.Parameter_File>
/export/apps/rDock/src/rDock_2013.1_src/data/scripts/dock_solv.prm

>  <Rbt.Receptor>
prm/pocket_docking_6.prm

>  <SCORE>
-8.14509

>  <SCORE.INTER>
-5.06152

>  <SCORE.INTER.CONST>
1

>  <SCORE.INTER.POLAR>
0

>  <SCORE.INTER.ROT>
6

>  <SCORE.INTER.SOLV>
15.788

>  <SCORE.INTER.VDW>
-16.237

>  <SCORE.INTER.norm>
-0.163275

>  <SCORE.INTRA>
-3.09327

>  <SCORE.INTRA.DIHEDRAL>
-6.58784

>  <SCORE.INTRA.DIHEDRAL.0>
10.8172

>  <SCORE.INTRA.POLAR>
0

>  <SCORE.INTRA.POLAR.0>
0

>  <SCORE.INTRA.REPUL>
0

>  <SCORE.INTRA.REPUL.0>
0

>  <SCORE.INTRA.SOLV>
-4.11393

>  <SCORE.INTRA.SOLV.lig_0>
-80.3833

>  <SCORE.INTRA.VDW>
2.25761

>  <SCORE.INTRA.VDW.0>
-4.63762

>  <SCORE.INTRA.norm>
-0.0997829

>  <SCORE.RESTR>
0.009704

>  <SCORE.RESTR.CAVITY>
0.009704

>  <SCORE.RESTR.norm>
0.000313032

>  <SCORE.SYSTEM>
0

>  <SCORE.SYSTEM.CONST>
0

>  <SCORE.SYSTEM.DIHEDRAL>
0

>  <SCORE.SYSTEM.SOLV>
0

>  <SCORE.SYSTEM.norm>
0

>  <SCORE.heavy>
31

>  <SCORE.norm>
-0.262745

>  <RMSD>
6.916

$$$$
ligand
 OpenBabel11021811473D
libRbt.so/2013.1/901 2013/11/27
 31 33  0  0  0  0  0  0  0  0999 V2000
   21.8273    6.8312   16.5127 C   0  0  0  0  0  0  0  0  0  0  0  0
   17.1499    9.1461   12.8144 N   0  0  0  0  0  0  0  0  0  0  0  0
   22.7436    6.4652   15.4757 O   0  0  0  0  0  0  0  0  0  0  0  0
   20.4976    6.0963   16.3252 C   0  0  1  0  0  0  0  0  0  0  0  0
   15.2148    4.6796   12.3570 N   0  0  0  0  0  0  0  0  0  0  0  0
   19.9697    6.3526   15.0092 O   0  0  0  0  0  0  0  0  0  0  0  0
   19.7207    5.0922   14.3616 C   0  0  1  0  0  0  0  0  0  0  0  0
   15.7266   -0.2263   12.1842 N   0  0  0  0  0  0  0  0  0  0  0  0
   19.9398    5.1703   12.9443 O   0  0  0  0  0  0  0  0  0  0  0  0
   18.8570    5.7779   12.2245 C   0  0  2  0  0  0  0  0  0  0  0  0
   20.4080    3.9423   10.6777 N   0  0  0  0  0  0  0  0  0  0  0  0
   19.7239    7.9972   12.6319 O   0  0  0  0  0  0  0  0  0  0  0  0
   18.5972    7.1472   12.8632 C   0  0  1  0  0  0  0  0  0  0  0  0
   17.7531    3.6981   11.4917 O   0  0  0  0  0  0  0  0  0  0  0  0
   17.3464    7.7954   12.2663 C   0  0  1  0  0  0  0  0  0  0  0  0
   18.0523    1.4484   12.1142 O   0  0  0  0  0  0  0  0  0  0  0  0
   16.1317    6.9209   12.5779 C   0  0  0  0  0  0  0  0  0  0  0  0
   17.9968    0.2460    8.6462 O   0  0  0  0  0  0  0  0  0  0  0  0
   16.3203    5.5483   11.9252 C   0  0  1  0  0  0  0  0  0  0  0  0
   20.4332    1.7688    8.7450 O   0  0  0  0  0  0  0  0  0  0  0  0
   17.6363    4.8676   12.3208 C   0  0  2  0  0  0  0  0  0  0  0  0
   20.4645    2.7905   14.8160 O   0  0  0  0  0  0  0  0  0  0  0  0
   18.7009    2.7238   11.9554 C   0  0  1  0  0  0  0  0  0  0  0  0
   19.6081    3.9192   17.0499 O   0  0  0  0  0  0  0  0  0  0  0  0
   17.4772    0.9245   10.9051 C   0  0  2  0  0  0  0  0  0  0  0  0
   16.8107   -0.4196   11.2080 C   0  0  0  0  0  0  0  0  0  0  0  0
   18.5803    0.7067    9.8678 C   0  0  2  0  0  0  0  0  0  0  0  0
   19.3213    2.0204    9.6107 C   0  0  1  0  0  0  0  0  0  0  0  0
   19.8316    2.6122   10.9272 C   0  0  1  0  0  0  0  0  0  0  0  0
   20.7842    4.1760   14.9632 C   0  0  2  0  0  0  0  0  0  0  0  0
   20.7129    4.5839   16.4317 C   0  0  1  0  0  0  0  0  0  0  0  0
  1  3  1  0  0  0  0
  4  1  1  6  0  0  0
  4  6  1  0  0  0  0
  4 31  1  0  0  0  0
  6  7  1  0  0  0  0
  7  9  1  6  0  0  0
  7 30  1  0  0  0  0
  8 26  1  0  0  0  0
 10  9  1  1  0  0  0
 10 13  1  0  0  0  0
 10 21  1  0  0  0  0
 13 12  1  6  0  0  0
 13 15  1  0  0  0  0
 15  2  1  1  0  0  0
 15 17  1  0  0  0  0
 16 25  1  0  0  0  0
 16 23  1  0  0  0  0
 17 19  1  0  0  0  0
 19  5  1  1  0  0  0
 19 21  1  0  0  0  0
 21 14  1  6  0  0  0
 23 14  1  6  0  0  0
 23 29  1  0  0  0  0
 25 26  1  1  0  0  0
 25 27  1  0  0  0  0
 27 18  1  6  0  0  0
 27 28  1  0  0  0  0
 28 20  1  6  0  0  0
 28 29  1  0  0  0  0
 29 11  1  6  0  0  0
 30 22  1  1  0  0  0
 30 31  1  0  0  0  0
 31 24  1  6  0  0  0
M  END
>  <CHROM.1>
-55.39794037,-78.90227545,54.45501808,124.02986637,71.67015640,61.72135375
18.88548651,4.20665389,12.72673809,-1.14687970,0.77932094,-2.74553766

>  <Name>
ligand

>  <RI>
0

>  <Rbt.Current_Directory>
/home/itssahil/PROJECTS/Mol_Feturizer/New_Systems/rnas/3DVV

>  <Rbt.Executable>
rbdock ($Id: //depot/dev/client3/rdock/2013.1/src/exe/rbdock.cxx#4 $)

>  <Rbt.Library>
libRbt.so (2013.1, Build901 2013/11/27)

>  <Rbt.Parameter_File>
/export/apps/rDock/src/rDock_2013.1_src/data/scripts/dock_solv.prm

>  <Rbt.Receptor>
prm/blind_docking_60.prm

>  <SCORE>
2.76411

>  <SCORE.INTER>
0.0985494

>  <SCORE.INTER.CONST>
1

>  <SCORE.INTER.POLAR>
0

>  <SCORE.INTER.ROT>
6

>  <SCORE.INTER.SOLV>
15.2442

>  <SCORE.INTER.VDW>
-12.6157

>  <SCORE.INTER.norm>
0.00317901

>  <SCORE.INTRA>
2.40854

>  <SCORE.INTRA.DIHEDRAL>
-0.996897

>  <SCORE.INTRA.DIHEDRAL.0>
10.8172

>  <SCORE.INTRA.POLAR>
0

>  <SCORE.INTRA.POLAR.0>
0

>  <SCORE.INTRA.REPUL>
0

>  <SCORE.INTRA.REPUL.0>
0

>  <SCORE.INTRA.SOLV>
-1.0084

>  <SCORE.INTRA.SOLV.lig_0>
-80.3833

>  <SCORE.INTRA.VDW>
3.41118

>  <SCORE.INTRA.VDW.0>
-4.63762

>  <SCORE.INTRA.norm>
0.0776947

>  <SCORE.RESTR>
0.257021

>  <SCORE.RESTR.CAVITY>
0.257021

>  <SCORE.RESTR.norm>
0.00829098

>  <SCORE.SYSTEM>
0

>  <SCORE.SYSTEM.CONST>
0

>  <SCORE.SYSTEM.DIHEDRAL>
0

>  <SCORE.SYSTEM.SOLV>
0

>  <SCORE.SYSTEM.norm>
0

>  <SCORE.heavy>
31

>  <SCORE.norm>
0.0891647

>  <RMSD>
6.935

$$$$
ligand
 OpenBabel11021811473D
libRbt.so/2013.1/901 2013/11/27
 31 33  0  0  0  0  0  0  0  0999 V2000
   19.4298    9.5095   14.5373 C   0  0  0  0  0  0  0  0  0  0  0  0
   21.4919    3.6851   16.9126 N   0  0  0  0  0  0  0  0  0  0  0  0
   20.1419    9.5623   15.7778 O   0  0  0  0  0  0  0  0  0  0  0  0
   19.9128    8.3212   13.7019 C   0  0  1  0  0  0  0  0  0  0  0  0
   20.3001    1.5918   12.6581 N   0  0  0  0  0  0  0  0  0  0  0  0
   19.5997    7.0838   14.3708 O   0  0  0  0  0  0  0  0  0  0  0  0
   18.8482    6.2525   13.4686 C   0  0  1  0  0  0  0  0  0  0  0  0
   13.6778    5.4538   14.4202 N   0  0  0  0  0  0  0  0  0  0  0  0
   17.8893    5.4421   14.1664 O   0  0  0  0  0  0  0  0  0  0  0  0
   18.4335    4.2189   14.6837 C   0  0  2  0  0  0  0  0  0  0  0  0
   16.7575    0.3482   11.7713 N   0  0  0  0  0  0  0  0  0  0  0  0
   19.1947    5.3148   16.6992 O   0  0  0  0  0  0  0  0  0  0  0  0
   19.6423    4.5892   15.5509 C   0  0  1  0  0  0  0  0  0  0  0  0
   17.6928    2.7404   12.8544 O   0  0  0  0  0  0  0  0  0  0  0  0
   20.3870    3.3332   16.0078 C   0  0  1  0  0  0  0  0  0  0  0  0
   16.1199    2.6730   14.6035 O   0  0  0  0  0  0  0  0  0  0  0  0
   20.9272    2.5973   14.7814 C   0  0  0  0  0  0  0  0  0  0  0  0
   13.3436    3.7377   12.4505 O   0  0  0  0  0  0  0  0  0  0  0  0
   19.7536    2.1658   13.8971 C   0  0  1  0  0  0  0  0  0  0  0  0
   13.9792    1.1322   11.4150 O   0  0  0  0  0  0  0  0  0  0  0  0
   18.8301    3.3275   13.5108 C   0  0  2  0  0  0  0  0  0  0  0  0
   17.6313    6.7078   11.3783 O   0  0  0  0  0  0  0  0  0  0  0  0
   16.8957    1.8815   13.6848 C   0  0  1  0  0  0  0  0  0  0  0  0
   20.0240    7.8327   11.2926 O   0  0  0  0  0  0  0  0  0  0  0  0
   15.2151    3.5937   13.9704 C   0  0  2  0  0  0  0  0  0  0  0  0
   14.4639    4.3796   15.0478 C   0  0  0  0  0  0  0  0  0  0  0  0
   14.2016    2.8162   13.1287 C   0  0  2  0  0  0  0  0  0  0  0  0
   14.9324    1.9531   12.0981 C   0  0  1  0  0  0  0  0  0  0  0  0
   15.9656    1.0581   12.7875 C   0  0  1  0  0  0  0  0  0  0  0  0
   18.0903    7.2648   12.6122 C   0  0  2  0  0  0  0  0  0  0  0  0
   19.1856    8.2952   12.3545 C   0  0  1  0  0  0  0  0  0  0  0  0
  1  3  1  0  0  0  0
  4  1  1  1  0  0  0
  4  6  1  0  0  0  0
  4 31  1  0  0  0  0
  6  7  1  0  0  0  0
  7  9  1  1  0  0  0
  7 30  1  0  0  0  0
  8 26  1  0  0  0  0
 10  9  1  6  0  0  0
 10 13  1  0  0  0  0
 10 21  1  0  0  0  0
 13 12  1  1  0  0  0
 13 15  1  0  0  0  0
 15  2  1  1  0  0  0
 15 17  1  0  0  0  0
 16 25  1  0  0  0  0
 16 23  1  0  0  0  0
 17 19  1  0  0  0  0
 19  5  1  6  0  0  0
 19 21  1  0  0  0  0
 21 14  1  1  0  0  0
 23 14  1  6  0  0  0
 23 29  1  0  0  0  0
 25 26  1  1  0  0  0
 25 27  1  0  0  0  0
 27 18  1  6  0  0  0
 27 28  1  0  0  0  0
 28 20  1  1  0  0  0
 28 29  1  0  0  0  0
 29 11  1  6  0  0  0
 30 22  1  6  0  0  0
 30 31  1  0  0  0  0
 31 24  1  6  0  0  0
M  END
>  <CHROM.1>
64.36093643,-84.55707133,54.49925567,74.26088308,-61.49005041,172.03843621
17.82366651,4.52139441,13.75214845,0.81366916,-0.39446387,-0.07114403

>  <Name>
ligand

>  <RI>
0

>  <Rbt.Current_Directory>
/home/itssahil/PROJECTS/Mol_Feturizer/New_Systems/rnas/3DVV

>  <Rbt.Executable>
rbdock ($Id: //depot/dev/client3/rdock/2013.1/src/exe/rbdock.cxx#4 $)

>  <Rbt.Library>
libRbt.so (2013.1, Build901 2013/11/27)

>  <Rbt.Parameter_File>
/export/apps/rDock/src/rDock_2013.1_src/data/scripts/dock_solv.prm

>  <Rbt.Receptor>
prm/pocket_docking_6.prm

>  <SCORE>
-2.98229

>  <SCORE.INTER>
-2.87382

>  <SCORE.INTER.CONST>
1

>  <SCORE.INTER.POLAR>
0

>  <SCORE.INTER.ROT>
6

>  <SCORE.INTER.SOLV>
15.2908

>  <SCORE.INTER.VDW>
-14.6128

>  <SCORE.INTER.norm>
-0.092704

>  <SCORE.INTRA>
-0.10847

>  <SCORE.INTRA.DIHEDRAL>
-6.65727

>  <SCORE.INTRA.DIHEDRAL.0>
10.8172

>  <SCORE.INTRA.POLAR>
0

>  <SCORE.INTRA.POLAR.0>
0

>  <SCORE.INTRA.REPUL>
0

>  <SCORE.INTRA.REPUL.0>
0

>  <SCORE.INTRA.SOLV>
-2.06901

>  <SCORE.INTRA.SOLV.lig_0>
-80.3833

>  <SCORE.INTRA.VDW>
4.25467

>  <SCORE.INTRA.VDW.0>
-4.63762

>  <SCORE.INTRA.norm>
-0.00349904

>  <SCORE.RESTR>
0

>  <SCORE.RESTR.CAVITY>
0

>  <SCORE.RESTR.norm>
0

>  <SCORE.SYSTEM>
0

>  <SCORE.SYSTEM.CONST>
0

>  <SCORE.SYSTEM.DIHEDRAL>
0

>  <SCORE.SYSTEM.SOLV>
0

>  <SCORE.SYSTEM.norm>
0

>  <SCORE.heavy>
31

>  <SCORE.norm>
-0.096203

>  <RMSD>
6.937

$$$$
ligand
 OpenBabel11021811473D
libRbt.so/2013.1/901 2013/11/27
 31 33  0  0  0  0  0  0  0  0999 V2000
   22.9562    7.6540   15.8447 C   0  0  0  0  0  0  0  0  0  0  0  0
   19.5298   10.3884   11.3863 N   0  0  0  0  0  0  0  0  0  0  0  0
   23.4653    6.5418   15.1014 O   0  0  0  0  0  0  0  0  0  0  0  0
   21.4347    7.5488   15.9758 C   0  0  1  0  0  0  0  0  0  0  0  0
   15.6239    7.9212   12.9866 N   0  0  0  0  0  0  0  0  0  0  0  0
   20.8218    7.5598   14.6717 O   0  0  0  0  0  0  0  0  0  0  0  0
   19.9856    6.3956   14.5483 C   0  0  1  0  0  0  0  0  0  0  0  0
   20.2398    1.5288   12.8131 N   0  0  0  0  0  0  0  0  0  0  0  0
   19.9582    5.9013   13.2000 O   0  0  0  0  0  0  0  0  0  0  0  0
   19.1640    6.6975   12.3083 C   0  0  2  0  0  0  0  0  0  0  0  0
   14.7251    4.6658   11.2681 N   0  0  0  0  0  0  0  0  0  0  0  0
   21.0722    8.0400   11.6767 O   0  0  0  0  0  0  0  0  0  0  0  0
   19.7781    8.1020   12.2825 C   0  0  1  0  0  0  0  0  0  0  0  0
   17.0417    5.4739   12.5913 O   0  0  0  0  0  0  0  0  0  0  0  0
   18.8953    9.0652   11.4865 C   0  0  1  0  0  0  0  0  0  0  0  0
   18.4199    4.2693   11.1123 O   0  0  0  0  0  0  0  0  0  0  0  0
   17.5365    9.1859   12.1769 C   0  0  0  0  0  0  0  0  0  0  0  0
   17.6366    1.0338   12.6597 O   0  0  0  0  0  0  0  0  0  0  0  0
   16.8576    7.8131   12.1932 C   0  0  1  0  0  0  0  0  0  0  0  0
   15.1256    1.7928   11.4835 O   0  0  0  0  0  0  0  0  0  0  0  0
   17.7272    6.7173   12.8214 C   0  0  2  0  0  0  0  0  0  0  0  0
   19.8346    4.2898   15.8135 O   0  0  0  0  0  0  0  0  0  0  0  0
   17.1636    4.9574   11.2568 C   0  0  1  0  0  0  0  0  0  0  0  0
   19.9084    6.3413   17.4819 O   0  0  0  0  0  0  0  0  0  0  0  0
   18.5881    3.1549   12.0051 C   0  0  2  0  0  0  0  0  0  0  0  0
   19.9598    2.5207   11.7627 C   0  0  0  0  0  0  0  0  0  0  0  0
   17.5049    2.1109   11.7282 C   0  0  2  0  0  0  0  0  0  0  0  0
   16.1199    2.7437   11.8790 C   0  0  1  0  0  0  0  0  0  0  0  0
   16.0035    3.9903   10.9980 C   0  0  1  0  0  0  0  0  0  0  0  0
   20.6935    5.3643   15.4246 C   0  0  2  0  0  0  0  0  0  0  0  0
   21.0542    6.2201   16.6352 C   0  0  1  0  0  0  0  0  0  0  0  0
  1  3  1  0  0  0  0
  4  1  1  6  0  0  0
  4  6  1  0  0  0  0
  4 31  1  0  0  0  0
  6  7  1  0  0  0  0
  7  9  1  6  0  0  0
  7 30  1  0  0  0  0
  8 26  1  0  0  0  0
 10  9  1  1  0  0  0
 10 13  1  0  0  0  0
 10 21  1  0  0  0  0
 13 12  1  6  0  0  0
 13 15  1  0  0  0  0
 15  2  1  1  0  0  0
 15 17  1  0  0  0  0
 16 25  1  0  0  0  0
 16 23  1  0  0  0  0
 17 19  1  0  0  0  0
 19  5  1  1  0  0  0
 19 21  1  0  0  0  0
 21 14  1  6  0  0  0
 23 14  1  1  0  0  0
 23 29  1  0  0  0  0
 25 26  1  6  0  0  0
 25 27  1  0  0  0  0
 27 18  1  1  0  0  0
 27 28  1  0  0  0  0
 28 20  1  6  0  0  0
 28 29  1  0  0  0  0
 29 11  1  1  0  0  0
 30 22  1  1  0  0  0
 30 31  1  0  0  0  0
 31 24  1  1  0  0  0
M  END
>  <CHROM.1>
-60.67912293,-74.79216642,60.77254824,81.32491837,-48.28054655,170.56041457
18.89352987,5.64903193,13.10911357,-0.60449224,0.68805515,3.01389258

>  <Name>
ligand

>  <RI>
0

>  <Rbt.Current_Directory>
/home/itssahil/PROJECTS/Mol_Feturizer/New_Systems/rnas/3DVV

>  <Rbt.Executable>
rbdock ($Id: //depot/dev/client3/rdock/2013.1/src/exe/rbdock.cxx#4 $)

>  <Rbt.Library>
libRbt.so (2013.1, Build901 2013/11/27)

>  <Rbt.Parameter_File>
/export/apps/rDock/src/rDock_2013.1_src/data/scripts/dock_solv.prm

>  <Rbt.Receptor>
prm/blind_docking_40.prm

>  <SCORE>
-5.50244

>  <SCORE.INTER>
-5.72871

>  <SCORE.INTER.CONST>
1

>  <SCORE.INTER.POLAR>
0

>  <SCORE.INTER.ROT>
6

>  <SCORE.INTER.SOLV>
15.7505

>  <SCORE.INTER.VDW>
-16.6693

>  <SCORE.INTER.norm>
-0.184797

>  <SCORE.INTRA>
0.212568

>  <SCORE.INTRA.DIHEDRAL>
-6.584

>  <SCORE.INTRA.DIHEDRAL.0>
10.8172

>  <SCORE.INTRA.POLAR>
0

>  <SCORE.INTRA.POLAR.0>
0

>  <SCORE.INTRA.REPUL>
0

>  <SCORE.INTRA.REPUL.0>
0

>  <SCORE.INTRA.SOLV>
-1.32379

>  <SCORE.INTRA.SOLV.lig_0>
-80.3833

>  <SCORE.INTRA.VDW>
4.16646

>  <SCORE.INTRA.VDW.0>
-4.63762

>  <SCORE.INTRA.norm>
0.00685703

>  <SCORE.RESTR>
0.0137074

>  <SCORE.RESTR.CAVITY>
0.0137074

>  <SCORE.RESTR.norm>
0.000442175

>  <SCORE.SYSTEM>
0

>  <SCORE.SYSTEM.CONST>
0

>  <SCORE.SYSTEM.DIHEDRAL>
0

>  <SCORE.SYSTEM.SOLV>
0

>  <SCORE.SYSTEM.norm>
0

>  <SCORE.heavy>
31

>  <SCORE.norm>
-0.177498

>  <RMSD>
6.942

$$$$
ligand
 OpenBabel11021811473D
libRbt.so/2013.1/901 2013/11/27
 31 33  0  0  0  0  0  0  0  0999 V2000
   22.5995    7.8360   15.8339 C   0  0  0  0  0  0  0  0  0  0  0  0
   19.1695   10.1078   11.2976 N   0  0  0  0  0  0  0  0  0  0  0  0
   23.1211    6.7935   15.0032 O   0  0  0  0  0  0  0  0  0  0  0  0
   21.1005    7.6272   16.0636 C   0  0  1  0  0  0  0  0  0  0  0  0
   15.3206    7.9400   13.3929 N   0  0  0  0  0  0  0  0  0  0  0  0
   20.4116    7.5426   14.8008 O   0  0  0  0  0  0  0  0  0  0  0  0
   19.6579    6.3175   14.7710 C   0  0  1  0  0  0  0  0  0  0  0  0
   20.2848    3.4319   11.4852 N   0  0  0  0  0  0  0  0  0  0  0  0
   19.5865    5.7694   13.4453 O   0  0  0  0  0  0  0  0  0  0  0  0
   18.7518    6.5221   12.5527 C   0  0  2  0  0  0  0  0  0  0  0  0
   14.0292    4.6551   12.3954 N   0  0  0  0  0  0  0  0  0  0  0  0
   20.6488    7.7299   11.6667 O   0  0  0  0  0  0  0  0  0  0  0  0
   19.4097    7.8936   12.3618 C   0  0  1  0  0  0  0  0  0  0  0  0
   16.6180    5.4130   13.0985 O   0  0  0  0  0  0  0  0  0  0  0  0
   18.5000    8.8241   11.5571 C   0  0  1  0  0  0  0  0  0  0  0  0
   17.5559    4.2295   11.2936 O   0  0  0  0  0  0  0  0  0  0  0  0
   17.2052    9.0557   12.3362 C   0  0  0  0  0  0  0  0  0  0  0  0
   17.1473    0.9674   12.9270 O   0  0  0  0  0  0  0  0  0  0  0  0
   16.4831    7.7176   12.5198 C   0  0  1  0  0  0  0  0  0  0  0  0
   14.4304    1.7746   12.4459 O   0  0  0  0  0  0  0  0  0  0  0  0
   17.3618    6.6421   13.1702 C   0  0  2  0  0  0  0  0  0  0  0  0
   19.7391    4.2581   16.1164 O   0  0  0  0  0  0  0  0  0  0  0  0
   16.3881    4.9253   11.7674 C   0  0  1  0  0  0  0  0  0  0  0  0
   19.7607    6.3741   17.7038 O   0  0  0  0  0  0  0  0  0  0  0  0
   17.9305    3.0940   12.0922 C   0  0  2  0  0  0  0  0  0  0  0  0
   19.1858    2.4532   11.4954 C   0  0  0  0  0  0  0  0  0  0  0  0
   16.7977    2.0661   12.0811 C   0  0  2  0  0  0  0  0  0  0  0  0
   15.5062    2.7075   12.5927 C   0  0  1  0  0  0  0  0  0  0  0  0
   15.1867    3.9745   11.7948 C   0  0  1  0  0  0  0  0  0  0  0  0
   20.4913    5.3752   15.6370 C   0  0  2  0  0  0  0  0  0  0  0  0
   20.8595    6.3019   16.7918 C   0  0  1  0  0  0  0  0  0  0  0  0
  1  3  1  0  0  0  0
  4  1  1  6  0  0  0
  4  6  1  0  0  0  0
  4 31  1  0  0  0  0
  6  7  1  0  0  0  0
  7  9  1  6  0  0  0
  7 30  1  0  0  0  0
  8 26  1  0  0  0  0
 10  9  1  1  0  0  0
 10 13  1  0  0  0  0
 10 21  1  0  0  0  0
 13 12  1  6  0  0  0
 13 15  1  0  0  0  0
 15  2  1  1  0  0  0
 15 17  1  0  0  0  0
 16 25  1  0  0  0  0
 16 23  1  0  0  0  0
 17 19  1  0  0  0  0
 19  5  1  1  0  0  0
 19 21  1  0  0  0  0
 21 14  1  6  0  0  0
 23 14  1  1  0  0  0
 23 29  1  0  0  0  0
 25 26  1  6  0  0  0
 25 27  1  0  0  0  0
 27 18  1  1  0  0  0
 27 28  1  0  0  0  0
 28 20  1  6  0  0  0
 28 29  1  0  0  0  0
 29 11  1  1  0  0  0
 30 22  1  1  0  0  0
 30 31  1  0  0  0  0
 31 24  1  1  0  0  0
M  END
>  <CHROM.1>
-55.75796885,-70.90996835,65.13774712,81.09042096,-60.19064248,59.99556617
18.45668849,5.65977674,13.33195986,-0.52400424,0.63799498,2.92063816

>  <Name>
ligand

>  <RI>
0

>  <Rbt.Current_Directory>
/home/itssahil/PROJECTS/Mol_Feturizer/New_Systems/rnas/3DVV

>  <Rbt.Executable>
rbdock ($Id: //depot/dev/client3/rdock/2013.1/src/exe/rbdock.cxx#4 $)

>  <Rbt.Library>
libRbt.so (2013.1, Build901 2013/11/27)

>  <Rbt.Parameter_File>
/export/apps/rDock/src/rDock_2013.1_src/data/scripts/dock_solv.prm

>  <Rbt.Receptor>
prm/pocket_docking_8.prm

>  <SCORE>
-6.00005

>  <SCORE.INTER>
-5.31543

>  <SCORE.INTER.CONST>
1

>  <SCORE.INTER.POLAR>
0

>  <SCORE.INTER.ROT>
6

>  <SCORE.INTER.SOLV>
13.3457

>  <SCORE.INTER.VDW>
-15.5922

>  <SCORE.INTER.norm>
-0.171465

>  <SCORE.INTRA>
-0.684618

>  <SCORE.INTRA.DIHEDRAL>
-7.81884

>  <SCORE.INTRA.DIHEDRAL.0>
10.8172

>  <SCORE.INTRA.POLAR>
0

>  <SCORE.INTRA.POLAR.0>
0

>  <SCORE.INTRA.REPUL>
0

>  <SCORE.INTRA.REPUL.0>
0

>  <SCORE.INTRA.SOLV>
-0.777623

>  <SCORE.INTRA.SOLV.lig_0>
-80.3833

>  <SCORE.INTRA.VDW>
3.61361

>  <SCORE.INTRA.VDW.0>
-4.63762

>  <SCORE.INTRA.norm>
-0.0220844

>  <SCORE.RESTR>
0

>  <SCORE.RESTR.CAVITY>
0

>  <SCORE.RESTR.norm>
0

>  <SCORE.SYSTEM>
0

>  <SCORE.SYSTEM.CONST>
0

>  <SCORE.SYSTEM.DIHEDRAL>
0

>  <SCORE.SYSTEM.SOLV>
0

>  <SCORE.SYSTEM.norm>
0

>  <SCORE.heavy>
31

>  <SCORE.norm>
-0.19355

>  <RMSD>
6.942

$$$$
ligand
 OpenBabel11021811473D
libRbt.so/2013.1/901 2013/11/27
 31 33  0  0  0  0  0  0  0  0999 V2000
   23.3720    4.4701   17.4244 C   0  0  0  0  0  0  0  0  0  0  0  0
   18.1255    9.2639   12.0449 N   0  0  0  0  0  0  0  0  0  0  0  0
   22.1107    4.5651   18.0943 O   0  0  0  0  0  0  0  0  0  0  0  0
   23.3880    5.3852   16.1974 C   0  0  1  0  0  0  0  0  0  0  0  0
   16.5335    4.6437   11.8939 N   0  0  0  0  0  0  0  0  0  0  0  0
   22.3401    5.0081   15.2829 O   0  0  0  0  0  0  0  0  0  0  0  0
   21.5297    6.1655   15.0120 C   0  0  1  0  0  0  0  0  0  0  0  0
   19.2458    1.1359    8.5175 N   0  0  0  0  0  0  0  0  0  0  0  0
   20.1537    5.8129   14.7989 O   0  0  0  0  0  0  0  0  0  0  0  0
   19.6881    6.0795   13.4677 C   0  0  2  0  0  0  0  0  0  0  0  0
   19.2322    1.9549   14.9887 N   0  0  0  0  0  0  0  0  0  0  0  0
   20.3005    8.4119   13.6331 O   0  0  0  0  0  0  0  0  0  0  0  0
   19.1914    7.5296   13.4409 C   0  0  1  0  0  0  0  0  0  0  0  0
   19.0674    3.7671   12.8770 O   0  0  0  0  0  0  0  0  0  0  0  0
   18.5204    7.8483   12.1033 C   0  0  1  0  0  0  0  0  0  0  0  0
   17.6589    2.3435   11.6411 O   0  0  0  0  0  0  0  0  0  0  0  0
   17.2923    6.9536   11.9333 C   0  0  0  0  0  0  0  0  0  0  0  0
   20.4044    0.1192   10.6458 O   0  0  0  0  0  0  0  0  0  0  0  0
   17.7375    5.4884   11.9112 C   0  0  1  0  0  0  0  0  0  0  0  0
   20.2337   -0.3224   13.4814 O   0  0  0  0  0  0  0  0  0  0  0  0
   18.5728    5.0929   13.1349 C   0  0  2  0  0  0  0  0  0  0  0  0
   21.2785    8.3437   16.1301 O   0  0  0  0  0  0  0  0  0  0  0  0
   18.0790    2.7286   12.9631 C   0  0  1  0  0  0  0  0  0  0  0  0
   23.8443    7.7750   15.8286 O   0  0  0  0  0  0  0  0  0  0  0  0
   18.7177    1.8401   10.8088 C   0  0  2  0  0  0  0  0  0  0  0  0
   18.1478    1.4806    9.4346 C   0  0  0  0  0  0  0  0  0  0  0  0
   19.3105    0.5805   11.4431 C   0  0  2  0  0  0  0  0  0  0  0  0
   19.8101    0.8932   12.8551 C   0  0  1  0  0  0  0  0  0  0  0  0
   18.6932    1.5268   13.6887 C   0  0  1  0  0  0  0  0  0  0  0  0
   21.6256    6.9684   16.3077 C   0  0  2  0  0  0  0  0  0  0  0  0
   23.1135    6.8322   16.6167 C   0  0  1  0  0  0  0  0  0  0  0  0
  1  3  1  0  0  0  0
  4  1  1  1  0  0  0
  4  6  1  0  0  0  0
  4 31  1  0  0  0  0
  6  7  1  0  0  0  0
  7  9  1  1  0  0  0
  7 30  1  0  0  0  0
  8 26  1  0  0  0  0
 10  9  1  1  0  0  0
 10 13  1  0  0  0  0
 10 21  1  0  0  0  0
 13 12  1  6  0  0  0
 13 15  1  0  0  0  0
 15  2  1  1  0  0  0
 15 17  1  0  0  0  0
 16 25  1  0  0  0  0
 16 23  1  0  0  0  0
 17 19  1  0  0  0  0
 19  5  1  1  0  0  0
 19 21  1  0  0  0  0
 21 14  1  6  0  0  0
 23 14  1  6  0  0  0
 23 29  1  0  0  0  0
 25 26  1  6  0  0  0
 25 27  1  0  0  0  0
 27 18  1  6  0  0  0
 27 28  1  0  0  0  0
 28 20  1  1  0  0  0
 28 29  1  0  0  0  0
 29 11  1  1  0  0  0
 30 22  1  6  0  0  0
 30 31  1  0  0  0  0
 31 24  1  6  0  0  0
M  END
>  <CHROM.1>
-59.65280149,-114.88008649,-87.45104956,101.39301623,161.84149301,172.45579157
19.95265539,4.53703364,13.53456286,-0.92077947,0.82876485,-2.94070739

>  <Name>
ligand

>  <RI>
0

>  <Rbt.Current_Directory>
/home/itssahil/PROJECTS/Mol_Feturizer/New_Systems/rnas/3DVV

>  <Rbt.Executable>
rbdock ($Id: //depot/dev/client3/rdock/2013.1/src/exe/rbdock.cxx#4 $)

>  <Rbt.Library>
libRbt.so (2013.1, Build901 2013/11/27)

>  <Rbt.Parameter_File>
/export/apps/rDock/src/rDock_2013.1_src/data/scripts/dock_solv.prm

>  <Rbt.Receptor>
prm/blind_docking_80.prm

>  <SCORE>
0.586594

>  <SCORE.INTER>
-5.86268

>  <SCORE.INTER.CONST>
1

>  <SCORE.INTER.POLAR>
0

>  <SCORE.INTER.ROT>
6

>  <SCORE.INTER.SOLV>
16.025

>  <SCORE.INTER.VDW>
-16.8501

>  <SCORE.INTER.norm>
-0.189119

>  <SCORE.INTRA>
6.44927

>  <SCORE.INTRA.DIHEDRAL>
6.62502

>  <SCORE.INTRA.DIHEDRAL.0>
10.8172

>  <SCORE.INTRA.POLAR>
0

>  <SCORE.INTRA.POLAR.0>
0

>  <SCORE.INTRA.REPUL>
0.0083623

>  <SCORE.INTRA.REPUL.0>
0

>  <SCORE.INTRA.SOLV>
0.121194

>  <SCORE.INTRA.SOLV.lig_0>
-80.3833

>  <SCORE.INTRA.VDW>
3.03436

>  <SCORE.INTRA.VDW.0>
-4.63762

>  <SCORE.INTRA.norm>
0.208041

>  <SCORE.RESTR>
0

>  <SCORE.RESTR.CAVITY>
0

>  <SCORE.RESTR.norm>
0

>  <SCORE.SYSTEM>
0

>  <SCORE.SYSTEM.CONST>
0

>  <SCORE.SYSTEM.DIHEDRAL>
0

>  <SCORE.SYSTEM.SOLV>
0

>  <SCORE.SYSTEM.norm>
0

>  <SCORE.heavy>
31

>  <SCORE.norm>
0.0189224

>  <RMSD>
6.947

$$$$
ligand
 OpenBabel11021811473D
libRbt.so/2013.1/901 2013/11/27
 31 33  0  0  0  0  0  0  0  0999 V2000
   22.2225    5.1549   17.2968 C   0  0  0  0  0  0  0  0  0  0  0  0
   16.2892    5.4571   12.3705 N   0  0  0  0  0  0  0  0  0  0  0  0
   21.8255    3.7800   17.2661 O   0  0  0  0  0  0  0  0  0  0  0  0
   21.9428    5.8151   15.9443 C   0  0  1  0  0  0  0  0  0  0  0  0
   14.1965    6.7086   16.6082 N   0  0  0  0  0  0  0  0  0  0  0  0
   20.5228    5.8811   15.7081 O   0  0  0  0  0  0  0  0  0  0  0  0
   20.1676    7.2470   15.4290 C   0  0  1  0  0  0  0  0  0  0  0  0
   15.7851   10.9249   17.0284 N   0  0  0  0  0  0  0  0  0  0  0  0
   18.8549    7.5653   15.9174 O   0  0  0  0  0  0  0  0  0  0  0  0
   17.8821    6.5389   15.6719 C   0  0  2  0  0  0  0  0  0  0  0  0
   17.8984    5.7060   20.2356 N   0  0  0  0  0  0  0  0  0  0  0  0
   18.8095    6.0685   13.4899 O   0  0  0  0  0  0  0  0  0  0  0  0
   17.6251    6.5072   14.1608 C   0  0  1  0  0  0  0  0  0  0  0  0
   16.7594    6.6310   17.8655 O   0  0  0  0  0  0  0  0  0  0  0  0
   16.4750    5.5553   13.8263 C   0  0  1  0  0  0  0  0  0  0  0  0
   17.4333    8.8445   18.2951 O   0  0  0  0  0  0  0  0  0  0  0  0
   15.1937    6.0667   14.4854 C   0  0  0  0  0  0  0  0  0  0  0  0
   14.7951    9.4034   20.7859 O   0  0  0  0  0  0  0  0  0  0  0  0
   15.3812    6.0792   16.0054 C   0  0  1  0  0  0  0  0  0  0  0  0
   16.4710    7.4532   22.0715 O   0  0  0  0  0  0  0  0  0  0  0  0
   16.6153    6.8710   16.4547 C   0  0  2  0  0  0  0  0  0  0  0  0
   21.3219    9.3921   15.7810 O   0  0  0  0  0  0  0  0  0  0  0  0
   17.7370    7.4553   18.5195 C   0  0  1  0  0  0  0  0  0  0  0  0
   22.9740    7.6503   14.6699 O   0  0  0  0  0  0  0  0  0  0  0  0
   16.1472    9.2546   18.7902 C   0  0  2  0  0  0  0  0  0  0  0  0
   15.9403   10.7390   18.4800 C   0  0  0  0  0  0  0  0  0  0  0  0
   16.0963    9.0546   20.3060 C   0  0  2  0  0  0  0  0  0  0  0  0
   16.3869    7.5922   20.6493 C   0  0  1  0  0  0  0  0  0  0  0  0
   17.7107    7.1489   20.0207 C   0  0  1  0  0  0  0  0  0  0  0  0
   21.1884    8.0443   16.2382 C   0  0  2  0  0  0  0  0  0  0  0  0
   22.4614    7.2559   15.9451 C   0  0  1  0  0  0  0  0  0  0  0  0
  1  3  1  0  0  0  0
  4  1  1  1  0  0  0
  4  6  1  0  0  0  0
  4 31  1  0  0  0  0
  6  7  1  0  0  0  0
  7  9  1  1  0  0  0
  7 30  1  0  0  0  0
  8 26  1  0  0  0  0
 10  9  1  6  0  0  0
 10 13  1  0  0  0  0
 10 21  1  0  0  0  0
 13 12  1  6  0  0  0
 13 15  1  0  0  0  0
 15  2  1  6  0  0  0
 15 17  1  0  0  0  0
 16 25  1  0  0  0  0
 16 23  1  0  0  0  0
 17 19  1  0  0  0  0
 19  5  1  1  0  0  0
 19 21  1  0  0  0  0
 21 14  1  1  0  0  0
 23 14  1  6  0  0  0
 23 29  1  0  0  0  0
 25 26  1  1  0  0  0
 25 27  1  0  0  0  0
 27 18  1  6  0  0  0
 27 28  1  0  0  0  0
 28 20  1  1  0  0  0
 28 29  1  0  0  0  0
 29 11  1  6  0  0  0
 30 22  1  6  0  0  0
 30 31  1  0  0  0  0
 31 24  1  6  0  0  0
M  END
>  <CHROM.1>
66.48448429,-42.44156006,-69.49650352,56.03581327,64.00442661,68.93856875
18.13902349,7.22445521,16.98669214,-0.74505473,-0.12987705,1.25078794

>  <Name>
ligand

>  <RI>
0

>  <Rbt.Current_Directory>
/home/itssahil/PROJECTS/Mol_Feturizer/New_Systems/rnas/3DVV

>  <Rbt.Executable>
rbdock ($Id: //depot/dev/client3/rdock/2013.1/src/exe/rbdock.cxx#4 $)

>  <Rbt.Library>
libRbt.so (2013.1, Build901 2013/11/27)

>  <Rbt.Parameter_File>
/export/apps/rDock/src/rDock_2013.1_src/data/scripts/dock_solv.prm

>  <Rbt.Receptor>
prm/pocket_docking_7.prm

>  <SCORE>
-8.27352

>  <SCORE.INTER>
-5.3856

>  <SCORE.INTER.CONST>
1

>  <SCORE.INTER.POLAR>
0

>  <SCORE.INTER.ROT>
6

>  <SCORE.INTER.SOLV>
11.7854

>  <SCORE.INTER.VDW>
-15.1189

>  <SCORE.INTER.norm>
-0.173729

>  <SCORE.INTRA>
-2.88791

>  <SCORE.INTRA.DIHEDRAL>
-8.15888

>  <SCORE.INTRA.DIHEDRAL.0>
10.8172

>  <SCORE.INTRA.POLAR>
0

>  <SCORE.INTRA.POLAR.0>
0

>  <SCORE.INTRA.REPUL>
0

>  <SCORE.INTRA.REPUL.0>
0

>  <SCORE.INTRA.SOLV>
-4.17069

>  <SCORE.INTRA.SOLV.lig_0>
-80.3833

>  <SCORE.INTRA.VDW>
3.27687

>  <SCORE.INTRA.VDW.0>
-4.63762

>  <SCORE.INTRA.norm>
-0.0931585

>  <SCORE.RESTR>
0

>  <SCORE.RESTR.CAVITY>
0

>  <SCORE.RESTR.norm>
0

>  <SCORE.SYSTEM>
0

>  <SCORE.SYSTEM.CONST>
0

>  <SCORE.SYSTEM.DIHEDRAL>
0

>  <SCORE.SYSTEM.SOLV>
0

>  <SCORE.SYSTEM.norm>
0

>  <SCORE.heavy>
31

>  <SCORE.norm>
-0.266888

>  <RMSD>
6.948

$$$$
ligand
 OpenBabel11021811473D
libRbt.so/2013.1/901 2013/11/27
 31 33  0  0  0  0  0  0  0  0999 V2000
   16.9251    3.2680    9.7326 C   0  0  0  0  0  0  0  0  0  0  0  0
   22.3268    4.1480   16.6310 N   0  0  0  0  0  0  0  0  0  0  0  0
   16.3563    2.2340    8.9225 O   0  0  0  0  0  0  0  0  0  0  0  0
   18.0729    2.7065   10.5755 C   0  0  1  0  0  0  0  0  0  0  0  0
   20.3170    8.5022   15.6793 N   0  0  0  0  0  0  0  0  0  0  0  0
   18.7134    3.7668   11.3118 O   0  0  0  0  0  0  0  0  0  0  0  0
   18.7187    3.4175   12.7074 C   0  0  1  0  0  0  0  0  0  0  0  0
   14.6593    8.8952   14.5328 N   0  0  0  0  0  0  0  0  0  0  0  0
   18.5977    4.5772   13.5461 O   0  0  0  0  0  0  0  0  0  0  0  0
   19.8566    5.1691   13.8993 C   0  0  2  0  0  0  0  0  0  0  0  0
   19.0018    8.0167   10.4884 N   0  0  0  0  0  0  0  0  0  0  0  0
   20.7707    3.0299   14.5557 O   0  0  0  0  0  0  0  0  0  0  0  0
   20.4470    4.3352   15.0423 C   0  0  1  0  0  0  0  0  0  0  0  0
   19.3321    7.4759   13.2030 O   0  0  0  0  0  0  0  0  0  0  0  0
   21.7119    4.9938   15.5967 C   0  0  1  0  0  0  0  0  0  0  0  0
   17.0181    7.6139   13.6086 O   0  0  0  0  0  0  0  0  0  0  0  0
   21.3502    6.3591   16.1821 C   0  0  0  0  0  0  0  0  0  0  0  0
   16.9831   11.2820   13.4663 O   0  0  0  0  0  0  0  0  0  0  0  0
   20.7918    7.2509   15.0692 C   0  0  1  0  0  0  0  0  0  0  0  0
   17.6034   10.5533   10.7554 O   0  0  0  0  0  0  0  0  0  0  0  0
   19.6140    6.6154   14.3206 C   0  0  2  0  0  0  0  0  0  0  0  0
   17.4723    1.7596   14.0324 O   0  0  0  0  0  0  0  0  0  0  0  0
   18.0267    7.3077   12.6281 C   0  0  1  0  0  0  0  0  0  0  0  0
   18.4315    0.6275   11.8424 O   0  0  0  0  0  0  0  0  0  0  0  0
   17.0775    8.9578   14.1162 C   0  0  2  0  0  0  0  0  0  0  0  0
   15.9688    9.1517   15.1533 C   0  0  0  0  0  0  0  0  0  0  0  0
   16.8602    9.9467   12.9694 C   0  0  2  0  0  0  0  0  0  0  0  0
   17.9054    9.7154   11.8762 C   0  0  1  0  0  0  0  0  0  0  0  0
   17.8947    8.2515   11.4281 C   0  0  1  0  0  0  0  0  0  0  0  0
   17.4518    2.5784   12.8608 C   0  0  2  0  0  0  0  0  0  0  0  0
   17.5309    1.7128   11.6069 C   0  0  1  0  0  0  0  0  0  0  0  0
  1  3  1  0  0  0  0
  4  1  1  1  0  0  0
  4  6  1  0  0  0  0
  4 31  1  0  0  0  0
  6  7  1  0  0  0  0
  7  9  1  1  0  0  0
  7 30  1  0  0  0  0
  8 26  1  0  0  0  0
 10  9  1  1  0  0  0
 10 13  1  0  0  0  0
 10 21  1  0  0  0  0
 13 12  1  6  0  0  0
 13 15  1  0  0  0  0
 15  2  1  1  0  0  0
 15 17  1  0  0  0  0
 16 25  1  0  0  0  0
 16 23  1  0  0  0  0
 17 19  1  0  0  0  0
 19  5  1  1  0  0  0
 19 21  1  0  0  0  0
 21 14  1  6  0  0  0
 23 14  1  1  0  0  0
 23 29  1  0  0  0  0
 25 26  1  1  0  0  0
 25 27  1  0  0  0  0
 27 18  1  1  0  0  0
 27 28  1  0  0  0  0
 28 20  1  6  0  0  0
 28 29  1  0  0  0  0
 29 11  1  6  0  0  0
 30 22  1  1  0  0  0
 30 31  1  0  0  0  0
 31 24  1  1  0  0  0
M  END
>  <CHROM.1>
175.50383903,-89.51396323,-79.72387133,61.55598496,73.52347611,-58.94095286
18.48560737,5.91371053,13.14238748,1.37241611,0.84541324,-2.84253927

>  <Name>
ligand

>  <RI>
0

>  <Rbt.Current_Directory>
/home/itssahil/PROJECTS/Mol_Feturizer/New_Systems/rnas/3DVV

>  <Rbt.Executable>
rbdock ($Id: //depot/dev/client3/rdock/2013.1/src/exe/rbdock.cxx#4 $)

>  <Rbt.Library>
libRbt.so (2013.1, Build901 2013/11/27)

>  <Rbt.Parameter_File>
/export/apps/rDock/src/rDock_2013.1_src/data/scripts/dock_solv.prm

>  <Rbt.Receptor>
prm/blind_docking_40.prm

>  <SCORE>
-0.449859

>  <SCORE.INTER>
0.323039

>  <SCORE.INTER.CONST>
1

>  <SCORE.INTER.POLAR>
0

>  <SCORE.INTER.ROT>
6

>  <SCORE.INTER.SOLV>
10.8062

>  <SCORE.INTER.VDW>
-10.9867

>  <SCORE.INTER.norm>
0.0104206

>  <SCORE.INTRA>
-1.63438

>  <SCORE.INTRA.DIHEDRAL>
-4.50929

>  <SCORE.INTRA.DIHEDRAL.0>
10.8172

>  <SCORE.INTRA.POLAR>
0

>  <SCORE.INTRA.POLAR.0>
0

>  <SCORE.INTRA.REPUL>
0

>  <SCORE.INTRA.REPUL.0>
0

>  <SCORE.INTRA.SOLV>
-2.36363

>  <SCORE.INTRA.SOLV.lig_0>
-80.3833

>  <SCORE.INTRA.VDW>
1.80208

>  <SCORE.INTRA.VDW.0>
-4.63762

>  <SCORE.INTRA.norm>
-0.0527221

>  <SCORE.RESTR>
0.861486

>  <SCORE.RESTR.CAVITY>
0.861486

>  <SCORE.RESTR.norm>
0.0277899

>  <SCORE.SYSTEM>
0

>  <SCORE.SYSTEM.CONST>
0

>  <SCORE.SYSTEM.DIHEDRAL>
0

>  <SCORE.SYSTEM.SOLV>
0

>  <SCORE.SYSTEM.norm>
0

>  <SCORE.heavy>
31

>  <SCORE.norm>
-0.0145116

>  <RMSD>
6.950

$$$$
ligand
 OpenBabel11021811473D
libRbt.so/2013.1/901 2013/11/27
 31 33  0  0  0  0  0  0  0  0999 V2000
   19.3948    2.2076   10.7340 C   0  0  0  0  0  0  0  0  0  0  0  0
   23.2835    5.5143   17.4089 N   0  0  0  0  0  0  0  0  0  0  0  0
   19.1315    0.9987   10.0142 O   0  0  0  0  0  0  0  0  0  0  0  0
   20.1152    1.8932   12.0476 C   0  0  1  0  0  0  0  0  0  0  0  0
   20.3666    8.9762   15.5621 N   0  0  0  0  0  0  0  0  0  0  0  0
   20.4693    3.1150   12.7246 O   0  0  0  0  0  0  0  0  0  0  0  0
   19.9320    3.0721   14.0585 C   0  0  1  0  0  0  0  0  0  0  0  0
   15.2471    9.2464   14.9928 N   0  0  0  0  0  0  0  0  0  0  0  0
   19.5470    4.3771   14.5187 O   0  0  0  0  0  0  0  0  0  0  0  0
   20.6459    5.2906   14.6521 C   0  0  2  0  0  0  0  0  0  0  0  0
   19.5765    6.9261   10.6835 N   0  0  0  0  0  0  0  0  0  0  0  0
   22.0077    3.6202   15.7465 O   0  0  0  0  0  0  0  0  0  0  0  0
   21.4064    4.9053   15.9263 C   0  0  1  0  0  0  0  0  0  0  0  0
   19.6275    7.1926   13.4578 O   0  0  0  0  0  0  0  0  0  0  0  0
   22.4967    5.9322   16.2385 C   0  0  1  0  0  0  0  0  0  0  0  0
   17.3780    6.5305   13.6572 O   0  0  0  0  0  0  0  0  0  0  0  0
   21.8453    7.2900   16.5020 C   0  0  0  0  0  0  0  0  0  0  0  0
   16.0874    9.7704   12.5112 O   0  0  0  0  0  0  0  0  0  0  0  0
   21.1034    7.7443   15.2415 C   0  0  1  0  0  0  0  0  0  0  0  0
   17.3565    8.7287   10.1514 O   0  0  0  0  0  0  0  0  0  0  0  0
   20.0927    6.7103   14.7306 C   0  0  2  0  0  0  0  0  0  0  0  0
   18.2139    1.6785   15.1372 O   0  0  0  0  0  0  0  0  0  0  0  0
   18.5756    6.4135   12.8668 C   0  0  1  0  0  0  0  0  0  0  0  0
   19.8869    0.1514   13.7709 O   0  0  0  0  0  0  0  0  0  0  0  0
   16.8806    7.8739   13.7790 C   0  0  2  0  0  0  0  0  0  0  0  0
   15.6207    7.8654   14.6480 C   0  0  0  0  0  0  0  0  0  0  0  0
   16.5216    8.4130   12.3931 C   0  0  2  0  0  0  0  0  0  0  0  0
   17.7451    8.3511   11.4764 C   0  0  1  0  0  0  0  0  0  0  0  0
   18.3198    6.9324   11.4478 C   0  0  1  0  0  0  0  0  0  0  0  0
   18.6702    2.2267   13.8984 C   0  0  2  0  0  0  0  0  0  0  0  0
   19.1851    1.1181   12.9851 C   0  0  1  0  0  0  0  0  0  0  0  0
  1  3  1  0  0  0  0
  4  1  1  6  0  0  0
  4  6  1  0  0  0  0
  4 31  1  0  0  0  0
  6  7  1  0  0  0  0
  7  9  1  6  0  0  0
  7 30  1  0  0  0  0
  8 26  1  0  0  0  0
 10  9  1  1  0  0  0
 10 13  1  0  0  0  0
 10 21  1  0  0  0  0
 13 12  1  6  0  0  0
 13 15  1  0  0  0  0
 15  2  1  1  0  0  0
 15 17  1  0  0  0  0
 16 25  1  0  0  0  0
 16 23  1  0  0  0  0
 17 19  1  0  0  0  0
 19  5  1  1  0  0  0
 19 21  1  0  0  0  0
 21 14  1  6  0  0  0
 23 14  1  1  0  0  0
 23 29  1  0  0  0  0
 25 26  1  1  0  0  0
 25 27  1  0  0  0  0
 27 18  1  1  0  0  0
 27 28  1  0  0  0  0
 28 20  1  6  0  0  0
 28 29  1  0  0  0  0
 29 11  1  6  0  0  0
 30 22  1  1  0  0  0
 30 31  1  0  0  0  0
 31 24  1  1  0  0  0
M  END
>  <CHROM.1>
175.72287162,-64.36800565,-75.78247752,67.14619535,59.84574103,169.32183147
19.23178280,5.47831302,13.65267787,0.94152645,0.79952056,-2.74020262

>  <Name>
ligand

>  <RI>
0

>  <Rbt.Current_Directory>
/home/itssahil/PROJECTS/Mol_Feturizer/New_Systems/rnas/3DVV

>  <Rbt.Executable>
rbdock ($Id: //depot/dev/client3/rdock/2013.1/src/exe/rbdock.cxx#4 $)

>  <Rbt.Library>
libRbt.so (2013.1, Build901 2013/11/27)

>  <Rbt.Parameter_File>
/export/apps/rDock/src/rDock_2013.1_src/data/scripts/dock_solv.prm

>  <Rbt.Receptor>
prm/pocket_docking_7.prm

>  <SCORE>
-5.91521

>  <SCORE.INTER>
-2.55536

>  <SCORE.INTER.CONST>
1

>  <SCORE.INTER.POLAR>
0

>  <SCORE.INTER.ROT>
6

>  <SCORE.INTER.SOLV>
19.955

>  <SCORE.INTER.VDW>
-15.9552

>  <SCORE.INTER.norm>
-0.0824311

>  <SCORE.INTRA>
-3.35984

>  <SCORE.INTRA.DIHEDRAL>
-8.58206

>  <SCORE.INTRA.DIHEDRAL.0>
10.8172

>  <SCORE.INTRA.POLAR>
0

>  <SCORE.INTRA.POLAR.0>
0

>  <SCORE.INTRA.REPUL>
0

>  <SCORE.INTRA.REPUL.0>
0

>  <SCORE.INTRA.SOLV>
-3.55655

>  <SCORE.INTRA.SOLV.lig_0>
-80.3833

>  <SCORE.INTRA.VDW>
2.70946

>  <SCORE.INTRA.VDW.0>
-4.63762

>  <SCORE.INTRA.norm>
-0.108382

>  <SCORE.RESTR>
0

>  <SCORE.RESTR.CAVITY>
0

>  <SCORE.RESTR.norm>
0

>  <SCORE.SYSTEM>
0

>  <SCORE.SYSTEM.CONST>
0

>  <SCORE.SYSTEM.DIHEDRAL>
0

>  <SCORE.SYSTEM.SOLV>
0

>  <SCORE.SYSTEM.norm>
0

>  <SCORE.heavy>
31

>  <SCORE.norm>
-0.190813

>  <RMSD>
6.952

$$$$
ligand
 OpenBabel11021811473D
libRbt.so/2013.1/901 2013/11/27
 31 33  0  0  0  0  0  0  0  0999 V2000
   16.2817    8.8928   13.0716 C   0  0  0  0  0  0  0  0  0  0  0  0
   22.2881    4.9322   16.8280 N   0  0  0  0  0  0  0  0  0  0  0  0
   16.2936    8.0491   11.9154 O   0  0  0  0  0  0  0  0  0  0  0  0
   17.7006    9.0510   13.6239 C   0  0  1  0  0  0  0  0  0  0  0  0
   20.3932    1.5859   13.8089 N   0  0  0  0  0  0  0  0  0  0  0  0
   18.2504    7.7615   13.9574 O   0  0  0  0  0  0  0  0  0  0  0  0
   19.5059    7.6073   13.2721 C   0  0  1  0  0  0  0  0  0  0  0  0
   20.9066    1.4805    9.7597 N   0  0  0  0  0  0  0  0  0  0  0  0
   19.7444    6.2406   12.9005 O   0  0  0  0  0  0  0  0  0  0  0  0
   19.7372    5.3301   14.0100 C   0  0  2  0  0  0  0  0  0  0  0  0
   15.9191    4.5325   12.5030 N   0  0  0  0  0  0  0  0  0  0  0  0
   20.8569    6.9296   15.4349 O   0  0  0  0  0  0  0  0  0  0  0  0
   20.9825    5.6293   14.8527 C   0  0  1  0  0  0  0  0  0  0  0  0
   18.4783    3.5100   12.9220 O   0  0  0  0  0  0  0  0  0  0  0  0
   21.1456    4.5927   15.9661 C   0  0  1  0  0  0  0  0  0  0  0  0
   18.9127    3.3946   10.6119 O   0  0  0  0  0  0  0  0  0  0  0  0
   21.3524    3.2134   15.3400 C   0  0  0  0  0  0  0  0  0  0  0  0
   16.8574    0.3887   10.1465 O   0  0  0  0  0  0  0  0  0  0  0  0
   20.1146    2.8446   14.5170 C   0  0  1  0  0  0  0  0  0  0  0  0
   14.9044    2.3879   10.8202 O   0  0  0  0  0  0  0  0  0  0  0  0
   19.7489    3.9033   13.4696 C   0  0  2  0  0  0  0  0  0  0  0  0
   20.5463    8.7870   11.3790 O   0  0  0  0  0  0  0  0  0  0  0  0
   18.1732    4.0800   11.6395 C   0  0  1  0  0  0  0  0  0  0  0  0
   19.5963   10.5371   13.1203 O   0  0  0  0  0  0  0  0  0  0  0  0
   18.6282    1.9883   10.5189 C   0  0  2  0  0  0  0  0  0  0  0  0
   19.4820    1.3764    9.4057 C   0  0  0  0  0  0  0  0  0  0  0  0
   17.1509    1.7880   10.1757 C   0  0  2  0  0  0  0  0  0  0  0  0
   16.2739    2.4671   11.2296 C   0  0  1  0  0  0  0  0  0  0  0  0
   16.6687    3.9380   11.3857 C   0  0  1  0  0  0  0  0  0  0  0  0
   19.3093    8.4252   11.9974 C   0  0  2  0  0  0  0  0  0  0  0  0
   18.6146    9.6625   12.5583 C   0  0  1  0  0  0  0  0  0  0  0  0
  1  3  1  0  0  0  0
  4  1  1  6  0  0  0
  4  6  1  0  0  0  0
  4 31  1  0  0  0  0
  6  7  1  0  0  0  0
  7  9  1  6  0  0  0
  7 30  1  0  0  0  0
  8 26  1  0  0  0  0
 10  9  1  6  0  0  0
 10 13  1  0  0  0  0
 10 21  1  0  0  0  0
 13 12  1  1  0  0  0
 13 15  1  0  0  0  0
 15  2  1  6  0  0  0
 15 17  1  0  0  0  0
 16 25  1  0  0  0  0
 16 23  1  0  0  0  0
 17 19  1  0  0  0  0
 19  5  1  6  0  0  0
 19 21  1  0  0  0  0
 21 14  1  1  0  0  0
 23 14  1  1  0  0  0
 23 29  1  0  0  0  0
 25 26  1  6  0  0  0
 25 27  1  0  0  0  0
 27 18  1  1  0  0  0
 27 28  1  0  0  0  0
 28 20  1  6  0  0  0
 28 29  1  0  0  0  0
 29 11  1  1  0  0  0
 30 22  1  1  0  0  0
 30 31  1  0  0  0  0
 31 24  1  1  0  0  0
M  END
>  <CHROM.1>
-58.34245285,-57.75263845,-69.03385531,76.87076630,74.97861198,64.23420757
18.84687697,5.04291160,12.66187702,1.32170811,-0.71308347,0.23167346

>  <Name>
ligand

>  <RI>
0

>  <Rbt.Current_Directory>
/home/itssahil/PROJECTS/Mol_Feturizer/New_Systems/rnas/3DVV

>  <Rbt.Executable>
rbdock ($Id: //depot/dev/client3/rdock/2013.1/src/exe/rbdock.cxx#4 $)

>  <Rbt.Library>
libRbt.so (2013.1, Build901 2013/11/27)

>  <Rbt.Parameter_File>
/export/apps/rDock/src/rDock_2013.1_src/data/scripts/dock_solv.prm

>  <Rbt.Receptor>
prm/blind_docking_60.prm

>  <SCORE>
-2.00062

>  <SCORE.INTER>
0.519486

>  <SCORE.INTER.CONST>
1

>  <SCORE.INTER.POLAR>
0

>  <SCORE.INTER.ROT>
6

>  <SCORE.INTER.SOLV>
18.2485

>  <SCORE.INTER.VDW>
-13.3365

>  <SCORE.INTER.norm>
0.0167576

>  <SCORE.INTRA>
-2.5398

>  <SCORE.INTRA.DIHEDRAL>
-7.70895

>  <SCORE.INTRA.DIHEDRAL.0>
10.8172

>  <SCORE.INTRA.POLAR>
0

>  <SCORE.INTRA.POLAR.0>
0

>  <SCORE.INTRA.REPUL>
0

>  <SCORE.INTRA.REPUL.0>
0

>  <SCORE.INTRA.SOLV>
-2.16089

>  <SCORE.INTRA.SOLV.lig_0>
-80.3833

>  <SCORE.INTRA.VDW>
2.39512

>  <SCORE.INTRA.VDW.0>
-4.63762

>  <SCORE.INTRA.norm>
-0.0819289

>  <SCORE.RESTR>
0.0196903

>  <SCORE.RESTR.CAVITY>
0.0196903

>  <SCORE.RESTR.norm>
0.000635173

>  <SCORE.SYSTEM>
0

>  <SCORE.SYSTEM.CONST>
0

>  <SCORE.SYSTEM.DIHEDRAL>
0

>  <SCORE.SYSTEM.SOLV>
0

>  <SCORE.SYSTEM.norm>
0

>  <SCORE.heavy>
31

>  <SCORE.norm>
-0.0645361

>  <RMSD>
6.956

$$$$
ligand
 OpenBabel11021811473D
libRbt.so/2013.1/901 2013/11/27
 31 33  0  0  0  0  0  0  0  0999 V2000
   21.4972    6.0619   16.3508 C   0  0  0  0  0  0  0  0  0  0  0  0
   16.5099    7.6343   12.6362 N   0  0  0  0  0  0  0  0  0  0  0  0
   22.5309    5.8365   15.3867 O   0  0  0  0  0  0  0  0  0  0  0  0
   20.3043    5.1449   16.0693 C   0  0  1  0  0  0  0  0  0  0  0  0
   15.5703    2.9535   11.5824 N   0  0  0  0  0  0  0  0  0  0  0  0
   19.8017    5.3779   14.7390 O   0  0  0  0  0  0  0  0  0  0  0  0
   19.7760    4.1248   14.0327 C   0  0  1  0  0  0  0  0  0  0  0  0
   20.5570   -0.7290    7.7206 N   0  0  0  0  0  0  0  0  0  0  0  0
   20.0426    4.2985   12.6321 O   0  0  0  0  0  0  0  0  0  0  0  0
   18.9092    4.7570   11.8803 C   0  0  2  0  0  0  0  0  0  0  0  0
   18.1922    1.4528   13.3961 N   0  0  0  0  0  0  0  0  0  0  0  0
   19.2715    7.0439   12.5741 O   0  0  0  0  0  0  0  0  0  0  0  0
   18.3307    5.9678   12.6218 C   0  0  1  0  0  0  0  0  0  0  0  0
   18.3090    2.5955   10.8562 O   0  0  0  0  0  0  0  0  0  0  0  0
   17.0167    6.4190   11.9808 C   0  0  1  0  0  0  0  0  0  0  0  0
   17.7796    0.5548    9.8106 O   0  0  0  0  0  0  0  0  0  0  0  0
   15.9896    5.2926   12.0978 C   0  0  0  0  0  0  0  0  0  0  0  0
   21.1498   -0.8214   10.2839 O   0  0  0  0  0  0  0  0  0  0  0  0
   16.5002    4.0661   11.3359 C   0  0  1  0  0  0  0  0  0  0  0  0
   20.1558   -0.6517   12.9762 O   0  0  0  0  0  0  0  0  0  0  0  0
   17.8982    3.6187   11.7799 C   0  0  2  0  0  0  0  0  0  0  0  0
   20.8407    1.9427   14.4365 O   0  0  0  0  0  0  0  0  0  0  0  0
   17.6294    1.3394   11.0083 C   0  0  1  0  0  0  0  0  0  0  0  0
   19.7254    2.8286   16.6657 O   0  0  0  0  0  0  0  0  0  0  0  0
   19.1433    0.2501    9.4721 C   0  0  2  0  0  0  0  0  0  0  0  0
   19.1682   -0.5711    8.1808 C   0  0  0  0  0  0  0  0  0  0  0  0
   19.7759   -0.5745   10.5946 C   0  0  2  0  0  0  0  0  0  0  0  0
   19.6856    0.1892   11.9174 C   0  0  1  0  0  0  0  0  0  0  0  0
   18.2371    0.5951   12.2019 C   0  0  1  0  0  0  0  0  0  0  0  0
   20.9391    3.3525   14.6518 C   0  0  2  0  0  0  0  0  0  0  0  0
   20.7422    3.6787   16.1292 C   0  0  1  0  0  0  0  0  0  0  0  0
  1  3  1  0  0  0  0
  4  1  1  6  0  0  0
  4  6  1  0  0  0  0
  4 31  1  0  0  0  0
  6  7  1  0  0  0  0
  7  9  1  6  0  0  0
  7 30  1  0  0  0  0
  8 26  1  0  0  0  0
 10  9  1  1  0  0  0
 10 13  1  0  0  0  0
 10 21  1  0  0  0  0
 13 12  1  6  0  0  0
 13 15  1  0  0  0  0
 15  2  1  1  0  0  0
 15 17  1  0  0  0  0
 16 25  1  0  0  0  0
 16 23  1  0  0  0  0
 17 19  1  0  0  0  0
 19  5  1  1  0  0  0
 19 21  1  0  0  0  0
 21 14  1  6  0  0  0
 23 14  1  6  0  0  0
 23 29  1  0  0  0  0
 25 26  1  6  0  0  0
 25 27  1  0  0  0  0
 27 18  1  6  0  0  0
 27 28  1  0  0  0  0
 28 20  1  1  0  0  0
 28 29  1  0  0  0  0
 29 11  1  1  0  0  0
 30 22  1  1  0  0  0
 30 31  1  0  0  0  0
 31 24  1  6  0  0  0
M  END
>  <CHROM.1>
-58.28752732,-79.42286914,49.65936652,161.41224677,162.18421402,172.10834460
19.14071918,3.02622429,12.53866418,-1.47090393,0.75909381,-2.51568665

>  <Name>
ligand

>  <RI>
0

>  <Rbt.Current_Directory>
/home/itssahil/PROJECTS/Mol_Feturizer/New_Systems/rnas/3DVV

>  <Rbt.Executable>
rbdock ($Id: //depot/dev/client3/rdock/2013.1/src/exe/rbdock.cxx#4 $)

>  <Rbt.Library>
libRbt.so (2013.1, Build901 2013/11/27)

>  <Rbt.Parameter_File>
/export/apps/rDock/src/rDock_2013.1_src/data/scripts/dock_solv.prm

>  <Rbt.Receptor>
prm/blind_docking_100.prm

>  <SCORE>
5.08883

>  <SCORE.INTER>
0.448922

>  <SCORE.INTER.CONST>
1

>  <SCORE.INTER.POLAR>
0

>  <SCORE.INTER.ROT>
6

>  <SCORE.INTER.SOLV>
11.3277

>  <SCORE.INTER.VDW>
-11.0766

>  <SCORE.INTER.norm>
0.0144813

>  <SCORE.INTRA>
4.62333

>  <SCORE.INTRA.DIHEDRAL>
-5.17366

>  <SCORE.INTRA.DIHEDRAL.0>
10.8172

>  <SCORE.INTRA.POLAR>
0

>  <SCORE.INTRA.POLAR.0>
0

>  <SCORE.INTRA.REPUL>
0

>  <SCORE.INTRA.REPUL.0>
0

>  <SCORE.INTRA.SOLV>
4.59604

>  <SCORE.INTRA.SOLV.lig_0>
-80.3833

>  <SCORE.INTRA.VDW>
4.91214

>  <SCORE.INTRA.VDW.0>
-4.63762

>  <SCORE.INTRA.norm>
0.14914

>  <SCORE.RESTR>
0.0165738

>  <SCORE.RESTR.CAVITY>
0.0165738

>  <SCORE.RESTR.norm>
0.000534637

>  <SCORE.SYSTEM>
0

>  <SCORE.SYSTEM.CONST>
0

>  <SCORE.SYSTEM.DIHEDRAL>
0

>  <SCORE.SYSTEM.SOLV>
0

>  <SCORE.SYSTEM.norm>
0

>  <SCORE.heavy>
31

>  <SCORE.norm>
0.164156

>  <RMSD>
6.957

$$$$
ligand
 OpenBabel11021811473D
libRbt.so/2013.1/901 2013/11/27
 31 33  0  0  0  0  0  0  0  0999 V2000
   18.8709    9.7826   13.5076 C   0  0  0  0  0  0  0  0  0  0  0  0
   22.8707    3.0469   15.6188 N   0  0  0  0  0  0  0  0  0  0  0  0
   18.9426   10.7952   12.4985 O   0  0  0  0  0  0  0  0  0  0  0  0
   19.8784    8.6691   13.2102 C   0  0  1  0  0  0  0  0  0  0  0  0
   20.1643    1.8927   11.7141 N   0  0  0  0  0  0  0  0  0  0  0  0
   19.8476    7.6789   14.2566 O   0  0  0  0  0  0  0  0  0  0  0  0
   19.6157    6.3899   13.6612 C   0  0  1  0  0  0  0  0  0  0  0  0
   18.4169   -1.0027   11.3683 N   0  0  0  0  0  0  0  0  0  0  0  0
   18.8452    5.5373   14.5228 O   0  0  0  0  0  0  0  0  0  0  0  0
   19.3645    4.2036   14.6312 C   0  0  2  0  0  0  0  0  0  0  0  0
   16.0659    4.9835   11.9246 N   0  0  0  0  0  0  0  0  0  0  0  0
   20.8450    4.8392   16.4330 O   0  0  0  0  0  0  0  0  0  0  0  0
   20.8192    4.3183   15.1013 C   0  0  1  0  0  0  0  0  0  0  0  0
   17.9130    3.1564   12.9349 O   0  0  0  0  0  0  0  0  0  0  0  0
   21.5046    2.9505   15.0824 C   0  0  1  0  0  0  0  0  0  0  0  0
   17.7324    1.7798   11.0347 O   0  0  0  0  0  0  0  0  0  0  0  0
   21.5406    2.4281   13.6460 C   0  0  0  0  0  0  0  0  0  0  0  0
   14.4982    0.3873   12.0723 O   0  0  0  0  0  0  0  0  0  0  0  0
   20.1060    2.2545   13.1385 C   0  0  1  0  0  0  0  0  0  0  0  0
   13.8543    3.1360   11.5291 O   0  0  0  0  0  0  0  0  0  0  0  0
   19.2622    3.5285   13.2668 C   0  0  2  0  0  0  0  0  0  0  0  0
   18.7911    5.6791   11.4538 O   0  0  0  0  0  0  0  0  0  0  0  0
   17.6252    3.1280   11.5280 C   0  0  1  0  0  0  0  0  0  0  0  0
   20.6515    7.5376   11.1662 O   0  0  0  0  0  0  0  0  0  0  0  0
   16.8327    0.8493   11.6607 C   0  0  2  0  0  0  0  0  0  0  0  0
   17.0533   -0.5418   11.0620 C   0  0  0  0  0  0  0  0  0  0  0  0
   15.3885    1.2784   11.3954 C   0  0  2  0  0  0  0  0  0  0  0  0
   15.1651    2.7027   11.9078 C   0  0  1  0  0  0  0  0  0  0  0  0
   16.2032    3.6550   11.3082 C   0  0  1  0  0  0  0  0  0  0  0  0
   18.7716    6.7212   12.4322 C   0  0  2  0  0  0  0  0  0  0  0  0
   19.5030    7.9539   11.9092 C   0  0  1  0  0  0  0  0  0  0  0  0
  1  3  1  0  0  0  0
  4  1  1  1  0  0  0
  4  6  1  0  0  0  0
  4 31  1  0  0  0  0
  6  7  1  0  0  0  0
  7  9  1  1  0  0  0
  7 30  1  0  0  0  0
  8 26  1  0  0  0  0
 10  9  1  6  0  0  0
 10 13  1  0  0  0  0
 10 21  1  0  0  0  0
 13 12  1  1  0  0  0
 13 15  1  0  0  0  0
 15  2  1  6  0  0  0
 15 17  1  0  0  0  0
 16 25  1  0  0  0  0
 16 23  1  0  0  0  0
 17 19  1  0  0  0  0
 19  5  1  6  0  0  0
 19 21  1  0  0  0  0
 21 14  1  1  0  0  0
 23 14  1  1  0  0  0
 23 29  1  0  0  0  0
 25 26  1  6  0  0  0
 25 27  1  0  0  0  0
 27 18  1  1  0  0  0
 27 28  1  0  0  0  0
 28 20  1  6  0  0  0
 28 29  1  0  0  0  0
 29 11  1  1  0  0  0
 30 22  1  6  0  0  0
 30 31  1  0  0  0  0
 31 24  1  1  0  0  0
M  END
>  <CHROM.1>
177.49605032,-134.30011520,55.97673842,97.35481045,151.56838332,63.50276700
18.59335798,4.22368534,12.80284450,1.04009712,-0.53044726,-0.01944719

>  <Name>
ligand

>  <RI>
0

>  <Rbt.Current_Directory>
/home/itssahil/PROJECTS/Mol_Feturizer/New_Systems/rnas/3DVV

>  <Rbt.Executable>
rbdock ($Id: //depot/dev/client3/rdock/2013.1/src/exe/rbdock.cxx#4 $)

>  <Rbt.Library>
libRbt.so (2013.1, Build901 2013/11/27)

>  <Rbt.Parameter_File>
/export/apps/rDock/src/rDock_2013.1_src/data/scripts/dock_solv.prm

>  <Rbt.Receptor>
prm/blind_docking_40.prm

>  <SCORE>
4.81477

>  <SCORE.INTER>
-1.50545

>  <SCORE.INTER.CONST>
1

>  <SCORE.INTER.POLAR>
0

>  <SCORE.INTER.ROT>
6

>  <SCORE.INTER.SOLV>
15.7923

>  <SCORE.INTER.VDW>
-13.8677

>  <SCORE.INTER.norm>
-0.048563

>  <SCORE.INTRA>
6.24561

>  <SCORE.INTRA.DIHEDRAL>
3.73028

>  <SCORE.INTRA.DIHEDRAL.0>
10.8172

>  <SCORE.INTRA.POLAR>
0

>  <SCORE.INTRA.POLAR.0>
0

>  <SCORE.INTRA.REPUL>
0

>  <SCORE.INTRA.REPUL.0>
0

>  <SCORE.INTRA.SOLV>
2.91444

>  <SCORE.INTRA.SOLV.lig_0>
-80.3833

>  <SCORE.INTRA.VDW>
2.92325

>  <SCORE.INTRA.VDW.0>
-4.63762

>  <SCORE.INTRA.norm>
0.201471

>  <SCORE.RESTR>
0.0746165

>  <SCORE.RESTR.CAVITY>
0.0746165

>  <SCORE.RESTR.norm>
0.00240698

>  <SCORE.SYSTEM>
0

>  <SCORE.SYSTEM.CONST>
0

>  <SCORE.SYSTEM.DIHEDRAL>
0

>  <SCORE.SYSTEM.SOLV>
0

>  <SCORE.SYSTEM.norm>
0

>  <SCORE.heavy>
31

>  <SCORE.norm>
0.155315

>  <RMSD>
6.968

$$$$
ligand
 OpenBabel11021811473D
libRbt.so/2013.1/901 2013/11/27
 31 33  0  0  0  0  0  0  0  0999 V2000
   20.9349    7.7841   16.0688 C   0  0  0  0  0  0  0  0  0  0  0  0
   13.5725    4.8960   13.2351 N   0  0  0  0  0  0  0  0  0  0  0  0
   22.1791    8.3972   15.7153 O   0  0  0  0  0  0  0  0  0  0  0  0
   19.9717    7.8215   14.8797 C   0  0  1  0  0  0  0  0  0  0  0  0
   13.5345    4.6835   18.1194 N   0  0  0  0  0  0  0  0  0  0  0  0
   18.7766    7.0765   15.1849 O   0  0  0  0  0  0  0  0  0  0  0  0
   17.6379    7.9303   14.9748 C   0  0  1  0  0  0  0  0  0  0  0  0
   15.4258    9.8753   20.8398 N   0  0  0  0  0  0  0  0  0  0  0  0
   16.5757    7.6362   15.8958 O   0  0  0  0  0  0  0  0  0  0  0  0
   16.0580    6.3030   15.7746 C   0  0  2  0  0  0  0  0  0  0  0  0
   18.7476    5.1637   19.1848 N   0  0  0  0  0  0  0  0  0  0  0  0
   15.8953    6.4974   13.3707 O   0  0  0  0  0  0  0  0  0  0  0  0
   15.1259    6.2855   14.5575 C   0  0  1  0  0  0  0  0  0  0  0  0
   16.2093    5.6834   18.1566 O   0  0  0  0  0  0  0  0  0  0  0  0
   14.3969    4.9444   14.4522 C   0  0  1  0  0  0  0  0  0  0  0  0
   16.1934    7.8634   19.0428 O   0  0  0  0  0  0  0  0  0  0  0  0
   13.5186    4.7533   15.6888 C   0  0  0  0  0  0  0  0  0  0  0  0
   15.5113    6.7119   22.4611 O   0  0  0  0  0  0  0  0  0  0  0  0
   14.4070    4.7212   16.9359 C   0  0  1  0  0  0  0  0  0  0  0  0
   18.1656    5.7177   21.9804 O   0  0  0  0  0  0  0  0  0  0  0  0
   15.3168    5.9493   17.0604 C   0  0  2  0  0  0  0  0  0  0  0  0
   17.3815   10.3669   14.7400 O   0  0  0  0  0  0  0  0  0  0  0  0
   17.0261    6.7967   18.5515 C   0  0  1  0  0  0  0  0  0  0  0  0
   19.3593    9.5157   13.2032 O   0  0  0  0  0  0  0  0  0  0  0  0
   15.3943    7.5099   20.1846 C   0  0  2  0  0  0  0  0  0  0  0  0
   14.5501    8.7173   20.5991 C   0  0  0  0  0  0  0  0  0  0  0  0
   16.3093    7.1236   21.3481 C   0  0  2  0  0  0  0  0  0  0  0  0
   17.2268    5.9727   20.9302 C   0  0  1  0  0  0  0  0  0  0  0  0
   17.9873    6.3333   19.6513 C   0  0  1  0  0  0  0  0  0  0  0  0
   18.1818    9.3209   15.2958 C   0  0  2  0  0  0  0  0  0  0  0  0
   19.5380    9.2631   14.5992 C   0  0  1  0  0  0  0  0  0  0  0  0
  1  3  1  0  0  0  0
  4  1  1  1  0  0  0
  4  6  1  0  0  0  0
  4 31  1  0  0  0  0
  6  7  1  0  0  0  0
  7  9  1  1  0  0  0
  7 30  1  0  0  0  0
  8 26  1  0  0  0  0
 10  9  1  1  0  0  0
 10 13  1  0  0  0  0
 10 21  1  0  0  0  0
 13 12  1  6  0  0  0
 13 15  1  0  0  0  0
 15  2  1  6  0  0  0
 15 17  1  0  0  0  0
 16 25  1  0  0  0  0
 16 23  1  0  0  0  0
 17 19  1  0  0  0  0
 19  5  1  1  0  0  0
 19 21  1  0  0  0  0
 21 14  1  1  0  0  0
 23 14  1  1  0  0  0
 23 29  1  0  0  0  0
 25 26  1  1  0  0  0
 25 27  1  0  0  0  0
 27 18  1  1  0  0  0
 27 28  1  0  0  0  0
 28 20  1  1  0  0  0
 28 29  1  0  0  0  0
 29 11  1  6  0  0  0
 30 22  1  6  0  0  0
 30 31  1  0  0  0  0
 31 24  1  6  0  0  0
M  END
>  <CHROM.1>
173.68336988,-61.74524083,-78.33745364,63.73133008,62.65793985,-55.43699036
16.84848521,7.04817950,17.17699286,-1.15269736,0.50386246,1.57305568

>  <Name>
ligand

>  <RI>
0

>  <Rbt.Current_Directory>
/home/itssahil/PROJECTS/Mol_Feturizer/New_Systems/rnas/3DVV

>  <Rbt.Executable>
rbdock ($Id: //depot/dev/client3/rdock/2013.1/src/exe/rbdock.cxx#4 $)

>  <Rbt.Library>
libRbt.so (2013.1, Build901 2013/11/27)

>  <Rbt.Parameter_File>
/export/apps/rDock/src/rDock_2013.1_src/data/scripts/dock_solv.prm

>  <Rbt.Receptor>
prm/pocket_docking_6.prm

>  <SCORE>
-3.68055

>  <SCORE.INTER>
-0.110417

>  <SCORE.INTER.CONST>
1

>  <SCORE.INTER.POLAR>
0

>  <SCORE.INTER.ROT>
6

>  <SCORE.INTER.SOLV>
10.8039

>  <SCORE.INTER.VDW>
-11.2749

>  <SCORE.INTER.norm>
-0.00356184

>  <SCORE.INTRA>
-3.57014

>  <SCORE.INTRA.DIHEDRAL>
-8.67853

>  <SCORE.INTRA.DIHEDRAL.0>
10.8172

>  <SCORE.INTRA.POLAR>
0

>  <SCORE.INTRA.POLAR.0>
0

>  <SCORE.INTRA.REPUL>
0

>  <SCORE.INTRA.REPUL.0>
0

>  <SCORE.INTRA.SOLV>
-3.02722

>  <SCORE.INTRA.SOLV.lig_0>
-80.3833

>  <SCORE.INTRA.VDW>
2.28274

>  <SCORE.INTRA.VDW.0>
-4.63762

>  <SCORE.INTRA.norm>
-0.115166

>  <SCORE.RESTR>
0

>  <SCORE.RESTR.CAVITY>
0

>  <SCORE.RESTR.norm>
0

>  <SCORE.SYSTEM>
0

>  <SCORE.SYSTEM.CONST>
0

>  <SCORE.SYSTEM.DIHEDRAL>
0

>  <SCORE.SYSTEM.SOLV>
0

>  <SCORE.SYSTEM.norm>
0

>  <SCORE.heavy>
31

>  <SCORE.norm>
-0.118728

>  <RMSD>
6.972

$$$$
ligand
 OpenBabel11021811473D
libRbt.so/2013.1/901 2013/11/27
 31 33  0  0  0  0  0  0  0  0999 V2000
   19.4938    8.5743   10.4771 C   0  0  0  0  0  0  0  0  0  0  0  0
   24.1392    5.1409   16.2661 N   0  0  0  0  0  0  0  0  0  0  0  0
   20.3411    9.6185    9.9867 O   0  0  0  0  0  0  0  0  0  0  0  0
   20.3296    7.5069   11.1881 C   0  0  1  0  0  0  0  0  0  0  0  0
   19.4714    4.6770   17.6446 N   0  0  0  0  0  0  0  0  0  0  0  0
   21.0463    8.0918   12.2929 O   0  0  0  0  0  0  0  0  0  0  0  0
   20.7343    7.3503   13.4857 C   0  0  1  0  0  0  0  0  0  0  0  0
   15.0884    7.2972   13.8521 N   0  0  0  0  0  0  0  0  0  0  0  0
   20.7230    8.1937   14.6482 O   0  0  0  0  0  0  0  0  0  0  0  0
   21.2004    7.5462   15.8369 C   0  0  2  0  0  0  0  0  0  0  0  0
   18.4138    9.9281   18.0969 N   0  0  0  0  0  0  0  0  0  0  0  0
   23.4848    7.6046   15.0492 O   0  0  0  0  0  0  0  0  0  0  0  0
   22.4311    6.7213   15.4431 C   0  0  1  0  0  0  0  0  0  0  0  0
   19.0436    7.4323   17.0271 O   0  0  0  0  0  0  0  0  0  0  0  0
   22.9063    5.8624   16.6167 C   0  0  1  0  0  0  0  0  0  0  0  0
   17.5583    7.7248   15.2253 O   0  0  0  0  0  0  0  0  0  0  0  0
   21.8050    4.8694   16.9888 C   0  0  0  0  0  0  0  0  0  0  0  0
   14.5862    7.0517   17.2723 O   0  0  0  0  0  0  0  0  0  0  0  0
   20.5599    5.6431   17.4322 C   0  0  1  0  0  0  0  0  0  0  0  0
   15.5424    9.5392   18.3506 O   0  0  0  0  0  0  0  0  0  0  0  0
   20.0847    6.6675   16.3946 C   0  0  2  0  0  0  0  0  0  0  0  0
   18.9493    5.7551   14.0574 O   0  0  0  0  0  0  0  0  0  0  0  0
   18.4041    8.3970   16.1767 C   0  0  1  0  0  0  0  0  0  0  0  0
   20.0060    5.1251   11.7156 O   0  0  0  0  0  0  0  0  0  0  0  0
   16.5120    6.9375   15.8192 C   0  0  2  0  0  0  0  0  0  0  0  0
   15.6970    6.2680   14.7101 C   0  0  0  0  0  0  0  0  0  0  0  0
   15.5879    7.8463   16.6318 C   0  0  2  0  0  0  0  0  0  0  0  0
   16.3952    8.5954   17.6940 C   0  0  1  0  0  0  0  0  0  0  0  0
   17.5670    9.3394   17.0481 C   0  0  1  0  0  0  0  0  0  0  0  0
   19.3092    6.8640   13.2302 C   0  0  2  0  0  0  0  0  0  0  0  0
   19.4156    6.4261   11.7725 C   0  0  1  0  0  0  0  0  0  0  0  0
  1  3  1  0  0  0  0
  4  1  1  1  0  0  0
  4  6  1  0  0  0  0
  4 31  1  0  0  0  0
  6  7  1  0  0  0  0
  7  9  1  1  0  0  0
  7 30  1  0  0  0  0
  8 26  1  0  0  0  0
 10  9  1  6  0  0  0
 10 13  1  0  0  0  0
 10 21  1  0  0  0  0
 13 12  1  1  0  0  0
 13 15  1  0  0  0  0
 15  2  1  6  0  0  0
 15 17  1  0  0  0  0
 16 25  1  0  0  0  0
 16 23  1  0  0  0  0
 17 19  1  0  0  0  0
 19  5  1  6  0  0  0
 19 21  1  0  0  0  0
 21 14  1  1  0  0  0
 23 14  1  1  0  0  0
 23 29  1  0  0  0  0
 25 26  1  6  0  0  0
 25 27  1  0  0  0  0
 27 18  1  1  0  0  0
 27 28  1  0  0  0  0
 28 20  1  6  0  0  0
 28 29  1  0  0  0  0
 29 11  1  1  0  0  0
 30 22  1  1  0  0  0
 30 31  1  0  0  0  0
 31 24  1  1  0  0  0
M  END
>  <CHROM.1>
59.54926215,-145.16394898,41.97067672,72.57462273,58.46160367,-60.85966370
19.24256336,7.26098792,15.07848919,0.56248391,0.27613841,-1.43281339

>  <Name>
ligand

>  <RI>
0

>  <Rbt.Current_Directory>
/home/itssahil/PROJECTS/Mol_Feturizer/New_Systems/rnas/3DVV

>  <Rbt.Executable>
rbdock ($Id: //depot/dev/client3/rdock/2013.1/src/exe/rbdock.cxx#4 $)

>  <Rbt.Library>
libRbt.so (2013.1, Build901 2013/11/27)

>  <Rbt.Parameter_File>
/export/apps/rDock/src/rDock_2013.1_src/data/scripts/dock_solv.prm

>  <Rbt.Receptor>
prm/pocket_docking_7.prm

>  <SCORE>
-7.65627

>  <SCORE.INTER>
-9.11724

>  <SCORE.INTER.CONST>
1

>  <SCORE.INTER.POLAR>
0

>  <SCORE.INTER.ROT>
6

>  <SCORE.INTER.SOLV>
16.7564

>  <SCORE.INTER.VDW>
-19.2636

>  <SCORE.INTER.norm>
-0.294105

>  <SCORE.INTRA>
1.46097

>  <SCORE.INTRA.DIHEDRAL>
-3.98705

>  <SCORE.INTRA.DIHEDRAL.0>
10.8172

>  <SCORE.INTRA.POLAR>
0

>  <SCORE.INTRA.POLAR.0>
0

>  <SCORE.INTRA.REPUL>
0

>  <SCORE.INTRA.REPUL.0>
0

>  <SCORE.INTRA.SOLV>
-0.93828

>  <SCORE.INTRA.SOLV.lig_0>
-80.3833

>  <SCORE.INTRA.VDW>
3.92363

>  <SCORE.INTRA.VDW.0>
-4.63762

>  <SCORE.INTRA.norm>
0.047128

>  <SCORE.RESTR>
0

>  <SCORE.RESTR.CAVITY>
0

>  <SCORE.RESTR.norm>
0

>  <SCORE.SYSTEM>
0

>  <SCORE.SYSTEM.CONST>
0

>  <SCORE.SYSTEM.DIHEDRAL>
0

>  <SCORE.SYSTEM.SOLV>
0

>  <SCORE.SYSTEM.norm>
0

>  <SCORE.heavy>
31

>  <SCORE.norm>
-0.246977

>  <RMSD>
6.981

$$$$
ligand
 OpenBabel11021811473D
libRbt.so/2013.1/901 2013/11/27
 31 33  0  0  0  0  0  0  0  0999 V2000
   16.1828    8.5504   12.3295 C   0  0  0  0  0  0  0  0  0  0  0  0
   22.0342    5.3072   17.0411 N   0  0  0  0  0  0  0  0  0  0  0  0
   15.2730    8.0392   13.3092 O   0  0  0  0  0  0  0  0  0  0  0  0
   17.5264    8.8861   12.9816 C   0  0  1  0  0  0  0  0  0  0  0  0
   20.3294    1.6538   14.2753 N   0  0  0  0  0  0  0  0  0  0  0  0
   18.1269    7.6938   13.5241 O   0  0  0  0  0  0  0  0  0  0  0  0
   19.4514    7.5588   12.9788 C   0  0  1  0  0  0  0  0  0  0  0  0
   20.4968    0.3805    9.5018 N   0  0  0  0  0  0  0  0  0  0  0  0
   19.8175    6.1807   12.8066 O   0  0  0  0  0  0  0  0  0  0  0  0
   19.7125    5.4003   14.0066 C   0  0  2  0  0  0  0  0  0  0  0  0
   15.8520    3.9537   12.3631 N   0  0  0  0  0  0  0  0  0  0  0  0
   20.7421    7.1435   15.3272 O   0  0  0  0  0  0  0  0  0  0  0  0
   20.8937    5.7855   14.9050 C   0  0  1  0  0  0  0  0  0  0  0  0
   18.5153    3.4766   13.0335 O   0  0  0  0  0  0  0  0  0  0  0  0
   20.9564    4.8794   16.1362 C   0  0  1  0  0  0  0  0  0  0  0  0
   19.2027    3.6072   10.7865 O   0  0  0  0  0  0  0  0  0  0  0  0
   21.1912    3.4374   15.6854 C   0  0  0  0  0  0  0  0  0  0  0  0
   17.9174    0.2684    9.9637 O   0  0  0  0  0  0  0  0  0  0  0  0
   20.0150    2.9854   14.8150 C   0  0  1  0  0  0  0  0  0  0  0  0
   15.5139    1.7561   10.4878 O   0  0  0  0  0  0  0  0  0  0  0  0
   19.7456    3.9219   13.6309 C   0  0  2  0  0  0  0  0  0  0  0  0
   20.5906    8.5816   11.0516 O   0  0  0  0  0  0  0  0  0  0  0  0
   18.2278    4.0505   11.7487 C   0  0  1  0  0  0  0  0  0  0  0  0
   19.3572   10.4470   12.4646 O   0  0  0  0  0  0  0  0  0  0  0  0
   19.2451    2.1817   10.6037 C   0  0  2  0  0  0  0  0  0  0  0  0
   20.3236    1.8402    9.5728 C   0  0  0  0  0  0  0  0  0  0  0  0
   17.8919    1.6932   10.0838 C   0  0  2  0  0  0  0  0  0  0  0  0
   16.7822    2.0992   11.0559 C   0  0  1  0  0  0  0  0  0  0  0  0
   16.8260    3.6071   11.3168 C   0  0  1  0  0  0  0  0  0  0  0  0
   19.3261    8.1995   11.5981 C   0  0  2  0  0  0  0  0  0  0  0  0
   18.4973    9.4360   11.9329 C   0  0  1  0  0  0  0  0  0  0  0  0
  1  3  1  0  0  0  0
  4  1  1  6  0  0  0
  4  6  1  0  0  0  0
  4 31  1  0  0  0  0
  6  7  1  0  0  0  0
  7  9  1  6  0  0  0
  7 30  1  0  0  0  0
  8 26  1  0  0  0  0
 10  9  1  6  0  0  0
 10 13  1  0  0  0  0
 10 21  1  0  0  0  0
 13 12  1  1  0  0  0
 13 15  1  0  0  0  0
 15  2  1  1  0  0  0
 15 17  1  0  0  0  0
 16 25  1  0  0  0  0
 16 23  1  0  0  0  0
 17 19  1  0  0  0  0
 19  5  1  6  0  0  0
 19 21  1  0  0  0  0
 21 14  1  1  0  0  0
 23 14  1  1  0  0  0
 23 29  1  0  0  0  0
 25 26  1  6  0  0  0
 25 27  1  0  0  0  0
 27 18  1  1  0  0  0
 27 28  1  0  0  0  0
 28 20  1  6  0  0  0
 28 29  1  0  0  0  0
 29 11  1  1  0  0  0
 30 22  1  1  0  0  0
 30 31  1  0  0  0  0
 31 24  1  1  0  0  0
M  END
>  <CHROM.1>
62.49203606,-55.44320275,-74.43299321,65.92433728,66.66520701,172.83303072
18.90220914,4.96741338,12.60500009,1.44584539,-0.79694299,0.27659330

>  <Name>
ligand

>  <RI>
0

>  <Rbt.Current_Directory>
/home/itssahil/PROJECTS/Mol_Feturizer/New_Systems/rnas/3DVV

>  <Rbt.Executable>
rbdock ($Id: //depot/dev/client3/rdock/2013.1/src/exe/rbdock.cxx#4 $)

>  <Rbt.Library>
libRbt.so (2013.1, Build901 2013/11/27)

>  <Rbt.Parameter_File>
/export/apps/rDock/src/rDock_2013.1_src/data/scripts/dock_solv.prm

>  <Rbt.Receptor>
prm/blind_docking_40.prm

>  <SCORE>
-5.30428

>  <SCORE.INTER>
-1.96209

>  <SCORE.INTER.CONST>
1

>  <SCORE.INTER.POLAR>
0

>  <SCORE.INTER.ROT>
6

>  <SCORE.INTER.SOLV>
15.9878

>  <SCORE.INTER.VDW>
-14.2373

>  <SCORE.INTER.norm>
-0.0632931

>  <SCORE.INTRA>
-3.34219

>  <SCORE.INTRA.DIHEDRAL>
-8.87678

>  <SCORE.INTRA.DIHEDRAL.0>
10.8172

>  <SCORE.INTRA.POLAR>
0

>  <SCORE.INTRA.POLAR.0>
0

>  <SCORE.INTRA.REPUL>
0

>  <SCORE.INTRA.REPUL.0>
0

>  <SCORE.INTRA.SOLV>
-3.1731

>  <SCORE.INTRA.SOLV.lig_0>
-80.3833

>  <SCORE.INTRA.VDW>
2.68275

>  <SCORE.INTRA.VDW.0>
-4.63762

>  <SCORE.INTRA.norm>
-0.107813

>  <SCORE.RESTR>
0

>  <SCORE.RESTR.CAVITY>
0

>  <SCORE.RESTR.norm>
0

>  <SCORE.SYSTEM>
0

>  <SCORE.SYSTEM.CONST>
0

>  <SCORE.SYSTEM.DIHEDRAL>
0

>  <SCORE.SYSTEM.SOLV>
0

>  <SCORE.SYSTEM.norm>
0

>  <SCORE.heavy>
31

>  <SCORE.norm>
-0.171106

>  <RMSD>
6.982

$$$$
ligand
 OpenBabel11021811473D
libRbt.so/2013.1/901 2013/11/27
 31 33  0  0  0  0  0  0  0  0999 V2000
   16.6564    8.9687   12.6583 C   0  0  0  0  0  0  0  0  0  0  0  0
   22.2712    5.5597   17.2907 N   0  0  0  0  0  0  0  0  0  0  0  0
   16.6536    7.8002   11.8316 O   0  0  0  0  0  0  0  0  0  0  0  0
   18.0815    9.2858   13.1187 C   0  0  1  0  0  0  0  0  0  0  0  0
   20.1301    1.9856   14.7324 N   0  0  0  0  0  0  0  0  0  0  0  0
   18.6811    8.1200   13.7168 O   0  0  0  0  0  0  0  0  0  0  0  0
   19.9252    7.8495   13.0468 C   0  0  1  0  0  0  0  0  0  0  0  0
   20.2153    1.9867    9.0183 N   0  0  0  0  0  0  0  0  0  0  0  0
   20.2003    6.4412   12.9847 O   0  0  0  0  0  0  0  0  0  0  0  0
   19.9926    5.7561   14.2286 C   0  0  2  0  0  0  0  0  0  0  0  0
   16.0361    4.6292   12.4130 N   0  0  0  0  0  0  0  0  0  0  0  0
   21.2286    7.4343   15.4528 O   0  0  0  0  0  0  0  0  0  0  0  0
   21.2092    6.0445   15.1159 C   0  0  1  0  0  0  0  0  0  0  0  0
   18.5661    3.9417   13.3603 O   0  0  0  0  0  0  0  0  0  0  0  0
   21.1518    5.2157   16.4007 C   0  0  1  0  0  0  0  0  0  0  0  0
   19.3807    3.5619   11.1854 O   0  0  0  0  0  0  0  0  0  0  0  0
   21.2045    3.7306   16.0415 C   0  0  0  0  0  0  0  0  0  0  0  0
   17.6781    0.3250   10.8695 O   0  0  0  0  0  0  0  0  0  0  0  0
   19.9843    3.3770   15.1862 C   0  0  1  0  0  0  0  0  0  0  0  0
   15.4867    2.1846   10.9356 O   0  0  0  0  0  0  0  0  0  0  0  0
   19.8402    4.2649   13.9442 C   0  0  2  0  0  0  0  0  0  0  0  0
   20.8826    8.6001   10.9072 O   0  0  0  0  0  0  0  0  0  0  0  0
   18.4302    4.2994   11.9760 C   0  0  1  0  0  0  0  0  0  0  0  0
   19.9150   10.6711   12.2384 O   0  0  0  0  0  0  0  0  0  0  0  0
   19.2294    2.1341   11.2613 C   0  0  2  0  0  0  0  0  0  0  0  0
   20.3004    1.4693   10.3933 C   0  0  0  0  0  0  0  0  0  0  0  0
   17.8493    1.7382   10.7334 C   0  0  2  0  0  0  0  0  0  0  0  0
   16.7597    2.4589   11.5300 C   0  0  1  0  0  0  0  0  0  0  0  0
   17.0040    3.9702   11.5226 C   0  0  1  0  0  0  0  0  0  0  0  0
   19.6726    8.3535   11.6274 C   0  0  2  0  0  0  0  0  0  0  0  0
   18.9503    9.6660   11.9164 C   0  0  1  0  0  0  0  0  0  0  0  0
  1  3  1  0  0  0  0
  4  1  1  6  0  0  0
  4  6  1  0  0  0  0
  4 31  1  0  0  0  0
  6  7  1  0  0  0  0
  7  9  1  6  0  0  0
  7 30  1  0  0  0  0
  8 26  1  0  0  0  0
 10  9  1  6  0  0  0
 10 13  1  0  0  0  0
 10 21  1  0  0  0  0
 13 12  1  1  0  0  0
 13 15  1  0  0  0  0
 15  2  1  1  0  0  0
 15 17  1  0  0  0  0
 16 25  1  0  0  0  0
 16 23  1  0  0  0  0
 17 19  1  0  0  0  0
 19  5  1  6  0  0  0
 19 21  1  0  0  0  0
 21 14  1  1  0  0  0
 23 14  1  1  0  0  0
 23 29  1  0  0  0  0
 25 26  1  6  0  0  0
 25 27  1  0  0  0  0
 27 18  1  1  0  0  0
 27 28  1  0  0  0  0
 28 20  1  6  0  0  0
 28 29  1  0  0  0  0
 29 11  1  1  0  0  0
 30 22  1  1  0  0  0
 30 31  1  0  0  0  0
 31 24  1  1  0  0  0
M  END
>  <CHROM.1>
-52.32092106,-46.23377943,-78.30807902,62.90496388,75.13271958,-55.58556848
19.13464919,5.24818988,12.80083132,1.22673658,-0.89152715,0.04361352

>  <Name>
ligand

>  <RI>
0

>  <Rbt.Current_Directory>
/home/itssahil/PROJECTS/Mol_Feturizer/New_Systems/rnas/3DVV

>  <Rbt.Executable>
rbdock ($Id: //depot/dev/client3/rdock/2013.1/src/exe/rbdock.cxx#4 $)

>  <Rbt.Library>
libRbt.so (2013.1, Build901 2013/11/27)

>  <Rbt.Parameter_File>
/export/apps/rDock/src/rDock_2013.1_src/data/scripts/dock_solv.prm

>  <Rbt.Receptor>
prm/blind_docking_100.prm

>  <SCORE>
-2.77627

>  <SCORE.INTER>
-0.722454

>  <SCORE.INTER.CONST>
1

>  <SCORE.INTER.POLAR>
0

>  <SCORE.INTER.ROT>
6

>  <SCORE.INTER.SOLV>
20.2889

>  <SCORE.INTER.VDW>
-14.8446

>  <SCORE.INTER.norm>
-0.023305

>  <SCORE.INTRA>
-2.05382

>  <SCORE.INTRA.DIHEDRAL>
-6.78627

>  <SCORE.INTRA.DIHEDRAL.0>
10.8172

>  <SCORE.INTRA.POLAR>
0

>  <SCORE.INTRA.POLAR.0>
0

>  <SCORE.INTRA.REPUL>
0

>  <SCORE.INTRA.REPUL.0>
0

>  <SCORE.INTRA.SOLV>
-0.861194

>  <SCORE.INTRA.SOLV.lig_0>
-80.3833

>  <SCORE.INTRA.VDW>
1.76991

>  <SCORE.INTRA.VDW.0>
-4.63762

>  <SCORE.INTRA.norm>
-0.0662522

>  <SCORE.RESTR>
0

>  <SCORE.RESTR.CAVITY>
0

>  <SCORE.RESTR.norm>
0

>  <SCORE.SYSTEM>
0

>  <SCORE.SYSTEM.CONST>
0

>  <SCORE.SYSTEM.DIHEDRAL>
0

>  <SCORE.SYSTEM.SOLV>
0

>  <SCORE.SYSTEM.norm>
0

>  <SCORE.heavy>
31

>  <SCORE.norm>
-0.0895571

>  <RMSD>
6.983

$$$$
ligand
 OpenBabel11021811473D
libRbt.so/2013.1/901 2013/11/27
 31 33  0  0  0  0  0  0  0  0999 V2000
   23.4610    4.6902   17.3791 C   0  0  0  0  0  0  0  0  0  0  0  0
   17.8249    9.4589   12.3173 N   0  0  0  0  0  0  0  0  0  0  0  0
   22.1863    4.7586   18.0267 O   0  0  0  0  0  0  0  0  0  0  0  0
   23.4483    5.5305   16.0996 C   0  0  1  0  0  0  0  0  0  0  0  0
   16.4614    4.7686   12.1038 N   0  0  0  0  0  0  0  0  0  0  0  0
   22.3315    5.1551   15.2699 O   0  0  0  0  0  0  0  0  0  0  0  0
   21.5628    6.3349   14.9747 C   0  0  1  0  0  0  0  0  0  0  0  0
   17.1050    0.9374    9.4569 N   0  0  0  0  0  0  0  0  0  0  0  0
   20.1614    6.0415   14.8609 O   0  0  0  0  0  0  0  0  0  0  0  0
   19.6159    6.3208   13.5631 C   0  0  2  0  0  0  0  0  0  0  0  0
   19.3515    2.0462   14.9063 N   0  0  0  0  0  0  0  0  0  0  0  0
   20.1180    8.6762   13.7692 O   0  0  0  0  0  0  0  0  0  0  0  0
   19.0462    7.7436   13.6052 C   0  0  1  0  0  0  0  0  0  0  0  0
   19.0829    3.9970   12.9332 O   0  0  0  0  0  0  0  0  0  0  0  0
   18.2929    8.0645   12.3128 C   0  0  1  0  0  0  0  0  0  0  0  0
   17.7061    2.6127   11.6193 O   0  0  0  0  0  0  0  0  0  0  0  0
   17.1043    7.1126   12.1763 C   0  0  0  0  0  0  0  0  0  0  0  0
   20.5137    0.5710   10.4255 O   0  0  0  0  0  0  0  0  0  0  0  0
   17.6207    5.6735   12.0874 C   0  0  1  0  0  0  0  0  0  0  0  0
   20.4094   -0.0780   13.2242 O   0  0  0  0  0  0  0  0  0  0  0  0
   18.5361    5.2877   13.2557 C   0  0  2  0  0  0  0  0  0  0  0  0
   21.4825    8.5844   15.9703 O   0  0  0  0  0  0  0  0  0  0  0  0
   18.1351    2.9182   12.9591 C   0  0  1  0  0  0  0  0  0  0  0  0
   23.9959    7.8684   15.5608 O   0  0  0  0  0  0  0  0  0  0  0  0
   18.7679    2.2105   10.7372 C   0  0  2  0  0  0  0  0  0  0  0  0
   18.1875    1.9286    9.3494 C   0  0  0  0  0  0  0  0  0  0  0  0
   19.4178    0.9324   11.2702 C   0  0  2  0  0  0  0  0  0  0  0  0
   19.9304    1.1622   12.6934 C   0  0  1  0  0  0  0  0  0  0  0  0
   18.8058    1.6919   13.5871 C   0  0  1  0  0  0  0  0  0  0  0  0
   21.7732    7.2057   16.2117 C   0  0  2  0  0  0  0  0  0  0  0  0
   23.2685    7.0116   16.4447 C   0  0  1  0  0  0  0  0  0  0  0  0
  1  3  1  0  0  0  0
  4  1  1  1  0  0  0
  4  6  1  0  0  0  0
  4 31  1  0  0  0  0
  6  7  1  0  0  0  0
  7  9  1  1  0  0  0
  7 30  1  0  0  0  0
  8 26  1  0  0  0  0
 10  9  1  1  0  0  0
 10 13  1  0  0  0  0
 10 21  1  0  0  0  0
 13 12  1  6  0  0  0
 13 15  1  0  0  0  0
 15  2  1  1  0  0  0
 15 17  1  0  0  0  0
 16 25  1  0  0  0  0
 16 23  1  0  0  0  0
 17 19  1  0  0  0  0
 19  5  1  1  0  0  0
 19 21  1  0  0  0  0
 21 14  1  6  0  0  0
 23 14  1  6  0  0  0
 23 29  1  0  0  0  0
 25 26  1  6  0  0  0
 25 27  1  0  0  0  0
 27 18  1  6  0  0  0
 27 28  1  0  0  0  0
 28 20  1  1  0  0  0
 28 29  1  0  0  0  0
 29 11  1  1  0  0  0
 30 22  1  6  0  0  0
 30 31  1  0  0  0  0
 31 24  1  6  0  0  0
M  END
>  <CHROM.1>
-52.53770519,-117.99453217,-93.35628628,99.68120755,165.36076108,-55.01864774
19.90347545,4.74847712,13.54898377,-0.91238769,0.74550004,-2.91472469

>  <Name>
ligand

>  <RI>
0

>  <Rbt.Current_Directory>
/home/itssahil/PROJECTS/Mol_Feturizer/New_Systems/rnas/3DVV

>  <Rbt.Executable>
rbdock ($Id: //depot/dev/client3/rdock/2013.1/src/exe/rbdock.cxx#4 $)

>  <Rbt.Library>
libRbt.so (2013.1, Build901 2013/11/27)

>  <Rbt.Parameter_File>
/export/apps/rDock/src/rDock_2013.1_src/data/scripts/dock_solv.prm

>  <Rbt.Receptor>
prm/blind_docking_100.prm

>  <SCORE>
0.198257

>  <SCORE.INTER>
-6.90709

>  <SCORE.INTER.CONST>
1

>  <SCORE.INTER.POLAR>
0

>  <SCORE.INTER.ROT>
6

>  <SCORE.INTER.SOLV>
15.2237

>  <SCORE.INTER.VDW>
-17.2793

>  <SCORE.INTER.norm>
-0.222809

>  <SCORE.INTRA>
7.10457

>  <SCORE.INTRA.DIHEDRAL>
7.16483

>  <SCORE.INTRA.DIHEDRAL.0>
10.8172

>  <SCORE.INTRA.POLAR>
0

>  <SCORE.INTRA.POLAR.0>
0

>  <SCORE.INTRA.REPUL>
0.0136279

>  <SCORE.INTRA.REPUL.0>
0

>  <SCORE.INTRA.SOLV>
0.457002

>  <SCORE.INTRA.SOLV.lig_0>
-80.3833

>  <SCORE.INTRA.VDW>
3.22551

>  <SCORE.INTRA.VDW.0>
-4.63762

>  <SCORE.INTRA.norm>
0.22918

>  <SCORE.RESTR>
0.000770943

>  <SCORE.RESTR.CAVITY>
0.000770943

>  <SCORE.RESTR.norm>
2.48691e-05

>  <SCORE.SYSTEM>
0

>  <SCORE.SYSTEM.CONST>
0

>  <SCORE.SYSTEM.DIHEDRAL>
0

>  <SCORE.SYSTEM.SOLV>
0

>  <SCORE.SYSTEM.norm>
0

>  <SCORE.heavy>
31

>  <SCORE.norm>
0.00639539

>  <RMSD>
6.996

$$$$
ligand
 OpenBabel11021811473D
libRbt.so/2013.1/901 2013/11/27
 31 33  0  0  0  0  0  0  0  0999 V2000
   23.3955    4.3359   17.4258 C   0  0  0  0  0  0  0  0  0  0  0  0
   18.2614    9.2037   12.0260 N   0  0  0  0  0  0  0  0  0  0  0  0
   23.5586    2.9917   16.9617 O   0  0  0  0  0  0  0  0  0  0  0  0
   23.4053    5.3072   16.2427 C   0  0  1  0  0  0  0  0  0  0  0  0
   16.5864    4.6135   11.8574 N   0  0  0  0  0  0  0  0  0  0  0  0
   22.3796    4.9479   15.2966 O   0  0  0  0  0  0  0  0  0  0  0  0
   21.5443    6.0967   15.0676 C   0  0  1  0  0  0  0  0  0  0  0  0
   19.1760    1.0146    8.5628 N   0  0  0  0  0  0  0  0  0  0  0  0
   20.1806    5.7212   14.8184 O   0  0  0  0  0  0  0  0  0  0  0  0
   19.7414    5.9937   13.4794 C   0  0  2  0  0  0  0  0  0  0  0  0
   19.2634    1.9219   15.0289 N   0  0  0  0  0  0  0  0  0  0  0  0
   20.3944    8.3147   13.6505 O   0  0  0  0  0  0  0  0  0  0  0  0
   19.2723    7.4528   13.4420 C   0  0  1  0  0  0  0  0  0  0  0  0
   19.0875    3.6921   12.8827 O   0  0  0  0  0  0  0  0  0  0  0  0
   18.6289    7.7811   12.0933 C   0  0  1  0  0  0  0  0  0  0  0  0
   17.6455    2.2592   11.6970 O   0  0  0  0  0  0  0  0  0  0  0  0
   17.3873    6.9090   11.9050 C   0  0  0  0  0  0  0  0  0  0  0  0
   20.3517   -0.0158   10.7085 O   0  0  0  0  0  0  0  0  0  0  0  0
   17.8055    5.4357   11.8926 C   0  0  1  0  0  0  0  0  0  0  0  0
   20.2177   -0.3970   13.5548 O   0  0  0  0  0  0  0  0  0  0  0  0
   18.6135    5.0273   13.1303 C   0  0  2  0  0  0  0  0  0  0  0  0
   21.2240    8.2138   16.2815 O   0  0  0  0  0  0  0  0  0  0  0  0
   18.0892    2.6667   13.0045 C   0  0  1  0  0  0  0  0  0  0  0  0
   23.8070    7.7220   15.9915 O   0  0  0  0  0  0  0  0  0  0  0  0
   18.6865    1.7269   10.8602 C   0  0  2  0  0  0  0  0  0  0  0  0
   18.0926    1.3457    9.5021 C   0  0  0  0  0  0  0  0  0  0  0  0
   19.2748    0.4741   11.5118 C   0  0  2  0  0  0  0  0  0  0  0  0
   19.7984    0.8101   12.9096 C   0  0  1  0  0  0  0  0  0  0  0  0
   18.7008    1.4733   13.7460 C   0  0  1  0  0  0  0  0  0  0  0  0
   21.6027    6.8404   16.4003 C   0  0  2  0  0  0  0  0  0  0  0  0
   23.0893    6.7260   16.7245 C   0  0  1  0  0  0  0  0  0  0  0  0
  1  3  1  0  0  0  0
  4  1  1  1  0  0  0
  4  6  1  0  0  0  0
  4 31  1  0  0  0  0
  6  7  1  0  0  0  0
  7  9  1  1  0  0  0
  7 30  1  0  0  0  0
  8 26  1  0  0  0  0
 10  9  1  1  0  0  0
 10 13  1  0  0  0  0
 10 21  1  0  0  0  0
 13 12  1  6  0  0  0
 13 15  1  0  0  0  0
 15  2  1  1  0  0  0
 15 17  1  0  0  0  0
 16 25  1  0  0  0  0
 16 23  1  0  0  0  0
 17 19  1  0  0  0  0
 19  5  1  1  0  0  0
 19 21  1  0  0  0  0
 21 14  1  6  0  0  0
 23 14  1  6  0  0  0
 23 29  1  0  0  0  0
 25 26  1  6  0  0  0
 25 27  1  0  0  0  0
 27 18  1  6  0  0  0
 27 28  1  0  0  0  0
 28 20  1  1  0  0  0
 28 29  1  0  0  0  0
 29 11  1  1  0  0  0
 30 22  1  6  0  0  0
 30 31  1  0  0  0  0
 31 24  1  6  0  0  0
M  END
>  <CHROM.1>
56.62536533,-112.73264856,-85.16703160,101.85051643,159.58862766,170.51820807
20.02043456,4.39907763,13.53248222,-0.91626881,0.79440736,-2.94338765

>  <Name>
ligand

>  <RI>
0

>  <Rbt.Current_Directory>
/home/itssahil/PROJECTS/Mol_Feturizer/New_Systems/rnas/3DVV

>  <Rbt.Executable>
rbdock ($Id: //depot/dev/client3/rdock/2013.1/src/exe/rbdock.cxx#4 $)

>  <Rbt.Library>
libRbt.so (2013.1, Build901 2013/11/27)

>  <Rbt.Parameter_File>
/export/apps/rDock/src/rDock_2013.1_src/data/scripts/dock_solv.prm

>  <Rbt.Receptor>
prm/blind_docking_60.prm

>  <SCORE>
0.831742

>  <SCORE.INTER>
-5.08813

>  <SCORE.INTER.CONST>
1

>  <SCORE.INTER.POLAR>
0

>  <SCORE.INTER.ROT>
6

>  <SCORE.INTER.SOLV>
15.6654

>  <SCORE.INTER.VDW>
-16.2139

>  <SCORE.INTER.norm>
-0.164133

>  <SCORE.INTRA>
5.917

>  <SCORE.INTRA.DIHEDRAL>
6.65307

>  <SCORE.INTRA.DIHEDRAL.0>
10.8172

>  <SCORE.INTRA.POLAR>
0

>  <SCORE.INTRA.POLAR.0>
0

>  <SCORE.INTRA.REPUL>
0.00856973

>  <SCORE.INTRA.REPUL.0>
0

>  <SCORE.INTRA.SOLV>
-0.4002

>  <SCORE.INTRA.SOLV.lig_0>
-80.3833

>  <SCORE.INTRA.VDW>
2.74771

>  <SCORE.INTRA.VDW.0>
-4.63762

>  <SCORE.INTRA.norm>
0.190871

>  <SCORE.RESTR>
0.00287733

>  <SCORE.RESTR.CAVITY>
0.00287733

>  <SCORE.RESTR.norm>
9.2817e-05

>  <SCORE.SYSTEM>
0

>  <SCORE.SYSTEM.CONST>
0

>  <SCORE.SYSTEM.DIHEDRAL>
0

>  <SCORE.SYSTEM.SOLV>
0

>  <SCORE.SYSTEM.norm>
0

>  <SCORE.heavy>
31

>  <SCORE.norm>
0.0268304

>  <RMSD>
6.996

$$$$
ligand
 OpenBabel11021811473D
libRbt.so/2013.1/901 2013/11/27
 31 33  0  0  0  0  0  0  0  0999 V2000
   23.4253    4.8478   17.3999 C   0  0  0  0  0  0  0  0  0  0  0  0
   17.8787    9.4421   12.0639 N   0  0  0  0  0  0  0  0  0  0  0  0
   23.5612    3.4491   17.1281 O   0  0  0  0  0  0  0  0  0  0  0  0
   23.4191    5.6414   16.0909 C   0  0  1  0  0  0  0  0  0  0  0  0
   16.4034    4.7826   12.1907 N   0  0  0  0  0  0  0  0  0  0  0  0
   22.2910    5.2557   15.2815 O   0  0  0  0  0  0  0  0  0  0  0  0
   21.5408    6.4372   14.9481 C   0  0  1  0  0  0  0  0  0  0  0  0
   19.0036    1.2437    8.7954 N   0  0  0  0  0  0  0  0  0  0  0  0
   20.1339    6.1643   14.8527 O   0  0  0  0  0  0  0  0  0  0  0  0
   19.5946    6.3613   13.5373 C   0  0  2  0  0  0  0  0  0  0  0  0
   19.3294    2.2659   15.2272 N   0  0  0  0  0  0  0  0  0  0  0  0
   20.1529    8.7128   13.5721 O   0  0  0  0  0  0  0  0  0  0  0  0
   19.0592    7.7965   13.4749 C   0  0  1  0  0  0  0  0  0  0  0  0
   19.0060    4.0111   13.0776 O   0  0  0  0  0  0  0  0  0  0  0  0
   18.3132    8.0403   12.1616 C   0  0  1  0  0  0  0  0  0  0  0  0
   17.5647    2.5215   11.9632 O   0  0  0  0  0  0  0  0  0  0  0  0
   17.1021    7.1096   12.0932 C   0  0  0  0  0  0  0  0  0  0  0  0
   20.3020    0.3287   10.8791 O   0  0  0  0  0  0  0  0  0  0  0  0
   17.5840    5.6560   12.1100 C   0  0  1  0  0  0  0  0  0  0  0  0
   20.2986   -0.0326   13.7311 O   0  0  0  0  0  0  0  0  0  0  0  0
   18.4903    5.3345   13.3046 C   0  0  2  0  0  0  0  0  0  0  0  0
   21.5051    8.7222   15.8620 O   0  0  0  0  0  0  0  0  0  0  0  0
   18.0483    2.9545   13.2482 C   0  0  1  0  0  0  0  0  0  0  0  0
   24.0034    7.9484   15.4648 O   0  0  0  0  0  0  0  0  0  0  0  0
   18.5873    2.0168   11.0876 C   0  0  2  0  0  0  0  0  0  0  0  0
   17.9508    1.6047    9.7581 C   0  0  0  0  0  0  0  0  0  0  0  0
   19.2434    0.7896   11.7230 C   0  0  2  0  0  0  0  0  0  0  0  0
   19.8130    1.1545   13.0954 C   0  0  1  0  0  0  0  0  0  0  0  0
   18.7295    1.7881   13.9720 C   0  0  1  0  0  0  0  0  0  0  0  0
   21.7737    7.3483   16.1515 C   0  0  2  0  0  0  0  0  0  0  0  0
   23.2669    7.1368   16.3831 C   0  0  1  0  0  0  0  0  0  0  0  0
  1  3  1  0  0  0  0
  4  1  1  1  0  0  0
  4  6  1  0  0  0  0
  4 31  1  0  0  0  0
  6  7  1  0  0  0  0
  7  9  1  1  0  0  0
  7 30  1  0  0  0  0
  8 26  1  0  0  0  0
 10  9  1  1  0  0  0
 10 13  1  0  0  0  0
 10 21  1  0  0  0  0
 13 12  1  6  0  0  0
 13 15  1  0  0  0  0
 15  2  1  1  0  0  0
 15 17  1  0  0  0  0
 16 25  1  0  0  0  0
 16 23  1  0  0  0  0
 17 19  1  0  0  0  0
 19  5  1  1  0  0  0
 19 21  1  0  0  0  0
 21 14  1  6  0  0  0
 23 14  1  6  0  0  0
 23 29  1  0  0  0  0
 25 26  1  6  0  0  0
 25 27  1  0  0  0  0
 27 18  1  6  0  0  0
 27 28  1  0  0  0  0
 28 20  1  1  0  0  0
 28 29  1  0  0  0  0
 29 11  1  1  0  0  0
 30 22  1  6  0  0  0
 30 31  1  0  0  0  0
 31 24  1  6  0  0  0
M  END
>  <CHROM.1>
62.08278883,-115.94088959,-93.10276610,100.44964553,162.31019401,173.02809777
19.96205263,4.73043900,13.59334813,-0.92001753,0.73079874,-2.96699398

>  <Name>
ligand

>  <RI>
0

>  <Rbt.Current_Directory>
/home/itssahil/PROJECTS/Mol_Feturizer/New_Systems/rnas/3DVV

>  <Rbt.Executable>
rbdock ($Id: //depot/dev/client3/rdock/2013.1/src/exe/rbdock.cxx#4 $)

>  <Rbt.Library>
libRbt.so (2013.1, Build901 2013/11/27)

>  <Rbt.Parameter_File>
/export/apps/rDock/src/rDock_2013.1_src/data/scripts/dock_solv.prm

>  <Rbt.Receptor>
prm/blind_docking_100.prm

>  <SCORE>
0.328839

>  <SCORE.INTER>
-6.43496

>  <SCORE.INTER.CONST>
1

>  <SCORE.INTER.POLAR>
0

>  <SCORE.INTER.ROT>
6

>  <SCORE.INTER.SOLV>
15.3863

>  <SCORE.INTER.VDW>
-17.0187

>  <SCORE.INTER.norm>
-0.207579

>  <SCORE.INTRA>
6.75906

>  <SCORE.INTRA.DIHEDRAL>
7.49929

>  <SCORE.INTRA.DIHEDRAL.0>
10.8172

>  <SCORE.INTRA.POLAR>
0

>  <SCORE.INTRA.POLAR.0>
0

>  <SCORE.INTRA.REPUL>
0.0264211

>  <SCORE.INTRA.REPUL.0>
0

>  <SCORE.INTRA.SOLV>
-0.322836

>  <SCORE.INTRA.SOLV.lig_0>
-80.3833

>  <SCORE.INTRA.VDW>
3.03873

>  <SCORE.INTRA.VDW.0>
-4.63762

>  <SCORE.INTRA.norm>
0.218034

>  <SCORE.RESTR>
0.00473743

>  <SCORE.RESTR.CAVITY>
0.00473743

>  <SCORE.RESTR.norm>
0.00015282

>  <SCORE.SYSTEM>
0

>  <SCORE.SYSTEM.CONST>
0

>  <SCORE.SYSTEM.DIHEDRAL>
0

>  <SCORE.SYSTEM.SOLV>
0

>  <SCORE.SYSTEM.norm>
0

>  <SCORE.heavy>
31

>  <SCORE.norm>
0.0106077

>  <RMSD>
6.998

$$$$
ligand
 OpenBabel11021811473D
libRbt.so/2013.1/901 2013/11/27
 31 33  0  0  0  0  0  0  0  0999 V2000
   18.0298    2.9168   10.6672 C   0  0  0  0  0  0  0  0  0  0  0  0
   24.2604    3.9730   16.0937 N   0  0  0  0  0  0  0  0  0  0  0  0
   17.1422    2.6331   11.7538 O   0  0  0  0  0  0  0  0  0  0  0  0
   19.4269    2.3697   10.9707 C   0  0  1  0  0  0  0  0  0  0  0  0
   19.9994    5.2076   18.1488 N   0  0  0  0  0  0  0  0  0  0  0  0
   19.9190    2.9226   12.2070 O   0  0  0  0  0  0  0  0  0  0  0  0
   20.2927    1.8394   13.0769 C   0  0  1  0  0  0  0  0  0  0  0  0
   15.5009    8.2948   14.5679 N   0  0  0  0  0  0  0  0  0  0  0  0
   20.0595    2.1613   14.4571 O   0  0  0  0  0  0  0  0  0  0  0  0
   20.6849    3.3821   14.8797 C   0  0  2  0  0  0  0  0  0  0  0  0
   17.1691    2.2346   16.3667 N   0  0  0  0  0  0  0  0  0  0  0  0
   22.8340    2.6695   14.0334 O   0  0  0  0  0  0  0  0  0  0  0  0
   22.1416    3.0516   15.2250 C   0  0  1  0  0  0  0  0  0  0  0  0
   18.6586    4.5026   15.7279 O   0  0  0  0  0  0  0  0  0  0  0  0
   22.8398    4.2629   15.8465 C   0  0  1  0  0  0  0  0  0  0  0  0
   17.1643    5.9202   16.8663 O   0  0  0  0  0  0  0  0  0  0  0  0
   22.1422    4.6248   17.1579 C   0  0  0  0  0  0  0  0  0  0  0  0
   14.6431    5.7755   14.2020 O   0  0  0  0  0  0  0  0  0  0  0  0
   20.6880    5.0056   16.8649 C   0  0  1  0  0  0  0  0  0  0  0  0
   14.6346    3.0879   15.2225 O   0  0  0  0  0  0  0  0  0  0  0  0
   19.9264    3.9258   16.0867 C   0  0  2  0  0  0  0  0  0  0  0  0
   19.7914   -0.5703   13.0756 O   0  0  0  0  0  0  0  0  0  0  0  0
   17.7110    4.5898   16.8036 C   0  0  1  0  0  0  0  0  0  0  0  0
   20.5388    0.1970   10.6568 O   0  0  0  0  0  0  0  0  0  0  0  0
   16.4760    6.3318   15.6730 C   0  0  2  0  0  0  0  0  0  0  0  0
   15.9568    7.7593   15.8606 C   0  0  0  0  0  0  0  0  0  0  0  0
   15.2871    5.4022   15.4230 C   0  0  2  0  0  0  0  0  0  0  0  0
   15.7702    3.9542   15.3182 C   0  0  1  0  0  0  0  0  0  0  0  0
   16.5911    3.5743   16.5533 C   0  0  1  0  0  0  0  0  0  0  0  0
   19.3319    0.7226   12.6743 C   0  0  2  0  0  0  0  0  0  0  0  0
   19.3685    0.8506   11.1544 C   0  0  1  0  0  0  0  0  0  0  0  0
  1  3  1  0  0  0  0
  4  1  1  1  0  0  0
  4  6  1  0  0  0  0
  4 31  1  0  0  0  0
  6  7  1  0  0  0  0
  7  9  1  1  0  0  0
  7 30  1  0  0  0  0
  8 26  1  0  0  0  0
 10  9  1  1  0  0  0
 10 13  1  0  0  0  0
 10 21  1  0  0  0  0
 13 12  1  6  0  0  0
 13 15  1  0  0  0  0
 15  2  1  1  0  0  0
 15 17  1  0  0  0  0
 16 25  1  0  0  0  0
 16 23  1  0  0  0  0
 17 19  1  0  0  0  0
 19  5  1  1  0  0  0
 19 21  1  0  0  0  0
 21 14  1  6  0  0  0
 23 14  1  6  0  0  0
 23 29  1  0  0  0  0
 25 26  1  1  0  0  0
 25 27  1  0  0  0  0
 27 18  1  6  0  0  0
 27 28  1  0  0  0  0
 28 20  1  1  0  0  0
 28 29  1  0  0  0  0
 29 11  1  6  0  0  0
 30 22  1  6  0  0  0
 30 31  1  0  0  0  0
 31 24  1  1  0  0  0
M  END
>  <CHROM.1>
-56.81976280,-54.12425215,-83.04877806,130.28501594,158.73954952,168.32585324
18.85001980,3.63518576,14.59217850,0.75038496,0.26941526,-2.26260905

>  <Name>
ligand

>  <RI>
0

>  <Rbt.Current_Directory>
/home/itssahil/PROJECTS/Mol_Feturizer/New_Systems/rnas/3DVV

>  <Rbt.Executable>
rbdock ($Id: //depot/dev/client3/rdock/2013.1/src/exe/rbdock.cxx#4 $)

>  <Rbt.Library>
libRbt.so (2013.1, Build901 2013/11/27)

>  <Rbt.Parameter_File>
/export/apps/rDock/src/rDock_2013.1_src/data/scripts/dock_solv.prm

>  <Rbt.Receptor>
prm/pocket_docking_5.prm

>  <SCORE>
2.18171

>  <SCORE.INTER>
-0.870558

>  <SCORE.INTER.CONST>
1

>  <SCORE.INTER.POLAR>
0

>  <SCORE.INTER.ROT>
6

>  <SCORE.INTER.SOLV>
16.5362

>  <SCORE.INTER.VDW>
-13.6924

>  <SCORE.INTER.norm>
-0.0280825

>  <SCORE.INTRA>
3.05227

>  <SCORE.INTRA.DIHEDRAL>
1.09501

>  <SCORE.INTRA.DIHEDRAL.0>
10.8172

>  <SCORE.INTRA.POLAR>
0

>  <SCORE.INTRA.POLAR.0>
0

>  <SCORE.INTRA.REPUL>
0.0110343

>  <SCORE.INTRA.REPUL.0>
0

>  <SCORE.INTRA.SOLV>
-0.393632

>  <SCORE.INTRA.SOLV.lig_0>
-80.3833

>  <SCORE.INTRA.VDW>
2.64641

>  <SCORE.INTRA.VDW.0>
-4.63762

>  <SCORE.INTRA.norm>
0.0984603

>  <SCORE.RESTR>
0

>  <SCORE.RESTR.CAVITY>
0

>  <SCORE.RESTR.norm>
0

>  <SCORE.SYSTEM>
0

>  <SCORE.SYSTEM.CONST>
0

>  <SCORE.SYSTEM.DIHEDRAL>
0

>  <SCORE.SYSTEM.SOLV>
0

>  <SCORE.SYSTEM.norm>
0

>  <SCORE.heavy>
31

>  <SCORE.norm>
0.0703778

>  <RMSD>
7.001

$$$$
ligand
 OpenBabel11021811473D
libRbt.so/2013.1/901 2013/11/27
 31 33  0  0  0  0  0  0  0  0999 V2000
   11.4170    5.5328   19.7050 C   0  0  0  0  0  0  0  0  0  0  0  0
   14.7536    4.2274   11.6984 N   0  0  0  0  0  0  0  0  0  0  0  0
   10.7203    5.0323   20.8508 O   0  0  0  0  0  0  0  0  0  0  0  0
   11.5009    4.4515   18.6247 C   0  0  1  0  0  0  0  0  0  0  0  0
   15.5171    8.6123   13.7215 N   0  0  0  0  0  0  0  0  0  0  0  0
   12.1188    4.9833   17.4365 O   0  0  0  0  0  0  0  0  0  0  0  0
   13.2343    4.1454   17.0857 C   0  0  1  0  0  0  0  0  0  0  0  0
   17.6586    7.0337   18.2355 N   0  0  0  0  0  0  0  0  0  0  0  0
   14.2999    4.9012   16.4888 O   0  0  0  0  0  0  0  0  0  0  0  0
   13.9583    5.4799   15.2205 C   0  0  2  0  0  0  0  0  0  0  0  0
   11.5502    8.7217   17.1464 N   0  0  0  0  0  0  0  0  0  0  0  0
   13.7799    3.3036   14.1838 O   0  0  0  0  0  0  0  0  0  0  0  0
   14.4941    4.5417   14.1328 C   0  0  1  0  0  0  0  0  0  0  0  0
   13.9057    7.8356   15.9476 O   0  0  0  0  0  0  0  0  0  0  0  0
   14.3225    5.1652   12.7462 C   0  0  1  0  0  0  0  0  0  0  0  0
   14.8411    7.2245   18.0188 O   0  0  0  0  0  0  0  0  0  0  0  0
   15.1455    6.4514   12.6701 C   0  0  0  0  0  0  0  0  0  0  0  0
   15.6085   10.6913   18.9507 O   0  0  0  0  0  0  0  0  0  0  0  0
   14.6229    7.4446   13.7122 C   0  0  1  0  0  0  0  0  0  0  0  0
   12.7339   10.6573   18.9666 O   0  0  0  0  0  0  0  0  0  0  0  0
   14.5879    6.8668   15.1323 C   0  0  2  0  0  0  0  0  0  0  0  0
   14.5134    2.4419   18.3186 O   0  0  0  0  0  0  0  0  0  0  0  0
   13.6151    7.3993   17.2847 C   0  0  1  0  0  0  0  0  0  0  0  0
   11.9200    2.0266   18.6343 O   0  0  0  0  0  0  0  0  0  0  0  0
   15.6342    8.4181   18.1353 C   0  0  2  0  0  0  0  0  0  0  0  0
   16.9087    8.0988   18.9202 C   0  0  0  0  0  0  0  0  0  0  0  0
   14.8418    9.4855   18.8923 C   0  0  2  0  0  0  0  0  0  0  0  0
   13.5195    9.7611   18.1736 C   0  0  1  0  0  0  0  0  0  0  0  0
   12.7424    8.4583   17.9667 C   0  0  1  0  0  0  0  0  0  0  0  0
   13.7147    3.6215   18.4375 C   0  0  2  0  0  0  0  0  0  0  0  0
   12.3822    3.2951   19.1053 C   0  0  1  0  0  0  0  0  0  0  0  0
  1  3  1  0  0  0  0
  4  1  1  1  0  0  0
  4  6  1  0  0  0  0
  4 31  1  0  0  0  0
  6  7  1  0  0  0  0
  7  9  1  1  0  0  0
  7 30  1  0  0  0  0
  8 26  1  0  0  0  0
 10  9  1  1  0  0  0
 10 13  1  0  0  0  0
 10 21  1  0  0  0  0
 13 12  1  6  0  0  0
 13 15  1  0  0  0  0
 15  2  1  6  0  0  0
 15 17  1  0  0  0  0
 16 25  1  0  0  0  0
 16 23  1  0  0  0  0
 17 19  1  0  0  0  0
 19  5  1  1  0  0  0
 19 21  1  0  0  0  0
 21 14  1  1  0  0  0
 23 14  1  6  0  0  0
 23 29  1  0  0  0  0
 25 26  1  1  0  0  0
 25 27  1  0  0  0  0
 27 18  1  6  0  0  0
 27 28  1  0  0  0  0
 28 20  1  1  0  0  0
 28 29  1  0  0  0  0
 29 11  1  6  0  0  0
 30 22  1  6  0  0  0
 30 31  1  0  0  0  0
 31 24  1  6  0  0  0
M  END
>  <CHROM.1>
175.98701282,-65.47195064,-97.39489751,66.62092049,46.76289317,58.26827012
13.87193397,6.31376700,16.96467953,1.37661300,1.08124124,0.72482940

>  <Name>
ligand

>  <RI>
0

>  <Rbt.Current_Directory>
/home/itssahil/PROJECTS/Mol_Feturizer/New_Systems/rnas/3DVV

>  <Rbt.Executable>
rbdock ($Id: //depot/dev/client3/rdock/2013.1/src/exe/rbdock.cxx#4 $)

>  <Rbt.Library>
libRbt.so (2013.1, Build901 2013/11/27)

>  <Rbt.Parameter_File>
/export/apps/rDock/src/rDock_2013.1_src/data/scripts/dock_solv.prm

>  <Rbt.Receptor>
prm/pocket_docking_7.prm

>  <SCORE>
-5.35412

>  <SCORE.INTER>
-3.12274

>  <SCORE.INTER.CONST>
1

>  <SCORE.INTER.POLAR>
0

>  <SCORE.INTER.ROT>
6

>  <SCORE.INTER.SOLV>
7.43787

>  <SCORE.INTER.VDW>
-12.1611

>  <SCORE.INTER.norm>
-0.100734

>  <SCORE.INTRA>
-2.23138

>  <SCORE.INTRA.DIHEDRAL>
-4.36009

>  <SCORE.INTRA.DIHEDRAL.0>
10.8172

>  <SCORE.INTRA.POLAR>
0

>  <SCORE.INTRA.POLAR.0>
0

>  <SCORE.INTRA.REPUL>
0

>  <SCORE.INTRA.REPUL.0>
0

>  <SCORE.INTRA.SOLV>
-3.60482

>  <SCORE.INTRA.SOLV.lig_0>
-80.3833

>  <SCORE.INTRA.VDW>
1.75108

>  <SCORE.INTRA.VDW.0>
-4.63762

>  <SCORE.INTRA.norm>
-0.0719801

>  <SCORE.RESTR>
0

>  <SCORE.RESTR.CAVITY>
0

>  <SCORE.RESTR.norm>
0

>  <SCORE.SYSTEM>
0

>  <SCORE.SYSTEM.CONST>
0

>  <SCORE.SYSTEM.DIHEDRAL>
0

>  <SCORE.SYSTEM.SOLV>
0

>  <SCORE.SYSTEM.norm>
0

>  <SCORE.heavy>
31

>  <SCORE.norm>
-0.172714

>  <RMSD>
7.004

$$$$
ligand
 OpenBabel11021811473D
libRbt.so/2013.1/901 2013/11/27
 31 33  0  0  0  0  0  0  0  0999 V2000
   18.8416    2.0326   10.8622 C   0  0  0  0  0  0  0  0  0  0  0  0
   23.2443    5.7033   17.3484 N   0  0  0  0  0  0  0  0  0  0  0  0
   19.4000    2.6207    9.6827 O   0  0  0  0  0  0  0  0  0  0  0  0
   19.9031    1.9462   11.9618 C   0  0  1  0  0  0  0  0  0  0  0  0
   20.2673    9.1564   15.5829 N   0  0  0  0  0  0  0  0  0  0  0  0
   20.2348    3.2656   12.4367 O   0  0  0  0  0  0  0  0  0  0  0  0
   20.0575    3.2971   13.8640 C   0  0  1  0  0  0  0  0  0  0  0  0
   15.8318    9.0021   15.2005 N   0  0  0  0  0  0  0  0  0  0  0  0
   19.6154    4.5866   14.3165 O   0  0  0  0  0  0  0  0  0  0  0  0
   20.6821    5.5255   14.5181 C   0  0  2  0  0  0  0  0  0  0  0  0
   19.9022    6.5953   10.7432 N   0  0  0  0  0  0  0  0  0  0  0  0
   22.0680    3.8488   15.5719 O   0  0  0  0  0  0  0  0  0  0  0  0
   21.4231    5.1060   15.7930 C   0  0  1  0  0  0  0  0  0  0  0  0
   19.6345    7.4481   13.3836 O   0  0  0  0  0  0  0  0  0  0  0  0
   22.4734    6.1498   16.1780 C   0  0  1  0  0  0  0  0  0  0  0  0
   17.2955    7.1954   13.3273 O   0  0  0  0  0  0  0  0  0  0  0  0
   21.7742    7.4744   16.4846 C   0  0  0  0  0  0  0  0  0  0  0  0
   16.7841   10.2660   11.3816 O   0  0  0  0  0  0  0  0  0  0  0  0
   21.0493    7.9627   15.2270 C   0  0  1  0  0  0  0  0  0  0  0  0
   18.1407    8.5551    9.5116 O   0  0  0  0  0  0  0  0  0  0  0  0
   20.0835    6.9231   14.6452 C   0  0  2  0  0  0  0  0  0  0  0  0
   18.8797    1.8255   15.4468 O   0  0  0  0  0  0  0  0  0  0  0  0
   18.5449    6.7284   12.7857 C   0  0  1  0  0  0  0  0  0  0  0  0
   20.3625    0.3785   13.8021 O   0  0  0  0  0  0  0  0  0  0  0  0
   17.0413    8.5928   13.1042 C   0  0  2  0  0  0  0  0  0  0  0  0
   15.6978    8.9653   13.7355 C   0  0  0  0  0  0  0  0  0  0  0  0
   16.9736    8.8656   11.6004 C   0  0  2  0  0  0  0  0  0  0  0  0
   18.2750    8.4203   10.9304 C   0  0  1  0  0  0  0  0  0  0  0  0
   18.5783    6.9588   11.2711 C   0  0  1  0  0  0  0  0  0  0  0  0
   18.9304    2.2930   14.0968 C   0  0  2  0  0  0  0  0  0  0  0  0
   19.3562    1.1660   13.1606 C   0  0  1  0  0  0  0  0  0  0  0  0
  1  3  1  0  0  0  0
  4  1  1  6  0  0  0
  4  6  1  0  0  0  0
  4 31  1  0  0  0  0
  6  7  1  0  0  0  0
  7  9  1  6  0  0  0
  7 30  1  0  0  0  0
  8 26  1  0  0  0  0
 10  9  1  1  0  0  0
 10 13  1  0  0  0  0
 10 21  1  0  0  0  0
 13 12  1  6  0  0  0
 13 15  1  0  0  0  0
 15  2  1  1  0  0  0
 15 17  1  0  0  0  0
 16 25  1  0  0  0  0
 16 23  1  0  0  0  0
 17 19  1  0  0  0  0
 19  5  1  1  0  0  0
 19 21  1  0  0  0  0
 21 14  1  6  0  0  0
 23 14  1  1  0  0  0
 23 29  1  0  0  0  0
 25 26  1  1  0  0  0
 25 27  1  0  0  0  0
 27 18  1  1  0  0  0
 27 28  1  0  0  0  0
 28 20  1  6  0  0  0
 28 29  1  0  0  0  0
 29 11  1  1  0  0  0
 30 22  1  1  0  0  0
 30 31  1  0  0  0  0
 31 24  1  1  0  0  0
M  END
>  <CHROM.1>
69.18148599,-84.12552917,-73.23703422,84.43169585,64.80606618,73.22971565
19.38705152,5.73658102,13.45457170,0.83090130,0.93307480,-2.73346181

>  <Name>
ligand

>  <RI>
0

>  <Rbt.Current_Directory>
/home/itssahil/PROJECTS/Mol_Feturizer/New_Systems/rnas/3DVV

>  <Rbt.Executable>
rbdock ($Id: //depot/dev/client3/rdock/2013.1/src/exe/rbdock.cxx#4 $)

>  <Rbt.Library>
libRbt.so (2013.1, Build901 2013/11/27)

>  <Rbt.Parameter_File>
/export/apps/rDock/src/rDock_2013.1_src/data/scripts/dock_solv.prm

>  <Rbt.Receptor>
prm/blind_docking_40.prm

>  <SCORE>
-3.90376

>  <SCORE.INTER>
-2.44091

>  <SCORE.INTER.CONST>
1

>  <SCORE.INTER.POLAR>
0

>  <SCORE.INTER.ROT>
6

>  <SCORE.INTER.SOLV>
22.796

>  <SCORE.INTER.VDW>
-16.826

>  <SCORE.INTER.norm>
-0.0787391

>  <SCORE.INTRA>
-1.53407

>  <SCORE.INTRA.DIHEDRAL>
-3.72415

>  <SCORE.INTRA.DIHEDRAL.0>
10.8172

>  <SCORE.INTRA.POLAR>
0

>  <SCORE.INTRA.POLAR.0>
0

>  <SCORE.INTRA.REPUL>
0

>  <SCORE.INTRA.REPUL.0>
0

>  <SCORE.INTRA.SOLV>
-3.72116

>  <SCORE.INTRA.SOLV.lig_0>
-80.3833

>  <SCORE.INTRA.VDW>
2.18859

>  <SCORE.INTRA.VDW.0>
-4.63762

>  <SCORE.INTRA.norm>
-0.049486

>  <SCORE.RESTR>
0.0712226

>  <SCORE.RESTR.CAVITY>
0.0712226

>  <SCORE.RESTR.norm>
0.0022975

>  <SCORE.SYSTEM>
0

>  <SCORE.SYSTEM.CONST>
0

>  <SCORE.SYSTEM.DIHEDRAL>
0

>  <SCORE.SYSTEM.SOLV>
0

>  <SCORE.SYSTEM.norm>
0

>  <SCORE.heavy>
31

>  <SCORE.norm>
-0.125928

>  <RMSD>
7.005

$$$$
ligand
 OpenBabel11021811473D
libRbt.so/2013.1/901 2013/11/27
 31 33  0  0  0  0  0  0  0  0999 V2000
   22.6789    4.2890   17.1436 C   0  0  0  0  0  0  0  0  0  0  0  0
   19.3649    8.6397   10.4505 N   0  0  0  0  0  0  0  0  0  0  0  0
   22.2581    2.9882   16.7197 O   0  0  0  0  0  0  0  0  0  0  0  0
   22.9059    5.1920   15.9286 C   0  0  1  0  0  0  0  0  0  0  0  0
   15.6310    6.6397   12.8921 N   0  0  0  0  0  0  0  0  0  0  0  0
   21.6975    5.2898   15.1498 O   0  0  0  0  0  0  0  0  0  0  0  0
   21.3681    6.6809   14.9874 C   0  0  1  0  0  0  0  0  0  0  0  0
   15.5603    8.3634   17.0062 N   0  0  0  0  0  0  0  0  0  0  0  0
   19.9477    6.8895   14.9454 O   0  0  0  0  0  0  0  0  0  0  0  0
   19.3560    6.5858   13.6735 C   0  0  2  0  0  0  0  0  0  0  0  0
   18.1976    2.6881   15.4888 N   0  0  0  0  0  0  0  0  0  0  0  0
   21.1092    7.7533   12.4877 O   0  0  0  0  0  0  0  0  0  0  0  0
   19.6988    7.7402   12.7247 C   0  0  1  0  0  0  0  0  0  0  0  0
   17.4943    5.2013   14.5092 O   0  0  0  0  0  0  0  0  0  0  0  0
   18.9657    7.5817   11.3911 C   0  0  1  0  0  0  0  0  0  0  0  0
   17.2321    6.0774   16.6775 O   0  0  0  0  0  0  0  0  0  0  0  0
   17.4581    7.6409   11.6382 C   0  0  0  0  0  0  0  0  0  0  0  0
   13.9947    4.4264   17.1972 O   0  0  0  0  0  0  0  0  0  0  0  0
   17.0527    6.4798   12.5509 C   0  0  1  0  0  0  0  0  0  0  0  0
   15.8226    2.2097   17.0985 O   0  0  0  0  0  0  0  0  0  0  0  0
   17.8493    6.4351   13.8605 C   0  0  2  0  0  0  0  0  0  0  0  0
   22.1001    8.7295   16.1386 O   0  0  0  0  0  0  0  0  0  0  0  0
   17.9183    5.0970   15.8774 C   0  0  1  0  0  0  0  0  0  0  0  0
   24.1994    7.2447   15.5174 O   0  0  0  0  0  0  0  0  0  0  0  0
   15.8006    5.9430   16.6758 C   0  0  2  0  0  0  0  0  0  0  0  0
   15.1922    7.0449   17.5465 C   0  0  0  0  0  0  0  0  0  0  0  0
   15.4149    4.5825   17.2592 C   0  0  2  0  0  0  0  0  0  0  0  0
   16.0823    3.4631   16.4575 C   0  0  1  0  0  0  0  0  0  0  0  0
   17.5950    3.6875   16.3842 C   0  0  1  0  0  0  0  0  0  0  0  0
   21.9105    7.3182   16.2649 C   0  0  2  0  0  0  0  0  0  0  0  0
   23.2569    6.6107   16.3858 C   0  0  1  0  0  0  0  0  0  0  0  0
  1  3  1  0  0  0  0
  4  1  1  1  0  0  0
  4  6  1  0  0  0  0
  4 31  1  0  0  0  0
  6  7  1  0  0  0  0
  7  9  1  1  0  0  0
  7 30  1  0  0  0  0
  8 26  1  0  0  0  0
 10  9  1  1  0  0  0
 10 13  1  0  0  0  0
 10 21  1  0  0  0  0
 13 12  1  6  0  0  0
 13 15  1  0  0  0  0
 15  2  1  6  0  0  0
 15 17  1  0  0  0  0
 16 25  1  0  0  0  0
 16 23  1  0  0  0  0
 17 19  1  0  0  0  0
 19  5  1  1  0  0  0
 19 21  1  0  0  0  0
 21 14  1  6  0  0  0
 23 14  1  6  0  0  0
 23 29  1  0  0  0  0
 25 26  1  1  0  0  0
 25 27  1  0  0  0  0
 27 18  1  6  0  0  0
 27 28  1  0  0  0  0
 28 20  1  1  0  0  0
 28 29  1  0  0  0  0
 29 11  1  6  0  0  0
 30 22  1  6  0  0  0
 30 31  1  0  0  0  0
 31 24  1  6  0  0  0
M  END
>  <CHROM.1>
58.25473893,-79.20181838,-75.87521377,65.21872554,66.93453308,60.15578683
18.90465866,5.97146943,15.15639803,-0.32845580,0.08107976,2.24331579

>  <Name>
ligand

>  <RI>
0

>  <Rbt.Current_Directory>
/home/itssahil/PROJECTS/Mol_Feturizer/New_Systems/rnas/3DVV

>  <Rbt.Executable>
rbdock ($Id: //depot/dev/client3/rdock/2013.1/src/exe/rbdock.cxx#4 $)

>  <Rbt.Library>
libRbt.so (2013.1, Build901 2013/11/27)

>  <Rbt.Parameter_File>
/export/apps/rDock/src/rDock_2013.1_src/data/scripts/dock_solv.prm

>  <Rbt.Receptor>
prm/pocket_docking_8.prm

>  <SCORE>
-8.32456

>  <SCORE.INTER>
-4.552

>  <SCORE.INTER.CONST>
1

>  <SCORE.INTER.POLAR>
0

>  <SCORE.INTER.ROT>
6

>  <SCORE.INTER.SOLV>
13.5815

>  <SCORE.INTER.VDW>
-15.1618

>  <SCORE.INTER.norm>
-0.146839

>  <SCORE.INTRA>
-3.78172

>  <SCORE.INTRA.DIHEDRAL>
-7.40146

>  <SCORE.INTRA.DIHEDRAL.0>
10.8172

>  <SCORE.INTRA.POLAR>
0

>  <SCORE.INTRA.POLAR.0>
0

>  <SCORE.INTRA.REPUL>
0

>  <SCORE.INTRA.REPUL.0>
0

>  <SCORE.INTRA.SOLV>
-4.15569

>  <SCORE.INTRA.SOLV.lig_0>
-80.3833

>  <SCORE.INTRA.VDW>
1.99686

>  <SCORE.INTRA.VDW.0>
-4.63762

>  <SCORE.INTRA.norm>
-0.121991

>  <SCORE.RESTR>
0.00915728

>  <SCORE.RESTR.CAVITY>
0.00915728

>  <SCORE.RESTR.norm>
0.000295396

>  <SCORE.SYSTEM>
0

>  <SCORE.SYSTEM.CONST>
0

>  <SCORE.SYSTEM.DIHEDRAL>
0

>  <SCORE.SYSTEM.SOLV>
0

>  <SCORE.SYSTEM.norm>
0

>  <SCORE.heavy>
31

>  <SCORE.norm>
-0.268534

>  <RMSD>
7.005

$$$$
ligand
 OpenBabel11021811473D
libRbt.so/2013.1/901 2013/11/27
 31 33  0  0  0  0  0  0  0  0999 V2000
   19.3643    2.2336   10.1053 C   0  0  0  0  0  0  0  0  0  0  0  0
   22.4174    4.9304   17.7199 N   0  0  0  0  0  0  0  0  0  0  0  0
   18.1232    2.8716   10.4238 O   0  0  0  0  0  0  0  0  0  0  0  0
   20.1225    1.8842   11.3884 C   0  0  1  0  0  0  0  0  0  0  0  0
   19.8153    8.5549   15.7209 N   0  0  0  0  0  0  0  0  0  0  0  0
   20.3636    3.0752   12.1628 O   0  0  0  0  0  0  0  0  0  0  0  0
   19.8441    2.8727   13.4890 C   0  0  1  0  0  0  0  0  0  0  0  0
   14.6247    7.9831   12.7373 N   0  0  0  0  0  0  0  0  0  0  0  0
   19.3399    4.0929   14.0545 O   0  0  0  0  0  0  0  0  0  0  0  0
   20.3668    4.9935   14.4953 C   0  0  2  0  0  0  0  0  0  0  0  0
   20.0305    6.4326   10.6515 N   0  0  0  0  0  0  0  0  0  0  0  0
   21.5385    3.2220   15.6493 O   0  0  0  0  0  0  0  0  0  0  0  0
   20.8783    4.4756   15.8446 C   0  0  1  0  0  0  0  0  0  0  0  0
   19.5447    7.0084   13.3354 O   0  0  0  0  0  0  0  0  0  0  0  0
   21.8592    5.4691   16.4703 C   0  0  1  0  0  0  0  0  0  0  0  0
   17.2134    6.8957   13.0351 O   0  0  0  0  0  0  0  0  0  0  0  0
   21.1318    6.7855   16.7451 C   0  0  0  0  0  0  0  0  0  0  0  0
   17.0366   10.1829   11.4105 O   0  0  0  0  0  0  0  0  0  0  0  0
   20.6340    7.3705   15.4202 C   0  0  1  0  0  0  0  0  0  0  0  0
   18.4900    8.6106    9.4922 O   0  0  0  0  0  0  0  0  0  0  0  0
   19.7695    6.3923   14.6155 C   0  0  2  0  0  0  0  0  0  0  0  0
   18.2762    1.2375   14.4512 O   0  0  0  0  0  0  0  0  0  0  0  0
   18.4871    6.4203   12.5618 C   0  0  1  0  0  0  0  0  0  0  0  0
   20.0762   -0.0057   12.9638 O   0  0  0  0  0  0  0  0  0  0  0  0
   17.0467    8.3212   12.9490 C   0  0  2  0  0  0  0  0  0  0  0  0
   15.6662    8.6985   13.4917 C   0  0  0  0  0  0  0  0  0  0  0  0
   17.1392    8.7585   11.4860 C   0  0  2  0  0  0  0  0  0  0  0  0
   18.4783    8.3156   10.8929 C   0  0  1  0  0  0  0  0  0  0  0  0
   18.6793    6.8111   11.0926 C   0  0  1  0  0  0  0  0  0  0  0  0
   18.6677    1.9258   13.2610 C   0  0  2  0  0  0  0  0  0  0  0  0
   19.2786    0.9498   12.2600 C   0  0  1  0  0  0  0  0  0  0  0  0
  1  3  1  0  0  0  0
  4  1  1  6  0  0  0
  4  6  1  0  0  0  0
  4 31  1  0  0  0  0
  6  7  1  0  0  0  0
  7  9  1  6  0  0  0
  7 30  1  0  0  0  0
  8 26  1  0  0  0  0
 10  9  1  1  0  0  0
 10 13  1  0  0  0  0
 10 21  1  0  0  0  0
 13 12  1  6  0  0  0
 13 15  1  0  0  0  0
 15  2  1  1  0  0  0
 15 17  1  0  0  0  0
 16 25  1  0  0  0  0
 16 23  1  0  0  0  0
 17 19  1  0  0  0  0
 19  5  1  1  0  0  0
 19 21  1  0  0  0  0
 21 14  1  6  0  0  0
 23 14  1  1  0  0  0
 23 29  1  0  0  0  0
 25 26  1  6  0  0  0
 25 27  1  0  0  0  0
 27 18  1  1  0  0  0
 27 28  1  0  0  0  0
 28 20  1  6  0  0  0
 28 29  1  0  0  0  0
 29 11  1  1  0  0  0
 30 22  1  1  0  0  0
 30 31  1  0  0  0  0
 31 24  1  1  0  0  0
M  END
>  <CHROM.1>
-58.40823980,-75.51513127,-78.29896714,79.53875242,69.73749274,-57.37698417
19.15689536,5.38245178,13.21154308,0.77859785,0.98871347,-2.70546562

>  <Name>
ligand

>  <RI>
0

>  <Rbt.Current_Directory>
/home/itssahil/PROJECTS/Mol_Feturizer/New_Systems/rnas/3DVV

>  <Rbt.Executable>
rbdock ($Id: //depot/dev/client3/rdock/2013.1/src/exe/rbdock.cxx#4 $)

>  <Rbt.Library>
libRbt.so (2013.1, Build901 2013/11/27)

>  <Rbt.Parameter_File>
/export/apps/rDock/src/rDock_2013.1_src/data/scripts/dock_solv.prm

>  <Rbt.Receptor>
prm/blind_docking_40.prm

>  <SCORE>
-4.19125

>  <SCORE.INTER>
-2.42534

>  <SCORE.INTER.CONST>
1

>  <SCORE.INTER.POLAR>
0

>  <SCORE.INTER.ROT>
6

>  <SCORE.INTER.SOLV>
22.5103

>  <SCORE.INTER.VDW>
-16.7203

>  <SCORE.INTER.norm>
-0.0782369

>  <SCORE.INTRA>
-1.80063

>  <SCORE.INTRA.DIHEDRAL>
-5.7341

>  <SCORE.INTRA.DIHEDRAL.0>
10.8172

>  <SCORE.INTRA.POLAR>
0

>  <SCORE.INTRA.POLAR.0>
0

>  <SCORE.INTRA.REPUL>
0

>  <SCORE.INTRA.REPUL.0>
0

>  <SCORE.INTRA.SOLV>
-1.15096

>  <SCORE.INTRA.SOLV.lig_0>
-80.3833

>  <SCORE.INTRA.VDW>
1.6419

>  <SCORE.INTRA.VDW.0>
-4.63762

>  <SCORE.INTRA.norm>
-0.0580848

>  <SCORE.RESTR>
0.0347177

>  <SCORE.RESTR.CAVITY>
0.0347177

>  <SCORE.RESTR.norm>
0.00111992

>  <SCORE.SYSTEM>
0

>  <SCORE.SYSTEM.CONST>
0

>  <SCORE.SYSTEM.DIHEDRAL>
0

>  <SCORE.SYSTEM.SOLV>
0

>  <SCORE.SYSTEM.norm>
0

>  <SCORE.heavy>
31

>  <SCORE.norm>
-0.135202

>  <RMSD>
7.013

$$$$
ligand
 OpenBabel11021811473D
libRbt.so/2013.1/901 2013/11/27
 31 33  0  0  0  0  0  0  0  0999 V2000
   21.4300    5.1335   17.0898 C   0  0  0  0  0  0  0  0  0  0  0  0
   19.1198   10.4124   11.2702 N   0  0  0  0  0  0  0  0  0  0  0  0
   20.2941    4.3372   16.7370 O   0  0  0  0  0  0  0  0  0  0  0  0
   21.4630    6.4092   16.2443 C   0  0  1  0  0  0  0  0  0  0  0  0
   15.4299    7.7280   13.0257 N   0  0  0  0  0  0  0  0  0  0  0  0
   21.4955    6.0755   14.8429 O   0  0  0  0  0  0  0  0  0  0  0  0
   20.4071    6.7491   14.1860 C   0  0  1  0  0  0  0  0  0  0  0  0
   20.2006    2.3871   10.0826 N   0  0  0  0  0  0  0  0  0  0  0  0
   19.8833    5.9748   13.0955 O   0  0  0  0  0  0  0  0  0  0  0  0
   19.0111    6.7141   12.2280 C   0  0  2  0  0  0  0  0  0  0  0  0
   14.6764    4.2678   11.4712 N   0  0  0  0  0  0  0  0  0  0  0  0
   20.8109    8.1638   11.5196 O   0  0  0  0  0  0  0  0  0  0  0  0
   19.5378    8.1528   12.1712 C   0  0  1  0  0  0  0  0  0  0  0  0
   16.9782    5.3674   12.5950 O   0  0  0  0  0  0  0  0  0  0  0  0
   18.5705    9.0543   11.4015 C   0  0  1  0  0  0  0  0  0  0  0  0
   18.3639    4.3427   10.9925 O   0  0  0  0  0  0  0  0  0  0  0  0
   17.2323    9.0987   12.1397 C   0  0  0  0  0  0  0  0  0  0  0  0
   18.1342    1.0388   12.5761 O   0  0  0  0  0  0  0  0  0  0  0  0
   16.6388    7.6877   12.1891 C   0  0  1  0  0  0  0  0  0  0  0  0
   15.4546    1.4695   11.6281 O   0  0  0  0  0  0  0  0  0  0  0  0
   17.5950    6.6517   12.7924 C   0  0  2  0  0  0  0  0  0  0  0  0
   18.3553    7.8314   15.0088 O   0  0  0  0  0  0  0  0  0  0  0  0
   17.0480    4.8663   11.2508 C   0  0  1  0  0  0  0  0  0  0  0  0
   20.4335    8.6363   16.4339 O   0  0  0  0  0  0  0  0  0  0  0  0
   18.7489    3.2614   11.8585 C   0  0  2  0  0  0  0  0  0  0  0  0
   20.1635    2.8055   11.4930 C   0  0  0  0  0  0  0  0  0  0  0  0
   17.7866    2.0876   11.6682 C   0  0  2  0  0  0  0  0  0  0  0  0
   16.3511    2.5400   11.9435 C   0  0  1  0  0  0  0  0  0  0  0  0
   16.0016    3.7591   11.0859 C   0  0  1  0  0  0  0  0  0  0  0  0
   19.3396    6.8295   15.2753 C   0  0  2  0  0  0  0  0  0  0  0  0
   20.1902    7.2280   16.4777 C   0  0  1  0  0  0  0  0  0  0  0  0
  1  3  1  0  0  0  0
  4  1  1  1  0  0  0
  4  6  1  0  0  0  0
  4 31  1  0  0  0  0
  6  7  1  0  0  0  0
  7  9  1  6  0  0  0
  7 30  1  0  0  0  0
  8 26  1  0  0  0  0
 10  9  1  1  0  0  0
 10 13  1  0  0  0  0
 10 21  1  0  0  0  0
 13 12  1  6  0  0  0
 13 15  1  0  0  0  0
 15  2  1  1  0  0  0
 15 17  1  0  0  0  0
 16 25  1  0  0  0  0
 16 23  1  0  0  0  0
 17 19  1  0  0  0  0
 19  5  1  1  0  0  0
 19 21  1  0  0  0  0
 21 14  1  6  0  0  0
 23 14  1  1  0  0  0
 23 29  1  0  0  0  0
 25 26  1  6  0  0  0
 25 27  1  0  0  0  0
 27 18  1  1  0  0  0
 27 28  1  0  0  0  0
 28 20  1  6  0  0  0
 28 29  1  0  0  0  0
 29 11  1  1  0  0  0
 30 22  1  6  0  0  0
 30 31  1  0  0  0  0
 31 24  1  6  0  0  0
M  END
>  <CHROM.1>
-57.80596396,-166.79729962,34.22541978,77.51141383,-50.09175099,-58.33068901
18.64034330,5.68954601,13.02021826,-0.83791133,0.82470931,-3.13210855

>  <Name>
ligand

>  <RI>
0

>  <Rbt.Current_Directory>
/home/itssahil/PROJECTS/Mol_Feturizer/New_Systems/rnas/3DVV

>  <Rbt.Executable>
rbdock ($Id: //depot/dev/client3/rdock/2013.1/src/exe/rbdock.cxx#4 $)

>  <Rbt.Library>
libRbt.so (2013.1, Build901 2013/11/27)

>  <Rbt.Parameter_File>
/export/apps/rDock/src/rDock_2013.1_src/data/scripts/dock_solv.prm

>  <Rbt.Receptor>
prm/blind_docking_40.prm

>  <SCORE>
1.71891

>  <SCORE.INTER>
-2.66053

>  <SCORE.INTER.CONST>
1

>  <SCORE.INTER.POLAR>
0

>  <SCORE.INTER.ROT>
6

>  <SCORE.INTER.SOLV>
15.5779

>  <SCORE.INTER.VDW>
-14.5663

>  <SCORE.INTER.norm>
-0.0858234

>  <SCORE.INTRA>
4.17347

>  <SCORE.INTRA.DIHEDRAL>
-5.04528

>  <SCORE.INTRA.DIHEDRAL.0>
10.8172

>  <SCORE.INTRA.POLAR>
0

>  <SCORE.INTRA.POLAR.0>
0

>  <SCORE.INTRA.REPUL>
0

>  <SCORE.INTRA.REPUL.0>
0

>  <SCORE.INTRA.SOLV>
0.0505592

>  <SCORE.INTRA.SOLV.lig_0>
-80.3833

>  <SCORE.INTRA.VDW>
6.67083

>  <SCORE.INTRA.VDW.0>
-4.63762

>  <SCORE.INTRA.norm>
0.134628

>  <SCORE.RESTR>
0.20596

>  <SCORE.RESTR.CAVITY>
0.20596

>  <SCORE.RESTR.norm>
0.00664386

>  <SCORE.SYSTEM>
0

>  <SCORE.SYSTEM.CONST>
0

>  <SCORE.SYSTEM.DIHEDRAL>
0

>  <SCORE.SYSTEM.SOLV>
0

>  <SCORE.SYSTEM.norm>
0

>  <SCORE.heavy>
31

>  <SCORE.norm>
0.0554486

>  <RMSD>
7.017

$$$$
ligand
 OpenBabel11021811473D
libRbt.so/2013.1/901 2013/11/27
 31 33  0  0  0  0  0  0  0  0999 V2000
   19.6116    3.2507   12.3170 C   0  0  0  0  0  0  0  0  0  0  0  0
   15.9269    8.1694   13.3907 N   0  0  0  0  0  0  0  0  0  0  0  0
   19.4825    4.3792   11.4459 O   0  0  0  0  0  0  0  0  0  0  0  0
   19.4661    3.6910   13.7758 C   0  0  1  0  0  0  0  0  0  0  0  0
   15.9776    7.0547   18.1508 N   0  0  0  0  0  0  0  0  0  0  0  0
   18.1727    4.2901   13.9872 O   0  0  0  0  0  0  0  0  0  0  0  0
   17.5229    3.6067   15.0736 C   0  0  1  0  0  0  0  0  0  0  0  0
   18.0783    4.3748   21.5433 N   0  0  0  0  0  0  0  0  0  0  0  0
   16.0993    3.5514   14.8913 O   0  0  0  0  0  0  0  0  0  0  0  0
   15.4368    4.8020   15.1305 C   0  0  2  0  0  0  0  0  0  0  0  0
   13.0406    2.4671   17.8538 N   0  0  0  0  0  0  0  0  0  0  0  0
   15.5990    5.4265   12.8011 O   0  0  0  0  0  0  0  0  0  0  0  0
   15.9931    5.8124   14.1206 C   0  0  1  0  0  0  0  0  0  0  0  0
   14.9624    4.4596   17.5261 O   0  0  0  0  0  0  0  0  0  0  0  0
   15.4648    7.2182   14.4130 C   0  0  1  0  0  0  0  0  0  0  0  0
   16.6723    3.0808   18.3706 O   0  0  0  0  0  0  0  0  0  0  0  0
   15.9484    7.6576   15.7952 C   0  0  0  0  0  0  0  0  0  0  0  0
   15.5961    3.4967   21.8556 O   0  0  0  0  0  0  0  0  0  0  0  0
   15.3849    6.7026   16.8516 C   0  0  1  0  0  0  0  0  0  0  0  0
   13.4250    2.0080   20.7002 O   0  0  0  0  0  0  0  0  0  0  0  0
   15.7097    5.2307   16.5691 C   0  0  2  0  0  0  0  0  0  0  0  0
   17.9280    1.4499   16.1881 O   0  0  0  0  0  0  0  0  0  0  0  0
   15.4068    3.1031   17.6848 C   0  0  1  0  0  0  0  0  0  0  0  0
   20.2022    2.7779   15.9392 O   0  0  0  0  0  0  0  0  0  0  0  0
   16.6414    3.6633   19.6847 C   0  0  2  0  0  0  0  0  0  0  0  0
   18.0415    3.5904   20.2987 C   0  0  0  0  0  0  0  0  0  0  0  0
   15.6722    2.8767   20.5691 C   0  0  2  0  0  0  0  0  0  0  0  0
   14.2811    2.8603   19.9323 C   0  0  1  0  0  0  0  0  0  0  0  0
   14.3574    2.3357   18.4960 C   0  0  1  0  0  0  0  0  0  0  0  0
   18.0765    2.1869   14.9722 C   0  0  2  0  0  0  0  0  0  0  0  0
   19.5503    2.4753   14.7031 C   0  0  1  0  0  0  0  0  0  0  0  0
  1  3  1  0  0  0  0
  4  1  1  6  0  0  0
  4  6  1  0  0  0  0
  4 31  1  0  0  0  0
  6  7  1  0  0  0  0
  7  9  1  6  0  0  0
  7 30  1  0  0  0  0
  8 26  1  0  0  0  0
 10  9  1  6  0  0  0
 10 13  1  0  0  0  0
 10 21  1  0  0  0  0
 13 12  1  6  0  0  0
 13 15  1  0  0  0  0
 15  2  1  6  0  0  0
 15 17  1  0  0  0  0
 16 25  1  0  0  0  0
 16 23  1  0  0  0  0
 17 19  1  0  0  0  0
 19  5  1  1  0  0  0
 19 21  1  0  0  0  0
 21 14  1  1  0  0  0
 23 14  1  1  0  0  0
 23 29  1  0  0  0  0
 25 26  1  1  0  0  0
 25 27  1  0  0  0  0
 27 18  1  1  0  0  0
 27 28  1  0  0  0  0
 28 20  1  1  0  0  0
 28 29  1  0  0  0  0
 29 11  1  6  0  0  0
 30 22  1  1  0  0  0
 30 31  1  0  0  0  0
 31 24  1  1  0  0  0
M  END
>  <CHROM.1>
60.17651492,-74.39752964,61.19767774,71.31364047,71.45147559,170.76055619
16.58984627,4.10466048,16.60422196,-1.09019781,-0.70880259,2.10612003

>  <Name>
ligand

>  <RI>
0

>  <Rbt.Current_Directory>
/home/itssahil/PROJECTS/Mol_Feturizer/New_Systems/rnas/3DVV

>  <Rbt.Executable>
rbdock ($Id: //depot/dev/client3/rdock/2013.1/src/exe/rbdock.cxx#4 $)

>  <Rbt.Library>
libRbt.so (2013.1, Build901 2013/11/27)

>  <Rbt.Parameter_File>
/export/apps/rDock/src/rDock_2013.1_src/data/scripts/dock_solv.prm

>  <Rbt.Receptor>
prm/pocket_docking_5.prm

>  <SCORE>
-0.0356787

>  <SCORE.INTER>
2.25347

>  <SCORE.INTER.CONST>
1

>  <SCORE.INTER.POLAR>
0

>  <SCORE.INTER.ROT>
6

>  <SCORE.INTER.SOLV>
13.0733

>  <SCORE.INTER.VDW>
-10.4555

>  <SCORE.INTER.norm>
0.0726925

>  <SCORE.INTRA>
-2.28915

>  <SCORE.INTRA.DIHEDRAL>
-8.07782

>  <SCORE.INTRA.DIHEDRAL.0>
10.8172

>  <SCORE.INTRA.POLAR>
0

>  <SCORE.INTRA.POLAR.0>
0

>  <SCORE.INTRA.REPUL>
0

>  <SCORE.INTRA.REPUL.0>
0

>  <SCORE.INTRA.SOLV>
-2.32636

>  <SCORE.INTRA.SOLV.lig_0>
-80.3833

>  <SCORE.INTRA.VDW>
2.91294

>  <SCORE.INTRA.VDW.0>
-4.63762

>  <SCORE.INTRA.norm>
-0.0738434

>  <SCORE.RESTR>
0

>  <SCORE.RESTR.CAVITY>
0

>  <SCORE.RESTR.norm>
0

>  <SCORE.SYSTEM>
0

>  <SCORE.SYSTEM.CONST>
0

>  <SCORE.SYSTEM.DIHEDRAL>
0

>  <SCORE.SYSTEM.SOLV>
0

>  <SCORE.SYSTEM.norm>
0

>  <SCORE.heavy>
31

>  <SCORE.norm>
-0.00115093

>  <RMSD>
7.017

$$$$
ligand
 OpenBabel11021811473D
libRbt.so/2013.1/901 2013/11/27
 31 33  0  0  0  0  0  0  0  0999 V2000
   22.0977    8.0738   15.7846 C   0  0  0  0  0  0  0  0  0  0  0  0
   26.9372    0.8624   14.9005 N   0  0  0  0  0  0  0  0  0  0  0  0
   20.7444    8.5050   15.9616 O   0  0  0  0  0  0  0  0  0  0  0  0
   22.1415    6.5651   15.5293 C   0  0  1  0  0  0  0  0  0  0  0  0
   29.8977    4.7135   15.4555 N   0  0  0  0  0  0  0  0  0  0  0  0
   23.4909    6.1488   15.2423 O   0  0  0  0  0  0  0  0  0  0  0  0
   23.8474    5.0916   16.1507 C   0  0  1  0  0  0  0  0  0  0  0  0
   28.4259    6.5129   19.6474 N   0  0  0  0  0  0  0  0  0  0  0  0
   25.2426    5.1298   16.4895 O   0  0  0  0  0  0  0  0  0  0  0  0
   26.0952    4.5426   15.4954 C   0  0  2  0  0  0  0  0  0  0  0  0
   26.8062    8.6507   13.7425 N   0  0  0  0  0  0  0  0  0  0  0  0
   24.7262    2.5539   15.3789 O   0  0  0  0  0  0  0  0  0  0  0  0
   26.0412    3.0228   15.6895 C   0  0  1  0  0  0  0  0  0  0  0  0
   27.6394    6.4473   15.2328 O   0  0  0  0  0  0  0  0  0  0  0  0
   27.0530    2.3236   14.7794 C   0  0  1  0  0  0  0  0  0  0  0  0
   26.9603    7.4398   17.2556 O   0  0  0  0  0  0  0  0  0  0  0  0
   28.4639    2.7716   15.1618 C   0  0  0  0  0  0  0  0  0  0  0  0
   29.8518    9.6981   17.3800 O   0  0  0  0  0  0  0  0  0  0  0  0
   28.5868    4.2829   14.9462 C   0  0  1  0  0  0  0  0  0  0  0  0
   28.3882   10.6749   15.1066 O   0  0  0  0  0  0  0  0  0  0  0  0
   27.5082    5.0872   15.6820 C   0  0  2  0  0  0  0  0  0  0  0  0
   22.8811    4.2958   18.2698 O   0  0  0  0  0  0  0  0  0  0  0  0
   26.7219    7.3720   15.8375 C   0  0  1  0  0  0  0  0  0  0  0  0
   20.9686    4.6173   16.4708 O   0  0  0  0  0  0  0  0  0  0  0  0
   28.2834    7.8761   17.6111 C   0  0  2  0  0  0  0  0  0  0  0  0
   28.4133    7.8927   19.1360 C   0  0  0  0  0  0  0  0  0  0  0  0
   28.5139    9.2921   17.0799 C   0  0  2  0  0  0  0  0  0  0  0  0
   28.3041    9.3212   15.5646 C   0  0  1  0  0  0  0  0  0  0  0  0
   26.9291    8.7522   15.2047 C   0  0  1  0  0  0  0  0  0  0  0  0
   23.0388    5.4219   17.4035 C   0  0  2  0  0  0  0  0  0  0  0  0
   21.6987    5.8063   16.7835 C   0  0  1  0  0  0  0  0  0  0  0  0
  1  3  1  0  0  0  0
  4  1  1  1  0  0  0
  4  6  1  0  0  0  0
  4 31  1  0  0  0  0
  6  7  1  0  0  0  0
  7  9  1  1  0  0  0
  7 30  1  0  0  0  0
  8 26  1  0  0  0  0
 10  9  1  1  0  0  0
 10 13  1  0  0  0  0
 10 21  1  0  0  0  0
 13 12  1  6  0  0  0
 13 15  1  0  0  0  0
 15  2  1  1  0  0  0
 15 17  1  0  0  0  0
 16 25  1  0  0  0  0
 16 23  1  0  0  0  0
 17 19  1  0  0  0  0
 19  5  1  1  0  0  0
 19 21  1  0  0  0  0
 21 14  1  6  0  0  0
 23 14  1  6  0  0  0
 23 29  1  0  0  0  0
 25 26  1  1  0  0  0
 25 27  1  0  0  0  0
 27 18  1  6  0  0  0
 27 28  1  0  0  0  0
 28 20  1  1  0  0  0
 28 29  1  0  0  0  0
 29 11  1  6  0  0  0
 30 22  1  1  0  0  0
 30 31  1  0  0  0  0
 31 24  1  6  0  0  0
M  END
>  <CHROM.1>
175.30118527,-80.62541150,-80.09177983,62.81371838,55.81178356,70.21314290
25.97933634,6.14242275,16.15236733,2.64571509,-0.02365686,-3.00182971

>  <Name>
ligand

>  <RI>
0

>  <Rbt.Current_Directory>
/home/itssahil/PROJECTS/Mol_Feturizer/New_Systems/rnas/3DVV

>  <Rbt.Executable>
rbdock ($Id: //depot/dev/client3/rdock/2013.1/src/exe/rbdock.cxx#4 $)

>  <Rbt.Library>
libRbt.so (2013.1, Build901 2013/11/27)

>  <Rbt.Parameter_File>
/export/apps/rDock/src/rDock_2013.1_src/data/scripts/dock_solv.prm

>  <Rbt.Receptor>
prm/pocket_docking_8.prm

>  <SCORE>
-9.61289

>  <SCORE.INTER>
-6.39939

>  <SCORE.INTER.CONST>
1

>  <SCORE.INTER.POLAR>
0

>  <SCORE.INTER.ROT>
6

>  <SCORE.INTER.SOLV>
18.3644

>  <SCORE.INTER.VDW>
-17.9877

>  <SCORE.INTER.norm>
-0.206432

>  <SCORE.INTRA>
-3.2135

>  <SCORE.INTRA.DIHEDRAL>
-6.34237

>  <SCORE.INTRA.DIHEDRAL.0>
10.8172

>  <SCORE.INTRA.POLAR>
0

>  <SCORE.INTRA.POLAR.0>
0

>  <SCORE.INTRA.REPUL>
0

>  <SCORE.INTRA.REPUL.0>
0

>  <SCORE.INTRA.SOLV>
-4.4621

>  <SCORE.INTRA.SOLV.lig_0>
-80.3833

>  <SCORE.INTRA.VDW>
2.18873

>  <SCORE.INTRA.VDW.0>
-4.63762

>  <SCORE.INTRA.norm>
-0.103661

>  <SCORE.RESTR>
0

>  <SCORE.RESTR.CAVITY>
0

>  <SCORE.RESTR.norm>
0

>  <SCORE.SYSTEM>
0

>  <SCORE.SYSTEM.CONST>
0

>  <SCORE.SYSTEM.DIHEDRAL>
0

>  <SCORE.SYSTEM.SOLV>
0

>  <SCORE.SYSTEM.norm>
0

>  <SCORE.heavy>
31

>  <SCORE.norm>
-0.310093

>  <RMSD>
7.023

$$$$
ligand
 OpenBabel11021811473D
libRbt.so/2013.1/901 2013/11/27
 31 33  0  0  0  0  0  0  0  0999 V2000
   22.0653    6.6686   16.5411 C   0  0  0  0  0  0  0  0  0  0  0  0
   17.1442    9.1030   13.0736 N   0  0  0  0  0  0  0  0  0  0  0  0
   21.9864    8.0833   16.3381 O   0  0  0  0  0  0  0  0  0  0  0  0
   20.6877    6.0301   16.3468 C   0  0  1  0  0  0  0  0  0  0  0  0
   15.3774    4.6507   12.0945 N   0  0  0  0  0  0  0  0  0  0  0  0
   20.1727    6.3484   15.0392 O   0  0  0  0  0  0  0  0  0  0  0  0
   19.8353    5.1214   14.3682 C   0  0  1  0  0  0  0  0  0  0  0  0
   16.8039   -0.5857   13.3856 N   0  0  0  0  0  0  0  0  0  0  0  0
   20.0530    5.2131   12.9514 O   0  0  0  0  0  0  0  0  0  0  0  0
   18.9843    5.8579   12.2428 C   0  0  2  0  0  0  0  0  0  0  0  0
   20.0871    2.8444    9.7212 N   0  0  0  0  0  0  0  0  0  0  0  0
   19.7597    8.0498   12.9039 O   0  0  0  0  0  0  0  0  0  0  0  0
   18.6519    7.1501   12.9979 C   0  0  1  0  0  0  0  0  0  0  0  0
   17.9824    3.8301   11.2605 O   0  0  0  0  0  0  0  0  0  0  0  0
   17.4088    7.8187   12.4074 C   0  0  1  0  0  0  0  0  0  0  0  0
   17.8869    1.8681   12.5565 O   0  0  0  0  0  0  0  0  0  0  0  0
   16.2104    6.8842   12.5746 C   0  0  0  0  0  0  0  0  0  0  0  0
   16.1948   -0.0559    9.9276 O   0  0  0  0  0  0  0  0  0  0  0  0
   16.4724    5.5881   11.8020 C   0  0  1  0  0  0  0  0  0  0  0  0
   18.7942    0.4103    8.7915 O   0  0  0  0  0  0  0  0  0  0  0  0
   17.7907    4.9089   12.1923 C   0  0  2  0  0  0  0  0  0  0  0  0
   20.4223    2.7655   14.7722 O   0  0  0  0  0  0  0  0  0  0  0  0
   18.7395    2.7214   11.7707 C   0  0  1  0  0  0  0  0  0  0  0  0
   19.6549    3.9045   17.0331 O   0  0  0  0  0  0  0  0  0  0  0  0
   16.7772    1.3130   11.8302 C   0  0  2  0  0  0  0  0  0  0  0  0
   15.9455    0.4414   12.7742 C   0  0  0  0  0  0  0  0  0  0  0  0
   17.3000    0.4428   10.6858 C   0  0  2  0  0  0  0  0  0  0  0  0
   18.2070    1.2709    9.7733 C   0  0  1  0  0  0  0  0  0  0  0  0
   19.3185    1.9379   10.5879 C   0  0  1  0  0  0  0  0  0  0  0  0
   20.8365    4.1227   14.9452 C   0  0  2  0  0  0  0  0  0  0  0  0
   20.7997    4.5047   16.4219 C   0  0  1  0  0  0  0  0  0  0  0  0
  1  3  1  0  0  0  0
  4  1  1  6  0  0  0
  4  6  1  0  0  0  0
  4 31  1  0  0  0  0
  6  7  1  0  0  0  0
  7  9  1  6  0  0  0
  7 30  1  0  0  0  0
  8 26  1  0  0  0  0
 10  9  1  1  0  0  0
 10 13  1  0  0  0  0
 10 21  1  0  0  0  0
 13 12  1  6  0  0  0
 13 15  1  0  0  0  0
 15  2  1  1  0  0  0
 15 17  1  0  0  0  0
 16 25  1  0  0  0  0
 16 23  1  0  0  0  0
 17 19  1  0  0  0  0
 19  5  1  1  0  0  0
 19 21  1  0  0  0  0
 21 14  1  6  0  0  0
 23 14  1  6  0  0  0
 23 29  1  0  0  0  0
 25 26  1  1  0  0  0
 25 27  1  0  0  0  0
 27 18  1  6  0  0  0
 27 28  1  0  0  0  0
 28 20  1  6  0  0  0
 28 29  1  0  0  0  0
 29 11  1  6  0  0  0
 30 22  1  1  0  0  0
 30 31  1  0  0  0  0
 31 24  1  6  0  0  0
M  END
>  <CHROM.1>
56.56019321,-81.38034709,48.02803068,81.23616224,82.81755563,-55.71938786
18.68371139,4.16150218,12.92351246,-0.95812309,0.88660667,-3.00345771

>  <Name>
ligand

>  <RI>
0

>  <Rbt.Current_Directory>
/home/itssahil/PROJECTS/Mol_Feturizer/New_Systems/rnas/3DVV

>  <Rbt.Executable>
rbdock ($Id: //depot/dev/client3/rdock/2013.1/src/exe/rbdock.cxx#4 $)

>  <Rbt.Library>
libRbt.so (2013.1, Build901 2013/11/27)

>  <Rbt.Parameter_File>
/export/apps/rDock/src/rDock_2013.1_src/data/scripts/dock_solv.prm

>  <Rbt.Receptor>
prm/blind_docking_60.prm

>  <SCORE>
3.47349

>  <SCORE.INTER>
2.2468

>  <SCORE.INTER.CONST>
1

>  <SCORE.INTER.POLAR>
0

>  <SCORE.INTER.ROT>
6

>  <SCORE.INTER.SOLV>
16.9805

>  <SCORE.INTER.VDW>
-11.7623

>  <SCORE.INTER.norm>
0.0724773

>  <SCORE.INTRA>
1.19599

>  <SCORE.INTRA.DIHEDRAL>
-3.59081

>  <SCORE.INTRA.DIHEDRAL.0>
10.8172

>  <SCORE.INTRA.POLAR>
0

>  <SCORE.INTRA.POLAR.0>
0

>  <SCORE.INTRA.REPUL>
0.0319296

>  <SCORE.INTRA.REPUL.0>
0

>  <SCORE.INTRA.SOLV>
-1.19665

>  <SCORE.INTRA.SOLV.lig_0>
-80.3833

>  <SCORE.INTRA.VDW>
3.43008

>  <SCORE.INTRA.VDW.0>
-4.63762

>  <SCORE.INTRA.norm>
0.0385804

>  <SCORE.RESTR>
0.0307006

>  <SCORE.RESTR.CAVITY>
0.0307006

>  <SCORE.RESTR.norm>
0.000990342

>  <SCORE.SYSTEM>
0

>  <SCORE.SYSTEM.CONST>
0

>  <SCORE.SYSTEM.DIHEDRAL>
0

>  <SCORE.SYSTEM.SOLV>
0

>  <SCORE.SYSTEM.norm>
0

>  <SCORE.heavy>
31

>  <SCORE.norm>
0.112048

>  <RMSD>
7.025

$$$$
ligand
 OpenBabel11021811473D
libRbt.so/2013.1/901 2013/11/27
 31 33  0  0  0  0  0  0  0  0999 V2000
   16.5171    9.4712   15.8312 C   0  0  0  0  0  0  0  0  0  0  0  0
   13.2394    5.1425   22.2634 N   0  0  0  0  0  0  0  0  0  0  0  0
   16.9765    8.2545   15.2333 O   0  0  0  0  0  0  0  0  0  0  0  0
   16.4771    9.3280   17.3547 C   0  0  1  0  0  0  0  0  0  0  0  0
   12.9196    2.3266   18.2794 N   0  0  0  0  0  0  0  0  0  0  0  0
   15.6445    8.2124   17.7271 O   0  0  0  0  0  0  0  0  0  0  0  0
   16.4086    7.3311   18.5692 C   0  0  1  0  0  0  0  0  0  0  0  0
   18.3518    2.6138   14.8902 N   0  0  0  0  0  0  0  0  0  0  0  0
   16.0378    5.9570   18.3758 O   0  0  0  0  0  0  0  0  0  0  0  0
   14.6881    5.6622   18.7651 C   0  0  2  0  0  0  0  0  0  0  0  0
   13.4172    5.9992   14.4849 N   0  0  0  0  0  0  0  0  0  0  0  0
   14.9281    6.8954   20.8301 O   0  0  0  0  0  0  0  0  0  0  0  0
   14.6602    5.5958   20.2965 C   0  0  1  0  0  0  0  0  0  0  0  0
   14.0233    4.4511   16.7225 O   0  0  0  0  0  0  0  0  0  0  0  0
   13.2939    5.1192   20.7937 C   0  0  1  0  0  0  0  0  0  0  0  0
   16.2366    4.1057   16.0010 O   0  0  0  0  0  0  0  0  0  0  0  0
   13.0414    3.7009   20.2817 C   0  0  0  0  0  0  0  0  0  0  0  0
   15.2662    1.6202   13.4798 O   0  0  0  0  0  0  0  0  0  0  0  0
   13.0174    3.7165   18.7504 C   0  0  1  0  0  0  0  0  0  0  0  0
   14.1173    4.0449   12.4475 O   0  0  0  0  0  0  0  0  0  0  0  0
   14.2776    4.3354   18.1334 C   0  0  2  0  0  0  0  0  0  0  0  0
   18.8179    7.0987   19.0157 O   0  0  0  0  0  0  0  0  0  0  0  0
   15.1087    4.9994   15.9583 C   0  0  1  0  0  0  0  0  0  0  0  0
   18.1142    9.6444   19.1646 O   0  0  0  0  0  0  0  0  0  0  0  0
   15.9730    2.7972   15.4668 C   0  0  2  0  0  0  0  0  0  0  0  0
   17.2386    1.9442   15.5815 C   0  0  0  0  0  0  0  0  0  0  0  0
   15.5892    2.9162   13.9908 C   0  0  2  0  0  0  0  0  0  0  0  0
   14.3760    3.8363   13.8399 C   0  0  1  0  0  0  0  0  0  0  0  0
   14.6430    5.1865   14.5104 C   0  0  1  0  0  0  0  0  0  0  0  0
   17.8376    7.5194   18.0641 C   0  0  2  0  0  0  0  0  0  0  0  0
   17.8807    9.0349   17.8925 C   0  0  1  0  0  0  0  0  0  0  0  0
  1  3  1  0  0  0  0
  4  1  1  6  0  0  0
  4  6  1  0  0  0  0
  4 31  1  0  0  0  0
  6  7  1  0  0  0  0
  7  9  1  6  0  0  0
  7 30  1  0  0  0  0
  8 26  1  0  0  0  0
 10  9  1  1  0  0  0
 10 13  1  0  0  0  0
 10 21  1  0  0  0  0
 13 12  1  1  0  0  0
 13 15  1  0  0  0  0
 15  2  1  1  0  0  0
 15 17  1  0  0  0  0
 16 25  1  0  0  0  0
 16 23  1  0  0  0  0
 17 19  1  0  0  0  0
 19  5  1  6  0  0  0
 19 21  1  0  0  0  0
 21 14  1  6  0  0  0
 23 14  1  1  0  0  0
 23 29  1  0  0  0  0
 25 26  1  6  0  0  0
 25 27  1  0  0  0  0
 27 18  1  1  0  0  0
 27 28  1  0  0  0  0
 28 20  1  6  0  0  0
 28 29  1  0  0  0  0
 29 11  1  1  0  0  0
 30 22  1  1  0  0  0
 30 31  1  0  0  0  0
 31 24  1  1  0  0  0
M  END
>  <CHROM.1>
-56.73001708,-64.66136761,-76.23147089,65.09046832,55.41704556,-56.68063132
15.48564906,5.47086177,17.17634573,-1.28775239,-0.92910528,-2.11876282

>  <Name>
ligand

>  <RI>
0

>  <Rbt.Current_Directory>
/home/itssahil/PROJECTS/Mol_Feturizer/New_Systems/rnas/3DVV

>  <Rbt.Executable>
rbdock ($Id: //depot/dev/client3/rdock/2013.1/src/exe/rbdock.cxx#4 $)

>  <Rbt.Library>
libRbt.so (2013.1, Build901 2013/11/27)

>  <Rbt.Parameter_File>
/export/apps/rDock/src/rDock_2013.1_src/data/scripts/dock_solv.prm

>  <Rbt.Receptor>
prm/pocket_docking_5.prm

>  <SCORE>
-0.249163

>  <SCORE.INTER>
3.0339

>  <SCORE.INTER.CONST>
1

>  <SCORE.INTER.POLAR>
0

>  <SCORE.INTER.ROT>
6

>  <SCORE.INTER.SOLV>
10.4513

>  <SCORE.INTER.VDW>
-9.06118

>  <SCORE.INTER.norm>
0.0978678

>  <SCORE.INTRA>
-3.28306

>  <SCORE.INTRA.DIHEDRAL>
-8.9096

>  <SCORE.INTRA.DIHEDRAL.0>
10.8172

>  <SCORE.INTRA.POLAR>
0

>  <SCORE.INTRA.POLAR.0>
0

>  <SCORE.INTRA.REPUL>
0

>  <SCORE.INTRA.REPUL.0>
0

>  <SCORE.INTRA.SOLV>
-2.51727

>  <SCORE.INTRA.SOLV.lig_0>
-80.3833

>  <SCORE.INTRA.VDW>
2.43037

>  <SCORE.INTRA.VDW.0>
-4.63762

>  <SCORE.INTRA.norm>
-0.105905

>  <SCORE.RESTR>
0

>  <SCORE.RESTR.CAVITY>
0

>  <SCORE.RESTR.norm>
0

>  <SCORE.SYSTEM>
0

>  <SCORE.SYSTEM.CONST>
0

>  <SCORE.SYSTEM.DIHEDRAL>
0

>  <SCORE.SYSTEM.SOLV>
0

>  <SCORE.SYSTEM.norm>
0

>  <SCORE.heavy>
31

>  <SCORE.norm>
-0.00803753

>  <RMSD>
7.031

$$$$
ligand
 OpenBabel11021811473D
libRbt.so/2013.1/901 2013/11/27
 31 33  0  0  0  0  0  0  0  0999 V2000
   19.4549   -0.9026   12.5782 C   0  0  0  0  0  0  0  0  0  0  0  0
   12.3883    4.0197   11.1496 N   0  0  0  0  0  0  0  0  0  0  0  0
   20.1647    0.1425   11.9053 O   0  0  0  0  0  0  0  0  0  0  0  0
   17.9672   -0.8436   12.2227 C   0  0  1  0  0  0  0  0  0  0  0  0
   16.0933    6.8997   12.5214 N   0  0  0  0  0  0  0  0  0  0  0  0
   17.4455    0.4736   12.4862 O   0  0  0  0  0  0  0  0  0  0  0  0
   16.8252    0.9693   11.2865 C   0  0  1  0  0  0  0  0  0  0  0  0
   18.6530    7.7559   10.1416 N   0  0  0  0  0  0  0  0  0  0  0  0
   16.9667    2.3933   11.1642 O   0  0  0  0  0  0  0  0  0  0  0  0
   16.0207    3.1376   11.9459 C   0  0  2  0  0  0  0  0  0  0  0  0
   19.5183    3.2891   14.7327 N   0  0  0  0  0  0  0  0  0  0  0  0
   14.1714    1.8296   11.1023 O   0  0  0  0  0  0  0  0  0  0  0  0
   14.7007    3.1566   11.1663 C   0  0  1  0  0  0  0  0  0  0  0  0
   17.6406    4.5762   13.1238 O   0  0  0  0  0  0  0  0  0  0  0  0
   13.6820    4.0727   11.8474 C   0  0  1  0  0  0  0  0  0  0  0  0
   19.3007    5.3632   11.6532 O   0  0  0  0  0  0  0  0  0  0  0  0
   14.2186    5.5043   11.8497 C   0  0  0  0  0  0  0  0  0  0  0  0
   20.4067    8.0017   13.9535 O   0  0  0  0  0  0  0  0  0  0  0  0
   15.5210    5.5513   12.6541 C   0  0  1  0  0  0  0  0  0  0  0  0
   21.1793    5.6004   15.3325 O   0  0  0  0  0  0  0  0  0  0  0  0
   16.5691    4.5445   12.1648 C   0  0  2  0  0  0  0  0  0  0  0  0
   16.9478    0.2903    8.9239 O   0  0  0  0  0  0  0  0  0  0  0  0
   18.9443    4.3196   12.5786 C   0  0  1  0  0  0  0  0  0  0  0  0
   16.5713   -1.8340   10.4546 O   0  0  0  0  0  0  0  0  0  0  0  0
   19.3459    6.6773   12.2348 C   0  0  2  0  0  0  0  0  0  0  0  0
   19.7206    7.6924   11.1524 C   0  0  0  0  0  0  0  0  0  0  0  0
   20.4085    6.7125   13.3347 C   0  0  2  0  0  0  0  0  0  0  0  0
   20.1045    5.6452   14.3880 C   0  0  1  0  0  0  0  0  0  0  0  0
   19.9555    4.2714   13.7289 C   0  0  1  0  0  0  0  0  0  0  0  0
   17.6381    0.3078   10.1756 C   0  0  2  0  0  0  0  0  0  0  0  0
   17.7728   -1.1085   10.7271 C   0  0  1  0  0  0  0  0  0  0  0  0
  1  3  1  0  0  0  0
  4  1  1  6  0  0  0
  4  6  1  0  0  0  0
  4 31  1  0  0  0  0
  6  7  1  0  0  0  0
  7  9  1  6  0  0  0
  7 30  1  0  0  0  0
  8 26  1  0  0  0  0
 10  9  1  6  0  0  0
 10 13  1  0  0  0  0
 10 21  1  0  0  0  0
 13 12  1  1  0  0  0
 13 15  1  0  0  0  0
 15  2  1  6  0  0  0
 15 17  1  0  0  0  0
 16 25  1  0  0  0  0
 16 23  1  0  0  0  0
 17 19  1  0  0  0  0
 19  5  1  6  0  0  0
 19 21  1  0  0  0  0
 21 14  1  1  0  0  0
 23 14  1  1  0  0  0
 23 29  1  0  0  0  0
 25 26  1  6  0  0  0
 25 27  1  0  0  0  0
 27 18  1  1  0  0  0
 27 28  1  0  0  0  0
 28 20  1  1  0  0  0
 28 29  1  0  0  0  0
 29 11  1  1  0  0  0
 30 22  1  6  0  0  0
 30 31  1  0  0  0  0
 31 24  1  1  0  0  0
M  END
>  <CHROM.1>
-53.77975943,-80.49841150,-80.18892387,64.29803850,86.32510878,65.30843338
17.64602345,3.46698372,12.08017160,-1.96158716,-0.33900906,0.16856009

>  <Name>
ligand

>  <RI>
0

>  <Rbt.Current_Directory>
/home/itssahil/PROJECTS/Mol_Feturizer/New_Systems/rnas/3DVV

>  <Rbt.Executable>
rbdock ($Id: //depot/dev/client3/rdock/2013.1/src/exe/rbdock.cxx#4 $)

>  <Rbt.Library>
libRbt.so (2013.1, Build901 2013/11/27)

>  <Rbt.Parameter_File>
/export/apps/rDock/src/rDock_2013.1_src/data/scripts/dock_solv.prm

>  <Rbt.Receptor>
prm/blind_docking_60.prm

>  <SCORE>
-0.433362

>  <SCORE.INTER>
-0.0193619

>  <SCORE.INTER.CONST>
1

>  <SCORE.INTER.POLAR>
0

>  <SCORE.INTER.ROT>
6

>  <SCORE.INTER.SOLV>
20.7644

>  <SCORE.INTER.VDW>
-14.5344

>  <SCORE.INTER.norm>
-0.000624579

>  <SCORE.INTRA>
-1.45923

>  <SCORE.INTRA.DIHEDRAL>
-3.74592

>  <SCORE.INTRA.DIHEDRAL.0>
10.8172

>  <SCORE.INTRA.POLAR>
0

>  <SCORE.INTRA.POLAR.0>
0

>  <SCORE.INTRA.REPUL>
0

>  <SCORE.INTRA.REPUL.0>
0

>  <SCORE.INTRA.SOLV>
-1.37923

>  <SCORE.INTRA.SOLV.lig_0>
-80.3833

>  <SCORE.INTRA.VDW>
1.10335

>  <SCORE.INTRA.VDW.0>
-4.63762

>  <SCORE.INTRA.norm>
-0.047072

>  <SCORE.RESTR>
1.04523

>  <SCORE.RESTR.CAVITY>
1.04523

>  <SCORE.RESTR.norm>
0.0337172

>  <SCORE.SYSTEM>
0

>  <SCORE.SYSTEM.CONST>
0

>  <SCORE.SYSTEM.DIHEDRAL>
0

>  <SCORE.SYSTEM.SOLV>
0

>  <SCORE.SYSTEM.norm>
0

>  <SCORE.heavy>
31

>  <SCORE.norm>
-0.0139794

>  <RMSD>
7.048

$$$$
ligand
 OpenBabel11021811473D
libRbt.so/2013.1/901 2013/11/27
 31 33  0  0  0  0  0  0  0  0999 V2000
   23.2908    7.1963   15.4742 C   0  0  0  0  0  0  0  0  0  0  0  0
   19.5342   10.2450   11.1727 N   0  0  0  0  0  0  0  0  0  0  0  0
   23.7512    8.2568   14.6303 O   0  0  0  0  0  0  0  0  0  0  0  0
   21.7761    7.2979   15.6704 C   0  0  1  0  0  0  0  0  0  0  0  0
   15.6821    7.8930   13.0523 N   0  0  0  0  0  0  0  0  0  0  0  0
   21.1121    7.3484   14.3925 O   0  0  0  0  0  0  0  0  0  0  0  0
   20.1258    6.3019   14.3467 C   0  0  1  0  0  0  0  0  0  0  0  0
   19.9798    1.2752   12.6829 N   0  0  0  0  0  0  0  0  0  0  0  0
   19.9734    5.7727   13.0202 O   0  0  0  0  0  0  0  0  0  0  0  0
   19.1426    6.5761   12.1691 C   0  0  2  0  0  0  0  0  0  0  0  0
   14.5857    4.7273   11.4176 N   0  0  0  0  0  0  0  0  0  0  0  0
   21.0373    7.8642   11.3988 O   0  0  0  0  0  0  0  0  0  0  0  0
   19.7862    7.9650   12.0842 C   0  0  1  0  0  0  0  0  0  0  0  0
   17.0150    5.4076   12.6035 O   0  0  0  0  0  0  0  0  0  0  0  0
   18.8770    8.9388   11.3319 C   0  0  1  0  0  0  0  0  0  0  0  0
   18.2368    4.1141   11.0633 O   0  0  0  0  0  0  0  0  0  0  0  0
   17.5680    9.1009   12.1051 C   0  0  0  0  0  0  0  0  0  0  0  0
   17.3539    0.9408   12.6840 O   0  0  0  0  0  0  0  0  0  0  0  0
   16.8600    7.7452   12.1841 C   0  0  1  0  0  0  0  0  0  0  0  0
   14.8299    1.8374   11.6398 O   0  0  0  0  0  0  0  0  0  0  0  0
   17.7423    6.6370   12.7718 C   0  0  2  0  0  0  0  0  0  0  0  0
   19.7570    4.2763   15.6953 O   0  0  0  0  0  0  0  0  0  0  0  0
   17.0326    4.8756   11.2695 C   0  0  1  0  0  0  0  0  0  0  0  0
   20.1738    6.3522   17.2811 O   0  0  0  0  0  0  0  0  0  0  0  0
   18.3893    2.9980   11.9568 C   0  0  2  0  0  0  0  0  0  0  0  0
   19.7063    2.2829   11.6459 C   0  0  0  0  0  0  0  0  0  0  0  0
   17.2335    2.0173   11.7504 C   0  0  2  0  0  0  0  0  0  0  0  0
   15.8982    2.7311   11.9705 C   0  0  1  0  0  0  0  0  0  0  0  0
   15.8058    3.9763   11.0846 C   0  0  1  0  0  0  0  0  0  0  0  0
   20.7310    5.2145   15.2320 C   0  0  2  0  0  0  0  0  0  0  0  0
   21.2547    6.0532   16.3941 C   0  0  1  0  0  0  0  0  0  0  0  0
  1  3  1  0  0  0  0
  4  1  1  6  0  0  0
  4  6  1  0  0  0  0
  4 31  1  0  0  0  0
  6  7  1  0  0  0  0
  7  9  1  6  0  0  0
  7 30  1  0  0  0  0
  8 26  1  0  0  0  0
 10  9  1  1  0  0  0
 10 13  1  0  0  0  0
 10 21  1  0  0  0  0
 13 12  1  6  0  0  0
 13 15  1  0  0  0  0
 15  2  1  1  0  0  0
 15 17  1  0  0  0  0
 16 25  1  0  0  0  0
 16 23  1  0  0  0  0
 17 19  1  0  0  0  0
 19  5  1  1  0  0  0
 19 21  1  0  0  0  0
 21 14  1  6  0  0  0
 23 14  1  1  0  0  0
 23 29  1  0  0  0  0
 25 26  1  6  0  0  0
 25 27  1  0  0  0  0
 27 18  1  1  0  0  0
 27 28  1  0  0  0  0
 28 20  1  6  0  0  0
 28 29  1  0  0  0  0
 29 11  1  1  0  0  0
 30 22  1  1  0  0  0
 30 31  1  0  0  0  0
 31 24  1  1  0  0  0
M  END
>  <CHROM.1>
53.88844586,-80.48379792,59.25285673,83.52832250,-48.66534907,171.06478435
18.87549304,5.60035746,12.99774308,-0.59177601,0.62865801,2.94983484

>  <Name>
ligand

>  <RI>
0

>  <Rbt.Current_Directory>
/home/itssahil/PROJECTS/Mol_Feturizer/New_Systems/rnas/3DVV

>  <Rbt.Executable>
rbdock ($Id: //depot/dev/client3/rdock/2013.1/src/exe/rbdock.cxx#4 $)

>  <Rbt.Library>
libRbt.so (2013.1, Build901 2013/11/27)

>  <Rbt.Parameter_File>
/export/apps/rDock/src/rDock_2013.1_src/data/scripts/dock_solv.prm

>  <Rbt.Receptor>
prm/blind_docking_100.prm

>  <SCORE>
-5.83437

>  <SCORE.INTER>
-6.19994

>  <SCORE.INTER.CONST>
1

>  <SCORE.INTER.POLAR>
0

>  <SCORE.INTER.ROT>
6

>  <SCORE.INTER.SOLV>
15.9686

>  <SCORE.INTER.VDW>
-17.0561

>  <SCORE.INTER.norm>
-0.199998

>  <SCORE.INTRA>
0.32613

>  <SCORE.INTRA.DIHEDRAL>
-5.33118

>  <SCORE.INTRA.DIHEDRAL.0>
10.8172

>  <SCORE.INTRA.POLAR>
0

>  <SCORE.INTRA.POLAR.0>
0

>  <SCORE.INTRA.REPUL>
0

>  <SCORE.INTRA.REPUL.0>
0

>  <SCORE.INTRA.SOLV>
-1.82093

>  <SCORE.INTRA.SOLV.lig_0>
-80.3833

>  <SCORE.INTRA.VDW>
3.90218

>  <SCORE.INTRA.VDW.0>
-4.63762

>  <SCORE.INTRA.norm>
0.0105203

>  <SCORE.RESTR>
0.0394406

>  <SCORE.RESTR.CAVITY>
0.0394406

>  <SCORE.RESTR.norm>
0.00127228

>  <SCORE.SYSTEM>
0

>  <SCORE.SYSTEM.CONST>
0

>  <SCORE.SYSTEM.DIHEDRAL>
0

>  <SCORE.SYSTEM.SOLV>
0

>  <SCORE.SYSTEM.norm>
0

>  <SCORE.heavy>
31

>  <SCORE.norm>
-0.188206

>  <RMSD>
7.050

$$$$
ligand
 OpenBabel11021811473D
libRbt.so/2013.1/901 2013/11/27
 31 33  0  0  0  0  0  0  0  0999 V2000
   21.8600    3.1803   15.0277 C   0  0  0  0  0  0  0  0  0  0  0  0
   20.3262    7.2510   10.6315 N   0  0  0  0  0  0  0  0  0  0  0  0
   20.9970    2.2363   14.3851 O   0  0  0  0  0  0  0  0  0  0  0  0
   21.0386    4.3298   15.6170 C   0  0  1  0  0  0  0  0  0  0  0  0
   17.8782    9.4932   14.2208 N   0  0  0  0  0  0  0  0  0  0  0  0
   20.1974    4.9108   14.6015 O   0  0  0  0  0  0  0  0  0  0  0  0
   18.8373    4.8980   15.0703 C   0  0  1  0  0  0  0  0  0  0  0  0
   14.7056    2.6309   12.8527 N   0  0  0  0  0  0  0  0  0  0  0  0
   17.9055    4.7120   13.9932 O   0  0  0  0  0  0  0  0  0  0  0  0
   17.7914    5.8490   13.1247 C   0  0  2  0  0  0  0  0  0  0  0  0
   14.0206    8.6428   15.3195 N   0  0  0  0  0  0  0  0  0  0  0  0
   19.1726    4.8025   11.4395 O   0  0  0  0  0  0  0  0  0  0  0  0
   19.0885    5.9328   12.3117 C   0  0  1  0  0  0  0  0  0  0  0  0
   16.2486    7.1678   14.5251 O   0  0  0  0  0  0  0  0  0  0  0  0
   19.1242    7.2155   11.4785 C   0  0  1  0  0  0  0  0  0  0  0  0
   15.1240    6.3029   12.6475 O   0  0  0  0  0  0  0  0  0  0  0  0
   19.1076    8.4227   12.4165 C   0  0  0  0  0  0  0  0  0  0  0  0
   13.1777    3.9073   14.6347 O   0  0  0  0  0  0  0  0  0  0  0  0
   17.8080    8.4115   13.2267 C   0  0  1  0  0  0  0  0  0  0  0  0
   12.1290    6.4405   15.4995 O   0  0  0  0  0  0  0  0  0  0  0  0
   17.5771    7.0950   13.9786 C   0  0  2  0  0  0  0  0  0  0  0  0
   17.6929    3.6881   16.8826 O   0  0  0  0  0  0  0  0  0  0  0  0
   15.2134    7.4127   13.5601 C   0  0  1  0  0  0  0  0  0  0  0  0
   19.9463    4.7412   17.7834 O   0  0  0  0  0  0  0  0  0  0  0  0
   14.8169    5.0463   13.2751 C   0  0  2  0  0  0  0  0  0  0  0  0
   14.7635    3.9518   12.2066 C   0  0  0  0  0  0  0  0  0  0  0  0
   13.4512    5.1372   13.9583 C   0  0  2  0  0  0  0  0  0  0  0  0
   13.4505    6.2832   14.9721 C   0  0  1  0  0  0  0  0  0  0  0  0
   13.8842    7.5895   14.3018 C   0  0  1  0  0  0  0  0  0  0  0  0
   18.7899    3.6621   15.9664 C   0  0  2  0  0  0  0  0  0  0  0  0
   20.1111    3.8040   16.7162 C   0  0  1  0  0  0  0  0  0  0  0  0
  1  3  1  0  0  0  0
  4  1  1  6  0  0  0
  4  6  1  0  0  0  0
  4 31  1  0  0  0  0
  6  7  1  0  0  0  0
  7  9  1  6  0  0  0
  7 30  1  0  0  0  0
  8 26  1  0  0  0  0
 10  9  1  1  0  0  0
 10 13  1  0  0  0  0
 10 21  1  0  0  0  0
 13 12  1  6  0  0  0
 13 15  1  0  0  0  0
 15  2  1  1  0  0  0
 15 17  1  0  0  0  0
 16 25  1  0  0  0  0
 16 23  1  0  0  0  0
 17 19  1  0  0  0  0
 19  5  1  1  0  0  0
 19 21  1  0  0  0  0
 21 14  1  6  0  0  0
 23 14  1  1  0  0  0
 23 29  1  0  0  0  0
 25 26  1  6  0  0  0
 25 27  1  0  0  0  0
 27 18  1  1  0  0  0
 27 28  1  0  0  0  0
 28 20  1  6  0  0  0
 28 29  1  0  0  0  0
 29 11  1  1  0  0  0
 30 22  1  1  0  0  0
 30 31  1  0  0  0  0
 31 24  1  1  0  0  0
M  END
>  <CHROM.1>
-53.74041309,-70.89968005,71.45462992,64.72103685,-69.29750176,169.31649292
17.29898965,5.60755097,14.10881830,0.26799595,-0.11395378,2.49075603

>  <Name>
ligand

>  <RI>
0

>  <Rbt.Current_Directory>
/home/itssahil/PROJECTS/Mol_Feturizer/New_Systems/rnas/3DVV

>  <Rbt.Executable>
rbdock ($Id: //depot/dev/client3/rdock/2013.1/src/exe/rbdock.cxx#4 $)

>  <Rbt.Library>
libRbt.so (2013.1, Build901 2013/11/27)

>  <Rbt.Parameter_File>
/export/apps/rDock/src/rDock_2013.1_src/data/scripts/dock_solv.prm

>  <Rbt.Receptor>
prm/pocket_docking_8.prm

>  <SCORE>
-1.24553

>  <SCORE.INTER>
-0.773851

>  <SCORE.INTER.CONST>
1

>  <SCORE.INTER.POLAR>
0

>  <SCORE.INTER.ROT>
6

>  <SCORE.INTER.SOLV>
13.908

>  <SCORE.INTER.VDW>
-12.7519

>  <SCORE.INTER.norm>
-0.0249629

>  <SCORE.INTRA>
-0.471683

>  <SCORE.INTRA.DIHEDRAL>
-8.30858

>  <SCORE.INTRA.DIHEDRAL.0>
10.8172

>  <SCORE.INTRA.POLAR>
0

>  <SCORE.INTRA.POLAR.0>
0

>  <SCORE.INTRA.REPUL>
0

>  <SCORE.INTRA.REPUL.0>
0

>  <SCORE.INTRA.SOLV>
-1.76789

>  <SCORE.INTRA.SOLV.lig_0>
-80.3833

>  <SCORE.INTRA.VDW>
4.56655

>  <SCORE.INTRA.VDW.0>
-4.63762

>  <SCORE.INTRA.norm>
-0.0152156

>  <SCORE.RESTR>
0

>  <SCORE.RESTR.CAVITY>
0

>  <SCORE.RESTR.norm>
0

>  <SCORE.SYSTEM>
0

>  <SCORE.SYSTEM.CONST>
0

>  <SCORE.SYSTEM.DIHEDRAL>
0

>  <SCORE.SYSTEM.SOLV>
0

>  <SCORE.SYSTEM.norm>
0

>  <SCORE.heavy>
31

>  <SCORE.norm>
-0.0401785

>  <RMSD>
7.054

$$$$
ligand
 OpenBabel11021811473D
libRbt.so/2013.1/901 2013/11/27
 31 33  0  0  0  0  0  0  0  0999 V2000
   20.6073    3.5159   16.3990 C   0  0  0  0  0  0  0  0  0  0  0  0
   16.5835    1.7123   12.1551 N   0  0  0  0  0  0  0  0  0  0  0  0
   20.9039    3.0180   15.0901 O   0  0  0  0  0  0  0  0  0  0  0  0
   19.3265    4.3536   16.3670 C   0  0  1  0  0  0  0  0  0  0  0  0
   13.2780    4.6906   14.1817 N   0  0  0  0  0  0  0  0  0  0  0  0
   18.2199    3.5518   15.9099 O   0  0  0  0  0  0  0  0  0  0  0  0
   17.1666    3.6244   16.8872 C   0  0  1  0  0  0  0  0  0  0  0  0
   13.8340    8.3143   17.0626 N   0  0  0  0  0  0  0  0  0  0  0  0
   16.4262    2.3960   16.9630 O   0  0  0  0  0  0  0  0  0  0  0  0
   15.5929    2.1517   15.8202 C   0  0  2  0  0  0  0  0  0  0  0  0
   12.0602    2.2415   18.7502 N   0  0  0  0  0  0  0  0  0  0  0  0
   17.3161    0.8443   14.7414 O   0  0  0  0  0  0  0  0  0  0  0  0
   16.5161    2.0217   14.6031 C   0  0  1  0  0  0  0  0  0  0  0  0
   13.5682    3.2874   16.6520 O   0  0  0  0  0  0  0  0  0  0  0  0
   15.7008    1.9276   13.3118 C   0  0  1  0  0  0  0  0  0  0  0  0
   14.6237    4.8472   18.0631 O   0  0  0  0  0  0  0  0  0  0  0  0
   14.9017    3.2181   13.1289 C   0  0  0  0  0  0  0  0  0  0  0  0
   11.6927    7.0537   18.1916 O   0  0  0  0  0  0  0  0  0  0  0  0
   13.9292    3.3772   14.3012 C   0  0  1  0  0  0  0  0  0  0  0  0
   10.7807    4.7144   19.5918 O   0  0  0  0  0  0  0  0  0  0  0  0
   14.6186    3.3161   15.6697 C   0  0  2  0  0  0  0  0  0  0  0  0
   17.0993    4.3479   19.2388 O   0  0  0  0  0  0  0  0  0  0  0  0
   13.9948    3.5539   17.9973 C   0  0  1  0  0  0  0  0  0  0  0  0
   18.3915    6.1375   17.7810 O   0  0  0  0  0  0  0  0  0  0  0  0
   13.7714    5.9380   17.6747 C   0  0  2  0  0  0  0  0  0  0  0  0
   14.5564    7.2481   17.7746 C   0  0  0  0  0  0  0  0  0  0  0  0
   12.5699    6.0084   18.6190 C   0  0  2  0  0  0  0  0  0  0  0  0
   11.8158    4.6771   18.6037 C   0  0  1  0  0  0  0  0  0  0  0  0
   12.7686    3.5200   18.9156 C   0  0  1  0  0  0  0  0  0  0  0  0
   17.9231    3.8121   18.2006 C   0  0  2  0  0  0  0  0  0  0  0  0
   18.9759    4.8326   17.7786 C   0  0  1  0  0  0  0  0  0  0  0  0
  1  3  1  0  0  0  0
  4  1  1  1  0  0  0
  4  6  1  0  0  0  0
  4 31  1  0  0  0  0
  6  7  1  0  0  0  0
  7  9  1  1  0  0  0
  7 30  1  0  0  0  0
  8 26  1  0  0  0  0
 10  9  1  1  0  0  0
 10 13  1  0  0  0  0
 10 21  1  0  0  0  0
 13 12  1  1  0  0  0
 13 15  1  0  0  0  0
 15  2  1  6  0  0  0
 15 17  1  0  0  0  0
 16 25  1  0  0  0  0
 16 23  1  0  0  0  0
 17 19  1  0  0  0  0
 19  5  1  6  0  0  0
 19 21  1  0  0  0  0
 21 14  1  1  0  0  0
 23 14  1  6  0  0  0
 23 29  1  0  0  0  0
 25 26  1  1  0  0  0
 25 27  1  0  0  0  0
 27 18  1  6  0  0  0
 27 28  1  0  0  0  0
 28 20  1  1  0  0  0
 28 29  1  0  0  0  0
 29 11  1  6  0  0  0
 30 22  1  1  0  0  0
 30 31  1  0  0  0  0
 31 24  1  6  0  0  0
M  END
>  <CHROM.1>
59.79902669,-71.23288440,62.80908393,58.37040774,68.94211205,165.44208677
15.49222585,4.01551901,16.68080003,-0.55974465,0.00290490,0.88572306

>  <Name>
ligand

>  <RI>
0

>  <Rbt.Current_Directory>
/home/itssahil/PROJECTS/Mol_Feturizer/New_Systems/rnas/3DVV

>  <Rbt.Executable>
rbdock ($Id: //depot/dev/client3/rdock/2013.1/src/exe/rbdock.cxx#4 $)

>  <Rbt.Library>
libRbt.so (2013.1, Build901 2013/11/27)

>  <Rbt.Parameter_File>
/export/apps/rDock/src/rDock_2013.1_src/data/scripts/dock_solv.prm

>  <Rbt.Receptor>
prm/pocket_docking_7.prm

>  <SCORE>
-4.36776

>  <SCORE.INTER>
-1.60754

>  <SCORE.INTER.CONST>
1

>  <SCORE.INTER.POLAR>
0

>  <SCORE.INTER.ROT>
6

>  <SCORE.INTER.SOLV>
14.4035

>  <SCORE.INTER.VDW>
-13.4728

>  <SCORE.INTER.norm>
-0.0518562

>  <SCORE.INTRA>
-2.76022

>  <SCORE.INTRA.DIHEDRAL>
-8.80798

>  <SCORE.INTRA.DIHEDRAL.0>
10.8172

>  <SCORE.INTRA.POLAR>
0

>  <SCORE.INTRA.POLAR.0>
0

>  <SCORE.INTRA.REPUL>
0

>  <SCORE.INTRA.REPUL.0>
0

>  <SCORE.INTRA.SOLV>
-2.3271

>  <SCORE.INTRA.SOLV.lig_0>
-80.3833

>  <SCORE.INTRA.VDW>
2.80732

>  <SCORE.INTRA.VDW.0>
-4.63762

>  <SCORE.INTRA.norm>
-0.0890392

>  <SCORE.RESTR>
0

>  <SCORE.RESTR.CAVITY>
0

>  <SCORE.RESTR.norm>
0

>  <SCORE.SYSTEM>
0

>  <SCORE.SYSTEM.CONST>
0

>  <SCORE.SYSTEM.DIHEDRAL>
0

>  <SCORE.SYSTEM.SOLV>
0

>  <SCORE.SYSTEM.norm>
0

>  <SCORE.heavy>
31

>  <SCORE.norm>
-0.140895

>  <RMSD>
7.059

$$$$
ligand
 OpenBabel11021811473D
libRbt.so/2013.1/901 2013/11/27
 31 33  0  0  0  0  0  0  0  0999 V2000
   23.3283    4.3532   17.4141 C   0  0  0  0  0  0  0  0  0  0  0  0
   18.1444    9.2987   12.1359 N   0  0  0  0  0  0  0  0  0  0  0  0
   23.5474    3.0163   16.9521 O   0  0  0  0  0  0  0  0  0  0  0  0
   23.3413    5.3280   16.2338 C   0  0  1  0  0  0  0  0  0  0  0  0
   16.5271    4.6953   11.8255 N   0  0  0  0  0  0  0  0  0  0  0  0
   22.3158    4.9736   15.2856 O   0  0  0  0  0  0  0  0  0  0  0  0
   21.4832    6.1248   15.0592 C   0  0  1  0  0  0  0  0  0  0  0  0
   17.0806    0.7720    9.2550 N   0  0  0  0  0  0  0  0  0  0  0  0
   20.1189    5.7530   14.8074 O   0  0  0  0  0  0  0  0  0  0  0  0
   19.6709    6.0628   13.4795 C   0  0  2  0  0  0  0  0  0  0  0  0
   19.1269    1.8173   14.7956 N   0  0  0  0  0  0  0  0  0  0  0  0
   20.2950    8.3852   13.7230 O   0  0  0  0  0  0  0  0  0  0  0  0
   19.1831    7.5162   13.4910 C   0  0  1  0  0  0  0  0  0  0  0  0
   19.0438    3.7734   12.8113 O   0  0  0  0  0  0  0  0  0  0  0  0
   18.5301    7.8795   12.1559 C   0  0  1  0  0  0  0  0  0  0  0  0
   17.6483    2.4612   11.4442 O   0  0  0  0  0  0  0  0  0  0  0  0
   17.2990    6.9981   11.9442 C   0  0  0  0  0  0  0  0  0  0  0  0
   20.3873    0.2673   10.3669 O   0  0  0  0  0  0  0  0  0  0  0  0
   17.7357    5.5315   11.8827 C   0  0  1  0  0  0  0  0  0  0  0  0
   20.1354   -0.3662   13.1597 O   0  0  0  0  0  0  0  0  0  0  0  0
   18.5539    5.0938   13.1036 C   0  0  2  0  0  0  0  0  0  0  0  0
   21.1663    8.2391   16.2788 O   0  0  0  0  0  0  0  0  0  0  0  0
   18.0388    2.7474   12.8000 C   0  0  1  0  0  0  0  0  0  0  0  0
   23.7485    7.7426   15.9900 O   0  0  0  0  0  0  0  0  0  0  0  0
   18.7215    1.9996   10.6062 C   0  0  2  0  0  0  0  0  0  0  0  0
   18.1831    1.7450    9.1963 C   0  0  0  0  0  0  0  0  0  0  0  0
   19.2794    0.6899   11.1663 C   0  0  2  0  0  0  0  0  0  0  0  0
   19.7459    0.8963   12.6088 C   0  0  1  0  0  0  0  0  0  0  0  0
   18.6165    1.4887   13.4557 C   0  0  1  0  0  0  0  0  0  0  0  0
   21.5419    6.8646   16.3940 C   0  0  2  0  0  0  0  0  0  0  0  0
   23.0278    6.7460   16.7194 C   0  0  1  0  0  0  0  0  0  0  0  0
  1  3  1  0  0  0  0
  4  1  1  1  0  0  0
  4  6  1  0  0  0  0
  4 31  1  0  0  0  0
  6  7  1  0  0  0  0
  7  9  1  1  0  0  0
  7 30  1  0  0  0  0
  8 26  1  0  0  0  0
 10  9  1  1  0  0  0
 10 13  1  0  0  0  0
 10 21  1  0  0  0  0
 13 12  1  6  0  0  0
 13 15  1  0  0  0  0
 15  2  1  1  0  0  0
 15 17  1  0  0  0  0
 16 25  1  0  0  0  0
 16 23  1  0  0  0  0
 17 19  1  0  0  0  0
 19  5  1  1  0  0  0
 19 21  1  0  0  0  0
 21 14  1  6  0  0  0
 23 14  1  6  0  0  0
 23 29  1  0  0  0  0
 25 26  1  6  0  0  0
 25 27  1  0  0  0  0
 27 18  1  6  0  0  0
 27 28  1  0  0  0  0
 28 20  1  1  0  0  0
 28 29  1  0  0  0  0
 29 11  1  1  0  0  0
 30 22  1  6  0  0  0
 30 31  1  0  0  0  0
 31 24  1  6  0  0  0
M  END
>  <CHROM.1>
59.14789424,-114.29871753,-85.79215311,99.38683271,164.28325570,-57.30231537
19.90264945,4.47287936,13.46360778,-0.87952352,0.77159486,-2.92913038

>  <Name>
ligand

>  <RI>
0

>  <Rbt.Current_Directory>
/home/itssahil/PROJECTS/Mol_Feturizer/New_Systems/rnas/3DVV

>  <Rbt.Executable>
rbdock ($Id: //depot/dev/client3/rdock/2013.1/src/exe/rbdock.cxx#4 $)

>  <Rbt.Library>
libRbt.so (2013.1, Build901 2013/11/27)

>  <Rbt.Parameter_File>
/export/apps/rDock/src/rDock_2013.1_src/data/scripts/dock_solv.prm

>  <Rbt.Receptor>
prm/blind_docking_100.prm

>  <SCORE>
0.398782

>  <SCORE.INTER>
-5.60124

>  <SCORE.INTER.CONST>
1

>  <SCORE.INTER.POLAR>
0

>  <SCORE.INTER.ROT>
6

>  <SCORE.INTER.SOLV>
14.6217

>  <SCORE.INTER.VDW>
-16.2081

>  <SCORE.INTER.norm>
-0.180685

>  <SCORE.INTRA>
6.00003

>  <SCORE.INTRA.DIHEDRAL>
5.44409

>  <SCORE.INTRA.DIHEDRAL.0>
10.8172

>  <SCORE.INTRA.POLAR>
0

>  <SCORE.INTRA.POLAR.0>
0

>  <SCORE.INTRA.REPUL>
0.00541583

>  <SCORE.INTRA.REPUL.0>
0

>  <SCORE.INTRA.SOLV>
0.00640716

>  <SCORE.INTRA.SOLV.lig_0>
-80.3833

>  <SCORE.INTRA.VDW>
3.2477

>  <SCORE.INTRA.VDW.0>
-4.63762

>  <SCORE.INTRA.norm>
0.193549

>  <SCORE.RESTR>
0

>  <SCORE.RESTR.CAVITY>
0

>  <SCORE.RESTR.norm>
0

>  <SCORE.SYSTEM>
0

>  <SCORE.SYSTEM.CONST>
0

>  <SCORE.SYSTEM.DIHEDRAL>
0

>  <SCORE.SYSTEM.SOLV>
0

>  <SCORE.SYSTEM.norm>
0

>  <SCORE.heavy>
31

>  <SCORE.norm>
0.0128639

>  <RMSD>
7.061

$$$$
ligand
 OpenBabel11021811473D
libRbt.so/2013.1/901 2013/11/27
 31 33  0  0  0  0  0  0  0  0999 V2000
   15.2821    2.8717   14.8671 C   0  0  0  0  0  0  0  0  0  0  0  0
   11.2838    9.2942   17.4849 N   0  0  0  0  0  0  0  0  0  0  0  0
   15.3125    2.5837   16.2689 O   0  0  0  0  0  0  0  0  0  0  0  0
   14.0445    3.7057   14.5266 C   0  0  1  0  0  0  0  0  0  0  0  0
   15.9916   10.5593   17.8579 N   0  0  0  0  0  0  0  0  0  0  0  0
   14.0728    4.9534   15.2469 O   0  0  0  0  0  0  0  0  0  0  0  0
   13.9449    6.0310   14.3024 C   0  0  1  0  0  0  0  0  0  0  0  0
   18.9657    9.7687   12.5931 N   0  0  0  0  0  0  0  0  0  0  0  0
   14.6803    7.1925   14.7183 O   0  0  0  0  0  0  0  0  0  0  0  0
   14.4024    7.6009   16.0659 C   0  0  2  0  0  0  0  0  0  0  0  0
   18.5317    5.9486   17.1965 N   0  0  0  0  0  0  0  0  0  0  0  0
   12.0412    7.1577   15.7996 O   0  0  0  0  0  0  0  0  0  0  0  0
   12.9880    8.1923   16.0799 C   0  0  1  0  0  0  0  0  0  0  0  0
   16.7304    8.0301   16.7567 O   0  0  0  0  0  0  0  0  0  0  0  0
   12.6715    8.8083   17.4442 C   0  0  1  0  0  0  0  0  0  0  0  0
   17.5439    8.3999   14.5796 O   0  0  0  0  0  0  0  0  0  0  0  0
   13.6392    9.9618   17.7096 C   0  0  0  0  0  0  0  0  0  0  0  0
   20.5657   10.1196   15.7576 O   0  0  0  0  0  0  0  0  0  0  0  0
   15.0704    9.4180   17.7478 C   0  0  1  0  0  0  0  0  0  0  0  0
   20.9817    7.4238   16.6657 O   0  0  0  0  0  0  0  0  0  0  0  0
   15.4491    8.6267   16.4899 C   0  0  2  0  0  0  0  0  0  0  0  0
   14.2110    6.1686   11.8594 O   0  0  0  0  0  0  0  0  0  0  0  0
   17.3592    7.4205   15.6184 C   0  0  1  0  0  0  0  0  0  0  0  0
   12.7174    4.0776   12.4878 O   0  0  0  0  0  0  0  0  0  0  0  0
   18.3675    9.5153   14.9602 C   0  0  2  0  0  0  0  0  0  0  0  0
   18.4747   10.4851   13.7811 C   0  0  0  0  0  0  0  0  0  0  0  0
   19.7685    9.0164   15.3189 C   0  0  2  0  0  0  0  0  0  0  0  0
   19.6814    7.9779   16.4392 C   0  0  1  0  0  0  0  0  0  0  0  0
   18.7155    6.8548   16.0525 C   0  0  1  0  0  0  0  0  0  0  0  0
   14.6030    5.4701   13.0435 C   0  0  2  0  0  0  0  0  0  0  0  0
   14.0382    4.0528   13.0351 C   0  0  1  0  0  0  0  0  0  0  0  0
  1  3  1  0  0  0  0
  4  1  1  6  0  0  0
  4  6  1  0  0  0  0
  4 31  1  0  0  0  0
  6  7  1  0  0  0  0
  7  9  1  1  0  0  0
  7 30  1  0  0  0  0
  8 26  1  0  0  0  0
 10  9  1  6  0  0  0
 10 13  1  0  0  0  0
 10 21  1  0  0  0  0
 13 12  1  1  0  0  0
 13 15  1  0  0  0  0
 15  2  1  6  0  0  0
 15 17  1  0  0  0  0
 16 25  1  0  0  0  0
 16 23  1  0  0  0  0
 17 19  1  0  0  0  0
 19  5  1  6  0  0  0
 19 21  1  0  0  0  0
 21 14  1  1  0  0  0
 23 14  1  1  0  0  0
 23 29  1  0  0  0  0
 25 26  1  6  0  0  0
 25 27  1  0  0  0  0
 27 18  1  1  0  0  0
 27 28  1  0  0  0  0
 28 20  1  6  0  0  0
 28 29  1  0  0  0  0
 29 11  1  1  0  0  0
 30 22  1  6  0  0  0
 30 31  1  0  0  0  0
 31 24  1  1  0  0  0
M  END
>  <CHROM.1>
60.45492712,-50.99156843,-71.49429040,58.68528555,64.10491489,-54.96801341
15.87819762,7.31188359,15.42222517,-2.54721620,0.14857050,0.50563439

>  <Name>
ligand

>  <RI>
0

>  <Rbt.Current_Directory>
/home/itssahil/PROJECTS/Mol_Feturizer/New_Systems/rnas/3DVV

>  <Rbt.Executable>
rbdock ($Id: //depot/dev/client3/rdock/2013.1/src/exe/rbdock.cxx#4 $)

>  <Rbt.Library>
libRbt.so (2013.1, Build901 2013/11/27)

>  <Rbt.Parameter_File>
/export/apps/rDock/src/rDock_2013.1_src/data/scripts/dock_solv.prm

>  <Rbt.Receptor>
prm/pocket_docking_7.prm

>  <SCORE>
-5.7991

>  <SCORE.INTER>
-2.61395

>  <SCORE.INTER.CONST>
1

>  <SCORE.INTER.POLAR>
0

>  <SCORE.INTER.ROT>
6

>  <SCORE.INTER.SOLV>
10.5419

>  <SCORE.INTER.VDW>
-12.8566

>  <SCORE.INTER.norm>
-0.0843209

>  <SCORE.INTRA>
-3.18516

>  <SCORE.INTRA.DIHEDRAL>
-9.35313

>  <SCORE.INTRA.DIHEDRAL.0>
10.8172

>  <SCORE.INTRA.POLAR>
0

>  <SCORE.INTRA.POLAR.0>
0

>  <SCORE.INTRA.REPUL>
0

>  <SCORE.INTRA.REPUL.0>
0

>  <SCORE.INTRA.SOLV>
-3.00164

>  <SCORE.INTRA.SOLV.lig_0>
-80.3833

>  <SCORE.INTRA.VDW>
2.99223

>  <SCORE.INTRA.VDW.0>
-4.63762

>  <SCORE.INTRA.norm>
-0.102747

>  <SCORE.RESTR>
0

>  <SCORE.RESTR.CAVITY>
0

>  <SCORE.RESTR.norm>
0

>  <SCORE.SYSTEM>
0

>  <SCORE.SYSTEM.CONST>
0

>  <SCORE.SYSTEM.DIHEDRAL>
0

>  <SCORE.SYSTEM.SOLV>
0

>  <SCORE.SYSTEM.norm>
0

>  <SCORE.heavy>
31

>  <SCORE.norm>
-0.187068

>  <RMSD>
7.063

$$$$
ligand
 OpenBabel11021811473D
libRbt.so/2013.1/901 2013/11/27
 31 33  0  0  0  0  0  0  0  0999 V2000
   18.6577    1.7235   13.9132 C   0  0  0  0  0  0  0  0  0  0  0  0
   20.1305    9.6704   15.9841 N   0  0  0  0  0  0  0  0  0  0  0  0
   18.3517    1.4160   15.2772 O   0  0  0  0  0  0  0  0  0  0  0  0
   19.7750    2.7677   13.8456 C   0  0  1  0  0  0  0  0  0  0  0  0
   16.6874    7.7637   18.8846 N   0  0  0  0  0  0  0  0  0  0  0  0
   19.3810    3.9628   14.5477 O   0  0  0  0  0  0  0  0  0  0  0  0
   20.3868    4.2704   15.5294 C   0  0  1  0  0  0  0  0  0  0  0  0
   18.5252    4.2995   21.5873 N   0  0  0  0  0  0  0  0  0  0  0  0
   19.8182    4.8750   16.7016 O   0  0  0  0  0  0  0  0  0  0  0  0
   19.0247    6.0386   16.4249 C   0  0  2  0  0  0  0  0  0  0  0  0
   15.5976    3.4655   15.8728 N   0  0  0  0  0  0  0  0  0  0  0  0
   20.8134    7.0571   15.1577 O   0  0  0  0  0  0  0  0  0  0  0  0
   19.9852    7.2281   16.3110 C   0  0  1  0  0  0  0  0  0  0  0  0
   16.9465    5.2740   17.5100 O   0  0  0  0  0  0  0  0  0  0  0  0
   19.2097    8.5409   16.1838 C   0  0  1  0  0  0  0  0  0  0  0  0
   17.8366    3.5497   18.8413 O   0  0  0  0  0  0  0  0  0  0  0  0
   18.3806    8.7575   17.4499 C   0  0  0  0  0  0  0  0  0  0  0  0
   14.6748    2.9825   20.6183 O   0  0  0  0  0  0  0  0  0  0  0  0
   17.3712    7.6143   17.5911 C   0  0  1  0  0  0  0  0  0  0  0  0
   14.0559    2.1268   17.9445 O   0  0  0  0  0  0  0  0  0  0  0  0
   18.0230    6.2266   17.5603 C   0  0  2  0  0  0  0  0  0  0  0  0
   22.2192    2.9653   16.5278 O   0  0  0  0  0  0  0  0  0  0  0  0
   17.3587    3.8983   17.5289 C   0  0  1  0  0  0  0  0  0  0  0  0
   22.2335    2.6752   13.8985 O   0  0  0  0  0  0  0  0  0  0  0  0
   16.8599    3.7042   19.8851 C   0  0  2  0  0  0  0  0  0  0  0  0
   17.4915    3.3170   21.2244 C   0  0  0  0  0  0  0  0  0  0  0  0
   15.6717    2.7798   19.6132 C   0  0  2  0  0  0  0  0  0  0  0  0
   15.0745    3.0886   18.2388 C   0  0  1  0  0  0  0  0  0  0  0  0
   16.1575    3.0219   17.1587 C   0  0  1  0  0  0  0  0  0  0  0  0
   20.9307    2.8957   15.9127 C   0  0  2  0  0  0  0  0  0  0  0  0
   21.0328    2.2378   14.5399 C   0  0  1  0  0  0  0  0  0  0  0  0
  1  3  1  0  0  0  0
  4  1  1  1  0  0  0
  4  6  1  0  0  0  0
  4 31  1  0  0  0  0
  6  7  1  0  0  0  0
  7  9  1  1  0  0  0
  7 30  1  0  0  0  0
  8 26  1  0  0  0  0
 10  9  1  1  0  0  0
 10 13  1  0  0  0  0
 10 21  1  0  0  0  0
 13 12  1  6  0  0  0
 13 15  1  0  0  0  0
 15  2  1  1  0  0  0
 15 17  1  0  0  0  0
 16 25  1  0  0  0  0
 16 23  1  0  0  0  0
 17 19  1  0  0  0  0
 19  5  1  1  0  0  0
 19 21  1  0  0  0  0
 21 14  1  6  0  0  0
 23 14  1  1  0  0  0
 23 29  1  0  0  0  0
 25 26  1  1  0  0  0
 25 27  1  0  0  0  0
 27 18  1  1  0  0  0
 27 28  1  0  0  0  0
 28 20  1  6  0  0  0
 28 29  1  0  0  0  0
 29 11  1  6  0  0  0
 30 22  1  6  0  0  0
 30 31  1  0  0  0  0
 31 24  1  6  0  0  0
M  END
>  <CHROM.1>
-58.27656653,-54.49928553,-83.32282852,72.12475768,56.93343882,67.75602983
18.35692427,4.48241588,17.03057235,0.01085660,-0.75246671,-2.87695978

>  <Name>
ligand

>  <RI>
0

>  <Rbt.Current_Directory>
/home/itssahil/PROJECTS/Mol_Feturizer/New_Systems/rnas/3DVV

>  <Rbt.Executable>
rbdock ($Id: //depot/dev/client3/rdock/2013.1/src/exe/rbdock.cxx#4 $)

>  <Rbt.Library>
libRbt.so (2013.1, Build901 2013/11/27)

>  <Rbt.Parameter_File>
/export/apps/rDock/src/rDock_2013.1_src/data/scripts/dock_solv.prm

>  <Rbt.Receptor>
prm/pocket_docking_4.prm

>  <SCORE>
-6.41011

>  <SCORE.INTER>
-3.13551

>  <SCORE.INTER.CONST>
1

>  <SCORE.INTER.POLAR>
0

>  <SCORE.INTER.ROT>
6

>  <SCORE.INTER.SOLV>
20.2727

>  <SCORE.INTER.VDW>
-16.4479

>  <SCORE.INTER.norm>
-0.101145

>  <SCORE.INTRA>
-3.2746

>  <SCORE.INTRA.DIHEDRAL>
-7.06205

>  <SCORE.INTRA.DIHEDRAL.0>
10.8172

>  <SCORE.INTRA.POLAR>
0

>  <SCORE.INTRA.POLAR.0>
0

>  <SCORE.INTRA.REPUL>
0

>  <SCORE.INTRA.REPUL.0>
0

>  <SCORE.INTRA.SOLV>
-2.64158

>  <SCORE.INTRA.SOLV.lig_0>
-80.3833

>  <SCORE.INTRA.VDW>
1.57722

>  <SCORE.INTRA.VDW.0>
-4.63762

>  <SCORE.INTRA.norm>
-0.105632

>  <SCORE.RESTR>
0

>  <SCORE.RESTR.CAVITY>
0

>  <SCORE.RESTR.norm>
0

>  <SCORE.SYSTEM>
0

>  <SCORE.SYSTEM.CONST>
0

>  <SCORE.SYSTEM.DIHEDRAL>
0

>  <SCORE.SYSTEM.SOLV>
0

>  <SCORE.SYSTEM.norm>
0

>  <SCORE.heavy>
31

>  <SCORE.norm>
-0.206778

>  <RMSD>
7.064

$$$$
ligand
 OpenBabel11021811473D
libRbt.so/2013.1/901 2013/11/27
 31 33  0  0  0  0  0  0  0  0999 V2000
   17.9092    9.4894   18.6542 C   0  0  0  0  0  0  0  0  0  0  0  0
   13.6088    4.8219   13.4896 N   0  0  0  0  0  0  0  0  0  0  0  0
   18.4318   10.7993   18.8986 O   0  0  0  0  0  0  0  0  0  0  0  0
   16.7957    9.5527   17.6057 C   0  0  1  0  0  0  0  0  0  0  0  0
   14.4953    2.0184   17.3958 N   0  0  0  0  0  0  0  0  0  0  0  0
   16.3867    8.2218   17.2345 O   0  0  0  0  0  0  0  0  0  0  0  0
   14.9648    8.1100   17.4228 C   0  0  1  0  0  0  0  0  0  0  0  0
   13.0802    3.9030   22.7728 N   0  0  0  0  0  0  0  0  0  0  0  0
   14.5845    6.7849   17.8258 O   0  0  0  0  0  0  0  0  0  0  0  0
   15.0135    5.7591   16.9182 C   0  0  2  0  0  0  0  0  0  0  0  0
   18.2200    5.0375   19.8973 N   0  0  0  0  0  0  0  0  0  0  0  0
   14.3828    7.0824   14.9962 O   0  0  0  0  0  0  0  0  0  0  0  0
   14.1224    5.8502   15.6740 C   0  0  1  0  0  0  0  0  0  0  0  0
   15.9005    4.1919   18.6029 O   0  0  0  0  0  0  0  0  0  0  0  0
   14.3987    4.6841   14.7227 C   0  0  1  0  0  0  0  0  0  0  0  0
   14.5747    4.6132   20.5011 O   0  0  0  0  0  0  0  0  0  0  0  0
   14.0504    3.3715   15.4249 C   0  0  0  0  0  0  0  0  0  0  0  0
   15.7237    1.5981   22.2517 O   0  0  0  0  0  0  0  0  0  0  0  0
   14.9445    3.2088   16.6577 C   0  0  1  0  0  0  0  0  0  0  0  0
   18.0979    3.2167   22.1623 O   0  0  0  0  0  0  0  0  0  0  0  0
   14.8799    4.4071   17.6124 C   0  0  2  0  0  0  0  0  0  0  0  0
   13.3198    9.4576   18.6623 O   0  0  0  0  0  0  0  0  0  0  0  0
   15.7669    4.9916   19.7884 C   0  0  1  0  0  0  0  0  0  0  0  0
   14.8718   11.0363   17.2142 O   0  0  0  0  0  0  0  0  0  0  0  0
   14.5510    3.2390   20.9232 C   0  0  2  0  0  0  0  0  0  0  0  0
   13.2345    2.9610   21.6527 C   0  0  0  0  0  0  0  0  0  0  0  0
   15.7128    2.9800   21.8840 C   0  0  2  0  0  0  0  0  0  0  0  0
   17.0385    3.3338   21.2068 C   0  0  1  0  0  0  0  0  0  0  0  0
   16.9989    4.7677   20.6717 C   0  0  1  0  0  0  0  0  0  0  0  0
   14.6917    9.0632   18.5845 C   0  0  2  0  0  0  0  0  0  0  0  0
   15.5636   10.2509   18.1883 C   0  0  1  0  0  0  0  0  0  0  0  0
  1  3  1  0  0  0  0
  4  1  1  1  0  0  0
  4  6  1  0  0  0  0
  4 31  1  0  0  0  0
  6  7  1  0  0  0  0
  7  9  1  1  0  0  0
  7 30  1  0  0  0  0
  8 26  1  0  0  0  0
 10  9  1  1  0  0  0
 10 13  1  0  0  0  0
 10 21  1  0  0  0  0
 13 12  1  6  0  0  0
 13 15  1  0  0  0  0
 15  2  1  6  0  0  0
 15 17  1  0  0  0  0
 16 25  1  0  0  0  0
 16 23  1  0  0  0  0
 17 19  1  0  0  0  0
 19  5  1  1  0  0  0
 19 21  1  0  0  0  0
 21 14  1  1  0  0  0
 23 14  1  6  0  0  0
 23 29  1  0  0  0  0
 25 26  1  1  0  0  0
 25 27  1  0  0  0  0
 27 18  1  6  0  0  0
 27 28  1  0  0  0  0
 28 20  1  1  0  0  0
 28 29  1  0  0  0  0
 29 11  1  6  0  0  0
 30 22  1  6  0  0  0
 30 31  1  0  0  0  0
 31 24  1  6  0  0  0
M  END
>  <CHROM.1>
172.72010137,-56.30026176,-73.50160555,65.84076547,71.17682604,-56.04124217
15.37610419,5.81121188,18.58125343,-1.54395532,1.12633398,2.55141925

>  <Name>
ligand

>  <RI>
0

>  <Rbt.Current_Directory>
/home/itssahil/PROJECTS/Mol_Feturizer/New_Systems/rnas/3DVV

>  <Rbt.Executable>
rbdock ($Id: //depot/dev/client3/rdock/2013.1/src/exe/rbdock.cxx#4 $)

>  <Rbt.Library>
libRbt.so (2013.1, Build901 2013/11/27)

>  <Rbt.Parameter_File>
/export/apps/rDock/src/rDock_2013.1_src/data/scripts/dock_solv.prm

>  <Rbt.Receptor>
prm/pocket_docking_7.prm

>  <SCORE>
-2.86372

>  <SCORE.INTER>
0.28902

>  <SCORE.INTER.CONST>
1

>  <SCORE.INTER.POLAR>
0

>  <SCORE.INTER.ROT>
6

>  <SCORE.INTER.SOLV>
12.5986

>  <SCORE.INTER.VDW>
-11.6068

>  <SCORE.INTER.norm>
0.00932322

>  <SCORE.INTRA>
-3.15274

>  <SCORE.INTRA.DIHEDRAL>
-8.62641

>  <SCORE.INTRA.DIHEDRAL.0>
10.8172

>  <SCORE.INTRA.POLAR>
0

>  <SCORE.INTRA.POLAR.0>
0

>  <SCORE.INTRA.REPUL>
0

>  <SCORE.INTRA.REPUL.0>
0

>  <SCORE.INTRA.SOLV>
-2.59032

>  <SCORE.INTRA.SOLV.lig_0>
-80.3833

>  <SCORE.INTRA.VDW>
2.45563

>  <SCORE.INTRA.VDW.0>
-4.63762

>  <SCORE.INTRA.norm>
-0.101701

>  <SCORE.RESTR>
0

>  <SCORE.RESTR.CAVITY>
0

>  <SCORE.RESTR.norm>
0

>  <SCORE.SYSTEM>
0

>  <SCORE.SYSTEM.CONST>
0

>  <SCORE.SYSTEM.DIHEDRAL>
0

>  <SCORE.SYSTEM.SOLV>
0

>  <SCORE.SYSTEM.norm>
0

>  <SCORE.heavy>
31

>  <SCORE.norm>
-0.092378

>  <RMSD>
7.068

$$$$
ligand
 OpenBabel11021811473D
libRbt.so/2013.1/901 2013/11/27
 31 33  0  0  0  0  0  0  0  0999 V2000
   16.2192    8.6546   12.3043 C   0  0  0  0  0  0  0  0  0  0  0  0
   21.9651    5.2350   16.9224 N   0  0  0  0  0  0  0  0  0  0  0  0
   15.3139    8.1867   13.3094 O   0  0  0  0  0  0  0  0  0  0  0  0
   17.5965    8.9203   12.9172 C   0  0  1  0  0  0  0  0  0  0  0  0
   20.2020    1.5764   14.2004 N   0  0  0  0  0  0  0  0  0  0  0  0
   18.1473    7.6995   13.4490 O   0  0  0  0  0  0  0  0  0  0  0  0
   19.4469    7.4917   12.8679 C   0  0  1  0  0  0  0  0  0  0  0  0
   20.8057    1.2972    9.8304 N   0  0  0  0  0  0  0  0  0  0  0  0
   19.7338    6.0952   12.6929 O   0  0  0  0  0  0  0  0  0  0  0  0
   19.6269    5.3272   13.9006 C   0  0  2  0  0  0  0  0  0  0  0  0
   15.8768    4.4919   12.4820 N   0  0  0  0  0  0  0  0  0  0  0  0
   20.6843    7.0703   15.1991 O   0  0  0  0  0  0  0  0  0  0  0  0
   20.8177    5.7068   14.7885 C   0  0  1  0  0  0  0  0  0  0  0  0
   18.4018    3.4086   12.9523 O   0  0  0  0  0  0  0  0  0  0  0  0
   20.8772    4.8114   16.0277 C   0  0  1  0  0  0  0  0  0  0  0  0
   18.8548    3.2235   10.6504 O   0  0  0  0  0  0  0  0  0  0  0  0
   21.0927    3.3628   15.5890 C   0  0  0  0  0  0  0  0  0  0  0  0
   16.7197    0.2659   10.2381 O   0  0  0  0  0  0  0  0  0  0  0  0
   19.9062    2.9164   14.7295 C   0  0  1  0  0  0  0  0  0  0  0  0
   14.8178    2.3354   10.8422 O   0  0  0  0  0  0  0  0  0  0  0  0
   19.6407    3.8451   13.5385 C   0  0  2  0  0  0  0  0  0  0  0  0
   20.5850    8.4447   10.9046 O   0  0  0  0  0  0  0  0  0  0  0  0
   18.1253    3.9549   11.6531 C   0  0  1  0  0  0  0  0  0  0  0  0
   19.4931   10.3788   12.3415 O   0  0  0  0  0  0  0  0  0  0  0  0
   18.5314    1.8239   10.5890 C   0  0  2  0  0  0  0  0  0  0  0  0
   19.3781    1.1607    9.5001 C   0  0  0  0  0  0  0  0  0  0  0  0
   17.0525    1.6567   10.2357 C   0  0  2  0  0  0  0  0  0  0  0  0
   16.1850    2.3862   11.2635 C   0  0  1  0  0  0  0  0  0  0  0  0
   16.6199    3.8489   11.3875 C   0  0  1  0  0  0  0  0  0  0  0  0
   19.3176    8.1330   11.4879 C   0  0  2  0  0  0  0  0  0  0  0  0
   18.5658    9.4134   11.8391 C   0  0  1  0  0  0  0  0  0  0  0  0
  1  3  1  0  0  0  0
  4  1  1  6  0  0  0
  4  6  1  0  0  0  0
  4 31  1  0  0  0  0
  6  7  1  0  0  0  0
  7  9  1  6  0  0  0
  7 30  1  0  0  0  0
  8 26  1  0  0  0  0
 10  9  1  6  0  0  0
 10 13  1  0  0  0  0
 10 21  1  0  0  0  0
 13 12  1  1  0  0  0
 13 15  1  0  0  0  0
 15  2  1  1  0  0  0
 15 17  1  0  0  0  0
 16 25  1  0  0  0  0
 16 23  1  0  0  0  0
 17 19  1  0  0  0  0
 19  5  1  6  0  0  0
 19 21  1  0  0  0  0
 21 14  1  1  0  0  0
 23 14  1  1  0  0  0
 23 29  1  0  0  0  0
 25 26  1  6  0  0  0
 25 27  1  0  0  0  0
 27 18  1  1  0  0  0
 27 28  1  0  0  0  0
 28 20  1  6  0  0  0
 28 29  1  0  0  0  0
 29 11  1  1  0  0  0
 30 22  1  1  0  0  0
 30 31  1  0  0  0  0
 31 24  1  1  0  0  0
M  END
>  <CHROM.1>
62.04009628,-55.71736411,-71.60267043,80.52513407,67.76388066,61.21070720
18.70830673,4.97185772,12.58371897,1.32670407,-0.73272959,0.17898140

>  <Name>
ligand

>  <RI>
0

>  <Rbt.Current_Directory>
/home/itssahil/PROJECTS/Mol_Feturizer/New_Systems/rnas/3DVV

>  <Rbt.Executable>
rbdock ($Id: //depot/dev/client3/rdock/2013.1/src/exe/rbdock.cxx#4 $)

>  <Rbt.Library>
libRbt.so (2013.1, Build901 2013/11/27)

>  <Rbt.Parameter_File>
/export/apps/rDock/src/rDock_2013.1_src/data/scripts/dock_solv.prm

>  <Rbt.Receptor>
prm/blind_docking_40.prm

>  <SCORE>
-3.33279

>  <SCORE.INTER>
-0.314048

>  <SCORE.INTER.CONST>
1

>  <SCORE.INTER.POLAR>
0

>  <SCORE.INTER.ROT>
6

>  <SCORE.INTER.SOLV>
17.1267

>  <SCORE.INTER.VDW>
-13.5183

>  <SCORE.INTER.norm>
-0.0101306

>  <SCORE.INTRA>
-3.03754

>  <SCORE.INTRA.DIHEDRAL>
-7.6195

>  <SCORE.INTRA.DIHEDRAL.0>
10.8172

>  <SCORE.INTRA.POLAR>
0

>  <SCORE.INTRA.POLAR.0>
0

>  <SCORE.INTRA.REPUL>
0

>  <SCORE.INTRA.REPUL.0>
0

>  <SCORE.INTRA.SOLV>
-3.36513

>  <SCORE.INTRA.SOLV.lig_0>
-80.3833

>  <SCORE.INTRA.VDW>
2.45478

>  <SCORE.INTRA.VDW.0>
-4.63762

>  <SCORE.INTRA.norm>
-0.0979851

>  <SCORE.RESTR>
0.0187982

>  <SCORE.RESTR.CAVITY>
0.0187982

>  <SCORE.RESTR.norm>
0.000606394

>  <SCORE.SYSTEM>
0

>  <SCORE.SYSTEM.CONST>
0

>  <SCORE.SYSTEM.DIHEDRAL>
0

>  <SCORE.SYSTEM.SOLV>
0

>  <SCORE.SYSTEM.norm>
0

>  <SCORE.heavy>
31

>  <SCORE.norm>
-0.107509

>  <RMSD>
7.070

$$$$
ligand
 OpenBabel11021811473D
libRbt.so/2013.1/901 2013/11/27
 31 33  0  0  0  0  0  0  0  0999 V2000
   22.5390    5.0249   17.4154 C   0  0  0  0  0  0  0  0  0  0  0  0
   16.0764    5.9748   12.6370 N   0  0  0  0  0  0  0  0  0  0  0  0
   23.9665    4.9248   17.4514 O   0  0  0  0  0  0  0  0  0  0  0  0
   22.0846    5.6042   16.0733 C   0  0  1  0  0  0  0  0  0  0  0  0
   14.2914    6.6419   17.1394 N   0  0  0  0  0  0  0  0  0  0  0  0
   20.6455    5.6242   16.0028 O   0  0  0  0  0  0  0  0  0  0  0  0
   20.2201    6.9644   15.6980 C   0  0  1  0  0  0  0  0  0  0  0  0
   14.2363    9.8895   20.3580 N   0  0  0  0  0  0  0  0  0  0  0  0
   18.9643    7.2781   16.3206 O   0  0  0  0  0  0  0  0  0  0  0  0
   17.9039    6.3769   15.9695 C   0  0  2  0  0  0  0  0  0  0  0  0
   18.3972    4.8355   20.1399 N   0  0  0  0  0  0  0  0  0  0  0  0
   18.6871    6.2148   13.6885 O   0  0  0  0  0  0  0  0  0  0  0  0
   17.5737    6.6160   14.4916 C   0  0  1  0  0  0  0  0  0  0  0  0
   16.8972    6.1783   18.2119 O   0  0  0  0  0  0  0  0  0  0  0  0
   16.3382    5.8152   14.0755 C   0  0  1  0  0  0  0  0  0  0  0  0
   17.3428    8.2727   19.1881 O   0  0  0  0  0  0  0  0  0  0  0  0
   15.1336    6.2965   14.8846 C   0  0  0  0  0  0  0  0  0  0  0  0
   14.9514    7.7583   21.9255 O   0  0  0  0  0  0  0  0  0  0  0  0
   15.3934    6.0417   16.3723 C   0  0  1  0  0  0  0  0  0  0  0  0
   16.9835    5.8046   22.4900 O   0  0  0  0  0  0  0  0  0  0  0  0
   16.7054    6.6601   16.8702 C   0  0  2  0  0  0  0  0  0  0  0  0
   21.3439    9.1517   15.8016 O   0  0  0  0  0  0  0  0  0  0  0  0
   17.8351    6.9339   18.9944 C   0  0  1  0  0  0  0  0  0  0  0  0
   22.9061    7.3911   14.5942 O   0  0  0  0  0  0  0  0  0  0  0  0
   16.0801    8.3437   19.8721 C   0  0  2  0  0  0  0  0  0  0  0  0
   15.6622    9.8103   20.0028 C   0  0  0  0  0  0  0  0  0  0  0  0
   16.2234    7.7439   21.2720 C   0  0  2  0  0  0  0  0  0  0  0  0
   16.7249    6.3018   21.1727 C   0  0  1  0  0  0  0  0  0  0  0  0
   18.0139    6.2401   20.3489 C   0  0  1  0  0  0  0  0  0  0  0  0
   21.3042    7.8279   16.3396 C   0  0  2  0  0  0  0  0  0  0  0  0
   22.5571    7.0546   15.9394 C   0  0  1  0  0  0  0  0  0  0  0  0
  1  3  1  0  0  0  0
  4  1  1  1  0  0  0
  4  6  1  0  0  0  0
  4 31  1  0  0  0  0
  6  7  1  0  0  0  0
  7  9  1  1  0  0  0
  7 30  1  0  0  0  0
  8 26  1  0  0  0  0
 10  9  1  1  0  0  0
 10 13  1  0  0  0  0
 10 21  1  0  0  0  0
 13 12  1  6  0  0  0
 13 15  1  0  0  0  0
 15  2  1  6  0  0  0
 15 17  1  0  0  0  0
 16 25  1  0  0  0  0
 16 23  1  0  0  0  0
 17 19  1  0  0  0  0
 19  5  1  1  0  0  0
 19 21  1  0  0  0  0
 21 14  1  1  0  0  0
 23 14  1  6  0  0  0
 23 29  1  0  0  0  0
 25 26  1  1  0  0  0
 25 27  1  0  0  0  0
 27 18  1  6  0  0  0
 27 28  1  0  0  0  0
 28 20  1  1  0  0  0
 28 29  1  0  0  0  0
 29 11  1  6  0  0  0
 30 22  1  6  0  0  0
 30 31  1  0  0  0  0
 31 24  1  6  0  0  0
M  END
>  <CHROM.1>
176.28607630,-56.95056991,-68.86600121,64.04996663,72.33303859,164.69948609
18.24103644,6.82958047,17.48229959,-0.71106263,-0.12412067,1.48222138

>  <Name>
ligand

>  <RI>
0

>  <Rbt.Current_Directory>
/home/itssahil/PROJECTS/Mol_Feturizer/New_Systems/rnas/3DVV

>  <Rbt.Executable>
rbdock ($Id: //depot/dev/client3/rdock/2013.1/src/exe/rbdock.cxx#4 $)

>  <Rbt.Library>
libRbt.so (2013.1, Build901 2013/11/27)

>  <Rbt.Parameter_File>
/export/apps/rDock/src/rDock_2013.1_src/data/scripts/dock_solv.prm

>  <Rbt.Receptor>
prm/pocket_docking_7.prm

>  <SCORE>
-7.38277

>  <SCORE.INTER>
-4.60667

>  <SCORE.INTER.CONST>
1

>  <SCORE.INTER.POLAR>
0

>  <SCORE.INTER.ROT>
6

>  <SCORE.INTER.SOLV>
12.3252

>  <SCORE.INTER.VDW>
-14.7795

>  <SCORE.INTER.norm>
-0.148602

>  <SCORE.INTRA>
-2.7761

>  <SCORE.INTRA.DIHEDRAL>
-8.48569

>  <SCORE.INTRA.DIHEDRAL.0>
10.8172

>  <SCORE.INTRA.POLAR>
0

>  <SCORE.INTRA.POLAR.0>
0

>  <SCORE.INTRA.REPUL>
0

>  <SCORE.INTRA.REPUL.0>
0

>  <SCORE.INTRA.SOLV>
-3.06001

>  <SCORE.INTRA.SOLV.lig_0>
-80.3833

>  <SCORE.INTRA.VDW>
2.99675

>  <SCORE.INTRA.VDW.0>
-4.63762

>  <SCORE.INTRA.norm>
-0.0895516

>  <SCORE.RESTR>
0

>  <SCORE.RESTR.CAVITY>
0

>  <SCORE.RESTR.norm>
0

>  <SCORE.SYSTEM>
0

>  <SCORE.SYSTEM.CONST>
0

>  <SCORE.SYSTEM.DIHEDRAL>
0

>  <SCORE.SYSTEM.SOLV>
0

>  <SCORE.SYSTEM.norm>
0

>  <SCORE.heavy>
31

>  <SCORE.norm>
-0.238154

>  <RMSD>
7.072

$$$$
ligand
 OpenBabel11021811473D
libRbt.so/2013.1/901 2013/11/27
 31 33  0  0  0  0  0  0  0  0999 V2000
   21.5523    5.8754   16.5054 C   0  0  0  0  0  0  0  0  0  0  0  0
   16.6042    7.7977   12.7852 N   0  0  0  0  0  0  0  0  0  0  0  0
   22.5788    5.6651   15.5303 O   0  0  0  0  0  0  0  0  0  0  0  0
   20.3149    5.0446   16.1563 C   0  0  1  0  0  0  0  0  0  0  0  0
   15.6054    3.2085   11.4267 N   0  0  0  0  0  0  0  0  0  0  0  0
   19.8518    5.3754   14.8325 O   0  0  0  0  0  0  0  0  0  0  0  0
   19.7686    4.1645   14.0600 C   0  0  1  0  0  0  0  0  0  0  0  0
   16.6824    0.3311   14.0580 N   0  0  0  0  0  0  0  0  0  0  0  0
   20.0713    4.3955   12.6751 O   0  0  0  0  0  0  0  0  0  0  0  0
   18.9684    4.9215   11.9222 C   0  0  2  0  0  0  0  0  0  0  0  0
   20.2732    1.9366    8.9422 N   0  0  0  0  0  0  0  0  0  0  0  0
   19.3547    7.1549   12.7619 O   0  0  0  0  0  0  0  0  0  0  0  0
   18.3925    6.0976   12.7194 C   0  0  1  0  0  0  0  0  0  0  0  0
   18.3560    2.8378   10.7541 O   0  0  0  0  0  0  0  0  0  0  0  0
   17.1059    6.6134   12.0717 C   0  0  1  0  0  0  0  0  0  0  0  0
   18.7925    1.0671   12.2413 O   0  0  0  0  0  0  0  0  0  0  0  0
   16.0546    5.5035   12.0930 C   0  0  0  0  0  0  0  0  0  0  0  0
   16.9643   -1.3863   10.2128 O   0  0  0  0  0  0  0  0  0  0  0  0
   16.5629    4.3143   11.2727 C   0  0  1  0  0  0  0  0  0  0  0  0
   19.2159   -0.7440    8.5449 O   0  0  0  0  0  0  0  0  0  0  0  0
   17.9391    3.8124   11.7263 C   0  0  2  0  0  0  0  0  0  0  0  0
   20.7000    1.9066   14.3640 O   0  0  0  0  0  0  0  0  0  0  0  0
   19.3510    1.9120   11.2183 C   0  0  1  0  0  0  0  0  0  0  0  0
   19.5944    2.7375   16.6190 O   0  0  0  0  0  0  0  0  0  0  0  0
   17.6667    0.2838   11.8098 C   0  0  2  0  0  0  0  0  0  0  0  0
   17.1597   -0.5557   12.9849 C   0  0  0  0  0  0  0  0  0  0  0  0
   18.0999   -0.6548   10.6823 C   0  0  2  0  0  0  0  0  0  0  0  0
   18.6923    0.1556    9.5276 C   0  0  1  0  0  0  0  0  0  0  0  0
   19.8189    1.0607   10.0332 C   0  0  1  0  0  0  0  0  0  0  0  0
   20.8741    3.2952   14.6557 C   0  0  2  0  0  0  0  0  0  0  0  0
   20.6678    3.5545   16.1450 C   0  0  1  0  0  0  0  0  0  0  0  0
  1  3  1  0  0  0  0
  4  1  1  6  0  0  0
  4  6  1  0  0  0  0
  4 31  1  0  0  0  0
  6  7  1  0  0  0  0
  7  9  1  6  0  0  0
  7 30  1  0  0  0  0
  8 26  1  0  0  0  0
 10  9  1  1  0  0  0
 10 13  1  0  0  0  0
 10 21  1  0  0  0  0
 13 12  1  6  0  0  0
 13 15  1  0  0  0  0
 15  2  1  1  0  0  0
 15 17  1  0  0  0  0
 16 25  1  0  0  0  0
 16 23  1  0  0  0  0
 17 19  1  0  0  0  0
 19  5  1  1  0  0  0
 19 21  1  0  0  0  0
 21 14  1  6  0  0  0
 23 14  1  6  0  0  0
 23 29  1  0  0  0  0
 25 26  1  1  0  0  0
 25 27  1  0  0  0  0
 27 18  1  6  0  0  0
 27 28  1  0  0  0  0
 28 20  1  6  0  0  0
 28 29  1  0  0  0  0
 29 11  1  6  0  0  0
 30 22  1  1  0  0  0
 30 31  1  0  0  0  0
 31 24  1  6  0  0  0
M  END
>  <CHROM.1>
-56.96400176,-81.11031582,48.70610107,66.73742235,76.12212258,63.02829410
18.85803742,3.13875233,12.64030751,-1.13891314,0.88869597,-2.80381561

>  <Name>
ligand

>  <RI>
0

>  <Rbt.Current_Directory>
/home/itssahil/PROJECTS/Mol_Feturizer/New_Systems/rnas/3DVV

>  <Rbt.Executable>
rbdock ($Id: //depot/dev/client3/rdock/2013.1/src/exe/rbdock.cxx#4 $)

>  <Rbt.Library>
libRbt.so (2013.1, Build901 2013/11/27)

>  <Rbt.Parameter_File>
/export/apps/rDock/src/rDock_2013.1_src/data/scripts/dock_solv.prm

>  <Rbt.Receptor>
prm/blind_docking_80.prm

>  <SCORE>
1.78283

>  <SCORE.INTER>
3.01968

>  <SCORE.INTER.CONST>
1

>  <SCORE.INTER.POLAR>
0

>  <SCORE.INTER.ROT>
6

>  <SCORE.INTER.SOLV>
17.3127

>  <SCORE.INTER.VDW>
-11.3578

>  <SCORE.INTER.norm>
0.097409

>  <SCORE.INTRA>
-1.24518

>  <SCORE.INTRA.DIHEDRAL>
-6.5694

>  <SCORE.INTRA.DIHEDRAL.0>
10.8172

>  <SCORE.INTRA.POLAR>
0

>  <SCORE.INTRA.POLAR.0>
0

>  <SCORE.INTRA.REPUL>
0

>  <SCORE.INTRA.REPUL.0>
0

>  <SCORE.INTRA.SOLV>
-2.03753

>  <SCORE.INTRA.SOLV.lig_0>
-80.3833

>  <SCORE.INTRA.VDW>
3.05829

>  <SCORE.INTRA.VDW.0>
-4.63762

>  <SCORE.INTRA.norm>
-0.040167

>  <SCORE.RESTR>
0.00832863

>  <SCORE.RESTR.CAVITY>
0.00832863

>  <SCORE.RESTR.norm>
0.000268666

>  <SCORE.SYSTEM>
0

>  <SCORE.SYSTEM.CONST>
0

>  <SCORE.SYSTEM.DIHEDRAL>
0

>  <SCORE.SYSTEM.SOLV>
0

>  <SCORE.SYSTEM.norm>
0

>  <SCORE.heavy>
31

>  <SCORE.norm>
0.0575106

>  <RMSD>
7.075

$$$$
ligand
 OpenBabel11021811473D
libRbt.so/2013.1/901 2013/11/27
 31 33  0  0  0  0  0  0  0  0999 V2000
   18.4929    1.4818   14.2779 C   0  0  0  0  0  0  0  0  0  0  0  0
   20.1020    9.6446   15.9050 N   0  0  0  0  0  0  0  0  0  0  0  0
   18.8597    0.2841   13.5852 O   0  0  0  0  0  0  0  0  0  0  0  0
   19.5285    2.5791   14.0193 C   0  0  1  0  0  0  0  0  0  0  0  0
   16.8079    7.8383   19.0338 N   0  0  0  0  0  0  0  0  0  0  0  0
   19.1433    3.7939   14.6917 O   0  0  0  0  0  0  0  0  0  0  0  0
   20.2329    4.2195   15.5292 C   0  0  1  0  0  0  0  0  0  0  0  0
   17.9283    4.0141   22.5028 N   0  0  0  0  0  0  0  0  0  0  0  0
   19.7646    4.8671   16.7227 O   0  0  0  0  0  0  0  0  0  0  0  0
   18.9728    6.0377   16.4725 C   0  0  2  0  0  0  0  0  0  0  0  0
   15.1898    3.4566   16.6006 N   0  0  0  0  0  0  0  0  0  0  0  0
   20.6986    7.0080   15.0858 O   0  0  0  0  0  0  0  0  0  0  0  0
   19.9417    7.2106   16.2822 C   0  0  1  0  0  0  0  0  0  0  0  0
   16.9510    5.3226   17.6899 O   0  0  0  0  0  0  0  0  0  0  0  0
   19.1787    8.5326   16.1777 C   0  0  1  0  0  0  0  0  0  0  0  0
   18.1642    3.6556   18.8246 O   0  0  0  0  0  0  0  0  0  0  0  0
   18.4281    8.7826   17.4859 C   0  0  0  0  0  0  0  0  0  0  0  0
   15.6150    3.2607   21.4364 O   0  0  0  0  0  0  0  0  0  0  0  0
   17.4127    7.6573   17.7054 C   0  0  1  0  0  0  0  0  0  0  0  0
   14.2739    2.2712   19.0939 O   0  0  0  0  0  0  0  0  0  0  0  0
   18.0420    6.2595   17.6608 C   0  0  2  0  0  0  0  0  0  0  0  0
   22.2442    3.0847   16.3807 O   0  0  0  0  0  0  0  0  0  0  0  0
   17.3435    3.9411   17.6767 C   0  0  1  0  0  0  0  0  0  0  0  0
   21.9781    2.6251   13.7892 O   0  0  0  0  0  0  0  0  0  0  0  0
   17.5159    3.8904   20.0862 C   0  0  2  0  0  0  0  0  0  0  0  0
   18.4913    3.5644   21.2197 C   0  0  0  0  0  0  0  0  0  0  0  0
   16.2930    2.9796   20.2091 C   0  0  2  0  0  0  0  0  0  0  0  0
   15.3403    3.2245   19.0372 C   0  0  1  0  0  0  0  0  0  0  0  0
   16.0812    3.0730   17.7060 C   0  0  1  0  0  0  0  0  0  0  0  0
   20.9010    2.9045   15.9258 C   0  0  2  0  0  0  0  0  0  0  0  0
   20.8873    2.1652   14.5912 C   0  0  1  0  0  0  0  0  0  0  0  0
  1  3  1  0  0  0  0
  4  1  1  1  0  0  0
  4  6  1  0  0  0  0
  4 31  1  0  0  0  0
  6  7  1  0  0  0  0
  7  9  1  1  0  0  0
  7 30  1  0  0  0  0
  8 26  1  0  0  0  0
 10  9  1  1  0  0  0
 10 13  1  0  0  0  0
 10 21  1  0  0  0  0
 13 12  1  6  0  0  0
 13 15  1  0  0  0  0
 15  2  1  1  0  0  0
 15 17  1  0  0  0  0
 16 25  1  0  0  0  0
 16 23  1  0  0  0  0
 17 19  1  0  0  0  0
 19  5  1  1  0  0  0
 19 21  1  0  0  0  0
 21 14  1  6  0  0  0
 23 14  1  1  0  0  0
 23 29  1  0  0  0  0
 25 26  1  1  0  0  0
 25 27  1  0  0  0  0
 27 18  1  1  0  0  0
 27 28  1  0  0  0  0
 28 20  1  6  0  0  0
 28 29  1  0  0  0  0
 29 11  1  6  0  0  0
 30 22  1  6  0  0  0
 30 31  1  0  0  0  0
 31 24  1  6  0  0  0
M  END
>  <CHROM.1>
178.68796767,-59.84737007,-84.49256594,59.82761421,55.53049800,170.41131222
18.42942659,4.46044985,17.18918217,0.23606004,-0.88298534,-2.87239941

>  <Name>
ligand

>  <RI>
0

>  <Rbt.Current_Directory>
/home/itssahil/PROJECTS/Mol_Feturizer/New_Systems/rnas/3DVV

>  <Rbt.Executable>
rbdock ($Id: //depot/dev/client3/rdock/2013.1/src/exe/rbdock.cxx#4 $)

>  <Rbt.Library>
libRbt.so (2013.1, Build901 2013/11/27)

>  <Rbt.Parameter_File>
/export/apps/rDock/src/rDock_2013.1_src/data/scripts/dock_solv.prm

>  <Rbt.Receptor>
prm/pocket_docking_4.prm

>  <SCORE>
-6.73387

>  <SCORE.INTER>
-3.58735

>  <SCORE.INTER.CONST>
1

>  <SCORE.INTER.POLAR>
0

>  <SCORE.INTER.ROT>
6

>  <SCORE.INTER.SOLV>
17.8127

>  <SCORE.INTER.VDW>
-15.9291

>  <SCORE.INTER.norm>
-0.115721

>  <SCORE.INTRA>
-3.14651

>  <SCORE.INTRA.DIHEDRAL>
-7.54407

>  <SCORE.INTRA.DIHEDRAL.0>
10.8172

>  <SCORE.INTRA.POLAR>
0

>  <SCORE.INTRA.POLAR.0>
0

>  <SCORE.INTRA.REPUL>
0

>  <SCORE.INTRA.REPUL.0>
0

>  <SCORE.INTRA.SOLV>
-3.4278

>  <SCORE.INTRA.SOLV.lig_0>
-80.3833

>  <SCORE.INTRA.VDW>
2.33942

>  <SCORE.INTRA.VDW.0>
-4.63762

>  <SCORE.INTRA.norm>
-0.1015

>  <SCORE.RESTR>
0

>  <SCORE.RESTR.CAVITY>
0

>  <SCORE.RESTR.norm>
0

>  <SCORE.SYSTEM>
0

>  <SCORE.SYSTEM.CONST>
0

>  <SCORE.SYSTEM.DIHEDRAL>
0

>  <SCORE.SYSTEM.SOLV>
0

>  <SCORE.SYSTEM.norm>
0

>  <SCORE.heavy>
31

>  <SCORE.norm>
-0.217222

>  <RMSD>
7.079

$$$$
ligand
 OpenBabel11021811473D
libRbt.so/2013.1/901 2013/11/27
 31 33  0  0  0  0  0  0  0  0999 V2000
   10.9569    5.1663   19.4977 C   0  0  0  0  0  0  0  0  0  0  0  0
   14.8042    4.3465   12.0473 N   0  0  0  0  0  0  0  0  0  0  0  0
   11.9674    6.0868   19.9224 O   0  0  0  0  0  0  0  0  0  0  0  0
   11.5360    4.1790   18.4813 C   0  0  1  0  0  0  0  0  0  0  0  0
   15.6088    8.9100   13.6065 N   0  0  0  0  0  0  0  0  0  0  0  0
   12.1137    4.8918   17.3702 O   0  0  0  0  0  0  0  0  0  0  0  0
   13.4770    4.4615   17.2085 C   0  0  1  0  0  0  0  0  0  0  0  0
   18.1029    8.7876   17.5390 N   0  0  0  0  0  0  0  0  0  0  0  0
   14.3178    5.5257   16.7356 O   0  0  0  0  0  0  0  0  0  0  0  0
   13.9950    5.9721   15.4103 C   0  0  2  0  0  0  0  0  0  0  0  0
   11.6722    9.1740   17.2600 N   0  0  0  0  0  0  0  0  0  0  0  0
   13.7965    3.7013   14.6060 O   0  0  0  0  0  0  0  0  0  0  0  0
   14.5277    4.9182   14.4325 C   0  0  1  0  0  0  0  0  0  0  0  0
   13.9677    8.3917   15.8855 O   0  0  0  0  0  0  0  0  0  0  0  0
   14.3766    5.3946   12.9865 C   0  0  1  0  0  0  0  0  0  0  0  0
   15.2709    8.4388   17.8445 O   0  0  0  0  0  0  0  0  0  0  0  0
   15.2174    6.6553   12.7841 C   0  0  0  0  0  0  0  0  0  0  0  0
   15.4998   12.1026   17.8743 O   0  0  0  0  0  0  0  0  0  0  0  0
   14.6991    7.7590   13.7108 C   0  0  1  0  0  0  0  0  0  0  0  0
   12.7104   11.6424   18.3957 O   0  0  0  0  0  0  0  0  0  0  0  0
   14.6440    7.3341   15.1833 C   0  0  2  0  0  0  0  0  0  0  0  0
   15.0448    3.2515   18.6699 O   0  0  0  0  0  0  0  0  0  0  0  0
   13.9462    8.2478   17.3143 C   0  0  1  0  0  0  0  0  0  0  0  0
   12.7043    2.0190   18.6411 O   0  0  0  0  0  0  0  0  0  0  0  0
   15.8369    9.7309   17.5664 C   0  0  2  0  0  0  0  0  0  0  0  0
   17.2426    9.8027   18.1676 C   0  0  0  0  0  0  0  0  0  0  0  0
   14.9696   10.8166   18.2062 C   0  0  2  0  0  0  0  0  0  0  0  0
   13.5345   10.7114   17.6862 C   0  0  1  0  0  0  0  0  0  0  0  0
   12.9921    9.2955   17.8977 C   0  0  1  0  0  0  0  0  0  0  0  0
   13.9018    4.1093   18.6326 C   0  0  2  0  0  0  0  0  0  0  0  0
   12.6634    3.3648   19.1225 C   0  0  1  0  0  0  0  0  0  0  0  0
  1  3  1  0  0  0  0
  4  1  1  1  0  0  0
  4  6  1  0  0  0  0
  4 31  1  0  0  0  0
  6  7  1  0  0  0  0
  7  9  1  1  0  0  0
  7 30  1  0  0  0  0
  8 26  1  0  0  0  0
 10  9  1  1  0  0  0
 10 13  1  0  0  0  0
 10 21  1  0  0  0  0
 13 12  1  6  0  0  0
 13 15  1  0  0  0  0
 15  2  1  6  0  0  0
 15 17  1  0  0  0  0
 16 25  1  0  0  0  0
 16 23  1  0  0  0  0
 17 19  1  0  0  0  0
 19  5  1  1  0  0  0
 19 21  1  0  0  0  0
 21 14  1  1  0  0  0
 23 14  1  6  0  0  0
 23 29  1  0  0  0  0
 25 26  1  1  0  0  0
 25 27  1  0  0  0  0
 27 18  1  6  0  0  0
 27 28  1  0  0  0  0
 28 20  1  1  0  0  0
 28 29  1  0  0  0  0
 29 11  1  6  0  0  0
 30 22  1  6  0  0  0
 30 31  1  0  0  0  0
 31 24  1  6  0  0  0
M  END
>  <CHROM.1>
-56.12759133,-65.58716265,-75.71763851,69.61571500,61.14190939,62.00549863
14.05702062,6.92836939,16.83539928,2.16941105,-1.08676260,-2.56490527

>  <Name>
ligand

>  <RI>
0

>  <Rbt.Current_Directory>
/home/itssahil/PROJECTS/Mol_Feturizer/New_Systems/rnas/3DVV

>  <Rbt.Executable>
rbdock ($Id: //depot/dev/client3/rdock/2013.1/src/exe/rbdock.cxx#4 $)

>  <Rbt.Library>
libRbt.so (2013.1, Build901 2013/11/27)

>  <Rbt.Parameter_File>
/export/apps/rDock/src/rDock_2013.1_src/data/scripts/dock_solv.prm

>  <Rbt.Receptor>
prm/pocket_docking_8.prm

>  <SCORE>
-8.16079

>  <SCORE.INTER>
-4.05585

>  <SCORE.INTER.CONST>
1

>  <SCORE.INTER.POLAR>
0

>  <SCORE.INTER.ROT>
6

>  <SCORE.INTER.SOLV>
8.26113

>  <SCORE.INTER.VDW>
-13.0576

>  <SCORE.INTER.norm>
-0.130834

>  <SCORE.INTRA>
-4.10494

>  <SCORE.INTRA.DIHEDRAL>
-8.72138

>  <SCORE.INTRA.DIHEDRAL.0>
10.8172

>  <SCORE.INTRA.POLAR>
0

>  <SCORE.INTRA.POLAR.0>
0

>  <SCORE.INTRA.REPUL>
0

>  <SCORE.INTRA.REPUL.0>
0

>  <SCORE.INTRA.SOLV>
-3.63927

>  <SCORE.INTRA.SOLV.lig_0>
-80.3833

>  <SCORE.INTRA.VDW>
2.07538

>  <SCORE.INTRA.VDW.0>
-4.63762

>  <SCORE.INTRA.norm>
-0.132418

>  <SCORE.RESTR>
0

>  <SCORE.RESTR.CAVITY>
0

>  <SCORE.RESTR.norm>
0

>  <SCORE.SYSTEM>
0

>  <SCORE.SYSTEM.CONST>
0

>  <SCORE.SYSTEM.DIHEDRAL>
0

>  <SCORE.SYSTEM.SOLV>
0

>  <SCORE.SYSTEM.norm>
0

>  <SCORE.heavy>
31

>  <SCORE.norm>
-0.263251

>  <RMSD>
7.082

$$$$
ligand
 OpenBabel11021811473D
libRbt.so/2013.1/901 2013/11/27
 31 33  0  0  0  0  0  0  0  0999 V2000
   19.9903   10.1816    9.9267 C   0  0  0  0  0  0  0  0  0  0  0  0
   22.3992    5.9431   17.1836 N   0  0  0  0  0  0  0  0  0  0  0  0
   21.0703   10.4134   10.8369 O   0  0  0  0  0  0  0  0  0  0  0  0
   18.9810    9.2092   10.5422 C   0  0  1  0  0  0  0  0  0  0  0  0
   19.8727    2.5908   14.6771 N   0  0  0  0  0  0  0  0  0  0  0  0
   19.6237    7.9577   10.8541 O   0  0  0  0  0  0  0  0  0  0  0  0
   19.3936    7.6576   12.2422 C   0  0  1  0  0  0  0  0  0  0  0  0
   20.1924    2.1302    9.1911 N   0  0  0  0  0  0  0  0  0  0  0  0
   20.5047    6.9598   12.8265 O   0  0  0  0  0  0  0  0  0  0  0  0
   20.1998    6.3364   14.0828 C   0  0  2  0  0  0  0  0  0  0  0  0
   16.1564    5.4813   12.0994 N   0  0  0  0  0  0  0  0  0  0  0  0
   21.6148    7.8831   15.2863 O   0  0  0  0  0  0  0  0  0  0  0  0
   21.4311    6.4978   14.9818 C   0  0  1  0  0  0  0  0  0  0  0  0
   18.5748    4.6865   13.2353 O   0  0  0  0  0  0  0  0  0  0  0  0
   21.2576    5.7146   16.2847 C   0  0  1  0  0  0  0  0  0  0  0  0
   19.4408    4.0153   11.1526 O   0  0  0  0  0  0  0  0  0  0  0  0
   21.1343    4.2255   15.9614 C   0  0  0  0  0  0  0  0  0  0  0  0
   17.4727    0.9174   11.0784 O   0  0  0  0  0  0  0  0  0  0  0  0
   19.8910    4.0007   15.0958 C   0  0  1  0  0  0  0  0  0  0  0  0
   15.4535    2.9509   10.8489 O   0  0  0  0  0  0  0  0  0  0  0  0
   19.8713    4.8678   13.8311 C   0  0  2  0  0  0  0  0  0  0  0  0
   18.6437    9.0123   14.1554 O   0  0  0  0  0  0  0  0  0  0  0  0
   18.5278    4.9083   11.8171 C   0  0  1  0  0  0  0  0  0  0  0  0
   17.0688    9.4415   12.0737 O   0  0  0  0  0  0  0  0  0  0  0  0
   19.1607    2.6210   11.3636 C   0  0  2  0  0  0  0  0  0  0  0  0
   20.2032    1.7819   10.6209 C   0  0  0  0  0  0  0  0  0  0  0  0
   17.7737    2.2894   10.8101 C   0  0  2  0  0  0  0  0  0  0  0  0
   16.7205    3.1779   11.4754 C   0  0  1  0  0  0  0  0  0  0  0  0
   17.0977    4.6544   11.3287 C   0  0  1  0  0  0  0  0  0  0  0  0
   19.3008    9.0394   12.8861 C   0  0  2  0  0  0  0  0  0  0  0  0
   18.4430    9.7738   11.8601 C   0  0  1  0  0  0  0  0  0  0  0  0
  1  3  1  0  0  0  0
  4  1  1  1  0  0  0
  4  6  1  0  0  0  0
  4 31  1  0  0  0  0
  6  7  1  0  0  0  0
  7  9  1  1  0  0  0
  7 30  1  0  0  0  0
  8 26  1  0  0  0  0
 10  9  1  6  0  0  0
 10 13  1  0  0  0  0
 10 21  1  0  0  0  0
 13 12  1  1  0  0  0
 13 15  1  0  0  0  0
 15  2  1  1  0  0  0
 15 17  1  0  0  0  0
 16 25  1  0  0  0  0
 16 23  1  0  0  0  0
 17 19  1  0  0  0  0
 19  5  1  6  0  0  0
 19 21  1  0  0  0  0
 21 14  1  1  0  0  0
 23 14  1  1  0  0  0
 23 29  1  0  0  0  0
 25 26  1  6  0  0  0
 25 27  1  0  0  0  0
 27 18  1  1  0  0  0
 27 28  1  0  0  0  0
 28 20  1  6  0  0  0
 28 29  1  0  0  0  0
 29 11  1  1  0  0  0
 30 22  1  1  0  0  0
 30 31  1  0  0  0  0
 31 24  1  1  0  0  0
M  END
>  <CHROM.1>
-59.11851324,-164.67809175,-142.04014232,58.64419477,80.42150128,-57.26254614
19.26245778,5.75032803,12.57878778,1.09260346,-0.97460585,-0.18749939

>  <Name>
ligand

>  <RI>
0

>  <Rbt.Current_Directory>
/home/itssahil/PROJECTS/Mol_Feturizer/New_Systems/rnas/3DVV

>  <Rbt.Executable>
rbdock ($Id: //depot/dev/client3/rdock/2013.1/src/exe/rbdock.cxx#4 $)

>  <Rbt.Library>
libRbt.so (2013.1, Build901 2013/11/27)

>  <Rbt.Parameter_File>
/export/apps/rDock/src/rDock_2013.1_src/data/scripts/dock_solv.prm

>  <Rbt.Receptor>
prm/blind_docking_100.prm

>  <SCORE>
-2.77606

>  <SCORE.INTER>
-2.43199

>  <SCORE.INTER.CONST>
1

>  <SCORE.INTER.POLAR>
0

>  <SCORE.INTER.ROT>
6

>  <SCORE.INTER.SOLV>
19.982

>  <SCORE.INTER.VDW>
-15.882

>  <SCORE.INTER.norm>
-0.0784513

>  <SCORE.INTRA>
-0.34407

>  <SCORE.INTRA.DIHEDRAL>
-2.58193

>  <SCORE.INTRA.DIHEDRAL.0>
10.8172

>  <SCORE.INTRA.POLAR>
0

>  <SCORE.INTRA.POLAR.0>
0

>  <SCORE.INTRA.REPUL>
0

>  <SCORE.INTRA.REPUL.0>
0

>  <SCORE.INTRA.SOLV>
-0.431429

>  <SCORE.INTRA.SOLV.lig_0>
-80.3833

>  <SCORE.INTRA.VDW>
1.16261

>  <SCORE.INTRA.VDW.0>
-4.63762

>  <SCORE.INTRA.norm>
-0.011099

>  <SCORE.RESTR>
0

>  <SCORE.RESTR.CAVITY>
0

>  <SCORE.RESTR.norm>
0

>  <SCORE.SYSTEM>
0

>  <SCORE.SYSTEM.CONST>
0

>  <SCORE.SYSTEM.DIHEDRAL>
0

>  <SCORE.SYSTEM.SOLV>
0

>  <SCORE.SYSTEM.norm>
0

>  <SCORE.heavy>
31

>  <SCORE.norm>
-0.0895504

>  <RMSD>
7.086

$$$$
ligand
 OpenBabel11021811473D
libRbt.so/2013.1/901 2013/11/27
 31 33  0  0  0  0  0  0  0  0999 V2000
   19.5687    8.9683    9.5569 C   0  0  0  0  0  0  0  0  0  0  0  0
   22.0514    5.3981   17.3733 N   0  0  0  0  0  0  0  0  0  0  0  0
   19.5910    8.0542    8.4556 O   0  0  0  0  0  0  0  0  0  0  0  0
   18.6221    8.4585   10.6466 C   0  0  1  0  0  0  0  0  0  0  0  0
   20.0731    1.8441   14.6604 N   0  0  0  0  0  0  0  0  0  0  0  0
   19.0348    7.1514   11.0911 O   0  0  0  0  0  0  0  0  0  0  0  0
   19.2043    7.1853   12.5193 C   0  0  1  0  0  0  0  0  0  0  0  0
   20.3470    0.3417    9.9237 N   0  0  0  0  0  0  0  0  0  0  0  0
   20.2592    6.3110   12.9504 O   0  0  0  0  0  0  0  0  0  0  0  0
   19.9721    5.6181   14.1741 C   0  0  2  0  0  0  0  0  0  0  0  0
   16.0708    4.6276   12.3682 N   0  0  0  0  0  0  0  0  0  0  0  0
   21.1297    7.2863   15.4854 O   0  0  0  0  0  0  0  0  0  0  0  0
   21.1302    5.8987   15.1387 C   0  0  1  0  0  0  0  0  0  0  0  0
   18.6016    3.8117   13.2048 O   0  0  0  0  0  0  0  0  0  0  0  0
   20.9904    5.0616   16.4117 C   0  0  1  0  0  0  0  0  0  0  0  0
   19.4185    3.7623   10.9983 O   0  0  0  0  0  0  0  0  0  0  0  0
   21.0641    3.5788   16.0467 C   0  0  0  0  0  0  0  0  0  0  0  0
   17.7231    0.6053   10.2014 O   0  0  0  0  0  0  0  0  0  0  0  0
   19.9003    3.2328   15.1133 C   0  0  1  0  0  0  0  0  0  0  0  0
   15.5276    2.4297   10.5421 O   0  0  0  0  0  0  0  0  0  0  0  0
   19.8364    4.1290   13.8706 C   0  0  2  0  0  0  0  0  0  0  0  0
   19.4345    9.0197   14.1440 O   0  0  0  0  0  0  0  0  0  0  0  0
   18.4659    4.3717   11.8892 C   0  0  1  0  0  0  0  0  0  0  0  0
   17.4096    9.5078   12.5132 O   0  0  0  0  0  0  0  0  0  0  0  0
   19.2702    2.3388   10.8603 C   0  0  2  0  0  0  0  0  0  0  0  0
   20.3432    1.8132    9.9038 C   0  0  0  0  0  0  0  0  0  0  0  0
   17.8913    2.0233   10.2779 C   0  0  2  0  0  0  0  0  0  0  0  0
   16.7996    2.6148   11.1720 C   0  0  1  0  0  0  0  0  0  0  0  0
   17.0406    4.1109   11.3904 C   0  0  1  0  0  0  0  0  0  0  0  0
   19.6351    8.6264   12.7844 C   0  0  2  0  0  0  0  0  0  0  0  0
   18.6787    9.3821   11.8667 C   0  0  1  0  0  0  0  0  0  0  0  0
  1  3  1  0  0  0  0
  4  1  1  6  0  0  0
  4  6  1  0  0  0  0
  4 31  1  0  0  0  0
  6  7  1  0  0  0  0
  7  9  1  6  0  0  0
  7 30  1  0  0  0  0
  8 26  1  0  0  0  0
 10  9  1  6  0  0  0
 10 13  1  0  0  0  0
 10 21  1  0  0  0  0
 13 12  1  1  0  0  0
 13 15  1  0  0  0  0
 15  2  1  1  0  0  0
 15 17  1  0  0  0  0
 16 25  1  0  0  0  0
 16 23  1  0  0  0  0
 17 19  1  0  0  0  0
 19  5  1  6  0  0  0
 19 21  1  0  0  0  0
 21 14  1  1  0  0  0
 23 14  1  1  0  0  0
 23 29  1  0  0  0  0
 25 26  1  6  0  0  0
 25 27  1  0  0  0  0
 27 18  1  1  0  0  0
 27 28  1  0  0  0  0
 28 20  1  6  0  0  0
 28 29  1  0  0  0  0
 29 11  1  1  0  0  0
 30 22  1  1  0  0  0
 30 31  1  0  0  0  0
 31 24  1  1  0  0  0
M  END
>  <CHROM.1>
58.13395676,-141.16912922,-125.90751135,67.23918727,65.26972205,170.74118127
19.18202613,5.11057972,12.46951728,1.07933657,-1.10274403,-0.06506953

>  <Name>
ligand

>  <RI>
0

>  <Rbt.Current_Directory>
/home/itssahil/PROJECTS/Mol_Feturizer/New_Systems/rnas/3DVV

>  <Rbt.Executable>
rbdock ($Id: //depot/dev/client3/rdock/2013.1/src/exe/rbdock.cxx#4 $)

>  <Rbt.Library>
libRbt.so (2013.1, Build901 2013/11/27)

>  <Rbt.Parameter_File>
/export/apps/rDock/src/rDock_2013.1_src/data/scripts/dock_solv.prm

>  <Rbt.Receptor>
prm/blind_docking_80.prm

>  <SCORE>
-1.95346

>  <SCORE.INTER>
-3.39185

>  <SCORE.INTER.CONST>
1

>  <SCORE.INTER.POLAR>
0

>  <SCORE.INTER.ROT>
6

>  <SCORE.INTER.SOLV>
18.0359

>  <SCORE.INTER.VDW>
-15.8732

>  <SCORE.INTER.norm>
-0.109415

>  <SCORE.INTRA>
1.4263

>  <SCORE.INTRA.DIHEDRAL>
2.15646

>  <SCORE.INTRA.DIHEDRAL.0>
10.8172

>  <SCORE.INTRA.POLAR>
0

>  <SCORE.INTRA.POLAR.0>
0

>  <SCORE.INTRA.REPUL>
0

>  <SCORE.INTRA.REPUL.0>
0

>  <SCORE.INTRA.SOLV>
-2.20286

>  <SCORE.INTRA.SOLV.lig_0>
-80.3833

>  <SCORE.INTRA.VDW>
1.4495

>  <SCORE.INTRA.VDW.0>
-4.63762

>  <SCORE.INTRA.norm>
0.0460096

>  <SCORE.RESTR>
0.0120982

>  <SCORE.RESTR.CAVITY>
0.0120982

>  <SCORE.RESTR.norm>
0.000390265

>  <SCORE.SYSTEM>
0

>  <SCORE.SYSTEM.CONST>
0

>  <SCORE.SYSTEM.DIHEDRAL>
0

>  <SCORE.SYSTEM.SOLV>
0

>  <SCORE.SYSTEM.norm>
0

>  <SCORE.heavy>
31

>  <SCORE.norm>
-0.0630148

>  <RMSD>
7.086

$$$$
ligand
 OpenBabel11021811473D
libRbt.so/2013.1/901 2013/11/27
 31 33  0  0  0  0  0  0  0  0999 V2000
   21.3189    7.3841   14.4817 C   0  0  0  0  0  0  0  0  0  0  0  0
   13.7699    4.3591   12.1105 N   0  0  0  0  0  0  0  0  0  0  0  0
   21.4386    6.3139   15.4246 O   0  0  0  0  0  0  0  0  0  0  0  0
   20.4979    6.9316   13.2716 C   0  0  1  0  0  0  0  0  0  0  0  0
   13.3941    6.3995   16.5375 N   0  0  0  0  0  0  0  0  0  0  0  0
   19.1709    6.5518   13.6856 O   0  0  0  0  0  0  0  0  0  0  0  0
   18.2173    7.3022   12.9127 C   0  0  1  0  0  0  0  0  0  0  0  0
   14.4991   11.0932   16.3474 N   0  0  0  0  0  0  0  0  0  0  0  0
   17.0351    7.6008   13.6718 O   0  0  0  0  0  0  0  0  0  0  0  0
   16.3012    6.4370   14.0806 C   0  0  2  0  0  0  0  0  0  0  0  0
   18.6351    6.3132   17.6734 N   0  0  0  0  0  0  0  0  0  0  0  0
   16.3236    5.5351   11.8381 O   0  0  0  0  0  0  0  0  0  0  0  0
   15.4572    5.9868   12.8825 C   0  0  1  0  0  0  0  0  0  0  0  0
   16.1948    6.9556   16.4891 O   0  0  0  0  0  0  0  0  0  0  0  0
   14.5135    4.8503   13.2806 C   0  0  1  0  0  0  0  0  0  0  0  0
   16.7243    9.2476   16.4199 O   0  0  0  0  0  0  0  0  0  0  0  0
   13.5406    5.3569   14.3456 C   0  0  0  0  0  0  0  0  0  0  0  0
   16.0893    9.7334   20.0028 O   0  0  0  0  0  0  0  0  0  0  0  0
   14.3311    5.7826   15.5864 C   0  0  1  0  0  0  0  0  0  0  0  0
   18.4167    8.0457   19.9997 O   0  0  0  0  0  0  0  0  0  0  0  0
   15.4318    6.8052   15.2791 C   0  0  2  0  0  0  0  0  0  0  0  0
   18.3959    9.3267   11.5244 O   0  0  0  0  0  0  0  0  0  0  0  0
   17.2630    7.9125   16.4120 C   0  0  1  0  0  0  0  0  0  0  0  0
   20.3460    7.6441   10.9210 O   0  0  0  0  0  0  0  0  0  0  0  0
   15.9633    9.5696   17.5965 C   0  0  2  0  0  0  0  0  0  0  0  0
   15.4376   11.0021   17.4772 C   0  0  0  0  0  0  0  0  0  0  0  0
   16.8643    9.4747   18.8291 C   0  0  2  0  0  0  0  0  0  0  0  0
   17.4732    8.0742   18.9234 C   0  0  1  0  0  0  0  0  0  0  0  0
   18.1871    7.7132   17.6180 C   0  0  1  0  0  0  0  0  0  0  0  0
   18.9513    8.6115   12.6305 C   0  0  2  0  0  0  0  0  0  0  0  0
   20.3410    8.0881   12.2802 C   0  0  1  0  0  0  0  0  0  0  0  0
  1  3  1  0  0  0  0
  4  1  1  1  0  0  0
  4  6  1  0  0  0  0
  4 31  1  0  0  0  0
  6  7  1  0  0  0  0
  7  9  1  1  0  0  0
  7 30  1  0  0  0  0
  8 26  1  0  0  0  0
 10  9  1  6  0  0  0
 10 13  1  0  0  0  0
 10 21  1  0  0  0  0
 13 12  1  6  0  0  0
 13 15  1  0  0  0  0
 15  2  1  6  0  0  0
 15 17  1  0  0  0  0
 16 25  1  0  0  0  0
 16 23  1  0  0  0  0
 17 19  1  0  0  0  0
 19  5  1  1  0  0  0
 19 21  1  0  0  0  0
 21 14  1  1  0  0  0
 23 14  1  1  0  0  0
 23 29  1  0  0  0  0
 25 26  1  6  0  0  0
 25 27  1  0  0  0  0
 27 18  1  1  0  0  0
 27 28  1  0  0  0  0
 28 20  1  1  0  0  0
 28 29  1  0  0  0  0
 29 11  1  1  0  0  0
 30 22  1  6  0  0  0
 30 31  1  0  0  0  0
 31 24  1  6  0  0  0
M  END
>  <CHROM.1>
60.93728260,-62.99446145,-80.74614162,73.74337054,56.23365388,64.19620271
17.15389423,7.50906682,15.17240606,-1.24190986,0.24723293,1.15695474

>  <Name>
ligand

>  <RI>
0

>  <Rbt.Current_Directory>
/home/itssahil/PROJECTS/Mol_Feturizer/New_Systems/rnas/3DVV

>  <Rbt.Executable>
rbdock ($Id: //depot/dev/client3/rdock/2013.1/src/exe/rbdock.cxx#4 $)

>  <Rbt.Library>
libRbt.so (2013.1, Build901 2013/11/27)

>  <Rbt.Parameter_File>
/export/apps/rDock/src/rDock_2013.1_src/data/scripts/dock_solv.prm

>  <Rbt.Receptor>
prm/pocket_docking_6.prm

>  <SCORE>
-6.64343

>  <SCORE.INTER>
-3.00131

>  <SCORE.INTER.CONST>
1

>  <SCORE.INTER.POLAR>
0

>  <SCORE.INTER.ROT>
6

>  <SCORE.INTER.SOLV>
10.4214

>  <SCORE.INTER.VDW>
-13.0747

>  <SCORE.INTER.norm>
-0.0968164

>  <SCORE.INTRA>
-3.64212

>  <SCORE.INTRA.DIHEDRAL>
-7.5509

>  <SCORE.INTRA.DIHEDRAL.0>
10.8172

>  <SCORE.INTRA.POLAR>
0

>  <SCORE.INTRA.POLAR.0>
0

>  <SCORE.INTRA.REPUL>
0

>  <SCORE.INTRA.REPUL.0>
0

>  <SCORE.INTRA.SOLV>
-3.6567

>  <SCORE.INTRA.SOLV.lig_0>
-80.3833

>  <SCORE.INTRA.VDW>
1.96168

>  <SCORE.INTRA.VDW.0>
-4.63762

>  <SCORE.INTRA.norm>
-0.117488

>  <SCORE.RESTR>
0

>  <SCORE.RESTR.CAVITY>
0

>  <SCORE.RESTR.norm>
0

>  <SCORE.SYSTEM>
0

>  <SCORE.SYSTEM.CONST>
0

>  <SCORE.SYSTEM.DIHEDRAL>
0

>  <SCORE.SYSTEM.SOLV>
0

>  <SCORE.SYSTEM.norm>
0

>  <SCORE.heavy>
31

>  <SCORE.norm>
-0.214304

>  <RMSD>
7.086

$$$$
ligand
 OpenBabel11021811473D
libRbt.so/2013.1/901 2013/11/27
 31 33  0  0  0  0  0  0  0  0999 V2000
   16.5191    9.3611   12.1528 C   0  0  0  0  0  0  0  0  0  0  0  0
   22.6150    6.0659   16.8948 N   0  0  0  0  0  0  0  0  0  0  0  0
   15.5793    9.0283   13.1798 O   0  0  0  0  0  0  0  0  0  0  0  0
   17.8774    9.7021   12.7709 C   0  0  1  0  0  0  0  0  0  0  0  0
   20.0829    2.4956   14.7165 N   0  0  0  0  0  0  0  0  0  0  0  0
   18.4319    8.5424   13.4221 O   0  0  0  0  0  0  0  0  0  0  0  0
   19.7480    8.3045   12.8918 C   0  0  1  0  0  0  0  0  0  0  0  0
   19.9738    0.9764   10.1279 N   0  0  0  0  0  0  0  0  0  0  0  0
   20.0584    6.9028   12.8488 O   0  0  0  0  0  0  0  0  0  0  0  0
   19.9858    6.2550   14.1275 C   0  0  2  0  0  0  0  0  0  0  0  0
   15.7423    5.0546   12.9678 N   0  0  0  0  0  0  0  0  0  0  0  0
   21.4064    7.9250   15.1451 O   0  0  0  0  0  0  0  0  0  0  0  0
   21.3088    6.5286   14.8522 C   0  0  1  0  0  0  0  0  0  0  0  0
   18.4159    4.4634   13.4899 O   0  0  0  0  0  0  0  0  0  0  0  0
   21.3866    5.7338   16.1572 C   0  0  1  0  0  0  0  0  0  0  0  0
   18.9406    4.3692   11.1977 O   0  0  0  0  0  0  0  0  0  0  0  0
   21.3553    4.2393   15.8361 C   0  0  0  0  0  0  0  0  0  0  0  0
   17.4062    1.0643   10.7513 O   0  0  0  0  0  0  0  0  0  0  0  0
   20.0308    3.9015   15.1454 C   0  0  1  0  0  0  0  0  0  0  0  0
   15.1387    2.7398   11.3131 O   0  0  0  0  0  0  0  0  0  0  0  0
   19.7600    4.7625   13.9056 C   0  0  2  0  0  0  0  0  0  0  0  0
   20.9200    9.0972   10.8779 O   0  0  0  0  0  0  0  0  0  0  0  0
   18.0674    4.9496   12.1842 C   0  0  1  0  0  0  0  0  0  0  0  0
   19.7669   11.1338   12.1109 O   0  0  0  0  0  0  0  0  0  0  0  0
   18.8866    2.9339   11.1336 C   0  0  2  0  0  0  0  0  0  0  0  0
   19.8638    2.4424   10.0630 C   0  0  0  0  0  0  0  0  0  0  0  0
   17.4724    2.4928   10.7520 C   0  0  2  0  0  0  0  0  0  0  0  0
   16.4636    3.0455   11.7609 C   0  0  1  0  0  0  0  0  0  0  0  0
   16.6140    4.5637   11.8896 C   0  0  1  0  0  0  0  0  0  0  0  0
   19.6433    8.8184   11.4574 C   0  0  2  0  0  0  0  0  0  0  0  0
   18.8655   10.1128   11.6756 C   0  0  1  0  0  0  0  0  0  0  0  0
  1  3  1  0  0  0  0
  4  1  1  6  0  0  0
  4  6  1  0  0  0  0
  4 31  1  0  0  0  0
  6  7  1  0  0  0  0
  7  9  1  6  0  0  0
  7 30  1  0  0  0  0
  8 26  1  0  0  0  0
 10  9  1  6  0  0  0
 10 13  1  0  0  0  0
 10 21  1  0  0  0  0
 13 12  1  1  0  0  0
 13 15  1  0  0  0  0
 15  2  1  6  0  0  0
 15 17  1  0  0  0  0
 16 25  1  0  0  0  0
 16 23  1  0  0  0  0
 17 19  1  0  0  0  0
 19  5  1  6  0  0  0
 19 21  1  0  0  0  0
 21 14  1  1  0  0  0
 23 14  1  1  0  0  0
 23 29  1  0  0  0  0
 25 26  1  6  0  0  0
 25 27  1  0  0  0  0
 27 18  1  1  0  0  0
 27 28  1  0  0  0  0
 28 20  1  6  0  0  0
 28 29  1  0  0  0  0
 29 11  1  1  0  0  0
 30 22  1  1  0  0  0
 30 31  1  0  0  0  0
 31 24  1  1  0  0  0
M  END
>  <CHROM.1>
64.63716384,-58.12146253,-82.01145392,59.99657197,67.27526471,171.31764388
18.96057094,5.77374405,12.81182073,1.28211802,-0.71058651,0.05398279

>  <Name>
ligand

>  <RI>
0

>  <Rbt.Current_Directory>
/home/itssahil/PROJECTS/Mol_Feturizer/New_Systems/rnas/3DVV

>  <Rbt.Executable>
rbdock ($Id: //depot/dev/client3/rdock/2013.1/src/exe/rbdock.cxx#4 $)

>  <Rbt.Library>
libRbt.so (2013.1, Build901 2013/11/27)

>  <Rbt.Parameter_File>
/export/apps/rDock/src/rDock_2013.1_src/data/scripts/dock_solv.prm

>  <Rbt.Receptor>
prm/pocket_docking_8.prm

>  <SCORE>
-6.51108

>  <SCORE.INTER>
-3.09026

>  <SCORE.INTER.CONST>
1

>  <SCORE.INTER.POLAR>
0

>  <SCORE.INTER.ROT>
6

>  <SCORE.INTER.SOLV>
16.2722

>  <SCORE.INTER.VDW>
-15.0842

>  <SCORE.INTER.norm>
-0.099686

>  <SCORE.INTRA>
-3.42082

>  <SCORE.INTRA.DIHEDRAL>
-7.79226

>  <SCORE.INTRA.DIHEDRAL.0>
10.8172

>  <SCORE.INTRA.POLAR>
0

>  <SCORE.INTRA.POLAR.0>
0

>  <SCORE.INTRA.REPUL>
0

>  <SCORE.INTRA.REPUL.0>
0

>  <SCORE.INTRA.SOLV>
-2.97969

>  <SCORE.INTRA.SOLV.lig_0>
-80.3833

>  <SCORE.INTRA.VDW>
1.96515

>  <SCORE.INTRA.VDW.0>
-4.63762

>  <SCORE.INTRA.norm>
-0.110349

>  <SCORE.RESTR>
0

>  <SCORE.RESTR.CAVITY>
0

>  <SCORE.RESTR.norm>
0

>  <SCORE.SYSTEM>
0

>  <SCORE.SYSTEM.CONST>
0

>  <SCORE.SYSTEM.DIHEDRAL>
0

>  <SCORE.SYSTEM.SOLV>
0

>  <SCORE.SYSTEM.norm>
0

>  <SCORE.heavy>
31

>  <SCORE.norm>
-0.210035

>  <RMSD>
7.086

$$$$
ligand
 OpenBabel11021811473D
libRbt.so/2013.1/901 2013/11/27
 31 33  0  0  0  0  0  0  0  0999 V2000
   19.6230    9.4025    9.8742 C   0  0  0  0  0  0  0  0  0  0  0  0
   21.3908    5.1317   17.1424 N   0  0  0  0  0  0  0  0  0  0  0  0
   20.6744    9.5328   10.8367 O   0  0  0  0  0  0  0  0  0  0  0  0
   18.6127    8.3491   10.3358 C   0  0  1  0  0  0  0  0  0  0  0  0
   20.0463    1.4804   14.1820 N   0  0  0  0  0  0  0  0  0  0  0  0
   19.2820    7.1001   10.5973 O   0  0  0  0  0  0  0  0  0  0  0  0
   18.9653    6.6821   11.9370 C   0  0  1  0  0  0  0  0  0  0  0  0
   20.7717    0.0015    9.4017 N   0  0  0  0  0  0  0  0  0  0  0  0
   20.0592    5.9792   12.5472 O   0  0  0  0  0  0  0  0  0  0  0  0
   19.6894    5.2421   13.7219 C   0  0  2  0  0  0  0  0  0  0  0  0
   16.1300    4.0679   11.5000 N   0  0  0  0  0  0  0  0  0  0  0  0
   20.5427    6.9739   15.1763 O   0  0  0  0  0  0  0  0  0  0  0  0
   20.6992    5.5979   14.8193 C   0  0  1  0  0  0  0  0  0  0  0  0
   18.5969    3.3487   12.5807 O   0  0  0  0  0  0  0  0  0  0  0  0
   20.4814    4.7282   16.0591 C   0  0  1  0  0  0  0  0  0  0  0  0
   19.6332    3.3647   10.4679 O   0  0  0  0  0  0  0  0  0  0  0  0
   20.7204    3.2635   15.6917 C   0  0  0  0  0  0  0  0  0  0  0  0
   18.1663    0.1498    9.4734 O   0  0  0  0  0  0  0  0  0  0  0  0
   19.7067    2.8415   14.6240 C   0  0  1  0  0  0  0  0  0  0  0  0
   15.8700    1.8744    9.6074 O   0  0  0  0  0  0  0  0  0  0  0  0
   19.7145    3.7530   13.3908 C   0  0  2  0  0  0  0  0  0  0  0  0
   18.0253    7.8524   13.8876 O   0  0  0  0  0  0  0  0  0  0  0  0
   18.5700    3.9206   11.2635 C   0  0  1  0  0  0  0  0  0  0  0  0
   16.5877    8.3910   11.7333 O   0  0  0  0  0  0  0  0  0  0  0  0
   19.5620    1.9383   10.3021 C   0  0  2  0  0  0  0  0  0  0  0  0
   20.7478    1.4720    9.4542 C   0  0  0  0  0  0  0  0  0  0  0  0
   18.2638    1.5726    9.5800 C   0  0  2  0  0  0  0  0  0  0  0  0
   17.0629    2.1047   10.3647 C   0  0  1  0  0  0  0  0  0  0  0  0
   17.2150    3.6064   10.6206 C   0  0  1  0  0  0  0  0  0  0  0  0
   18.7701    8.0039   12.6769 C   0  0  2  0  0  0  0  0  0  0  0  0
   17.9589    8.7874   11.6493 C   0  0  1  0  0  0  0  0  0  0  0  0
  1  3  1  0  0  0  0
  4  1  1  1  0  0  0
  4  6  1  0  0  0  0
  4 31  1  0  0  0  0
  6  7  1  0  0  0  0
  7  9  1  1  0  0  0
  7 30  1  0  0  0  0
  8 26  1  0  0  0  0
 10  9  1  6  0  0  0
 10 13  1  0  0  0  0
 10 21  1  0  0  0  0
 13 12  1  1  0  0  0
 13 15  1  0  0  0  0
 15  2  1  1  0  0  0
 15 17  1  0  0  0  0
 16 25  1  0  0  0  0
 16 23  1  0  0  0  0
 17 19  1  0  0  0  0
 19  5  1  6  0  0  0
 19 21  1  0  0  0  0
 21 14  1  6  0  0  0
 23 14  1  1  0  0  0
 23 29  1  0  0  0  0
 25 26  1  6  0  0  0
 25 27  1  0  0  0  0
 27 18  1  1  0  0  0
 27 28  1  0  0  0  0
 28 20  1  6  0  0  0
 28 29  1  0  0  0  0
 29 11  1  1  0  0  0
 30 22  1  1  0  0  0
 30 31  1  0  0  0  0
 31 24  1  6  0  0  0
M  END
>  <CHROM.1>
-55.18430088,-164.40588645,-130.92440707,69.70186408,65.26916594,173.72538736
19.09008872,4.75718036,12.08974343,1.33513346,-1.13605613,0.15173222

>  <Name>
ligand

>  <RI>
0

>  <Rbt.Current_Directory>
/home/itssahil/PROJECTS/Mol_Feturizer/New_Systems/rnas/3DVV

>  <Rbt.Executable>
rbdock ($Id: //depot/dev/client3/rdock/2013.1/src/exe/rbdock.cxx#4 $)

>  <Rbt.Library>
libRbt.so (2013.1, Build901 2013/11/27)

>  <Rbt.Parameter_File>
/export/apps/rDock/src/rDock_2013.1_src/data/scripts/dock_solv.prm

>  <Rbt.Receptor>
prm/blind_docking_100.prm

>  <SCORE>
-2.4543

>  <SCORE.INTER>
-2.51982

>  <SCORE.INTER.CONST>
1

>  <SCORE.INTER.POLAR>
0

>  <SCORE.INTER.ROT>
6

>  <SCORE.INTER.SOLV>
18.4835

>  <SCORE.INTER.VDW>
-15.441

>  <SCORE.INTER.norm>
-0.0812845

>  <SCORE.INTRA>
0.065518

>  <SCORE.INTRA.DIHEDRAL>
-2.02363

>  <SCORE.INTRA.DIHEDRAL.0>
10.8172

>  <SCORE.INTRA.POLAR>
0

>  <SCORE.INTRA.POLAR.0>
0

>  <SCORE.INTRA.REPUL>
0

>  <SCORE.INTRA.REPUL.0>
0

>  <SCORE.INTRA.SOLV>
-1.71535

>  <SCORE.INTRA.SOLV.lig_0>
-80.3833

>  <SCORE.INTRA.VDW>
1.935

>  <SCORE.INTRA.VDW.0>
-4.63762

>  <SCORE.INTRA.norm>
0.00211348

>  <SCORE.RESTR>
0

>  <SCORE.RESTR.CAVITY>
0

>  <SCORE.RESTR.norm>
0

>  <SCORE.SYSTEM>
0

>  <SCORE.SYSTEM.CONST>
0

>  <SCORE.SYSTEM.DIHEDRAL>
0

>  <SCORE.SYSTEM.SOLV>
0

>  <SCORE.SYSTEM.norm>
0

>  <SCORE.heavy>
31

>  <SCORE.norm>
-0.079171

>  <RMSD>
7.095

$$$$
ligand
 OpenBabel11021811473D
libRbt.so/2013.1/901 2013/11/27
 31 33  0  0  0  0  0  0  0  0999 V2000
   19.5598    8.9824    9.5565 C   0  0  0  0  0  0  0  0  0  0  0  0
   22.0830    5.4117   17.3326 N   0  0  0  0  0  0  0  0  0  0  0  0
   19.5636    8.0897    8.4377 O   0  0  0  0  0  0  0  0  0  0  0  0
   18.6107    8.4655   10.6406 C   0  0  1  0  0  0  0  0  0  0  0  0
   20.0425    1.8430   14.6860 N   0  0  0  0  0  0  0  0  0  0  0  0
   19.0180    7.1526   11.0725 O   0  0  0  0  0  0  0  0  0  0  0  0
   19.1868    7.1718   12.5012 C   0  0  1  0  0  0  0  0  0  0  0  0
   20.1806    0.3752    9.8028 N   0  0  0  0  0  0  0  0  0  0  0  0
   20.2381    6.2894   12.9242 O   0  0  0  0  0  0  0  0  0  0  0  0
   19.9625    5.6121   14.1592 C   0  0  2  0  0  0  0  0  0  0  0  0
   16.0177    4.6270   12.4524 N   0  0  0  0  0  0  0  0  0  0  0  0
   21.1498    7.2858   15.4364 O   0  0  0  0  0  0  0  0  0  0  0  0
   21.1355    5.8946   15.1051 C   0  0  1  0  0  0  0  0  0  0  0  0
   18.5659    3.8054   13.2284 O   0  0  0  0  0  0  0  0  0  0  0  0
   21.0068    5.0726   16.3891 C   0  0  1  0  0  0  0  0  0  0  0  0
   19.3376    3.7803   11.0054 O   0  0  0  0  0  0  0  0  0  0  0  0
   21.0647    3.5854   16.0396 C   0  0  0  0  0  0  0  0  0  0  0  0
   17.6294    0.6298   10.2098 O   0  0  0  0  0  0  0  0  0  0  0  0
   19.8859    3.2378   15.1257 C   0  0  1  0  0  0  0  0  0  0  0  0
   15.4396    2.4479   10.6145 O   0  0  0  0  0  0  0  0  0  0  0  0
   19.8119    4.1208   13.8741 C   0  0  2  0  0  0  0  0  0  0  0  0
   19.4230    8.9893   14.1439 O   0  0  0  0  0  0  0  0  0  0  0  0
   18.4028    4.3791   11.9219 C   0  0  1  0  0  0  0  0  0  0  0  0
   17.4010    9.5011   12.5168 O   0  0  0  0  0  0  0  0  0  0  0  0
   19.1880    2.3582   10.8553 C   0  0  2  0  0  0  0  0  0  0  0  0
   20.2418    1.8440    9.8717 C   0  0  0  0  0  0  0  0  0  0  0  0
   17.7978    2.0472   10.2978 C   0  0  2  0  0  0  0  0  0  0  0  0
   16.7240    2.6279   11.2203 C   0  0  1  0  0  0  0  0  0  0  0  0
   16.9679    4.1218   11.4496 C   0  0  1  0  0  0  0  0  0  0  0  0
   19.6229    8.6086   12.7806 C   0  0  2  0  0  0  0  0  0  0  0  0
   18.6700    9.3769   11.8698 C   0  0  1  0  0  0  0  0  0  0  0  0
  1  3  1  0  0  0  0
  4  1  1  6  0  0  0
  4  6  1  0  0  0  0
  4 31  1  0  0  0  0
  6  7  1  0  0  0  0
  7  9  1  6  0  0  0
  7 30  1  0  0  0  0
  8 26  1  0  0  0  0
 10  9  1  6  0  0  0
 10 13  1  0  0  0  0
 10 21  1  0  0  0  0
 13 12  1  1  0  0  0
 13 15  1  0  0  0  0
 15  2  1  1  0  0  0
 15 17  1  0  0  0  0
 16 25  1  0  0  0  0
 16 23  1  0  0  0  0
 17 19  1  0  0  0  0
 19  5  1  6  0  0  0
 19 21  1  0  0  0  0
 21 14  1  1  0  0  0
 23 14  1  1  0  0  0
 23 29  1  0  0  0  0
 25 26  1  6  0  0  0
 25 27  1  0  0  0  0
 27 18  1  1  0  0  0
 27 28  1  0  0  0  0
 28 20  1  6  0  0  0
 28 29  1  0  0  0  0
 29 11  1  1  0  0  0
 30 22  1  1  0  0  0
 30 31  1  0  0  0  0
 31 24  1  1  0  0  0
M  END
>  <CHROM.1>
59.02646128,-142.71795221,-125.60795913,67.43638178,63.81007831,174.83982729
19.14467762,5.11609171,12.46894899,1.04020412,-1.09439265,-0.09438140

>  <Name>
ligand

>  <RI>
0

>  <Rbt.Current_Directory>
/home/itssahil/PROJECTS/Mol_Feturizer/New_Systems/rnas/3DVV

>  <Rbt.Executable>
rbdock ($Id: //depot/dev/client3/rdock/2013.1/src/exe/rbdock.cxx#4 $)

>  <Rbt.Library>
libRbt.so (2013.1, Build901 2013/11/27)

>  <Rbt.Parameter_File>
/export/apps/rDock/src/rDock_2013.1_src/data/scripts/dock_solv.prm

>  <Rbt.Receptor>
prm/blind_docking_80.prm

>  <SCORE>
-1.94736

>  <SCORE.INTER>
-3.40462

>  <SCORE.INTER.CONST>
1

>  <SCORE.INTER.POLAR>
0

>  <SCORE.INTER.ROT>
6

>  <SCORE.INTER.SOLV>
17.2295

>  <SCORE.INTER.VDW>
-15.6129

>  <SCORE.INTER.norm>
-0.109826

>  <SCORE.INTRA>
1.44069

>  <SCORE.INTRA.DIHEDRAL>
1.65353

>  <SCORE.INTRA.DIHEDRAL.0>
10.8172

>  <SCORE.INTRA.POLAR>
0

>  <SCORE.INTRA.POLAR.0>
0

>  <SCORE.INTRA.REPUL>
0

>  <SCORE.INTRA.REPUL.0>
0

>  <SCORE.INTRA.SOLV>
-2.19342

>  <SCORE.INTRA.SOLV.lig_0>
-80.3833

>  <SCORE.INTRA.VDW>
1.71064

>  <SCORE.INTRA.VDW.0>
-4.63762

>  <SCORE.INTRA.norm>
0.0464739

>  <SCORE.RESTR>
0.0165685

>  <SCORE.RESTR.CAVITY>
0.0165685

>  <SCORE.RESTR.norm>
0.000534467

>  <SCORE.SYSTEM>
0

>  <SCORE.SYSTEM.CONST>
0

>  <SCORE.SYSTEM.DIHEDRAL>
0

>  <SCORE.SYSTEM.SOLV>
0

>  <SCORE.SYSTEM.norm>
0

>  <SCORE.heavy>
31

>  <SCORE.norm>
-0.062818

>  <RMSD>
7.102

$$$$
ligand
 OpenBabel11021811473D
libRbt.so/2013.1/901 2013/11/27
 31 33  0  0  0  0  0  0  0  0999 V2000
   23.3852    6.8479   15.5272 C   0  0  0  0  0  0  0  0  0  0  0  0
   18.4365   10.2691   18.3829 N   0  0  0  0  0  0  0  0  0  0  0  0
   23.1843    8.2465   15.2981 O   0  0  0  0  0  0  0  0  0  0  0  0
   22.6724    6.4159   16.8111 C   0  0  1  0  0  0  0  0  0  0  0  0
   17.2072    6.1264   20.6700 N   0  0  0  0  0  0  0  0  0  0  0  0
   21.3127    6.8932   16.8090 O   0  0  0  0  0  0  0  0  0  0  0  0
   20.4336    5.7737   17.0180 C   0  0  1  0  0  0  0  0  0  0  0  0
   17.5334    5.5147   13.7557 N   0  0  0  0  0  0  0  0  0  0  0  0
   19.1902    5.9362   16.3176 O   0  0  0  0  0  0  0  0  0  0  0  0
   18.2130    6.6967   17.0433 C   0  0  2  0  0  0  0  0  0  0  0  0
   14.8184    3.6426   19.2816 N   0  0  0  0  0  0  0  0  0  0  0  0
   18.9676    8.7672   16.0503 O   0  0  0  0  0  0  0  0  0  0  0  0
   18.8129    8.0844   17.2975 C   0  0  1  0  0  0  0  0  0  0  0  0
   17.0847    4.8001   18.1439 O   0  0  0  0  0  0  0  0  0  0  0  0
   17.9052    8.9081   18.2132 C   0  0  1  0  0  0  0  0  0  0  0  0
   15.9718    5.2068   16.1106 O   0  0  0  0  0  0  0  0  0  0  0  0
   17.7998    8.2130   19.5708 C   0  0  0  0  0  0  0  0  0  0  0  0
   16.1732    1.7015   15.0388 O   0  0  0  0  0  0  0  0  0  0  0  0
   17.1653    6.8321   19.3802 C   0  0  1  0  0  0  0  0  0  0  0  0
   14.3860    1.5702   17.2868 O   0  0  0  0  0  0  0  0  0  0  0  0
   17.8987    5.9685   18.3468 C   0  0  2  0  0  0  0  0  0  0  0  0
   20.7413    3.3375   16.8499 O   0  0  0  0  0  0  0  0  0  0  0  0
   15.8099    5.0533   17.5328 C   0  0  1  0  0  0  0  0  0  0  0  0
   22.7307    4.4050   18.2284 O   0  0  0  0  0  0  0  0  0  0  0  0
   16.5256    4.0548   15.4522 C   0  0  2  0  0  0  0  0  0  0  0  0
   16.6591    4.3480   13.9560 C   0  0  0  0  0  0  0  0  0  0  0  0
   15.5890    2.8600   15.6402 C   0  0  2  0  0  0  0  0  0  0  0  0
   15.3689    2.5994   17.1318 C   0  0  1  0  0  0  0  0  0  0  0  0
   14.8809    3.8715   17.8299 C   0  0  1  0  0  0  0  0  0  0  0  0
   21.1944    4.6109   16.3843 C   0  0  2  0  0  0  0  0  0  0  0  0
   22.6077    4.8879   16.8882 C   0  0  1  0  0  0  0  0  0  0  0  0
  1  3  1  0  0  0  0
  4  1  1  6  0  0  0
  4  6  1  0  0  0  0
  4 31  1  0  0  0  0
  6  7  1  0  0  0  0
  7  9  1  6  0  0  0
  7 30  1  0  0  0  0
  8 26  1  0  0  0  0
 10  9  1  6  0  0  0
 10 13  1  0  0  0  0
 10 21  1  0  0  0  0
 13 12  1  6  0  0  0
 13 15  1  0  0  0  0
 15  2  1  1  0  0  0
 15 17  1  0  0  0  0
 16 25  1  0  0  0  0
 16 23  1  0  0  0  0
 17 19  1  0  0  0  0
 19  5  1  1  0  0  0
 19 21  1  0  0  0  0
 21 14  1  6  0  0  0
 23 14  1  1  0  0  0
 23 29  1  0  0  0  0
 25 26  1  6  0  0  0
 25 27  1  0  0  0  0
 27 18  1  1  0  0  0
 27 28  1  0  0  0  0
 28 20  1  6  0  0  0
 28 29  1  0  0  0  0
 29 11  1  1  0  0  0
 30 22  1  1  0  0  0
 30 31  1  0  0  0  0
 31 24  1  1  0  0  0
M  END
>  <CHROM.1>
49.26055203,-85.15254990,60.01466323,79.67202561,-59.49585030,59.28047538
18.44003585,5.54408502,17.01542658,-0.43906252,-0.30994577,-2.62440036

>  <Name>
ligand

>  <RI>
0

>  <Rbt.Current_Directory>
/home/itssahil/PROJECTS/Mol_Feturizer/New_Systems/rnas/3DVV

>  <Rbt.Executable>
rbdock ($Id: //depot/dev/client3/rdock/2013.1/src/exe/rbdock.cxx#4 $)

>  <Rbt.Library>
libRbt.so (2013.1, Build901 2013/11/27)

>  <Rbt.Parameter_File>
/export/apps/rDock/src/rDock_2013.1_src/data/scripts/dock_solv.prm

>  <Rbt.Receptor>
prm/pocket_docking_4.prm

>  <SCORE>
-6.85268

>  <SCORE.INTER>
-6.57993

>  <SCORE.INTER.CONST>
1

>  <SCORE.INTER.POLAR>
0

>  <SCORE.INTER.ROT>
6

>  <SCORE.INTER.SOLV>
19.1379

>  <SCORE.INTER.VDW>
-18.3659

>  <SCORE.INTER.norm>
-0.212256

>  <SCORE.INTRA>
-0.272747

>  <SCORE.INTRA.DIHEDRAL>
-5.82051

>  <SCORE.INTRA.DIHEDRAL.0>
10.8172

>  <SCORE.INTRA.POLAR>
0

>  <SCORE.INTRA.POLAR.0>
0

>  <SCORE.INTRA.REPUL>
0

>  <SCORE.INTRA.REPUL.0>
0

>  <SCORE.INTRA.SOLV>
-1.12883

>  <SCORE.INTRA.SOLV.lig_0>
-80.3833

>  <SCORE.INTRA.VDW>
3.20192

>  <SCORE.INTRA.VDW.0>
-4.63762

>  <SCORE.INTRA.norm>
-0.00879828

>  <SCORE.RESTR>
0

>  <SCORE.RESTR.CAVITY>
0

>  <SCORE.RESTR.norm>
0

>  <SCORE.SYSTEM>
0

>  <SCORE.SYSTEM.CONST>
0

>  <SCORE.SYSTEM.DIHEDRAL>
0

>  <SCORE.SYSTEM.SOLV>
0

>  <SCORE.SYSTEM.norm>
0

>  <SCORE.heavy>
31

>  <SCORE.norm>
-0.221054

>  <RMSD>
7.107

$$$$
ligand
 OpenBabel11021811473D
libRbt.so/2013.1/901 2013/11/27
 31 33  0  0  0  0  0  0  0  0999 V2000
   19.5536    8.8592    9.5994 C   0  0  0  0  0  0  0  0  0  0  0  0
   21.8284    5.0779   17.3981 N   0  0  0  0  0  0  0  0  0  0  0  0
   19.5828    7.9452    8.4982 O   0  0  0  0  0  0  0  0  0  0  0  0
   18.6107    8.3424   10.6890 C   0  0  1  0  0  0  0  0  0  0  0  0
   20.2005    1.5669   14.4104 N   0  0  0  0  0  0  0  0  0  0  0  0
   19.0053    7.0191   11.1006 O   0  0  0  0  0  0  0  0  0  0  0  0
   19.1915    7.0192   12.5272 C   0  0  1  0  0  0  0  0  0  0  0  0
   20.8075    1.1272    9.8308 N   0  0  0  0  0  0  0  0  0  0  0  0
   20.2358    6.1178   12.9271 O   0  0  0  0  0  0  0  0  0  0  0  0
   19.9200    5.3502   14.0980 C   0  0  2  0  0  0  0  0  0  0  0  0
   16.4419    5.0768   12.4776 N   0  0  0  0  0  0  0  0  0  0  0  0
   20.9104    7.0082   15.5515 O   0  0  0  0  0  0  0  0  0  0  0  0
   21.0059    5.6418   15.1402 C   0  0  1  0  0  0  0  0  0  0  0  0
   18.7060    3.5260   12.9668 O   0  0  0  0  0  0  0  0  0  0  0  0
   20.8422    4.7355   16.3620 C   0  0  1  0  0  0  0  0  0  0  0  0
   19.2167    3.3796   10.6742 O   0  0  0  0  0  0  0  0  0  0  0  0
   21.0170    3.2788   15.9321 C   0  0  0  0  0  0  0  0  0  0  0  0
   16.6003    0.8891   10.0195 O   0  0  0  0  0  0  0  0  0  0  0  0
   19.9271    2.9201   14.9176 C   0  0  1  0  0  0  0  0  0  0  0  0
   15.0811    3.2385   10.6805 O   0  0  0  0  0  0  0  0  0  0  0  0
   19.8830    3.8732   13.7171 C   0  0  2  0  0  0  0  0  0  0  0  0
   19.4723    8.8140   14.1879 O   0  0  0  0  0  0  0  0  0  0  0  0
   18.5894    4.1798   11.6933 C   0  0  1  0  0  0  0  0  0  0  0  0
   17.4380    9.3721   12.5917 O   0  0  0  0  0  0  0  0  0  0  0  0
   18.6478    2.0681   10.5205 C   0  0  2  0  0  0  0  0  0  0  0  0
   19.4063    1.3177    9.4232 C   0  0  0  0  0  0  0  0  0  0  0  0
   17.1796    2.1935   10.1095 C   0  0  2  0  0  0  0  0  0  0  0  0
   16.4154    3.0159   11.1490 C   0  0  1  0  0  0  0  0  0  0  0  0
   17.1025    4.3656   11.3724 C   0  0  1  0  0  0  0  0  0  0  0  0
   19.6505    8.4466   12.8180 C   0  0  2  0  0  0  0  0  0  0  0  0
   18.6972    9.2383   11.9279 C   0  0  1  0  0  0  0  0  0  0  0  0
  1  3  1  0  0  0  0
  4  1  1  6  0  0  0
  4  6  1  0  0  0  0
  4 31  1  0  0  0  0
  6  7  1  0  0  0  0
  7  9  1  6  0  0  0
  7 30  1  0  0  0  0
  8 26  1  0  0  0  0
 10  9  1  6  0  0  0
 10 13  1  0  0  0  0
 10 21  1  0  0  0  0
 13 12  1  1  0  0  0
 13 15  1  0  0  0  0
 15  2  1  1  0  0  0
 15 17  1  0  0  0  0
 16 25  1  0  0  0  0
 16 23  1  0  0  0  0
 17 19  1  0  0  0  0
 19  5  1  6  0  0  0
 19 21  1  0  0  0  0
 21 14  1  1  0  0  0
 23 14  1  1  0  0  0
 23 29  1  0  0  0  0
 25 26  1  6  0  0  0
 25 27  1  0  0  0  0
 27 18  1  1  0  0  0
 27 28  1  0  0  0  0
 28 20  1  6  0  0  0
 28 29  1  0  0  0  0
 29 11  1  1  0  0  0
 30 22  1  1  0  0  0
 30 31  1  0  0  0  0
 31 24  1  1  0  0  0
M  END
>  <CHROM.1>
56.13920132,-137.94247438,-122.16227529,90.31559902,63.19030334,63.37798862
19.05282502,5.03002019,12.39942517,0.90309230,-1.07226961,-0.08228572

>  <Name>
ligand

>  <RI>
0

>  <Rbt.Current_Directory>
/home/itssahil/PROJECTS/Mol_Feturizer/New_Systems/rnas/3DVV

>  <Rbt.Executable>
rbdock ($Id: //depot/dev/client3/rdock/2013.1/src/exe/rbdock.cxx#4 $)

>  <Rbt.Library>
libRbt.so (2013.1, Build901 2013/11/27)

>  <Rbt.Parameter_File>
/export/apps/rDock/src/rDock_2013.1_src/data/scripts/dock_solv.prm

>  <Rbt.Receptor>
prm/blind_docking_80.prm

>  <SCORE>
1.37297

>  <SCORE.INTER>
-1.67128

>  <SCORE.INTER.CONST>
1

>  <SCORE.INTER.POLAR>
0

>  <SCORE.INTER.ROT>
6

>  <SCORE.INTER.SOLV>
20.6491

>  <SCORE.INTER.VDW>
-15.5972

>  <SCORE.INTER.norm>
-0.0539122

>  <SCORE.INTRA>
3.02162

>  <SCORE.INTRA.DIHEDRAL>
5.89851

>  <SCORE.INTRA.DIHEDRAL.0>
10.8172

>  <SCORE.INTRA.POLAR>
0

>  <SCORE.INTRA.POLAR.0>
0

>  <SCORE.INTRA.REPUL>
0

>  <SCORE.INTRA.REPUL.0>
0

>  <SCORE.INTRA.SOLV>
-2.05393

>  <SCORE.INTRA.SOLV.lig_0>
-80.3833

>  <SCORE.INTRA.VDW>
1.09933

>  <SCORE.INTRA.VDW.0>
-4.63762

>  <SCORE.INTRA.norm>
0.0974716

>  <SCORE.RESTR>
0.0226236

>  <SCORE.RESTR.CAVITY>
0.0226236

>  <SCORE.RESTR.norm>
0.000729793

>  <SCORE.SYSTEM>
0

>  <SCORE.SYSTEM.CONST>
0

>  <SCORE.SYSTEM.DIHEDRAL>
0

>  <SCORE.SYSTEM.SOLV>
0

>  <SCORE.SYSTEM.norm>
0

>  <SCORE.heavy>
31

>  <SCORE.norm>
0.0442892

>  <RMSD>
7.110

$$$$
ligand
 OpenBabel11021811473D
libRbt.so/2013.1/901 2013/11/27
 31 33  0  0  0  0  0  0  0  0999 V2000
   21.6198    5.8244   16.4136 C   0  0  0  0  0  0  0  0  0  0  0  0
   16.5476    7.7119   12.7799 N   0  0  0  0  0  0  0  0  0  0  0  0
   21.3139    7.2221   16.4529 O   0  0  0  0  0  0  0  0  0  0  0  0
   20.3571    5.0165   16.1039 C   0  0  1  0  0  0  0  0  0  0  0  0
   15.5477    3.1156   11.4468 N   0  0  0  0  0  0  0  0  0  0  0  0
   19.8730    5.3375   14.7852 O   0  0  0  0  0  0  0  0  0  0  0  0
   19.7463    4.1173   14.0337 C   0  0  1  0  0  0  0  0  0  0  0  0
   18.1690   -2.0085   12.5311 N   0  0  0  0  0  0  0  0  0  0  0  0
   20.0241    4.3205   12.6392 O   0  0  0  0  0  0  0  0  0  0  0  0
   18.9108    4.8407   11.8977 C   0  0  2  0  0  0  0  0  0  0  0  0
   20.5463    2.3467    9.1550 N   0  0  0  0  0  0  0  0  0  0  0  0
   19.2997    7.0778   12.7261 O   0  0  0  0  0  0  0  0  0  0  0  0
   18.3405    6.0174   12.6981 C   0  0  1  0  0  0  0  0  0  0  0  0
   18.2914    2.7516   10.7430 O   0  0  0  0  0  0  0  0  0  0  0  0
   17.0447    6.5271   12.0640 C   0  0  1  0  0  0  0  0  0  0  0  0
   18.6677    0.7659   11.9487 O   0  0  0  0  0  0  0  0  0  0  0  0
   15.9973    5.4140   12.1010 C   0  0  0  0  0  0  0  0  0  0  0  0
   17.4305   -1.3801    9.2394 O   0  0  0  0  0  0  0  0  0  0  0  0
   16.4997    4.2239   11.2782 C   0  0  1  0  0  0  0  0  0  0  0  0
   19.8372   -0.2772    8.1189 O   0  0  0  0  0  0  0  0  0  0  0  0
   17.8828    3.7278   11.7172 C   0  0  2  0  0  0  0  0  0  0  0  0
   20.6336    1.8439   14.3530 O   0  0  0  0  0  0  0  0  0  0  0  0
   19.2903    1.8265   11.2003 C   0  0  1  0  0  0  0  0  0  0  0  0
   19.5957    2.7335   16.6177 O   0  0  0  0  0  0  0  0  0  0  0  0
   17.7064    0.0018   11.2008 C   0  0  2  0  0  0  0  0  0  0  0  0
   17.1105   -1.0786   12.1063 C   0  0  0  0  0  0  0  0  0  0  0  0
   18.4007   -0.6733   10.0166 C   0  0  2  0  0  0  0  0  0  0  0  0
   19.0804    0.3808    9.1404 C   0  0  1  0  0  0  0  0  0  0  0  0
   20.0188    1.2502    9.9815 C   0  0  1  0  0  0  0  0  0  0  0  0
   20.8448    3.2324   14.6192 C   0  0  2  0  0  0  0  0  0  0  0  0
   20.6765    3.5188   16.1084 C   0  0  1  0  0  0  0  0  0  0  0  0
  1  3  1  0  0  0  0
  4  1  1  6  0  0  0
  4  6  1  0  0  0  0
  4 31  1  0  0  0  0
  6  7  1  0  0  0  0
  7  9  1  6  0  0  0
  7 30  1  0  0  0  0
  8 26  1  0  0  0  0
 10  9  1  1  0  0  0
 10 13  1  0  0  0  0
 10 21  1  0  0  0  0
 13 12  1  6  0  0  0
 13 15  1  0  0  0  0
 15  2  1  1  0  0  0
 15 17  1  0  0  0  0
 16 25  1  0  0  0  0
 16 23  1  0  0  0  0
 17 19  1  0  0  0  0
 19  5  1  1  0  0  0
 19 21  1  0  0  0  0
 21 14  1  6  0  0  0
 23 14  1  6  0  0  0
 23 29  1  0  0  0  0
 25 26  1  1  0  0  0
 25 27  1  0  0  0  0
 27 18  1  6  0  0  0
 27 28  1  0  0  0  0
 28 20  1  6  0  0  0
 28 29  1  0  0  0  0
 29 11  1  6  0  0  0
 30 22  1  1  0  0  0
 30 31  1  0  0  0  0
 31 24  1  6  0  0  0
M  END
>  <CHROM.1>
64.23435549,-82.00303817,47.55332999,82.11750911,76.39358973,-62.86992182
18.90752583,3.08413027,12.47782619,-1.26196426,0.92886489,-2.71381498

>  <Name>
ligand

>  <RI>
0

>  <Rbt.Current_Directory>
/home/itssahil/PROJECTS/Mol_Feturizer/New_Systems/rnas/3DVV

>  <Rbt.Executable>
rbdock ($Id: //depot/dev/client3/rdock/2013.1/src/exe/rbdock.cxx#4 $)

>  <Rbt.Library>
libRbt.so (2013.1, Build901 2013/11/27)

>  <Rbt.Parameter_File>
/export/apps/rDock/src/rDock_2013.1_src/data/scripts/dock_solv.prm

>  <Rbt.Receptor>
prm/blind_docking_40.prm

>  <SCORE>
2.24797

>  <SCORE.INTER>
1.17121

>  <SCORE.INTER.CONST>
1

>  <SCORE.INTER.POLAR>
0

>  <SCORE.INTER.ROT>
6

>  <SCORE.INTER.SOLV>
17.7092

>  <SCORE.INTER.VDW>
-12.7223

>  <SCORE.INTER.norm>
0.037781

>  <SCORE.INTRA>
1.06858

>  <SCORE.INTRA.DIHEDRAL>
-4.29847

>  <SCORE.INTRA.DIHEDRAL.0>
10.8172

>  <SCORE.INTRA.POLAR>
0

>  <SCORE.INTRA.POLAR.0>
0

>  <SCORE.INTRA.REPUL>
0.0646978

>  <SCORE.INTRA.REPUL.0>
0

>  <SCORE.INTRA.SOLV>
-1.49226

>  <SCORE.INTRA.SOLV.lig_0>
-80.3833

>  <SCORE.INTRA.VDW>
3.64045

>  <SCORE.INTRA.VDW.0>
-4.63762

>  <SCORE.INTRA.norm>
0.0344703

>  <SCORE.RESTR>
0.00818233

>  <SCORE.RESTR.CAVITY>
0.00818233

>  <SCORE.RESTR.norm>
0.000263946

>  <SCORE.SYSTEM>
0

>  <SCORE.SYSTEM.CONST>
0

>  <SCORE.SYSTEM.DIHEDRAL>
0

>  <SCORE.SYSTEM.SOLV>
0

>  <SCORE.SYSTEM.norm>
0

>  <SCORE.heavy>
31

>  <SCORE.norm>
0.0725152

>  <RMSD>
7.111

$$$$
ligand
 OpenBabel11021811473D
libRbt.so/2013.1/901 2013/11/27
 31 33  0  0  0  0  0  0  0  0999 V2000
   18.4282    9.0947   17.1500 C   0  0  0  0  0  0  0  0  0  0  0  0
   15.4411    4.0513   10.4020 N   0  0  0  0  0  0  0  0  0  0  0  0
   19.1578    8.5751   16.0335 O   0  0  0  0  0  0  0  0  0  0  0  0
   17.1475    8.2846   17.3664 C   0  0  1  0  0  0  0  0  0  0  0  0
   11.8899    4.3762   13.7467 N   0  0  0  0  0  0  0  0  0  0  0  0
   16.3353    8.3121   16.1765 O   0  0  0  0  0  0  0  0  0  0  0  0
   16.0496    6.9575   15.7851 C   0  0  1  0  0  0  0  0  0  0  0  0
   12.9151    2.8029   19.3740 N   0  0  0  0  0  0  0  0  0  0  0  0
   15.9573    6.8246   14.3580 O   0  0  0  0  0  0  0  0  0  0  0  0
   15.5128    5.5303   13.9254 C   0  0  2  0  0  0  0  0  0  0  0  0
   12.7802    7.6959   15.1786 N   0  0  0  0  0  0  0  0  0  0  0  0
   17.1481    5.4735   12.1462 O   0  0  0  0  0  0  0  0  0  0  0  0
   15.7429    5.4523   12.4116 C   0  0  1  0  0  0  0  0  0  0  0  0
   13.8290    5.1642   15.6894 O   0  0  0  0  0  0  0  0  0  0  0  0
   15.1412    4.1682   11.8372 C   0  0  1  0  0  0  0  0  0  0  0  0
   12.2410    4.7427   17.3742 O   0  0  0  0  0  0  0  0  0  0  0  0
   13.6284    4.1816   12.0577 C   0  0  0  0  0  0  0  0  0  0  0  0
   13.9406    6.8822   19.8258 O   0  0  0  0  0  0  0  0  0  0  0  0
   13.3403    4.2170   13.5615 C   0  0  1  0  0  0  0  0  0  0  0  0
   13.0210    8.7764   17.8685 O   0  0  0  0  0  0  0  0  0  0  0  0
   14.0373    5.3773   14.2823 C   0  0  2  0  0  0  0  0  0  0  0  0
   17.0421    4.7868   16.3859 O   0  0  0  0  0  0  0  0  0  0  0  0
   12.5019    5.4587   16.1529 C   0  0  1  0  0  0  0  0  0  0  0  0
   16.5963    6.2104   18.5705 O   0  0  0  0  0  0  0  0  0  0  0  0
   13.1373    5.0664   18.4508 C   0  0  2  0  0  0  0  0  0  0  0  0
   12.7655    4.2345   19.6804 C   0  0  0  0  0  0  0  0  0  0  0  0
   13.0028    6.5500   18.7985 C   0  0  2  0  0  0  0  0  0  0  0  0
   13.2851    7.4036   17.5604 C   0  0  1  0  0  0  0  0  0  0  0  0
   12.3917    6.9676   16.3961 C   0  0  1  0  0  0  0  0  0  0  0  0
   17.2816    6.1906   16.2611 C   0  0  2  0  0  0  0  0  0  0  0  0
   17.4925    6.8173   17.6361 C   0  0  1  0  0  0  0  0  0  0  0  0
  1  3  1  0  0  0  0
  4  1  1  6  0  0  0
  4  6  1  0  0  0  0
  4 31  1  0  0  0  0
  6  7  1  0  0  0  0
  7  9  1  6  0  0  0
  7 30  1  0  0  0  0
  8 26  1  0  0  0  0
 10  9  1  6  0  0  0
 10 13  1  0  0  0  0
 10 21  1  0  0  0  0
 13 12  1  1  0  0  0
 13 15  1  0  0  0  0
 15  2  1  6  0  0  0
 15 17  1  0  0  0  0
 16 25  1  0  0  0  0
 16 23  1  0  0  0  0
 17 19  1  0  0  0  0
 19  5  1  6  0  0  0
 19 21  1  0  0  0  0
 21 14  1  1  0  0  0
 23 14  1  1  0  0  0
 23 29  1  0  0  0  0
 25 26  1  1  0  0  0
 25 27  1  0  0  0  0
 27 18  1  1  0  0  0
 27 28  1  0  0  0  0
 28 20  1  1  0  0  0
 28 29  1  0  0  0  0
 29 11  1  6  0  0  0
 30 22  1  1  0  0  0
 30 31  1  0  0  0  0
 31 24  1  1  0  0  0
M  END
>  <CHROM.1>
-57.86682465,-172.77041600,-168.52408561,157.26866220,159.96420100,61.69231747
14.84760010,6.04493583,15.91498257,-1.76709742,-0.50375927,-1.90330773

>  <Name>
ligand

>  <RI>
0

>  <Rbt.Current_Directory>
/home/itssahil/PROJECTS/Mol_Feturizer/New_Systems/rnas/3DVV

>  <Rbt.Executable>
rbdock ($Id: //depot/dev/client3/rdock/2013.1/src/exe/rbdock.cxx#4 $)

>  <Rbt.Library>
libRbt.so (2013.1, Build901 2013/11/27)

>  <Rbt.Parameter_File>
/export/apps/rDock/src/rDock_2013.1_src/data/scripts/dock_solv.prm

>  <Rbt.Receptor>
prm/pocket_docking_7.prm

>  <SCORE>
-0.813078

>  <SCORE.INTER>
-0.191386

>  <SCORE.INTER.CONST>
1

>  <SCORE.INTER.POLAR>
0

>  <SCORE.INTER.ROT>
6

>  <SCORE.INTER.SOLV>
13.281

>  <SCORE.INTER.VDW>
-12.1546

>  <SCORE.INTER.norm>
-0.00617375

>  <SCORE.INTRA>
-0.621692

>  <SCORE.INTRA.DIHEDRAL>
-5.62084

>  <SCORE.INTRA.DIHEDRAL.0>
10.8172

>  <SCORE.INTRA.POLAR>
0

>  <SCORE.INTRA.POLAR.0>
0

>  <SCORE.INTRA.REPUL>
0

>  <SCORE.INTRA.REPUL.0>
0

>  <SCORE.INTRA.SOLV>
2.22128

>  <SCORE.INTRA.SOLV.lig_0>
-80.3833

>  <SCORE.INTRA.VDW>
1.07809

>  <SCORE.INTRA.VDW.0>
-4.63762

>  <SCORE.INTRA.norm>
-0.0200546

>  <SCORE.RESTR>
0

>  <SCORE.RESTR.CAVITY>
0

>  <SCORE.RESTR.norm>
0

>  <SCORE.SYSTEM>
0

>  <SCORE.SYSTEM.CONST>
0

>  <SCORE.SYSTEM.DIHEDRAL>
0

>  <SCORE.SYSTEM.SOLV>
0

>  <SCORE.SYSTEM.norm>
0

>  <SCORE.heavy>
31

>  <SCORE.norm>
-0.0262283

>  <RMSD>
7.117

$$$$
ligand
 OpenBabel11021811473D
libRbt.so/2013.1/901 2013/11/27
 31 33  0  0  0  0  0  0  0  0999 V2000
   20.0089    9.1049    9.1422 C   0  0  0  0  0  0  0  0  0  0  0  0
   22.5117    6.2619   17.0945 N   0  0  0  0  0  0  0  0  0  0  0  0
   21.0816    9.5402    9.9841 O   0  0  0  0  0  0  0  0  0  0  0  0
   19.0083    8.2743    9.9497 C   0  0  1  0  0  0  0  0  0  0  0  0
   19.6901    2.6883   15.3136 N   0  0  0  0  0  0  0  0  0  0  0  0
   19.6635    7.1251   10.5210 O   0  0  0  0  0  0  0  0  0  0  0  0
   19.4323    7.1244   11.9410 C   0  0  1  0  0  0  0  0  0  0  0  0
   20.4581    0.6047   12.8358 N   0  0  0  0  0  0  0  0  0  0  0  0
   20.5490    6.5792   12.6612 O   0  0  0  0  0  0  0  0  0  0  0  0
   20.2443    6.2244   14.0181 C   0  0  2  0  0  0  0  0  0  0  0  0
   16.3389    5.5277   12.0358 N   0  0  0  0  0  0  0  0  0  0  0  0
   21.7963    7.8643   14.8812 O   0  0  0  0  0  0  0  0  0  0  0  0
   21.5119    6.4631   14.8468 C   0  0  1  0  0  0  0  0  0  0  0  0
   18.4875    4.5648   13.5281 O   0  0  0  0  0  0  0  0  0  0  0  0
   21.3292    5.9512   16.2769 C   0  0  1  0  0  0  0  0  0  0  0  0
   19.0279    2.9624   11.8915 O   0  0  0  0  0  0  0  0  0  0  0  0
   21.0975    4.4404   16.2424 C   0  0  0  0  0  0  0  0  0  0  0  0
   16.2660    0.7361   12.8357 O   0  0  0  0  0  0  0  0  0  0  0  0
   19.8148    4.1466   15.4587 C   0  0  1  0  0  0  0  0  0  0  0  0
   14.8925    3.0195   11.7567 O   0  0  0  0  0  0  0  0  0  0  0  0
   19.8117    4.7618   14.0540 C   0  0  2  0  0  0  0  0  0  0  0  0
   18.6618    8.8463   13.5219 O   0  0  0  0  0  0  0  0  0  0  0  0
   18.4365    4.2537   12.1269 C   0  0  1  0  0  0  0  0  0  0  0  0
   17.0889    8.8054   11.3953 O   0  0  0  0  0  0  0  0  0  0  0  0
   18.3771    1.8811   12.5802 C   0  0  2  0  0  0  0  0  0  0  0  0
   19.1041    0.5728   12.2602 C   0  0  0  0  0  0  0  0  0  0  0  0
   16.9279    1.7708   12.1032 C   0  0  2  0  0  0  0  0  0  0  0  0
   16.2008    3.0974   12.3324 C   0  0  1  0  0  0  0  0  0  0  0  0
   16.9709    4.2482   11.6794 C   0  0  1  0  0  0  0  0  0  0  0  0
   19.3225    8.6103   12.2764 C   0  0  2  0  0  0  0  0  0  0  0  0
   18.4601    9.1002   11.1170 C   0  0  1  0  0  0  0  0  0  0  0  0
  1  3  1  0  0  0  0
  4  1  1  1  0  0  0
  4  6  1  0  0  0  0
  4 31  1  0  0  0  0
  6  7  1  0  0  0  0
  7  9  1  1  0  0  0
  7 30  1  0  0  0  0
  8 26  1  0  0  0  0
 10  9  1  6  0  0  0
 10 13  1  0  0  0  0
 10 21  1  0  0  0  0
 13 12  1  1  0  0  0
 13 15  1  0  0  0  0
 15  2  1  1  0  0  0
 15 17  1  0  0  0  0
 16 25  1  0  0  0  0
 16 23  1  0  0  0  0
 17 19  1  0  0  0  0
 19  5  1  6  0  0  0
 19 21  1  0  0  0  0
 21 14  1  1  0  0  0
 23 14  1  1  0  0  0
 23 29  1  0  0  0  0
 25 26  1  6  0  0  0
 25 27  1  0  0  0  0
 27 18  1  1  0  0  0
 27 28  1  0  0  0  0
 28 20  1  6  0  0  0
 28 29  1  0  0  0  0
 29 11  1  1  0  0  0
 30 22  1  1  0  0  0
 30 31  1  0  0  0  0
 31 24  1  1  0  0  0
M  END
>  <CHROM.1>
-59.28159295,-164.23286446,-147.26309661,66.70282010,92.32413112,66.42749318
19.10287643,5.35505258,12.83294332,1.13680477,-0.79392741,-0.47183567

>  <Name>
ligand

>  <RI>
0

>  <Rbt.Current_Directory>
/home/itssahil/PROJECTS/Mol_Feturizer/New_Systems/rnas/3DVV

>  <Rbt.Executable>
rbdock ($Id: //depot/dev/client3/rdock/2013.1/src/exe/rbdock.cxx#4 $)

>  <Rbt.Library>
libRbt.so (2013.1, Build901 2013/11/27)

>  <Rbt.Parameter_File>
/export/apps/rDock/src/rDock_2013.1_src/data/scripts/dock_solv.prm

>  <Rbt.Receptor>
prm/blind_docking_100.prm

>  <SCORE>
-1.06831

>  <SCORE.INTER>
-1.52507

>  <SCORE.INTER.CONST>
1

>  <SCORE.INTER.POLAR>
0

>  <SCORE.INTER.ROT>
6

>  <SCORE.INTER.SOLV>
19.7328

>  <SCORE.INTER.VDW>
-15.1943

>  <SCORE.INTER.norm>
-0.0491957

>  <SCORE.INTRA>
0.455456

>  <SCORE.INTRA.DIHEDRAL>
-1.02543

>  <SCORE.INTRA.DIHEDRAL.0>
10.8172

>  <SCORE.INTRA.POLAR>
0

>  <SCORE.INTRA.POLAR.0>
0

>  <SCORE.INTRA.REPUL>
0

>  <SCORE.INTRA.REPUL.0>
0

>  <SCORE.INTRA.SOLV>
1.49589

>  <SCORE.INTRA.SOLV.lig_0>
-80.3833

>  <SCORE.INTRA.VDW>
0.220229

>  <SCORE.INTRA.VDW.0>
-4.63762

>  <SCORE.INTRA.norm>
0.0146921

>  <SCORE.RESTR>
0.00130206

>  <SCORE.RESTR.CAVITY>
0.00130206

>  <SCORE.RESTR.norm>
4.20019e-05

>  <SCORE.SYSTEM>
0

>  <SCORE.SYSTEM.CONST>
0

>  <SCORE.SYSTEM.DIHEDRAL>
0

>  <SCORE.SYSTEM.SOLV>
0

>  <SCORE.SYSTEM.norm>
0

>  <SCORE.heavy>
31

>  <SCORE.norm>
-0.0344616

>  <RMSD>
7.123

$$$$
ligand
 OpenBabel11021811473D
libRbt.so/2013.1/901 2013/11/27
 31 33  0  0  0  0  0  0  0  0999 V2000
   21.3324    7.4066   14.4640 C   0  0  0  0  0  0  0  0  0  0  0  0
   13.8653    4.2986   12.0481 N   0  0  0  0  0  0  0  0  0  0  0  0
   21.4532    6.3381   15.4087 O   0  0  0  0  0  0  0  0  0  0  0  0
   20.5185    6.9489   13.2510 C   0  0  1  0  0  0  0  0  0  0  0  0
   13.3551    6.4074   16.4295 N   0  0  0  0  0  0  0  0  0  0  0  0
   19.1911    6.5650   13.6598 O   0  0  0  0  0  0  0  0  0  0  0  0
   18.2382    7.3104   12.8813 C   0  0  1  0  0  0  0  0  0  0  0  0
   14.2529   11.0499   16.4277 N   0  0  0  0  0  0  0  0  0  0  0  0
   17.0515    7.6060   13.6345 O   0  0  0  0  0  0  0  0  0  0  0  0
   16.3218    6.4401   14.0447 C   0  0  2  0  0  0  0  0  0  0  0  0
   18.6204    6.4364   17.6024 N   0  0  0  0  0  0  0  0  0  0  0  0
   16.4107    5.5016   11.8190 O   0  0  0  0  0  0  0  0  0  0  0  0
   15.5132    5.9597   12.8339 C   0  0  1  0  0  0  0  0  0  0  0  0
   16.1492    6.9973   16.4407 O   0  0  0  0  0  0  0  0  0  0  0  0
   14.5736    4.8183   13.2278 C   0  0  1  0  0  0  0  0  0  0  0  0
   16.5705    9.3126   16.4370 O   0  0  0  0  0  0  0  0  0  0  0  0
   13.5685    5.3304   14.2598 C   0  0  0  0  0  0  0  0  0  0  0  0
   15.9235    9.6647   20.0334 O   0  0  0  0  0  0  0  0  0  0  0  0
   14.3228    5.7864   15.5123 C   0  0  1  0  0  0  0  0  0  0  0  0
   18.3274    8.0890   19.9781 O   0  0  0  0  0  0  0  0  0  0  0  0
   15.4184    6.8174   15.2150 C   0  0  2  0  0  0  0  0  0  0  0  0
   18.4156    9.3331   11.4901 O   0  0  0  0  0  0  0  0  0  0  0  0
   17.1712    8.0051   16.3898 C   0  0  1  0  0  0  0  0  0  0  0  0
   20.3745    7.6566   10.8985 O   0  0  0  0  0  0  0  0  0  0  0  0
   15.7985    9.5645   17.6235 C   0  0  2  0  0  0  0  0  0  0  0  0
   15.2058   10.9736   17.5465 C   0  0  0  0  0  0  0  0  0  0  0  0
   16.7064    9.4766   18.8515 C   0  0  2  0  0  0  0  0  0  0  0  0
   17.3807    8.1041   18.9045 C   0  0  1  0  0  0  0  0  0  0  0  0
   18.1070    7.8148   17.5882 C   0  0  1  0  0  0  0  0  0  0  0  0
   18.9687    8.6219   12.6000 C   0  0  2  0  0  0  0  0  0  0  0  0
   20.3618    8.1030   12.2568 C   0  0  1  0  0  0  0  0  0  0  0  0
  1  3  1  0  0  0  0
  4  1  1  1  0  0  0
  4  6  1  0  0  0  0
  4 31  1  0  0  0  0
  6  7  1  0  0  0  0
  7  9  1  1  0  0  0
  7 30  1  0  0  0  0
  8 26  1  0  0  0  0
 10  9  1  6  0  0  0
 10 13  1  0  0  0  0
 10 21  1  0  0  0  0
 13 12  1  6  0  0  0
 13 15  1  0  0  0  0
 15  2  1  6  0  0  0
 15 17  1  0  0  0  0
 16 25  1  0  0  0  0
 16 23  1  0  0  0  0
 17 19  1  0  0  0  0
 19  5  1  1  0  0  0
 19 21  1  0  0  0  0
 21 14  1  1  0  0  0
 23 14  1  1  0  0  0
 23 29  1  0  0  0  0
 25 26  1  6  0  0  0
 25 27  1  0  0  0  0
 27 18  1  1  0  0  0
 27 28  1  0  0  0  0
 28 20  1  1  0  0  0
 28 29  1  0  0  0  0
 29 11  1  1  0  0  0
 30 22  1  6  0  0  0
 30 31  1  0  0  0  0
 31 24  1  6  0  0  0
M  END
>  <CHROM.1>
61.00185351,-62.86328420,-79.28172581,75.58313948,58.68442428,64.64360913
17.11997644,7.51972776,15.14784713,-1.19452501,0.23970182,1.14451077

>  <Name>
ligand

>  <RI>
0

>  <Rbt.Current_Directory>
/home/itssahil/PROJECTS/Mol_Feturizer/New_Systems/rnas/3DVV

>  <Rbt.Executable>
rbdock ($Id: //depot/dev/client3/rdock/2013.1/src/exe/rbdock.cxx#4 $)

>  <Rbt.Library>
libRbt.so (2013.1, Build901 2013/11/27)

>  <Rbt.Parameter_File>
/export/apps/rDock/src/rDock_2013.1_src/data/scripts/dock_solv.prm

>  <Rbt.Receptor>
prm/pocket_docking_6.prm

>  <SCORE>
-6.56977

>  <SCORE.INTER>
-2.9603

>  <SCORE.INTER.CONST>
1

>  <SCORE.INTER.POLAR>
0

>  <SCORE.INTER.ROT>
6

>  <SCORE.INTER.SOLV>
9.99304

>  <SCORE.INTER.VDW>
-12.9045

>  <SCORE.INTER.norm>
-0.0954936

>  <SCORE.INTRA>
-3.60947

>  <SCORE.INTRA.DIHEDRAL>
-7.59749

>  <SCORE.INTRA.DIHEDRAL.0>
10.8172

>  <SCORE.INTRA.POLAR>
0

>  <SCORE.INTRA.POLAR.0>
0

>  <SCORE.INTRA.REPUL>
0

>  <SCORE.INTRA.REPUL.0>
0

>  <SCORE.INTRA.SOLV>
-3.60196

>  <SCORE.INTRA.SOLV.lig_0>
-80.3833

>  <SCORE.INTRA.VDW>
1.99025

>  <SCORE.INTRA.VDW.0>
-4.63762

>  <SCORE.INTRA.norm>
-0.116435

>  <SCORE.RESTR>
0

>  <SCORE.RESTR.CAVITY>
0

>  <SCORE.RESTR.norm>
0

>  <SCORE.SYSTEM>
0

>  <SCORE.SYSTEM.CONST>
0

>  <SCORE.SYSTEM.DIHEDRAL>
0

>  <SCORE.SYSTEM.SOLV>
0

>  <SCORE.SYSTEM.norm>
0

>  <SCORE.heavy>
31

>  <SCORE.norm>
-0.211928

>  <RMSD>
7.135

$$$$
ligand
 OpenBabel11021811473D
libRbt.so/2013.1/901 2013/11/27
 31 33  0  0  0  0  0  0  0  0999 V2000
   16.3155    8.7550   12.2896 C   0  0  0  0  0  0  0  0  0  0  0  0
   22.0391    5.6289   17.0453 N   0  0  0  0  0  0  0  0  0  0  0  0
   15.6860    9.9306   11.7693 O   0  0  0  0  0  0  0  0  0  0  0  0
   17.7225    9.0885   12.7922 C   0  0  1  0  0  0  0  0  0  0  0  0
   20.0906    1.8621   14.6127 N   0  0  0  0  0  0  0  0  0  0  0  0
   18.3138    7.9324   13.4167 O   0  0  0  0  0  0  0  0  0  0  0  0
   19.5807    7.6694   12.7878 C   0  0  1  0  0  0  0  0  0  0  0  0
   19.7266    1.4282    8.8528 N   0  0  0  0  0  0  0  0  0  0  0  0
   19.8707    6.2633   12.7438 O   0  0  0  0  0  0  0  0  0  0  0  0
   19.7188    5.6019   14.0085 C   0  0  2  0  0  0  0  0  0  0  0  0
   15.8530    4.4132   12.3304 N   0  0  0  0  0  0  0  0  0  0  0  0
   20.8642    7.3851   15.1707 O   0  0  0  0  0  0  0  0  0  0  0  0
   20.9254    5.9878   14.8719 C   0  0  1  0  0  0  0  0  0  0  0  0
   18.3955    3.6812   13.2081 O   0  0  0  0  0  0  0  0  0  0  0  0
   20.9328    5.1932   16.1794 C   0  0  1  0  0  0  0  0  0  0  0  0
   19.1185    3.2098   11.0187 O   0  0  0  0  0  0  0  0  0  0  0  0
   21.0716    3.7045   15.8600 C   0  0  0  0  0  0  0  0  0  0  0  0
   17.3142    0.0163   10.8686 O   0  0  0  0  0  0  0  0  0  0  0  0
   19.8656    3.2543   15.0303 C   0  0  1  0  0  0  0  0  0  0  0  0
   15.1804    1.9410   10.9532 O   0  0  0  0  0  0  0  0  0  0  0  0
   19.6541    4.0968   13.7666 C   0  0  2  0  0  0  0  0  0  0  0  0
   20.5978    8.4150   10.6741 O   0  0  0  0  0  0  0  0  0  0  0  0
   18.2191    3.9994   11.8187 C   0  0  1  0  0  0  0  0  0  0  0  0
   19.5697   10.4854   11.9603 O   0  0  0  0  0  0  0  0  0  0  0  0
   18.9296    1.7902   11.1461 C   0  0  2  0  0  0  0  0  0  0  0  0
   19.9487    1.0672   10.2621 C   0  0  0  0  0  0  0  0  0  0  0  0
   17.5203    1.4190   10.6810 C   0  0  2  0  0  0  0  0  0  0  0  0
   16.4817    2.1960   11.4925 C   0  0  1  0  0  0  0  0  0  0  0  0
   16.7683    3.6985   11.4276 C   0  0  1  0  0  0  0  0  0  0  0  0
   19.3681    8.1617   11.3577 C   0  0  2  0  0  0  0  0  0  0  0  0
   18.6250    9.4692   11.6151 C   0  0  1  0  0  0  0  0  0  0  0  0
  1  3  1  0  0  0  0
  4  1  1  6  0  0  0
  4  6  1  0  0  0  0
  4 31  1  0  0  0  0
  6  7  1  0  0  0  0
  7  9  1  6  0  0  0
  7 30  1  0  0  0  0
  8 26  1  0  0  0  0
 10  9  1  6  0  0  0
 10 13  1  0  0  0  0
 10 21  1  0  0  0  0
 13 12  1  1  0  0  0
 13 15  1  0  0  0  0
 15  2  1  1  0  0  0
 15 17  1  0  0  0  0
 16 25  1  0  0  0  0
 16 23  1  0  0  0  0
 17 19  1  0  0  0  0
 19  5  1  6  0  0  0
 19 21  1  0  0  0  0
 21 14  1  1  0  0  0
 23 14  1  1  0  0  0
 23 29  1  0  0  0  0
 25 26  1  6  0  0  0
 25 27  1  0  0  0  0
 27 18  1  1  0  0  0
 27 28  1  0  0  0  0
 28 20  1  6  0  0  0
 28 29  1  0  0  0  0
 29 11  1  1  0  0  0
 30 22  1  1  0  0  0
 30 31  1  0  0  0  0
 31 24  1  1  0  0  0
M  END
>  <CHROM.1>
175.22765782,-50.29327353,-75.12116696,68.38512546,74.72932323,-62.00407486
18.83025626,5.12550965,12.62007007,1.37628604,-0.83953706,0.08370360

>  <Name>
ligand

>  <RI>
0

>  <Rbt.Current_Directory>
/home/itssahil/PROJECTS/Mol_Feturizer/New_Systems/rnas/3DVV

>  <Rbt.Executable>
rbdock ($Id: //depot/dev/client3/rdock/2013.1/src/exe/rbdock.cxx#4 $)

>  <Rbt.Library>
libRbt.so (2013.1, Build901 2013/11/27)

>  <Rbt.Parameter_File>
/export/apps/rDock/src/rDock_2013.1_src/data/scripts/dock_solv.prm

>  <Rbt.Receptor>
prm/blind_docking_40.prm

>  <SCORE>
-3.28229

>  <SCORE.INTER>
-0.77968

>  <SCORE.INTER.CONST>
1

>  <SCORE.INTER.POLAR>
0

>  <SCORE.INTER.ROT>
6

>  <SCORE.INTER.SOLV>
16.3309

>  <SCORE.INTER.VDW>
-13.5634

>  <SCORE.INTER.norm>
-0.025151

>  <SCORE.INTRA>
-2.50261

>  <SCORE.INTRA.DIHEDRAL>
-7.61371

>  <SCORE.INTRA.DIHEDRAL.0>
10.8172

>  <SCORE.INTRA.POLAR>
0

>  <SCORE.INTRA.POLAR.0>
0

>  <SCORE.INTRA.REPUL>
0

>  <SCORE.INTRA.REPUL.0>
0

>  <SCORE.INTRA.SOLV>
-2.10427

>  <SCORE.INTRA.SOLV.lig_0>
-80.3833

>  <SCORE.INTRA.VDW>
2.35638

>  <SCORE.INTRA.VDW.0>
-4.63762

>  <SCORE.INTRA.norm>
-0.0807292

>  <SCORE.RESTR>
0

>  <SCORE.RESTR.CAVITY>
0

>  <SCORE.RESTR.norm>
0

>  <SCORE.SYSTEM>
0

>  <SCORE.SYSTEM.CONST>
0

>  <SCORE.SYSTEM.DIHEDRAL>
0

>  <SCORE.SYSTEM.SOLV>
0

>  <SCORE.SYSTEM.norm>
0

>  <SCORE.heavy>
31

>  <SCORE.norm>
-0.10588

>  <RMSD>
7.136

$$$$
ligand
 OpenBabel11021811473D
libRbt.so/2013.1/901 2013/11/27
 31 33  0  0  0  0  0  0  0  0999 V2000
   19.8829    1.9976   14.1948 C   0  0  0  0  0  0  0  0  0  0  0  0
   19.8548    9.9746   16.1706 N   0  0  0  0  0  0  0  0  0  0  0  0
   19.0953    1.8415   15.3798 O   0  0  0  0  0  0  0  0  0  0  0  0
   20.7827    3.2299   14.3180 C   0  0  1  0  0  0  0  0  0  0  0  0
   16.4470    7.8897   18.9891 N   0  0  0  0  0  0  0  0  0  0  0  0
   20.0634    4.3094   14.9454 O   0  0  0  0  0  0  0  0  0  0  0  0
   20.8183    4.7633   16.0828 C   0  0  1  0  0  0  0  0  0  0  0  0
   18.4782    4.6058   21.9386 N   0  0  0  0  0  0  0  0  0  0  0  0
   19.9617    5.2154   17.1434 O   0  0  0  0  0  0  0  0  0  0  0  0
   19.0780    6.2791   16.7591 C   0  0  2  0  0  0  0  0  0  0  0  0
   15.9574    3.4094   16.1038 N   0  0  0  0  0  0  0  0  0  0  0  0
   20.8317    7.4023   15.5322 O   0  0  0  0  0  0  0  0  0  0  0  0
   19.9252    7.5501   16.6284 C   0  0  1  0  0  0  0  0  0  0  0  0
   17.0228    5.3701   17.7745 O   0  0  0  0  0  0  0  0  0  0  0  0
   19.0363    8.7716   16.3856 C   0  0  1  0  0  0  0  0  0  0  0  0
   17.9999    3.7653   19.1916 O   0  0  0  0  0  0  0  0  0  0  0  0
   18.1179    8.9704   17.5916 C   0  0  0  0  0  0  0  0  0  0  0  0
   14.8114    2.9135   20.7991 O   0  0  0  0  0  0  0  0  0  0  0  0
   17.2161    7.7420   17.7441 C   0  0  1  0  0  0  0  0  0  0  0  0
   14.4373    1.9569   18.1139 O   0  0  0  0  0  0  0  0  0  0  0  0
   17.9984    6.4257   17.8272 C   0  0  2  0  0  0  0  0  0  0  0  0
   22.6703    3.7829   17.3739 O   0  0  0  0  0  0  0  0  0  0  0  0
   17.5673    4.0430   17.8469 C   0  0  1  0  0  0  0  0  0  0  0  0
   23.1726    3.5861   14.7841 O   0  0  0  0  0  0  0  0  0  0  0  0
   16.9534    3.8382   20.1748 C   0  0  2  0  0  0  0  0  0  0  0  0
   17.5408    3.5379   21.5558 C   0  0  0  0  0  0  0  0  0  0  0  0
   15.8804    2.7953   19.8566 C   0  0  2  0  0  0  0  0  0  0  0  0
   15.3369    3.0205   18.4441 C   0  0  1  0  0  0  0  0  0  0  0  0
   16.4823    3.0450   17.4287 C   0  0  1  0  0  0  0  0  0  0  0  0
   21.5367    3.4992   16.5504 C   0  0  2  0  0  0  0  0  0  0  0  0
   21.9846    2.9162   15.2135 C   0  0  1  0  0  0  0  0  0  0  0  0
  1  3  1  0  0  0  0
  4  1  1  1  0  0  0
  4  6  1  0  0  0  0
  4 31  1  0  0  0  0
  6  7  1  0  0  0  0
  7  9  1  1  0  0  0
  7 30  1  0  0  0  0
  8 26  1  0  0  0  0
 10  9  1  1  0  0  0
 10 13  1  0  0  0  0
 10 21  1  0  0  0  0
 13 12  1  6  0  0  0
 13 15  1  0  0  0  0
 15  2  1  1  0  0  0
 15 17  1  0  0  0  0
 16 25  1  0  0  0  0
 16 23  1  0  0  0  0
 17 19  1  0  0  0  0
 19  5  1  1  0  0  0
 19 21  1  0  0  0  0
 21 14  1  6  0  0  0
 23 14  1  1  0  0  0
 23 29  1  0  0  0  0
 25 26  1  1  0  0  0
 25 27  1  0  0  0  0
 27 18  1  1  0  0  0
 27 28  1  0  0  0  0
 28 20  1  6  0  0  0
 28 29  1  0  0  0  0
 29 11  1  6  0  0  0
 30 22  1  1  0  0  0
 30 31  1  0  0  0  0
 31 24  1  6  0  0  0
M  END
>  <CHROM.1>
-40.28989724,-58.03845029,-73.29972935,73.77401044,54.86276006,66.17540322
18.62882678,4.75163604,17.37416252,-0.14897193,-0.68431377,-3.04910310

>  <Name>
ligand

>  <RI>
0

>  <Rbt.Current_Directory>
/home/itssahil/PROJECTS/Mol_Feturizer/New_Systems/rnas/3DVV

>  <Rbt.Executable>
rbdock ($Id: //depot/dev/client3/rdock/2013.1/src/exe/rbdock.cxx#4 $)

>  <Rbt.Library>
libRbt.so (2013.1, Build901 2013/11/27)

>  <Rbt.Parameter_File>
/export/apps/rDock/src/rDock_2013.1_src/data/scripts/dock_solv.prm

>  <Rbt.Receptor>
prm/pocket_docking_4.prm

>  <SCORE>
-6.67762

>  <SCORE.INTER>
-3.90035

>  <SCORE.INTER.CONST>
1

>  <SCORE.INTER.POLAR>
0

>  <SCORE.INTER.ROT>
6

>  <SCORE.INTER.SOLV>
20.7912

>  <SCORE.INTER.VDW>
-17.1306

>  <SCORE.INTER.norm>
-0.125818

>  <SCORE.INTRA>
-2.77727

>  <SCORE.INTRA.DIHEDRAL>
-7.23584

>  <SCORE.INTRA.DIHEDRAL.0>
10.8172

>  <SCORE.INTRA.POLAR>
0

>  <SCORE.INTRA.POLAR.0>
0

>  <SCORE.INTRA.REPUL>
0

>  <SCORE.INTRA.REPUL.0>
0

>  <SCORE.INTRA.SOLV>
-3.30498

>  <SCORE.INTRA.SOLV.lig_0>
-80.3833

>  <SCORE.INTRA.VDW>
2.49314

>  <SCORE.INTRA.VDW.0>
-4.63762

>  <SCORE.INTRA.norm>
-0.0895893

>  <SCORE.RESTR>
0

>  <SCORE.RESTR.CAVITY>
0

>  <SCORE.RESTR.norm>
0

>  <SCORE.SYSTEM>
0

>  <SCORE.SYSTEM.CONST>
0

>  <SCORE.SYSTEM.DIHEDRAL>
0

>  <SCORE.SYSTEM.SOLV>
0

>  <SCORE.SYSTEM.norm>
0

>  <SCORE.heavy>
31

>  <SCORE.norm>
-0.215407

>  <RMSD>
7.140

$$$$
ligand
 OpenBabel11021811473D
libRbt.so/2013.1/901 2013/11/27
 31 33  0  0  0  0  0  0  0  0999 V2000
   23.2212    6.9480   15.3982 C   0  0  0  0  0  0  0  0  0  0  0  0
   19.2940   10.2709   11.4003 N   0  0  0  0  0  0  0  0  0  0  0  0
   23.8755    6.5334   16.6018 O   0  0  0  0  0  0  0  0  0  0  0  0
   21.7114    7.0534   15.6279 C   0  0  1  0  0  0  0  0  0  0  0  0
   15.5155    7.7216   13.1689 N   0  0  0  0  0  0  0  0  0  0  0  0
   21.0249    7.1802   14.3673 O   0  0  0  0  0  0  0  0  0  0  0  0
   20.0268    6.1475   14.2830 C   0  0  1  0  0  0  0  0  0  0  0  0
   20.5537    2.9182   11.6010 N   0  0  0  0  0  0  0  0  0  0  0  0
   19.8447    5.6931   12.9327 O   0  0  0  0  0  0  0  0  0  0  0  0
   18.9862    6.5359   12.1500 C   0  0  2  0  0  0  0  0  0  0  0  0
   14.4241    4.8747   11.2997 N   0  0  0  0  0  0  0  0  0  0  0  0
   20.8446    7.9103   11.4428 O   0  0  0  0  0  0  0  0  0  0  0  0
   19.6023    7.9398   12.1509 C   0  0  1  0  0  0  0  0  0  0  0  0
   16.8876    5.2990   12.5333 O   0  0  0  0  0  0  0  0  0  0  0  0
   18.6637    8.9443   11.4794 C   0  0  1  0  0  0  0  0  0  0  0  0
   18.0281    4.0486   10.8981 O   0  0  0  0  0  0  0  0  0  0  0  0
   17.3639    9.0278   12.2799 C   0  0  0  0  0  0  0  0  0  0  0  0
   16.9287    0.8265   12.2712 O   0  0  0  0  0  0  0  0  0  0  0  0
   16.6827    7.6561   12.2763 C   0  0  1  0  0  0  0  0  0  0  0  0
   14.4748    1.9664   11.2998 O   0  0  0  0  0  0  0  0  0  0  0  0
   17.5943    6.5283   12.7748 C   0  0  2  0  0  0  0  0  0  0  0  0
   19.6609    4.0547   15.5258 O   0  0  0  0  0  0  0  0  0  0  0  0
   16.8762    4.8706   11.1625 C   0  0  1  0  0  0  0  0  0  0  0  0
   20.1287    6.0366   17.2143 O   0  0  0  0  0  0  0  0  0  0  0  0
   18.1019    2.8598   11.7033 C   0  0  2  0  0  0  0  0  0  0  0  0
   19.3699    2.0844   11.3381 C   0  0  0  0  0  0  0  0  0  0  0  0
   16.8845    1.9769   11.4228 C   0  0  2  0  0  0  0  0  0  0  0  0
   15.5985    2.7591   11.6975 C   0  0  1  0  0  0  0  0  0  0  0  0
   15.5932    4.0717   10.9097 C   0  0  1  0  0  0  0  0  0  0  0  0
   20.6363    5.0074   15.0962 C   0  0  2  0  0  0  0  0  0  0  0  0
   21.1900    5.7761   16.2923 C   0  0  1  0  0  0  0  0  0  0  0  0
  1  3  1  0  0  0  0
  4  1  1  6  0  0  0
  4  6  1  0  0  0  0
  4 31  1  0  0  0  0
  6  7  1  0  0  0  0
  7  9  1  6  0  0  0
  7 30  1  0  0  0  0
  8 26  1  0  0  0  0
 10  9  1  1  0  0  0
 10 13  1  0  0  0  0
 10 21  1  0  0  0  0
 13 12  1  6  0  0  0
 13 15  1  0  0  0  0
 15  2  1  1  0  0  0
 15 17  1  0  0  0  0
 16 25  1  0  0  0  0
 16 23  1  0  0  0  0
 17 19  1  0  0  0  0
 19  5  1  1  0  0  0
 19 21  1  0  0  0  0
 21 14  1  6  0  0  0
 23 14  1  1  0  0  0
 23 29  1  0  0  0  0
 25 26  1  6  0  0  0
 25 27  1  0  0  0  0
 27 18  1  1  0  0  0
 27 28  1  0  0  0  0
 28 20  1  6  0  0  0
 28 29  1  0  0  0  0
 29 11  1  1  0  0  0
 30 22  1  1  0  0  0
 30 31  1  0  0  0  0
 31 24  1  1  0  0  0
M  END
>  <CHROM.1>
-167.43715877,-81.63568106,58.18124348,88.89207721,-49.64070839,60.53867258
18.72609173,5.50535296,12.95334578,-0.45739642,0.64041251,3.02390990

>  <Name>
ligand

>  <RI>
0

>  <Rbt.Current_Directory>
/home/itssahil/PROJECTS/Mol_Feturizer/New_Systems/rnas/3DVV

>  <Rbt.Executable>
rbdock ($Id: //depot/dev/client3/rdock/2013.1/src/exe/rbdock.cxx#4 $)

>  <Rbt.Library>
libRbt.so (2013.1, Build901 2013/11/27)

>  <Rbt.Parameter_File>
/export/apps/rDock/src/rDock_2013.1_src/data/scripts/dock_solv.prm

>  <Rbt.Receptor>
prm/blind_docking_40.prm

>  <SCORE>
-3.40821

>  <SCORE.INTER>
-4.7995

>  <SCORE.INTER.CONST>
1

>  <SCORE.INTER.POLAR>
0

>  <SCORE.INTER.ROT>
6

>  <SCORE.INTER.SOLV>
17.5419

>  <SCORE.INTER.VDW>
-16.647

>  <SCORE.INTER.norm>
-0.154823

>  <SCORE.INTRA>
1.28065

>  <SCORE.INTRA.DIHEDRAL>
-4.09347

>  <SCORE.INTRA.DIHEDRAL.0>
10.8172

>  <SCORE.INTRA.POLAR>
0

>  <SCORE.INTRA.POLAR.0>
0

>  <SCORE.INTRA.REPUL>
0

>  <SCORE.INTRA.REPUL.0>
0

>  <SCORE.INTRA.SOLV>
-0.658821

>  <SCORE.INTRA.SOLV.lig_0>
-80.3833

>  <SCORE.INTRA.VDW>
3.65679

>  <SCORE.INTRA.VDW.0>
-4.63762

>  <SCORE.INTRA.norm>
0.0413111

>  <SCORE.RESTR>
0.110647

>  <SCORE.RESTR.CAVITY>
0.110647

>  <SCORE.RESTR.norm>
0.00356926

>  <SCORE.SYSTEM>
0

>  <SCORE.SYSTEM.CONST>
0

>  <SCORE.SYSTEM.DIHEDRAL>
0

>  <SCORE.SYSTEM.SOLV>
0

>  <SCORE.SYSTEM.norm>
0

>  <SCORE.heavy>
31

>  <SCORE.norm>
-0.109942

>  <RMSD>
7.146

$$$$
ligand
 OpenBabel11021811473D
libRbt.so/2013.1/901 2013/11/27
 31 33  0  0  0  0  0  0  0  0999 V2000
   17.6435    1.2155   13.1085 C   0  0  0  0  0  0  0  0  0  0  0  0
   20.4651    9.1442   15.3681 N   0  0  0  0  0  0  0  0  0  0  0  0
   16.2804    1.5723   12.8564 O   0  0  0  0  0  0  0  0  0  0  0  0
   18.5708    2.3722   12.7273 C   0  0  1  0  0  0  0  0  0  0  0  0
   17.2797    7.3683   18.6243 N   0  0  0  0  0  0  0  0  0  0  0  0
   18.3339    3.5031   13.5883 O   0  0  0  0  0  0  0  0  0  0  0  0
   19.5824    3.8918   14.1883 C   0  0  1  0  0  0  0  0  0  0  0  0
   16.9990    3.5270   21.7812 N   0  0  0  0  0  0  0  0  0  0  0  0
   19.3965    4.4067   15.5162 O   0  0  0  0  0  0  0  0  0  0  0  0
   18.7972    5.7104   15.5522 C   0  0  2  0  0  0  0  0  0  0  0  0
   14.9181    3.5693   15.6157 N   0  0  0  0  0  0  0  0  0  0  0  0
   20.4984    6.6219   14.0970 O   0  0  0  0  0  0  0  0  0  0  0  0
   19.9275    6.7354   15.4034 C   0  0  1  0  0  0  0  0  0  0  0  0
   16.8316    5.1212   16.9198 O   0  0  0  0  0  0  0  0  0  0  0  0
   19.3991    8.1576   15.6001 C   0  0  1  0  0  0  0  0  0  0  0  0
   17.6373    3.2747   18.1360 O   0  0  0  0  0  0  0  0  0  0  0  0
   18.8551    8.2977   17.0221 C   0  0  0  0  0  0  0  0  0  0  0  0
   14.7991    3.2830   20.4642 O   0  0  0  0  0  0  0  0  0  0  0  0
   17.6908    7.3212   17.2129 C   0  0  1  0  0  0  0  0  0  0  0  0
   13.5691    2.5346   17.9759 O   0  0  0  0  0  0  0  0  0  0  0  0
   18.0585    5.8707   16.8775 C   0  0  2  0  0  0  0  0  0  0  0  0
   21.7561    2.7634   14.4327 O   0  0  0  0  0  0  0  0  0  0  0  0
   16.9973    3.6946   16.9168 C   0  0  1  0  0  0  0  0  0  0  0  0
   20.8969    2.5365   11.9411 O   0  0  0  0  0  0  0  0  0  0  0  0
   16.9067    3.6046   19.3296 C   0  0  2  0  0  0  0  0  0  0  0  0
   17.6937    3.1198   20.5495 C   0  0  0  0  0  0  0  0  0  0  0  0
   15.5479    2.9023   19.3069 C   0  0  2  0  0  0  0  0  0  0  0  0
   14.7743    3.3037   18.0492 C   0  0  1  0  0  0  0  0  0  0  0  0
   15.6163    3.0413   16.7978 C   0  0  1  0  0  0  0  0  0  0  0  0
   20.3468    2.5733   14.2861 C   0  0  2  0  0  0  0  0  0  0  0  0
   20.0327    1.9612   12.9243 C   0  0  1  0  0  0  0  0  0  0  0  0
  1  3  1  0  0  0  0
  4  1  1  1  0  0  0
  4  6  1  0  0  0  0
  4 31  1  0  0  0  0
  6  7  1  0  0  0  0
  7  9  1  1  0  0  0
  7 30  1  0  0  0  0
  8 26  1  0  0  0  0
 10  9  1  1  0  0  0
 10 13  1  0  0  0  0
 10 21  1  0  0  0  0
 13 12  1  6  0  0  0
 13 15  1  0  0  0  0
 15  2  1  1  0  0  0
 15 17  1  0  0  0  0
 16 25  1  0  0  0  0
 16 23  1  0  0  0  0
 17 19  1  0  0  0  0
 19  5  1  1  0  0  0
 19 21  1  0  0  0  0
 21 14  1  6  0  0  0
 23 14  1  1  0  0  0
 23 29  1  0  0  0  0
 25 26  1  1  0  0  0
 25 27  1  0  0  0  0
 27 18  1  1  0  0  0
 27 28  1  0  0  0  0
 28 20  1  6  0  0  0
 28 29  1  0  0  0  0
 29 11  1  6  0  0  0
 30 22  1  6  0  0  0
 30 31  1  0  0  0  0
 31 24  1  6  0  0  0
M  END
>  <CHROM.1>
65.47724239,-72.51009256,-85.72555079,66.21321597,67.34587511,176.41181887
17.93906391,4.25490459,16.20709518,0.53830890,-0.83183889,-2.42731016

>  <Name>
ligand

>  <RI>
0

>  <Rbt.Current_Directory>
/home/itssahil/PROJECTS/Mol_Feturizer/New_Systems/rnas/3DVV

>  <Rbt.Executable>
rbdock ($Id: //depot/dev/client3/rdock/2013.1/src/exe/rbdock.cxx#4 $)

>  <Rbt.Library>
libRbt.so (2013.1, Build901 2013/11/27)

>  <Rbt.Parameter_File>
/export/apps/rDock/src/rDock_2013.1_src/data/scripts/dock_solv.prm

>  <Rbt.Receptor>
prm/pocket_docking_3.prm

>  <SCORE>
-2.41965

>  <SCORE.INTER>
0.0391613

>  <SCORE.INTER.CONST>
1

>  <SCORE.INTER.POLAR>
0

>  <SCORE.INTER.ROT>
6

>  <SCORE.INTER.SOLV>
13.9965

>  <SCORE.INTER.VDW>
-12.2394

>  <SCORE.INTER.norm>
0.00126327

>  <SCORE.INTRA>
-2.65813

>  <SCORE.INTRA.DIHEDRAL>
-6.43042

>  <SCORE.INTRA.DIHEDRAL.0>
10.8172

>  <SCORE.INTRA.POLAR>
0

>  <SCORE.INTRA.POLAR.0>
0

>  <SCORE.INTRA.REPUL>
0

>  <SCORE.INTRA.REPUL.0>
0

>  <SCORE.INTRA.SOLV>
-2.30219

>  <SCORE.INTRA.SOLV.lig_0>
-80.3833

>  <SCORE.INTRA.VDW>
1.70817

>  <SCORE.INTRA.VDW.0>
-4.63762

>  <SCORE.INTRA.norm>
-0.0857463

>  <SCORE.RESTR>
0.199321

>  <SCORE.RESTR.CAVITY>
0.199321

>  <SCORE.RESTR.norm>
0.00642972

>  <SCORE.SYSTEM>
0

>  <SCORE.SYSTEM.CONST>
0

>  <SCORE.SYSTEM.DIHEDRAL>
0

>  <SCORE.SYSTEM.SOLV>
0

>  <SCORE.SYSTEM.norm>
0

>  <SCORE.heavy>
31

>  <SCORE.norm>
-0.0780533

>  <RMSD>
7.146

$$$$
ligand
 OpenBabel11021811473D
libRbt.so/2013.1/901 2013/11/27
 31 33  0  0  0  0  0  0  0  0999 V2000
   20.2781    2.0486   14.6028 C   0  0  0  0  0  0  0  0  0  0  0  0
   20.0619   10.1572   15.5996 N   0  0  0  0  0  0  0  0  0  0  0  0
   20.8429    0.9994   13.8096 O   0  0  0  0  0  0  0  0  0  0  0  0
   21.1792    3.2853   14.5607 C   0  0  1  0  0  0  0  0  0  0  0  0
   16.8504    8.2993   18.7835 N   0  0  0  0  0  0  0  0  0  0  0  0
   20.4774    4.4293   15.0851 O   0  0  0  0  0  0  0  0  0  0  0  0
   21.2654    5.0059   16.1417 C   0  0  1  0  0  0  0  0  0  0  0  0
   18.7265    5.4632   22.1882 N   0  0  0  0  0  0  0  0  0  0  0  0
   20.4403    5.5750   17.1704 O   0  0  0  0  0  0  0  0  0  0  0  0
   19.4924    6.5372   16.6850 C   0  0  2  0  0  0  0  0  0  0  0  0
   16.6765    3.4790   16.3822 N   0  0  0  0  0  0  0  0  0  0  0  0
   21.1493    7.5722   15.2615 O   0  0  0  0  0  0  0  0  0  0  0  0
   20.2695    7.8187   16.3618 C   0  0  1  0  0  0  0  0  0  0  0  0
   17.5175    5.6729   17.8823 O   0  0  0  0  0  0  0  0  0  0  0  0
   19.3127    8.9554   15.9965 C   0  0  1  0  0  0  0  0  0  0  0  0
   18.4858    4.2964   19.5272 O   0  0  0  0  0  0  0  0  0  0  0  0
   18.4216    9.2661   17.1994 C   0  0  0  0  0  0  0  0  0  0  0  0
   15.2497    3.4265   21.0262 O   0  0  0  0  0  0  0  0  0  0  0  0
   17.5886    8.0271   17.5409 C   0  0  1  0  0  0  0  0  0  0  0  0
   15.1091    2.1616   18.4483 O   0  0  0  0  0  0  0  0  0  0  0  0
   18.4392    6.7708   17.7638 C   0  0  2  0  0  0  0  0  0  0  0  0
   23.1569    4.1722   17.4778 O   0  0  0  0  0  0  0  0  0  0  0  0
   18.1290    4.3984   18.1363 C   0  0  1  0  0  0  0  0  0  0  0  0
   23.5815    3.6870   14.9123 O   0  0  0  0  0  0  0  0  0  0  0  0
   17.3737    4.4102   20.4314 C   0  0  2  0  0  0  0  0  0  0  0  0
   17.8837    4.2995   21.8702 C   0  0  0  0  0  0  0  0  0  0  0  0
   16.3840    3.2736   20.1689 C   0  0  2  0  0  0  0  0  0  0  0  0
   15.9241    3.3091   18.7100 C   0  0  1  0  0  0  0  0  0  0  0  0
   17.1315    3.2946   17.7688 C   0  0  1  0  0  0  0  0  0  0  0  0
   21.9996    3.8006   16.7255 C   0  0  2  0  0  0  0  0  0  0  0  0
   22.4080    3.0712   15.4491 C   0  0  1  0  0  0  0  0  0  0  0  0
  1  3  1  0  0  0  0
  4  1  1  1  0  0  0
  4  6  1  0  0  0  0
  4 31  1  0  0  0  0
  6  7  1  0  0  0  0
  7  9  1  1  0  0  0
  7 30  1  0  0  0  0
  8 26  1  0  0  0  0
 10  9  1  1  0  0  0
 10 13  1  0  0  0  0
 10 21  1  0  0  0  0
 13 12  1  6  0  0  0
 13 15  1  0  0  0  0
 15  2  1  1  0  0  0
 15 17  1  0  0  0  0
 16 25  1  0  0  0  0
 16 23  1  0  0  0  0
 17 19  1  0  0  0  0
 19  5  1  1  0  0  0
 19 21  1  0  0  0  0
 21 14  1  6  0  0  0
 23 14  1  1  0  0  0
 23 29  1  0  0  0  0
 25 26  1  1  0  0  0
 25 27  1  0  0  0  0
 27 18  1  1  0  0  0
 27 28  1  0  0  0  0
 28 20  1  6  0  0  0
 28 29  1  0  0  0  0
 29 11  1  6  0  0  0
 30 22  1  6  0  0  0
 30 31  1  0  0  0  0
 31 24  1  6  0  0  0
M  END
>  <CHROM.1>
166.53123201,-54.76621875,-74.70303704,78.69766709,56.27323638,66.49211914
19.11441752,5.02185257,17.39577544,-0.02071290,-0.74629056,-3.12856565

>  <Name>
ligand

>  <RI>
0

>  <Rbt.Current_Directory>
/home/itssahil/PROJECTS/Mol_Feturizer/New_Systems/rnas/3DVV

>  <Rbt.Executable>
rbdock ($Id: //depot/dev/client3/rdock/2013.1/src/exe/rbdock.cxx#4 $)

>  <Rbt.Library>
libRbt.so (2013.1, Build901 2013/11/27)

>  <Rbt.Parameter_File>
/export/apps/rDock/src/rDock_2013.1_src/data/scripts/dock_solv.prm

>  <Rbt.Receptor>
prm/pocket_docking_5.prm

>  <SCORE>
-8.0267

>  <SCORE.INTER>
-5.1377

>  <SCORE.INTER.CONST>
1

>  <SCORE.INTER.POLAR>
0

>  <SCORE.INTER.ROT>
6

>  <SCORE.INTER.SOLV>
24.1032

>  <SCORE.INTER.VDW>
-19.0595

>  <SCORE.INTER.norm>
-0.165732

>  <SCORE.INTRA>
-2.889

>  <SCORE.INTRA.DIHEDRAL>
-6.97321

>  <SCORE.INTRA.DIHEDRAL.0>
10.8172

>  <SCORE.INTRA.POLAR>
0

>  <SCORE.INTRA.POLAR.0>
0

>  <SCORE.INTRA.REPUL>
0

>  <SCORE.INTRA.REPUL.0>
0

>  <SCORE.INTRA.SOLV>
-4.23537

>  <SCORE.INTRA.SOLV.lig_0>
-80.3833

>  <SCORE.INTRA.VDW>
2.71528

>  <SCORE.INTRA.VDW.0>
-4.63762

>  <SCORE.INTRA.norm>
-0.0931937

>  <SCORE.RESTR>
0

>  <SCORE.RESTR.CAVITY>
0

>  <SCORE.RESTR.norm>
0

>  <SCORE.SYSTEM>
0

>  <SCORE.SYSTEM.CONST>
0

>  <SCORE.SYSTEM.DIHEDRAL>
0

>  <SCORE.SYSTEM.SOLV>
0

>  <SCORE.SYSTEM.norm>
0

>  <SCORE.heavy>
31

>  <SCORE.norm>
-0.258926

>  <RMSD>
7.158

$$$$
ligand
 OpenBabel11021811473D
libRbt.so/2013.1/901 2013/11/27
 31 33  0  0  0  0  0  0  0  0999 V2000
   23.1579    7.5572   15.3905 C   0  0  0  0  0  0  0  0  0  0  0  0
   18.3399   10.3414   18.5330 N   0  0  0  0  0  0  0  0  0  0  0  0
   22.3623    7.2902   14.2309 O   0  0  0  0  0  0  0  0  0  0  0  0
   22.5532    6.8669   16.6156 C   0  0  1  0  0  0  0  0  0  0  0  0
   17.3788    6.0419   20.6529 N   0  0  0  0  0  0  0  0  0  0  0  0
   21.1601    7.2126   16.7433 O   0  0  0  0  0  0  0  0  0  0  0  0
   20.3904    5.9987   16.8047 C   0  0  1  0  0  0  0  0  0  0  0  0
   17.3029    5.7602   13.6959 N   0  0  0  0  0  0  0  0  0  0  0  0
   19.1022    6.1544   16.1887 O   0  0  0  0  0  0  0  0  0  0  0  0
   18.1472    6.8407   17.0114 C   0  0  2  0  0  0  0  0  0  0  0  0
   14.9870    3.5806   19.2915 N   0  0  0  0  0  0  0  0  0  0  0  0
   18.7764    8.9864   16.0933 O   0  0  0  0  0  0  0  0  0  0  0  0
   18.7180    8.2325   17.3073 C   0  0  1  0  0  0  0  0  0  0  0  0
   17.1462    4.8502   18.0681 O   0  0  0  0  0  0  0  0  0  0  0  0
   17.8418    8.9741   18.3188 C   0  0  1  0  0  0  0  0  0  0  0  0
   15.8972    5.3107   16.1275 O   0  0  0  0  0  0  0  0  0  0  0  0
   17.8395    8.2036   19.6393 C   0  0  0  0  0  0  0  0  0  0  0  0
   16.1220    1.8614   14.8914 O   0  0  0  0  0  0  0  0  0  0  0  0
   17.2378    6.8142   19.4092 C   0  0  1  0  0  0  0  0  0  0  0  0
   14.4841    1.5832   17.2376 O   0  0  0  0  0  0  0  0  0  0  0  0
   17.9343    6.0331   18.2882 C   0  0  2  0  0  0  0  0  0  0  0  0
   20.8919    3.6570   16.2366 O   0  0  0  0  0  0  0  0  0  0  0  0
   15.8292    5.0923   17.5488 C   0  0  1  0  0  0  0  0  0  0  0  0
   22.8553    4.6732   17.6891 O   0  0  0  0  0  0  0  0  0  0  0  0
   16.4382    4.2042   15.3859 C   0  0  2  0  0  0  0  0  0  0  0  0
   16.4695    4.5644   13.8987 C   0  0  0  0  0  0  0  0  0  0  0  0
   15.5468    2.9760   15.5784 C   0  0  2  0  0  0  0  0  0  0  0  0
   15.4280    2.6459   17.0677 C   0  0  1  0  0  0  0  0  0  0  0  0
   14.9519    3.8726   17.8502 C   0  0  1  0  0  0  0  0  0  0  0  0
   21.2112    5.0234   15.9635 C   0  0  2  0  0  0  0  0  0  0  0  0
   22.6211    5.3461   16.4494 C   0  0  1  0  0  0  0  0  0  0  0  0
  1  3  1  0  0  0  0
  4  1  1  6  0  0  0
  4  6  1  0  0  0  0
  4 31  1  0  0  0  0
  6  7  1  0  0  0  0
  7  9  1  6  0  0  0
  7 30  1  0  0  0  0
  8 26  1  0  0  0  0
 10  9  1  6  0  0  0
 10 13  1  0  0  0  0
 10 21  1  0  0  0  0
 13 12  1  6  0  0  0
 13 15  1  0  0  0  0
 15  2  1  1  0  0  0
 15 17  1  0  0  0  0
 16 25  1  0  0  0  0
 16 23  1  0  0  0  0
 17 19  1  0  0  0  0
 19  5  1  1  0  0  0
 19 21  1  0  0  0  0
 21 14  1  6  0  0  0
 23 14  1  6  0  0  0
 23 29  1  0  0  0  0
 25 26  1  6  0  0  0
 25 27  1  0  0  0  0
 27 18  1  6  0  0  0
 27 28  1  0  0  0  0
 28 20  1  6  0  0  0
 28 29  1  0  0  0  0
 29 11  1  1  0  0  0
 30 22  1  1  0  0  0
 30 31  1  0  0  0  0
 31 24  1  1  0  0  0
M  END
>  <CHROM.1>
-52.24494936,-78.32120789,59.92937950,80.44605034,-59.56620257,59.49795580
18.38735291,5.67279123,16.87809982,-0.39317927,-0.39524588,-2.52291841

>  <Name>
ligand

>  <RI>
0

>  <Rbt.Current_Directory>
/home/itssahil/PROJECTS/Mol_Feturizer/New_Systems/rnas/3DVV

>  <Rbt.Executable>
rbdock ($Id: //depot/dev/client3/rdock/2013.1/src/exe/rbdock.cxx#4 $)

>  <Rbt.Library>
libRbt.so (2013.1, Build901 2013/11/27)

>  <Rbt.Parameter_File>
/export/apps/rDock/src/rDock_2013.1_src/data/scripts/dock_solv.prm

>  <Rbt.Receptor>
prm/pocket_docking_7.prm

>  <SCORE>
-7.45253

>  <SCORE.INTER>
-6.9939

>  <SCORE.INTER.CONST>
1

>  <SCORE.INTER.POLAR>
0

>  <SCORE.INTER.ROT>
6

>  <SCORE.INTER.SOLV>
18.4045

>  <SCORE.INTER.VDW>
-18.3974

>  <SCORE.INTER.norm>
-0.22561

>  <SCORE.INTRA>
-0.458627

>  <SCORE.INTRA.DIHEDRAL>
-6.98354

>  <SCORE.INTRA.DIHEDRAL.0>
10.8172

>  <SCORE.INTRA.POLAR>
0

>  <SCORE.INTRA.POLAR.0>
0

>  <SCORE.INTRA.REPUL>
0

>  <SCORE.INTRA.REPUL.0>
0

>  <SCORE.INTRA.SOLV>
-0.717213

>  <SCORE.INTRA.SOLV.lig_0>
-80.3833

>  <SCORE.INTRA.VDW>
3.39175

>  <SCORE.INTRA.VDW.0>
-4.63762

>  <SCORE.INTRA.norm>
-0.0147944

>  <SCORE.RESTR>
0

>  <SCORE.RESTR.CAVITY>
0

>  <SCORE.RESTR.norm>
0

>  <SCORE.SYSTEM>
0

>  <SCORE.SYSTEM.CONST>
0

>  <SCORE.SYSTEM.DIHEDRAL>
0

>  <SCORE.SYSTEM.SOLV>
0

>  <SCORE.SYSTEM.norm>
0

>  <SCORE.heavy>
31

>  <SCORE.norm>
-0.240404

>  <RMSD>
7.161

$$$$
ligand
 OpenBabel11021811473D
libRbt.so/2013.1/901 2013/11/27
 31 33  0  0  0  0  0  0  0  0999 V2000
   19.6820   -1.7172    9.6201 C   0  0  0  0  0  0  0  0  0  0  0  0
   13.7270    1.1084   11.3885 N   0  0  0  0  0  0  0  0  0  0  0  0
   18.5713   -2.6199    9.6006 O   0  0  0  0  0  0  0  0  0  0  0  0
   19.1947   -0.2773    9.4405 C   0  0  1  0  0  0  0  0  0  0  0  0
   16.0676    5.3777   11.8337 N   0  0  0  0  0  0  0  0  0  0  0  0
   18.2794    0.0728   10.4969 O   0  0  0  0  0  0  0  0  0  0  0  0
   18.7543    1.2707   11.1367 C   0  0  1  0  0  0  0  0  0  0  0  0
   20.4355    7.4926   10.5764 N   0  0  0  0  0  0  0  0  0  0  0  0
   18.4443    1.2831   12.5391 O   0  0  0  0  0  0  0  0  0  0  0  0
   17.1751    1.8792   12.8454 C   0  0  2  0  0  0  0  0  0  0  0  0
   19.9273    4.1279   15.5190 N   0  0  0  0  0  0  0  0  0  0  0  0
   16.0077   -0.1954   12.4262 O   0  0  0  0  0  0  0  0  0  0  0  0
   16.1189    1.1637   11.9952 C   0  0  1  0  0  0  0  0  0  0  0  0
   18.0152    4.1061   13.4907 O   0  0  0  0  0  0  0  0  0  0  0  0
   14.7576    1.8485   12.1324 C   0  0  1  0  0  0  0  0  0  0  0  0
   19.4639    5.1877   11.9842 O   0  0  0  0  0  0  0  0  0  0  0  0
   14.8609    3.2791   11.6034 C   0  0  0  0  0  0  0  0  0  0  0  0
   19.0073    8.4747   13.5536 O   0  0  0  0  0  0  0  0  0  0  0  0
   15.8767    4.0547   12.4474 C   0  0  1  0  0  0  0  0  0  0  0  0
   20.4045    6.9964   15.5851 O   0  0  0  0  0  0  0  0  0  0  0  0
   17.2463    3.3690   12.5241 C   0  0  2  0  0  0  0  0  0  0  0  0
   20.9237    2.4333   11.1348 O   0  0  0  0  0  0  0  0  0  0  0  0
   19.3889    4.3200   13.1305 C   0  0  1  0  0  0  0  0  0  0  0  0
   20.2301    1.8136    8.6584 O   0  0  0  0  0  0  0  0  0  0  0  0
   18.8818    6.4864   12.1883 C   0  0  2  0  0  0  0  0  0  0  0  0
   19.0126    7.3028   10.9004 C   0  0  0  0  0  0  0  0  0  0  0  0
   19.6287    7.2099   13.3103 C   0  0  2  0  0  0  0  0  0  0  0  0
   19.5873    6.3716   14.5896 C   0  0  1  0  0  0  0  0  0  0  0  0
   20.1133    4.9593   14.3199 C   0  0  1  0  0  0  0  0  0  0  0  0
   20.2702    1.1713   10.9798 C   0  0  2  0  0  0  0  0  0  0  0  0
   20.3754    0.6932    9.5347 C   0  0  1  0  0  0  0  0  0  0  0  0
  1  3  1  0  0  0  0
  4  1  1  1  0  0  0
  4  6  1  0  0  0  0
  4 31  1  0  0  0  0
  6  7  1  0  0  0  0
  7  9  1  1  0  0  0
  7 30  1  0  0  0  0
  8 26  1  0  0  0  0
 10  9  1  6  0  0  0
 10 13  1  0  0  0  0
 10 21  1  0  0  0  0
 13 12  1  1  0  0  0
 13 15  1  0  0  0  0
 15  2  1  6  0  0  0
 15 17  1  0  0  0  0
 16 25  1  0  0  0  0
 16 23  1  0  0  0  0
 17 19  1  0  0  0  0
 19  5  1  6  0  0  0
 19 21  1  0  0  0  0
 21 14  1  1  0  0  0
 23 14  1  1  0  0  0
 23 29  1  0  0  0  0
 25 26  1  6  0  0  0
 25 27  1  0  0  0  0
 27 18  1  1  0  0  0
 27 28  1  0  0  0  0
 28 20  1  1  0  0  0
 28 29  1  0  0  0  0
 29 11  1  1  0  0  0
 30 22  1  6  0  0  0
 30 31  1  0  0  0  0
 31 24  1  6  0  0  0
M  END
>  <CHROM.1>
59.40665807,-89.98575977,53.77478441,66.49509700,95.61484062,-62.07637113
18.42558073,3.17550120,11.97529229,-1.75498566,0.27729833,0.44876870

>  <Name>
ligand

>  <RI>
0

>  <Rbt.Current_Directory>
/home/itssahil/PROJECTS/Mol_Feturizer/New_Systems/rnas/3DVV

>  <Rbt.Executable>
rbdock ($Id: //depot/dev/client3/rdock/2013.1/src/exe/rbdock.cxx#4 $)

>  <Rbt.Library>
libRbt.so (2013.1, Build901 2013/11/27)

>  <Rbt.Parameter_File>
/export/apps/rDock/src/rDock_2013.1_src/data/scripts/dock_solv.prm

>  <Rbt.Receptor>
prm/blind_docking_40.prm

>  <SCORE>
6.43388

>  <SCORE.INTER>
5.04951

>  <SCORE.INTER.CONST>
1

>  <SCORE.INTER.POLAR>
0

>  <SCORE.INTER.ROT>
6

>  <SCORE.INTER.SOLV>
20.2588

>  <SCORE.INTER.VDW>
-10.9866

>  <SCORE.INTER.norm>
0.162887

>  <SCORE.INTRA>
1.37312

>  <SCORE.INTRA.DIHEDRAL>
-2.17503

>  <SCORE.INTRA.DIHEDRAL.0>
10.8172

>  <SCORE.INTRA.POLAR>
0

>  <SCORE.INTRA.POLAR.0>
0

>  <SCORE.INTRA.REPUL>
0.0603808

>  <SCORE.INTRA.REPUL.0>
0

>  <SCORE.INTRA.SOLV>
-0.309941

>  <SCORE.INTRA.SOLV.lig_0>
-80.3833

>  <SCORE.INTRA.VDW>
2.3137

>  <SCORE.INTRA.VDW.0>
-4.63762

>  <SCORE.INTRA.norm>
0.0442942

>  <SCORE.RESTR>
0.0112512

>  <SCORE.RESTR.CAVITY>
0.0112512

>  <SCORE.RESTR.norm>
0.000362942

>  <SCORE.SYSTEM>
0

>  <SCORE.SYSTEM.CONST>
0

>  <SCORE.SYSTEM.DIHEDRAL>
0

>  <SCORE.SYSTEM.SOLV>
0

>  <SCORE.SYSTEM.norm>
0

>  <SCORE.heavy>
31

>  <SCORE.norm>
0.207545

>  <RMSD>
7.168

$$$$
ligand
 OpenBabel11021811473D
libRbt.so/2013.1/901 2013/11/27
 31 33  0  0  0  0  0  0  0  0999 V2000
   19.2556    8.5528    9.2180 C   0  0  0  0  0  0  0  0  0  0  0  0
   21.7172    5.4881   17.1164 N   0  0  0  0  0  0  0  0  0  0  0  0
   20.5464    8.5698    9.8363 O   0  0  0  0  0  0  0  0  0  0  0  0
   18.2305    7.9084   10.1545 C   0  0  1  0  0  0  0  0  0  0  0  0
   19.2485    1.8172   15.0347 N   0  0  0  0  0  0  0  0  0  0  0  0
   18.7386    6.6595   10.6632 O   0  0  0  0  0  0  0  0  0  0  0  0
   18.6851    6.6942   12.1004 C   0  0  1  0  0  0  0  0  0  0  0  0
   20.1724    0.1655   11.8535 N   0  0  0  0  0  0  0  0  0  0  0  0
   19.7681    5.9582   12.6907 O   0  0  0  0  0  0  0  0  0  0  0  0
   19.4867    5.4763   14.0130 C   0  0  2  0  0  0  0  0  0  0  0  0
   15.6480    4.7811   12.1211 N   0  0  0  0  0  0  0  0  0  0  0  0
   20.8752    7.1808   15.0177 O   0  0  0  0  0  0  0  0  0  0  0  0
   20.7207    5.7661   14.8754 C   0  0  1  0  0  0  0  0  0  0  0  0
   17.8930    3.7057   13.3758 O   0  0  0  0  0  0  0  0  0  0  0  0
   20.5745    5.1337   16.2609 C   0  0  1  0  0  0  0  0  0  0  0  0
   18.5370    2.5417   11.4345 O   0  0  0  0  0  0  0  0  0  0  0  0
   20.4824    3.6150   16.1111 C   0  0  0  0  0  0  0  0  0  0  0  0
   15.9843   -0.0594   11.8744 O   0  0  0  0  0  0  0  0  0  0  0  0
   19.2381    3.2658   15.2893 C   0  0  1  0  0  0  0  0  0  0  0  0
   14.4094    2.2781   11.3080 O   0  0  0  0  0  0  0  0  0  0  0  0
   19.1895    3.9819   13.9341 C   0  0  2  0  0  0  0  0  0  0  0  0
   18.4261    8.5190   13.7317 O   0  0  0  0  0  0  0  0  0  0  0  0
   17.8449    3.6982   11.9404 C   0  0  1  0  0  0  0  0  0  0  0  0
   16.6239    8.7637   11.8108 O   0  0  0  0  0  0  0  0  0  0  0  0
   17.9891    1.2873   11.8741 C   0  0  2  0  0  0  0  0  0  0  0  0
   18.8163    0.1436   11.2822 C   0  0  0  0  0  0  0  0  0  0  0  0
   16.5463    1.1599   11.3820 C   0  0  2  0  0  0  0  0  0  0  0  0
   15.7161    2.3408   11.8893 C   0  0  1  0  0  0  0  0  0  0  0  0
   16.3777    3.6653   11.4996 C   0  0  1  0  0  0  0  0  0  0  0  0
   18.8790    8.1750   12.4202 C   0  0  2  0  0  0  0  0  0  0  0  0
   17.9814    8.8134   11.3644 C   0  0  1  0  0  0  0  0  0  0  0  0
  1  3  1  0  0  0  0
  4  1  1  6  0  0  0
  4  6  1  0  0  0  0
  4 31  1  0  0  0  0
  6  7  1  0  0  0  0
  7  9  1  1  0  0  0
  7 30  1  0  0  0  0
  8 26  1  0  0  0  0
 10  9  1  6  0  0  0
 10 13  1  0  0  0  0
 10 21  1  0  0  0  0
 13 12  1  1  0  0  0
 13 15  1  0  0  0  0
 15  2  1  1  0  0  0
 15 17  1  0  0  0  0
 16 25  1  0  0  0  0
 16 23  1  0  0  0  0
 17 19  1  0  0  0  0
 19  5  1  6  0  0  0
 19 21  1  0  0  0  0
 21 14  1  1  0  0  0
 23 14  1  1  0  0  0
 23 29  1  0  0  0  0
 25 26  1  6  0  0  0
 25 27  1  0  0  0  0
 27 18  1  1  0  0  0
 27 28  1  0  0  0  0
 28 20  1  6  0  0  0
 28 29  1  0  0  0  0
 29 11  1  1  0  0  0
 30 22  1  1  0  0  0
 30 31  1  0  0  0  0
 31 24  1  1  0  0  0
M  END
>  <CHROM.1>
-48.92770139,-154.98704764,-135.33366627,70.51742009,83.31868456,66.42325000
18.52417172,4.73964528,12.66638026,1.13050626,-0.88653174,-0.34077604

>  <Name>
ligand

>  <RI>
0

>  <Rbt.Current_Directory>
/home/itssahil/PROJECTS/Mol_Feturizer/New_Systems/rnas/3DVV

>  <Rbt.Executable>
rbdock ($Id: //depot/dev/client3/rdock/2013.1/src/exe/rbdock.cxx#4 $)

>  <Rbt.Library>
libRbt.so (2013.1, Build901 2013/11/27)

>  <Rbt.Parameter_File>
/export/apps/rDock/src/rDock_2013.1_src/data/scripts/dock_solv.prm

>  <Rbt.Receptor>
prm/blind_docking_60.prm

>  <SCORE>
0.350031

>  <SCORE.INTER>
-0.30672

>  <SCORE.INTER.CONST>
1

>  <SCORE.INTER.POLAR>
0

>  <SCORE.INTER.ROT>
6

>  <SCORE.INTER.SOLV>
16.1427

>  <SCORE.INTER.VDW>
-13.1854

>  <SCORE.INTER.norm>
-0.0098942

>  <SCORE.INTRA>
0.6319

>  <SCORE.INTRA.DIHEDRAL>
1.5255

>  <SCORE.INTRA.DIHEDRAL.0>
10.8172

>  <SCORE.INTRA.POLAR>
0

>  <SCORE.INTRA.POLAR.0>
0

>  <SCORE.INTRA.REPUL>
0

>  <SCORE.INTRA.REPUL.0>
0

>  <SCORE.INTRA.SOLV>
-0.518001

>  <SCORE.INTRA.SOLV.lig_0>
-80.3833

>  <SCORE.INTRA.VDW>
0.128149

>  <SCORE.INTRA.VDW.0>
-4.63762

>  <SCORE.INTRA.norm>
0.0203839

>  <SCORE.RESTR>
0.0248508

>  <SCORE.RESTR.CAVITY>
0.0248508

>  <SCORE.RESTR.norm>
0.000801638

>  <SCORE.SYSTEM>
0

>  <SCORE.SYSTEM.CONST>
0

>  <SCORE.SYSTEM.DIHEDRAL>
0

>  <SCORE.SYSTEM.SOLV>
0

>  <SCORE.SYSTEM.norm>
0

>  <SCORE.heavy>
31

>  <SCORE.norm>
0.0112913

>  <RMSD>
7.170

$$$$
ligand
 OpenBabel11021811473D
libRbt.so/2013.1/901 2013/11/27
 31 33  0  0  0  0  0  0  0  0999 V2000
   20.0826    7.5597   10.1024 C   0  0  0  0  0  0  0  0  0  0  0  0
   13.2280    3.9132   12.1893 N   0  0  0  0  0  0  0  0  0  0  0  0
   19.5919    7.7859    8.7769 O   0  0  0  0  0  0  0  0  0  0  0  0
   18.9181    7.5111   11.0949 C   0  0  1  0  0  0  0  0  0  0  0  0
   15.9402    0.0405   10.9445 N   0  0  0  0  0  0  0  0  0  0  0  0
   18.1635    6.2967   10.9161 O   0  0  0  0  0  0  0  0  0  0  0  0
   18.0857    5.6149   12.1806 C   0  0  1  0  0  0  0  0  0  0  0  0
   18.6264    1.5215   14.6051 N   0  0  0  0  0  0  0  0  0  0  0  0
   18.0759    4.1882   12.0156 O   0  0  0  0  0  0  0  0  0  0  0  0
   16.9370    3.6976   11.2929 C   0  0  2  0  0  0  0  0  0  0  0  0
   20.0825    1.2653    8.3452 N   0  0  0  0  0  0  0  0  0  0  0  0
   15.5519    5.5152   12.0805 O   0  0  0  0  0  0  0  0  0  0  0  0
   15.6879    4.0915   12.0897 C   0  0  1  0  0  0  0  0  0  0  0  0
   18.0556    1.8011   10.1824 O   0  0  0  0  0  0  0  0  0  0  0  0
   14.4343    3.4621   11.4788 C   0  0  1  0  0  0  0  0  0  0  0  0
   19.5821    1.9412   11.9681 O   0  0  0  0  0  0  0  0  0  0  0  0
   14.5499    1.9395   11.5557 C   0  0  0  0  0  0  0  0  0  0  0  0
   19.9993   -1.6991   12.1935 O   0  0  0  0  0  0  0  0  0  0  0  0
   15.7631    1.4859   10.7383 C   0  0  1  0  0  0  0  0  0  0  0  0
   21.1914   -1.0857    9.6505 O   0  0  0  0  0  0  0  0  0  0  0  0
   17.0645    2.1837   11.1520 C   0  0  2  0  0  0  0  0  0  0  0  0
   19.3418    5.8258   14.2867 O   0  0  0  0  0  0  0  0  0  0  0  0
   19.4086    2.1133   10.5494 C   0  0  1  0  0  0  0  0  0  0  0  0
   18.6069    8.2187   13.4312 O   0  0  0  0  0  0  0  0  0  0  0  0
   19.3229    0.6067   12.4364 C   0  0  2  0  0  0  0  0  0  0  0  0
   19.5278    0.5585   13.9524 C   0  0  0  0  0  0  0  0  0  0  0  0
   20.3009   -0.3655   11.7743 C   0  0  2  0  0  0  0  0  0  0  0  0
   20.1775   -0.2737   10.2520 C   0  0  1  0  0  0  0  0  0  0  0  0
   20.3515    1.1751    9.7885 C   0  0  1  0  0  0  0  0  0  0  0  0
   19.3898    6.0107   12.8700 C   0  0  2  0  0  0  0  0  0  0  0  0
   19.4508    7.4969   12.5305 C   0  0  1  0  0  0  0  0  0  0  0  0
  1  3  1  0  0  0  0
  4  1  1  6  0  0  0
  4  6  1  0  0  0  0
  4 31  1  0  0  0  0
  6  7  1  0  0  0  0
  7  9  1  6  0  0  0
  7 30  1  0  0  0  0
  8 26  1  0  0  0  0
 10  9  1  1  0  0  0
 10 13  1  0  0  0  0
 10 21  1  0  0  0  0
 13 12  1  6  0  0  0
 13 15  1  0  0  0  0
 15  2  1  1  0  0  0
 15 17  1  0  0  0  0
 16 25  1  0  0  0  0
 16 23  1  0  0  0  0
 17 19  1  0  0  0  0
 19  5  1  1  0  0  0
 19 21  1  0  0  0  0
 21 14  1  6  0  0  0
 23 14  1  1  0  0  0
 23 29  1  0  0  0  0
 25 26  1  1  0  0  0
 25 27  1  0  0  0  0
 27 18  1  1  0  0  0
 27 28  1  0  0  0  0
 28 20  1  6  0  0  0
 28 29  1  0  0  0  0
 29 11  1  6  0  0  0
 30 22  1  1  0  0  0
 30 31  1  0  0  0  0
 31 24  1  1  0  0  0
M  END
>  <CHROM.1>
71.47177017,-62.94261182,-60.60202604,35.91872800,67.45748907,58.64998345
18.26780098,3.26877494,11.53344397,-1.73306521,-0.20117417,-3.07898823

>  <Name>
ligand

>  <RI>
0

>  <Rbt.Current_Directory>
/home/itssahil/PROJECTS/Mol_Feturizer/New_Systems/rnas/3DVV

>  <Rbt.Executable>
rbdock ($Id: //depot/dev/client3/rdock/2013.1/src/exe/rbdock.cxx#4 $)

>  <Rbt.Library>
libRbt.so (2013.1, Build901 2013/11/27)

>  <Rbt.Parameter_File>
/export/apps/rDock/src/rDock_2013.1_src/data/scripts/dock_solv.prm

>  <Rbt.Receptor>
prm/blind_docking_80.prm

>  <SCORE>
-7.25794

>  <SCORE.INTER>
-6.64014

>  <SCORE.INTER.CONST>
1

>  <SCORE.INTER.POLAR>
0

>  <SCORE.INTER.ROT>
6

>  <SCORE.INTER.SOLV>
18.7024

>  <SCORE.INTER.VDW>
-18.2609

>  <SCORE.INTER.norm>
-0.214198

>  <SCORE.INTRA>
-0.617805

>  <SCORE.INTRA.DIHEDRAL>
-7.2605

>  <SCORE.INTRA.DIHEDRAL.0>
10.8172

>  <SCORE.INTRA.POLAR>
0

>  <SCORE.INTRA.POLAR.0>
0

>  <SCORE.INTRA.REPUL>
0

>  <SCORE.INTRA.REPUL.0>
0

>  <SCORE.INTRA.SOLV>
-2.81312

>  <SCORE.INTRA.SOLV.lig_0>
-80.3833

>  <SCORE.INTRA.VDW>
4.41901

>  <SCORE.INTRA.VDW.0>
-4.63762

>  <SCORE.INTRA.norm>
-0.0199292

>  <SCORE.RESTR>
0

>  <SCORE.RESTR.CAVITY>
0

>  <SCORE.RESTR.norm>
0

>  <SCORE.SYSTEM>
0

>  <SCORE.SYSTEM.CONST>
0

>  <SCORE.SYSTEM.DIHEDRAL>
0

>  <SCORE.SYSTEM.SOLV>
0

>  <SCORE.SYSTEM.norm>
0

>  <SCORE.heavy>
31

>  <SCORE.norm>
-0.234127

>  <RMSD>
7.173

$$$$
ligand
 OpenBabel11021811473D
libRbt.so/2013.1/901 2013/11/27
 31 33  0  0  0  0  0  0  0  0999 V2000
   20.4408    1.9051   14.5267 C   0  0  0  0  0  0  0  0  0  0  0  0
   20.0013   10.0856   15.9844 N   0  0  0  0  0  0  0  0  0  0  0  0
   19.3314    2.0364   13.6318 O   0  0  0  0  0  0  0  0  0  0  0  0
   21.2489    3.2048   14.5594 C   0  0  1  0  0  0  0  0  0  0  0  0
   16.4786    7.9966   18.6547 N   0  0  0  0  0  0  0  0  0  0  0  0
   20.4357    4.2827   15.0626 O   0  0  0  0  0  0  0  0  0  0  0  0
   21.1177    4.8914   16.1735 C   0  0  1  0  0  0  0  0  0  0  0  0
   17.0245    4.4934   22.5600 N   0  0  0  0  0  0  0  0  0  0  0  0
   20.1957    5.3759   17.1625 O   0  0  0  0  0  0  0  0  0  0  0  0
   19.3063    6.3915   16.6754 C   0  0  2  0  0  0  0  0  0  0  0  0
   16.1174    3.3040   16.1939 N   0  0  0  0  0  0  0  0  0  0  0  0
   21.1022    7.5258   15.5220 O   0  0  0  0  0  0  0  0  0  0  0  0
   20.1188    7.6854   16.5480 C   0  0  1  0  0  0  0  0  0  0  0  0
   17.2172    5.4522   17.5890 O   0  0  0  0  0  0  0  0  0  0  0  0
   19.2095    8.8641   16.1949 C   0  0  1  0  0  0  0  0  0  0  0  0
   18.2981    4.0274   19.1186 O   0  0  0  0  0  0  0  0  0  0  0  0
   18.2050    9.0786   17.3274 C   0  0  0  0  0  0  0  0  0  0  0  0
   15.2113    3.2987   20.9671 O   0  0  0  0  0  0  0  0  0  0  0  0
   17.3352    7.8263   17.4713 C   0  0  1  0  0  0  0  0  0  0  0  0
   14.7300    2.0509   18.4223 O   0  0  0  0  0  0  0  0  0  0  0  0
   18.1523    6.5427   17.6620 C   0  0  2  0  0  0  0  0  0  0  0  0
   22.9869    4.1683   17.6022 O   0  0  0  0  0  0  0  0  0  0  0  0
   17.7948    4.1505   17.7755 C   0  0  1  0  0  0  0  0  0  0  0  0
   23.5910    3.7725   15.0574 O   0  0  0  0  0  0  0  0  0  0  0  0
   17.2989    4.1879   20.1400 C   0  0  2  0  0  0  0  0  0  0  0  0
   17.9592    4.0490   21.5138 C   0  0  0  0  0  0  0  0  0  0  0  0
   16.2360    3.0980   19.9899 C   0  0  2  0  0  0  0  0  0  0  0  0
   15.6198    3.1595   18.5908 C   0  0  1  0  0  0  0  0  0  0  0  0
   16.7140    3.0942   17.5220 C   0  0  1  0  0  0  0  0  0  0  0  0
   21.9047    3.7301   16.7772 C   0  0  2  0  0  0  0  0  0  0  0  0
   22.4378    3.0611   15.5138 C   0  0  1  0  0  0  0  0  0  0  0  0
  1  3  1  0  0  0  0
  4  1  1  1  0  0  0
  4  6  1  0  0  0  0
  4 31  1  0  0  0  0
  6  7  1  0  0  0  0
  7  9  1  1  0  0  0
  7 30  1  0  0  0  0
  8 26  1  0  0  0  0
 10  9  1  1  0  0  0
 10 13  1  0  0  0  0
 10 21  1  0  0  0  0
 13 12  1  6  0  0  0
 13 15  1  0  0  0  0
 15  2  1  1  0  0  0
 15 17  1  0  0  0  0
 16 25  1  0  0  0  0
 16 23  1  0  0  0  0
 17 19  1  0  0  0  0
 19  5  1  1  0  0  0
 19 21  1  0  0  0  0
 21 14  1  6  0  0  0
 23 14  1  1  0  0  0
 23 29  1  0  0  0  0
 25 26  1  1  0  0  0
 25 27  1  0  0  0  0
 27 18  1  1  0  0  0
 27 28  1  0  0  0  0
 28 20  1  6  0  0  0
 28 29  1  0  0  0  0
 29 11  1  6  0  0  0
 30 22  1  1  0  0  0
 30 31  1  0  0  0  0
 31 24  1  6  0  0  0
M  END
>  <CHROM.1>
62.52947225,-61.51882287,-74.57623606,65.65823717,55.83944221,167.87057733
18.85266502,4.89373219,17.35812135,-0.10296517,-0.69641100,-3.08840566

>  <Name>
ligand

>  <RI>
0

>  <Rbt.Current_Directory>
/home/itssahil/PROJECTS/Mol_Feturizer/New_Systems/rnas/3DVV

>  <Rbt.Executable>
rbdock ($Id: //depot/dev/client3/rdock/2013.1/src/exe/rbdock.cxx#4 $)

>  <Rbt.Library>
libRbt.so (2013.1, Build901 2013/11/27)

>  <Rbt.Parameter_File>
/export/apps/rDock/src/rDock_2013.1_src/data/scripts/dock_solv.prm

>  <Rbt.Receptor>
prm/pocket_docking_4.prm

>  <SCORE>
-8.9801

>  <SCORE.INTER>
-5.63738

>  <SCORE.INTER.CONST>
1

>  <SCORE.INTER.POLAR>
0

>  <SCORE.INTER.ROT>
6

>  <SCORE.INTER.SOLV>
18.4031

>  <SCORE.INTER.VDW>
-17.4926

>  <SCORE.INTER.norm>
-0.181851

>  <SCORE.INTRA>
-3.34272

>  <SCORE.INTRA.DIHEDRAL>
-8.75728

>  <SCORE.INTRA.DIHEDRAL.0>
10.8172

>  <SCORE.INTRA.POLAR>
0

>  <SCORE.INTRA.POLAR.0>
0

>  <SCORE.INTRA.REPUL>
0

>  <SCORE.INTRA.REPUL.0>
0

>  <SCORE.INTRA.SOLV>
-3.68432

>  <SCORE.INTRA.SOLV.lig_0>
-80.3833

>  <SCORE.INTRA.VDW>
2.87808

>  <SCORE.INTRA.VDW.0>
-4.63762

>  <SCORE.INTRA.norm>
-0.10783

>  <SCORE.RESTR>
0

>  <SCORE.RESTR.CAVITY>
0

>  <SCORE.RESTR.norm>
0

>  <SCORE.SYSTEM>
0

>  <SCORE.SYSTEM.CONST>
0

>  <SCORE.SYSTEM.DIHEDRAL>
0

>  <SCORE.SYSTEM.SOLV>
0

>  <SCORE.SYSTEM.norm>
0

>  <SCORE.heavy>
31

>  <SCORE.norm>
-0.289681

>  <RMSD>
7.179

$$$$
ligand
 OpenBabel11021811473D
libRbt.so/2013.1/901 2013/11/27
 31 33  0  0  0  0  0  0  0  0999 V2000
   20.4537    1.8611   14.5344 C   0  0  0  0  0  0  0  0  0  0  0  0
   19.9991   10.0850   15.9964 N   0  0  0  0  0  0  0  0  0  0  0  0
   19.3205    1.9687   13.6667 O   0  0  0  0  0  0  0  0  0  0  0  0
   21.2401    3.1744   14.5404 C   0  0  1  0  0  0  0  0  0  0  0  0
   16.4618    7.9752   18.6308 N   0  0  0  0  0  0  0  0  0  0  0  0
   20.4146    4.2454   15.0384 O   0  0  0  0  0  0  0  0  0  0  0  0
   21.0987    4.8805   16.1331 C   0  0  1  0  0  0  0  0  0  0  0  0
   18.1992    4.9059   21.8657 N   0  0  0  0  0  0  0  0  0  0  0  0
   20.1798    5.3629   17.1261 O   0  0  0  0  0  0  0  0  0  0  0  0
   19.2942    6.3853   16.6461 C   0  0  2  0  0  0  0  0  0  0  0  0
   16.4197    3.3509   15.8696 N   0  0  0  0  0  0  0  0  0  0  0  0
   21.0970    7.5280   15.5116 O   0  0  0  0  0  0  0  0  0  0  0  0
   20.1097    7.6788   16.5354 C   0  0  1  0  0  0  0  0  0  0  0  0
   17.1998    5.4406   17.5415 O   0  0  0  0  0  0  0  0  0  0  0  0
   19.2041    8.8629   16.1910 C   0  0  1  0  0  0  0  0  0  0  0  0
   18.0216    3.9552   19.1713 O   0  0  0  0  0  0  0  0  0  0  0  0
   18.1956    9.0676   17.3217 C   0  0  0  0  0  0  0  0  0  0  0  0
   14.6710    3.0874   20.3948 O   0  0  0  0  0  0  0  0  0  0  0  0
   17.3228    7.8156   17.4491 C   0  0  1  0  0  0  0  0  0  0  0  0
   14.6844    1.9650   17.7481 O   0  0  0  0  0  0  0  0  0  0  0  0
   18.1366    6.5284   17.6296 C   0  0  2  0  0  0  0  0  0  0  0  0
   22.9956    4.2081   17.5499 O   0  0  0  0  0  0  0  0  0  0  0  0
   17.7650    4.1397   17.7668 C   0  0  1  0  0  0  0  0  0  0  0  0
   23.5778    3.7879   15.0039 O   0  0  0  0  0  0  0  0  0  0  0  0
   16.8517    4.0484   20.0019 C   0  0  2  0  0  0  0  0  0  0  0  0
   17.2574    3.8489   21.4641 C   0  0  0  0  0  0  0  0  0  0  0  0
   15.8590    2.9522   19.6103 C   0  0  2  0  0  0  0  0  0  0  0  0
   15.5030    3.0764   18.1274 C   0  0  1  0  0  0  0  0  0  0  0  0
   16.7727    3.0820   17.2720 C   0  0  1  0  0  0  0  0  0  0  0  0
   21.9119    3.7408   16.7433 C   0  0  2  0  0  0  0  0  0  0  0  0
   22.4419    3.0636   15.4830 C   0  0  1  0  0  0  0  0  0  0  0  0
  1  3  1  0  0  0  0
  4  1  1  1  0  0  0
  4  6  1  0  0  0  0
  4 31  1  0  0  0  0
  6  7  1  0  0  0  0
  7  9  1  1  0  0  0
  7 30  1  0  0  0  0
  8 26  1  0  0  0  0
 10  9  1  1  0  0  0
 10 13  1  0  0  0  0
 10 21  1  0  0  0  0
 13 12  1  6  0  0  0
 13 15  1  0  0  0  0
 15  2  1  1  0  0  0
 15 17  1  0  0  0  0
 16 25  1  0  0  0  0
 16 23  1  0  0  0  0
 17 19  1  0  0  0  0
 19  5  1  1  0  0  0
 19 21  1  0  0  0  0
 21 14  1  6  0  0  0
 23 14  1  1  0  0  0
 23 29  1  0  0  0  0
 25 26  1  1  0  0  0
 25 27  1  0  0  0  0
 27 18  1  1  0  0  0
 27 28  1  0  0  0  0
 28 20  1  6  0  0  0
 28 29  1  0  0  0  0
 29 11  1  6  0  0  0
 30 22  1  1  0  0  0
 30 31  1  0  0  0  0
 31 24  1  6  0  0  0
M  END
>  <CHROM.1>
61.62537507,-63.26959236,-74.98138687,74.99491478,58.08267018,61.32100488
18.81365896,4.86991944,17.23028389,-0.08393698,-0.63367783,-3.01434280

>  <Name>
ligand

>  <RI>
0

>  <Rbt.Current_Directory>
/home/itssahil/PROJECTS/Mol_Feturizer/New_Systems/rnas/3DVV

>  <Rbt.Executable>
rbdock ($Id: //depot/dev/client3/rdock/2013.1/src/exe/rbdock.cxx#4 $)

>  <Rbt.Library>
libRbt.so (2013.1, Build901 2013/11/27)

>  <Rbt.Parameter_File>
/export/apps/rDock/src/rDock_2013.1_src/data/scripts/dock_solv.prm

>  <Rbt.Receptor>
prm/pocket_docking_4.prm

>  <SCORE>
-8.83569

>  <SCORE.INTER>
-5.0276

>  <SCORE.INTER.CONST>
1

>  <SCORE.INTER.POLAR>
0

>  <SCORE.INTER.ROT>
6

>  <SCORE.INTER.SOLV>
20.043

>  <SCORE.INTER.VDW>
-17.6327

>  <SCORE.INTER.norm>
-0.162181

>  <SCORE.INTRA>
-3.8081

>  <SCORE.INTRA.DIHEDRAL>
-8.35311

>  <SCORE.INTRA.DIHEDRAL.0>
10.8172

>  <SCORE.INTRA.POLAR>
0

>  <SCORE.INTRA.POLAR.0>
0

>  <SCORE.INTRA.REPUL>
0

>  <SCORE.INTRA.REPUL.0>
0

>  <SCORE.INTRA.SOLV>
-4.10357

>  <SCORE.INTRA.SOLV.lig_0>
-80.3833

>  <SCORE.INTRA.VDW>
2.42024

>  <SCORE.INTRA.VDW.0>
-4.63762

>  <SCORE.INTRA.norm>
-0.122842

>  <SCORE.RESTR>
0

>  <SCORE.RESTR.CAVITY>
0

>  <SCORE.RESTR.norm>
0

>  <SCORE.SYSTEM>
0

>  <SCORE.SYSTEM.CONST>
0

>  <SCORE.SYSTEM.DIHEDRAL>
0

>  <SCORE.SYSTEM.SOLV>
0

>  <SCORE.SYSTEM.norm>
0

>  <SCORE.heavy>
31

>  <SCORE.norm>
-0.285022

>  <RMSD>
7.180

$$$$
ligand
 OpenBabel11021811473D
libRbt.so/2013.1/901 2013/11/27
 31 33  0  0  0  0  0  0  0  0999 V2000
   20.2532    2.0654   14.6224 C   0  0  0  0  0  0  0  0  0  0  0  0
   20.0716   10.1810   15.6031 N   0  0  0  0  0  0  0  0  0  0  0  0
   20.8265    0.9961   13.8629 O   0  0  0  0  0  0  0  0  0  0  0  0
   21.1790    3.2842   14.5995 C   0  0  1  0  0  0  0  0  0  0  0  0
   16.7583    8.3029   18.6688 N   0  0  0  0  0  0  0  0  0  0  0  0
   20.4860    4.4438   15.1011 O   0  0  0  0  0  0  0  0  0  0  0  0
   21.2572    5.0093   16.1760 C   0  0  1  0  0  0  0  0  0  0  0  0
   17.0945    4.6693   22.7780 N   0  0  0  0  0  0  0  0  0  0  0  0
   20.4167    5.5985   17.1806 O   0  0  0  0  0  0  0  0  0  0  0  0
   19.4819    6.5568   16.6631 C   0  0  2  0  0  0  0  0  0  0  0  0
   16.4885    3.4714   16.4011 N   0  0  0  0  0  0  0  0  0  0  0  0
   21.1830    7.6019   15.3006 O   0  0  0  0  0  0  0  0  0  0  0  0
   20.2635    7.8425   16.3693 C   0  0  1  0  0  0  0  0  0  0  0  0
   17.4700    5.6810   17.7885 O   0  0  0  0  0  0  0  0  0  0  0  0
   19.3146    8.9750   15.9717 C   0  0  1  0  0  0  0  0  0  0  0  0
   18.5426    4.3222   19.3827 O   0  0  0  0  0  0  0  0  0  0  0  0
   18.3800    9.2796   17.1426 C   0  0  0  0  0  0  0  0  0  0  0  0
   15.4188    3.5285   21.1400 O   0  0  0  0  0  0  0  0  0  0  0  0
   17.5415    8.0361   17.4528 C   0  0  1  0  0  0  0  0  0  0  0  0
   15.0658    2.2169   18.6063 O   0  0  0  0  0  0  0  0  0  0  0  0
   18.3899    6.7836   17.7042 C   0  0  2  0  0  0  0  0  0  0  0  0
   23.0966    4.1449   17.5642 O   0  0  0  0  0  0  0  0  0  0  0  0
   18.0822    4.4028   18.0210 C   0  0  1  0  0  0  0  0  0  0  0  0
   23.5786    3.6410   15.0124 O   0  0  0  0  0  0  0  0  0  0  0  0
   17.5041    4.4695   20.3661 C   0  0  2  0  0  0  0  0  0  0  0  0
   18.1207    4.3788   21.7640 C   0  0  0  0  0  0  0  0  0  0  0  0
   16.4825    3.3427   20.2024 C   0  0  2  0  0  0  0  0  0  0  0  0
   15.9133    3.3570   18.7822 C   0  0  1  0  0  0  0  0  0  0  0  0
   17.0453    3.3070   17.7526 C   0  0  1  0  0  0  0  0  0  0  0  0
   21.9523    3.7925   16.7832 C   0  0  2  0  0  0  0  0  0  0  0  0
   22.3798    3.0502   15.5206 C   0  0  1  0  0  0  0  0  0  0  0  0
  1  3  1  0  0  0  0
  4  1  1  1  0  0  0
  4  6  1  0  0  0  0
  4 31  1  0  0  0  0
  6  7  1  0  0  0  0
  7  9  1  1  0  0  0
  7 30  1  0  0  0  0
  8 26  1  0  0  0  0
 10  9  1  1  0  0  0
 10 13  1  0  0  0  0
 10 21  1  0  0  0  0
 13 12  1  6  0  0  0
 13 15  1  0  0  0  0
 15  2  1  1  0  0  0
 15 17  1  0  0  0  0
 16 25  1  0  0  0  0
 16 23  1  0  0  0  0
 17 19  1  0  0  0  0
 19  5  1  1  0  0  0
 19 21  1  0  0  0  0
 21 14  1  6  0  0  0
 23 14  1  1  0  0  0
 23 29  1  0  0  0  0
 25 26  1  1  0  0  0
 25 27  1  0  0  0  0
 27 18  1  1  0  0  0
 27 28  1  0  0  0  0
 28 20  1  1  0  0  0
 28 29  1  0  0  0  0
 29 11  1  6  0  0  0
 30 22  1  1  0  0  0
 30 31  1  0  0  0  0
 31 24  1  6  0  0  0
M  END
>  <CHROM.1>
167.30360652,-53.55400024,-76.22902348,73.09798607,54.42410318,174.05346830
19.05878694,5.01476933,17.41710084,-0.08356021,-0.74854342,3.09850953

>  <Name>
ligand

>  <RI>
0

>  <Rbt.Current_Directory>
/home/itssahil/PROJECTS/Mol_Feturizer/New_Systems/rnas/3DVV

>  <Rbt.Executable>
rbdock ($Id: //depot/dev/client3/rdock/2013.1/src/exe/rbdock.cxx#4 $)

>  <Rbt.Library>
libRbt.so (2013.1, Build901 2013/11/27)

>  <Rbt.Parameter_File>
/export/apps/rDock/src/rDock_2013.1_src/data/scripts/dock_solv.prm

>  <Rbt.Receptor>
prm/pocket_docking_5.prm

>  <SCORE>
-8.65254

>  <SCORE.INTER>
-6.38367

>  <SCORE.INTER.CONST>
1

>  <SCORE.INTER.POLAR>
0

>  <SCORE.INTER.ROT>
6

>  <SCORE.INTER.SOLV>
19.9514

>  <SCORE.INTER.VDW>
-18.5063

>  <SCORE.INTER.norm>
-0.205925

>  <SCORE.INTRA>
-2.27197

>  <SCORE.INTRA.DIHEDRAL>
-7.48845

>  <SCORE.INTRA.DIHEDRAL.0>
10.8172

>  <SCORE.INTRA.POLAR>
0

>  <SCORE.INTRA.POLAR.0>
0

>  <SCORE.INTRA.REPUL>
0

>  <SCORE.INTRA.REPUL.0>
0

>  <SCORE.INTRA.SOLV>
-3.27269

>  <SCORE.INTRA.SOLV.lig_0>
-80.3833

>  <SCORE.INTRA.VDW>
3.1086

>  <SCORE.INTRA.VDW.0>
-4.63762

>  <SCORE.INTRA.norm>
-0.0732892

>  <SCORE.RESTR>
0.00309101

>  <SCORE.RESTR.CAVITY>
0.00309101

>  <SCORE.RESTR.norm>
9.971e-05

>  <SCORE.SYSTEM>
0

>  <SCORE.SYSTEM.CONST>
0

>  <SCORE.SYSTEM.DIHEDRAL>
0

>  <SCORE.SYSTEM.SOLV>
0

>  <SCORE.SYSTEM.norm>
0

>  <SCORE.heavy>
31

>  <SCORE.norm>
-0.279114

>  <RMSD>
7.183

$$$$
ligand
 OpenBabel11021811473D
libRbt.so/2013.1/901 2013/11/27
 31 33  0  0  0  0  0  0  0  0999 V2000
   21.4995    0.5177    9.0194 C   0  0  0  0  0  0  0  0  0  0  0  0
   13.7197    0.9898   11.3145 N   0  0  0  0  0  0  0  0  0  0  0  0
   22.2646   -0.6665    9.2666 O   0  0  0  0  0  0  0  0  0  0  0  0
   20.0031    0.1992    9.0707 C   0  0  1  0  0  0  0  0  0  0  0  0
   15.9234    5.2988   12.0076 N   0  0  0  0  0  0  0  0  0  0  0  0
   19.5902   -0.0289   10.4322 O   0  0  0  0  0  0  0  0  0  0  0  0
   18.4920    0.8509   10.7317 C   0  0  1  0  0  0  0  0  0  0  0  0
   20.5900    7.2935   10.5510 N   0  0  0  0  0  0  0  0  0  0  0  0
   18.5055    1.2695   12.1056 O   0  0  0  0  0  0  0  0  0  0  0  0
   17.2439    1.7730   12.5690 C   0  0  2  0  0  0  0  0  0  0  0  0
   19.9955    3.7484   15.3527 N   0  0  0  0  0  0  0  0  0  0  0  0
   16.1265   -0.3023   12.0333 O   0  0  0  0  0  0  0  0  0  0  0  0
   16.1496    1.0963   11.7353 C   0  0  1  0  0  0  0  0  0  0  0  0
   18.0480    3.9624   13.3698 O   0  0  0  0  0  0  0  0  0  0  0  0
   14.7789    1.7003   12.0472 C   0  0  1  0  0  0  0  0  0  0  0  0
   19.5278    5.0554   11.9023 O   0  0  0  0  0  0  0  0  0  0  0  0
   14.7833    3.1792   11.6599 C   0  0  0  0  0  0  0  0  0  0  0  0
   19.2884    8.2561   13.6839 O   0  0  0  0  0  0  0  0  0  0  0  0
   15.8346    3.9145   12.4966 C   0  0  1  0  0  0  0  0  0  0  0  0
   20.6365    6.5759   15.5877 O   0  0  0  0  0  0  0  0  0  0  0  0
   17.2311    3.2889   12.3962 C   0  0  2  0  0  0  0  0  0  0  0  0
   17.6114    2.8750    9.6428 O   0  0  0  0  0  0  0  0  0  0  0  0
   19.4248    4.1220   12.9934 C   0  0  1  0  0  0  0  0  0  0  0  0
   18.0246    0.9864    7.8372 O   0  0  0  0  0  0  0  0  0  0  0  0
   19.0245    6.3688   12.2001 C   0  0  2  0  0  0  0  0  0  0  0  0
   19.1778    7.2571   10.9632 C   0  0  0  0  0  0  0  0  0  0  0  0
   19.8321    6.9767   13.3484 C   0  0  2  0  0  0  0  0  0  0  0  0
   19.7668    6.0621   14.5733 C   0  0  1  0  0  0  0  0  0  0  0  0
   20.2064    4.6429   14.2042 C   0  0  1  0  0  0  0  0  0  0  0  0
   18.7731    2.0693    9.8547 C   0  0  2  0  0  0  0  0  0  0  0  0
   19.1935    1.3919    8.5538 C   0  0  1  0  0  0  0  0  0  0  0  0
  1  3  1  0  0  0  0
  4  1  1  1  0  0  0
  4  6  1  0  0  0  0
  4 31  1  0  0  0  0
  6  7  1  0  0  0  0
  7  9  1  1  0  0  0
  7 30  1  0  0  0  0
  8 26  1  0  0  0  0
 10  9  1  6  0  0  0
 10 13  1  0  0  0  0
 10 21  1  0  0  0  0
 13 12  1  1  0  0  0
 13 15  1  0  0  0  0
 15  2  1  6  0  0  0
 15 17  1  0  0  0  0
 16 25  1  0  0  0  0
 16 23  1  0  0  0  0
 17 19  1  0  0  0  0
 19  5  1  6  0  0  0
 19 21  1  0  0  0  0
 21 14  1  1  0  0  0
 23 14  1  1  0  0  0
 23 29  1  0  0  0  0
 25 26  1  6  0  0  0
 25 27  1  0  0  0  0
 27 18  1  1  0  0  0
 27 28  1  0  0  0  0
 28 20  1  1  0  0  0
 28 29  1  0  0  0  0
 29 11  1  1  0  0  0
 30 22  1  6  0  0  0
 30 31  1  0  0  0  0
 31 24  1  1  0  0  0
M  END
>  <CHROM.1>
72.85732277,-160.94225379,27.51676256,68.64213202,88.03371743,-57.21055484
18.45673761,3.23112443,11.71360133,-1.75518004,0.26538769,0.58335178

>  <Name>
ligand

>  <RI>
0

>  <Rbt.Current_Directory>
/home/itssahil/PROJECTS/Mol_Feturizer/New_Systems/rnas/3DVV

>  <Rbt.Executable>
rbdock ($Id: //depot/dev/client3/rdock/2013.1/src/exe/rbdock.cxx#4 $)

>  <Rbt.Library>
libRbt.so (2013.1, Build901 2013/11/27)

>  <Rbt.Parameter_File>
/export/apps/rDock/src/rDock_2013.1_src/data/scripts/dock_solv.prm

>  <Rbt.Receptor>
prm/blind_docking_40.prm

>  <SCORE>
6.87215

>  <SCORE.INTER>
2.21984

>  <SCORE.INTER.CONST>
1

>  <SCORE.INTER.POLAR>
0

>  <SCORE.INTER.ROT>
6

>  <SCORE.INTER.SOLV>
23.0434

>  <SCORE.INTER.VDW>
-13.8012

>  <SCORE.INTER.norm>
0.0716079

>  <SCORE.INTRA>
4.61612

>  <SCORE.INTRA.DIHEDRAL>
-0.788045

>  <SCORE.INTRA.DIHEDRAL.0>
10.8172

>  <SCORE.INTRA.POLAR>
0

>  <SCORE.INTRA.POLAR.0>
0

>  <SCORE.INTRA.REPUL>
0

>  <SCORE.INTRA.REPUL.0>
0

>  <SCORE.INTRA.SOLV>
-0.209401

>  <SCORE.INTRA.SOLV.lig_0>
-80.3833

>  <SCORE.INTRA.VDW>
5.11484

>  <SCORE.INTRA.VDW.0>
-4.63762

>  <SCORE.INTRA.norm>
0.148907

>  <SCORE.RESTR>
0.0361885

>  <SCORE.RESTR.CAVITY>
0.0361885

>  <SCORE.RESTR.norm>
0.00116737

>  <SCORE.SYSTEM>
0

>  <SCORE.SYSTEM.CONST>
0

>  <SCORE.SYSTEM.DIHEDRAL>
0

>  <SCORE.SYSTEM.SOLV>
0

>  <SCORE.SYSTEM.norm>
0

>  <SCORE.heavy>
31

>  <SCORE.norm>
0.221682

>  <RMSD>
7.193

$$$$
ligand
 OpenBabel11021811473D
libRbt.so/2013.1/901 2013/11/27
 31 33  0  0  0  0  0  0  0  0999 V2000
   20.3749    1.8847   14.5620 C   0  0  0  0  0  0  0  0  0  0  0  0
   20.1567   10.0944   15.9686 N   0  0  0  0  0  0  0  0  0  0  0  0
   19.2062    2.0246   13.7476 O   0  0  0  0  0  0  0  0  0  0  0  0
   21.1898    3.1804   14.5426 C   0  0  1  0  0  0  0  0  0  0  0  0
   16.7088    8.1267   18.8223 N   0  0  0  0  0  0  0  0  0  0  0  0
   20.4054    4.2683   15.0698 O   0  0  0  0  0  0  0  0  0  0  0  0
   21.1403    4.8861   16.1412 C   0  0  1  0  0  0  0  0  0  0  0  0
   17.1813    4.8186   22.7488 N   0  0  0  0  0  0  0  0  0  0  0  0
   20.2668    5.3867   17.1656 O   0  0  0  0  0  0  0  0  0  0  0  0
   19.3854    6.4266   16.7164 C   0  0  2  0  0  0  0  0  0  0  0  0
   16.1220    3.3872   16.4568 N   0  0  0  0  0  0  0  0  0  0  0  0
   21.1556    7.5000   15.4688 O   0  0  0  0  0  0  0  0  0  0  0  0
   20.2293    7.6945   16.5409 C   0  0  1  0  0  0  0  0  0  0  0  0
   17.3166    5.5558   17.7376 O   0  0  0  0  0  0  0  0  0  0  0  0
   19.3397    8.8986   16.2256 C   0  0  1  0  0  0  0  0  0  0  0  0
   18.3775    4.1632   19.3103 O   0  0  0  0  0  0  0  0  0  0  0  0
   18.3994    9.1491   17.4048 C   0  0  0  0  0  0  0  0  0  0  0  0
   15.3023    3.6194   21.2399 O   0  0  0  0  0  0  0  0  0  0  0  0
   17.5003    7.9246   17.5992 C   0  0  1  0  0  0  0  0  0  0  0  0
   14.7344    2.2794   18.7607 O   0  0  0  0  0  0  0  0  0  0  0  0
   18.2867    6.6176   17.7576 C   0  0  2  0  0  0  0  0  0  0  0  0
   23.0694    4.1697   17.4915 O   0  0  0  0  0  0  0  0  0  0  0  0
   17.8544    4.2448   17.9716 C   0  0  1  0  0  0  0  0  0  0  0  0
   23.5548    3.7416   14.9265 O   0  0  0  0  0  0  0  0  0  0  0  0
   17.4028    4.4013   20.3401 C   0  0  2  0  0  0  0  0  0  0  0  0
   18.0827    4.3000   21.7075 C   0  0  0  0  0  0  0  0  0  0  0  0
   16.3020    3.3423   20.2557 C   0  0  2  0  0  0  0  0  0  0  0  0
   15.6631    3.3637   18.8655 C   0  0  1  0  0  0  0  0  0  0  0  0
   16.7352    3.2153   17.7827 C   0  0  1  0  0  0  0  0  0  0  0  0
   21.9487    3.7277   16.7219 C   0  0  2  0  0  0  0  0  0  0  0  0
   22.4203    3.0415   15.4434 C   0  0  1  0  0  0  0  0  0  0  0  0
  1  3  1  0  0  0  0
  4  1  1  1  0  0  0
  4  6  1  0  0  0  0
  4 31  1  0  0  0  0
  6  7  1  0  0  0  0
  7  9  1  1  0  0  0
  7 30  1  0  0  0  0
  8 26  1  0  0  0  0
 10  9  1  1  0  0  0
 10 13  1  0  0  0  0
 10 21  1  0  0  0  0
 13 12  1  6  0  0  0
 13 15  1  0  0  0  0
 15  2  1  1  0  0  0
 15 17  1  0  0  0  0
 16 25  1  0  0  0  0
 16 23  1  0  0  0  0
 17 19  1  0  0  0  0
 19  5  1  1  0  0  0
 19 21  1  0  0  0  0
 21 14  1  6  0  0  0
 23 14  1  1  0  0  0
 23 29  1  0  0  0  0
 25 26  1  1  0  0  0
 25 27  1  0  0  0  0
 27 18  1  1  0  0  0
 27 28  1  0  0  0  0
 28 20  1  1  0  0  0
 28 29  1  0  0  0  0
 29 11  1  6  0  0  0
 30 22  1  6  0  0  0
 30 31  1  0  0  0  0
 31 24  1  6  0  0  0
M  END
>  <CHROM.1>
60.87723501,-63.10533509,-73.52430765,65.19205987,58.85958293,167.95758148
18.91531459,4.97867413,17.45426884,-0.02741304,-0.73623485,-3.05520721

>  <Name>
ligand

>  <RI>
0

>  <Rbt.Current_Directory>
/home/itssahil/PROJECTS/Mol_Feturizer/New_Systems/rnas/3DVV

>  <Rbt.Executable>
rbdock ($Id: //depot/dev/client3/rdock/2013.1/src/exe/rbdock.cxx#4 $)

>  <Rbt.Library>
libRbt.so (2013.1, Build901 2013/11/27)

>  <Rbt.Parameter_File>
/export/apps/rDock/src/rDock_2013.1_src/data/scripts/dock_solv.prm

>  <Rbt.Receptor>
prm/pocket_docking_6.prm

>  <SCORE>
-8.7683

>  <SCORE.INTER>
-5.27299

>  <SCORE.INTER.CONST>
1

>  <SCORE.INTER.POLAR>
0

>  <SCORE.INTER.ROT>
6

>  <SCORE.INTER.SOLV>
18.9453

>  <SCORE.INTER.VDW>
-17.4304

>  <SCORE.INTER.norm>
-0.170096

>  <SCORE.INTRA>
-3.49531

>  <SCORE.INTRA.DIHEDRAL>
-8.98549

>  <SCORE.INTRA.DIHEDRAL.0>
10.8172

>  <SCORE.INTRA.POLAR>
0

>  <SCORE.INTRA.POLAR.0>
0

>  <SCORE.INTRA.REPUL>
0

>  <SCORE.INTRA.REPUL.0>
0

>  <SCORE.INTRA.SOLV>
-3.65398

>  <SCORE.INTRA.SOLV.lig_0>
-80.3833

>  <SCORE.INTRA.VDW>
2.82442

>  <SCORE.INTRA.VDW.0>
-4.63762

>  <SCORE.INTRA.norm>
-0.112752

>  <SCORE.RESTR>
0

>  <SCORE.RESTR.CAVITY>
0

>  <SCORE.RESTR.norm>
0

>  <SCORE.SYSTEM>
0

>  <SCORE.SYSTEM.CONST>
0

>  <SCORE.SYSTEM.DIHEDRAL>
0

>  <SCORE.SYSTEM.SOLV>
0

>  <SCORE.SYSTEM.norm>
0

>  <SCORE.heavy>
31

>  <SCORE.norm>
-0.282848

>  <RMSD>
7.193

$$$$
ligand
 OpenBabel11021811473D
libRbt.so/2013.1/901 2013/11/27
 31 33  0  0  0  0  0  0  0  0999 V2000
   18.6781   11.5543   11.8390 C   0  0  0  0  0  0  0  0  0  0  0  0
   17.5884    9.6080   16.7206 N   0  0  0  0  0  0  0  0  0  0  0  0
   18.5435   12.0419   13.1780 O   0  0  0  0  0  0  0  0  0  0  0  0
   19.7124   10.4270   11.7894 C   0  0  1  0  0  0  0  0  0  0  0  0
   21.5593    6.8507   15.9907 N   0  0  0  0  0  0  0  0  0  0  0  0
   19.3508    9.3803   12.7115 O   0  0  0  0  0  0  0  0  0  0  0  0
   19.2927    8.1357   11.9922 C   0  0  1  0  0  0  0  0  0  0  0  0
   16.4827    2.7224   11.7750 N   0  0  0  0  0  0  0  0  0  0  0  0
   18.2848    7.2612   12.5235 O   0  0  0  0  0  0  0  0  0  0  0  0
   18.3570    7.0933   13.9471 C   0  0  2  0  0  0  0  0  0  0  0  0
   21.1075    3.3044   15.5496 N   0  0  0  0  0  0  0  0  0  0  0  0
   16.5156    8.6183   14.3023 O   0  0  0  0  0  0  0  0  0  0  0  0
   17.9022    8.4113   14.5847 C   0  0  1  0  0  0  0  0  0  0  0  0
   20.1469    5.3973   13.9787 O   0  0  0  0  0  0  0  0  0  0  0  0
   18.1081    8.3797   16.1005 C   0  0  1  0  0  0  0  0  0  0  0  0
   18.1816    4.2186   13.4434 O   0  0  0  0  0  0  0  0  0  0  0  0
   19.5999    8.2312   16.4004 C   0  0  0  0  0  0  0  0  0  0  0  0
   19.8773    2.0417   11.0222 O   0  0  0  0  0  0  0  0  0  0  0  0
   20.0995    6.9052   15.8194 C   0  0  1  0  0  0  0  0  0  0  0  0
   21.0305    1.2186   13.5237 O   0  0  0  0  0  0  0  0  0  0  0  0
   19.7944    6.7482   14.3247 C   0  0  2  0  0  0  0  0  0  0  0  0
   19.1686    7.5794    9.5979 O   0  0  0  0  0  0  0  0  0  0  0  0
   19.2170    4.3989   14.4272 C   0  0  1  0  0  0  0  0  0  0  0  0
   21.0545    9.3888   10.0071 O   0  0  0  0  0  0  0  0  0  0  0  0
   18.6590    3.7919   12.1560 C   0  0  2  0  0  0  0  0  0  0  0  0
   17.4706    3.6505   11.2020 C   0  0  0  0  0  0  0  0  0  0  0  0
   19.3483    2.4330   12.2919 C   0  0  2  0  0  0  0  0  0  0  0  0
   20.4884    2.5258   13.3081 C   0  0  1  0  0  0  0  0  0  0  0  0
   19.9743    3.0835   14.6380 C   0  0  1  0  0  0  0  0  0  0  0  0
   18.8673    8.5641   10.5894 C   0  0  2  0  0  0  0  0  0  0  0  0
   19.7404    9.7998   10.3927 C   0  0  1  0  0  0  0  0  0  0  0  0
  1  3  1  0  0  0  0
  4  1  1  6  0  0  0
  4  6  1  0  0  0  0
  4 31  1  0  0  0  0
  6  7  1  0  0  0  0
  7  9  1  1  0  0  0
  7 30  1  0  0  0  0
  8 26  1  0  0  0  0
 10  9  1  6  0  0  0
 10 13  1  0  0  0  0
 10 21  1  0  0  0  0
 13 12  1  1  0  0  0
 13 15  1  0  0  0  0
 15  2  1  1  0  0  0
 15 17  1  0  0  0  0
 16 25  1  0  0  0  0
 16 23  1  0  0  0  0
 17 19  1  0  0  0  0
 19  5  1  6  0  0  0
 19 21  1  0  0  0  0
 21 14  1  1  0  0  0
 23 14  1  6  0  0  0
 23 29  1  0  0  0  0
 25 26  1  6  0  0  0
 25 27  1  0  0  0  0
 27 18  1  6  0  0  0
 27 28  1  0  0  0  0
 28 20  1  1  0  0  0
 28 29  1  0  0  0  0
 29 11  1  1  0  0  0
 30 22  1  6  0  0  0
 30 31  1  0  0  0  0
 31 24  1  1  0  0  0
M  END
>  <CHROM.1>
55.94095461,-50.06996770,71.24537014,87.55859877,-50.23729569,-56.20570182
19.16715054,6.58261062,13.19106797,2.86370917,-1.47172581,1.25632445

>  <Name>
ligand

>  <RI>
0

>  <Rbt.Current_Directory>
/home/itssahil/PROJECTS/Mol_Feturizer/New_Systems/rnas/3DVV

>  <Rbt.Executable>
rbdock ($Id: //depot/dev/client3/rdock/2013.1/src/exe/rbdock.cxx#4 $)

>  <Rbt.Library>
libRbt.so (2013.1, Build901 2013/11/27)

>  <Rbt.Parameter_File>
/export/apps/rDock/src/rDock_2013.1_src/data/scripts/dock_solv.prm

>  <Rbt.Receptor>
prm/blind_docking_100.prm

>  <SCORE>
-0.161872

>  <SCORE.INTER>
-1.9379

>  <SCORE.INTER.CONST>
1

>  <SCORE.INTER.POLAR>
0

>  <SCORE.INTER.ROT>
6

>  <SCORE.INTER.SOLV>
14.6975

>  <SCORE.INTER.VDW>
-13.7911

>  <SCORE.INTER.norm>
-0.0625127

>  <SCORE.INTRA>
1.43339

>  <SCORE.INTRA.DIHEDRAL>
-5.78554

>  <SCORE.INTRA.DIHEDRAL.0>
10.8172

>  <SCORE.INTRA.POLAR>
0

>  <SCORE.INTRA.POLAR.0>
0

>  <SCORE.INTRA.REPUL>
0

>  <SCORE.INTRA.REPUL.0>
0

>  <SCORE.INTRA.SOLV>
-1.06024

>  <SCORE.INTRA.SOLV.lig_0>
-80.3833

>  <SCORE.INTRA.VDW>
4.85628

>  <SCORE.INTRA.VDW.0>
-4.63762

>  <SCORE.INTRA.norm>
0.0462385

>  <SCORE.RESTR>
0.342629

>  <SCORE.RESTR.CAVITY>
0.342629

>  <SCORE.RESTR.norm>
0.0110526

>  <SCORE.SYSTEM>
0

>  <SCORE.SYSTEM.CONST>
0

>  <SCORE.SYSTEM.DIHEDRAL>
0

>  <SCORE.SYSTEM.SOLV>
0

>  <SCORE.SYSTEM.norm>
0

>  <SCORE.heavy>
31

>  <SCORE.norm>
-0.00522166

>  <RMSD>
7.205

$$$$
ligand
 OpenBabel11021811473D
libRbt.so/2013.1/901 2013/11/27
 31 33  0  0  0  0  0  0  0  0999 V2000
   16.5021    9.2474   12.3376 C   0  0  0  0  0  0  0  0  0  0  0  0
   21.9926    5.4317   16.7926 N   0  0  0  0  0  0  0  0  0  0  0  0
   15.9675   10.5162   11.9463 O   0  0  0  0  0  0  0  0  0  0  0  0
   17.9535    9.4056   12.7976 C   0  0  1  0  0  0  0  0  0  0  0  0
   19.6964    1.9043   14.3049 N   0  0  0  0  0  0  0  0  0  0  0  0
   18.4339    8.1689   13.3600 O   0  0  0  0  0  0  0  0  0  0  0  0
   19.6419    7.7926   12.6752 C   0  0  1  0  0  0  0  0  0  0  0  0
   20.6620    1.5430   10.1839 N   0  0  0  0  0  0  0  0  0  0  0  0
   19.7726    6.3659   12.5729 O   0  0  0  0  0  0  0  0  0  0  0  0
   19.6016    5.6788   13.8213 C   0  0  2  0  0  0  0  0  0  0  0  0
   15.6341    4.9360   12.2706 N   0  0  0  0  0  0  0  0  0  0  0  0
   20.9111    7.3311   15.0035 O   0  0  0  0  0  0  0  0  0  0  0  0
   20.8559    5.9434   14.6622 C   0  0  1  0  0  0  0  0  0  0  0  0
   18.1131    3.8917   13.0015 O   0  0  0  0  0  0  0  0  0  0  0  0
   20.8344    5.1099   15.9451 C   0  0  1  0  0  0  0  0  0  0  0  0
   18.6915    3.4477   10.7640 O   0  0  0  0  0  0  0  0  0  0  0  0
   20.8488    3.6257   15.5784 C   0  0  0  0  0  0  0  0  0  0  0  0
   16.5407    0.4798   10.5603 O   0  0  0  0  0  0  0  0  0  0  0  0
   19.5910    3.2959   14.7693 C   0  0  1  0  0  0  0  0  0  0  0  0
   14.6378    2.6188   10.8218 O   0  0  0  0  0  0  0  0  0  0  0  0
   19.4139    4.1915   13.5372 C   0  0  2  0  0  0  0  0  0  0  0  0
   20.6632    8.5015   10.5509 O   0  0  0  0  0  0  0  0  0  0  0  0
   17.9176    4.2920   11.6361 C   0  0  1  0  0  0  0  0  0  0  0  0
   19.9150   10.6221   11.9441 O   0  0  0  0  0  0  0  0  0  0  0  0
   18.3521    2.0527   10.8396 C   0  0  2  0  0  0  0  0  0  0  0  0
   19.2488    1.2656    9.8811 C   0  0  0  0  0  0  0  0  0  0  0  0
   16.8930    1.8590   10.4230 C   0  0  2  0  0  0  0  0  0  0  0  0
   15.9799    2.7053   11.3124 C   0  0  1  0  0  0  0  0  0  0  0  0
   16.4280    4.1692   11.2982 C   0  0  1  0  0  0  0  0  0  0  0  0
   19.4369    8.3589   11.2716 C   0  0  2  0  0  0  0  0  0  0  0  0
   18.8523    9.7292   11.6008 C   0  0  1  0  0  0  0  0  0  0  0  0
  1  3  1  0  0  0  0
  4  1  1  6  0  0  0
  4  6  1  0  0  0  0
  4 31  1  0  0  0  0
  6  7  1  0  0  0  0
  7  9  1  6  0  0  0
  7 30  1  0  0  0  0
  8 26  1  0  0  0  0
 10  9  1  6  0  0  0
 10 13  1  0  0  0  0
 10 21  1  0  0  0  0
 13 12  1  1  0  0  0
 13 15  1  0  0  0  0
 15  2  1  1  0  0  0
 15 17  1  0  0  0  0
 16 25  1  0  0  0  0
 16 23  1  0  0  0  0
 17 19  1  0  0  0  0
 19  5  1  6  0  0  0
 19 21  1  0  0  0  0
 21 14  1  1  0  0  0
 23 14  1  1  0  0  0
 23 29  1  0  0  0  0
 25 26  1  6  0  0  0
 25 27  1  0  0  0  0
 27 18  1  1  0  0  0
 27 28  1  0  0  0  0
 28 20  1  6  0  0  0
 28 29  1  0  0  0  0
 29 11  1  1  0  0  0
 30 22  1  1  0  0  0
 30 31  1  0  0  0  0
 31 24  1  1  0  0  0
M  END
>  <CHROM.1>
172.25478712,-50.75456154,-72.99193512,70.82574618,73.45562409,55.08683806
18.69395565,5.34530321,12.50685926,1.30709427,-0.75128182,0.03113179

>  <Name>
ligand

>  <RI>
0

>  <Rbt.Current_Directory>
/home/itssahil/PROJECTS/Mol_Feturizer/New_Systems/rnas/3DVV

>  <Rbt.Executable>
rbdock ($Id: //depot/dev/client3/rdock/2013.1/src/exe/rbdock.cxx#4 $)

>  <Rbt.Library>
libRbt.so (2013.1, Build901 2013/11/27)

>  <Rbt.Parameter_File>
/export/apps/rDock/src/rDock_2013.1_src/data/scripts/dock_solv.prm

>  <Rbt.Receptor>
prm/blind_docking_100.prm

>  <SCORE>
-3.07963

>  <SCORE.INTER>
-0.0948343

>  <SCORE.INTER.CONST>
1

>  <SCORE.INTER.POLAR>
0

>  <SCORE.INTER.ROT>
6

>  <SCORE.INTER.SOLV>
15.9874

>  <SCORE.INTER.VDW>
-12.9924

>  <SCORE.INTER.norm>
-0.00305917

>  <SCORE.INTRA>
-3.14606

>  <SCORE.INTRA.DIHEDRAL>
-7.6568

>  <SCORE.INTRA.DIHEDRAL.0>
10.8172

>  <SCORE.INTRA.POLAR>
0

>  <SCORE.INTRA.POLAR.0>
0

>  <SCORE.INTRA.REPUL>
0

>  <SCORE.INTRA.REPUL.0>
0

>  <SCORE.INTRA.SOLV>
-3.42968

>  <SCORE.INTRA.SOLV.lig_0>
-80.3833

>  <SCORE.INTRA.VDW>
2.39718

>  <SCORE.INTRA.VDW.0>
-4.63762

>  <SCORE.INTRA.norm>
-0.101486

>  <SCORE.RESTR>
0.161266

>  <SCORE.RESTR.CAVITY>
0.161266

>  <SCORE.RESTR.norm>
0.00520211

>  <SCORE.SYSTEM>
0

>  <SCORE.SYSTEM.CONST>
0

>  <SCORE.SYSTEM.DIHEDRAL>
0

>  <SCORE.SYSTEM.SOLV>
0

>  <SCORE.SYSTEM.norm>
0

>  <SCORE.heavy>
31

>  <SCORE.norm>
-0.0993428

>  <RMSD>
7.214

$$$$
ligand
 OpenBabel11021811473D
libRbt.so/2013.1/901 2013/11/27
 31 33  0  0  0  0  0  0  0  0999 V2000
   19.7635    9.0838    9.1732 C   0  0  0  0  0  0  0  0  0  0  0  0
   21.7462    5.8443   17.0856 N   0  0  0  0  0  0  0  0  0  0  0  0
   20.8751    9.3927   10.0204 O   0  0  0  0  0  0  0  0  0  0  0  0
   18.7177    8.2779    9.9478 C   0  0  1  0  0  0  0  0  0  0  0  0
   19.8427    2.0425   14.6717 N   0  0  0  0  0  0  0  0  0  0  0  0
   19.2950    7.0488   10.4300 O   0  0  0  0  0  0  0  0  0  0  0  0
   19.0888    6.9724   11.8518 C   0  0  1  0  0  0  0  0  0  0  0  0
   20.3814    0.0462   10.1643 N   0  0  0  0  0  0  0  0  0  0  0  0
   20.1739    6.3009   12.5110 O   0  0  0  0  0  0  0  0  0  0  0  0
   19.8204    5.7445   13.7859 C   0  0  2  0  0  0  0  0  0  0  0  0
   15.9907    4.5558   11.8800 N   0  0  0  0  0  0  0  0  0  0  0  0
   20.9409    7.5307   14.9676 O   0  0  0  0  0  0  0  0  0  0  0  0
   20.9367    6.1143   14.7695 C   0  0  1  0  0  0  0  0  0  0  0  0
   18.4693    3.8592   12.9485 O   0  0  0  0  0  0  0  0  0  0  0  0
   20.7259    5.4183   16.1156 C   0  0  1  0  0  0  0  0  0  0  0  0
   19.4126    3.5637   10.8128 O   0  0  0  0  0  0  0  0  0  0  0  0
   20.7943    3.9045   15.9129 C   0  0  0  0  0  0  0  0  0  0  0  0
   17.7680    0.3241   10.2868 O   0  0  0  0  0  0  0  0  0  0  0  0
   19.6698    3.4730   14.9669 C   0  0  1  0  0  0  0  0  0  0  0  0
   15.5554    2.1596   10.2896 O   0  0  0  0  0  0  0  0  0  0  0  0
   19.6767    4.2331   13.6350 C   0  0  2  0  0  0  0  0  0  0  0  0
   18.4762    8.6393   13.5559 O   0  0  0  0  0  0  0  0  0  0  0  0
   18.4097    4.2640   11.5718 C   0  0  1  0  0  0  0  0  0  0  0  0
   16.8684    8.8529   11.4661 O   0  0  0  0  0  0  0  0  0  0  0  0
   19.2734    2.1327   10.8305 C   0  0  2  0  0  0  0  0  0  0  0  0
   20.4002    1.5089   10.0037 C   0  0  0  0  0  0  0  0  0  0  0  0
   17.9307    1.7428   10.2098 C   0  0  2  0  0  0  0  0  0  0  0  0
   16.7888    2.4248   10.9662 C   0  0  1  0  0  0  0  0  0  0  0  0
   17.0158    3.9376   11.0252 C   0  0  1  0  0  0  0  0  0  0  0  0
   19.0960    8.4373   12.2837 C   0  0  2  0  0  0  0  0  0  0  0  0
   18.2528    9.0637   11.1771 C   0  0  1  0  0  0  0  0  0  0  0  0
  1  3  1  0  0  0  0
  4  1  1  1  0  0  0
  4  6  1  0  0  0  0
  4 31  1  0  0  0  0
  6  7  1  0  0  0  0
  7  9  1  1  0  0  0
  7 30  1  0  0  0  0
  8 26  1  0  0  0  0
 10  9  1  6  0  0  0
 10 13  1  0  0  0  0
 10 21  1  0  0  0  0
 13 12  1  1  0  0  0
 13 15  1  0  0  0  0
 15  2  1  1  0  0  0
 15 17  1  0  0  0  0
 16 25  1  0  0  0  0
 16 23  1  0  0  0  0
 17 19  1  0  0  0  0
 19  5  1  6  0  0  0
 19 21  1  0  0  0  0
 21 14  1  1  0  0  0
 23 14  1  1  0  0  0
 23 29  1  0  0  0  0
 25 26  1  6  0  0  0
 25 27  1  0  0  0  0
 27 18  1  1  0  0  0
 27 28  1  0  0  0  0
 28 20  1  6  0  0  0
 28 29  1  0  0  0  0
 29 11  1  1  0  0  0
 30 22  1  1  0  0  0
 30 31  1  0  0  0  0
 31 24  1  1  0  0  0
M  END
>  <CHROM.1>
-59.75091640,-157.34073324,-134.46263699,65.89122248,65.97300049,172.22917394
19.09212999,5.08992845,12.20890303,1.15368016,-1.09073351,-0.14907400

>  <Name>
ligand

>  <RI>
0

>  <Rbt.Current_Directory>
/home/itssahil/PROJECTS/Mol_Feturizer/New_Systems/rnas/3DVV

>  <Rbt.Executable>
rbdock ($Id: //depot/dev/client3/rdock/2013.1/src/exe/rbdock.cxx#4 $)

>  <Rbt.Library>
libRbt.so (2013.1, Build901 2013/11/27)

>  <Rbt.Parameter_File>
/export/apps/rDock/src/rDock_2013.1_src/data/scripts/dock_solv.prm

>  <Rbt.Receptor>
prm/blind_docking_100.prm

>  <SCORE>
-2.67937

>  <SCORE.INTER>
-3.06905

>  <SCORE.INTER.CONST>
1

>  <SCORE.INTER.POLAR>
0

>  <SCORE.INTER.ROT>
6

>  <SCORE.INTER.SOLV>
17.7842

>  <SCORE.INTER.VDW>
-15.5741

>  <SCORE.INTER.norm>
-0.0990016

>  <SCORE.INTRA>
0.388868

>  <SCORE.INTRA.DIHEDRAL>
-1.62766

>  <SCORE.INTRA.DIHEDRAL.0>
10.8172

>  <SCORE.INTRA.POLAR>
0

>  <SCORE.INTRA.POLAR.0>
0

>  <SCORE.INTRA.REPUL>
0

>  <SCORE.INTRA.REPUL.0>
0

>  <SCORE.INTRA.SOLV>
-1.79271

>  <SCORE.INTRA.SOLV.lig_0>
-80.3833

>  <SCORE.INTRA.VDW>
2.09905

>  <SCORE.INTRA.VDW.0>
-4.63762

>  <SCORE.INTRA.norm>
0.0125441

>  <SCORE.RESTR>
0.000816529

>  <SCORE.RESTR.CAVITY>
0.000816529

>  <SCORE.RESTR.norm>
2.63397e-05

>  <SCORE.SYSTEM>
0

>  <SCORE.SYSTEM.CONST>
0

>  <SCORE.SYSTEM.DIHEDRAL>
0

>  <SCORE.SYSTEM.SOLV>
0

>  <SCORE.SYSTEM.norm>
0

>  <SCORE.heavy>
31

>  <SCORE.norm>
-0.0864312

>  <RMSD>
7.225

$$$$
ligand
 OpenBabel11021811473D
libRbt.so/2013.1/901 2013/11/27
 31 33  0  0  0  0  0  0  0  0999 V2000
   23.5351    6.7948   16.2342 C   0  0  0  0  0  0  0  0  0  0  0  0
   17.3104    9.9163   11.8714 N   0  0  0  0  0  0  0  0  0  0  0  0
   23.5666    6.0414   17.4508 O   0  0  0  0  0  0  0  0  0  0  0  0
   22.1366    7.3754   16.0093 C   0  0  1  0  0  0  0  0  0  0  0  0
   16.4996    5.1411   12.5379 N   0  0  0  0  0  0  0  0  0  0  0  0
   21.9825    7.7816   14.6354 O   0  0  0  0  0  0  0  0  0  0  0  0
   20.8157    7.1364   14.0948 C   0  0  1  0  0  0  0  0  0  0  0  0
   15.9700    4.0238    8.6751 N   0  0  0  0  0  0  0  0  0  0  0  0
   20.9739    6.8340   12.6996 O   0  0  0  0  0  0  0  0  0  0  0  0
   19.7704    6.9920   11.9337 C   0  0  2  0  0  0  0  0  0  0  0  0
   20.4181    2.5426   13.1741 N   0  0  0  0  0  0  0  0  0  0  0  0
   20.0831    9.3841   11.7839 O   0  0  0  0  0  0  0  0  0  0  0  0
   19.1955    8.3731   12.2689 C   0  0  1  0  0  0  0  0  0  0  0  0
   19.1914    4.6019   11.7511 O   0  0  0  0  0  0  0  0  0  0  0  0
   17.8204    8.5589   11.6243 C   0  0  1  0  0  0  0  0  0  0  0  0
   17.3393    3.2536   11.2124 O   0  0  0  0  0  0  0  0  0  0  0  0
   16.8539    7.5228   12.1985 C   0  0  0  0  0  0  0  0  0  0  0  0
   19.1605    1.3935    8.6241 O   0  0  0  0  0  0  0  0  0  0  0  0
   17.3604    6.1188   11.8550 C   0  0  1  0  0  0  0  0  0  0  0  0
   20.4822    0.5675   11.0397 O   0  0  0  0  0  0  0  0  0  0  0  0
   18.8048    5.8711   12.3066 C   0  0  2  0  0  0  0  0  0  0  0  0
   19.4599    5.2184   14.8303 O   0  0  0  0  0  0  0  0  0  0  0  0
   18.3858    3.4901   12.1724 C   0  0  1  0  0  0  0  0  0  0  0  0
   19.8894    6.8529   16.8654 O   0  0  0  0  0  0  0  0  0  0  0  0
   17.8109    2.9461    9.8895 C   0  0  2  0  0  0  0  0  0  0  0  0
   16.6095    2.7308    8.9661 C   0  0  0  0  0  0  0  0  0  0  0  0
   18.6406    1.6615    9.9290 C   0  0  2  0  0  0  0  0  0  0  0  0
   19.8013    1.8203   10.9133 C   0  0  1  0  0  0  0  0  0  0  0  0
   19.2813    2.2519   12.2870 C   0  0  1  0  0  0  0  0  0  0  0  0
   20.7557    5.8210   14.8684 C   0  0  2  0  0  0  0  0  0  0  0  0
   21.0737    6.3066   16.2794 C   0  0  1  0  0  0  0  0  0  0  0  0
  1  3  1  0  0  0  0
  4  1  1  6  0  0  0
  4  6  1  0  0  0  0
  4 31  1  0  0  0  0
  6  7  1  0  0  0  0
  7  9  1  6  0  0  0
  7 30  1  0  0  0  0
  8 26  1  0  0  0  0
 10  9  1  1  0  0  0
 10 13  1  0  0  0  0
 10 21  1  0  0  0  0
 13 12  1  6  0  0  0
 13 15  1  0  0  0  0
 15  2  1  1  0  0  0
 15 17  1  0  0  0  0
 16 25  1  0  0  0  0
 16 23  1  0  0  0  0
 17 19  1  0  0  0  0
 19  5  1  1  0  0  0
 19 21  1  0  0  0  0
 21 14  1  6  0  0  0
 23 14  1  6  0  0  0
 23 29  1  0  0  0  0
 25 26  1  6  0  0  0
 25 27  1  0  0  0  0
 27 18  1  6  0  0  0
 27 28  1  0  0  0  0
 28 20  1  1  0  0  0
 28 29  1  0  0  0  0
 29 11  1  1  0  0  0
 30 22  1  1  0  0  0
 30 31  1  0  0  0  0
 31 24  1  6  0  0  0
M  END
>  <CHROM.1>
-162.92661138,-143.33982602,49.89652804,94.35924306,174.52595664,73.08057187
19.42320994,5.32661380,12.63418820,-0.89753634,0.79594963,-2.80547335

>  <Name>
ligand

>  <RI>
0

>  <Rbt.Current_Directory>
/home/itssahil/PROJECTS/Mol_Feturizer/New_Systems/rnas/3DVV

>  <Rbt.Executable>
rbdock ($Id: //depot/dev/client3/rdock/2013.1/src/exe/rbdock.cxx#4 $)

>  <Rbt.Library>
libRbt.so (2013.1, Build901 2013/11/27)

>  <Rbt.Parameter_File>
/export/apps/rDock/src/rDock_2013.1_src/data/scripts/dock_solv.prm

>  <Rbt.Receptor>
prm/blind_docking_100.prm

>  <SCORE>
2.58487

>  <SCORE.INTER>
-5.19067

>  <SCORE.INTER.CONST>
1

>  <SCORE.INTER.POLAR>
0

>  <SCORE.INTER.ROT>
6

>  <SCORE.INTER.SOLV>
21.7435

>  <SCORE.INTER.VDW>
-18.3083

>  <SCORE.INTER.norm>
-0.167441

>  <SCORE.INTRA>
7.70248

>  <SCORE.INTRA.DIHEDRAL>
0.711757

>  <SCORE.INTRA.DIHEDRAL.0>
10.8172

>  <SCORE.INTRA.POLAR>
0

>  <SCORE.INTRA.POLAR.0>
0

>  <SCORE.INTRA.REPUL>
0

>  <SCORE.INTRA.REPUL.0>
0

>  <SCORE.INTRA.SOLV>
1.26433

>  <SCORE.INTRA.SOLV.lig_0>
-80.3833

>  <SCORE.INTRA.VDW>
6.71444

>  <SCORE.INTRA.VDW.0>
-4.63762

>  <SCORE.INTRA.norm>
0.248467

>  <SCORE.RESTR>
0.0730644

>  <SCORE.RESTR.CAVITY>
0.0730644

>  <SCORE.RESTR.norm>
0.00235692

>  <SCORE.SYSTEM>
0

>  <SCORE.SYSTEM.CONST>
0

>  <SCORE.SYSTEM.DIHEDRAL>
0

>  <SCORE.SYSTEM.SOLV>
0

>  <SCORE.SYSTEM.norm>
0

>  <SCORE.heavy>
31

>  <SCORE.norm>
0.0833828

>  <RMSD>
7.239

$$$$
ligand
 OpenBabel11021811473D
libRbt.so/2013.1/901 2013/11/27
 31 33  0  0  0  0  0  0  0  0999 V2000
   22.1611    5.7033   15.7670 C   0  0  0  0  0  0  0  0  0  0  0  0
   18.5983    8.2512   11.4562 N   0  0  0  0  0  0  0  0  0  0  0  0
   22.7018    5.6410   17.0909 O   0  0  0  0  0  0  0  0  0  0  0  0
   20.7908    5.0223   15.7243 C   0  0  1  0  0  0  0  0  0  0  0  0
   15.3663    4.7829   12.6515 N   0  0  0  0  0  0  0  0  0  0  0  0
   20.2150    5.1470   14.4092 O   0  0  0  0  0  0  0  0  0  0  0  0
   19.8768    3.8331   13.9305 C   0  0  1  0  0  0  0  0  0  0  0  0
   20.4408    1.2726    8.2026 N   0  0  0  0  0  0  0  0  0  0  0  0
   20.0333    3.7295   12.5065 O   0  0  0  0  0  0  0  0  0  0  0  0
   19.0540    4.4689   11.7620 C   0  0  2  0  0  0  0  0  0  0  0  0
   15.0524    1.4055   10.8398 N   0  0  0  0  0  0  0  0  0  0  0  0
   20.6103    6.2716   11.3487 O   0  0  0  0  0  0  0  0  0  0  0  0
   19.3577    5.9580   11.9636 C   0  0  1  0  0  0  0  0  0  0  0  0
   17.2496    2.7905   11.8521 O   0  0  0  0  0  0  0  0  0  0  0  0
   18.2606    6.8242   11.3414 C   0  0  1  0  0  0  0  0  0  0  0  0
   18.4565    2.5292    9.8488 O   0  0  0  0  0  0  0  0  0  0  0  0
   16.9359    6.5399   12.0498 C   0  0  0  0  0  0  0  0  0  0  0  0
   19.2715   -0.9840   10.5337 O   0  0  0  0  0  0  0  0  0  0  0  0
   16.5620    5.0690   11.8443 C   0  0  1  0  0  0  0  0  0  0  0  0
   16.4242   -1.0633   10.1443 O   0  0  0  0  0  0  0  0  0  0  0  0
   17.6672    4.0989   12.2793 C   0  0  2  0  0  0  0  0  0  0  0  0
   20.5310    1.5662   14.6312 O   0  0  0  0  0  0  0  0  0  0  0  0
   17.1427    2.6276   10.4292 C   0  0  1  0  0  0  0  0  0  0  0  0
   19.8337    2.9974   16.7439 O   0  0  0  0  0  0  0  0  0  0  0  0
   19.2350    1.4227   10.3354 C   0  0  2  0  0  0  0  0  0  0  0  0
   20.6062    1.4368    9.6557 C   0  0  0  0  0  0  0  0  0  0  0  0
   18.5269    0.1106    9.9930 C   0  0  2  0  0  0  0  0  0  0  0  0
   17.1177    0.1075   10.5890 C   0  0  1  0  0  0  0  0  0  0  0  0
   16.3455    1.3511   10.1408 C   0  0  1  0  0  0  0  0  0  0  0  0
   20.9225    2.9406   14.5957 C   0  0  2  0  0  0  0  0  0  0  0  0
   20.9389    3.5243   16.0053 C   0  0  1  0  0  0  0  0  0  0  0  0
  1  3  1  0  0  0  0
  4  1  1  6  0  0  0
  4  6  1  0  0  0  0
  4 31  1  0  0  0  0
  6  7  1  0  0  0  0
  7  9  1  6  0  0  0
  7 30  1  0  0  0  0
  8 26  1  0  0  0  0
 10  9  1  1  0  0  0
 10 13  1  0  0  0  0
 10 21  1  0  0  0  0
 13 12  1  6  0  0  0
 13 15  1  0  0  0  0
 15  2  1  1  0  0  0
 15 17  1  0  0  0  0
 16 25  1  0  0  0  0
 16 23  1  0  0  0  0
 17 19  1  0  0  0  0
 19  5  1  1  0  0  0
 19 21  1  0  0  0  0
 21 14  1  6  0  0  0
 23 14  1  1  0  0  0
 23 29  1  0  0  0  0
 25 26  1  6  0  0  0
 25 27  1  0  0  0  0
 27 18  1  1  0  0  0
 27 28  1  0  0  0  0
 28 20  1  6  0  0  0
 28 29  1  0  0  0  0
 29 11  1  1  0  0  0
 30 22  1  1  0  0  0
 30 31  1  0  0  0  0
 31 24  1  1  0  0  0
M  END
>  <CHROM.1>
176.96585236,-70.30877034,70.03324394,74.71044035,-61.37825464,-61.85797104
18.94733554,3.37561834,12.31034619,-0.86219143,0.83906048,-2.85950957

>  <Name>
ligand

>  <RI>
0

>  <Rbt.Current_Directory>
/home/itssahil/PROJECTS/Mol_Feturizer/New_Systems/rnas/3DVV

>  <Rbt.Executable>
rbdock ($Id: //depot/dev/client3/rdock/2013.1/src/exe/rbdock.cxx#4 $)

>  <Rbt.Library>
libRbt.so (2013.1, Build901 2013/11/27)

>  <Rbt.Parameter_File>
/export/apps/rDock/src/rDock_2013.1_src/data/scripts/dock_solv.prm

>  <Rbt.Receptor>
prm/blind_docking_100.prm

>  <SCORE>
-1.96646

>  <SCORE.INTER>
-1.66043

>  <SCORE.INTER.CONST>
1

>  <SCORE.INTER.POLAR>
0

>  <SCORE.INTER.ROT>
6

>  <SCORE.INTER.SOLV>
18.8129

>  <SCORE.INTER.VDW>
-14.9779

>  <SCORE.INTER.norm>
-0.0535622

>  <SCORE.INTRA>
-0.807767

>  <SCORE.INTRA.DIHEDRAL>
-8.50085

>  <SCORE.INTRA.DIHEDRAL.0>
10.8172

>  <SCORE.INTRA.POLAR>
0

>  <SCORE.INTRA.POLAR.0>
0

>  <SCORE.INTRA.REPUL>
0

>  <SCORE.INTRA.REPUL.0>
0

>  <SCORE.INTRA.SOLV>
-1.65533

>  <SCORE.INTRA.SOLV.lig_0>
-80.3833

>  <SCORE.INTRA.VDW>
4.27032

>  <SCORE.INTRA.VDW.0>
-4.63762

>  <SCORE.INTRA.norm>
-0.026057

>  <SCORE.RESTR>
0.501736

>  <SCORE.RESTR.CAVITY>
0.501736

>  <SCORE.RESTR.norm>
0.016185

>  <SCORE.SYSTEM>
0

>  <SCORE.SYSTEM.CONST>
0

>  <SCORE.SYSTEM.DIHEDRAL>
0

>  <SCORE.SYSTEM.SOLV>
0

>  <SCORE.SYSTEM.norm>
0

>  <SCORE.heavy>
31

>  <SCORE.norm>
-0.0634341

>  <RMSD>
7.248

$$$$
ligand
 OpenBabel11021811473D
libRbt.so/2013.1/901 2013/11/27
 31 33  0  0  0  0  0  0  0  0999 V2000
   20.8714    5.8223   15.1832 C   0  0  0  0  0  0  0  0  0  0  0  0
   14.6598    5.1260   11.6193 N   0  0  0  0  0  0  0  0  0  0  0  0
   21.4859    5.7621   16.4745 O   0  0  0  0  0  0  0  0  0  0  0  0
   19.7672    4.7677   15.0747 C   0  0  1  0  0  0  0  0  0  0  0  0
   15.8246    0.3884   11.2993 N   0  0  0  0  0  0  0  0  0  0  0  0
   19.1234    4.8532   13.7884 O   0  0  0  0  0  0  0  0  0  0  0  0
   19.1732    3.5580   13.1639 C   0  0  1  0  0  0  0  0  0  0  0  0
   18.8082   -3.1739   11.5850 N   0  0  0  0  0  0  0  0  0  0  0  0
   19.2909    3.6605   11.7361 O   0  0  0  0  0  0  0  0  0  0  0  0
   18.0521    3.4641   11.0383 C   0  0  2  0  0  0  0  0  0  0  0  0
   20.5160    2.6392    9.3310 N   0  0  0  0  0  0  0  0  0  0  0  0
   17.4005    5.7665   11.3802 O   0  0  0  0  0  0  0  0  0  0  0  0
   17.0234    4.4157   11.6602 C   0  0  1  0  0  0  0  0  0  0  0  0
   18.4265    1.1185   10.3759 O   0  0  0  0  0  0  0  0  0  0  0  0
   15.6282    4.1538   11.0896 C   0  0  1  0  0  0  0  0  0  0  0  0
   19.9050   -0.5095   11.2138 O   0  0  0  0  0  0  0  0  0  0  0  0
   15.1971    2.7327   11.4528 C   0  0  0  0  0  0  0  0  0  0  0  0
   20.4844   -2.0075    7.9128 O   0  0  0  0  0  0  0  0  0  0  0  0
   16.1709    1.7349   10.8192 C   0  0  1  0  0  0  0  0  0  0  0  0
   21.7030    0.5831    7.6505 O   0  0  0  0  0  0  0  0  0  0  0  0
   17.6351    2.0040   11.1872 C   0  0  2  0  0  0  0  0  0  0  0  0
   20.5059    1.5334   13.5911 O   0  0  0  0  0  0  0  0  0  0  0  0
   19.7553    0.8794   10.8658 C   0  0  1  0  0  0  0  0  0  0  0  0
   19.5058    2.4508   15.8617 O   0  0  0  0  0  0  0  0  0  0  0  0
   19.6974   -1.4176   10.1186 C   0  0  2  0  0  0  0  0  0  0  0  0
   19.8706   -2.8539   10.6183 C   0  0  0  0  0  0  0  0  0  0  0  0
   20.7335   -1.1458    9.0265 C   0  0  2  0  0  0  0  0  0  0  0  0
   20.6396    0.3115    8.5696 C   0  0  1  0  0  0  0  0  0  0  0  0
   20.7569    1.2558    9.7689 C   0  0  1  0  0  0  0  0  0  0  0  0
   20.4662    2.9573   13.7114 C   0  0  2  0  0  0  0  0  0  0  0  0
   20.3690    3.3634   15.1789 C   0  0  1  0  0  0  0  0  0  0  0  0
  1  3  1  0  0  0  0
  4  1  1  6  0  0  0
  4  6  1  0  0  0  0
  4 31  1  0  0  0  0
  6  7  1  0  0  0  0
  7  9  1  6  0  0  0
  7 30  1  0  0  0  0
  8 26  1  0  0  0  0
 10  9  1  1  0  0  0
 10 13  1  0  0  0  0
 10 21  1  0  0  0  0
 13 12  1  6  0  0  0
 13 15  1  0  0  0  0
 15  2  1  1  0  0  0
 15 17  1  0  0  0  0
 16 25  1  0  0  0  0
 16 23  1  0  0  0  0
 17 19  1  0  0  0  0
 19  5  1  1  0  0  0
 19 21  1  0  0  0  0
 21 14  1  6  0  0  0
 23 14  1  6  0  0  0
 23 29  1  0  0  0  0
 25 26  1  1  0  0  0
 25 27  1  0  0  0  0
 27 18  1  6  0  0  0
 27 28  1  0  0  0  0
 28 20  1  6  0  0  0
 28 29  1  0  0  0  0
 29 11  1  6  0  0  0
 30 22  1  1  0  0  0
 30 31  1  0  0  0  0
 31 24  1  1  0  0  0
M  END
>  <CHROM.1>
178.39169439,-100.52056955,52.37585300,115.87265836,74.71000760,65.48298057
19.04990561,2.07915014,11.70802774,-1.70511015,0.48732178,-2.39440664

>  <Name>
ligand

>  <RI>
0

>  <Rbt.Current_Directory>
/home/itssahil/PROJECTS/Mol_Feturizer/New_Systems/rnas/3DVV

>  <Rbt.Executable>
rbdock ($Id: //depot/dev/client3/rdock/2013.1/src/exe/rbdock.cxx#4 $)

>  <Rbt.Library>
libRbt.so (2013.1, Build901 2013/11/27)

>  <Rbt.Parameter_File>
/export/apps/rDock/src/rDock_2013.1_src/data/scripts/dock_solv.prm

>  <Rbt.Receptor>
prm/blind_docking_40.prm

>  <SCORE>
0.978884

>  <SCORE.INTER>
-2.39182

>  <SCORE.INTER.CONST>
1

>  <SCORE.INTER.POLAR>
0

>  <SCORE.INTER.ROT>
6

>  <SCORE.INTER.SOLV>
18.4616

>  <SCORE.INTER.VDW>
-15.3484

>  <SCORE.INTER.norm>
-0.0771554

>  <SCORE.INTRA>
3.32202

>  <SCORE.INTRA.DIHEDRAL>
3.2021

>  <SCORE.INTRA.DIHEDRAL.0>
10.8172

>  <SCORE.INTRA.POLAR>
0

>  <SCORE.INTRA.POLAR.0>
0

>  <SCORE.INTRA.REPUL>
0.0355801

>  <SCORE.INTRA.REPUL.0>
0

>  <SCORE.INTRA.SOLV>
-1.76629

>  <SCORE.INTRA.SOLV.lig_0>
-80.3833

>  <SCORE.INTRA.VDW>
2.42621

>  <SCORE.INTRA.VDW.0>
-4.63762

>  <SCORE.INTRA.norm>
0.107162

>  <SCORE.RESTR>
0.0486822

>  <SCORE.RESTR.CAVITY>
0.0486822

>  <SCORE.RESTR.norm>
0.00157039

>  <SCORE.SYSTEM>
0

>  <SCORE.SYSTEM.CONST>
0

>  <SCORE.SYSTEM.DIHEDRAL>
0

>  <SCORE.SYSTEM.SOLV>
0

>  <SCORE.SYSTEM.norm>
0

>  <SCORE.heavy>
31

>  <SCORE.norm>
0.0315769

>  <RMSD>
7.249

$$$$
ligand
 OpenBabel11021811473D
libRbt.so/2013.1/901 2013/11/27
 31 33  0  0  0  0  0  0  0  0999 V2000
   16.3006    9.3241   11.9551 C   0  0  0  0  0  0  0  0  0  0  0  0
   21.8881    5.6108   16.6388 N   0  0  0  0  0  0  0  0  0  0  0  0
   15.3754    8.9833   12.9928 O   0  0  0  0  0  0  0  0  0  0  0  0
   17.7109    9.4688   12.5324 C   0  0  1  0  0  0  0  0  0  0  0  0
   19.5814    1.9834   14.3097 N   0  0  0  0  0  0  0  0  0  0  0  0
   18.1278    8.2311   13.1414 O   0  0  0  0  0  0  0  0  0  0  0  0
   19.3833    7.8350   12.5614 C   0  0  1  0  0  0  0  0  0  0  0  0
   20.6522    1.6580   10.3037 N   0  0  0  0  0  0  0  0  0  0  0  0
   19.5042    6.4060   12.4804 O   0  0  0  0  0  0  0  0  0  0  0  0
   19.3910    5.7435   13.7486 C   0  0  2  0  0  0  0  0  0  0  0  0
   15.3519    4.6955   12.2493 N   0  0  0  0  0  0  0  0  0  0  0  0
   20.7058    7.4478   14.8482 O   0  0  0  0  0  0  0  0  0  0  0  0
   20.6679    6.0519   14.5390 C   0  0  1  0  0  0  0  0  0  0  0  0
   17.9127    3.9090   13.0202 O   0  0  0  0  0  0  0  0  0  0  0  0
   20.7082    5.2469   15.8395 C   0  0  1  0  0  0  0  0  0  0  0  0
   18.5258    3.4014   10.8055 O   0  0  0  0  0  0  0  0  0  0  0  0
   20.7410    3.7555   15.5046 C   0  0  0  0  0  0  0  0  0  0  0  0
   16.6402    0.2519   10.7664 O   0  0  0  0  0  0  0  0  0  0  0  0
   19.4630    3.3825   14.7474 C   0  0  1  0  0  0  0  0  0  0  0  0
   14.5592    2.2289   10.9271 O   0  0  0  0  0  0  0  0  0  0  0  0
   19.2247    4.2468   13.5033 C   0  0  2  0  0  0  0  0  0  0  0  0
   20.5853    8.5144   10.5238 O   0  0  0  0  0  0  0  0  0  0  0  0
   17.6822    4.2196   11.6370 C   0  0  1  0  0  0  0  0  0  0  0  0
   19.7512   10.6550   11.8353 O   0  0  0  0  0  0  0  0  0  0  0  0
   18.3086    1.9880   10.9548 C   0  0  2  0  0  0  0  0  0  0  0  0
   19.2695    1.2328   10.0334 C   0  0  0  0  0  0  0  0  0  0  0  0
   16.8715    1.6474   10.5563 C   0  0  2  0  0  0  0  0  0  0  0  0
   15.8891    2.4565   11.4056 C   0  0  1  0  0  0  0  0  0  0  0  0
   16.2086    3.9510   11.3137 C   0  0  1  0  0  0  0  0  0  0  0  0
   19.3020    8.3922   11.1417 C   0  0  2  0  0  0  0  0  0  0  0  0
   18.7094    9.7720   11.4117 C   0  0  1  0  0  0  0  0  0  0  0  0
  1  3  1  0  0  0  0
  4  1  1  6  0  0  0
  4  6  1  0  0  0  0
  4 31  1  0  0  0  0
  6  7  1  0  0  0  0
  7  9  1  6  0  0  0
  7 30  1  0  0  0  0
  8 26  1  0  0  0  0
 10  9  1  6  0  0  0
 10 13  1  0  0  0  0
 10 21  1  0  0  0  0
 13 12  1  1  0  0  0
 13 15  1  0  0  0  0
 15  2  1  6  0  0  0
 15 17  1  0  0  0  0
 16 25  1  0  0  0  0
 16 23  1  0  0  0  0
 17 19  1  0  0  0  0
 19  5  1  6  0  0  0
 19 21  1  0  0  0  0
 21 14  1  1  0  0  0
 23 14  1  1  0  0  0
 23 29  1  0  0  0  0
 25 26  1  6  0  0  0
 25 27  1  0  0  0  0
 27 18  1  1  0  0  0
 27 28  1  0  0  0  0
 28 20  1  6  0  0  0
 28 29  1  0  0  0  0
 29 11  1  1  0  0  0
 30 22  1  1  0  0  0
 30 31  1  0  0  0  0
 31 24  1  1  0  0  0
M  END
>  <CHROM.1>
59.84653334,-58.28350649,-71.40058146,65.86367404,76.15385062,54.44630295
18.53136883,5.28011765,12.50459752,1.29132638,-0.69511637,0.02786250

>  <Name>
ligand

>  <RI>
0

>  <Rbt.Current_Directory>
/home/itssahil/PROJECTS/Mol_Feturizer/New_Systems/rnas/3DVV

>  <Rbt.Executable>
rbdock ($Id: //depot/dev/client3/rdock/2013.1/src/exe/rbdock.cxx#4 $)

>  <Rbt.Library>
libRbt.so (2013.1, Build901 2013/11/27)

>  <Rbt.Parameter_File>
/export/apps/rDock/src/rDock_2013.1_src/data/scripts/dock_solv.prm

>  <Rbt.Receptor>
prm/blind_docking_40.prm

>  <SCORE>
-3.76112

>  <SCORE.INTER>
-0.380125

>  <SCORE.INTER.CONST>
1

>  <SCORE.INTER.POLAR>
0

>  <SCORE.INTER.ROT>
6

>  <SCORE.INTER.SOLV>
14.3504

>  <SCORE.INTER.VDW>
-12.6369

>  <SCORE.INTER.norm>
-0.0122621

>  <SCORE.INTRA>
-3.53026

>  <SCORE.INTRA.DIHEDRAL>
-8.44872

>  <SCORE.INTRA.DIHEDRAL.0>
10.8172

>  <SCORE.INTRA.POLAR>
0

>  <SCORE.INTRA.POLAR.0>
0

>  <SCORE.INTRA.REPUL>
0

>  <SCORE.INTRA.REPUL.0>
0

>  <SCORE.INTRA.SOLV>
-3.35672

>  <SCORE.INTRA.SOLV.lig_0>
-80.3833

>  <SCORE.INTRA.VDW>
2.37246

>  <SCORE.INTRA.VDW.0>
-4.63762

>  <SCORE.INTRA.norm>
-0.113879

>  <SCORE.RESTR>
0.14927

>  <SCORE.RESTR.CAVITY>
0.14927

>  <SCORE.RESTR.norm>
0.00481516

>  <SCORE.SYSTEM>
0

>  <SCORE.SYSTEM.CONST>
0

>  <SCORE.SYSTEM.DIHEDRAL>
0

>  <SCORE.SYSTEM.SOLV>
0

>  <SCORE.SYSTEM.norm>
0

>  <SCORE.heavy>
31

>  <SCORE.norm>
-0.121326

>  <RMSD>
7.250

$$$$
ligand
 OpenBabel11021811473D
libRbt.so/2013.1/901 2013/11/27
 31 33  0  0  0  0  0  0  0  0999 V2000
   19.8106    2.2845    9.8984 C   0  0  0  0  0  0  0  0  0  0  0  0
   19.6087   10.7796   12.7907 N   0  0  0  0  0  0  0  0  0  0  0  0
   19.0045    1.2597    9.3079 O   0  0  0  0  0  0  0  0  0  0  0  0
   19.3375    2.5709   11.3258 C   0  0  1  0  0  0  0  0  0  0  0  0
   19.4507    7.7945   16.6595 N   0  0  0  0  0  0  0  0  0  0  0  0
   20.1341    3.6187   11.9122 O   0  0  0  0  0  0  0  0  0  0  0  0
   19.2543    4.6573   12.3781 C   0  0  1  0  0  0  0  0  0  0  0  0
   15.4061    6.6753   17.9832 N   0  0  0  0  0  0  0  0  0  0  0  0
   19.8550    5.9564   12.2584 O   0  0  0  0  0  0  0  0  0  0  0  0
   19.1404    6.9900   12.9520 C   0  0  2  0  0  0  0  0  0  0  0  0
   20.1634    3.4081   15.0612 N   0  0  0  0  0  0  0  0  0  0  0  0
   19.4018    8.5243   11.1026 O   0  0  0  0  0  0  0  0  0  0  0  0
   19.7146    8.3326   12.4850 C   0  0  1  0  0  0  0  0  0  0  0  0
   18.5547    5.6824   14.9590 O   0  0  0  0  0  0  0  0  0  0  0  0
   19.1261    9.4866   13.2991 C   0  0  1  0  0  0  0  0  0  0  0  0
   17.9495    5.4712   17.2233 O   0  0  0  0  0  0  0  0  0  0  0  0
   19.5231    9.3183   14.7659 C   0  0  0  0  0  0  0  0  0  0  0  0
   15.5960    2.7300   16.5724 O   0  0  0  0  0  0  0  0  0  0  0  0
   18.9376    8.0068   15.2976 C   0  0  1  0  0  0  0  0  0  0  0  0
   18.1396    1.5301   15.9765 O   0  0  0  0  0  0  0  0  0  0  0  0
   19.3247    6.7869   14.4528 C   0  0  2  0  0  0  0  0  0  0  0  0
   16.8967    5.1968   11.9211 O   0  0  0  0  0  0  0  0  0  0  0  0
   18.9704    5.1984   16.2458 C   0  0  1  0  0  0  0  0  0  0  0  0
   17.1463    2.6159   12.4449 O   0  0  0  0  0  0  0  0  0  0  0  0
   16.6813    4.8563   16.9391 C   0  0  2  0  0  0  0  0  0  0  0  0
   15.6844    5.2313   18.0382 C   0  0  0  0  0  0  0  0  0  0  0  0
   16.8447    3.3354   16.9178 C   0  0  2  0  0  0  0  0  0  0  0  0
   17.9021    2.9388   15.8855 C   0  0  1  0  0  0  0  0  0  0  0  0
   19.2112    3.6883   16.1467 C   0  0  1  0  0  0  0  0  0  0  0  0
   18.0787    4.5793   11.4062 C   0  0  2  0  0  0  0  0  0  0  0  0
   17.8894    3.0684   11.3102 C   0  0  1  0  0  0  0  0  0  0  0  0
  1  3  1  0  0  0  0
  4  1  1  6  0  0  0
  4  6  1  0  0  0  0
  4 31  1  0  0  0  0
  6  7  1  0  0  0  0
  7  9  1  6  0  0  0
  7 30  1  0  0  0  0
  8 26  1  0  0  0  0
 10  9  1  6  0  0  0
 10 13  1  0  0  0  0
 10 21  1  0  0  0  0
 13 12  1  6  0  0  0
 13 15  1  0  0  0  0
 15  2  1  6  0  0  0
 15 17  1  0  0  0  0
 16 25  1  0  0  0  0
 16 23  1  0  0  0  0
 17 19  1  0  0  0  0
 19  5  1  1  0  0  0
 19 21  1  0  0  0  0
 21 14  1  1  0  0  0
 23 14  1  6  0  0  0
 23 29  1  0  0  0  0
 25 26  1  1  0  0  0
 25 27  1  0  0  0  0
 27 18  1  6  0  0  0
 27 28  1  0  0  0  0
 28 20  1  1  0  0  0
 28 29  1  0  0  0  0
 29 11  1  6  0  0  0
 30 22  1  1  0  0  0
 30 31  1  0  0  0  0
 31 24  1  1  0  0  0
M  END
>  <CHROM.1>
-179.00905814,-168.01276137,-167.88799009,112.79639883,162.65826392,66.42164154
18.46207140,5.19731542,14.03006463,1.00746146,-1.17470158,-2.62146760

>  <Name>
ligand

>  <RI>
0

>  <Rbt.Current_Directory>
/home/itssahil/PROJECTS/Mol_Feturizer/New_Systems/rnas/3DVV

>  <Rbt.Executable>
rbdock ($Id: //depot/dev/client3/rdock/2013.1/src/exe/rbdock.cxx#4 $)

>  <Rbt.Library>
libRbt.so (2013.1, Build901 2013/11/27)

>  <Rbt.Parameter_File>
/export/apps/rDock/src/rDock_2013.1_src/data/scripts/dock_solv.prm

>  <Rbt.Receptor>
prm/pocket_docking_6.prm

>  <SCORE>
1.50412

>  <SCORE.INTER>
-0.217432

>  <SCORE.INTER.CONST>
1

>  <SCORE.INTER.POLAR>
0

>  <SCORE.INTER.ROT>
6

>  <SCORE.INTER.SOLV>
13.0569

>  <SCORE.INTER.VDW>
-12.0973

>  <SCORE.INTER.norm>
-0.00701392

>  <SCORE.INTRA>
1.72156

>  <SCORE.INTRA.DIHEDRAL>
-0.740808

>  <SCORE.INTRA.DIHEDRAL.0>
10.8172

>  <SCORE.INTRA.POLAR>
0

>  <SCORE.INTRA.POLAR.0>
0

>  <SCORE.INTRA.REPUL>
0

>  <SCORE.INTRA.REPUL.0>
0

>  <SCORE.INTRA.SOLV>
0.620265

>  <SCORE.INTRA.SOLV.lig_0>
-80.3833

>  <SCORE.INTRA.VDW>
1.78183

>  <SCORE.INTRA.VDW.0>
-4.63762

>  <SCORE.INTRA.norm>
0.055534

>  <SCORE.RESTR>
0

>  <SCORE.RESTR.CAVITY>
0

>  <SCORE.RESTR.norm>
0

>  <SCORE.SYSTEM>
0

>  <SCORE.SYSTEM.CONST>
0

>  <SCORE.SYSTEM.DIHEDRAL>
0

>  <SCORE.SYSTEM.SOLV>
0

>  <SCORE.SYSTEM.norm>
0

>  <SCORE.heavy>
31

>  <SCORE.norm>
0.0485201

>  <RMSD>
7.255

$$$$
ligand
 OpenBabel11021811473D
libRbt.so/2013.1/901 2013/11/27
 31 33  0  0  0  0  0  0  0  0999 V2000
   16.2804    9.2390   11.9851 C   0  0  0  0  0  0  0  0  0  0  0  0
   21.9908    5.5501   16.5592 N   0  0  0  0  0  0  0  0  0  0  0  0
   15.3710    8.9373   13.0485 O   0  0  0  0  0  0  0  0  0  0  0  0
   17.6971    9.4166   12.5371 C   0  0  1  0  0  0  0  0  0  0  0  0
   19.6372    1.9596   14.2198 N   0  0  0  0  0  0  0  0  0  0  0  0
   18.1564    8.1869   13.1315 O   0  0  0  0  0  0  0  0  0  0  0  0
   19.4106    7.8256   12.5264 C   0  0  1  0  0  0  0  0  0  0  0  0
   20.6346    1.5509   10.2697 N   0  0  0  0  0  0  0  0  0  0  0  0
   19.5660    6.4007   12.4355 O   0  0  0  0  0  0  0  0  0  0  0  0
   19.4628    5.7261   13.6982 C   0  0  2  0  0  0  0  0  0  0  0  0
   15.4126    4.7436   12.2243 N   0  0  0  0  0  0  0  0  0  0  0  0
   20.7997    7.4117   14.8001 O   0  0  0  0  0  0  0  0  0  0  0  0
   20.7501    6.0193   14.4775 C   0  0  1  0  0  0  0  0  0  0  0  0
   17.9658    3.9077   12.9680 O   0  0  0  0  0  0  0  0  0  0  0  0
   20.8000    5.2011   15.7694 C   0  0  1  0  0  0  0  0  0  0  0  0
   18.5443    3.3857   10.7474 O   0  0  0  0  0  0  0  0  0  0  0  0
   20.8203    3.7130   15.4194 C   0  0  0  0  0  0  0  0  0  0  0  0
   16.5968    0.2739   10.7330 O   0  0  0  0  0  0  0  0  0  0  0  0
   19.5319    3.3550   14.6727 C   0  0  1  0  0  0  0  0  0  0  0  0
   14.5571    2.2917   10.9142 O   0  0  0  0  0  0  0  0  0  0  0  0
   19.2850    4.2330   13.4399 C   0  0  2  0  0  0  0  0  0  0  0  0
   20.5569    8.5454   10.4707 O   0  0  0  0  0  0  0  0  0  0  0  0
   17.7262    4.2213   11.5871 C   0  0  1  0  0  0  0  0  0  0  0  0
   19.6935   10.6576   11.8088 O   0  0  0  0  0  0  0  0  0  0  0  0
   18.3011    1.9770   10.9008 C   0  0  2  0  0  0  0  0  0  0  0  0
   19.2367    1.2021    9.9699 C   0  0  0  0  0  0  0  0  0  0  0  0
   16.8532    1.6644   10.5186 C   0  0  2  0  0  0  0  0  0  0  0  0
   15.8963    2.4936   11.3777 C   0  0  1  0  0  0  0  0  0  0  0  0
   16.2442    3.9813   11.2803 C   0  0  1  0  0  0  0  0  0  0  0  0
   19.2888    8.3876   11.1115 C   0  0  2  0  0  0  0  0  0  0  0  0
   18.6667    9.7506   11.3998 C   0  0  1  0  0  0  0  0  0  0  0  0
  1  3  1  0  0  0  0
  4  1  1  6  0  0  0
  4  6  1  0  0  0  0
  4 31  1  0  0  0  0
  6  7  1  0  0  0  0
  7  9  1  6  0  0  0
  7 30  1  0  0  0  0
  8 26  1  0  0  0  0
 10  9  1  6  0  0  0
 10 13  1  0  0  0  0
 10 21  1  0  0  0  0
 13 12  1  1  0  0  0
 13 15  1  0  0  0  0
 15  2  1  6  0  0  0
 15 17  1  0  0  0  0
 16 25  1  0  0  0  0
 16 23  1  0  0  0  0
 17 19  1  0  0  0  0
 19  5  1  6  0  0  0
 19 21  1  0  0  0  0
 21 14  1  1  0  0  0
 23 14  1  1  0  0  0
 23 29  1  0  0  0  0
 25 26  1  6  0  0  0
 25 27  1  0  0  0  0
 27 18  1  1  0  0  0
 27 28  1  0  0  0  0
 28 20  1  6  0  0  0
 28 29  1  0  0  0  0
 29 11  1  1  0  0  0
 30 22  1  1  0  0  0
 30 31  1  0  0  0  0
 31 24  1  1  0  0  0
M  END
>  <CHROM.1>
62.81535623,-56.94305593,-73.33740665,66.48506682,76.73900217,57.22285246
18.55459438,5.26497772,12.46564628,1.29786382,-0.67678219,0.04032480

>  <Name>
ligand

>  <RI>
0

>  <Rbt.Current_Directory>
/home/itssahil/PROJECTS/Mol_Feturizer/New_Systems/rnas/3DVV

>  <Rbt.Executable>
rbdock ($Id: //depot/dev/client3/rdock/2013.1/src/exe/rbdock.cxx#4 $)

>  <Rbt.Library>
libRbt.so (2013.1, Build901 2013/11/27)

>  <Rbt.Parameter_File>
/export/apps/rDock/src/rDock_2013.1_src/data/scripts/dock_solv.prm

>  <Rbt.Receptor>
prm/blind_docking_40.prm

>  <SCORE>
-3.61536

>  <SCORE.INTER>
-0.195463

>  <SCORE.INTER.CONST>
1

>  <SCORE.INTER.POLAR>
0

>  <SCORE.INTER.ROT>
6

>  <SCORE.INTER.SOLV>
14.3338

>  <SCORE.INTER.VDW>
-12.5082

>  <SCORE.INTER.norm>
-0.00630526

>  <SCORE.INTRA>
-3.54446

>  <SCORE.INTRA.DIHEDRAL>
-8.13181

>  <SCORE.INTRA.DIHEDRAL.0>
10.8172

>  <SCORE.INTRA.POLAR>
0

>  <SCORE.INTRA.POLAR.0>
0

>  <SCORE.INTRA.REPUL>
0

>  <SCORE.INTRA.REPUL.0>
0

>  <SCORE.INTRA.SOLV>
-3.19504

>  <SCORE.INTRA.SOLV.lig_0>
-80.3833

>  <SCORE.INTRA.VDW>
2.11897

>  <SCORE.INTRA.VDW.0>
-4.63762

>  <SCORE.INTRA.norm>
-0.114337

>  <SCORE.RESTR>
0.124561

>  <SCORE.RESTR.CAVITY>
0.124561

>  <SCORE.RESTR.norm>
0.0040181

>  <SCORE.SYSTEM>
0

>  <SCORE.SYSTEM.CONST>
0

>  <SCORE.SYSTEM.DIHEDRAL>
0

>  <SCORE.SYSTEM.SOLV>
0

>  <SCORE.SYSTEM.norm>
0

>  <SCORE.heavy>
31

>  <SCORE.norm>
-0.116625

>  <RMSD>
7.257

$$$$
ligand
 OpenBabel11021811473D
libRbt.so/2013.1/901 2013/11/27
 31 33  0  0  0  0  0  0  0  0999 V2000
   20.1397    2.9163   13.6577 C   0  0  0  0  0  0  0  0  0  0  0  0
   19.8426    8.7342   15.4068 N   0  0  0  0  0  0  0  0  0  0  0  0
   20.7657    1.6343   13.5428 O   0  0  0  0  0  0  0  0  0  0  0  0
   19.3548    3.0045   14.9690 C   0  0  1  0  0  0  0  0  0  0  0  0
   17.1583    7.0196   19.1161 N   0  0  0  0  0  0  0  0  0  0  0  0
   18.7502    4.3060   15.0994 O   0  0  0  0  0  0  0  0  0  0  0  0
   17.3383    4.1358   15.3172 C   0  0  1  0  0  0  0  0  0  0  0  0
   17.2077    3.1476   19.9711 N   0  0  0  0  0  0  0  0  0  0  0  0
   16.5772    5.2012   14.7266 O   0  0  0  0  0  0  0  0  0  0  0  0
   16.7635    6.4705   15.3702 C   0  0  2  0  0  0  0  0  0  0  0  0
   12.5472    5.9649   16.4070 N   0  0  0  0  0  0  0  0  0  0  0  0
   18.2510    7.2298   13.6229 O   0  0  0  0  0  0  0  0  0  0  0  0
   18.1768    6.9534   15.0241 C   0  0  1  0  0  0  0  0  0  0  0  0
   15.2020    6.1109   17.2446 O   0  0  0  0  0  0  0  0  0  0  0  0
   18.5231    8.2217   15.8066 C   0  0  1  0  0  0  0  0  0  0  0  0
   15.2596    3.8186   17.7742 O   0  0  0  0  0  0  0  0  0  0  0  0
   18.5142    7.9056   17.3024 C   0  0  0  0  0  0  0  0  0  0  0  0
   13.3575    4.2581   20.8831 O   0  0  0  0  0  0  0  0  0  0  0  0
   17.1087    7.4561   17.7124 C   0  0  1  0  0  0  0  0  0  0  0  0
   11.4140    4.8919   18.8617 O   0  0  0  0  0  0  0  0  0  0  0  0
   16.5806    6.2860   16.8736 C   0  0  2  0  0  0  0  0  0  0  0  0
   15.8020    2.2399   14.9958 O   0  0  0  0  0  0  0  0  0  0  0  0
   14.6547    4.8196   16.9349 C   0  0  1  0  0  0  0  0  0  0  0  0
   17.9765    1.4334   16.2681 O   0  0  0  0  0  0  0  0  0  0  0  0
   15.0565    4.0281   19.1821 C   0  0  2  0  0  0  0  0  0  0  0  0
   15.7552    2.9113   19.9613 C   0  0  0  0  0  0  0  0  0  0  0  0
   13.5594    3.9864   19.4937 C   0  0  2  0  0  0  0  0  0  0  0  0
   12.8238    5.0379   18.6604 C   0  0  1  0  0  0  0  0  0  0  0  0
   13.1415    4.8590   17.1735 C   0  0  1  0  0  0  0  0  0  0  0  0
   17.0234    2.8448   14.5645 C   0  0  2  0  0  0  0  0  0  0  0  0
   18.2148    1.9820   14.9695 C   0  0  1  0  0  0  0  0  0  0  0  0
  1  3  1  0  0  0  0
  4  1  1  6  0  0  0
  4  6  1  0  0  0  0
  4 31  1  0  0  0  0
  6  7  1  0  0  0  0
  7  9  1  6  0  0  0
  7 30  1  0  0  0  0
  8 26  1  0  0  0  0
 10  9  1  6  0  0  0
 10 13  1  0  0  0  0
 10 21  1  0  0  0  0
 13 12  1  6  0  0  0
 13 15  1  0  0  0  0
 15  2  1  6  0  0  0
 15 17  1  0  0  0  0
 16 25  1  0  0  0  0
 16 23  1  0  0  0  0
 17 19  1  0  0  0  0
 19  5  1  1  0  0  0
 19 21  1  0  0  0  0
 21 14  1  6  0  0  0
 23 14  1  1  0  0  0
 23 29  1  0  0  0  0
 25 26  1  1  0  0  0
 25 27  1  0  0  0  0
 27 18  1  1  0  0  0
 27 28  1  0  0  0  0
 28 20  1  6  0  0  0
 28 29  1  0  0  0  0
 29 11  1  6  0  0  0
 30 22  1  1  0  0  0
 30 31  1  0  0  0  0
 31 24  1  1  0  0  0
M  END
>  <CHROM.1>
178.66229168,-68.38905266,71.19740446,68.72577163,74.85985675,75.69137536
16.54143625,4.79448228,16.66028230,0.07760365,-0.67351101,-3.07778211

>  <Name>
ligand

>  <RI>
0

>  <Rbt.Current_Directory>
/home/itssahil/PROJECTS/Mol_Feturizer/New_Systems/rnas/3DVV

>  <Rbt.Executable>
rbdock ($Id: //depot/dev/client3/rdock/2013.1/src/exe/rbdock.cxx#4 $)

>  <Rbt.Library>
libRbt.so (2013.1, Build901 2013/11/27)

>  <Rbt.Parameter_File>
/export/apps/rDock/src/rDock_2013.1_src/data/scripts/dock_solv.prm

>  <Rbt.Receptor>
prm/pocket_docking_4.prm

>  <SCORE>
1.40022

>  <SCORE.INTER>
3.873

>  <SCORE.INTER.CONST>
1

>  <SCORE.INTER.POLAR>
0

>  <SCORE.INTER.ROT>
6

>  <SCORE.INTER.SOLV>
10.9483

>  <SCORE.INTER.VDW>
-8.66743

>  <SCORE.INTER.norm>
0.124935

>  <SCORE.INTRA>
-2.47278

>  <SCORE.INTRA.DIHEDRAL>
-7.38876

>  <SCORE.INTRA.DIHEDRAL.0>
10.8172

>  <SCORE.INTRA.POLAR>
0

>  <SCORE.INTRA.POLAR.0>
0

>  <SCORE.INTRA.REPUL>
0

>  <SCORE.INTRA.REPUL.0>
0

>  <SCORE.INTRA.SOLV>
-2.51726

>  <SCORE.INTRA.SOLV.lig_0>
-80.3833

>  <SCORE.INTRA.VDW>
2.48023

>  <SCORE.INTRA.VDW.0>
-4.63762

>  <SCORE.INTRA.norm>
-0.0797671

>  <SCORE.RESTR>
0

>  <SCORE.RESTR.CAVITY>
0

>  <SCORE.RESTR.norm>
0

>  <SCORE.SYSTEM>
0

>  <SCORE.SYSTEM.CONST>
0

>  <SCORE.SYSTEM.DIHEDRAL>
0

>  <SCORE.SYSTEM.SOLV>
0

>  <SCORE.SYSTEM.norm>
0

>  <SCORE.heavy>
31

>  <SCORE.norm>
0.0451683

>  <RMSD>
7.261

$$$$
ligand
 OpenBabel11021811473D
libRbt.so/2013.1/901 2013/11/27
 31 33  0  0  0  0  0  0  0  0999 V2000
   20.0558    6.0565   15.2205 C   0  0  0  0  0  0  0  0  0  0  0  0
   14.5299    4.9989   11.5401 N   0  0  0  0  0  0  0  0  0  0  0  0
   20.8825    6.2889   14.0754 O   0  0  0  0  0  0  0  0  0  0  0  0
   19.2957    4.7371   15.0633 C   0  0  1  0  0  0  0  0  0  0  0  0
   15.8032    0.2860   11.2738 N   0  0  0  0  0  0  0  0  0  0  0  0
   18.6698    4.6759   13.7667 O   0  0  0  0  0  0  0  0  0  0  0  0
   19.0909    3.4664   13.1112 C   0  0  1  0  0  0  0  0  0  0  0  0
   18.9476   -3.1647   11.6971 N   0  0  0  0  0  0  0  0  0  0  0  0
   19.1925    3.6403   11.6891 O   0  0  0  0  0  0  0  0  0  0  0  0
   17.9612    3.4086   10.9889 C   0  0  2  0  0  0  0  0  0  0  0  0
   20.4198    2.6253    9.2466 N   0  0  0  0  0  0  0  0  0  0  0  0
   17.2562    5.6990   11.3043 O   0  0  0  0  0  0  0  0  0  0  0  0
   16.9088    4.3429   11.5970 C   0  0  1  0  0  0  0  0  0  0  0  0
   18.3914    1.0653   10.3523 O   0  0  0  0  0  0  0  0  0  0  0  0
   15.5221    4.0435   11.0241 C   0  0  1  0  0  0  0  0  0  0  0  0
   19.9304   -0.4905   11.2176 O   0  0  0  0  0  0  0  0  0  0  0  0
   15.1219    2.6168   11.4006 C   0  0  0  0  0  0  0  0  0  0  0  0
   20.5281   -2.0561    7.9514 O   0  0  0  0  0  0  0  0  0  0  0  0
   16.1207    1.6349   10.7810 C   0  0  1  0  0  0  0  0  0  0  0  0
   21.6582    0.5650    7.6088 O   0  0  0  0  0  0  0  0  0  0  0  0
   17.5769    1.9410   11.1515 C   0  0  2  0  0  0  0  0  0  0  0  0
   20.9357    1.8877   13.5145 O   0  0  0  0  0  0  0  0  0  0  0  0
   19.7318    0.8830   10.8348 C   0  0  1  0  0  0  0  0  0  0  0  0
   19.6892    2.4181   15.7866 O   0  0  0  0  0  0  0  0  0  0  0  0
   19.7426   -1.4338   10.1489 C   0  0  2  0  0  0  0  0  0  0  0  0
   19.9678   -2.8498   10.6843 C   0  0  0  0  0  0  0  0  0  0  0  0
   20.7590   -1.1573    9.0395 C   0  0  2  0  0  0  0  0  0  0  0  0
   20.6130    0.2834    8.5455 C   0  0  1  0  0  0  0  0  0  0  0  0
   20.7102    1.2626    9.7183 C   0  0  1  0  0  0  0  0  0  0  0  0
   20.4941    3.2385   13.6695 C   0  0  2  0  0  0  0  0  0  0  0  0
   20.2681    3.5569   15.1444 C   0  0  1  0  0  0  0  0  0  0  0  0
  1  3  1  0  0  0  0
  4  1  1  6  0  0  0
  4  6  1  0  0  0  0
  4 31  1  0  0  0  0
  6  7  1  0  0  0  0
  7  9  1  6  0  0  0
  7 30  1  0  0  0  0
  8 26  1  0  0  0  0
 10  9  1  1  0  0  0
 10 13  1  0  0  0  0
 10 21  1  0  0  0  0
 13 12  1  6  0  0  0
 13 15  1  0  0  0  0
 15  2  1  1  0  0  0
 15 17  1  0  0  0  0
 16 25  1  0  0  0  0
 16 23  1  0  0  0  0
 17 19  1  0  0  0  0
 19  5  1  1  0  0  0
 19 21  1  0  0  0  0
 21 14  1  6  0  0  0
 23 14  1  6  0  0  0
 23 29  1  0  0  0  0
 25 26  1  1  0  0  0
 25 27  1  0  0  0  0
 27 18  1  6  0  0  0
 27 28  1  0  0  0  0
 28 20  1  6  0  0  0
 28 29  1  0  0  0  0
 29 11  1  6  0  0  0
 30 22  1  1  0  0  0
 30 31  1  0  0  0  0
 31 24  1  1  0  0  0
M  END
>  <CHROM.1>
-48.76332492,-87.15808553,56.12315821,115.60314469,73.51124246,63.92555671
18.96413780,2.09033031,11.59500452,-1.79434139,0.42772239,-2.43496359

>  <Name>
ligand

>  <RI>
0

>  <Rbt.Current_Directory>
/home/itssahil/PROJECTS/Mol_Feturizer/New_Systems/rnas/3DVV

>  <Rbt.Executable>
rbdock ($Id: //depot/dev/client3/rdock/2013.1/src/exe/rbdock.cxx#4 $)

>  <Rbt.Library>
libRbt.so (2013.1, Build901 2013/11/27)

>  <Rbt.Parameter_File>
/export/apps/rDock/src/rDock_2013.1_src/data/scripts/dock_solv.prm

>  <Rbt.Receptor>
prm/blind_docking_80.prm

>  <SCORE>
2.16872

>  <SCORE.INTER>
-0.262115

>  <SCORE.INTER.CONST>
1

>  <SCORE.INTER.POLAR>
0

>  <SCORE.INTER.ROT>
6

>  <SCORE.INTER.SOLV>
19.6964

>  <SCORE.INTER.VDW>
-14.3402

>  <SCORE.INTER.norm>
-0.00845533

>  <SCORE.INTRA>
2.02168

>  <SCORE.INTRA.DIHEDRAL>
0.912103

>  <SCORE.INTRA.DIHEDRAL.0>
10.8172

>  <SCORE.INTRA.POLAR>
0

>  <SCORE.INTRA.POLAR.0>
0

>  <SCORE.INTRA.REPUL>
0

>  <SCORE.INTRA.REPUL.0>
0

>  <SCORE.INTRA.SOLV>
-1.52118

>  <SCORE.INTRA.SOLV.lig_0>
-80.3833

>  <SCORE.INTRA.VDW>
2.32621

>  <SCORE.INTRA.VDW.0>
-4.63762

>  <SCORE.INTRA.norm>
0.0652153

>  <SCORE.RESTR>
0.409158

>  <SCORE.RESTR.CAVITY>
0.409158

>  <SCORE.RESTR.norm>
0.0131986

>  <SCORE.SYSTEM>
0

>  <SCORE.SYSTEM.CONST>
0

>  <SCORE.SYSTEM.DIHEDRAL>
0

>  <SCORE.SYSTEM.SOLV>
0

>  <SCORE.SYSTEM.norm>
0

>  <SCORE.heavy>
31

>  <SCORE.norm>
0.0699586

>  <RMSD>
7.269

$$$$
ligand
 OpenBabel11021811473D
libRbt.so/2013.1/901 2013/11/27
 31 33  0  0  0  0  0  0  0  0999 V2000
   21.0781    3.8914   16.8114 C   0  0  0  0  0  0  0  0  0  0  0  0
   19.1621    8.7453   10.7724 N   0  0  0  0  0  0  0  0  0  0  0  0
   19.9071    3.2563   16.2876 O   0  0  0  0  0  0  0  0  0  0  0  0
   21.8233    4.6272   15.6949 C   0  0  1  0  0  0  0  0  0  0  0  0
   16.5015   10.1554   14.6242 N   0  0  0  0  0  0  0  0  0  0  0  0
   20.9670    5.6197   15.0965 O   0  0  0  0  0  0  0  0  0  0  0  0
   21.6356    6.8925   15.1468 C   0  0  1  0  0  0  0  0  0  0  0  0
   16.2033   12.0495   17.9801 N   0  0  0  0  0  0  0  0  0  0  0  0
   20.7063    7.9748   15.3144 O   0  0  0  0  0  0  0  0  0  0  0  0
   19.5468    7.8765   14.4743 C   0  0  2  0  0  0  0  0  0  0  0  0
   18.6507    5.9950   17.7110 N   0  0  0  0  0  0  0  0  0  0  0  0
   20.8958    7.3756   12.5322 O   0  0  0  0  0  0  0  0  0  0  0  0
   19.9647    8.3200   13.0675 C   0  0  1  0  0  0  0  0  0  0  0  0
   17.8496    8.2170   16.2307 O   0  0  0  0  0  0  0  0  0  0  0  0
   18.7488    8.4078   12.1431 C   0  0  1  0  0  0  0  0  0  0  0  0
   18.1670    9.6663   18.0574 O   0  0  0  0  0  0  0  0  0  0  0  0
   17.7884    9.4703   12.6781 C   0  0  0  0  0  0  0  0  0  0  0  0
   15.0801    8.5972   19.7319 O   0  0  0  0  0  0  0  0  0  0  0  0
   17.3049    9.0548   14.0707 C   0  0  1  0  0  0  0  0  0  0  0  0
   16.7209    6.2409   19.8735 O   0  0  0  0  0  0  0  0  0  0  0  0
   18.4521    8.7713   15.0480 C   0  0  2  0  0  0  0  0  0  0  0  0
   23.5585    7.7341   16.4321 O   0  0  0  0  0  0  0  0  0  0  0  0
   18.5896    8.4354   17.4421 C   0  0  1  0  0  0  0  0  0  0  0  0
   24.1427    5.3827   15.3703 O   0  0  0  0  0  0  0  0  0  0  0  0
   16.7738    9.7013   18.4107 C   0  0  2  0  0  0  0  0  0  0  0  0
   16.4497   11.0584   19.0397 C   0  0  0  0  0  0  0  0  0  0  0  0
   16.4781    8.6004   19.4309 C   0  0  2  0  0  0  0  0  0  0  0  0
   16.8755    7.2382   18.8583 C   0  0  1  0  0  0  0  0  0  0  0  0
   18.3333    7.2600   18.3912 C   0  0  1  0  0  0  0  0  0  0  0  0
   22.4864    6.7888   16.4109 C   0  0  2  0  0  0  0  0  0  0  0  0
   23.0319    5.3708   16.2705 C   0  0  1  0  0  0  0  0  0  0  0  0
  1  3  1  0  0  0  0
  4  1  1  1  0  0  0
  4  6  1  0  0  0  0
  4 31  1  0  0  0  0
  6  7  1  0  0  0  0
  7  9  1  1  0  0  0
  7 30  1  0  0  0  0
  8 26  1  0  0  0  0
 10  9  1  1  0  0  0
 10 13  1  0  0  0  0
 10 21  1  0  0  0  0
 13 12  1  6  0  0  0
 13 15  1  0  0  0  0
 15  2  1  6  0  0  0
 15 17  1  0  0  0  0
 16 25  1  0  0  0  0
 16 23  1  0  0  0  0
 17 19  1  0  0  0  0
 19  5  1  1  0  0  0
 19 21  1  0  0  0  0
 21 14  1  1  0  0  0
 23 14  1  6  0  0  0
 23 29  1  0  0  0  0
 25 26  1  1  0  0  0
 25 27  1  0  0  0  0
 27 18  1  6  0  0  0
 27 28  1  0  0  0  0
 28 20  1  1  0  0  0
 28 29  1  0  0  0  0
 29 11  1  6  0  0  0
 30 22  1  6  0  0  0
 30 31  1  0  0  0  0
 31 24  1  6  0  0  0
M  END
>  <CHROM.1>
59.19093568,-44.57683501,-77.77548404,90.18600116,81.48209077,82.98215062
19.18204267,7.67207516,16.12864802,-0.25789671,-0.68823989,1.99989968

>  <Name>
ligand

>  <RI>
0

>  <Rbt.Current_Directory>
/home/itssahil/PROJECTS/Mol_Feturizer/New_Systems/rnas/3DVV

>  <Rbt.Executable>
rbdock ($Id: //depot/dev/client3/rdock/2013.1/src/exe/rbdock.cxx#4 $)

>  <Rbt.Library>
libRbt.so (2013.1, Build901 2013/11/27)

>  <Rbt.Parameter_File>
/export/apps/rDock/src/rDock_2013.1_src/data/scripts/dock_solv.prm

>  <Rbt.Receptor>
prm/pocket_docking_6.prm

>  <SCORE>
-7.39324

>  <SCORE.INTER>
-8.46788

>  <SCORE.INTER.CONST>
1

>  <SCORE.INTER.POLAR>
0

>  <SCORE.INTER.ROT>
6

>  <SCORE.INTER.SOLV>
16.5945

>  <SCORE.INTER.VDW>
-18.7767

>  <SCORE.INTER.norm>
-0.273157

>  <SCORE.INTRA>
1.07464

>  <SCORE.INTRA.DIHEDRAL>
-0.709314

>  <SCORE.INTRA.DIHEDRAL.0>
10.8172

>  <SCORE.INTRA.POLAR>
0

>  <SCORE.INTRA.POLAR.0>
0

>  <SCORE.INTRA.REPUL>
0

>  <SCORE.INTRA.REPUL.0>
0

>  <SCORE.INTRA.SOLV>
-0.0122456

>  <SCORE.INTRA.SOLV.lig_0>
-80.3833

>  <SCORE.INTRA.VDW>
1.43542

>  <SCORE.INTRA.VDW.0>
-4.63762

>  <SCORE.INTRA.norm>
0.0346658

>  <SCORE.RESTR>
0

>  <SCORE.RESTR.CAVITY>
0

>  <SCORE.RESTR.norm>
0

>  <SCORE.SYSTEM>
0

>  <SCORE.SYSTEM.CONST>
0

>  <SCORE.SYSTEM.DIHEDRAL>
0

>  <SCORE.SYSTEM.SOLV>
0

>  <SCORE.SYSTEM.norm>
0

>  <SCORE.heavy>
31

>  <SCORE.norm>
-0.238492

>  <RMSD>
7.284

$$$$
ligand
 OpenBabel11021811473D
libRbt.so/2013.1/901 2013/11/27
 31 33  0  0  0  0  0  0  0  0999 V2000
   20.3607    7.7833   14.2382 C   0  0  0  0  0  0  0  0  0  0  0  0
   13.1735    4.9368   11.7951 N   0  0  0  0  0  0  0  0  0  0  0  0
   21.1013    7.2600   15.3457 O   0  0  0  0  0  0  0  0  0  0  0  0
   20.5303    6.8782   13.0154 C   0  0  1  0  0  0  0  0  0  0  0  0
   15.5359    0.7378   10.9636 N   0  0  0  0  0  0  0  0  0  0  0  0
   19.9653    5.5787   13.2770 O   0  0  0  0  0  0  0  0  0  0  0  0
   19.0134    5.2759   12.2417 C   0  0  1  0  0  0  0  0  0  0  0  0
   18.3003   -2.8443   11.3270 N   0  0  0  0  0  0  0  0  0  0  0  0
   17.9187    4.4903   12.7392 O   0  0  0  0  0  0  0  0  0  0  0  0
   16.9224    4.1946   11.7493 C   0  0  2  0  0  0  0  0  0  0  0  0
   20.4376    3.1708    9.9001 N   0  0  0  0  0  0  0  0  0  0  0  0
   15.6584    6.1766   12.3120 O   0  0  0  0  0  0  0  0  0  0  0  0
   15.5894    4.7488   12.2654 C   0  0  1  0  0  0  0  0  0  0  0  0
   17.9940    2.1831   10.8077 O   0  0  0  0  0  0  0  0  0  0  0  0
   14.4373    4.3301   11.3498 C   0  0  1  0  0  0  0  0  0  0  0  0
   19.0430    0.6564   12.2593 O   0  0  0  0  0  0  0  0  0  0  0  0
   14.3192    2.8058   11.3585 C   0  0  0  0  0  0  0  0  0  0  0  0
   19.9428   -1.6496    9.5484 O   0  0  0  0  0  0  0  0  0  0  0  0
   15.6141    2.1985   10.8107 C   0  0  1  0  0  0  0  0  0  0  0  0
   21.5675    0.6532    8.9805 O   0  0  0  0  0  0  0  0  0  0  0  0
   16.8676    2.6830   11.5494 C   0  0  2  0  0  0  0  0  0  0  0  0
   17.8627    6.6535   10.5577 O   0  0  0  0  0  0  0  0  0  0  0  0
   19.1676    1.9276   11.5951 C   0  0  1  0  0  0  0  0  0  0  0  0
   20.4450    7.2271   10.5809 O   0  0  0  0  0  0  0  0  0  0  0  0
   18.8898   -0.4619   11.3687 C   0  0  2  0  0  0  0  0  0  0  0  0
   18.7550   -1.7446   12.1927 C   0  0  0  0  0  0  0  0  0  0  0  0
   20.1262   -0.5760   10.4751 C   0  0  2  0  0  0  0  0  0  0  0  0
   20.3342    0.7287    9.7033 C   0  0  1  0  0  0  0  0  0  0  0  0
   20.3871    1.9168   10.6673 C   0  0  1  0  0  0  0  0  0  0  0  0
   18.4786    6.6512   11.8477 C   0  0  2  0  0  0  0  0  0  0  0  0
   19.7712    7.4613   11.8201 C   0  0  1  0  0  0  0  0  0  0  0  0
  1  3  1  0  0  0  0
  4  1  1  1  0  0  0
  4  6  1  0  0  0  0
  4 31  1  0  0  0  0
  6  7  1  0  0  0  0
  7  9  1  1  0  0  0
  7 30  1  0  0  0  0
  8 26  1  0  0  0  0
 10  9  1  1  0  0  0
 10 13  1  0  0  0  0
 10 21  1  0  0  0  0
 13 12  1  6  0  0  0
 13 15  1  0  0  0  0
 15  2  1  1  0  0  0
 15 17  1  0  0  0  0
 16 25  1  0  0  0  0
 16 23  1  0  0  0  0
 17 19  1  0  0  0  0
 19  5  1  1  0  0  0
 19 21  1  0  0  0  0
 21 14  1  6  0  0  0
 23 14  1  6  0  0  0
 23 29  1  0  0  0  0
 25 26  1  1  0  0  0
 25 27  1  0  0  0  0
 27 18  1  6  0  0  0
 27 28  1  0  0  0  0
 28 20  1  1  0  0  0
 28 29  1  0  0  0  0
 29 11  1  6  0  0  0
 30 22  1  6  0  0  0
 30 31  1  0  0  0  0
 31 24  1  6  0  0  0
M  END
>  <CHROM.1>
64.01876414,178.33493775,-121.90279675,80.50059399,84.12830552,167.41421570
18.37703580,3.31566420,11.57588954,-1.60482597,0.00325238,-2.87587908

>  <Name>
ligand

>  <RI>
0

>  <Rbt.Current_Directory>
/home/itssahil/PROJECTS/Mol_Feturizer/New_Systems/rnas/3DVV

>  <Rbt.Executable>
rbdock ($Id: //depot/dev/client3/rdock/2013.1/src/exe/rbdock.cxx#4 $)

>  <Rbt.Library>
libRbt.so (2013.1, Build901 2013/11/27)

>  <Rbt.Parameter_File>
/export/apps/rDock/src/rDock_2013.1_src/data/scripts/dock_solv.prm

>  <Rbt.Receptor>
prm/blind_docking_60.prm

>  <SCORE>
-0.55225

>  <SCORE.INTER>
-2.91854

>  <SCORE.INTER.CONST>
1

>  <SCORE.INTER.POLAR>
0

>  <SCORE.INTER.ROT>
6

>  <SCORE.INTER.SOLV>
22.1461

>  <SCORE.INTER.VDW>
-16.9277

>  <SCORE.INTER.norm>
-0.0941464

>  <SCORE.INTRA>
1.74115

>  <SCORE.INTRA.DIHEDRAL>
1.58276

>  <SCORE.INTRA.DIHEDRAL.0>
10.8172

>  <SCORE.INTRA.POLAR>
0

>  <SCORE.INTRA.POLAR.0>
0

>  <SCORE.INTRA.REPUL>
0

>  <SCORE.INTRA.REPUL.0>
0

>  <SCORE.INTRA.SOLV>
-0.65385

>  <SCORE.INTRA.SOLV.lig_0>
-80.3833

>  <SCORE.INTRA.VDW>
1.27669

>  <SCORE.INTRA.VDW.0>
-4.63762

>  <SCORE.INTRA.norm>
0.056166

>  <SCORE.RESTR>
0.625144

>  <SCORE.RESTR.CAVITY>
0.625144

>  <SCORE.RESTR.norm>
0.0201659

>  <SCORE.SYSTEM>
0

>  <SCORE.SYSTEM.CONST>
0

>  <SCORE.SYSTEM.DIHEDRAL>
0

>  <SCORE.SYSTEM.SOLV>
0

>  <SCORE.SYSTEM.norm>
0

>  <SCORE.heavy>
31

>  <SCORE.norm>
-0.0178145

>  <RMSD>
7.292

$$$$
ligand
 OpenBabel11021811473D
libRbt.so/2013.1/901 2013/11/27
 31 33  0  0  0  0  0  0  0  0999 V2000
   25.1128    2.5792   17.1272 C   0  0  0  0  0  0  0  0  0  0  0  0
   20.1338    9.9707   15.5809 N   0  0  0  0  0  0  0  0  0  0  0  0
   26.4977    2.2982   17.3551 O   0  0  0  0  0  0  0  0  0  0  0  0
   24.9612    3.6094   16.0052 C   0  0  1  0  0  0  0  0  0  0  0  0
   17.4175    5.9349   15.0937 N   0  0  0  0  0  0  0  0  0  0  0  0
   23.5660    3.8615   15.7476 O   0  0  0  0  0  0  0  0  0  0  0  0
   23.3293    5.2769   15.8505 C   0  0  1  0  0  0  0  0  0  0  0  0
   16.6587    3.6920   17.7762 N   0  0  0  0  0  0  0  0  0  0  0  0
   22.0177    5.5607   16.3624 O   0  0  0  0  0  0  0  0  0  0  0  0
   21.1894    6.2997   15.4526 C   0  0  2  0  0  0  0  0  0  0  0  0
   21.2667    2.3614   13.4973 N   0  0  0  0  0  0  0  0  0  0  0  0
   22.4226    8.3387   15.8580 O   0  0  0  0  0  0  0  0  0  0  0  0
   21.1265    7.7435   15.9643 C   0  0  1  0  0  0  0  0  0  0  0  0
   19.7994    4.4142   14.6821 O   0  0  0  0  0  0  0  0  0  0  0  0
   20.1267    8.5650   15.1479 C   0  0  1  0  0  0  0  0  0  0  0  0
   19.0274    3.0000   16.3974 O   0  0  0  0  0  0  0  0  0  0  0  0
   18.7293    7.9696   15.3214 C   0  0  0  0  0  0  0  0  0  0  0  0
   16.5745    1.3369   14.2309 O   0  0  0  0  0  0  0  0  0  0  0  0
   18.7244    6.5350   14.7853 C   0  0  1  0  0  0  0  0  0  0  0  0
   19.0818    0.4795   13.1160 O   0  0  0  0  0  0  0  0  0  0  0  0
   19.8086    5.6519   15.4148 C   0  0  2  0  0  0  0  0  0  0  0  0
   24.6168    7.1320   16.8297 O   0  0  0  0  0  0  0  0  0  0  0  0
   20.0969    3.2482   15.4662 C   0  0  1  0  0  0  0  0  0  0  0  0
   26.1970    5.6285   15.3331 O   0  0  0  0  0  0  0  0  0  0  0  0
   17.7495    2.7695   15.7802 C   0  0  2  0  0  0  0  0  0  0  0  0
   16.7013    2.5332   16.8701 C   0  0  0  0  0  0  0  0  0  0  0  0
   17.8282    1.5263   14.8922 C   0  0  2  0  0  0  0  0  0  0  0  0
   18.9307    1.7017   13.8459 C   0  0  1  0  0  0  0  0  0  0  0  0
   20.2586    2.0516   14.5227 C   0  0  1  0  0  0  0  0  0  0  0  0
   24.3578    5.7272   16.8858 C   0  0  2  0  0  0  0  0  0  0  0  0
   25.5839    4.9430   16.4279 C   0  0  1  0  0  0  0  0  0  0  0  0
  1  3  1  0  0  0  0
  4  1  1  1  0  0  0
  4  6  1  0  0  0  0
  4 31  1  0  0  0  0
  6  7  1  0  0  0  0
  7  9  1  1  0  0  0
  7 30  1  0  0  0  0
  8 26  1  0  0  0  0
 10  9  1  1  0  0  0
 10 13  1  0  0  0  0
 10 21  1  0  0  0  0
 13 12  1  6  0  0  0
 13 15  1  0  0  0  0
 15  2  1  1  0  0  0
 15 17  1  0  0  0  0
 16 25  1  0  0  0  0
 16 23  1  0  0  0  0
 17 19  1  0  0  0  0
 19  5  1  1  0  0  0
 19 21  1  0  0  0  0
 21 14  1  6  0  0  0
 23 14  1  6  0  0  0
 23 29  1  0  0  0  0
 25 26  1  1  0  0  0
 25 27  1  0  0  0  0
 27 18  1  6  0  0  0
 27 28  1  0  0  0  0
 28 20  1  1  0  0  0
 28 29  1  0  0  0  0
 29 11  1  6  0  0  0
 30 22  1  6  0  0  0
 30 31  1  0  0  0  0
 31 24  1  6  0  0  0
M  END
>  <CHROM.1>
178.23623640,-118.60262691,-104.77932032,68.09851576,88.83204727,57.71414135
21.00886044,4.58373789,15.60476667,-0.37496461,0.14169621,-3.05414413

>  <Name>
ligand

>  <RI>
0

>  <Rbt.Current_Directory>
/home/itssahil/PROJECTS/Mol_Feturizer/New_Systems/rnas/3DVV

>  <Rbt.Executable>
rbdock ($Id: //depot/dev/client3/rdock/2013.1/src/exe/rbdock.cxx#4 $)

>  <Rbt.Library>
libRbt.so (2013.1, Build901 2013/11/27)

>  <Rbt.Parameter_File>
/export/apps/rDock/src/rDock_2013.1_src/data/scripts/dock_solv.prm

>  <Rbt.Receptor>
prm/pocket_docking_4.prm

>  <SCORE>
-4.6625

>  <SCORE.INTER>
-7.81324

>  <SCORE.INTER.CONST>
1

>  <SCORE.INTER.POLAR>
0

>  <SCORE.INTER.ROT>
6

>  <SCORE.INTER.SOLV>
21.3725

>  <SCORE.INTER.VDW>
-19.933

>  <SCORE.INTER.norm>
-0.25204

>  <SCORE.INTRA>
3.15074

>  <SCORE.INTRA.DIHEDRAL>
6.07537

>  <SCORE.INTRA.DIHEDRAL.0>
10.8172

>  <SCORE.INTRA.POLAR>
0

>  <SCORE.INTRA.POLAR.0>
0

>  <SCORE.INTRA.REPUL>
0

>  <SCORE.INTRA.REPUL.0>
0

>  <SCORE.INTRA.SOLV>
-0.740346

>  <SCORE.INTRA.SOLV.lig_0>
-80.3833

>  <SCORE.INTRA.VDW>
0.483227

>  <SCORE.INTRA.VDW.0>
-4.63762

>  <SCORE.INTRA.norm>
0.101637

>  <SCORE.RESTR>
0

>  <SCORE.RESTR.CAVITY>
0

>  <SCORE.RESTR.norm>
0

>  <SCORE.SYSTEM>
0

>  <SCORE.SYSTEM.CONST>
0

>  <SCORE.SYSTEM.DIHEDRAL>
0

>  <SCORE.SYSTEM.SOLV>
0

>  <SCORE.SYSTEM.norm>
0

>  <SCORE.heavy>
31

>  <SCORE.norm>
-0.150403

>  <RMSD>
7.292

$$$$
ligand
 OpenBabel11021811473D
libRbt.so/2013.1/901 2013/11/27
 31 33  0  0  0  0  0  0  0  0999 V2000
   25.0617    2.4889   16.9702 C   0  0  0  0  0  0  0  0  0  0  0  0
   20.2094    9.9978   15.6197 N   0  0  0  0  0  0  0  0  0  0  0  0
   26.4394    2.1609   17.1779 O   0  0  0  0  0  0  0  0  0  0  0  0
   24.9342    3.5811   15.9052 C   0  0  1  0  0  0  0  0  0  0  0  0
   17.4013    6.0268   15.1201 N   0  0  0  0  0  0  0  0  0  0  0  0
   23.5449    3.8616   15.6453 O   0  0  0  0  0  0  0  0  0  0  0  0
   23.3208    5.2715   15.8234 C   0  0  1  0  0  0  0  0  0  0  0  0
   16.6425    3.7099   17.7946 N   0  0  0  0  0  0  0  0  0  0  0  0
   22.0057    5.5403   16.3345 O   0  0  0  0  0  0  0  0  0  0  0  0
   21.1839    6.3065   15.4415 C   0  0  2  0  0  0  0  0  0  0  0  0
   21.1867    2.4276   13.4163 N   0  0  0  0  0  0  0  0  0  0  0  0
   22.4651    8.3141   15.8547 O   0  0  0  0  0  0  0  0  0  0  0  0
   21.1577    7.7458   15.9689 C   0  0  1  0  0  0  0  0  0  0  0  0
   19.7452    4.4597   14.6666 O   0  0  0  0  0  0  0  0  0  0  0  0
   20.1672    8.5973   15.1721 C   0  0  1  0  0  0  0  0  0  0  0  0
   19.0191    3.0193   16.3801 O   0  0  0  0  0  0  0  0  0  0  0  0
   18.7592    8.0303   15.3547 C   0  0  0  0  0  0  0  0  0  0  0  0
   16.5163    1.3815   14.2518 O   0  0  0  0  0  0  0  0  0  0  0  0
   18.7175    6.6019   14.8037 C   0  0  1  0  0  0  0  0  0  0  0  0
   18.9968    0.5461   13.0626 O   0  0  0  0  0  0  0  0  0  0  0  0
   19.7890    5.6890   15.4121 C   0  0  2  0  0  0  0  0  0  0  0  0
   24.6138    7.0562   16.9193 O   0  0  0  0  0  0  0  0  0  0  0  0
   20.0645    3.2834   15.4262 C   0  0  1  0  0  0  0  0  0  0  0  0
   26.1981    5.6212   15.3609 O   0  0  0  0  0  0  0  0  0  0  0  0
   17.7267    2.7946   15.7917 C   0  0  2  0  0  0  0  0  0  0  0  0
   16.7065    2.5402   16.9039 C   0  0  0  0  0  0  0  0  0  0  0  0
   17.7858    1.5644   14.8843 C   0  0  2  0  0  0  0  0  0  0  0  0
   18.8615    1.7574   13.8134 C   0  0  1  0  0  0  0  0  0  0  0  0
   20.2051    2.1008   14.4619 C   0  0  1  0  0  0  0  0  0  0  0  0
   24.3405    5.6532   16.8944 C   0  0  2  0  0  0  0  0  0  0  0  0
   25.5646    4.8827   16.4086 C   0  0  1  0  0  0  0  0  0  0  0  0
  1  3  1  0  0  0  0
  4  1  1  1  0  0  0
  4  6  1  0  0  0  0
  4 31  1  0  0  0  0
  6  7  1  0  0  0  0
  7  9  1  1  0  0  0
  7 30  1  0  0  0  0
  8 26  1  0  0  0  0
 10  9  1  1  0  0  0
 10 13  1  0  0  0  0
 10 21  1  0  0  0  0
 13 12  1  6  0  0  0
 13 15  1  0  0  0  0
 15  2  1  1  0  0  0
 15 17  1  0  0  0  0
 16 25  1  0  0  0  0
 16 23  1  0  0  0  0
 17 19  1  0  0  0  0
 19  5  1  1  0  0  0
 19 21  1  0  0  0  0
 21 14  1  6  0  0  0
 23 14  1  6  0  0  0
 23 29  1  0  0  0  0
 25 26  1  1  0  0  0
 25 27  1  0  0  0  0
 27 18  1  6  0  0  0
 27 28  1  0  0  0  0
 28 20  1  1  0  0  0
 28 29  1  0  0  0  0
 29 11  1  6  0  0  0
 30 22  1  6  0  0  0
 30 31  1  0  0  0  0
 31 24  1  6  0  0  0
M  END
>  <CHROM.1>
176.98495903,-117.01977942,-102.83357067,68.95429768,87.07515323,60.11821619
20.99039755,4.59157996,15.58566667,-0.36799728,0.13321196,-3.04429069

>  <Name>
ligand

>  <RI>
0

>  <Rbt.Current_Directory>
/home/itssahil/PROJECTS/Mol_Feturizer/New_Systems/rnas/3DVV

>  <Rbt.Executable>
rbdock ($Id: //depot/dev/client3/rdock/2013.1/src/exe/rbdock.cxx#4 $)

>  <Rbt.Library>
libRbt.so (2013.1, Build901 2013/11/27)

>  <Rbt.Parameter_File>
/export/apps/rDock/src/rDock_2013.1_src/data/scripts/dock_solv.prm

>  <Rbt.Receptor>
prm/pocket_docking_4.prm

>  <SCORE>
-4.75311

>  <SCORE.INTER>
-7.51313

>  <SCORE.INTER.CONST>
1

>  <SCORE.INTER.POLAR>
0

>  <SCORE.INTER.ROT>
6

>  <SCORE.INTER.SOLV>
21.4872

>  <SCORE.INTER.VDW>
-19.7712

>  <SCORE.INTER.norm>
-0.242359

>  <SCORE.INTRA>
2.76002

>  <SCORE.INTRA.DIHEDRAL>
5.51952

>  <SCORE.INTRA.DIHEDRAL.0>
10.8172

>  <SCORE.INTRA.POLAR>
0

>  <SCORE.INTRA.POLAR.0>
0

>  <SCORE.INTRA.REPUL>
0

>  <SCORE.INTRA.REPUL.0>
0

>  <SCORE.INTRA.SOLV>
-0.970609

>  <SCORE.INTRA.SOLV.lig_0>
-80.3833

>  <SCORE.INTRA.VDW>
0.485562

>  <SCORE.INTRA.VDW.0>
-4.63762

>  <SCORE.INTRA.norm>
0.0890328

>  <SCORE.RESTR>
0

>  <SCORE.RESTR.CAVITY>
0

>  <SCORE.RESTR.norm>
0

>  <SCORE.SYSTEM>
0

>  <SCORE.SYSTEM.CONST>
0

>  <SCORE.SYSTEM.DIHEDRAL>
0

>  <SCORE.SYSTEM.SOLV>
0

>  <SCORE.SYSTEM.norm>
0

>  <SCORE.heavy>
31

>  <SCORE.norm>
-0.153326

>  <RMSD>
7.302

$$$$
ligand
 OpenBabel11021811473D
libRbt.so/2013.1/901 2013/11/27
 31 33  0  0  0  0  0  0  0  0999 V2000
   18.2457   -3.0657   12.1633 C   0  0  0  0  0  0  0  0  0  0  0  0
   12.9513    3.6271   11.1532 N   0  0  0  0  0  0  0  0  0  0  0  0
   19.2863   -2.2678   11.5895 O   0  0  0  0  0  0  0  0  0  0  0  0
   16.8769   -2.4678   11.8285 C   0  0  1  0  0  0  0  0  0  0  0  0
   17.2165    5.6448   12.4343 N   0  0  0  0  0  0  0  0  0  0  0  0
   16.8146   -1.0954   12.2634 O   0  0  0  0  0  0  0  0  0  0  0  0
   16.4398   -0.2758   11.1420 C   0  0  1  0  0  0  0  0  0  0  0  0
   18.7401    7.4901   13.2521 N   0  0  0  0  0  0  0  0  0  0  0  0
   17.0523    1.0219   11.2037 O   0  0  0  0  0  0  0  0  0  0  0  0
   16.3026    1.9794   11.9661 C   0  0  2  0  0  0  0  0  0  0  0  0
   20.2924    1.2312   13.4568 N   0  0  0  0  0  0  0  0  0  0  0  0
   14.2012    1.0941   11.1642 O   0  0  0  0  0  0  0  0  0  0  0  0
   15.0134    2.2710   11.1893 C   0  0  1  0  0  0  0  0  0  0  0  0
   18.2122    3.0521   13.0990 O   0  0  0  0  0  0  0  0  0  0  0  0
   14.2302    3.4093   11.8463 C   0  0  1  0  0  0  0  0  0  0  0  0
   19.7074    4.8314   12.7294 O   0  0  0  0  0  0  0  0  0  0  0  0
   15.0723    4.6848   11.8067 C   0  0  0  0  0  0  0  0  0  0  0  0
   20.5374    5.1710   16.2892 O   0  0  0  0  0  0  0  0  0  0  0  0
   16.3593    4.4621   12.6065 C   0  0  1  0  0  0  0  0  0  0  0  0
   21.6590    2.6090   15.6235 O   0  0  0  0  0  0  0  0  0  0  0  0
   17.1525    3.2340   12.1436 C   0  0  2  0  0  0  0  0  0  0  0  0
   16.4164   -0.6582    8.7107 O   0  0  0  0  0  0  0  0  0  0  0  0
   19.5196    3.4081   12.6228 C   0  0  1  0  0  0  0  0  0  0  0  0
   15.2972   -2.7057    9.9567 O   0  0  0  0  0  0  0  0  0  0  0  0
   19.6012    5.3416   14.0694 C   0  0  2  0  0  0  0  0  0  0  0  0
   19.8058    6.8583   14.0463 C   0  0  0  0  0  0  0  0  0  0  0  0
   20.6858    4.7098   14.9437 C   0  0  2  0  0  0  0  0  0  0  0  0
   20.5571    3.1854   14.9143 C   0  0  1  0  0  0  0  0  0  0  0  0
   20.5657    2.6764   13.4704 C   0  0  1  0  0  0  0  0  0  0  0  0
   17.0263   -1.0284    9.9495 C   0  0  2  0  0  0  0  0  0  0  0  0
   16.6609   -2.4646   10.3125 C   0  0  1  0  0  0  0  0  0  0  0  0
  1  3  1  0  0  0  0
  4  1  1  6  0  0  0
  4  6  1  0  0  0  0
  4 31  1  0  0  0  0
  6  7  1  0  0  0  0
  7  9  1  1  0  0  0
  7 30  1  0  0  0  0
  8 26  1  0  0  0  0
 10  9  1  6  0  0  0
 10 13  1  0  0  0  0
 10 21  1  0  0  0  0
 13 12  1  1  0  0  0
 13 15  1  0  0  0  0
 15  2  1  6  0  0  0
 15 17  1  0  0  0  0
 16 25  1  0  0  0  0
 16 23  1  0  0  0  0
 17 19  1  0  0  0  0
 19  5  1  6  0  0  0
 19 21  1  0  0  0  0
 21 14  1  1  0  0  0
 23 14  1  1  0  0  0
 23 29  1  0  0  0  0
 25 26  1  6  0  0  0
 25 27  1  0  0  0  0
 27 18  1  1  0  0  0
 27 28  1  0  0  0  0
 28 20  1  1  0  0  0
 28 29  1  0  0  0  0
 29 11  1  1  0  0  0
 30 22  1  6  0  0  0
 30 31  1  0  0  0  0
 31 24  1  1  0  0  0
M  END
>  <CHROM.1>
-55.64552767,-86.83412000,-67.94757682,81.79576571,127.59229133,62.73831132
17.70531807,2.08468892,12.38075434,-2.06989652,-0.49225577,0.24533702

>  <Name>
ligand

>  <RI>
0

>  <Rbt.Current_Directory>
/home/itssahil/PROJECTS/Mol_Feturizer/New_Systems/rnas/3DVV

>  <Rbt.Executable>
rbdock ($Id: //depot/dev/client3/rdock/2013.1/src/exe/rbdock.cxx#4 $)

>  <Rbt.Library>
libRbt.so (2013.1, Build901 2013/11/27)

>  <Rbt.Parameter_File>
/export/apps/rDock/src/rDock_2013.1_src/data/scripts/dock_solv.prm

>  <Rbt.Receptor>
prm/blind_docking_60.prm

>  <SCORE>
3.29345

>  <SCORE.INTER>
-1.54416

>  <SCORE.INTER.CONST>
1

>  <SCORE.INTER.POLAR>
0

>  <SCORE.INTER.ROT>
6

>  <SCORE.INTER.SOLV>
19.4528

>  <SCORE.INTER.VDW>
-15.1137

>  <SCORE.INTER.norm>
-0.0498115

>  <SCORE.INTRA>
4.80538

>  <SCORE.INTRA.DIHEDRAL>
1.56961

>  <SCORE.INTRA.DIHEDRAL.0>
10.8172

>  <SCORE.INTRA.POLAR>
0

>  <SCORE.INTRA.POLAR.0>
0

>  <SCORE.INTRA.REPUL>
0.00867856

>  <SCORE.INTRA.REPUL.0>
0

>  <SCORE.INTRA.SOLV>
2.04156

>  <SCORE.INTRA.SOLV.lig_0>
-80.3833

>  <SCORE.INTRA.VDW>
2.9564

>  <SCORE.INTRA.VDW.0>
-4.63762

>  <SCORE.INTRA.norm>
0.155012

>  <SCORE.RESTR>
0.0322305

>  <SCORE.RESTR.CAVITY>
0.0322305

>  <SCORE.RESTR.norm>
0.00103969

>  <SCORE.SYSTEM>
0

>  <SCORE.SYSTEM.CONST>
0

>  <SCORE.SYSTEM.DIHEDRAL>
0

>  <SCORE.SYSTEM.SOLV>
0

>  <SCORE.SYSTEM.norm>
0

>  <SCORE.heavy>
31

>  <SCORE.norm>
0.10624

>  <RMSD>
7.303

$$$$
ligand
 OpenBabel11021811473D
libRbt.so/2013.1/901 2013/11/27
 31 33  0  0  0  0  0  0  0  0999 V2000
   18.9253    8.3552    9.1561 C   0  0  0  0  0  0  0  0  0  0  0  0
   20.4249    5.2120   17.4149 N   0  0  0  0  0  0  0  0  0  0  0  0
   20.3310    8.2707    9.4126 O   0  0  0  0  0  0  0  0  0  0  0  0
   18.1375    8.0791   10.4392 C   0  0  1  0  0  0  0  0  0  0  0  0
   20.7558    1.4843   14.2687 N   0  0  0  0  0  0  0  0  0  0  0  0
   18.4473    6.7634   10.9389 O   0  0  0  0  0  0  0  0  0  0  0  0
   18.8812    6.8825   12.3054 C   0  0  1  0  0  0  0  0  0  0  0  0
   17.9414   -1.9058   12.1721 N   0  0  0  0  0  0  0  0  0  0  0  0
   19.8715    5.8963   12.6365 O   0  0  0  0  0  0  0  0  0  0  0  0
   19.4870    5.0300   13.7143 C   0  0  2  0  0  0  0  0  0  0  0  0
   20.2103    3.1088    9.7887 N   0  0  0  0  0  0  0  0  0  0  0  0
   19.5228    6.8535   15.3006 O   0  0  0  0  0  0  0  0  0  0  0  0
   20.1175    5.5893   14.9950 C   0  0  1  0  0  0  0  0  0  0  0  0
   19.2070    2.9714   12.3859 O   0  0  0  0  0  0  0  0  0  0  0  0
   19.8990    4.6331   16.1692 C   0  0  1  0  0  0  0  0  0  0  0  0
   19.1671    0.6188   12.3469 O   0  0  0  0  0  0  0  0  0  0  0  0
   20.5978    3.3062   15.8714 C   0  0  0  0  0  0  0  0  0  0  0  0
   16.1518    0.4794   10.2577 O   0  0  0  0  0  0  0  0  0  0  0  0
   19.9756    2.6808   14.6194 C   0  0  1  0  0  0  0  0  0  0  0  0
   18.1055    1.5960    8.4687 O   0  0  0  0  0  0  0  0  0  0  0  0
   19.9839    3.6205   13.4076 C   0  0  2  0  0  0  0  0  0  0  0  0
   19.6506    8.7825   13.6677 O   0  0  0  0  0  0  0  0  0  0  0  0
   19.8119    1.7955   11.8255 C   0  0  1  0  0  0  0  0  0  0  0  0
   17.4424    9.4400   12.3681 O   0  0  0  0  0  0  0  0  0  0  0  0
   17.7609    0.5395   12.0578 C   0  0  2  0  0  0  0  0  0  0  0  0
   17.1937   -0.7417   12.6735 C   0  0  0  0  0  0  0  0  0  0  0  0
   17.5531    0.4940   10.5429 C   0  0  2  0  0  0  0  0  0  0  0  0
   18.1890    1.7241    9.8920 C   0  0  1  0  0  0  0  0  0  0  0  0
   19.6592    1.8450   10.3015 C   0  0  1  0  0  0  0  0  0  0  0  0
   19.5418    8.2590   12.3419 C   0  0  2  0  0  0  0  0  0  0  0  0
   18.5416    9.0758   11.5293 C   0  0  1  0  0  0  0  0  0  0  0  0
  1  3  1  0  0  0  0
  4  1  1  6  0  0  0
  4  6  1  0  0  0  0
  4 31  1  0  0  0  0
  6  7  1  0  0  0  0
  7  9  1  6  0  0  0
  7 30  1  0  0  0  0
  8 26  1  0  0  0  0
 10  9  1  6  0  0  0
 10 13  1  0  0  0  0
 10 21  1  0  0  0  0
 13 12  1  1  0  0  0
 13 15  1  0  0  0  0
 15  2  1  1  0  0  0
 15 17  1  0  0  0  0
 16 25  1  0  0  0  0
 16 23  1  0  0  0  0
 17 19  1  0  0  0  0
 19  5  1  6  0  0  0
 19 21  1  0  0  0  0
 21 14  1  6  0  0  0
 23 14  1  1  0  0  0
 23 29  1  0  0  0  0
 25 26  1  1  0  0  0
 25 27  1  0  0  0  0
 27 18  1  1  0  0  0
 27 28  1  0  0  0  0
 28 20  1  6  0  0  0
 28 29  1  0  0  0  0
 29 11  1  1  0  0  0
 30 22  1  1  0  0  0
 30 31  1  0  0  0  0
 31 24  1  1  0  0  0
M  END
>  <CHROM.1>
-59.60600991,-120.65030626,-96.96899724,104.32291264,165.35684788,-56.17865648
19.06607303,4.25759714,12.33473392,1.17822047,-1.27183714,-0.27188933

>  <Name>
ligand

>  <RI>
0

>  <Rbt.Current_Directory>
/home/itssahil/PROJECTS/Mol_Feturizer/New_Systems/rnas/3DVV

>  <Rbt.Executable>
rbdock ($Id: //depot/dev/client3/rdock/2013.1/src/exe/rbdock.cxx#4 $)

>  <Rbt.Library>
libRbt.so (2013.1, Build901 2013/11/27)

>  <Rbt.Parameter_File>
/export/apps/rDock/src/rDock_2013.1_src/data/scripts/dock_solv.prm

>  <Rbt.Receptor>
prm/blind_docking_60.prm

>  <SCORE>
7.58556

>  <SCORE.INTER>
-0.00640271

>  <SCORE.INTER.CONST>
1

>  <SCORE.INTER.POLAR>
0

>  <SCORE.INTER.ROT>
6

>  <SCORE.INTER.SOLV>
22.1379

>  <SCORE.INTER.VDW>
-14.9836

>  <SCORE.INTER.norm>
-0.000206539

>  <SCORE.INTRA>
7.59091

>  <SCORE.INTRA.DIHEDRAL>
8.30344

>  <SCORE.INTRA.DIHEDRAL.0>
10.8172

>  <SCORE.INTRA.POLAR>
0

>  <SCORE.INTRA.POLAR.0>
0

>  <SCORE.INTRA.REPUL>
0.0119341

>  <SCORE.INTRA.REPUL.0>
0

>  <SCORE.INTRA.SOLV>
0.429673

>  <SCORE.INTRA.SOLV.lig_0>
-80.3833

>  <SCORE.INTRA.VDW>
3.16469

>  <SCORE.INTRA.VDW.0>
-4.63762

>  <SCORE.INTRA.norm>
0.244868

>  <SCORE.RESTR>
0.00104839

>  <SCORE.RESTR.CAVITY>
0.00104839

>  <SCORE.RESTR.norm>
3.38191e-05

>  <SCORE.SYSTEM>
0

>  <SCORE.SYSTEM.CONST>
0

>  <SCORE.SYSTEM.DIHEDRAL>
0

>  <SCORE.SYSTEM.SOLV>
0

>  <SCORE.SYSTEM.norm>
0

>  <SCORE.heavy>
31

>  <SCORE.norm>
0.244695

>  <RMSD>
7.310

$$$$
ligand
 OpenBabel11021811473D
libRbt.so/2013.1/901 2013/11/27
 31 33  0  0  0  0  0  0  0  0999 V2000
   20.7823    2.1799   14.0643 C   0  0  0  0  0  0  0  0  0  0  0  0
   19.5542    7.2829   10.5720 N   0  0  0  0  0  0  0  0  0  0  0  0
   19.6122    1.4565   13.6687 O   0  0  0  0  0  0  0  0  0  0  0  0
   20.3868    3.4425   14.8342 C   0  0  1  0  0  0  0  0  0  0  0  0
   17.7564    9.3370   14.6281 N   0  0  0  0  0  0  0  0  0  0  0  0
   19.5288    4.2697   14.0243 O   0  0  0  0  0  0  0  0  0  0  0  0
   18.3209    4.5350   14.7594 C   0  0  1  0  0  0  0  0  0  0  0  0
   13.6711    2.8533   13.4082 N   0  0  0  0  0  0  0  0  0  0  0  0
   17.1824    4.6425   13.8902 O   0  0  0  0  0  0  0  0  0  0  0  0
   17.1229    5.8801   13.1658 C   0  0  2  0  0  0  0  0  0  0  0  0
   13.9478    8.8802   15.9109 N   0  0  0  0  0  0  0  0  0  0  0  0
   18.1968    4.8966   11.2366 O   0  0  0  0  0  0  0  0  0  0  0  0
   18.3354    5.9177   12.2283 C   0  0  1  0  0  0  0  0  0  0  0  0
   15.8946    7.1840   14.8605 O   0  0  0  0  0  0  0  0  0  0  0  0
   18.4449    7.2786   11.5378 C   0  0  1  0  0  0  0  0  0  0  0  0
   14.4671    6.4591   13.1358 O   0  0  0  0  0  0  0  0  0  0  0  0
   18.6659    8.3605   12.5953 C   0  0  0  0  0  0  0  0  0  0  0  0
   12.5301    4.2668   15.3535 O   0  0  0  0  0  0  0  0  0  0  0  0
   17.4595    8.3951   13.5382 C   0  0  1  0  0  0  0  0  0  0  0  0
   11.8682    6.8895   16.3270 O   0  0  0  0  0  0  0  0  0  0  0  0
   17.1451    7.0319   14.1662 C   0  0  2  0  0  0  0  0  0  0  0  0
   17.2919    3.4948   16.7385 O   0  0  0  0  0  0  0  0  0  0  0  0
   14.7829    7.5454   14.0261 C   0  0  1  0  0  0  0  0  0  0  0  0
   19.8608    3.9399   17.1862 O   0  0  0  0  0  0  0  0  0  0  0  0
   14.1058    5.2369   13.8014 C   0  0  2  0  0  0  0  0  0  0  0  0
   13.8084    4.1633   12.7519 C   0  0  0  0  0  0  0  0  0  0  0  0
   12.8496    5.4664   14.6436 C   0  0  2  0  0  0  0  0  0  0  0  0
   13.0925    6.5974   15.6451 C   0  0  1  0  0  0  0  0  0  0  0  0
   13.5789    7.8560   14.9217 C   0  0  1  0  0  0  0  0  0  0  0  0
   18.1541    3.2831   15.6181 C   0  0  2  0  0  0  0  0  0  0  0  0
   19.5899    3.0669   16.0867 C   0  0  1  0  0  0  0  0  0  0  0  0
  1  3  1  0  0  0  0
  4  1  1  6  0  0  0
  4  6  1  0  0  0  0
  4 31  1  0  0  0  0
  6  7  1  0  0  0  0
  7  9  1  6  0  0  0
  7 30  1  0  0  0  0
  8 26  1  0  0  0  0
 10  9  1  1  0  0  0
 10 13  1  0  0  0  0
 10 21  1  0  0  0  0
 13 12  1  6  0  0  0
 13 15  1  0  0  0  0
 15  2  1  6  0  0  0
 15 17  1  0  0  0  0
 16 25  1  0  0  0  0
 16 23  1  0  0  0  0
 17 19  1  0  0  0  0
 19  5  1  1  0  0  0
 19 21  1  0  0  0  0
 21 14  1  6  0  0  0
 23 14  1  1  0  0  0
 23 29  1  0  0  0  0
 25 26  1  6  0  0  0
 25 27  1  0  0  0  0
 27 18  1  1  0  0  0
 27 28  1  0  0  0  0
 28 20  1  6  0  0  0
 28 29  1  0  0  0  0
 29 11  1  1  0  0  0
 30 22  1  1  0  0  0
 30 31  1  0  0  0  0
 31 24  1  1  0  0  0
M  END
>  <CHROM.1>
-57.70938005,-75.48190926,64.61962973,67.28447862,-64.34066791,170.04786172
16.70771280,5.50637455,14.19163514,0.33165151,-0.29687747,2.69089866

>  <Name>
ligand

>  <RI>
0

>  <Rbt.Current_Directory>
/home/itssahil/PROJECTS/Mol_Feturizer/New_Systems/rnas/3DVV

>  <Rbt.Executable>
rbdock ($Id: //depot/dev/client3/rdock/2013.1/src/exe/rbdock.cxx#4 $)

>  <Rbt.Library>
libRbt.so (2013.1, Build901 2013/11/27)

>  <Rbt.Parameter_File>
/export/apps/rDock/src/rDock_2013.1_src/data/scripts/dock_solv.prm

>  <Rbt.Receptor>
prm/pocket_docking_6.prm

>  <SCORE>
-1.73314

>  <SCORE.INTER>
-0.922525

>  <SCORE.INTER.CONST>
1

>  <SCORE.INTER.POLAR>
0

>  <SCORE.INTER.ROT>
6

>  <SCORE.INTER.SOLV>
12.1814

>  <SCORE.INTER.VDW>
-12.2755

>  <SCORE.INTER.norm>
-0.0297589

>  <SCORE.INTRA>
-0.810612

>  <SCORE.INTRA.DIHEDRAL>
-8.65051

>  <SCORE.INTRA.DIHEDRAL.0>
10.8172

>  <SCORE.INTRA.POLAR>
0

>  <SCORE.INTRA.POLAR.0>
0

>  <SCORE.INTRA.REPUL>
0

>  <SCORE.INTRA.REPUL.0>
0

>  <SCORE.INTRA.SOLV>
-1.76323

>  <SCORE.INTRA.SOLV.lig_0>
-80.3833

>  <SCORE.INTRA.VDW>
4.39626

>  <SCORE.INTRA.VDW.0>
-4.63762

>  <SCORE.INTRA.norm>
-0.0261488

>  <SCORE.RESTR>
0

>  <SCORE.RESTR.CAVITY>
0

>  <SCORE.RESTR.norm>
0

>  <SCORE.SYSTEM>
0

>  <SCORE.SYSTEM.CONST>
0

>  <SCORE.SYSTEM.DIHEDRAL>
0

>  <SCORE.SYSTEM.SOLV>
0

>  <SCORE.SYSTEM.norm>
0

>  <SCORE.heavy>
31

>  <SCORE.norm>
-0.0559076

>  <RMSD>
7.314

$$$$
ligand
 OpenBabel11021811473D
libRbt.so/2013.1/901 2013/11/27
 31 33  0  0  0  0  0  0  0  0999 V2000
   19.1371    2.0920   10.4626 C   0  0  0  0  0  0  0  0  0  0  0  0
   11.8656    4.2138   14.1038 N   0  0  0  0  0  0  0  0  0  0  0  0
   19.5872    1.5868   11.7239 O   0  0  0  0  0  0  0  0  0  0  0  0
   17.6193    1.9335   10.3420 C   0  0  1  0  0  0  0  0  0  0  0  0
   15.2990    7.4460   15.3956 N   0  0  0  0  0  0  0  0  0  0  0  0
   16.9566    2.7086   11.3601 O   0  0  0  0  0  0  0  0  0  0  0  0
   16.0073    3.5834   10.7249 C   0  0  1  0  0  0  0  0  0  0  0  0
   17.3410   10.8966   12.6051 N   0  0  0  0  0  0  0  0  0  0  0  0
   15.8761    4.8275   11.4304 O   0  0  0  0  0  0  0  0  0  0  0  0
   15.4220    4.6795   12.7839 C   0  0  2  0  0  0  0  0  0  0  0  0
   19.8299    5.0359   14.0698 N   0  0  0  0  0  0  0  0  0  0  0  0
   13.6045    3.2391   12.1026 O   0  0  0  0  0  0  0  0  0  0  0  0
   13.9018    4.4866   12.7356 C   0  0  1  0  0  0  0  0  0  0  0  0
   17.2151    5.9806   13.8670 O   0  0  0  0  0  0  0  0  0  0  0  0
   13.3099    4.4890   14.1464 C   0  0  1  0  0  0  0  0  0  0  0  0
   17.7284    7.2708   11.9670 O   0  0  0  0  0  0  0  0  0  0  0  0
   13.5658    5.8499   14.7946 C   0  0  0  0  0  0  0  0  0  0  0  0
   19.4290    9.8754   13.9165 O   0  0  0  0  0  0  0  0  0  0  0  0
   15.0762    6.0770   14.9063 C   0  0  1  0  0  0  0  0  0  0  0  0
   21.1715    7.6114   14.2369 O   0  0  0  0  0  0  0  0  0  0  0  0
   15.8092    5.9302   13.5673 C   0  0  2  0  0  0  0  0  0  0  0  0
   15.7063    4.3381    8.4016 O   0  0  0  0  0  0  0  0  0  0  0  0
   18.0715    6.0925   12.7195 C   0  0  1  0  0  0  0  0  0  0  0  0
   16.0475    1.7156    8.4611 O   0  0  0  0  0  0  0  0  0  0  0  0
   17.8586    8.4992   12.7028 C   0  0  2  0  0  0  0  0  0  0  0  0
   17.4545    9.6687   11.8020 C   0  0  0  0  0  0  0  0  0  0  0  0
   19.3153    8.6857   13.1312 C   0  0  2  0  0  0  0  0  0  0  0  0
   19.7722    7.4851   13.9625 C   0  0  1  0  0  0  0  0  0  0  0  0
   19.5241    6.1814   13.1992 C   0  0  1  0  0  0  0  0  0  0  0  0
   16.6481    3.8653    9.3675 C   0  0  2  0  0  0  0  0  0  0  0  0
   17.1400    2.4710    8.9906 C   0  0  1  0  0  0  0  0  0  0  0  0
  1  3  1  0  0  0  0
  4  1  1  6  0  0  0
  4  6  1  0  0  0  0
  4 31  1  0  0  0  0
  6  7  1  0  0  0  0
  7  9  1  1  0  0  0
  7 30  1  0  0  0  0
  8 26  1  0  0  0  0
 10  9  1  6  0  0  0
 10 13  1  0  0  0  0
 10 21  1  0  0  0  0
 13 12  1  1  0  0  0
 13 15  1  0  0  0  0
 15  2  1  6  0  0  0
 15 17  1  0  0  0  0
 16 25  1  0  0  0  0
 16 23  1  0  0  0  0
 17 19  1  0  0  0  0
 19  5  1  6  0  0  0
 19 21  1  0  0  0  0
 21 14  1  1  0  0  0
 23 14  1  1  0  0  0
 23 29  1  0  0  0  0
 25 26  1  6  0  0  0
 25 27  1  0  0  0  0
 27 18  1  1  0  0  0
 27 28  1  0  0  0  0
 28 20  1  6  0  0  0
 28 29  1  0  0  0  0
 29 11  1  1  0  0  0
 30 22  1  6  0  0  0
 30 31  1  0  0  0  0
 31 24  1  1  0  0  0
M  END
>  <CHROM.1>
62.50123039,-60.44862433,-79.88098706,57.78353522,64.88041998,169.53794096
16.90267319,5.42573451,12.35781030,-1.95438928,0.28039608,0.60440883

>  <Name>
ligand

>  <RI>
0

>  <Rbt.Current_Directory>
/home/itssahil/PROJECTS/Mol_Feturizer/New_Systems/rnas/3DVV

>  <Rbt.Executable>
rbdock ($Id: //depot/dev/client3/rdock/2013.1/src/exe/rbdock.cxx#4 $)

>  <Rbt.Library>
libRbt.so (2013.1, Build901 2013/11/27)

>  <Rbt.Parameter_File>
/export/apps/rDock/src/rDock_2013.1_src/data/scripts/dock_solv.prm

>  <Rbt.Receptor>
prm/pocket_docking_7.prm

>  <SCORE>
-7.52509

>  <SCORE.INTER>
-3.85768

>  <SCORE.INTER.CONST>
1

>  <SCORE.INTER.POLAR>
0

>  <SCORE.INTER.ROT>
6

>  <SCORE.INTER.SOLV>
16.1703

>  <SCORE.INTER.VDW>
-15.5619

>  <SCORE.INTER.norm>
-0.124441

>  <SCORE.INTRA>
-3.66741

>  <SCORE.INTRA.DIHEDRAL>
-8.21621

>  <SCORE.INTRA.DIHEDRAL.0>
10.8172

>  <SCORE.INTRA.POLAR>
0

>  <SCORE.INTRA.POLAR.0>
0

>  <SCORE.INTRA.REPUL>
0

>  <SCORE.INTRA.REPUL.0>
0

>  <SCORE.INTRA.SOLV>
-3.40808

>  <SCORE.INTRA.SOLV.lig_0>
-80.3833

>  <SCORE.INTRA.VDW>
2.14473

>  <SCORE.INTRA.VDW.0>
-4.63762

>  <SCORE.INTRA.norm>
-0.118304

>  <SCORE.RESTR>
0

>  <SCORE.RESTR.CAVITY>
0

>  <SCORE.RESTR.norm>
0

>  <SCORE.SYSTEM>
0

>  <SCORE.SYSTEM.CONST>
0

>  <SCORE.SYSTEM.DIHEDRAL>
0

>  <SCORE.SYSTEM.SOLV>
0

>  <SCORE.SYSTEM.norm>
0

>  <SCORE.heavy>
31

>  <SCORE.norm>
-0.242745

>  <RMSD>
7.317

$$$$
ligand
 OpenBabel11021811473D
libRbt.so/2013.1/901 2013/11/27
 31 33  0  0  0  0  0  0  0  0999 V2000
   23.8755    7.7811   15.0725 C   0  0  0  0  0  0  0  0  0  0  0  0
   18.3375   10.3866   18.6080 N   0  0  0  0  0  0  0  0  0  0  0  0
   25.2507    7.3901   15.1400 O   0  0  0  0  0  0  0  0  0  0  0  0
   23.1228    7.2781   16.3069 C   0  0  1  0  0  0  0  0  0  0  0  0
   17.4029    5.7238   19.7430 N   0  0  0  0  0  0  0  0  0  0  0  0
   21.7556    7.7321   16.2743 O   0  0  0  0  0  0  0  0  0  0  0  0
   20.8901    6.5895   16.3978 C   0  0  1  0  0  0  0  0  0  0  0  0
   13.8387    3.1622   19.7998 N   0  0  0  0  0  0  0  0  0  0  0  0
   19.6713    6.7635   15.6582 O   0  0  0  0  0  0  0  0  0  0  0  0
   18.5752    7.2388   16.4536 C   0  0  2  0  0  0  0  0  0  0  0  0
   18.4316    3.1290   15.1347 N   0  0  0  0  0  0  0  0  0  0  0  0
   19.1718    9.5451   16.0440 O   0  0  0  0  0  0  0  0  0  0  0  0
   19.0092    8.5702   17.0777 C   0  0  1  0  0  0  0  0  0  0  0  0
   17.5827    5.0425   16.9755 O   0  0  0  0  0  0  0  0  0  0  0  0
   17.9633    9.0666   18.0780 C   0  0  1  0  0  0  0  0  0  0  0  0
   17.3488    3.4363   18.6795 O   0  0  0  0  0  0  0  0  0  0  0  0
   17.8439    8.0572   19.2201 C   0  0  0  0  0  0  0  0  0  0  0  0
   14.2090    2.1137   17.3125 O   0  0  0  0  0  0  0  0  0  0  0  0
   17.3707    6.7142   18.6562 C   0  0  1  0  0  0  0  0  0  0  0  0
   16.1331    1.3557   15.3155 O   0  0  0  0  0  0  0  0  0  0  0  0
   18.2553    6.1927   17.5172 C   0  0  2  0  0  0  0  0  0  0  0  0
   21.2490    4.1692   16.1303 O   0  0  0  0  0  0  0  0  0  0  0  0
   18.0540    3.7801   17.4724 C   0  0  1  0  0  0  0  0  0  0  0  0
   23.1649    5.2047   17.6318 O   0  0  0  0  0  0  0  0  0  0  0  0
   15.9257    3.3124   18.5163 C   0  0  2  0  0  0  0  0  0  0  0  0
   15.2949    2.9598   19.8655 C   0  0  0  0  0  0  0  0  0  0  0  0
   15.6217    2.1917   17.5204 C   0  0  2  0  0  0  0  0  0  0  0  0
   16.3145    2.4772   16.1864 C   0  0  1  0  0  0  0  0  0  0  0  0
   17.8121    2.7110   16.4016 C   0  0  1  0  0  0  0  0  0  0  0  0
   21.6957    5.4703   15.7413 C   0  0  2  0  0  0  0  0  0  0  0  0
   23.0836    5.7473   16.3114 C   0  0  1  0  0  0  0  0  0  0  0  0
  1  3  1  0  0  0  0
  4  1  1  6  0  0  0
  4  6  1  0  0  0  0
  4 31  1  0  0  0  0
  6  7  1  0  0  0  0
  7  9  1  6  0  0  0
  7 30  1  0  0  0  0
  8 26  1  0  0  0  0
 10  9  1  6  0  0  0
 10 13  1  0  0  0  0
 10 21  1  0  0  0  0
 13 12  1  6  0  0  0
 13 15  1  0  0  0  0
 15  2  1  1  0  0  0
 15 17  1  0  0  0  0
 16 25  1  0  0  0  0
 16 23  1  0  0  0  0
 17 19  1  0  0  0  0
 19  5  1  1  0  0  0
 19 21  1  0  0  0  0
 21 14  1  6  0  0  0
 23 14  1  6  0  0  0
 23 29  1  0  0  0  0
 25 26  1  1  0  0  0
 25 27  1  0  0  0  0
 27 18  1  6  0  0  0
 27 28  1  0  0  0  0
 28 20  1  6  0  0  0
 28 29  1  0  0  0  0
 29 11  1  6  0  0  0
 30 22  1  1  0  0  0
 30 31  1  0  0  0  0
 31 24  1  1  0  0  0
M  END
>  <CHROM.1>
176.94889426,-96.40818511,57.91160200,87.45390662,137.10618578,165.75483636
18.87933043,5.51438675,17.11175203,-0.47648198,-0.41931920,-2.84841128

>  <Name>
ligand

>  <RI>
0

>  <Rbt.Current_Directory>
/home/itssahil/PROJECTS/Mol_Feturizer/New_Systems/rnas/3DVV

>  <Rbt.Executable>
rbdock ($Id: //depot/dev/client3/rdock/2013.1/src/exe/rbdock.cxx#4 $)

>  <Rbt.Library>
libRbt.so (2013.1, Build901 2013/11/27)

>  <Rbt.Parameter_File>
/export/apps/rDock/src/rDock_2013.1_src/data/scripts/dock_solv.prm

>  <Rbt.Receptor>
prm/pocket_docking_4.prm

>  <SCORE>
-5.7986

>  <SCORE.INTER>
-10.8582

>  <SCORE.INTER.CONST>
1

>  <SCORE.INTER.POLAR>
0

>  <SCORE.INTER.ROT>
6

>  <SCORE.INTER.SOLV>
20.4331

>  <SCORE.INTER.VDW>
-21.6499

>  <SCORE.INTER.norm>
-0.350265

>  <SCORE.INTRA>
5.05963

>  <SCORE.INTRA.DIHEDRAL>
3.59528

>  <SCORE.INTRA.DIHEDRAL.0>
10.8172

>  <SCORE.INTRA.POLAR>
0

>  <SCORE.INTRA.POLAR.0>
0

>  <SCORE.INTRA.REPUL>
0

>  <SCORE.INTRA.REPUL.0>
0

>  <SCORE.INTRA.SOLV>
1.30119

>  <SCORE.INTRA.SOLV.lig_0>
-80.3833

>  <SCORE.INTRA.VDW>
2.61139

>  <SCORE.INTRA.VDW.0>
-4.63762

>  <SCORE.INTRA.norm>
0.163214

>  <SCORE.RESTR>
0

>  <SCORE.RESTR.CAVITY>
0

>  <SCORE.RESTR.norm>
0

>  <SCORE.SYSTEM>
0

>  <SCORE.SYSTEM.CONST>
0

>  <SCORE.SYSTEM.DIHEDRAL>
0

>  <SCORE.SYSTEM.SOLV>
0

>  <SCORE.SYSTEM.norm>
0

>  <SCORE.heavy>
31

>  <SCORE.norm>
-0.187051

>  <RMSD>
7.320

$$$$
ligand
 OpenBabel11021811473D
libRbt.so/2013.1/901 2013/11/27
 31 33  0  0  0  0  0  0  0  0999 V2000
   18.8975   10.0384   14.3905 C   0  0  0  0  0  0  0  0  0  0  0  0
   15.5897    2.7058   10.7183 N   0  0  0  0  0  0  0  0  0  0  0  0
   19.5059    9.0681   13.5320 O   0  0  0  0  0  0  0  0  0  0  0  0
   17.6463    9.4504   15.0479 C   0  0  1  0  0  0  0  0  0  0  0  0
   12.1343    4.3991   13.7344 N   0  0  0  0  0  0  0  0  0  0  0  0
   16.7113    9.0197   14.0397 O   0  0  0  0  0  0  0  0  0  0  0  0
   16.3835    7.6393   14.2783 C   0  0  1  0  0  0  0  0  0  0  0  0
   12.4590    3.0065   17.9742 N   0  0  0  0  0  0  0  0  0  0  0  0
   16.1386    6.9316   13.0527 O   0  0  0  0  0  0  0  0  0  0  0  0
   15.7225    5.5713   13.2438 C   0  0  2  0  0  0  0  0  0  0  0  0
   13.4873    8.7014   15.0699 N   0  0  0  0  0  0  0  0  0  0  0  0
   17.3033    4.7711   11.5996 O   0  0  0  0  0  0  0  0  0  0  0  0
   15.9083    4.8460   11.9059 C   0  0  1  0  0  0  0  0  0  0  0  0
   14.1062    5.9834   15.0600 O   0  0  0  0  0  0  0  0  0  0  0  0
   15.3305    3.4309   11.9715 C   0  0  1  0  0  0  0  0  0  0  0  0
   12.2334    5.4558   16.3840 O   0  0  0  0  0  0  0  0  0  0  0  0
   13.8255    3.5157   12.2269 C   0  0  0  0  0  0  0  0  0  0  0  0
   13.7925    6.6759   19.4754 O   0  0  0  0  0  0  0  0  0  0  0  0
   13.5827    4.1974   13.5767 C   0  0  1  0  0  0  0  0  0  0  0  0
   13.4433    9.0890   17.9523 O   0  0  0  0  0  0  0  0  0  0  0  0
   14.2643    5.5662   13.6926 C   0  0  2  0  0  0  0  0  0  0  0  0
   17.4320    5.8695   15.6297 O   0  0  0  0  0  0  0  0  0  0  0  0
   12.7725    6.3778   15.4187 C   0  0  1  0  0  0  0  0  0  0  0  0
   17.2248    8.0890   17.0541 O   0  0  0  0  0  0  0  0  0  0  0  0
   12.9851    5.3758   17.6070 C   0  0  2  0  0  0  0  0  0  0  0  0
   12.3211    4.3587   18.5382 C   0  0  0  0  0  0  0  0  0  0  0  0
   12.9915    6.7433   18.2926 C   0  0  2  0  0  0  0  0  0  0  0  0
   13.5719    7.7977   17.3479 C   0  0  1  0  0  0  0  0  0  0  0  0
   12.8223    7.7893   16.0131 C   0  0  1  0  0  0  0  0  0  0  0  0
   17.6585    7.0829   14.9086 C   0  0  2  0  0  0  0  0  0  0  0  0
   18.0164    8.2125   15.8698 C   0  0  1  0  0  0  0  0  0  0  0  0
  1  3  1  0  0  0  0
  4  1  1  6  0  0  0
  4  6  1  0  0  0  0
  4 31  1  0  0  0  0
  6  7  1  0  0  0  0
  7  9  1  6  0  0  0
  7 30  1  0  0  0  0
  8 26  1  0  0  0  0
 10  9  1  6  0  0  0
 10 13  1  0  0  0  0
 10 21  1  0  0  0  0
 13 12  1  1  0  0  0
 13 15  1  0  0  0  0
 15  2  1  6  0  0  0
 15 17  1  0  0  0  0
 16 25  1  0  0  0  0
 16 23  1  0  0  0  0
 17 19  1  0  0  0  0
 19  5  1  6  0  0  0
 19 21  1  0  0  0  0
 21 14  1  1  0  0  0
 23 14  1  1  0  0  0
 23 29  1  0  0  0  0
 25 26  1  1  0  0  0
 25 27  1  0  0  0  0
 27 18  1  1  0  0  0
 27 28  1  0  0  0  0
 28 20  1  1  0  0  0
 28 29  1  0  0  0  0
 29 11  1  6  0  0  0
 30 22  1  1  0  0  0
 30 31  1  0  0  0  0
 31 24  1  1  0  0  0
M  END
>  <CHROM.1>
-58.13012021,-176.16854258,-163.36913763,114.24283160,162.40214278,67.79388060
15.07663376,6.40995823,15.03824534,-0.34194438,0.65750977,0.88526260

>  <Name>
ligand

>  <RI>
0

>  <Rbt.Current_Directory>
/home/itssahil/PROJECTS/Mol_Feturizer/New_Systems/rnas/3DVV

>  <Rbt.Executable>
rbdock ($Id: //depot/dev/client3/rdock/2013.1/src/exe/rbdock.cxx#4 $)

>  <Rbt.Library>
libRbt.so (2013.1, Build901 2013/11/27)

>  <Rbt.Parameter_File>
/export/apps/rDock/src/rDock_2013.1_src/data/scripts/dock_solv.prm

>  <Rbt.Receptor>
prm/pocket_docking_6.prm

>  <SCORE>
0.786174

>  <SCORE.INTER>
-0.943519

>  <SCORE.INTER.CONST>
1

>  <SCORE.INTER.POLAR>
0

>  <SCORE.INTER.ROT>
6

>  <SCORE.INTER.SOLV>
12.438

>  <SCORE.INTER.VDW>
-12.375

>  <SCORE.INTER.norm>
-0.0304361

>  <SCORE.INTRA>
1.72969

>  <SCORE.INTRA.DIHEDRAL>
-0.540373

>  <SCORE.INTRA.DIHEDRAL.0>
10.8172

>  <SCORE.INTRA.POLAR>
0

>  <SCORE.INTRA.POLAR.0>
0

>  <SCORE.INTRA.REPUL>
0

>  <SCORE.INTRA.REPUL.0>
0

>  <SCORE.INTRA.SOLV>
0.398653

>  <SCORE.INTRA.SOLV.lig_0>
-80.3833

>  <SCORE.INTRA.VDW>
1.80055

>  <SCORE.INTRA.VDW.0>
-4.63762

>  <SCORE.INTRA.norm>
0.0557966

>  <SCORE.RESTR>
0

>  <SCORE.RESTR.CAVITY>
0

>  <SCORE.RESTR.norm>
0

>  <SCORE.SYSTEM>
0

>  <SCORE.SYSTEM.CONST>
0

>  <SCORE.SYSTEM.DIHEDRAL>
0

>  <SCORE.SYSTEM.SOLV>
0

>  <SCORE.SYSTEM.norm>
0

>  <SCORE.heavy>
31

>  <SCORE.norm>
0.0253605

>  <RMSD>
7.321

$$$$
ligand
 OpenBabel11021811473D
libRbt.so/2013.1/901 2013/11/27
 31 33  0  0  0  0  0  0  0  0999 V2000
   21.3015   -1.2728   10.3128 C   0  0  0  0  0  0  0  0  0  0  0  0
   14.8170   -0.0703   12.4560 N   0  0  0  0  0  0  0  0  0  0  0  0
   22.0299   -1.7186    9.1641 O   0  0  0  0  0  0  0  0  0  0  0  0
   20.1271   -0.3900    9.8828 C   0  0  1  0  0  0  0  0  0  0  0  0
   15.3792    4.7336   11.7420 N   0  0  0  0  0  0  0  0  0  0  0  0
   19.3571    0.0076   11.0340 O   0  0  0  0  0  0  0  0  0  0  0  0
   19.2577    1.4428   11.0456 C   0  0  1  0  0  0  0  0  0  0  0  0
   20.0211    7.8441    9.7822 N   0  0  0  0  0  0  0  0  0  0  0  0
   19.2293    1.9629   12.3841 O   0  0  0  0  0  0  0  0  0  0  0  0
   17.9048    2.1358   12.9092 C   0  0  2  0  0  0  0  0  0  0  0  0
   19.8681    4.8974   15.0041 N   0  0  0  0  0  0  0  0  0  0  0  0
   17.5684   -0.2525   13.0687 O   0  0  0  0  0  0  0  0  0  0  0  0
   17.0712    0.9353   12.4463 C   0  0  1  0  0  0  0  0  0  0  0  0
   17.9262    4.5989   13.0267 O   0  0  0  0  0  0  0  0  0  0  0  0
   15.5992    1.1210   12.8198 C   0  0  1  0  0  0  0  0  0  0  0  0
   19.2583    5.6885   11.4216 O   0  0  0  0  0  0  0  0  0  0  0  0
   15.0500    2.3504   12.0957 C   0  0  0  0  0  0  0  0  0  0  0  0
   18.5768    9.0255   12.7914 O   0  0  0  0  0  0  0  0  0  0  0  0
   15.8228    3.5905   12.5544 C   0  0  1  0  0  0  0  0  0  0  0  0
   20.1220    7.7924   14.8786 O   0  0  0  0  0  0  0  0  0  0  0  0
   17.3406    3.4527   12.3846 C   0  0  2  0  0  0  0  0  0  0  0  0
   20.4966    3.2253    9.8856 O   0  0  0  0  0  0  0  0  0  0  0  0
   19.2723    4.8934   12.6216 C   0  0  1  0  0  0  0  0  0  0  0  0
   19.8037    1.3406    8.1635 O   0  0  0  0  0  0  0  0  0  0  0  0
   18.5809    6.9494   11.5572 C   0  0  2  0  0  0  0  0  0  0  0  0
   18.6240    7.6887   10.2178 C   0  0  0  0  0  0  0  0  0  0  0  0
   19.2900    7.7988   12.6137 C   0  0  2  0  0  0  0  0  0  0  0  0
   19.3376    7.0440   13.9438 C   0  0  1  0  0  0  0  0  0  0  0  0
   19.9667    5.6616   13.7511 C   0  0  1  0  0  0  0  0  0  0  0  0
   20.5607    1.8871   10.3842 C   0  0  2  0  0  0  0  0  0  0  0  0
   20.6459    0.8939    9.2291 C   0  0  1  0  0  0  0  0  0  0  0  0
  1  3  1  0  0  0  0
  4  1  1  1  0  0  0
  4  6  1  0  0  0  0
  4 31  1  0  0  0  0
  6  7  1  0  0  0  0
  7  9  1  1  0  0  0
  7 30  1  0  0  0  0
  8 26  1  0  0  0  0
 10  9  1  6  0  0  0
 10 13  1  0  0  0  0
 10 21  1  0  0  0  0
 13 12  1  1  0  0  0
 13 15  1  0  0  0  0
 15  2  1  6  0  0  0
 15 17  1  0  0  0  0
 16 25  1  0  0  0  0
 16 23  1  0  0  0  0
 17 19  1  0  0  0  0
 19  5  1  6  0  0  0
 19 21  1  0  0  0  0
 21 14  1  1  0  0  0
 23 14  1  1  0  0  0
 23 29  1  0  0  0  0
 25 26  1  6  0  0  0
 25 27  1  0  0  0  0
 27 18  1  1  0  0  0
 27 28  1  0  0  0  0
 28 20  1  1  0  0  0
 28 29  1  0  0  0  0
 29 11  1  1  0  0  0
 30 22  1  6  0  0  0
 30 31  1  0  0  0  0
 31 24  1  6  0  0  0
M  END
>  <CHROM.1>
177.32600159,-92.54406309,39.55428548,84.74999774,73.83633975,-56.34639969
18.75170945,3.38529004,11.77614939,-1.50729079,0.54974561,0.24937990

>  <Name>
ligand

>  <RI>
0

>  <Rbt.Current_Directory>
/home/itssahil/PROJECTS/Mol_Feturizer/New_Systems/rnas/3DVV

>  <Rbt.Executable>
rbdock ($Id: //depot/dev/client3/rdock/2013.1/src/exe/rbdock.cxx#4 $)

>  <Rbt.Library>
libRbt.so (2013.1, Build901 2013/11/27)

>  <Rbt.Parameter_File>
/export/apps/rDock/src/rDock_2013.1_src/data/scripts/dock_solv.prm

>  <Rbt.Receptor>
prm/blind_docking_80.prm

>  <SCORE>
4.91715

>  <SCORE.INTER>
1.42291

>  <SCORE.INTER.CONST>
1

>  <SCORE.INTER.POLAR>
0

>  <SCORE.INTER.ROT>
6

>  <SCORE.INTER.SOLV>
19.7556

>  <SCORE.INTER.VDW>
-13.2366

>  <SCORE.INTER.norm>
0.0459005

>  <SCORE.INTRA>
3.47553

>  <SCORE.INTRA.DIHEDRAL>
-1.19937

>  <SCORE.INTRA.DIHEDRAL.0>
10.8172

>  <SCORE.INTRA.POLAR>
0

>  <SCORE.INTRA.POLAR.0>
0

>  <SCORE.INTRA.REPUL>
0.146158

>  <SCORE.INTRA.REPUL.0>
0

>  <SCORE.INTRA.SOLV>
-1.59503

>  <SCORE.INTRA.SOLV.lig_0>
-80.3833

>  <SCORE.INTRA.VDW>
4.14194

>  <SCORE.INTRA.VDW.0>
-4.63762

>  <SCORE.INTRA.norm>
0.112114

>  <SCORE.RESTR>
0.0187074

>  <SCORE.RESTR.CAVITY>
0.0187074

>  <SCORE.RESTR.norm>
0.000603465

>  <SCORE.SYSTEM>
0

>  <SCORE.SYSTEM.CONST>
0

>  <SCORE.SYSTEM.DIHEDRAL>
0

>  <SCORE.SYSTEM.SOLV>
0

>  <SCORE.SYSTEM.norm>
0

>  <SCORE.heavy>
31

>  <SCORE.norm>
0.158618

>  <RMSD>
7.328

$$$$
ligand
 OpenBabel11021811473D
libRbt.so/2013.1/901 2013/11/27
 31 33  0  0  0  0  0  0  0  0999 V2000
   22.0068    5.4789   16.4069 C   0  0  0  0  0  0  0  0  0  0  0  0
   17.8068    8.7018   12.9828 N   0  0  0  0  0  0  0  0  0  0  0  0
   22.4756    5.0616   17.6933 O   0  0  0  0  0  0  0  0  0  0  0  0
   20.6229    4.8854   16.1318 C   0  0  1  0  0  0  0  0  0  0  0  0
   15.2888    4.6068   12.0913 N   0  0  0  0  0  0  0  0  0  0  0  0
   20.1366    5.3320   14.8510 O   0  0  0  0  0  0  0  0  0  0  0  0
   19.7917    4.1782   14.0638 C   0  0  1  0  0  0  0  0  0  0  0  0
   15.0871    0.0417   12.5323 N   0  0  0  0  0  0  0  0  0  0  0  0
   20.0362    4.3964   12.6654 O   0  0  0  0  0  0  0  0  0  0  0  0
   19.0458    5.2152   12.0261 C   0  0  2  0  0  0  0  0  0  0  0  0
   20.1066    2.9776    9.8011 N   0  0  0  0  0  0  0  0  0  0  0  0
   20.2029    7.2437   12.6495 O   0  0  0  0  0  0  0  0  0  0  0  0
   18.9718    6.5329   12.8063 C   0  0  1  0  0  0  0  0  0  0  0  0
   17.6730    3.3896   11.0966 O   0  0  0  0  0  0  0  0  0  0  0  0
   17.8204    7.4014   12.2956 C   0  0  1  0  0  0  0  0  0  0  0  0
   17.5831    1.1585   11.8395 O   0  0  0  0  0  0  0  0  0  0  0  0
   16.4987    6.6698   12.5307 C   0  0  0  0  0  0  0  0  0  0  0  0
   16.5916   -0.1342    8.5498 O   0  0  0  0  0  0  0  0  0  0  0  0
   16.5016    5.3598   11.7373 C   0  0  1  0  0  0  0  0  0  0  0  0
   19.2757    0.7831    8.0822 O   0  0  0  0  0  0  0  0  0  0  0  0
   17.7136    4.4716   12.0435 C   0  0  2  0  0  0  0  0  0  0  0  0
   20.3334    1.7851   14.2577 O   0  0  0  0  0  0  0  0  0  0  0  0
   18.4538    2.2408   11.4615 C   0  0  1  0  0  0  0  0  0  0  0  0
   19.5439    2.7241   16.6013 O   0  0  0  0  0  0  0  0  0  0  0  0
   16.6831    0.7353   10.8012 C   0  0  2  0  0  0  0  0  0  0  0  0
   15.8081   -0.4040   11.3293 C   0  0  0  0  0  0  0  0  0  0  0  0
   17.4881    0.2261    9.6041 C   0  0  2  0  0  0  0  0  0  0  0  0
   18.4365    1.3204    9.1099 C   0  0  1  0  0  0  0  0  0  0  0  0
   19.3104    1.8289   10.2595 C   0  0  1  0  0  0  0  0  0  0  0  0
   20.7662    3.1131   14.5622 C   0  0  2  0  0  0  0  0  0  0  0  0
   20.7090    3.3578   16.0672 C   0  0  1  0  0  0  0  0  0  0  0  0
  1  3  1  0  0  0  0
  4  1  1  6  0  0  0
  4  6  1  0  0  0  0
  4 31  1  0  0  0  0
  6  7  1  0  0  0  0
  7  9  1  6  0  0  0
  7 30  1  0  0  0  0
  8 26  1  0  0  0  0
 10  9  1  1  0  0  0
 10 13  1  0  0  0  0
 10 21  1  0  0  0  0
 13 12  1  6  0  0  0
 13 15  1  0  0  0  0
 15  2  1  1  0  0  0
 15 17  1  0  0  0  0
 16 25  1  0  0  0  0
 16 23  1  0  0  0  0
 17 19  1  0  0  0  0
 19  5  1  1  0  0  0
 19 21  1  0  0  0  0
 21 14  1  6  0  0  0
 23 14  1  6  0  0  0
 23 29  1  0  0  0  0
 25 26  1  1  0  0  0
 25 27  1  0  0  0  0
 27 18  1  6  0  0  0
 27 28  1  0  0  0  0
 28 20  1  6  0  0  0
 28 29  1  0  0  0  0
 29 11  1  6  0  0  0
 30 22  1  1  0  0  0
 30 31  1  0  0  0  0
 31 24  1  6  0  0  0
M  END
>  <CHROM.1>
178.58426033,-76.56823767,55.68319684,108.25413053,73.17007519,57.10271589
18.70019018,3.55043233,12.56506200,-0.80074304,0.92787713,-2.94949710

>  <Name>
ligand

>  <RI>
0

>  <Rbt.Current_Directory>
/home/itssahil/PROJECTS/Mol_Feturizer/New_Systems/rnas/3DVV

>  <Rbt.Executable>
rbdock ($Id: //depot/dev/client3/rdock/2013.1/src/exe/rbdock.cxx#4 $)

>  <Rbt.Library>
libRbt.so (2013.1, Build901 2013/11/27)

>  <Rbt.Parameter_File>
/export/apps/rDock/src/rDock_2013.1_src/data/scripts/dock_solv.prm

>  <Rbt.Receptor>
prm/blind_docking_80.prm

>  <SCORE>
2.08625

>  <SCORE.INTER>
1.01475

>  <SCORE.INTER.CONST>
1

>  <SCORE.INTER.POLAR>
0

>  <SCORE.INTER.ROT>
6

>  <SCORE.INTER.SOLV>
18.8518

>  <SCORE.INTER.VDW>
-13.2074

>  <SCORE.INTER.norm>
0.032734

>  <SCORE.INTRA>
1.07149

>  <SCORE.INTRA.DIHEDRAL>
-1.86011

>  <SCORE.INTRA.DIHEDRAL.0>
10.8172

>  <SCORE.INTRA.POLAR>
0

>  <SCORE.INTRA.POLAR.0>
0

>  <SCORE.INTRA.REPUL>
0.00253472

>  <SCORE.INTRA.REPUL.0>
0

>  <SCORE.INTRA.SOLV>
-2.46444

>  <SCORE.INTRA.SOLV.lig_0>
-80.3833

>  <SCORE.INTRA.VDW>
3.2211

>  <SCORE.INTRA.VDW.0>
-4.63762

>  <SCORE.INTRA.norm>
0.0345643

>  <SCORE.RESTR>
0

>  <SCORE.RESTR.CAVITY>
0

>  <SCORE.RESTR.norm>
0

>  <SCORE.SYSTEM>
0

>  <SCORE.SYSTEM.CONST>
0

>  <SCORE.SYSTEM.DIHEDRAL>
0

>  <SCORE.SYSTEM.SOLV>
0

>  <SCORE.SYSTEM.norm>
0

>  <SCORE.heavy>
31

>  <SCORE.norm>
0.0672983

>  <RMSD>
7.335

$$$$
ligand
 OpenBabel11021811473D
libRbt.so/2013.1/901 2013/11/27
 31 33  0  0  0  0  0  0  0  0999 V2000
   23.0516    6.5006   16.7220 C   0  0  0  0  0  0  0  0  0  0  0  0
   16.2561   11.2313   19.2054 N   0  0  0  0  0  0  0  0  0  0  0  0
   24.2132    6.8330   15.9544 O   0  0  0  0  0  0  0  0  0  0  0  0
   21.8228    6.4232   15.8125 C   0  0  1  0  0  0  0  0  0  0  0  0
   14.0970    7.3304   17.1993 N   0  0  0  0  0  0  0  0  0  0  0  0
   20.6383    6.1832   16.5974 O   0  0  0  0  0  0  0  0  0  0  0  0
   19.6741    7.2079   16.2971 C   0  0  1  0  0  0  0  0  0  0  0  0
   19.2414    3.9759   12.5276 N   0  0  0  0  0  0  0  0  0  0  0  0
   18.8730    7.5362   17.4431 O   0  0  0  0  0  0  0  0  0  0  0  0
   17.7543    8.3839   17.1429 C   0  0  2  0  0  0  0  0  0  0  0  0
   14.2517    7.7439   14.4192 N   0  0  0  0  0  0  0  0  0  0  0  0
   18.7500   10.2497   18.3134 O   0  0  0  0  0  0  0  0  0  0  0  0
   17.6146    9.3801   18.2998 C   0  0  1  0  0  0  0  0  0  0  0  0
   16.4985    6.7771   15.7564 O   0  0  0  0  0  0  0  0  0  0  0  0
   16.3423   10.2157   18.1450 C   0  0  1  0  0  0  0  0  0  0  0  0
   17.8830    7.1398   13.8883 O   0  0  0  0  0  0  0  0  0  0  0  0
   15.1258    9.2915   18.2036 C   0  0  0  0  0  0  0  0  0  0  0  0
   16.6211    4.1940   12.0977 O   0  0  0  0  0  0  0  0  0  0  0  0
   15.1933    8.2979   17.0401 C   0  0  1  0  0  0  0  0  0  0  0  0
   14.3296    5.9294   12.1472 O   0  0  0  0  0  0  0  0  0  0  0  0
   16.5102    7.5137   16.9918 C   0  0  2  0  0  0  0  0  0  0  0  0
   19.8403    9.4081   15.2066 O   0  0  0  0  0  0  0  0  0  0  0  0
   16.6966    7.5744   14.5784 C   0  0  1  0  0  0  0  0  0  0  0  0
   21.1102    7.5890   13.7658 O   0  0  0  0  0  0  0  0  0  0  0  0
   17.8466    5.7681   13.4592 C   0  0  2  0  0  0  0  0  0  0  0  0
   19.1624    5.4276   12.7554 C   0  0  0  0  0  0  0  0  0  0  0  0
   16.6935    5.5720   12.4732 C   0  0  2  0  0  0  0  0  0  0  0  0
   15.3734    5.9889   13.1250 C   0  0  1  0  0  0  0  0  0  0  0  0
   15.4737    7.4165   13.6686 C   0  0  1  0  0  0  0  0  0  0  0  0
   20.5446    8.4158   15.9567 C   0  0  2  0  0  0  0  0  0  0  0  0
   21.6165    7.7587   15.0922 C   0  0  1  0  0  0  0  0  0  0  0  0
  1  3  1  0  0  0  0
  4  1  1  1  0  0  0
  4  6  1  0  0  0  0
  4 31  1  0  0  0  0
  6  7  1  0  0  0  0
  7  9  1  1  0  0  0
  7 30  1  0  0  0  0
  8 26  1  0  0  0  0
 10  9  1  1  0  0  0
 10 13  1  0  0  0  0
 10 21  1  0  0  0  0
 13 12  1  6  0  0  0
 13 15  1  0  0  0  0
 15  2  1  1  0  0  0
 15 17  1  0  0  0  0
 16 25  1  0  0  0  0
 16 23  1  0  0  0  0
 17 19  1  0  0  0  0
 19  5  1  1  0  0  0
 19 21  1  0  0  0  0
 21 14  1  6  0  0  0
 23 14  1  1  0  0  0
 23 29  1  0  0  0  0
 25 26  1  6  0  0  0
 25 27  1  0  0  0  0
 27 18  1  1  0  0  0
 27 28  1  0  0  0  0
 28 20  1  6  0  0  0
 28 29  1  0  0  0  0
 29 11  1  1  0  0  0
 30 22  1  6  0  0  0
 30 31  1  0  0  0  0
 31 24  1  6  0  0  0
M  END
>  <CHROM.1>
-175.90340557,-170.07415799,-141.27197134,119.25499875,-52.64517394,169.85147383
18.08115145,7.38044425,15.47345624,0.01905627,-0.09283229,0.91832905

>  <Name>
ligand

>  <RI>
0

>  <Rbt.Current_Directory>
/home/itssahil/PROJECTS/Mol_Feturizer/New_Systems/rnas/3DVV

>  <Rbt.Executable>
rbdock ($Id: //depot/dev/client3/rdock/2013.1/src/exe/rbdock.cxx#4 $)

>  <Rbt.Library>
libRbt.so (2013.1, Build901 2013/11/27)

>  <Rbt.Parameter_File>
/export/apps/rDock/src/rDock_2013.1_src/data/scripts/dock_solv.prm

>  <Rbt.Receptor>
prm/pocket_docking_7.prm

>  <SCORE>
-3.29017

>  <SCORE.INTER>
-6.72326

>  <SCORE.INTER.CONST>
1

>  <SCORE.INTER.POLAR>
0

>  <SCORE.INTER.ROT>
6

>  <SCORE.INTER.SOLV>
14.1452

>  <SCORE.INTER.VDW>
-16.7973

>  <SCORE.INTER.norm>
-0.216879

>  <SCORE.INTRA>
3.43309

>  <SCORE.INTRA.DIHEDRAL>
2.97372

>  <SCORE.INTRA.DIHEDRAL.0>
10.8172

>  <SCORE.INTRA.POLAR>
0

>  <SCORE.INTRA.POLAR.0>
0

>  <SCORE.INTRA.REPUL>
0

>  <SCORE.INTRA.REPUL.0>
0

>  <SCORE.INTRA.SOLV>
1.78881

>  <SCORE.INTRA.SOLV.lig_0>
-80.3833

>  <SCORE.INTRA.VDW>
1.05182

>  <SCORE.INTRA.VDW.0>
-4.63762

>  <SCORE.INTRA.norm>
0.110745

>  <SCORE.RESTR>
0

>  <SCORE.RESTR.CAVITY>
0

>  <SCORE.RESTR.norm>
0

>  <SCORE.SYSTEM>
0

>  <SCORE.SYSTEM.CONST>
0

>  <SCORE.SYSTEM.DIHEDRAL>
0

>  <SCORE.SYSTEM.SOLV>
0

>  <SCORE.SYSTEM.norm>
0

>  <SCORE.heavy>
31

>  <SCORE.norm>
-0.106135

>  <RMSD>
7.340

$$$$
ligand
 OpenBabel11021811473D
libRbt.so/2013.1/901 2013/11/27
 31 33  0  0  0  0  0  0  0  0999 V2000
   15.8410    9.4777   19.2501 C   0  0  0  0  0  0  0  0  0  0  0  0
   10.9257    5.9262   20.4021 N   0  0  0  0  0  0  0  0  0  0  0  0
   15.1954   10.2020   18.1979 O   0  0  0  0  0  0  0  0  0  0  0  0
   16.0478    8.0185   18.8363 C   0  0  1  0  0  0  0  0  0  0  0  0
   13.2338    2.3882   17.9408 N   0  0  0  0  0  0  0  0  0  0  0  0
   14.7832    7.4120   18.5056 O   0  0  0  0  0  0  0  0  0  0  0  0
   14.8740    6.8554   17.1820 C   0  0  1  0  0  0  0  0  0  0  0  0
   18.2750    3.4172   15.0936 N   0  0  0  0  0  0  0  0  0  0  0  0
   13.6200    6.9320   16.4859 O   0  0  0  0  0  0  0  0  0  0  0  0
   12.6272    6.0215   16.9812 C   0  0  2  0  0  0  0  0  0  0  0  0
   12.7639    4.3209   12.9037 N   0  0  0  0  0  0  0  0  0  0  0  0
   11.6171    7.7392   18.3494 O   0  0  0  0  0  0  0  0  0  0  0  0
   12.2695    6.4676   18.4037 C   0  0  1  0  0  0  0  0  0  0  0  0
   13.2844    4.0659   15.6303 O   0  0  0  0  0  0  0  0  0  0  0  0
   11.3399    5.4530   19.0725 C   0  0  1  0  0  0  0  0  0  0  0  0
   15.5996    4.3407   15.3101 O   0  0  0  0  0  0  0  0  0  0  0  0
   12.0662    4.1133   19.1952 C   0  0  0  0  0  0  0  0  0  0  0  0
   16.0561    0.9303   14.0306 O   0  0  0  0  0  0  0  0  0  0  0  0
   12.4116    3.5989   17.7946 C   0  0  1  0  0  0  0  0  0  0  0  0
   14.4851    2.1712   11.9673 O   0  0  0  0  0  0  0  0  0  0  0  0
   13.2064    4.6101   16.9595 C   0  0  2  0  0  0  0  0  0  0  0  0
   16.4530    7.1834   15.3227 O   0  0  0  0  0  0  0  0  0  0  0  0
   14.2927    4.6574   14.7960 C   0  0  1  0  0  0  0  0  0  0  0  0
   17.7818    6.8069   17.5788 O   0  0  0  0  0  0  0  0  0  0  0  0
   15.8846    2.9328   15.3700 C   0  0  2  0  0  0  0  0  0  0  0  0
   17.2893    2.7293   15.9426 C   0  0  0  0  0  0  0  0  0  0  0  0
   15.8350    2.3414   13.9600 C   0  0  2  0  0  0  0  0  0  0  0  0
   14.4663    2.6083   13.3303 C   0  0  1  0  0  0  0  0  0  0  0  0
   14.1400    4.1034   13.3755 C   0  0  1  0  0  0  0  0  0  0  0  0
   15.8693    7.7795   16.4835 C   0  0  2  0  0  0  0  0  0  0  0  0
   16.9185    7.9467   17.5787 C   0  0  1  0  0  0  0  0  0  0  0  0
  1  3  1  0  0  0  0
  4  1  1  6  0  0  0
  4  6  1  0  0  0  0
  4 31  1  0  0  0  0
  6  7  1  0  0  0  0
  7  9  1  6  0  0  0
  7 30  1  0  0  0  0
  8 26  1  0  0  0  0
 10  9  1  1  0  0  0
 10 13  1  0  0  0  0
 10 21  1  0  0  0  0
 13 12  1  6  0  0  0
 13 15  1  0  0  0  0
 15  2  1  1  0  0  0
 15 17  1  0  0  0  0
 16 25  1  0  0  0  0
 16 23  1  0  0  0  0
 17 19  1  0  0  0  0
 19  5  1  1  0  0  0
 19 21  1  0  0  0  0
 21 14  1  6  0  0  0
 23 14  1  1  0  0  0
 23 29  1  0  0  0  0
 25 26  1  6  0  0  0
 25 27  1  0  0  0  0
 27 18  1  1  0  0  0
 27 28  1  0  0  0  0
 28 20  1  6  0  0  0
 28 29  1  0  0  0  0
 29 11  1  1  0  0  0
 30 22  1  6  0  0  0
 30 31  1  0  0  0  0
 31 24  1  1  0  0  0
M  END
>  <CHROM.1>
-57.73371759,-71.85599837,66.38917632,66.56116960,71.42874292,-58.90951492
14.52246031,5.29965223,16.50903134,-1.75930239,-0.42688412,-2.48629028

>  <Name>
ligand

>  <RI>
0

>  <Rbt.Current_Directory>
/home/itssahil/PROJECTS/Mol_Feturizer/New_Systems/rnas/3DVV

>  <Rbt.Executable>
rbdock ($Id: //depot/dev/client3/rdock/2013.1/src/exe/rbdock.cxx#4 $)

>  <Rbt.Library>
libRbt.so (2013.1, Build901 2013/11/27)

>  <Rbt.Parameter_File>
/export/apps/rDock/src/rDock_2013.1_src/data/scripts/dock_solv.prm

>  <Rbt.Receptor>
prm/pocket_docking_6.prm

>  <SCORE>
-3.11911

>  <SCORE.INTER>
-0.585987

>  <SCORE.INTER.CONST>
1

>  <SCORE.INTER.POLAR>
0

>  <SCORE.INTER.ROT>
6

>  <SCORE.INTER.SOLV>
12.2015

>  <SCORE.INTER.VDW>
-12.0578

>  <SCORE.INTER.norm>
-0.0189028

>  <SCORE.INTRA>
-2.53312

>  <SCORE.INTRA.DIHEDRAL>
-8.85788

>  <SCORE.INTRA.DIHEDRAL.0>
10.8172

>  <SCORE.INTRA.POLAR>
0

>  <SCORE.INTRA.POLAR.0>
0

>  <SCORE.INTRA.REPUL>
0

>  <SCORE.INTRA.REPUL.0>
0

>  <SCORE.INTRA.SOLV>
-1.16449

>  <SCORE.INTRA.SOLV.lig_0>
-80.3833

>  <SCORE.INTRA.VDW>
2.47806

>  <SCORE.INTRA.VDW.0>
-4.63762

>  <SCORE.INTRA.norm>
-0.0817135

>  <SCORE.RESTR>
0

>  <SCORE.RESTR.CAVITY>
0

>  <SCORE.RESTR.norm>
0

>  <SCORE.SYSTEM>
0

>  <SCORE.SYSTEM.CONST>
0

>  <SCORE.SYSTEM.DIHEDRAL>
0

>  <SCORE.SYSTEM.SOLV>
0

>  <SCORE.SYSTEM.norm>
0

>  <SCORE.heavy>
31

>  <SCORE.norm>
-0.100616

>  <RMSD>
7.345

$$$$
ligand
 OpenBabel11021811473D
libRbt.so/2013.1/901 2013/11/27
 31 33  0  0  0  0  0  0  0  0999 V2000
   20.1814    1.3852   14.3701 C   0  0  0  0  0  0  0  0  0  0  0  0
   19.7069   10.3442   13.0876 N   0  0  0  0  0  0  0  0  0  0  0  0
   18.8040    1.6731   14.6325 O   0  0  0  0  0  0  0  0  0  0  0  0
   21.0513    2.5903   14.7365 C   0  0  1  0  0  0  0  0  0  0  0  0
   17.9161    7.0297    9.9714 N   0  0  0  0  0  0  0  0  0  0  0  0
   20.6650    3.7377   13.9550 O   0  0  0  0  0  0  0  0  0  0  0  0
   20.3681    4.8236   14.8508 C   0  0  1  0  0  0  0  0  0  0  0  0
   14.8432    5.0692   11.8452 N   0  0  0  0  0  0  0  0  0  0  0  0
   19.3229    5.6649   14.3383 O   0  0  0  0  0  0  0  0  0  0  0  0
   19.7455    6.5269   13.2714 C   0  0  2  0  0  0  0  0  0  0  0  0
   20.7089    2.5957   11.1332 N   0  0  0  0  0  0  0  0  0  0  0  0
   20.4437    8.2423   14.8247 O   0  0  0  0  0  0  0  0  0  0  0  0
   19.5447    7.9709   13.7460 C   0  0  1  0  0  0  0  0  0  0  0  0
   19.2876    4.9778   11.4082 O   0  0  0  0  0  0  0  0  0  0  0  0
   19.8116    8.9578   12.6078 C   0  0  1  0  0  0  0  0  0  0  0  0
   17.3341    3.8456   12.0716 O   0  0  0  0  0  0  0  0  0  0  0  0
   18.8022    8.7133   11.4858 C   0  0  0  0  0  0  0  0  0  0  0  0
   16.5319    2.7614    8.6573 O   0  0  0  0  0  0  0  0  0  0  0  0
   18.9874    7.2928   10.9442 C   0  0  1  0  0  0  0  0  0  0  0  0
   18.9317    1.2885    9.2375 O   0  0  0  0  0  0  0  0  0  0  0  0
   18.9090    6.2165   12.0338 C   0  0  2  0  0  0  0  0  0  0  0  0
   19.9059    4.9352   17.2658 O   0  0  0  0  0  0  0  0  0  0  0  0
   18.7727    3.7990   12.0468 C   0  0  1  0  0  0  0  0  0  0  0  0
   22.0411    3.4373   16.8242 O   0  0  0  0  0  0  0  0  0  0  0  0
   16.7236    3.9130   10.7716 C   0  0  2  0  0  0  0  0  0  0  0  0
   15.2028    3.9710   10.9340 C   0  0  0  0  0  0  0  0  0  0  0  0
   17.0880    2.6614    9.9711 C   0  0  2  0  0  0  0  0  0  0  0  0
   18.6091    2.5325    9.8682 C   0  0  1  0  0  0  0  0  0  0  0  0
   19.2437    2.5707   11.2609 C   0  0  1  0  0  0  0  0  0  0  0  0
   19.8459    4.1130   16.0978 C   0  0  2  0  0  0  0  0  0  0  0  0
   20.8420    2.9624   16.2071 C   0  0  1  0  0  0  0  0  0  0  0  0
  1  3  1  0  0  0  0
  4  1  1  6  0  0  0
  4  6  1  0  0  0  0
  4 31  1  0  0  0  0
  6  7  1  0  0  0  0
  7  9  1  6  0  0  0
  7 30  1  0  0  0  0
  8 26  1  0  0  0  0
 10  9  1  1  0  0  0
 10 13  1  0  0  0  0
 10 21  1  0  0  0  0
 13 12  1  1  0  0  0
 13 15  1  0  0  0  0
 15  2  1  1  0  0  0
 15 17  1  0  0  0  0
 16 25  1  0  0  0  0
 16 23  1  0  0  0  0
 17 19  1  0  0  0  0
 19  5  1  6  0  0  0
 19 21  1  0  0  0  0
 21 14  1  6  0  0  0
 23 14  1  6  0  0  0
 23 29  1  0  0  0  0
 25 26  1  1  0  0  0
 25 27  1  0  0  0  0
 27 18  1  6  0  0  0
 27 28  1  0  0  0  0
 28 20  1  1  0  0  0
 28 29  1  0  0  0  0
 29 11  1  6  0  0  0
 30 22  1  1  0  0  0
 30 31  1  0  0  0  0
 31 24  1  6  0  0  0
M  END
>  <CHROM.1>
-60.23412029,-75.04831383,-118.48864487,58.94391098,79.13891254,53.31017569
19.04399425,4.69704939,12.75075129,-0.35562735,1.02832118,-3.13407217

>  <Name>
ligand

>  <RI>
0

>  <Rbt.Current_Directory>
/home/itssahil/PROJECTS/Mol_Feturizer/New_Systems/rnas/3DVV

>  <Rbt.Executable>
rbdock ($Id: //depot/dev/client3/rdock/2013.1/src/exe/rbdock.cxx#4 $)

>  <Rbt.Library>
libRbt.so (2013.1, Build901 2013/11/27)

>  <Rbt.Parameter_File>
/export/apps/rDock/src/rDock_2013.1_src/data/scripts/dock_solv.prm

>  <Rbt.Receptor>
prm/blind_docking_80.prm

>  <SCORE>
0.472343

>  <SCORE.INTER>
0.409386

>  <SCORE.INTER.CONST>
1

>  <SCORE.INTER.POLAR>
0

>  <SCORE.INTER.ROT>
6

>  <SCORE.INTER.SOLV>
24.0177

>  <SCORE.INTER.VDW>
-15.333

>  <SCORE.INTER.norm>
0.013206

>  <SCORE.INTRA>
0.0611823

>  <SCORE.INTRA.DIHEDRAL>
-0.565463

>  <SCORE.INTRA.DIHEDRAL.0>
10.8172

>  <SCORE.INTRA.POLAR>
0

>  <SCORE.INTRA.POLAR.0>
0

>  <SCORE.INTRA.REPUL>
0

>  <SCORE.INTRA.REPUL.0>
0

>  <SCORE.INTRA.SOLV>
0.536882

>  <SCORE.INTRA.SOLV.lig_0>
-80.3833

>  <SCORE.INTRA.VDW>
0.0754729

>  <SCORE.INTRA.VDW.0>
-4.63762

>  <SCORE.INTRA.norm>
0.00197362

>  <SCORE.RESTR>
0.00177514

>  <SCORE.RESTR.CAVITY>
0.00177514

>  <SCORE.RESTR.norm>
5.72625e-05

>  <SCORE.SYSTEM>
0

>  <SCORE.SYSTEM.CONST>
0

>  <SCORE.SYSTEM.DIHEDRAL>
0

>  <SCORE.SYSTEM.SOLV>
0

>  <SCORE.SYSTEM.norm>
0

>  <SCORE.heavy>
31

>  <SCORE.norm>
0.0152369

>  <RMSD>
7.352

$$$$
ligand
 OpenBabel11021811473D
libRbt.so/2013.1/901 2013/11/27
 31 33  0  0  0  0  0  0  0  0999 V2000
   19.2472    8.5307    9.2598 C   0  0  0  0  0  0  0  0  0  0  0  0
   21.9102    5.2740   17.1809 N   0  0  0  0  0  0  0  0  0  0  0  0
   20.5414    8.6043    9.8668 O   0  0  0  0  0  0  0  0  0  0  0  0
   18.2653    7.8207   10.1952 C   0  0  1  0  0  0  0  0  0  0  0  0
   19.1865    1.8809   14.9510 N   0  0  0  0  0  0  0  0  0  0  0  0
   18.8774    6.6432   10.7566 O   0  0  0  0  0  0  0  0  0  0  0  0
   18.7853    6.7179   12.1904 C   0  0  1  0  0  0  0  0  0  0  0  0
   13.4881    3.9512   12.5816 N   0  0  0  0  0  0  0  0  0  0  0  0
   19.9186    6.1083   12.8284 O   0  0  0  0  0  0  0  0  0  0  0  0
   19.6307    5.5707   14.1276 C   0  0  2  0  0  0  0  0  0  0  0  0
   19.8066    2.4054   12.0598 N   0  0  0  0  0  0  0  0  0  0  0  0
   21.1378    7.1294   15.1961 O   0  0  0  0  0  0  0  0  0  0  0  0
   20.8946    5.7368   14.9794 C   0  0  1  0  0  0  0  0  0  0  0  0
   17.9211    3.9377   13.4265 O   0  0  0  0  0  0  0  0  0  0  0  0
   20.7335    5.0375   16.3306 C   0  0  1  0  0  0  0  0  0  0  0  0
   16.1665    2.4923   12.8180 O   0  0  0  0  0  0  0  0  0  0  0  0
   20.5462    3.5379   16.0994 C   0  0  0  0  0  0  0  0  0  0  0  0
   15.9913    3.7836    9.3861 O   0  0  0  0  0  0  0  0  0  0  0  0
   19.2691    3.3109   15.2851 C   0  0  1  0  0  0  0  0  0  0  0  0
   18.5517    2.4773    9.4366 O   0  0  0  0  0  0  0  0  0  0  0  0
   19.2414    4.1036   13.9727 C   0  0  2  0  0  0  0  0  0  0  0  0
   18.3135    8.5599   13.7531 O   0  0  0  0  0  0  0  0  0  0  0  0
   17.5792    2.5869   13.0783 C   0  0  1  0  0  0  0  0  0  0  0  0
   16.5442    8.5697   11.7866 O   0  0  0  0  0  0  0  0  0  0  0  0
   15.7080    3.3268   11.7407 C   0  0  2  0  0  0  0  0  0  0  0  0
   14.1973    3.1463   11.5743 C   0  0  0  0  0  0  0  0  0  0  0  0
   16.4016    2.9110   10.4421 C   0  0  2  0  0  0  0  0  0  0  0  0
   17.9198    2.9993   10.6103 C   0  0  1  0  0  0  0  0  0  0  0  0
   18.3703    2.1881   11.8281 C   0  0  1  0  0  0  0  0  0  0  0  0
   18.8293    8.2198   12.4640 C   0  0  2  0  0  0  0  0  0  0  0  0
   17.9013    8.7354   11.3682 C   0  0  1  0  0  0  0  0  0  0  0  0
  1  3  1  0  0  0  0
  4  1  1  6  0  0  0
  4  6  1  0  0  0  0
  4 31  1  0  0  0  0
  6  7  1  0  0  0  0
  7  9  1  1  0  0  0
  7 30  1  0  0  0  0
  8 26  1  0  0  0  0
 10  9  1  6  0  0  0
 10 13  1  0  0  0  0
 10 21  1  0  0  0  0
 13 12  1  1  0  0  0
 13 15  1  0  0  0  0
 15  2  1  1  0  0  0
 15 17  1  0  0  0  0
 16 25  1  0  0  0  0
 16 23  1  0  0  0  0
 17 19  1  0  0  0  0
 19  5  1  6  0  0  0
 19 21  1  0  0  0  0
 21 14  1  1  0  0  0
 23 14  1  6  0  0  0
 23 29  1  0  0  0  0
 25 26  1  6  0  0  0
 25 27  1  0  0  0  0
 27 18  1  6  0  0  0
 27 28  1  0  0  0  0
 28 20  1  6  0  0  0
 28 29  1  0  0  0  0
 29 11  1  1  0  0  0
 30 22  1  1  0  0  0
 30 31  1  0  0  0  0
 31 24  1  1  0  0  0
M  END
>  <CHROM.1>
-44.73101399,-151.39130956,-146.83539755,167.79790796,171.34692525,80.15481912
18.44236700,5.08051102,12.59545809,0.09105797,-0.82643738,-0.54068443

>  <Name>
ligand

>  <RI>
0

>  <Rbt.Current_Directory>
/home/itssahil/PROJECTS/Mol_Feturizer/New_Systems/rnas/3DVV

>  <Rbt.Executable>
rbdock ($Id: //depot/dev/client3/rdock/2013.1/src/exe/rbdock.cxx#4 $)

>  <Rbt.Library>
libRbt.so (2013.1, Build901 2013/11/27)

>  <Rbt.Parameter_File>
/export/apps/rDock/src/rDock_2013.1_src/data/scripts/dock_solv.prm

>  <Rbt.Receptor>
prm/blind_docking_40.prm

>  <SCORE>
1.50281

>  <SCORE.INTER>
-3.30849

>  <SCORE.INTER.CONST>
1

>  <SCORE.INTER.POLAR>
0

>  <SCORE.INTER.ROT>
6

>  <SCORE.INTER.SOLV>
18.3819

>  <SCORE.INTER.VDW>
-15.933

>  <SCORE.INTER.norm>
-0.106726

>  <SCORE.INTRA>
4.74304

>  <SCORE.INTRA.DIHEDRAL>
0.047799

>  <SCORE.INTRA.DIHEDRAL.0>
10.8172

>  <SCORE.INTRA.POLAR>
0

>  <SCORE.INTRA.POLAR.0>
0

>  <SCORE.INTRA.REPUL>
0

>  <SCORE.INTRA.REPUL.0>
0

>  <SCORE.INTRA.SOLV>
1.48041

>  <SCORE.INTRA.SOLV.lig_0>
-80.3833

>  <SCORE.INTRA.VDW>
3.97893

>  <SCORE.INTRA.VDW.0>
-4.63762

>  <SCORE.INTRA.norm>
0.153001

>  <SCORE.RESTR>
0.0682613

>  <SCORE.RESTR.CAVITY>
0.0682613

>  <SCORE.RESTR.norm>
0.00220198

>  <SCORE.SYSTEM>
0

>  <SCORE.SYSTEM.CONST>
0

>  <SCORE.SYSTEM.DIHEDRAL>
0

>  <SCORE.SYSTEM.SOLV>
0

>  <SCORE.SYSTEM.norm>
0

>  <SCORE.heavy>
31

>  <SCORE.norm>
0.0484776

>  <RMSD>
7.370

$$$$
ligand
 OpenBabel11021811473D
libRbt.so/2013.1/901 2013/11/27
 31 33  0  0  0  0  0  0  0  0999 V2000
   20.0487    9.0798   11.3066 C   0  0  0  0  0  0  0  0  0  0  0  0
   20.6857    2.9901   16.4126 N   0  0  0  0  0  0  0  0  0  0  0  0
   19.5021   10.2927   11.8347 O   0  0  0  0  0  0  0  0  0  0  0  0
   18.9288    8.0743   11.0270 C   0  0  1  0  0  0  0  0  0  0  0  0
   19.4666    0.0538   12.6984 N   0  0  0  0  0  0  0  0  0  0  0  0
   19.4864    6.7773   10.7387 O   0  0  0  0  0  0  0  0  0  0  0  0
   18.8958    5.8157   11.6312 C   0  0  1  0  0  0  0  0  0  0  0  0
   20.9279    1.1034    7.1885 N   0  0  0  0  0  0  0  0  0  0  0  0
   19.8206    4.7724   11.9760 O   0  0  0  0  0  0  0  0  0  0  0  0
   19.3132    3.8488   12.9505 C   0  0  2  0  0  0  0  0  0  0  0  0
   16.0347    3.2031    9.9646 N   0  0  0  0  0  0  0  0  0  0  0  0
   20.1013    5.2192   14.7790 O   0  0  0  0  0  0  0  0  0  0  0  0
   20.2316    3.9292   14.1755 C   0  0  1  0  0  0  0  0  0  0  0  0
   18.2514    2.2748   11.3770 O   0  0  0  0  0  0  0  0  0  0  0  0
   19.8638    2.8543   15.2003 C   0  0  1  0  0  0  0  0  0  0  0  0
   19.6238    2.3642    9.4674 O   0  0  0  0  0  0  0  0  0  0  0  0
   20.0735    1.4745   14.5762 C   0  0  0  0  0  0  0  0  0  0  0  0
   18.1932   -0.6905    8.0189 O   0  0  0  0  0  0  0  0  0  0  0  0
   19.1457    1.3239   13.3670 C   0  0  1  0  0  0  0  0  0  0  0  0
   15.9900    1.1526    7.9019 O   0  0  0  0  0  0  0  0  0  0  0  0
   19.3057    2.4508   12.3394 C   0  0  2  0  0  0  0  0  0  0  0  0
   17.6327    6.0241   13.7333 O   0  0  0  0  0  0  0  0  0  0  0  0
   18.4705    2.9295   10.1176 C   0  0  1  0  0  0  0  0  0  0  0  0
   16.6703    7.7057   11.9322 O   0  0  0  0  0  0  0  0  0  0  0  0
   19.5142    0.9577    9.1898 C   0  0  2  0  0  0  0  0  0  0  0  0
   20.8012    0.4780    8.5145 C   0  0  0  0  0  0  0  0  0  0  0  0
   18.3383    0.7145    8.2421 C   0  0  2  0  0  0  0  0  0  0  0  0
   17.0500    1.2648    8.8574 C   0  0  1  0  0  0  0  0  0  0  0  0
   17.2279    2.7359    9.2422 C   0  0  1  0  0  0  0  0  0  0  0  0
   18.6073    6.6371   12.8860 C   0  0  2  0  0  0  0  0  0  0  0  0
   18.0448    7.9133   12.2670 C   0  0  1  0  0  0  0  0  0  0  0  0
  1  3  1  0  0  0  0
  4  1  1  1  0  0  0
  4  6  1  0  0  0  0
  4 31  1  0  0  0  0
  6  7  1  0  0  0  0
  7  9  1  1  0  0  0
  7 30  1  0  0  0  0
  8 26  1  0  0  0  0
 10  9  1  6  0  0  0
 10 13  1  0  0  0  0
 10 21  1  0  0  0  0
 13 12  1  1  0  0  0
 13 15  1  0  0  0  0
 15  2  1  1  0  0  0
 15 17  1  0  0  0  0
 16 25  1  0  0  0  0
 16 23  1  0  0  0  0
 17 19  1  0  0  0  0
 19  5  1  6  0  0  0
 19 21  1  0  0  0  0
 21 14  1  6  0  0  0
 23 14  1  1  0  0  0
 23 29  1  0  0  0  0
 25 26  1  6  0  0  0
 25 27  1  0  0  0  0
 27 18  1  1  0  0  0
 27 28  1  0  0  0  0
 28 20  1  6  0  0  0
 28 29  1  0  0  0  0
 29 11  1  1  0  0  0
 30 22  1  1  0  0  0
 30 31  1  0  0  0  0
 31 24  1  6  0  0  0
M  END
>  <CHROM.1>
-169.18303079,175.16700658,-118.71127145,63.64917526,74.21318018,-66.21515036
18.89811260,3.77363755,11.40195291,1.37880975,-1.25031645,0.33496740

>  <Name>
ligand

>  <RI>
0

>  <Rbt.Current_Directory>
/home/itssahil/PROJECTS/Mol_Feturizer/New_Systems/rnas/3DVV

>  <Rbt.Executable>
rbdock ($Id: //depot/dev/client3/rdock/2013.1/src/exe/rbdock.cxx#4 $)

>  <Rbt.Library>
libRbt.so (2013.1, Build901 2013/11/27)

>  <Rbt.Parameter_File>
/export/apps/rDock/src/rDock_2013.1_src/data/scripts/dock_solv.prm

>  <Rbt.Receptor>
prm/blind_docking_60.prm

>  <SCORE>
0.800204

>  <SCORE.INTER>
-0.639362

>  <SCORE.INTER.CONST>
1

>  <SCORE.INTER.POLAR>
0

>  <SCORE.INTER.ROT>
6

>  <SCORE.INTER.SOLV>
23.8352

>  <SCORE.INTER.VDW>
-15.9713

>  <SCORE.INTER.norm>
-0.0206246

>  <SCORE.INTRA>
0.948835

>  <SCORE.INTRA.DIHEDRAL>
-1.70083

>  <SCORE.INTRA.DIHEDRAL.0>
10.8172

>  <SCORE.INTRA.POLAR>
0

>  <SCORE.INTRA.POLAR.0>
0

>  <SCORE.INTRA.REPUL>
0

>  <SCORE.INTRA.REPUL.0>
0

>  <SCORE.INTRA.SOLV>
-1.28964

>  <SCORE.INTRA.SOLV.lig_0>
-80.3833

>  <SCORE.INTRA.VDW>
2.44407

>  <SCORE.INTRA.VDW.0>
-4.63762

>  <SCORE.INTRA.norm>
0.0306076

>  <SCORE.RESTR>
0.490732

>  <SCORE.RESTR.CAVITY>
0.490732

>  <SCORE.RESTR.norm>
0.0158301

>  <SCORE.SYSTEM>
0

>  <SCORE.SYSTEM.CONST>
0

>  <SCORE.SYSTEM.DIHEDRAL>
0

>  <SCORE.SYSTEM.SOLV>
0

>  <SCORE.SYSTEM.norm>
0

>  <SCORE.heavy>
31

>  <SCORE.norm>
0.025813

>  <RMSD>
7.375

$$$$
ligand
 OpenBabel11021811473D
libRbt.so/2013.1/901 2013/11/27
 31 33  0  0  0  0  0  0  0  0999 V2000
   22.3411    5.3680   16.0258 C   0  0  0  0  0  0  0  0  0  0  0  0
   17.8665    8.4515   12.7018 N   0  0  0  0  0  0  0  0  0  0  0  0
   22.8431    5.1131   17.3418 O   0  0  0  0  0  0  0  0  0  0  0  0
   20.9014    4.8626   15.9034 C   0  0  1  0  0  0  0  0  0  0  0  0
   15.2671    4.3547   12.0997 N   0  0  0  0  0  0  0  0  0  0  0  0
   20.3551    5.2254   14.6202 O   0  0  0  0  0  0  0  0  0  0  0  0
   19.8705    4.0343   13.9750 C   0  0  1  0  0  0  0  0  0  0  0  0
   16.8457   -1.9196   11.5163 N   0  0  0  0  0  0  0  0  0  0  0  0
   20.0259    4.1016   12.5487 O   0  0  0  0  0  0  0  0  0  0  0  0
   19.0287    4.9010   11.8956 C   0  0  2  0  0  0  0  0  0  0  0  0
   20.1481    2.8463    9.9818 N   0  0  0  0  0  0  0  0  0  0  0  0
   20.2315    6.9414   12.3778 O   0  0  0  0  0  0  0  0  0  0  0  0
   18.9958    6.2587   12.6068 C   0  0  1  0  0  0  0  0  0  0  0  0
   17.6042    3.0506   11.1032 O   0  0  0  0  0  0  0  0  0  0  0  0
   17.8421    7.1169   12.0840 C   0  0  1  0  0  0  0  0  0  0  0  0
   17.5971    0.7833   11.7338 O   0  0  0  0  0  0  0  0  0  0  0  0
   16.5178    6.4190   12.3950 C   0  0  0  0  0  0  0  0  0  0  0  0
   16.9344   -0.3972    8.3215 O   0  0  0  0  0  0  0  0  0  0  0  0
   16.4794    5.0693   11.6721 C   0  0  1  0  0  0  0  0  0  0  0  0
   19.5842    0.6968    8.1051 O   0  0  0  0  0  0  0  0  0  0  0  0
   17.6875    4.1799   11.9901 C   0  0  2  0  0  0  0  0  0  0  0  0
   20.2510    1.6343   14.3663 O   0  0  0  0  0  0  0  0  0  0  0  0
   18.4251    1.9320   11.4741 C   0  0  1  0  0  0  0  0  0  0  0  0
   19.7070    2.8462   16.6539 O   0  0  0  0  0  0  0  0  0  0  0  0
   16.8046    0.3615   10.6107 C   0  0  2  0  0  0  0  0  0  0  0  0
   15.9647   -0.8518   11.0170 C   0  0  0  0  0  0  0  0  0  0  0  0
   17.7262   -0.0390    9.4573 C   0  0  2  0  0  0  0  0  0  0  0  0
   18.6393    1.1320    9.0885 C   0  0  1  0  0  0  0  0  0  0  0  0
   19.3924    1.6317   10.3242 C   0  0  1  0  0  0  0  0  0  0  0  0
   20.7998    2.9465   14.5094 C   0  0  2  0  0  0  0  0  0  0  0  0
   20.8720    3.3336   15.9835 C   0  0  1  0  0  0  0  0  0  0  0  0
  1  3  1  0  0  0  0
  4  1  1  6  0  0  0
  4  6  1  0  0  0  0
  4 31  1  0  0  0  0
  6  7  1  0  0  0  0
  7  9  1  6  0  0  0
  7 30  1  0  0  0  0
  8 26  1  0  0  0  0
 10  9  1  1  0  0  0
 10 13  1  0  0  0  0
 10 21  1  0  0  0  0
 13 12  1  6  0  0  0
 13 15  1  0  0  0  0
 15  2  1  1  0  0  0
 15 17  1  0  0  0  0
 16 25  1  0  0  0  0
 16 23  1  0  0  0  0
 17 19  1  0  0  0  0
 19  5  1  1  0  0  0
 19 21  1  0  0  0  0
 21 14  1  6  0  0  0
 23 14  1  6  0  0  0
 23 29  1  0  0  0  0
 25 26  1  1  0  0  0
 25 27  1  0  0  0  0
 27 18  1  6  0  0  0
 27 28  1  0  0  0  0
 28 20  1  6  0  0  0
 28 29  1  0  0  0  0
 29 11  1  6  0  0  0
 30 22  1  1  0  0  0
 30 31  1  0  0  0  0
 31 24  1  1  0  0  0
M  END
>  <CHROM.1>
174.86381043,-78.32713372,51.74720704,118.40956871,70.54873171,-56.38555382
18.85546102,3.28572324,12.42169167,-0.87941641,0.90579143,-2.92477697

>  <Name>
ligand

>  <RI>
0

>  <Rbt.Current_Directory>
/home/itssahil/PROJECTS/Mol_Feturizer/New_Systems/rnas/3DVV

>  <Rbt.Executable>
rbdock ($Id: //depot/dev/client3/rdock/2013.1/src/exe/rbdock.cxx#4 $)

>  <Rbt.Library>
libRbt.so (2013.1, Build901 2013/11/27)

>  <Rbt.Parameter_File>
/export/apps/rDock/src/rDock_2013.1_src/data/scripts/dock_solv.prm

>  <Rbt.Receptor>
prm/blind_docking_80.prm

>  <SCORE>
1.64122

>  <SCORE.INTER>
-1.25304

>  <SCORE.INTER.CONST>
1

>  <SCORE.INTER.POLAR>
0

>  <SCORE.INTER.ROT>
6

>  <SCORE.INTER.SOLV>
15.4106

>  <SCORE.INTER.VDW>
-13.5722

>  <SCORE.INTER.norm>
-0.0404206

>  <SCORE.INTRA>
2.88446

>  <SCORE.INTRA.DIHEDRAL>
-0.90036

>  <SCORE.INTRA.DIHEDRAL.0>
10.8172

>  <SCORE.INTRA.POLAR>
0

>  <SCORE.INTRA.POLAR.0>
0

>  <SCORE.INTRA.REPUL>
0

>  <SCORE.INTRA.REPUL.0>
0

>  <SCORE.INTRA.SOLV>
-0.562352

>  <SCORE.INTRA.SOLV.lig_0>
-80.3833

>  <SCORE.INTRA.VDW>
3.61581

>  <SCORE.INTRA.VDW.0>
-4.63762

>  <SCORE.INTRA.norm>
0.093047

>  <SCORE.RESTR>
0.0098032

>  <SCORE.RESTR.CAVITY>
0.0098032

>  <SCORE.RESTR.norm>
0.000316232

>  <SCORE.SYSTEM>
0

>  <SCORE.SYSTEM.CONST>
0

>  <SCORE.SYSTEM.DIHEDRAL>
0

>  <SCORE.SYSTEM.SOLV>
0

>  <SCORE.SYSTEM.norm>
0

>  <SCORE.heavy>
31

>  <SCORE.norm>
0.0529427

>  <RMSD>
7.380

$$$$
ligand
 OpenBabel11021811473D
libRbt.so/2013.1/901 2013/11/27
 31 33  0  0  0  0  0  0  0  0999 V2000
   22.3814    7.1637   15.9606 C   0  0  0  0  0  0  0  0  0  0  0  0
   19.9940    9.5464   10.6644 N   0  0  0  0  0  0  0  0  0  0  0  0
   23.0950    7.9665   15.0145 O   0  0  0  0  0  0  0  0  0  0  0  0
   20.9070    7.5738   15.9946 C   0  0  1  0  0  0  0  0  0  0  0  0
   15.5373    8.9976   12.5983 N   0  0  0  0  0  0  0  0  0  0  0  0
   20.3238    7.4399   14.6837 O   0  0  0  0  0  0  0  0  0  0  0  0
   19.1582    6.6026   14.7839 C   0  0  1  0  0  0  0  0  0  0  0  0
   13.2470    8.1174   16.7100 N   0  0  0  0  0  0  0  0  0  0  0  0
   18.9676    5.8128   13.5994 O   0  0  0  0  0  0  0  0  0  0  0  0
   18.4567    6.5577   12.4840 C   0  0  2  0  0  0  0  0  0  0  0  0
   15.2971    3.5661   12.4930 N   0  0  0  0  0  0  0  0  0  0  0  0
   20.6833    6.9901   11.6486 O   0  0  0  0  0  0  0  0  0  0  0  0
   19.4986    7.6268   12.1348 C   0  0  1  0  0  0  0  0  0  0  0  0
   16.0581    6.2105   12.9391 O   0  0  0  0  0  0  0  0  0  0  0  0
   18.9617    8.5774   11.0630 C   0  0  1  0  0  0  0  0  0  0  0  0
   15.8922    5.9634   15.2735 O   0  0  0  0  0  0  0  0  0  0  0  0
   17.7375    9.3108   11.6116 C   0  0  0  0  0  0  0  0  0  0  0  0
   12.2247    6.1211   15.2564 O   0  0  0  0  0  0  0  0  0  0  0  0
   16.6448    8.2890   11.9392 C   0  0  1  0  0  0  0  0  0  0  0  0
   12.7539    3.6408   13.9026 O   0  0  0  0  0  0  0  0  0  0  0  0
   17.1210    7.1779   12.8828 C   0  0  2  0  0  0  0  0  0  0  0  0
   18.3466    5.0467   16.5097 O   0  0  0  0  0  0  0  0  0  0  0  0
   16.1465    5.2819   14.0312 C   0  0  1  0  0  0  0  0  0  0  0  0
   19.0815    7.3292   17.6266 O   0  0  0  0  0  0  0  0  0  0  0  0
   14.5944    6.5768   15.3550 C   0  0  2  0  0  0  0  0  0  0  0  0
   14.4538    7.2752   16.7095 C   0  0  0  0  0  0  0  0  0  0  0  0
   13.5131    5.5009   15.2389 C   0  0  2  0  0  0  0  0  0  0  0  0
   13.6848    4.7279   13.9296 C   0  0  1  0  0  0  0  0  0  0  0  0
   15.1082    4.1752   13.8185 C   0  0  1  0  0  0  0  0  0  0  0  0
   19.5026    5.6635   15.9381 C   0  0  2  0  0  0  0  0  0  0  0  0
   20.1241    6.6451   16.9271 C   0  0  1  0  0  0  0  0  0  0  0  0
  1  3  1  0  0  0  0
  4  1  1  6  0  0  0
  4  6  1  0  0  0  0
  4 31  1  0  0  0  0
  6  7  1  0  0  0  0
  7  9  1  6  0  0  0
  7 30  1  0  0  0  0
  8 26  1  0  0  0  0
 10  9  1  1  0  0  0
 10 13  1  0  0  0  0
 10 21  1  0  0  0  0
 13 12  1  6  0  0  0
 13 15  1  0  0  0  0
 15  2  1  1  0  0  0
 15 17  1  0  0  0  0
 16 25  1  0  0  0  0
 16 23  1  0  0  0  0
 17 19  1  0  0  0  0
 19  5  1  1  0  0  0
 19 21  1  0  0  0  0
 21 14  1  6  0  0  0
 23 14  1  6  0  0  0
 23 29  1  0  0  0  0
 25 26  1  1  0  0  0
 25 27  1  0  0  0  0
 27 18  1  6  0  0  0
 27 28  1  0  0  0  0
 28 20  1  1  0  0  0
 28 29  1  0  0  0  0
 29 11  1  6  0  0  0
 30 22  1  1  0  0  0
 30 31  1  0  0  0  0
 31 24  1  6  0  0  0
M  END
>  <CHROM.1>
58.05888943,-75.22436335,62.35922179,69.70083801,70.58161999,169.26795786
17.41908471,6.67906086,14.21014350,-0.15581536,0.24568118,1.87233025

>  <Name>
ligand

>  <RI>
0

>  <Rbt.Current_Directory>
/home/itssahil/PROJECTS/Mol_Feturizer/New_Systems/rnas/3DVV

>  <Rbt.Executable>
rbdock ($Id: //depot/dev/client3/rdock/2013.1/src/exe/rbdock.cxx#4 $)

>  <Rbt.Library>
libRbt.so (2013.1, Build901 2013/11/27)

>  <Rbt.Parameter_File>
/export/apps/rDock/src/rDock_2013.1_src/data/scripts/dock_solv.prm

>  <Rbt.Receptor>
prm/pocket_docking_6.prm

>  <SCORE>
-7.03459

>  <SCORE.INTER>
-4.57155

>  <SCORE.INTER.CONST>
1

>  <SCORE.INTER.POLAR>
0

>  <SCORE.INTER.ROT>
6

>  <SCORE.INTER.SOLV>
10.2082

>  <SCORE.INTER.VDW>
-14.0504

>  <SCORE.INTER.norm>
-0.147469

>  <SCORE.INTRA>
-2.46304

>  <SCORE.INTRA.DIHEDRAL>
-8.08456

>  <SCORE.INTRA.DIHEDRAL.0>
10.8172

>  <SCORE.INTRA.POLAR>
0

>  <SCORE.INTRA.POLAR.0>
0

>  <SCORE.INTRA.REPUL>
0

>  <SCORE.INTRA.REPUL.0>
0

>  <SCORE.INTRA.SOLV>
-2.34329

>  <SCORE.INTRA.SOLV.lig_0>
-80.3833

>  <SCORE.INTRA.VDW>
2.75088

>  <SCORE.INTRA.VDW.0>
-4.63762

>  <SCORE.INTRA.norm>
-0.079453

>  <SCORE.RESTR>
0

>  <SCORE.RESTR.CAVITY>
0

>  <SCORE.RESTR.norm>
0

>  <SCORE.SYSTEM>
0

>  <SCORE.SYSTEM.CONST>
0

>  <SCORE.SYSTEM.DIHEDRAL>
0

>  <SCORE.SYSTEM.SOLV>
0

>  <SCORE.SYSTEM.norm>
0

>  <SCORE.heavy>
31

>  <SCORE.norm>
-0.226922

>  <RMSD>
7.383

$$$$
ligand
 OpenBabel11021811473D
libRbt.so/2013.1/901 2013/11/27
 31 33  0  0  0  0  0  0  0  0999 V2000
   21.6712    5.6331   16.3816 C   0  0  0  0  0  0  0  0  0  0  0  0
   16.1976    7.7465   12.9975 N   0  0  0  0  0  0  0  0  0  0  0  0
   22.1737    5.1632   17.6368 O   0  0  0  0  0  0  0  0  0  0  0  0
   20.3480    4.9386   16.0498 C   0  0  1  0  0  0  0  0  0  0  0  0
   15.4461    3.2306   11.2812 N   0  0  0  0  0  0  0  0  0  0  0  0
   19.8444    5.4082   14.7840 O   0  0  0  0  0  0  0  0  0  0  0  0
   19.6125    4.2718   13.9327 C   0  0  1  0  0  0  0  0  0  0  0  0
   16.7875   -1.6495   11.6558 N   0  0  0  0  0  0  0  0  0  0  0  0
   19.8583    4.5828   12.5522 O   0  0  0  0  0  0  0  0  0  0  0  0
   18.7106    5.0999   11.8628 C   0  0  2  0  0  0  0  0  0  0  0  0
   20.5362    2.3445    9.2095 N   0  0  0  0  0  0  0  0  0  0  0  0
   18.9804    7.2770   12.8775 O   0  0  0  0  0  0  0  0  0  0  0  0
   18.0823    6.1699   12.7633 C   0  0  1  0  0  0  0  0  0  0  0  0
   18.1992    3.0846   10.5367 O   0  0  0  0  0  0  0  0  0  0  0  0
   16.7541    6.6570   12.1808 C   0  0  1  0  0  0  0  0  0  0  0  0
   17.9446    0.9436   11.4798 O   0  0  0  0  0  0  0  0  0  0  0  0
   15.7715    5.4869   12.1273 C   0  0  0  0  0  0  0  0  0  0  0  0
   16.7187   -0.5357    8.3517 O   0  0  0  0  0  0  0  0  0  0  0  0
   16.3325    4.4017   11.2037 C   0  0  1  0  0  0  0  0  0  0  0  0
   19.4523    0.0924    7.7214 O   0  0  0  0  0  0  0  0  0  0  0  0
   17.7453    3.9496   11.5925 C   0  0  2  0  0  0  0  0  0  0  0  0
   20.3560    1.9270   14.0156 O   0  0  0  0  0  0  0  0  0  0  0  0
   18.8908    1.9063   10.9794 C   0  0  1  0  0  0  0  0  0  0  0  0
   19.4530    2.6713   16.3880 O   0  0  0  0  0  0  0  0  0  0  0  0
   16.9720    0.5144   10.5119 C   0  0  2  0  0  0  0  0  0  0  0  0
   16.0224   -0.4914   11.1670 C   0  0  0  0  0  0  0  0  0  0  0  0
   17.6830   -0.1671    9.3413 C   0  0  2  0  0  0  0  0  0  0  0  0
   18.7031    0.7903    8.7218 C   0  0  1  0  0  0  0  0  0  0  0  0
   19.6615    1.3162    9.7937 C   0  0  1  0  0  0  0  0  0  0  0  0
   20.6677    3.2694   14.3955 C   0  0  2  0  0  0  0  0  0  0  0  0
   20.5669    3.4295   15.9095 C   0  0  1  0  0  0  0  0  0  0  0  0
  1  3  1  0  0  0  0
  4  1  1  6  0  0  0
  4  6  1  0  0  0  0
  4 31  1  0  0  0  0
  6  7  1  0  0  0  0
  7  9  1  6  0  0  0
  7 30  1  0  0  0  0
  8 26  1  0  0  0  0
 10  9  1  1  0  0  0
 10 13  1  0  0  0  0
 10 21  1  0  0  0  0
 13 12  1  6  0  0  0
 13 15  1  0  0  0  0
 15  2  1  1  0  0  0
 15 17  1  0  0  0  0
 16 25  1  0  0  0  0
 16 23  1  0  0  0  0
 17 19  1  0  0  0  0
 19  5  1  1  0  0  0
 19 21  1  0  0  0  0
 21 14  1  6  0  0  0
 23 14  1  6  0  0  0
 23 29  1  0  0  0  0
 25 26  1  1  0  0  0
 25 27  1  0  0  0  0
 27 18  1  6  0  0  0
 27 28  1  0  0  0  0
 28 20  1  6  0  0  0
 28 29  1  0  0  0  0
 29 11  1  6  0  0  0
 30 22  1  1  0  0  0
 30 31  1  0  0  0  0
 31 24  1  6  0  0  0
M  END
>  <CHROM.1>
-179.80448512,-88.61598437,46.35560570,76.27627221,96.74525702,-59.55783934
18.61621679,3.19820883,12.29335770,-1.11747827,0.81658089,-2.62876775

>  <Name>
ligand

>  <RI>
0

>  <Rbt.Current_Directory>
/home/itssahil/PROJECTS/Mol_Feturizer/New_Systems/rnas/3DVV

>  <Rbt.Executable>
rbdock ($Id: //depot/dev/client3/rdock/2013.1/src/exe/rbdock.cxx#4 $)

>  <Rbt.Library>
libRbt.so (2013.1, Build901 2013/11/27)

>  <Rbt.Parameter_File>
/export/apps/rDock/src/rDock_2013.1_src/data/scripts/dock_solv.prm

>  <Rbt.Receptor>
prm/blind_docking_60.prm

>  <SCORE>
3.48998

>  <SCORE.INTER>
0.624417

>  <SCORE.INTER.CONST>
1

>  <SCORE.INTER.POLAR>
0

>  <SCORE.INTER.ROT>
6

>  <SCORE.INTER.SOLV>
16.4635

>  <SCORE.INTER.VDW>
-12.6716

>  <SCORE.INTER.norm>
0.0201425

>  <SCORE.INTRA>
2.81423

>  <SCORE.INTRA.DIHEDRAL>
-0.52601

>  <SCORE.INTRA.DIHEDRAL.0>
10.8172

>  <SCORE.INTRA.POLAR>
0

>  <SCORE.INTRA.POLAR.0>
0

>  <SCORE.INTRA.REPUL>
0.029071

>  <SCORE.INTRA.REPUL.0>
0

>  <SCORE.INTRA.SOLV>
-0.410461

>  <SCORE.INTRA.SOLV.lig_0>
-80.3833

>  <SCORE.INTRA.VDW>
3.13711

>  <SCORE.INTRA.VDW.0>
-4.63762

>  <SCORE.INTRA.norm>
0.0907816

>  <SCORE.RESTR>
0.0513341

>  <SCORE.RESTR.CAVITY>
0.0513341

>  <SCORE.RESTR.norm>
0.00165594

>  <SCORE.SYSTEM>
0

>  <SCORE.SYSTEM.CONST>
0

>  <SCORE.SYSTEM.DIHEDRAL>
0

>  <SCORE.SYSTEM.SOLV>
0

>  <SCORE.SYSTEM.norm>
0

>  <SCORE.heavy>
31

>  <SCORE.norm>
0.11258

>  <RMSD>
7.384

$$$$
ligand
 OpenBabel11021811473D
libRbt.so/2013.1/901 2013/11/27
 31 33  0  0  0  0  0  0  0  0999 V2000
   19.3989    9.6910   10.3977 C   0  0  0  0  0  0  0  0  0  0  0  0
   22.3319    4.9351   16.3344 N   0  0  0  0  0  0  0  0  0  0  0  0
   19.9622   10.9525   10.7719 O   0  0  0  0  0  0  0  0  0  0  0  0
   20.1966    8.5483   11.0311 C   0  0  1  0  0  0  0  0  0  0  0  0
   18.1976    2.8521   14.7621 N   0  0  0  0  0  0  0  0  0  0  0  0
   20.1317    8.6341   12.4680 O   0  0  0  0  0  0  0  0  0  0  0  0
   19.6534    7.3781   12.9811 C   0  0  1  0  0  0  0  0  0  0  0  0
   16.4152    3.5705   10.8406 N   0  0  0  0  0  0  0  0  0  0  0  0
   18.8615    7.5549   14.1663 O   0  0  0  0  0  0  0  0  0  0  0  0
   19.0678    6.5367   15.1566 C   0  0  2  0  0  0  0  0  0  0  0  0
   15.1225    7.2462   15.9797 N   0  0  0  0  0  0  0  0  0  0  0  0
   21.2080    7.4677   15.7855 O   0  0  0  0  0  0  0  0  0  0  0  0
   20.5789    6.2976   15.2559 C   0  0  1  0  0  0  0  0  0  0  0  0
   16.8992    5.3922   14.8952 O   0  0  0  0  0  0  0  0  0  0  0  0
   20.8806    5.1070   16.1682 C   0  0  1  0  0  0  0  0  0  0  0  0
   16.0506    5.7082   12.7231 O   0  0  0  0  0  0  0  0  0  0  0  0
   20.2686    3.8439   15.5622 C   0  0  0  0  0  0  0  0  0  0  0  0
   13.0320    3.7217   13.3697 O   0  0  0  0  0  0  0  0  0  0  0  0
   18.7487    4.0125   15.4783 C   0  0  1  0  0  0  0  0  0  0  0  0
   12.6524    6.0126   15.0646 O   0  0  0  0  0  0  0  0  0  0  0  0
   18.3227    5.2777   14.7236 C   0  0  2  0  0  0  0  0  0  0  0  0
   18.5073    5.4628   11.9437 O   0  0  0  0  0  0  0  0  0  0  0  0
   16.2590    6.3227   14.0082 C   0  0  1  0  0  0  0  0  0  0  0  0
   20.5782    6.1843   10.4642 O   0  0  0  0  0  0  0  0  0  0  0  0
   15.2232    4.5329   12.7585 C   0  0  2  0  0  0  0  0  0  0  0  0
   15.0904    3.9701   11.3414 C   0  0  0  0  0  0  0  0  0  0  0  0
   13.8320    4.9033   13.2757 C   0  0  2  0  0  0  0  0  0  0  0  0
   13.9445    5.5495   14.6581 C   0  0  1  0  0  0  0  0  0  0  0  0
   14.9140    6.7336   14.6169 C   0  0  1  0  0  0  0  0  0  0  0  0
   18.7425    6.8706   11.8651 C   0  0  2  0  0  0  0  0  0  0  0  0
   19.5868    7.1999   10.6376 C   0  0  1  0  0  0  0  0  0  0  0  0
  1  3  1  0  0  0  0
  4  1  1  6  0  0  0
  4  6  1  0  0  0  0
  4 31  1  0  0  0  0
  6  7  1  0  0  0  0
  7  9  1  1  0  0  0
  7 30  1  0  0  0  0
  8 26  1  0  0  0  0
 10  9  1  6  0  0  0
 10 13  1  0  0  0  0
 10 21  1  0  0  0  0
 13 12  1  1  0  0  0
 13 15  1  0  0  0  0
 15  2  1  6  0  0  0
 15 17  1  0  0  0  0
 16 25  1  0  0  0  0
 16 23  1  0  0  0  0
 17 19  1  0  0  0  0
 19  5  1  6  0  0  0
 19 21  1  0  0  0  0
 21 14  1  1  0  0  0
 23 14  1  1  0  0  0
 23 29  1  0  0  0  0
 25 26  1  6  0  0  0
 25 27  1  0  0  0  0
 27 18  1  1  0  0  0
 27 28  1  0  0  0  0
 28 20  1  6  0  0  0
 28 29  1  0  0  0  0
 29 11  1  1  0  0  0
 30 22  1  1  0  0  0
 30 31  1  0  0  0  0
 31 24  1  1  0  0  0
M  END
>  <CHROM.1>
61.96256185,-141.83707390,43.99001269,80.60714969,68.84812187,62.20282638
17.88878261,6.10779092,13.50793937,0.36176043,-0.26550218,-0.95019322

>  <Name>
ligand

>  <RI>
0

>  <Rbt.Current_Directory>
/home/itssahil/PROJECTS/Mol_Feturizer/New_Systems/rnas/3DVV

>  <Rbt.Executable>
rbdock ($Id: //depot/dev/client3/rdock/2013.1/src/exe/rbdock.cxx#4 $)

>  <Rbt.Library>
libRbt.so (2013.1, Build901 2013/11/27)

>  <Rbt.Parameter_File>
/export/apps/rDock/src/rDock_2013.1_src/data/scripts/dock_solv.prm

>  <Rbt.Receptor>
prm/pocket_docking_8.prm

>  <SCORE>
-3.25797

>  <SCORE.INTER>
-4.59573

>  <SCORE.INTER.CONST>
1

>  <SCORE.INTER.POLAR>
0

>  <SCORE.INTER.ROT>
6

>  <SCORE.INTER.SOLV>
9.70122

>  <SCORE.INTER.VDW>
-13.8976

>  <SCORE.INTER.norm>
-0.148249

>  <SCORE.INTRA>
1.33776

>  <SCORE.INTRA.DIHEDRAL>
-2.18281

>  <SCORE.INTRA.DIHEDRAL.0>
10.8172

>  <SCORE.INTRA.POLAR>
0

>  <SCORE.INTRA.POLAR.0>
0

>  <SCORE.INTRA.REPUL>
0

>  <SCORE.INTRA.REPUL.0>
0

>  <SCORE.INTRA.SOLV>
-1.22812

>  <SCORE.INTRA.SOLV.lig_0>
-80.3833

>  <SCORE.INTRA.VDW>
3.04323

>  <SCORE.INTRA.VDW.0>
-4.63762

>  <SCORE.INTRA.norm>
0.0431536

>  <SCORE.RESTR>
0

>  <SCORE.RESTR.CAVITY>
0

>  <SCORE.RESTR.norm>
0

>  <SCORE.SYSTEM>
0

>  <SCORE.SYSTEM.CONST>
0

>  <SCORE.SYSTEM.DIHEDRAL>
0

>  <SCORE.SYSTEM.SOLV>
0

>  <SCORE.SYSTEM.norm>
0

>  <SCORE.heavy>
31

>  <SCORE.norm>
-0.105096

>  <RMSD>
7.386

$$$$
ligand
 OpenBabel11021811473D
libRbt.so/2013.1/901 2013/11/27
 31 33  0  0  0  0  0  0  0  0999 V2000
   18.0233    7.6893   18.7105 C   0  0  0  0  0  0  0  0  0  0  0  0
   17.6787    4.3651   10.9975 N   0  0  0  0  0  0  0  0  0  0  0  0
   18.0334    6.3707   19.2673 O   0  0  0  0  0  0  0  0  0  0  0  0
   18.6613    7.6792   17.3190 C   0  0  1  0  0  0  0  0  0  0  0  0
   13.2514    3.8397   13.0041 N   0  0  0  0  0  0  0  0  0  0  0  0
   17.9245    6.8059   16.4411 O   0  0  0  0  0  0  0  0  0  0  0  0
   17.5427    7.5491   15.2699 C   0  0  1  0  0  0  0  0  0  0  0  0
   12.8174    2.8510   19.7617 N   0  0  0  0  0  0  0  0  0  0  0  0
   16.2764    7.1117   14.7521 O   0  0  0  0  0  0  0  0  0  0  0  0
   16.2843    5.7594   14.2714 C   0  0  2  0  0  0  0  0  0  0  0  0
   12.9721    7.4644   15.1164 N   0  0  0  0  0  0  0  0  0  0  0  0
   18.3807    6.0961   13.1163 O   0  0  0  0  0  0  0  0  0  0  0  0
   17.0045    5.7615   12.9180 C   0  0  1  0  0  0  0  0  0  0  0  0
   14.2385    4.9997   15.4198 O   0  0  0  0  0  0  0  0  0  0  0  0
   16.9114    4.3871   12.2522 C   0  0  1  0  0  0  0  0  0  0  0  0
   12.2938    4.0015   16.2914 O   0  0  0  0  0  0  0  0  0  0  0  0
   15.4432    4.0632   11.9750 C   0  0  0  0  0  0  0  0  0  0  0  0
   12.6890    5.5761   19.5839 O   0  0  0  0  0  0  0  0  0  0  0  0
   14.6818    4.0070   13.3027 C   0  0  1  0  0  0  0  0  0  0  0  0
   12.1272    7.8200   17.8769 O   0  0  0  0  0  0  0  0  0  0  0  0
   14.8418    5.2790   14.1442 C   0  0  2  0  0  0  0  0  0  0  0  0
   17.4409    9.9553   14.7622 O   0  0  0  0  0  0  0  0  0  0  0  0
   12.8027    5.0341   15.4270 C   0  0  1  0  0  0  0  0  0  0  0  0
   19.7539    9.3717   15.9056 O   0  0  0  0  0  0  0  0  0  0  0  0
   12.7181    4.1159   17.6604 C   0  0  2  0  0  0  0  0  0  0  0  0
   12.1246    2.9591   18.4679 C   0  0  0  0  0  0  0  0  0  0  0  0
   12.2118    5.4366   18.2431 C   0  0  2  0  0  0  0  0  0  0  0  0
   12.7210    6.6078   17.4004 C   0  0  1  0  0  0  0  0  0  0  0  0
   12.3482    6.4088   15.9289 C   0  0  1  0  0  0  0  0  0  0  0  0
   17.3806    8.9727   15.7987 C   0  0  2  0  0  0  0  0  0  0  0  0
   18.6040    9.0804   16.7040 C   0  0  1  0  0  0  0  0  0  0  0  0
  1  3  1  0  0  0  0
  4  1  1  1  0  0  0
  4  6  1  0  0  0  0
  4 31  1  0  0  0  0
  6  7  1  0  0  0  0
  7  9  1  1  0  0  0
  7 30  1  0  0  0  0
  8 26  1  0  0  0  0
 10  9  1  6  0  0  0
 10 13  1  0  0  0  0
 10 21  1  0  0  0  0
 13 12  1  1  0  0  0
 13 15  1  0  0  0  0
 15  2  1  6  0  0  0
 15 17  1  0  0  0  0
 16 25  1  0  0  0  0
 16 23  1  0  0  0  0
 17 19  1  0  0  0  0
 19  5  1  6  0  0  0
 19 21  1  0  0  0  0
 21 14  1  1  0  0  0
 23 14  1  1  0  0  0
 23 29  1  0  0  0  0
 25 26  1  1  0  0  0
 25 27  1  0  0  0  0
 27 18  1  1  0  0  0
 27 28  1  0  0  0  0
 28 20  1  1  0  0  0
 28 29  1  0  0  0  0
 29 11  1  6  0  0  0
 30 22  1  6  0  0  0
 30 31  1  0  0  0  0
 31 24  1  6  0  0  0
M  END
>  <CHROM.1>
60.31076627,-64.60936291,-75.69326545,142.52180156,157.82213621,165.13505885
15.38661551,6.07701720,15.78041158,-0.20183579,0.56995192,1.16170411

>  <Name>
ligand

>  <RI>
0

>  <Rbt.Current_Directory>
/home/itssahil/PROJECTS/Mol_Feturizer/New_Systems/rnas/3DVV

>  <Rbt.Executable>
rbdock ($Id: //depot/dev/client3/rdock/2013.1/src/exe/rbdock.cxx#4 $)

>  <Rbt.Library>
libRbt.so (2013.1, Build901 2013/11/27)

>  <Rbt.Parameter_File>
/export/apps/rDock/src/rDock_2013.1_src/data/scripts/dock_solv.prm

>  <Rbt.Receptor>
prm/pocket_docking_5.prm

>  <SCORE>
-1.08164

>  <SCORE.INTER>
-3.13136

>  <SCORE.INTER.CONST>
1

>  <SCORE.INTER.POLAR>
0

>  <SCORE.INTER.ROT>
6

>  <SCORE.INTER.SOLV>
11.3225

>  <SCORE.INTER.VDW>
-13.4617

>  <SCORE.INTER.norm>
-0.101012

>  <SCORE.INTRA>
2.03678

>  <SCORE.INTRA.DIHEDRAL>
-1.45613

>  <SCORE.INTRA.DIHEDRAL.0>
10.8172

>  <SCORE.INTRA.POLAR>
0

>  <SCORE.INTRA.POLAR.0>
0

>  <SCORE.INTRA.REPUL>
0.00427378

>  <SCORE.INTRA.REPUL.0>
0

>  <SCORE.INTRA.SOLV>
-0.624688

>  <SCORE.INTRA.SOLV.lig_0>
-80.3833

>  <SCORE.INTRA.VDW>
3.05582

>  <SCORE.INTRA.VDW.0>
-4.63762

>  <SCORE.INTRA.norm>
0.0657024

>  <SCORE.RESTR>
0.012949

>  <SCORE.RESTR.CAVITY>
0.012949

>  <SCORE.RESTR.norm>
0.000417709

>  <SCORE.SYSTEM>
0

>  <SCORE.SYSTEM.CONST>
0

>  <SCORE.SYSTEM.DIHEDRAL>
0

>  <SCORE.SYSTEM.SOLV>
0

>  <SCORE.SYSTEM.norm>
0

>  <SCORE.heavy>
31

>  <SCORE.norm>
-0.0348915

>  <RMSD>
7.389

$$$$
ligand
 OpenBabel11021811473D
libRbt.so/2013.1/901 2013/11/27
 31 33  0  0  0  0  0  0  0  0999 V2000
   20.6726    4.4099   16.9934 C   0  0  0  0  0  0  0  0  0  0  0  0
   19.9358    9.0425    9.8416 N   0  0  0  0  0  0  0  0  0  0  0  0
   19.8726    5.3761   17.6829 O   0  0  0  0  0  0  0  0  0  0  0  0
   21.4197    5.0742   15.8342 C   0  0  1  0  0  0  0  0  0  0  0  0
   15.6823    9.1575   12.2495 N   0  0  0  0  0  0  0  0  0  0  0  0
   20.4833    5.6825   14.9234 O   0  0  0  0  0  0  0  0  0  0  0  0
   20.8392    7.0664   14.7566 C   0  0  1  0  0  0  0  0  0  0  0  0
   16.1072   10.3508   18.1482 N   0  0  0  0  0  0  0  0  0  0  0  0
   19.6816    7.8925   14.5555 O   0  0  0  0  0  0  0  0  0  0  0  0
   19.0301    7.6778   13.2948 C   0  0  2  0  0  0  0  0  0  0  0  0
   16.2066    4.9579   15.5253 N   0  0  0  0  0  0  0  0  0  0  0  0
   21.1238    7.8232   12.0957 O   0  0  0  0  0  0  0  0  0  0  0  0
   19.8367    8.4319   12.2312 C   0  0  1  0  0  0  0  0  0  0  0  0
   16.7501    7.3312   14.1679 O   0  0  0  0  0  0  0  0  0  0  0  0
   19.1187    8.3973   10.8806 C   0  0  1  0  0  0  0  0  0  0  0  0
   16.9444    8.5449   16.1748 O   0  0  0  0  0  0  0  0  0  0  0  0
   17.7738    9.1127   11.0098 C   0  0  0  0  0  0  0  0  0  0  0  0
   13.3150    8.6783   16.7093 O   0  0  0  0  0  0  0  0  0  0  0  0
   16.9078    8.3733   12.0340 C   0  0  1  0  0  0  0  0  0  0  0  0
   13.8958    5.8812   17.0315 O   0  0  0  0  0  0  0  0  0  0  0  0
   17.5982    8.1956   13.3918 C   0  0  2  0  0  0  0  0  0  0  0  0
   22.2820    8.5991   16.0322 O   0  0  0  0  0  0  0  0  0  0  0  0
   17.0872    7.2502   15.5616 C   0  0  1  0  0  0  0  0  0  0  0  0
   23.5388    6.3075   15.6235 O   0  0  0  0  0  0  0  0  0  0  0  0
   15.6158    9.0893   16.1006 C   0  0  2  0  0  0  0  0  0  0  0  0
   15.5991   10.4648   16.7717 C   0  0  0  0  0  0  0  0  0  0  0  0
   14.6442    8.1670   16.8393 C   0  0  2  0  0  0  0  0  0  0  0  0
   14.7055    6.7595   16.2426 C   0  0  1  0  0  0  0  0  0  0  0  0
   16.1473    6.2448   16.2353 C   0  0  1  0  0  0  0  0  0  0  0  0
   21.4620    7.4302   16.1028 C   0  0  2  0  0  0  0  0  0  0  0  0
   22.3196    6.1952   16.3620 C   0  0  1  0  0  0  0  0  0  0  0  0
  1  3  1  0  0  0  0
  4  1  1  1  0  0  0
  4  6  1  0  0  0  0
  4 31  1  0  0  0  0
  6  7  1  0  0  0  0
  7  9  1  1  0  0  0
  7 30  1  0  0  0  0
  8 26  1  0  0  0  0
 10  9  1  1  0  0  0
 10 13  1  0  0  0  0
 10 21  1  0  0  0  0
 13 12  1  6  0  0  0
 13 15  1  0  0  0  0
 15  2  1  6  0  0  0
 15 17  1  0  0  0  0
 16 25  1  0  0  0  0
 16 23  1  0  0  0  0
 17 19  1  0  0  0  0
 19  5  1  1  0  0  0
 19 21  1  0  0  0  0
 21 14  1  1  0  0  0
 23 14  1  6  0  0  0
 23 29  1  0  0  0  0
 25 26  1  1  0  0  0
 25 27  1  0  0  0  0
 27 18  1  6  0  0  0
 27 28  1  0  0  0  0
 28 20  1  1  0  0  0
 28 29  1  0  0  0  0
 29 11  1  6  0  0  0
 30 22  1  6  0  0  0
 30 31  1  0  0  0  0
 31 24  1  6  0  0  0
M  END
>  <CHROM.1>
-58.34889691,-69.09546816,-79.20481010,62.50097550,66.18422785,-55.25641571
18.29852705,7.53507632,14.91749014,-0.15577656,-0.26309307,1.97876061

>  <Name>
ligand

>  <RI>
0

>  <Rbt.Current_Directory>
/home/itssahil/PROJECTS/Mol_Feturizer/New_Systems/rnas/3DVV

>  <Rbt.Executable>
rbdock ($Id: //depot/dev/client3/rdock/2013.1/src/exe/rbdock.cxx#4 $)

>  <Rbt.Library>
libRbt.so (2013.1, Build901 2013/11/27)

>  <Rbt.Parameter_File>
/export/apps/rDock/src/rDock_2013.1_src/data/scripts/dock_solv.prm

>  <Rbt.Receptor>
prm/pocket_docking_7.prm

>  <SCORE>
-6.61053

>  <SCORE.INTER>
-3.20529

>  <SCORE.INTER.CONST>
1

>  <SCORE.INTER.POLAR>
0

>  <SCORE.INTER.ROT>
6

>  <SCORE.INTER.SOLV>
12.0322

>  <SCORE.INTER.VDW>
-13.7476

>  <SCORE.INTER.norm>
-0.103396

>  <SCORE.INTRA>
-3.40524

>  <SCORE.INTRA.DIHEDRAL>
-8.18405

>  <SCORE.INTRA.DIHEDRAL.0>
10.8172

>  <SCORE.INTRA.POLAR>
0

>  <SCORE.INTRA.POLAR.0>
0

>  <SCORE.INTRA.REPUL>
0

>  <SCORE.INTRA.REPUL.0>
0

>  <SCORE.INTRA.SOLV>
-2.35613

>  <SCORE.INTRA.SOLV.lig_0>
-80.3833

>  <SCORE.INTRA.VDW>
1.86485

>  <SCORE.INTRA.VDW.0>
-4.63762

>  <SCORE.INTRA.norm>
-0.109847

>  <SCORE.RESTR>
0

>  <SCORE.RESTR.CAVITY>
0

>  <SCORE.RESTR.norm>
0

>  <SCORE.SYSTEM>
0

>  <SCORE.SYSTEM.CONST>
0

>  <SCORE.SYSTEM.DIHEDRAL>
0

>  <SCORE.SYSTEM.SOLV>
0

>  <SCORE.SYSTEM.norm>
0

>  <SCORE.heavy>
31

>  <SCORE.norm>
-0.213243

>  <RMSD>
7.391

$$$$
ligand
 OpenBabel11021811473D
libRbt.so/2013.1/901 2013/11/27
 31 33  0  0  0  0  0  0  0  0999 V2000
   16.8497    9.9864   12.2584 C   0  0  0  0  0  0  0  0  0  0  0  0
   22.0163    5.9935   16.5552 N   0  0  0  0  0  0  0  0  0  0  0  0
   16.4858    8.8583   11.4562 O   0  0  0  0  0  0  0  0  0  0  0  0
   18.3541    9.9696   12.5408 C   0  0  1  0  0  0  0  0  0  0  0  0
   19.5162    2.3889   14.3964 N   0  0  0  0  0  0  0  0  0  0  0  0
   18.7344    8.7118   13.1323 O   0  0  0  0  0  0  0  0  0  0  0  0
   19.7922    8.1363   12.3450 C   0  0  1  0  0  0  0  0  0  0  0  0
   20.5027    1.6824   10.4280 N   0  0  0  0  0  0  0  0  0  0  0  0
   19.7236    6.7017   12.3303 O   0  0  0  0  0  0  0  0  0  0  0  0
   19.5587    6.1174   13.6308 C   0  0  2  0  0  0  0  0  0  0  0  0
   15.5076    5.3067   12.1334 N   0  0  0  0  0  0  0  0  0  0  0  0
   20.9640    7.7974   14.6533 O   0  0  0  0  0  0  0  0  0  0  0  0
   20.8445    6.3915   14.4195 C   0  0  1  0  0  0  0  0  0  0  0  0
   17.9791    4.3377   12.9839 O   0  0  0  0  0  0  0  0  0  0  0  0
   20.8240    5.6578   15.7619 C   0  0  1  0  0  0  0  0  0  0  0  0
   18.5503    3.6216   10.8162 O   0  0  0  0  0  0  0  0  0  0  0  0
   20.7697    4.1511   15.5084 C   0  0  0  0  0  0  0  0  0  0  0  0
   16.3748    0.6689   10.9740 O   0  0  0  0  0  0  0  0  0  0  0  0
   19.4786    3.8145   14.7565 C   0  0  1  0  0  0  0  0  0  0  0  0
   14.4900    2.8397   10.9760 O   0  0  0  0  0  0  0  0  0  0  0  0
   19.3046    4.6222   13.4646 C   0  0  2  0  0  0  0  0  0  0  0  0
   20.6336    8.5800   10.0750 O   0  0  0  0  0  0  0  0  0  0  0  0
   17.7847    4.5716   11.5803 C   0  0  1  0  0  0  0  0  0  0  0  0
   20.3396   10.8569   11.3891 O   0  0  0  0  0  0  0  0  0  0  0  0
   18.1995    2.2488   11.0602 C   0  0  2  0  0  0  0  0  0  0  0  0
   19.0882    1.3441   10.2033 C   0  0  0  0  0  0  0  0  0  0  0  0
   16.7382    2.0184   10.6708 C   0  0  2  0  0  0  0  0  0  0  0  0
   15.8335    2.9737   11.4518 C   0  0  1  0  0  0  0  0  0  0  0  0
   16.2937    4.4213   11.2605 C   0  0  1  0  0  0  0  0  0  0  0  0
   19.4948    8.6467   10.9366 C   0  0  2  0  0  0  0  0  0  0  0  0
   19.1367   10.1003   11.2311 C   0  0  1  0  0  0  0  0  0  0  0  0
  1  3  1  0  0  0  0
  4  1  1  6  0  0  0
  4  6  1  0  0  0  0
  4 31  1  0  0  0  0
  6  7  1  0  0  0  0
  7  9  1  6  0  0  0
  7 30  1  0  0  0  0
  8 26  1  0  0  0  0
 10  9  1  6  0  0  0
 10 13  1  0  0  0  0
 10 21  1  0  0  0  0
 13 12  1  1  0  0  0
 13 15  1  0  0  0  0
 15  2  1  6  0  0  0
 15 17  1  0  0  0  0
 16 25  1  0  0  0  0
 16 23  1  0  0  0  0
 17 19  1  0  0  0  0
 19  5  1  6  0  0  0
 19 21  1  0  0  0  0
 21 14  1  1  0  0  0
 23 14  1  1  0  0  0
 23 29  1  0  0  0  0
 25 26  1  6  0  0  0
 25 27  1  0  0  0  0
 27 18  1  1  0  0  0
 27 28  1  0  0  0  0
 28 20  1  6  0  0  0
 28 29  1  0  0  0  0
 29 11  1  1  0  0  0
 30 22  1  6  0  0  0
 30 31  1  0  0  0  0
 31 24  1  1  0  0  0
M  END
>  <CHROM.1>
-54.66721352,-48.22077157,-66.85603184,67.67860292,76.80281475,52.75083206
18.70280446,5.62598083,12.40422077,1.14802196,-0.75005025,-0.12634048

>  <Name>
ligand

>  <RI>
0

>  <Rbt.Current_Directory>
/home/itssahil/PROJECTS/Mol_Feturizer/New_Systems/rnas/3DVV

>  <Rbt.Executable>
rbdock ($Id: //depot/dev/client3/rdock/2013.1/src/exe/rbdock.cxx#4 $)

>  <Rbt.Library>
libRbt.so (2013.1, Build901 2013/11/27)

>  <Rbt.Parameter_File>
/export/apps/rDock/src/rDock_2013.1_src/data/scripts/dock_solv.prm

>  <Rbt.Receptor>
prm/blind_docking_100.prm

>  <SCORE>
-3.02513

>  <SCORE.INTER>
-0.947563

>  <SCORE.INTER.CONST>
1

>  <SCORE.INTER.POLAR>
0

>  <SCORE.INTER.ROT>
6

>  <SCORE.INTER.SOLV>
16.2588

>  <SCORE.INTER.VDW>
-13.6513

>  <SCORE.INTER.norm>
-0.0305665

>  <SCORE.INTRA>
-2.11098

>  <SCORE.INTRA.DIHEDRAL>
-7.8298

>  <SCORE.INTRA.DIHEDRAL.0>
10.8172

>  <SCORE.INTRA.POLAR>
0

>  <SCORE.INTRA.POLAR.0>
0

>  <SCORE.INTRA.REPUL>
0

>  <SCORE.INTRA.REPUL.0>
0

>  <SCORE.INTRA.SOLV>
-2.2816

>  <SCORE.INTRA.SOLV.lig_0>
-80.3833

>  <SCORE.INTRA.VDW>
2.94473

>  <SCORE.INTRA.VDW.0>
-4.63762

>  <SCORE.INTRA.norm>
-0.068096

>  <SCORE.RESTR>
0.0334094

>  <SCORE.RESTR.CAVITY>
0.0334094

>  <SCORE.RESTR.norm>
0.00107772

>  <SCORE.SYSTEM>
0

>  <SCORE.SYSTEM.CONST>
0

>  <SCORE.SYSTEM.DIHEDRAL>
0

>  <SCORE.SYSTEM.SOLV>
0

>  <SCORE.SYSTEM.norm>
0

>  <SCORE.heavy>
31

>  <SCORE.norm>
-0.0975848

>  <RMSD>
7.394

$$$$
ligand
 OpenBabel11021811473D
libRbt.so/2013.1/901 2013/11/27
 31 33  0  0  0  0  0  0  0  0999 V2000
   20.4490    5.7993   15.1454 C   0  0  0  0  0  0  0  0  0  0  0  0
   14.7617    4.5842   11.4204 N   0  0  0  0  0  0  0  0  0  0  0  0
   19.8114    7.0387   14.8196 O   0  0  0  0  0  0  0  0  0  0  0  0
   19.4793    4.6345   14.9304 C   0  0  1  0  0  0  0  0  0  0  0  0
   16.3659    0.1417   10.1577 N   0  0  0  0  0  0  0  0  0  0  0  0
   18.9754    4.6505   13.5804 O   0  0  0  0  0  0  0  0  0  0  0  0
   19.2281    3.3670   12.9816 C   0  0  1  0  0  0  0  0  0  0  0  0
   19.1127   -3.3016   11.8545 N   0  0  0  0  0  0  0  0  0  0  0  0
   19.4908    3.4796   11.5740 O   0  0  0  0  0  0  0  0  0  0  0  0
   18.3186    3.3541   10.7554 C   0  0  2  0  0  0  0  0  0  0  0  0
   21.0609    1.4601    7.8251 N   0  0  0  0  0  0  0  0  0  0  0  0
   17.4429    5.4646   11.5435 O   0  0  0  0  0  0  0  0  0  0  0  0
   17.1730    4.0612   11.4889 C   0  0  1  0  0  0  0  0  0  0  0  0
   18.9418    1.2533    9.6243 O   0  0  0  0  0  0  0  0  0  0  0  0
   15.8436    3.8318   10.7672 C   0  0  1  0  0  0  0  0  0  0  0  0
   20.2788    0.1529   11.2180 O   0  0  0  0  0  0  0  0  0  0  0  0
   15.5215    2.3372   10.7739 C   0  0  0  0  0  0  0  0  0  0  0  0
   20.1871   -3.0456    9.4187 O   0  0  0  0  0  0  0  0  0  0  0  0
   16.6174    1.5837   10.0144 C   0  0  1  0  0  0  0  0  0  0  0  0
   21.7084   -1.3700    7.6459 O   0  0  0  0  0  0  0  0  0  0  0  0
   18.0268    1.8712   10.5461 C   0  0  2  0  0  0  0  0  0  0  0  0
   20.7093    1.4938   13.5776 O   0  0  0  0  0  0  0  0  0  0  0  0
   20.2784    1.0875   10.1230 C   0  0  1  0  0  0  0  0  0  0  0  0
   19.3754    2.3039   15.7135 O   0  0  0  0  0  0  0  0  0  0  0  0
   19.7988   -1.1582   10.8747 C   0  0  2  0  0  0  0  0  0  0  0  0
   19.8362   -2.0479   12.1195 C   0  0  0  0  0  0  0  0  0  0  0  0
   20.7038   -1.7688    9.8032 C   0  0  2  0  0  0  0  0  0  0  0  0
   20.7530   -0.8532    8.5783 C   0  0  1  0  0  0  0  0  0  0  0  0
   21.1637    0.5640    8.9870 C   0  0  1  0  0  0  0  0  0  0  0  0
   20.5086    2.9058   13.6747 C   0  0  2  0  0  0  0  0  0  0  0  0
   20.2088    3.3012   15.1175 C   0  0  1  0  0  0  0  0  0  0  0  0
  1  3  1  0  0  0  0
  4  1  1  6  0  0  0
  4  6  1  0  0  0  0
  4 31  1  0  0  0  0
  6  7  1  0  0  0  0
  7  9  1  6  0  0  0
  7 30  1  0  0  0  0
  8 26  1  0  0  0  0
 10  9  1  1  0  0  0
 10 13  1  0  0  0  0
 10 21  1  0  0  0  0
 13 12  1  6  0  0  0
 13 15  1  0  0  0  0
 15  2  1  1  0  0  0
 15 17  1  0  0  0  0
 16 25  1  0  0  0  0
 16 23  1  0  0  0  0
 17 19  1  0  0  0  0
 19  5  1  1  0  0  0
 19 21  1  0  0  0  0
 21 14  1  6  0  0  0
 23 14  1  6  0  0  0
 23 29  1  0  0  0  0
 25 26  1  1  0  0  0
 25 27  1  0  0  0  0
 27 18  1  6  0  0  0
 27 28  1  0  0  0  0
 28 20  1  6  0  0  0
 28 29  1  0  0  0  0
 29 11  1  6  0  0  0
 30 22  1  1  0  0  0
 30 31  1  0  0  0  0
 31 24  1  6  0  0  0
M  END
>  <CHROM.1>
55.63855413,-91.54213597,37.96491671,65.75863623,70.90949046,169.14220004
19.12615328,1.85575016,11.52717728,-1.81971779,0.65683918,-2.39154050

>  <Name>
ligand

>  <RI>
0

>  <Rbt.Current_Directory>
/home/itssahil/PROJECTS/Mol_Feturizer/New_Systems/rnas/3DVV

>  <Rbt.Executable>
rbdock ($Id: //depot/dev/client3/rdock/2013.1/src/exe/rbdock.cxx#4 $)

>  <Rbt.Library>
libRbt.so (2013.1, Build901 2013/11/27)

>  <Rbt.Parameter_File>
/export/apps/rDock/src/rDock_2013.1_src/data/scripts/dock_solv.prm

>  <Rbt.Receptor>
prm/blind_docking_100.prm

>  <SCORE>
0.0538581

>  <SCORE.INTER>
-1.65959

>  <SCORE.INTER.CONST>
1

>  <SCORE.INTER.POLAR>
0

>  <SCORE.INTER.ROT>
6

>  <SCORE.INTER.SOLV>
18.7798

>  <SCORE.INTER.VDW>
-14.9663

>  <SCORE.INTER.norm>
-0.0535351

>  <SCORE.INTRA>
1.71345

>  <SCORE.INTRA.DIHEDRAL>
-3.4886

>  <SCORE.INTRA.DIHEDRAL.0>
10.8172

>  <SCORE.INTRA.POLAR>
0

>  <SCORE.INTRA.POLAR.0>
0

>  <SCORE.INTRA.REPUL>
0.0406562

>  <SCORE.INTRA.REPUL.0>
0

>  <SCORE.INTRA.SOLV>
-2.18803

>  <SCORE.INTRA.SOLV.lig_0>
-80.3833

>  <SCORE.INTRA.VDW>
4.34848

>  <SCORE.INTRA.VDW.0>
-4.63762

>  <SCORE.INTRA.norm>
0.0552724

>  <SCORE.RESTR>
0

>  <SCORE.RESTR.CAVITY>
0

>  <SCORE.RESTR.norm>
0

>  <SCORE.SYSTEM>
0

>  <SCORE.SYSTEM.CONST>
0

>  <SCORE.SYSTEM.DIHEDRAL>
0

>  <SCORE.SYSTEM.SOLV>
0

>  <SCORE.SYSTEM.norm>
0

>  <SCORE.heavy>
31

>  <SCORE.norm>
0.00173736

>  <RMSD>
7.397

$$$$
ligand
 OpenBabel11021811473D
libRbt.so/2013.1/901 2013/11/27
 31 33  0  0  0  0  0  0  0  0999 V2000
   16.5426   10.5410   13.1342 C   0  0  0  0  0  0  0  0  0  0  0  0
   21.9968    5.2844   16.1389 N   0  0  0  0  0  0  0  0  0  0  0  0
   15.9092   10.4116   14.4112 O   0  0  0  0  0  0  0  0  0  0  0  0
   18.0500   10.3103   13.2672 C   0  0  1  0  0  0  0  0  0  0  0  0
   18.2819    2.5354   14.5431 N   0  0  0  0  0  0  0  0  0  0  0  0
   18.3080    8.9750   13.7435 O   0  0  0  0  0  0  0  0  0  0  0  0
   19.2043    8.3257   12.8243 C   0  0  1  0  0  0  0  0  0  0  0  0
   18.2067    2.5377   10.1139 N   0  0  0  0  0  0  0  0  0  0  0  0
   18.9417    6.9166   12.7316 O   0  0  0  0  0  0  0  0  0  0  0  0
   18.9795    6.2371   13.9953 C   0  0  2  0  0  0  0  0  0  0  0  0
   14.5406    6.3354   13.8867 N   0  0  0  0  0  0  0  0  0  0  0  0
   20.9408    7.4672   14.6901 O   0  0  0  0  0  0  0  0  0  0  0  0
   20.4495    6.1510   14.4221 C   0  0  1  0  0  0  0  0  0  0  0  0
   16.9256    4.9040   13.7032 O   0  0  0  0  0  0  0  0  0  0  0  0
   20.5996    5.2919   15.6792 C   0  0  1  0  0  0  0  0  0  0  0  0
   16.8152    4.8384   11.3534 O   0  0  0  0  0  0  0  0  0  0  0  0
   20.1416    3.8665   15.3693 C   0  0  0  0  0  0  0  0  0  0  0  0
   14.2427    2.2197   11.3221 O   0  0  0  0  0  0  0  0  0  0  0  0
   18.6616    3.8888   14.9759 C   0  0  1  0  0  0  0  0  0  0  0  0
   12.8418    4.4642   12.4467 O   0  0  0  0  0  0  0  0  0  0  0  0
   18.3580    4.8543   13.8238 C   0  0  2  0  0  0  0  0  0  0  0  0
   19.8931    8.8182   10.5133 O   0  0  0  0  0  0  0  0  0  0  0  0
   16.4433    5.5788   12.5307 C   0  0  1  0  0  0  0  0  0  0  0  0
   20.0270   11.0143   11.9820 O   0  0  0  0  0  0  0  0  0  0  0  0
   16.2901    3.5007   11.3074 C   0  0  2  0  0  0  0  0  0  0  0  0
   16.7652    2.8192   10.0220 C   0  0  0  0  0  0  0  0  0  0  0  0
   14.7612    3.5523   11.3036 C   0  0  2  0  0  0  0  0  0  0  0  0
   14.2618    4.3067   12.5375 C   0  0  1  0  0  0  0  0  0  0  0  0
   14.9175    5.6876   12.6210 C   0  0  1  0  0  0  0  0  0  0  0  0
   18.8548    8.9695   11.4842 C   0  0  2  0  0  0  0  0  0  0  0  0
   18.7237   10.4323   11.8974 C   0  0  1  0  0  0  0  0  0  0  0  0
  1  3  1  0  0  0  0
  4  1  1  6  0  0  0
  4  6  1  0  0  0  0
  4 31  1  0  0  0  0
  6  7  1  0  0  0  0
  7  9  1  6  0  0  0
  7 30  1  0  0  0  0
  8 26  1  0  0  0  0
 10  9  1  6  0  0  0
 10 13  1  0  0  0  0
 10 21  1  0  0  0  0
 13 12  1  1  0  0  0
 13 15  1  0  0  0  0
 15  2  1  6  0  0  0
 15 17  1  0  0  0  0
 16 25  1  0  0  0  0
 16 23  1  0  0  0  0
 17 19  1  0  0  0  0
 19  5  1  6  0  0  0
 19 21  1  0  0  0  0
 21 14  1  1  0  0  0
 23 14  1  1  0  0  0
 23 29  1  0  0  0  0
 25 26  1  6  0  0  0
 25 27  1  0  0  0  0
 27 18  1  1  0  0  0
 27 28  1  0  0  0  0
 28 20  1  6  0  0  0
 28 29  1  0  0  0  0
 29 11  1  1  0  0  0
 30 22  1  6  0  0  0
 30 31  1  0  0  0  0
 31 24  1  1  0  0  0
M  END
>  <CHROM.1>
61.66694633,-55.51153491,-72.84256654,65.90044035,64.72064232,70.82908760
17.72596365,6.19860516,12.97726653,0.93123617,-0.46309925,-0.10456219

>  <Name>
ligand

>  <RI>
0

>  <Rbt.Current_Directory>
/home/itssahil/PROJECTS/Mol_Feturizer/New_Systems/rnas/3DVV

>  <Rbt.Executable>
rbdock ($Id: //depot/dev/client3/rdock/2013.1/src/exe/rbdock.cxx#4 $)

>  <Rbt.Library>
libRbt.so (2013.1, Build901 2013/11/27)

>  <Rbt.Parameter_File>
/export/apps/rDock/src/rDock_2013.1_src/data/scripts/dock_solv.prm

>  <Rbt.Receptor>
prm/pocket_docking_6.prm

>  <SCORE>
-7.19287

>  <SCORE.INTER>
-3.01151

>  <SCORE.INTER.CONST>
1

>  <SCORE.INTER.POLAR>
0

>  <SCORE.INTER.ROT>
6

>  <SCORE.INTER.SOLV>
10.0431

>  <SCORE.INTER.VDW>
-12.9554

>  <SCORE.INTER.norm>
-0.0971454

>  <SCORE.INTRA>
-4.18136

>  <SCORE.INTRA.DIHEDRAL>
-8.96235

>  <SCORE.INTRA.DIHEDRAL.0>
10.8172

>  <SCORE.INTRA.POLAR>
0

>  <SCORE.INTRA.POLAR.0>
0

>  <SCORE.INTRA.REPUL>
0

>  <SCORE.INTRA.REPUL.0>
0

>  <SCORE.INTRA.SOLV>
-4.38804

>  <SCORE.INTRA.SOLV.lig_0>
-80.3833

>  <SCORE.INTRA.VDW>
2.49383

>  <SCORE.INTRA.VDW.0>
-4.63762

>  <SCORE.INTRA.norm>
-0.134883

>  <SCORE.RESTR>
0

>  <SCORE.RESTR.CAVITY>
0

>  <SCORE.RESTR.norm>
0

>  <SCORE.SYSTEM>
0

>  <SCORE.SYSTEM.CONST>
0

>  <SCORE.SYSTEM.DIHEDRAL>
0

>  <SCORE.SYSTEM.SOLV>
0

>  <SCORE.SYSTEM.norm>
0

>  <SCORE.heavy>
31

>  <SCORE.norm>
-0.232028

>  <RMSD>
7.410

$$$$
ligand
 OpenBabel11021811473D
libRbt.so/2013.1/901 2013/11/27
 31 33  0  0  0  0  0  0  0  0999 V2000
   13.6912    4.6685   11.5677 C   0  0  0  0  0  0  0  0  0  0  0  0
   11.2619   10.2823   17.2691 N   0  0  0  0  0  0  0  0  0  0  0  0
   13.2273    3.3575   11.2288 O   0  0  0  0  0  0  0  0  0  0  0  0
   14.4897    4.6246   12.8730 C   0  0  1  0  0  0  0  0  0  0  0  0
   16.0864   10.8961   17.7708 N   0  0  0  0  0  0  0  0  0  0  0  0
   15.0314    5.9269   13.1679 O   0  0  0  0  0  0  0  0  0  0  0  0
   14.6153    6.3074   14.4915 C   0  0  1  0  0  0  0  0  0  0  0  0
   17.2949   11.1785   13.3808 N   0  0  0  0  0  0  0  0  0  0  0  0
   14.4144    7.7256   14.5984 O   0  0  0  0  0  0  0  0  0  0  0  0
   14.1582    8.1738   15.9376 C   0  0  2  0  0  0  0  0  0  0  0  0
   18.0730    6.0272   17.1486 N   0  0  0  0  0  0  0  0  0  0  0  0
   11.7667    8.0551   15.6067 O   0  0  0  0  0  0  0  0  0  0  0  0
   12.8377    8.9524   15.9123 C   0  0  1  0  0  0  0  0  0  0  0  0
   16.5033    8.2851   16.6918 O   0  0  0  0  0  0  0  0  0  0  0  0
   12.5711    9.6118   17.2669 C   0  0  1  0  0  0  0  0  0  0  0  0
   17.4164    8.6019   14.5461 O   0  0  0  0  0  0  0  0  0  0  0  0
   13.6794   10.6239   17.5581 C   0  0  0  0  0  0  0  0  0  0  0  0
   20.5573    9.9926   15.8413 O   0  0  0  0  0  0  0  0  0  0  0  0
   15.0216    9.8905   17.6360 C   0  0  1  0  0  0  0  0  0  0  0  0
   20.6735    7.2562   16.7150 O   0  0  0  0  0  0  0  0  0  0  0  0
   15.3230    9.0495   16.3896 C   0  0  2  0  0  0  0  0  0  0  0  0
   12.8630    5.4790   16.0084 O   0  0  0  0  0  0  0  0  0  0  0  0
   17.1028    7.6314   15.5622 C   0  0  1  0  0  0  0  0  0  0  0  0
   14.2338    3.4451   15.0175 O   0  0  0  0  0  0  0  0  0  0  0  0
   18.3353    9.6234   14.9697 C   0  0  2  0  0  0  0  0  0  0  0  0
   18.5752   10.5941   13.8109 C   0  0  0  0  0  0  0  0  0  0  0  0
   19.6676    8.9814   15.3607 C   0  0  2  0  0  0  0  0  0  0  0  0
   19.4427    7.9413   16.4601 C   0  0  1  0  0  0  0  0  0  0  0  0
   18.3818    6.9264   16.0261 C   0  0  1  0  0  0  0  0  0  0  0  0
   13.2614    5.6170   14.6425 C   0  0  2  0  0  0  0  0  0  0  0  0
   13.5708    4.2501   14.0393 C   0  0  1  0  0  0  0  0  0  0  0  0
  1  3  1  0  0  0  0
  4  1  1  6  0  0  0
  4  6  1  0  0  0  0
  4 31  1  0  0  0  0
  6  7  1  0  0  0  0
  7  9  1  6  0  0  0
  7 30  1  0  0  0  0
  8 26  1  0  0  0  0
 10  9  1  6  0  0  0
 10 13  1  0  0  0  0
 10 21  1  0  0  0  0
 13 12  1  1  0  0  0
 13 15  1  0  0  0  0
 15  2  1  6  0  0  0
 15 17  1  0  0  0  0
 16 25  1  0  0  0  0
 16 23  1  0  0  0  0
 17 19  1  0  0  0  0
 19  5  1  6  0  0  0
 19 21  1  0  0  0  0
 21 14  1  1  0  0  0
 23 14  1  1  0  0  0
 23 29  1  0  0  0  0
 25 26  1  6  0  0  0
 25 27  1  0  0  0  0
 27 18  1  1  0  0  0
 27 28  1  0  0  0  0
 28 20  1  6  0  0  0
 28 29  1  0  0  0  0
 29 11  1  1  0  0  0
 30 22  1  1  0  0  0
 30 31  1  0  0  0  0
 31 24  1  1  0  0  0
M  END
>  <CHROM.1>
176.20757249,-172.78612184,-124.97534818,56.61798619,66.34402056,58.08478351
15.61902407,7.70105164,15.31413763,-2.44628807,0.08121520,0.56796094

>  <Name>
ligand

>  <RI>
0

>  <Rbt.Current_Directory>
/home/itssahil/PROJECTS/Mol_Feturizer/New_Systems/rnas/3DVV

>  <Rbt.Executable>
rbdock ($Id: //depot/dev/client3/rdock/2013.1/src/exe/rbdock.cxx#4 $)

>  <Rbt.Library>
libRbt.so (2013.1, Build901 2013/11/27)

>  <Rbt.Parameter_File>
/export/apps/rDock/src/rDock_2013.1_src/data/scripts/dock_solv.prm

>  <Rbt.Receptor>
prm/pocket_docking_8.prm

>  <SCORE>
-6.1848

>  <SCORE.INTER>
-4.79528

>  <SCORE.INTER.CONST>
1

>  <SCORE.INTER.POLAR>
0

>  <SCORE.INTER.ROT>
6

>  <SCORE.INTER.SOLV>
10.8993

>  <SCORE.INTER.VDW>
-14.43

>  <SCORE.INTER.norm>
-0.154686

>  <SCORE.INTRA>
-1.38952

>  <SCORE.INTRA.DIHEDRAL>
-2.91879

>  <SCORE.INTRA.DIHEDRAL.0>
10.8172

>  <SCORE.INTRA.POLAR>
0

>  <SCORE.INTRA.POLAR.0>
0

>  <SCORE.INTRA.REPUL>
0.00513754

>  <SCORE.INTRA.REPUL.0>
0

>  <SCORE.INTRA.SOLV>
-3.30317

>  <SCORE.INTRA.SOLV.lig_0>
-80.3833

>  <SCORE.INTRA.VDW>
1.69577

>  <SCORE.INTRA.VDW.0>
-4.63762

>  <SCORE.INTRA.norm>
-0.0448232

>  <SCORE.RESTR>
0

>  <SCORE.RESTR.CAVITY>
0

>  <SCORE.RESTR.norm>
0

>  <SCORE.SYSTEM>
0

>  <SCORE.SYSTEM.CONST>
0

>  <SCORE.SYSTEM.DIHEDRAL>
0

>  <SCORE.SYSTEM.SOLV>
0

>  <SCORE.SYSTEM.norm>
0

>  <SCORE.heavy>
31

>  <SCORE.norm>
-0.19951

>  <RMSD>
7.430

$$$$
ligand
 OpenBabel11021811473D
libRbt.so/2013.1/901 2013/11/27
 31 33  0  0  0  0  0  0  0  0999 V2000
   17.9677    8.8948   18.2420 C   0  0  0  0  0  0  0  0  0  0  0  0
   18.3829    3.9785   11.1456 N   0  0  0  0  0  0  0  0  0  0  0  0
   17.4634    7.8935   19.1319 O   0  0  0  0  0  0  0  0  0  0  0  0
   18.8682    8.2541   17.1828 C   0  0  1  0  0  0  0  0  0  0  0  0
   13.6981    4.8048   12.2738 N   0  0  0  0  0  0  0  0  0  0  0  0
   18.0952    7.3820   16.3353 O   0  0  0  0  0  0  0  0  0  0  0  0
   18.2966    7.7763   14.9664 C   0  0  1  0  0  0  0  0  0  0  0  0
   14.4163   10.1435   12.7642 N   0  0  0  0  0  0  0  0  0  0  0  0
   17.1187    7.5625   14.1728 O   0  0  0  0  0  0  0  0  0  0  0  0
   16.8651    6.1816   13.8750 C   0  0  2  0  0  0  0  0  0  0  0  0
   13.9767    5.6599   17.3703 N   0  0  0  0  0  0  0  0  0  0  0  0
   19.1393    5.8402   13.1307 O   0  0  0  0  0  0  0  0  0  0  0  0
   17.7752    5.7938   12.7037 C   0  0  1  0  0  0  0  0  0  0  0  0
   14.5339    6.1045   14.6754 O   0  0  0  0  0  0  0  0  0  0  0  0
   17.4502    4.3832   12.2084 C   0  0  1  0  0  0  0  0  0  0  0  0
   14.7905    8.4193   15.0131 O   0  0  0  0  0  0  0  0  0  0  0  0
   16.0140    4.3545   11.6851 C   0  0  0  0  0  0  0  0  0  0  0  0
   11.1757    9.0145   15.2476 O   0  0  0  0  0  0  0  0  0  0  0  0
   15.0553    4.6952   12.8298 C   0  0  1  0  0  0  0  0  0  0  0  0
   11.7138    7.4713   17.6127 O   0  0  0  0  0  0  0  0  0  0  0  0
   15.3894    6.0222   13.5220 C   0  0  2  0  0  0  0  0  0  0  0  0
   19.1954    9.8127   13.9161 O   0  0  0  0  0  0  0  0  0  0  0  0
   14.8980    7.1200   15.6235 C   0  0  1  0  0  0  0  0  0  0  0  0
   20.7998    9.0188   15.8637 O   0  0  0  0  0  0  0  0  0  0  0  0
   13.4704    8.7436   14.5448 C   0  0  2  0  0  0  0  0  0  0  0  0
   13.4916   10.1356   13.9089 C   0  0  0  0  0  0  0  0  0  0  0  0
   12.4981    8.7544   15.7257 C   0  0  2  0  0  0  0  0  0  0  0  0
   12.5224    7.3982   16.4338 C   0  0  1  0  0  0  0  0  0  0  0  0
   13.9546    7.0269   16.8275 C   0  0  1  0  0  0  0  0  0  0  0  0
   18.5405    9.2804   15.0700 C   0  0  2  0  0  0  0  0  0  0  0  0
   19.4688    9.3350   16.2795 C   0  0  1  0  0  0  0  0  0  0  0  0
  1  3  1  0  0  0  0
  4  1  1  1  0  0  0
  4  6  1  0  0  0  0
  4 31  1  0  0  0  0
  6  7  1  0  0  0  0
  7  9  1  6  0  0  0
  7 30  1  0  0  0  0
  8 26  1  0  0  0  0
 10  9  1  6  0  0  0
 10 13  1  0  0  0  0
 10 21  1  0  0  0  0
 13 12  1  1  0  0  0
 13 15  1  0  0  0  0
 15  2  1  6  0  0  0
 15 17  1  0  0  0  0
 16 25  1  0  0  0  0
 16 23  1  0  0  0  0
 17 19  1  0  0  0  0
 19  5  1  6  0  0  0
 19 21  1  0  0  0  0
 21 14  1  1  0  0  0
 23 14  1  6  0  0  0
 23 29  1  0  0  0  0
 25 26  1  1  0  0  0
 25 27  1  0  0  0  0
 27 18  1  6  0  0  0
 27 28  1  0  0  0  0
 28 20  1  1  0  0  0
 28 29  1  0  0  0  0
 29 11  1  6  0  0  0
 30 22  1  6  0  0  0
 30 31  1  0  0  0  0
 31 24  1  6  0  0  0
M  END
>  <CHROM.1>
65.49417766,-73.60037236,-80.34189276,63.12113121,41.01715381,60.89241245
16.04845795,7.35866768,14.87791115,-0.18180439,0.04807711,0.90083962

>  <Name>
ligand

>  <RI>
0

>  <Rbt.Current_Directory>
/home/itssahil/PROJECTS/Mol_Feturizer/New_Systems/rnas/3DVV

>  <Rbt.Executable>
rbdock ($Id: //depot/dev/client3/rdock/2013.1/src/exe/rbdock.cxx#4 $)

>  <Rbt.Library>
libRbt.so (2013.1, Build901 2013/11/27)

>  <Rbt.Parameter_File>
/export/apps/rDock/src/rDock_2013.1_src/data/scripts/dock_solv.prm

>  <Rbt.Receptor>
prm/pocket_docking_7.prm

>  <SCORE>
-3.54394

>  <SCORE.INTER>
-1.28504

>  <SCORE.INTER.CONST>
1

>  <SCORE.INTER.POLAR>
0

>  <SCORE.INTER.ROT>
6

>  <SCORE.INTER.SOLV>
9.80401

>  <SCORE.INTER.VDW>
-11.7247

>  <SCORE.INTER.norm>
-0.0414528

>  <SCORE.INTRA>
-2.25891

>  <SCORE.INTRA.DIHEDRAL>
-6.09666

>  <SCORE.INTRA.DIHEDRAL.0>
10.8172

>  <SCORE.INTRA.POLAR>
0

>  <SCORE.INTRA.POLAR.0>
0

>  <SCORE.INTRA.REPUL>
0.0128784

>  <SCORE.INTRA.REPUL.0>
0

>  <SCORE.INTRA.SOLV>
-4.32527

>  <SCORE.INTRA.SOLV.lig_0>
-80.3833

>  <SCORE.INTRA.VDW>
2.88766

>  <SCORE.INTRA.VDW.0>
-4.63762

>  <SCORE.INTRA.norm>
-0.072868

>  <SCORE.RESTR>
0

>  <SCORE.RESTR.CAVITY>
0

>  <SCORE.RESTR.norm>
0

>  <SCORE.SYSTEM>
0

>  <SCORE.SYSTEM.CONST>
0

>  <SCORE.SYSTEM.DIHEDRAL>
0

>  <SCORE.SYSTEM.SOLV>
0

>  <SCORE.SYSTEM.norm>
0

>  <SCORE.heavy>
31

>  <SCORE.norm>
-0.114321

>  <RMSD>
7.465

$$$$
ligand
 OpenBabel11021811473D
libRbt.so/2013.1/901 2013/11/27
 31 33  0  0  0  0  0  0  0  0999 V2000
   22.0160    3.5324   15.2256 C   0  0  0  0  0  0  0  0  0  0  0  0
   14.6857    4.4032   11.6278 N   0  0  0  0  0  0  0  0  0  0  0  0
   22.4032    2.9525   16.4756 O   0  0  0  0  0  0  0  0  0  0  0  0
   20.4935    3.4897   15.0733 C   0  0  1  0  0  0  0  0  0  0  0  0
   16.5509    0.0725   10.3355 N   0  0  0  0  0  0  0  0  0  0  0  0
   20.0918    4.2136   13.8939 O   0  0  0  0  0  0  0  0  0  0  0  0
   19.2929    3.3439   13.0721 C   0  0  1  0  0  0  0  0  0  0  0  0
   19.2485   -3.5205   11.0241 N   0  0  0  0  0  0  0  0  0  0  0  0
   19.4797    3.6141   11.6739 O   0  0  0  0  0  0  0  0  0  0  0  0
   18.3000    3.4088   10.8827 C   0  0  2  0  0  0  0  0  0  0  0  0
   21.2071    2.0209    8.1280 N   0  0  0  0  0  0  0  0  0  0  0  0
   17.3048    5.4593   11.6875 O   0  0  0  0  0  0  0  0  0  0  0  0
   17.1273    4.0410   11.6414 C   0  0  1  0  0  0  0  0  0  0  0  0
   19.0347    1.3503    9.7409 O   0  0  0  0  0  0  0  0  0  0  0  0
   15.7997    3.7219   10.9509 C   0  0  1  0  0  0  0  0  0  0  0  0
   20.3648   -0.0043   11.1316 O   0  0  0  0  0  0  0  0  0  0  0  0
   15.5774    2.2093   10.9674 C   0  0  0  0  0  0  0  0  0  0  0  0
   20.5052   -2.7522    8.7015 O   0  0  0  0  0  0  0  0  0  0  0  0
   16.7031    1.5276   10.1841 C   0  0  1  0  0  0  0  0  0  0  0  0
   22.0048   -0.6779    7.3927 O   0  0  0  0  0  0  0  0  0  0  0  0
   18.1022    1.9092   10.6826 C   0  0  2  0  0  0  0  0  0  0  0  0
   18.9601    0.9056   13.0290 O   0  0  0  0  0  0  0  0  0  0  0  0
   20.3582    1.1394   10.2573 C   0  0  1  0  0  0  0  0  0  0  0  0
   18.7588    1.7999   15.5105 O   0  0  0  0  0  0  0  0  0  0  0  0
   19.9658   -1.2324   10.4994 C   0  0  2  0  0  0  0  0  0  0  0  0
   20.0015   -2.3623   11.5312 C   0  0  0  0  0  0  0  0  0  0  0  0
   20.9410   -1.5647    9.3685 C   0  0  2  0  0  0  0  0  0  0  0  0
   20.9896   -0.4101    8.3658 C   0  0  1  0  0  0  0  0  0  0  0  0
   21.3115    0.9050    9.0806 C   0  0  1  0  0  0  0  0  0  0  0  0
   19.8621    1.9594   13.3749 C   0  0  2  0  0  0  0  0  0  0  0  0
   20.0235    2.0438   14.8898 C   0  0  1  0  0  0  0  0  0  0  0  0
  1  3  1  0  0  0  0
  4  1  1  6  0  0  0
  4  6  1  0  0  0  0
  4 31  1  0  0  0  0
  6  7  1  0  0  0  0
  7  9  1  6  0  0  0
  7 30  1  0  0  0  0
  8 26  1  0  0  0  0
 10  9  1  1  0  0  0
 10 13  1  0  0  0  0
 10 21  1  0  0  0  0
 13 12  1  6  0  0  0
 13 15  1  0  0  0  0
 15  2  1  1  0  0  0
 15 17  1  0  0  0  0
 16 25  1  0  0  0  0
 16 23  1  0  0  0  0
 17 19  1  0  0  0  0
 19  5  1  1  0  0  0
 19 21  1  0  0  0  0
 21 14  1  6  0  0  0
 23 14  1  6  0  0  0
 23 29  1  0  0  0  0
 25 26  1  1  0  0  0
 25 27  1  0  0  0  0
 27 18  1  6  0  0  0
 27 28  1  0  0  0  0
 28 20  1  6  0  0  0
 28 29  1  0  0  0  0
 29 11  1  6  0  0  0
 30 22  1  1  0  0  0
 30 31  1  0  0  0  0
 31 24  1  1  0  0  0
M  END
>  <CHROM.1>
173.16171684,-146.45549651,44.50261440,74.50556135,77.38829715,164.06780534
19.30226965,1.53277388,11.52214806,-1.83956601,0.59993098,-2.23055917

>  <Name>
ligand

>  <RI>
0

>  <Rbt.Current_Directory>
/home/itssahil/PROJECTS/Mol_Feturizer/New_Systems/rnas/3DVV

>  <Rbt.Executable>
rbdock ($Id: //depot/dev/client3/rdock/2013.1/src/exe/rbdock.cxx#4 $)

>  <Rbt.Library>
libRbt.so (2013.1, Build901 2013/11/27)

>  <Rbt.Parameter_File>
/export/apps/rDock/src/rDock_2013.1_src/data/scripts/dock_solv.prm

>  <Rbt.Receptor>
prm/blind_docking_80.prm

>  <SCORE>
-2.00676

>  <SCORE.INTER>
-4.36963

>  <SCORE.INTER.CONST>
1

>  <SCORE.INTER.POLAR>
0

>  <SCORE.INTER.ROT>
6

>  <SCORE.INTER.SOLV>
19.7542

>  <SCORE.INTER.VDW>
-17.0978

>  <SCORE.INTER.norm>
-0.140956

>  <SCORE.INTRA>
2.06186

>  <SCORE.INTRA.DIHEDRAL>
-1.97845

>  <SCORE.INTRA.DIHEDRAL.0>
10.8172

>  <SCORE.INTRA.POLAR>
0

>  <SCORE.INTRA.POLAR.0>
0

>  <SCORE.INTRA.REPUL>
0

>  <SCORE.INTRA.REPUL.0>
0

>  <SCORE.INTRA.SOLV>
-0.97061

>  <SCORE.INTRA.SOLV.lig_0>
-80.3833

>  <SCORE.INTRA.VDW>
3.53639

>  <SCORE.INTRA.VDW.0>
-4.63762

>  <SCORE.INTRA.norm>
0.0665116

>  <SCORE.RESTR>
0.301006

>  <SCORE.RESTR.CAVITY>
0.301006

>  <SCORE.RESTR.norm>
0.00970987

>  <SCORE.SYSTEM>
0

>  <SCORE.SYSTEM.CONST>
0

>  <SCORE.SYSTEM.DIHEDRAL>
0

>  <SCORE.SYSTEM.SOLV>
0

>  <SCORE.SYSTEM.norm>
0

>  <SCORE.heavy>
31

>  <SCORE.norm>
-0.0647342

>  <RMSD>
7.499

$$$$
ligand
 OpenBabel11021811473D
libRbt.so/2013.1/901 2013/11/27
 31 33  0  0  0  0  0  0  0  0999 V2000
   23.0811    6.9133   16.5057 C   0  0  0  0  0  0  0  0  0  0  0  0
   16.4340   11.2668   19.4515 N   0  0  0  0  0  0  0  0  0  0  0  0
   24.0170    7.2267   15.4690 O   0  0  0  0  0  0  0  0  0  0  0  0
   21.7328    6.5191   15.8976 C   0  0  1  0  0  0  0  0  0  0  0  0
   14.4380    6.8068   19.2835 N   0  0  0  0  0  0  0  0  0  0  0  0
   20.7837    6.2263   16.9417 O   0  0  0  0  0  0  0  0  0  0  0  0
   19.6145    7.0399   16.7396 C   0  0  1  0  0  0  0  0  0  0  0  0
   16.9526    4.1677   21.3903 N   0  0  0  0  0  0  0  0  0  0  0  0
   19.0051    7.4136   17.9854 O   0  0  0  0  0  0  0  0  0  0  0  0
   17.7298    8.0548   17.8357 C   0  0  2  0  0  0  0  0  0  0  0  0
   16.8396    4.6378   14.9892 N   0  0  0  0  0  0  0  0  0  0  0  0
   18.7073   10.2470   18.1208 O   0  0  0  0  0  0  0  0  0  0  0  0
   17.7608    9.3331   18.6816 C   0  0  1  0  0  0  0  0  0  0  0  0
   16.4058    6.0280   17.3661 O   0  0  0  0  0  0  0  0  0  0  0  0
   16.3816    9.9944   18.7156 C   0  0  1  0  0  0  0  0  0  0  0  0
   17.4960    4.3773   18.6408 O   0  0  0  0  0  0  0  0  0  0  0  0
   15.3866    9.0437   19.3816 C   0  0  0  0  0  0  0  0  0  0  0  0
   14.6566    2.0561   18.4784 O   0  0  0  0  0  0  0  0  0  0  0  0
   15.2846    7.7609   18.5512 C   0  0  1  0  0  0  0  0  0  0  0  0
   15.5572    2.1401   15.7495 O   0  0  0  0  0  0  0  0  0  0  0  0
   16.6425    7.0924   18.3042 C   0  0  2  0  0  0  0  0  0  0  0  0
   19.1763    9.0520   15.3915 O   0  0  0  0  0  0  0  0  0  0  0  0
   17.4147    5.0060   17.3483 C   0  0  1  0  0  0  0  0  0  0  0  0
   20.4437    7.2464   13.9316 O   0  0  0  0  0  0  0  0  0  0  0  0
   16.2759    3.7480   19.0684 C   0  0  2  0  0  0  0  0  0  0  0  0
   16.4878    3.1323   20.4535 C   0  0  0  0  0  0  0  0  0  0  0  0
   15.9029    2.6370   18.0853 C   0  0  2  0  0  0  0  0  0  0  0  0
   15.7700    3.2124   16.6738 C   0  0  1  0  0  0  0  0  0  0  0  0
   17.0425    3.9688   16.2835 C   0  0  1  0  0  0  0  0  0  0  0  0
   20.1760    8.2988   16.0820 C   0  0  2  0  0  0  0  0  0  0  0  0
   21.1591    7.6860   15.0889 C   0  0  1  0  0  0  0  0  0  0  0  0
  1  3  1  0  0  0  0
  4  1  1  1  0  0  0
  4  6  1  0  0  0  0
  4 31  1  0  0  0  0
  6  7  1  0  0  0  0
  7  9  1  1  0  0  0
  7 30  1  0  0  0  0
  8 26  1  0  0  0  0
 10  9  1  1  0  0  0
 10 13  1  0  0  0  0
 10 21  1  0  0  0  0
 13 12  1  6  0  0  0
 13 15  1  0  0  0  0
 15  2  1  1  0  0  0
 15 17  1  0  0  0  0
 16 25  1  0  0  0  0
 16 23  1  0  0  0  0
 17 19  1  0  0  0  0
 19  5  1  1  0  0  0
 19 21  1  0  0  0  0
 21 14  1  6  0  0  0
 23 14  1  1  0  0  0
 23 29  1  0  0  0  0
 25 26  1  1  0  0  0
 25 27  1  0  0  0  0
 27 18  1  1  0  0  0
 27 28  1  0  0  0  0
 28 20  1  6  0  0  0
 28 29  1  0  0  0  0
 29 11  1  6  0  0  0
 30 22  1  6  0  0  0
 30 31  1  0  0  0  0
 31 24  1  6  0  0  0
M  END
>  <CHROM.1>
-178.99147920,-171.22431157,-130.46452934,61.01646628,75.04532358,56.03570252
17.93212776,6.38720180,17.48478411,-0.51908155,-0.54961548,-2.90530588

>  <Name>
ligand

>  <RI>
0

>  <Rbt.Current_Directory>
/home/itssahil/PROJECTS/Mol_Feturizer/New_Systems/rnas/3DVV

>  <Rbt.Executable>
rbdock ($Id: //depot/dev/client3/rdock/2013.1/src/exe/rbdock.cxx#4 $)

>  <Rbt.Library>
libRbt.so (2013.1, Build901 2013/11/27)

>  <Rbt.Parameter_File>
/export/apps/rDock/src/rDock_2013.1_src/data/scripts/dock_solv.prm

>  <Rbt.Receptor>
prm/pocket_docking_6.prm

>  <SCORE>
-9.15702

>  <SCORE.INTER>
-7.8628

>  <SCORE.INTER.CONST>
1

>  <SCORE.INTER.POLAR>
0

>  <SCORE.INTER.ROT>
6

>  <SCORE.INTER.SOLV>
15.1064

>  <SCORE.INTER.VDW>
-17.8773

>  <SCORE.INTER.norm>
-0.253639

>  <SCORE.INTRA>
-1.29422

>  <SCORE.INTRA.DIHEDRAL>
-2.42156

>  <SCORE.INTRA.DIHEDRAL.0>
10.8172

>  <SCORE.INTRA.POLAR>
0

>  <SCORE.INTRA.POLAR.0>
0

>  <SCORE.INTRA.REPUL>
0

>  <SCORE.INTRA.REPUL.0>
0

>  <SCORE.INTRA.SOLV>
-2.50357

>  <SCORE.INTRA.SOLV.lig_0>
-80.3833

>  <SCORE.INTRA.VDW>
1.16834

>  <SCORE.INTRA.VDW.0>
-4.63762

>  <SCORE.INTRA.norm>
-0.0417492

>  <SCORE.RESTR>
0

>  <SCORE.RESTR.CAVITY>
0

>  <SCORE.RESTR.norm>
0

>  <SCORE.SYSTEM>
0

>  <SCORE.SYSTEM.CONST>
0

>  <SCORE.SYSTEM.DIHEDRAL>
0

>  <SCORE.SYSTEM.SOLV>
0

>  <SCORE.SYSTEM.norm>
0

>  <SCORE.heavy>
31

>  <SCORE.norm>
-0.295388

>  <RMSD>
7.505

$$$$
ligand
 OpenBabel11021811473D
libRbt.so/2013.1/901 2013/11/27
 31 33  0  0  0  0  0  0  0  0999 V2000
   14.9584    0.6929   11.9275 C   0  0  0  0  0  0  0  0  0  0  0  0
   19.8960    5.5832   16.0664 N   0  0  0  0  0  0  0  0  0  0  0  0
   15.4788   -0.0815   13.0130 O   0  0  0  0  0  0  0  0  0  0  0  0
   15.0325    2.1851   12.2609 C   0  0  1  0  0  0  0  0  0  0  0  0
   22.5965    2.2159   13.7702 N   0  0  0  0  0  0  0  0  0  0  0  0
   16.3208    2.5054   12.8212 O   0  0  0  0  0  0  0  0  0  0  0  0
   16.9029    3.5724   12.0514 C   0  0  1  0  0  0  0  0  0  0  0  0
   20.1778    0.8736    7.4654 N   0  0  0  0  0  0  0  0  0  0  0  0
   18.3333    3.4606   11.9846 O   0  0  0  0  0  0  0  0  0  0  0  0
   18.9509    3.1794   13.2493 C   0  0  2  0  0  0  0  0  0  0  0  0
   18.5246   -0.9818   12.9288 N   0  0  0  0  0  0  0  0  0  0  0  0
   17.7533    4.9814   14.3269 O   0  0  0  0  0  0  0  0  0  0  0  0
   19.0642    4.5079   14.0061 C   0  0  1  0  0  0  0  0  0  0  0  0
   20.2286    1.1909   12.5462 O   0  0  0  0  0  0  0  0  0  0  0  0
   19.8652    4.3297   15.2975 C   0  0  1  0  0  0  0  0  0  0  0  0
   19.6684    1.3492   10.2660 O   0  0  0  0  0  0  0  0  0  0  0  0
   21.2882    3.8934   14.9480 C   0  0  0  0  0  0  0  0  0  0  0  0
   21.7364   -1.5344    9.3255 O   0  0  0  0  0  0  0  0  0  0  0  0
   21.2366    2.5448   14.2240 C   0  0  1  0  0  0  0  0  0  0  0  0
   19.6601   -2.7387   10.9078 O   0  0  0  0  0  0  0  0  0  0  0  0
   20.3194    2.5544   12.9951 C   0  0  2  0  0  0  0  0  0  0  0  0
   16.4103    4.5072    9.8285 O   0  0  0  0  0  0  0  0  0  0  0  0
   19.2057    0.9460   11.5682 C   0  0  1  0  0  0  0  0  0  0  0  0
   14.1706    4.2364   11.2099 O   0  0  0  0  0  0  0  0  0  0  0  0
   20.8454    0.6558    9.8174 C   0  0  2  0  0  0  0  0  0  0  0  0
   21.2409    1.1812    8.4354 C   0  0  0  0  0  0  0  0  0  0  0  0
   20.5466   -0.8407    9.7105 C   0  0  2  0  0  0  0  0  0  0  0  0
   20.0644   -1.3741   11.0611 C   0  0  1  0  0  0  0  0  0  0  0  0
   18.8771   -0.5507   11.5674 C   0  0  1  0  0  0  0  0  0  0  0  0
   16.3363    3.3411   10.6521 C   0  0  2  0  0  0  0  0  0  0  0  0
   14.8828    3.0173   10.9843 C   0  0  1  0  0  0  0  0  0  0  0  0
  1  3  1  0  0  0  0
  4  1  1  6  0  0  0
  4  6  1  0  0  0  0
  4 31  1  0  0  0  0
  6  7  1  0  0  0  0
  7  9  1  6  0  0  0
  7 30  1  0  0  0  0
  8 26  1  0  0  0  0
 10  9  1  6  0  0  0
 10 13  1  0  0  0  0
 10 21  1  0  0  0  0
 13 12  1  1  0  0  0
 13 15  1  0  0  0  0
 15  2  1  6  0  0  0
 15 17  1  0  0  0  0
 16 25  1  0  0  0  0
 16 23  1  0  0  0  0
 17 19  1  0  0  0  0
 19  5  1  6  0  0  0
 19 21  1  0  0  0  0
 21 14  1  1  0  0  0
 23 14  1  1  0  0  0
 23 29  1  0  0  0  0
 25 26  1  6  0  0  0
 25 27  1  0  0  0  0
 27 18  1  1  0  0  0
 27 28  1  0  0  0  0
 28 20  1  6  0  0  0
 28 29  1  0  0  0  0
 29 11  1  1  0  0  0
 30 22  1  6  0  0  0
 30 31  1  0  0  0  0
 31 24  1  1  0  0  0
M  END
>  <CHROM.1>
45.42760690,-45.89996922,-81.01631716,80.17868093,42.68895641,-63.62013426
18.69432228,1.90763064,11.95474175,2.12359700,-0.26756301,0.76483389

>  <Name>
ligand

>  <RI>
0

>  <Rbt.Current_Directory>
/home/itssahil/PROJECTS/Mol_Feturizer/New_Systems/rnas/3DVV

>  <Rbt.Executable>
rbdock ($Id: //depot/dev/client3/rdock/2013.1/src/exe/rbdock.cxx#4 $)

>  <Rbt.Library>
libRbt.so (2013.1, Build901 2013/11/27)

>  <Rbt.Parameter_File>
/export/apps/rDock/src/rDock_2013.1_src/data/scripts/dock_solv.prm

>  <Rbt.Receptor>
prm/blind_docking_40.prm

>  <SCORE>
1.44778

>  <SCORE.INTER>
0.185044

>  <SCORE.INTER.CONST>
1

>  <SCORE.INTER.POLAR>
0

>  <SCORE.INTER.ROT>
6

>  <SCORE.INTER.SOLV>
23.4169

>  <SCORE.INTER.VDW>
-15.2823

>  <SCORE.INTER.norm>
0.00596917

>  <SCORE.INTRA>
0.209282

>  <SCORE.INTRA.DIHEDRAL>
-3.7437

>  <SCORE.INTRA.DIHEDRAL.0>
10.8172

>  <SCORE.INTRA.POLAR>
0

>  <SCORE.INTRA.POLAR.0>
0

>  <SCORE.INTRA.REPUL>
0

>  <SCORE.INTRA.REPUL.0>
0

>  <SCORE.INTRA.SOLV>
-1.52785

>  <SCORE.INTRA.SOLV.lig_0>
-80.3833

>  <SCORE.INTRA.VDW>
2.84506

>  <SCORE.INTRA.VDW.0>
-4.63762

>  <SCORE.INTRA.norm>
0.00675104

>  <SCORE.RESTR>
1.05346

>  <SCORE.RESTR.CAVITY>
1.05346

>  <SCORE.RESTR.norm>
0.0339825

>  <SCORE.SYSTEM>
0

>  <SCORE.SYSTEM.CONST>
0

>  <SCORE.SYSTEM.DIHEDRAL>
0

>  <SCORE.SYSTEM.SOLV>
0

>  <SCORE.SYSTEM.norm>
0

>  <SCORE.heavy>
31

>  <SCORE.norm>
0.0467027

>  <RMSD>
7.516

$$$$
ligand
 OpenBabel11021811473D
libRbt.so/2013.1/901 2013/11/27
 31 33  0  0  0  0  0  0  0  0999 V2000
   24.4124    7.3592   15.8176 C   0  0  0  0  0  0  0  0  0  0  0  0
   17.9881    9.9613   10.9785 N   0  0  0  0  0  0  0  0  0  0  0  0
   24.2420    7.9476   14.5240 O   0  0  0  0  0  0  0  0  0  0  0  0
   23.0513    6.9899   16.4127 C   0  0  1  0  0  0  0  0  0  0  0  0
   15.7526    9.9854   15.3265 N   0  0  0  0  0  0  0  0  0  0  0  0
   22.1885    8.1438   16.4331 O   0  0  0  0  0  0  0  0  0  0  0  0
   20.9662    7.8145   15.7496 C   0  0  1  0  0  0  0  0  0  0  0  0
   16.1323   12.1454   17.9499 N   0  0  0  0  0  0  0  0  0  0  0  0
   20.4186    8.9507   15.0625 O   0  0  0  0  0  0  0  0  0  0  0  0
   19.1940    8.6713   14.3679 C   0  0  2  0  0  0  0  0  0  0  0  0
   18.7042    6.1483   17.9188 N   0  0  0  0  0  0  0  0  0  0  0  0
   20.2768    8.8607   12.2152 O   0  0  0  0  0  0  0  0  0  0  0  0
   19.2464    9.4225   13.0325 C   0  0  1  0  0  0  0  0  0  0  0  0
   17.7871    8.2634   16.3516 O   0  0  0  0  0  0  0  0  0  0  0  0
   17.9081    9.3176   12.2985 C   0  0  1  0  0  0  0  0  0  0  0  0
   18.1078    9.8154   18.0913 O   0  0  0  0  0  0  0  0  0  0  0  0
   16.8207    9.9836   13.1420 C   0  0  0  0  0  0  0  0  0  0  0  0
   15.1076    8.7368   19.9111 O   0  0  0  0  0  0  0  0  0  0  0  0
   16.6965    9.2434   14.4770 C   0  0  1  0  0  0  0  0  0  0  0  0
   16.8299    6.4448   20.1234 O   0  0  0  0  0  0  0  0  0  0  0  0
   18.0262    9.1355   15.2331 C   0  0  2  0  0  0  0  0  0  0  0  0
   20.3335    5.9988   14.2130 O   0  0  0  0  0  0  0  0  0  0  0  0
   18.5537    8.5682   17.5273 C   0  0  1  0  0  0  0  0  0  0  0  0
   21.6011    5.0043   16.3111 O   0  0  0  0  0  0  0  0  0  0  0  0
   16.7248    9.8241   18.4844 C   0  0  2  0  0  0  0  0  0  0  0  0
   16.3735   11.2011   19.0526 C   0  0  0  0  0  0  0  0  0  0  0  0
   16.4955    8.7690   19.5681 C   0  0  2  0  0  0  0  0  0  0  0  0
   16.9218    7.3923   19.0543 C   0  0  1  0  0  0  0  0  0  0  0  0
   18.3641    7.4363   18.5427 C   0  0  1  0  0  0  0  0  0  0  0  0
   21.4150    6.7923   14.7073 C   0  0  2  0  0  0  0  0  0  0  0  0
   22.3642    5.9357   15.5400 C   0  0  1  0  0  0  0  0  0  0  0  0
  1  3  1  0  0  0  0
  4  1  1  6  0  0  0
  4  6  1  0  0  0  0
  4 31  1  0  0  0  0
  6  7  1  0  0  0  0
  7  9  1  6  0  0  0
  7 30  1  0  0  0  0
  8 26  1  0  0  0  0
 10  9  1  1  0  0  0
 10 13  1  0  0  0  0
 10 21  1  0  0  0  0
 13 12  1  6  0  0  0
 13 15  1  0  0  0  0
 15  2  1  6  0  0  0
 15 17  1  0  0  0  0
 16 25  1  0  0  0  0
 16 23  1  0  0  0  0
 17 19  1  0  0  0  0
 19  5  1  1  0  0  0
 19 21  1  0  0  0  0
 21 14  1  1  0  0  0
 23 14  1  6  0  0  0
 23 29  1  0  0  0  0
 25 26  1  1  0  0  0
 25 27  1  0  0  0  0
 27 18  1  6  0  0  0
 27 28  1  0  0  0  0
 28 20  1  1  0  0  0
 28 29  1  0  0  0  0
 29 11  1  6  0  0  0
 30 22  1  1  0  0  0
 30 31  1  0  0  0  0
 31 24  1  1  0  0  0
M  END
>  <CHROM.1>
-54.91409471,-179.81365128,-140.22024132,68.62226432,87.22311408,80.05203154
19.03153082,8.37452573,16.08930406,-0.45606098,-0.49016122,1.89492805

>  <Name>
ligand

>  <RI>
0

>  <Rbt.Current_Directory>
/home/itssahil/PROJECTS/Mol_Feturizer/New_Systems/rnas/3DVV

>  <Rbt.Executable>
rbdock ($Id: //depot/dev/client3/rdock/2013.1/src/exe/rbdock.cxx#4 $)

>  <Rbt.Library>
libRbt.so (2013.1, Build901 2013/11/27)

>  <Rbt.Parameter_File>
/export/apps/rDock/src/rDock_2013.1_src/data/scripts/dock_solv.prm

>  <Rbt.Receptor>
prm/pocket_docking_8.prm

>  <SCORE>
-10.9038

>  <SCORE.INTER>
-11.763

>  <SCORE.INTER.CONST>
1

>  <SCORE.INTER.POLAR>
0

>  <SCORE.INTER.ROT>
6

>  <SCORE.INTER.SOLV>
17.2053

>  <SCORE.INTER.VDW>
-21.1771

>  <SCORE.INTER.norm>
-0.379452

>  <SCORE.INTRA>
0.693649

>  <SCORE.INTRA.DIHEDRAL>
-0.401831

>  <SCORE.INTRA.DIHEDRAL.0>
10.8172

>  <SCORE.INTRA.POLAR>
0

>  <SCORE.INTRA.POLAR.0>
0

>  <SCORE.INTRA.REPUL>
0

>  <SCORE.INTRA.REPUL.0>
0

>  <SCORE.INTRA.SOLV>
0.67065

>  <SCORE.INTRA.SOLV.lig_0>
-80.3833

>  <SCORE.INTRA.VDW>
0.559239

>  <SCORE.INTRA.VDW.0>
-4.63762

>  <SCORE.INTRA.norm>
0.0223758

>  <SCORE.RESTR>
0.165526

>  <SCORE.RESTR.CAVITY>
0.165526

>  <SCORE.RESTR.norm>
0.00533954

>  <SCORE.SYSTEM>
0

>  <SCORE.SYSTEM.CONST>
0

>  <SCORE.SYSTEM.DIHEDRAL>
0

>  <SCORE.SYSTEM.SOLV>
0

>  <SCORE.SYSTEM.norm>
0

>  <SCORE.heavy>
31

>  <SCORE.norm>
-0.351737

>  <RMSD>
7.518

$$$$
ligand
 OpenBabel11021811473D
libRbt.so/2013.1/901 2013/11/27
 31 33  0  0  0  0  0  0  0  0999 V2000
   18.0576   12.2906   13.1046 C   0  0  0  0  0  0  0  0  0  0  0  0
   22.5413    5.5206   16.0881 N   0  0  0  0  0  0  0  0  0  0  0  0
   16.8791   11.4812   13.1744 O   0  0  0  0  0  0  0  0  0  0  0  0
   19.3046   11.4039   13.0588 C   0  0  1  0  0  0  0  0  0  0  0  0
   18.4216    5.7187   18.7133 N   0  0  0  0  0  0  0  0  0  0  0  0
   19.3578   10.5610   14.2264 O   0  0  0  0  0  0  0  0  0  0  0  0
   19.4745    9.1923   13.7987 C   0  0  1  0  0  0  0  0  0  0  0  0
   15.3195    5.5142   15.0666 N   0  0  0  0  0  0  0  0  0  0  0  0
   18.8031    8.2955   14.6975 O   0  0  0  0  0  0  0  0  0  0  0  0
   19.5864    7.9322   15.8440 C   0  0  2  0  0  0  0  0  0  0  0  0
   16.9965   10.7818   18.3832 N   0  0  0  0  0  0  0  0  0  0  0  0
   21.5728    7.6443   14.4972 O   0  0  0  0  0  0  0  0  0  0  0  0
   20.6682    6.9568   15.3659 C   0  0  1  0  0  0  0  0  0  0  0  0
   17.8320    8.2576   17.5462 O   0  0  0  0  0  0  0  0  0  0  0  0
   21.4463    6.3856   16.5530 C   0  0  1  0  0  0  0  0  0  0  0  0
   16.1270    8.1255   15.9296 O   0  0  0  0  0  0  0  0  0  0  0  0
   20.4904    5.5898   17.4421 C   0  0  0  0  0  0  0  0  0  0  0  0
   13.5230    7.3849   18.4089 O   0  0  0  0  0  0  0  0  0  0  0  0
   19.4084    6.5289   17.9832 C   0  0  1  0  0  0  0  0  0  0  0  0
   14.2508   10.0911   19.0504 O   0  0  0  0  0  0  0  0  0  0  0  0
   18.6665    7.2937   16.8803 C   0  0  2  0  0  0  0  0  0  0  0  0
   19.0871    8.0623   11.6468 O   0  0  0  0  0  0  0  0  0  0  0  0
   16.9765    9.0157   16.6767 C   0  0  1  0  0  0  0  0  0  0  0  0
   20.5364   10.2434   11.2723 O   0  0  0  0  0  0  0  0  0  0  0  0
   15.2701    7.3063   16.7432 C   0  0  2  0  0  0  0  0  0  0  0  0
   14.4328    6.4011   15.8365 C   0  0  0  0  0  0  0  0  0  0  0  0
   14.3297    8.1997   17.5543 C   0  0  2  0  0  0  0  0  0  0  0  0
   15.1434    9.1758   18.4064 C   0  0  1  0  0  0  0  0  0  0  0  0
   16.1238    9.9604   17.5304 C   0  0  1  0  0  0  0  0  0  0  0  0
   18.7326    9.1805   12.4638 C   0  0  2  0  0  0  0  0  0  0  0  0
   19.2458   10.4759   11.8422 C   0  0  1  0  0  0  0  0  0  0  0  0
  1  3  1  0  0  0  0
  4  1  1  1  0  0  0
  4  6  1  0  0  0  0
  4 31  1  0  0  0  0
  6  7  1  0  0  0  0
  7  9  1  1  0  0  0
  7 30  1  0  0  0  0
  8 26  1  0  0  0  0
 10  9  1  6  0  0  0
 10 13  1  0  0  0  0
 10 21  1  0  0  0  0
 13 12  1  6  0  0  0
 13 15  1  0  0  0  0
 15  2  1  6  0  0  0
 15 17  1  0  0  0  0
 16 25  1  0  0  0  0
 16 23  1  0  0  0  0
 17 19  1  0  0  0  0
 19  5  1  6  0  0  0
 19 21  1  0  0  0  0
 21 14  1  1  0  0  0
 23 14  1  1  0  0  0
 23 29  1  0  0  0  0
 25 26  1  6  0  0  0
 25 27  1  0  0  0  0
 27 18  1  1  0  0  0
 27 28  1  0  0  0  0
 28 20  1  6  0  0  0
 28 29  1  0  0  0  0
 29 11  1  1  0  0  0
 30 22  1  6  0  0  0
 30 31  1  0  0  0  0
 31 24  1  1  0  0  0
M  END
>  <CHROM.1>
-58.63560128,-83.14422283,-73.55949770,57.84615162,58.84701926,61.67172105
18.00469961,8.44278631,15.63920237,0.69912990,0.45054215,-0.82966831

>  <Name>
ligand

>  <RI>
0

>  <Rbt.Current_Directory>
/home/itssahil/PROJECTS/Mol_Feturizer/New_Systems/rnas/3DVV

>  <Rbt.Executable>
rbdock ($Id: //depot/dev/client3/rdock/2013.1/src/exe/rbdock.cxx#4 $)

>  <Rbt.Library>
libRbt.so (2013.1, Build901 2013/11/27)

>  <Rbt.Parameter_File>
/export/apps/rDock/src/rDock_2013.1_src/data/scripts/dock_solv.prm

>  <Rbt.Receptor>
prm/pocket_docking_7.prm

>  <SCORE>
-6.88479

>  <SCORE.INTER>
-3.75197

>  <SCORE.INTER.CONST>
1

>  <SCORE.INTER.POLAR>
0

>  <SCORE.INTER.ROT>
6

>  <SCORE.INTER.SOLV>
13.6792

>  <SCORE.INTER.VDW>
-14.6611

>  <SCORE.INTER.norm>
-0.121031

>  <SCORE.INTRA>
-3.13282

>  <SCORE.INTRA.DIHEDRAL>
-7.39483

>  <SCORE.INTRA.DIHEDRAL.0>
10.8172

>  <SCORE.INTRA.POLAR>
0

>  <SCORE.INTRA.POLAR.0>
0

>  <SCORE.INTRA.REPUL>
0

>  <SCORE.INTRA.REPUL.0>
0

>  <SCORE.INTRA.SOLV>
-3.79734

>  <SCORE.INTRA.SOLV.lig_0>
-80.3833

>  <SCORE.INTRA.VDW>
2.46327

>  <SCORE.INTRA.VDW.0>
-4.63762

>  <SCORE.INTRA.norm>
-0.101059

>  <SCORE.RESTR>
0

>  <SCORE.RESTR.CAVITY>
0

>  <SCORE.RESTR.norm>
0

>  <SCORE.SYSTEM>
0

>  <SCORE.SYSTEM.CONST>
0

>  <SCORE.SYSTEM.DIHEDRAL>
0

>  <SCORE.SYSTEM.SOLV>
0

>  <SCORE.SYSTEM.norm>
0

>  <SCORE.heavy>
31

>  <SCORE.norm>
-0.22209

>  <RMSD>
7.533

$$$$
ligand
 OpenBabel11021811473D
libRbt.so/2013.1/901 2013/11/27
 31 33  0  0  0  0  0  0  0  0999 V2000
   15.2519    2.0809   17.7177 C   0  0  0  0  0  0  0  0  0  0  0  0
   12.6651   10.1893   17.8664 N   0  0  0  0  0  0  0  0  0  0  0  0
   16.5420    2.5749   17.3429 O   0  0  0  0  0  0  0  0  0  0  0  0
   14.5152    3.1202   18.5664 C   0  0  1  0  0  0  0  0  0  0  0  0
   13.8001    8.8521   13.3027 N   0  0  0  0  0  0  0  0  0  0  0  0
   14.4502    4.3777   17.8659 O   0  0  0  0  0  0  0  0  0  0  0  0
   13.0739    4.7900   17.7907 C   0  0  1  0  0  0  0  0  0  0  0  0
   18.0686    8.3830   12.4375 N   0  0  0  0  0  0  0  0  0  0  0  0
   12.7993    5.5068   16.5767 O   0  0  0  0  0  0  0  0  0  0  0  0
   13.5218    6.7412   16.4580 C   0  0  2  0  0  0  0  0  0  0  0  0
   13.1952    4.2268   13.0055 N   0  0  0  0  0  0  0  0  0  0  0  0
   12.7868    7.4755   18.6405 O   0  0  0  0  0  0  0  0  0  0  0  0
   12.7455    7.8010   17.2485 C   0  0  1  0  0  0  0  0  0  0  0  0
   14.5803    6.2841   14.2782 O   0  0  0  0  0  0  0  0  0  0  0  0
   13.3543    9.1887   17.0375 C   0  0  1  0  0  0  0  0  0  0  0  0
   15.6408    6.9334   12.2803 O   0  0  0  0  0  0  0  0  0  0  0  0
   13.2433    9.5650   15.5599 C   0  0  0  0  0  0  0  0  0  0  0  0
   18.0098    4.1303   12.3617 O   0  0  0  0  0  0  0  0  0  0  0  0
   14.0392    8.5584   14.7239 C   0  0  1  0  0  0  0  0  0  0  0  0
   15.4930    2.8140   11.9170 O   0  0  0  0  0  0  0  0  0  0  0  0
   13.6286    7.1032   14.9797 C   0  0  2  0  0  0  0  0  0  0  0  0
   10.9415    3.6052   18.1178 O   0  0  0  0  0  0  0  0  0  0  0  0
   14.4673    6.3216   12.8469 C   0  0  1  0  0  0  0  0  0  0  0  0
   12.5963    3.0497   20.1055 O   0  0  0  0  0  0  0  0  0  0  0  0
   16.8678    6.2470   12.5814 C   0  0  2  0  0  0  0  0  0  0  0  0
   18.0346    6.9994   11.9373 C   0  0  0  0  0  0  0  0  0  0  0  0
   16.8149    4.8307   12.0058 C   0  0  2  0  0  0  0  0  0  0  0  0
   15.6040    4.0838   12.5687 C   0  0  1  0  0  0  0  0  0  0  0  0
   14.3226    4.8866   12.3292 C   0  0  1  0  0  0  0  0  0  0  0  0
   12.3156    3.4650   17.7492 C   0  0  2  0  0  0  0  0  0  0  0  0
   13.0715    2.6718   18.8110 C   0  0  1  0  0  0  0  0  0  0  0  0
  1  3  1  0  0  0  0
  4  1  1  6  0  0  0
  4  6  1  0  0  0  0
  4 31  1  0  0  0  0
  6  7  1  0  0  0  0
  7  9  1  6  0  0  0
  7 30  1  0  0  0  0
  8 26  1  0  0  0  0
 10  9  1  6  0  0  0
 10 13  1  0  0  0  0
 10 21  1  0  0  0  0
 13 12  1  1  0  0  0
 13 15  1  0  0  0  0
 15  2  1  1  0  0  0
 15 17  1  0  0  0  0
 16 25  1  0  0  0  0
 16 23  1  0  0  0  0
 17 19  1  0  0  0  0
 19  5  1  6  0  0  0
 19 21  1  0  0  0  0
 21 14  1  1  0  0  0
 23 14  1  1  0  0  0
 23 29  1  0  0  0  0
 25 26  1  6  0  0  0
 25 27  1  0  0  0  0
 27 18  1  1  0  0  0
 27 28  1  0  0  0  0
 28 20  1  6  0  0  0
 28 29  1  0  0  0  0
 29 11  1  1  0  0  0
 30 22  1  1  0  0  0
 30 31  1  0  0  0  0
 31 24  1  1  0  0  0
M  END
>  <CHROM.1>
54.90728929,-63.46462571,-82.52975648,113.97916813,163.87859068,58.23627514
14.40804675,5.65867595,15.41217761,-2.58770845,0.98026743,-0.38452154

>  <Name>
ligand

>  <RI>
0

>  <Rbt.Current_Directory>
/home/itssahil/PROJECTS/Mol_Feturizer/New_Systems/rnas/3DVV

>  <Rbt.Executable>
rbdock ($Id: //depot/dev/client3/rdock/2013.1/src/exe/rbdock.cxx#4 $)

>  <Rbt.Library>
libRbt.so (2013.1, Build901 2013/11/27)

>  <Rbt.Parameter_File>
/export/apps/rDock/src/rDock_2013.1_src/data/scripts/dock_solv.prm

>  <Rbt.Receptor>
prm/pocket_docking_8.prm

>  <SCORE>
-0.781156

>  <SCORE.INTER>
-2.92971

>  <SCORE.INTER.CONST>
1

>  <SCORE.INTER.POLAR>
0

>  <SCORE.INTER.ROT>
6

>  <SCORE.INTER.SOLV>
9.75915

>  <SCORE.INTER.VDW>
-12.8062

>  <SCORE.INTER.norm>
-0.0945068

>  <SCORE.INTRA>
2.14856

>  <SCORE.INTRA.DIHEDRAL>
0.0364607

>  <SCORE.INTRA.DIHEDRAL.0>
10.8172

>  <SCORE.INTRA.POLAR>
0

>  <SCORE.INTRA.POLAR.0>
0

>  <SCORE.INTRA.REPUL>
0.028808

>  <SCORE.INTRA.REPUL.0>
0

>  <SCORE.INTRA.SOLV>
-2.18373

>  <SCORE.INTRA.SOLV.lig_0>
-80.3833

>  <SCORE.INTRA.VDW>
3.07815

>  <SCORE.INTRA.VDW.0>
-4.63762

>  <SCORE.INTRA.norm>
0.0693082

>  <SCORE.RESTR>
0

>  <SCORE.RESTR.CAVITY>
0

>  <SCORE.RESTR.norm>
0

>  <SCORE.SYSTEM>
0

>  <SCORE.SYSTEM.CONST>
0

>  <SCORE.SYSTEM.DIHEDRAL>
0

>  <SCORE.SYSTEM.SOLV>
0

>  <SCORE.SYSTEM.norm>
0

>  <SCORE.heavy>
31

>  <SCORE.norm>
-0.0251986

>  <RMSD>
7.543

$$$$
ligand
 OpenBabel11021811473D
libRbt.so/2013.1/901 2013/11/27
 31 33  0  0  0  0  0  0  0  0999 V2000
   19.8602    0.7179   14.0140 C   0  0  0  0  0  0  0  0  0  0  0  0
   19.5444    8.6434   16.5961 N   0  0  0  0  0  0  0  0  0  0  0  0
   19.8909    0.0917   12.7272 O   0  0  0  0  0  0  0  0  0  0  0  0
   18.4413    1.1937   14.3355 C   0  0  1  0  0  0  0  0  0  0  0  0
   16.2560    6.8339   19.7291 N   0  0  0  0  0  0  0  0  0  0  0  0
   18.3883    1.7310   15.6715 O   0  0  0  0  0  0  0  0  0  0  0  0
   17.8493    3.0635   15.6087 C   0  0  1  0  0  0  0  0  0  0  0  0
   17.2643    3.4738   22.0426 N   0  0  0  0  0  0  0  0  0  0  0  0
   18.4214    3.9162   16.6129 O   0  0  0  0  0  0  0  0  0  0  0  0
   17.8354    5.2255   16.6618 C   0  0  2  0  0  0  0  0  0  0  0  0
   14.1552    3.0476   16.3936 N   0  0  0  0  0  0  0  0  0  0  0  0
   19.5839    6.1488   15.2715 O   0  0  0  0  0  0  0  0  0  0  0  0
   18.9803    6.2406   16.5648 C   0  0  1  0  0  0  0  0  0  0  0  0
   15.8285    4.6293   17.9648 O   0  0  0  0  0  0  0  0  0  0  0  0
   18.4622    7.6642   16.7788 C   0  0  1  0  0  0  0  0  0  0  0  0
   16.3918    2.8168   19.3561 O   0  0  0  0  0  0  0  0  0  0  0  0
   17.8827    7.7797   18.1889 C   0  0  0  0  0  0  0  0  0  0  0  0
   13.1923    2.9102   21.1537 O   0  0  0  0  0  0  0  0  0  0  0  0
   16.7033    6.8126   18.3281 C   0  0  1  0  0  0  0  0  0  0  0  0
   12.4061    2.0922   18.5122 O   0  0  0  0  0  0  0  0  0  0  0  0
   17.0641    5.3656   17.9708 C   0  0  2  0  0  0  0  0  0  0  0  0
   17.5351    4.6671   13.7682 O   0  0  0  0  0  0  0  0  0  0  0  0
   15.9778    3.2024   18.0324 C   0  0  1  0  0  0  0  0  0  0  0  0
   16.6488    2.2813   13.0471 O   0  0  0  0  0  0  0  0  0  0  0  0
   15.4683    3.1866   20.3942 C   0  0  2  0  0  0  0  0  0  0  0  0
   16.0263    2.7354   21.7461 C   0  0  0  0  0  0  0  0  0  0  0  0
   14.1270    2.4907   20.1559 C   0  0  2  0  0  0  0  0  0  0  0  0
   13.5879    2.8572   18.7716 C   0  0  1  0  0  0  0  0  0  0  0  0
   14.6319    2.5526   17.6941 C   0  0  1  0  0  0  0  0  0  0  0  0
   18.3069    3.5596   14.2386 C   0  0  2  0  0  0  0  0  0  0  0  0
   18.0375    2.3242   13.3847 C   0  0  1  0  0  0  0  0  0  0  0  0
  1  3  1  0  0  0  0
  4  1  1  6  0  0  0
  4  6  1  0  0  0  0
  4 31  1  0  0  0  0
  6  7  1  0  0  0  0
  7  9  1  1  0  0  0
  7 30  1  0  0  0  0
  8 26  1  0  0  0  0
 10  9  1  1  0  0  0
 10 13  1  0  0  0  0
 10 21  1  0  0  0  0
 13 12  1  6  0  0  0
 13 15  1  0  0  0  0
 15  2  1  1  0  0  0
 15 17  1  0  0  0  0
 16 25  1  0  0  0  0
 16 23  1  0  0  0  0
 17 19  1  0  0  0  0
 19  5  1  1  0  0  0
 19 21  1  0  0  0  0
 21 14  1  6  0  0  0
 23 14  1  1  0  0  0
 23 29  1  0  0  0  0
 25 26  1  1  0  0  0
 25 27  1  0  0  0  0
 27 18  1  1  0  0  0
 27 28  1  0  0  0  0
 28 20  1  6  0  0  0
 28 29  1  0  0  0  0
 29 11  1  6  0  0  0
 30 22  1  6  0  0  0
 30 31  1  0  0  0  0
 31 24  1  1  0  0  0
M  END
>  <CHROM.1>
175.59923936,-175.14220346,-127.05434579,72.56538073,71.62926756,64.98174796
16.92645224,3.84200639,17.12129079,0.60451062,-0.84947750,-2.50421233

>  <Name>
ligand

>  <RI>
0

>  <Rbt.Current_Directory>
/home/itssahil/PROJECTS/Mol_Feturizer/New_Systems/rnas/3DVV

>  <Rbt.Executable>
rbdock ($Id: //depot/dev/client3/rdock/2013.1/src/exe/rbdock.cxx#4 $)

>  <Rbt.Library>
libRbt.so (2013.1, Build901 2013/11/27)

>  <Rbt.Parameter_File>
/export/apps/rDock/src/rDock_2013.1_src/data/scripts/dock_solv.prm

>  <Rbt.Receptor>
prm/pocket_docking_4.prm

>  <SCORE>
-2.5204

>  <SCORE.INTER>
-1.42749

>  <SCORE.INTER.CONST>
1

>  <SCORE.INTER.POLAR>
0

>  <SCORE.INTER.ROT>
6

>  <SCORE.INTER.SOLV>
11.4753

>  <SCORE.INTER.VDW>
-12.3768

>  <SCORE.INTER.norm>
-0.0460481

>  <SCORE.INTRA>
-1.0929

>  <SCORE.INTRA.DIHEDRAL>
-1.94401

>  <SCORE.INTRA.DIHEDRAL.0>
10.8172

>  <SCORE.INTRA.POLAR>
0

>  <SCORE.INTRA.POLAR.0>
0

>  <SCORE.INTRA.REPUL>
0

>  <SCORE.INTRA.REPUL.0>
0

>  <SCORE.INTRA.SOLV>
-2.64899

>  <SCORE.INTRA.SOLV.lig_0>
-80.3833

>  <SCORE.INTRA.VDW>
1.2036

>  <SCORE.INTRA.VDW.0>
-4.63762

>  <SCORE.INTRA.norm>
-0.0352549

>  <SCORE.RESTR>
0

>  <SCORE.RESTR.CAVITY>
0

>  <SCORE.RESTR.norm>
0

>  <SCORE.SYSTEM>
0

>  <SCORE.SYSTEM.CONST>
0

>  <SCORE.SYSTEM.DIHEDRAL>
0

>  <SCORE.SYSTEM.SOLV>
0

>  <SCORE.SYSTEM.norm>
0

>  <SCORE.heavy>
31

>  <SCORE.norm>
-0.0813031

>  <RMSD>
7.545

$$$$
ligand
 OpenBabel11021811473D
libRbt.so/2013.1/901 2013/11/27
 31 33  0  0  0  0  0  0  0  0999 V2000
   19.3694    8.6046    9.6041 C   0  0  0  0  0  0  0  0  0  0  0  0
   20.6278    3.6273   16.5929 N   0  0  0  0  0  0  0  0  0  0  0  0
   18.4723    8.0916    8.6138 O   0  0  0  0  0  0  0  0  0  0  0  0
   18.8657    8.2515   11.0058 C   0  0  1  0  0  0  0  0  0  0  0  0
   20.1922    0.3201   13.0186 N   0  0  0  0  0  0  0  0  0  0  0  0
   18.6292    6.8336   11.1060 O   0  0  0  0  0  0  0  0  0  0  0  0
   19.3715    6.3232   12.2277 C   0  0  1  0  0  0  0  0  0  0  0  0
   21.5079   -0.6315    8.3198 N   0  0  0  0  0  0  0  0  0  0  0  0
   19.8305    4.9821   11.9955 O   0  0  0  0  0  0  0  0  0  0  0  0
   19.4059    4.0444   12.9958 C   0  0  2  0  0  0  0  0  0  0  0  0
   16.3857    2.9776   10.1748 N   0  0  0  0  0  0  0  0  0  0  0  0
   19.8174    5.6299   14.7732 O   0  0  0  0  0  0  0  0  0  0  0  0
   20.2016    4.3472   14.2707 C   0  0  1  0  0  0  0  0  0  0  0  0
   18.7384    2.2274   11.4680 O   0  0  0  0  0  0  0  0  0  0  0  0
   19.9351    3.2868   15.3409 C   0  0  1  0  0  0  0  0  0  0  0  0
   20.0202    2.5384    9.5191 O   0  0  0  0  0  0  0  0  0  0  0  0
   20.4135    1.9278   14.8295 C   0  0  0  0  0  0  0  0  0  0  0  0
   18.8560   -0.5859    7.9831 O   0  0  0  0  0  0  0  0  0  0  0  0
   19.6187    1.5551   13.5745 C   0  0  1  0  0  0  0  0  0  0  0  0
   16.4726    1.0210    8.0242 O   0  0  0  0  0  0  0  0  0  0  0  0
   19.6726    2.6320   12.4841 C   0  0  2  0  0  0  0  0  0  0  0  0
   21.2333    7.2217   13.5634 O   0  0  0  0  0  0  0  0  0  0  0  0
   18.8408    2.9531   10.2329 C   0  0  1  0  0  0  0  0  0  0  0  0
   19.3577    9.0648   13.2757 O   0  0  0  0  0  0  0  0  0  0  0  0
   20.0449    1.1409    9.1821 C   0  0  2  0  0  0  0  0  0  0  0  0
   21.3475    0.8262    8.4426 C   0  0  0  0  0  0  0  0  0  0  0  0
   18.8647    0.8161    8.2646 C   0  0  2  0  0  0  0  0  0  0  0  0
   17.5513    1.2032    8.9474 C   0  0  1  0  0  0  0  0  0  0  0  0
   17.5919    2.6676    9.3921 C   0  0  1  0  0  0  0  0  0  0  0  0
   20.5881    7.2444   12.2880 C   0  0  2  0  0  0  0  0  0  0  0  0
   19.9298    8.6002   12.0504 C   0  0  1  0  0  0  0  0  0  0  0  0
  1  3  1  0  0  0  0
  4  1  1  6  0  0  0
  4  6  1  0  0  0  0
  4 31  1  0  0  0  0
  6  7  1  0  0  0  0
  7  9  1  6  0  0  0
  7 30  1  0  0  0  0
  8 26  1  0  0  0  0
 10  9  1  6  0  0  0
 10 13  1  0  0  0  0
 10 21  1  0  0  0  0
 13 12  1  1  0  0  0
 13 15  1  0  0  0  0
 15  2  1  1  0  0  0
 15 17  1  0  0  0  0
 16 25  1  0  0  0  0
 16 23  1  0  0  0  0
 17 19  1  0  0  0  0
 19  5  1  6  0  0  0
 19 21  1  0  0  0  0
 21 14  1  6  0  0  0
 23 14  1  1  0  0  0
 23 29  1  0  0  0  0
 25 26  1  6  0  0  0
 25 27  1  0  0  0  0
 27 18  1  1  0  0  0
 27 28  1  0  0  0  0
 28 20  1  6  0  0  0
 28 29  1  0  0  0  0
 29 11  1  1  0  0  0
 30 22  1  1  0  0  0
 30 31  1  0  0  0  0
 31 24  1  1  0  0  0
M  END
>  <CHROM.1>
53.33122103,-123.83390084,-71.82260501,73.47071899,66.99019330,169.20715608
19.40226983,3.89844362,11.38246583,1.24798845,-1.27805513,0.20610128

>  <Name>
ligand

>  <RI>
0

>  <Rbt.Current_Directory>
/home/itssahil/PROJECTS/Mol_Feturizer/New_Systems/rnas/3DVV

>  <Rbt.Executable>
rbdock ($Id: //depot/dev/client3/rdock/2013.1/src/exe/rbdock.cxx#4 $)

>  <Rbt.Library>
libRbt.so (2013.1, Build901 2013/11/27)

>  <Rbt.Parameter_File>
/export/apps/rDock/src/rDock_2013.1_src/data/scripts/dock_solv.prm

>  <Rbt.Receptor>
prm/blind_docking_80.prm

>  <SCORE>
-4.15046

>  <SCORE.INTER>
-5.55781

>  <SCORE.INTER.CONST>
1

>  <SCORE.INTER.POLAR>
0

>  <SCORE.INTER.ROT>
6

>  <SCORE.INTER.SOLV>
22.1424

>  <SCORE.INTER.VDW>
-18.686

>  <SCORE.INTER.norm>
-0.179284

>  <SCORE.INTRA>
1.40622

>  <SCORE.INTRA.DIHEDRAL>
-1.41128

>  <SCORE.INTRA.DIHEDRAL.0>
10.8172

>  <SCORE.INTRA.POLAR>
0

>  <SCORE.INTRA.POLAR.0>
0

>  <SCORE.INTRA.REPUL>
0

>  <SCORE.INTRA.REPUL.0>
0

>  <SCORE.INTRA.SOLV>
-2.53749

>  <SCORE.INTRA.SOLV.lig_0>
-80.3833

>  <SCORE.INTRA.VDW>
3.3806

>  <SCORE.INTRA.VDW.0>
-4.63762

>  <SCORE.INTRA.norm>
0.0453619

>  <SCORE.RESTR>
0.00113266

>  <SCORE.RESTR.CAVITY>
0.00113266

>  <SCORE.RESTR.norm>
3.65375e-05

>  <SCORE.SYSTEM>
0

>  <SCORE.SYSTEM.CONST>
0

>  <SCORE.SYSTEM.DIHEDRAL>
0

>  <SCORE.SYSTEM.SOLV>
0

>  <SCORE.SYSTEM.norm>
0

>  <SCORE.heavy>
31

>  <SCORE.norm>
-0.133886

>  <RMSD>
7.551

$$$$
ligand
 OpenBabel11021811473D
libRbt.so/2013.1/901 2013/11/27
 31 33  0  0  0  0  0  0  0  0999 V2000
   22.4046    7.8542   15.7684 C   0  0  0  0  0  0  0  0  0  0  0  0
   19.7147   10.9975   11.1755 N   0  0  0  0  0  0  0  0  0  0  0  0
   22.8661    6.7667   14.9601 O   0  0  0  0  0  0  0  0  0  0  0  0
   20.8744    7.8687   15.8093 C   0  0  1  0  0  0  0  0  0  0  0  0
   15.4355    9.0564   12.5260 N   0  0  0  0  0  0  0  0  0  0  0  0
   20.3429    7.9811   14.4747 O   0  0  0  0  0  0  0  0  0  0  0  0
   19.4257    6.8950   14.2535 C   0  0  1  0  0  0  0  0  0  0  0  0
   15.0250    6.9961   16.3074 N   0  0  0  0  0  0  0  0  0  0  0  0
   19.4393    6.4579   12.8854 O   0  0  0  0  0  0  0  0  0  0  0  0
   18.8057    7.3735   11.9797 C   0  0  2  0  0  0  0  0  0  0  0  0
   16.6201    3.9826   10.8308 N   0  0  0  0  0  0  0  0  0  0  0  0
   20.9076    8.4545   11.4736 O   0  0  0  0  0  0  0  0  0  0  0  0
   19.6055    8.6808   12.0202 C   0  0  1  0  0  0  0  0  0  0  0  0
   16.5256    6.4466   12.1310 O   0  0  0  0  0  0  0  0  0  0  0  0
   18.9022    9.7720   11.2105 C   0  0  1  0  0  0  0  0  0  0  0  0
   16.2660    5.4312   14.2380 O   0  0  0  0  0  0  0  0  0  0  0  0
   17.5399   10.0635   11.8402 C   0  0  0  0  0  0  0  0  0  0  0  0
   12.7292    4.6300   13.6674 O   0  0  0  0  0  0  0  0  0  0  0  0
   16.6809    8.7966   11.7880 C   0  0  1  0  0  0  0  0  0  0  0  0
   14.0713    2.9404   11.7677 O   0  0  0  0  0  0  0  0  0  0  0  0
   17.3614    7.5794   12.4260 C   0  0  2  0  0  0  0  0  0  0  0  0
   19.0330    4.7605   15.4145 O   0  0  0  0  0  0  0  0  0  0  0  0
   16.8036    5.2738   12.9119 C   0  0  1  0  0  0  0  0  0  0  0  0
   19.1703    6.7319   17.1730 O   0  0  0  0  0  0  0  0  0  0  0  0
   14.8422    5.6278   14.2778 C   0  0  2  0  0  0  0  0  0  0  0  0
   14.3993    5.7942   15.7333 C   0  0  0  0  0  0  0  0  0  0  0  0
   14.1412    4.4043   13.6845 C   0  0  2  0  0  0  0  0  0  0  0  0
   14.6325    4.1636   12.2556 C   0  0  1  0  0  0  0  0  0  0  0  0
   16.1599    4.0644   12.2255 C   0  0  1  0  0  0  0  0  0  0  0  0
   19.9961    5.7756   15.1220 C   0  0  2  0  0  0  0  0  0  0  0  0
   20.3511    6.5507   16.3873 C   0  0  1  0  0  0  0  0  0  0  0  0
  1  3  1  0  0  0  0
  4  1  1  6  0  0  0
  4  6  1  0  0  0  0
  4 31  1  0  0  0  0
  6  7  1  0  0  0  0
  7  9  1  6  0  0  0
  7 30  1  0  0  0  0
  8 26  1  0  0  0  0
 10  9  1  1  0  0  0
 10 13  1  0  0  0  0
 10 21  1  0  0  0  0
 13 12  1  6  0  0  0
 13 15  1  0  0  0  0
 15  2  1  1  0  0  0
 15 17  1  0  0  0  0
 16 25  1  0  0  0  0
 16 23  1  0  0  0  0
 17 19  1  0  0  0  0
 19  5  1  1  0  0  0
 19 21  1  0  0  0  0
 21 14  1  6  0  0  0
 23 14  1  6  0  0  0
 23 29  1  0  0  0  0
 25 26  1  1  0  0  0
 25 27  1  0  0  0  0
 27 18  1  6  0  0  0
 27 28  1  0  0  0  0
 28 20  1  1  0  0  0
 28 29  1  0  0  0  0
 29 11  1  6  0  0  0
 30 22  1  1  0  0  0
 30 31  1  0  0  0  0
 31 24  1  1  0  0  0
M  END
>  <CHROM.1>
-58.25532804,-72.74503131,62.80864401,76.43967141,69.37895495,62.63525148
17.79346387,6.68838663,13.52745514,-0.19032600,0.46653281,2.23770975

>  <Name>
ligand

>  <RI>
0

>  <Rbt.Current_Directory>
/home/itssahil/PROJECTS/Mol_Feturizer/New_Systems/rnas/3DVV

>  <Rbt.Executable>
rbdock ($Id: //depot/dev/client3/rdock/2013.1/src/exe/rbdock.cxx#4 $)

>  <Rbt.Library>
libRbt.so (2013.1, Build901 2013/11/27)

>  <Rbt.Parameter_File>
/export/apps/rDock/src/rDock_2013.1_src/data/scripts/dock_solv.prm

>  <Rbt.Receptor>
prm/pocket_docking_8.prm

>  <SCORE>
-8.2116

>  <SCORE.INTER>
-5.47494

>  <SCORE.INTER.CONST>
1

>  <SCORE.INTER.POLAR>
0

>  <SCORE.INTER.ROT>
6

>  <SCORE.INTER.SOLV>
11.8353

>  <SCORE.INTER.VDW>
-15.1951

>  <SCORE.INTER.norm>
-0.176611

>  <SCORE.INTRA>
-2.73666

>  <SCORE.INTRA.DIHEDRAL>
-8.06105

>  <SCORE.INTRA.DIHEDRAL.0>
10.8172

>  <SCORE.INTRA.POLAR>
0

>  <SCORE.INTRA.POLAR.0>
0

>  <SCORE.INTRA.REPUL>
0

>  <SCORE.INTRA.REPUL.0>
0

>  <SCORE.INTRA.SOLV>
-2.88503

>  <SCORE.INTRA.SOLV.lig_0>
-80.3833

>  <SCORE.INTRA.VDW>
2.73637

>  <SCORE.INTRA.VDW.0>
-4.63762

>  <SCORE.INTRA.norm>
-0.0882794

>  <SCORE.RESTR>
0

>  <SCORE.RESTR.CAVITY>
0

>  <SCORE.RESTR.norm>
0

>  <SCORE.SYSTEM>
0

>  <SCORE.SYSTEM.CONST>
0

>  <SCORE.SYSTEM.DIHEDRAL>
0

>  <SCORE.SYSTEM.SOLV>
0

>  <SCORE.SYSTEM.norm>
0

>  <SCORE.heavy>
31

>  <SCORE.norm>
-0.26489

>  <RMSD>
7.587

$$$$
ligand
 OpenBabel11021811473D
libRbt.so/2013.1/901 2013/11/27
 31 33  0  0  0  0  0  0  0  0999 V2000
   19.7294    6.2948   13.2738 C   0  0  0  0  0  0  0  0  0  0  0  0
   17.3061   11.2714   18.9429 N   0  0  0  0  0  0  0  0  0  0  0  0
   18.5182    6.7621   12.6710 O   0  0  0  0  0  0  0  0  0  0  0  0
   20.2808    7.3496   14.2364 C   0  0  1  0  0  0  0  0  0  0  0  0
   14.9880    7.1258   20.1022 N   0  0  0  0  0  0  0  0  0  0  0  0
   19.3170    7.6310   15.2700 O   0  0  0  0  0  0  0  0  0  0  0  0
   19.9478    7.4411   16.5489 C   0  0  1  0  0  0  0  0  0  0  0  0
   17.4919    4.2480   21.8817 N   0  0  0  0  0  0  0  0  0  0  0  0
   19.0215    6.9504   17.5309 O   0  0  0  0  0  0  0  0  0  0  0  0
   17.8141    7.7210   17.6227 C   0  0  2  0  0  0  0  0  0  0  0  0
   15.9802    4.2486   15.6128 N   0  0  0  0  0  0  0  0  0  0  0  0
   19.0084    9.7883   17.2455 O   0  0  0  0  0  0  0  0  0  0  0  0
   18.1920    9.0934   18.1920 C   0  0  1  0  0  0  0  0  0  0  0  0
   16.2497    5.8336   17.8900 O   0  0  0  0  0  0  0  0  0  0  0  0
   16.9399    9.9234   18.4823 C   0  0  1  0  0  0  0  0  0  0  0  0
   17.4872    4.1760   19.0123 O   0  0  0  0  0  0  0  0  0  0  0  0
   16.1045    9.2137   19.5480 C   0  0  0  0  0  0  0  0  0  0  0  0
   14.5233    2.1352   19.7378 O   0  0  0  0  0  0  0  0  0  0  0  0
   15.6630    7.8481   19.0132 C   0  0  1  0  0  0  0  0  0  0  0  0
   14.7331    1.9448   16.8769 O   0  0  0  0  0  0  0  0  0  0  0  0
   16.8328    6.9831   18.5284 C   0  0  2  0  0  0  0  0  0  0  0  0
   22.0126    6.3027   17.2550 O   0  0  0  0  0  0  0  0  0  0  0  0
   17.1414    4.7198   17.7249 C   0  0  1  0  0  0  0  0  0  0  0  0
   22.5042    7.8487   15.1655 O   0  0  0  0  0  0  0  0  0  0  0  0
   16.3638    3.6987   19.7720 C   0  0  2  0  0  0  0  0  0  0  0  0
   16.8595    3.1615   21.1167 C   0  0  0  0  0  0  0  0  0  0  0  0
   15.6767    2.5643   19.0095 C   0  0  2  0  0  0  0  0  0  0  0  0
   15.2478    3.0520   17.6241 C   0  0  1  0  0  0  0  0  0  0  0  0
   16.4409    3.6532   16.8765 C   0  0  1  0  0  0  0  0  0  0  0  0
   20.9774    6.3480   16.2702 C   0  0  2  0  0  0  0  0  0  0  0  0
   21.5382    6.8207   14.9322 C   0  0  1  0  0  0  0  0  0  0  0  0
  1  3  1  0  0  0  0
  4  1  1  6  0  0  0
  4  6  1  0  0  0  0
  4 31  1  0  0  0  0
  6  7  1  0  0  0  0
  7  9  1  1  0  0  0
  7 30  1  0  0  0  0
  8 26  1  0  0  0  0
 10  9  1  1  0  0  0
 10 13  1  0  0  0  0
 10 21  1  0  0  0  0
 13 12  1  6  0  0  0
 13 15  1  0  0  0  0
 15  2  1  1  0  0  0
 15 17  1  0  0  0  0
 16 25  1  0  0  0  0
 16 23  1  0  0  0  0
 17 19  1  0  0  0  0
 19  5  1  1  0  0  0
 19 21  1  0  0  0  0
 21 14  1  6  0  0  0
 23 14  1  1  0  0  0
 23 29  1  0  0  0  0
 25 26  1  1  0  0  0
 25 27  1  0  0  0  0
 27 18  1  1  0  0  0
 27 28  1  0  0  0  0
 28 20  1  6  0  0  0
 28 29  1  0  0  0  0
 29 11  1  6  0  0  0
 30 22  1  1  0  0  0
 30 31  1  0  0  0  0
 31 24  1  1  0  0  0
M  END
>  <CHROM.1>
59.56217630,-51.27100529,-67.78108770,66.93716226,72.41398902,62.07906043
17.79571225,6.18567446,17.51836611,-0.34334476,-0.84324150,-2.72108170

>  <Name>
ligand

>  <RI>
0

>  <Rbt.Current_Directory>
/home/itssahil/PROJECTS/Mol_Feturizer/New_Systems/rnas/3DVV

>  <Rbt.Executable>
rbdock ($Id: //depot/dev/client3/rdock/2013.1/src/exe/rbdock.cxx#4 $)

>  <Rbt.Library>
libRbt.so (2013.1, Build901 2013/11/27)

>  <Rbt.Parameter_File>
/export/apps/rDock/src/rDock_2013.1_src/data/scripts/dock_solv.prm

>  <Rbt.Receptor>
prm/pocket_docking_6.prm

>  <SCORE>
-8.16166

>  <SCORE.INTER>
-4.86757

>  <SCORE.INTER.CONST>
1

>  <SCORE.INTER.POLAR>
0

>  <SCORE.INTER.ROT>
6

>  <SCORE.INTER.SOLV>
17.4394

>  <SCORE.INTER.VDW>
-16.6582

>  <SCORE.INTER.norm>
-0.157019

>  <SCORE.INTRA>
-3.29409

>  <SCORE.INTRA.DIHEDRAL>
-8.92984

>  <SCORE.INTRA.DIHEDRAL.0>
10.8172

>  <SCORE.INTRA.POLAR>
0

>  <SCORE.INTRA.POLAR.0>
0

>  <SCORE.INTRA.REPUL>
0

>  <SCORE.INTRA.REPUL.0>
0

>  <SCORE.INTRA.SOLV>
-3.62274

>  <SCORE.INTRA.SOLV.lig_0>
-80.3833

>  <SCORE.INTRA.VDW>
2.9822

>  <SCORE.INTRA.VDW.0>
-4.63762

>  <SCORE.INTRA.norm>
-0.106261

>  <SCORE.RESTR>
0

>  <SCORE.RESTR.CAVITY>
0

>  <SCORE.RESTR.norm>
0

>  <SCORE.SYSTEM>
0

>  <SCORE.SYSTEM.CONST>
0

>  <SCORE.SYSTEM.DIHEDRAL>
0

>  <SCORE.SYSTEM.SOLV>
0

>  <SCORE.SYSTEM.norm>
0

>  <SCORE.heavy>
31

>  <SCORE.norm>
-0.263279

>  <RMSD>
7.589

$$$$
ligand
 OpenBabel11021811473D
libRbt.so/2013.1/901 2013/11/27
 31 33  0  0  0  0  0  0  0  0999 V2000
   19.6274    6.5386   13.3171 C   0  0  0  0  0  0  0  0  0  0  0  0
   17.2289   11.2762   18.9676 N   0  0  0  0  0  0  0  0  0  0  0  0
   20.3958    6.5206   12.1096 O   0  0  0  0  0  0  0  0  0  0  0  0
   20.2322    7.5318   14.3126 C   0  0  1  0  0  0  0  0  0  0  0  0
   15.0905    7.0782   20.2744 N   0  0  0  0  0  0  0  0  0  0  0  0
   19.3093    7.7778   15.3915 O   0  0  0  0  0  0  0  0  0  0  0  0
   19.9782    7.5104   16.6368 C   0  0  1  0  0  0  0  0  0  0  0  0
   18.2740    2.6175   21.4952 N   0  0  0  0  0  0  0  0  0  0  0  0
   19.0752    6.9875   17.6238 O   0  0  0  0  0  0  0  0  0  0  0  0
   17.8421    7.7153   17.7224 C   0  0  2  0  0  0  0  0  0  0  0  0
   15.9367    3.8404   16.1086 N   0  0  0  0  0  0  0  0  0  0  0  0
   18.9507    9.8151   17.2708 O   0  0  0  0  0  0  0  0  0  0  0  0
   18.1800    9.1143   18.2507 C   0  0  1  0  0  0  0  0  0  0  0  0
   16.3547    5.7789   18.0677 O   0  0  0  0  0  0  0  0  0  0  0  0
   16.9040    9.9047   18.5472 C   0  0  1  0  0  0  0  0  0  0  0  0
   17.7043    4.3337   19.3436 O   0  0  0  0  0  0  0  0  0  0  0  0
   16.1171    9.1913   19.6470 C   0  0  0  0  0  0  0  0  0  0  0  0
   14.8418    2.4263   20.6259 O   0  0  0  0  0  0  0  0  0  0  0  0
   15.7161    7.7977   19.1545 C   0  0  1  0  0  0  0  0  0  0  0  0
   14.8320    1.7698   17.8271 O   0  0  0  0  0  0  0  0  0  0  0  0
   16.9073    6.9645   18.6660 C   0  0  2  0  0  0  0  0  0  0  0  0
   22.0414    6.2983   17.2130 O   0  0  0  0  0  0  0  0  0  0  0  0
   17.2501    4.6572   18.0164 C   0  0  1  0  0  0  0  0  0  0  0  0
   22.4951    7.9402   15.1891 O   0  0  0  0  0  0  0  0  0  0  0  0
   16.6518    3.9824   20.2580 C   0  0  2  0  0  0  0  0  0  0  0  0
   17.2598    3.6755   21.6286 C   0  0  0  0  0  0  0  0  0  0  0  0
   15.9275    2.7352   19.7480 C   0  0  2  0  0  0  0  0  0  0  0  0
   15.3838    2.9870   18.3401 C   0  0  1  0  0  0  0  0  0  0  0  0
   16.5046    3.4626   17.4119 C   0  0  1  0  0  0  0  0  0  0  0  0
   20.9752    6.4139   16.2678 C   0  0  2  0  0  0  0  0  0  0  0  0
   21.5008    6.9440   14.9371 C   0  0  1  0  0  0  0  0  0  0  0  0
  1  3  1  0  0  0  0
  4  1  1  6  0  0  0
  4  6  1  0  0  0  0
  4 31  1  0  0  0  0
  6  7  1  0  0  0  0
  7  9  1  1  0  0  0
  7 30  1  0  0  0  0
  8 26  1  0  0  0  0
 10  9  1  1  0  0  0
 10 13  1  0  0  0  0
 10 21  1  0  0  0  0
 13 12  1  6  0  0  0
 13 15  1  0  0  0  0
 15  2  1  1  0  0  0
 15 17  1  0  0  0  0
 16 25  1  0  0  0  0
 16 23  1  0  0  0  0
 17 19  1  0  0  0  0
 19  5  1  1  0  0  0
 19 21  1  0  0  0  0
 21 14  1  6  0  0  0
 23 14  1  1  0  0  0
 23 29  1  0  0  0  0
 25 26  1  1  0  0  0
 25 27  1  0  0  0  0
 27 18  1  1  0  0  0
 27 28  1  0  0  0  0
 28 20  1  6  0  0  0
 28 29  1  0  0  0  0
 29 11  1  6  0  0  0
 30 22  1  1  0  0  0
 30 31  1  0  0  0  0
 31 24  1  1  0  0  0
M  END
>  <CHROM.1>
167.05990003,-46.68307958,-66.12937698,57.28086648,77.56294435,-56.04223009
17.95181029,6.16782948,17.72345660,-0.45437849,-0.85931557,-2.94837423

>  <Name>
ligand

>  <RI>
0

>  <Rbt.Current_Directory>
/home/itssahil/PROJECTS/Mol_Feturizer/New_Systems/rnas/3DVV

>  <Rbt.Executable>
rbdock ($Id: //depot/dev/client3/rdock/2013.1/src/exe/rbdock.cxx#4 $)

>  <Rbt.Library>
libRbt.so (2013.1, Build901 2013/11/27)

>  <Rbt.Parameter_File>
/export/apps/rDock/src/rDock_2013.1_src/data/scripts/dock_solv.prm

>  <Rbt.Receptor>
prm/pocket_docking_7.prm

>  <SCORE>
-5.85563

>  <SCORE.INTER>
-4.57961

>  <SCORE.INTER.CONST>
1

>  <SCORE.INTER.POLAR>
0

>  <SCORE.INTER.ROT>
6

>  <SCORE.INTER.SOLV>
22.7856

>  <SCORE.INTER.VDW>
-18.2483

>  <SCORE.INTER.norm>
-0.147729

>  <SCORE.INTRA>
-1.27601

>  <SCORE.INTRA.DIHEDRAL>
-7.51201

>  <SCORE.INTRA.DIHEDRAL.0>
10.8172

>  <SCORE.INTRA.POLAR>
0

>  <SCORE.INTRA.POLAR.0>
0

>  <SCORE.INTRA.REPUL>
0

>  <SCORE.INTRA.REPUL.0>
0

>  <SCORE.INTRA.SOLV>
-2.05375

>  <SCORE.INTRA.SOLV.lig_0>
-80.3833

>  <SCORE.INTRA.VDW>
3.50687

>  <SCORE.INTRA.VDW.0>
-4.63762

>  <SCORE.INTRA.norm>
-0.0411617

>  <SCORE.RESTR>
0

>  <SCORE.RESTR.CAVITY>
0

>  <SCORE.RESTR.norm>
0

>  <SCORE.SYSTEM>
0

>  <SCORE.SYSTEM.CONST>
0

>  <SCORE.SYSTEM.DIHEDRAL>
0

>  <SCORE.SYSTEM.SOLV>
0

>  <SCORE.SYSTEM.norm>
0

>  <SCORE.heavy>
31

>  <SCORE.norm>
-0.188891

>  <RMSD>
7.599

$$$$
ligand
 OpenBabel11021811473D
libRbt.so/2013.1/901 2013/11/27
 31 33  0  0  0  0  0  0  0  0999 V2000
   18.4418    8.3249    9.2675 C   0  0  0  0  0  0  0  0  0  0  0  0
   20.5808    3.9579   16.5447 N   0  0  0  0  0  0  0  0  0  0  0  0
   19.6403    7.6900    8.8100 O   0  0  0  0  0  0  0  0  0  0  0  0
   18.2867    8.1326   10.7782 C   0  0  1  0  0  0  0  0  0  0  0  0
   20.2381    0.4843   13.1212 N   0  0  0  0  0  0  0  0  0  0  0  0
   18.1979    6.7294   11.0938 O   0  0  0  0  0  0  0  0  0  0  0  0
   19.2067    6.4144   12.0699 C   0  0  1  0  0  0  0  0  0  0  0  0
   21.7477   -0.5528    8.5750 N   0  0  0  0  0  0  0  0  0  0  0  0
   19.7155    5.0823   11.8977 O   0  0  0  0  0  0  0  0  0  0  0  0
   19.3276    4.1759   12.9407 C   0  0  2  0  0  0  0  0  0  0  0  0
   16.3466    2.7881   10.1191 N   0  0  0  0  0  0  0  0  0  0  0  0
   19.6948    5.8507   14.6444 O   0  0  0  0  0  0  0  0  0  0  0  0
   20.1191    4.5607   14.1960 C   0  0  1  0  0  0  0  0  0  0  0  0
   18.7136    2.2724   11.4982 O   0  0  0  0  0  0  0  0  0  0  0  0
   19.8936    3.5400   15.3132 C   0  0  1  0  0  0  0  0  0  0  0  0
   20.0169    2.5661    9.5609 O   0  0  0  0  0  0  0  0  0  0  0  0
   20.4146    2.1764   14.8586 C   0  0  0  0  0  0  0  0  0  0  0  0
   19.1037   -0.7089    8.1766 O   0  0  0  0  0  0  0  0  0  0  0  0
   19.6264    1.7228   13.6263 C   0  0  1  0  0  0  0  0  0  0  0  0
   16.6165    0.7297    8.0818 O   0  0  0  0  0  0  0  0  0  0  0  0
   19.6388    2.7520   12.4895 C   0  0  2  0  0  0  0  0  0  0  0  0
   21.2320    7.5849   12.8355 O   0  0  0  0  0  0  0  0  0  0  0  0
   18.7956    2.9362   10.2272 C   0  0  1  0  0  0  0  0  0  0  0  0
   19.1902    9.2655   12.7672 O   0  0  0  0  0  0  0  0  0  0  0  0
   20.1443    1.1576    9.3019 C   0  0  2  0  0  0  0  0  0  0  0  0
   21.4822    0.8943    8.6069 C   0  0  0  0  0  0  0  0  0  0  0  0
   19.0107    0.7035    8.3805 C   0  0  2  0  0  0  0  0  0  0  0  0
   17.6584    1.0351    9.0148 C   0  0  1  0  0  0  0  0  0  0  0  0
   17.5891    2.5206    9.3788 C   0  0  1  0  0  0  0  0  0  0  0  0
   20.3253    7.4024   11.7455 C   0  0  2  0  0  0  0  0  0  0  0  0
   19.5192    8.6757   11.5069 C   0  0  1  0  0  0  0  0  0  0  0  0
  1  3  1  0  0  0  0
  4  1  1  6  0  0  0
  4  6  1  0  0  0  0
  4 31  1  0  0  0  0
  6  7  1  0  0  0  0
  7  9  1  6  0  0  0
  7 30  1  0  0  0  0
  8 26  1  0  0  0  0
 10  9  1  6  0  0  0
 10 13  1  0  0  0  0
 10 21  1  0  0  0  0
 13 12  1  1  0  0  0
 13 15  1  0  0  0  0
 15  2  1  1  0  0  0
 15 17  1  0  0  0  0
 16 25  1  0  0  0  0
 16 23  1  0  0  0  0
 17 19  1  0  0  0  0
 19  5  1  6  0  0  0
 19 21  1  0  0  0  0
 21 14  1  6  0  0  0
 23 14  1  1  0  0  0
 23 29  1  0  0  0  0
 25 26  1  6  0  0  0
 25 27  1  0  0  0  0
 27 18  1  1  0  0  0
 27 28  1  0  0  0  0
 28 20  1  6  0  0  0
 28 29  1  0  0  0  0
 29 11  1  1  0  0  0
 30 22  1  1  0  0  0
 30 31  1  0  0  0  0
 31 24  1  1  0  0  0
M  END
>  <CHROM.1>
-60.85887002,-110.13562415,-72.16509009,70.63541573,67.65032303,168.86961479
19.36895117,3.93281848,11.31317564,1.38415129,-1.28994184,0.27162668

>  <Name>
ligand

>  <RI>
0

>  <Rbt.Current_Directory>
/home/itssahil/PROJECTS/Mol_Feturizer/New_Systems/rnas/3DVV

>  <Rbt.Executable>
rbdock ($Id: //depot/dev/client3/rdock/2013.1/src/exe/rbdock.cxx#4 $)

>  <Rbt.Library>
libRbt.so (2013.1, Build901 2013/11/27)

>  <Rbt.Parameter_File>
/export/apps/rDock/src/rDock_2013.1_src/data/scripts/dock_solv.prm

>  <Rbt.Receptor>
prm/blind_docking_40.prm

>  <SCORE>
-6.76068

>  <SCORE.INTER>
-6.98893

>  <SCORE.INTER.CONST>
1

>  <SCORE.INTER.POLAR>
0

>  <SCORE.INTER.ROT>
6

>  <SCORE.INTER.SOLV>
22.6274

>  <SCORE.INTER.VDW>
-19.8018

>  <SCORE.INTER.norm>
-0.225449

>  <SCORE.INTRA>
0.221153

>  <SCORE.INTRA.DIHEDRAL>
-2.14897

>  <SCORE.INTRA.DIHEDRAL.0>
10.8172

>  <SCORE.INTRA.POLAR>
0

>  <SCORE.INTRA.POLAR.0>
0

>  <SCORE.INTRA.REPUL>
0

>  <SCORE.INTRA.REPUL.0>
0

>  <SCORE.INTRA.SOLV>
-2.32606

>  <SCORE.INTRA.SOLV.lig_0>
-80.3833

>  <SCORE.INTRA.VDW>
2.45867

>  <SCORE.INTRA.VDW.0>
-4.63762

>  <SCORE.INTRA.norm>
0.00713397

>  <SCORE.RESTR>
0.00709898

>  <SCORE.RESTR.CAVITY>
0.00709898

>  <SCORE.RESTR.norm>
0.000228999

>  <SCORE.SYSTEM>
0

>  <SCORE.SYSTEM.CONST>
0

>  <SCORE.SYSTEM.DIHEDRAL>
0

>  <SCORE.SYSTEM.SOLV>
0

>  <SCORE.SYSTEM.norm>
0

>  <SCORE.heavy>
31

>  <SCORE.norm>
-0.218086

>  <RMSD>
7.604

$$$$
ligand
 OpenBabel11021811473D
libRbt.so/2013.1/901 2013/11/27
 31 33  0  0  0  0  0  0  0  0999 V2000
   15.5209    0.7854   12.2413 C   0  0  0  0  0  0  0  0  0  0  0  0
   21.5880    5.4765   16.5797 N   0  0  0  0  0  0  0  0  0  0  0  0
   14.4305    1.7003   12.0901 O   0  0  0  0  0  0  0  0  0  0  0  0
   16.8523    1.5396   12.1977 C   0  0  1  0  0  0  0  0  0  0  0  0
   17.5248    5.1730   19.2819 N   0  0  0  0  0  0  0  0  0  0  0  0
   16.9537    2.4335   13.3233 O   0  0  0  0  0  0  0  0  0  0  0  0
   18.1748    2.1466   14.0279 C   0  0  1  0  0  0  0  0  0  0  0  0
   14.2004    2.8265   21.5514 N   0  0  0  0  0  0  0  0  0  0  0  0
   18.0363    2.3625   15.4412 O   0  0  0  0  0  0  0  0  0  0  0  0
   18.2747    3.7190   15.8449 C   0  0  2  0  0  0  0  0  0  0  0  0
   14.1296    3.9439   15.1129 N   0  0  0  0  0  0  0  0  0  0  0  0
   20.3829    3.7857   14.6645 O   0  0  0  0  0  0  0  0  0  0  0  0
   19.7926    3.8991   15.9623 C   0  0  1  0  0  0  0  0  0  0  0  0
   16.1446    4.0776   17.0345 O   0  0  0  0  0  0  0  0  0  0  0  0
   20.1320    5.2696   16.5518 C   0  0  1  0  0  0  0  0  0  0  0  0
   15.3764    2.1313   18.1116 O   0  0  0  0  0  0  0  0  0  0  0  0
   19.5618    5.3610   17.9674 C   0  0  0  0  0  0  0  0  0  0  0  0
   12.5568    3.8561   19.7089 O   0  0  0  0  0  0  0  0  0  0  0  0
   18.0373    5.2286   17.9044 C   0  0  1  0  0  0  0  0  0  0  0  0
   11.8528    3.9462   16.9230 O   0  0  0  0  0  0  0  0  0  0  0  0
   17.5712    3.9618   17.1768 C   0  0  2  0  0  0  0  0  0  0  0  0
   19.7219    0.2325   14.0044 O   0  0  0  0  0  0  0  0  0  0  0  0
   15.4543    2.8309   16.8558 C   0  0  1  0  0  0  0  0  0  0  0  0
   19.1474    0.9586   11.5264 O   0  0  0  0  0  0  0  0  0  0  0  0
   14.6775    2.8480   19.1437 C   0  0  2  0  0  0  0  0  0  0  0  0
   14.6757    2.0090   20.4238 C   0  0  0  0  0  0  0  0  0  0  0  0
   13.2309    3.0884   18.7082 C   0  0  2  0  0  0  0  0  0  0  0  0
   13.2053    3.8516   17.3823 C   0  0  1  0  0  0  0  0  0  0  0  0
   14.0448    3.1224   16.3301 C   0  0  1  0  0  0  0  0  0  0  0  0
   18.3726    0.6516   13.7866 C   0  0  2  0  0  0  0  0  0  0  0  0
   18.0190    0.5537   12.3057 C   0  0  1  0  0  0  0  0  0  0  0  0
  1  3  1  0  0  0  0
  4  1  1  1  0  0  0
  4  6  1  0  0  0  0
  4 31  1  0  0  0  0
  6  7  1  0  0  0  0
  7  9  1  1  0  0  0
  7 30  1  0  0  0  0
  8 26  1  0  0  0  0
 10  9  1  1  0  0  0
 10 13  1  0  0  0  0
 10 21  1  0  0  0  0
 13 12  1  6  0  0  0
 13 15  1  0  0  0  0
 15  2  1  1  0  0  0
 15 17  1  0  0  0  0
 16 25  1  0  0  0  0
 16 23  1  0  0  0  0
 17 19  1  0  0  0  0
 19  5  1  1  0  0  0
 19 21  1  0  0  0  0
 21 14  1  6  0  0  0
 23 14  1  1  0  0  0
 23 29  1  0  0  0  0
 25 26  1  1  0  0  0
 25 27  1  0  0  0  0
 27 18  1  1  0  0  0
 27 28  1  0  0  0  0
 28 20  1  6  0  0  0
 28 29  1  0  0  0  0
 29 11  1  6  0  0  0
 30 22  1  6  0  0  0
 30 31  1  0  0  0  0
 31 24  1  6  0  0  0
M  END
>  <CHROM.1>
64.51504474,-86.02991498,-81.96949123,75.49122942,77.18542109,169.09440437
16.68277851,3.00243659,16.09972546,0.88826458,-0.23200356,-2.02531701

>  <Name>
ligand

>  <RI>
0

>  <Rbt.Current_Directory>
/home/itssahil/PROJECTS/Mol_Feturizer/New_Systems/rnas/3DVV

>  <Rbt.Executable>
rbdock ($Id: //depot/dev/client3/rdock/2013.1/src/exe/rbdock.cxx#4 $)

>  <Rbt.Library>
libRbt.so (2013.1, Build901 2013/11/27)

>  <Rbt.Parameter_File>
/export/apps/rDock/src/rDock_2013.1_src/data/scripts/dock_solv.prm

>  <Rbt.Receptor>
prm/pocket_docking_4.prm

>  <SCORE>
-3.3216

>  <SCORE.INTER>
-2.45482

>  <SCORE.INTER.CONST>
1

>  <SCORE.INTER.POLAR>
0

>  <SCORE.INTER.ROT>
6

>  <SCORE.INTER.SOLV>
11.6646

>  <SCORE.INTER.VDW>
-13.1248

>  <SCORE.INTER.norm>
-0.0791878

>  <SCORE.INTRA>
-0.866773

>  <SCORE.INTRA.DIHEDRAL>
-2.74495

>  <SCORE.INTRA.DIHEDRAL.0>
10.8172

>  <SCORE.INTRA.POLAR>
0

>  <SCORE.INTRA.POLAR.0>
0

>  <SCORE.INTRA.REPUL>
0

>  <SCORE.INTRA.REPUL.0>
0

>  <SCORE.INTRA.SOLV>
-1.72382

>  <SCORE.INTRA.SOLV.lig_0>
-80.3833

>  <SCORE.INTRA.VDW>
1.36762

>  <SCORE.INTRA.VDW.0>
-4.63762

>  <SCORE.INTRA.norm>
-0.0279604

>  <SCORE.RESTR>
0

>  <SCORE.RESTR.CAVITY>
0

>  <SCORE.RESTR.norm>
0

>  <SCORE.SYSTEM>
0

>  <SCORE.SYSTEM.CONST>
0

>  <SCORE.SYSTEM.DIHEDRAL>
0

>  <SCORE.SYSTEM.SOLV>
0

>  <SCORE.SYSTEM.norm>
0

>  <SCORE.heavy>
31

>  <SCORE.norm>
-0.107148

>  <RMSD>
7.605

$$$$
ligand
 OpenBabel11021811473D
libRbt.so/2013.1/901 2013/11/27
 31 33  0  0  0  0  0  0  0  0999 V2000
   18.6344    8.3678    9.2215 C   0  0  0  0  0  0  0  0  0  0  0  0
   20.5384    4.0753   16.5884 N   0  0  0  0  0  0  0  0  0  0  0  0
   19.8396    7.7043    8.8264 O   0  0  0  0  0  0  0  0  0  0  0  0
   18.3904    8.1703   10.7198 C   0  0  1  0  0  0  0  0  0  0  0  0
   20.2866    0.5398   13.2208 N   0  0  0  0  0  0  0  0  0  0  0  0
   18.2785    6.7663   11.0240 O   0  0  0  0  0  0  0  0  0  0  0  0
   19.2274    6.4439   12.0562 C   0  0  1  0  0  0  0  0  0  0  0  0
   21.6097   -0.5786    8.4455 N   0  0  0  0  0  0  0  0  0  0  0  0
   19.7409    5.1107   11.9087 O   0  0  0  0  0  0  0  0  0  0  0  0
   19.3441    4.2186   12.9607 C   0  0  2  0  0  0  0  0  0  0  0  0
   16.3755    2.8837   10.2513 N   0  0  0  0  0  0  0  0  0  0  0  0
   19.6665    5.9262   14.6409 O   0  0  0  0  0  0  0  0  0  0  0  0
   20.1106    4.6328   14.2222 C   0  0  1  0  0  0  0  0  0  0  0  0
   18.7727    2.2845   11.5417 O   0  0  0  0  0  0  0  0  0  0  0  0
   19.8760    3.6294   15.3532 C   0  0  1  0  0  0  0  0  0  0  0  0
   20.0175    2.5718    9.5653 O   0  0  0  0  0  0  0  0  0  0  0  0
   20.4177    2.2633   14.9312 C   0  0  0  0  0  0  0  0  0  0  0  0
   18.9693   -0.6569    8.1679 O   0  0  0  0  0  0  0  0  0  0  0  0
   19.6547    1.7808   13.6940 C   0  0  1  0  0  0  0  0  0  0  0  0
   16.5204    0.8490    8.1777 O   0  0  0  0  0  0  0  0  0  0  0  0
   19.6765    2.7903   12.5398 C   0  0  2  0  0  0  0  0  0  0  0  0
   21.2083    7.6041   12.9437 O   0  0  0  0  0  0  0  0  0  0  0  0
   18.8299    2.9645   10.2779 C   0  0  1  0  0  0  0  0  0  0  0  0
   19.1798    9.2923   12.7628 O   0  0  0  0  0  0  0  0  0  0  0  0
   20.0976    1.1643    9.2828 C   0  0  2  0  0  0  0  0  0  0  0  0
   21.4037    0.8755    8.5390 C   0  0  0  0  0  0  0  0  0  0  0  0
   18.9217    0.7543    8.3943 C   0  0  2  0  0  0  0  0  0  0  0  0
   17.6011    1.1126    9.0788 C   0  0  1  0  0  0  0  0  0  0  0  0
   17.5846    2.5939    9.4654 C   0  0  1  0  0  0  0  0  0  0  0  0
   20.3664    7.4291   11.8018 C   0  0  2  0  0  0  0  0  0  0  0  0
   19.5799    8.7062   11.5215 C   0  0  1  0  0  0  0  0  0  0  0  0
  1  3  1  0  0  0  0
  4  1  1  6  0  0  0
  4  6  1  0  0  0  0
  4 31  1  0  0  0  0
  6  7  1  0  0  0  0
  7  9  1  6  0  0  0
  7 30  1  0  0  0  0
  8 26  1  0  0  0  0
 10  9  1  6  0  0  0
 10 13  1  0  0  0  0
 10 21  1  0  0  0  0
 13 12  1  1  0  0  0
 13 15  1  0  0  0  0
 15  2  1  1  0  0  0
 15 17  1  0  0  0  0
 16 25  1  0  0  0  0
 16 23  1  0  0  0  0
 17 19  1  0  0  0  0
 19  5  1  6  0  0  0
 19 21  1  0  0  0  0
 21 14  1  6  0  0  0
 23 14  1  1  0  0  0
 23 29  1  0  0  0  0
 25 26  1  6  0  0  0
 25 27  1  0  0  0  0
 27 18  1  1  0  0  0
 27 28  1  0  0  0  0
 28 20  1  6  0  0  0
 28 29  1  0  0  0  0
 29 11  1  1  0  0  0
 30 22  1  1  0  0  0
 30 31  1  0  0  0  0
 31 24  1  1  0  0  0
M  END
>  <CHROM.1>
-59.53770832,-113.11251349,-71.58142926,74.99424350,65.13075175,170.42532399
19.37555460,3.97779628,11.33531747,1.31374647,-1.30882761,0.21285910

>  <Name>
ligand

>  <RI>
0

>  <Rbt.Current_Directory>
/home/itssahil/PROJECTS/Mol_Feturizer/New_Systems/rnas/3DVV

>  <Rbt.Executable>
rbdock ($Id: //depot/dev/client3/rdock/2013.1/src/exe/rbdock.cxx#4 $)

>  <Rbt.Library>
libRbt.so (2013.1, Build901 2013/11/27)

>  <Rbt.Parameter_File>
/export/apps/rDock/src/rDock_2013.1_src/data/scripts/dock_solv.prm

>  <Rbt.Receptor>
prm/blind_docking_100.prm

>  <SCORE>
-6.83772

>  <SCORE.INTER>
-7.47944

>  <SCORE.INTER.CONST>
1

>  <SCORE.INTER.POLAR>
0

>  <SCORE.INTER.ROT>
6

>  <SCORE.INTER.SOLV>
21.9132

>  <SCORE.INTER.VDW>
-19.8907

>  <SCORE.INTER.norm>
-0.241272

>  <SCORE.INTRA>
0.634226

>  <SCORE.INTRA.DIHEDRAL>
-1.73901

>  <SCORE.INTRA.DIHEDRAL.0>
10.8172

>  <SCORE.INTRA.POLAR>
0

>  <SCORE.INTRA.POLAR.0>
0

>  <SCORE.INTRA.REPUL>
0

>  <SCORE.INTRA.REPUL.0>
0

>  <SCORE.INTRA.SOLV>
-2.27649

>  <SCORE.INTRA.SOLV.lig_0>
-80.3833

>  <SCORE.INTRA.VDW>
2.64198

>  <SCORE.INTRA.VDW.0>
-4.63762

>  <SCORE.INTRA.norm>
0.0204589

>  <SCORE.RESTR>
0.00748996

>  <SCORE.RESTR.CAVITY>
0.00748996

>  <SCORE.RESTR.norm>
0.000241612

>  <SCORE.SYSTEM>
0

>  <SCORE.SYSTEM.CONST>
0

>  <SCORE.SYSTEM.DIHEDRAL>
0

>  <SCORE.SYSTEM.SOLV>
0

>  <SCORE.SYSTEM.norm>
0

>  <SCORE.heavy>
31

>  <SCORE.norm>
-0.220572

>  <RMSD>
7.607

$$$$
ligand
 OpenBabel11021811473D
libRbt.so/2013.1/901 2013/11/27
 31 33  0  0  0  0  0  0  0  0999 V2000
   14.2273    1.7149   11.5427 C   0  0  0  0  0  0  0  0  0  0  0  0
   21.5914    3.6179   15.8662 N   0  0  0  0  0  0  0  0  0  0  0  0
   13.8125    3.0704   11.3442 O   0  0  0  0  0  0  0  0  0  0  0  0
   15.7494    1.6060   11.4222 C   0  0  1  0  0  0  0  0  0  0  0  0
   17.4413    4.7978   18.1658 N   0  0  0  0  0  0  0  0  0  0  0  0
   16.3847    2.2879   12.5212 O   0  0  0  0  0  0  0  0  0  0  0  0
   17.2766    1.3690   13.1769 C   0  0  1  0  0  0  0  0  0  0  0  0
   14.5414    2.1328   19.7165 N   0  0  0  0  0  0  0  0  0  0  0  0
   17.3516    1.6176   14.5895 O   0  0  0  0  0  0  0  0  0  0  0  0
   17.9633    2.8721   14.9242 C   0  0  2  0  0  0  0  0  0  0  0  0
   14.3664    4.3743   13.6229 N   0  0  0  0  0  0  0  0  0  0  0  0
   20.0724    2.1944   13.9571 O   0  0  0  0  0  0  0  0  0  0  0  0
   19.4503    2.5998   15.1794 C   0  0  1  0  0  0  0  0  0  0  0  0
   15.9632    3.9611   15.8701 O   0  0  0  0  0  0  0  0  0  0  0  0
   20.1484    3.8546   15.7076 C   0  0  1  0  0  0  0  0  0  0  0  0
   14.4778    2.3608   16.7479 O   0  0  0  0  0  0  0  0  0  0  0  0
   19.5300    4.2441   17.0505 C   0  0  0  0  0  0  0  0  0  0  0  0
   12.0621    4.8874   17.8692 O   0  0  0  0  0  0  0  0  0  0  0  0
   18.0474    4.5688   16.8454 C   0  0  1  0  0  0  0  0  0  0  0  0
   11.9133    5.1018   15.0063 O   0  0  0  0  0  0  0  0  0  0  0  0
   17.2710    3.4374   16.1607 C   0  0  2  0  0  0  0  0  0  0  0  0
   17.5029   -1.0813   13.1284 O   0  0  0  0  0  0  0  0  0  0  0  0
   14.9770    2.9697   15.5427 C   0  0  1  0  0  0  0  0  0  0  0  0
   17.3029   -0.1449   10.6624 O   0  0  0  0  0  0  0  0  0  0  0  0
   13.8537    3.2813   17.6591 C   0  0  2  0  0  0  0  0  0  0  0  0
   13.3805    2.5175   18.8981 C   0  0  0  0  0  0  0  0  0  0  0  0
   12.6422    3.9263   16.9833 C   0  0  2  0  0  0  0  0  0  0  0  0
   13.0753    4.6246   15.6926 C   0  0  1  0  0  0  0  0  0  0  0  0
   13.8313    3.6498   14.7858 C   0  0  1  0  0  0  0  0  0  0  0  0
   16.6019    0.0159   12.9616 C   0  0  2  0  0  0  0  0  0  0  0  0
   16.1796    0.1384   11.5005 C   0  0  1  0  0  0  0  0  0  0  0  0
  1  3  1  0  0  0  0
  4  1  1  1  0  0  0
  4  6  1  0  0  0  0
  4 31  1  0  0  0  0
  6  7  1  0  0  0  0
  7  9  1  1  0  0  0
  7 30  1  0  0  0  0
  8 26  1  0  0  0  0
 10  9  1  1  0  0  0
 10 13  1  0  0  0  0
 10 21  1  0  0  0  0
 13 12  1  6  0  0  0
 13 15  1  0  0  0  0
 15  2  1  1  0  0  0
 15 17  1  0  0  0  0
 16 25  1  0  0  0  0
 16 23  1  0  0  0  0
 17 19  1  0  0  0  0
 19  5  1  1  0  0  0
 19 21  1  0  0  0  0
 21 14  1  6  0  0  0
 23 14  1  1  0  0  0
 23 29  1  0  0  0  0
 25 26  1  1  0  0  0
 25 27  1  0  0  0  0
 27 18  1  1  0  0  0
 27 28  1  0  0  0  0
 28 20  1  6  0  0  0
 28 29  1  0  0  0  0
 29 11  1  6  0  0  0
 30 22  1  6  0  0  0
 30 31  1  0  0  0  0
 31 24  1  6  0  0  0
M  END
>  <CHROM.1>
67.76322837,-66.66035512,-94.20275659,79.88236217,69.78692932,72.48177270
16.07386820,2.77632058,14.96902397,0.87096635,0.10297091,-2.02857834

>  <Name>
ligand

>  <RI>
0

>  <Rbt.Current_Directory>
/home/itssahil/PROJECTS/Mol_Feturizer/New_Systems/rnas/3DVV

>  <Rbt.Executable>
rbdock ($Id: //depot/dev/client3/rdock/2013.1/src/exe/rbdock.cxx#4 $)

>  <Rbt.Library>
libRbt.so (2013.1, Build901 2013/11/27)

>  <Rbt.Parameter_File>
/export/apps/rDock/src/rDock_2013.1_src/data/scripts/dock_solv.prm

>  <Rbt.Receptor>
prm/pocket_docking_6.prm

>  <SCORE>
-5.68281

>  <SCORE.INTER>
-4.35055

>  <SCORE.INTER.CONST>
1

>  <SCORE.INTER.POLAR>
0

>  <SCORE.INTER.ROT>
6

>  <SCORE.INTER.SOLV>
15.3596

>  <SCORE.INTER.VDW>
-15.6202

>  <SCORE.INTER.norm>
-0.14034

>  <SCORE.INTRA>
-1.33226

>  <SCORE.INTRA.DIHEDRAL>
-2.95752

>  <SCORE.INTRA.DIHEDRAL.0>
10.8172

>  <SCORE.INTRA.POLAR>
0

>  <SCORE.INTRA.POLAR.0>
0

>  <SCORE.INTRA.REPUL>
0

>  <SCORE.INTRA.REPUL.0>
0

>  <SCORE.INTRA.SOLV>
-0.685862

>  <SCORE.INTRA.SOLV.lig_0>
-80.3833

>  <SCORE.INTRA.VDW>
0.489431

>  <SCORE.INTRA.VDW.0>
-4.63762

>  <SCORE.INTRA.norm>
-0.0429761

>  <SCORE.RESTR>
0

>  <SCORE.RESTR.CAVITY>
0

>  <SCORE.RESTR.norm>
0

>  <SCORE.SYSTEM>
0

>  <SCORE.SYSTEM.CONST>
0

>  <SCORE.SYSTEM.DIHEDRAL>
0

>  <SCORE.SYSTEM.SOLV>
0

>  <SCORE.SYSTEM.norm>
0

>  <SCORE.heavy>
31

>  <SCORE.norm>
-0.183316

>  <RMSD>
7.610

$$$$
ligand
 OpenBabel11021811473D
libRbt.so/2013.1/901 2013/11/27
 31 33  0  0  0  0  0  0  0  0999 V2000
   22.9590    7.0889   16.4560 C   0  0  0  0  0  0  0  0  0  0  0  0
   16.3344   11.2359   19.6582 N   0  0  0  0  0  0  0  0  0  0  0  0
   23.5797    6.0331   17.1969 O   0  0  0  0  0  0  0  0  0  0  0  0
   21.6015    6.6289   15.9187 C   0  0  1  0  0  0  0  0  0  0  0  0
   14.4633    6.7190   19.6608 N   0  0  0  0  0  0  0  0  0  0  0  0
   20.7175    6.3092   17.0108 O   0  0  0  0  0  0  0  0  0  0  0  0
   19.5054    7.0689   16.8570 C   0  0  1  0  0  0  0  0  0  0  0  0
   14.8798    2.6449   21.2022 N   0  0  0  0  0  0  0  0  0  0  0  0
   18.9410    7.4322   18.1268 O   0  0  0  0  0  0  0  0  0  0  0  0
   17.6417    8.0344   18.0309 C   0  0  2  0  0  0  0  0  0  0  0  0
   16.8835    4.5892   15.2928 N   0  0  0  0  0  0  0  0  0  0  0  0
   18.5678   10.2580   18.2320 O   0  0  0  0  0  0  0  0  0  0  0  0
   17.6773    9.3275   18.8537 C   0  0  1  0  0  0  0  0  0  0  0  0
   16.3558    5.9632   17.6601 O   0  0  0  0  0  0  0  0  0  0  0  0
   16.2827    9.9500   18.9460 C   0  0  1  0  0  0  0  0  0  0  0  0
   17.3411    4.2749   18.9703 O   0  0  0  0  0  0  0  0  0  0  0  0
   15.3500    8.9832   19.6759 C   0  0  0  0  0  0  0  0  0  0  0  0
   14.4643    2.0197   18.6319 O   0  0  0  0  0  0  0  0  0  0  0  0
   15.2445    7.6838   18.8721 C   0  0  1  0  0  0  0  0  0  0  0  0
   15.5088    2.1129   15.9551 O   0  0  0  0  0  0  0  0  0  0  0  0
   16.6074    7.0499   18.5682 C   0  0  2  0  0  0  0  0  0  0  0  0
   18.9154    9.0424   15.5098 O   0  0  0  0  0  0  0  0  0  0  0  0
   17.3417    4.9191   17.6829 C   0  0  1  0  0  0  0  0  0  0  0  0
   20.1887    7.2742   14.0099 O   0  0  0  0  0  0  0  0  0  0  0  0
   16.0869    3.6685   19.3260 C   0  0  2  0  0  0  0  0  0  0  0  0
   16.2122    3.0334   20.7128 C   0  0  0  0  0  0  0  0  0  0  0  0
   15.7419    2.5767   18.3115 C   0  0  2  0  0  0  0  0  0  0  0  0
   15.6960    3.1701   16.9019 C   0  0  1  0  0  0  0  0  0  0  0  0
   17.0035    3.9020   16.5878 C   0  0  1  0  0  0  0  0  0  0  0  0
   19.9791    8.3421   16.1590 C   0  0  2  0  0  0  0  0  0  0  0  0
   20.9390    7.7594   15.1261 C   0  0  1  0  0  0  0  0  0  0  0  0
  1  3  1  0  0  0  0
  4  1  1  1  0  0  0
  4  6  1  0  0  0  0
  4 31  1  0  0  0  0
  6  7  1  0  0  0  0
  7  9  1  1  0  0  0
  7 30  1  0  0  0  0
  8 26  1  0  0  0  0
 10  9  1  1  0  0  0
 10 13  1  0  0  0  0
 10 21  1  0  0  0  0
 13 12  1  6  0  0  0
 13 15  1  0  0  0  0
 15  2  1  1  0  0  0
 15 17  1  0  0  0  0
 16 25  1  0  0  0  0
 16 23  1  0  0  0  0
 17 19  1  0  0  0  0
 19  5  1  1  0  0  0
 19 21  1  0  0  0  0
 21 14  1  6  0  0  0
 23 14  1  1  0  0  0
 23 29  1  0  0  0  0
 25 26  1  1  0  0  0
 25 27  1  0  0  0  0
 27 18  1  1  0  0  0
 27 28  1  0  0  0  0
 28 20  1  6  0  0  0
 28 29  1  0  0  0  0
 29 11  1  6  0  0  0
 30 22  1  6  0  0  0
 30 31  1  0  0  0  0
 31 24  1  6  0  0  0
M  END
>  <CHROM.1>
62.36505317,-172.11822262,-129.76885749,64.42942511,79.59232880,168.92310293
17.74526894,6.27897981,17.72277167,-0.59411767,-0.54714974,-2.94643170

>  <Name>
ligand

>  <RI>
0

>  <Rbt.Current_Directory>
/home/itssahil/PROJECTS/Mol_Feturizer/New_Systems/rnas/3DVV

>  <Rbt.Executable>
rbdock ($Id: //depot/dev/client3/rdock/2013.1/src/exe/rbdock.cxx#4 $)

>  <Rbt.Library>
libRbt.so (2013.1, Build901 2013/11/27)

>  <Rbt.Parameter_File>
/export/apps/rDock/src/rDock_2013.1_src/data/scripts/dock_solv.prm

>  <Rbt.Receptor>
prm/pocket_docking_7.prm

>  <SCORE>
-8.34828

>  <SCORE.INTER>
-7.93418

>  <SCORE.INTER.CONST>
1

>  <SCORE.INTER.POLAR>
0

>  <SCORE.INTER.ROT>
6

>  <SCORE.INTER.SOLV>
16.0149

>  <SCORE.INTER.VDW>
-18.2277

>  <SCORE.INTER.norm>
-0.255941

>  <SCORE.INTRA>
-0.4141

>  <SCORE.INTRA.DIHEDRAL>
-1.28549

>  <SCORE.INTRA.DIHEDRAL.0>
10.8172

>  <SCORE.INTRA.POLAR>
0

>  <SCORE.INTRA.POLAR.0>
0

>  <SCORE.INTRA.REPUL>
0

>  <SCORE.INTRA.REPUL.0>
0

>  <SCORE.INTRA.SOLV>
-1.65376

>  <SCORE.INTRA.SOLV.lig_0>
-80.3833

>  <SCORE.INTRA.VDW>
1.05552

>  <SCORE.INTRA.VDW.0>
-4.63762

>  <SCORE.INTRA.norm>
-0.0133581

>  <SCORE.RESTR>
0

>  <SCORE.RESTR.CAVITY>
0

>  <SCORE.RESTR.norm>
0

>  <SCORE.SYSTEM>
0

>  <SCORE.SYSTEM.CONST>
0

>  <SCORE.SYSTEM.DIHEDRAL>
0

>  <SCORE.SYSTEM.SOLV>
0

>  <SCORE.SYSTEM.norm>
0

>  <SCORE.heavy>
31

>  <SCORE.norm>
-0.269299

>  <RMSD>
7.626

$$$$
ligand
 OpenBabel11021811473D
libRbt.so/2013.1/901 2013/11/27
 31 33  0  0  0  0  0  0  0  0999 V2000
   19.6654    6.8742   13.3450 C   0  0  0  0  0  0  0  0  0  0  0  0
   17.0323   11.1848   19.1312 N   0  0  0  0  0  0  0  0  0  0  0  0
   20.5787    6.8217   12.2441 O   0  0  0  0  0  0  0  0  0  0  0  0
   20.2483    7.7283   14.4737 C   0  0  1  0  0  0  0  0  0  0  0  0
   14.6719    6.9908   19.9930 N   0  0  0  0  0  0  0  0  0  0  0  0
   19.2653    7.9202   15.5097 O   0  0  0  0  0  0  0  0  0  0  0  0
   19.8301    7.4936   16.7622 C   0  0  1  0  0  0  0  0  0  0  0  0
   17.3952    4.2034   21.7520 N   0  0  0  0  0  0  0  0  0  0  0  0
   18.8341    6.9295   17.6298 O   0  0  0  0  0  0  0  0  0  0  0  0
   17.6208    7.6939   17.6910 C   0  0  2  0  0  0  0  0  0  0  0  0
   15.7822    4.2180   15.5141 N   0  0  0  0  0  0  0  0  0  0  0  0
   18.8257    9.7770   17.4637 O   0  0  0  0  0  0  0  0  0  0  0  0
   17.9638    9.0416   18.3365 C   0  0  1  0  0  0  0  0  0  0  0  0
   16.0513    5.7948   17.7970 O   0  0  0  0  0  0  0  0  0  0  0  0
   16.6954    9.8569   18.5959 C   0  0  1  0  0  0  0  0  0  0  0  0
   17.3317    4.1534   18.8946 O   0  0  0  0  0  0  0  0  0  0  0  0
   15.8082    9.1017   19.5859 C   0  0  0  0  0  0  0  0  0  0  0  0
   14.4137    2.0559   19.6442 O   0  0  0  0  0  0  0  0  0  0  0  0
   15.4000    7.7594   18.9720 C   0  0  1  0  0  0  0  0  0  0  0  0
   14.5919    1.8852   16.7799 O   0  0  0  0  0  0  0  0  0  0  0  0
   16.5964    6.9171   18.5127 C   0  0  2  0  0  0  0  0  0  0  0  0
   21.7828    6.1133   17.3451 O   0  0  0  0  0  0  0  0  0  0  0  0
   16.9606    4.6981   17.6147 C   0  0  1  0  0  0  0  0  0  0  0  0
   22.4616    7.9169   15.5329 O   0  0  0  0  0  0  0  0  0  0  0  0
   16.2263    3.6518   19.6651 C   0  0  2  0  0  0  0  0  0  0  0  0
   16.7480    3.1161   21.0006 C   0  0  0  0  0  0  0  0  0  0  0  0
   15.5503    2.5097   18.9044 C   0  0  2  0  0  0  0  0  0  0  0  0
   15.0959    2.9973   17.5272 C   0  0  1  0  0  0  0  0  0  0  0  0
   16.2689    3.6239   16.7687 C   0  0  1  0  0  0  0  0  0  0  0  0
   20.7933    6.3827   16.3492 C   0  0  2  0  0  0  0  0  0  0  0  0
   21.4380    7.0095   15.1165 C   0  0  1  0  0  0  0  0  0  0  0  0
  1  3  1  0  0  0  0
  4  1  1  6  0  0  0
  4  6  1  0  0  0  0
  4 31  1  0  0  0  0
  6  7  1  0  0  0  0
  7  9  1  1  0  0  0
  7 30  1  0  0  0  0
  8 26  1  0  0  0  0
 10  9  1  1  0  0  0
 10 13  1  0  0  0  0
 10 21  1  0  0  0  0
 13 12  1  6  0  0  0
 13 15  1  0  0  0  0
 15  2  1  1  0  0  0
 15 17  1  0  0  0  0
 16 25  1  0  0  0  0
 16 23  1  0  0  0  0
 17 19  1  0  0  0  0
 19  5  1  1  0  0  0
 19 21  1  0  0  0  0
 21 14  1  6  0  0  0
 23 14  1  1  0  0  0
 23 29  1  0  0  0  0
 25 26  1  1  0  0  0
 25 27  1  0  0  0  0
 27 18  1  1  0  0  0
 27 28  1  0  0  0  0
 28 20  1  6  0  0  0
 28 29  1  0  0  0  0
 29 11  1  6  0  0  0
 30 22  1  1  0  0  0
 30 31  1  0  0  0  0
 31 24  1  1  0  0  0
M  END
>  <CHROM.1>
172.82668599,-44.95351345,-65.26706989,63.05649050,71.54114154,60.90242593
17.71019574,6.19386202,17.53364267,-0.36340182,-0.79541765,-2.76512805

>  <Name>
ligand

>  <RI>
0

>  <Rbt.Current_Directory>
/home/itssahil/PROJECTS/Mol_Feturizer/New_Systems/rnas/3DVV

>  <Rbt.Executable>
rbdock ($Id: //depot/dev/client3/rdock/2013.1/src/exe/rbdock.cxx#4 $)

>  <Rbt.Library>
libRbt.so (2013.1, Build901 2013/11/27)

>  <Rbt.Parameter_File>
/export/apps/rDock/src/rDock_2013.1_src/data/scripts/dock_solv.prm

>  <Rbt.Receptor>
prm/pocket_docking_6.prm

>  <SCORE>
-7.8608

>  <SCORE.INTER>
-5.42594

>  <SCORE.INTER.CONST>
1

>  <SCORE.INTER.POLAR>
0

>  <SCORE.INTER.ROT>
6

>  <SCORE.INTER.SOLV>
17.2847

>  <SCORE.INTER.VDW>
-16.9789

>  <SCORE.INTER.norm>
-0.17503

>  <SCORE.INTRA>
-2.43486

>  <SCORE.INTRA.DIHEDRAL>
-8.54627

>  <SCORE.INTRA.DIHEDRAL.0>
10.8172

>  <SCORE.INTRA.POLAR>
0

>  <SCORE.INTRA.POLAR.0>
0

>  <SCORE.INTRA.REPUL>
0

>  <SCORE.INTRA.REPUL.0>
0

>  <SCORE.INTRA.SOLV>
-3.58555

>  <SCORE.INTRA.SOLV.lig_0>
-80.3833

>  <SCORE.INTRA.VDW>
3.63105

>  <SCORE.INTRA.VDW.0>
-4.63762

>  <SCORE.INTRA.norm>
-0.0785438

>  <SCORE.RESTR>
0

>  <SCORE.RESTR.CAVITY>
0

>  <SCORE.RESTR.norm>
0

>  <SCORE.SYSTEM>
0

>  <SCORE.SYSTEM.CONST>
0

>  <SCORE.SYSTEM.DIHEDRAL>
0

>  <SCORE.SYSTEM.SOLV>
0

>  <SCORE.SYSTEM.norm>
0

>  <SCORE.heavy>
31

>  <SCORE.norm>
-0.253574

>  <RMSD>
7.627

$$$$
ligand
 OpenBabel11021811473D
libRbt.so/2013.1/901 2013/11/27
 31 33  0  0  0  0  0  0  0  0999 V2000
   16.0809    5.3494   13.8244 C   0  0  0  0  0  0  0  0  0  0  0  0
   12.8505    1.6347   20.8597 N   0  0  0  0  0  0  0  0  0  0  0  0
   16.1117    5.3010   12.3941 O   0  0  0  0  0  0  0  0  0  0  0  0
   15.2621    4.1788   14.3743 C   0  0  1  0  0  0  0  0  0  0  0  0
   14.5587    6.0696   22.0073 N   0  0  0  0  0  0  0  0  0  0  0  0
   15.2250    4.2316   15.8138 O   0  0  0  0  0  0  0  0  0  0  0  0
   13.8503    4.2146   16.2379 C   0  0  1  0  0  0  0  0  0  0  0  0
   11.9803    9.0011   19.8985 N   0  0  0  0  0  0  0  0  0  0  0  0
   13.6534    4.9852   17.4338 O   0  0  0  0  0  0  0  0  0  0  0  0
   14.2341    4.3932   18.6052 C   0  0  2  0  0  0  0  0  0  0  0  0
   17.7784    7.0637   17.8398 N   0  0  0  0  0  0  0  0  0  0  0  0
   13.2160    2.2535   18.1280 O   0  0  0  0  0  0  0  0  0  0  0  0
   13.2681    3.3075   19.0934 C   0  0  1  0  0  0  0  0  0  0  0  0
   15.5393    6.3522   19.3401 O   0  0  0  0  0  0  0  0  0  0  0  0
   13.7272    2.7374   20.4369 C   0  0  1  0  0  0  0  0  0  0  0  0
   14.2385    8.0655   18.3858 O   0  0  0  0  0  0  0  0  0  0  0  0
   13.7123    3.8507   21.4847 C   0  0  0  0  0  0  0  0  0  0  0  0
   15.8172   10.6960   20.4018 O   0  0  0  0  0  0  0  0  0  0  0  0
   14.6958    4.9476   21.0663 C   0  0  1  0  0  0  0  0  0  0  0  0
   17.9651    9.8377   18.6946 O   0  0  0  0  0  0  0  0  0  0  0  0
   14.4364    5.4836   19.6531 C   0  0  2  0  0  0  0  0  0  0  0  0
   11.7233    4.6264   15.0699 O   0  0  0  0  0  0  0  0  0  0  0  0
   15.3482    7.1725   18.1767 C   0  0  1  0  0  0  0  0  0  0  0  0
   13.2349    2.9915   13.6416 O   0  0  0  0  0  0  0  0  0  0  0  0
   14.4021    8.9587   19.5005 C   0  0  2  0  0  0  0  0  0  0  0  0
   13.1573    9.8406   19.6234 C   0  0  0  0  0  0  0  0  0  0  0  0
   15.6202    9.8532   19.2634 C   0  0  2  0  0  0  0  0  0  0  0  0
   16.8665    8.9915   19.0501 C   0  0  1  0  0  0  0  0  0  0  0  0
   16.6287    7.9768   17.9287 C   0  0  1  0  0  0  0  0  0  0  0  0
   13.1236    4.9130   15.0904 C   0  0  2  0  0  0  0  0  0  0  0  0
   13.8133    4.2758   13.8878 C   0  0  1  0  0  0  0  0  0  0  0  0
  1  3  1  0  0  0  0
  4  1  1  6  0  0  0
  4  6  1  0  0  0  0
  4 31  1  0  0  0  0
  6  7  1  0  0  0  0
  7  9  1  1  0  0  0
  7 30  1  0  0  0  0
  8 26  1  0  0  0  0
 10  9  1  6  0  0  0
 10 13  1  0  0  0  0
 10 21  1  0  0  0  0
 13 12  1  6  0  0  0
 13 15  1  0  0  0  0
 15  2  1  1  0  0  0
 15 17  1  0  0  0  0
 16 25  1  0  0  0  0
 16 23  1  0  0  0  0
 17 19  1  0  0  0  0
 19  5  1  1  0  0  0
 19 21  1  0  0  0  0
 21 14  1  6  0  0  0
 23 14  1  1  0  0  0
 23 29  1  0  0  0  0
 25 26  1  6  0  0  0
 25 27  1  0  0  0  0
 27 18  1  1  0  0  0
 27 28  1  0  0  0  0
 28 20  1  6  0  0  0
 28 29  1  0  0  0  0
 29 11  1  1  0  0  0
 30 22  1  6  0  0  0
 30 31  1  0  0  0  0
 31 24  1  1  0  0  0
M  END
>  <CHROM.1>
-179.68987030,-70.03482270,-80.24602284,62.81176746,67.07449177,62.49558262
14.58598480,5.92510160,17.92556465,-2.04250279,1.11186179,1.17887912

>  <Name>
ligand

>  <RI>
0

>  <Rbt.Current_Directory>
/home/itssahil/PROJECTS/Mol_Feturizer/New_Systems/rnas/3DVV

>  <Rbt.Executable>
rbdock ($Id: //depot/dev/client3/rdock/2013.1/src/exe/rbdock.cxx#4 $)

>  <Rbt.Library>
libRbt.so (2013.1, Build901 2013/11/27)

>  <Rbt.Parameter_File>
/export/apps/rDock/src/rDock_2013.1_src/data/scripts/dock_solv.prm

>  <Rbt.Receptor>
prm/pocket_docking_8.prm

>  <SCORE>
-4.69468

>  <SCORE.INTER>
-0.470811

>  <SCORE.INTER.CONST>
1

>  <SCORE.INTER.POLAR>
0

>  <SCORE.INTER.ROT>
6

>  <SCORE.INTER.SOLV>
10.2996

>  <SCORE.INTER.VDW>
-11.3471

>  <SCORE.INTER.norm>
-0.0151875

>  <SCORE.INTRA>
-4.22387

>  <SCORE.INTRA.DIHEDRAL>
-7.94015

>  <SCORE.INTRA.DIHEDRAL.0>
10.8172

>  <SCORE.INTRA.POLAR>
0

>  <SCORE.INTRA.POLAR.0>
0

>  <SCORE.INTRA.REPUL>
0

>  <SCORE.INTRA.REPUL.0>
0

>  <SCORE.INTRA.SOLV>
-4.18359

>  <SCORE.INTRA.SOLV.lig_0>
-80.3833

>  <SCORE.INTRA.VDW>
1.838

>  <SCORE.INTRA.VDW.0>
-4.63762

>  <SCORE.INTRA.norm>
-0.136254

>  <SCORE.RESTR>
0

>  <SCORE.RESTR.CAVITY>
0

>  <SCORE.RESTR.norm>
0

>  <SCORE.SYSTEM>
0

>  <SCORE.SYSTEM.CONST>
0

>  <SCORE.SYSTEM.DIHEDRAL>
0

>  <SCORE.SYSTEM.SOLV>
0

>  <SCORE.SYSTEM.norm>
0

>  <SCORE.heavy>
31

>  <SCORE.norm>
-0.151441

>  <RMSD>
7.630

$$$$
ligand
 OpenBabel11021811473D
libRbt.so/2013.1/901 2013/11/27
 31 33  0  0  0  0  0  0  0  0999 V2000
   19.4341    1.3399   14.0162 C   0  0  0  0  0  0  0  0  0  0  0  0
   20.2022    9.3771   11.5836 N   0  0  0  0  0  0  0  0  0  0  0  0
   18.8456    1.0164   12.7521 O   0  0  0  0  0  0  0  0  0  0  0  0
   20.4015    2.5161   13.8622 C   0  0  1  0  0  0  0  0  0  0  0  0
   15.4746    8.5480   12.5143 N   0  0  0  0  0  0  0  0  0  0  0  0
   19.6998    3.6757   13.3731 O   0  0  0  0  0  0  0  0  0  0  0  0
   19.9378    4.7702   14.2760 C   0  0  1  0  0  0  0  0  0  0  0  0
   15.3414    7.9756   16.9202 N   0  0  0  0  0  0  0  0  0  0  0  0
   18.8020    5.6451   14.3620 O   0  0  0  0  0  0  0  0  0  0  0  0
   18.5021    6.3256   13.1343 C   0  0  2  0  0  0  0  0  0  0  0  0
   15.1988    3.2333   12.5075 N   0  0  0  0  0  0  0  0  0  0  0  0
   20.8246    6.9005   12.7909 O   0  0  0  0  0  0  0  0  0  0  0  0
   19.5222    7.4598   12.9815 C   0  0  1  0  0  0  0  0  0  0  0  0
   16.0906    5.8146   13.0661 O   0  0  0  0  0  0  0  0  0  0  0  0
   19.1738    8.3445   11.7829 C   0  0  1  0  0  0  0  0  0  0  0  0
   15.8045    5.5136   15.3825 O   0  0  0  0  0  0  0  0  0  0  0  0
   17.8128    8.9987   12.0221 C   0  0  0  0  0  0  0  0  0  0  0  0
   12.1568    5.8886   15.2093 O   0  0  0  0  0  0  0  0  0  0  0  0
   16.7449    7.9075   12.1410 C   0  0  1  0  0  0  0  0  0  0  0  0
   12.6026    3.4196   13.8058 O   0  0  0  0  0  0  0  0  0  0  0  0
   17.0732    6.8555   13.2074 C   0  0  2  0  0  0  0  0  0  0  0  0
   20.7905    4.8955   16.5814 O   0  0  0  0  0  0  0  0  0  0  0  0
   16.0752    4.8527   14.1326 C   0  0  1  0  0  0  0  0  0  0  0  0
   22.3494    3.3297   15.1269 O   0  0  0  0  0  0  0  0  0  0  0  0
   14.5421    6.2003   15.4254 C   0  0  2  0  0  0  0  0  0  0  0  0
   14.3806    6.8683   16.7929 C   0  0  0  0  0  0  0  0  0  0  0  0
   13.4067    5.1939   15.2296 C   0  0  2  0  0  0  0  0  0  0  0  0
   13.5928    4.4485   13.9064 C   0  0  1  0  0  0  0  0  0  0  0  0
   14.9853    3.8157   13.8412 C   0  0  1  0  0  0  0  0  0  0  0  0
   20.1139    4.0763   15.6251 C   0  0  2  0  0  0  0  0  0  0  0  0
   20.9911    2.8941   15.2240 C   0  0  1  0  0  0  0  0  0  0  0  0
  1  3  1  0  0  0  0
  4  1  1  1  0  0  0
  4  6  1  0  0  0  0
  4 31  1  0  0  0  0
  6  7  1  0  0  0  0
  7  9  1  1  0  0  0
  7 30  1  0  0  0  0
  8 26  1  0  0  0  0
 10  9  1  1  0  0  0
 10 13  1  0  0  0  0
 10 21  1  0  0  0  0
 13 12  1  6  0  0  0
 13 15  1  0  0  0  0
 15  2  1  1  0  0  0
 15 17  1  0  0  0  0
 16 25  1  0  0  0  0
 16 23  1  0  0  0  0
 17 19  1  0  0  0  0
 19  5  1  1  0  0  0
 19 21  1  0  0  0  0
 21 14  1  6  0  0  0
 23 14  1  6  0  0  0
 23 29  1  0  0  0  0
 25 26  1  1  0  0  0
 25 27  1  0  0  0  0
 27 18  1  6  0  0  0
 27 28  1  0  0  0  0
 28 20  1  1  0  0  0
 28 29  1  0  0  0  0
 29 11  1  6  0  0  0
 30 22  1  1  0  0  0
 30 31  1  0  0  0  0
 31 24  1  6  0  0  0
M  END
>  <CHROM.1>
60.28183718,-64.96972607,-76.69451000,59.67939607,65.48834597,68.79800772
17.46151774,5.38644267,14.00042299,0.19249243,-0.13388062,2.86359464

>  <Name>
ligand

>  <RI>
0

>  <Rbt.Current_Directory>
/home/itssahil/PROJECTS/Mol_Feturizer/New_Systems/rnas/3DVV

>  <Rbt.Executable>
rbdock ($Id: //depot/dev/client3/rdock/2013.1/src/exe/rbdock.cxx#4 $)

>  <Rbt.Library>
libRbt.so (2013.1, Build901 2013/11/27)

>  <Rbt.Parameter_File>
/export/apps/rDock/src/rDock_2013.1_src/data/scripts/dock_solv.prm

>  <Rbt.Receptor>
prm/pocket_docking_7.prm

>  <SCORE>
-5.68611

>  <SCORE.INTER>
-1.20166

>  <SCORE.INTER.CONST>
1

>  <SCORE.INTER.POLAR>
0

>  <SCORE.INTER.ROT>
6

>  <SCORE.INTER.SOLV>
12.4965

>  <SCORE.INTER.VDW>
-12.5666

>  <SCORE.INTER.norm>
-0.0387631

>  <SCORE.INTRA>
-4.48445

>  <SCORE.INTRA.DIHEDRAL>
-8.71698

>  <SCORE.INTRA.DIHEDRAL.0>
10.8172

>  <SCORE.INTRA.POLAR>
0

>  <SCORE.INTRA.POLAR.0>
0

>  <SCORE.INTRA.REPUL>
0

>  <SCORE.INTRA.REPUL.0>
0

>  <SCORE.INTRA.SOLV>
-4.32869

>  <SCORE.INTRA.SOLV.lig_0>
-80.3833

>  <SCORE.INTRA.VDW>
2.03838

>  <SCORE.INTRA.VDW.0>
-4.63762

>  <SCORE.INTRA.norm>
-0.14466

>  <SCORE.RESTR>
0

>  <SCORE.RESTR.CAVITY>
0

>  <SCORE.RESTR.norm>
0

>  <SCORE.SYSTEM>
0

>  <SCORE.SYSTEM.CONST>
0

>  <SCORE.SYSTEM.DIHEDRAL>
0

>  <SCORE.SYSTEM.SOLV>
0

>  <SCORE.SYSTEM.norm>
0

>  <SCORE.heavy>
31

>  <SCORE.norm>
-0.183423

>  <RMSD>
7.631

$$$$
ligand
 OpenBabel11021811473D
libRbt.so/2013.1/901 2013/11/27
 31 33  0  0  0  0  0  0  0  0999 V2000
   18.6996    8.3829    9.1289 C   0  0  0  0  0  0  0  0  0  0  0  0
   20.5884    4.4233   16.6150 N   0  0  0  0  0  0  0  0  0  0  0  0
   19.9155    7.7188    8.7693 O   0  0  0  0  0  0  0  0  0  0  0  0
   18.4352    8.2239   10.6283 C   0  0  1  0  0  0  0  0  0  0  0  0
   20.3743    0.6872   13.4687 N   0  0  0  0  0  0  0  0  0  0  0  0
   18.2838    6.8300   10.9608 O   0  0  0  0  0  0  0  0  0  0  0  0
   19.2133    6.5054   12.0098 C   0  0  1  0  0  0  0  0  0  0  0  0
   21.4626    0.9094    7.5963 N   0  0  0  0  0  0  0  0  0  0  0  0
   19.6935    5.1565   11.8960 O   0  0  0  0  0  0  0  0  0  0  0  0
   19.3355    4.3198   13.0058 C   0  0  2  0  0  0  0  0  0  0  0  0
   16.4509    2.8179   10.2947 N   0  0  0  0  0  0  0  0  0  0  0  0
   19.6404    6.1324   14.5756 O   0  0  0  0  0  0  0  0  0  0  0  0
   20.1106    4.8273   14.2273 C   0  0  1  0  0  0  0  0  0  0  0  0
   18.7914    2.2908   11.7143 O   0  0  0  0  0  0  0  0  0  0  0  0
   19.9187    3.8882   15.4198 C   0  0  1  0  0  0  0  0  0  0  0  0
   20.0908    2.2799    9.7523 O   0  0  0  0  0  0  0  0  0  0  0  0
   20.4881    2.5128   15.0709 C   0  0  0  0  0  0  0  0  0  0  0  0
   18.9379   -1.0542    8.7373 O   0  0  0  0  0  0  0  0  0  0  0  0
   19.7186    1.9386   13.8777 C   0  0  1  0  0  0  0  0  0  0  0  0
   16.5555    0.5362    8.4937 O   0  0  0  0  0  0  0  0  0  0  0  0
   19.6973    2.8773   12.6652 C   0  0  2  0  0  0  0  0  0  0  0  0
   21.2145    7.6329   12.8940 O   0  0  0  0  0  0  0  0  0  0  0  0
   18.9054    2.8049   10.3781 C   0  0  1  0  0  0  0  0  0  0  0  0
   19.2324    9.3685   12.6556 O   0  0  0  0  0  0  0  0  0  0  0  0
   20.1174    0.8462    9.6485 C   0  0  2  0  0  0  0  0  0  0  0  0
   21.4263    0.4157    8.9821 C   0  0  0  0  0  0  0  0  0  0  0  0
   18.9452    0.3750    8.7859 C   0  0  2  0  0  0  0  0  0  0  0  0
   17.6261    0.8676    9.3844 C   0  0  1  0  0  0  0  0  0  0  0  0
   17.6639    2.3850    9.5841 C   0  0  1  0  0  0  0  0  0  0  0  0
   20.3800    7.4552   11.7470 C   0  0  2  0  0  0  0  0  0  0  0  0
   19.6300    8.7459   11.4314 C   0  0  1  0  0  0  0  0  0  0  0  0
  1  3  1  0  0  0  0
  4  1  1  6  0  0  0
  4  6  1  0  0  0  0
  4 31  1  0  0  0  0
  6  7  1  0  0  0  0
  7  9  1  6  0  0  0
  7 30  1  0  0  0  0
  8 26  1  0  0  0  0
 10  9  1  6  0  0  0
 10 13  1  0  0  0  0
 10 21  1  0  0  0  0
 13 12  1  1  0  0  0
 13 15  1  0  0  0  0
 15  2  1  1  0  0  0
 15 17  1  0  0  0  0
 16 25  1  0  0  0  0
 16 23  1  0  0  0  0
 17 19  1  0  0  0  0
 19  5  1  6  0  0  0
 19 21  1  0  0  0  0
 21 14  1  6  0  0  0
 23 14  1  1  0  0  0
 23 29  1  0  0  0  0
 25 26  1  6  0  0  0
 25 27  1  0  0  0  0
 27 18  1  1  0  0  0
 27 28  1  0  0  0  0
 28 20  1  6  0  0  0
 28 29  1  0  0  0  0
 29 11  1  1  0  0  0
 30 22  1  1  0  0  0
 30 31  1  0  0  0  0
 31 24  1  1  0  0  0
M  END
>  <CHROM.1>
-61.51026571,-116.92920461,-68.19485452,74.74351742,71.01645413,-64.96224159
19.40149244,4.00243248,11.40849159,1.22782999,-1.33717648,0.08462790

>  <Name>
ligand

>  <RI>
0

>  <Rbt.Current_Directory>
/home/itssahil/PROJECTS/Mol_Feturizer/New_Systems/rnas/3DVV

>  <Rbt.Executable>
rbdock ($Id: //depot/dev/client3/rdock/2013.1/src/exe/rbdock.cxx#4 $)

>  <Rbt.Library>
libRbt.so (2013.1, Build901 2013/11/27)

>  <Rbt.Parameter_File>
/export/apps/rDock/src/rDock_2013.1_src/data/scripts/dock_solv.prm

>  <Rbt.Receptor>
prm/blind_docking_60.prm

>  <SCORE>
-5.51375

>  <SCORE.INTER>
-6.82504

>  <SCORE.INTER.CONST>
1

>  <SCORE.INTER.POLAR>
0

>  <SCORE.INTER.ROT>
6

>  <SCORE.INTER.SOLV>
24.063

>  <SCORE.INTER.VDW>
-20.171

>  <SCORE.INTER.norm>
-0.220163

>  <SCORE.INTRA>
1.31129

>  <SCORE.INTRA.DIHEDRAL>
-1.69883

>  <SCORE.INTRA.DIHEDRAL.0>
10.8172

>  <SCORE.INTRA.POLAR>
0

>  <SCORE.INTRA.POLAR.0>
0

>  <SCORE.INTRA.REPUL>
0

>  <SCORE.INTRA.REPUL.0>
0

>  <SCORE.INTRA.SOLV>
-1.41236

>  <SCORE.INTRA.SOLV.lig_0>
-80.3833

>  <SCORE.INTRA.VDW>
2.86688

>  <SCORE.INTRA.VDW.0>
-4.63762

>  <SCORE.INTRA.norm>
0.0422997

>  <SCORE.RESTR>
0

>  <SCORE.RESTR.CAVITY>
0

>  <SCORE.RESTR.norm>
0

>  <SCORE.SYSTEM>
0

>  <SCORE.SYSTEM.CONST>
0

>  <SCORE.SYSTEM.DIHEDRAL>
0

>  <SCORE.SYSTEM.SOLV>
0

>  <SCORE.SYSTEM.norm>
0

>  <SCORE.heavy>
31

>  <SCORE.norm>
-0.177863

>  <RMSD>
7.632

$$$$
ligand
 OpenBabel11021811473D
libRbt.so/2013.1/901 2013/11/27
 31 33  0  0  0  0  0  0  0  0999 V2000
   18.6908    8.3951    9.1465 C   0  0  0  0  0  0  0  0  0  0  0  0
   20.6135    4.3879   16.6172 N   0  0  0  0  0  0  0  0  0  0  0  0
   19.8866    7.7053    8.7684 O   0  0  0  0  0  0  0  0  0  0  0  0
   18.4470    8.2428   10.6501 C   0  0  1  0  0  0  0  0  0  0  0  0
   20.2991    0.6775   13.4491 N   0  0  0  0  0  0  0  0  0  0  0  0
   18.2900    6.8512   10.9894 O   0  0  0  0  0  0  0  0  0  0  0  0
   19.2322    6.5229   12.0258 C   0  0  1  0  0  0  0  0  0  0  0  0
   21.4326    0.9118    7.6253 N   0  0  0  0  0  0  0  0  0  0  0  0
   19.7005    5.1700   11.9095 O   0  0  0  0  0  0  0  0  0  0  0  0
   19.3330    4.3338   13.0166 C   0  0  2  0  0  0  0  0  0  0  0  0
   16.4107    2.8587   10.2768 N   0  0  0  0  0  0  0  0  0  0  0  0
   19.6869    6.1295   14.5955 O   0  0  0  0  0  0  0  0  0  0  0  0
   20.1272    4.8172   14.2356 C   0  0  1  0  0  0  0  0  0  0  0  0
   18.7374    2.3250   11.7163 O   0  0  0  0  0  0  0  0  0  0  0  0
   19.9243    3.8746   15.4235 C   0  0  1  0  0  0  0  0  0  0  0  0
   20.0515    2.2980    9.7642 O   0  0  0  0  0  0  0  0  0  0  0  0
   20.4623    2.4900   15.0618 C   0  0  0  0  0  0  0  0  0  0  0  0
   18.8876   -1.0342    8.7554 O   0  0  0  0  0  0  0  0  0  0  0  0
   19.6726    1.9396   13.8706 C   0  0  1  0  0  0  0  0  0  0  0  0
   16.5160    0.5683    8.4869 O   0  0  0  0  0  0  0  0  0  0  0  0
   19.6622    2.8863   12.6643 C   0  0  2  0  0  0  0  0  0  0  0  0
   21.2545    7.6380   12.8772 O   0  0  0  0  0  0  0  0  0  0  0  0
   18.8644    2.8324   10.3787 C   0  0  1  0  0  0  0  0  0  0  0  0
   19.2823    9.3878   12.6618 O   0  0  0  0  0  0  0  0  0  0  0  0
   20.0709    0.8637    9.6670 C   0  0  2  0  0  0  0  0  0  0  0  0
   21.3823    0.4229    9.0124 C   0  0  0  0  0  0  0  0  0  0  0  0
   18.9026    0.3951    8.7977 C   0  0  2  0  0  0  0  0  0  0  0  0
   17.5817    0.8978    9.3841 C   0  0  1  0  0  0  0  0  0  0  0  0
   17.6265    2.4158    9.5773 C   0  0  1  0  0  0  0  0  0  0  0  0
   20.4021    7.4630   11.7430 C   0  0  2  0  0  0  0  0  0  0  0  0
   19.6573    8.7583   11.4340 C   0  0  1  0  0  0  0  0  0  0  0  0
  1  3  1  0  0  0  0
  4  1  1  6  0  0  0
  4  6  1  0  0  0  0
  4 31  1  0  0  0  0
  6  7  1  0  0  0  0
  7  9  1  6  0  0  0
  7 30  1  0  0  0  0
  8 26  1  0  0  0  0
 10  9  1  6  0  0  0
 10 13  1  0  0  0  0
 10 21  1  0  0  0  0
 13 12  1  1  0  0  0
 13 15  1  0  0  0  0
 15  2  1  1  0  0  0
 15 17  1  0  0  0  0
 16 25  1  0  0  0  0
 16 23  1  0  0  0  0
 17 19  1  0  0  0  0
 19  5  1  6  0  0  0
 19 21  1  0  0  0  0
 21 14  1  6  0  0  0
 23 14  1  1  0  0  0
 23 29  1  0  0  0  0
 25 26  1  6  0  0  0
 25 27  1  0  0  0  0
 27 18  1  1  0  0  0
 27 28  1  0  0  0  0
 28 20  1  6  0  0  0
 28 29  1  0  0  0  0
 29 11  1  1  0  0  0
 30 22  1  1  0  0  0
 30 31  1  0  0  0  0
 31 24  1  1  0  0  0
M  END
>  <CHROM.1>
-60.72589366,-115.93633964,-69.07672050,73.24966961,71.79802093,-64.88144324
19.38717937,4.01301931,11.41448633,1.19417992,-1.33059222,0.05066696

>  <Name>
ligand

>  <RI>
0

>  <Rbt.Current_Directory>
/home/itssahil/PROJECTS/Mol_Feturizer/New_Systems/rnas/3DVV

>  <Rbt.Executable>
rbdock ($Id: //depot/dev/client3/rdock/2013.1/src/exe/rbdock.cxx#4 $)

>  <Rbt.Library>
libRbt.so (2013.1, Build901 2013/11/27)

>  <Rbt.Parameter_File>
/export/apps/rDock/src/rDock_2013.1_src/data/scripts/dock_solv.prm

>  <Rbt.Receptor>
prm/blind_docking_80.prm

>  <SCORE>
-5.59259

>  <SCORE.INTER>
-6.70203

>  <SCORE.INTER.CONST>
1

>  <SCORE.INTER.POLAR>
0

>  <SCORE.INTER.ROT>
6

>  <SCORE.INTER.SOLV>
24.0431

>  <SCORE.INTER.VDW>
-20.0824

>  <SCORE.INTER.norm>
-0.216195

>  <SCORE.INTRA>
1.10944

>  <SCORE.INTRA.DIHEDRAL>
-1.7757

>  <SCORE.INTRA.DIHEDRAL.0>
10.8172

>  <SCORE.INTRA.POLAR>
0

>  <SCORE.INTRA.POLAR.0>
0

>  <SCORE.INTRA.REPUL>
0

>  <SCORE.INTRA.REPUL.0>
0

>  <SCORE.INTRA.SOLV>
-1.40289

>  <SCORE.INTRA.SOLV.lig_0>
-80.3833

>  <SCORE.INTRA.VDW>
2.69874

>  <SCORE.INTRA.VDW.0>
-4.63762

>  <SCORE.INTRA.norm>
0.0357885

>  <SCORE.RESTR>
0

>  <SCORE.RESTR.CAVITY>
0

>  <SCORE.RESTR.norm>
0

>  <SCORE.SYSTEM>
0

>  <SCORE.SYSTEM.CONST>
0

>  <SCORE.SYSTEM.DIHEDRAL>
0

>  <SCORE.SYSTEM.SOLV>
0

>  <SCORE.SYSTEM.norm>
0

>  <SCORE.heavy>
31

>  <SCORE.norm>
-0.180406

>  <RMSD>
7.633

$$$$
ligand
 OpenBabel11021811473D
libRbt.so/2013.1/901 2013/11/27
 31 33  0  0  0  0  0  0  0  0999 V2000
   22.3874    7.9385   15.6153 C   0  0  0  0  0  0  0  0  0  0  0  0
   19.6812   10.7780   10.7584 N   0  0  0  0  0  0  0  0  0  0  0  0
   22.6850    6.7082   14.9471 O   0  0  0  0  0  0  0  0  0  0  0  0
   20.8722    8.1316   15.7150 C   0  0  1  0  0  0  0  0  0  0  0  0
   15.3491    9.4196   12.5728 N   0  0  0  0  0  0  0  0  0  0  0  0
   20.2841    8.1341   14.3995 O   0  0  0  0  0  0  0  0  0  0  0  0
   19.2450    7.1399   14.3601 C   0  0  1  0  0  0  0  0  0  0  0  0
   13.4816    7.5254   16.6679 N   0  0  0  0  0  0  0  0  0  0  0  0
   19.1373    6.5347   13.0619 O   0  0  0  0  0  0  0  0  0  0  0  0
   18.5261    7.3822   12.0779 C   0  0  2  0  0  0  0  0  0  0  0  0
   15.6735    4.1171   11.5356 N   0  0  0  0  0  0  0  0  0  0  0  0
   20.6745    8.1953   11.3257 O   0  0  0  0  0  0  0  0  0  0  0  0
   19.4330    8.6061   11.9047 C   0  0  1  0  0  0  0  0  0  0  0  0
   16.1908    6.6927   12.4679 O   0  0  0  0  0  0  0  0  0  0  0  0
   18.7732    9.6455   10.9963 C   0  0  1  0  0  0  0  0  0  0  0  0
   16.2124    5.9784   14.7101 O   0  0  0  0  0  0  0  0  0  0  0  0
   17.4825   10.1367   11.6522 C   0  0  0  0  0  0  0  0  0  0  0  0
   12.5554    5.7199   14.8991 O   0  0  0  0  0  0  0  0  0  0  0  0
   16.5194    8.9567   11.8115 C   0  0  1  0  0  0  0  0  0  0  0  0
   13.2392    3.6271   13.0505 O   0  0  0  0  0  0  0  0  0  0  0  0
   17.1351    7.7731   12.5678 C   0  0  2  0  0  0  0  0  0  0  0  0
   18.6891    5.2276   15.8065 O   0  0  0  0  0  0  0  0  0  0  0  0
   16.4483    5.5853   13.3454 C   0  0  1  0  0  0  0  0  0  0  0  0
   19.1325    7.3770   17.2834 O   0  0  0  0  0  0  0  0  0  0  0  0
   14.8677    6.4131   14.9747 C   0  0  2  0  0  0  0  0  0  0  0  0
   14.7507    6.8138   16.4472 C   0  0  0  0  0  0  0  0  0  0  0  0
   13.8959    5.2651   14.6960 C   0  0  2  0  0  0  0  0  0  0  0  0
   14.0545    4.7865   13.2514 C   0  0  1  0  0  0  0  0  0  0  0  0
   15.5156    4.4309   12.9639 C   0  0  1  0  0  0  0  0  0  0  0  0
   19.7383    6.0818   15.3448 C   0  0  2  0  0  0  0  0  0  0  0  0
   20.2426    6.9652   16.4819 C   0  0  1  0  0  0  0  0  0  0  0  0
  1  3  1  0  0  0  0
  4  1  1  6  0  0  0
  4  6  1  0  0  0  0
  4 31  1  0  0  0  0
  6  7  1  0  0  0  0
  7  9  1  6  0  0  0
  7 30  1  0  0  0  0
  8 26  1  0  0  0  0
 10  9  1  1  0  0  0
 10 13  1  0  0  0  0
 10 21  1  0  0  0  0
 13 12  1  6  0  0  0
 13 15  1  0  0  0  0
 15  2  1  1  0  0  0
 15 17  1  0  0  0  0
 16 25  1  0  0  0  0
 16 23  1  0  0  0  0
 17 19  1  0  0  0  0
 19  5  1  1  0  0  0
 19 21  1  0  0  0  0
 21 14  1  6  0  0  0
 23 14  1  6  0  0  0
 23 29  1  0  0  0  0
 25 26  1  1  0  0  0
 25 27  1  0  0  0  0
 27 18  1  6  0  0  0
 27 28  1  0  0  0  0
 28 20  1  1  0  0  0
 28 29  1  0  0  0  0
 29 11  1  6  0  0  0
 30 22  1  1  0  0  0
 30 31  1  0  0  0  0
 31 24  1  1  0  0  0
M  END
>  <CHROM.1>
-58.63176847,-74.25064816,62.89138498,69.03675537,67.14385558,167.94787907
17.52857313,7.01037083,13.82064349,-0.22030251,0.31528560,2.08625784

>  <Name>
ligand

>  <RI>
0

>  <Rbt.Current_Directory>
/home/itssahil/PROJECTS/Mol_Feturizer/New_Systems/rnas/3DVV

>  <Rbt.Executable>
rbdock ($Id: //depot/dev/client3/rdock/2013.1/src/exe/rbdock.cxx#4 $)

>  <Rbt.Library>
libRbt.so (2013.1, Build901 2013/11/27)

>  <Rbt.Parameter_File>
/export/apps/rDock/src/rDock_2013.1_src/data/scripts/dock_solv.prm

>  <Rbt.Receptor>
prm/pocket_docking_8.prm

>  <SCORE>
-7.53472

>  <SCORE.INTER>
-5.11893

>  <SCORE.INTER.CONST>
1

>  <SCORE.INTER.POLAR>
0

>  <SCORE.INTER.ROT>
6

>  <SCORE.INTER.SOLV>
9.84732

>  <SCORE.INTER.VDW>
-14.2951

>  <SCORE.INTER.norm>
-0.165127

>  <SCORE.INTRA>
-2.41578

>  <SCORE.INTRA.DIHEDRAL>
-8.43597

>  <SCORE.INTRA.DIHEDRAL.0>
10.8172

>  <SCORE.INTRA.POLAR>
0

>  <SCORE.INTRA.POLAR.0>
0

>  <SCORE.INTRA.REPUL>
0

>  <SCORE.INTRA.REPUL.0>
0

>  <SCORE.INTRA.SOLV>
-1.98965

>  <SCORE.INTRA.SOLV.lig_0>
-80.3833

>  <SCORE.INTRA.VDW>
2.79703

>  <SCORE.INTRA.VDW.0>
-4.63762

>  <SCORE.INTRA.norm>
-0.0779285

>  <SCORE.RESTR>
0

>  <SCORE.RESTR.CAVITY>
0

>  <SCORE.RESTR.norm>
0

>  <SCORE.SYSTEM>
0

>  <SCORE.SYSTEM.CONST>
0

>  <SCORE.SYSTEM.DIHEDRAL>
0

>  <SCORE.SYSTEM.SOLV>
0

>  <SCORE.SYSTEM.norm>
0

>  <SCORE.heavy>
31

>  <SCORE.norm>
-0.243055

>  <RMSD>
7.638

$$$$
ligand
 OpenBabel11021811473D
libRbt.so/2013.1/901 2013/11/27
 31 33  0  0  0  0  0  0  0  0999 V2000
   18.6387    8.2519    9.1876 C   0  0  0  0  0  0  0  0  0  0  0  0
   20.4045    3.7297   16.4131 N   0  0  0  0  0  0  0  0  0  0  0  0
   19.9123    7.7043    8.8313 O   0  0  0  0  0  0  0  0  0  0  0  0
   18.3360    7.9680   10.6610 C   0  0  1  0  0  0  0  0  0  0  0  0
   20.4480    0.3009   12.9281 N   0  0  0  0  0  0  0  0  0  0  0  0
   18.2462    6.5474   10.8849 O   0  0  0  0  0  0  0  0  0  0  0  0
   19.1579    6.1909   11.9392 C   0  0  1  0  0  0  0  0  0  0  0  0
   22.0001   -0.8758    8.4293 N   0  0  0  0  0  0  0  0  0  0  0  0
   19.7103    4.8796   11.7436 O   0  0  0  0  0  0  0  0  0  0  0  0
   19.3255    3.9339   12.7523 C   0  0  2  0  0  0  0  0  0  0  0  0
   16.6116    2.5513    9.7559 N   0  0  0  0  0  0  0  0  0  0  0  0
   19.5032    5.5983   14.4961 O   0  0  0  0  0  0  0  0  0  0  0  0
   20.0273    4.3438   14.0523 C   0  0  1  0  0  0  0  0  0  0  0  0
   18.9024    2.0220   11.2535 O   0  0  0  0  0  0  0  0  0  0  0  0
   19.8075    3.2925   15.1419 C   0  0  1  0  0  0  0  0  0  0  0  0
   20.3015    2.2783    9.3787 O   0  0  0  0  0  0  0  0  0  0  0  0
   20.4328    1.9705   14.6959 C   0  0  0  0  0  0  0  0  0  0  0  0
   19.4147   -1.0005    7.9861 O   0  0  0  0  0  0  0  0  0  0  0  0
   19.7373    1.4917   13.4182 C   0  0  1  0  0  0  0  0  0  0  0  0
   16.9535    0.4673    7.7557 O   0  0  0  0  0  0  0  0  0  0  0  0
   19.7451    2.5391   12.2981 C   0  0  2  0  0  0  0  0  0  0  0  0
   21.0697    7.3458   12.9734 O   0  0  0  0  0  0  0  0  0  0  0  0
   19.0542    2.6705    9.9811 C   0  0  1  0  0  0  0  0  0  0  0  0
   19.0093    8.9951   12.7936 O   0  0  0  0  0  0  0  0  0  0  0  0
   20.4233    0.8655    9.1410 C   0  0  2  0  0  0  0  0  0  0  0  0
   21.7898    0.5782    8.5145 C   0  0  0  0  0  0  0  0  0  0  0  0
   19.3299    0.4151    8.1705 C   0  0  2  0  0  0  0  0  0  0  0  0
   17.9528    0.7702    8.7349 C   0  0  1  0  0  0  0  0  0  0  0  0
   17.8850    2.2604    9.0795 C   0  0  1  0  0  0  0  0  0  0  0  0
   20.2818    7.2140   11.7879 C   0  0  2  0  0  0  0  0  0  0  0  0
   19.4765    8.4863   11.5417 C   0  0  1  0  0  0  0  0  0  0  0  0
  1  3  1  0  0  0  0
  4  1  1  6  0  0  0
  4  6  1  0  0  0  0
  4 31  1  0  0  0  0
  6  7  1  0  0  0  0
  7  9  1  6  0  0  0
  7 30  1  0  0  0  0
  8 26  1  0  0  0  0
 10  9  1  6  0  0  0
 10 13  1  0  0  0  0
 10 21  1  0  0  0  0
 13 12  1  1  0  0  0
 13 15  1  0  0  0  0
 15  2  1  1  0  0  0
 15 17  1  0  0  0  0
 16 25  1  0  0  0  0
 16 23  1  0  0  0  0
 17 19  1  0  0  0  0
 19  5  1  6  0  0  0
 19 21  1  0  0  0  0
 21 14  1  6  0  0  0
 23 14  1  1  0  0  0
 23 29  1  0  0  0  0
 25 26  1  6  0  0  0
 25 27  1  0  0  0  0
 27 18  1  1  0  0  0
 27 28  1  0  0  0  0
 28 20  1  6  0  0  0
 28 29  1  0  0  0  0
 29 11  1  1  0  0  0
 30 22  1  1  0  0  0
 30 31  1  0  0  0  0
 31 24  1  1  0  0  0
M  END
>  <CHROM.1>
-62.86809590,-114.99450794,-69.70433400,73.12106343,70.43289781,172.58674900
19.47723195,3.70494201,11.16277290,1.57244899,-1.32246334,0.46229911

>  <Name>
ligand

>  <RI>
0

>  <Rbt.Current_Directory>
/home/itssahil/PROJECTS/Mol_Feturizer/New_Systems/rnas/3DVV

>  <Rbt.Executable>
rbdock ($Id: //depot/dev/client3/rdock/2013.1/src/exe/rbdock.cxx#4 $)

>  <Rbt.Library>
libRbt.so (2013.1, Build901 2013/11/27)

>  <Rbt.Parameter_File>
/export/apps/rDock/src/rDock_2013.1_src/data/scripts/dock_solv.prm

>  <Rbt.Receptor>
prm/blind_docking_80.prm

>  <SCORE>
-6.96757

>  <SCORE.INTER>
-7.89596

>  <SCORE.INTER.CONST>
1

>  <SCORE.INTER.POLAR>
0

>  <SCORE.INTER.ROT>
6

>  <SCORE.INTER.SOLV>
22.7868

>  <SCORE.INTER.VDW>
-20.4596

>  <SCORE.INTER.norm>
-0.254708

>  <SCORE.INTRA>
0.92839

>  <SCORE.INTRA.DIHEDRAL>
-1.77667

>  <SCORE.INTRA.DIHEDRAL.0>
10.8172

>  <SCORE.INTRA.POLAR>
0

>  <SCORE.INTRA.POLAR.0>
0

>  <SCORE.INTRA.REPUL>
0

>  <SCORE.INTRA.REPUL.0>
0

>  <SCORE.INTRA.SOLV>
-1.97702

>  <SCORE.INTRA.SOLV.lig_0>
-80.3833

>  <SCORE.INTRA.VDW>
2.80523

>  <SCORE.INTRA.VDW.0>
-4.63762

>  <SCORE.INTRA.norm>
0.0299481

>  <SCORE.RESTR>
0

>  <SCORE.RESTR.CAVITY>
0

>  <SCORE.RESTR.norm>
0

>  <SCORE.SYSTEM>
0

>  <SCORE.SYSTEM.CONST>
0

>  <SCORE.SYSTEM.DIHEDRAL>
0

>  <SCORE.SYSTEM.SOLV>
0

>  <SCORE.SYSTEM.norm>
0

>  <SCORE.heavy>
31

>  <SCORE.norm>
-0.22476

>  <RMSD>
7.669

$$$$
ligand
 OpenBabel11021811473D
libRbt.so/2013.1/901 2013/11/27
 31 33  0  0  0  0  0  0  0  0999 V2000
   17.9975   12.2933   13.1582 C   0  0  0  0  0  0  0  0  0  0  0  0
   22.5423    5.5272   16.0692 N   0  0  0  0  0  0  0  0  0  0  0  0
   17.9683   13.1804   12.0353 O   0  0  0  0  0  0  0  0  0  0  0  0
   19.2516   11.4171   13.1059 C   0  0  1  0  0  0  0  0  0  0  0  0
   18.4458    5.6863   18.7333 N   0  0  0  0  0  0  0  0  0  0  0  0
   19.3156   10.5713   14.2708 O   0  0  0  0  0  0  0  0  0  0  0  0
   19.4422    9.2049   13.8389 C   0  0  1  0  0  0  0  0  0  0  0  0
   13.5445    7.0326   15.2124 N   0  0  0  0  0  0  0  0  0  0  0  0
   18.7812    8.3000   14.7373 O   0  0  0  0  0  0  0  0  0  0  0  0
   19.5763    7.9296   15.8734 C   0  0  2  0  0  0  0  0  0  0  0  0
   16.9958   10.7684   18.3921 N   0  0  0  0  0  0  0  0  0  0  0  0
   21.5514    7.6612   14.5061 O   0  0  0  0  0  0  0  0  0  0  0  0
   20.6573    6.9626   15.3768 C   0  0  1  0  0  0  0  0  0  0  0  0
   17.8362    8.2331   17.5942 O   0  0  0  0  0  0  0  0  0  0  0  0
   21.4482    6.3839   16.5517 C   0  0  1  0  0  0  0  0  0  0  0  0
   16.0491    8.0144   16.0786 O   0  0  0  0  0  0  0  0  0  0  0  0
   20.5035    5.5765   17.4423 C   0  0  0  0  0  0  0  0  0  0  0  0
   13.5989    7.3104   18.7200 O   0  0  0  0  0  0  0  0  0  0  0  0
   19.4229    6.5067   18.0015 C   0  0  1  0  0  0  0  0  0  0  0  0
   14.3050   10.0499   19.2311 O   0  0  0  0  0  0  0  0  0  0  0  0
   18.6682    7.2783   16.9122 C   0  0  2  0  0  0  0  0  0  0  0  0
   19.0570    8.0778   11.6850 O   0  0  0  0  0  0  0  0  0  0  0  0
   16.9195    8.9452   16.7484 C   0  0  1  0  0  0  0  0  0  0  0  0
   20.4870   10.2718   11.3120 O   0  0  0  0  0  0  0  0  0  0  0  0
   15.2545    7.2077   16.9646 C   0  0  2  0  0  0  0  0  0  0  0  0
   14.3880    6.2568   16.1355 C   0  0  0  0  0  0  0  0  0  0  0  0
   14.3414    8.1104   17.7961 C   0  0  2  0  0  0  0  0  0  0  0  0
   15.1799    9.1300   18.5696 C   0  0  1  0  0  0  0  0  0  0  0  0
   16.0952    9.9023   17.6159 C   0  0  1  0  0  0  0  0  0  0  0  0
   18.6959    9.1907   12.5064 C   0  0  2  0  0  0  0  0  0  0  0  0
   19.1964   10.4920   11.8867 C   0  0  1  0  0  0  0  0  0  0  0  0
  1  3  1  0  0  0  0
  4  1  1  1  0  0  0
  4  6  1  0  0  0  0
  4 31  1  0  0  0  0
  6  7  1  0  0  0  0
  7  9  1  1  0  0  0
  7 30  1  0  0  0  0
  8 26  1  0  0  0  0
 10  9  1  6  0  0  0
 10 13  1  0  0  0  0
 10 21  1  0  0  0  0
 13 12  1  6  0  0  0
 13 15  1  0  0  0  0
 15  2  1  6  0  0  0
 15 17  1  0  0  0  0
 16 25  1  0  0  0  0
 16 23  1  0  0  0  0
 17 19  1  0  0  0  0
 19  5  1  6  0  0  0
 19 21  1  0  0  0  0
 21 14  1  1  0  0  0
 23 14  1  1  0  0  0
 23 29  1  0  0  0  0
 25 26  1  6  0  0  0
 25 27  1  0  0  0  0
 27 18  1  1  0  0  0
 27 28  1  0  0  0  0
 28 20  1  6  0  0  0
 28 29  1  0  0  0  0
 29 11  1  1  0  0  0
 30 22  1  6  0  0  0
 30 31  1  0  0  0  0
 31 24  1  1  0  0  0
M  END
>  <CHROM.1>
177.11799023,-83.72696370,-73.42294100,58.81568670,62.00603832,-57.65744828
17.97499553,8.53001716,15.67619807,0.78316850,0.42891649,-0.81838227

>  <Name>
ligand

>  <RI>
0

>  <Rbt.Current_Directory>
/home/itssahil/PROJECTS/Mol_Feturizer/New_Systems/rnas/3DVV

>  <Rbt.Executable>
rbdock ($Id: //depot/dev/client3/rdock/2013.1/src/exe/rbdock.cxx#4 $)

>  <Rbt.Library>
libRbt.so (2013.1, Build901 2013/11/27)

>  <Rbt.Parameter_File>
/export/apps/rDock/src/rDock_2013.1_src/data/scripts/dock_solv.prm

>  <Rbt.Receptor>
prm/pocket_docking_8.prm

>  <SCORE>
-5.9372

>  <SCORE.INTER>
-3.48859

>  <SCORE.INTER.CONST>
1

>  <SCORE.INTER.POLAR>
0

>  <SCORE.INTER.ROT>
6

>  <SCORE.INTER.SOLV>
14.5796

>  <SCORE.INTER.VDW>
-14.7856

>  <SCORE.INTER.norm>
-0.112535

>  <SCORE.INTRA>
-2.44861

>  <SCORE.INTRA.DIHEDRAL>
-7.286

>  <SCORE.INTRA.DIHEDRAL.0>
10.8172

>  <SCORE.INTRA.POLAR>
0

>  <SCORE.INTRA.POLAR.0>
0

>  <SCORE.INTRA.REPUL>
0

>  <SCORE.INTRA.REPUL.0>
0

>  <SCORE.INTRA.SOLV>
-2.95597

>  <SCORE.INTRA.SOLV.lig_0>
-80.3833

>  <SCORE.INTRA.VDW>
2.67237

>  <SCORE.INTRA.VDW.0>
-4.63762

>  <SCORE.INTRA.norm>
-0.0789875

>  <SCORE.RESTR>
0

>  <SCORE.RESTR.CAVITY>
0

>  <SCORE.RESTR.norm>
0

>  <SCORE.SYSTEM>
0

>  <SCORE.SYSTEM.CONST>
0

>  <SCORE.SYSTEM.DIHEDRAL>
0

>  <SCORE.SYSTEM.SOLV>
0

>  <SCORE.SYSTEM.norm>
0

>  <SCORE.heavy>
31

>  <SCORE.norm>
-0.191523

>  <RMSD>
7.669

$$$$
ligand
 OpenBabel11021811473D
libRbt.so/2013.1/901 2013/11/27
 31 33  0  0  0  0  0  0  0  0999 V2000
   13.3481    4.5677   11.4143 C   0  0  0  0  0  0  0  0  0  0  0  0
   20.4884    3.4321   15.9894 N   0  0  0  0  0  0  0  0  0  0  0  0
   12.6370    4.1808   12.5948 O   0  0  0  0  0  0  0  0  0  0  0  0
   14.7510    3.9551   11.4190 C   0  0  1  0  0  0  0  0  0  0  0  0
   16.9144    5.0448   18.9100 N   0  0  0  0  0  0  0  0  0  0  0  0
   15.4196    4.2547   12.6598 O   0  0  0  0  0  0  0  0  0  0  0  0
   15.8614    3.0203   13.2521 C   0  0  1  0  0  0  0  0  0  0  0  0
   13.6314    2.1037   19.3828 N   0  0  0  0  0  0  0  0  0  0  0  0
   15.8211    3.0747   14.6868 O   0  0  0  0  0  0  0  0  0  0  0  0
   16.7773    3.9799   15.2580 C   0  0  2  0  0  0  0  0  0  0  0  0
   13.6025    6.9786   15.1095 N   0  0  0  0  0  0  0  0  0  0  0  0
   18.5760    3.0347   13.9489 O   0  0  0  0  0  0  0  0  0  0  0  0
   18.1281    3.2554   15.2891 C   0  0  1  0  0  0  0  0  0  0  0  0
   15.2012    5.2814   16.6374 O   0  0  0  0  0  0  0  0  0  0  0  0
   19.1718    4.0860   16.0384 C   0  0  1  0  0  0  0  0  0  0  0  0
   13.4437    3.7464   16.9427 O   0  0  0  0  0  0  0  0  0  0  0  0
   18.7257    4.2592   17.4905 C   0  0  0  0  0  0  0  0  0  0  0  0
   11.7614    5.8274   19.4558 O   0  0  0  0  0  0  0  0  0  0  0  0
   17.3955    5.0176   17.5203 C   0  0  1  0  0  0  0  0  0  0  0  0
   11.4815    7.3878   17.0575 O   0  0  0  0  0  0  0  0  0  0  0  0
   16.3087    4.3639   16.6583 C   0  0  2  0  0  0  0  0  0  0  0  0
   15.2730    0.6620   12.8646 O   0  0  0  0  0  0  0  0  0  0  0  0
   13.9919    4.7526   16.0711 C   0  0  1  0  0  0  0  0  0  0  0  0
   15.7297    1.8690   10.5554 O   0  0  0  0  0  0  0  0  0  0  0  0
   13.1118    4.2227   18.2581 C   0  0  2  0  0  0  0  0  0  0  0  0
   12.5549    3.0622   19.0861 C   0  0  0  0  0  0  0  0  0  0  0  0
   12.0429    5.3119   18.1519 C   0  0  2  0  0  0  0  0  0  0  0  0
   12.5422    6.4472   17.2559 C   0  0  1  0  0  0  0  0  0  0  0  0
   12.9897    5.8988   15.8984 C   0  0  1  0  0  0  0  0  0  0  0  0
   14.8149    2.0134   12.7792 C   0  0  2  0  0  0  0  0  0  0  0  0
   14.6593    2.4298   11.3196 C   0  0  1  0  0  0  0  0  0  0  0  0
  1  3  1  0  0  0  0
  4  1  1  1  0  0  0
  4  6  1  0  0  0  0
  4 31  1  0  0  0  0
  6  7  1  0  0  0  0
  7  9  1  1  0  0  0
  7 30  1  0  0  0  0
  8 26  1  0  0  0  0
 10  9  1  1  0  0  0
 10 13  1  0  0  0  0
 10 21  1  0  0  0  0
 13 12  1  6  0  0  0
 13 15  1  0  0  0  0
 15  2  1  1  0  0  0
 15 17  1  0  0  0  0
 16 25  1  0  0  0  0
 16 23  1  0  0  0  0
 17 19  1  0  0  0  0
 19  5  1  1  0  0  0
 19 21  1  0  0  0  0
 21 14  1  6  0  0  0
 23 14  1  1  0  0  0
 23 29  1  0  0  0  0
 25 26  1  1  0  0  0
 25 27  1  0  0  0  0
 27 18  1  1  0  0  0
 27 28  1  0  0  0  0
 28 20  1  6  0  0  0
 28 29  1  0  0  0  0
 29 11  1  6  0  0  0
 30 22  1  6  0  0  0
 30 31  1  0  0  0  0
 31 24  1  6  0  0  0
M  END
>  <CHROM.1>
-52.02364191,-67.76271169,-80.64949512,69.17790317,64.81679936,69.56698201
15.04178329,4.10274740,15.45248404,1.06159159,0.25451061,-1.84549431

>  <Name>
ligand

>  <RI>
0

>  <Rbt.Current_Directory>
/home/itssahil/PROJECTS/Mol_Feturizer/New_Systems/rnas/3DVV

>  <Rbt.Executable>
rbdock ($Id: //depot/dev/client3/rdock/2013.1/src/exe/rbdock.cxx#4 $)

>  <Rbt.Library>
libRbt.so (2013.1, Build901 2013/11/27)

>  <Rbt.Parameter_File>
/export/apps/rDock/src/rDock_2013.1_src/data/scripts/dock_solv.prm

>  <Rbt.Receptor>
prm/pocket_docking_8.prm

>  <SCORE>
-7.21364

>  <SCORE.INTER>
-3.42117

>  <SCORE.INTER.CONST>
1

>  <SCORE.INTER.POLAR>
0

>  <SCORE.INTER.ROT>
6

>  <SCORE.INTER.SOLV>
12.2669

>  <SCORE.INTER.VDW>
-13.9697

>  <SCORE.INTER.norm>
-0.11036

>  <SCORE.INTRA>
-3.79247

>  <SCORE.INTRA.DIHEDRAL>
-7.28117

>  <SCORE.INTRA.DIHEDRAL.0>
10.8172

>  <SCORE.INTRA.POLAR>
0

>  <SCORE.INTRA.POLAR.0>
0

>  <SCORE.INTRA.REPUL>
0

>  <SCORE.INTRA.REPUL.0>
0

>  <SCORE.INTRA.SOLV>
-3.12193

>  <SCORE.INTRA.SOLV.lig_0>
-80.3833

>  <SCORE.INTRA.VDW>
1.40908

>  <SCORE.INTRA.VDW.0>
-4.63762

>  <SCORE.INTRA.norm>
-0.122338

>  <SCORE.RESTR>
0

>  <SCORE.RESTR.CAVITY>
0

>  <SCORE.RESTR.norm>
0

>  <SCORE.SYSTEM>
0

>  <SCORE.SYSTEM.CONST>
0

>  <SCORE.SYSTEM.DIHEDRAL>
0

>  <SCORE.SYSTEM.SOLV>
0

>  <SCORE.SYSTEM.norm>
0

>  <SCORE.heavy>
31

>  <SCORE.norm>
-0.232698

>  <RMSD>
7.682

$$$$
ligand
 OpenBabel11021811473D
libRbt.so/2013.1/901 2013/11/27
 31 33  0  0  0  0  0  0  0  0999 V2000
   16.8105   10.2722   11.5244 C   0  0  0  0  0  0  0  0  0  0  0  0
   21.7485    5.4876   16.3256 N   0  0  0  0  0  0  0  0  0  0  0  0
   16.7200   11.4932   10.7829 O   0  0  0  0  0  0  0  0  0  0  0  0
   18.2386   10.0712   12.0376 C   0  0  1  0  0  0  0  0  0  0  0  0
   17.9160    2.7517   15.0099 N   0  0  0  0  0  0  0  0  0  0  0  0
   18.3159    8.8733   12.8348 O   0  0  0  0  0  0  0  0  0  0  0  0
   19.3550    8.0337   12.3009 C   0  0  1  0  0  0  0  0  0  0  0  0
   18.3299    2.2395   10.4630 N   0  0  0  0  0  0  0  0  0  0  0  0
   19.0448    6.6400   12.4566 O   0  0  0  0  0  0  0  0  0  0  0  0
   18.9518    6.2177   13.8251 C   0  0  2  0  0  0  0  0  0  0  0  0
   14.4816    6.5120   13.4141 N   0  0  0  0  0  0  0  0  0  0  0  0
   20.9653    7.4169   14.4170 O   0  0  0  0  0  0  0  0  0  0  0  0
   20.3820    6.1121   14.3672 C   0  0  1  0  0  0  0  0  0  0  0  0
   16.8140    5.0024   13.6404 O   0  0  0  0  0  0  0  0  0  0  0  0
   20.3861    5.5048   15.7715 C   0  0  1  0  0  0  0  0  0  0  0  0
   16.9012    4.6158   11.3207 O   0  0  0  0  0  0  0  0  0  0  0  0
   19.8292    4.0826   15.7038 C   0  0  0  0  0  0  0  0  0  0  0  0
   14.2374    2.0915   11.4131 O   0  0  0  0  0  0  0  0  0  0  0  0
   18.3818    4.1330   15.2058 C   0  0  1  0  0  0  0  0  0  0  0  0
   12.8375    4.5085   12.0937 O   0  0  0  0  0  0  0  0  0  0  0  0
   18.2278    4.8755   13.8729 C   0  0  2  0  0  0  0  0  0  0  0  0
   20.5548    8.0006   10.1521 O   0  0  0  0  0  0  0  0  0  0  0  0
   16.4607    5.5220   12.3489 C   0  0  1  0  0  0  0  0  0  0  0  0
   20.4821   10.4666   11.1068 O   0  0  0  0  0  0  0  0  0  0  0  0
   16.3286    3.3000   11.4091 C   0  0  2  0  0  0  0  0  0  0  0  0
   16.8834    2.4343   10.2754 C   0  0  0  0  0  0  0  0  0  0  0  0
   14.8088    3.3937   11.2612 C   0  0  2  0  0  0  0  0  0  0  0  0
   14.2371    4.3251   12.3320 C   0  0  1  0  0  0  0  0  0  0  0  0
   14.9383    5.6853   12.2865 C   0  0  1  0  0  0  0  0  0  0  0  0
   19.3397    8.3665   10.8104 C   0  0  2  0  0  0  0  0  0  0  0  0
   19.1994    9.8850   10.8599 C   0  0  1  0  0  0  0  0  0  0  0  0
  1  3  1  0  0  0  0
  4  1  1  6  0  0  0
  4  6  1  0  0  0  0
  4 31  1  0  0  0  0
  6  7  1  0  0  0  0
  7  9  1  6  0  0  0
  7 30  1  0  0  0  0
  8 26  1  0  0  0  0
 10  9  1  6  0  0  0
 10 13  1  0  0  0  0
 10 21  1  0  0  0  0
 13 12  1  1  0  0  0
 13 15  1  0  0  0  0
 15  2  1  6  0  0  0
 15 17  1  0  0  0  0
 16 25  1  0  0  0  0
 16 23  1  0  0  0  0
 17 19  1  0  0  0  0
 19  5  1  6  0  0  0
 19 21  1  0  0  0  0
 21 14  1  1  0  0  0
 23 14  1  1  0  0  0
 23 29  1  0  0  0  0
 25 26  1  6  0  0  0
 25 27  1  0  0  0  0
 27 18  1  1  0  0  0
 27 28  1  0  0  0  0
 28 20  1  6  0  0  0
 28 29  1  0  0  0  0
 29 11  1  1  0  0  0
 30 22  1  1  0  0  0
 30 31  1  0  0  0  0
 31 24  1  1  0  0  0
M  END
>  <CHROM.1>
177.41152935,-63.60135322,-75.69476810,63.35119619,62.24613273,65.21633479
17.80462262,6.11157981,12.60123440,0.87409953,-0.54094424,-0.42401159

>  <Name>
ligand

>  <RI>
0

>  <Rbt.Current_Directory>
/home/itssahil/PROJECTS/Mol_Feturizer/New_Systems/rnas/3DVV

>  <Rbt.Executable>
rbdock ($Id: //depot/dev/client3/rdock/2013.1/src/exe/rbdock.cxx#4 $)

>  <Rbt.Library>
libRbt.so (2013.1, Build901 2013/11/27)

>  <Rbt.Parameter_File>
/export/apps/rDock/src/rDock_2013.1_src/data/scripts/dock_solv.prm

>  <Rbt.Receptor>
prm/pocket_docking_8.prm

>  <SCORE>
-8.47622

>  <SCORE.INTER>
-4.09927

>  <SCORE.INTER.CONST>
1

>  <SCORE.INTER.POLAR>
0

>  <SCORE.INTER.ROT>
6

>  <SCORE.INTER.SOLV>
11.2374

>  <SCORE.INTER.VDW>
-14.0786

>  <SCORE.INTER.norm>
-0.132234

>  <SCORE.INTRA>
-4.37695

>  <SCORE.INTRA.DIHEDRAL>
-9.134

>  <SCORE.INTRA.DIHEDRAL.0>
10.8172

>  <SCORE.INTRA.POLAR>
0

>  <SCORE.INTRA.POLAR.0>
0

>  <SCORE.INTRA.REPUL>
0

>  <SCORE.INTRA.REPUL.0>
0

>  <SCORE.INTRA.SOLV>
-4.38682

>  <SCORE.INTRA.SOLV.lig_0>
-80.3833

>  <SCORE.INTRA.VDW>
2.38346

>  <SCORE.INTRA.VDW.0>
-4.63762

>  <SCORE.INTRA.norm>
-0.141192

>  <SCORE.RESTR>
0

>  <SCORE.RESTR.CAVITY>
0

>  <SCORE.RESTR.norm>
0

>  <SCORE.SYSTEM>
0

>  <SCORE.SYSTEM.CONST>
0

>  <SCORE.SYSTEM.DIHEDRAL>
0

>  <SCORE.SYSTEM.SOLV>
0

>  <SCORE.SYSTEM.norm>
0

>  <SCORE.heavy>
31

>  <SCORE.norm>
-0.273426

>  <RMSD>
7.687

$$$$
ligand
 OpenBabel11021811473D
libRbt.so/2013.1/901 2013/11/27
 31 33  0  0  0  0  0  0  0  0999 V2000
   14.4573   11.9253   17.5238 C   0  0  0  0  0  0  0  0  0  0  0  0
   19.4452    9.5226   15.9874 N   0  0  0  0  0  0  0  0  0  0  0  0
   15.3013   12.1797   16.3961 O   0  0  0  0  0  0  0  0  0  0  0  0
   14.2188   10.4208   17.6754 C   0  0  1  0  0  0  0  0  0  0  0  0
   17.3186    5.2148   16.8952 N   0  0  0  0  0  0  0  0  0  0  0  0
   15.4658    9.7429   17.9242 O   0  0  0  0  0  0  0  0  0  0  0  0
   15.3342    8.9689   19.1298 C   0  0  1  0  0  0  0  0  0  0  0  0
   13.1446    5.5520   17.5576 N   0  0  0  0  0  0  0  0  0  0  0  0
   16.5716    8.9011   19.8558 O   0  0  0  0  0  0  0  0  0  0  0  0
   17.6401    8.2860   19.1210 C   0  0  2  0  0  0  0  0  0  0  0  0
   17.5124    5.2250   22.3057 N   0  0  0  0  0  0  0  0  0  0  0  0
   18.5675   10.4337   18.5129 O   0  0  0  0  0  0  0  0  0  0  0  0
   18.0078    9.2334   17.9731 C   0  0  1  0  0  0  0  0  0  0  0  0
   17.0818    5.9422   19.6466 O   0  0  0  0  0  0  0  0  0  0  0  0
   19.0257    8.5803   17.0360 C   0  0  1  0  0  0  0  0  0  0  0  0
   14.7461    5.9670   19.9330 O   0  0  0  0  0  0  0  0  0  0  0  0
   18.3992    7.3371   16.4041 C   0  0  0  0  0  0  0  0  0  0  0  0
   14.4747    2.3064   19.8853 O   0  0  0  0  0  0  0  0  0  0  0  0
   18.0492    6.3347   17.5078 C   0  0  1  0  0  0  0  0  0  0  0  0
   15.9078    2.7990   22.3283 O   0  0  0  0  0  0  0  0  0  0  0  0
   17.1610    6.9320   18.6060 C   0  0  2  0  0  0  0  0  0  0  0  0
   13.7149    9.0020   20.9830 O   0  0  0  0  0  0  0  0  0  0  0  0
   16.0159    6.1427   20.5881 C   0  0  1  0  0  0  0  0  0  0  0  0
   12.4367    9.0440   18.6674 O   0  0  0  0  0  0  0  0  0  0  0  0
   14.5533    4.6625   19.3602 C   0  0  2  0  0  0  0  0  0  0  0  0
   13.1802    4.6085   18.6863 C   0  0  0  0  0  0  0  0  0  0  0  0
   14.6032    3.6068   20.4662 C   0  0  2  0  0  0  0  0  0  0  0  0
   15.9348    3.6975   21.2142 C   0  0  1  0  0  0  0  0  0  0  0  0
   16.1660    5.1231   21.7222 C   0  0  1  0  0  0  0  0  0  0  0  0
   14.3357    9.7777   19.9552 C   0  0  2  0  0  0  0  0  0  0  0  0
   13.3165   10.1503   18.8827 C   0  0  1  0  0  0  0  0  0  0  0  0
  1  3  1  0  0  0  0
  4  1  1  1  0  0  0
  4  6  1  0  0  0  0
  4 31  1  0  0  0  0
  6  7  1  0  0  0  0
  7  9  1  1  0  0  0
  7 30  1  0  0  0  0
  8 26  1  0  0  0  0
 10  9  1  6  0  0  0
 10 13  1  0  0  0  0
 10 21  1  0  0  0  0
 13 12  1  1  0  0  0
 13 15  1  0  0  0  0
 15  2  1  6  0  0  0
 15 17  1  0  0  0  0
 16 25  1  0  0  0  0
 16 23  1  0  0  0  0
 17 19  1  0  0  0  0
 19  5  1  6  0  0  0
 19 21  1  0  0  0  0
 21 14  1  1  0  0  0
 23 14  1  6  0  0  0
 23 29  1  0  0  0  0
 25 26  1  1  0  0  0
 25 27  1  0  0  0  0
 27 18  1  6  0  0  0
 27 28  1  0  0  0  0
 28 20  1  1  0  0  0
 28 29  1  0  0  0  0
 29 11  1  6  0  0  0
 30 22  1  1  0  0  0
 30 31  1  0  0  0  0
 31 24  1  6  0  0  0
M  END
>  <CHROM.1>
62.31751591,-60.73963954,68.48217364,66.62168301,71.00510096,64.47843361
15.84872533,7.35773216,19.00266170,1.45407019,0.29280066,-0.40235121

>  <Name>
ligand

>  <RI>
0

>  <Rbt.Current_Directory>
/home/itssahil/PROJECTS/Mol_Feturizer/New_Systems/rnas/3DVV

>  <Rbt.Executable>
rbdock ($Id: //depot/dev/client3/rdock/2013.1/src/exe/rbdock.cxx#4 $)

>  <Rbt.Library>
libRbt.so (2013.1, Build901 2013/11/27)

>  <Rbt.Parameter_File>
/export/apps/rDock/src/rDock_2013.1_src/data/scripts/dock_solv.prm

>  <Rbt.Receptor>
prm/pocket_docking_8.prm

>  <SCORE>
-3.55249

>  <SCORE.INTER>
-0.637095

>  <SCORE.INTER.CONST>
1

>  <SCORE.INTER.POLAR>
0

>  <SCORE.INTER.ROT>
6

>  <SCORE.INTER.SOLV>
9.62943

>  <SCORE.INTER.VDW>
-11.2345

>  <SCORE.INTER.norm>
-0.0205514

>  <SCORE.INTRA>
-2.9154

>  <SCORE.INTRA.DIHEDRAL>
-9.31741

>  <SCORE.INTRA.DIHEDRAL.0>
10.8172

>  <SCORE.INTRA.POLAR>
0

>  <SCORE.INTRA.POLAR.0>
0

>  <SCORE.INTRA.REPUL>
0

>  <SCORE.INTRA.REPUL.0>
0

>  <SCORE.INTRA.SOLV>
-2.53738

>  <SCORE.INTRA.SOLV.lig_0>
-80.3833

>  <SCORE.INTRA.VDW>
3.01199

>  <SCORE.INTRA.VDW.0>
-4.63762

>  <SCORE.INTRA.norm>
-0.0940452

>  <SCORE.RESTR>
0

>  <SCORE.RESTR.CAVITY>
0

>  <SCORE.RESTR.norm>
0

>  <SCORE.SYSTEM>
0

>  <SCORE.SYSTEM.CONST>
0

>  <SCORE.SYSTEM.DIHEDRAL>
0

>  <SCORE.SYSTEM.SOLV>
0

>  <SCORE.SYSTEM.norm>
0

>  <SCORE.heavy>
31

>  <SCORE.norm>
-0.114597

>  <RMSD>
7.714

$$$$
ligand
 OpenBabel11021811473D
libRbt.so/2013.1/901 2013/11/27
 31 33  0  0  0  0  0  0  0  0999 V2000
   20.2405    7.0589   13.1441 C   0  0  0  0  0  0  0  0  0  0  0  0
   16.9632   11.2289   19.0802 N   0  0  0  0  0  0  0  0  0  0  0  0
   19.3648    7.8440   12.3283 O   0  0  0  0  0  0  0  0  0  0  0  0
   20.6429    7.8451   14.3944 C   0  0  1  0  0  0  0  0  0  0  0  0
   14.0672    7.3071   18.7119 N   0  0  0  0  0  0  0  0  0  0  0  0
   19.4908    8.0752   15.2286 O   0  0  0  0  0  0  0  0  0  0  0  0
   19.7755    7.5820   16.5498 C   0  0  1  0  0  0  0  0  0  0  0  0
   14.4569    2.7667   20.0145 N   0  0  0  0  0  0  0  0  0  0  0  0
   18.5984    7.0630   17.1885 O   0  0  0  0  0  0  0  0  0  0  0  0
   17.4815    7.9639   17.1624 C   0  0  2  0  0  0  0  0  0  0  0  0
   15.7280    5.1907   14.0714 N   0  0  0  0  0  0  0  0  0  0  0  0
   18.9103    9.8756   17.5452 O   0  0  0  0  0  0  0  0  0  0  0  0
   17.8181    9.1336   18.0946 C   0  0  1  0  0  0  0  0  0  0  0  0
   15.7411    6.3004   16.6286 O   0  0  0  0  0  0  0  0  0  0  0  0
   16.6118   10.0603   18.2590 C   0  0  1  0  0  0  0  0  0  0  0  0
   16.7119    4.3711   17.5633 O   0  0  0  0  0  0  0  0  0  0  0  0
   15.4690    9.2837   18.9135 C   0  0  0  0  0  0  0  0  0  0  0  0
   13.5714    2.4723   17.4720 O   0  0  0  0  0  0  0  0  0  0  0  0
   15.0629    8.1230   18.0006 C   0  0  1  0  0  0  0  0  0  0  0  0
   14.1903    2.7988   14.6836 O   0  0  0  0  0  0  0  0  0  0  0  0
   16.2374    7.2114   17.6249 C   0  0  2  0  0  0  0  0  0  0  0  0
   21.4927    6.0634   17.4457 O   0  0  0  0  0  0  0  0  0  0  0  0
   16.5882    5.1694   16.3717 C   0  0  1  0  0  0  0  0  0  0  0  0
   22.6158    7.8628   15.8652 O   0  0  0  0  0  0  0  0  0  0  0  0
   15.4655    3.8518   18.0573 C   0  0  2  0  0  0  0  0  0  0  0  0
   15.7291    3.0375   19.3261 C   0  0  0  0  0  0  0  0  0  0  0  0
   14.8403    2.9362   17.0032 C   0  0  2  0  0  0  0  0  0  0  0  0
   14.6461    3.7043   15.6942 C   0  0  1  0  0  0  0  0  0  0  0  0
   15.9660    4.3372   15.2455 C   0  0  1  0  0  0  0  0  0  0  0  0
   20.7330    6.4211   16.2888 C   0  0  2  0  0  0  0  0  0  0  0  0
   21.6405    7.0347   15.2269 C   0  0  1  0  0  0  0  0  0  0  0  0
  1  3  1  0  0  0  0
  4  1  1  6  0  0  0
  4  6  1  0  0  0  0
  4 31  1  0  0  0  0
  6  7  1  0  0  0  0
  7  9  1  6  0  0  0
  7 30  1  0  0  0  0
  8 26  1  0  0  0  0
 10  9  1  1  0  0  0
 10 13  1  0  0  0  0
 10 21  1  0  0  0  0
 13 12  1  6  0  0  0
 13 15  1  0  0  0  0
 15  2  1  1  0  0  0
 15 17  1  0  0  0  0
 16 25  1  0  0  0  0
 16 23  1  0  0  0  0
 17 19  1  0  0  0  0
 19  5  1  1  0  0  0
 19 21  1  0  0  0  0
 21 14  1  6  0  0  0
 23 14  1  1  0  0  0
 23 29  1  0  0  0  0
 25 26  1  1  0  0  0
 25 27  1  0  0  0  0
 27 18  1  1  0  0  0
 27 28  1  0  0  0  0
 28 20  1  6  0  0  0
 28 29  1  0  0  0  0
 29 11  1  6  0  0  0
 30 22  1  1  0  0  0
 30 31  1  0  0  0  0
 31 24  1  1  0  0  0
M  END
>  <CHROM.1>
65.48472081,-51.00697661,-69.58680420,62.52869154,68.47999742,166.83779412
17.34936231,6.44034104,16.72400840,-0.40474757,-0.58524768,-2.59121474

>  <Name>
ligand

>  <RI>
0

>  <Rbt.Current_Directory>
/home/itssahil/PROJECTS/Mol_Feturizer/New_Systems/rnas/3DVV

>  <Rbt.Executable>
rbdock ($Id: //depot/dev/client3/rdock/2013.1/src/exe/rbdock.cxx#4 $)

>  <Rbt.Library>
libRbt.so (2013.1, Build901 2013/11/27)

>  <Rbt.Parameter_File>
/export/apps/rDock/src/rDock_2013.1_src/data/scripts/dock_solv.prm

>  <Rbt.Receptor>
prm/pocket_docking_5.prm

>  <SCORE>
-5.92365

>  <SCORE.INTER>
-3.07791

>  <SCORE.INTER.CONST>
1

>  <SCORE.INTER.POLAR>
0

>  <SCORE.INTER.ROT>
6

>  <SCORE.INTER.SOLV>
16.0249

>  <SCORE.INTER.VDW>
-14.9936

>  <SCORE.INTER.norm>
-0.0992874

>  <SCORE.INTRA>
-2.84574

>  <SCORE.INTRA.DIHEDRAL>
-8.64176

>  <SCORE.INTRA.DIHEDRAL.0>
10.8172

>  <SCORE.INTRA.POLAR>
0

>  <SCORE.INTRA.POLAR.0>
0

>  <SCORE.INTRA.REPUL>
0

>  <SCORE.INTRA.REPUL.0>
0

>  <SCORE.INTRA.SOLV>
-3.29151

>  <SCORE.INTRA.SOLV.lig_0>
-80.3833

>  <SCORE.INTRA.VDW>
3.1209

>  <SCORE.INTRA.VDW.0>
-4.63762

>  <SCORE.INTRA.norm>
-0.0917981

>  <SCORE.RESTR>
0

>  <SCORE.RESTR.CAVITY>
0

>  <SCORE.RESTR.norm>
0

>  <SCORE.SYSTEM>
0

>  <SCORE.SYSTEM.CONST>
0

>  <SCORE.SYSTEM.DIHEDRAL>
0

>  <SCORE.SYSTEM.SOLV>
0

>  <SCORE.SYSTEM.norm>
0

>  <SCORE.heavy>
31

>  <SCORE.norm>
-0.191085

>  <RMSD>
7.718

$$$$
ligand
 OpenBabel11021811473D
libRbt.so/2013.1/901 2013/11/27
 31 33  0  0  0  0  0  0  0  0999 V2000
   20.2122    9.0883   15.8247 C   0  0  0  0  0  0  0  0  0  0  0  0
   13.8106    4.9717   12.3498 N   0  0  0  0  0  0  0  0  0  0  0  0
   20.6963    7.8477   16.3495 O   0  0  0  0  0  0  0  0  0  0  0  0
   19.4858    8.8524   14.4981 C   0  0  1  0  0  0  0  0  0  0  0  0
   12.8528    5.5692   17.1068 N   0  0  0  0  0  0  0  0  0  0  0  0
   18.3152    8.0395   14.7105 O   0  0  0  0  0  0  0  0  0  0  0  0
   17.1734    8.7308   14.1735 C   0  0  1  0  0  0  0  0  0  0  0  0
   12.5231   10.3333   17.3768 N   0  0  0  0  0  0  0  0  0  0  0  0
   15.9846    8.4647   14.9344 O   0  0  0  0  0  0  0  0  0  0  0  0
   15.6230    7.0764   14.9752 C   0  0  2  0  0  0  0  0  0  0  0  0
   17.6411    6.7706   19.0308 N   0  0  0  0  0  0  0  0  0  0  0  0
   15.9090    6.8478   12.5859 O   0  0  0  0  0  0  0  0  0  0  0  0
   14.9480    6.7423   13.6398 C   0  0  1  0  0  0  0  0  0  0  0  0
   15.3685    6.8838   17.4204 O   0  0  0  0  0  0  0  0  0  0  0  0
   14.3776    5.3228   13.6608 C   0  0  1  0  0  0  0  0  0  0  0  0
   15.1444    9.2049   17.7371 O   0  0  0  0  0  0  0  0  0  0  0  0
   13.2986    5.2324   14.7402 C   0  0  0  0  0  0  0  0  0  0  0  0
   13.7747    8.8387   21.1233 O   0  0  0  0  0  0  0  0  0  0  0  0
   13.9296    5.5175   16.1063 C   0  0  1  0  0  0  0  0  0  0  0  0
   16.4813    7.9219   21.4371 O   0  0  0  0  0  0  0  0  0  0  0  0
   14.6834    6.8521   16.1561 C   0  0  2  0  0  0  0  0  0  0  0  0
   16.7802   11.0676   13.5081 O   0  0  0  0  0  0  0  0  0  0  0  0
   16.0728    8.1055   17.6929 C   0  0  1  0  0  0  0  0  0  0  0  0
   19.0673   10.2124   12.4903 O   0  0  0  0  0  0  0  0  0  0  0  0
   14.1280    9.0784   18.7461 C   0  0  2  0  0  0  0  0  0  0  0  0
   13.2028   10.2960   18.6815 C   0  0  0  0  0  0  0  0  0  0  0  0
   14.7834    9.0283   20.1275 C   0  0  2  0  0  0  0  0  0  0  0  0
   15.7803    7.8693   20.1900 C   0  0  1  0  0  0  0  0  0  0  0  0
   16.7875    7.9686   19.0414 C   0  0  1  0  0  0  0  0  0  0  0  0
   17.5410   10.2022   14.3541 C   0  0  2  0  0  0  0  0  0  0  0  0
   19.0032   10.1851   13.9185 C   0  0  1  0  0  0  0  0  0  0  0  0
  1  3  1  0  0  0  0
  4  1  1  1  0  0  0
  4  6  1  0  0  0  0
  4 31  1  0  0  0  0
  6  7  1  0  0  0  0
  7  9  1  1  0  0  0
  7 30  1  0  0  0  0
  8 26  1  0  0  0  0
 10  9  1  6  0  0  0
 10 13  1  0  0  0  0
 10 21  1  0  0  0  0
 13 12  1  6  0  0  0
 13 15  1  0  0  0  0
 15  2  1  6  0  0  0
 15 17  1  0  0  0  0
 16 25  1  0  0  0  0
 16 23  1  0  0  0  0
 17 19  1  0  0  0  0
 19  5  1  1  0  0  0
 19 21  1  0  0  0  0
 21 14  1  1  0  0  0
 23 14  1  1  0  0  0
 23 29  1  0  0  0  0
 25 26  1  1  0  0  0
 25 27  1  0  0  0  0
 27 18  1  1  0  0  0
 27 28  1  0  0  0  0
 28 20  1  1  0  0  0
 28 29  1  0  0  0  0
 29 11  1  6  0  0  0
 30 22  1  6  0  0  0
 30 31  1  0  0  0  0
 31 24  1  6  0  0  0
M  END
>  <CHROM.1>
63.94526905,-60.04736480,-78.36691543,61.65650950,58.26462132,62.68002984
16.01354235,8.06089125,16.27941109,-0.99022986,0.50178286,1.31778485

>  <Name>
ligand

>  <RI>
0

>  <Rbt.Current_Directory>
/home/itssahil/PROJECTS/Mol_Feturizer/New_Systems/rnas/3DVV

>  <Rbt.Executable>
rbdock ($Id: //depot/dev/client3/rdock/2013.1/src/exe/rbdock.cxx#4 $)

>  <Rbt.Library>
libRbt.so (2013.1, Build901 2013/11/27)

>  <Rbt.Parameter_File>
/export/apps/rDock/src/rDock_2013.1_src/data/scripts/dock_solv.prm

>  <Rbt.Receptor>
prm/pocket_docking_6.prm

>  <SCORE>
-5.57255

>  <SCORE.INTER>
-1.12326

>  <SCORE.INTER.CONST>
1

>  <SCORE.INTER.POLAR>
0

>  <SCORE.INTER.ROT>
6

>  <SCORE.INTER.SOLV>
7.47952

>  <SCORE.INTER.VDW>
-10.842

>  <SCORE.INTER.norm>
-0.0362344

>  <SCORE.INTRA>
-4.44929

>  <SCORE.INTRA.DIHEDRAL>
-8.89074

>  <SCORE.INTRA.DIHEDRAL.0>
10.8172

>  <SCORE.INTRA.POLAR>
0

>  <SCORE.INTRA.POLAR.0>
0

>  <SCORE.INTRA.REPUL>
0

>  <SCORE.INTRA.REPUL.0>
0

>  <SCORE.INTRA.SOLV>
-4.42864

>  <SCORE.INTRA.SOLV.lig_0>
-80.3833

>  <SCORE.INTRA.VDW>
2.21041

>  <SCORE.INTRA.VDW.0>
-4.63762

>  <SCORE.INTRA.norm>
-0.143525

>  <SCORE.RESTR>
0

>  <SCORE.RESTR.CAVITY>
0

>  <SCORE.RESTR.norm>
0

>  <SCORE.SYSTEM>
0

>  <SCORE.SYSTEM.CONST>
0

>  <SCORE.SYSTEM.DIHEDRAL>
0

>  <SCORE.SYSTEM.SOLV>
0

>  <SCORE.SYSTEM.norm>
0

>  <SCORE.heavy>
31

>  <SCORE.norm>
-0.17976

>  <RMSD>
7.728

$$$$
ligand
 OpenBabel11021811473D
libRbt.so/2013.1/901 2013/11/27
 31 33  0  0  0  0  0  0  0  0999 V2000
   18.0569    1.7888    9.4659 C   0  0  0  0  0  0  0  0  0  0  0  0
   22.8444    3.8307   16.0051 N   0  0  0  0  0  0  0  0  0  0  0  0
   17.9808    1.1487    8.1879 O   0  0  0  0  0  0  0  0  0  0  0  0
   19.4132    1.5068   10.1172 C   0  0  1  0  0  0  0  0  0  0  0  0
   18.1686    4.5923   17.2137 N   0  0  0  0  0  0  0  0  0  0  0  0
   19.5090    2.1914   11.3815 O   0  0  0  0  0  0  0  0  0  0  0  0
   19.8365    1.2295   12.4000 C   0  0  1  0  0  0  0  0  0  0  0  0
   14.2428    2.9770   18.5115 N   0  0  0  0  0  0  0  0  0  0  0  0
   19.2395    1.5674   13.6619 O   0  0  0  0  0  0  0  0  0  0  0  0
   19.6407    2.8499   14.1663 C   0  0  2  0  0  0  0  0  0  0  0  0
   15.8805    4.0555   12.2763 N   0  0  0  0  0  0  0  0  0  0  0  0
   21.9734    2.3765   13.7455 O   0  0  0  0  0  0  0  0  0  0  0  0
   21.0351    2.6815   14.7809 C   0  0  1  0  0  0  0  0  0  0  0  0
   17.3836    3.7421   14.6029 O   0  0  0  0  0  0  0  0  0  0  0  0
   21.4714    3.9628   15.4944 C   0  0  1  0  0  0  0  0  0  0  0  0
   15.9832    2.0217   15.3885 O   0  0  0  0  0  0  0  0  0  0  0  0
   20.5080    4.2472   16.6469 C   0  0  0  0  0  0  0  0  0  0  0  0
   13.3219    4.3406   16.3966 O   0  0  0  0  0  0  0  0  0  0  0  0
   19.1009    4.4659   16.0832 C   0  0  1  0  0  0  0  0  0  0  0  0
   13.3084    4.5750   13.5314 O   0  0  0  0  0  0  0  0  0  0  0  0
   18.6175    3.3082   15.2012 C   0  0  2  0  0  0  0  0  0  0  0  0
   19.7383   -1.2282   12.4881 O   0  0  0  0  0  0  0  0  0  0  0  0
   16.4964    2.6810   14.2162 C   0  0  1  0  0  0  0  0  0  0  0  0
   20.8981   -0.4517   10.2409 O   0  0  0  0  0  0  0  0  0  0  0  0
   15.2418    2.8808   16.2715 C   0  0  2  0  0  0  0  0  0  0  0  0
   14.7648    2.0688   17.4779 C   0  0  0  0  0  0  0  0  0  0  0  0
   14.0212    3.4374   15.5363 C   0  0  2  0  0  0  0  0  0  0  0  0
   14.4662    4.1816   14.2757 C   0  0  1  0  0  0  0  0  0  0  0  0
   15.3427    3.2787   13.4038 C   0  0  1  0  0  0  0  0  0  0  0  0
   19.1860   -0.0540   11.8883 C   0  0  2  0  0  0  0  0  0  0  0  0
   19.5555    0.0104   10.4093 C   0  0  1  0  0  0  0  0  0  0  0  0
  1  3  1  0  0  0  0
  4  1  1  1  0  0  0
  4  6  1  0  0  0  0
  4 31  1  0  0  0  0
  6  7  1  0  0  0  0
  7  9  1  1  0  0  0
  7 30  1  0  0  0  0
  8 26  1  0  0  0  0
 10  9  1  1  0  0  0
 10 13  1  0  0  0  0
 10 21  1  0  0  0  0
 13 12  1  6  0  0  0
 13 15  1  0  0  0  0
 15  2  1  1  0  0  0
 15 17  1  0  0  0  0
 16 25  1  0  0  0  0
 16 23  1  0  0  0  0
 17 19  1  0  0  0  0
 19  5  1  1  0  0  0
 19 21  1  0  0  0  0
 21 14  1  6  0  0  0
 23 14  1  1  0  0  0
 23 29  1  0  0  0  0
 25 26  1  1  0  0  0
 25 27  1  0  0  0  0
 27 18  1  1  0  0  0
 27 28  1  0  0  0  0
 28 20  1  6  0  0  0
 28 29  1  0  0  0  0
 29 11  1  6  0  0  0
 30 22  1  1  0  0  0
 30 31  1  0  0  0  0
 31 24  1  1  0  0  0
M  END
>  <CHROM.1>
177.88955548,-59.30104542,-78.69928070,68.48184323,79.61262147,168.78714563
17.96918445,2.56342202,13.87648804,0.82120320,0.10096929,-1.98124430

>  <Name>
ligand

>  <RI>
0

>  <Rbt.Current_Directory>
/home/itssahil/PROJECTS/Mol_Feturizer/New_Systems/rnas/3DVV

>  <Rbt.Executable>
rbdock ($Id: //depot/dev/client3/rdock/2013.1/src/exe/rbdock.cxx#4 $)

>  <Rbt.Library>
libRbt.so (2013.1, Build901 2013/11/27)

>  <Rbt.Parameter_File>
/export/apps/rDock/src/rDock_2013.1_src/data/scripts/dock_solv.prm

>  <Rbt.Receptor>
prm/pocket_docking_7.prm

>  <SCORE>
-6.31443

>  <SCORE.INTER>
-3.8632

>  <SCORE.INTER.CONST>
1

>  <SCORE.INTER.POLAR>
0

>  <SCORE.INTER.ROT>
6

>  <SCORE.INTER.SOLV>
13.737

>  <SCORE.INTER.VDW>
-14.7545

>  <SCORE.INTER.norm>
-0.124619

>  <SCORE.INTRA>
-2.45123

>  <SCORE.INTRA.DIHEDRAL>
-6.4559

>  <SCORE.INTRA.DIHEDRAL.0>
10.8172

>  <SCORE.INTRA.POLAR>
0

>  <SCORE.INTRA.POLAR.0>
0

>  <SCORE.INTRA.REPUL>
0

>  <SCORE.INTRA.REPUL.0>
0

>  <SCORE.INTRA.SOLV>
-2.23548

>  <SCORE.INTRA.SOLV.lig_0>
-80.3833

>  <SCORE.INTRA.VDW>
1.89446

>  <SCORE.INTRA.VDW.0>
-4.63762

>  <SCORE.INTRA.norm>
-0.0790719

>  <SCORE.RESTR>
0

>  <SCORE.RESTR.CAVITY>
0

>  <SCORE.RESTR.norm>
0

>  <SCORE.SYSTEM>
0

>  <SCORE.SYSTEM.CONST>
0

>  <SCORE.SYSTEM.DIHEDRAL>
0

>  <SCORE.SYSTEM.SOLV>
0

>  <SCORE.SYSTEM.norm>
0

>  <SCORE.heavy>
31

>  <SCORE.norm>
-0.203691

>  <RMSD>
7.742

$$$$
ligand
 OpenBabel11021811473D
libRbt.so/2013.1/901 2013/11/27
 31 33  0  0  0  0  0  0  0  0999 V2000
   19.5657    1.3569   13.7510 C   0  0  0  0  0  0  0  0  0  0  0  0
   20.0798    9.4398   11.6347 N   0  0  0  0  0  0  0  0  0  0  0  0
   20.3112    0.1767   14.0673 O   0  0  0  0  0  0  0  0  0  0  0  0
   20.4996    2.5678   13.6807 C   0  0  1  0  0  0  0  0  0  0  0  0
   15.3864    8.4947   12.6260 N   0  0  0  0  0  0  0  0  0  0  0  0
   19.7696    3.7337   13.2515 O   0  0  0  0  0  0  0  0  0  0  0  0
   19.9639    4.7787   14.2211 C   0  0  1  0  0  0  0  0  0  0  0  0
   13.2126    7.8631   16.7160 N   0  0  0  0  0  0  0  0  0  0  0  0
   18.8016    5.6137   14.3429 O   0  0  0  0  0  0  0  0  0  0  0  0
   18.4669    6.3181   13.1380 C   0  0  2  0  0  0  0  0  0  0  0  0
   15.1507    3.1791   12.5819 N   0  0  0  0  0  0  0  0  0  0  0  0
   20.7714    6.9471   12.7689 O   0  0  0  0  0  0  0  0  0  0  0  0
   19.4620    7.4756   12.9959 C   0  0  1  0  0  0  0  0  0  0  0  0
   16.0649    5.7613   13.0988 O   0  0  0  0  0  0  0  0  0  0  0  0
   19.0753    8.3825   11.8259 C   0  0  1  0  0  0  0  0  0  0  0  0
   15.7522    5.5093   15.4176 O   0  0  0  0  0  0  0  0  0  0  0  0
   17.7064    9.0036   12.1048 C   0  0  0  0  0  0  0  0  0  0  0  0
   12.1108    5.9199   15.1995 O   0  0  0  0  0  0  0  0  0  0  0  0
   16.6620    7.8888   12.2149 C   0  0  1  0  0  0  0  0  0  0  0  0
   12.5437    3.4189   13.8496 O   0  0  0  0  0  0  0  0  0  0  0  0
   17.0295    6.8176   13.2489 C   0  0  2  0  0  0  0  0  0  0  0  0
   20.7841    4.7907   16.5416 O   0  0  0  0  0  0  0  0  0  0  0  0
   16.0283    4.8209   14.1837 C   0  0  1  0  0  0  0  0  0  0  0  0
   22.4067    3.3604   15.0187 O   0  0  0  0  0  0  0  0  0  0  0  0
   14.4969    6.2102   15.4339 C   0  0  2  0  0  0  0  0  0  0  0  0
   14.3290    6.9069   16.7863 C   0  0  0  0  0  0  0  0  0  0  0  0
   13.3527    5.2124   15.2463 C   0  0  2  0  0  0  0  0  0  0  0  0
   13.5439    4.4390   13.9401 C   0  0  1  0  0  0  0  0  0  0  0  0
   14.9301    3.7901   13.9017 C   0  0  1  0  0  0  0  0  0  0  0  0
   20.1440    4.0108   15.5289 C   0  0  2  0  0  0  0  0  0  0  0  0
   21.0608    2.8806   15.0707 C   0  0  1  0  0  0  0  0  0  0  0  0
  1  3  1  0  0  0  0
  4  1  1  1  0  0  0
  4  6  1  0  0  0  0
  4 31  1  0  0  0  0
  6  7  1  0  0  0  0
  7  9  1  1  0  0  0
  7 30  1  0  0  0  0
  8 26  1  0  0  0  0
 10  9  1  1  0  0  0
 10 13  1  0  0  0  0
 10 21  1  0  0  0  0
 13 12  1  6  0  0  0
 13 15  1  0  0  0  0
 15  2  1  1  0  0  0
 15 17  1  0  0  0  0
 16 25  1  0  0  0  0
 16 23  1  0  0  0  0
 17 19  1  0  0  0  0
 19  5  1  1  0  0  0
 19 21  1  0  0  0  0
 21 14  1  6  0  0  0
 23 14  1  6  0  0  0
 23 29  1  0  0  0  0
 25 26  1  1  0  0  0
 25 27  1  0  0  0  0
 27 18  1  6  0  0  0
 27 28  1  0  0  0  0
 28 20  1  1  0  0  0
 28 29  1  0  0  0  0
 29 11  1  6  0  0  0
 30 22  1  1  0  0  0
 30 31  1  0  0  0  0
 31 24  1  6  0  0  0
M  END
>  <CHROM.1>
175.13439078,-62.71159862,-75.83700998,57.87372444,69.30553652,167.39659058
17.42351857,5.34985108,14.03154020,0.26798070,-0.16466579,2.83674541

>  <Name>
ligand

>  <RI>
0

>  <Rbt.Current_Directory>
/home/itssahil/PROJECTS/Mol_Feturizer/New_Systems/rnas/3DVV

>  <Rbt.Executable>
rbdock ($Id: //depot/dev/client3/rdock/2013.1/src/exe/rbdock.cxx#4 $)

>  <Rbt.Library>
libRbt.so (2013.1, Build901 2013/11/27)

>  <Rbt.Parameter_File>
/export/apps/rDock/src/rDock_2013.1_src/data/scripts/dock_solv.prm

>  <Rbt.Receptor>
prm/pocket_docking_6.prm

>  <SCORE>
-5.32863

>  <SCORE.INTER>
-1.95703

>  <SCORE.INTER.CONST>
1

>  <SCORE.INTER.POLAR>
0

>  <SCORE.INTER.ROT>
6

>  <SCORE.INTER.SOLV>
13.7531

>  <SCORE.INTER.VDW>
-13.489

>  <SCORE.INTER.norm>
-0.06313

>  <SCORE.INTRA>
-3.3716

>  <SCORE.INTRA.DIHEDRAL>
-8.27795

>  <SCORE.INTRA.DIHEDRAL.0>
10.8172

>  <SCORE.INTRA.POLAR>
0

>  <SCORE.INTRA.POLAR.0>
0

>  <SCORE.INTRA.REPUL>
0

>  <SCORE.INTRA.REPUL.0>
0

>  <SCORE.INTRA.SOLV>
-3.29371

>  <SCORE.INTRA.SOLV.lig_0>
-80.3833

>  <SCORE.INTRA.VDW>
2.41423

>  <SCORE.INTRA.VDW.0>
-4.63762

>  <SCORE.INTRA.norm>
-0.108761

>  <SCORE.RESTR>
0

>  <SCORE.RESTR.CAVITY>
0

>  <SCORE.RESTR.norm>
0

>  <SCORE.SYSTEM>
0

>  <SCORE.SYSTEM.CONST>
0

>  <SCORE.SYSTEM.DIHEDRAL>
0

>  <SCORE.SYSTEM.SOLV>
0

>  <SCORE.SYSTEM.norm>
0

>  <SCORE.heavy>
31

>  <SCORE.norm>
-0.171891

>  <RMSD>
7.762

$$$$
ligand
 OpenBabel11021811473D
libRbt.so/2013.1/901 2013/11/27
 31 33  0  0  0  0  0  0  0  0999 V2000
   20.0526    5.4896   17.1419 C   0  0  0  0  0  0  0  0  0  0  0  0
   15.1087   12.1104   16.3798 N   0  0  0  0  0  0  0  0  0  0  0  0
   20.8612    5.9421   16.0509 O   0  0  0  0  0  0  0  0  0  0  0  0
   19.3977    6.6822   17.8433 C   0  0  1  0  0  0  0  0  0  0  0  0
   13.5533    9.0291   12.9172 N   0  0  0  0  0  0  0  0  0  0  0  0
   18.5057    7.3620   16.9386 O   0  0  0  0  0  0  0  0  0  0  0  0
   17.2066    7.4443   17.5513 C   0  0  1  0  0  0  0  0  0  0  0  0
   12.8012    3.8211   15.6942 N   0  0  0  0  0  0  0  0  0  0  0  0
   16.1537    7.3695   16.5772 O   0  0  0  0  0  0  0  0  0  0  0  0
   16.1144    8.4900   15.6811 C   0  0  2  0  0  0  0  0  0  0  0  0
   17.4302    5.5470   12.2688 N   0  0  0  0  0  0  0  0  0  0  0  0
   16.6905   10.0305   17.4525 O   0  0  0  0  0  0  0  0  0  0  0  0
   15.6747    9.7108   16.4978 C   0  0  1  0  0  0  0  0  0  0  0  0
   15.6587    7.2289   13.6116 O   0  0  0  0  0  0  0  0  0  0  0  0
   15.4424   10.9176   15.5865 C   0  0  1  0  0  0  0  0  0  0  0  0
   14.6942    5.4316   14.7854 O   0  0  0  0  0  0  0  0  0  0  0  0
   14.3064   10.5996   14.6140 C   0  0  0  0  0  0  0  0  0  0  0  0
   12.7539    4.2856   11.8875 O   0  0  0  0  0  0  0  0  0  0  0  0
   14.7113    9.4084   13.7408 C   0  0  1  0  0  0  0  0  0  0  0  0
   15.4626    3.7680   11.0753 O   0  0  0  0  0  0  0  0  0  0  0  0
   15.1332    8.1792   14.5549 C   0  0  2  0  0  0  0  0  0  0  0  0
   16.1626    6.2732   19.4477 O   0  0  0  0  0  0  0  0  0  0  0  0
   15.8894    5.9156   14.1453 C   0  0  1  0  0  0  0  0  0  0  0  0
   18.5791    7.1104   20.1242 O   0  0  0  0  0  0  0  0  0  0  0  0
   13.5569    5.3301   13.9117 C   0  0  2  0  0  0  0  0  0  0  0  0
   12.3549    4.8202   14.7102 C   0  0  0  0  0  0  0  0  0  0  0  0
   13.8624    4.3363   12.7895 C   0  0  2  0  0  0  0  0  0  0  0  0
   15.1142    4.7776   12.0284 C   0  0  1  0  0  0  0  0  0  0  0  0
   16.2831    4.9820   12.9958 C   0  0  1  0  0  0  0  0  0  0  0  0
   17.1504    6.1880   18.4179 C   0  0  2  0  0  0  0  0  0  0  0  0
   18.5508    6.1980   19.0237 C   0  0  1  0  0  0  0  0  0  0  0  0
  1  3  1  0  0  0  0
  4  1  1  6  0  0  0
  4  6  1  0  0  0  0
  4 31  1  0  0  0  0
  6  7  1  0  0  0  0
  7  9  1  6  0  0  0
  7 30  1  0  0  0  0
  8 26  1  0  0  0  0
 10  9  1  1  0  0  0
 10 13  1  0  0  0  0
 10 21  1  0  0  0  0
 13 12  1  1  0  0  0
 13 15  1  0  0  0  0
 15  2  1  1  0  0  0
 15 17  1  0  0  0  0
 16 25  1  0  0  0  0
 16 23  1  0  0  0  0
 17 19  1  0  0  0  0
 19  5  1  1  0  0  0
 19 21  1  0  0  0  0
 21 14  1  6  0  0  0
 23 14  1  6  0  0  0
 23 29  1  0  0  0  0
 25 26  1  1  0  0  0
 25 27  1  0  0  0  0
 27 18  1  6  0  0  0
 27 28  1  0  0  0  0
 28 20  1  6  0  0  0
 28 29  1  0  0  0  0
 29 11  1  6  0  0  0
 30 22  1  1  0  0  0
 30 31  1  0  0  0  0
 31 24  1  1  0  0  0
M  END
>  <CHROM.1>
63.24231691,-66.02307881,-69.07395876,52.92124183,65.16282520,-37.18857239
15.99983375,6.90456844,15.38939025,-0.68174474,0.76278977,-2.70894647

>  <Name>
ligand

>  <RI>
0

>  <Rbt.Current_Directory>
/home/itssahil/PROJECTS/Mol_Feturizer/New_Systems/rnas/3DVV

>  <Rbt.Executable>
rbdock ($Id: //depot/dev/client3/rdock/2013.1/src/exe/rbdock.cxx#4 $)

>  <Rbt.Library>
libRbt.so (2013.1, Build901 2013/11/27)

>  <Rbt.Parameter_File>
/export/apps/rDock/src/rDock_2013.1_src/data/scripts/dock_solv.prm

>  <Rbt.Receptor>
prm/pocket_docking_7.prm

>  <SCORE>
-3.23029

>  <SCORE.INTER>
-0.846301

>  <SCORE.INTER.CONST>
1

>  <SCORE.INTER.POLAR>
0

>  <SCORE.INTER.ROT>
6

>  <SCORE.INTER.SOLV>
12.194

>  <SCORE.INTER.VDW>
-12.2289

>  <SCORE.INTER.norm>
-0.0273

>  <SCORE.INTRA>
-2.39024

>  <SCORE.INTRA.DIHEDRAL>
-7.89066

>  <SCORE.INTRA.DIHEDRAL.0>
10.8172

>  <SCORE.INTRA.POLAR>
0

>  <SCORE.INTRA.POLAR.0>
0

>  <SCORE.INTRA.REPUL>
0

>  <SCORE.INTRA.REPUL.0>
0

>  <SCORE.INTRA.SOLV>
-3.28629

>  <SCORE.INTRA.SOLV.lig_0>
-80.3833

>  <SCORE.INTRA.VDW>
3.19823

>  <SCORE.INTRA.VDW.0>
-4.63762

>  <SCORE.INTRA.norm>
-0.0771046

>  <SCORE.RESTR>
0.00625192

>  <SCORE.RESTR.CAVITY>
0.00625192

>  <SCORE.RESTR.norm>
0.000201675

>  <SCORE.SYSTEM>
0

>  <SCORE.SYSTEM.CONST>
0

>  <SCORE.SYSTEM.DIHEDRAL>
0

>  <SCORE.SYSTEM.SOLV>
0

>  <SCORE.SYSTEM.norm>
0

>  <SCORE.heavy>
31

>  <SCORE.norm>
-0.104203

>  <RMSD>
7.785

$$$$
ligand
 OpenBabel11021811473D
libRbt.so/2013.1/901 2013/11/27
 31 33  0  0  0  0  0  0  0  0999 V2000
   16.4435    2.1524    9.9199 C   0  0  0  0  0  0  0  0  0  0  0  0
   21.5491    3.6791   15.9864 N   0  0  0  0  0  0  0  0  0  0  0  0
   16.2911    1.5699    8.6213 O   0  0  0  0  0  0  0  0  0  0  0  0
   17.6991    1.6019   10.6010 C   0  0  1  0  0  0  0  0  0  0  0  0
   17.1534    4.8609   17.7711 N   0  0  0  0  0  0  0  0  0  0  0  0
   17.9171    2.2727   11.8576 O   0  0  0  0  0  0  0  0  0  0  0  0
   18.0175    1.2811   12.8951 C   0  0  1  0  0  0  0  0  0  0  0  0
   14.7741    1.9869   19.0550 N   0  0  0  0  0  0  0  0  0  0  0  0
   17.4853    1.7591   14.1406 O   0  0  0  0  0  0  0  0  0  0  0  0
   18.0619    2.9985   14.5780 C   0  0  2  0  0  0  0  0  0  0  0  0
   14.2405    4.5934   13.1603 N   0  0  0  0  0  0  0  0  0  0  0  0
   20.2696    2.3155   13.8692 O   0  0  0  0  0  0  0  0  0  0  0  0
   19.5021    2.7024   15.0124 C   0  0  1  0  0  0  0  0  0  0  0  0
   15.9690    4.0917   15.2890 O   0  0  0  0  0  0  0  0  0  0  0  0
   20.1400    3.9369   15.6527 C   0  0  1  0  0  0  0  0  0  0  0  0
   14.5346    2.4592   16.1920 O   0  0  0  0  0  0  0  0  0  0  0  0
   19.3607    4.3053   16.9155 C   0  0  0  0  0  0  0  0  0  0  0  0
   12.1985    4.9413   17.5550 O   0  0  0  0  0  0  0  0  0  0  0  0
   17.9191    4.6526   16.5327 C   0  0  1  0  0  0  0  0  0  0  0  0
   11.8776    5.2677   14.7168 O   0  0  0  0  0  0  0  0  0  0  0  0
   17.2245    3.5458   15.7300 C   0  0  2  0  0  0  0  0  0  0  0  0
   17.4010   -1.0987   13.0145 O   0  0  0  0  0  0  0  0  0  0  0  0
   14.9618    3.1145   14.9835 C   0  0  1  0  0  0  0  0  0  0  0  0
   18.7345   -0.6233   10.7799 O   0  0  0  0  0  0  0  0  0  0  0  0
   13.9694    3.3437   17.1745 C   0  0  2  0  0  0  0  0  0  0  0  0
   13.5696    2.5323   18.4091 C   0  0  0  0  0  0  0  0  0  0  0  0
   12.7212    4.0153   16.5988 C   0  0  2  0  0  0  0  0  0  0  0  0
   13.0776    4.7633   15.3126 C   0  0  1  0  0  0  0  0  0  0  0  0
   13.7745    3.8243   14.3243 C   0  0  1  0  0  0  0  0  0  0  0  0
   17.1188    0.1550   12.3883 C   0  0  2  0  0  0  0  0  0  0  0  0
   17.5173    0.1144   10.9160 C   0  0  1  0  0  0  0  0  0  0  0  0
  1  3  1  0  0  0  0
  4  1  1  1  0  0  0
  4  6  1  0  0  0  0
  4 31  1  0  0  0  0
  6  7  1  0  0  0  0
  7  9  1  1  0  0  0
  7 30  1  0  0  0  0
  8 26  1  0  0  0  0
 10  9  1  1  0  0  0
 10 13  1  0  0  0  0
 10 21  1  0  0  0  0
 13 12  1  6  0  0  0
 13 15  1  0  0  0  0
 15  2  1  1  0  0  0
 15 17  1  0  0  0  0
 16 25  1  0  0  0  0
 16 23  1  0  0  0  0
 17 19  1  0  0  0  0
 19  5  1  1  0  0  0
 19 21  1  0  0  0  0
 21 14  1  6  0  0  0
 23 14  1  1  0  0  0
 23 29  1  0  0  0  0
 25 26  1  1  0  0  0
 25 27  1  0  0  0  0
 27 18  1  1  0  0  0
 27 28  1  0  0  0  0
 28 20  1  6  0  0  0
 28 29  1  0  0  0  0
 29 11  1  6  0  0  0
 30 22  1  1  0  0  0
 30 31  1  0  0  0  0
 31 24  1  1  0  0  0
M  END
>  <CHROM.1>
175.01386014,-54.28397836,-70.87491885,68.48151461,77.55878473,66.11088435
16.48707573,2.78531600,14.47459228,0.95074485,0.14134932,-1.97957553

>  <Name>
ligand

>  <RI>
0

>  <Rbt.Current_Directory>
/home/itssahil/PROJECTS/Mol_Feturizer/New_Systems/rnas/3DVV

>  <Rbt.Executable>
rbdock ($Id: //depot/dev/client3/rdock/2013.1/src/exe/rbdock.cxx#4 $)

>  <Rbt.Library>
libRbt.so (2013.1, Build901 2013/11/27)

>  <Rbt.Parameter_File>
/export/apps/rDock/src/rDock_2013.1_src/data/scripts/dock_solv.prm

>  <Rbt.Receptor>
prm/pocket_docking_7.prm

>  <SCORE>
-5.08973

>  <SCORE.INTER>
-2.08327

>  <SCORE.INTER.CONST>
1

>  <SCORE.INTER.POLAR>
0

>  <SCORE.INTER.ROT>
6

>  <SCORE.INTER.SOLV>
14.7263

>  <SCORE.INTER.VDW>
-13.8976

>  <SCORE.INTER.norm>
-0.0672024

>  <SCORE.INTRA>
-3.00646

>  <SCORE.INTRA.DIHEDRAL>
-7.87389

>  <SCORE.INTRA.DIHEDRAL.0>
10.8172

>  <SCORE.INTRA.POLAR>
0

>  <SCORE.INTRA.POLAR.0>
0

>  <SCORE.INTRA.REPUL>
0

>  <SCORE.INTRA.REPUL.0>
0

>  <SCORE.INTRA.SOLV>
-3.00942

>  <SCORE.INTRA.SOLV.lig_0>
-80.3833

>  <SCORE.INTRA.VDW>
2.4352

>  <SCORE.INTRA.VDW.0>
-4.63762

>  <SCORE.INTRA.norm>
-0.0969825

>  <SCORE.RESTR>
0

>  <SCORE.RESTR.CAVITY>
0

>  <SCORE.RESTR.norm>
0

>  <SCORE.SYSTEM>
0

>  <SCORE.SYSTEM.CONST>
0

>  <SCORE.SYSTEM.DIHEDRAL>
0

>  <SCORE.SYSTEM.SOLV>
0

>  <SCORE.SYSTEM.norm>
0

>  <SCORE.heavy>
31

>  <SCORE.norm>
-0.164185

>  <RMSD>
7.793

$$$$
ligand
 OpenBabel11021811473D
libRbt.so/2013.1/901 2013/11/27
 31 33  0  0  0  0  0  0  0  0999 V2000
   15.6410   -1.4522   11.1659 C   0  0  0  0  0  0  0  0  0  0  0  0
   21.4930    2.9983   15.4300 N   0  0  0  0  0  0  0  0  0  0  0  0
   16.9622   -1.7213   11.6464 O   0  0  0  0  0  0  0  0  0  0  0  0
   15.2682    0.0076   11.4367 C   0  0  1  0  0  0  0  0  0  0  0  0
   17.4427    4.7465   17.5377 N   0  0  0  0  0  0  0  0  0  0  0  0
   15.4254    0.3087   12.8371 O   0  0  0  0  0  0  0  0  0  0  0  0
   16.2914    1.4503   12.9660 C   0  0  1  0  0  0  0  0  0  0  0  0
   14.7218    1.9646   19.0891 N   0  0  0  0  0  0  0  0  0  0  0  0
   17.0934    1.3776   14.1553 O   0  0  0  0  0  0  0  0  0  0  0  0
   17.8275    2.5794   14.4320 C   0  0  2  0  0  0  0  0  0  0  0  0
   14.1693    4.5312   13.1832 N   0  0  0  0  0  0  0  0  0  0  0  0
   19.8732    1.6260   13.5667 O   0  0  0  0  0  0  0  0  0  0  0  0
   19.2713    2.1693   14.7448 C   0  0  1  0  0  0  0  0  0  0  0  0
   15.9343    3.9284   15.2549 O   0  0  0  0  0  0  0  0  0  0  0  0
   20.0870    3.3744   15.2171 C   0  0  1  0  0  0  0  0  0  0  0  0
   14.4130    2.4277   16.2408 O   0  0  0  0  0  0  0  0  0  0  0  0
   19.4844    3.9091   16.5165 C   0  0  0  0  0  0  0  0  0  0  0  0
   12.3317    5.1066   17.6438 O   0  0  0  0  0  0  0  0  0  0  0  0
   18.0495    4.3738   16.2508 C   0  0  1  0  0  0  0  0  0  0  0  0
   11.9280    5.4130   14.8140 O   0  0  0  0  0  0  0  0  0  0  0  0
   17.1724    3.2897   15.6128 C   0  0  2  0  0  0  0  0  0  0  0  0
   17.8561    2.5591   11.4232 O   0  0  0  0  0  0  0  0  0  0  0  0
   14.8430    3.0286   15.0053 C   0  0  1  0  0  0  0  0  0  0  0  0
   15.5484    2.1205   10.2067 O   0  0  0  0  0  0  0  0  0  0  0  0
   13.9568    3.3691   17.2271 C   0  0  2  0  0  0  0  0  0  0  0  0
   13.5430    2.6109   18.4906 C   0  0  0  0  0  0  0  0  0  0  0  0
   12.7434    4.1276   16.6861 C   0  0  2  0  0  0  0  0  0  0  0  0
   13.1071    4.8253   15.3738 C   0  0  1  0  0  0  0  0  0  0  0  0
   13.6901    3.8192   14.3778 C   0  0  1  0  0  0  0  0  0  0  0  0
   17.2139    1.3258   11.7552 C   0  0  2  0  0  0  0  0  0  0  0  0
   16.2104    0.9416   10.6720 C   0  0  1  0  0  0  0  0  0  0  0  0
  1  3  1  0  0  0  0
  4  1  1  1  0  0  0
  4  6  1  0  0  0  0
  4 31  1  0  0  0  0
  6  7  1  0  0  0  0
  7  9  1  1  0  0  0
  7 30  1  0  0  0  0
  8 26  1  0  0  0  0
 10  9  1  1  0  0  0
 10 13  1  0  0  0  0
 10 21  1  0  0  0  0
 13 12  1  6  0  0  0
 13 15  1  0  0  0  0
 15  2  1  1  0  0  0
 15 17  1  0  0  0  0
 16 25  1  0  0  0  0
 16 23  1  0  0  0  0
 17 19  1  0  0  0  0
 19  5  1  1  0  0  0
 19 21  1  0  0  0  0
 21 14  1  6  0  0  0
 23 14  1  1  0  0  0
 23 29  1  0  0  0  0
 25 26  1  1  0  0  0
 25 27  1  0  0  0  0
 27 18  1  1  0  0  0
 27 28  1  0  0  0  0
 28 20  1  6  0  0  0
 28 29  1  0  0  0  0
 29 11  1  6  0  0  0
 30 22  1  6  0  0  0
 30 31  1  0  0  0  0
 31 24  1  1  0  0  0
M  END
>  <CHROM.1>
-54.91793130,-171.31984433,-132.34328250,70.58432631,71.88064106,65.20340593
16.09849725,2.59890662,14.51669276,1.00790953,0.08533245,-2.11960244

>  <Name>
ligand

>  <RI>
0

>  <Rbt.Current_Directory>
/home/itssahil/PROJECTS/Mol_Feturizer/New_Systems/rnas/3DVV

>  <Rbt.Executable>
rbdock ($Id: //depot/dev/client3/rdock/2013.1/src/exe/rbdock.cxx#4 $)

>  <Rbt.Library>
libRbt.so (2013.1, Build901 2013/11/27)

>  <Rbt.Parameter_File>
/export/apps/rDock/src/rDock_2013.1_src/data/scripts/dock_solv.prm

>  <Rbt.Receptor>
prm/pocket_docking_6.prm

>  <SCORE>
-4.58536

>  <SCORE.INTER>
-3.41519

>  <SCORE.INTER.CONST>
1

>  <SCORE.INTER.POLAR>
0

>  <SCORE.INTER.ROT>
6

>  <SCORE.INTER.SOLV>
17.0247

>  <SCORE.INTER.VDW>
-15.5517

>  <SCORE.INTER.norm>
-0.110167

>  <SCORE.INTRA>
-1.17017

>  <SCORE.INTRA.DIHEDRAL>
-2.33587

>  <SCORE.INTRA.DIHEDRAL.0>
10.8172

>  <SCORE.INTRA.POLAR>
0

>  <SCORE.INTRA.POLAR.0>
0

>  <SCORE.INTRA.REPUL>
0

>  <SCORE.INTRA.REPUL.0>
0

>  <SCORE.INTRA.SOLV>
-2.04582

>  <SCORE.INTRA.SOLV.lig_0>
-80.3833

>  <SCORE.INTRA.VDW>
1.02068

>  <SCORE.INTRA.VDW.0>
-4.63762

>  <SCORE.INTRA.norm>
-0.0377474

>  <SCORE.RESTR>
0

>  <SCORE.RESTR.CAVITY>
0

>  <SCORE.RESTR.norm>
0

>  <SCORE.SYSTEM>
0

>  <SCORE.SYSTEM.CONST>
0

>  <SCORE.SYSTEM.DIHEDRAL>
0

>  <SCORE.SYSTEM.SOLV>
0

>  <SCORE.SYSTEM.norm>
0

>  <SCORE.heavy>
31

>  <SCORE.norm>
-0.147915

>  <RMSD>
7.796

$$$$
ligand
 OpenBabel11021811473D
libRbt.so/2013.1/901 2013/11/27
 31 33  0  0  0  0  0  0  0  0999 V2000
   20.0252    8.0898   12.3774 C   0  0  0  0  0  0  0  0  0  0  0  0
   12.9543    4.4283   13.5068 N   0  0  0  0  0  0  0  0  0  0  0  0
   21.0330    8.5149   11.4541 O   0  0  0  0  0  0  0  0  0  0  0  0
   18.7382    7.7363   11.6277 C   0  0  1  0  0  0  0  0  0  0  0  0
   13.7053    6.9407   17.6332 N   0  0  0  0  0  0  0  0  0  0  0  0
   17.7228    7.3109   12.5574 O   0  0  0  0  0  0  0  0  0  0  0  0
   16.5486    8.1170   12.3542 C   0  0  1  0  0  0  0  0  0  0  0  0
   13.3265   11.4041   16.4637 N   0  0  0  0  0  0  0  0  0  0  0  0
   15.8370    8.3388   13.5819 O   0  0  0  0  0  0  0  0  0  0  0  0
   15.5344    7.1338   14.3006 C   0  0  2  0  0  0  0  0  0  0  0  0
   18.8778    8.1752   17.0786 N   0  0  0  0  0  0  0  0  0  0  0  0
   14.9732    5.9624   12.2621 O   0  0  0  0  0  0  0  0  0  0  0  0
   14.4416    6.3982   13.5163 C   0  0  1  0  0  0  0  0  0  0  0  0
   16.1513    7.9385   16.5484 O   0  0  0  0  0  0  0  0  0  0  0  0
   13.9370    5.1839   14.2985 C   0  0  1  0  0  0  0  0  0  0  0  0
   15.9370   10.2440   16.1276 O   0  0  0  0  0  0  0  0  0  0  0  0
   13.3036    5.6586   15.6064 C   0  0  0  0  0  0  0  0  0  0  0  0
   16.0410   11.1333   19.6877 O   0  0  0  0  0  0  0  0  0  0  0  0
   14.3665    6.3672   16.4512 C   0  0  1  0  0  0  0  0  0  0  0  0
   18.6993   10.1495   19.2072 O   0  0  0  0  0  0  0  0  0  0  0  0
   15.0690    7.5077   15.7047 C   0  0  2  0  0  0  0  0  0  0  0  0
   16.1536   10.2551   11.2008 O   0  0  0  0  0  0  0  0  0  0  0  0
   16.8341    9.1185   16.0963 C   0  0  1  0  0  0  0  0  0  0  0  0
   17.5790    8.6476    9.6576 O   0  0  0  0  0  0  0  0  0  0  0  0
   15.4114   10.5433   17.4319 C   0  0  2  0  0  0  0  0  0  0  0  0
   14.4674   11.7437   17.3290 C   0  0  0  0  0  0  0  0  0  0  0  0
   16.5612   10.8982   18.3765 C   0  0  2  0  0  0  0  0  0  0  0  0
   17.5667    9.7463   18.4300 C   0  0  1  0  0  0  0  0  0  0  0  0
   18.0303    9.3760   17.0187 C   0  0  1  0  0  0  0  0  0  0  0  0
   17.1205    9.4519   11.8815 C   0  0  2  0  0  0  0  0  0  0  0  0
   18.1926    8.9726   10.9075 C   0  0  1  0  0  0  0  0  0  0  0  0
  1  3  1  0  0  0  0
  4  1  1  1  0  0  0
  4  6  1  0  0  0  0
  4 31  1  0  0  0  0
  6  7  1  0  0  0  0
  7  9  1  1  0  0  0
  7 30  1  0  0  0  0
  8 26  1  0  0  0  0
 10  9  1  6  0  0  0
 10 13  1  0  0  0  0
 10 21  1  0  0  0  0
 13 12  1  6  0  0  0
 13 15  1  0  0  0  0
 15  2  1  6  0  0  0
 15 17  1  0  0  0  0
 16 25  1  0  0  0  0
 16 23  1  0  0  0  0
 17 19  1  0  0  0  0
 19  5  1  1  0  0  0
 19 21  1  0  0  0  0
 21 14  1  1  0  0  0
 23 14  1  1  0  0  0
 23 29  1  0  0  0  0
 25 26  1  6  0  0  0
 25 27  1  0  0  0  0
 27 18  1  1  0  0  0
 27 28  1  0  0  0  0
 28 20  1  1  0  0  0
 28 29  1  0  0  0  0
 29 11  1  1  0  0  0
 30 22  1  6  0  0  0
 30 31  1  0  0  0  0
 31 24  1  6  0  0  0
M  END
>  <CHROM.1>
-179.88133766,-52.45862407,-71.45668285,64.76526582,61.95351203,62.67309524
16.32676135,8.45726711,14.83115244,-1.30896360,0.59100393,1.11217071

>  <Name>
ligand

>  <RI>
0

>  <Rbt.Current_Directory>
/home/itssahil/PROJECTS/Mol_Feturizer/New_Systems/rnas/3DVV

>  <Rbt.Executable>
rbdock ($Id: //depot/dev/client3/rdock/2013.1/src/exe/rbdock.cxx#4 $)

>  <Rbt.Library>
libRbt.so (2013.1, Build901 2013/11/27)

>  <Rbt.Parameter_File>
/export/apps/rDock/src/rDock_2013.1_src/data/scripts/dock_solv.prm

>  <Rbt.Receptor>
prm/pocket_docking_8.prm

>  <SCORE>
-8.06237

>  <SCORE.INTER>
-4.16246

>  <SCORE.INTER.CONST>
1

>  <SCORE.INTER.POLAR>
0

>  <SCORE.INTER.ROT>
6

>  <SCORE.INTER.SOLV>
15.1854

>  <SCORE.INTER.VDW>
-15.4368

>  <SCORE.INTER.norm>
-0.134273

>  <SCORE.INTRA>
-3.89991

>  <SCORE.INTRA.DIHEDRAL>
-9.49406

>  <SCORE.INTRA.DIHEDRAL.0>
10.8172

>  <SCORE.INTRA.POLAR>
0

>  <SCORE.INTRA.POLAR.0>
0

>  <SCORE.INTRA.REPUL>
0

>  <SCORE.INTRA.REPUL.0>
0

>  <SCORE.INTRA.SOLV>
-4.27755

>  <SCORE.INTRA.SOLV.lig_0>
-80.3833

>  <SCORE.INTRA.VDW>
2.9859

>  <SCORE.INTRA.VDW.0>
-4.63762

>  <SCORE.INTRA.norm>
-0.125803

>  <SCORE.RESTR>
0

>  <SCORE.RESTR.CAVITY>
0

>  <SCORE.RESTR.norm>
0

>  <SCORE.SYSTEM>
0

>  <SCORE.SYSTEM.CONST>
0

>  <SCORE.SYSTEM.DIHEDRAL>
0

>  <SCORE.SYSTEM.SOLV>
0

>  <SCORE.SYSTEM.norm>
0

>  <SCORE.heavy>
31

>  <SCORE.norm>
-0.260076

>  <RMSD>
7.811

$$$$
ligand
 OpenBabel11021811473D
libRbt.so/2013.1/901 2013/11/27
 31 33  0  0  0  0  0  0  0  0999 V2000
   13.1862    4.3799   12.5188 C   0  0  0  0  0  0  0  0  0  0  0  0
   15.8855   11.4221   17.3226 N   0  0  0  0  0  0  0  0  0  0  0  0
   14.2689    3.8798   11.7273 O   0  0  0  0  0  0  0  0  0  0  0  0
   13.4829    4.1772   14.0068 C   0  0  1  0  0  0  0  0  0  0  0  0
   17.1862    7.3699   19.7291 N   0  0  0  0  0  0  0  0  0  0  0  0
   14.6534    4.9270   14.3866 O   0  0  0  0  0  0  0  0  0  0  0  0
   14.3133    5.7767   15.4966 C   0  0  1  0  0  0  0  0  0  0  0  0
   13.1709    3.1182   21.0795 N   0  0  0  0  0  0  0  0  0  0  0  0
   15.0441    7.0127   15.4635 O   0  0  0  0  0  0  0  0  0  0  0  0
   14.9482    7.7737   16.6766 C   0  0  2  0  0  0  0  0  0  0  0  0
   17.4799    5.1868   16.7654 N   0  0  0  0  0  0  0  0  0  0  0  0
   14.5025    9.8130   15.4580 O   0  0  0  0  0  0  0  0  0  0  0  0
   15.4246    9.1962   16.3605 C   0  0  1  0  0  0  0  0  0  0  0  0
   15.2330    5.8993   18.2534 O   0  0  0  0  0  0  0  0  0  0  0  0
   15.5158   10.0338   17.6376 C   0  0  1  0  0  0  0  0  0  0  0  0
   15.4753    4.0456   19.6829 O   0  0  0  0  0  0  0  0  0  0  0  0
   16.5556    9.4128   18.5707 C   0  0  0  0  0  0  0  0  0  0  0  0
   14.1474    1.6795   17.2101 O   0  0  0  0  0  0  0  0  0  0  0  0
   16.1067    7.9995   18.9534 C   0  0  1  0  0  0  0  0  0  0  0  0
   16.6295    2.5072   16.0190 O   0  0  0  0  0  0  0  0  0  0  0  0
   15.8179    7.1085   17.7391 C   0  0  2  0  0  0  0  0  0  0  0  0
   12.1708    6.5343   16.4419 O   0  0  0  0  0  0  0  0  0  0  0  0
   16.1693    4.9763   18.8317 C   0  0  1  0  0  0  0  0  0  0  0  0
   12.1003    3.9228   16.0266 O   0  0  0  0  0  0  0  0  0  0  0  0
   14.4799    3.2579   19.0077 C   0  0  2  0  0  0  0  0  0  0  0  0
   13.8093    2.3238   20.0178 C   0  0  0  0  0  0  0  0  0  0  0  0
   15.1479    2.4133   17.9211 C   0  0  2  0  0  0  0  0  0  0  0  0
   15.9002    3.3198   16.9447 C   0  0  1  0  0  0  0  0  0  0  0  0
   16.8777    4.2239   17.7002 C   0  0  1  0  0  0  0  0  0  0  0  0
   12.8363    6.0845   15.2594 C   0  0  2  0  0  0  0  0  0  0  0  0
   12.3211    4.7074   14.8518 C   0  0  1  0  0  0  0  0  0  0  0  0
  1  3  1  0  0  0  0
  4  1  1  6  0  0  0
  4  6  1  0  0  0  0
  4 31  1  0  0  0  0
  6  7  1  0  0  0  0
  7  9  1  6  0  0  0
  7 30  1  0  0  0  0
  8 26  1  0  0  0  0
 10  9  1  6  0  0  0
 10 13  1  0  0  0  0
 10 21  1  0  0  0  0
 13 12  1  6  0  0  0
 13 15  1  0  0  0  0
 15  2  1  6  0  0  0
 15 17  1  0  0  0  0
 16 25  1  0  0  0  0
 16 23  1  0  0  0  0
 17 19  1  0  0  0  0
 19  5  1  6  0  0  0
 19 21  1  0  0  0  0
 21 14  1  1  0  0  0
 23 14  1  6  0  0  0
 23 29  1  0  0  0  0
 25 26  1  1  0  0  0
 25 27  1  0  0  0  0
 27 18  1  6  0  0  0
 27 28  1  0  0  0  0
 28 20  1  6  0  0  0
 28 29  1  0  0  0  0
 29 11  1  6  0  0  0
 30 22  1  1  0  0  0
 30 31  1  0  0  0  0
 31 24  1  1  0  0  0
M  END
>  <CHROM.1>
62.59131623,-168.09594363,-164.38400847,161.25754080,156.91738665,60.01879634
14.84297070,5.59597151,16.86565895,2.25923035,1.18137561,2.64665545

>  <Name>
ligand

>  <RI>
0

>  <Rbt.Current_Directory>
/home/itssahil/PROJECTS/Mol_Feturizer/New_Systems/rnas/3DVV

>  <Rbt.Executable>
rbdock ($Id: //depot/dev/client3/rdock/2013.1/src/exe/rbdock.cxx#4 $)

>  <Rbt.Library>
libRbt.so (2013.1, Build901 2013/11/27)

>  <Rbt.Parameter_File>
/export/apps/rDock/src/rDock_2013.1_src/data/scripts/dock_solv.prm

>  <Rbt.Receptor>
prm/pocket_docking_8.prm

>  <SCORE>
-4.4393

>  <SCORE.INTER>
-3.84561

>  <SCORE.INTER.CONST>
1

>  <SCORE.INTER.POLAR>
0

>  <SCORE.INTER.ROT>
6

>  <SCORE.INTER.SOLV>
10.4713

>  <SCORE.INTER.VDW>
-13.6542

>  <SCORE.INTER.norm>
-0.124052

>  <SCORE.INTRA>
-0.593684

>  <SCORE.INTRA.DIHEDRAL>
-4.87243

>  <SCORE.INTRA.DIHEDRAL.0>
10.8172

>  <SCORE.INTRA.POLAR>
0

>  <SCORE.INTRA.POLAR.0>
0

>  <SCORE.INTRA.REPUL>
0

>  <SCORE.INTRA.REPUL.0>
0

>  <SCORE.INTRA.SOLV>
1.71371

>  <SCORE.INTRA.SOLV.lig_0>
-80.3833

>  <SCORE.INTRA.VDW>
0.985675

>  <SCORE.INTRA.VDW.0>
-4.63762

>  <SCORE.INTRA.norm>
-0.0191511

>  <SCORE.RESTR>
0

>  <SCORE.RESTR.CAVITY>
0

>  <SCORE.RESTR.norm>
0

>  <SCORE.SYSTEM>
0

>  <SCORE.SYSTEM.CONST>
0

>  <SCORE.SYSTEM.DIHEDRAL>
0

>  <SCORE.SYSTEM.SOLV>
0

>  <SCORE.SYSTEM.norm>
0

>  <SCORE.heavy>
31

>  <SCORE.norm>
-0.143203

>  <RMSD>
7.831

$$$$
ligand
 OpenBabel11021811473D
libRbt.so/2013.1/901 2013/11/27
 31 33  0  0  0  0  0  0  0  0999 V2000
   19.4365    9.0663   15.7730 C   0  0  0  0  0  0  0  0  0  0  0  0
   18.5695    3.0254   17.1805 N   0  0  0  0  0  0  0  0  0  0  0  0
   19.2617   10.1070   14.8059 O   0  0  0  0  0  0  0  0  0  0  0  0
   18.0786    8.6265   16.3260 C   0  0  1  0  0  0  0  0  0  0  0  0
   14.6751    4.1791   19.9020 N   0  0  0  0  0  0  0  0  0  0  0  0
   18.2450    7.5098   17.2213 O   0  0  0  0  0  0  0  0  0  0  0  0
   17.6368    7.8391   18.4829 C   0  0  1  0  0  0  0  0  0  0  0  0
   13.3112    8.2068   18.9051 N   0  0  0  0  0  0  0  0  0  0  0  0
   18.3398    7.2419   19.5839 O   0  0  0  0  0  0  0  0  0  0  0  0
   18.0984    5.8345   19.7288 C   0  0  2  0  0  0  0  0  0  0  0  0
   17.0834    6.7658   23.9616 N   0  0  0  0  0  0  0  0  0  0  0  0
   19.9057    5.2865   18.2202 O   0  0  0  0  0  0  0  0  0  0  0  0
   18.4928    5.1664   18.4065 C   0  0  1  0  0  0  0  0  0  0  0  0
   16.2946    5.9901   21.4030 O   0  0  0  0  0  0  0  0  0  0  0  0
   18.1098    3.6851   18.4121 C   0  0  1  0  0  0  0  0  0  0  0  0
   15.4186    8.1213   20.9246 O   0  0  0  0  0  0  0  0  0  0  0  0
   16.5913    3.5609   18.5384 C   0  0  0  0  0  0  0  0  0  0  0  0
   12.4029    7.5845   22.9479 O   0  0  0  0  0  0  0  0  0  0  0  0
   16.1455    4.1780   19.8674 C   0  0  1  0  0  0  0  0  0  0  0  0
   14.4859    7.6485   24.9283 O   0  0  0  0  0  0  0  0  0  0  0  0
   16.6221    5.6240   20.0511 C   0  0  2  0  0  0  0  0  0  0  0  0
   16.9088    9.9598   19.4979 O   0  0  0  0  0  0  0  0  0  0  0  0
   16.3984    7.3939   21.6884 C   0  0  1  0  0  0  0  0  0  0  0  0
   16.0271    9.8016   17.0089 O   0  0  0  0  0  0  0  0  0  0  0  0
   14.0586    7.7425   21.1966 C   0  0  2  0  0  0  0  0  0  0  0  0
   13.1210    8.5736   20.3175 C   0  0  0  0  0  0  0  0  0  0  0  0
   13.7352    8.0211   22.6656 C   0  0  2  0  0  0  0  0  0  0  0  0
   14.7159    7.2687   23.5674 C   0  0  1  0  0  0  0  0  0  0  0  0
   16.1594    7.6081   23.1867 C   0  0  1  0  0  0  0  0  0  0  0  0
   17.8090    9.3543   18.5671 C   0  0  2  0  0  0  0  0  0  0  0  0
   17.4502    9.7606   17.1408 C   0  0  1  0  0  0  0  0  0  0  0  0
  1  3  1  0  0  0  0
  4  1  1  1  0  0  0
  4  6  1  0  0  0  0
  4 31  1  0  0  0  0
  6  7  1  0  0  0  0
  7  9  1  1  0  0  0
  7 30  1  0  0  0  0
  8 26  1  0  0  0  0
 10  9  1  6  0  0  0
 10 13  1  0  0  0  0
 10 21  1  0  0  0  0
 13 12  1  1  0  0  0
 13 15  1  0  0  0  0
 15  2  1  6  0  0  0
 15 17  1  0  0  0  0
 16 25  1  0  0  0  0
 16 23  1  0  0  0  0
 17 19  1  0  0  0  0
 19  5  1  6  0  0  0
 19 21  1  0  0  0  0
 21 14  1  1  0  0  0
 23 14  1  1  0  0  0
 23 29  1  0  0  0  0
 25 26  1  6  0  0  0
 25 27  1  0  0  0  0
 27 18  1  1  0  0  0
 27 28  1  0  0  0  0
 28 20  1  1  0  0  0
 28 29  1  0  0  0  0
 29 11  1  1  0  0  0
 30 22  1  1  0  0  0
 30 31  1  0  0  0  0
 31 24  1  1  0  0  0
M  END
>  <CHROM.1>
175.55991889,-75.43017336,57.18395665,65.27614947,67.28941273,66.93188695
16.57115961,7.16034242,19.68059734,0.41253214,0.90128707,-0.45397317

>  <Name>
ligand

>  <RI>
0

>  <Rbt.Current_Directory>
/home/itssahil/PROJECTS/Mol_Feturizer/New_Systems/rnas/3DVV

>  <Rbt.Executable>
rbdock ($Id: //depot/dev/client3/rdock/2013.1/src/exe/rbdock.cxx#4 $)

>  <Rbt.Library>
libRbt.so (2013.1, Build901 2013/11/27)

>  <Rbt.Parameter_File>
/export/apps/rDock/src/rDock_2013.1_src/data/scripts/dock_solv.prm

>  <Rbt.Receptor>
prm/pocket_docking_8.prm

>  <SCORE>
-5.23264

>  <SCORE.INTER>
-2.39965

>  <SCORE.INTER.CONST>
1

>  <SCORE.INTER.POLAR>
0

>  <SCORE.INTER.ROT>
6

>  <SCORE.INTER.SOLV>
12.4

>  <SCORE.INTER.VDW>
-13.3331

>  <SCORE.INTER.norm>
-0.0774081

>  <SCORE.INTRA>
-2.83299

>  <SCORE.INTRA.DIHEDRAL>
-8.8119

>  <SCORE.INTRA.DIHEDRAL.0>
10.8172

>  <SCORE.INTRA.POLAR>
0

>  <SCORE.INTRA.POLAR.0>
0

>  <SCORE.INTRA.REPUL>
0

>  <SCORE.INTRA.REPUL.0>
0

>  <SCORE.INTRA.SOLV>
-2.40439

>  <SCORE.INTRA.SOLV.lig_0>
-80.3833

>  <SCORE.INTRA.VDW>
2.77516

>  <SCORE.INTRA.VDW.0>
-4.63762

>  <SCORE.INTRA.norm>
-0.0913868

>  <SCORE.RESTR>
0

>  <SCORE.RESTR.CAVITY>
0

>  <SCORE.RESTR.norm>
0

>  <SCORE.SYSTEM>
0

>  <SCORE.SYSTEM.CONST>
0

>  <SCORE.SYSTEM.DIHEDRAL>
0

>  <SCORE.SYSTEM.SOLV>
0

>  <SCORE.SYSTEM.norm>
0

>  <SCORE.heavy>
31

>  <SCORE.norm>
-0.168795

>  <RMSD>
7.832

$$$$
ligand
 OpenBabel11021811473D
libRbt.so/2013.1/901 2013/11/27
 31 33  0  0  0  0  0  0  0  0999 V2000
   19.5760    1.6646   12.4188 C   0  0  0  0  0  0  0  0  0  0  0  0
   19.7234    9.5360   15.9174 N   0  0  0  0  0  0  0  0  0  0  0  0
   19.1264    2.0527   11.1165 O   0  0  0  0  0  0  0  0  0  0  0  0
   20.3979    2.7908   13.0506 C   0  0  1  0  0  0  0  0  0  0  0  0
   15.0450    8.3368   15.1574 N   0  0  0  0  0  0  0  0  0  0  0  0
   19.5783    3.9619   13.2327 O   0  0  0  0  0  0  0  0  0  0  0  0
   19.6484    4.3603   14.6134 C   0  0  1  0  0  0  0  0  0  0  0  0
   13.7880    4.8209   17.5476 N   0  0  0  0  0  0  0  0  0  0  0  0
   18.4121    4.9360   15.0640 O   0  0  0  0  0  0  0  0  0  0  0  0
   18.2024    6.2819   14.6119 C   0  0  2  0  0  0  0  0  0  0  0  0
   15.8127    4.4917   11.4289 N   0  0  0  0  0  0  0  0  0  0  0  0
   20.4656    6.9121   15.1804 O   0  0  0  0  0  0  0  0  0  0  0  0
   19.0925    7.1929   15.4653 C   0  0  1  0  0  0  0  0  0  0  0  0
   15.8996    5.9851   13.7810 O   0  0  0  0  0  0  0  0  0  0  0  0
   18.8069    8.6657   15.1651 C   0  0  1  0  0  0  0  0  0  0  0  0
   15.1058    4.1812   15.0671 O   0  0  0  0  0  0  0  0  0  0  0  0
   17.3584    8.9813   15.5387 C   0  0  0  0  0  0  0  0  0  0  0  0
   11.6430    4.5941   13.9203 O   0  0  0  0  0  0  0  0  0  0  0  0
   16.4207    8.1253   14.6823 C   0  0  1  0  0  0  0  0  0  0  0  0
   13.0011    3.7533   11.5301 O   0  0  0  0  0  0  0  0  0  0  0  0
   16.7242    6.6247   14.7709 C   0  0  2  0  0  0  0  0  0  0  0  0
   20.3955    3.2152   16.6599 O   0  0  0  0  0  0  0  0  0  0  0  0
   15.8363    4.5540   13.8839 C   0  0  1  0  0  0  0  0  0  0  0  0
   22.1852    2.8892   14.7394 O   0  0  0  0  0  0  0  0  0  0  0  0
   13.7503    4.6596   15.0986 C   0  0  2  0  0  0  0  0  0  0  0  0
   13.0902    4.2108   16.4045 C   0  0  0  0  0  0  0  0  0  0  0  0
   12.9723    4.0668   13.9224 C   0  0  2  0  0  0  0  0  0  0  0  0
   13.6621    4.4285   12.6054 C   0  0  1  0  0  0  0  0  0  0  0  0
   15.1327    4.0041   12.6386 C   0  0  1  0  0  0  0  0  0  0  0  0
   19.8588    3.0374   15.3470 C   0  0  2  0  0  0  0  0  0  0  0  0
   20.8874    2.3697   14.4391 C   0  0  1  0  0  0  0  0  0  0  0  0
  1  3  1  0  0  0  0
  4  1  1  1  0  0  0
  4  6  1  0  0  0  0
  4 31  1  0  0  0  0
  6  7  1  0  0  0  0
  7  9  1  1  0  0  0
  7 30  1  0  0  0  0
  8 26  1  0  0  0  0
 10  9  1  1  0  0  0
 10 13  1  0  0  0  0
 10 21  1  0  0  0  0
 13 12  1  6  0  0  0
 13 15  1  0  0  0  0
 15  2  1  1  0  0  0
 15 17  1  0  0  0  0
 16 25  1  0  0  0  0
 16 23  1  0  0  0  0
 17 19  1  0  0  0  0
 19  5  1  1  0  0  0
 19 21  1  0  0  0  0
 21 14  1  6  0  0  0
 23 14  1  6  0  0  0
 23 29  1  0  0  0  0
 25 26  1  1  0  0  0
 25 27  1  0  0  0  0
 27 18  1  6  0  0  0
 27 28  1  0  0  0  0
 28 20  1  6  0  0  0
 28 29  1  0  0  0  0
 29 11  1  6  0  0  0
 30 22  1  1  0  0  0
 30 31  1  0  0  0  0
 31 24  1  1  0  0  0
M  END
>  <CHROM.1>
62.79895252,-76.47601482,-76.32850723,69.30636031,66.49103699,63.10383419
17.16493351,4.98513344,14.34164270,0.06929409,0.09204393,-2.66561752

>  <Name>
ligand

>  <RI>
0

>  <Rbt.Current_Directory>
/home/itssahil/PROJECTS/Mol_Feturizer/New_Systems/rnas/3DVV

>  <Rbt.Executable>
rbdock ($Id: //depot/dev/client3/rdock/2013.1/src/exe/rbdock.cxx#4 $)

>  <Rbt.Library>
libRbt.so (2013.1, Build901 2013/11/27)

>  <Rbt.Parameter_File>
/export/apps/rDock/src/rDock_2013.1_src/data/scripts/dock_solv.prm

>  <Rbt.Receptor>
prm/pocket_docking_7.prm

>  <SCORE>
-7.72143

>  <SCORE.INTER>
-3.89705

>  <SCORE.INTER.CONST>
1

>  <SCORE.INTER.POLAR>
0

>  <SCORE.INTER.ROT>
6

>  <SCORE.INTER.SOLV>
13.4513

>  <SCORE.INTER.VDW>
-14.6818

>  <SCORE.INTER.norm>
-0.125711

>  <SCORE.INTRA>
-3.82438

>  <SCORE.INTRA.DIHEDRAL>
-7.41886

>  <SCORE.INTRA.DIHEDRAL.0>
10.8172

>  <SCORE.INTRA.POLAR>
0

>  <SCORE.INTRA.POLAR.0>
0

>  <SCORE.INTRA.REPUL>
0

>  <SCORE.INTRA.REPUL.0>
0

>  <SCORE.INTRA.SOLV>
-4.1115

>  <SCORE.INTRA.SOLV.lig_0>
-80.3833

>  <SCORE.INTRA.VDW>
1.9408

>  <SCORE.INTRA.VDW.0>
-4.63762

>  <SCORE.INTRA.norm>
-0.123367

>  <SCORE.RESTR>
0

>  <SCORE.RESTR.CAVITY>
0

>  <SCORE.RESTR.norm>
0

>  <SCORE.SYSTEM>
0

>  <SCORE.SYSTEM.CONST>
0

>  <SCORE.SYSTEM.DIHEDRAL>
0

>  <SCORE.SYSTEM.SOLV>
0

>  <SCORE.SYSTEM.norm>
0

>  <SCORE.heavy>
31

>  <SCORE.norm>
-0.249078

>  <RMSD>
7.855

$$$$
ligand
 OpenBabel11021811473D
libRbt.so/2013.1/901 2013/11/27
 31 33  0  0  0  0  0  0  0  0999 V2000
   20.1678    2.9076   15.1731 C   0  0  0  0  0  0  0  0  0  0  0  0
   15.7675    3.8103    7.3649 N   0  0  0  0  0  0  0  0  0  0  0  0
   18.9902    2.1239   15.3923 O   0  0  0  0  0  0  0  0  0  0  0  0
   19.9564    3.8584   13.9922 C   0  0  1  0  0  0  0  0  0  0  0  0
   16.7548   -0.7918    8.6877 N   0  0  0  0  0  0  0  0  0  0  0  0
   19.4830    3.1272   12.8443 O   0  0  0  0  0  0  0  0  0  0  0  0
   18.2627    3.7353   12.3849 C   0  0  1  0  0  0  0  0  0  0  0  0
   17.4592   -4.7781   10.4270 N   0  0  0  0  0  0  0  0  0  0  0  0
   17.3590    2.7638   11.8348 O   0  0  0  0  0  0  0  0  0  0  0  0
   17.5919    2.4779   10.4477 C   0  0  2  0  0  0  0  0  0  0  0  0
   20.5495    0.5567   12.5706 N   0  0  0  0  0  0  0  0  0  0  0  0
   16.9080    4.7013    9.7907 O   0  0  0  0  0  0  0  0  0  0  0  0
   16.5951    3.3142    9.6369 C   0  0  1  0  0  0  0  0  0  0  0  0
   18.4816    0.1963   10.7364 O   0  0  0  0  0  0  0  0  0  0  0  0
   16.6583    2.9453    8.1534 C   0  0  1  0  0  0  0  0  0  0  0  0
   17.4631   -1.4563   12.0666 O   0  0  0  0  0  0  0  0  0  0  0  0
   16.2529    1.4810    7.9837 C   0  0  0  0  0  0  0  0  0  0  0  0
   19.8993   -4.0360   11.1253 O   0  0  0  0  0  0  0  0  0  0  0  0
   17.2443    0.5940    8.7426 C   0  0  1  0  0  0  0  0  0  0  0  0
   21.4924   -2.1938   12.6527 O   0  0  0  0  0  0  0  0  0  0  0  0
   17.3942    0.9825   10.2185 C   0  0  2  0  0  0  0  0  0  0  0  0
   16.6751    5.3095   13.4139 O   0  0  0  0  0  0  0  0  0  0  0  0
   18.2940   -0.2808   12.0780 C   0  0  1  0  0  0  0  0  0  0  0  0
   19.1520    6.1723   13.7579 O   0  0  0  0  0  0  0  0  0  0  0  0
   18.0023   -2.5525   11.3085 C   0  0  2  0  0  0  0  0  0  0  0  0
   17.0250   -3.7291   11.3634 C   0  0  0  0  0  0  0  0  0  0  0  0
   19.3356   -2.9884   11.9189 C   0  0  2  0  0  0  0  0  0  0  0  0
   20.3041   -1.8045   11.9558 C   0  0  1  0  0  0  0  0  0  0  0  0
   19.6651   -0.6140   12.6756 C   0  0  1  0  0  0  0  0  0  0  0  0
   17.6477    4.2929   13.6668 C   0  0  2  0  0  0  0  0  0  0  0  0
   18.8808    4.8928   14.3358 C   0  0  1  0  0  0  0  0  0  0  0  0
  1  3  1  0  0  0  0
  4  1  1  1  0  0  0
  4  6  1  0  0  0  0
  4 31  1  0  0  0  0
  6  7  1  0  0  0  0
  7  9  1  1  0  0  0
  7 30  1  0  0  0  0
  8 26  1  0  0  0  0
 10  9  1  1  0  0  0
 10 13  1  0  0  0  0
 10 21  1  0  0  0  0
 13 12  1  6  0  0  0
 13 15  1  0  0  0  0
 15  2  1  6  0  0  0
 15 17  1  0  0  0  0
 16 25  1  0  0  0  0
 16 23  1  0  0  0  0
 17 19  1  0  0  0  0
 19  5  1  1  0  0  0
 19 21  1  0  0  0  0
 21 14  1  6  0  0  0
 23 14  1  6  0  0  0
 23 29  1  0  0  0  0
 25 26  1  1  0  0  0
 25 27  1  0  0  0  0
 27 18  1  6  0  0  0
 27 28  1  0  0  0  0
 28 20  1  1  0  0  0
 28 29  1  0  0  0  0
 29 11  1  6  0  0  0
 30 22  1  6  0  0  0
 30 31  1  0  0  0  0
 31 24  1  6  0  0  0
M  END
>  <CHROM.1>
-51.80436776,-85.80434072,-98.09415087,80.90247626,92.82689110,171.26078509
18.26342028,1.14715783,11.60782915,-1.71462656,0.99313533,-2.82435860

>  <Name>
ligand

>  <RI>
0

>  <Rbt.Current_Directory>
/home/itssahil/PROJECTS/Mol_Feturizer/New_Systems/rnas/3DVV

>  <Rbt.Executable>
rbdock ($Id: //depot/dev/client3/rdock/2013.1/src/exe/rbdock.cxx#4 $)

>  <Rbt.Library>
libRbt.so (2013.1, Build901 2013/11/27)

>  <Rbt.Parameter_File>
/export/apps/rDock/src/rDock_2013.1_src/data/scripts/dock_solv.prm

>  <Rbt.Receptor>
prm/blind_docking_60.prm

>  <SCORE>
4.56759

>  <SCORE.INTER>
0.14654

>  <SCORE.INTER.CONST>
1

>  <SCORE.INTER.POLAR>
0

>  <SCORE.INTER.ROT>
6

>  <SCORE.INTER.SOLV>
24.2447

>  <SCORE.INTER.VDW>
-15.5839

>  <SCORE.INTER.norm>
0.00472708

>  <SCORE.INTRA>
3.03947

>  <SCORE.INTRA.DIHEDRAL>
3.70698

>  <SCORE.INTRA.DIHEDRAL.0>
10.8172

>  <SCORE.INTRA.POLAR>
0

>  <SCORE.INTRA.POLAR.0>
0

>  <SCORE.INTRA.REPUL>
0

>  <SCORE.INTRA.REPUL.0>
0

>  <SCORE.INTRA.SOLV>
1.89714

>  <SCORE.INTRA.SOLV.lig_0>
-80.3833

>  <SCORE.INTRA.VDW>
0.237416

>  <SCORE.INTRA.VDW.0>
-4.63762

>  <SCORE.INTRA.norm>
0.0980475

>  <SCORE.RESTR>
1.38158

>  <SCORE.RESTR.CAVITY>
1.38158

>  <SCORE.RESTR.norm>
0.044567

>  <SCORE.SYSTEM>
0

>  <SCORE.SYSTEM.CONST>
0

>  <SCORE.SYSTEM.DIHEDRAL>
0

>  <SCORE.SYSTEM.SOLV>
0

>  <SCORE.SYSTEM.norm>
0

>  <SCORE.heavy>
31

>  <SCORE.norm>
0.147342

>  <RMSD>
7.866

$$$$
ligand
 OpenBabel11021811473D
libRbt.so/2013.1/901 2013/11/27
 31 33  0  0  0  0  0  0  0  0999 V2000
   14.2258    2.1889   12.5858 C   0  0  0  0  0  0  0  0  0  0  0  0
   20.6186    6.0169   16.8353 N   0  0  0  0  0  0  0  0  0  0  0  0
   13.9474    1.4230   11.4091 O   0  0  0  0  0  0  0  0  0  0  0  0
   15.6820    2.6608   12.5758 C   0  0  1  0  0  0  0  0  0  0  0  0
   16.9756    5.2455   20.0035 N   0  0  0  0  0  0  0  0  0  0  0  0
   15.9761    3.3898   13.7835 O   0  0  0  0  0  0  0  0  0  0  0  0
   17.1217    2.7895   14.4137 C   0  0  1  0  0  0  0  0  0  0  0  0
   14.2119    2.4607   22.4432 N   0  0  0  0  0  0  0  0  0  0  0  0
   17.0467    2.8753   15.8455 O   0  0  0  0  0  0  0  0  0  0  0  0
   17.2942    4.1924   16.3595 C   0  0  2  0  0  0  0  0  0  0  0  0
   13.0295    4.3015   16.2890 N   0  0  0  0  0  0  0  0  0  0  0  0
   19.2177    4.4794   14.9242 O   0  0  0  0  0  0  0  0  0  0  0  0
   18.8073    4.4300   16.2933 C   0  0  1  0  0  0  0  0  0  0  0  0
   15.3367    4.3259   17.8532 O   0  0  0  0  0  0  0  0  0  0  0  0
   19.1799    5.7463   16.9785 C   0  0  1  0  0  0  0  0  0  0  0  0
   14.8306    2.2315   18.7997 O   0  0  0  0  0  0  0  0  0  0  0  0
   18.8063    5.6637   18.4587 C   0  0  0  0  0  0  0  0  0  0  0  0
   12.2669    3.6093   21.0370 O   0  0  0  0  0  0  0  0  0  0  0  0
   17.2926    5.4676   18.5845 C   0  0  1  0  0  0  0  0  0  0  0  0
   11.0957    3.9757   18.4372 O   0  0  0  0  0  0  0  0  0  0  0  0
   16.7723    4.2626   17.7915 C   0  0  2  0  0  0  0  0  0  0  0  0
   18.2476    0.6178   14.1415 O   0  0  0  0  0  0  0  0  0  0  0  0
   14.6693    3.0718   17.6420 C   0  0  1  0  0  0  0  0  0  0  0  0
   17.8032    1.7069   11.7720 O   0  0  0  0  0  0  0  0  0  0  0  0
   14.2936    2.7879   20.0118 C   0  0  2  0  0  0  0  0  0  0  0  0
   14.5389    1.8107   21.1640 C   0  0  0  0  0  0  0  0  0  0  0  0
   12.7865    2.9973   19.8535 C   0  0  2  0  0  0  0  0  0  0  0  0
   12.5091    3.9031   18.6520 C   0  0  1  0  0  0  0  0  0  0  0  0
   13.1816    3.3441   17.3953 C   0  0  1  0  0  0  0  0  0  0  0  0
   17.0090    1.3200   14.0132 C   0  0  2  0  0  0  0  0  0  0  0  0
   16.6254    1.4551   12.5426 C   0  0  1  0  0  0  0  0  0  0  0  0
  1  3  1  0  0  0  0
  4  1  1  1  0  0  0
  4  6  1  0  0  0  0
  4 31  1  0  0  0  0
  6  7  1  0  0  0  0
  7  9  1  1  0  0  0
  7 30  1  0  0  0  0
  8 26  1  0  0  0  0
 10  9  1  1  0  0  0
 10 13  1  0  0  0  0
 10 21  1  0  0  0  0
 13 12  1  6  0  0  0
 13 15  1  0  0  0  0
 15  2  1  1  0  0  0
 15 17  1  0  0  0  0
 16 25  1  0  0  0  0
 16 23  1  0  0  0  0
 17 19  1  0  0  0  0
 19  5  1  1  0  0  0
 19 21  1  0  0  0  0
 21 14  1  6  0  0  0
 23 14  1  1  0  0  0
 23 29  1  0  0  0  0
 25 26  1  1  0  0  0
 25 27  1  0  0  0  0
 27 18  1  1  0  0  0
 27 28  1  0  0  0  0
 28 20  1  6  0  0  0
 28 29  1  0  0  0  0
 29 11  1  6  0  0  0
 30 22  1  6  0  0  0
 30 31  1  0  0  0  0
 31 24  1  6  0  0  0
M  END
>  <CHROM.1>
-177.88084581,-73.76537044,-76.43545463,73.31572801,77.59346985,170.10115933
15.83625582,3.35319846,16.69876328,1.08953838,-0.34081632,-1.88675733

>  <Name>
ligand

>  <RI>
0

>  <Rbt.Current_Directory>
/home/itssahil/PROJECTS/Mol_Feturizer/New_Systems/rnas/3DVV

>  <Rbt.Executable>
rbdock ($Id: //depot/dev/client3/rdock/2013.1/src/exe/rbdock.cxx#4 $)

>  <Rbt.Library>
libRbt.so (2013.1, Build901 2013/11/27)

>  <Rbt.Parameter_File>
/export/apps/rDock/src/rDock_2013.1_src/data/scripts/dock_solv.prm

>  <Rbt.Receptor>
prm/pocket_docking_6.prm

>  <SCORE>
-3.68895

>  <SCORE.INTER>
-1.72052

>  <SCORE.INTER.CONST>
1

>  <SCORE.INTER.POLAR>
0

>  <SCORE.INTER.ROT>
6

>  <SCORE.INTER.SOLV>
12.1861

>  <SCORE.INTER.VDW>
-12.809

>  <SCORE.INTER.norm>
-0.0555006

>  <SCORE.INTRA>
-1.96843

>  <SCORE.INTRA.DIHEDRAL>
-5.84873

>  <SCORE.INTRA.DIHEDRAL.0>
10.8172

>  <SCORE.INTRA.POLAR>
0

>  <SCORE.INTRA.POLAR.0>
0

>  <SCORE.INTRA.REPUL>
0

>  <SCORE.INTRA.REPUL.0>
0

>  <SCORE.INTRA.SOLV>
-2.25572

>  <SCORE.INTRA.SOLV.lig_0>
-80.3833

>  <SCORE.INTRA.VDW>
2.08379

>  <SCORE.INTRA.VDW.0>
-4.63762

>  <SCORE.INTRA.norm>
-0.0634979

>  <SCORE.RESTR>
0

>  <SCORE.RESTR.CAVITY>
0

>  <SCORE.RESTR.norm>
0

>  <SCORE.SYSTEM>
0

>  <SCORE.SYSTEM.CONST>
0

>  <SCORE.SYSTEM.DIHEDRAL>
0

>  <SCORE.SYSTEM.SOLV>
0

>  <SCORE.SYSTEM.norm>
0

>  <SCORE.heavy>
31

>  <SCORE.norm>
-0.118998

>  <RMSD>
7.881

$$$$
ligand
 OpenBabel11021811473D
libRbt.so/2013.1/901 2013/11/27
 31 33  0  0  0  0  0  0  0  0999 V2000
   19.8711    7.6700    9.8105 C   0  0  0  0  0  0  0  0  0  0  0  0
   12.7091    4.6001   12.0962 N   0  0  0  0  0  0  0  0  0  0  0  0
   20.6783    8.8373    9.6246 O   0  0  0  0  0  0  0  0  0  0  0  0
   18.7318    7.9667   10.7888 C   0  0  1  0  0  0  0  0  0  0  0  0
   15.6510    0.8024   11.1876 N   0  0  0  0  0  0  0  0  0  0  0  0
   17.8404    6.8375   10.8703 O   0  0  0  0  0  0  0  0  0  0  0  0
   17.7149    6.4512   12.2505 C   0  0  1  0  0  0  0  0  0  0  0  0
   17.7159   -2.1210    9.0086 N   0  0  0  0  0  0  0  0  0  0  0  0
   17.5396    5.0327   12.3917 O   0  0  0  0  0  0  0  0  0  0  0  0
   16.4931    4.4948   11.5697 C   0  0  2  0  0  0  0  0  0  0  0  0
   20.5179    2.7616   11.0794 N   0  0  0  0  0  0  0  0  0  0  0  0
   14.9808    6.2763   12.1877 O   0  0  0  0  0  0  0  0  0  0  0  0
   15.1600    4.8582   12.2341 C   0  0  1  0  0  0  0  0  0  0  0  0
   17.7744    2.6213   10.6058 O   0  0  0  0  0  0  0  0  0  0  0  0
   13.9928    4.1794   11.5145 C   0  0  1  0  0  0  0  0  0  0  0  0
   17.8420    0.2824   10.3541 O   0  0  0  0  0  0  0  0  0  0  0  0
   14.1483    2.6627   11.6281 C   0  0  0  0  0  0  0  0  0  0  0  0
   19.2830    0.4606    6.9825 O   0  0  0  0  0  0  0  0  0  0  0  0
   15.4495    2.2382   10.9407 C   0  0  1  0  0  0  0  0  0  0  0  0
   21.4109    1.4715    8.6301 O   0  0  0  0  0  0  0  0  0  0  0  0
   16.6814    2.9842   11.4675 C   0  0  2  0  0  0  0  0  0  0  0  0
   19.0349    6.9544   14.2660 O   0  0  0  0  0  0  0  0  0  0  0  0
   18.4638    1.4189   10.9821 C   0  0  1  0  0  0  0  0  0  0  0  0
   18.5566    9.1818   12.9215 O   0  0  0  0  0  0  0  0  0  0  0  0
   17.8432    0.3286    8.9171 C   0  0  2  0  0  0  0  0  0  0  0  0
   17.1463   -0.9214    8.3745 C   0  0  0  0  0  0  0  0  0  0  0  0
   19.2857    0.3506    8.4083 C   0  0  2  0  0  0  0  0  0  0  0  0
   20.0317    1.5451    9.0065 C   0  0  1  0  0  0  0  0  0  0  0  0
   19.9248    1.5311   10.5336 C   0  0  1  0  0  0  0  0  0  0  0  0
   19.0710    6.8297   12.8424 C   0  0  2  0  0  0  0  0  0  0  0  0
   19.2923    8.1938   12.1956 C   0  0  1  0  0  0  0  0  0  0  0  0
  1  3  1  0  0  0  0
  4  1  1  6  0  0  0
  4  6  1  0  0  0  0
  4 31  1  0  0  0  0
  6  7  1  0  0  0  0
  7  9  1  6  0  0  0
  7 30  1  0  0  0  0
  8 26  1  0  0  0  0
 10  9  1  1  0  0  0
 10 13  1  0  0  0  0
 10 21  1  0  0  0  0
 13 12  1  6  0  0  0
 13 15  1  0  0  0  0
 15  2  1  1  0  0  0
 15 17  1  0  0  0  0
 16 25  1  0  0  0  0
 16 23  1  0  0  0  0
 17 19  1  0  0  0  0
 19  5  1  1  0  0  0
 19 21  1  0  0  0  0
 21 14  1  6  0  0  0
 23 14  1  6  0  0  0
 23 29  1  0  0  0  0
 25 26  1  6  0  0  0
 25 27  1  0  0  0  0
 27 18  1  6  0  0  0
 27 28  1  0  0  0  0
 28 20  1  1  0  0  0
 28 29  1  0  0  0  0
 29 11  1  1  0  0  0
 30 22  1  1  0  0  0
 30 31  1  0  0  0  0
 31 24  1  1  0  0  0
M  END
>  <CHROM.1>
174.08414539,-51.07250604,-76.43635585,89.33601753,147.84109121,-50.41345690
17.80305915,3.81217112,10.82584581,-1.57319217,-0.36495925,-2.77604621

>  <Name>
ligand

>  <RI>
0

>  <Rbt.Current_Directory>
/home/itssahil/PROJECTS/Mol_Feturizer/New_Systems/rnas/3DVV

>  <Rbt.Executable>
rbdock ($Id: //depot/dev/client3/rdock/2013.1/src/exe/rbdock.cxx#4 $)

>  <Rbt.Library>
libRbt.so (2013.1, Build901 2013/11/27)

>  <Rbt.Parameter_File>
/export/apps/rDock/src/rDock_2013.1_src/data/scripts/dock_solv.prm

>  <Rbt.Receptor>
prm/blind_docking_60.prm

>  <SCORE>
-1.92024

>  <SCORE.INTER>
-6.16157

>  <SCORE.INTER.CONST>
1

>  <SCORE.INTER.POLAR>
0

>  <SCORE.INTER.ROT>
6

>  <SCORE.INTER.SOLV>
18.0238

>  <SCORE.INTER.VDW>
-17.7157

>  <SCORE.INTER.norm>
-0.19876

>  <SCORE.INTRA>
3.09039

>  <SCORE.INTRA.DIHEDRAL>
-1.1013

>  <SCORE.INTRA.DIHEDRAL.0>
10.8172

>  <SCORE.INTRA.POLAR>
0

>  <SCORE.INTRA.POLAR.0>
0

>  <SCORE.INTRA.REPUL>
0

>  <SCORE.INTRA.REPUL.0>
0

>  <SCORE.INTRA.SOLV>
0.265655

>  <SCORE.INTRA.SOLV.lig_0>
-80.3833

>  <SCORE.INTRA.VDW>
3.50821

>  <SCORE.INTRA.VDW.0>
-4.63762

>  <SCORE.INTRA.norm>
0.0996899

>  <SCORE.RESTR>
1.15094

>  <SCORE.RESTR.CAVITY>
1.15094

>  <SCORE.RESTR.norm>
0.0371272

>  <SCORE.SYSTEM>
0

>  <SCORE.SYSTEM.CONST>
0

>  <SCORE.SYSTEM.DIHEDRAL>
0

>  <SCORE.SYSTEM.SOLV>
0

>  <SCORE.SYSTEM.norm>
0

>  <SCORE.heavy>
31

>  <SCORE.norm>
-0.0619432

>  <RMSD>
7.902

$$$$
ligand
 OpenBabel11021811473D
libRbt.so/2013.1/901 2013/11/27
 31 33  0  0  0  0  0  0  0  0999 V2000
   19.5362    6.1423   13.8440 C   0  0  0  0  0  0  0  0  0  0  0  0
   14.2200    4.4849   11.0954 N   0  0  0  0  0  0  0  0  0  0  0  0
   20.1257    6.1242   12.5398 O   0  0  0  0  0  0  0  0  0  0  0  0
   19.0210    4.7479   14.2095 C   0  0  1  0  0  0  0  0  0  0  0  0
   14.9942   -0.0746   12.6813 N   0  0  0  0  0  0  0  0  0  0  0  0
   18.2625    4.1961   13.1156 O   0  0  0  0  0  0  0  0  0  0  0  0
   18.8170    2.9132   12.7745 C   0  0  1  0  0  0  0  0  0  0  0  0
   21.8370    0.7932    8.7576 N   0  0  0  0  0  0  0  0  0  0  0  0
   18.7084    2.6441   11.3678 O   0  0  0  0  0  0  0  0  0  0  0  0
   17.3742    2.3323   10.9402 C   0  0  2  0  0  0  0  0  0  0  0  0
   16.6707   -2.6921   10.6458 N   0  0  0  0  0  0  0  0  0  0  0  0
   16.9393    4.6345   10.3459 O   0  0  0  0  0  0  0  0  0  0  0  0
   16.5108    3.5718   11.2017 C   0  0  1  0  0  0  0  0  0  0  0  0
   17.4880   -0.1061   11.2901 O   0  0  0  0  0  0  0  0  0  0  0  0
   15.0351    3.2715   10.9314 C   0  0  1  0  0  0  0  0  0  0  0  0
   18.1717    0.3295    9.0808 O   0  0  0  0  0  0  0  0  0  0  0  0
   14.5599    2.1858   11.8972 C   0  0  0  0  0  0  0  0  0  0  0  0
   21.2497   -1.6448    9.4045 O   0  0  0  0  0  0  0  0  0  0  0  0
   15.3643    0.9062   11.6497 C   0  0  1  0  0  0  0  0  0  0  0  0
   19.1961   -3.6502    9.5664 O   0  0  0  0  0  0  0  0  0  0  0  0
   16.8805    1.1222   11.7274 C   0  0  2  0  0  0  0  0  0  0  0  0
   20.9584    1.8142   13.2890 O   0  0  0  0  0  0  0  0  0  0  0  0
   17.2683   -0.4273    9.9076 C   0  0  1  0  0  0  0  0  0  0  0  0
   19.9249    2.8520   15.4918 O   0  0  0  0  0  0  0  0  0  0  0  0
   19.5628    0.0827    9.3478 C   0  0  2  0  0  0  0  0  0  0  0  0
   20.4137    0.9517    8.4187 C   0  0  0  0  0  0  0  0  0  0  0  0
   19.8813   -1.3889    9.0774 C   0  0  2  0  0  0  0  0  0  0  0  0
   18.9809   -2.2831    9.9323 C   0  0  1  0  0  0  0  0  0  0  0  0
   17.5085   -1.9277    9.7092 C   0  0  1  0  0  0  0  0  0  0  0  0
   20.2960    3.0699   13.1216 C   0  0  2  0  0  0  0  0  0  0  0  0
   20.1983    3.8006   14.4575 C   0  0  1  0  0  0  0  0  0  0  0  0
  1  3  1  0  0  0  0
  4  1  1  6  0  0  0
  4  6  1  0  0  0  0
  4 31  1  0  0  0  0
  6  7  1  0  0  0  0
  7  9  1  6  0  0  0
  7 30  1  0  0  0  0
  8 26  1  0  0  0  0
 10  9  1  1  0  0  0
 10 13  1  0  0  0  0
 10 21  1  0  0  0  0
 13 12  1  6  0  0  0
 13 15  1  0  0  0  0
 15  2  1  1  0  0  0
 15 17  1  0  0  0  0
 16 25  1  0  0  0  0
 16 23  1  0  0  0  0
 17 19  1  0  0  0  0
 19  5  1  1  0  0  0
 19 21  1  0  0  0  0
 21 14  1  6  0  0  0
 23 14  1  1  0  0  0
 23 29  1  0  0  0  0
 25 26  1  6  0  0  0
 25 27  1  0  0  0  0
 27 18  1  1  0  0  0
 27 28  1  0  0  0  0
 28 20  1  6  0  0  0
 28 29  1  0  0  0  0
 29 11  1  1  0  0  0
 30 22  1  1  0  0  0
 30 31  1  0  0  0  0
 31 24  1  1  0  0  0
M  END
>  <CHROM.1>
-47.21606089,-73.40065451,63.08825270,79.78429037,-59.09645935,175.30078133
18.30139031,1.58525113,11.35785030,-1.61724063,0.06092928,-2.61494430

>  <Name>
ligand

>  <RI>
0

>  <Rbt.Current_Directory>
/home/itssahil/PROJECTS/Mol_Feturizer/New_Systems/rnas/3DVV

>  <Rbt.Executable>
rbdock ($Id: //depot/dev/client3/rdock/2013.1/src/exe/rbdock.cxx#4 $)

>  <Rbt.Library>
libRbt.so (2013.1, Build901 2013/11/27)

>  <Rbt.Parameter_File>
/export/apps/rDock/src/rDock_2013.1_src/data/scripts/dock_solv.prm

>  <Rbt.Receptor>
prm/blind_docking_60.prm

>  <SCORE>
2.29065

>  <SCORE.INTER>
2.3666

>  <SCORE.INTER.CONST>
1

>  <SCORE.INTER.POLAR>
0

>  <SCORE.INTER.ROT>
6

>  <SCORE.INTER.SOLV>
21.7579

>  <SCORE.INTER.VDW>
-13.2749

>  <SCORE.INTER.norm>
0.0763419

>  <SCORE.INTRA>
-0.0771189

>  <SCORE.INTRA.DIHEDRAL>
-7.26022

>  <SCORE.INTRA.DIHEDRAL.0>
10.8172

>  <SCORE.INTRA.POLAR>
0

>  <SCORE.INTRA.POLAR.0>
0

>  <SCORE.INTRA.REPUL>
0

>  <SCORE.INTRA.REPUL.0>
0

>  <SCORE.INTRA.SOLV>
-1.2851

>  <SCORE.INTRA.SOLV.lig_0>
-80.3833

>  <SCORE.INTRA.VDW>
4.19555

>  <SCORE.INTRA.VDW.0>
-4.63762

>  <SCORE.INTRA.norm>
-0.00248771

>  <SCORE.RESTR>
0.00117164

>  <SCORE.RESTR.CAVITY>
0.00117164

>  <SCORE.RESTR.norm>
3.7795e-05

>  <SCORE.SYSTEM>
0

>  <SCORE.SYSTEM.CONST>
0

>  <SCORE.SYSTEM.DIHEDRAL>
0

>  <SCORE.SYSTEM.SOLV>
0

>  <SCORE.SYSTEM.norm>
0

>  <SCORE.heavy>
31

>  <SCORE.norm>
0.073892

>  <RMSD>
7.928

$$$$
ligand
 OpenBabel11021811473D
libRbt.so/2013.1/901 2013/11/27
 31 33  0  0  0  0  0  0  0  0999 V2000
   20.6660    7.2570   13.3325 C   0  0  0  0  0  0  0  0  0  0  0  0
   16.4310   11.2666   19.2722 N   0  0  0  0  0  0  0  0  0  0  0  0
   20.1056    8.2028   12.4158 O   0  0  0  0  0  0  0  0  0  0  0  0
   20.8260    7.8938   14.7153 C   0  0  1  0  0  0  0  0  0  0  0  0
   13.2943    8.4417   16.8055 N   0  0  0  0  0  0  0  0  0  0  0  0
   19.5424    8.3067   15.2236 O   0  0  0  0  0  0  0  0  0  0  0  0
   19.3483    7.7096   16.5180 C   0  0  1  0  0  0  0  0  0  0  0  0
   14.1582    4.2610   17.8574 N   0  0  0  0  0  0  0  0  0  0  0  0
   17.9664    7.4018   16.7596 O   0  0  0  0  0  0  0  0  0  0  0  0
   17.0974    8.5410   16.6772 C   0  0  2  0  0  0  0  0  0  0  0  0
   16.2307    7.1685   12.4916 N   0  0  0  0  0  0  0  0  0  0  0  0
   18.5666    9.8646   18.0672 O   0  0  0  0  0  0  0  0  0  0  0  0
   17.2455    9.3225   17.9878 C   0  0  1  0  0  0  0  0  0  0  0  0
   15.4385    7.5670   15.1343 O   0  0  0  0  0  0  0  0  0  0  0  0
   16.2283   10.4632   18.0569 C   0  0  1  0  0  0  0  0  0  0  0  0
   15.6634    5.2809   15.6455 O   0  0  0  0  0  0  0  0  0  0  0  0
   14.8164    9.8767   18.0452 C   0  0  0  0  0  0  0  0  0  0  0  0
   12.5413    4.3624   13.9470 O   0  0  0  0  0  0  0  0  0  0  0  0
   14.5989    9.1170   16.7333 C   0  0  1  0  0  0  0  0  0  0  0  0
   14.2221    5.1931   11.7676 O   0  0  0  0  0  0  0  0  0  0  0  0
   15.6679    8.0496   16.4697 C   0  0  2  0  0  0  0  0  0  0  0  0
   20.4468    5.8477   17.6947 O   0  0  0  0  0  0  0  0  0  0  0  0
   16.1313    6.3526   14.8058 C   0  0  1  0  0  0  0  0  0  0  0  0
   22.2696    7.4623   16.6610 O   0  0  0  0  0  0  0  0  0  0  0  0
   14.2582    5.0036   15.5199 C   0  0  2  0  0  0  0  0  0  0  0  0
   13.8857    3.8609   16.4676 C   0  0  0  0  0  0  0  0  0  0  0  0
   13.9487    4.5758   14.0842 C   0  0  2  0  0  0  0  0  0  0  0  0
   14.3925    5.6670   13.1077 C   0  0  1  0  0  0  0  0  0  0  0  0
   15.8650    6.0195   13.3340 C   0  0  1  0  0  0  0  0  0  0  0  0
   20.1228    6.3972   16.4154 C   0  0  2  0  0  0  0  0  0  0  0  0
   21.3878    6.8688   15.7046 C   0  0  1  0  0  0  0  0  0  0  0  0
  1  3  1  0  0  0  0
  4  1  1  6  0  0  0
  4  6  1  0  0  0  0
  4 31  1  0  0  0  0
  6  7  1  0  0  0  0
  7  9  1  6  0  0  0
  7 30  1  0  0  0  0
  8 26  1  0  0  0  0
 10  9  1  1  0  0  0
 10 13  1  0  0  0  0
 10 21  1  0  0  0  0
 13 12  1  6  0  0  0
 13 15  1  0  0  0  0
 15  2  1  1  0  0  0
 15 17  1  0  0  0  0
 16 25  1  0  0  0  0
 16 23  1  0  0  0  0
 17 19  1  0  0  0  0
 19  5  1  1  0  0  0
 19 21  1  0  0  0  0
 21 14  1  6  0  0  0
 23 14  1  1  0  0  0
 23 29  1  0  0  0  0
 25 26  1  1  0  0  0
 25 27  1  0  0  0  0
 27 18  1  1  0  0  0
 27 28  1  0  0  0  0
 28 20  1  6  0  0  0
 28 29  1  0  0  0  0
 29 11  1  6  0  0  0
 30 22  1  1  0  0  0
 30 31  1  0  0  0  0
 31 24  1  1  0  0  0
M  END
>  <CHROM.1>
60.72583800,-58.16265888,-78.24524105,63.41961898,68.35475072,61.36974054
16.91685486,7.19877577,15.71499905,-0.44556483,-0.16370796,-2.27038623

>  <Name>
ligand

>  <RI>
0

>  <Rbt.Current_Directory>
/home/itssahil/PROJECTS/Mol_Feturizer/New_Systems/rnas/3DVV

>  <Rbt.Executable>
rbdock ($Id: //depot/dev/client3/rdock/2013.1/src/exe/rbdock.cxx#4 $)

>  <Rbt.Library>
libRbt.so (2013.1, Build901 2013/11/27)

>  <Rbt.Parameter_File>
/export/apps/rDock/src/rDock_2013.1_src/data/scripts/dock_solv.prm

>  <Rbt.Receptor>
prm/pocket_docking_7.prm

>  <SCORE>
-8.80568

>  <SCORE.INTER>
-4.45862

>  <SCORE.INTER.CONST>
1

>  <SCORE.INTER.POLAR>
0

>  <SCORE.INTER.ROT>
6

>  <SCORE.INTER.SOLV>
14.443

>  <SCORE.INTER.VDW>
-15.3867

>  <SCORE.INTER.norm>
-0.143826

>  <SCORE.INTRA>
-4.34706

>  <SCORE.INTRA.DIHEDRAL>
-8.60992

>  <SCORE.INTRA.DIHEDRAL.0>
10.8172

>  <SCORE.INTRA.POLAR>
0

>  <SCORE.INTRA.POLAR.0>
0

>  <SCORE.INTRA.REPUL>
0

>  <SCORE.INTRA.REPUL.0>
0

>  <SCORE.INTRA.SOLV>
-3.85158

>  <SCORE.INTRA.SOLV.lig_0>
-80.3833

>  <SCORE.INTRA.VDW>
1.88369

>  <SCORE.INTRA.VDW.0>
-4.63762

>  <SCORE.INTRA.norm>
-0.140228

>  <SCORE.RESTR>
0

>  <SCORE.RESTR.CAVITY>
0

>  <SCORE.RESTR.norm>
0

>  <SCORE.SYSTEM>
0

>  <SCORE.SYSTEM.CONST>
0

>  <SCORE.SYSTEM.DIHEDRAL>
0

>  <SCORE.SYSTEM.SOLV>
0

>  <SCORE.SYSTEM.norm>
0

>  <SCORE.heavy>
31

>  <SCORE.norm>
-0.284054

>  <RMSD>
7.957

$$$$
ligand
 OpenBabel11021811473D
libRbt.so/2013.1/901 2013/11/27
 31 33  0  0  0  0  0  0  0  0999 V2000
   20.6546    7.2670   13.3549 C   0  0  0  0  0  0  0  0  0  0  0  0
   16.4224   11.2848   19.2669 N   0  0  0  0  0  0  0  0  0  0  0  0
   19.7539    6.1568   13.4266 O   0  0  0  0  0  0  0  0  0  0  0  0
   20.8145    7.9066   14.7363 C   0  0  1  0  0  0  0  0  0  0  0  0
   13.2851    8.4092   16.8603 N   0  0  0  0  0  0  0  0  0  0  0  0
   19.5298    8.3123   15.2476 O   0  0  0  0  0  0  0  0  0  0  0  0
   19.3429    7.7157   16.5434 C   0  0  1  0  0  0  0  0  0  0  0  0
   13.9531    4.2955   17.8988 N   0  0  0  0  0  0  0  0  0  0  0  0
   17.9636    7.3998   16.7892 O   0  0  0  0  0  0  0  0  0  0  0  0
   17.0862    8.5322   16.7000 C   0  0  2  0  0  0  0  0  0  0  0  0
   16.2640    7.0793   12.5635 N   0  0  0  0  0  0  0  0  0  0  0  0
   18.5577    9.8823   18.0618 O   0  0  0  0  0  0  0  0  0  0  0  0
   17.2397    9.3306   17.9998 C   0  0  1  0  0  0  0  0  0  0  0  0
   15.4217    7.5284   15.1825 O   0  0  0  0  0  0  0  0  0  0  0  0
   16.2153   10.4653   18.0632 C   0  0  1  0  0  0  0  0  0  0  0  0
   15.5525    5.2403   15.7170 O   0  0  0  0  0  0  0  0  0  0  0  0
   14.8074    9.8693   18.0701 C   0  0  0  0  0  0  0  0  0  0  0  0
   12.4425    4.4179   13.9484 O   0  0  0  0  0  0  0  0  0  0  0  0
   14.5845    9.0922   16.7693 C   0  0  1  0  0  0  0  0  0  0  0  0
   14.2049    5.1699   11.8052 O   0  0  0  0  0  0  0  0  0  0  0  0
   15.6585    8.0287   16.5101 C   0  0  2  0  0  0  0  0  0  0  0  0
   20.4561    5.8623   17.7195 O   0  0  0  0  0  0  0  0  0  0  0  0
   16.0787    6.2874   14.8809 C   0  0  1  0  0  0  0  0  0  0  0  0
   22.2660    7.4866   16.6787 O   0  0  0  0  0  0  0  0  0  0  0  0
   14.1419    5.0117   15.5586 C   0  0  2  0  0  0  0  0  0  0  0  0
   13.7059    3.8911   16.5056 C   0  0  0  0  0  0  0  0  0  0  0  0
   13.8528    4.5827   14.1189 C   0  0  2  0  0  0  0  0  0  0  0  0
   14.3590    5.6490   13.1453 C   0  0  1  0  0  0  0  0  0  0  0  0
   15.8371    5.9512   13.4055 C   0  0  1  0  0  0  0  0  0  0  0  0
   20.1252    6.4080   16.4404 C   0  0  2  0  0  0  0  0  0  0  0  0
   21.3853    6.8865   15.7255 C   0  0  1  0  0  0  0  0  0  0  0  0
  1  3  1  0  0  0  0
  4  1  1  6  0  0  0
  4  6  1  0  0  0  0
  4 31  1  0  0  0  0
  6  7  1  0  0  0  0
  7  9  1  6  0  0  0
  7 30  1  0  0  0  0
  8 26  1  0  0  0  0
 10  9  1  1  0  0  0
 10 13  1  0  0  0  0
 10 21  1  0  0  0  0
 13 12  1  6  0  0  0
 13 15  1  0  0  0  0
 15  2  1  1  0  0  0
 15 17  1  0  0  0  0
 16 25  1  0  0  0  0
 16 23  1  0  0  0  0
 17 19  1  0  0  0  0
 19  5  1  1  0  0  0
 19 21  1  0  0  0  0
 21 14  1  6  0  0  0
 23 14  1  1  0  0  0
 23 29  1  0  0  0  0
 25 26  1  1  0  0  0
 25 27  1  0  0  0  0
 27 18  1  1  0  0  0
 27 28  1  0  0  0  0
 28 20  1  6  0  0  0
 28 29  1  0  0  0  0
 29 11  1  6  0  0  0
 30 22  1  1  0  0  0
 30 31  1  0  0  0  0
 31 24  1  1  0  0  0
M  END
>  <CHROM.1>
-57.05582235,-57.81973037,-77.76711750,64.69823472,70.65863730,61.59113831
16.87039244,7.11982093,15.78249750,-0.46237098,-0.11067724,-2.32643414

>  <Name>
ligand

>  <RI>
0

>  <Rbt.Current_Directory>
/home/itssahil/PROJECTS/Mol_Feturizer/New_Systems/rnas/3DVV

>  <Rbt.Executable>
rbdock ($Id: //depot/dev/client3/rdock/2013.1/src/exe/rbdock.cxx#4 $)

>  <Rbt.Library>
libRbt.so (2013.1, Build901 2013/11/27)

>  <Rbt.Parameter_File>
/export/apps/rDock/src/rDock_2013.1_src/data/scripts/dock_solv.prm

>  <Rbt.Receptor>
prm/pocket_docking_7.prm

>  <SCORE>
-8.12182

>  <SCORE.INTER>
-4.23974

>  <SCORE.INTER.CONST>
1

>  <SCORE.INTER.POLAR>
0

>  <SCORE.INTER.ROT>
6

>  <SCORE.INTER.SOLV>
14.4095

>  <SCORE.INTER.VDW>
-15.2297

>  <SCORE.INTER.norm>
-0.136766

>  <SCORE.INTRA>
-3.88208

>  <SCORE.INTRA.DIHEDRAL>
-8.39045

>  <SCORE.INTRA.DIHEDRAL.0>
10.8172

>  <SCORE.INTRA.POLAR>
0

>  <SCORE.INTRA.POLAR.0>
0

>  <SCORE.INTRA.REPUL>
0

>  <SCORE.INTRA.REPUL.0>
0

>  <SCORE.INTRA.SOLV>
-2.70153

>  <SCORE.INTRA.SOLV.lig_0>
-80.3833

>  <SCORE.INTRA.VDW>
1.66392

>  <SCORE.INTRA.VDW.0>
-4.63762

>  <SCORE.INTRA.norm>
-0.125228

>  <SCORE.RESTR>
0

>  <SCORE.RESTR.CAVITY>
0

>  <SCORE.RESTR.norm>
0

>  <SCORE.SYSTEM>
0

>  <SCORE.SYSTEM.CONST>
0

>  <SCORE.SYSTEM.DIHEDRAL>
0

>  <SCORE.SYSTEM.SOLV>
0

>  <SCORE.SYSTEM.norm>
0

>  <SCORE.heavy>
31

>  <SCORE.norm>
-0.261994

>  <RMSD>
7.972

$$$$
ligand
 OpenBabel11021811473D
libRbt.so/2013.1/901 2013/11/27
 31 33  0  0  0  0  0  0  0  0999 V2000
   20.6263    7.2756   13.3617 C   0  0  0  0  0  0  0  0  0  0  0  0
   16.4595   11.2675   19.2489 N   0  0  0  0  0  0  0  0  0  0  0  0
   20.0981    8.2512   12.4573 O   0  0  0  0  0  0  0  0  0  0  0  0
   20.7926    7.8844   14.7563 C   0  0  1  0  0  0  0  0  0  0  0  0
   13.2718    8.3513   16.9603 N   0  0  0  0  0  0  0  0  0  0  0  0
   19.5106    8.2816   15.2809 O   0  0  0  0  0  0  0  0  0  0  0  0
   19.3269    7.6572   16.5639 C   0  0  1  0  0  0  0  0  0  0  0  0
   13.9678    4.2845   18.0914 N   0  0  0  0  0  0  0  0  0  0  0  0
   17.9477    7.3389   16.8077 O   0  0  0  0  0  0  0  0  0  0  0  0
   17.0687    8.4699   16.7172 C   0  0  2  0  0  0  0  0  0  0  0  0
   16.1348    6.9216   12.6227 N   0  0  0  0  0  0  0  0  0  0  0  0
   18.5687    9.8432   18.0236 O   0  0  0  0  0  0  0  0  0  0  0  0
   17.2497    9.2910   17.9992 C   0  0  1  0  0  0  0  0  0  0  0  0
   15.3723    7.4403   15.2533 O   0  0  0  0  0  0  0  0  0  0  0  0
   16.2269   10.4270   18.0645 C   0  0  1  0  0  0  0  0  0  0  0  0
   15.5075    5.1655   15.8406 O   0  0  0  0  0  0  0  0  0  0  0  0
   14.8195    9.8318   18.1117 C   0  0  0  0  0  0  0  0  0  0  0  0
   12.3427    4.3171   14.1852 O   0  0  0  0  0  0  0  0  0  0  0  0
   14.5690    9.0321   16.8297 C   0  0  1  0  0  0  0  0  0  0  0  0
   14.0448    5.0057   11.9731 O   0  0  0  0  0  0  0  0  0  0  0  0
   15.6373    7.9638   16.5665 C   0  0  2  0  0  0  0  0  0  0  0  0
   20.4399    5.7758   17.6952 O   0  0  0  0  0  0  0  0  0  0  0  0
   16.0140    6.1885   14.9635 C   0  0  1  0  0  0  0  0  0  0  0  0
   22.2499    7.4186   16.6838 O   0  0  0  0  0  0  0  0  0  0  0  0
   14.0917    4.9410   15.7295 C   0  0  2  0  0  0  0  0  0  0  0  0
   13.6783    3.8468   16.7165 C   0  0  0  0  0  0  0  0  0  0  0  0
   13.7582    4.4781   14.3101 C   0  0  2  0  0  0  0  0  0  0  0  0
   14.2407    5.5170   13.2957 C   0  0  1  0  0  0  0  0  0  0  0  0
   15.7273    5.8172   13.5047 C   0  0  1  0  0  0  0  0  0  0  0  0
   20.1058    6.3503   16.4295 C   0  0  2  0  0  0  0  0  0  0  0  0
   21.3645    6.8414   15.7208 C   0  0  1  0  0  0  0  0  0  0  0  0
  1  3  1  0  0  0  0
  4  1  1  6  0  0  0
  4  6  1  0  0  0  0
  4 31  1  0  0  0  0
  6  7  1  0  0  0  0
  7  9  1  6  0  0  0
  7 30  1  0  0  0  0
  8 26  1  0  0  0  0
 10  9  1  1  0  0  0
 10 13  1  0  0  0  0
 10 21  1  0  0  0  0
 13 12  1  6  0  0  0
 13 15  1  0  0  0  0
 15  2  1  1  0  0  0
 15 17  1  0  0  0  0
 16 25  1  0  0  0  0
 16 23  1  0  0  0  0
 17 19  1  0  0  0  0
 19  5  1  1  0  0  0
 19 21  1  0  0  0  0
 21 14  1  6  0  0  0
 23 14  1  1  0  0  0
 23 29  1  0  0  0  0
 25 26  1  1  0  0  0
 25 27  1  0  0  0  0
 27 18  1  1  0  0  0
 27 28  1  0  0  0  0
 28 20  1  6  0  0  0
 28 29  1  0  0  0  0
 29 11  1  6  0  0  0
 30 22  1  1  0  0  0
 30 31  1  0  0  0  0
 31 24  1  1  0  0  0
M  END
>  <CHROM.1>
62.64383709,-56.51471832,-76.11548438,63.95629877,71.14418244,61.62632265
16.84747807,7.13069163,15.81298173,-0.40979825,-0.18996221,-2.28520462

>  <Name>
ligand

>  <RI>
0

>  <Rbt.Current_Directory>
/home/itssahil/PROJECTS/Mol_Feturizer/New_Systems/rnas/3DVV

>  <Rbt.Executable>
rbdock ($Id: //depot/dev/client3/rdock/2013.1/src/exe/rbdock.cxx#4 $)

>  <Rbt.Library>
libRbt.so (2013.1, Build901 2013/11/27)

>  <Rbt.Parameter_File>
/export/apps/rDock/src/rDock_2013.1_src/data/scripts/dock_solv.prm

>  <Rbt.Receptor>
prm/pocket_docking_8.prm

>  <SCORE>
-8.75957

>  <SCORE.INTER>
-4.62791

>  <SCORE.INTER.CONST>
1

>  <SCORE.INTER.POLAR>
0

>  <SCORE.INTER.ROT>
6

>  <SCORE.INTER.SOLV>
13.9589

>  <SCORE.INTER.VDW>
-15.3382

>  <SCORE.INTER.norm>
-0.149287

>  <SCORE.INTRA>
-4.13167

>  <SCORE.INTRA.DIHEDRAL>
-8.58589

>  <SCORE.INTRA.DIHEDRAL.0>
10.8172

>  <SCORE.INTRA.POLAR>
0

>  <SCORE.INTRA.POLAR.0>
0

>  <SCORE.INTRA.REPUL>
0

>  <SCORE.INTRA.REPUL.0>
0

>  <SCORE.INTRA.SOLV>
-3.69318

>  <SCORE.INTRA.SOLV.lig_0>
-80.3833

>  <SCORE.INTRA.VDW>
2.00787

>  <SCORE.INTRA.VDW.0>
-4.63762

>  <SCORE.INTRA.norm>
-0.13328

>  <SCORE.RESTR>
0

>  <SCORE.RESTR.CAVITY>
0

>  <SCORE.RESTR.norm>
0

>  <SCORE.SYSTEM>
0

>  <SCORE.SYSTEM.CONST>
0

>  <SCORE.SYSTEM.DIHEDRAL>
0

>  <SCORE.SYSTEM.SOLV>
0

>  <SCORE.SYSTEM.norm>
0

>  <SCORE.heavy>
31

>  <SCORE.norm>
-0.282567

>  <RMSD>
7.991

$$$$
ligand
 OpenBabel11021811473D
libRbt.so/2013.1/901 2013/11/27
 31 33  0  0  0  0  0  0  0  0999 V2000
   20.5908    7.3091   13.3841 C   0  0  0  0  0  0  0  0  0  0  0  0
   16.4435   11.2889   19.2558 N   0  0  0  0  0  0  0  0  0  0  0  0
   20.0578    8.2891   12.4873 O   0  0  0  0  0  0  0  0  0  0  0  0
   20.7569    7.9088   14.7827 C   0  0  1  0  0  0  0  0  0  0  0  0
   13.2385    8.3453   17.0273 N   0  0  0  0  0  0  0  0  0  0  0  0
   19.4745    8.2995   15.3111 O   0  0  0  0  0  0  0  0  0  0  0  0
   19.2933    7.6659   16.5899 C   0  0  1  0  0  0  0  0  0  0  0  0
   13.9942    4.2242   18.1275 N   0  0  0  0  0  0  0  0  0  0  0  0
   17.9150    7.3430   16.8327 O   0  0  0  0  0  0  0  0  0  0  0  0
   17.0322    8.4710   16.7420 C   0  0  2  0  0  0  0  0  0  0  0  0
   16.0949    6.9233   12.6745 N   0  0  0  0  0  0  0  0  0  0  0  0
   18.5428    9.8592   18.0200 O   0  0  0  0  0  0  0  0  0  0  0  0
   17.2250    9.3036   18.0148 C   0  0  1  0  0  0  0  0  0  0  0  0
   15.3226    7.4246   15.3056 O   0  0  0  0  0  0  0  0  0  0  0  0
   16.2002   10.4377   18.0813 C   0  0  1  0  0  0  0  0  0  0  0  0
   15.4830    5.1495   15.8857 O   0  0  0  0  0  0  0  0  0  0  0  0
   14.7948    9.8395   18.1490 C   0  0  0  0  0  0  0  0  0  0  0  0
   12.3306    4.2704   14.2226 O   0  0  0  0  0  0  0  0  0  0  0  0
   14.5325    9.0281   16.8768 C   0  0  1  0  0  0  0  0  0  0  0  0
   14.0281    4.9857   12.0154 O   0  0  0  0  0  0  0  0  0  0  0  0
   15.6005    7.9601   16.6113 C   0  0  2  0  0  0  0  0  0  0  0  0
   20.4114    5.7794   17.7074 O   0  0  0  0  0  0  0  0  0  0  0  0
   15.9791    6.1812   15.0127 C   0  0  1  0  0  0  0  0  0  0  0  0
   22.2169    7.4332   16.7057 O   0  0  0  0  0  0  0  0  0  0  0  0
   14.0701    4.9092   15.7716 C   0  0  2  0  0  0  0  0  0  0  0  0
   13.6677    3.8072   16.7545 C   0  0  0  0  0  0  0  0  0  0  0  0
   13.7440    4.4472   14.3502 C   0  0  2  0  0  0  0  0  0  0  0  0
   14.2161    5.4949   13.3400 C   0  0  1  0  0  0  0  0  0  0  0  0
   15.6988    5.8114   13.5523 C   0  0  1  0  0  0  0  0  0  0  0  0
   20.0749    6.3618   16.4460 C   0  0  2  0  0  0  0  0  0  0  0  0
   21.3319    6.8606   15.7395 C   0  0  1  0  0  0  0  0  0  0  0  0
  1  3  1  0  0  0  0
  4  1  1  6  0  0  0
  4  6  1  0  0  0  0
  4 31  1  0  0  0  0
  6  7  1  0  0  0  0
  7  9  1  6  0  0  0
  7 30  1  0  0  0  0
  8 26  1  0  0  0  0
 10  9  1  1  0  0  0
 10 13  1  0  0  0  0
 10 21  1  0  0  0  0
 13 12  1  6  0  0  0
 13 15  1  0  0  0  0
 15  2  1  1  0  0  0
 15 17  1  0  0  0  0
 16 25  1  0  0  0  0
 16 23  1  0  0  0  0
 17 19  1  0  0  0  0
 19  5  1  1  0  0  0
 19 21  1  0  0  0  0
 21 14  1  6  0  0  0
 23 14  1  1  0  0  0
 23 29  1  0  0  0  0
 25 26  1  1  0  0  0
 25 27  1  0  0  0  0
 27 18  1  1  0  0  0
 27 28  1  0  0  0  0
 28 20  1  6  0  0  0
 28 29  1  0  0  0  0
 29 11  1  6  0  0  0
 30 22  1  1  0  0  0
 30 31  1  0  0  0  0
 31 24  1  1  0  0  0
M  END
>  <CHROM.1>
62.55912358,-56.12700955,-75.27598264,65.12403993,70.31757346,59.62638580
16.81999664,7.12869219,15.84546481,-0.41645105,-0.19660827,-2.29443913

>  <Name>
ligand

>  <RI>
0

>  <Rbt.Current_Directory>
/home/itssahil/PROJECTS/Mol_Feturizer/New_Systems/rnas/3DVV

>  <Rbt.Executable>
rbdock ($Id: //depot/dev/client3/rdock/2013.1/src/exe/rbdock.cxx#4 $)

>  <Rbt.Library>
libRbt.so (2013.1, Build901 2013/11/27)

>  <Rbt.Parameter_File>
/export/apps/rDock/src/rDock_2013.1_src/data/scripts/dock_solv.prm

>  <Rbt.Receptor>
prm/pocket_docking_7.prm

>  <SCORE>
-8.79039

>  <SCORE.INTER>
-4.65065

>  <SCORE.INTER.CONST>
1

>  <SCORE.INTER.POLAR>
0

>  <SCORE.INTER.ROT>
6

>  <SCORE.INTER.SOLV>
13.8487

>  <SCORE.INTER.VDW>
-15.3167

>  <SCORE.INTER.norm>
-0.150021

>  <SCORE.INTRA>
-4.13974

>  <SCORE.INTRA.DIHEDRAL>
-8.72833

>  <SCORE.INTRA.DIHEDRAL.0>
10.8172

>  <SCORE.INTRA.POLAR>
0

>  <SCORE.INTRA.POLAR.0>
0

>  <SCORE.INTRA.REPUL>
0

>  <SCORE.INTRA.REPUL.0>
0

>  <SCORE.INTRA.SOLV>
-3.80367

>  <SCORE.INTRA.SOLV.lig_0>
-80.3833

>  <SCORE.INTRA.VDW>
2.12626

>  <SCORE.INTRA.VDW.0>
-4.63762

>  <SCORE.INTRA.norm>
-0.13354

>  <SCORE.RESTR>
0

>  <SCORE.RESTR.CAVITY>
0

>  <SCORE.RESTR.norm>
0

>  <SCORE.SYSTEM>
0

>  <SCORE.SYSTEM.CONST>
0

>  <SCORE.SYSTEM.DIHEDRAL>
0

>  <SCORE.SYSTEM.SOLV>
0

>  <SCORE.SYSTEM.norm>
0

>  <SCORE.heavy>
31

>  <SCORE.norm>
-0.283561

>  <RMSD>
7.998

$$$$
ligand
 OpenBabel11021811473D
libRbt.so/2013.1/901 2013/11/27
 31 33  0  0  0  0  0  0  0  0999 V2000
   18.5908    7.2814   10.9164 C   0  0  0  0  0  0  0  0  0  0  0  0
   13.1941    3.8926   11.5645 N   0  0  0  0  0  0  0  0  0  0  0  0
   19.4426    8.3031   11.4449 O   0  0  0  0  0  0  0  0  0  0  0  0
   18.4397    6.1441   11.9299 C   0  0  1  0  0  0  0  0  0  0  0  0
   15.6584    0.1532   13.5260 N   0  0  0  0  0  0  0  0  0  0  0  0
   17.5471    5.1363   11.4161 O   0  0  0  0  0  0  0  0  0  0  0  0
   18.2212    3.8658   11.4513 C   0  0  1  0  0  0  0  0  0  0  0  0
   17.9074   -4.8666   11.5774 N   0  0  0  0  0  0  0  0  0  0  0  0
   17.8201    3.0209   10.3613 O   0  0  0  0  0  0  0  0  0  0  0  0
   16.5560    2.3730   10.5669 C   0  0  2  0  0  0  0  0  0  0  0  0
   19.6181    0.7235   12.9316 N   0  0  0  0  0  0  0  0  0  0  0  0
   15.3431    4.3099    9.7795 O   0  0  0  0  0  0  0  0  0  0  0  0
   15.5368    3.4638   10.9161 C   0  0  1  0  0  0  0  0  0  0  0  0
   17.4322    0.1837   11.2881 O   0  0  0  0  0  0  0  0  0  0  0  0
   14.1963    2.8449   11.3174 C   0  0  1  0  0  0  0  0  0  0  0  0
   17.3699   -2.0730   11.9527 O   0  0  0  0  0  0  0  0  0  0  0  0
   14.3919    1.9987   12.5756 C   0  0  0  0  0  0  0  0  0  0  0  0
   20.2508   -2.9991    9.8744 O   0  0  0  0  0  0  0  0  0  0  0  0
   15.3736    0.8635   12.2700 C   0  0  1  0  0  0  0  0  0  0  0  0
   21.4302   -1.2807   11.8545 O   0  0  0  0  0  0  0  0  0  0  0  0
   16.7069    1.3572   11.6952 C   0  0  2  0  0  0  0  0  0  0  0  0
   20.5845    3.2202   11.6881 O   0  0  0  0  0  0  0  0  0  0  0  0
   17.7316   -0.7371   12.3489 C   0  0  1  0  0  0  0  0  0  0  0  0
   19.9556    5.0276   13.5146 O   0  0  0  0  0  0  0  0  0  0  0  0
   18.0592   -2.5487   10.7840 C   0  0  2  0  0  0  0  0  0  0  0  0
   17.5797   -3.9657   10.4608 C   0  0  0  0  0  0  0  0  0  0  0  0
   19.5637   -2.5865   11.0587 C   0  0  2  0  0  0  0  0  0  0  0  0
   20.0539   -1.1966   11.4698 C   0  0  1  0  0  0  0  0  0  0  0  0
   19.2327   -0.6676   12.6487 C   0  0  1  0  0  0  0  0  0  0  0  0
   19.6874    4.2444   11.2523 C   0  0  2  0  0  0  0  0  0  0  0  0
   19.7919    5.4641   12.1629 C   0  0  1  0  0  0  0  0  0  0  0  0
  1  3  1  0  0  0  0
  4  1  1  6  0  0  0
  4  6  1  0  0  0  0
  4 31  1  0  0  0  0
  6  7  1  0  0  0  0
  7  9  1  6  0  0  0
  7 30  1  0  0  0  0
  8 26  1  0  0  0  0
 10  9  1  1  0  0  0
 10 13  1  0  0  0  0
 10 21  1  0  0  0  0
 13 12  1  6  0  0  0
 13 15  1  0  0  0  0
 15  2  1  1  0  0  0
 15 17  1  0  0  0  0
 16 25  1  0  0  0  0
 16 23  1  0  0  0  0
 17 19  1  0  0  0  0
 19  5  1  1  0  0  0
 19 21  1  0  0  0  0
 21 14  1  6  0  0  0
 23 14  1  6  0  0  0
 23 29  1  0  0  0  0
 25 26  1  1  0  0  0
 25 27  1  0  0  0  0
 27 18  1  6  0  0  0
 27 28  1  0  0  0  0
 28 20  1  1  0  0  0
 28 29  1  0  0  0  0
 29 11  1  6  0  0  0
 30 22  1  1  0  0  0
 30 31  1  0  0  0  0
 31 24  1  1  0  0  0
M  END
>  <CHROM.1>
178.10504547,-79.17629459,53.04866970,131.51688153,173.39544176,-61.98297600
17.88817221,1.67287826,11.55650201,-1.65220546,0.03745735,-3.12234009

>  <Name>
ligand

>  <RI>
0

>  <Rbt.Current_Directory>
/home/itssahil/PROJECTS/Mol_Feturizer/New_Systems/rnas/3DVV

>  <Rbt.Executable>
rbdock ($Id: //depot/dev/client3/rdock/2013.1/src/exe/rbdock.cxx#4 $)

>  <Rbt.Library>
libRbt.so (2013.1, Build901 2013/11/27)

>  <Rbt.Parameter_File>
/export/apps/rDock/src/rDock_2013.1_src/data/scripts/dock_solv.prm

>  <Rbt.Receptor>
prm/blind_docking_80.prm

>  <SCORE>
3.87614

>  <SCORE.INTER>
-2.40074

>  <SCORE.INTER.CONST>
1

>  <SCORE.INTER.POLAR>
0

>  <SCORE.INTER.ROT>
6

>  <SCORE.INTER.SOLV>
23.8059

>  <SCORE.INTER.VDW>
-17.1358

>  <SCORE.INTER.norm>
-0.0774432

>  <SCORE.INTRA>
6.27688

>  <SCORE.INTRA.DIHEDRAL>
-1.91706

>  <SCORE.INTRA.DIHEDRAL.0>
10.8172

>  <SCORE.INTRA.POLAR>
0

>  <SCORE.INTRA.POLAR.0>
0

>  <SCORE.INTRA.REPUL>
0.0506314

>  <SCORE.INTRA.REPUL.0>
0

>  <SCORE.INTRA.SOLV>
1.97798

>  <SCORE.INTRA.SOLV.lig_0>
-80.3833

>  <SCORE.INTRA.VDW>
5.99327

>  <SCORE.INTRA.VDW.0>
-4.63762

>  <SCORE.INTRA.norm>
0.20248

>  <SCORE.RESTR>
0

>  <SCORE.RESTR.CAVITY>
0

>  <SCORE.RESTR.norm>
0

>  <SCORE.SYSTEM>
0

>  <SCORE.SYSTEM.CONST>
0

>  <SCORE.SYSTEM.DIHEDRAL>
0

>  <SCORE.SYSTEM.SOLV>
0

>  <SCORE.SYSTEM.norm>
0

>  <SCORE.heavy>
31

>  <SCORE.norm>
0.125037

>  <RMSD>
8.008

$$$$
ligand
 OpenBabel11021811473D
libRbt.so/2013.1/901 2013/11/27
 31 33  0  0  0  0  0  0  0  0999 V2000
   16.2278    2.8765   15.5455 C   0  0  0  0  0  0  0  0  0  0  0  0
   15.2199    8.8707   21.2672 N   0  0  0  0  0  0  0  0  0  0  0  0
   16.2461    1.4664   15.3007 O   0  0  0  0  0  0  0  0  0  0  0  0
   15.6761    3.1620   16.9446 C   0  0  1  0  0  0  0  0  0  0  0  0
   15.4510   11.0309   16.8872 N   0  0  0  0  0  0  0  0  0  0  0  0
   15.7695    4.5697   17.2376 O   0  0  0  0  0  0  0  0  0  0  0  0
   14.4650    5.0477   17.6111 C   0  0  1  0  0  0  0  0  0  0  0  0
   11.7892   10.0812   14.6503 N   0  0  0  0  0  0  0  0  0  0  0  0
   14.2565    6.4057   17.1924 O   0  0  0  0  0  0  0  0  0  0  0  0
   15.1855    7.3369   17.7667 C   0  0  2  0  0  0  0  0  0  0  0  0
   17.4054    6.9986   13.9084 N   0  0  0  0  0  0  0  0  0  0  0  0
   14.9069    6.3814   19.9694 O   0  0  0  0  0  0  0  0  0  0  0  0
   14.7454    7.5851   19.2142 C   0  0  1  0  0  0  0  0  0  0  0  0
   15.8333    8.4730   15.6761 O   0  0  0  0  0  0  0  0  0  0  0  0
   15.5819    8.6959   19.8523 C   0  0  1  0  0  0  0  0  0  0  0  0
   13.9009    8.1547   14.3712 O   0  0  0  0  0  0  0  0  0  0  0  0
   15.3513    9.9992   19.0869 C   0  0  0  0  0  0  0  0  0  0  0  0
   14.9150   10.6323   11.8593 O   0  0  0  0  0  0  0  0  0  0  0  0
   15.8148    9.8198   17.6383 C   0  0  1  0  0  0  0  0  0  0  0  0
   16.8609    8.5459   11.5062 O   0  0  0  0  0  0  0  0  0  0  0  0
   15.1636    8.6194   16.9406 C   0  0  2  0  0  0  0  0  0  0  0  0
   12.1964    4.1309   17.3448 O   0  0  0  0  0  0  0  0  0  0  0  0
   15.1758    7.5999   14.7443 C   0  0  1  0  0  0  0  0  0  0  0  0
   13.8185    2.2655   18.2867 O   0  0  0  0  0  0  0  0  0  0  0  0
   13.9803    9.4461   13.7441 C   0  0  2  0  0  0  0  0  0  0  0  0
   12.5669    9.9293   13.4102 C   0  0  0  0  0  0  0  0  0  0  0  0
   14.7841    9.3353   12.4473 C   0  0  2  0  0  0  0  0  0  0  0  0
   16.1753    8.7709   12.7425 C   0  0  1  0  0  0  0  0  0  0  0  0
   16.0641    7.4480   13.5050 C   0  0  1  0  0  0  0  0  0  0  0  0
   13.5233    4.1482   16.8131 C   0  0  2  0  0  0  0  0  0  0  0  0
   14.1919    2.7910   17.0105 C   0  0  1  0  0  0  0  0  0  0  0  0
  1  3  1  0  0  0  0
  4  1  1  6  0  0  0
  4  6  1  0  0  0  0
  4 31  1  0  0  0  0
  6  7  1  0  0  0  0
  7  9  1  6  0  0  0
  7 30  1  0  0  0  0
  8 26  1  0  0  0  0
 10  9  1  6  0  0  0
 10 13  1  0  0  0  0
 10 21  1  0  0  0  0
 13 12  1  1  0  0  0
 13 15  1  0  0  0  0
 15  2  1  1  0  0  0
 15 17  1  0  0  0  0
 16 25  1  0  0  0  0
 16 23  1  0  0  0  0
 17 19  1  0  0  0  0
 19  5  1  6  0  0  0
 19 21  1  0  0  0  0
 21 14  1  6  0  0  0
 23 14  1  1  0  0  0
 23 29  1  0  0  0  0
 25 26  1  6  0  0  0
 25 27  1  0  0  0  0
 27 18  1  1  0  0  0
 27 28  1  0  0  0  0
 28 20  1  6  0  0  0
 28 29  1  0  0  0  0
 29 11  1  1  0  0  0
 30 22  1  1  0  0  0
 30 31  1  0  0  0  0
 31 24  1  1  0  0  0
M  END
>  <CHROM.1>
174.84318452,-60.66102821,-76.76530320,64.63309540,68.00765484,62.23713565
14.93701895,7.07049420,16.12997337,-1.84168307,1.48019147,-0.34985490

>  <Name>
ligand

>  <RI>
0

>  <Rbt.Current_Directory>
/home/itssahil/PROJECTS/Mol_Feturizer/New_Systems/rnas/3DVV

>  <Rbt.Executable>
rbdock ($Id: //depot/dev/client3/rdock/2013.1/src/exe/rbdock.cxx#4 $)

>  <Rbt.Library>
libRbt.so (2013.1, Build901 2013/11/27)

>  <Rbt.Parameter_File>
/export/apps/rDock/src/rDock_2013.1_src/data/scripts/dock_solv.prm

>  <Rbt.Receptor>
prm/pocket_docking_8.prm

>  <SCORE>
-3.50181

>  <SCORE.INTER>
0.828238

>  <SCORE.INTER.CONST>
1

>  <SCORE.INTER.POLAR>
0

>  <SCORE.INTER.ROT>
6

>  <SCORE.INTER.SOLV>
10.4339

>  <SCORE.INTER.VDW>
-10.5258

>  <SCORE.INTER.norm>
0.0267173

>  <SCORE.INTRA>
-4.33005

>  <SCORE.INTRA.DIHEDRAL>
-8.72325

>  <SCORE.INTRA.DIHEDRAL.0>
10.8172

>  <SCORE.INTRA.POLAR>
0

>  <SCORE.INTRA.POLAR.0>
0

>  <SCORE.INTRA.REPUL>
0

>  <SCORE.INTRA.REPUL.0>
0

>  <SCORE.INTRA.SOLV>
-4.10202

>  <SCORE.INTRA.SOLV.lig_0>
-80.3833

>  <SCORE.INTRA.VDW>
2.08258

>  <SCORE.INTRA.VDW.0>
-4.63762

>  <SCORE.INTRA.norm>
-0.139679

>  <SCORE.RESTR>
0

>  <SCORE.RESTR.CAVITY>
0

>  <SCORE.RESTR.norm>
0

>  <SCORE.SYSTEM>
0

>  <SCORE.SYSTEM.CONST>
0

>  <SCORE.SYSTEM.DIHEDRAL>
0

>  <SCORE.SYSTEM.SOLV>
0

>  <SCORE.SYSTEM.norm>
0

>  <SCORE.heavy>
31

>  <SCORE.norm>
-0.112962

>  <RMSD>
8.019

$$$$
ligand
 OpenBabel11021811473D
libRbt.so/2013.1/901 2013/11/27
 31 33  0  0  0  0  0  0  0  0999 V2000
   16.6192    3.5138   11.6384 C   0  0  0  0  0  0  0  0  0  0  0  0
   22.4262   -1.2980    7.1075 N   0  0  0  0  0  0  0  0  0  0  0  0
   15.6033    4.4986   11.8550 O   0  0  0  0  0  0  0  0  0  0  0  0
   17.2365    3.6895   10.2486 C   0  0  1  0  0  0  0  0  0  0  0  0
   21.0619   -2.0456   11.7425 N   0  0  0  0  0  0  0  0  0  0  0  0
   18.2405    2.6815   10.0201 O   0  0  0  0  0  0  0  0  0  0  0  0
   17.9244    1.9880    8.7999 C   0  0  1  0  0  0  0  0  0  0  0  0
   20.3938    2.6444   15.3360 N   0  0  0  0  0  0  0  0  0  0  0  0
   18.3131    0.6065    8.8576 O   0  0  0  0  0  0  0  0  0  0  0  0
   19.6995    0.4086    9.1715 C   0  0  2  0  0  0  0  0  0  0  0  0
   17.3710   -1.5120   11.4012 N   0  0  0  0  0  0  0  0  0  0  0  0
   20.3347    0.5825    6.8458 O   0  0  0  0  0  0  0  0  0  0  0  0
   20.3414   -0.2987    7.9722 C   0  0  1  0  0  0  0  0  0  0  0  0
   19.4625    0.3174   11.6243 O   0  0  0  0  0  0  0  0  0  0  0  0
   21.7833   -0.7011    8.2882 C   0  0  1  0  0  0  0  0  0  0  0  0
   19.3869    0.2601   13.9757 O   0  0  0  0  0  0  0  0  0  0  0  0
   21.7824   -1.6995    9.4460 C   0  0  0  0  0  0  0  0  0  0  0  0
   16.3861    2.3670   14.1558 O   0  0  0  0  0  0  0  0  0  0  0  0
   21.1873   -1.0286   10.6875 C   0  0  1  0  0  0  0  0  0  0  0  0
   15.3910   -0.0428   12.9444 O   0  0  0  0  0  0  0  0  0  0  0  0
   19.7967   -0.4305   10.4420 C   0  0  2  0  0  0  0  0  0  0  0  0
   15.8849    1.8351    7.4305 O   0  0  0  0  0  0  0  0  0  0  0  0
   19.1320   -0.4836   12.7698 C   0  0  1  0  0  0  0  0  0  0  0  0
   16.3717    4.3616    8.0450 O   0  0  0  0  0  0  0  0  0  0  0  0
   18.6306    1.4776   14.0890 C   0  0  2  0  0  0  0  0  0  0  0  0
   18.9996    2.1774   15.3992 C   0  0  0  0  0  0  0  0  0  0  0  0
   17.1363    1.1505   14.1072 C   0  0  2  0  0  0  0  0  0  0  0  0
   16.7573    0.3724   12.8454 C   0  0  1  0  0  0  0  0  0  0  0  0
   17.6492   -0.8623   12.6913 C   0  0  1  0  0  0  0  0  0  0  0  0
   16.3996    2.0570    8.7456 C   0  0  2  0  0  0  0  0  0  0  0  0
   16.1655    3.5037    9.1700 C   0  0  1  0  0  0  0  0  0  0  0  0
  1  3  1  0  0  0  0
  4  1  1  1  0  0  0
  4  6  1  0  0  0  0
  4 31  1  0  0  0  0
  6  7  1  0  0  0  0
  7  9  1  1  0  0  0
  7 30  1  0  0  0  0
  8 26  1  0  0  0  0
 10  9  1  6  0  0  0
 10 13  1  0  0  0  0
 10 21  1  0  0  0  0
 13 12  1  6  0  0  0
 13 15  1  0  0  0  0
 15  2  1  6  0  0  0
 15 17  1  0  0  0  0
 16 25  1  0  0  0  0
 16 23  1  0  0  0  0
 17 19  1  0  0  0  0
 19  5  1  1  0  0  0
 19 21  1  0  0  0  0
 21 14  1  1  0  0  0
 23 14  1  6  0  0  0
 23 29  1  0  0  0  0
 25 26  1  1  0  0  0
 25 27  1  0  0  0  0
 27 18  1  6  0  0  0
 27 28  1  0  0  0  0
 28 20  1  1  0  0  0
 28 29  1  0  0  0  0
 29 11  1  6  0  0  0
 30 22  1  6  0  0  0
 30 31  1  0  0  0  0
 31 24  1  6  0  0  0
M  END
>  <CHROM.1>
-178.85614855,-55.60121963,-117.67906320,154.96493035,161.55857824,67.29446073
18.46635307,1.01199483,10.88976956,2.38257499,-0.72721600,1.67375705

>  <Name>
ligand

>  <RI>
0

>  <Rbt.Current_Directory>
/home/itssahil/PROJECTS/Mol_Feturizer/New_Systems/rnas/3DVV

>  <Rbt.Executable>
rbdock ($Id: //depot/dev/client3/rdock/2013.1/src/exe/rbdock.cxx#4 $)

>  <Rbt.Library>
libRbt.so (2013.1, Build901 2013/11/27)

>  <Rbt.Parameter_File>
/export/apps/rDock/src/rDock_2013.1_src/data/scripts/dock_solv.prm

>  <Rbt.Receptor>
prm/blind_docking_60.prm

>  <SCORE>
1.83567

>  <SCORE.INTER>
-3.36854

>  <SCORE.INTER.CONST>
1

>  <SCORE.INTER.POLAR>
0

>  <SCORE.INTER.ROT>
6

>  <SCORE.INTER.SOLV>
23.9319

>  <SCORE.INTER.VDW>
-17.823

>  <SCORE.INTER.norm>
-0.108663

>  <SCORE.INTRA>
4.48927

>  <SCORE.INTRA.DIHEDRAL>
1.09657

>  <SCORE.INTRA.DIHEDRAL.0>
10.8172

>  <SCORE.INTRA.POLAR>
0

>  <SCORE.INTRA.POLAR.0>
0

>  <SCORE.INTRA.REPUL>
0.393003

>  <SCORE.INTRA.REPUL.0>
0

>  <SCORE.INTRA.SOLV>
0.222391

>  <SCORE.INTRA.SOLV.lig_0>
-80.3833

>  <SCORE.INTRA.VDW>
1.86478

>  <SCORE.INTRA.VDW.0>
-4.63762

>  <SCORE.INTRA.norm>
0.144815

>  <SCORE.RESTR>
0.714941

>  <SCORE.RESTR.CAVITY>
0.714941

>  <SCORE.RESTR.norm>
0.0230626

>  <SCORE.SYSTEM>
0

>  <SCORE.SYSTEM.CONST>
0

>  <SCORE.SYSTEM.DIHEDRAL>
0

>  <SCORE.SYSTEM.SOLV>
0

>  <SCORE.SYSTEM.norm>
0

>  <SCORE.heavy>
31

>  <SCORE.norm>
0.0592152

>  <RMSD>
8.114

$$$$
ligand
 OpenBabel11021811473D
libRbt.so/2013.1/901 2013/11/27
 31 33  0  0  0  0  0  0  0  0999 V2000
   23.1979   -1.1013    8.1712 C   0  0  0  0  0  0  0  0  0  0  0  0
   16.6734   -3.2158   11.3803 N   0  0  0  0  0  0  0  0  0  0  0  0
   23.5226   -2.4618    8.4751 O   0  0  0  0  0  0  0  0  0  0  0  0
   21.6787   -0.9145    8.1456 C   0  0  1  0  0  0  0  0  0  0  0  0
   15.8941    1.6107   11.4105 N   0  0  0  0  0  0  0  0  0  0  0  0
   21.1127   -1.2729    9.4214 O   0  0  0  0  0  0  0  0  0  0  0  0
   20.3333   -0.1644    9.9047 C   0  0  1  0  0  0  0  0  0  0  0  0
   18.1567    7.0670   12.3372 N   0  0  0  0  0  0  0  0  0  0  0  0
   20.3756   -0.0694   11.3373 O   0  0  0  0  0  0  0  0  0  0  0  0
   19.1162   -0.3366   11.9718 C   0  0  2  0  0  0  0  0  0  0  0  0
   20.5102    1.2983   14.2951 N   0  0  0  0  0  0  0  0  0  0  0  0
   19.4279   -2.7249   11.7681 O   0  0  0  0  0  0  0  0  0  0  0  0
   18.5763   -1.6436   11.3797 C   0  0  1  0  0  0  0  0  0  0  0  0
   18.5128    1.9994   12.4814 O   0  0  0  0  0  0  0  0  0  0  0  0
   17.1556   -1.9180   11.8769 C   0  0  1  0  0  0  0  0  0  0  0  0
   19.7710    3.8059   11.6497 O   0  0  0  0  0  0  0  0  0  0  0  0
   16.2323   -0.7972   11.3984 C   0  0  0  0  0  0  0  0  0  0  0  0
   19.0663    5.9297   14.5599 O   0  0  0  0  0  0  0  0  0  0  0  0
   16.7032    0.5315   11.9969 C   0  0  1  0  0  0  0  0  0  0  0  0
   20.7017    3.8482   15.6814 O   0  0  0  0  0  0  0  0  0  0  0  0
   18.1775    0.8361   11.7048 C   0  0  2  0  0  0  0  0  0  0  0  0
   20.2300    2.2163    9.2887 O   0  0  0  0  0  0  0  0  0  0  0  0
   19.8391    2.5061   12.2647 C   0  0  1  0  0  0  0  0  0  0  0  0
   20.1544    0.7168    7.1107 O   0  0  0  0  0  0  0  0  0  0  0  0
   19.0730    4.7917   12.4296 C   0  0  2  0  0  0  0  0  0  0  0  0
   19.0586    6.1177   11.6655 C   0  0  0  0  0  0  0  0  0  0  0  0
   19.7980    4.9961   13.7611 C   0  0  2  0  0  0  0  0  0  0  0  0
   19.9031    3.6647   14.5076 C   0  0  1  0  0  0  0  0  0  0  0  0
   20.5535    2.6028   13.6169 C   0  0  1  0  0  0  0  0  0  0  0  0
   21.0542    1.0487    9.3206 C   0  0  2  0  0  0  0  0  0  0  0  0
   21.3338    0.5576    7.9033 C   0  0  1  0  0  0  0  0  0  0  0  0
  1  3  1  0  0  0  0
  4  1  1  1  0  0  0
  4  6  1  0  0  0  0
  4 31  1  0  0  0  0
  6  7  1  0  0  0  0
  7  9  1  1  0  0  0
  7 30  1  0  0  0  0
  8 26  1  0  0  0  0
 10  9  1  6  0  0  0
 10 13  1  0  0  0  0
 10 21  1  0  0  0  0
 13 12  1  1  0  0  0
 13 15  1  0  0  0  0
 15  2  1  6  0  0  0
 15 17  1  0  0  0  0
 16 25  1  0  0  0  0
 16 23  1  0  0  0  0
 17 19  1  0  0  0  0
 19  5  1  6  0  0  0
 19 21  1  0  0  0  0
 21 14  1  1  0  0  0
 23 14  1  1  0  0  0
 23 29  1  0  0  0  0
 25 26  1  6  0  0  0
 25 27  1  0  0  0  0
 27 18  1  1  0  0  0
 27 28  1  0  0  0  0
 28 20  1  1  0  0  0
 28 29  1  0  0  0  0
 29 11  1  1  0  0  0
 30 22  1  6  0  0  0
 30 31  1  0  0  0  0
 31 24  1  6  0  0  0
M  END
>  <CHROM.1>
58.98509435,-112.93526825,49.15481742,113.92727421,59.02857838,170.34664010
19.57930500,1.27446267,11.38127952,-1.33040612,0.68473740,0.43423349

>  <Name>
ligand

>  <RI>
0

>  <Rbt.Current_Directory>
/home/itssahil/PROJECTS/Mol_Feturizer/New_Systems/rnas/3DVV

>  <Rbt.Executable>
rbdock ($Id: //depot/dev/client3/rdock/2013.1/src/exe/rbdock.cxx#4 $)

>  <Rbt.Library>
libRbt.so (2013.1, Build901 2013/11/27)

>  <Rbt.Parameter_File>
/export/apps/rDock/src/rDock_2013.1_src/data/scripts/dock_solv.prm

>  <Rbt.Receptor>
prm/blind_docking_100.prm

>  <SCORE>
-2.25286

>  <SCORE.INTER>
-6.88864

>  <SCORE.INTER.CONST>
1

>  <SCORE.INTER.POLAR>
0

>  <SCORE.INTER.ROT>
6

>  <SCORE.INTER.SOLV>
19.0245

>  <SCORE.INTER.VDW>
-18.5339

>  <SCORE.INTER.norm>
-0.222214

>  <SCORE.INTRA>
4.63014

>  <SCORE.INTRA.DIHEDRAL>
4.02388

>  <SCORE.INTRA.DIHEDRAL.0>
10.8172

>  <SCORE.INTRA.POLAR>
0

>  <SCORE.INTRA.POLAR.0>
0

>  <SCORE.INTRA.REPUL>
0.0233615

>  <SCORE.INTRA.REPUL.0>
0

>  <SCORE.INTRA.SOLV>
-1.43302

>  <SCORE.INTRA.SOLV.lig_0>
-80.3833

>  <SCORE.INTRA.VDW>
3.2179

>  <SCORE.INTRA.VDW.0>
-4.63762

>  <SCORE.INTRA.norm>
0.149359

>  <SCORE.RESTR>
0.0056337

>  <SCORE.RESTR.CAVITY>
0.0056337

>  <SCORE.RESTR.norm>
0.000181732

>  <SCORE.SYSTEM>
0

>  <SCORE.SYSTEM.CONST>
0

>  <SCORE.SYSTEM.DIHEDRAL>
0

>  <SCORE.SYSTEM.SOLV>
0

>  <SCORE.SYSTEM.norm>
0

>  <SCORE.heavy>
31

>  <SCORE.norm>
-0.072673

>  <RMSD>
8.187

$$$$
ligand
 OpenBabel11021811473D
libRbt.so/2013.1/901 2013/11/27
 31 33  0  0  0  0  0  0  0  0999 V2000
   17.5704    1.1205    9.7496 C   0  0  0  0  0  0  0  0  0  0  0  0
   22.4270    4.0446   16.3207 N   0  0  0  0  0  0  0  0  0  0  0  0
   17.4196    0.6363    8.4111 O   0  0  0  0  0  0  0  0  0  0  0  0
   19.0540    1.2984   10.0822 C   0  0  1  0  0  0  0  0  0  0  0  0
   17.6034    3.6977   17.0391 N   0  0  0  0  0  0  0  0  0  0  0  0
   19.2025    1.9140   11.3765 O   0  0  0  0  0  0  0  0  0  0  0  0
   20.0502    1.0801   12.1863 C   0  0  1  0  0  0  0  0  0  0  0  0
   13.7705    5.1759   15.7470 N   0  0  0  0  0  0  0  0  0  0  0  0
   19.6774    1.1301   13.5725 O   0  0  0  0  0  0  0  0  0  0  0  0
   19.7266    2.4487   14.1372 C   0  0  2  0  0  0  0  0  0  0  0  0
   17.1047    0.3385   13.0483 N   0  0  0  0  0  0  0  0  0  0  0  0
   22.1360    2.5236   13.9584 O   0  0  0  0  0  0  0  0  0  0  0  0
   21.0547    2.5709   14.8933 C   0  0  1  0  0  0  0  0  0  0  0  0
   17.2945    2.7980   14.3464 O   0  0  0  0  0  0  0  0  0  0  0  0
   21.1175    3.8878   15.6695 C   0  0  1  0  0  0  0  0  0  0  0  0
   15.0851    2.6541   15.1439 O   0  0  0  0  0  0  0  0  0  0  0  0
   20.0048    3.9048   16.7180 C   0  0  0  0  0  0  0  0  0  0  0  0
   13.6156    3.5156   11.8920 O   0  0  0  0  0  0  0  0  0  0  0  0
   18.6480    3.8268   16.0118 C   0  0  1  0  0  0  0  0  0  0  0  0
   14.7940    0.9423   11.3878 O   0  0  0  0  0  0  0  0  0  0  0  0
   18.5286    2.6264   15.0651 C   0  0  2  0  0  0  0  0  0  0  0  0
   20.7900   -1.2594   11.9930 O   0  0  0  0  0  0  0  0  0  0  0  0
   16.2420    1.9013   14.7349 C   0  0  1  0  0  0  0  0  0  0  0  0
   21.0884   -0.0243    9.6728 O   0  0  0  0  0  0  0  0  0  0  0  0
   14.5454    3.5083   14.1210 C   0  0  2  0  0  0  0  0  0  0  0  0
   13.3351    4.2591   14.6814 C   0  0  0  0  0  0  0  0  0  0  0  0
   14.0929    2.6583   12.9324 C   0  0  2  0  0  0  0  0  0  0  0  0
   15.2668    1.8298   12.4066 C   0  0  1  0  0  0  0  0  0  0  0  0
   15.8914    1.0100   13.5388 C   0  0  1  0  0  0  0  0  0  0  0  0
   19.7610   -0.3244   11.6606 C   0  0  2  0  0  0  0  0  0  0  0  0
   19.7436   -0.0668   10.1569 C   0  0  1  0  0  0  0  0  0  0  0  0
  1  3  1  0  0  0  0
  4  1  1  1  0  0  0
  4  6  1  0  0  0  0
  4 31  1  0  0  0  0
  6  7  1  0  0  0  0
  7  9  1  1  0  0  0
  7 30  1  0  0  0  0
  8 26  1  0  0  0  0
 10  9  1  1  0  0  0
 10 13  1  0  0  0  0
 10 21  1  0  0  0  0
 13 12  1  6  0  0  0
 13 15  1  0  0  0  0
 15  2  1  1  0  0  0
 15 17  1  0  0  0  0
 16 25  1  0  0  0  0
 16 23  1  0  0  0  0
 17 19  1  0  0  0  0
 19  5  1  1  0  0  0
 19 21  1  0  0  0  0
 21 14  1  6  0  0  0
 23 14  1  6  0  0  0
 23 29  1  0  0  0  0
 25 26  1  1  0  0  0
 25 27  1  0  0  0  0
 27 18  1  6  0  0  0
 27 28  1  0  0  0  0
 28 20  1  6  0  0  0
 28 29  1  0  0  0  0
 29 11  1  6  0  0  0
 30 22  1  6  0  0  0
 30 31  1  0  0  0  0
 31 24  1  1  0  0  0
M  END
>  <CHROM.1>
174.11894689,-58.83945593,-98.83869725,123.20971530,127.15433774,65.67434766
17.95778027,2.09153847,13.25732262,0.56276765,0.15364187,-2.09949364

>  <Name>
ligand

>  <RI>
0

>  <Rbt.Current_Directory>
/home/itssahil/PROJECTS/Mol_Feturizer/New_Systems/rnas/3DVV

>  <Rbt.Executable>
rbdock ($Id: //depot/dev/client3/rdock/2013.1/src/exe/rbdock.cxx#4 $)

>  <Rbt.Library>
libRbt.so (2013.1, Build901 2013/11/27)

>  <Rbt.Parameter_File>
/export/apps/rDock/src/rDock_2013.1_src/data/scripts/dock_solv.prm

>  <Rbt.Receptor>
prm/pocket_docking_6.prm

>  <SCORE>
-0.545242

>  <SCORE.INTER>
-5.7354

>  <SCORE.INTER.CONST>
1

>  <SCORE.INTER.POLAR>
0

>  <SCORE.INTER.ROT>
6

>  <SCORE.INTER.SOLV>
15.0982

>  <SCORE.INTER.VDW>
-16.4563

>  <SCORE.INTER.norm>
-0.185013

>  <SCORE.INTRA>
5.19016

>  <SCORE.INTRA.DIHEDRAL>
8.81413

>  <SCORE.INTRA.DIHEDRAL.0>
10.8172

>  <SCORE.INTRA.POLAR>
0

>  <SCORE.INTRA.POLAR.0>
0

>  <SCORE.INTRA.REPUL>
0

>  <SCORE.INTRA.REPUL.0>
0

>  <SCORE.INTRA.SOLV>
1.86199

>  <SCORE.INTRA.SOLV.lig_0>
-80.3833

>  <SCORE.INTRA.VDW>
-0.147901

>  <SCORE.INTRA.VDW.0>
-4.63762

>  <SCORE.INTRA.norm>
0.167424

>  <SCORE.RESTR>
0

>  <SCORE.RESTR.CAVITY>
0

>  <SCORE.RESTR.norm>
0

>  <SCORE.SYSTEM>
0

>  <SCORE.SYSTEM.CONST>
0

>  <SCORE.SYSTEM.DIHEDRAL>
0

>  <SCORE.SYSTEM.SOLV>
0

>  <SCORE.SYSTEM.norm>
0

>  <SCORE.heavy>
31

>  <SCORE.norm>
-0.0175884

>  <RMSD>
8.222

$$$$
ligand
 OpenBabel11021811473D
libRbt.so/2013.1/901 2013/11/27
 31 33  0  0  0  0  0  0  0  0999 V2000
   12.7390    3.9477   14.2623 C   0  0  0  0  0  0  0  0  0  0  0  0
   16.3770    9.9181   18.3794 N   0  0  0  0  0  0  0  0  0  0  0  0
   11.4803    4.5518   14.5778 O   0  0  0  0  0  0  0  0  0  0  0  0
   13.8214    5.0221   14.1299 C   0  0  1  0  0  0  0  0  0  0  0  0
   15.6129    6.4079   21.6958 N   0  0  0  0  0  0  0  0  0  0  0  0
   14.1177    5.5903   15.4205 O   0  0  0  0  0  0  0  0  0  0  0  0
   15.5322    5.4775   15.6572 C   0  0  1  0  0  0  0  0  0  0  0  0
   17.3382    2.6923   23.2285 N   0  0  0  0  0  0  0  0  0  0  0  0
   15.8241    5.2777   17.0493 O   0  0  0  0  0  0  0  0  0  0  0  0
   15.2744    6.2894   17.9062 C   0  0  2  0  0  0  0  0  0  0  0  0
   12.3527    3.0426   19.0038 N   0  0  0  0  0  0  0  0  0  0  0  0
   15.8409    8.0400   16.3388 O   0  0  0  0  0  0  0  0  0  0  0  0
   16.0787    7.5729   17.6694 C   0  0  1  0  0  0  0  0  0  0  0  0
   14.4221    4.7883   19.6673 O   0  0  0  0  0  0  0  0  0  0  0  0
   15.6701    8.6603   18.6653 C   0  0  1  0  0  0  0  0  0  0  0  0
   15.9843    3.0338   19.8061 O   0  0  0  0  0  0  0  0  0  0  0  0
   15.9926    8.1877   20.0831 C   0  0  0  0  0  0  0  0  0  0  0  0
   14.7506    1.8917   23.0695 O   0  0  0  0  0  0  0  0  0  0  0  0
   15.1805    6.9257   20.3888 C   0  0  1  0  0  0  0  0  0  0  0  0
   12.5485    1.2947   21.3205 O   0  0  0  0  0  0  0  0  0  0  0  0
   15.3804    5.8136   19.3520 C   0  0  2  0  0  0  0  0  0  0  0  0
   17.3111    4.1319   14.6166 O   0  0  0  0  0  0  0  0  0  0  0  0
   14.7627    3.4781   19.1876 C   0  0  1  0  0  0  0  0  0  0  0  0
   15.8384    5.2829   12.7446 O   0  0  0  0  0  0  0  0  0  0  0  0
   15.9219    2.9470   21.2399 C   0  0  2  0  0  0  0  0  0  0  0  0
   17.2780    2.4794   21.7736 C   0  0  0  0  0  0  0  0  0  0  0  0
   14.8540    1.9288   21.6437 C   0  0  2  0  0  0  0  0  0  0  0  0
   13.5019    2.3272   21.0485 C   0  0  1  0  0  0  0  0  0  0  0  0
   13.6202    2.5174   19.5340 C   0  0  1  0  0  0  0  0  0  0  0  0
   15.9117    4.2073   14.8989 C   0  0  2  0  0  0  0  0  0  0  0  0
   15.1197    4.3993   13.6090 C   0  0  1  0  0  0  0  0  0  0  0  0
  1  3  1  0  0  0  0
  4  1  1  1  0  0  0
  4  6  1  0  0  0  0
  4 31  1  0  0  0  0
  6  7  1  0  0  0  0
  7  9  1  1  0  0  0
  7 30  1  0  0  0  0
  8 26  1  0  0  0  0
 10  9  1  6  0  0  0
 10 13  1  0  0  0  0
 10 21  1  0  0  0  0
 13 12  1  6  0  0  0
 13 15  1  0  0  0  0
 15  2  1  6  0  0  0
 15 17  1  0  0  0  0
 16 25  1  0  0  0  0
 16 23  1  0  0  0  0
 17 19  1  0  0  0  0
 19  5  1  1  0  0  0
 19 21  1  0  0  0  0
 21 14  1  1  0  0  0
 23 14  1  1  0  0  0
 23 29  1  0  0  0  0
 25 26  1  6  0  0  0
 25 27  1  0  0  0  0
 27 18  1  1  0  0  0
 27 28  1  0  0  0  0
 28 20  1  6  0  0  0
 28 29  1  0  0  0  0
 29 11  1  1  0  0  0
 30 22  1  6  0  0  0
 30 31  1  0  0  0  0
 31 24  1  6  0  0  0
M  END
>  <CHROM.1>
69.97040835,-55.41262031,-71.36958110,62.58120294,77.85254832,166.50422927
15.03585570,4.75909500,18.28618447,1.62322188,-1.11797739,-1.14273024

>  <Name>
ligand

>  <RI>
0

>  <Rbt.Current_Directory>
/home/itssahil/PROJECTS/Mol_Feturizer/New_Systems/rnas/3DVV

>  <Rbt.Executable>
rbdock ($Id: //depot/dev/client3/rdock/2013.1/src/exe/rbdock.cxx#4 $)

>  <Rbt.Library>
libRbt.so (2013.1, Build901 2013/11/27)

>  <Rbt.Parameter_File>
/export/apps/rDock/src/rDock_2013.1_src/data/scripts/dock_solv.prm

>  <Rbt.Receptor>
prm/pocket_docking_6.prm

>  <SCORE>
-5.05082

>  <SCORE.INTER>
-2.57492

>  <SCORE.INTER.CONST>
1

>  <SCORE.INTER.POLAR>
0

>  <SCORE.INTER.ROT>
6

>  <SCORE.INTER.SOLV>
9.19583

>  <SCORE.INTER.VDW>
-12.3819

>  <SCORE.INTER.norm>
-0.0830618

>  <SCORE.INTRA>
-2.47591

>  <SCORE.INTRA.DIHEDRAL>
-7.38336

>  <SCORE.INTRA.DIHEDRAL.0>
10.8172

>  <SCORE.INTRA.POLAR>
0

>  <SCORE.INTRA.POLAR.0>
0

>  <SCORE.INTRA.REPUL>
0

>  <SCORE.INTRA.REPUL.0>
0

>  <SCORE.INTRA.SOLV>
-2.75862

>  <SCORE.INTRA.SOLV.lig_0>
-80.3833

>  <SCORE.INTRA.VDW>
2.59509

>  <SCORE.INTRA.VDW.0>
-4.63762

>  <SCORE.INTRA.norm>
-0.079868

>  <SCORE.RESTR>
0

>  <SCORE.RESTR.CAVITY>
0

>  <SCORE.RESTR.norm>
0

>  <SCORE.SYSTEM>
0

>  <SCORE.SYSTEM.CONST>
0

>  <SCORE.SYSTEM.DIHEDRAL>
0

>  <SCORE.SYSTEM.SOLV>
0

>  <SCORE.SYSTEM.norm>
0

>  <SCORE.heavy>
31

>  <SCORE.norm>
-0.16293

>  <RMSD>
8.255

$$$$
ligand
 OpenBabel11021811473D
libRbt.so/2013.1/901 2013/11/27
 31 33  0  0  0  0  0  0  0  0999 V2000
   22.4168   -2.0568    8.1423 C   0  0  0  0  0  0  0  0  0  0  0  0
   15.7070    1.5960    7.2498 N   0  0  0  0  0  0  0  0  0  0  0  0
   21.5172   -1.5115    7.1716 O   0  0  0  0  0  0  0  0  0  0  0  0
   21.9795   -1.6526    9.5525 C   0  0  1  0  0  0  0  0  0  0  0  0
   16.9075    4.7299   10.8052 N   0  0  0  0  0  0  0  0  0  0  0  0
   21.8210   -0.2226    9.6326 O   0  0  0  0  0  0  0  0  0  0  0  0
   20.4974    0.0654   10.1173 C   0  0  1  0  0  0  0  0  0  0  0  0
   19.3128    7.0684   10.5569 N   0  0  0  0  0  0  0  0  0  0  0  0
   19.9753    1.2769    9.5492 O   0  0  0  0  0  0  0  0  0  0  0  0
   18.5706    1.4639    9.7774 C   0  0  2  0  0  0  0  0  0  0  0  0
   20.1184    1.6210   13.9544 N   0  0  0  0  0  0  0  0  0  0  0  0
   17.9953    0.0686    7.8894 O   0  0  0  0  0  0  0  0  0  0  0  0
   17.8745    1.3938    8.4133 C   0  0  1  0  0  0  0  0  0  0  0  0
   18.7573    2.8125   11.8335 O   0  0  0  0  0  0  0  0  0  0  0  0
   16.3924    1.7512    8.5419 C   0  0  1  0  0  0  0  0  0  0  0  0
   20.3091    4.5771   11.7054 O   0  0  0  0  0  0  0  0  0  0  0  0
   16.2657    3.1935    9.0331 C   0  0  0  0  0  0  0  0  0  0  0  0
   18.9522    6.2846   14.6583 O   0  0  0  0  0  0  0  0  0  0  0  0
   16.9108    3.3113   10.4172 C   0  0  1  0  0  0  0  0  0  0  0  0
   20.0737    3.8863   15.7786 O   0  0  0  0  0  0  0  0  0  0  0  0
   18.3622    2.8172   10.4504 C   0  0  2  0  0  0  0  0  0  0  0  0
   18.4435   -1.2780   10.3033 O   0  0  0  0  0  0  0  0  0  0  0  0
   20.1203    3.1976   12.0714 C   0  0  1  0  0  0  0  0  0  0  0  0
   20.5019   -2.6405   11.2544 O   0  0  0  0  0  0  0  0  0  0  0  0
   19.4839    5.4997   12.4370 C   0  0  2  0  0  0  0  0  0  0  0  0
   19.7676    6.9222   11.9488 C   0  0  0  0  0  0  0  0  0  0  0  0
   19.8183    5.4125   13.9272 C   0  0  2  0  0  0  0  0  0  0  0  0
   19.6261    3.9774   14.4219 C   0  0  1  0  0  0  0  0  0  0  0  0
   20.4319    3.0027   13.5590 C   0  0  1  0  0  0  0  0  0  0  0  0
   19.6718   -1.1072    9.5921 C   0  0  2  0  0  0  0  0  0  0  0  0
   20.6167   -2.2705    9.8780 C   0  0  1  0  0  0  0  0  0  0  0  0
  1  3  1  0  0  0  0
  4  1  1  6  0  0  0
  4  6  1  0  0  0  0
  4 31  1  0  0  0  0
  6  7  1  0  0  0  0
  7  9  1  6  0  0  0
  7 30  1  0  0  0  0
  8 26  1  0  0  0  0
 10  9  1  6  0  0  0
 10 13  1  0  0  0  0
 10 21  1  0  0  0  0
 13 12  1  1  0  0  0
 13 15  1  0  0  0  0
 15  2  1  6  0  0  0
 15 17  1  0  0  0  0
 16 25  1  0  0  0  0
 16 23  1  0  0  0  0
 17 19  1  0  0  0  0
 19  5  1  6  0  0  0
 19 21  1  0  0  0  0
 21 14  1  1  0  0  0
 23 14  1  1  0  0  0
 23 29  1  0  0  0  0
 25 26  1  6  0  0  0
 25 27  1  0  0  0  0
 27 18  1  1  0  0  0
 27 28  1  0  0  0  0
 28 20  1  1  0  0  0
 28 29  1  0  0  0  0
 29 11  1  1  0  0  0
 30 22  1  1  0  0  0
 30 31  1  0  0  0  0
 31 24  1  1  0  0  0
M  END
>  <CHROM.1>
-53.16493338,167.74854291,-114.24035675,65.53700800,91.39620277,66.79129956
19.35245753,2.00997376,10.79787981,-1.40350424,-0.76776358,0.69679545

>  <Name>
ligand

>  <RI>
0

>  <Rbt.Current_Directory>
/home/itssahil/PROJECTS/Mol_Feturizer/New_Systems/rnas/3DVV

>  <Rbt.Executable>
rbdock ($Id: //depot/dev/client3/rdock/2013.1/src/exe/rbdock.cxx#4 $)

>  <Rbt.Library>
libRbt.so (2013.1, Build901 2013/11/27)

>  <Rbt.Parameter_File>
/export/apps/rDock/src/rDock_2013.1_src/data/scripts/dock_solv.prm

>  <Rbt.Receptor>
prm/blind_docking_60.prm

>  <SCORE>
8.06756

>  <SCORE.INTER>
4.82909

>  <SCORE.INTER.CONST>
1

>  <SCORE.INTER.POLAR>
0

>  <SCORE.INTER.ROT>
6

>  <SCORE.INTER.SOLV>
25.9911

>  <SCORE.INTER.VDW>
-13.0443

>  <SCORE.INTER.norm>
0.155777

>  <SCORE.INTRA>
3.2263

>  <SCORE.INTRA.DIHEDRAL>
1.41967

>  <SCORE.INTRA.DIHEDRAL.0>
10.8172

>  <SCORE.INTRA.POLAR>
0

>  <SCORE.INTRA.POLAR.0>
0

>  <SCORE.INTRA.REPUL>
0.00411436

>  <SCORE.INTRA.REPUL.0>
0

>  <SCORE.INTRA.SOLV>
0.225026

>  <SCORE.INTRA.SOLV.lig_0>
-80.3833

>  <SCORE.INTRA.VDW>
2.38338

>  <SCORE.INTRA.VDW.0>
-4.63762

>  <SCORE.INTRA.norm>
0.104074

>  <SCORE.RESTR>
0.0121733

>  <SCORE.RESTR.CAVITY>
0.0121733

>  <SCORE.RESTR.norm>
0.000392686

>  <SCORE.SYSTEM>
0

>  <SCORE.SYSTEM.CONST>
0

>  <SCORE.SYSTEM.DIHEDRAL>
0

>  <SCORE.SYSTEM.SOLV>
0

>  <SCORE.SYSTEM.norm>
0

>  <SCORE.heavy>
31

>  <SCORE.norm>
0.260244

>  <RMSD>
8.265

$$$$
ligand
 OpenBabel11021811473D
libRbt.so/2013.1/901 2013/11/27
 31 33  0  0  0  0  0  0  0  0999 V2000
   19.4154    5.0817   12.9809 C   0  0  0  0  0  0  0  0  0  0  0  0
   16.0309    3.8832    9.2667 N   0  0  0  0  0  0  0  0  0  0  0  0
   19.8827    6.0185   13.9571 O   0  0  0  0  0  0  0  0  0  0  0  0
   19.0166    3.7683   13.6585 C   0  0  1  0  0  0  0  0  0  0  0  0
   14.5971    0.3020   12.2705 N   0  0  0  0  0  0  0  0  0  0  0  0
   18.4535    2.8612   12.6908 O   0  0  0  0  0  0  0  0  0  0  0  0
   19.1798    1.6207   12.7484 C   0  0  1  0  0  0  0  0  0  0  0  0
   21.2844   -2.1133    9.2888 N   0  0  0  0  0  0  0  0  0  0  0  0
   19.2635    0.9933   11.4591 O   0  0  0  0  0  0  0  0  0  0  0  0
   18.0191    0.9727   10.7443 C   0  0  2  0  0  0  0  0  0  0  0  0
   15.8344   -3.5013   11.3729 N   0  0  0  0  0  0  0  0  0  0  0  0
   18.6661    2.8748    9.4003 O   0  0  0  0  0  0  0  0  0  0  0  0
   17.6974    2.4185   10.3485 C   0  0  1  0  0  0  0  0  0  0  0  0
   17.0736   -1.0421   11.8061 O   0  0  0  0  0  0  0  0  0  0  0  0
   16.3021    2.5131    9.7280 C   0  0  1  0  0  0  0  0  0  0  0  0
   18.7317   -1.4877   10.1967 O   0  0  0  0  0  0  0  0  0  0  0  0
   15.2622    2.0940   10.7674 C   0  0  0  0  0  0  0  0  0  0  0  0
   20.5753   -3.7732   12.3998 O   0  0  0  0  0  0  0  0  0  0  0  0
   15.5123    0.6374   11.1691 C   0  0  1  0  0  0  0  0  0  0  0  0
   18.1297   -5.2042   11.9138 O   0  0  0  0  0  0  0  0  0  0  0  0
   16.9450    0.3822   11.6528 C   0  0  2  0  0  0  0  0  0  0  0  0
   21.3547    0.9867   13.7105 O   0  0  0  0  0  0  0  0  0  0  0  0
   17.3740   -1.7532   10.5949 C   0  0  1  0  0  0  0  0  0  0  0  0
   19.9681    2.3973   15.4670 O   0  0  0  0  0  0  0  0  0  0  0  0
   19.7185   -1.8827   11.1649 C   0  0  2  0  0  0  0  0  0  0  0  0
   21.1109   -1.5372   10.6318 C   0  0  0  0  0  0  0  0  0  0  0  0
   19.6363   -3.3936   11.3903 C   0  0  2  0  0  0  0  0  0  0  0  0
   18.2256   -3.7777   11.8413 C   0  0  1  0  0  0  0  0  0  0  0  0
   17.1857   -3.2527   10.8478 C   0  0  1  0  0  0  0  0  0  0  0  0
   20.5832    2.0582   13.1627 C   0  0  2  0  0  0  0  0  0  0  0  0
   20.2537    3.0821   14.2448 C   0  0  1  0  0  0  0  0  0  0  0  0
  1  3  1  0  0  0  0
  4  1  1  6  0  0  0
  4  6  1  0  0  0  0
  4 31  1  0  0  0  0
  6  7  1  0  0  0  0
  7  9  1  6  0  0  0
  7 30  1  0  0  0  0
  8 26  1  0  0  0  0
 10  9  1  1  0  0  0
 10 13  1  0  0  0  0
 10 21  1  0  0  0  0
 13 12  1  6  0  0  0
 13 15  1  0  0  0  0
 15  2  1  1  0  0  0
 15 17  1  0  0  0  0
 16 25  1  0  0  0  0
 16 23  1  0  0  0  0
 17 19  1  0  0  0  0
 19  5  1  1  0  0  0
 19 21  1  0  0  0  0
 21 14  1  6  0  0  0
 23 14  1  1  0  0  0
 23 29  1  0  0  0  0
 25 26  1  6  0  0  0
 25 27  1  0  0  0  0
 27 18  1  1  0  0  0
 27 28  1  0  0  0  0
 28 20  1  6  0  0  0
 28 29  1  0  0  0  0
 29 11  1  1  0  0  0
 30 22  1  1  0  0  0
 30 31  1  0  0  0  0
 31 24  1  1  0  0  0
M  END
>  <CHROM.1>
175.73706871,-45.64760191,69.08429925,71.57460424,-42.44953634,-52.91086688
18.46915729,0.40247928,11.73387195,-1.50418781,0.50966483,-2.96284037

>  <Name>
ligand

>  <RI>
0

>  <Rbt.Current_Directory>
/home/itssahil/PROJECTS/Mol_Feturizer/New_Systems/rnas/3DVV

>  <Rbt.Executable>
rbdock ($Id: //depot/dev/client3/rdock/2013.1/src/exe/rbdock.cxx#4 $)

>  <Rbt.Library>
libRbt.so (2013.1, Build901 2013/11/27)

>  <Rbt.Parameter_File>
/export/apps/rDock/src/rDock_2013.1_src/data/scripts/dock_solv.prm

>  <Rbt.Receptor>
prm/blind_docking_100.prm

>  <SCORE>
11.3255

>  <SCORE.INTER>
9.14269

>  <SCORE.INTER.CONST>
1

>  <SCORE.INTER.POLAR>
0

>  <SCORE.INTER.ROT>
6

>  <SCORE.INTER.SOLV>
27.2827

>  <SCORE.INTER.VDW>
-10.5991

>  <SCORE.INTER.norm>
0.294925

>  <SCORE.INTRA>
2.18281

>  <SCORE.INTRA.DIHEDRAL>
-6.95517

>  <SCORE.INTRA.DIHEDRAL.0>
10.8172

>  <SCORE.INTRA.POLAR>
0

>  <SCORE.INTRA.POLAR.0>
0

>  <SCORE.INTRA.REPUL>
0

>  <SCORE.INTRA.REPUL.0>
0

>  <SCORE.INTRA.SOLV>
-1.86092

>  <SCORE.INTRA.SOLV.lig_0>
-80.3833

>  <SCORE.INTRA.VDW>
6.59085

>  <SCORE.INTRA.VDW.0>
-4.63762

>  <SCORE.INTRA.norm>
0.0704133

>  <SCORE.RESTR>
0

>  <SCORE.RESTR.CAVITY>
0

>  <SCORE.RESTR.norm>
0

>  <SCORE.SYSTEM>
0

>  <SCORE.SYSTEM.CONST>
0

>  <SCORE.SYSTEM.DIHEDRAL>
0

>  <SCORE.SYSTEM.SOLV>
0

>  <SCORE.SYSTEM.norm>
0

>  <SCORE.heavy>
31

>  <SCORE.norm>
0.365339

>  <RMSD>
8.272

$$$$
ligand
 OpenBabel11021811473D
libRbt.so/2013.1/901 2013/11/27
 31 33  0  0  0  0  0  0  0  0999 V2000
   14.0062    4.8048   11.2073 C   0  0  0  0  0  0  0  0  0  0  0  0
   21.3335    2.4419   15.0309 N   0  0  0  0  0  0  0  0  0  0  0  0
   14.6437    4.4723    9.9697 O   0  0  0  0  0  0  0  0  0  0  0  0
   15.0394    4.8574   12.3356 C   0  0  1  0  0  0  0  0  0  0  0  0
   20.4316   -1.4266   12.1806 N   0  0  0  0  0  0  0  0  0  0  0  0
   15.5857    3.5449   12.5704 O   0  0  0  0  0  0  0  0  0  0  0  0
   17.0192    3.6214   12.4759 C   0  0  1  0  0  0  0  0  0  0  0  0
   21.2402   -1.3738    9.3376 N   0  0  0  0  0  0  0  0  0  0  0  0
   17.5822    2.4122   11.9431 O   0  0  0  0  0  0  0  0  0  0  0  0
   18.2570    1.6083   12.9221 C   0  0  2  0  0  0  0  0  0  0  0  0
   15.1373   -1.4724   11.3358 N   0  0  0  0  0  0  0  0  0  0  0  0
   18.8677    3.5548   14.2185 O   0  0  0  0  0  0  0  0  0  0  0  0
   19.4068    2.4498   13.4880 C   0  0  1  0  0  0  0  0  0  0  0  0
   17.7085   -0.5950   11.9599 O   0  0  0  0  0  0  0  0  0  0  0  0
   20.2852    1.6114   14.4188 C   0  0  1  0  0  0  0  0  0  0  0  0
   18.4819   -1.0094    9.7762 O   0  0  0  0  0  0  0  0  0  0  0  0
   20.9183    0.4726   13.6190 C   0  0  0  0  0  0  0  0  0  0  0  0
   18.6698   -4.6396   10.2893 O   0  0  0  0  0  0  0  0  0  0  0  0
   19.8107   -0.4272   13.0631 C   0  0  1  0  0  0  0  0  0  0  0  0
   15.8418   -4.1345   10.3988 O   0  0  0  0  0  0  0  0  0  0  0  0
   18.7647    0.3391   12.2444 C   0  0  2  0  0  0  0  0  0  0  0  0
   18.5572    5.2976   11.5364 O   0  0  0  0  0  0  0  0  0  0  0  0
   17.3325   -0.6753   10.5761 C   0  0  1  0  0  0  0  0  0  0  0  0
   16.7406    6.4868   13.0476 O   0  0  0  0  0  0  0  0  0  0  0  0
   19.0900   -2.2677   10.1142 C   0  0  2  0  0  0  0  0  0  0  0  0
   20.3009   -2.4992    9.2072 C   0  0  0  0  0  0  0  0  0  0  0  0
   18.0829   -3.3975    9.8921 C   0  0  2  0  0  0  0  0  0  0  0  0
   16.8234   -3.1443   10.7233 C   0  0  1  0  0  0  0  0  0  0  0  0
   16.2557   -1.7546   10.4229 C   0  0  1  0  0  0  0  0  0  0  0  0
   17.2418    4.7427   11.4632 C   0  0  2  0  0  0  0  0  0  0  0  0
   16.2090    5.7615   11.9360 C   0  0  1  0  0  0  0  0  0  0  0  0
  1  3  1  0  0  0  0
  4  1  1  6  0  0  0
  4  6  1  0  0  0  0
  4 31  1  0  0  0  0
  6  7  1  0  0  0  0
  7  9  1  6  0  0  0
  7 30  1  0  0  0  0
  8 26  1  0  0  0  0
 10  9  1  6  0  0  0
 10 13  1  0  0  0  0
 10 21  1  0  0  0  0
 13 12  1  1  0  0  0
 13 15  1  0  0  0  0
 15  2  1  6  0  0  0
 15 17  1  0  0  0  0
 16 25  1  0  0  0  0
 16 23  1  0  0  0  0
 17 19  1  0  0  0  0
 19  5  1  6  0  0  0
 19 21  1  0  0  0  0
 21 14  1  1  0  0  0
 23 14  1  1  0  0  0
 23 29  1  0  0  0  0
 25 26  1  6  0  0  0
 25 27  1  0  0  0  0
 27 18  1  1  0  0  0
 27 28  1  0  0  0  0
 28 20  1  6  0  0  0
 28 29  1  0  0  0  0
 29 11  1  1  0  0  0
 30 22  1  1  0  0  0
 30 31  1  0  0  0  0
 31 24  1  1  0  0  0
M  END
>  <CHROM.1>
-66.00389206,-106.73642691,-60.92603114,56.79315350,105.67432585,56.66981246
17.89800570,0.98334967,11.72094842,1.81588655,-0.44275782,0.35223440

>  <Name>
ligand

>  <RI>
0

>  <Rbt.Current_Directory>
/home/itssahil/PROJECTS/Mol_Feturizer/New_Systems/rnas/3DVV

>  <Rbt.Executable>
rbdock ($Id: //depot/dev/client3/rdock/2013.1/src/exe/rbdock.cxx#4 $)

>  <Rbt.Library>
libRbt.so (2013.1, Build901 2013/11/27)

>  <Rbt.Parameter_File>
/export/apps/rDock/src/rDock_2013.1_src/data/scripts/dock_solv.prm

>  <Rbt.Receptor>
prm/blind_docking_80.prm

>  <SCORE>
12.7501

>  <SCORE.INTER>
5.72951

>  <SCORE.INTER.CONST>
1

>  <SCORE.INTER.POLAR>
0

>  <SCORE.INTER.ROT>
6

>  <SCORE.INTER.SOLV>
19.1419

>  <SCORE.INTER.VDW>
-10.161

>  <SCORE.INTER.norm>
0.184823

>  <SCORE.INTRA>
6.3647

>  <SCORE.INTRA.DIHEDRAL>
1.82586

>  <SCORE.INTRA.DIHEDRAL.0>
10.8172

>  <SCORE.INTRA.POLAR>
0

>  <SCORE.INTRA.POLAR.0>
0

>  <SCORE.INTRA.REPUL>
0

>  <SCORE.INTRA.REPUL.0>
0

>  <SCORE.INTRA.SOLV>
1.87732

>  <SCORE.INTRA.SOLV.lig_0>
-80.3833

>  <SCORE.INTRA.VDW>
4.5131

>  <SCORE.INTRA.VDW.0>
-4.63762

>  <SCORE.INTRA.norm>
0.205313

>  <SCORE.RESTR>
0.655941

>  <SCORE.RESTR.CAVITY>
0.655941

>  <SCORE.RESTR.norm>
0.0211594

>  <SCORE.SYSTEM>
0

>  <SCORE.SYSTEM.CONST>
0

>  <SCORE.SYSTEM.DIHEDRAL>
0

>  <SCORE.SYSTEM.SOLV>
0

>  <SCORE.SYSTEM.norm>
0

>  <SCORE.heavy>
31

>  <SCORE.norm>
0.411295

>  <RMSD>
8.277

$$$$
ligand
 OpenBabel11021811473D
libRbt.so/2013.1/901 2013/11/27
 31 33  0  0  0  0  0  0  0  0999 V2000
   14.7468    3.0207   20.5748 C   0  0  0  0  0  0  0  0  0  0  0  0
   20.0341    7.2773   16.2817 N   0  0  0  0  0  0  0  0  0  0  0  0
   13.9701    3.1602   19.3807 O   0  0  0  0  0  0  0  0  0  0  0  0
   16.2398    3.0300   20.2372 C   0  0  1  0  0  0  0  0  0  0  0  0
   17.0999   10.5932   18.3550 N   0  0  0  0  0  0  0  0  0  0  0  0
   16.6036    4.2844   19.6285 O   0  0  0  0  0  0  0  0  0  0  0  0
   17.6921    4.8573   20.3746 C   0  0  1  0  0  0  0  0  0  0  0  0
   14.1940   11.3691   16.6076 N   0  0  0  0  0  0  0  0  0  0  0  0
   17.6305    6.2923   20.3878 O   0  0  0  0  0  0  0  0  0  0  0  0
   17.4692    6.8760   19.0865 C   0  0  2  0  0  0  0  0  0  0  0  0
   14.8785    8.5054   22.3403 N   0  0  0  0  0  0  0  0  0  0  0  0
   19.0761    5.3539   18.1151 O   0  0  0  0  0  0  0  0  0  0  0  0
   18.8102    6.7382   18.3563 C   0  0  1  0  0  0  0  0  0  0  0  0
   15.6964    8.4857   19.6755 O   0  0  0  0  0  0  0  0  0  0  0  0
   18.7799    7.4852   17.0214 C   0  0  1  0  0  0  0  0  0  0  0  0
   14.8437   10.6466   19.2995 O   0  0  0  0  0  0  0  0  0  0  0  0
   18.5680    8.9759   17.2863 C   0  0  0  0  0  0  0  0  0  0  0  0
   11.3637    9.4896   19.1337 O   0  0  0  0  0  0  0  0  0  0  0  0
   17.2173    9.1758   17.9801 C   0  0  1  0  0  0  0  0  0  0  0  0
   12.0521    9.0205   21.8852 O   0  0  0  0  0  0  0  0  0  0  0  0
   17.0638    8.3372   19.2548 C   0  0  2  0  0  0  0  0  0  0  0  0
   18.6147    4.4160   22.6134 O   0  0  0  0  0  0  0  0  0  0  0  0
   15.3879    9.7491   20.2848 C   0  0  1  0  0  0  0  0  0  0  0  0
   18.2625    2.1369   21.3175 O   0  0  0  0  0  0  0  0  0  0  0  0
   13.6336   10.1787   18.6799 C   0  0  2  0  0  0  0  0  0  0  0  0
   13.1668   11.2095   17.6492 C   0  0  0  0  0  0  0  0  0  0  0  0
   12.5459   10.0152   19.7431 C   0  0  2  0  0  0  0  0  0  0  0  0
   13.0230    9.0541   20.8338 C   0  0  1  0  0  0  0  0  0  0  0  0
   14.3665    9.5172   21.4033 C   0  0  1  0  0  0  0  0  0  0  0  0
   17.4447    4.3521   21.7945 C   0  0  2  0  0  0  0  0  0  0  0  0
   17.0695    2.8993   21.5176 C   0  0  1  0  0  0  0  0  0  0  0  0
  1  3  1  0  0  0  0
  4  1  1  1  0  0  0
  4  6  1  0  0  0  0
  4 31  1  0  0  0  0
  6  7  1  0  0  0  0
  7  9  1  1  0  0  0
  7 30  1  0  0  0  0
  8 26  1  0  0  0  0
 10  9  1  1  0  0  0
 10 13  1  0  0  0  0
 10 21  1  0  0  0  0
 13 12  1  6  0  0  0
 13 15  1  0  0  0  0
 15  2  1  1  0  0  0
 15 17  1  0  0  0  0
 16 25  1  0  0  0  0
 16 23  1  0  0  0  0
 17 19  1  0  0  0  0
 19  5  1  1  0  0  0
 19 21  1  0  0  0  0
 21 14  1  6  0  0  0
 23 14  1  6  0  0  0
 23 29  1  0  0  0  0
 25 26  1  6  0  0  0
 25 27  1  0  0  0  0
 27 18  1  6  0  0  0
 27 28  1  0  0  0  0
 28 20  1  1  0  0  0
 28 29  1  0  0  0  0
 29 11  1  1  0  0  0
 30 22  1  1  0  0  0
 30 31  1  0  0  0  0
 31 24  1  6  0  0  0
M  END
>  <CHROM.1>
61.60671378,-50.37017113,-73.29177692,95.46442919,159.54210889,61.23102892
16.03437879,7.26238858,19.60367962,0.97013198,-0.46942740,2.64132990

>  <Name>
ligand

>  <RI>
0

>  <Rbt.Current_Directory>
/home/itssahil/PROJECTS/Mol_Feturizer/New_Systems/rnas/3DVV

>  <Rbt.Executable>
rbdock ($Id: //depot/dev/client3/rdock/2013.1/src/exe/rbdock.cxx#4 $)

>  <Rbt.Library>
libRbt.so (2013.1, Build901 2013/11/27)

>  <Rbt.Parameter_File>
/export/apps/rDock/src/rDock_2013.1_src/data/scripts/dock_solv.prm

>  <Rbt.Receptor>
prm/pocket_docking_8.prm

>  <SCORE>
-2.60162

>  <SCORE.INTER>
-5.09331

>  <SCORE.INTER.CONST>
1

>  <SCORE.INTER.POLAR>
0

>  <SCORE.INTER.ROT>
6

>  <SCORE.INTER.SOLV>
12.95

>  <SCORE.INTER.VDW>
-15.3122

>  <SCORE.INTER.norm>
-0.1643

>  <SCORE.INTRA>
2.49169

>  <SCORE.INTRA.DIHEDRAL>
-2.82168

>  <SCORE.INTRA.DIHEDRAL.0>
10.8172

>  <SCORE.INTRA.POLAR>
0

>  <SCORE.INTRA.POLAR.0>
0

>  <SCORE.INTRA.REPUL>
0

>  <SCORE.INTRA.REPUL.0>
0

>  <SCORE.INTRA.SOLV>
-0.186096

>  <SCORE.INTRA.SOLV.lig_0>
-80.3833

>  <SCORE.INTRA.VDW>
3.99557

>  <SCORE.INTRA.VDW.0>
-4.63762

>  <SCORE.INTRA.norm>
0.080377

>  <SCORE.RESTR>
0

>  <SCORE.RESTR.CAVITY>
0

>  <SCORE.RESTR.norm>
0

>  <SCORE.SYSTEM>
0

>  <SCORE.SYSTEM.CONST>
0

>  <SCORE.SYSTEM.DIHEDRAL>
0

>  <SCORE.SYSTEM.SOLV>
0

>  <SCORE.SYSTEM.norm>
0

>  <SCORE.heavy>
31

>  <SCORE.norm>
-0.0839232

>  <RMSD>
8.279

$$$$
ligand
 OpenBabel11021811473D
libRbt.so/2013.1/901 2013/11/27
 31 33  0  0  0  0  0  0  0  0999 V2000
   12.6287    4.0840   13.7814 C   0  0  0  0  0  0  0  0  0  0  0  0
   19.1382    9.2292   16.3200 N   0  0  0  0  0  0  0  0  0  0  0  0
   11.6479    4.9105   14.4168 O   0  0  0  0  0  0  0  0  0  0  0  0
   13.8032    4.9374   13.2959 C   0  0  1  0  0  0  0  0  0  0  0  0
   16.7970    7.2578   20.1325 N   0  0  0  0  0  0  0  0  0  0  0  0
   14.3951    5.6438   14.4036 O   0  0  0  0  0  0  0  0  0  0  0  0
   15.8017    5.3439   14.4395 C   0  0  1  0  0  0  0  0  0  0  0  0
   11.0623    6.5914   20.5567 N   0  0  0  0  0  0  0  0  0  0  0  0
   16.3056    5.3180   15.7842 O   0  0  0  0  0  0  0  0  0  0  0  0
   16.3564    6.6099   16.4076 C   0  0  2  0  0  0  0  0  0  0  0  0
   16.2456    3.6569   18.1056 N   0  0  0  0  0  0  0  0  0  0  0  0
   17.6865    7.5175   14.6049 O   0  0  0  0  0  0  0  0  0  0  0  0
   17.6895    7.2548   16.0107 C   0  0  1  0  0  0  0  0  0  0  0  0
   14.9085    6.0920   18.3353 O   0  0  0  0  0  0  0  0  0  0  0  0
   17.9035    8.5671   16.7677 C   0  0  1  0  0  0  0  0  0  0  0  0
   13.5622    5.2945   20.0930 O   0  0  0  0  0  0  0  0  0  0  0  0
   17.9790    8.2743   18.2664 C   0  0  0  0  0  0  0  0  0  0  0  0
   11.4038    3.3424   17.8553 O   0  0  0  0  0  0  0  0  0  0  0  0
   16.6516    7.6645   18.7266 C   0  0  1  0  0  0  0  0  0  0  0  0
   13.9206    1.9669   17.6596 O   0  0  0  0  0  0  0  0  0  0  0  0
   16.2436    6.4269   17.9181 C   0  0  2  0  0  0  0  0  0  0  0  0
   17.1751    3.5858   13.3998 O   0  0  0  0  0  0  0  0  0  0  0  0
   14.8346    5.1674   19.4318 C   0  0  1  0  0  0  0  0  0  0  0  0
   15.5606    4.6538   11.5968 O   0  0  0  0  0  0  0  0  0  0  0  0
   12.4294    5.0276   19.2487 C   0  0  2  0  0  0  0  0  0  0  0  0
   11.1448    5.2082   20.0609 C   0  0  0  0  0  0  0  0  0  0  0  0
   12.4970    3.5847   18.7449 C   0  0  2  0  0  0  0  0  0  0  0  0
   13.8145    3.3527   18.0024 C   0  0  1  0  0  0  0  0  0  0  0  0
   15.0017    3.7455   18.8856 C   0  0  1  0  0  0  0  0  0  0  0  0
   15.8700    3.9273   13.8727 C   0  0  2  0  0  0  0  0  0  0  0  0
   14.8952    4.0416   12.7045 C   0  0  1  0  0  0  0  0  0  0  0  0
  1  3  1  0  0  0  0
  4  1  1  1  0  0  0
  4  6  1  0  0  0  0
  4 31  1  0  0  0  0
  6  7  1  0  0  0  0
  7  9  1  1  0  0  0
  7 30  1  0  0  0  0
  8 26  1  0  0  0  0
 10  9  1  6  0  0  0
 10 13  1  0  0  0  0
 10 21  1  0  0  0  0
 13 12  1  6  0  0  0
 13 15  1  0  0  0  0
 15  2  1  6  0  0  0
 15 17  1  0  0  0  0
 16 25  1  0  0  0  0
 16 23  1  0  0  0  0
 17 19  1  0  0  0  0
 19  5  1  1  0  0  0
 19 21  1  0  0  0  0
 21 14  1  6  0  0  0
 23 14  1  6  0  0  0
 23 29  1  0  0  0  0
 25 26  1  1  0  0  0
 25 27  1  0  0  0  0
 27 18  1  6  0  0  0
 27 28  1  0  0  0  0
 28 20  1  1  0  0  0
 28 29  1  0  0  0  0
 29 11  1  6  0  0  0
 30 22  1  6  0  0  0
 30 31  1  0  0  0  0
 31 24  1  6  0  0  0
M  END
>  <CHROM.1>
58.41374063,-69.96497456,-85.76835476,157.83376947,143.73885759,60.46461164
14.98705109,5.40219960,16.72628908,0.73789831,-0.60224812,-1.87589253

>  <Name>
ligand

>  <RI>
0

>  <Rbt.Current_Directory>
/home/itssahil/PROJECTS/Mol_Feturizer/New_Systems/rnas/3DVV

>  <Rbt.Executable>
rbdock ($Id: //depot/dev/client3/rdock/2013.1/src/exe/rbdock.cxx#4 $)

>  <Rbt.Library>
libRbt.so (2013.1, Build901 2013/11/27)

>  <Rbt.Parameter_File>
/export/apps/rDock/src/rDock_2013.1_src/data/scripts/dock_solv.prm

>  <Rbt.Receptor>
prm/pocket_docking_6.prm

>  <SCORE>
-0.82669

>  <SCORE.INTER>
-1.86447

>  <SCORE.INTER.CONST>
1

>  <SCORE.INTER.POLAR>
0

>  <SCORE.INTER.ROT>
6

>  <SCORE.INTER.SOLV>
10.2702

>  <SCORE.INTER.VDW>
-12.2664

>  <SCORE.INTER.norm>
-0.0601443

>  <SCORE.INTRA>
1.03778

>  <SCORE.INTRA.DIHEDRAL>
-0.474412

>  <SCORE.INTRA.DIHEDRAL.0>
10.8172

>  <SCORE.INTRA.POLAR>
0

>  <SCORE.INTRA.POLAR.0>
0

>  <SCORE.INTRA.REPUL>
0

>  <SCORE.INTRA.REPUL.0>
0

>  <SCORE.INTRA.SOLV>
-0.477316

>  <SCORE.INTRA.SOLV.lig_0>
-80.3833

>  <SCORE.INTRA.VDW>
1.51365

>  <SCORE.INTRA.VDW.0>
-4.63762

>  <SCORE.INTRA.norm>
0.0334769

>  <SCORE.RESTR>
0

>  <SCORE.RESTR.CAVITY>
0

>  <SCORE.RESTR.norm>
0

>  <SCORE.SYSTEM>
0

>  <SCORE.SYSTEM.CONST>
0

>  <SCORE.SYSTEM.DIHEDRAL>
0

>  <SCORE.SYSTEM.SOLV>
0

>  <SCORE.SYSTEM.norm>
0

>  <SCORE.heavy>
31

>  <SCORE.norm>
-0.0266674

>  <RMSD>
8.287

$$$$
ligand
 OpenBabel11021811473D
libRbt.so/2013.1/901 2013/11/27
 31 33  0  0  0  0  0  0  0  0999 V2000
   28.0176    7.3192   12.7630 C   0  0  0  0  0  0  0  0  0  0  0  0
   20.5484    7.3360   16.0649 N   0  0  0  0  0  0  0  0  0  0  0  0
   27.3268    6.7282   11.6575 O   0  0  0  0  0  0  0  0  0  0  0  0
   27.0907    8.2806   13.5112 C   0  0  1  0  0  0  0  0  0  0  0  0
   22.4884    2.8875   16.6570 N   0  0  0  0  0  0  0  0  0  0  0  0
   25.9565    7.5663   14.0402 O   0  0  0  0  0  0  0  0  0  0  0  0
   25.8735    7.8201   15.4538 C   0  0  1  0  0  0  0  0  0  0  0  0
   27.9744    1.8963   18.9576 N   0  0  0  0  0  0  0  0  0  0  0  0
   25.3621    6.6843   16.1688 O   0  0  0  0  0  0  0  0  0  0  0  0
   24.1526    6.1478   15.6127 C   0  0  2  0  0  0  0  0  0  0  0  0
   26.7774    3.7234   13.3710 N   0  0  0  0  0  0  0  0  0  0  0  0
   23.1316    8.3364   15.5126 O   0  0  0  0  0  0  0  0  0  0  0  0
   22.9982    7.0356   16.0918 C   0  0  1  0  0  0  0  0  0  0  0  0
   24.8975    3.8043   15.4278 O   0  0  0  0  0  0  0  0  0  0  0  0
   21.6498    6.4387   15.6840 C   0  0  1  0  0  0  0  0  0  0  0  0
   26.5428    3.4502   17.0727 O   0  0  0  0  0  0  0  0  0  0  0  0
   21.4778    5.0796   16.3628 C   0  0  0  0  0  0  0  0  0  0  0  0
   26.8394   -0.1320   16.3268 O   0  0  0  0  0  0  0  0  0  0  0  0
   22.5857    4.1360   15.8855 C   0  0  1  0  0  0  0  0  0  0  0  0
   27.8827    1.0949   13.9454 O   0  0  0  0  0  0  0  0  0  0  0  0
   23.9942    4.7071   16.0894 C   0  0  2  0  0  0  0  0  0  0  0  0
   27.4681    8.7193   17.0990 O   0  0  0  0  0  0  0  0  0  0  0  0
   26.2824    3.9860   15.7622 C   0  0  1  0  0  0  0  0  0  0  0  0
   27.4358   10.2520   14.9432 O   0  0  0  0  0  0  0  0  0  0  0  0
   26.2662    2.0451   17.2012 C   0  0  2  0  0  0  0  0  0  0  0  0
   26.5688    1.6034   18.6350 C   0  0  0  0  0  0  0  0  0  0  0  0
   27.1617    1.2587   16.2422 C   0  0  2  0  0  0  0  0  0  0  0  0
   26.9414    1.7428   14.8075 C   0  0  1  0  0  0  0  0  0  0  0  0
   27.1376    3.2586   14.7193 C   0  0  1  0  0  0  0  0  0  0  0  0
   27.3324    8.0253   15.8567 C   0  0  2  0  0  0  0  0  0  0  0  0
   27.8250    8.8969   14.7053 C   0  0  1  0  0  0  0  0  0  0  0  0
  1  3  1  0  0  0  0
  4  1  1  1  0  0  0
  4  6  1  0  0  0  0
  4 31  1  0  0  0  0
  6  7  1  0  0  0  0
  7  9  1  1  0  0  0
  7 30  1  0  0  0  0
  8 26  1  0  0  0  0
 10  9  1  1  0  0  0
 10 13  1  0  0  0  0
 10 21  1  0  0  0  0
 13 12  1  6  0  0  0
 13 15  1  0  0  0  0
 15  2  1  1  0  0  0
 15 17  1  0  0  0  0
 16 25  1  0  0  0  0
 16 23  1  0  0  0  0
 17 19  1  0  0  0  0
 19  5  1  1  0  0  0
 19 21  1  0  0  0  0
 21 14  1  6  0  0  0
 23 14  1  6  0  0  0
 23 29  1  0  0  0  0
 25 26  1  1  0  0  0
 25 27  1  0  0  0  0
 27 18  1  6  0  0  0
 27 28  1  0  0  0  0
 28 20  1  6  0  0  0
 28 29  1  0  0  0  0
 29 11  1  6  0  0  0
 30 22  1  1  0  0  0
 30 31  1  0  0  0  0
 31 24  1  1  0  0  0
M  END
>  <CHROM.1>
61.55095793,-49.94654680,-79.85600212,75.50546606,68.47439701,-58.17555627
25.64575212,5.18403245,15.55364890,-1.71963697,-0.30630882,2.87271132

>  <Name>
ligand

>  <RI>
0

>  <Rbt.Current_Directory>
/home/itssahil/PROJECTS/Mol_Feturizer/New_Systems/rnas/3DVV

>  <Rbt.Executable>
rbdock ($Id: //depot/dev/client3/rdock/2013.1/src/exe/rbdock.cxx#4 $)

>  <Rbt.Library>
libRbt.so (2013.1, Build901 2013/11/27)

>  <Rbt.Parameter_File>
/export/apps/rDock/src/rDock_2013.1_src/data/scripts/dock_solv.prm

>  <Rbt.Receptor>
prm/pocket_docking_8.prm

>  <SCORE>
-11.0819

>  <SCORE.INTER>
-8.76141

>  <SCORE.INTER.CONST>
1

>  <SCORE.INTER.POLAR>
0

>  <SCORE.INTER.ROT>
6

>  <SCORE.INTER.SOLV>
22.3449

>  <SCORE.INTER.VDW>
-20.8892

>  <SCORE.INTER.norm>
-0.282626

>  <SCORE.INTRA>
-2.32046

>  <SCORE.INTRA.DIHEDRAL>
-6.81824

>  <SCORE.INTRA.DIHEDRAL.0>
10.8172

>  <SCORE.INTRA.POLAR>
0

>  <SCORE.INTRA.POLAR.0>
0

>  <SCORE.INTRA.REPUL>
0

>  <SCORE.INTRA.REPUL.0>
0

>  <SCORE.INTRA.SOLV>
-1.47815

>  <SCORE.INTRA.SOLV.lig_0>
-80.3833

>  <SCORE.INTRA.VDW>
1.82773

>  <SCORE.INTRA.VDW.0>
-4.63762

>  <SCORE.INTRA.norm>
-0.0748537

>  <SCORE.RESTR>
0

>  <SCORE.RESTR.CAVITY>
0

>  <SCORE.RESTR.norm>
0

>  <SCORE.SYSTEM>
0

>  <SCORE.SYSTEM.CONST>
0

>  <SCORE.SYSTEM.DIHEDRAL>
0

>  <SCORE.SYSTEM.SOLV>
0

>  <SCORE.SYSTEM.norm>
0

>  <SCORE.heavy>
31

>  <SCORE.norm>
-0.35748

>  <RMSD>
8.287

$$$$
ligand
 OpenBabel11021811473D
libRbt.so/2013.1/901 2013/11/27
 31 33  0  0  0  0  0  0  0  0999 V2000
   10.8508    7.3817   22.8530 C   0  0  0  0  0  0  0  0  0  0  0  0
   18.1397    9.5038   18.5411 N   0  0  0  0  0  0  0  0  0  0  0  0
   11.3252    8.5805   22.2312 O   0  0  0  0  0  0  0  0  0  0  0  0
   11.9636    6.3313   22.8914 C   0  0  1  0  0  0  0  0  0  0  0  0
   18.3068    4.6233   18.7792 N   0  0  0  0  0  0  0  0  0  0  0  0
   12.5309    6.1606   21.5778 O   0  0  0  0  0  0  0  0  0  0  0  0
   13.9534    6.3582   21.6636 C   0  0  1  0  0  0  0  0  0  0  0  0
   17.2328    1.8079   24.2396 N   0  0  0  0  0  0  0  0  0  0  0  0
   14.4807    6.9523   20.4670 O   0  0  0  0  0  0  0  0  0  0  0  0
   15.9119    7.0601   20.4573 C   0  0  2  0  0  0  0  0  0  0  0  0
   15.0099    4.0369   18.5991 N   0  0  0  0  0  0  0  0  0  0  0  0
   15.8108    9.4540   20.1387 O   0  0  0  0  0  0  0  0  0  0  0  0
   16.2736    8.2379   19.5450 C   0  0  1  0  0  0  0  0  0  0  0  0
   16.4143    4.6899   20.9168 O   0  0  0  0  0  0  0  0  0  0  0  0
   17.7877    8.3212   19.3418 C   0  0  1  0  0  0  0  0  0  0  0  0
   16.7738    2.4261   21.4499 O   0  0  0  0  0  0  0  0  0  0  0  0
   18.2697    7.0508   18.6411 C   0  0  0  0  0  0  0  0  0  0  0  0
   13.3384    1.9279   22.6442 O   0  0  0  0  0  0  0  0  0  0  0  0
   17.9697    5.8413   19.5316 C   0  0  1  0  0  0  0  0  0  0  0  0
   12.9673    2.3700   19.8279 O   0  0  0  0  0  0  0  0  0  0  0  0
   16.4960    5.7470   19.9448 C   0  0  2  0  0  0  0  0  0  0  0  0
   15.4116    7.3774   23.3644 O   0  0  0  0  0  0  0  0  0  0  0  0
   16.5621    3.3660   20.3801 C   0  0  1  0  0  0  0  0  0  0  0  0
   13.7057    5.7164   24.5170 O   0  0  0  0  0  0  0  0  0  0  0  0
   15.7010    2.3687   22.4054 C   0  0  2  0  0  0  0  0  0  0  0  0
   16.0512    1.3492   23.4919 C   0  0  0  0  0  0  0  0  0  0  0  0
   14.4164    1.9227   21.7046 C   0  0  2  0  0  0  0  0  0  0  0  0
   14.0905    2.8786   20.5552 C   0  0  1  0  0  0  0  0  0  0  0  0
   15.2878    3.0047   19.6095 C   0  0  1  0  0  0  0  0  0  0  0  0
   14.0967    7.3642   22.8038 C   0  0  2  0  0  0  0  0  0  0  0  0
   13.0971    6.7991   23.8085 C   0  0  1  0  0  0  0  0  0  0  0  0
  1  3  1  0  0  0  0
  4  1  1  6  0  0  0
  4  6  1  0  0  0  0
  4 31  1  0  0  0  0
  6  7  1  0  0  0  0
  7  9  1  6  0  0  0
  7 30  1  0  0  0  0
  8 26  1  0  0  0  0
 10  9  1  6  0  0  0
 10 13  1  0  0  0  0
 10 21  1  0  0  0  0
 13 12  1  1  0  0  0
 13 15  1  0  0  0  0
 15  2  1  6  0  0  0
 15 17  1  0  0  0  0
 16 25  1  0  0  0  0
 16 23  1  0  0  0  0
 17 19  1  0  0  0  0
 19  5  1  6  0  0  0
 19 21  1  0  0  0  0
 21 14  1  1  0  0  0
 23 14  1  1  0  0  0
 23 29  1  0  0  0  0
 25 26  1  1  0  0  0
 25 27  1  0  0  0  0
 27 18  1  1  0  0  0
 27 28  1  0  0  0  0
 28 20  1  6  0  0  0
 28 29  1  0  0  0  0
 29 11  1  6  0  0  0
 30 22  1  1  0  0  0
 30 31  1  0  0  0  0
 31 24  1  6  0  0  0
M  END
>  <CHROM.1>
-51.70194991,-174.76169115,-153.26051782,166.76618022,162.00522990,64.40919025
15.12539234,5.39505110,21.21932325,1.27884070,0.61152217,-0.21399810

>  <Name>
ligand

>  <RI>
0

>  <Rbt.Current_Directory>
/home/itssahil/PROJECTS/Mol_Feturizer/New_Systems/rnas/3DVV

>  <Rbt.Executable>
rbdock ($Id: //depot/dev/client3/rdock/2013.1/src/exe/rbdock.cxx#4 $)

>  <Rbt.Library>
libRbt.so (2013.1, Build901 2013/11/27)

>  <Rbt.Parameter_File>
/export/apps/rDock/src/rDock_2013.1_src/data/scripts/dock_solv.prm

>  <Rbt.Receptor>
prm/pocket_docking_7.prm

>  <SCORE>
-2.13427

>  <SCORE.INTER>
-3.17991

>  <SCORE.INTER.CONST>
1

>  <SCORE.INTER.POLAR>
0

>  <SCORE.INTER.ROT>
6

>  <SCORE.INTER.SOLV>
9.80725

>  <SCORE.INTER.VDW>
-12.989

>  <SCORE.INTER.norm>
-0.102578

>  <SCORE.INTRA>
1.04563

>  <SCORE.INTRA.DIHEDRAL>
-4.83407

>  <SCORE.INTRA.DIHEDRAL.0>
10.8172

>  <SCORE.INTRA.POLAR>
0

>  <SCORE.INTRA.POLAR.0>
0

>  <SCORE.INTRA.REPUL>
0

>  <SCORE.INTRA.REPUL.0>
0

>  <SCORE.INTRA.SOLV>
1.41729

>  <SCORE.INTRA.SOLV.lig_0>
-80.3833

>  <SCORE.INTRA.VDW>
2.75403

>  <SCORE.INTRA.VDW.0>
-4.63762

>  <SCORE.INTRA.norm>
0.0337301

>  <SCORE.RESTR>
0

>  <SCORE.RESTR.CAVITY>
0

>  <SCORE.RESTR.norm>
0

>  <SCORE.SYSTEM>
0

>  <SCORE.SYSTEM.CONST>
0

>  <SCORE.SYSTEM.DIHEDRAL>
0

>  <SCORE.SYSTEM.SOLV>
0

>  <SCORE.SYSTEM.norm>
0

>  <SCORE.heavy>
31

>  <SCORE.norm>
-0.0688476

>  <RMSD>
8.309

$$$$
ligand
 OpenBabel11021811473D
libRbt.so/2013.1/901 2013/11/27
 31 33  0  0  0  0  0  0  0  0999 V2000
   17.0553    1.2935   10.2350 C   0  0  0  0  0  0  0  0  0  0  0  0
   19.4327    9.2598   11.0677 N   0  0  0  0  0  0  0  0  0  0  0  0
   16.0763    1.6838    9.2664 O   0  0  0  0  0  0  0  0  0  0  0  0
   18.2560    2.2416   10.1830 C   0  0  1  0  0  0  0  0  0  0  0  0
   15.3521    8.6854   13.6987 N   0  0  0  0  0  0  0  0  0  0  0  0
   17.8561    3.5711   10.5691 O   0  0  0  0  0  0  0  0  0  0  0  0
   18.7039    4.0104   11.6452 C   0  0  1  0  0  0  0  0  0  0  0  0
   16.6898    6.0605   17.0586 N   0  0  0  0  0  0  0  0  0  0  0  0
   18.0005    4.8638   12.5617 O   0  0  0  0  0  0  0  0  0  0  0  0
   17.5170    6.0772   11.9668 C   0  0  2  0  0  0  0  0  0  0  0  0
   13.3992    4.0793   11.8794 N   0  0  0  0  0  0  0  0  0  0  0  0
   19.6161    6.4513   10.8281 O   0  0  0  0  0  0  0  0  0  0  0  0
   18.7210    7.0104   11.7933 C   0  0  1  0  0  0  0  0  0  0  0  0
   15.2134    5.9655   12.8395 O   0  0  0  0  0  0  0  0  0  0  0  0
   18.2707    8.3940   11.3202 C   0  0  1  0  0  0  0  0  0  0  0  0
   15.6804    4.6802   14.7547 O   0  0  0  0  0  0  0  0  0  0  0  0
   17.3720    9.0201   12.3869 C   0  0  0  0  0  0  0  0  0  0  0  0
   12.5365    5.5973   16.4133 O   0  0  0  0  0  0  0  0  0  0  0  0
   16.1277    8.1463   12.5713 C   0  0  1  0  0  0  0  0  0  0  0  0
   11.6360    4.0101   14.1919 O   0  0  0  0  0  0  0  0  0  0  0  0
   16.4595    6.6824   12.8850 C   0  0  2  0  0  0  0  0  0  0  0  0
   20.2173    2.8293   13.1856 O   0  0  0  0  0  0  0  0  0  0  0  0
   15.2645    4.6347   13.3773 C   0  0  1  0  0  0  0  0  0  0  0  0
   20.6518    2.0275   10.7024 O   0  0  0  0  0  0  0  0  0  0  0  0
   14.8085    5.4395   15.6094 C   0  0  2  0  0  0  0  0  0  0  0  0
   15.3640    5.4222   17.0354 C   0  0  0  0  0  0  0  0  0  0  0  0
   13.4170    4.8039   15.6132 C   0  0  2  0  0  0  0  0  0  0  0  0
   12.8737    4.7294   14.1848 C   0  0  1  0  0  0  0  0  0  0  0  0
   13.8695    4.0096   13.2714 C   0  0  1  0  0  0  0  0  0  0  0  0
   19.0508    2.7104   12.3678 C   0  0  2  0  0  0  0  0  0  0  0  0
   19.3257    1.7908   11.1817 C   0  0  1  0  0  0  0  0  0  0  0  0
  1  3  1  0  0  0  0
  4  1  1  1  0  0  0
  4  6  1  0  0  0  0
  4 31  1  0  0  0  0
  6  7  1  0  0  0  0
  7  9  1  1  0  0  0
  7 30  1  0  0  0  0
  8 26  1  0  0  0  0
 10  9  1  1  0  0  0
 10 13  1  0  0  0  0
 10 21  1  0  0  0  0
 13 12  1  6  0  0  0
 13 15  1  0  0  0  0
 15  2  1  1  0  0  0
 15 17  1  0  0  0  0
 16 25  1  0  0  0  0
 16 23  1  0  0  0  0
 17 19  1  0  0  0  0
 19  5  1  1  0  0  0
 19 21  1  0  0  0  0
 21 14  1  6  0  0  0
 23 14  1  1  0  0  0
 23 29  1  0  0  0  0
 25 26  1  1  0  0  0
 25 27  1  0  0  0  0
 27 18  1  1  0  0  0
 27 28  1  0  0  0  0
 28 20  1  1  0  0  0
 28 29  1  0  0  0  0
 29 11  1  6  0  0  0
 30 22  1  1  0  0  0
 30 31  1  0  0  0  0
 31 24  1  6  0  0  0
M  END
>  <CHROM.1>
64.53451475,-61.98037804,-75.77496814,59.10591785,66.99282596,61.95150953
16.61295997,4.99842372,12.78571841,0.46680271,-0.58073629,-2.84778283

>  <Name>
ligand

>  <RI>
0

>  <Rbt.Current_Directory>
/home/itssahil/PROJECTS/Mol_Feturizer/New_Systems/rnas/3DVV

>  <Rbt.Executable>
rbdock ($Id: //depot/dev/client3/rdock/2013.1/src/exe/rbdock.cxx#4 $)

>  <Rbt.Library>
libRbt.so (2013.1, Build901 2013/11/27)

>  <Rbt.Parameter_File>
/export/apps/rDock/src/rDock_2013.1_src/data/scripts/dock_solv.prm

>  <Rbt.Receptor>
prm/pocket_docking_6.prm

>  <SCORE>
-6.80152

>  <SCORE.INTER>
-2.32909

>  <SCORE.INTER.CONST>
1

>  <SCORE.INTER.POLAR>
0

>  <SCORE.INTER.ROT>
6

>  <SCORE.INTER.SOLV>
11.9558

>  <SCORE.INTER.VDW>
-13.138

>  <SCORE.INTER.norm>
-0.075132

>  <SCORE.INTRA>
-4.47323

>  <SCORE.INTRA.DIHEDRAL>
-9.03831

>  <SCORE.INTRA.DIHEDRAL.0>
10.8172

>  <SCORE.INTRA.POLAR>
0

>  <SCORE.INTRA.POLAR.0>
0

>  <SCORE.INTRA.REPUL>
0

>  <SCORE.INTRA.REPUL.0>
0

>  <SCORE.INTRA.SOLV>
-4.24305

>  <SCORE.INTRA.SOLV.lig_0>
-80.3833

>  <SCORE.INTRA.VDW>
2.16745

>  <SCORE.INTRA.VDW.0>
-4.63762

>  <SCORE.INTRA.norm>
-0.144298

>  <SCORE.RESTR>
0.000810475

>  <SCORE.RESTR.CAVITY>
0.000810475

>  <SCORE.RESTR.norm>
2.61444e-05

>  <SCORE.SYSTEM>
0

>  <SCORE.SYSTEM.CONST>
0

>  <SCORE.SYSTEM.DIHEDRAL>
0

>  <SCORE.SYSTEM.SOLV>
0

>  <SCORE.SYSTEM.norm>
0

>  <SCORE.heavy>
31

>  <SCORE.norm>
-0.219404

>  <RMSD>
8.311

$$$$
ligand
 OpenBabel11021811473D
libRbt.so/2013.1/901 2013/11/27
 31 33  0  0  0  0  0  0  0  0999 V2000
   20.1975    5.4949   16.8733 C   0  0  0  0  0  0  0  0  0  0  0  0
   18.1784   10.8891   10.3894 N   0  0  0  0  0  0  0  0  0  0  0  0
   19.2819    6.2271   17.6945 O   0  0  0  0  0  0  0  0  0  0  0  0
   20.6210    6.3419   15.6706 C   0  0  1  0  0  0  0  0  0  0  0  0
   13.9589    9.6683   12.5362 N   0  0  0  0  0  0  0  0  0  0  0  0
   19.4666    6.7078   14.8897 O   0  0  0  0  0  0  0  0  0  0  0  0
   19.4465    8.1390   14.7442 C   0  0  1  0  0  0  0  0  0  0  0  0
   13.9643   11.1220   16.5405 N   0  0  0  0  0  0  0  0  0  0  0  0
   18.1049    8.6501   14.7009 O   0  0  0  0  0  0  0  0  0  0  0  0
   17.5165    8.6193   13.3922 C   0  0  2  0  0  0  0  0  0  0  0  0
   15.2816    5.0174   14.8942 N   0  0  0  0  0  0  0  0  0  0  0  0
   19.5555    9.4164   12.3677 O   0  0  0  0  0  0  0  0  0  0  0  0
   18.1756    9.7331   12.5703 C   0  0  1  0  0  0  0  0  0  0  0  0
   15.3353    7.6717   14.0444 O   0  0  0  0  0  0  0  0  0  0  0  0
   17.4887    9.8832   11.2114 C   0  0  1  0  0  0  0  0  0  0  0  0
   15.0988    8.4788   16.2423 O   0  0  0  0  0  0  0  0  0  0  0  0
   16.0319   10.2928   11.4291 C   0  0  0  0  0  0  0  0  0  0  0  0
   11.5143    7.6994   16.3838 O   0  0  0  0  0  0  0  0  0  0  0  0
   15.3121    9.1914   12.2129 C   0  0  1  0  0  0  0  0  0  0  0  0
   12.7209    5.0924   16.2719 O   0  0  0  0  0  0  0  0  0  0  0  0
   16.0118    8.8318   13.5293 C   0  0  2  0  0  0  0  0  0  0  0  0
   20.5973    9.9672   15.9238 O   0  0  0  0  0  0  0  0  0  0  0  0
   15.5868    7.3944   15.4309 C   0  0  1  0  0  0  0  0  0  0  0  0
   22.3297    8.0713   15.2896 O   0  0  0  0  0  0  0  0  0  0  0  0
   13.6869    8.7200   16.1173 C   0  0  2  0  0  0  0  0  0  0  0  0
   13.2981    9.8981   17.0137 C   0  0  0  0  0  0  0  0  0  0  0  0
   12.9151    7.4790   16.5693 C   0  0  2  0  0  0  0  0  0  0  0  0
   13.3498    6.2655   15.7450 C   0  0  1  0  0  0  0  0  0  0  0  0
   14.8698    6.0937   15.8083 C   0  0  1  0  0  0  0  0  0  0  0  0
   20.1067    8.6288   16.0314 C   0  0  2  0  0  0  0  0  0  0  0  0
   21.2677    7.6456   16.1470 C   0  0  1  0  0  0  0  0  0  0  0  0
  1  3  1  0  0  0  0
  4  1  1  1  0  0  0
  4  6  1  0  0  0  0
  4 31  1  0  0  0  0
  6  7  1  0  0  0  0
  7  9  1  1  0  0  0
  7 30  1  0  0  0  0
  8 26  1  0  0  0  0
 10  9  1  1  0  0  0
 10 13  1  0  0  0  0
 10 21  1  0  0  0  0
 13 12  1  6  0  0  0
 13 15  1  0  0  0  0
 15  2  1  6  0  0  0
 15 17  1  0  0  0  0
 16 25  1  0  0  0  0
 16 23  1  0  0  0  0
 17 19  1  0  0  0  0
 19  5  1  1  0  0  0
 19 21  1  0  0  0  0
 21 14  1  6  0  0  0
 23 14  1  6  0  0  0
 23 29  1  0  0  0  0
 25 26  1  1  0  0  0
 25 27  1  0  0  0  0
 27 18  1  6  0  0  0
 27 28  1  0  0  0  0
 28 20  1  1  0  0  0
 28 29  1  0  0  0  0
 29 11  1  6  0  0  0
 30 22  1  6  0  0  0
 30 31  1  0  0  0  0
 31 24  1  6  0  0  0
M  END
>  <CHROM.1>
-59.27496136,-85.10680389,-73.61786065,62.94782032,70.94643192,64.18069182
16.83952929,8.15835557,14.82657025,-0.13036473,-0.03263036,2.23908991

>  <Name>
ligand

>  <RI>
0

>  <Rbt.Current_Directory>
/home/itssahil/PROJECTS/Mol_Feturizer/New_Systems/rnas/3DVV

>  <Rbt.Executable>
rbdock ($Id: //depot/dev/client3/rdock/2013.1/src/exe/rbdock.cxx#4 $)

>  <Rbt.Library>
libRbt.so (2013.1, Build901 2013/11/27)

>  <Rbt.Parameter_File>
/export/apps/rDock/src/rDock_2013.1_src/data/scripts/dock_solv.prm

>  <Rbt.Receptor>
prm/pocket_docking_8.prm

>  <SCORE>
-5.29703

>  <SCORE.INTER>
-2.5025

>  <SCORE.INTER.CONST>
1

>  <SCORE.INTER.POLAR>
0

>  <SCORE.INTER.ROT>
6

>  <SCORE.INTER.SOLV>
8.61465

>  <SCORE.INTER.VDW>
-12.1399

>  <SCORE.INTER.norm>
-0.0807259

>  <SCORE.INTRA>
-2.79453

>  <SCORE.INTRA.DIHEDRAL>
-6.42943

>  <SCORE.INTRA.DIHEDRAL.0>
10.8172

>  <SCORE.INTRA.POLAR>
0

>  <SCORE.INTRA.POLAR.0>
0

>  <SCORE.INTRA.REPUL>
0

>  <SCORE.INTRA.REPUL.0>
0

>  <SCORE.INTRA.SOLV>
-3.24415

>  <SCORE.INTRA.SOLV.lig_0>
-80.3833

>  <SCORE.INTRA.VDW>
2.04227

>  <SCORE.INTRA.VDW.0>
-4.63762

>  <SCORE.INTRA.norm>
-0.090146

>  <SCORE.RESTR>
0

>  <SCORE.RESTR.CAVITY>
0

>  <SCORE.RESTR.norm>
0

>  <SCORE.SYSTEM>
0

>  <SCORE.SYSTEM.CONST>
0

>  <SCORE.SYSTEM.DIHEDRAL>
0

>  <SCORE.SYSTEM.SOLV>
0

>  <SCORE.SYSTEM.norm>
0

>  <SCORE.heavy>
31

>  <SCORE.norm>
-0.170872

>  <RMSD>
8.318

$$$$
ligand
 OpenBabel11021811473D
libRbt.so/2013.1/901 2013/11/27
 31 33  0  0  0  0  0  0  0  0999 V2000
   14.0151    3.4180   12.5409 C   0  0  0  0  0  0  0  0  0  0  0  0
   15.0723   10.0905   17.4778 N   0  0  0  0  0  0  0  0  0  0  0  0
   15.0845    2.4695   12.4673 O   0  0  0  0  0  0  0  0  0  0  0  0
   13.2948    3.2976   13.8862 C   0  0  1  0  0  0  0  0  0  0  0  0
   15.3645    6.6560   20.9452 N   0  0  0  0  0  0  0  0  0  0  0  0
   14.2201    3.5256   14.9671 O   0  0  0  0  0  0  0  0  0  0  0  0
   13.6971    4.5713   15.8054 C   0  0  1  0  0  0  0  0  0  0  0  0
   18.0898    3.9139   20.6829 N   0  0  0  0  0  0  0  0  0  0  0  0
   14.7458    5.3695   16.3764 O   0  0  0  0  0  0  0  0  0  0  0  0
   14.2793    6.3556   17.3091 C   0  0  2  0  0  0  0  0  0  0  0  0
   11.9908    2.9243   18.8110 N   0  0  0  0  0  0  0  0  0  0  0  0
   14.3316    8.0900   15.6263 O   0  0  0  0  0  0  0  0  0  0  0  0
   14.8813    7.7013   16.8881 C   0  0  1  0  0  0  0  0  0  0  0  0
   13.9620    4.8491   19.2355 O   0  0  0  0  0  0  0  0  0  0  0  0
   14.5724    8.7819   17.9263 C   0  0  1  0  0  0  0  0  0  0  0  0
   15.6693    3.2298   19.2670 O   0  0  0  0  0  0  0  0  0  0  0  0
   15.2228    8.3994   19.2560 C   0  0  0  0  0  0  0  0  0  0  0  0
   14.8398    2.0942   22.6579 O   0  0  0  0  0  0  0  0  0  0  0  0
   14.6249    7.0772   19.7457 C   0  0  1  0  0  0  0  0  0  0  0  0
   12.5425    1.2698   21.1389 O   0  0  0  0  0  0  0  0  0  0  0  0
   14.7248    5.9499   18.7108 C   0  0  2  0  0  0  0  0  0  0  0  0
   11.9489    6.2732   15.4805 O   0  0  0  0  0  0  0  0  0  0  0  0
   14.3635    3.5560   18.7563 C   0  0  1  0  0  0  0  0  0  0  0  0
   11.0568    3.9051   14.7098 O   0  0  0  0  0  0  0  0  0  0  0  0
   15.7467    3.1825   20.7019 C   0  0  2  0  0  0  0  0  0  0  0  0
   17.1801    2.8413   21.1160 C   0  0  0  0  0  0  0  0  0  0  0  0
   14.8080    2.0954   21.2282 C   0  0  2  0  0  0  0  0  0  0  0  0
   13.3786    2.3662   20.7542 C   0  0  1  0  0  0  0  0  0  0  0  0
   13.3408    2.5184   19.2313 C   0  0  1  0  0  0  0  0  0  0  0  0
   12.9095    5.4403   14.8270 C   0  0  2  0  0  0  0  0  0  0  0  0
   12.2068    4.3693   13.9981 C   0  0  1  0  0  0  0  0  0  0  0  0
  1  3  1  0  0  0  0
  4  1  1  6  0  0  0
  4  6  1  0  0  0  0
  4 31  1  0  0  0  0
  6  7  1  0  0  0  0
  7  9  1  6  0  0  0
  7 30  1  0  0  0  0
  8 26  1  0  0  0  0
 10  9  1  6  0  0  0
 10 13  1  0  0  0  0
 10 21  1  0  0  0  0
 13 12  1  6  0  0  0
 13 15  1  0  0  0  0
 15  2  1  6  0  0  0
 15 17  1  0  0  0  0
 16 25  1  0  0  0  0
 16 23  1  0  0  0  0
 17 19  1  0  0  0  0
 19  5  1  1  0  0  0
 19 21  1  0  0  0  0
 21 14  1  1  0  0  0
 23 14  1  1  0  0  0
 23 29  1  0  0  0  0
 25 26  1  6  0  0  0
 25 27  1  0  0  0  0
 27 18  1  1  0  0  0
 27 28  1  0  0  0  0
 28 20  1  6  0  0  0
 28 29  1  0  0  0  0
 29 11  1  1  0  0  0
 30 22  1  1  0  0  0
 30 31  1  0  0  0  0
 31 24  1  1  0  0  0
M  END
>  <CHROM.1>
58.90232985,-175.05876605,-128.63193488,67.96680667,79.95109811,63.65872707
14.25081897,4.69798309,17.79428908,2.32924237,-1.22542661,-0.57658176

>  <Name>
ligand

>  <RI>
0

>  <Rbt.Current_Directory>
/home/itssahil/PROJECTS/Mol_Feturizer/New_Systems/rnas/3DVV

>  <Rbt.Executable>
rbdock ($Id: //depot/dev/client3/rdock/2013.1/src/exe/rbdock.cxx#4 $)

>  <Rbt.Library>
libRbt.so (2013.1, Build901 2013/11/27)

>  <Rbt.Parameter_File>
/export/apps/rDock/src/rDock_2013.1_src/data/scripts/dock_solv.prm

>  <Rbt.Receptor>
prm/pocket_docking_7.prm

>  <SCORE>
-6.16804

>  <SCORE.INTER>
-5.33039

>  <SCORE.INTER.CONST>
1

>  <SCORE.INTER.POLAR>
0

>  <SCORE.INTER.ROT>
6

>  <SCORE.INTER.SOLV>
14.2095

>  <SCORE.INTER.VDW>
-15.8901

>  <SCORE.INTER.norm>
-0.171948

>  <SCORE.INTRA>
-0.837648

>  <SCORE.INTRA.DIHEDRAL>
-1.49096

>  <SCORE.INTRA.DIHEDRAL.0>
10.8172

>  <SCORE.INTRA.POLAR>
0

>  <SCORE.INTRA.POLAR.0>
0

>  <SCORE.INTRA.REPUL>
0

>  <SCORE.INTRA.REPUL.0>
0

>  <SCORE.INTRA.SOLV>
-1.88728

>  <SCORE.INTRA.SOLV.lig_0>
-80.3833

>  <SCORE.INTRA.VDW>
0.85147

>  <SCORE.INTRA.VDW.0>
-4.63762

>  <SCORE.INTRA.norm>
-0.0270209

>  <SCORE.RESTR>
0

>  <SCORE.RESTR.CAVITY>
0

>  <SCORE.RESTR.norm>
0

>  <SCORE.SYSTEM>
0

>  <SCORE.SYSTEM.CONST>
0

>  <SCORE.SYSTEM.DIHEDRAL>
0

>  <SCORE.SYSTEM.SOLV>
0

>  <SCORE.SYSTEM.norm>
0

>  <SCORE.heavy>
31

>  <SCORE.norm>
-0.198969

>  <RMSD>
8.359

$$$$
ligand
 OpenBabel11021811473D
libRbt.so/2013.1/901 2013/11/27
 31 33  0  0  0  0  0  0  0  0999 V2000
   17.6366    9.8843   18.7310 C   0  0  0  0  0  0  0  0  0  0  0  0
   16.1935    2.0999   15.9442 N   0  0  0  0  0  0  0  0  0  0  0  0
   16.2884    9.9712   19.2037 O   0  0  0  0  0  0  0  0  0  0  0  0
   17.7200    8.9145   17.5496 C   0  0  1  0  0  0  0  0  0  0  0  0
   13.2187    2.7206   19.7742 N   0  0  0  0  0  0  0  0  0  0  0  0
   17.1653    7.6361   17.9164 O   0  0  0  0  0  0  0  0  0  0  0  0
   16.1456    7.2884   16.9629 C   0  0  1  0  0  0  0  0  0  0  0  0
   10.0645    7.8506   19.7243 N   0  0  0  0  0  0  0  0  0  0  0  0
   15.0811    6.5407   17.5719 O   0  0  0  0  0  0  0  0  0  0  0  0
   15.4723    5.2319   18.0124 C   0  0  2  0  0  0  0  0  0  0  0  0
   15.4492    6.9323   22.2010 N   0  0  0  0  0  0  0  0  0  0  0  0
   16.7814    4.8619   16.0143 O   0  0  0  0  0  0  0  0  0  0  0  0
   15.6650    4.3688   16.7600 C   0  0  1  0  0  0  0  0  0  0  0  0
   14.3725    5.2948   20.2186 O   0  0  0  0  0  0  0  0  0  0  0  0
   15.9195    2.9091   17.1415 C   0  0  1  0  0  0  0  0  0  0  0  0
   12.6767    6.8495   19.7233 O   0  0  0  0  0  0  0  0  0  0  0  0
   14.6947    2.3623   17.8752 C   0  0  0  0  0  0  0  0  0  0  0  0
   10.7089    5.9924   22.7014 O   0  0  0  0  0  0  0  0  0  0  0  0
   14.4798    3.1652   19.1616 C   0  0  1  0  0  0  0  0  0  0  0  0
   13.0545    7.2147   23.8278 O   0  0  0  0  0  0  0  0  0  0  0  0
   14.3791    4.6762   18.9201 C   0  0  2  0  0  0  0  0  0  0  0  0
   14.8954    8.5864   15.2866 O   0  0  0  0  0  0  0  0  0  0  0  0
   14.0178    6.6866   20.2205 C   0  0  1  0  0  0  0  0  0  0  0  0
   17.4772    9.1354   15.1107 O   0  0  0  0  0  0  0  0  0  0  0  0
   11.6745    6.1653   20.4945 C   0  0  2  0  0  0  0  0  0  0  0  0
   10.3027    6.4046   19.8593 C   0  0  0  0  0  0  0  0  0  0  0  0
   11.6621    6.7183   21.9208 C   0  0  2  0  0  0  0  0  0  0  0  0
   13.0491    6.5700   22.5497 C   0  0  1  0  0  0  0  0  0  0  0  0
   14.1123    7.2142   21.6561 C   0  0  1  0  0  0  0  0  0  0  0  0
   15.5946    8.6461   16.5320 C   0  0  2  0  0  0  0  0  0  0  0  0
   16.8877    9.4411   16.3770 C   0  0  1  0  0  0  0  0  0  0  0  0
  1  3  1  0  0  0  0
  4  1  1  1  0  0  0
  4  6  1  0  0  0  0
  4 31  1  0  0  0  0
  6  7  1  0  0  0  0
  7  9  1  1  0  0  0
  7 30  1  0  0  0  0
  8 26  1  0  0  0  0
 10  9  1  6  0  0  0
 10 13  1  0  0  0  0
 10 21  1  0  0  0  0
 13 12  1  1  0  0  0
 13 15  1  0  0  0  0
 15  2  1  6  0  0  0
 15 17  1  0  0  0  0
 16 25  1  0  0  0  0
 16 23  1  0  0  0  0
 17 19  1  0  0  0  0
 19  5  1  6  0  0  0
 19 21  1  0  0  0  0
 21 14  1  1  0  0  0
 23 14  1  1  0  0  0
 23 29  1  0  0  0  0
 25 26  1  6  0  0  0
 25 27  1  0  0  0  0
 27 18  1  1  0  0  0
 27 28  1  0  0  0  0
 28 20  1  1  0  0  0
 28 29  1  0  0  0  0
 29 11  1  1  0  0  0
 30 22  1  6  0  0  0
 30 31  1  0  0  0  0
 31 24  1  6  0  0  0
M  END
>  <CHROM.1>
-54.50835820,-67.51318403,-72.27609691,61.99675374,66.37259963,-54.67776780
14.61358135,6.43803978,18.89566385,-0.05574683,0.84720026,0.30715026

>  <Name>
ligand

>  <RI>
0

>  <Rbt.Current_Directory>
/home/itssahil/PROJECTS/Mol_Feturizer/New_Systems/rnas/3DVV

>  <Rbt.Executable>
rbdock ($Id: //depot/dev/client3/rdock/2013.1/src/exe/rbdock.cxx#4 $)

>  <Rbt.Library>
libRbt.so (2013.1, Build901 2013/11/27)

>  <Rbt.Parameter_File>
/export/apps/rDock/src/rDock_2013.1_src/data/scripts/dock_solv.prm

>  <Rbt.Receptor>
prm/pocket_docking_7.prm

>  <SCORE>
-2.04211

>  <SCORE.INTER>
1.29549

>  <SCORE.INTER.CONST>
1

>  <SCORE.INTER.POLAR>
0

>  <SCORE.INTER.ROT>
6

>  <SCORE.INTER.SOLV>
7.28557

>  <SCORE.INTER.VDW>
-9.16487

>  <SCORE.INTER.norm>
0.0417899

>  <SCORE.INTRA>
-3.3376

>  <SCORE.INTRA.DIHEDRAL>
-9.13474

>  <SCORE.INTRA.DIHEDRAL.0>
10.8172

>  <SCORE.INTRA.POLAR>
0

>  <SCORE.INTRA.POLAR.0>
0

>  <SCORE.INTRA.REPUL>
0

>  <SCORE.INTRA.REPUL.0>
0

>  <SCORE.INTRA.SOLV>
-2.41276

>  <SCORE.INTRA.SOLV.lig_0>
-80.3833

>  <SCORE.INTRA.VDW>
2.43615

>  <SCORE.INTRA.VDW.0>
-4.63762

>  <SCORE.INTRA.norm>
-0.107665

>  <SCORE.RESTR>
0

>  <SCORE.RESTR.CAVITY>
0

>  <SCORE.RESTR.norm>
0

>  <SCORE.SYSTEM>
0

>  <SCORE.SYSTEM.CONST>
0

>  <SCORE.SYSTEM.DIHEDRAL>
0

>  <SCORE.SYSTEM.SOLV>
0

>  <SCORE.SYSTEM.norm>
0

>  <SCORE.heavy>
31

>  <SCORE.norm>
-0.0658746

>  <RMSD>
8.360

$$$$
ligand
 OpenBabel11021811473D
libRbt.so/2013.1/901 2013/11/27
 31 33  0  0  0  0  0  0  0  0999 V2000
   13.6225    3.8650   12.1468 C   0  0  0  0  0  0  0  0  0  0  0  0
   17.4476   11.4258   12.2227 N   0  0  0  0  0  0  0  0  0  0  0  0
   13.6597    2.5681   11.5421 O   0  0  0  0  0  0  0  0  0  0  0  0
   14.6690    4.7776   11.5025 C   0  0  1  0  0  0  0  0  0  0  0  0
   15.2798   10.8890   16.5719 N   0  0  0  0  0  0  0  0  0  0  0  0
   14.7007    6.0506   12.1770 O   0  0  0  0  0  0  0  0  0  0  0  0
   16.0508    6.3117   12.6000 C   0  0  1  0  0  0  0  0  0  0  0  0
   17.4686    7.4827   18.5133 N   0  0  0  0  0  0  0  0  0  0  0  0
   16.0886    7.0477   13.8329 O   0  0  0  0  0  0  0  0  0  0  0  0
   15.6391    8.4052   13.7099 C   0  0  2  0  0  0  0  0  0  0  0  0
   11.7456    7.0138   15.5708 N   0  0  0  0  0  0  0  0  0  0  0  0
   16.8809    8.7164   11.6597 O   0  0  0  0  0  0  0  0  0  0  0  0
   16.7498    9.1903   13.0027 C   0  0  1  0  0  0  0  0  0  0  0  0
   14.1463    8.4269   15.6726 O   0  0  0  0  0  0  0  0  0  0  0  0
   16.4266   10.6856   12.9797 C   0  0  1  0  0  0  0  0  0  0  0  0
   15.2051    6.7246   16.9053 O   0  0  0  0  0  0  0  0  0  0  0  0
   16.3587   11.2055   14.4158 C   0  0  0  0  0  0  0  0  0  0  0  0
   13.5367    7.6477   20.0424 O   0  0  0  0  0  0  0  0  0  0  0  0
   15.2326   10.4813   15.1595 C   0  0  1  0  0  0  0  0  0  0  0  0
   11.3601    6.6775   18.4342 O   0  0  0  0  0  0  0  0  0  0  0  0
   15.3586    8.9539   15.1056 C   0  0  2  0  0  0  0  0  0  0  0  0
   18.0407    4.8858   12.8543 O   0  0  0  0  0  0  0  0  0  0  0  0
   14.1727    7.0170   15.9455 C   0  0  1  0  0  0  0  0  0  0  0  0
   16.8954    4.4272   10.5143 O   0  0  0  0  0  0  0  0  0  0  0  0
   15.0400    7.3886   18.1699 C   0  0  2  0  0  0  0  0  0  0  0  0
   16.2012    7.0083   19.0915 C   0  0  0  0  0  0  0  0  0  0  0  0
   13.7284    6.9381   18.8156 C   0  0  2  0  0  0  0  0  0  0  0  0
   12.5572    7.2284   17.8749 C   0  0  1  0  0  0  0  0  0  0  0  0
   12.8070    6.6000   16.5013 C   0  0  1  0  0  0  0  0  0  0  0  0
   16.6115    4.9144   12.8564 C   0  0  2  0  0  0  0  0  0  0  0  0
   16.0639    4.1624   11.6470 C   0  0  1  0  0  0  0  0  0  0  0  0
  1  3  1  0  0  0  0
  4  1  1  1  0  0  0
  4  6  1  0  0  0  0
  4 31  1  0  0  0  0
  6  7  1  0  0  0  0
  7  9  1  1  0  0  0
  7 30  1  0  0  0  0
  8 26  1  0  0  0  0
 10  9  1  1  0  0  0
 10 13  1  0  0  0  0
 10 21  1  0  0  0  0
 13 12  1  6  0  0  0
 13 15  1  0  0  0  0
 15  2  1  6  0  0  0
 15 17  1  0  0  0  0
 16 25  1  0  0  0  0
 16 23  1  0  0  0  0
 17 19  1  0  0  0  0
 19  5  1  1  0  0  0
 19 21  1  0  0  0  0
 21 14  1  6  0  0  0
 23 14  1  1  0  0  0
 23 29  1  0  0  0  0
 25 26  1  1  0  0  0
 25 27  1  0  0  0  0
 27 18  1  1  0  0  0
 27 28  1  0  0  0  0
 28 20  1  1  0  0  0
 28 29  1  0  0  0  0
 29 11  1  6  0  0  0
 30 22  1  6  0  0  0
 30 31  1  0  0  0  0
 31 24  1  6  0  0  0
M  END
>  <CHROM.1>
-175.72644852,-69.59156522,-74.46290400,61.36620945,65.81695601,62.84901098
15.15083563,7.21600012,14.75904896,1.05763212,-0.99583045,-2.36700851

>  <Name>
ligand

>  <RI>
0

>  <Rbt.Current_Directory>
/home/itssahil/PROJECTS/Mol_Feturizer/New_Systems/rnas/3DVV

>  <Rbt.Executable>
rbdock ($Id: //depot/dev/client3/rdock/2013.1/src/exe/rbdock.cxx#4 $)

>  <Rbt.Library>
libRbt.so (2013.1, Build901 2013/11/27)

>  <Rbt.Parameter_File>
/export/apps/rDock/src/rDock_2013.1_src/data/scripts/dock_solv.prm

>  <Rbt.Receptor>
prm/pocket_docking_7.prm

>  <SCORE>
-3.57983

>  <SCORE.INTER>
0.533441

>  <SCORE.INTER.CONST>
1

>  <SCORE.INTER.POLAR>
0

>  <SCORE.INTER.ROT>
6

>  <SCORE.INTER.SOLV>
8.44554

>  <SCORE.INTER.VDW>
-10.0596

>  <SCORE.INTER.norm>
0.0172078

>  <SCORE.INTRA>
-4.11327

>  <SCORE.INTRA.DIHEDRAL>
-8.86617

>  <SCORE.INTRA.DIHEDRAL.0>
10.8172

>  <SCORE.INTRA.POLAR>
0

>  <SCORE.INTRA.POLAR.0>
0

>  <SCORE.INTRA.REPUL>
0

>  <SCORE.INTRA.REPUL.0>
0

>  <SCORE.INTRA.SOLV>
-4.20761

>  <SCORE.INTRA.SOLV.lig_0>
-80.3833

>  <SCORE.INTRA.VDW>
2.42362

>  <SCORE.INTRA.VDW.0>
-4.63762

>  <SCORE.INTRA.norm>
-0.132686

>  <SCORE.RESTR>
0

>  <SCORE.RESTR.CAVITY>
0

>  <SCORE.RESTR.norm>
0

>  <SCORE.SYSTEM>
0

>  <SCORE.SYSTEM.CONST>
0

>  <SCORE.SYSTEM.DIHEDRAL>
0

>  <SCORE.SYSTEM.SOLV>
0

>  <SCORE.SYSTEM.norm>
0

>  <SCORE.heavy>
31

>  <SCORE.norm>
-0.115478

>  <RMSD>
8.523

$$$$
ligand
 OpenBabel11021811473D
libRbt.so/2013.1/901 2013/11/27
 31 33  0  0  0  0  0  0  0  0999 V2000
   18.1634    8.7260   17.2524 C   0  0  0  0  0  0  0  0  0  0  0  0
   15.0689    3.9155   11.1280 N   0  0  0  0  0  0  0  0  0  0  0  0
   18.3131    7.5689   18.0816 O   0  0  0  0  0  0  0  0  0  0  0  0
   18.2999    8.3394   15.7776 C   0  0  1  0  0  0  0  0  0  0  0  0
   11.5088    4.5195   14.4243 N   0  0  0  0  0  0  0  0  0  0  0  0
   17.2542    7.4202   15.4063 O   0  0  0  0  0  0  0  0  0  0  0  0
   16.5571    7.9547   14.2669 C   0  0  1  0  0  0  0  0  0  0  0  0
   10.6399   10.2892   16.2481 N   0  0  0  0  0  0  0  0  0  0  0  0
   15.1636    7.6075   14.2853 O   0  0  0  0  0  0  0  0  0  0  0  0
   14.9180    6.1965   14.1909 C   0  0  2  0  0  0  0  0  0  0  0  0
   14.3688    6.2347   18.6204 N   0  0  0  0  0  0  0  0  0  0  0  0
   16.5435    5.9497   12.4190 O   0  0  0  0  0  0  0  0  0  0  0  0
   15.1573    5.7893   12.7323 C   0  0  1  0  0  0  0  0  0  0  0  0
   13.3080    6.0270   16.0510 O   0  0  0  0  0  0  0  0  0  0  0  0
   14.7548    4.3310   12.5036 C   0  0  1  0  0  0  0  0  0  0  0  0
   12.5506    8.2549   16.0816 O   0  0  0  0  0  0  0  0  0  0  0  0
   13.2570    4.1773   12.7691 C   0  0  0  0  0  0  0  0  0  0  0  0
    9.6899    7.4903   18.2514 O   0  0  0  0  0  0  0  0  0  0  0  0
   12.9667    4.5329   14.2302 C   0  0  1  0  0  0  0  0  0  0  0  0
   11.9352    7.0468   19.9912 O   0  0  0  0  0  0  0  0  0  0  0  0
   13.4821    5.9216   14.6271 C   0  0  2  0  0  0  0  0  0  0  0  0
   16.4596   10.1950   13.2522 O   0  0  0  0  0  0  0  0  0  0  0  0
   13.5374    7.3383   16.5900 C   0  0  1  0  0  0  0  0  0  0  0  0
   18.9748    9.5312   13.7331 O   0  0  0  0  0  0  0  0  0  0  0  0
   11.1953    7.9036   16.4085 C   0  0  2  0  0  0  0  0  0  0  0  0
   10.2480    8.9422   15.8033 C   0  0  0  0  0  0  0  0  0  0  0  0
   11.0209    7.9017   17.9283 C   0  0  2  0  0  0  0  0  0  0  0  0
   12.0188    6.9332   18.5666 C   0  0  1  0  0  0  0  0  0  0  0  0
   13.4448    7.2630   18.1177 C   0  0  1  0  0  0  0  0  0  0  0  0
   16.6794    9.4647   14.4612 C   0  0  2  0  0  0  0  0  0  0  0  0
   18.1387    9.5783   14.8920 C   0  0  1  0  0  0  0  0  0  0  0  0
  1  3  1  0  0  0  0
  4  1  1  1  0  0  0
  4  6  1  0  0  0  0
  4 31  1  0  0  0  0
  6  7  1  0  0  0  0
  7  9  1  1  0  0  0
  7 30  1  0  0  0  0
  8 26  1  0  0  0  0
 10  9  1  6  0  0  0
 10 13  1  0  0  0  0
 10 21  1  0  0  0  0
 13 12  1  1  0  0  0
 13 15  1  0  0  0  0
 15  2  1  6  0  0  0
 15 17  1  0  0  0  0
 16 25  1  0  0  0  0
 16 23  1  0  0  0  0
 17 19  1  0  0  0  0
 19  5  1  6  0  0  0
 19 21  1  0  0  0  0
 21 14  1  1  0  0  0
 23 14  1  6  0  0  0
 23 29  1  0  0  0  0
 25 26  1  6  0  0  0
 25 27  1  0  0  0  0
 27 18  1  6  0  0  0
 27 28  1  0  0  0  0
 28 20  1  1  0  0  0
 28 29  1  0  0  0  0
 29 11  1  6  0  0  0
 30 22  1  6  0  0  0
 30 31  1  0  0  0  0
 31 24  1  6  0  0  0
M  END
>  <CHROM.1>
62.32202819,-63.49914944,-75.48884023,64.90756750,63.93216281,-54.52365193
14.40181814,7.23066486,15.47053742,-0.36701050,0.35403971,0.95635539

>  <Name>
ligand

>  <RI>
0

>  <Rbt.Current_Directory>
/home/itssahil/PROJECTS/Mol_Feturizer/New_Systems/rnas/3DVV

>  <Rbt.Executable>
rbdock ($Id: //depot/dev/client3/rdock/2013.1/src/exe/rbdock.cxx#4 $)

>  <Rbt.Library>
libRbt.so (2013.1, Build901 2013/11/27)

>  <Rbt.Parameter_File>
/export/apps/rDock/src/rDock_2013.1_src/data/scripts/dock_solv.prm

>  <Rbt.Receptor>
prm/pocket_docking_8.prm

>  <SCORE>
-6.02479

>  <SCORE.INTER>
-2.33566

>  <SCORE.INTER.CONST>
1

>  <SCORE.INTER.POLAR>
0

>  <SCORE.INTER.ROT>
6

>  <SCORE.INTER.SOLV>
12.7424

>  <SCORE.INTER.VDW>
-13.4046

>  <SCORE.INTER.norm>
-0.0753439

>  <SCORE.INTRA>
-3.68913

>  <SCORE.INTRA.DIHEDRAL>
-9.0439

>  <SCORE.INTRA.DIHEDRAL.0>
10.8172

>  <SCORE.INTRA.POLAR>
0

>  <SCORE.INTRA.POLAR.0>
0

>  <SCORE.INTRA.REPUL>
0

>  <SCORE.INTRA.REPUL.0>
0

>  <SCORE.INTRA.SOLV>
-3.01225

>  <SCORE.INTRA.SOLV.lig_0>
-80.3833

>  <SCORE.INTRA.VDW>
2.33894

>  <SCORE.INTRA.VDW.0>
-4.63762

>  <SCORE.INTRA.norm>
-0.119004

>  <SCORE.RESTR>
0

>  <SCORE.RESTR.CAVITY>
0

>  <SCORE.RESTR.norm>
0

>  <SCORE.SYSTEM>
0

>  <SCORE.SYSTEM.CONST>
0

>  <SCORE.SYSTEM.DIHEDRAL>
0

>  <SCORE.SYSTEM.SOLV>
0

>  <SCORE.SYSTEM.norm>
0

>  <SCORE.heavy>
31

>  <SCORE.norm>
-0.194348

>  <RMSD>
8.523

$$$$
ligand
 OpenBabel11021811473D
libRbt.so/2013.1/901 2013/11/27
 31 33  0  0  0  0  0  0  0  0999 V2000
   17.0092   10.6943   18.6492 C   0  0  0  0  0  0  0  0  0  0  0  0
   12.5419    4.5247   15.0924 N   0  0  0  0  0  0  0  0  0  0  0  0
   17.9605    9.6866   19.0074 O   0  0  0  0  0  0  0  0  0  0  0  0
   16.3460   10.3433   17.3149 C   0  0  1  0  0  0  0  0  0  0  0  0
   12.1570    4.4363   19.9655 N   0  0  0  0  0  0  0  0  0  0  0  0
   15.6189    9.1047   17.4323 O   0  0  0  0  0  0  0  0  0  0  0  0
   14.2605    9.3294   17.0150 C   0  0  1  0  0  0  0  0  0  0  0  0
   16.4271    6.3126   23.7473 N   0  0  0  0  0  0  0  0  0  0  0  0
   13.3363    8.5129   17.7514 O   0  0  0  0  0  0  0  0  0  0  0  0
   13.6288    7.1091   17.6897 C   0  0  2  0  0  0  0  0  0  0  0  0
   11.6116    8.3689   20.0259 N   0  0  0  0  0  0  0  0  0  0  0  0
   13.6179    7.1302   15.2727 O   0  0  0  0  0  0  0  0  0  0  0  0
   12.9728    6.5629   16.4162 C   0  0  1  0  0  0  0  0  0  0  0  0
   13.8602    6.7237   20.1144 O   0  0  0  0  0  0  0  0  0  0  0  0
   13.0909    5.0387   16.3564 C   0  0  1  0  0  0  0  0  0  0  0  0
   13.9758    6.8487   22.4615 O   0  0  0  0  0  0  0  0  0  0  0  0
   12.3386    4.4312   17.5406 C   0  0  0  0  0  0  0  0  0  0  0  0
   15.3947   10.2343   22.4370 O   0  0  0  0  0  0  0  0  0  0  0  0
   12.9815    4.9127   18.8446 C   0  0  1  0  0  0  0  0  0  0  0  0
   12.7384   10.6582   21.4224 O   0  0  0  0  0  0  0  0  0  0  0  0
   13.0740    6.4402   18.9438 C   0  0  2  0  0  0  0  0  0  0  0  0
   12.9154   11.3641   16.6856 O   0  0  0  0  0  0  0  0  0  0  0  0
   13.1009    6.9062   21.3197 C   0  0  1  0  0  0  0  0  0  0  0  0
   15.2744   11.6439   15.5217 O   0  0  0  0  0  0  0  0  0  0  0  0
   15.0070    7.8506   22.4655 C   0  0  2  0  0  0  0  0  0  0  0  0
   15.8720    7.6752   23.7159 C   0  0  0  0  0  0  0  0  0  0  0  0
   14.3683    9.2403   22.4972 C   0  0  2  0  0  0  0  0  0  0  0  0
   13.4289    9.4100   21.3015 C   0  0  1  0  0  0  0  0  0  0  0  0
   12.4068    8.2710   21.2595 C   0  0  1  0  0  0  0  0  0  0  0  0
   14.0180   10.7896   17.3912 C   0  0  2  0  0  0  0  0  0  0  0  0
   15.3287   11.4223   16.9332 C   0  0  1  0  0  0  0  0  0  0  0  0
  1  3  1  0  0  0  0
  4  1  1  1  0  0  0
  4  6  1  0  0  0  0
  4 31  1  0  0  0  0
  6  7  1  0  0  0  0
  7  9  1  1  0  0  0
  7 30  1  0  0  0  0
  8 26  1  0  0  0  0
 10  9  1  1  0  0  0
 10 13  1  0  0  0  0
 10 21  1  0  0  0  0
 13 12  1  6  0  0  0
 13 15  1  0  0  0  0
 15  2  1  6  0  0  0
 15 17  1  0  0  0  0
 16 25  1  0  0  0  0
 16 23  1  0  0  0  0
 17 19  1  0  0  0  0
 19  5  1  1  0  0  0
 19 21  1  0  0  0  0
 21 14  1  1  0  0  0
 23 14  1  6  0  0  0
 23 29  1  0  0  0  0
 25 26  1  1  0  0  0
 25 27  1  0  0  0  0
 27 18  1  6  0  0  0
 27 28  1  0  0  0  0
 28 20  1  1  0  0  0
 28 29  1  0  0  0  0
 29 11  1  6  0  0  0
 30 22  1  6  0  0  0
 30 31  1  0  0  0  0
 31 24  1  6  0  0  0
M  END
>  <CHROM.1>
62.35470945,-55.49061684,-85.55647200,165.70296944,142.54063765,56.96372819
14.11054260,8.17668010,19.10636822,-1.87045925,1.09461486,1.85439137

>  <Name>
ligand

>  <RI>
0

>  <Rbt.Current_Directory>
/home/itssahil/PROJECTS/Mol_Feturizer/New_Systems/rnas/3DVV

>  <Rbt.Executable>
rbdock ($Id: //depot/dev/client3/rdock/2013.1/src/exe/rbdock.cxx#4 $)

>  <Rbt.Library>
libRbt.so (2013.1, Build901 2013/11/27)

>  <Rbt.Parameter_File>
/export/apps/rDock/src/rDock_2013.1_src/data/scripts/dock_solv.prm

>  <Rbt.Receptor>
prm/pocket_docking_7.prm

>  <SCORE>
-3.02502

>  <SCORE.INTER>
-4.18556

>  <SCORE.INTER.CONST>
1

>  <SCORE.INTER.POLAR>
0

>  <SCORE.INTER.ROT>
6

>  <SCORE.INTER.SOLV>
9.04157

>  <SCORE.INTER.VDW>
-13.4042

>  <SCORE.INTER.norm>
-0.135018

>  <SCORE.INTRA>
1.16055

>  <SCORE.INTRA.DIHEDRAL>
-1.82589

>  <SCORE.INTRA.DIHEDRAL.0>
10.8172

>  <SCORE.INTRA.POLAR>
0

>  <SCORE.INTRA.POLAR.0>
0

>  <SCORE.INTRA.REPUL>
0

>  <SCORE.INTRA.REPUL.0>
0

>  <SCORE.INTRA.SOLV>
-0.117815

>  <SCORE.INTRA.SOLV.lig_0>
-80.3833

>  <SCORE.INTRA.VDW>
2.1324

>  <SCORE.INTRA.VDW.0>
-4.63762

>  <SCORE.INTRA.norm>
0.0374371

>  <SCORE.RESTR>
0

>  <SCORE.RESTR.CAVITY>
0

>  <SCORE.RESTR.norm>
0

>  <SCORE.SYSTEM>
0

>  <SCORE.SYSTEM.CONST>
0

>  <SCORE.SYSTEM.DIHEDRAL>
0

>  <SCORE.SYSTEM.SOLV>
0

>  <SCORE.SYSTEM.norm>
0

>  <SCORE.heavy>
31

>  <SCORE.norm>
-0.0975812

>  <RMSD>
8.552

$$$$
ligand
 OpenBabel11021811473D
libRbt.so/2013.1/901 2013/11/27
 31 33  0  0  0  0  0  0  0  0999 V2000
   16.9911    2.7257    8.9555 C   0  0  0  0  0  0  0  0  0  0  0  0
   15.4575   -5.4281   10.9500 N   0  0  0  0  0  0  0  0  0  0  0  0
   18.1553    2.7003    9.7878 O   0  0  0  0  0  0  0  0  0  0  0  0
   15.9753    1.6869    9.4374 C   0  0  1  0  0  0  0  0  0  0  0  0
   20.3061   -4.8998   10.6102 N   0  0  0  0  0  0  0  0  0  0  0  0
   16.5716    0.3751    9.4443 O   0  0  0  0  0  0  0  0  0  0  0  0
   16.4171   -0.1918   10.7575 C   0  0  1  0  0  0  0  0  0  0  0  0
   23.3411   -1.1206    7.0578 N   0  0  0  0  0  0  0  0  0  0  0  0
   17.5265   -1.0346   11.1066 O   0  0  0  0  0  0  0  0  0  0  0  0
   17.5527   -2.2804   10.3942 C   0  0  2  0  0  0  0  0  0  0  0  0
   19.5373   -0.9831   12.1912 N   0  0  0  0  0  0  0  0  0  0  0  0
   15.1859   -2.6240   10.7447 O   0  0  0  0  0  0  0  0  0  0  0  0
   16.4761   -3.1806   11.0115 C   0  0  1  0  0  0  0  0  0  0  0  0
   19.9237   -2.2134    9.7198 O   0  0  0  0  0  0  0  0  0  0  0  0
   16.5470   -4.5915   10.4241 C   0  0  1  0  0  0  0  0  0  0  0  0
   22.0892   -1.3172    9.5062 O   0  0  0  0  0  0  0  0  0  0  0  0
   17.9001   -5.2119   10.7730 C   0  0  0  0  0  0  0  0  0  0  0  0
   20.8623    2.0256    8.6139 O   0  0  0  0  0  0  0  0  0  0  0  0
   19.0152   -4.3720   10.1431 C   0  0  1  0  0  0  0  0  0  0  0  0
   20.0258    1.7586   11.3514 O   0  0  0  0  0  0  0  0  0  0  0  0
   18.9451   -2.8894   10.5287 C   0  0  2  0  0  0  0  0  0  0  0  0
   15.8640    0.7733   12.9531 O   0  0  0  0  0  0  0  0  0  0  0  0
   21.0771   -1.7452   10.4362 C   0  0  1  0  0  0  0  0  0  0  0  0
   14.1813    1.6746   11.1218 O   0  0  0  0  0  0  0  0  0  0  0  0
   21.6781   -0.2475    8.6380 C   0  0  2  0  0  0  0  0  0  0  0  0
   22.8309    0.1041    7.6946 C   0  0  0  0  0  0  0  0  0  0  0  0
   21.3311    0.9849    9.4753 C   0  0  2  0  0  0  0  0  0  0  0  0
   20.2389    0.6364   10.4886 C   0  0  1  0  0  0  0  0  0  0  0  0
   20.6566   -0.5731   11.3292 C   0  0  1  0  0  0  0  0  0  0  0  0
   16.4377    1.0330   11.6697 C   0  0  2  0  0  0  0  0  0  0  0  0
   15.5539    1.9919   10.8776 C   0  0  1  0  0  0  0  0  0  0  0  0
  1  3  1  0  0  0  0
  4  1  1  1  0  0  0
  4  6  1  0  0  0  0
  4 31  1  0  0  0  0
  6  7  1  0  0  0  0
  7  9  1  1  0  0  0
  7 30  1  0  0  0  0
  8 26  1  0  0  0  0
 10  9  1  1  0  0  0
 10 13  1  0  0  0  0
 10 21  1  0  0  0  0
 13 12  1  6  0  0  0
 13 15  1  0  0  0  0
 15  2  1  1  0  0  0
 15 17  1  0  0  0  0
 16 25  1  0  0  0  0
 16 23  1  0  0  0  0
 17 19  1  0  0  0  0
 19  5  1  1  0  0  0
 19 21  1  0  0  0  0
 21 14  1  6  0  0  0
 23 14  1  6  0  0  0
 23 29  1  0  0  0  0
 25 26  1  6  0  0  0
 25 27  1  0  0  0  0
 27 18  1  6  0  0  0
 27 28  1  0  0  0  0
 28 20  1  1  0  0  0
 28 29  1  0  0  0  0
 29 11  1  6  0  0  0
 30 22  1  1  0  0  0
 30 31  1  0  0  0  0
 31 24  1  6  0  0  0
M  END
>  <CHROM.1>
-57.43440087,-72.04486655,-75.44806398,169.26521088,125.41854085,50.37448497
18.51830877,-0.80047445,10.26757679,3.01937296,-0.31438984,3.05346023

>  <Name>
ligand

>  <RI>
0

>  <Rbt.Current_Directory>
/home/itssahil/PROJECTS/Mol_Feturizer/New_Systems/rnas/3DVV

>  <Rbt.Executable>
rbdock ($Id: //depot/dev/client3/rdock/2013.1/src/exe/rbdock.cxx#4 $)

>  <Rbt.Library>
libRbt.so (2013.1, Build901 2013/11/27)

>  <Rbt.Parameter_File>
/export/apps/rDock/src/rDock_2013.1_src/data/scripts/dock_solv.prm

>  <Rbt.Receptor>
prm/blind_docking_80.prm

>  <SCORE>
7.83544

>  <SCORE.INTER>
2.0405

>  <SCORE.INTER.CONST>
1

>  <SCORE.INTER.POLAR>
0

>  <SCORE.INTER.ROT>
6

>  <SCORE.INTER.SOLV>
26.9478

>  <SCORE.INTER.VDW>
-15.2223

>  <SCORE.INTER.norm>
0.0658226

>  <SCORE.INTRA>
5.0517

>  <SCORE.INTRA.DIHEDRAL>
-0.994546

>  <SCORE.INTRA.DIHEDRAL.0>
10.8172

>  <SCORE.INTRA.POLAR>
0

>  <SCORE.INTRA.POLAR.0>
0

>  <SCORE.INTRA.REPUL>
0

>  <SCORE.INTRA.REPUL.0>
0

>  <SCORE.INTRA.SOLV>
2.37084

>  <SCORE.INTRA.SOLV.lig_0>
-80.3833

>  <SCORE.INTRA.VDW>
4.36355

>  <SCORE.INTRA.VDW.0>
-4.63762

>  <SCORE.INTRA.norm>
0.162958

>  <SCORE.RESTR>
0.74324

>  <SCORE.RESTR.CAVITY>
0.74324

>  <SCORE.RESTR.norm>
0.0239755

>  <SCORE.SYSTEM>
0

>  <SCORE.SYSTEM.CONST>
0

>  <SCORE.SYSTEM.DIHEDRAL>
0

>  <SCORE.SYSTEM.SOLV>
0

>  <SCORE.SYSTEM.norm>
0

>  <SCORE.heavy>
31

>  <SCORE.norm>
0.252756

>  <RMSD>
8.565

$$$$
ligand
 OpenBabel11021811473D
libRbt.so/2013.1/901 2013/11/27
 31 33  0  0  0  0  0  0  0  0999 V2000
   23.6445   -1.4931    8.1960 C   0  0  0  0  0  0  0  0  0  0  0  0
   16.6374   -3.7628   10.4883 N   0  0  0  0  0  0  0  0  0  0  0  0
   23.9847   -2.8597    8.4521 O   0  0  0  0  0  0  0  0  0  0  0  0
   22.1309   -1.3507    8.0177 C   0  0  1  0  0  0  0  0  0  0  0  0
   16.0796    1.0841   10.8045 N   0  0  0  0  0  0  0  0  0  0  0  0
   21.4451   -1.8354    9.1887 O   0  0  0  0  0  0  0  0  0  0  0  0
   20.5749   -0.7971    9.6729 C   0  0  1  0  0  0  0  0  0  0  0  0
   18.3404    6.3069   12.2323 N   0  0  0  0  0  0  0  0  0  0  0  0
   20.4586   -0.8256   11.1042 O   0  0  0  0  0  0  0  0  0  0  0  0
   19.1234   -1.0694   11.5710 C   0  0  2  0  0  0  0  0  0  0  0  0
   20.3357    0.3821   14.1638 N   0  0  0  0  0  0  0  0  0  0  0  0
   19.3479   -3.4502   11.2192 O   0  0  0  0  0  0  0  0  0  0  0  0
   18.5969   -2.2995   10.8226 C   0  0  1  0  0  0  0  0  0  0  0  0
   18.5716    1.2532   12.1891 O   0  0  0  0  0  0  0  0  0  0  0  0
   17.1172   -2.5318   11.1347 C   0  0  1  0  0  0  0  0  0  0  0  0
   19.9714    3.0505   11.5987 O   0  0  0  0  0  0  0  0  0  0  0  0
   16.3073   -1.3315   10.6440 C   0  0  0  0  0  0  0  0  0  0  0  0
   19.0246    5.0458   14.5310 O   0  0  0  0  0  0  0  0  0  0  0  0
   16.7655   -0.0764   11.3926 C   0  0  1  0  0  0  0  0  0  0  0  0
   20.4590    2.8472   15.7029 O   0  0  0  0  0  0  0  0  0  0  0  0
   18.2761    0.1684   11.2920 C   0  0  2  0  0  0  0  0  0  0  0  0
   20.4448    1.6239    9.2490 O   0  0  0  0  0  0  0  0  0  0  0  0
   19.9295    1.7188   12.1439 C   0  0  1  0  0  0  0  0  0  0  0  0
   20.6639    0.3176    6.9592 O   0  0  0  0  0  0  0  0  0  0  0  0
   19.2255    4.0206   12.3535 C   0  0  2  0  0  0  0  0  0  0  0  0
   19.3379    5.3841   11.6674 C   0  0  0  0  0  0  0  0  0  0  0  0
   19.8078    4.1274   13.7640 C   0  0  2  0  0  0  0  0  0  0  0  0
   19.7873    2.7559   14.4420 C   0  0  1  0  0  0  0  0  0  0  0  0
   20.4954    1.7174   13.5680 C   0  0  1  0  0  0  0  0  0  0  0  0
   21.3062    0.4833    9.2750 C   0  0  2  0  0  0  0  0  0  0  0  0
   21.7562    0.1258    7.8617 C   0  0  1  0  0  0  0  0  0  0  0  0
  1  3  1  0  0  0  0
  4  1  1  1  0  0  0
  4  6  1  0  0  0  0
  4 31  1  0  0  0  0
  6  7  1  0  0  0  0
  7  9  1  1  0  0  0
  7 30  1  0  0  0  0
  8 26  1  0  0  0  0
 10  9  1  6  0  0  0
 10 13  1  0  0  0  0
 10 21  1  0  0  0  0
 13 12  1  1  0  0  0
 13 15  1  0  0  0  0
 15  2  1  6  0  0  0
 15 17  1  0  0  0  0
 16 25  1  0  0  0  0
 16 23  1  0  0  0  0
 17 19  1  0  0  0  0
 19  5  1  6  0  0  0
 19 21  1  0  0  0  0
 21 14  1  1  0  0  0
 23 14  1  1  0  0  0
 23 29  1  0  0  0  0
 25 26  1  6  0  0  0
 25 27  1  0  0  0  0
 27 18  1  1  0  0  0
 27 28  1  0  0  0  0
 28 20  1  1  0  0  0
 28 29  1  0  0  0  0
 29 11  1  1  0  0  0
 30 22  1  6  0  0  0
 30 31  1  0  0  0  0
 31 24  1  6  0  0  0
M  END
>  <CHROM.1>
57.59638184,-118.09651419,49.95528866,112.38706090,60.15749914,166.74680695
19.71145917,0.60355589,11.14289465,-1.31513667,0.55879231,0.49757594

>  <Name>
ligand

>  <RI>
0

>  <Rbt.Current_Directory>
/home/itssahil/PROJECTS/Mol_Feturizer/New_Systems/rnas/3DVV

>  <Rbt.Executable>
rbdock ($Id: //depot/dev/client3/rdock/2013.1/src/exe/rbdock.cxx#4 $)

>  <Rbt.Library>
libRbt.so (2013.1, Build901 2013/11/27)

>  <Rbt.Parameter_File>
/export/apps/rDock/src/rDock_2013.1_src/data/scripts/dock_solv.prm

>  <Rbt.Receptor>
prm/blind_docking_60.prm

>  <SCORE>
-2.59134

>  <SCORE.INTER>
-7.03866

>  <SCORE.INTER.CONST>
1

>  <SCORE.INTER.POLAR>
0

>  <SCORE.INTER.ROT>
6

>  <SCORE.INTER.SOLV>
19.2054

>  <SCORE.INTER.VDW>
-18.6942

>  <SCORE.INTER.norm>
-0.227054

>  <SCORE.INTRA>
4.44733

>  <SCORE.INTRA.DIHEDRAL>
4.35075

>  <SCORE.INTRA.DIHEDRAL.0>
10.8172

>  <SCORE.INTRA.POLAR>
0

>  <SCORE.INTRA.POLAR.0>
0

>  <SCORE.INTRA.REPUL>
0

>  <SCORE.INTRA.REPUL.0>
0

>  <SCORE.INTRA.SOLV>
-1.50264

>  <SCORE.INTRA.SOLV.lig_0>
-80.3833

>  <SCORE.INTRA.VDW>
3.02327

>  <SCORE.INTRA.VDW.0>
-4.63762

>  <SCORE.INTRA.norm>
0.143462

>  <SCORE.RESTR>
0

>  <SCORE.RESTR.CAVITY>
0

>  <SCORE.RESTR.norm>
0

>  <SCORE.SYSTEM>
0

>  <SCORE.SYSTEM.CONST>
0

>  <SCORE.SYSTEM.DIHEDRAL>
0

>  <SCORE.SYSTEM.SOLV>
0

>  <SCORE.SYSTEM.norm>
0

>  <SCORE.heavy>
31

>  <SCORE.norm>
-0.0835915

>  <RMSD>
8.601

$$$$
ligand
 OpenBabel11021811473D
libRbt.so/2013.1/901 2013/11/27
 31 33  0  0  0  0  0  0  0  0999 V2000
   15.8042    3.4236   20.3624 C   0  0  0  0  0  0  0  0  0  0  0  0
    8.4908    7.5207   20.2510 N   0  0  0  0  0  0  0  0  0  0  0  0
   16.5797    2.4226   21.0297 O   0  0  0  0  0  0  0  0  0  0  0  0
   14.3533    3.3780   20.8485 C   0  0  1  0  0  0  0  0  0  0  0  0
   11.0602    8.9327   16.3385 N   0  0  0  0  0  0  0  0  0  0  0  0
   13.6132    4.4898   20.3077 O   0  0  0  0  0  0  0  0  0  0  0  0
   12.4515    3.9804   19.6289 C   0  0  1  0  0  0  0  0  0  0  0  0
   11.3720    4.1787   14.5179 N   0  0  0  0  0  0  0  0  0  0  0  0
   12.1029    4.7876   18.4932 O   0  0  0  0  0  0  0  0  0  0  0  0
   11.7584    6.1398   18.8288 C   0  0  2  0  0  0  0  0  0  0  0  0
   15.9658    7.5938   17.4797 N   0  0  0  0  0  0  0  0  0  0  0  0
   10.3307    5.4130   20.6388 O   0  0  0  0  0  0  0  0  0  0  0  0
   10.3339    6.1196   19.3954 C   0  0  1  0  0  0  0  0  0  0  0  0
   13.2144    7.2588   17.1829 O   0  0  0  0  0  0  0  0  0  0  0  0
    9.8210    7.5428   19.6238 C   0  0  1  0  0  0  0  0  0  0  0  0
   13.4837    5.1402   16.1945 O   0  0  0  0  0  0  0  0  0  0  0  0
    9.7564    8.2733   18.2822 C   0  0  0  0  0  0  0  0  0  0  0  0
   14.5286    6.5313   12.9619 O   0  0  0  0  0  0  0  0  0  0  0  0
   11.1657    8.3593   17.6888 C   0  0  1  0  0  0  0  0  0  0  0  0
   16.7120    7.2466   14.6898 O   0  0  0  0  0  0  0  0  0  0  0  0
   11.8541    6.9943   17.5684 C   0  0  2  0  0  0  0  0  0  0  0  0
   11.8234    1.7444   18.8142 O   0  0  0  0  0  0  0  0  0  0  0  0
   14.0550    6.0968   17.1060 C   0  0  1  0  0  0  0  0  0  0  0  0
   12.7343    1.5787   21.2922 O   0  0  0  0  0  0  0  0  0  0  0  0
   13.3256    5.6271   14.8509 C   0  0  2  0  0  0  0  0  0  0  0  0
   12.7003    4.5276   13.9892 C   0  0  0  0  0  0  0  0  0  0  0  0
   14.6957    5.9881   14.2742 C   0  0  2  0  0  0  0  0  0  0  0  0
   15.3809    7.0245   15.1673 C   0  0  1  0  0  0  0  0  0  0  0  0
   15.4410    6.5267   16.6138 C   0  0  1  0  0  0  0  0  0  0  0  0
   12.9140    2.6148   19.1249 C   0  0  2  0  0  0  0  0  0  0  0  0
   13.6704    2.1024   20.3469 C   0  0  1  0  0  0  0  0  0  0  0  0
  1  3  1  0  0  0  0
  4  1  1  6  0  0  0
  4  6  1  0  0  0  0
  4 31  1  0  0  0  0
  6  7  1  0  0  0  0
  7  9  1  6  0  0  0
  7 30  1  0  0  0  0
  8 26  1  0  0  0  0
 10  9  1  6  0  0  0
 10 13  1  0  0  0  0
 10 21  1  0  0  0  0
 13 12  1  1  0  0  0
 13 15  1  0  0  0  0
 15  2  1  6  0  0  0
 15 17  1  0  0  0  0
 16 25  1  0  0  0  0
 16 23  1  0  0  0  0
 17 19  1  0  0  0  0
 19  5  1  6  0  0  0
 19 21  1  0  0  0  0
 21 14  1  1  0  0  0
 23 14  1  6  0  0  0
 23 29  1  0  0  0  0
 25 26  1  6  0  0  0
 25 27  1  0  0  0  0
 27 18  1  6  0  0  0
 27 28  1  0  0  0  0
 28 20  1  6  0  0  0
 28 29  1  0  0  0  0
 29 11  1  1  0  0  0
 30 22  1  1  0  0  0
 30 31  1  0  0  0  0
 31 24  1  1  0  0  0
M  END
>  <CHROM.1>
172.70195222,-61.99479951,-77.19179442,56.61485767,50.53170348,61.30546537
12.97697453,5.42870954,17.87864943,-1.77183574,0.53105807,-0.90666112

>  <Name>
ligand

>  <RI>
0

>  <Rbt.Current_Directory>
/home/itssahil/PROJECTS/Mol_Feturizer/New_Systems/rnas/3DVV

>  <Rbt.Executable>
rbdock ($Id: //depot/dev/client3/rdock/2013.1/src/exe/rbdock.cxx#4 $)

>  <Rbt.Library>
libRbt.so (2013.1, Build901 2013/11/27)

>  <Rbt.Parameter_File>
/export/apps/rDock/src/rDock_2013.1_src/data/scripts/dock_solv.prm

>  <Rbt.Receptor>
prm/pocket_docking_8.prm

>  <SCORE>
-5.85514

>  <SCORE.INTER>
-2.303

>  <SCORE.INTER.CONST>
1

>  <SCORE.INTER.POLAR>
0

>  <SCORE.INTER.ROT>
6

>  <SCORE.INTER.SOLV>
16.7524

>  <SCORE.INTER.VDW>
-14.7195

>  <SCORE.INTER.norm>
-0.0742903

>  <SCORE.INTRA>
-3.55214

>  <SCORE.INTRA.DIHEDRAL>
-8.49426

>  <SCORE.INTRA.DIHEDRAL.0>
10.8172

>  <SCORE.INTRA.POLAR>
0

>  <SCORE.INTRA.POLAR.0>
0

>  <SCORE.INTRA.REPUL>
0

>  <SCORE.INTRA.REPUL.0>
0

>  <SCORE.INTRA.SOLV>
-4.27461

>  <SCORE.INTRA.SOLV.lig_0>
-80.3833

>  <SCORE.INTRA.VDW>
2.83229

>  <SCORE.INTRA.VDW.0>
-4.63762

>  <SCORE.INTRA.norm>
-0.114585

>  <SCORE.RESTR>
0

>  <SCORE.RESTR.CAVITY>
0

>  <SCORE.RESTR.norm>
0

>  <SCORE.SYSTEM>
0

>  <SCORE.SYSTEM.CONST>
0

>  <SCORE.SYSTEM.DIHEDRAL>
0

>  <SCORE.SYSTEM.SOLV>
0

>  <SCORE.SYSTEM.norm>
0

>  <SCORE.heavy>
31

>  <SCORE.norm>
-0.188876

>  <RMSD>
8.608

$$$$
ligand
 OpenBabel11021811473D
libRbt.so/2013.1/901 2013/11/27
 31 33  0  0  0  0  0  0  0  0999 V2000
   17.7639    1.8552   14.0915 C   0  0  0  0  0  0  0  0  0  0  0  0
   16.7845   -6.5060   10.7727 N   0  0  0  0  0  0  0  0  0  0  0  0
   18.9896    1.9827   14.8196 O   0  0  0  0  0  0  0  0  0  0  0  0
   18.0533    1.5270   12.6246 C   0  0  1  0  0  0  0  0  0  0  0  0
   20.9678   -4.5074    9.2207 N   0  0  0  0  0  0  0  0  0  0  0  0
   18.7074    0.2472   12.5216 O   0  0  0  0  0  0  0  0  0  0  0  0
   17.9540   -0.5813   11.6185 C   0  0  1  0  0  0  0  0  0  0  0  0
   24.6087   -2.6075    7.8294 N   0  0  0  0  0  0  0  0  0  0  0  0
   18.0094   -1.9661   11.9958 O   0  0  0  0  0  0  0  0  0  0  0  0
   17.9597   -2.8710   10.8829 C   0  0  2  0  0  0  0  0  0  0  0  0
   19.3756    0.8355    9.5442 N   0  0  0  0  0  0  0  0  0  0  0  0
   16.0031   -3.9806   11.7678 O   0  0  0  0  0  0  0  0  0  0  0  0
   17.3677   -4.1895   11.3942 C   0  0  1  0  0  0  0  0  0  0  0  0
   19.8398   -1.9124    9.6071 O   0  0  0  0  0  0  0  0  0  0  0  0
   17.4339   -5.2692   10.3122 C   0  0  1  0  0  0  0  0  0  0  0  0
   22.0580   -1.6164   10.3350 O   0  0  0  0  0  0  0  0  0  0  0  0
   18.8978   -5.5427    9.9663 C   0  0  0  0  0  0  0  0  0  0  0  0
   23.2554   -0.6236    7.0098 O   0  0  0  0  0  0  0  0  0  0  0  0
   19.5296   -4.2638    9.4089 C   0  0  1  0  0  0  0  0  0  0  0  0
   21.5366    1.5628    7.7381 O   0  0  0  0  0  0  0  0  0  0  0  0
   19.3744   -3.0574   10.3429 C   0  0  2  0  0  0  0  0  0  0  0  0
   15.6685   -0.4417   10.7156 O   0  0  0  0  0  0  0  0  0  0  0  0
   20.7332   -1.0532   10.3325 C   0  0  1  0  0  0  0  0  0  0  0  0
   16.8680    1.9063   10.5016 O   0  0  0  0  0  0  0  0  0  0  0  0
   22.6257   -1.7946    9.0261 C   0  0  2  0  0  0  0  0  0  0  0  0
   24.0208   -2.4089    9.1638 C   0  0  0  0  0  0  0  0  0  0  0  0
   22.7500   -0.4358    8.3343 C   0  0  2  0  0  0  0  0  0  0  0  0
   21.3791    0.2398    8.2617 C   0  0  1  0  0  0  0  0  0  0  0  0
   20.7492    0.3210    9.6547 C   0  0  1  0  0  0  0  0  0  0  0  0
   16.5209   -0.0881   11.8073 C   0  0  2  0  0  0  0  0  0  0  0  0
   16.7421    1.4212   11.8407 C   0  0  1  0  0  0  0  0  0  0  0  0
  1  3  1  0  0  0  0
  4  1  1  1  0  0  0
  4  6  1  0  0  0  0
  4 31  1  0  0  0  0
  6  7  1  0  0  0  0
  7  9  1  1  0  0  0
  7 30  1  0  0  0  0
  8 26  1  0  0  0  0
 10  9  1  1  0  0  0
 10 13  1  0  0  0  0
 10 21  1  0  0  0  0
 13 12  1  6  0  0  0
 13 15  1  0  0  0  0
 15  2  1  1  0  0  0
 15 17  1  0  0  0  0
 16 25  1  0  0  0  0
 16 23  1  0  0  0  0
 17 19  1  0  0  0  0
 19  5  1  1  0  0  0
 19 21  1  0  0  0  0
 21 14  1  6  0  0  0
 23 14  1  6  0  0  0
 23 29  1  0  0  0  0
 25 26  1  1  0  0  0
 25 27  1  0  0  0  0
 27 18  1  6  0  0  0
 27 28  1  0  0  0  0
 28 20  1  1  0  0  0
 28 29  1  0  0  0  0
 29 11  1  6  0  0  0
 30 22  1  6  0  0  0
 30 31  1  0  0  0  0
 31 24  1  6  0  0  0
M  END
>  <CHROM.1>
63.58244257,-147.72586211,-153.51358996,79.42135097,101.28691681,179.50618598
19.42755310,-1.37084048,10.44631758,-2.83535668,-0.55005742,-2.91548712

>  <Name>
ligand

>  <RI>
0

>  <Rbt.Current_Directory>
/home/itssahil/PROJECTS/Mol_Feturizer/New_Systems/rnas/3DVV

>  <Rbt.Executable>
rbdock ($Id: //depot/dev/client3/rdock/2013.1/src/exe/rbdock.cxx#4 $)

>  <Rbt.Library>
libRbt.so (2013.1, Build901 2013/11/27)

>  <Rbt.Parameter_File>
/export/apps/rDock/src/rDock_2013.1_src/data/scripts/dock_solv.prm

>  <Rbt.Receptor>
prm/blind_docking_100.prm

>  <SCORE>
2.65272

>  <SCORE.INTER>
-1.86073

>  <SCORE.INTER.CONST>
1

>  <SCORE.INTER.POLAR>
0

>  <SCORE.INTER.ROT>
6

>  <SCORE.INTER.SOLV>
19.9235

>  <SCORE.INTER.VDW>
-15.4817

>  <SCORE.INTER.norm>
-0.0600237

>  <SCORE.INTRA>
4.0639

>  <SCORE.INTRA.DIHEDRAL>
3.4561

>  <SCORE.INTRA.DIHEDRAL.0>
10.8172

>  <SCORE.INTRA.POLAR>
0

>  <SCORE.INTRA.POLAR.0>
0

>  <SCORE.INTRA.REPUL>
0

>  <SCORE.INTRA.REPUL.0>
0

>  <SCORE.INTRA.SOLV>
3.4957

>  <SCORE.INTRA.SOLV.lig_0>
-80.3833

>  <SCORE.INTRA.VDW>
0.588004

>  <SCORE.INTRA.VDW.0>
-4.63762

>  <SCORE.INTRA.norm>
0.131094

>  <SCORE.RESTR>
0.449551

>  <SCORE.RESTR.CAVITY>
0.449551

>  <SCORE.RESTR.norm>
0.0145016

>  <SCORE.SYSTEM>
0

>  <SCORE.SYSTEM.CONST>
0

>  <SCORE.SYSTEM.DIHEDRAL>
0

>  <SCORE.SYSTEM.SOLV>
0

>  <SCORE.SYSTEM.norm>
0

>  <SCORE.heavy>
31

>  <SCORE.norm>
0.0855716

>  <RMSD>
8.622

$$$$
ligand
 OpenBabel11021811473D
libRbt.so/2013.1/901 2013/11/27
 31 33  0  0  0  0  0  0  0  0999 V2000
   23.5311   -1.6761    8.1199 C   0  0  0  0  0  0  0  0  0  0  0  0
   17.2239   -4.1333   11.3921 N   0  0  0  0  0  0  0  0  0  0  0  0
   23.8806   -3.0479    8.3321 O   0  0  0  0  0  0  0  0  0  0  0  0
   22.0089   -1.5207    8.0732 C   0  0  1  0  0  0  0  0  0  0  0  0
   16.0380    0.6021   11.1226 N   0  0  0  0  0  0  0  0  0  0  0  0
   21.4333   -1.8846    9.3431 O   0  0  0  0  0  0  0  0  0  0  0  0
   20.6250   -0.7901    9.8105 C   0  0  1  0  0  0  0  0  0  0  0  0
   17.4012    5.3789   10.8148 N   0  0  0  0  0  0  0  0  0  0  0  0
   20.6461   -0.6874   11.2430 O   0  0  0  0  0  0  0  0  0  0  0  0
   19.3977   -1.0257   11.8653 C   0  0  2  0  0  0  0  0  0  0  0  0
   20.8988    0.6895   13.6651 N   0  0  0  0  0  0  0  0  0  0  0  0
   19.9159   -3.3860   11.8087 O   0  0  0  0  0  0  0  0  0  0  0  0
   18.9861   -2.4058   11.3395 C   0  0  1  0  0  0  0  0  0  0  0  0
   18.5854    1.2748   12.2241 O   0  0  0  0  0  0  0  0  0  0  0  0
   17.5813   -2.7728   11.8218 C   0  0  1  0  0  0  0  0  0  0  0  0
   19.4860    3.2936   11.4167 O   0  0  0  0  0  0  0  0  0  0  0  0
   16.5791   -1.7646   11.2590 C   0  0  0  0  0  0  0  0  0  0  0  0
   18.9793    5.0541   14.5979 O   0  0  0  0  0  0  0  0  0  0  0  0
   16.9200   -0.3685   11.7883 C   0  0  1  0  0  0  0  0  0  0  0  0
   20.9953    3.1164   15.2655 O   0  0  0  0  0  0  0  0  0  0  0  0
   18.3703    0.0449   11.5101 C   0  0  2  0  0  0  0  0  0  0  0  0
   20.4813    1.5851    9.1812 O   0  0  0  0  0  0  0  0  0  0  0  0
   19.7963    1.9665   11.8803 C   0  0  1  0  0  0  0  0  0  0  0  0
   20.4655    0.0741    7.0100 O   0  0  0  0  0  0  0  0  0  0  0  0
   18.8016    4.1106   12.3818 C   0  0  2  0  0  0  0  0  0  0  0  0
   18.5188    5.4832   11.7666 C   0  0  0  0  0  0  0  0  0  0  0  0
   19.6879    4.2947   13.6150 C   0  0  2  0  0  0  0  0  0  0  0  0
   20.0579    2.9301   14.1998 C   0  0  1  0  0  0  0  0  0  0  0  0
   20.6879    2.0411   13.1244 C   0  0  1  0  0  0  0  0  0  0  0  0
   21.3287    0.4348    9.2299 C   0  0  2  0  0  0  0  0  0  0  0  0
   21.6372   -0.0571    7.8190 C   0  0  1  0  0  0  0  0  0  0  0  0
  1  3  1  0  0  0  0
  4  1  1  1  0  0  0
  4  6  1  0  0  0  0
  4 31  1  0  0  0  0
  6  7  1  0  0  0  0
  7  9  1  1  0  0  0
  7 30  1  0  0  0  0
  8 26  1  0  0  0  0
 10  9  1  6  0  0  0
 10 13  1  0  0  0  0
 10 21  1  0  0  0  0
 13 12  1  1  0  0  0
 13 15  1  0  0  0  0
 15  2  1  6  0  0  0
 15 17  1  0  0  0  0
 16 25  1  0  0  0  0
 16 23  1  0  0  0  0
 17 19  1  0  0  0  0
 19  5  1  6  0  0  0
 19 21  1  0  0  0  0
 21 14  1  1  0  0  0
 23 14  1  1  0  0  0
 23 29  1  0  0  0  0
 25 26  1  6  0  0  0
 25 27  1  0  0  0  0
 27 18  1  1  0  0  0
 27 28  1  0  0  0  0
 28 20  1  1  0  0  0
 28 29  1  0  0  0  0
 29 11  1  1  0  0  0
 30 22  1  6  0  0  0
 30 31  1  0  0  0  0
 31 24  1  6  0  0  0
M  END
>  <CHROM.1>
63.45154182,-110.74128800,52.67550087,122.11245461,66.45404670,75.46110997
19.74322692,0.54512540,11.18334334,-1.21783707,0.67422026,0.34168243

>  <Name>
ligand

>  <RI>
0

>  <Rbt.Current_Directory>
/home/itssahil/PROJECTS/Mol_Feturizer/New_Systems/rnas/3DVV

>  <Rbt.Executable>
rbdock ($Id: //depot/dev/client3/rdock/2013.1/src/exe/rbdock.cxx#4 $)

>  <Rbt.Library>
libRbt.so (2013.1, Build901 2013/11/27)

>  <Rbt.Parameter_File>
/export/apps/rDock/src/rDock_2013.1_src/data/scripts/dock_solv.prm

>  <Rbt.Receptor>
prm/blind_docking_60.prm

>  <SCORE>
-1.68927

>  <SCORE.INTER>
-6.14848

>  <SCORE.INTER.CONST>
1

>  <SCORE.INTER.POLAR>
0

>  <SCORE.INTER.ROT>
6

>  <SCORE.INTER.SOLV>
22.0045

>  <SCORE.INTER.VDW>
-19.0338

>  <SCORE.INTER.norm>
-0.198338

>  <SCORE.INTRA>
4.443

>  <SCORE.INTRA.DIHEDRAL>
4.44429

>  <SCORE.INTRA.DIHEDRAL.0>
10.8172

>  <SCORE.INTRA.POLAR>
0

>  <SCORE.INTRA.POLAR.0>
0

>  <SCORE.INTRA.REPUL>
0.0544987

>  <SCORE.INTRA.REPUL.0>
0

>  <SCORE.INTRA.SOLV>
-1.66904

>  <SCORE.INTRA.SOLV.lig_0>
-80.3833

>  <SCORE.INTRA.VDW>
2.78288

>  <SCORE.INTRA.VDW.0>
-4.63762

>  <SCORE.INTRA.norm>
0.143323

>  <SCORE.RESTR>
0.016207

>  <SCORE.RESTR.CAVITY>
0.016207

>  <SCORE.RESTR.norm>
0.000522806

>  <SCORE.SYSTEM>
0

>  <SCORE.SYSTEM.CONST>
0

>  <SCORE.SYSTEM.DIHEDRAL>
0

>  <SCORE.SYSTEM.SOLV>
0

>  <SCORE.SYSTEM.norm>
0

>  <SCORE.heavy>
31

>  <SCORE.norm>
-0.0544926

>  <RMSD>
8.643

$$$$
ligand
 OpenBabel11021811473D
libRbt.so/2013.1/901 2013/11/27
 31 33  0  0  0  0  0  0  0  0999 V2000
   23.3218   -1.6890    8.4592 C   0  0  0  0  0  0  0  0  0  0  0  0
   18.9471   -4.3730   12.1126 N   0  0  0  0  0  0  0  0  0  0  0  0
   24.0873   -1.6731    7.2499 O   0  0  0  0  0  0  0  0  0  0  0  0
   21.8656   -1.3182    8.1668 C   0  0  1  0  0  0  0  0  0  0  0  0
   15.7288   -1.1879   10.2686 N   0  0  0  0  0  0  0  0  0  0  0  0
   21.0798   -1.4036    9.3716 O   0  0  0  0  0  0  0  0  0  0  0  0
   20.4128   -0.1451    9.5741 C   0  0  1  0  0  0  0  0  0  0  0  0
   20.3012    2.4726   14.9976 N   0  0  0  0  0  0  0  0  0  0  0  0
   20.2675    0.1611   10.9698 O   0  0  0  0  0  0  0  0  0  0  0  0
   19.2362   -0.5937   11.6230 C   0  0  2  0  0  0  0  0  0  0  0  0
   15.1683    2.5093   11.8950 N   0  0  0  0  0  0  0  0  0  0  0  0
   20.8155   -2.2689   12.3591 O   0  0  0  0  0  0  0  0  0  0  0  0
   19.6446   -2.0701   11.5623 C   0  0  1  0  0  0  0  0  0  0  0  0
   17.3736    0.9609   11.1812 O   0  0  0  0  0  0  0  0  0  0  0  0
   18.5205   -2.9657   12.0870 C   0  0  1  0  0  0  0  0  0  0  0  0
   18.4179    1.3210   13.2591 O   0  0  0  0  0  0  0  0  0  0  0  0
   17.2928   -2.8059   11.1899 C   0  0  0  0  0  0  0  0  0  0  0  0
   19.4572    4.7354   12.3999 O   0  0  0  0  0  0  0  0  0  0  0  0
   16.8154   -1.3518   11.2462 C   0  0  1  0  0  0  0  0  0  0  0  0
   16.5944    4.9635   12.5309 O   0  0  0  0  0  0  0  0  0  0  0  0
   17.9161   -0.3414   10.9008 C   0  0  2  0  0  0  0  0  0  0  0  0
   20.7498    2.1077    8.6416 O   0  0  0  0  0  0  0  0  0  0  0  0
   17.1547    1.2347   12.5740 C   0  0  1  0  0  0  0  0  0  0  0  0
   20.7593    0.3154    6.6960 O   0  0  0  0  0  0  0  0  0  0  0  0
   19.2875    2.3540   12.7653 C   0  0  2  0  0  0  0  0  0  0  0  0
   20.5940    2.3334   13.5622 C   0  0  0  0  0  0  0  0  0  0  0  0
   18.6174    3.7168   12.9497 C   0  0  2  0  0  0  0  0  0  0  0  0
   17.2654    3.7345   12.2334 C   0  0  1  0  0  0  0  0  0  0  0  0
   16.3987    2.5616   12.6994 C   0  0  1  0  0  0  0  0  0  0  0  0
   21.3797    0.8641    8.9582 C   0  0  2  0  0  0  0  0  0  0  0  0
   21.7794    0.1314    7.6809 C   0  0  1  0  0  0  0  0  0  0  0  0
  1  3  1  0  0  0  0
  4  1  1  1  0  0  0
  4  6  1  0  0  0  0
  4 31  1  0  0  0  0
  6  7  1  0  0  0  0
  7  9  1  1  0  0  0
  7 30  1  0  0  0  0
  8 26  1  0  0  0  0
 10  9  1  6  0  0  0
 10 13  1  0  0  0  0
 10 21  1  0  0  0  0
 13 12  1  1  0  0  0
 13 15  1  0  0  0  0
 15  2  1  6  0  0  0
 15 17  1  0  0  0  0
 16 25  1  0  0  0  0
 16 23  1  0  0  0  0
 17 19  1  0  0  0  0
 19  5  1  6  0  0  0
 19 21  1  0  0  0  0
 21 14  1  1  0  0  0
 23 14  1  6  0  0  0
 23 29  1  0  0  0  0
 25 26  1  1  0  0  0
 25 27  1  0  0  0  0
 27 18  1  6  0  0  0
 27 28  1  0  0  0  0
 28 20  1  1  0  0  0
 28 29  1  0  0  0  0
 29 11  1  6  0  0  0
 30 22  1  6  0  0  0
 30 31  1  0  0  0  0
 31 24  1  6  0  0  0
M  END
>  <CHROM.1>
176.94269634,-75.56692712,63.47323082,67.55858994,-57.01323838,-55.97414674
19.30539845,0.41948668,11.01061234,-0.74394110,0.66668823,0.16136121

>  <Name>
ligand

>  <RI>
0

>  <Rbt.Current_Directory>
/home/itssahil/PROJECTS/Mol_Feturizer/New_Systems/rnas/3DVV

>  <Rbt.Executable>
rbdock ($Id: //depot/dev/client3/rdock/2013.1/src/exe/rbdock.cxx#4 $)

>  <Rbt.Library>
libRbt.so (2013.1, Build901 2013/11/27)

>  <Rbt.Parameter_File>
/export/apps/rDock/src/rDock_2013.1_src/data/scripts/dock_solv.prm

>  <Rbt.Receptor>
prm/blind_docking_40.prm

>  <SCORE>
-6.91885

>  <SCORE.INTER>
-6.01504

>  <SCORE.INTER.CONST>
1

>  <SCORE.INTER.POLAR>
0

>  <SCORE.INTER.ROT>
6

>  <SCORE.INTER.SOLV>
20.9275

>  <SCORE.INTER.VDW>
-18.5858

>  <SCORE.INTER.norm>
-0.194033

>  <SCORE.INTRA>
-0.903816

>  <SCORE.INTRA.DIHEDRAL>
-8.99139

>  <SCORE.INTRA.DIHEDRAL.0>
10.8172

>  <SCORE.INTRA.POLAR>
0

>  <SCORE.INTRA.POLAR.0>
0

>  <SCORE.INTRA.REPUL>
0

>  <SCORE.INTRA.REPUL.0>
0

>  <SCORE.INTRA.SOLV>
-2.09182

>  <SCORE.INTRA.SOLV.lig_0>
-80.3833

>  <SCORE.INTRA.VDW>
4.63779

>  <SCORE.INTRA.VDW.0>
-4.63762

>  <SCORE.INTRA.norm>
-0.0291554

>  <SCORE.RESTR>
0

>  <SCORE.RESTR.CAVITY>
0

>  <SCORE.RESTR.norm>
0

>  <SCORE.SYSTEM>
0

>  <SCORE.SYSTEM.CONST>
0

>  <SCORE.SYSTEM.DIHEDRAL>
0

>  <SCORE.SYSTEM.SOLV>
0

>  <SCORE.SYSTEM.norm>
0

>  <SCORE.heavy>
31

>  <SCORE.norm>
-0.223189

>  <RMSD>
8.693

$$$$
ligand
 OpenBabel11021811473D
libRbt.so/2013.1/901 2013/11/27
 31 33  0  0  0  0  0  0  0  0999 V2000
   15.5560    2.9021   18.1816 C   0  0  0  0  0  0  0  0  0  0  0  0
    9.9404    8.2578   22.0444 N   0  0  0  0  0  0  0  0  0  0  0  0
   16.7512    3.4843   18.7119 O   0  0  0  0  0  0  0  0  0  0  0  0
   14.4056    3.0579   19.1794 C   0  0  1  0  0  0  0  0  0  0  0  0
   12.5868   10.7811   18.7989 N   0  0  0  0  0  0  0  0  0  0  0  0
   14.1263    4.4540   19.4014 O   0  0  0  0  0  0  0  0  0  0  0  0
   12.7317    4.6900   19.1383 C   0  0  1  0  0  0  0  0  0  0  0  0
   11.7007    9.3061   14.7556 N   0  0  0  0  0  0  0  0  0  0  0  0
   12.5079    5.9996   18.5925 O   0  0  0  0  0  0  0  0  0  0  0  0
   12.5871    7.0524   19.5647 C   0  0  2  0  0  0  0  0  0  0  0  0
   16.8275    7.5172   18.2700 N   0  0  0  0  0  0  0  0  0  0  0  0
   11.1132    5.8770   21.0774 O   0  0  0  0  0  0  0  0  0  0  0  0
   11.2510    7.0798   20.3160 C   0  0  1  0  0  0  0  0  0  0  0  0
   14.2103    8.4716   18.3679 O   0  0  0  0  0  0  0  0  0  0  0  0
   11.1836    8.2829   21.2588 C   0  0  1  0  0  0  0  0  0  0  0  0
   13.7920    7.8269   16.1436 O   0  0  0  0  0  0  0  0  0  0  0  0
   11.2581    9.5691   20.4355 C   0  0  0  0  0  0  0  0  0  0  0  0
   15.6767   10.6444   14.7344 O   0  0  0  0  0  0  0  0  0  0  0  0
   12.5972    9.6138   19.6936 C   0  0  1  0  0  0  0  0  0  0  0  0
   17.7341    9.0752   15.9872 O   0  0  0  0  0  0  0  0  0  0  0  0
   12.8551    8.3672   18.8384 C   0  0  2  0  0  0  0  0  0  0  0  0
   10.9988    3.3985   17.9607 O   0  0  0  0  0  0  0  0  0  0  0  0
   14.5596    7.5443   17.3282 C   0  0  1  0  0  0  0  0  0  0  0  0
   12.3231    1.8243   19.6237 O   0  0  0  0  0  0  0  0  0  0  0  0
   13.9966    9.1457   15.6087 C   0  0  2  0  0  0  0  0  0  0  0  0
   13.1199    9.3250   14.3671 C   0  0  0  0  0  0  0  0  0  0  0  0
   15.4632    9.3115   15.2065 C   0  0  2  0  0  0  0  0  0  0  0  0
   16.3676    9.0511   16.4129 C   0  0  1  0  0  0  0  0  0  0  0  0
   16.0559    7.6847   17.0290 C   0  0  1  0  0  0  0  0  0  0  0  0
   12.4010    3.6574   18.0627 C   0  0  2  0  0  0  0  0  0  0  0  0
   13.1281    2.4333   18.6111 C   0  0  1  0  0  0  0  0  0  0  0  0
  1  3  1  0  0  0  0
  4  1  1  6  0  0  0
  4  6  1  0  0  0  0
  4 31  1  0  0  0  0
  6  7  1  0  0  0  0
  7  9  1  6  0  0  0
  7 30  1  0  0  0  0
  8 26  1  0  0  0  0
 10  9  1  6  0  0  0
 10 13  1  0  0  0  0
 10 21  1  0  0  0  0
 13 12  1  1  0  0  0
 13 15  1  0  0  0  0
 15  2  1  6  0  0  0
 15 17  1  0  0  0  0
 16 25  1  0  0  0  0
 16 23  1  0  0  0  0
 17 19  1  0  0  0  0
 19  5  1  6  0  0  0
 19 21  1  0  0  0  0
 21 14  1  1  0  0  0
 23 14  1  1  0  0  0
 23 29  1  0  0  0  0
 25 26  1  6  0  0  0
 25 27  1  0  0  0  0
 27 18  1  1  0  0  0
 27 28  1  0  0  0  0
 28 20  1  6  0  0  0
 28 29  1  0  0  0  0
 29 11  1  1  0  0  0
 30 22  1  1  0  0  0
 30 31  1  0  0  0  0
 31 24  1  1  0  0  0
M  END
>  <CHROM.1>
62.40980501,-75.97495503,-79.86296592,64.98950873,66.82780672,66.29250273
13.55937741,6.92006873,18.17450653,-2.00901423,0.68311075,-0.27769787

>  <Name>
ligand

>  <RI>
0

>  <Rbt.Current_Directory>
/home/itssahil/PROJECTS/Mol_Feturizer/New_Systems/rnas/3DVV

>  <Rbt.Executable>
rbdock ($Id: //depot/dev/client3/rdock/2013.1/src/exe/rbdock.cxx#4 $)

>  <Rbt.Library>
libRbt.so (2013.1, Build901 2013/11/27)

>  <Rbt.Parameter_File>
/export/apps/rDock/src/rDock_2013.1_src/data/scripts/dock_solv.prm

>  <Rbt.Receptor>
prm/pocket_docking_7.prm

>  <SCORE>
-2.60231

>  <SCORE.INTER>
1.33027

>  <SCORE.INTER.CONST>
1

>  <SCORE.INTER.POLAR>
0

>  <SCORE.INTER.ROT>
6

>  <SCORE.INTER.SOLV>
9.32389

>  <SCORE.INTER.VDW>
-9.82112

>  <SCORE.INTER.norm>
0.0429118

>  <SCORE.INTRA>
-3.93346

>  <SCORE.INTRA.DIHEDRAL>
-7.12248

>  <SCORE.INTRA.DIHEDRAL.0>
10.8172

>  <SCORE.INTRA.POLAR>
0

>  <SCORE.INTRA.POLAR.0>
0

>  <SCORE.INTRA.REPUL>
0

>  <SCORE.INTRA.REPUL.0>
0

>  <SCORE.INTRA.SOLV>
-4.05825

>  <SCORE.INTRA.SOLV.lig_0>
-80.3833

>  <SCORE.INTRA.VDW>
1.65691

>  <SCORE.INTRA.VDW.0>
-4.63762

>  <SCORE.INTRA.norm>
-0.126886

>  <SCORE.RESTR>
0.000881296

>  <SCORE.RESTR.CAVITY>
0.000881296

>  <SCORE.RESTR.norm>
2.84289e-05

>  <SCORE.SYSTEM>
0

>  <SCORE.SYSTEM.CONST>
0

>  <SCORE.SYSTEM.DIHEDRAL>
0

>  <SCORE.SYSTEM.SOLV>
0

>  <SCORE.SYSTEM.norm>
0

>  <SCORE.heavy>
31

>  <SCORE.norm>
-0.0839455

>  <RMSD>
8.709

$$$$
ligand
 OpenBabel11021811473D
libRbt.so/2013.1/901 2013/11/27
 31 33  0  0  0  0  0  0  0  0999 V2000
   14.7453    2.4289   16.8634 C   0  0  0  0  0  0  0  0  0  0  0  0
   14.9787    8.4340   22.4687 N   0  0  0  0  0  0  0  0  0  0  0  0
   14.0559    3.2467   15.9123 O   0  0  0  0  0  0  0  0  0  0  0  0
   14.3023    2.7852   18.2847 C   0  0  1  0  0  0  0  0  0  0  0  0
   14.8203   10.6494   18.1132 N   0  0  0  0  0  0  0  0  0  0  0  0
   14.5505    4.1802   18.5473 O   0  0  0  0  0  0  0  0  0  0  0  0
   13.3221    4.7905   18.9814 C   0  0  1  0  0  0  0  0  0  0  0  0
   10.5970    9.6780   16.8159 N   0  0  0  0  0  0  0  0  0  0  0  0
   13.2262    6.1572   18.5504 O   0  0  0  0  0  0  0  0  0  0  0  0
   14.3129    6.9818   18.9967 C   0  0  2  0  0  0  0  0  0  0  0  0
   15.9415    6.7604   14.6891 N   0  0  0  0  0  0  0  0  0  0  0  0
   14.2455    6.0136   21.2104 O   0  0  0  0  0  0  0  0  0  0  0  0
   14.1022    7.2424   20.4927 C   0  0  1  0  0  0  0  0  0  0  0  0
   14.7774    8.0915   16.8440 O   0  0  0  0  0  0  0  0  0  0  0  0
   15.1242    8.2534   21.0162 C   0  0  1  0  0  0  0  0  0  0  0  0
   12.6113    7.8140   15.9668 O   0  0  0  0  0  0  0  0  0  0  0  0
   14.9212    9.5881   20.2987 C   0  0  0  0  0  0  0  0  0  0  0  0
   13.0431   10.4607   13.4599 O   0  0  0  0  0  0  0  0  0  0  0  0
   15.1617    9.3937   18.7987 C   0  0  1  0  0  0  0  0  0  0  0  0
   14.8814    8.4401   12.5642 O   0  0  0  0  0  0  0  0  0  0  0  0
   14.3052    8.2768   18.1900 C   0  0  2  0  0  0  0  0  0  0  0  0
   10.9628    4.1011   18.8532 O   0  0  0  0  0  0  0  0  0  0  0  0
   13.9405    7.2637   16.0211 C   0  0  1  0  0  0  0  0  0  0  0  0
   12.4418    2.0952   19.7401 O   0  0  0  0  0  0  0  0  0  0  0  0
   12.5448    9.1426   15.4214 C   0  0  2  0  0  0  0  0  0  0  0  0
   11.0895    9.6163   15.4305 C   0  0  0  0  0  0  0  0  0  0  0  0
   13.0509    9.1278   13.9779 C   0  0  2  0  0  0  0  0  0  0  0  0
   14.4768    8.5750   13.9307 C   0  0  1  0  0  0  0  0  0  0  0  0
   14.5418    7.2059   14.6128 C   0  0  1  0  0  0  0  0  0  0  0  0
   12.2536    3.9796   18.2511 C   0  0  2  0  0  0  0  0  0  0  0  0
   12.7946    2.5650   18.4365 C   0  0  1  0  0  0  0  0  0  0  0  0
  1  3  1  0  0  0  0
  4  1  1  6  0  0  0
  4  6  1  0  0  0  0
  4 31  1  0  0  0  0
  6  7  1  0  0  0  0
  7  9  1  6  0  0  0
  7 30  1  0  0  0  0
  8 26  1  0  0  0  0
 10  9  1  6  0  0  0
 10 13  1  0  0  0  0
 10 21  1  0  0  0  0
 13 12  1  1  0  0  0
 13 15  1  0  0  0  0
 15  2  1  1  0  0  0
 15 17  1  0  0  0  0
 16 25  1  0  0  0  0
 16 23  1  0  0  0  0
 17 19  1  0  0  0  0
 19  5  1  6  0  0  0
 19 21  1  0  0  0  0
 21 14  1  6  0  0  0
 23 14  1  1  0  0  0
 23 29  1  0  0  0  0
 25 26  1  6  0  0  0
 25 27  1  0  0  0  0
 27 18  1  1  0  0  0
 27 28  1  0  0  0  0
 28 20  1  6  0  0  0
 28 29  1  0  0  0  0
 29 11  1  1  0  0  0
 30 22  1  1  0  0  0
 30 31  1  0  0  0  0
 31 24  1  1  0  0  0
M  END
>  <CHROM.1>
-57.93273433,-57.40732880,-73.95588075,57.47277614,65.76447973,62.31881757
13.72980540,6.84646060,17.45973770,1.61963157,1.42449588,2.38427154

>  <Name>
ligand

>  <RI>
0

>  <Rbt.Current_Directory>
/home/itssahil/PROJECTS/Mol_Feturizer/New_Systems/rnas/3DVV

>  <Rbt.Executable>
rbdock ($Id: //depot/dev/client3/rdock/2013.1/src/exe/rbdock.cxx#4 $)

>  <Rbt.Library>
libRbt.so (2013.1, Build901 2013/11/27)

>  <Rbt.Parameter_File>
/export/apps/rDock/src/rDock_2013.1_src/data/scripts/dock_solv.prm

>  <Rbt.Receptor>
prm/pocket_docking_8.prm

>  <SCORE>
-6.55695

>  <SCORE.INTER>
-2.36927

>  <SCORE.INTER.CONST>
1

>  <SCORE.INTER.POLAR>
0

>  <SCORE.INTER.ROT>
6

>  <SCORE.INTER.SOLV>
9.30693

>  <SCORE.INTER.VDW>
-12.2818

>  <SCORE.INTER.norm>
-0.0764282

>  <SCORE.INTRA>
-4.18768

>  <SCORE.INTRA.DIHEDRAL>
-9.36636

>  <SCORE.INTRA.DIHEDRAL.0>
10.8172

>  <SCORE.INTRA.POLAR>
0

>  <SCORE.INTRA.POLAR.0>
0

>  <SCORE.INTRA.REPUL>
0

>  <SCORE.INTRA.REPUL.0>
0

>  <SCORE.INTRA.SOLV>
-3.49113

>  <SCORE.INTRA.SOLV.lig_0>
-80.3833

>  <SCORE.INTRA.VDW>
2.24107

>  <SCORE.INTRA.VDW.0>
-4.63762

>  <SCORE.INTRA.norm>
-0.135086

>  <SCORE.RESTR>
0

>  <SCORE.RESTR.CAVITY>
0

>  <SCORE.RESTR.norm>
0

>  <SCORE.SYSTEM>
0

>  <SCORE.SYSTEM.CONST>
0

>  <SCORE.SYSTEM.DIHEDRAL>
0

>  <SCORE.SYSTEM.SOLV>
0

>  <SCORE.SYSTEM.norm>
0

>  <SCORE.heavy>
31

>  <SCORE.norm>
-0.211514

>  <RMSD>
8.716

$$$$
ligand
 OpenBabel11021811473D
libRbt.so/2013.1/901 2013/11/27
 31 33  0  0  0  0  0  0  0  0999 V2000
   14.8026    2.4541   16.8881 C   0  0  0  0  0  0  0  0  0  0  0  0
   14.9496    8.3248   22.6238 N   0  0  0  0  0  0  0  0  0  0  0  0
   14.1128    3.2776   15.9421 O   0  0  0  0  0  0  0  0  0  0  0  0
   14.3364    2.7795   18.3094 C   0  0  1  0  0  0  0  0  0  0  0  0
   14.8320   10.6503   18.3248 N   0  0  0  0  0  0  0  0  0  0  0  0
   14.5774    4.1690   18.6053 O   0  0  0  0  0  0  0  0  0  0  0  0
   13.3411    4.7679   19.0327 C   0  0  1  0  0  0  0  0  0  0  0  0
   10.5619    9.5189   17.0244 N   0  0  0  0  0  0  0  0  0  0  0  0
   13.2492    6.1432   18.6292 O   0  0  0  0  0  0  0  0  0  0  0  0
   14.3279    6.9597   19.1086 C   0  0  2  0  0  0  0  0  0  0  0  0
   16.0323    6.9103   14.7982 N   0  0  0  0  0  0  0  0  0  0  0  0
   14.2392    5.9350   21.2960 O   0  0  0  0  0  0  0  0  0  0  0  0
   14.0995    7.1812   20.6083 C   0  0  1  0  0  0  0  0  0  0  0  0
   14.8124    8.1256   16.9904 O   0  0  0  0  0  0  0  0  0  0  0  0
   15.1120    8.1819   21.1689 C   0  0  1  0  0  0  0  0  0  0  0  0
   12.6588    7.7532   16.1179 O   0  0  0  0  0  0  0  0  0  0  0  0
   14.9123    9.5338   20.4835 C   0  0  0  0  0  0  0  0  0  0  0  0
   12.9322   10.4780   13.6731 O   0  0  0  0  0  0  0  0  0  0  0  0
   15.1702    9.3787   18.9818 C   0  0  1  0  0  0  0  0  0  0  0  0
   14.8702    8.5807   12.7196 O   0  0  0  0  0  0  0  0  0  0  0  0
   14.3246    8.2749   18.3352 C   0  0  2  0  0  0  0  0  0  0  0  0
   10.9855    4.0773   18.8524 O   0  0  0  0  0  0  0  0  0  0  0  0
   14.0158    7.2738   16.1521 C   0  0  1  0  0  0  0  0  0  0  0  0
   12.4544    2.0556   19.7201 O   0  0  0  0  0  0  0  0  0  0  0  0
   12.5178    9.0889   15.6049 C   0  0  2  0  0  0  0  0  0  0  0  0
   11.0393    9.4835   15.6328 C   0  0  0  0  0  0  0  0  0  0  0  0
   13.0146    9.1355   14.1588 C   0  0  2  0  0  0  0  0  0  0  0  0
   14.4678    8.6613   14.0911 C   0  0  1  0  0  0  0  0  0  0  0  0
   14.6102    7.2819   14.7398 C   0  0  1  0  0  0  0  0  0  0  0  0
   12.2860    3.9707   18.2685 C   0  0  2  0  0  0  0  0  0  0  0  0
   12.8268    2.5535   18.4325 C   0  0  1  0  0  0  0  0  0  0  0  0
  1  3  1  0  0  0  0
  4  1  1  6  0  0  0
  4  6  1  0  0  0  0
  4 31  1  0  0  0  0
  6  7  1  0  0  0  0
  7  9  1  6  0  0  0
  7 30  1  0  0  0  0
  8 26  1  0  0  0  0
 10  9  1  6  0  0  0
 10 13  1  0  0  0  0
 10 21  1  0  0  0  0
 13 12  1  1  0  0  0
 13 15  1  0  0  0  0
 15  2  1  1  0  0  0
 15 17  1  0  0  0  0
 16 25  1  0  0  0  0
 16 23  1  0  0  0  0
 17 19  1  0  0  0  0
 19  5  1  6  0  0  0
 19 21  1  0  0  0  0
 21 14  1  6  0  0  0
 23 14  1  1  0  0  0
 23 29  1  0  0  0  0
 25 26  1  6  0  0  0
 25 27  1  0  0  0  0
 27 18  1  1  0  0  0
 27 28  1  0  0  0  0
 28 20  1  6  0  0  0
 28 29  1  0  0  0  0
 29 11  1  1  0  0  0
 30 22  1  1  0  0  0
 30 31  1  0  0  0  0
 31 24  1  1  0  0  0
M  END
>  <CHROM.1>
-58.74822623,-57.33129520,-73.61688305,56.27183097,63.43391303,63.73704444
13.74087913,6.83460057,17.57396038,1.60728563,1.42167264,2.41070326

>  <Name>
ligand

>  <RI>
0

>  <Rbt.Current_Directory>
/home/itssahil/PROJECTS/Mol_Feturizer/New_Systems/rnas/3DVV

>  <Rbt.Executable>
rbdock ($Id: //depot/dev/client3/rdock/2013.1/src/exe/rbdock.cxx#4 $)

>  <Rbt.Library>
libRbt.so (2013.1, Build901 2013/11/27)

>  <Rbt.Parameter_File>
/export/apps/rDock/src/rDock_2013.1_src/data/scripts/dock_solv.prm

>  <Rbt.Receptor>
prm/pocket_docking_8.prm

>  <SCORE>
-6.75985

>  <SCORE.INTER>
-2.56196

>  <SCORE.INTER.CONST>
1

>  <SCORE.INTER.POLAR>
0

>  <SCORE.INTER.ROT>
6

>  <SCORE.INTER.SOLV>
8.94379

>  <SCORE.INTER.VDW>
-12.2892

>  <SCORE.INTER.norm>
-0.0826439

>  <SCORE.INTRA>
-4.19789

>  <SCORE.INTRA.DIHEDRAL>
-9.45084

>  <SCORE.INTRA.DIHEDRAL.0>
10.8172

>  <SCORE.INTRA.POLAR>
0

>  <SCORE.INTRA.POLAR.0>
0

>  <SCORE.INTRA.REPUL>
0

>  <SCORE.INTRA.REPUL.0>
0

>  <SCORE.INTRA.SOLV>
-3.59956

>  <SCORE.INTRA.SOLV.lig_0>
-80.3833

>  <SCORE.INTRA.VDW>
2.32731

>  <SCORE.INTRA.VDW.0>
-4.63762

>  <SCORE.INTRA.norm>
-0.135416

>  <SCORE.RESTR>
0

>  <SCORE.RESTR.CAVITY>
0

>  <SCORE.RESTR.norm>
0

>  <SCORE.SYSTEM>
0

>  <SCORE.SYSTEM.CONST>
0

>  <SCORE.SYSTEM.DIHEDRAL>
0

>  <SCORE.SYSTEM.SOLV>
0

>  <SCORE.SYSTEM.norm>
0

>  <SCORE.heavy>
31

>  <SCORE.norm>
-0.21806

>  <RMSD>
8.719

$$$$
ligand
 OpenBabel11021811473D
libRbt.so/2013.1/901 2013/11/27
 31 33  0  0  0  0  0  0  0  0999 V2000
   22.6709   -2.2736    7.6051 C   0  0  0  0  0  0  0  0  0  0  0  0
   17.2715   -4.2501   11.4686 N   0  0  0  0  0  0  0  0  0  0  0  0
   22.5444   -3.6981    7.6663 O   0  0  0  0  0  0  0  0  0  0  0  0
   21.2974   -1.6151    7.7568 C   0  0  1  0  0  0  0  0  0  0  0  0
   15.9733    0.4635   11.4456 N   0  0  0  0  0  0  0  0  0  0  0  0
   20.7499   -1.9023    9.0584 O   0  0  0  0  0  0  0  0  0  0  0  0
   20.4131   -0.6588    9.6987 C   0  0  1  0  0  0  0  0  0  0  0  0
   17.1014    5.1141   10.8406 N   0  0  0  0  0  0  0  0  0  0  0  0
   20.5984   -0.7261   11.1214 O   0  0  0  0  0  0  0  0  0  0  0  0
   19.4171   -1.1093   11.8408 C   0  0  2  0  0  0  0  0  0  0  0  0
   21.0645    0.7723   13.5706 N   0  0  0  0  0  0  0  0  0  0  0  0
   19.9745   -3.4550   11.6686 O   0  0  0  0  0  0  0  0  0  0  0  0
   18.9877   -2.4830   11.3125 C   0  0  1  0  0  0  0  0  0  0  0  0
   18.5947    1.1617   12.3381 O   0  0  0  0  0  0  0  0  0  0  0  0
   17.6387   -2.8945   11.9054 C   0  0  1  0  0  0  0  0  0  0  0  0
   19.2769    3.2121   11.4063 O   0  0  0  0  0  0  0  0  0  0  0  0
   16.5710   -1.8935   11.4633 C   0  0  0  0  0  0  0  0  0  0  0  0
   18.9424    5.0244   14.5812 O   0  0  0  0  0  0  0  0  0  0  0  0
   16.9298   -0.5055   12.0019 C   0  0  1  0  0  0  0  0  0  0  0  0
   21.1394    3.2446   15.1013 O   0  0  0  0  0  0  0  0  0  0  0  0
   18.3413   -0.0524   11.6095 C   0  0  2  0  0  0  0  0  0  0  0  0
   21.0378    1.6818    9.2637 O   0  0  0  0  0  0  0  0  0  0  0  0
   19.7187    1.9222   11.8682 C   0  0  1  0  0  0  0  0  0  0  0  0
   20.3062    0.5093    7.0081 O   0  0  0  0  0  0  0  0  0  0  0  0
   18.6287    4.0088   12.4125 C   0  0  2  0  0  0  0  0  0  0  0  0
   18.1973    5.3416   11.7961 C   0  0  0  0  0  0  0  0  0  0  0  0
   19.6090    4.2863   13.5536 C   0  0  2  0  0  0  0  0  0  0  0  0
   20.1237    2.9664   14.1316 C   0  0  1  0  0  0  0  0  0  0  0  0
   20.7127    2.0911   13.0222 C   0  0  1  0  0  0  0  0  0  0  0  0
   21.4389    0.3167    9.1254 C   0  0  2  0  0  0  0  0  0  0  0  0
   21.4298   -0.0928    7.6557 C   0  0  1  0  0  0  0  0  0  0  0  0
  1  3  1  0  0  0  0
  4  1  1  1  0  0  0
  4  6  1  0  0  0  0
  4 31  1  0  0  0  0
  6  7  1  0  0  0  0
  7  9  1  1  0  0  0
  7 30  1  0  0  0  0
  8 26  1  0  0  0  0
 10  9  1  6  0  0  0
 10 13  1  0  0  0  0
 10 21  1  0  0  0  0
 13 12  1  1  0  0  0
 13 15  1  0  0  0  0
 15  2  1  6  0  0  0
 15 17  1  0  0  0  0
 16 25  1  0  0  0  0
 16 23  1  0  0  0  0
 17 19  1  0  0  0  0
 19  5  1  6  0  0  0
 19 21  1  0  0  0  0
 21 14  1  1  0  0  0
 23 14  1  1  0  0  0
 23 29  1  0  0  0  0
 25 26  1  6  0  0  0
 25 27  1  0  0  0  0
 27 18  1  1  0  0  0
 27 28  1  0  0  0  0
 28 20  1  1  0  0  0
 28 29  1  0  0  0  0
 29 11  1  1  0  0  0
 30 22  1  6  0  0  0
 30 31  1  0  0  0  0
 31 24  1  6  0  0  0
M  END
>  <CHROM.1>
63.78027235,-92.41940792,58.61708372,117.73625222,69.31237389,69.28118266
19.60312751,0.47046788,11.12431290,-1.26354448,0.82525889,0.35055941

>  <Name>
ligand

>  <RI>
0

>  <Rbt.Current_Directory>
/home/itssahil/PROJECTS/Mol_Feturizer/New_Systems/rnas/3DVV

>  <Rbt.Executable>
rbdock ($Id: //depot/dev/client3/rdock/2013.1/src/exe/rbdock.cxx#4 $)

>  <Rbt.Library>
libRbt.so (2013.1, Build901 2013/11/27)

>  <Rbt.Parameter_File>
/export/apps/rDock/src/rDock_2013.1_src/data/scripts/dock_solv.prm

>  <Rbt.Receptor>
prm/blind_docking_60.prm

>  <SCORE>
-1.64671

>  <SCORE.INTER>
-3.97883

>  <SCORE.INTER.CONST>
1

>  <SCORE.INTER.POLAR>
0

>  <SCORE.INTER.ROT>
6

>  <SCORE.INTER.SOLV>
21.062

>  <SCORE.INTER.VDW>
-17.2732

>  <SCORE.INTER.norm>
-0.128349

>  <SCORE.INTRA>
2.29885

>  <SCORE.INTRA.DIHEDRAL>
1.28491

>  <SCORE.INTRA.DIHEDRAL.0>
10.8172

>  <SCORE.INTRA.POLAR>
0

>  <SCORE.INTRA.POLAR.0>
0

>  <SCORE.INTRA.REPUL>
0.0553085

>  <SCORE.INTRA.REPUL.0>
0

>  <SCORE.INTRA.SOLV>
-2.02444

>  <SCORE.INTRA.SOLV.lig_0>
-80.3833

>  <SCORE.INTRA.VDW>
2.39207

>  <SCORE.INTRA.VDW.0>
-4.63762

>  <SCORE.INTRA.norm>
0.0741564

>  <SCORE.RESTR>
0.0332726

>  <SCORE.RESTR.CAVITY>
0.0332726

>  <SCORE.RESTR.norm>
0.00107331

>  <SCORE.SYSTEM>
0

>  <SCORE.SYSTEM.CONST>
0

>  <SCORE.SYSTEM.DIHEDRAL>
0

>  <SCORE.SYSTEM.SOLV>
0

>  <SCORE.SYSTEM.norm>
0

>  <SCORE.heavy>
31

>  <SCORE.norm>
-0.0531196

>  <RMSD>
8.732

$$$$
ligand
 OpenBabel11021811473D
libRbt.so/2013.1/901 2013/11/27
 31 33  0  0  0  0  0  0  0  0999 V2000
   18.9372   -4.9092    9.6880 C   0  0  0  0  0  0  0  0  0  0  0  0
   22.5620   -1.5451    8.1731 N   0  0  0  0  0  0  0  0  0  0  0  0
   20.1810   -5.5577    9.9731 O   0  0  0  0  0  0  0  0  0  0  0  0
   18.3037   -4.3912   10.9817 C   0  0  1  0  0  0  0  0  0  0  0  0
   20.5327    2.7955    9.1454 N   0  0  0  0  0  0  0  0  0  0  0  0
   19.1698   -3.4234   11.6060 O   0  0  0  0  0  0  0  0  0  0  0  0
   18.4239   -2.2123   11.8214 C   0  0  1  0  0  0  0  0  0  0  0  0
   19.0282    3.9293   14.6211 N   0  0  0  0  0  0  0  0  0  0  0  0
   19.2546   -1.0471   11.6974 O   0  0  0  0  0  0  0  0  0  0  0  0
   19.5345   -0.6786   10.3388 C   0  0  2  0  0  0  0  0  0  0  0  0
   15.5221    1.3594   10.4883 N   0  0  0  0  0  0  0  0  0  0  0  0
   20.7109   -2.7508    9.9333 O   0  0  0  0  0  0  0  0  0  0  0  0
   20.8687   -1.3296    9.9561 C   0  0  1  0  0  0  0  0  0  0  0  0
   18.3032    1.4580   10.3269 O   0  0  0  0  0  0  0  0  0  0  0  0
   21.3293   -0.8520    8.5775 C   0  0  1  0  0  0  0  0  0  0  0  0
   18.5020    2.1659   12.5623 O   0  0  0  0  0  0  0  0  0  0  0  0
   21.5674    0.6575    8.6241 C   0  0  0  0  0  0  0  0  0  0  0  0
   17.4794    5.6082   11.8000 O   0  0  0  0  0  0  0  0  0  0  0  0
   20.2511    1.3635    8.9627 C   0  0  1  0  0  0  0  0  0  0  0  0
   15.0732    4.1137   11.3084 O   0  0  0  0  0  0  0  0  0  0  0  0
   19.6013    0.8432   10.2506 C   0  0  2  0  0  0  0  0  0  0  0  0
   16.2991   -1.3605   10.9169 O   0  0  0  0  0  0  0  0  0  0  0  0
   17.6965    1.4237   11.6282 C   0  0  1  0  0  0  0  0  0  0  0  0
   16.0063   -3.8720   11.6946 O   0  0  0  0  0  0  0  0  0  0  0  0
   18.6743    3.5521   12.2216 C   0  0  2  0  0  0  0  0  0  0  0  0
   19.5548    4.2228   13.2786 C   0  0  0  0  0  0  0  0  0  0  0  0
   17.3110    4.2459   12.2010 C   0  0  2  0  0  0  0  0  0  0  0  0
   16.3808    3.5389   11.2132 C   0  0  1  0  0  0  0  0  0  0  0  0
   16.2985    2.0441   11.5333 C   0  0  1  0  0  0  0  0  0  0  0  0
   17.4203   -2.2123   10.6701 C   0  0  2  0  0  0  0  0  0  0  0  0
   16.9861   -3.6750   10.6720 C   0  0  1  0  0  0  0  0  0  0  0  0
  1  3  1  0  0  0  0
  4  1  1  6  0  0  0
  4  6  1  0  0  0  0
  4 31  1  0  0  0  0
  6  7  1  0  0  0  0
  7  9  1  6  0  0  0
  7 30  1  0  0  0  0
  8 26  1  0  0  0  0
 10  9  1  1  0  0  0
 10 13  1  0  0  0  0
 10 21  1  0  0  0  0
 13 12  1  6  0  0  0
 13 15  1  0  0  0  0
 15  2  1  1  0  0  0
 15 17  1  0  0  0  0
 16 25  1  0  0  0  0
 16 23  1  0  0  0  0
 17 19  1  0  0  0  0
 19  5  1  1  0  0  0
 19 21  1  0  0  0  0
 21 14  1  6  0  0  0
 23 14  1  6  0  0  0
 23 29  1  0  0  0  0
 25 26  1  1  0  0  0
 25 27  1  0  0  0  0
 27 18  1  6  0  0  0
 27 28  1  0  0  0  0
 28 20  1  1  0  0  0
 28 29  1  0  0  0  0
 29 11  1  6  0  0  0
 30 22  1  1  0  0  0
 30 31  1  0  0  0  0
 31 24  1  1  0  0  0
M  END
>  <CHROM.1>
61.30671900,78.07383113,-93.98949977,62.64568601,72.26059523,-50.84096045
18.61745537,0.08663820,10.88333153,1.33069484,-0.43902974,-3.01407943

>  <Name>
ligand

>  <RI>
0

>  <Rbt.Current_Directory>
/home/itssahil/PROJECTS/Mol_Feturizer/New_Systems/rnas/3DVV

>  <Rbt.Executable>
rbdock ($Id: //depot/dev/client3/rdock/2013.1/src/exe/rbdock.cxx#4 $)

>  <Rbt.Library>
libRbt.so (2013.1, Build901 2013/11/27)

>  <Rbt.Parameter_File>
/export/apps/rDock/src/rDock_2013.1_src/data/scripts/dock_solv.prm

>  <Rbt.Receptor>
prm/blind_docking_80.prm

>  <SCORE>
0.5191

>  <SCORE.INTER>
-2.65933

>  <SCORE.INTER.CONST>
1

>  <SCORE.INTER.POLAR>
0

>  <SCORE.INTER.ROT>
6

>  <SCORE.INTER.SOLV>
16.9134

>  <SCORE.INTER.VDW>
-15.0107

>  <SCORE.INTER.norm>
-0.0857849

>  <SCORE.INTRA>
3.17264

>  <SCORE.INTRA.DIHEDRAL>
-3.73297

>  <SCORE.INTRA.DIHEDRAL.0>
10.8172

>  <SCORE.INTRA.POLAR>
0

>  <SCORE.INTRA.POLAR.0>
0

>  <SCORE.INTRA.REPUL>
0

>  <SCORE.INTRA.REPUL.0>
0

>  <SCORE.INTRA.SOLV>
0.424506

>  <SCORE.INTRA.SOLV.lig_0>
-80.3833

>  <SCORE.INTRA.VDW>
4.82688

>  <SCORE.INTRA.VDW.0>
-4.63762

>  <SCORE.INTRA.norm>
0.102343

>  <SCORE.RESTR>
0.00578826

>  <SCORE.RESTR.CAVITY>
0.00578826

>  <SCORE.RESTR.norm>
0.000186718

>  <SCORE.SYSTEM>
0

>  <SCORE.SYSTEM.CONST>
0

>  <SCORE.SYSTEM.DIHEDRAL>
0

>  <SCORE.SYSTEM.SOLV>
0

>  <SCORE.SYSTEM.norm>
0

>  <SCORE.heavy>
31

>  <SCORE.norm>
0.0167451

>  <RMSD>
8.751

$$$$
ligand
 OpenBabel11021811473D
libRbt.so/2013.1/901 2013/11/27
 31 33  0  0  0  0  0  0  0  0999 V2000
   22.6903   -2.6018    7.8210 C   0  0  0  0  0  0  0  0  0  0  0  0
   17.2375   -4.2669   11.4894 N   0  0  0  0  0  0  0  0  0  0  0  0
   22.5053   -3.9964    8.0850 O   0  0  0  0  0  0  0  0  0  0  0  0
   21.3486   -1.8685    7.8938 C   0  0  1  0  0  0  0  0  0  0  0  0
   15.9734    0.4551   11.3982 N   0  0  0  0  0  0  0  0  0  0  0  0
   20.7483   -2.0588    9.1899 O   0  0  0  0  0  0  0  0  0  0  0  0
   20.4570   -0.7679    9.7542 C   0  0  1  0  0  0  0  0  0  0  0  0
   17.2197    5.1150   10.7808 N   0  0  0  0  0  0  0  0  0  0  0  0
   20.5959   -0.7690   11.1837 O   0  0  0  0  0  0  0  0  0  0  0  0
   19.3967   -1.1378   11.8808 C   0  0  2  0  0  0  0  0  0  0  0  0
   21.0138    0.7115   13.6292 N   0  0  0  0  0  0  0  0  0  0  0  0
   19.9412   -3.4886   11.7407 O   0  0  0  0  0  0  0  0  0  0  0  0
   18.9691   -2.5130   11.3551 C   0  0  1  0  0  0  0  0  0  0  0  0
   18.5798    1.1430   12.3409 O   0  0  0  0  0  0  0  0  0  0  0  0
   17.6048   -2.9101   11.9224 C   0  0  1  0  0  0  0  0  0  0  0  0
   19.3175    3.1823   11.4270 O   0  0  0  0  0  0  0  0  0  0  0  0
   16.5539   -1.9057   11.4489 C   0  0  0  0  0  0  0  0  0  0  0  0
   18.9408    4.9980   14.5952 O   0  0  0  0  0  0  0  0  0  0  0  0
   16.9109   -0.5155   11.9832 C   0  0  1  0  0  0  0  0  0  0  0  0
   21.0951    3.1812   15.1637 O   0  0  0  0  0  0  0  0  0  0  0  0
   18.3336   -0.0755   11.6174 C   0  0  2  0  0  0  0  0  0  0  0  0
   21.2142    1.5124    9.2202 O   0  0  0  0  0  0  0  0  0  0  0  0
   19.7269    1.8849   11.8976 C   0  0  1  0  0  0  0  0  0  0  0  0
   20.4911    0.2601    7.0051 O   0  0  0  0  0  0  0  0  0  0  0  0
   18.6600    3.9892   12.4189 C   0  0  2  0  0  0  0  0  0  0  0  0
   18.2652    5.3294   11.7941 C   0  0  0  0  0  0  0  0  0  0  0  0
   19.6183    4.2494   13.5825 C   0  0  2  0  0  0  0  0  0  0  0  0
   20.0974    2.9207   14.1708 C   0  0  1  0  0  0  0  0  0  0  0  0
   20.6969    2.0363   13.0742 C   0  0  1  0  0  0  0  0  0  0  0  0
   21.5484    0.1235    9.1653 C   0  0  2  0  0  0  0  0  0  0  0  0
   21.5623   -0.3622    7.7190 C   0  0  1  0  0  0  0  0  0  0  0  0
  1  3  1  0  0  0  0
  4  1  1  1  0  0  0
  4  6  1  0  0  0  0
  4 31  1  0  0  0  0
  6  7  1  0  0  0  0
  7  9  1  1  0  0  0
  7 30  1  0  0  0  0
  8 26  1  0  0  0  0
 10  9  1  6  0  0  0
 10 13  1  0  0  0  0
 10 21  1  0  0  0  0
 13 12  1  1  0  0  0
 13 15  1  0  0  0  0
 15  2  1  6  0  0  0
 15 17  1  0  0  0  0
 16 25  1  0  0  0  0
 16 23  1  0  0  0  0
 17 19  1  0  0  0  0
 19  5  1  6  0  0  0
 19 21  1  0  0  0  0
 21 14  1  1  0  0  0
 23 14  1  1  0  0  0
 23 29  1  0  0  0  0
 25 26  1  6  0  0  0
 25 27  1  0  0  0  0
 27 18  1  1  0  0  0
 27 28  1  0  0  0  0
 28 20  1  1  0  0  0
 28 29  1  0  0  0  0
 29 11  1  1  0  0  0
 30 22  1  6  0  0  0
 30 31  1  0  0  0  0
 31 24  1  6  0  0  0
M  END
>  <CHROM.1>
57.97948070,-88.65434923,56.12075873,118.55327312,68.71016406,67.37171356
19.62327224,0.38369278,11.17257455,-1.27269855,0.78938114,0.34290904

>  <Name>
ligand

>  <RI>
0

>  <Rbt.Current_Directory>
/home/itssahil/PROJECTS/Mol_Feturizer/New_Systems/rnas/3DVV

>  <Rbt.Executable>
rbdock ($Id: //depot/dev/client3/rdock/2013.1/src/exe/rbdock.cxx#4 $)

>  <Rbt.Library>
libRbt.so (2013.1, Build901 2013/11/27)

>  <Rbt.Parameter_File>
/export/apps/rDock/src/rDock_2013.1_src/data/scripts/dock_solv.prm

>  <Rbt.Receptor>
prm/blind_docking_80.prm

>  <SCORE>
-1.62937

>  <SCORE.INTER>
-3.62968

>  <SCORE.INTER.CONST>
1

>  <SCORE.INTER.POLAR>
0

>  <SCORE.INTER.ROT>
6

>  <SCORE.INTER.SOLV>
21.8196

>  <SCORE.INTER.VDW>
-17.293

>  <SCORE.INTER.norm>
-0.117086

>  <SCORE.INTRA>
1.95102

>  <SCORE.INTRA.DIHEDRAL>
0.484559

>  <SCORE.INTRA.DIHEDRAL.0>
10.8172

>  <SCORE.INTRA.POLAR>
0

>  <SCORE.INTRA.POLAR.0>
0

>  <SCORE.INTRA.REPUL>
0.0362854

>  <SCORE.INTRA.REPUL.0>
0

>  <SCORE.INTRA.SOLV>
-2.06714

>  <SCORE.INTRA.SOLV.lig_0>
-80.3833

>  <SCORE.INTRA.VDW>
2.56089

>  <SCORE.INTRA.VDW.0>
-4.63762

>  <SCORE.INTRA.norm>
0.0629362

>  <SCORE.RESTR>
0.0492814

>  <SCORE.RESTR.CAVITY>
0.0492814

>  <SCORE.RESTR.norm>
0.00158972

>  <SCORE.SYSTEM>
0

>  <SCORE.SYSTEM.CONST>
0

>  <SCORE.SYSTEM.DIHEDRAL>
0

>  <SCORE.SYSTEM.SOLV>
0

>  <SCORE.SYSTEM.norm>
0

>  <SCORE.heavy>
31

>  <SCORE.norm>
-0.0525604

>  <RMSD>
8.758

$$$$
ligand
 OpenBabel11021811473D
libRbt.so/2013.1/901 2013/11/27
 31 33  0  0  0  0  0  0  0  0999 V2000
   23.3690   -1.6029    8.4490 C   0  0  0  0  0  0  0  0  0  0  0  0
   19.3181   -4.5690   12.1086 N   0  0  0  0  0  0  0  0  0  0  0  0
   23.4869   -2.9861    8.7979 O   0  0  0  0  0  0  0  0  0  0  0  0
   21.9059   -1.2533    8.1652 C   0  0  1  0  0  0  0  0  0  0  0  0
   15.8727   -1.6598   10.2195 N   0  0  0  0  0  0  0  0  0  0  0  0
   21.1174   -1.4068    9.3615 O   0  0  0  0  0  0  0  0  0  0  0  0
   20.4211   -0.1733    9.6130 C   0  0  1  0  0  0  0  0  0  0  0  0
   19.8847    2.4555   15.1442 N   0  0  0  0  0  0  0  0  0  0  0  0
   20.2633    0.0708   11.0195 O   0  0  0  0  0  0  0  0  0  0  0  0
   19.2886   -0.7752   11.6474 C   0  0  2  0  0  0  0  0  0  0  0  0
   14.9272    1.9237   11.8063 N   0  0  0  0  0  0  0  0  0  0  0  0
   20.9923   -2.3134   12.4051 O   0  0  0  0  0  0  0  0  0  0  0  0
   19.8243   -2.2103   11.5861 C   0  0  1  0  0  0  0  0  0  0  0  0
   17.3074    0.6160   11.1776 O   0  0  0  0  0  0  0  0  0  0  0  0
   18.7719   -3.2036   12.0828 C   0  0  1  0  0  0  0  0  0  0  0  0
   18.2109    1.0349   13.3099 O   0  0  0  0  0  0  0  0  0  0  0  0
   17.5527   -3.1436   11.1623 C   0  0  0  0  0  0  0  0  0  0  0  0
   18.9437    4.5523   12.5567 O   0  0  0  0  0  0  0  0  0  0  0  0
   16.9502   -1.7366   11.2177 C   0  0  1  0  0  0  0  0  0  0  0  0
   16.0695    4.4933   12.5501 O   0  0  0  0  0  0  0  0  0  0  0  0
   17.9659   -0.6324   10.9004 C   0  0  2  0  0  0  0  0  0  0  0  0
   20.7102    2.1236    8.7771 O   0  0  0  0  0  0  0  0  0  0  0  0
   16.9965    0.8381   12.5621 C   0  0  1  0  0  0  0  0  0  0  0  0
   20.7684    0.4149    6.7584 O   0  0  0  0  0  0  0  0  0  0  0  0
   18.9954    2.1588   12.8757 C   0  0  2  0  0  0  0  0  0  0  0  0
   20.2582    2.2511   13.7355 C   0  0  0  0  0  0  0  0  0  0  0  0
   18.1847    3.4445   13.0483 C   0  0  2  0  0  0  0  0  0  0  0  0
   16.8732    3.3431   12.2667 C   0  0  1  0  0  0  0  0  0  0  0  0
   16.1068    2.0809   12.6710 C   0  0  1  0  0  0  0  0  0  0  0  0
   21.3671    0.8824    9.0445 C   0  0  2  0  0  0  0  0  0  0  0  0
   21.7885    0.2131    7.7398 C   0  0  1  0  0  0  0  0  0  0  0  0
  1  3  1  0  0  0  0
  4  1  1  1  0  0  0
  4  6  1  0  0  0  0
  4 31  1  0  0  0  0
  6  7  1  0  0  0  0
  7  9  1  1  0  0  0
  7 30  1  0  0  0  0
  8 26  1  0  0  0  0
 10  9  1  6  0  0  0
 10 13  1  0  0  0  0
 10 21  1  0  0  0  0
 13 12  1  1  0  0  0
 13 15  1  0  0  0  0
 15  2  1  6  0  0  0
 15 17  1  0  0  0  0
 16 25  1  0  0  0  0
 16 23  1  0  0  0  0
 17 19  1  0  0  0  0
 19  5  1  6  0  0  0
 19 21  1  0  0  0  0
 21 14  1  1  0  0  0
 23 14  1  6  0  0  0
 23 29  1  0  0  0  0
 25 26  1  1  0  0  0
 25 27  1  0  0  0  0
 27 18  1  6  0  0  0
 27 28  1  0  0  0  0
 28 20  1  1  0  0  0
 28 29  1  0  0  0  0
 29 11  1  6  0  0  0
 30 22  1  6  0  0  0
 30 31  1  0  0  0  0
 31 24  1  6  0  0  0
M  END
>  <CHROM.1>
64.52574082,-72.95026220,65.94249840,68.74713814,-59.09418687,-61.14145509
19.21176609,0.18944789,11.10153890,-0.71377184,0.66093293,0.06944068

>  <Name>
ligand

>  <RI>
0

>  <Rbt.Current_Directory>
/home/itssahil/PROJECTS/Mol_Feturizer/New_Systems/rnas/3DVV

>  <Rbt.Executable>
rbdock ($Id: //depot/dev/client3/rdock/2013.1/src/exe/rbdock.cxx#4 $)

>  <Rbt.Library>
libRbt.so (2013.1, Build901 2013/11/27)

>  <Rbt.Parameter_File>
/export/apps/rDock/src/rDock_2013.1_src/data/scripts/dock_solv.prm

>  <Rbt.Receptor>
prm/blind_docking_60.prm

>  <SCORE>
-7.2363

>  <SCORE.INTER>
-6.04332

>  <SCORE.INTER.CONST>
1

>  <SCORE.INTER.POLAR>
0

>  <SCORE.INTER.ROT>
6

>  <SCORE.INTER.SOLV>
22.2372

>  <SCORE.INTER.VDW>
-19.0413

>  <SCORE.INTER.norm>
-0.194946

>  <SCORE.INTRA>
-1.19298

>  <SCORE.INTRA.DIHEDRAL>
-9.15294

>  <SCORE.INTRA.DIHEDRAL.0>
10.8172

>  <SCORE.INTRA.POLAR>
0

>  <SCORE.INTRA.POLAR.0>
0

>  <SCORE.INTRA.REPUL>
0

>  <SCORE.INTRA.REPUL.0>
0

>  <SCORE.INTRA.SOLV>
-2.04699

>  <SCORE.INTRA.SOLV.lig_0>
-80.3833

>  <SCORE.INTRA.VDW>
4.40699

>  <SCORE.INTRA.VDW.0>
-4.63762

>  <SCORE.INTRA.norm>
-0.0384831

>  <SCORE.RESTR>
0

>  <SCORE.RESTR.CAVITY>
0

>  <SCORE.RESTR.norm>
0

>  <SCORE.SYSTEM>
0

>  <SCORE.SYSTEM.CONST>
0

>  <SCORE.SYSTEM.DIHEDRAL>
0

>  <SCORE.SYSTEM.SOLV>
0

>  <SCORE.SYSTEM.norm>
0

>  <SCORE.heavy>
31

>  <SCORE.norm>
-0.233429

>  <RMSD>
8.797

$$$$
ligand
 OpenBabel11021811473D
libRbt.so/2013.1/901 2013/11/27
 31 33  0  0  0  0  0  0  0  0999 V2000
   23.2495   -1.6548    8.4159 C   0  0  0  0  0  0  0  0  0  0  0  0
   19.2204   -4.5259   12.1274 N   0  0  0  0  0  0  0  0  0  0  0  0
   24.0018   -1.6486    7.1981 O   0  0  0  0  0  0  0  0  0  0  0  0
   21.7950   -1.2657    8.1395 C   0  0  1  0  0  0  0  0  0  0  0  0
   15.7968   -1.6025   10.2206 N   0  0  0  0  0  0  0  0  0  0  0  0
   21.0084   -1.3997    9.3393 O   0  0  0  0  0  0  0  0  0  0  0  0
   20.3466   -0.1483    9.5958 C   0  0  1  0  0  0  0  0  0  0  0  0
   19.8391    2.4359   15.1323 N   0  0  0  0  0  0  0  0  0  0  0  0
   20.2022    0.0980   11.0034 O   0  0  0  0  0  0  0  0  0  0  0  0
   19.2213   -0.7354   11.6385 C   0  0  2  0  0  0  0  0  0  0  0  0
   14.8853    2.0079   11.7766 N   0  0  0  0  0  0  0  0  0  0  0  0
   20.9132   -2.2819   12.4056 O   0  0  0  0  0  0  0  0  0  0  0  0
   19.7452   -2.1753   11.5871 C   0  0  1  0  0  0  0  0  0  0  0  0
   17.2510    0.6684   11.1605 O   0  0  0  0  0  0  0  0  0  0  0  0
   18.6853   -3.1563   12.0922 C   0  0  1  0  0  0  0  0  0  0  0  0
   18.1541    1.0870   13.2930 O   0  0  0  0  0  0  0  0  0  0  0  0
   17.4656   -3.0931   11.1725 C   0  0  0  0  0  0  0  0  0  0  0  0
   18.9314    4.5914   12.5243 O   0  0  0  0  0  0  0  0  0  0  0  0
   16.8747   -1.6809   11.2182 C   0  0  1  0  0  0  0  0  0  0  0  0
   16.0567    4.5672   12.5106 O   0  0  0  0  0  0  0  0  0  0  0  0
   17.8990   -0.5873   10.8918 C   0  0  2  0  0  0  0  0  0  0  0  0
   20.6933    2.1412    8.7615 O   0  0  0  0  0  0  0  0  0  0  0  0
   16.9394    0.9012   12.5431 C   0  0  1  0  0  0  0  0  0  0  0  0
   20.6960    0.4345    6.7404 O   0  0  0  0  0  0  0  0  0  0  0  0
   18.9533    2.1991   12.8553 C   0  0  2  0  0  0  0  0  0  0  0  0
   20.2149    2.2805   13.7180 C   0  0  0  0  0  0  0  0  0  0  0  0
   18.1577    3.4954   13.0195 C   0  0  2  0  0  0  0  0  0  0  0  0
   16.8471    3.4059   12.2350 C   0  0  1  0  0  0  0  0  0  0  0  0
   16.0644    2.1552   12.6435 C   0  0  1  0  0  0  0  0  0  0  0  0
   21.3179    0.8824    9.0242 C   0  0  2  0  0  0  0  0  0  0  0  0
   21.7150    0.2039    7.7165 C   0  0  1  0  0  0  0  0  0  0  0  0
  1  3  1  0  0  0  0
  4  1  1  1  0  0  0
  4  6  1  0  0  0  0
  4 31  1  0  0  0  0
  6  7  1  0  0  0  0
  7  9  1  1  0  0  0
  7 30  1  0  0  0  0
  8 26  1  0  0  0  0
 10  9  1  6  0  0  0
 10 13  1  0  0  0  0
 10 21  1  0  0  0  0
 13 12  1  1  0  0  0
 13 15  1  0  0  0  0
 15  2  1  6  0  0  0
 15 17  1  0  0  0  0
 16 25  1  0  0  0  0
 16 23  1  0  0  0  0
 17 19  1  0  0  0  0
 19  5  1  6  0  0  0
 19 21  1  0  0  0  0
 21 14  1  1  0  0  0
 23 14  1  6  0  0  0
 23 29  1  0  0  0  0
 25 26  1  1  0  0  0
 25 27  1  0  0  0  0
 27 18  1  6  0  0  0
 27 28  1  0  0  0  0
 28 20  1  1  0  0  0
 28 29  1  0  0  0  0
 29 11  1  6  0  0  0
 30 22  1  6  0  0  0
 30 31  1  0  0  0  0
 31 24  1  6  0  0  0
M  END
>  <CHROM.1>
174.33752396,-72.12858709,66.54644189,68.55263511,-59.29755501,-58.61997286
19.17092611,0.27113035,11.02848556,-0.64703234,0.68973022,0.08960960

>  <Name>
ligand

>  <RI>
0

>  <Rbt.Current_Directory>
/home/itssahil/PROJECTS/Mol_Feturizer/New_Systems/rnas/3DVV

>  <Rbt.Executable>
rbdock ($Id: //depot/dev/client3/rdock/2013.1/src/exe/rbdock.cxx#4 $)

>  <Rbt.Library>
libRbt.so (2013.1, Build901 2013/11/27)

>  <Rbt.Parameter_File>
/export/apps/rDock/src/rDock_2013.1_src/data/scripts/dock_solv.prm

>  <Rbt.Receptor>
prm/blind_docking_80.prm

>  <SCORE>
-7.0271

>  <SCORE.INTER>
-5.94829

>  <SCORE.INTER.CONST>
1

>  <SCORE.INTER.POLAR>
0

>  <SCORE.INTER.ROT>
6

>  <SCORE.INTER.SOLV>
21.4149

>  <SCORE.INTER.VDW>
-18.7038

>  <SCORE.INTER.norm>
-0.19188

>  <SCORE.INTRA>
-1.07881

>  <SCORE.INTRA.DIHEDRAL>
-9.1883

>  <SCORE.INTRA.DIHEDRAL.0>
10.8172

>  <SCORE.INTRA.POLAR>
0

>  <SCORE.INTRA.POLAR.0>
0

>  <SCORE.INTRA.REPUL>
0

>  <SCORE.INTRA.REPUL.0>
0

>  <SCORE.INTRA.SOLV>
-2.01685

>  <SCORE.INTRA.SOLV.lig_0>
-80.3833

>  <SCORE.INTRA.VDW>
4.52376

>  <SCORE.INTRA.VDW.0>
-4.63762

>  <SCORE.INTRA.norm>
-0.0348004

>  <SCORE.RESTR>
0

>  <SCORE.RESTR.CAVITY>
0

>  <SCORE.RESTR.norm>
0

>  <SCORE.SYSTEM>
0

>  <SCORE.SYSTEM.CONST>
0

>  <SCORE.SYSTEM.DIHEDRAL>
0

>  <SCORE.SYSTEM.SOLV>
0

>  <SCORE.SYSTEM.norm>
0

>  <SCORE.heavy>
31

>  <SCORE.norm>
-0.226681

>  <RMSD>
8.809

$$$$
ligand
 OpenBabel11021811473D
libRbt.so/2013.1/901 2013/11/27
 31 33  0  0  0  0  0  0  0  0999 V2000
   23.3365   -1.5950    8.4308 C   0  0  0  0  0  0  0  0  0  0  0  0
   19.2348   -4.5720   12.0890 N   0  0  0  0  0  0  0  0  0  0  0  0
   24.0841   -1.5930    7.2102 O   0  0  0  0  0  0  0  0  0  0  0  0
   21.8698   -1.2575    8.1516 C   0  0  1  0  0  0  0  0  0  0  0  0
   15.8154   -1.6198   10.2193 N   0  0  0  0  0  0  0  0  0  0  0  0
   21.0869   -1.4145    9.3512 O   0  0  0  0  0  0  0  0  0  0  0  0
   20.3819   -0.1859    9.6025 C   0  0  1  0  0  0  0  0  0  0  0  0
   19.9059    2.4510   15.1250 N   0  0  0  0  0  0  0  0  0  0  0  0
   20.2274    0.0601   11.0091 O   0  0  0  0  0  0  0  0  0  0  0  0
   19.2455   -0.7768   11.6380 C   0  0  2  0  0  0  0  0  0  0  0  0
   14.9168    1.9693   11.8267 N   0  0  0  0  0  0  0  0  0  0  0  0
   20.9347   -2.3357   12.3858 O   0  0  0  0  0  0  0  0  0  0  0  0
   19.7652   -2.2176   11.5711 C   0  0  1  0  0  0  0  0  0  0  0  0
   17.2783    0.6374   11.1787 O   0  0  0  0  0  0  0  0  0  0  0  0
   18.7036   -3.2006   12.0687 C   0  0  1  0  0  0  0  0  0  0  0  0
   18.2029    1.0461   13.3038 O   0  0  0  0  0  0  0  0  0  0  0  0
   17.4820   -3.1246   11.1525 C   0  0  0  0  0  0  0  0  0  0  0  0
   18.9660    4.5560   12.5460 O   0  0  0  0  0  0  0  0  0  0  0  0
   16.8953   -1.7113   11.2137 C   0  0  1  0  0  0  0  0  0  0  0  0
   16.0913    4.5267   12.5622 O   0  0  0  0  0  0  0  0  0  0  0  0
   17.9220   -0.6174   10.8959 C   0  0  2  0  0  0  0  0  0  0  0  0
   20.6499    2.1113    8.7605 O   0  0  0  0  0  0  0  0  0  0  0  0
   16.9807    0.8622   12.5656 C   0  0  1  0  0  0  0  0  0  0  0  0
   20.7140    0.3986    6.7454 O   0  0  0  0  0  0  0  0  0  0  0  0
   18.9955    2.1620   12.8638 C   0  0  2  0  0  0  0  0  0  0  0  0
   20.2660    2.2410   13.7136 C   0  0  0  0  0  0  0  0  0  0  0  0
   18.1994    3.4559   13.0433 C   0  0  2  0  0  0  0  0  0  0  0  0
   16.8809    3.3684   12.2721 C   0  0  1  0  0  0  0  0  0  0  0  0
   16.1047    2.1140   12.6820 C   0  0  1  0  0  0  0  0  0  0  0  0
   21.3175    0.8759    9.0282 C   0  0  2  0  0  0  0  0  0  0  0  0
   21.7393    0.2069    7.7234 C   0  0  1  0  0  0  0  0  0  0  0  0
  1  3  1  0  0  0  0
  4  1  1  1  0  0  0
  4  6  1  0  0  0  0
  4 31  1  0  0  0  0
  6  7  1  0  0  0  0
  7  9  1  1  0  0  0
  7 30  1  0  0  0  0
  8 26  1  0  0  0  0
 10  9  1  6  0  0  0
 10 13  1  0  0  0  0
 10 21  1  0  0  0  0
 13 12  1  1  0  0  0
 13 15  1  0  0  0  0
 15  2  1  6  0  0  0
 15 17  1  0  0  0  0
 16 25  1  0  0  0  0
 16 23  1  0  0  0  0
 17 19  1  0  0  0  0
 19  5  1  6  0  0  0
 19 21  1  0  0  0  0
 21 14  1  1  0  0  0
 23 14  1  6  0  0  0
 23 29  1  0  0  0  0
 25 26  1  1  0  0  0
 25 27  1  0  0  0  0
 27 18  1  6  0  0  0
 27 28  1  0  0  0  0
 28 20  1  1  0  0  0
 28 29  1  0  0  0  0
 29 11  1  6  0  0  0
 30 22  1  6  0  0  0
 30 31  1  0  0  0  0
 31 24  1  6  0  0  0
M  END
>  <CHROM.1>
173.19363787,-73.93786106,65.68771362,68.72734238,-58.79047231,-61.24077890
19.20490116,0.24611377,11.03604058,-0.65025426,0.68140606,0.10588878

>  <Name>
ligand

>  <RI>
0

>  <Rbt.Current_Directory>
/home/itssahil/PROJECTS/Mol_Feturizer/New_Systems/rnas/3DVV

>  <Rbt.Executable>
rbdock ($Id: //depot/dev/client3/rdock/2013.1/src/exe/rbdock.cxx#4 $)

>  <Rbt.Library>
libRbt.so (2013.1, Build901 2013/11/27)

>  <Rbt.Parameter_File>
/export/apps/rDock/src/rDock_2013.1_src/data/scripts/dock_solv.prm

>  <Rbt.Receptor>
prm/blind_docking_40.prm

>  <SCORE>
-7.10811

>  <SCORE.INTER>
-6.10069

>  <SCORE.INTER.CONST>
1

>  <SCORE.INTER.POLAR>
0

>  <SCORE.INTER.ROT>
6

>  <SCORE.INTER.SOLV>
21.5979

>  <SCORE.INTER.VDW>
-18.8664

>  <SCORE.INTER.norm>
-0.196796

>  <SCORE.INTRA>
-1.00742

>  <SCORE.INTRA.DIHEDRAL>
-8.96689

>  <SCORE.INTRA.DIHEDRAL.0>
10.8172

>  <SCORE.INTRA.POLAR>
0

>  <SCORE.INTRA.POLAR.0>
0

>  <SCORE.INTRA.REPUL>
0

>  <SCORE.INTRA.REPUL.0>
0

>  <SCORE.INTRA.SOLV>
-1.98422

>  <SCORE.INTRA.SOLV.lig_0>
-80.3833

>  <SCORE.INTRA.VDW>
4.46813

>  <SCORE.INTRA.VDW.0>
-4.63762

>  <SCORE.INTRA.norm>
-0.0324975

>  <SCORE.RESTR>
0

>  <SCORE.RESTR.CAVITY>
0

>  <SCORE.RESTR.norm>
0

>  <SCORE.SYSTEM>
0

>  <SCORE.SYSTEM.CONST>
0

>  <SCORE.SYSTEM.DIHEDRAL>
0

>  <SCORE.SYSTEM.SOLV>
0

>  <SCORE.SYSTEM.norm>
0

>  <SCORE.heavy>
31

>  <SCORE.norm>
-0.229294

>  <RMSD>
8.810

$$$$
ligand
 OpenBabel11021811473D
libRbt.so/2013.1/901 2013/11/27
 31 33  0  0  0  0  0  0  0  0999 V2000
   12.6572    4.1550   14.5326 C   0  0  0  0  0  0  0  0  0  0  0  0
   13.4101   10.2115   20.0072 N   0  0  0  0  0  0  0  0  0  0  0  0
   11.2584    4.0147   14.8017 O   0  0  0  0  0  0  0  0  0  0  0  0
   13.0989    5.6003   14.7759 C   0  0  1  0  0  0  0  0  0  0  0  0
   14.1869    6.1949   22.6843 N   0  0  0  0  0  0  0  0  0  0  0  0
   13.0637    5.8999   16.1850 O   0  0  0  0  0  0  0  0  0  0  0  0
   14.3562    6.3920   16.5814 C   0  0  1  0  0  0  0  0  0  0  0  0
   17.8094    4.7414   22.0487 N   0  0  0  0  0  0  0  0  0  0  0  0
   14.6812    6.0086   17.9269 O   0  0  0  0  0  0  0  0  0  0  0  0
   13.8054    6.5702   18.9156 C   0  0  2  0  0  0  0  0  0  0  0  0
   12.4717    2.2599   19.4246 N   0  0  0  0  0  0  0  0  0  0  0  0
   13.5911    8.6320   17.6724 O   0  0  0  0  0  0  0  0  0  0  0  0
   14.0340    8.0862   18.9179 C   0  0  1  0  0  0  0  0  0  0  0  0
   13.6650    4.5910   20.3799 O   0  0  0  0  0  0  0  0  0  0  0  0
   13.2625    8.7491   20.0609 C   0  0  1  0  0  0  0  0  0  0  0  0
   15.8104    3.6250   20.3314 O   0  0  0  0  0  0  0  0  0  0  0  0
   13.7880    8.2174   21.3945 C   0  0  0  0  0  0  0  0  0  0  0  0
   15.2369    1.6507   23.3727 O   0  0  0  0  0  0  0  0  0  0  0  0
   13.5460    6.7066   21.4634 C   0  0  1  0  0  0  0  0  0  0  0  0
   13.4250    0.4491   21.4917 O   0  0  0  0  0  0  0  0  0  0  0  0
   14.1340    5.9462   20.2686 C   0  0  2  0  0  0  0  0  0  0  0  0
   16.5810    6.3160   15.5314 O   0  0  0  0  0  0  0  0  0  0  0  0
   14.4979    3.6114   19.7401 C   0  0  1  0  0  0  0  0  0  0  0  0
   14.7740    7.0905   13.7614 O   0  0  0  0  0  0  0  0  0  0  0  0
   15.8267    3.3279   21.7381 C   0  0  2  0  0  0  0  0  0  0  0  0
   17.2691    3.3869   22.2465 C   0  0  0  0  0  0  0  0  0  0  0  0
   15.2785    1.9185   21.9685 C   0  0  2  0  0  0  0  0  0  0  0  0
   13.8664    1.8071   21.3901 C   0  0  1  0  0  0  0  0  0  0  0  0
   13.8568    2.2312   19.9191 C   0  0  1  0  0  0  0  0  0  0  0  0
   15.3097    5.6699   15.6317 C   0  0  2  0  0  0  0  0  0  0  0  0
   14.5469    5.7923   14.3160 C   0  0  1  0  0  0  0  0  0  0  0  0
  1  3  1  0  0  0  0
  4  1  1  1  0  0  0
  4  6  1  0  0  0  0
  4 31  1  0  0  0  0
  6  7  1  0  0  0  0
  7  9  1  1  0  0  0
  7 30  1  0  0  0  0
  8 26  1  0  0  0  0
 10  9  1  6  0  0  0
 10 13  1  0  0  0  0
 10 21  1  0  0  0  0
 13 12  1  6  0  0  0
 13 15  1  0  0  0  0
 15  2  1  1  0  0  0
 15 17  1  0  0  0  0
 16 25  1  0  0  0  0
 16 23  1  0  0  0  0
 17 19  1  0  0  0  0
 19  5  1  1  0  0  0
 19 21  1  0  0  0  0
 21 14  1  6  0  0  0
 23 14  1  1  0  0  0
 23 29  1  0  0  0  0
 25 26  1  6  0  0  0
 25 27  1  0  0  0  0
 27 18  1  1  0  0  0
 27 28  1  0  0  0  0
 28 20  1  6  0  0  0
 28 29  1  0  0  0  0
 29 11  1  1  0  0  0
 30 22  1  6  0  0  0
 30 31  1  0  0  0  0
 31 24  1  1  0  0  0
M  END
>  <CHROM.1>
69.67041500,-63.93564063,-66.50652084,60.80814873,79.55759641,61.25055717
14.29126920,5.14120230,18.97734952,2.59947523,-1.38117957,-0.04290473

>  <Name>
ligand

>  <RI>
0

>  <Rbt.Current_Directory>
/home/itssahil/PROJECTS/Mol_Feturizer/New_Systems/rnas/3DVV

>  <Rbt.Executable>
rbdock ($Id: //depot/dev/client3/rdock/2013.1/src/exe/rbdock.cxx#4 $)

>  <Rbt.Library>
libRbt.so (2013.1, Build901 2013/11/27)

>  <Rbt.Parameter_File>
/export/apps/rDock/src/rDock_2013.1_src/data/scripts/dock_solv.prm

>  <Rbt.Receptor>
prm/pocket_docking_6.prm

>  <SCORE>
-3.64378

>  <SCORE.INTER>
-0.953278

>  <SCORE.INTER.CONST>
1

>  <SCORE.INTER.POLAR>
0

>  <SCORE.INTER.ROT>
6

>  <SCORE.INTER.SOLV>
11.4974

>  <SCORE.INTER.VDW>
-12.068

>  <SCORE.INTER.norm>
-0.0307509

>  <SCORE.INTRA>
-2.6906

>  <SCORE.INTRA.DIHEDRAL>
-8.23574

>  <SCORE.INTRA.DIHEDRAL.0>
10.8172

>  <SCORE.INTRA.POLAR>
0

>  <SCORE.INTRA.POLAR.0>
0

>  <SCORE.INTRA.REPUL>
0

>  <SCORE.INTRA.REPUL.0>
0

>  <SCORE.INTRA.SOLV>
-2.85662

>  <SCORE.INTRA.SOLV.lig_0>
-80.3833

>  <SCORE.INTRA.VDW>
2.85558

>  <SCORE.INTRA.VDW.0>
-4.63762

>  <SCORE.INTRA.norm>
-0.0867936

>  <SCORE.RESTR>
9.90943e-05

>  <SCORE.RESTR.CAVITY>
9.90943e-05

>  <SCORE.RESTR.norm>
3.19659e-06

>  <SCORE.SYSTEM>
0

>  <SCORE.SYSTEM.CONST>
0

>  <SCORE.SYSTEM.DIHEDRAL>
0

>  <SCORE.SYSTEM.SOLV>
0

>  <SCORE.SYSTEM.norm>
0

>  <SCORE.heavy>
31

>  <SCORE.norm>
-0.117541

>  <RMSD>
8.835

$$$$
ligand
 OpenBabel11021811473D
libRbt.so/2013.1/901 2013/11/27
 31 33  0  0  0  0  0  0  0  0999 V2000
   12.1349    4.5473   14.2377 C   0  0  0  0  0  0  0  0  0  0  0  0
   18.6466    7.9511   17.8271 N   0  0  0  0  0  0  0  0  0  0  0  0
   11.6558    4.0220   15.4801 O   0  0  0  0  0  0  0  0  0  0  0  0
   13.6653    4.5797   14.2338 C   0  0  1  0  0  0  0  0  0  0  0  0
   15.3417    7.5104   21.4030 N   0  0  0  0  0  0  0  0  0  0  0  0
   14.1494    5.3177   15.3729 O   0  0  0  0  0  0  0  0  0  0  0  0
   15.0697    4.4854   16.1009 C   0  0  1  0  0  0  0  0  0  0  0  0
   13.7856    3.3781   23.5959 N   0  0  0  0  0  0  0  0  0  0  0  0
   15.0136    4.7401   17.5134 O   0  0  0  0  0  0  0  0  0  0  0  0
   15.3028    6.1006   17.8674 C   0  0  2  0  0  0  0  0  0  0  0  0
   10.8393    6.6126   18.7370 N   0  0  0  0  0  0  0  0  0  0  0  0
   17.0722    6.2371   16.2263 O   0  0  0  0  0  0  0  0  0  0  0  0
   16.8003    6.3250   17.6277 C   0  0  1  0  0  0  0  0  0  0  0  0
   13.5028    6.3884   19.5282 O   0  0  0  0  0  0  0  0  0  0  0  0
   17.2310    7.7012   18.1388 C   0  0  1  0  0  0  0  0  0  0  0  0
   13.2668    4.0958   20.0039 O   0  0  0  0  0  0  0  0  0  0  0  0
   17.0070    7.7670   19.6498 C   0  0  0  0  0  0  0  0  0  0  0  0
   11.4872    4.7022   23.1569 O   0  0  0  0  0  0  0  0  0  0  0  0
   15.5146    7.5898   19.9446 C   0  0  1  0  0  0  0  0  0  0  0  0
    9.6129    5.6359   21.1871 O   0  0  0  0  0  0  0  0  0  0  0  0
   14.9255    6.3141   19.3303 C   0  0  2  0  0  0  0  0  0  0  0  0
   15.5242    2.0665   16.0874 O   0  0  0  0  0  0  0  0  0  0  0  0
   12.7858    5.1882   19.1991 C   0  0  1  0  0  0  0  0  0  0  0  0
   15.4270    2.9800   13.6067 O   0  0  0  0  0  0  0  0  0  0  0  0
   13.1148    4.2945   21.4197 C   0  0  2  0  0  0  0  0  0  0  0  0
   13.6726    3.0765   22.1599 C   0  0  0  0  0  0  0  0  0  0  0  0
   11.6302    4.4415   21.7581 C   0  0  2  0  0  0  0  0  0  0  0  0
   11.0263    5.6009   20.9630 C   0  0  1  0  0  0  0  0  0  0  0  0
   11.2948    5.4194   19.4667 C   0  0  1  0  0  0  0  0  0  0  0  0
   14.5411    3.0756   15.8449 C   0  0  2  0  0  0  0  0  0  0  0  0
   14.2218    3.1582   14.3552 C   0  0  1  0  0  0  0  0  0  0  0  0
  1  3  1  0  0  0  0
  4  1  1  1  0  0  0
  4  6  1  0  0  0  0
  4 31  1  0  0  0  0
  6  7  1  0  0  0  0
  7  9  1  1  0  0  0
  7 30  1  0  0  0  0
  8 26  1  0  0  0  0
 10  9  1  1  0  0  0
 10 13  1  0  0  0  0
 10 21  1  0  0  0  0
 13 12  1  6  0  0  0
 13 15  1  0  0  0  0
 15  2  1  1  0  0  0
 15 17  1  0  0  0  0
 16 25  1  0  0  0  0
 16 23  1  0  0  0  0
 17 19  1  0  0  0  0
 19  5  1  1  0  0  0
 19 21  1  0  0  0  0
 21 14  1  6  0  0  0
 23 14  1  1  0  0  0
 23 29  1  0  0  0  0
 25 26  1  1  0  0  0
 25 27  1  0  0  0  0
 27 18  1  1  0  0  0
 27 28  1  0  0  0  0
 28 20  1  6  0  0  0
 28 29  1  0  0  0  0
 29 11  1  6  0  0  0
 30 22  1  6  0  0  0
 30 31  1  0  0  0  0
 31 24  1  6  0  0  0
M  END
>  <CHROM.1>
-55.07955262,-58.54286982,-70.92727055,59.38439438,63.50647523,168.17475041
14.02282129,5.17363669,18.42828732,1.09806619,-0.47727688,-1.88147695

>  <Name>
ligand

>  <RI>
0

>  <Rbt.Current_Directory>
/home/itssahil/PROJECTS/Mol_Feturizer/New_Systems/rnas/3DVV

>  <Rbt.Executable>
rbdock ($Id: //depot/dev/client3/rdock/2013.1/src/exe/rbdock.cxx#4 $)

>  <Rbt.Library>
libRbt.so (2013.1, Build901 2013/11/27)

>  <Rbt.Parameter_File>
/export/apps/rDock/src/rDock_2013.1_src/data/scripts/dock_solv.prm

>  <Rbt.Receptor>
prm/pocket_docking_7.prm

>  <SCORE>
-2.55355

>  <SCORE.INTER>
0.682405

>  <SCORE.INTER.CONST>
1

>  <SCORE.INTER.POLAR>
0

>  <SCORE.INTER.ROT>
6

>  <SCORE.INTER.SOLV>
10.0212

>  <SCORE.INTER.VDW>
-10.4855

>  <SCORE.INTER.norm>
0.022013

>  <SCORE.INTRA>
-3.23596

>  <SCORE.INTRA.DIHEDRAL>
-9.32099

>  <SCORE.INTRA.DIHEDRAL.0>
10.8172

>  <SCORE.INTRA.POLAR>
0

>  <SCORE.INTRA.POLAR.0>
0

>  <SCORE.INTRA.REPUL>
0

>  <SCORE.INTRA.REPUL.0>
0

>  <SCORE.INTRA.SOLV>
-2.82999

>  <SCORE.INTRA.SOLV.lig_0>
-80.3833

>  <SCORE.INTRA.VDW>
2.83953

>  <SCORE.INTRA.VDW.0>
-4.63762

>  <SCORE.INTRA.norm>
-0.104386

>  <SCORE.RESTR>
0

>  <SCORE.RESTR.CAVITY>
0

>  <SCORE.RESTR.norm>
0

>  <SCORE.SYSTEM>
0

>  <SCORE.SYSTEM.CONST>
0

>  <SCORE.SYSTEM.DIHEDRAL>
0

>  <SCORE.SYSTEM.SOLV>
0

>  <SCORE.SYSTEM.norm>
0

>  <SCORE.heavy>
31

>  <SCORE.norm>
-0.0823726

>  <RMSD>
8.852

$$$$
ligand
 OpenBabel11021811473D
libRbt.so/2013.1/901 2013/11/27
 31 33  0  0  0  0  0  0  0  0999 V2000
   14.6831    2.4242   20.3436 C   0  0  0  0  0  0  0  0  0  0  0  0
    8.9466    7.6101   22.3911 N   0  0  0  0  0  0  0  0  0  0  0  0
   15.3800    3.3473   19.5004 O   0  0  0  0  0  0  0  0  0  0  0  0
   13.1711    2.6075   20.1901 C   0  0  1  0  0  0  0  0  0  0  0  0
   12.7116   10.3961   20.9890 N   0  0  0  0  0  0  0  0  0  0  0  0
   12.7969    3.9560   20.5332 O   0  0  0  0  0  0  0  0  0  0  0  0
   12.0657    4.5232   19.4317 C   0  0  1  0  0  0  0  0  0  0  0  0
   13.5165   10.8204   16.9244 N   0  0  0  0  0  0  0  0  0  0  0  0
   12.3044    5.9339   19.3053 O   0  0  0  0  0  0  0  0  0  0  0  0
   12.1487    6.6590   20.5340 C   0  0  2  0  0  0  0  0  0  0  0  0
   16.4346    6.4021   20.5861 N   0  0  0  0  0  0  0  0  0  0  0  0
   10.1675    5.4036   21.1185 O   0  0  0  0  0  0  0  0  0  0  0  0
   10.6474    6.7215   20.8387 C   0  0  1  0  0  0  0  0  0  0  0  0
   14.1872    8.0349   20.3541 O   0  0  0  0  0  0  0  0  0  0  0  0
   10.3760    7.6229   22.0448 C   0  0  1  0  0  0  0  0  0  0  0  0
   14.6149    8.4609   18.0795 O   0  0  0  0  0  0  0  0  0  0  0  0
   10.8235    9.0474   21.7164 C   0  0  0  0  0  0  0  0  0  0  0  0
   17.3230   10.8322   18.8001 O   0  0  0  0  0  0  0  0  0  0  0  0
   12.3305    9.0501   21.4433 C   0  0  1  0  0  0  0  0  0  0  0  0
   18.4215    8.3315   19.6969 O   0  0  0  0  0  0  0  0  0  0  0  0
   12.7489    8.0506   20.3581 C   0  0  2  0  0  0  0  0  0  0  0  0
   11.8200    3.8846   17.0675 O   0  0  0  0  0  0  0  0  0  0  0  0
   14.7802    7.5163   19.1532 C   0  0  1  0  0  0  0  0  0  0  0  0
   11.4785    1.7660   18.6143 O   0  0  0  0  0  0  0  0  0  0  0  0
   15.2219    9.7416   18.3219 C   0  0  2  0  0  0  0  0  0  0  0  0
   14.9655   10.6537   17.1200 C   0  0  0  0  0  0  0  0  0  0  0  0
   16.7315    9.5662   18.4964 C   0  0  2  0  0  0  0  0  0  0  0  0
   17.0145    8.5884   19.6387 C   0  0  1  0  0  0  0  0  0  0  0  0
   16.2707    7.2700   19.4098 C   0  0  1  0  0  0  0  0  0  0  0  0
   12.6686    3.8223   18.2161 C   0  0  2  0  0  0  0  0  0  0  0  0
   12.7602    2.3890   18.7312 C   0  0  1  0  0  0  0  0  0  0  0  0
  1  3  1  0  0  0  0
  4  1  1  6  0  0  0
  4  6  1  0  0  0  0
  4 31  1  0  0  0  0
  6  7  1  0  0  0  0
  7  9  1  6  0  0  0
  7 30  1  0  0  0  0
  8 26  1  0  0  0  0
 10  9  1  6  0  0  0
 10 13  1  0  0  0  0
 10 21  1  0  0  0  0
 13 12  1  1  0  0  0
 13 15  1  0  0  0  0
 15  2  1  6  0  0  0
 15 17  1  0  0  0  0
 16 25  1  0  0  0  0
 16 23  1  0  0  0  0
 17 19  1  0  0  0  0
 19  5  1  6  0  0  0
 19 21  1  0  0  0  0
 21 14  1  1  0  0  0
 23 14  1  1  0  0  0
 23 29  1  0  0  0  0
 25 26  1  6  0  0  0
 25 27  1  0  0  0  0
 27 18  1  1  0  0  0
 27 28  1  0  0  0  0
 28 20  1  6  0  0  0
 28 29  1  0  0  0  0
 29 11  1  1  0  0  0
 30 22  1  6  0  0  0
 30 31  1  0  0  0  0
 31 24  1  1  0  0  0
M  END
>  <CHROM.1>
-58.86304679,-49.67570581,-72.70147207,72.12949465,73.98433921,59.79294381
13.54812084,6.78619838,19.65604633,-2.18588017,0.37112257,0.11076649

>  <Name>
ligand

>  <RI>
0

>  <Rbt.Current_Directory>
/home/itssahil/PROJECTS/Mol_Feturizer/New_Systems/rnas/3DVV

>  <Rbt.Executable>
rbdock ($Id: //depot/dev/client3/rdock/2013.1/src/exe/rbdock.cxx#4 $)

>  <Rbt.Library>
libRbt.so (2013.1, Build901 2013/11/27)

>  <Rbt.Parameter_File>
/export/apps/rDock/src/rDock_2013.1_src/data/scripts/dock_solv.prm

>  <Rbt.Receptor>
prm/pocket_docking_8.prm

>  <SCORE>
-6.95154

>  <SCORE.INTER>
-4.17617

>  <SCORE.INTER.CONST>
1

>  <SCORE.INTER.POLAR>
0

>  <SCORE.INTER.ROT>
6

>  <SCORE.INTER.SOLV>
10.9194

>  <SCORE.INTER.VDW>
-14.0239

>  <SCORE.INTER.norm>
-0.134715

>  <SCORE.INTRA>
-2.77537

>  <SCORE.INTRA.DIHEDRAL>
-7.68042

>  <SCORE.INTRA.DIHEDRAL.0>
10.8172

>  <SCORE.INTRA.POLAR>
0

>  <SCORE.INTRA.POLAR.0>
0

>  <SCORE.INTRA.REPUL>
0

>  <SCORE.INTRA.REPUL.0>
0

>  <SCORE.INTRA.SOLV>
-2.12021

>  <SCORE.INTRA.SOLV.lig_0>
-80.3833

>  <SCORE.INTRA.VDW>
2.12494

>  <SCORE.INTRA.VDW.0>
-4.63762

>  <SCORE.INTRA.norm>
-0.089528

>  <SCORE.RESTR>
0

>  <SCORE.RESTR.CAVITY>
0

>  <SCORE.RESTR.norm>
0

>  <SCORE.SYSTEM>
0

>  <SCORE.SYSTEM.CONST>
0

>  <SCORE.SYSTEM.DIHEDRAL>
0

>  <SCORE.SYSTEM.SOLV>
0

>  <SCORE.SYSTEM.norm>
0

>  <SCORE.heavy>
31

>  <SCORE.norm>
-0.224243

>  <RMSD>
8.976

$$$$
ligand
 OpenBabel11021811473D
libRbt.so/2013.1/901 2013/11/27
 31 33  0  0  0  0  0  0  0  0999 V2000
   14.6699    2.4146   20.3338 C   0  0  0  0  0  0  0  0  0  0  0  0
    8.9428    7.5823   22.4269 N   0  0  0  0  0  0  0  0  0  0  0  0
   15.3675    3.3301   19.4829 O   0  0  0  0  0  0  0  0  0  0  0  0
   13.1581    2.6029   20.1843 C   0  0  1  0  0  0  0  0  0  0  0  0
   12.6902   10.3929   21.0268 N   0  0  0  0  0  0  0  0  0  0  0  0
   12.7882    3.9503   20.5367 O   0  0  0  0  0  0  0  0  0  0  0  0
   12.0564    4.5265   19.4402 C   0  0  1  0  0  0  0  0  0  0  0  0
   13.5001   10.8727   16.9807 N   0  0  0  0  0  0  0  0  0  0  0  0
   12.2988    5.9373   19.3223 O   0  0  0  0  0  0  0  0  0  0  0  0
   12.1435    6.6556   20.5551 C   0  0  2  0  0  0  0  0  0  0  0  0
   16.4235    6.4107   20.6068 N   0  0  0  0  0  0  0  0  0  0  0  0
   10.1701    5.3879   21.1396 O   0  0  0  0  0  0  0  0  0  0  0  0
   10.6429    6.7094   20.8648 C   0  0  1  0  0  0  0  0  0  0  0  0
   14.1749    8.0420   20.3756 O   0  0  0  0  0  0  0  0  0  0  0  0
   10.3711    7.6035   22.0762 C   0  0  1  0  0  0  0  0  0  0  0  0
   14.5993    8.4650   18.0999 O   0  0  0  0  0  0  0  0  0  0  0  0
   10.8108    9.0317   21.7534 C   0  0  0  0  0  0  0  0  0  0  0  0
   17.3071   10.8388   18.8134 O   0  0  0  0  0  0  0  0  0  0  0  0
   12.3169    9.0430   21.4756 C   0  0  1  0  0  0  0  0  0  0  0  0
   18.4082    8.3398   19.7122 O   0  0  0  0  0  0  0  0  0  0  0  0
   12.7366    8.0509   20.3842 C   0  0  2  0  0  0  0  0  0  0  0  0
   11.8046    3.9035   17.0724 O   0  0  0  0  0  0  0  0  0  0  0  0
   14.7665    7.5220   19.1746 C   0  0  1  0  0  0  0  0  0  0  0  0
   11.4603    1.7761   18.6064 O   0  0  0  0  0  0  0  0  0  0  0  0
   15.2059    9.7463   18.3397 C   0  0  2  0  0  0  0  0  0  0  0  0
   14.9474   10.6567   17.1368 C   0  0  0  0  0  0  0  0  0  0  0  0
   16.7159    9.5720   18.5122 C   0  0  2  0  0  0  0  0  0  0  0  0
   17.0009    8.5959   19.6555 C   0  0  1  0  0  0  0  0  0  0  0  0
   16.2575    7.2768   19.4295 C   0  0  1  0  0  0  0  0  0  0  0  0
   12.6553    3.8317   18.2190 C   0  0  2  0  0  0  0  0  0  0  0  0
   12.7439    2.3949   18.7248 C   0  0  1  0  0  0  0  0  0  0  0  0
  1  3  1  0  0  0  0
  4  1  1  6  0  0  0
  4  6  1  0  0  0  0
  4 31  1  0  0  0  0
  6  7  1  0  0  0  0
  7  9  1  6  0  0  0
  7 30  1  0  0  0  0
  8 26  1  0  0  0  0
 10  9  1  6  0  0  0
 10 13  1  0  0  0  0
 10 21  1  0  0  0  0
 13 12  1  1  0  0  0
 13 15  1  0  0  0  0
 15  2  1  6  0  0  0
 15 17  1  0  0  0  0
 16 25  1  0  0  0  0
 16 23  1  0  0  0  0
 17 19  1  0  0  0  0
 19  5  1  6  0  0  0
 19 21  1  0  0  0  0
 21 14  1  1  0  0  0
 23 14  1  1  0  0  0
 23 29  1  0  0  0  0
 25 26  1  6  0  0  0
 25 27  1  0  0  0  0
 27 18  1  1  0  0  0
 27 28  1  0  0  0  0
 28 20  1  6  0  0  0
 28 29  1  0  0  0  0
 29 11  1  1  0  0  0
 30 22  1  6  0  0  0
 30 31  1  0  0  0  0
 31 24  1  1  0  0  0
M  END
>  <CHROM.1>
-59.57245676,-49.84672948,-72.22192551,72.42043140,73.50096058,62.39699079
13.53600937,6.78724875,19.67230435,-2.18498048,0.37518073,0.11580339

>  <Name>
ligand

>  <RI>
0

>  <Rbt.Current_Directory>
/home/itssahil/PROJECTS/Mol_Feturizer/New_Systems/rnas/3DVV

>  <Rbt.Executable>
rbdock ($Id: //depot/dev/client3/rdock/2013.1/src/exe/rbdock.cxx#4 $)

>  <Rbt.Library>
libRbt.so (2013.1, Build901 2013/11/27)

>  <Rbt.Parameter_File>
/export/apps/rDock/src/rDock_2013.1_src/data/scripts/dock_solv.prm

>  <Rbt.Receptor>
prm/pocket_docking_8.prm

>  <SCORE>
-6.89274

>  <SCORE.INTER>
-4.11994

>  <SCORE.INTER.CONST>
1

>  <SCORE.INTER.POLAR>
0

>  <SCORE.INTER.ROT>
6

>  <SCORE.INTER.SOLV>
11.0925

>  <SCORE.INTER.VDW>
-14.0441

>  <SCORE.INTER.norm>
-0.132901

>  <SCORE.INTRA>
-2.7728

>  <SCORE.INTRA.DIHEDRAL>
-7.76003

>  <SCORE.INTRA.DIHEDRAL.0>
10.8172

>  <SCORE.INTRA.POLAR>
0

>  <SCORE.INTRA.POLAR.0>
0

>  <SCORE.INTRA.REPUL>
0

>  <SCORE.INTRA.REPUL.0>
0

>  <SCORE.INTRA.SOLV>
-2.19665

>  <SCORE.INTRA.SOLV.lig_0>
-80.3833

>  <SCORE.INTRA.VDW>
2.20555

>  <SCORE.INTRA.VDW.0>
-4.63762

>  <SCORE.INTRA.norm>
-0.0894451

>  <SCORE.RESTR>
0

>  <SCORE.RESTR.CAVITY>
0

>  <SCORE.RESTR.norm>
0

>  <SCORE.SYSTEM>
0

>  <SCORE.SYSTEM.CONST>
0

>  <SCORE.SYSTEM.DIHEDRAL>
0

>  <SCORE.SYSTEM.SOLV>
0

>  <SCORE.SYSTEM.norm>
0

>  <SCORE.heavy>
31

>  <SCORE.norm>
-0.222346

>  <RMSD>
8.993

$$$$
ligand
 OpenBabel11021811473D
libRbt.so/2013.1/901 2013/11/27
 31 33  0  0  0  0  0  0  0  0999 V2000
   22.6551   -1.9259    8.0331 C   0  0  0  0  0  0  0  0  0  0  0  0
   19.5111   -4.6068   12.0959 N   0  0  0  0  0  0  0  0  0  0  0  0
   23.3029   -1.3737    9.1838 O   0  0  0  0  0  0  0  0  0  0  0  0
   21.2811   -1.2793    7.8401 C   0  0  1  0  0  0  0  0  0  0  0  0
   15.8492   -2.1565    9.9770 N   0  0  0  0  0  0  0  0  0  0  0  0
   20.5065   -1.3882    9.0504 O   0  0  0  0  0  0  0  0  0  0  0  0
   20.0683   -0.0727    9.4341 C   0  0  1  0  0  0  0  0  0  0  0  0
   19.3096    2.7538   14.6428 N   0  0  0  0  0  0  0  0  0  0  0  0
   19.9944    0.0676   10.8616 O   0  0  0  0  0  0  0  0  0  0  0  0
   19.0925   -0.8570   11.4875 C   0  0  2  0  0  0  0  0  0  0  0  0
   14.4364    1.2272   11.4969 N   0  0  0  0  0  0  0  0  0  0  0  0
   20.9208   -2.1737   12.3629 O   0  0  0  0  0  0  0  0  0  0  0  0
   19.7811   -2.2267   11.5004 C   0  0  1  0  0  0  0  0  0  0  0  0
   16.9932    0.2936   10.8956 O   0  0  0  0  0  0  0  0  0  0  0  0
   18.8229   -3.3106   11.9983 C   0  0  1  0  0  0  0  0  0  0  0  0
   17.8507    1.0326   12.9588 O   0  0  0  0  0  0  0  0  0  0  0  0
   17.6409   -3.4154   11.0344 C   0  0  0  0  0  0  0  0  0  0  0  0
   17.9571    4.5494   11.9115 O   0  0  0  0  0  0  0  0  0  0  0  0
   16.8892   -2.0812   11.0143 C   0  0  1  0  0  0  0  0  0  0  0  0
   15.1357    4.0051   12.0018 O   0  0  0  0  0  0  0  0  0  0  0  0
   17.7921   -0.8848   10.6900 C   0  0  2  0  0  0  0  0  0  0  0  0
   20.7766    2.1934    8.7852 O   0  0  0  0  0  0  0  0  0  0  0  0
   16.6744    0.5727   12.2679 C   0  0  1  0  0  0  0  0  0  0  0  0
   20.4547    0.6965    6.6280 O   0  0  0  0  0  0  0  0  0  0  0  0
   18.4233    2.2335   12.4137 C   0  0  2  0  0  0  0  0  0  0  0  0
   19.6673    2.6081   13.2228 C   0  0  0  0  0  0  0  0  0  0  0  0
   17.4079    3.3734   12.5119 C   0  0  2  0  0  0  0  0  0  0  0  0
   16.1190    2.9880   11.7830 C   0  0  1  0  0  0  0  0  0  0  0  0
   15.5873    1.6519   12.3085 C   0  0  1  0  0  0  0  0  0  0  0  0
   21.1870    0.8306    8.9191 C   0  0  2  0  0  0  0  0  0  0  0  0
   21.4396    0.2151    7.5460 C   0  0  1  0  0  0  0  0  0  0  0  0
  1  3  1  0  0  0  0
  4  1  1  1  0  0  0
  4  6  1  0  0  0  0
  4 31  1  0  0  0  0
  6  7  1  0  0  0  0
  7  9  1  1  0  0  0
  7 30  1  0  0  0  0
  8 26  1  0  0  0  0
 10  9  1  6  0  0  0
 10 13  1  0  0  0  0
 10 21  1  0  0  0  0
 13 12  1  1  0  0  0
 13 15  1  0  0  0  0
 15  2  1  6  0  0  0
 15 17  1  0  0  0  0
 16 25  1  0  0  0  0
 16 23  1  0  0  0  0
 17 19  1  0  0  0  0
 19  5  1  6  0  0  0
 19 21  1  0  0  0  0
 21 14  1  1  0  0  0
 23 14  1  6  0  0  0
 23 29  1  0  0  0  0
 25 26  1  1  0  0  0
 25 27  1  0  0  0  0
 27 18  1  6  0  0  0
 27 28  1  0  0  0  0
 28 20  1  1  0  0  0
 28 29  1  0  0  0  0
 29 11  1  6  0  0  0
 30 22  1  6  0  0  0
 30 31  1  0  0  0  0
 31 24  1  6  0  0  0
M  END
>  <CHROM.1>
-53.71153795,-59.58743511,75.30895725,71.87386759,-55.52578556,-56.55043423
18.85590870,0.14564677,10.84906550,-0.61801012,0.63470253,-0.02592306

>  <Name>
ligand

>  <RI>
0

>  <Rbt.Current_Directory>
/home/itssahil/PROJECTS/Mol_Feturizer/New_Systems/rnas/3DVV

>  <Rbt.Executable>
rbdock ($Id: //depot/dev/client3/rdock/2013.1/src/exe/rbdock.cxx#4 $)

>  <Rbt.Library>
libRbt.so (2013.1, Build901 2013/11/27)

>  <Rbt.Parameter_File>
/export/apps/rDock/src/rDock_2013.1_src/data/scripts/dock_solv.prm

>  <Rbt.Receptor>
prm/blind_docking_100.prm

>  <SCORE>
-5.82807

>  <SCORE.INTER>
-5.44836

>  <SCORE.INTER.CONST>
1

>  <SCORE.INTER.POLAR>
0

>  <SCORE.INTER.ROT>
6

>  <SCORE.INTER.SOLV>
22.3654

>  <SCORE.INTER.VDW>
-18.6874

>  <SCORE.INTER.norm>
-0.175753

>  <SCORE.INTRA>
-0.379713

>  <SCORE.INTRA.DIHEDRAL>
-8.48856

>  <SCORE.INTRA.DIHEDRAL.0>
10.8172

>  <SCORE.INTRA.POLAR>
0

>  <SCORE.INTRA.POLAR.0>
0

>  <SCORE.INTRA.REPUL>
0

>  <SCORE.INTRA.REPUL.0>
0

>  <SCORE.INTRA.SOLV>
-1.36825

>  <SCORE.INTRA.SOLV.lig_0>
-80.3833

>  <SCORE.INTRA.VDW>
4.54869

>  <SCORE.INTRA.VDW.0>
-4.63762

>  <SCORE.INTRA.norm>
-0.0122488

>  <SCORE.RESTR>
0

>  <SCORE.RESTR.CAVITY>
0

>  <SCORE.RESTR.norm>
0

>  <SCORE.SYSTEM>
0

>  <SCORE.SYSTEM.CONST>
0

>  <SCORE.SYSTEM.DIHEDRAL>
0

>  <SCORE.SYSTEM.SOLV>
0

>  <SCORE.SYSTEM.norm>
0

>  <SCORE.heavy>
31

>  <SCORE.norm>
-0.188002

>  <RMSD>
9.018

$$$$
ligand
 OpenBabel11021811473D
libRbt.so/2013.1/901 2013/11/27
 31 33  0  0  0  0  0  0  0  0999 V2000
   15.3029   -1.7478   10.8750 C   0  0  0  0  0  0  0  0  0  0  0  0
   23.5705   -2.2039    7.5972 N   0  0  0  0  0  0  0  0  0  0  0  0
   15.9932   -0.9666   11.8558 O   0  0  0  0  0  0  0  0  0  0  0  0
   16.2357   -2.8166   10.2999 C   0  0  1  0  0  0  0  0  0  0  0  0
   21.3853    2.1039    8.3531 N   0  0  0  0  0  0  0  0  0  0  0  0
   17.4034   -2.1991    9.7243 O   0  0  0  0  0  0  0  0  0  0  0  0
   18.5736   -2.7877   10.3192 C   0  0  1  0  0  0  0  0  0  0  0  0
   19.9468    3.7795   13.0521 N   0  0  0  0  0  0  0  0  0  0  0  0
   19.6450   -1.8383   10.4369 O   0  0  0  0  0  0  0  0  0  0  0  0
   20.1810   -1.4122    9.1755 C   0  0  2  0  0  0  0  0  0  0  0  0
   16.2501    1.0179    8.4919 N   0  0  0  0  0  0  0  0  0  0  0  0
   21.4166   -3.4729    8.9121 O   0  0  0  0  0  0  0  0  0  0  0  0
   21.5650   -2.0552    9.0283 C   0  0  1  0  0  0  0  0  0  0  0  0
   18.9718    0.7315    9.0219 O   0  0  0  0  0  0  0  0  0  0  0  0
   22.2820   -1.5205    7.7870 C   0  0  1  0  0  0  0  0  0  0  0  0
   18.6184    0.7632   11.3483 O   0  0  0  0  0  0  0  0  0  0  0  0
   22.5043   -0.0163    7.9459 C   0  0  0  0  0  0  0  0  0  0  0  0
   18.1063    4.3969   11.4486 O   0  0  0  0  0  0  0  0  0  0  0  0
   21.1464    0.6834    8.0558 C   0  0  1  0  0  0  0  0  0  0  0  0
   15.8119    3.4786    9.9798 O   0  0  0  0  0  0  0  0  0  0  0  0
   20.2612    0.1114    9.1698 C   0  0  2  0  0  0  0  0  0  0  0  0
   18.9334   -4.1405   12.3436 O   0  0  0  0  0  0  0  0  0  0  0  0
   18.0378    0.4362   10.0722 C   0  0  1  0  0  0  0  0  0  0  0  0
   16.8802   -5.0937   10.9748 O   0  0  0  0  0  0  0  0  0  0  0  0
   18.9821    2.1466   11.4938 C   0  0  2  0  0  0  0  0  0  0  0  0
   19.5962    2.3607   12.8793 C   0  0  0  0  0  0  0  0  0  0  0  0
   17.7320    3.0191   11.3669 C   0  0  2  0  0  0  0  0  0  0  0  0
   17.0488    2.7592   10.0228 C   0  0  1  0  0  0  0  0  0  0  0  0
   16.7686    1.2645    9.8462 C   0  0  1  0  0  0  0  0  0  0  0  0
   18.1015   -3.1570   11.7239 C   0  0  2  0  0  0  0  0  0  0  0  0
   16.7264   -3.7425   11.4165 C   0  0  1  0  0  0  0  0  0  0  0  0
  1  3  1  0  0  0  0
  4  1  1  1  0  0  0
  4  6  1  0  0  0  0
  4 31  1  0  0  0  0
  6  7  1  0  0  0  0
  7  9  1  1  0  0  0
  7 30  1  0  0  0  0
  8 26  1  0  0  0  0
 10  9  1  1  0  0  0
 10 13  1  0  0  0  0
 10 21  1  0  0  0  0
 13 12  1  6  0  0  0
 13 15  1  0  0  0  0
 15  2  1  1  0  0  0
 15 17  1  0  0  0  0
 16 25  1  0  0  0  0
 16 23  1  0  0  0  0
 17 19  1  0  0  0  0
 19  5  1  1  0  0  0
 19 21  1  0  0  0  0
 21 14  1  6  0  0  0
 23 14  1  6  0  0  0
 23 29  1  0  0  0  0
 25 26  1  1  0  0  0
 25 27  1  0  0  0  0
 27 18  1  6  0  0  0
 27 28  1  0  0  0  0
 28 20  1  1  0  0  0
 28 29  1  0  0  0  0
 29 11  1  6  0  0  0
 30 22  1  6  0  0  0
 30 31  1  0  0  0  0
 31 24  1  6  0  0  0
M  END
>  <CHROM.1>
-57.78500263,-67.14979281,-107.89842167,54.41732962,61.26588805,-178.80038528
18.80838910,-0.34368801,10.18756143,1.27447053,-0.45833060,-3.09686661

>  <Name>
ligand

>  <RI>
0

>  <Rbt.Current_Directory>
/home/itssahil/PROJECTS/Mol_Feturizer/New_Systems/rnas/3DVV

>  <Rbt.Executable>
rbdock ($Id: //depot/dev/client3/rdock/2013.1/src/exe/rbdock.cxx#4 $)

>  <Rbt.Library>
libRbt.so (2013.1, Build901 2013/11/27)

>  <Rbt.Parameter_File>
/export/apps/rDock/src/rDock_2013.1_src/data/scripts/dock_solv.prm

>  <Rbt.Receptor>
prm/blind_docking_40.prm

>  <SCORE>
-5.12349

>  <SCORE.INTER>
-4.38979

>  <SCORE.INTER.CONST>
1

>  <SCORE.INTER.POLAR>
0

>  <SCORE.INTER.ROT>
6

>  <SCORE.INTER.SOLV>
21.7963

>  <SCORE.INTER.VDW>
-17.792

>  <SCORE.INTER.norm>
-0.141606

>  <SCORE.INTRA>
-0.733703

>  <SCORE.INTRA.DIHEDRAL>
-3.62415

>  <SCORE.INTRA.DIHEDRAL.0>
10.8172

>  <SCORE.INTRA.POLAR>
0

>  <SCORE.INTRA.POLAR.0>
0

>  <SCORE.INTRA.REPUL>
0

>  <SCORE.INTRA.REPUL.0>
0

>  <SCORE.INTRA.SOLV>
-0.427511

>  <SCORE.INTRA.SOLV.lig_0>
-80.3833

>  <SCORE.INTRA.VDW>
1.29213

>  <SCORE.INTRA.VDW.0>
-4.63762

>  <SCORE.INTRA.norm>
-0.0236678

>  <SCORE.RESTR>
0

>  <SCORE.RESTR.CAVITY>
0

>  <SCORE.RESTR.norm>
0

>  <SCORE.SYSTEM>
0

>  <SCORE.SYSTEM.CONST>
0

>  <SCORE.SYSTEM.DIHEDRAL>
0

>  <SCORE.SYSTEM.SOLV>
0

>  <SCORE.SYSTEM.norm>
0

>  <SCORE.heavy>
31

>  <SCORE.norm>
-0.165274

>  <RMSD>
9.061

$$$$
ligand
 OpenBabel11021811473D
libRbt.so/2013.1/901 2013/11/27
 31 33  0  0  0  0  0  0  0  0999 V2000
   23.2592   -1.6456    8.5102 C   0  0  0  0  0  0  0  0  0  0  0  0
   19.4782   -4.6362   12.1560 N   0  0  0  0  0  0  0  0  0  0  0  0
   24.0786   -1.5583    7.3398 O   0  0  0  0  0  0  0  0  0  0  0  0
   21.8118   -1.2827    8.1690 C   0  0  1  0  0  0  0  0  0  0  0  0
   15.8928   -2.1051   10.0014 N   0  0  0  0  0  0  0  0  0  0  0  0
   20.9739   -1.4372    9.3312 O   0  0  0  0  0  0  0  0  0  0  0  0
   20.2774   -0.1997    9.5619 C   0  0  1  0  0  0  0  0  0  0  0  0
   20.6154    1.7953   13.2334 N   0  0  0  0  0  0  0  0  0  0  0  0
   20.0641    0.0371   10.9624 O   0  0  0  0  0  0  0  0  0  0  0  0
   19.1365   -0.8752   11.5684 C   0  0  2  0  0  0  0  0  0  0  0  0
   14.4500    1.0816   11.5339 N   0  0  0  0  0  0  0  0  0  0  0  0
   20.9276   -2.2310   12.4609 O   0  0  0  0  0  0  0  0  0  0  0  0
   19.8000   -2.2573   11.5816 C   0  0  1  0  0  0  0  0  0  0  0  0
   17.0673    0.3174   10.9542 O   0  0  0  0  0  0  0  0  0  0  0  0
   18.8151   -3.3270   12.0576 C   0  0  1  0  0  0  0  0  0  0  0  0
   17.8612    1.1296   13.0153 O   0  0  0  0  0  0  0  0  0  0  0  0
   17.6457   -3.4036   11.0758 C   0  0  0  0  0  0  0  0  0  0  0  0
   17.7367    4.6368   11.9379 O   0  0  0  0  0  0  0  0  0  0  0  0
   16.9187   -2.0558   11.0543 C   0  0  1  0  0  0  0  0  0  0  0  0
   14.9579    3.9045   12.0182 O   0  0  0  0  0  0  0  0  0  0  0  0
   17.8477   -0.8738   10.7518 C   0  0  2  0  0  0  0  0  0  0  0  0
   20.6181    2.0998    8.7531 O   0  0  0  0  0  0  0  0  0  0  0  0
   16.7225    0.5859   12.3223 C   0  0  1  0  0  0  0  0  0  0  0  0
   20.7456    0.4030    6.7277 O   0  0  0  0  0  0  0  0  0  0  0  0
   18.3548    2.3618   12.4627 C   0  0  2  0  0  0  0  0  0  0  0  0
   19.5660    2.8261   13.2750 C   0  0  0  0  0  0  0  0  0  0  0  0
   17.2644    3.4315   12.5456 C   0  0  2  0  0  0  0  0  0  0  0  0
   16.0086    2.9541   11.8134 C   0  0  1  0  0  0  0  0  0  0  0  0
   15.5650    1.5897   12.3478 C   0  0  1  0  0  0  0  0  0  0  0  0
   21.2539    0.8518    9.0393 C   0  0  2  0  0  0  0  0  0  0  0  0
   21.7231    0.1871    7.7486 C   0  0  1  0  0  0  0  0  0  0  0  0
  1  3  1  0  0  0  0
  4  1  1  1  0  0  0
  4  6  1  0  0  0  0
  4 31  1  0  0  0  0
  6  7  1  0  0  0  0
  7  9  1  1  0  0  0
  7 30  1  0  0  0  0
  8 26  1  0  0  0  0
 10  9  1  6  0  0  0
 10 13  1  0  0  0  0
 10 21  1  0  0  0  0
 13 12  1  1  0  0  0
 13 15  1  0  0  0  0
 15  2  1  6  0  0  0
 15 17  1  0  0  0  0
 16 25  1  0  0  0  0
 16 23  1  0  0  0  0
 17 19  1  0  0  0  0
 19  5  1  6  0  0  0
 19 21  1  0  0  0  0
 21 14  1  1  0  0  0
 23 14  1  6  0  0  0
 23 29  1  0  0  0  0
 25 26  1  1  0  0  0
 25 27  1  0  0  0  0
 27 18  1  6  0  0  0
 27 28  1  0  0  0  0
 28 20  1  1  0  0  0
 28 29  1  0  0  0  0
 29 11  1  6  0  0  0
 30 22  1  6  0  0  0
 30 31  1  0  0  0  0
 31 24  1  6  0  0  0
M  END
>  <CHROM.1>
177.04764822,-68.23767387,68.22988424,77.09467839,-56.09693356,59.23823770
18.98333688,0.10379164,10.82360957,-0.51050246,0.58653279,-0.05191841

>  <Name>
ligand

>  <RI>
0

>  <Rbt.Current_Directory>
/home/itssahil/PROJECTS/Mol_Feturizer/New_Systems/rnas/3DVV

>  <Rbt.Executable>
rbdock ($Id: //depot/dev/client3/rdock/2013.1/src/exe/rbdock.cxx#4 $)

>  <Rbt.Library>
libRbt.so (2013.1, Build901 2013/11/27)

>  <Rbt.Parameter_File>
/export/apps/rDock/src/rDock_2013.1_src/data/scripts/dock_solv.prm

>  <Rbt.Receptor>
prm/blind_docking_80.prm

>  <SCORE>
-6.79528

>  <SCORE.INTER>
-6.03686

>  <SCORE.INTER.CONST>
1

>  <SCORE.INTER.POLAR>
0

>  <SCORE.INTER.ROT>
6

>  <SCORE.INTER.SOLV>
24.4744

>  <SCORE.INTER.VDW>
-19.7827

>  <SCORE.INTER.norm>
-0.194737

>  <SCORE.INTRA>
-0.758414

>  <SCORE.INTRA.DIHEDRAL>
-8.44698

>  <SCORE.INTRA.DIHEDRAL.0>
10.8172

>  <SCORE.INTRA.POLAR>
0

>  <SCORE.INTRA.POLAR.0>
0

>  <SCORE.INTRA.REPUL>
0

>  <SCORE.INTRA.REPUL.0>
0

>  <SCORE.INTRA.SOLV>
-0.722918

>  <SCORE.INTRA.SOLV.lig_0>
-80.3833

>  <SCORE.INTRA.VDW>
3.82653

>  <SCORE.INTRA.VDW.0>
-4.63762

>  <SCORE.INTRA.norm>
-0.024465

>  <SCORE.RESTR>
0

>  <SCORE.RESTR.CAVITY>
0

>  <SCORE.RESTR.norm>
0

>  <SCORE.SYSTEM>
0

>  <SCORE.SYSTEM.CONST>
0

>  <SCORE.SYSTEM.DIHEDRAL>
0

>  <SCORE.SYSTEM.SOLV>
0

>  <SCORE.SYSTEM.norm>
0

>  <SCORE.heavy>
31

>  <SCORE.norm>
-0.219202

>  <RMSD>
9.083

$$$$
ligand
 OpenBabel11021811473D
libRbt.so/2013.1/901 2013/11/27
 31 33  0  0  0  0  0  0  0  0999 V2000
   23.2554   -1.6526    8.5394 C   0  0  0  0  0  0  0  0  0  0  0  0
   19.5751   -4.6282   12.1739 N   0  0  0  0  0  0  0  0  0  0  0  0
   24.0765   -1.5867    7.3688 O   0  0  0  0  0  0  0  0  0  0  0  0
   21.8102   -1.2870    8.1912 C   0  0  1  0  0  0  0  0  0  0  0  0
   15.9179   -2.1686   10.0576 N   0  0  0  0  0  0  0  0  0  0  0  0
   20.9679   -1.4321    9.3513 O   0  0  0  0  0  0  0  0  0  0  0  0
   20.2746   -0.1911    9.5726 C   0  0  1  0  0  0  0  0  0  0  0  0
   20.5929    1.7927   13.2646 N   0  0  0  0  0  0  0  0  0  0  0  0
   20.0574    0.0545   10.9710 O   0  0  0  0  0  0  0  0  0  0  0  0
   19.1543   -0.8751   11.5878 C   0  0  2  0  0  0  0  0  0  0  0  0
   14.4360    1.0023   11.6127 N   0  0  0  0  0  0  0  0  0  0  0  0
   20.9810   -2.1952   12.4613 O   0  0  0  0  0  0  0  0  0  0  0  0
   19.8445   -2.2440   11.5945 C   0  0  1  0  0  0  0  0  0  0  0  0
   17.0558    0.2769   10.9958 O   0  0  0  0  0  0  0  0  0  0  0  0
   18.8857   -3.3322   12.0821 C   0  0  1  0  0  0  0  0  0  0  0  0
   17.8677    1.1073   13.0426 O   0  0  0  0  0  0  0  0  0  0  0  0
   17.7072   -3.4322   11.1133 C   0  0  0  0  0  0  0  0  0  0  0  0
   17.6728    4.6090   11.9578 O   0  0  0  0  0  0  0  0  0  0  0  0
   16.9541   -2.0987   11.0990 C   0  0  1  0  0  0  0  0  0  0  0  0
   14.9072    3.8340   12.0817 O   0  0  0  0  0  0  0  0  0  0  0  0
   17.8568   -0.8992   10.7855 C   0  0  2  0  0  0  0  0  0  0  0  0
   20.6255    2.1026    8.7518 O   0  0  0  0  0  0  0  0  0  0  0  0
   16.7274    0.5440   12.3682 C   0  0  1  0  0  0  0  0  0  0  0  0
   20.7543    0.3938    6.7366 O   0  0  0  0  0  0  0  0  0  0  0  0
   18.3339    2.3453   12.4794 C   0  0  2  0  0  0  0  0  0  0  0  0
   19.5498    2.8307   13.2722 C   0  0  0  0  0  0  0  0  0  0  0  0
   17.2284    3.3983   12.5758 C   0  0  2  0  0  0  0  0  0  0  0  0
   15.9693    2.8994   11.8637 C   0  0  1  0  0  0  0  0  0  0  0  0
   15.5550    1.5299   12.4083 C   0  0  1  0  0  0  0  0  0  0  0  0
   21.2563    0.8543    9.0473 C   0  0  2  0  0  0  0  0  0  0  0  0
   21.7278    0.1806    7.7620 C   0  0  1  0  0  0  0  0  0  0  0  0
  1  3  1  0  0  0  0
  4  1  1  1  0  0  0
  4  6  1  0  0  0  0
  4 31  1  0  0  0  0
  6  7  1  0  0  0  0
  7  9  1  1  0  0  0
  7 30  1  0  0  0  0
  8 26  1  0  0  0  0
 10  9  1  6  0  0  0
 10 13  1  0  0  0  0
 10 21  1  0  0  0  0
 13 12  1  1  0  0  0
 13 15  1  0  0  0  0
 15  2  1  6  0  0  0
 15 17  1  0  0  0  0
 16 25  1  0  0  0  0
 16 23  1  0  0  0  0
 17 19  1  0  0  0  0
 19  5  1  6  0  0  0
 19 21  1  0  0  0  0
 21 14  1  1  0  0  0
 23 14  1  6  0  0  0
 23 29  1  0  0  0  0
 25 26  1  1  0  0  0
 25 27  1  0  0  0  0
 27 18  1  6  0  0  0
 27 28  1  0  0  0  0
 28 20  1  1  0  0  0
 28 29  1  0  0  0  0
 29 11  1  6  0  0  0
 30 22  1  6  0  0  0
 30 31  1  0  0  0  0
 31 24  1  6  0  0  0
M  END
>  <CHROM.1>
176.51085669,-66.54257434,67.38093426,76.81458155,-55.76263804,56.89678358
18.98734454,0.08558010,10.85103839,-0.49834591,0.58969109,-0.05917161

>  <Name>
ligand

>  <RI>
0

>  <Rbt.Current_Directory>
/home/itssahil/PROJECTS/Mol_Feturizer/New_Systems/rnas/3DVV

>  <Rbt.Executable>
rbdock ($Id: //depot/dev/client3/rdock/2013.1/src/exe/rbdock.cxx#4 $)

>  <Rbt.Library>
libRbt.so (2013.1, Build901 2013/11/27)

>  <Rbt.Parameter_File>
/export/apps/rDock/src/rDock_2013.1_src/data/scripts/dock_solv.prm

>  <Rbt.Receptor>
prm/blind_docking_60.prm

>  <SCORE>
-6.68883

>  <SCORE.INTER>
-6.0483

>  <SCORE.INTER.CONST>
1

>  <SCORE.INTER.POLAR>
0

>  <SCORE.INTER.ROT>
6

>  <SCORE.INTER.SOLV>
24.8134

>  <SCORE.INTER.VDW>
-19.9033

>  <SCORE.INTER.norm>
-0.195106

>  <SCORE.INTRA>
-0.640535

>  <SCORE.INTRA.DIHEDRAL>
-8.60945

>  <SCORE.INTRA.DIHEDRAL.0>
10.8172

>  <SCORE.INTRA.POLAR>
0

>  <SCORE.INTRA.POLAR.0>
0

>  <SCORE.INTRA.REPUL>
0

>  <SCORE.INTRA.REPUL.0>
0

>  <SCORE.INTRA.SOLV>
-0.690797

>  <SCORE.INTRA.SOLV.lig_0>
-80.3833

>  <SCORE.INTRA.VDW>
4.00959

>  <SCORE.INTRA.VDW.0>
-4.63762

>  <SCORE.INTRA.norm>
-0.0206624

>  <SCORE.RESTR>
0

>  <SCORE.RESTR.CAVITY>
0

>  <SCORE.RESTR.norm>
0

>  <SCORE.SYSTEM>
0

>  <SCORE.SYSTEM.CONST>
0

>  <SCORE.SYSTEM.DIHEDRAL>
0

>  <SCORE.SYSTEM.SOLV>
0

>  <SCORE.SYSTEM.norm>
0

>  <SCORE.heavy>
31

>  <SCORE.norm>
-0.215769

>  <RMSD>
9.085

$$$$
ligand
 OpenBabel11021811473D
libRbt.so/2013.1/901 2013/11/27
 31 33  0  0  0  0  0  0  0  0999 V2000
   23.3772   -1.5660    8.4594 C   0  0  0  0  0  0  0  0  0  0  0  0
   19.7287   -4.6967   12.1376 N   0  0  0  0  0  0  0  0  0  0  0  0
   23.5125   -2.9565    8.7706 O   0  0  0  0  0  0  0  0  0  0  0  0
   21.9187   -1.2389    8.1290 C   0  0  1  0  0  0  0  0  0  0  0  0
   16.0698   -2.3044    9.9484 N   0  0  0  0  0  0  0  0  0  0  0  0
   21.0905   -1.4318    9.2923 O   0  0  0  0  0  0  0  0  0  0  0  0
   20.3611   -0.2173    9.5422 C   0  0  1  0  0  0  0  0  0  0  0  0
   19.3140    2.7535   14.6693 N   0  0  0  0  0  0  0  0  0  0  0  0
   20.1475   -0.0048   10.9466 O   0  0  0  0  0  0  0  0  0  0  0  0
   19.2497   -0.9516   11.5445 C   0  0  2  0  0  0  0  0  0  0  0  0
   14.5460    1.0012   11.4793 N   0  0  0  0  0  0  0  0  0  0  0  0
   21.0827   -2.2380   12.4545 O   0  0  0  0  0  0  0  0  0  0  0  0
   19.9651   -2.3075   11.5647 C   0  0  1  0  0  0  0  0  0  0  0  0
   17.1424    0.1612   10.9105 O   0  0  0  0  0  0  0  0  0  0  0  0
   19.0172   -3.4137   12.0323 C   0  0  1  0  0  0  0  0  0  0  0  0
   17.9480    0.9376   12.9809 O   0  0  0  0  0  0  0  0  0  0  0  0
   17.8607   -3.5350   11.0398 C   0  0  0  0  0  0  0  0  0  0  0  0
   17.9361    4.4529   11.9230 O   0  0  0  0  0  0  0  0  0  0  0  0
   17.0832   -2.2159   11.0107 C   0  0  1  0  0  0  0  0  0  0  0  0
   15.1360    3.8046   11.9827 O   0  0  0  0  0  0  0  0  0  0  0  0
   17.9694   -0.9995   10.7161 C   0  0  2  0  0  0  0  0  0  0  0  0
   20.6344    2.1013    8.7627 O   0  0  0  0  0  0  0  0  0  0  0  0
   16.7976    0.4324   12.2781 C   0  0  1  0  0  0  0  0  0  0  0  0
   20.7999    0.4354    6.7144 O   0  0  0  0  0  0  0  0  0  0  0  0
   18.4820    2.1573   12.4383 C   0  0  2  0  0  0  0  0  0  0  0  0
   19.7018    2.5803   13.2603 C   0  0  0  0  0  0  0  0  0  0  0  0
   17.4239    3.2591   12.5210 C   0  0  2  0  0  0  0  0  0  0  0  0
   16.1587    2.8240   11.7786 C   0  0  1  0  0  0  0  0  0  0  0  0
   15.6709    1.4707   12.3025 C   0  0  1  0  0  0  0  0  0  0  0  0
   21.3058    0.8678    9.0297 C   0  0  2  0  0  0  0  0  0  0  0  0
   21.7876    0.2333    7.7284 C   0  0  1  0  0  0  0  0  0  0  0  0
  1  3  1  0  0  0  0
  4  1  1  1  0  0  0
  4  6  1  0  0  0  0
  4 31  1  0  0  0  0
  6  7  1  0  0  0  0
  7  9  1  1  0  0  0
  7 30  1  0  0  0  0
  8 26  1  0  0  0  0
 10  9  1  6  0  0  0
 10 13  1  0  0  0  0
 10 21  1  0  0  0  0
 13 12  1  1  0  0  0
 13 15  1  0  0  0  0
 15  2  1  6  0  0  0
 15 17  1  0  0  0  0
 16 25  1  0  0  0  0
 16 23  1  0  0  0  0
 17 19  1  0  0  0  0
 19  5  1  6  0  0  0
 19 21  1  0  0  0  0
 21 14  1  1  0  0  0
 23 14  1  6  0  0  0
 23 29  1  0  0  0  0
 25 26  1  1  0  0  0
 25 27  1  0  0  0  0
 27 18  1  6  0  0  0
 27 28  1  0  0  0  0
 28 20  1  1  0  0  0
 28 29  1  0  0  0  0
 29 11  1  6  0  0  0
 30 22  1  6  0  0  0
 30 31  1  0  0  0  0
 31 24  1  6  0  0  0
M  END
>  <CHROM.1>
65.16898714,-68.15161454,69.44104687,72.81035117,-54.88224240,-58.12768803
19.03802111,0.00468329,10.89493666,-0.59979506,0.60214735,-0.05650133

>  <Name>
ligand

>  <RI>
0

>  <Rbt.Current_Directory>
/home/itssahil/PROJECTS/Mol_Feturizer/New_Systems/rnas/3DVV

>  <Rbt.Executable>
rbdock ($Id: //depot/dev/client3/rdock/2013.1/src/exe/rbdock.cxx#4 $)

>  <Rbt.Library>
libRbt.so (2013.1, Build901 2013/11/27)

>  <Rbt.Parameter_File>
/export/apps/rDock/src/rDock_2013.1_src/data/scripts/dock_solv.prm

>  <Rbt.Receptor>
prm/blind_docking_100.prm

>  <SCORE>
-7.44991

>  <SCORE.INTER>
-6.3714

>  <SCORE.INTER.CONST>
1

>  <SCORE.INTER.POLAR>
0

>  <SCORE.INTER.ROT>
6

>  <SCORE.INTER.SOLV>
23.0317

>  <SCORE.INTER.VDW>
-19.5248

>  <SCORE.INTER.norm>
-0.205529

>  <SCORE.INTRA>
-1.07851

>  <SCORE.INTRA.DIHEDRAL>
-8.78633

>  <SCORE.INTRA.DIHEDRAL.0>
10.8172

>  <SCORE.INTRA.POLAR>
0

>  <SCORE.INTRA.POLAR.0>
0

>  <SCORE.INTRA.REPUL>
0

>  <SCORE.INTRA.REPUL.0>
0

>  <SCORE.INTRA.SOLV>
-1.94727

>  <SCORE.INTRA.SOLV.lig_0>
-80.3833

>  <SCORE.INTRA.VDW>
4.28829

>  <SCORE.INTRA.VDW.0>
-4.63762

>  <SCORE.INTRA.norm>
-0.0347905

>  <SCORE.RESTR>
0

>  <SCORE.RESTR.CAVITY>
0

>  <SCORE.RESTR.norm>
0

>  <SCORE.SYSTEM>
0

>  <SCORE.SYSTEM.CONST>
0

>  <SCORE.SYSTEM.DIHEDRAL>
0

>  <SCORE.SYSTEM.SOLV>
0

>  <SCORE.SYSTEM.norm>
0

>  <SCORE.heavy>
31

>  <SCORE.norm>
-0.24032

>  <RMSD>
9.101

$$$$
ligand
 OpenBabel11021811473D
libRbt.so/2013.1/901 2013/11/27
 31 33  0  0  0  0  0  0  0  0999 V2000
   18.6752   -3.6832   11.3318 C   0  0  0  0  0  0  0  0  0  0  0  0
   20.6233    3.8220   15.4142 N   0  0  0  0  0  0  0  0  0  0  0  0
   17.3842   -3.6182   11.9466 O   0  0  0  0  0  0  0  0  0  0  0  0
   18.9219   -2.4292   10.4891 C   0  0  1  0  0  0  0  0  0  0  0  0
   16.4886    2.2241   13.3517 N   0  0  0  0  0  0  0  0  0  0  0  0
   18.9415   -1.2605   11.3318 O   0  0  0  0  0  0  0  0  0  0  0  0
   20.1747   -0.5543   11.1076 C   0  0  1  0  0  0  0  0  0  0  0  0
   21.4705    0.2114    7.5582 N   0  0  0  0  0  0  0  0  0  0  0  0
   20.6429    0.0903   12.3026 O   0  0  0  0  0  0  0  0  0  0  0  0
   20.1069    1.4075   12.4970 C   0  0  2  0  0  0  0  0  0  0  0  0
   15.6480    1.8562    9.9701 N   0  0  0  0  0  0  0  0  0  0  0  0
   22.0821    2.1234   13.6922 O   0  0  0  0  0  0  0  0  0  0  0  0
   20.6699    1.9375   13.8208 C   0  0  1  0  0  0  0  0  0  0  0  0
   18.0195    1.0946   11.2218 O   0  0  0  0  0  0  0  0  0  0  0  0
   20.0182    3.2710   14.1920 C   0  0  1  0  0  0  0  0  0  0  0  0
   19.3268    2.3379    9.7108 O   0  0  0  0  0  0  0  0  0  0  0  0
   18.5191    3.0551   14.4003 C   0  0  0  0  0  0  0  0  0  0  0  0
   18.9556   -0.1243    7.0134 O   0  0  0  0  0  0  0  0  0  0  0  0
   17.8957    2.5631   13.0907 C   0  0  1  0  0  0  0  0  0  0  0  0
   16.2867    0.9060    7.2961 O   0  0  0  0  0  0  0  0  0  0  0  0
   18.5843    1.3145   12.5263 C   0  0  2  0  0  0  0  0  0  0  0  0
   22.3099   -1.1866   10.0593 O   0  0  0  0  0  0  0  0  0  0  0  0
   18.0431    2.2395   10.3550 C   0  0  1  0  0  0  0  0  0  0  0  0
   20.2934   -1.9176    8.5110 O   0  0  0  0  0  0  0  0  0  0  0  0
   19.6703    1.1992    8.9030 C   0  0  2  0  0  0  0  0  0  0  0  0
   21.0543    1.4197    8.2879 C   0  0  0  0  0  0  0  0  0  0  0  0
   18.6472    1.0454    7.7761 C   0  0  2  0  0  0  0  0  0  0  0  0
   17.2408    0.9103    8.3633 C   0  0  1  0  0  0  0  0  0  0  0  0
   16.9399    2.0805    9.3034 C   0  0  1  0  0  0  0  0  0  0  0  0
   21.1538   -1.6698   10.7474 C   0  0  2  0  0  0  0  0  0  0  0  0
   20.2925   -2.5123    9.8113 C   0  0  1  0  0  0  0  0  0  0  0  0
  1  3  1  0  0  0  0
  4  1  1  1  0  0  0
  4  6  1  0  0  0  0
  4 31  1  0  0  0  0
  6  7  1  0  0  0  0
  7  9  1  1  0  0  0
  7 30  1  0  0  0  0
  8 26  1  0  0  0  0
 10  9  1  1  0  0  0
 10 13  1  0  0  0  0
 10 21  1  0  0  0  0
 13 12  1  6  0  0  0
 13 15  1  0  0  0  0
 15  2  1  1  0  0  0
 15 17  1  0  0  0  0
 16 25  1  0  0  0  0
 16 23  1  0  0  0  0
 17 19  1  0  0  0  0
 19  5  1  1  0  0  0
 19 21  1  0  0  0  0
 21 14  1  6  0  0  0
 23 14  1  1  0  0  0
 23 29  1  0  0  0  0
 25 26  1  6  0  0  0
 25 27  1  0  0  0  0
 27 18  1  1  0  0  0
 27 28  1  0  0  0  0
 28 20  1  6  0  0  0
 28 29  1  0  0  0  0
 29 11  1  1  0  0  0
 30 22  1  6  0  0  0
 30 31  1  0  0  0  0
 31 24  1  6  0  0  0
M  END
>  <CHROM.1>
63.39878715,-87.31011828,178.53725143,83.48256304,-73.54920889,174.90739720
19.20737285,0.54616419,10.82417186,-1.67507023,-0.80686644,0.91671682

>  <Name>
ligand

>  <RI>
0

>  <Rbt.Current_Directory>
/home/itssahil/PROJECTS/Mol_Feturizer/New_Systems/rnas/3DVV

>  <Rbt.Executable>
rbdock ($Id: //depot/dev/client3/rdock/2013.1/src/exe/rbdock.cxx#4 $)

>  <Rbt.Library>
libRbt.so (2013.1, Build901 2013/11/27)

>  <Rbt.Parameter_File>
/export/apps/rDock/src/rDock_2013.1_src/data/scripts/dock_solv.prm

>  <Rbt.Receptor>
prm/blind_docking_60.prm

>  <SCORE>
1.11143

>  <SCORE.INTER>
-2.28964

>  <SCORE.INTER.CONST>
1

>  <SCORE.INTER.POLAR>
0

>  <SCORE.INTER.ROT>
6

>  <SCORE.INTER.SOLV>
19.8135

>  <SCORE.INTER.VDW>
-15.7309

>  <SCORE.INTER.norm>
-0.0738593

>  <SCORE.INTRA>
2.90174

>  <SCORE.INTRA.DIHEDRAL>
-4.19844

>  <SCORE.INTRA.DIHEDRAL.0>
10.8172

>  <SCORE.INTRA.POLAR>
0

>  <SCORE.INTRA.POLAR.0>
0

>  <SCORE.INTRA.REPUL>
0

>  <SCORE.INTRA.REPUL.0>
0

>  <SCORE.INTRA.SOLV>
3.82702

>  <SCORE.INTRA.SOLV.lig_0>
-80.3833

>  <SCORE.INTRA.VDW>
3.08745

>  <SCORE.INTRA.VDW.0>
-4.63762

>  <SCORE.INTRA.norm>
0.0936046

>  <SCORE.RESTR>
0.499328

>  <SCORE.RESTR.CAVITY>
0.499328

>  <SCORE.RESTR.norm>
0.0161074

>  <SCORE.SYSTEM>
0

>  <SCORE.SYSTEM.CONST>
0

>  <SCORE.SYSTEM.DIHEDRAL>
0

>  <SCORE.SYSTEM.SOLV>
0

>  <SCORE.SYSTEM.norm>
0

>  <SCORE.heavy>
31

>  <SCORE.norm>
0.0358527

>  <RMSD>
9.111

$$$$
ligand
 OpenBabel11021811473D
libRbt.so/2013.1/901 2013/11/27
 31 33  0  0  0  0  0  0  0  0999 V2000
   23.1875   -1.4688    8.5378 C   0  0  0  0  0  0  0  0  0  0  0  0
   19.7358   -4.6309   12.0824 N   0  0  0  0  0  0  0  0  0  0  0  0
   24.0259   -1.3744    7.3815 O   0  0  0  0  0  0  0  0  0  0  0  0
   21.7498   -1.0839    8.1799 C   0  0  1  0  0  0  0  0  0  0  0  0
   16.0066   -2.3855    9.8565 N   0  0  0  0  0  0  0  0  0  0  0  0
   20.8830   -1.2938    9.3118 O   0  0  0  0  0  0  0  0  0  0  0  0
   20.1840   -0.0670    9.5875 C   0  0  1  0  0  0  0  0  0  0  0  0
   19.7583    3.8516   12.8994 N   0  0  0  0  0  0  0  0  0  0  0  0
   19.9366    0.0998   10.9924 O   0  0  0  0  0  0  0  0  0  0  0  0
   19.0763   -0.9040   11.5512 C   0  0  2  0  0  0  0  0  0  0  0  0
   14.2495    0.7303   11.3495 N   0  0  0  0  0  0  0  0  0  0  0  0
   20.9531   -2.1129   12.4778 O   0  0  0  0  0  0  0  0  0  0  0  0
   19.8604   -2.2214   11.5615 C   0  0  1  0  0  0  0  0  0  0  0  0
   16.9285    0.1118   10.8906 O   0  0  0  0  0  0  0  0  0  0  0  0
   18.9612   -3.3843   11.9857 C   0  0  1  0  0  0  0  0  0  0  0  0
   17.5662    0.8648   13.0270 O   0  0  0  0  0  0  0  0  0  0  0  0
   17.8346   -3.5446   10.9646 C   0  0  0  0  0  0  0  0  0  0  0  0
   17.3355    4.4080   12.0947 O   0  0  0  0  0  0  0  0  0  0  0  0
   16.9905   -2.2668   10.9433 C   0  0  1  0  0  0  0  0  0  0  0  0
   14.5945    3.5483   11.9823 O   0  0  0  0  0  0  0  0  0  0  0  0
   17.8186   -1.0007   10.6928 C   0  0  2  0  0  0  0  0  0  0  0  0
   20.5501    2.2691    8.9045 O   0  0  0  0  0  0  0  0  0  0  0  0
   16.4953    0.3022   12.2466 C   0  0  1  0  0  0  0  0  0  0  0  0
   20.7237    0.6761    6.7997 O   0  0  0  0  0  0  0  0  0  0  0  0
   18.0308    2.1417   12.5570 C   0  0  2  0  0  0  0  0  0  0  0  0
   19.1711    2.6230   13.4573 C   0  0  0  0  0  0  0  0  0  0  0  0
   16.8878    3.1564   12.6221 C   0  0  2  0  0  0  0  0  0  0  0  0
   15.6991    2.6565   11.7985 C   0  0  1  0  0  0  0  0  0  0  0  0
   15.2917    1.2507   12.2476 C   0  0  1  0  0  0  0  0  0  0  0  0
   21.1757    1.0060    9.1428 C   0  0  2  0  0  0  0  0  0  0  0  0
   21.6751    0.4055    7.8321 C   0  0  1  0  0  0  0  0  0  0  0  0
  1  3  1  0  0  0  0
  4  1  1  1  0  0  0
  4  6  1  0  0  0  0
  4 31  1  0  0  0  0
  6  7  1  0  0  0  0
  7  9  1  1  0  0  0
  7 30  1  0  0  0  0
  8 26  1  0  0  0  0
 10  9  1  6  0  0  0
 10 13  1  0  0  0  0
 10 21  1  0  0  0  0
 13 12  1  1  0  0  0
 13 15  1  0  0  0  0
 15  2  1  6  0  0  0
 15 17  1  0  0  0  0
 16 25  1  0  0  0  0
 16 23  1  0  0  0  0
 17 19  1  0  0  0  0
 19  5  1  6  0  0  0
 19 21  1  0  0  0  0
 21 14  1  1  0  0  0
 23 14  1  6  0  0  0
 23 29  1  0  0  0  0
 25 26  1  1  0  0  0
 25 27  1  0  0  0  0
 27 18  1  6  0  0  0
 27 28  1  0  0  0  0
 28 20  1  1  0  0  0
 28 29  1  0  0  0  0
 29 11  1  6  0  0  0
 30 22  1  6  0  0  0
 30 31  1  0  0  0  0
 31 24  1  6  0  0  0
M  END
>  <CHROM.1>
174.85791275,-63.48409653,69.86492591,74.67590298,-57.39712425,173.55954600
18.84954385,0.10763637,10.81422170,-0.49877722,0.55600648,-0.01990268

>  <Name>
ligand

>  <RI>
0

>  <Rbt.Current_Directory>
/home/itssahil/PROJECTS/Mol_Feturizer/New_Systems/rnas/3DVV

>  <Rbt.Executable>
rbdock ($Id: //depot/dev/client3/rdock/2013.1/src/exe/rbdock.cxx#4 $)

>  <Rbt.Library>
libRbt.so (2013.1, Build901 2013/11/27)

>  <Rbt.Parameter_File>
/export/apps/rDock/src/rDock_2013.1_src/data/scripts/dock_solv.prm

>  <Rbt.Receptor>
prm/blind_docking_100.prm

>  <SCORE>
-6.24515

>  <SCORE.INTER>
-5.61532

>  <SCORE.INTER.CONST>
1

>  <SCORE.INTER.POLAR>
0

>  <SCORE.INTER.ROT>
6

>  <SCORE.INTER.SOLV>
24.6715

>  <SCORE.INTER.VDW>
-19.5674

>  <SCORE.INTER.norm>
-0.181139

>  <SCORE.INTRA>
-0.633079

>  <SCORE.INTRA.DIHEDRAL>
-8.73448

>  <SCORE.INTRA.DIHEDRAL.0>
10.8172

>  <SCORE.INTRA.POLAR>
0

>  <SCORE.INTRA.POLAR.0>
0

>  <SCORE.INTRA.REPUL>
0

>  <SCORE.INTRA.REPUL.0>
0

>  <SCORE.INTRA.SOLV>
-2.01371

>  <SCORE.INTRA.SOLV.lig_0>
-80.3833

>  <SCORE.INTRA.VDW>
4.74102

>  <SCORE.INTRA.VDW.0>
-4.63762

>  <SCORE.INTRA.norm>
-0.0204219

>  <SCORE.RESTR>
0.00325691

>  <SCORE.RESTR.CAVITY>
0.00325691

>  <SCORE.RESTR.norm>
0.000105062

>  <SCORE.SYSTEM>
0

>  <SCORE.SYSTEM.CONST>
0

>  <SCORE.SYSTEM.DIHEDRAL>
0

>  <SCORE.SYSTEM.SOLV>
0

>  <SCORE.SYSTEM.norm>
0

>  <SCORE.heavy>
31

>  <SCORE.norm>
-0.201456

>  <RMSD>
9.161

$$$$
ligand
 OpenBabel11021811473D
libRbt.so/2013.1/901 2013/11/27
 31 33  0  0  0  0  0  0  0  0999 V2000
   15.8515   -2.4432   11.1513 C   0  0  0  0  0  0  0  0  0  0  0  0
   23.8732   -1.8719    7.2888 N   0  0  0  0  0  0  0  0  0  0  0  0
   15.2153   -1.5763   10.2065 O   0  0  0  0  0  0  0  0  0  0  0  0
   16.8353   -3.3723   10.4357 C   0  0  1  0  0  0  0  0  0  0  0  0
   21.3161    2.1421    8.4079 N   0  0  0  0  0  0  0  0  0  0  0  0
   17.8850   -2.6028    9.8173 O   0  0  0  0  0  0  0  0  0  0  0  0
   19.1526   -3.1013   10.2805 C   0  0  1  0  0  0  0  0  0  0  0  0
   19.4528    2.0741   13.9491 N   0  0  0  0  0  0  0  0  0  0  0  0
   20.1306   -2.0544   10.3819 O   0  0  0  0  0  0  0  0  0  0  0  0
   20.5344   -1.5157    9.1143 C   0  0  2  0  0  0  0  0  0  0  0  0
   16.3276    0.6855    9.0203 N   0  0  0  0  0  0  0  0  0  0  0  0
   21.9532   -3.4205    8.6651 O   0  0  0  0  0  0  0  0  0  0  0  0
   21.9637   -2.0020    8.8475 C   0  0  1  0  0  0  0  0  0  0  0  0
   19.1055    0.4937    9.1508 O   0  0  0  0  0  0  0  0  0  0  0  0
   22.5374   -1.3375    7.5944 C   0  0  1  0  0  0  0  0  0  0  0  0
   19.1025    0.6799   11.4967 O   0  0  0  0  0  0  0  0  0  0  0  0
   22.6154    0.1727    7.8195 C   0  0  0  0  0  0  0  0  0  0  0  0
   18.4981    4.3002   11.4344 O   0  0  0  0  0  0  0  0  0  0  0  0
   21.2037    0.7198    8.0506 C   0  0  1  0  0  0  0  0  0  0  0  0
   16.0399    3.2341   10.3924 O   0  0  0  0  0  0  0  0  0  0  0  0
   20.4584    0.0064    9.1851 C   0  0  2  0  0  0  0  0  0  0  0  0
   19.8093   -4.5293   12.1746 O   0  0  0  0  0  0  0  0  0  0  0  0
   18.3484    0.2527   10.3472 C   0  0  1  0  0  0  0  0  0  0  0  0
   17.7552   -5.6065   10.9025 O   0  0  0  0  0  0  0  0  0  0  0  0
   19.4405    2.0773   11.4945 C   0  0  2  0  0  0  0  0  0  0  0  0
   20.2475    2.4003   12.7542 C   0  0  0  0  0  0  0  0  0  0  0  0
   18.1589    2.9126   11.5008 C   0  0  2  0  0  0  0  0  0  0  0  0
   17.2911    2.5455   10.2952 C   0  0  1  0  0  0  0  0  0  0  0  0
   17.0345    1.0366   10.2616 C   0  0  1  0  0  0  0  0  0  0  0  0
   18.8360   -3.6020   11.6882 C   0  0  2  0  0  0  0  0  0  0  0  0
   17.5052   -4.3078   11.4461 C   0  0  1  0  0  0  0  0  0  0  0  0
  1  3  1  0  0  0  0
  4  1  1  1  0  0  0
  4  6  1  0  0  0  0
  4 31  1  0  0  0  0
  6  7  1  0  0  0  0
  7  9  1  1  0  0  0
  7 30  1  0  0  0  0
  8 26  1  0  0  0  0
 10  9  1  1  0  0  0
 10 13  1  0  0  0  0
 10 21  1  0  0  0  0
 13 12  1  6  0  0  0
 13 15  1  0  0  0  0
 15  2  1  1  0  0  0
 15 17  1  0  0  0  0
 16 25  1  0  0  0  0
 16 23  1  0  0  0  0
 17 19  1  0  0  0  0
 19  5  1  1  0  0  0
 19 21  1  0  0  0  0
 21 14  1  6  0  0  0
 23 14  1  6  0  0  0
 23 29  1  0  0  0  0
 25 26  1  1  0  0  0
 25 27  1  0  0  0  0
 27 18  1  6  0  0  0
 27 28  1  0  0  0  0
 28 20  1  1  0  0  0
 28 29  1  0  0  0  0
 29 11  1  6  0  0  0
 30 22  1  6  0  0  0
 30 31  1  0  0  0  0
 31 24  1  6  0  0  0
M  END
>  <CHROM.1>
62.88567921,-68.21164384,-108.11348783,49.61034410,71.70035543,-59.30923448
19.14654833,-0.58852917,10.19646871,1.28736158,-0.47152716,-3.09672924

>  <Name>
ligand

>  <RI>
0

>  <Rbt.Current_Directory>
/home/itssahil/PROJECTS/Mol_Feturizer/New_Systems/rnas/3DVV

>  <Rbt.Executable>
rbdock ($Id: //depot/dev/client3/rdock/2013.1/src/exe/rbdock.cxx#4 $)

>  <Rbt.Library>
libRbt.so (2013.1, Build901 2013/11/27)

>  <Rbt.Parameter_File>
/export/apps/rDock/src/rDock_2013.1_src/data/scripts/dock_solv.prm

>  <Rbt.Receptor>
prm/blind_docking_80.prm

>  <SCORE>
-6.3075

>  <SCORE.INTER>
-5.46932

>  <SCORE.INTER.CONST>
1

>  <SCORE.INTER.POLAR>
0

>  <SCORE.INTER.ROT>
6

>  <SCORE.INTER.SOLV>
21.1895

>  <SCORE.INTER.VDW>
-18.3094

>  <SCORE.INTER.norm>
-0.17643

>  <SCORE.INTRA>
-0.838181

>  <SCORE.INTRA.DIHEDRAL>
-2.5199

>  <SCORE.INTRA.DIHEDRAL.0>
10.8172

>  <SCORE.INTRA.POLAR>
0

>  <SCORE.INTRA.POLAR.0>
0

>  <SCORE.INTRA.REPUL>
0

>  <SCORE.INTRA.REPUL.0>
0

>  <SCORE.INTRA.SOLV>
0.0982469

>  <SCORE.INTRA.SOLV.lig_0>
-80.3833

>  <SCORE.INTRA.VDW>
0.372644

>  <SCORE.INTRA.VDW.0>
-4.63762

>  <SCORE.INTRA.norm>
-0.0270381

>  <SCORE.RESTR>
0

>  <SCORE.RESTR.CAVITY>
0

>  <SCORE.RESTR.norm>
0

>  <SCORE.SYSTEM>
0

>  <SCORE.SYSTEM.CONST>
0

>  <SCORE.SYSTEM.DIHEDRAL>
0

>  <SCORE.SYSTEM.SOLV>
0

>  <SCORE.SYSTEM.norm>
0

>  <SCORE.heavy>
31

>  <SCORE.norm>
-0.203468

>  <RMSD>
9.244

$$$$
ligand
 OpenBabel11021811473D
libRbt.so/2013.1/901 2013/11/27
 31 33  0  0  0  0  0  0  0  0999 V2000
   22.9627   -2.4509    8.1069 C   0  0  0  0  0  0  0  0  0  0  0  0
   18.4504   -4.3717   12.1776 N   0  0  0  0  0  0  0  0  0  0  0  0
   23.7067   -1.7131    9.0820 O   0  0  0  0  0  0  0  0  0  0  0  0
   21.5594   -1.8586    7.9550 C   0  0  1  0  0  0  0  0  0  0  0  0
   15.7369   -0.6118   10.6272 N   0  0  0  0  0  0  0  0  0  0  0  0
   20.8935   -1.8251    9.2325 O   0  0  0  0  0  0  0  0  0  0  0  0
   20.4520   -0.4791    9.4841 C   0  0  1  0  0  0  0  0  0  0  0  0
   14.3374    4.7855   11.9421 N   0  0  0  0  0  0  0  0  0  0  0  0
   20.4951   -0.1584   10.8835 O   0  0  0  0  0  0  0  0  0  0  0  0
   19.4057   -0.7108   11.6370 C   0  0  2  0  0  0  0  0  0  0  0  0
   20.3409    2.3569   11.0234 N   0  0  0  0  0  0  0  0  0  0  0  0
   20.6998   -2.6641   12.2307 O   0  0  0  0  0  0  0  0  0  0  0  0
   19.5180   -2.2372   11.5477 C   0  0  1  0  0  0  0  0  0  0  0  0
   17.8396    1.1745   11.3642 O   0  0  0  0  0  0  0  0  0  0  0  0
   18.2989   -2.9087   12.1832 C   0  0  1  0  0  0  0  0  0  0  0  0
   16.7867    2.7921   10.0178 O   0  0  0  0  0  0  0  0  0  0  0  0
   17.0446   -2.5081   11.4062 C   0  0  0  0  0  0  0  0  0  0  0  0
   16.8811    5.3616   12.6379 O   0  0  0  0  0  0  0  0  0  0  0  0
   16.8602   -0.9905   11.4979 C   0  0  1  0  0  0  0  0  0  0  0  0
   19.6623    5.0116   11.9997 O   0  0  0  0  0  0  0  0  0  0  0  0
   18.0953   -0.2039   11.0423 C   0  0  2  0  0  0  0  0  0  0  0  0
   21.0379    1.6972    8.4951 O   0  0  0  0  0  0  0  0  0  0  0  0
   18.0178    2.0906   10.2726 C   0  0  1  0  0  0  0  0  0  0  0  0
   20.5775   -0.0691    6.5804 O   0  0  0  0  0  0  0  0  0  0  0  0
   16.3058    3.5633   11.1319 C   0  0  2  0  0  0  0  0  0  0  0  0
   14.9928    4.2453   10.7403 C   0  0  0  0  0  0  0  0  0  0  0  0
   17.3336    4.6382   11.4902 C   0  0  2  0  0  0  0  0  0  0  0  0
   18.6825    3.9868   11.8022 C   0  0  1  0  0  0  0  0  0  0  0  0
   19.1213    3.0867   10.6442 C   0  0  1  0  0  0  0  0  0  0  0  0
   21.4968    0.3702    8.7633 C   0  0  2  0  0  0  0  0  0  0  0  0
   21.6498   -0.4116    7.4621 C   0  0  1  0  0  0  0  0  0  0  0  0
  1  3  1  0  0  0  0
  4  1  1  1  0  0  0
  4  6  1  0  0  0  0
  4 31  1  0  0  0  0
  6  7  1  0  0  0  0
  7  9  1  1  0  0  0
  7 30  1  0  0  0  0
  8 26  1  0  0  0  0
 10  9  1  6  0  0  0
 10 13  1  0  0  0  0
 10 21  1  0  0  0  0
 13 12  1  1  0  0  0
 13 15  1  0  0  0  0
 15  2  1  6  0  0  0
 15 17  1  0  0  0  0
 16 25  1  0  0  0  0
 16 23  1  0  0  0  0
 17 19  1  0  0  0  0
 19  5  1  6  0  0  0
 19 21  1  0  0  0  0
 21 14  1  1  0  0  0
 23 14  1  1  0  0  0
 23 29  1  0  0  0  0
 25 26  1  6  0  0  0
 25 27  1  0  0  0  0
 27 18  1  1  0  0  0
 27 28  1  0  0  0  0
 28 20  1  6  0  0  0
 28 29  1  0  0  0  0
 29 11  1  1  0  0  0
 30 22  1  6  0  0  0
 30 31  1  0  0  0  0
 31 24  1  6  0  0  0
M  END
>  <CHROM.1>
-55.86594794,-77.47643097,63.01955914,120.78436529,106.69559251,167.43651075
19.04468784,0.62959412,10.48769719,-0.80875313,0.56975386,-0.14176348

>  <Name>
ligand

>  <RI>
0

>  <Rbt.Current_Directory>
/home/itssahil/PROJECTS/Mol_Feturizer/New_Systems/rnas/3DVV

>  <Rbt.Executable>
rbdock ($Id: //depot/dev/client3/rdock/2013.1/src/exe/rbdock.cxx#4 $)

>  <Rbt.Library>
libRbt.so (2013.1, Build901 2013/11/27)

>  <Rbt.Parameter_File>
/export/apps/rDock/src/rDock_2013.1_src/data/scripts/dock_solv.prm

>  <Rbt.Receptor>
prm/blind_docking_40.prm

>  <SCORE>
-0.535128

>  <SCORE.INTER>
-6.86608

>  <SCORE.INTER.CONST>
1

>  <SCORE.INTER.POLAR>
0

>  <SCORE.INTER.ROT>
6

>  <SCORE.INTER.SOLV>
21.5971

>  <SCORE.INTER.VDW>
-19.3764

>  <SCORE.INTER.norm>
-0.221486

>  <SCORE.INTRA>
6.221

>  <SCORE.INTRA.DIHEDRAL>
4.8444

>  <SCORE.INTRA.DIHEDRAL.0>
10.8172

>  <SCORE.INTRA.POLAR>
0

>  <SCORE.INTRA.POLAR.0>
0

>  <SCORE.INTRA.REPUL>
0.00509452

>  <SCORE.INTRA.REPUL.0>
0

>  <SCORE.INTRA.SOLV>
2.26129

>  <SCORE.INTRA.SOLV.lig_0>
-80.3833

>  <SCORE.INTRA.VDW>
2.64268

>  <SCORE.INTRA.VDW.0>
-4.63762

>  <SCORE.INTRA.norm>
0.200677

>  <SCORE.RESTR>
0.109956

>  <SCORE.RESTR.CAVITY>
0.109956

>  <SCORE.RESTR.norm>
0.00354697

>  <SCORE.SYSTEM>
0

>  <SCORE.SYSTEM.CONST>
0

>  <SCORE.SYSTEM.DIHEDRAL>
0

>  <SCORE.SYSTEM.SOLV>
0

>  <SCORE.SYSTEM.norm>
0

>  <SCORE.heavy>
31

>  <SCORE.norm>
-0.0172622

>  <RMSD>
9.276

$$$$
ligand
 OpenBabel11021811473D
libRbt.so/2013.1/901 2013/11/27
 31 33  0  0  0  0  0  0  0  0999 V2000
   22.6180   -2.0034    7.9421 C   0  0  0  0  0  0  0  0  0  0  0  0
   18.5140   -4.3700   12.0615 N   0  0  0  0  0  0  0  0  0  0  0  0
   23.4243   -1.4300    8.9765 O   0  0  0  0  0  0  0  0  0  0  0  0
   21.2303   -1.3574    7.9356 C   0  0  1  0  0  0  0  0  0  0  0  0
   15.6225   -0.5710   11.0077 N   0  0  0  0  0  0  0  0  0  0  0  0
   20.6302   -1.4562    9.2420 O   0  0  0  0  0  0  0  0  0  0  0  0
   20.2488   -0.1375    9.6722 C   0  0  1  0  0  0  0  0  0  0  0  0
   16.8589    1.4251    7.4344 N   0  0  0  0  0  0  0  0  0  0  0  0
   20.3725    0.0141   11.0951 O   0  0  0  0  0  0  0  0  0  0  0  0
   19.3365   -0.6443   11.8389 C   0  0  2  0  0  0  0  0  0  0  0  0
   18.4155    3.4048   13.3796 N   0  0  0  0  0  0  0  0  0  0  0  0
   20.7132   -2.6013   12.1809 O   0  0  0  0  0  0  0  0  0  0  0  0
   19.4884   -2.1504   11.5961 C   0  0  1  0  0  0  0  0  0  0  0  0
   17.7055    1.2052   11.8213 O   0  0  0  0  0  0  0  0  0  0  0  0
   18.3208   -2.9201   12.2166 C   0  0  1  0  0  0  0  0  0  0  0  0
   18.1992    2.3435    9.8216 O   0  0  0  0  0  0  0  0  0  0  0  0
   17.0200   -2.4887   11.5390 C   0  0  0  0  0  0  0  0  0  0  0  0
   15.1210    4.3406    9.9337 O   0  0  0  0  0  0  0  0  0  0  0  0
   16.7964   -0.9940   11.7864 C   0  0  1  0  0  0  0  0  0  0  0  0
   16.6016    5.3402   12.1861 O   0  0  0  0  0  0  0  0  0  0  0  0
   17.9852   -0.1265   11.3553 C   0  0  2  0  0  0  0  0  0  0  0  0
   20.8599    2.1230    8.9140 O   0  0  0  0  0  0  0  0  0  0  0  0
   18.5099    2.2337   11.2230 C   0  0  1  0  0  0  0  0  0  0  0  0
   20.2439    0.6096    6.8337 O   0  0  0  0  0  0  0  0  0  0  0  0
   16.8280    2.6767    9.5458 C   0  0  2  0  0  0  0  0  0  0  0  0
   16.6246    2.7500    8.0306 C   0  0  0  0  0  0  0  0  0  0  0  0
   16.5018    4.0415   10.1550 C   0  0  2  0  0  0  0  0  0  0  0  0
   16.7803    4.0211   11.6594 C   0  0  1  0  0  0  0  0  0  0  0  0
   18.2148    3.5603   11.9308 C   0  0  1  0  0  0  0  0  0  0  0  0
   21.2853    0.7610    9.0007 C   0  0  2  0  0  0  0  0  0  0  0  0
   21.3462    0.1346    7.6107 C   0  0  1  0  0  0  0  0  0  0  0  0
  1  3  1  0  0  0  0
  4  1  1  1  0  0  0
  4  6  1  0  0  0  0
  4 31  1  0  0  0  0
  6  7  1  0  0  0  0
  7  9  1  1  0  0  0
  7 30  1  0  0  0  0
  8 26  1  0  0  0  0
 10  9  1  6  0  0  0
 10 13  1  0  0  0  0
 10 21  1  0  0  0  0
 13 12  1  1  0  0  0
 13 15  1  0  0  0  0
 15  2  1  6  0  0  0
 15 17  1  0  0  0  0
 16 25  1  0  0  0  0
 16 23  1  0  0  0  0
 17 19  1  0  0  0  0
 19  5  1  6  0  0  0
 19 21  1  0  0  0  0
 21 14  1  1  0  0  0
 23 14  1  1  0  0  0
 23 29  1  0  0  0  0
 25 26  1  6  0  0  0
 25 27  1  0  0  0  0
 27 18  1  1  0  0  0
 27 28  1  0  0  0  0
 28 20  1  6  0  0  0
 28 29  1  0  0  0  0
 29 11  1  1  0  0  0
 30 22  1  6  0  0  0
 30 31  1  0  0  0  0
 31 24  1  6  0  0  0
M  END
>  <CHROM.1>
-54.48631220,-74.78410006,64.83799324,66.18138414,70.35786245,63.77685615
18.81512767,0.59105115,10.30326965,-0.63404134,0.71320484,-0.52784473

>  <Name>
ligand

>  <RI>
0

>  <Rbt.Current_Directory>
/home/itssahil/PROJECTS/Mol_Feturizer/New_Systems/rnas/3DVV

>  <Rbt.Executable>
rbdock ($Id: //depot/dev/client3/rdock/2013.1/src/exe/rbdock.cxx#4 $)

>  <Rbt.Library>
libRbt.so (2013.1, Build901 2013/11/27)

>  <Rbt.Parameter_File>
/export/apps/rDock/src/rDock_2013.1_src/data/scripts/dock_solv.prm

>  <Rbt.Receptor>
prm/blind_docking_60.prm

>  <SCORE>
-11.6084

>  <SCORE.INTER>
-8.49833

>  <SCORE.INTER.CONST>
1

>  <SCORE.INTER.POLAR>
0

>  <SCORE.INTER.ROT>
6

>  <SCORE.INTER.SOLV>
23.8068

>  <SCORE.INTER.VDW>
-21.2012

>  <SCORE.INTER.norm>
-0.27414

>  <SCORE.INTRA>
-3.11093

>  <SCORE.INTRA.DIHEDRAL>
-8.59327

>  <SCORE.INTRA.DIHEDRAL.0>
10.8172

>  <SCORE.INTRA.POLAR>
0

>  <SCORE.INTRA.POLAR.0>
0

>  <SCORE.INTRA.REPUL>
0

>  <SCORE.INTRA.REPUL.0>
0

>  <SCORE.INTRA.SOLV>
-1.74508

>  <SCORE.INTRA.SOLV.lig_0>
-80.3833

>  <SCORE.INTRA.VDW>
2.05825

>  <SCORE.INTRA.VDW.0>
-4.63762

>  <SCORE.INTRA.norm>
-0.100352

>  <SCORE.RESTR>
0.00089548

>  <SCORE.RESTR.CAVITY>
0.00089548

>  <SCORE.RESTR.norm>
2.88864e-05

>  <SCORE.SYSTEM>
0

>  <SCORE.SYSTEM.CONST>
0

>  <SCORE.SYSTEM.DIHEDRAL>
0

>  <SCORE.SYSTEM.SOLV>
0

>  <SCORE.SYSTEM.norm>
0

>  <SCORE.heavy>
31

>  <SCORE.norm>
-0.374463

>  <RMSD>
9.299

$$$$
ligand
 OpenBabel11021811473D
libRbt.so/2013.1/901 2013/11/27
 31 33  0  0  0  0  0  0  0  0999 V2000
   22.7158   -2.0141    8.0254 C   0  0  0  0  0  0  0  0  0  0  0  0
   18.4206   -4.3409   11.9817 N   0  0  0  0  0  0  0  0  0  0  0  0
   23.4658   -1.4700    9.1164 O   0  0  0  0  0  0  0  0  0  0  0  0
   21.3217   -1.3838    7.9773 C   0  0  1  0  0  0  0  0  0  0  0  0
   15.6135   -0.4676   10.9707 N   0  0  0  0  0  0  0  0  0  0  0  0
   20.6917   -1.4723    9.2702 O   0  0  0  0  0  0  0  0  0  0  0  0
   20.2857   -0.1523    9.6736 C   0  0  1  0  0  0  0  0  0  0  0  0
   16.8590    1.4168    7.4406 N   0  0  0  0  0  0  0  0  0  0  0  0
   20.3737    0.0192   11.0969 O   0  0  0  0  0  0  0  0  0  0  0  0
   19.3197   -0.6296   11.8237 C   0  0  2  0  0  0  0  0  0  0  0  0
   18.4273    3.4755   13.3548 N   0  0  0  0  0  0  0  0  0  0  0  0
   20.6543   -2.6195   12.1429 O   0  0  0  0  0  0  0  0  0  0  0  0
   19.4427   -2.1345   11.5578 C   0  0  1  0  0  0  0  0  0  0  0  0
   17.7266    1.2527   11.8255 O   0  0  0  0  0  0  0  0  0  0  0  0
   18.2558   -2.8900   12.1587 C   0  0  1  0  0  0  0  0  0  0  0  0
   18.2004    2.3721    9.8103 O   0  0  0  0  0  0  0  0  0  0  0  0
   16.9684   -2.4216   11.4800 C   0  0  0  0  0  0  0  0  0  0  0  0
   15.1068    4.3456    9.9165 O   0  0  0  0  0  0  0  0  0  0  0  0
   16.7735   -0.9267   11.7499 C   0  0  1  0  0  0  0  0  0  0  0  0
   16.5914    5.3826   12.1494 O   0  0  0  0  0  0  0  0  0  0  0  0
   17.9824   -0.0769   11.3400 C   0  0  2  0  0  0  0  0  0  0  0  0
   20.8902    2.1047    8.9001 O   0  0  0  0  0  0  0  0  0  0  0  0
   18.5195    2.2807   11.2112 C   0  0  1  0  0  0  0  0  0  0  0  0
   20.3407    0.5574    6.8261 O   0  0  0  0  0  0  0  0  0  0  0  0
   16.8251    2.6910    9.5383 C   0  0  2  0  0  0  0  0  0  0  0  0
   16.6130    2.7455    8.0235 C   0  0  0  0  0  0  0  0  0  0  0  0
   16.4912    4.0600   10.1337 C   0  0  2  0  0  0  0  0  0  0  0  0
   16.7779    4.0591   11.6367 C   0  0  1  0  0  0  0  0  0  0  0  0
   18.2175    3.6129   11.9054 C   0  0  1  0  0  0  0  0  0  0  0  0
   21.3282    0.7488    9.0150 C   0  0  2  0  0  0  0  0  0  0  0  0
   21.4292    0.1050    7.6354 C   0  0  1  0  0  0  0  0  0  0  0  0
  1  3  1  0  0  0  0
  4  1  1  1  0  0  0
  4  6  1  0  0  0  0
  4 31  1  0  0  0  0
  6  7  1  0  0  0  0
  7  9  1  1  0  0  0
  7 30  1  0  0  0  0
  8 26  1  0  0  0  0
 10  9  1  6  0  0  0
 10 13  1  0  0  0  0
 10 21  1  0  0  0  0
 13 12  1  1  0  0  0
 13 15  1  0  0  0  0
 15  2  1  6  0  0  0
 15 17  1  0  0  0  0
 16 25  1  0  0  0  0
 16 23  1  0  0  0  0
 17 19  1  0  0  0  0
 19  5  1  6  0  0  0
 19 21  1  0  0  0  0
 21 14  1  1  0  0  0
 23 14  1  1  0  0  0
 23 29  1  0  0  0  0
 25 26  1  6  0  0  0
 25 27  1  0  0  0  0
 27 18  1  1  0  0  0
 27 28  1  0  0  0  0
 28 20  1  6  0  0  0
 28 29  1  0  0  0  0
 29 11  1  1  0  0  0
 30 22  1  6  0  0  0
 30 31  1  0  0  0  0
 31 24  1  6  0  0  0
M  END
>  <CHROM.1>
-51.36241544,-75.37954299,62.48678792,64.14281198,72.66384685,63.59426781
18.82242100,0.60614642,10.29629216,-0.64350724,0.69289437,-0.50272892

>  <Name>
ligand

>  <RI>
0

>  <Rbt.Current_Directory>
/home/itssahil/PROJECTS/Mol_Feturizer/New_Systems/rnas/3DVV

>  <Rbt.Executable>
rbdock ($Id: //depot/dev/client3/rdock/2013.1/src/exe/rbdock.cxx#4 $)

>  <Rbt.Library>
libRbt.so (2013.1, Build901 2013/11/27)

>  <Rbt.Parameter_File>
/export/apps/rDock/src/rDock_2013.1_src/data/scripts/dock_solv.prm

>  <Rbt.Receptor>
prm/blind_docking_80.prm

>  <SCORE>
-11.5875

>  <SCORE.INTER>
-8.65301

>  <SCORE.INTER.CONST>
1

>  <SCORE.INTER.POLAR>
0

>  <SCORE.INTER.ROT>
6

>  <SCORE.INTER.SOLV>
23.7268

>  <SCORE.INTER.VDW>
-21.2776

>  <SCORE.INTER.norm>
-0.279129

>  <SCORE.INTRA>
-2.93453

>  <SCORE.INTRA.DIHEDRAL>
-8.3116

>  <SCORE.INTRA.DIHEDRAL.0>
10.8172

>  <SCORE.INTRA.POLAR>
0

>  <SCORE.INTRA.POLAR.0>
0

>  <SCORE.INTRA.REPUL>
0

>  <SCORE.INTRA.REPUL.0>
0

>  <SCORE.INTRA.SOLV>
-1.62748

>  <SCORE.INTRA.SOLV.lig_0>
-80.3833

>  <SCORE.INTRA.VDW>
2.03501

>  <SCORE.INTRA.VDW.0>
-4.63762

>  <SCORE.INTRA.norm>
-0.0946622

>  <SCORE.RESTR>
0

>  <SCORE.RESTR.CAVITY>
0

>  <SCORE.RESTR.norm>
0

>  <SCORE.SYSTEM>
0

>  <SCORE.SYSTEM.CONST>
0

>  <SCORE.SYSTEM.DIHEDRAL>
0

>  <SCORE.SYSTEM.SOLV>
0

>  <SCORE.SYSTEM.norm>
0

>  <SCORE.heavy>
31

>  <SCORE.norm>
-0.373791

>  <RMSD>
9.300

$$$$
ligand
 OpenBabel11021811473D
libRbt.so/2013.1/901 2013/11/27
 31 33  0  0  0  0  0  0  0  0999 V2000
   15.9769   -2.5187   11.2412 C   0  0  0  0  0  0  0  0  0  0  0  0
   23.9546   -1.8614    7.2201 N   0  0  0  0  0  0  0  0  0  0  0  0
   15.2659   -1.6506   10.3526 O   0  0  0  0  0  0  0  0  0  0  0  0
   16.9175   -3.4297   10.4484 C   0  0  1  0  0  0  0  0  0  0  0  0
   21.3299    2.0877    8.4114 N   0  0  0  0  0  0  0  0  0  0  0  0
   17.9556   -2.6492    9.8242 O   0  0  0  0  0  0  0  0  0  0  0  0
   19.2314   -3.1863   10.2162 C   0  0  1  0  0  0  0  0  0  0  0  0
   19.5455    2.1362   13.8734 N   0  0  0  0  0  0  0  0  0  0  0  0
   20.2297   -2.1594   10.3255 O   0  0  0  0  0  0  0  0  0  0  0  0
   20.6180   -1.5942    9.0646 C   0  0  2  0  0  0  0  0  0  0  0  0
   16.3692    0.5056    9.0528 N   0  0  0  0  0  0  0  0  0  0  0  0
   22.0691   -3.4656    8.5803 O   0  0  0  0  0  0  0  0  0  0  0  0
   22.0547   -2.0501    8.7844 C   0  0  1  0  0  0  0  0  0  0  0  0
   19.1530    0.3881    9.1380 O   0  0  0  0  0  0  0  0  0  0  0  0
   22.6107   -1.3561    7.5394 C   0  0  1  0  0  0  0  0  0  0  0  0
   19.1868    0.6536   11.4760 O   0  0  0  0  0  0  0  0  0  0  0  0
   22.6622    0.1516    7.7873 C   0  0  0  0  0  0  0  0  0  0  0  0
   18.4884    4.2534   11.3038 O   0  0  0  0  0  0  0  0  0  0  0  0
   21.2419    0.6692    8.0326 C   0  0  1  0  0  0  0  0  0  0  0  0
   16.0404    3.0912   10.3440 O   0  0  0  0  0  0  0  0  0  0  0  0
   20.5146   -0.0749    9.1592 C   0  0  2  0  0  0  0  0  0  0  0  0
   19.9357   -4.7062   12.0195 O   0  0  0  0  0  0  0  0  0  0  0  0
   18.4236    0.1689   10.3556 C   0  0  1  0  0  0  0  0  0  0  0  0
   17.8177   -5.6956   10.7816 O   0  0  0  0  0  0  0  0  0  0  0  0
   19.4886    2.0582   11.4207 C   0  0  2  0  0  0  0  0  0  0  0  0
   20.3093    2.4438   12.6537 C   0  0  0  0  0  0  0  0  0  0  0  0
   18.1863    2.8607   11.4229 C   0  0  2  0  0  0  0  0  0  0  0  0
   17.3070    2.4313   10.2467 C   0  0  1  0  0  0  0  0  0  0  0  0
   17.0887    0.9162   10.2683 C   0  0  1  0  0  0  0  0  0  0  0  0
   18.9601   -3.7441   11.6119 C   0  0  2  0  0  0  0  0  0  0  0  0
   17.6097   -4.4188   11.3905 C   0  0  1  0  0  0  0  0  0  0  0  0
  1  3  1  0  0  0  0
  4  1  1  1  0  0  0
  4  6  1  0  0  0  0
  4 31  1  0  0  0  0
  6  7  1  0  0  0  0
  7  9  1  1  0  0  0
  7 30  1  0  0  0  0
  8 26  1  0  0  0  0
 10  9  1  1  0  0  0
 10 13  1  0  0  0  0
 10 21  1  0  0  0  0
 13 12  1  6  0  0  0
 13 15  1  0  0  0  0
 15  2  1  1  0  0  0
 15 17  1  0  0  0  0
 16 25  1  0  0  0  0
 16 23  1  0  0  0  0
 17 19  1  0  0  0  0
 19  5  1  1  0  0  0
 19 21  1  0  0  0  0
 21 14  1  6  0  0  0
 23 14  1  6  0  0  0
 23 29  1  0  0  0  0
 25 26  1  1  0  0  0
 25 27  1  0  0  0  0
 27 18  1  6  0  0  0
 27 28  1  0  0  0  0
 28 20  1  1  0  0  0
 28 29  1  0  0  0  0
 29 11  1  6  0  0  0
 30 22  1  6  0  0  0
 30 31  1  0  0  0  0
 31 24  1  6  0  0  0
M  END
>  <CHROM.1>
66.00307031,-69.66285795,-110.43290964,50.16285455,74.37518264,-59.20705345
19.21300498,-0.65795070,10.15718363,1.28276363,-0.47130661,-3.09804308

>  <Name>
ligand

>  <RI>
0

>  <Rbt.Current_Directory>
/home/itssahil/PROJECTS/Mol_Feturizer/New_Systems/rnas/3DVV

>  <Rbt.Executable>
rbdock ($Id: //depot/dev/client3/rdock/2013.1/src/exe/rbdock.cxx#4 $)

>  <Rbt.Library>
libRbt.so (2013.1, Build901 2013/11/27)

>  <Rbt.Parameter_File>
/export/apps/rDock/src/rDock_2013.1_src/data/scripts/dock_solv.prm

>  <Rbt.Receptor>
prm/blind_docking_60.prm

>  <SCORE>
-6.35932

>  <SCORE.INTER>
-5.98533

>  <SCORE.INTER.CONST>
1

>  <SCORE.INTER.POLAR>
0

>  <SCORE.INTER.ROT>
6

>  <SCORE.INTER.SOLV>
21.1358

>  <SCORE.INTER.VDW>
-18.6355

>  <SCORE.INTER.norm>
-0.193075

>  <SCORE.INTRA>
-0.373996

>  <SCORE.INTRA.DIHEDRAL>
-1.81117

>  <SCORE.INTRA.DIHEDRAL.0>
10.8172

>  <SCORE.INTRA.POLAR>
0

>  <SCORE.INTRA.POLAR.0>
0

>  <SCORE.INTRA.REPUL>
0

>  <SCORE.INTRA.REPUL.0>
0

>  <SCORE.INTRA.SOLV>
0.482349

>  <SCORE.INTRA.SOLV.lig_0>
-80.3833

>  <SCORE.INTRA.VDW>
0.290413

>  <SCORE.INTRA.VDW.0>
-4.63762

>  <SCORE.INTRA.norm>
-0.0120644

>  <SCORE.RESTR>
0

>  <SCORE.RESTR.CAVITY>
0

>  <SCORE.RESTR.norm>
0

>  <SCORE.SYSTEM>
0

>  <SCORE.SYSTEM.CONST>
0

>  <SCORE.SYSTEM.DIHEDRAL>
0

>  <SCORE.SYSTEM.SOLV>
0

>  <SCORE.SYSTEM.norm>
0

>  <SCORE.heavy>
31

>  <SCORE.norm>
-0.205139

>  <RMSD>
9.319

$$$$
ligand
 OpenBabel11021811473D
libRbt.so/2013.1/901 2013/11/27
 31 33  0  0  0  0  0  0  0  0999 V2000
   23.2151   -1.6442    8.2840 C   0  0  0  0  0  0  0  0  0  0  0  0
   18.6206   -4.2411   12.1255 N   0  0  0  0  0  0  0  0  0  0  0  0
   23.8254   -1.6365    6.9893 O   0  0  0  0  0  0  0  0  0  0  0  0
   21.7348   -1.2711    8.1716 C   0  0  1  0  0  0  0  0  0  0  0  0
   15.7289   -0.4532   11.0332 N   0  0  0  0  0  0  0  0  0  0  0  0
   21.0954   -1.3828    9.4581 O   0  0  0  0  0  0  0  0  0  0  0  0
   20.4566   -0.1303    9.7629 C   0  0  1  0  0  0  0  0  0  0  0  0
   16.2501    4.0680    7.6273 N   0  0  0  0  0  0  0  0  0  0  0  0
   20.4757    0.1472   11.1720 O   0  0  0  0  0  0  0  0  0  0  0  0
   19.4336   -0.5132   11.9055 C   0  0  2  0  0  0  0  0  0  0  0  0
   18.4799    3.6161   13.3099 N   0  0  0  0  0  0  0  0  0  0  0  0
   20.8127   -2.4652   12.2661 O   0  0  0  0  0  0  0  0  0  0  0  0
   19.5931   -2.0192   11.6670 C   0  0  1  0  0  0  0  0  0  0  0  0
   17.7971    1.3311   11.8666 O   0  0  0  0  0  0  0  0  0  0  0  0
   18.4211   -2.7916   12.2759 C   0  0  1  0  0  0  0  0  0  0  0  0
   18.1383    2.4158    9.8063 O   0  0  0  0  0  0  0  0  0  0  0  0
   17.1265   -2.3655   11.5832 C   0  0  0  0  0  0  0  0  0  0  0  0
   14.9798    4.2760   10.0055 O   0  0  0  0  0  0  0  0  0  0  0  0
   16.8954   -0.8711   11.8256 C   0  0  1  0  0  0  0  0  0  0  0  0
   16.5214    5.4232   12.1438 O   0  0  0  0  0  0  0  0  0  0  0  0
   18.0861   -0.0005   11.4061 C   0  0  2  0  0  0  0  0  0  0  0  0
   20.6820    2.1418    8.8436 O   0  0  0  0  0  0  0  0  0  0  0  0
   18.5224    2.3717   11.1930 C   0  0  1  0  0  0  0  0  0  0  0  0
   20.4637    0.3893    6.8741 O   0  0  0  0  0  0  0  0  0  0  0  0
   16.7412    2.6769    9.5892 C   0  0  2  0  0  0  0  0  0  0  0  0
   16.4603    2.6851    8.0847 C   0  0  0  0  0  0  0  0  0  0  0  0
   16.3822    4.0473   10.1666 C   0  0  2  0  0  0  0  0  0  0  0  0
   16.7350    4.0949   11.6546 C   0  0  1  0  0  0  0  0  0  0  0  0
   18.2011    3.7090   11.8686 C   0  0  1  0  0  0  0  0  0  0  0  0
   21.3447    0.8935    9.0588 C   0  0  2  0  0  0  0  0  0  0  0  0
   21.5921    0.1879    7.7289 C   0  0  1  0  0  0  0  0  0  0  0  0
  1  3  1  0  0  0  0
  4  1  1  1  0  0  0
  4  6  1  0  0  0  0
  4 31  1  0  0  0  0
  6  7  1  0  0  0  0
  7  9  1  1  0  0  0
  7 30  1  0  0  0  0
  8 26  1  0  0  0  0
 10  9  1  6  0  0  0
 10 13  1  0  0  0  0
 10 21  1  0  0  0  0
 13 12  1  1  0  0  0
 13 15  1  0  0  0  0
 15  2  1  6  0  0  0
 15 17  1  0  0  0  0
 16 25  1  0  0  0  0
 16 23  1  0  0  0  0
 17 19  1  0  0  0  0
 19  5  1  6  0  0  0
 19 21  1  0  0  0  0
 21 14  1  1  0  0  0
 23 14  1  1  0  0  0
 23 29  1  0  0  0  0
 25 26  1  6  0  0  0
 25 27  1  0  0  0  0
 27 18  1  1  0  0  0
 27 28  1  0  0  0  0
 28 20  1  6  0  0  0
 28 29  1  0  0  0  0
 29 11  1  1  0  0  0
 30 22  1  6  0  0  0
 30 31  1  0  0  0  0
 31 24  1  6  0  0  0
M  END
>  <CHROM.1>
175.41193862,-81.95143668,58.19604586,64.43004722,75.50263246,-106.05343872
18.89265616,0.74647880,10.28878185,-0.54145320,0.69771421,-0.58244343

>  <Name>
ligand

>  <RI>
0

>  <Rbt.Current_Directory>
/home/itssahil/PROJECTS/Mol_Feturizer/New_Systems/rnas/3DVV

>  <Rbt.Executable>
rbdock ($Id: //depot/dev/client3/rdock/2013.1/src/exe/rbdock.cxx#4 $)

>  <Rbt.Library>
libRbt.so (2013.1, Build901 2013/11/27)

>  <Rbt.Parameter_File>
/export/apps/rDock/src/rDock_2013.1_src/data/scripts/dock_solv.prm

>  <Rbt.Receptor>
prm/blind_docking_40.prm

>  <SCORE>
-6.01702

>  <SCORE.INTER>
-8.3573

>  <SCORE.INTER.CONST>
1

>  <SCORE.INTER.POLAR>
0

>  <SCORE.INTER.ROT>
6

>  <SCORE.INTER.SOLV>
28.1388

>  <SCORE.INTER.VDW>
-22.5511

>  <SCORE.INTER.norm>
-0.26959

>  <SCORE.INTRA>
2.32374

>  <SCORE.INTRA.DIHEDRAL>
-2.63019

>  <SCORE.INTRA.DIHEDRAL.0>
10.8172

>  <SCORE.INTRA.POLAR>
0

>  <SCORE.INTRA.POLAR.0>
0

>  <SCORE.INTRA.REPUL>
0

>  <SCORE.INTRA.REPUL.0>
0

>  <SCORE.INTRA.SOLV>
-1.0731

>  <SCORE.INTRA.SOLV.lig_0>
-80.3833

>  <SCORE.INTRA.VDW>
4.17539

>  <SCORE.INTRA.VDW.0>
-4.63762

>  <SCORE.INTRA.norm>
0.0749595

>  <SCORE.RESTR>
0.0165388

>  <SCORE.RESTR.CAVITY>
0.0165388

>  <SCORE.RESTR.norm>
0.00053351

>  <SCORE.SYSTEM>
0

>  <SCORE.SYSTEM.CONST>
0

>  <SCORE.SYSTEM.DIHEDRAL>
0

>  <SCORE.SYSTEM.SOLV>
0

>  <SCORE.SYSTEM.norm>
0

>  <SCORE.heavy>
31

>  <SCORE.norm>
-0.194097

>  <RMSD>
9.355

$$$$
ligand
 OpenBabel11021811473D
libRbt.so/2013.1/901 2013/11/27
 31 33  0  0  0  0  0  0  0  0999 V2000
   23.2285   -1.6572    8.2913 C   0  0  0  0  0  0  0  0  0  0  0  0
   18.5607   -4.2766   11.9897 N   0  0  0  0  0  0  0  0  0  0  0  0
   23.3501   -3.0248    8.6960 O   0  0  0  0  0  0  0  0  0  0  0  0
   21.7522   -1.2799    8.1444 C   0  0  1  0  0  0  0  0  0  0  0  0
   15.6811   -0.4836   10.8829 N   0  0  0  0  0  0  0  0  0  0  0  0
   21.0810   -1.3966    9.4141 O   0  0  0  0  0  0  0  0  0  0  0  0
   20.4379   -0.1440    9.7095 C   0  0  1  0  0  0  0  0  0  0  0  0
   16.8528    1.4586    7.3903 N   0  0  0  0  0  0  0  0  0  0  0  0
   20.4229    0.1261   11.1201 O   0  0  0  0  0  0  0  0  0  0  0  0
   19.3685   -0.5446   11.8260 C   0  0  2  0  0  0  0  0  0  0  0  0
   18.3822    3.5232   13.3195 N   0  0  0  0  0  0  0  0  0  0  0  0
   20.7452   -2.4973   12.1920 O   0  0  0  0  0  0  0  0  0  0  0  0
   19.5362   -2.0476   11.5743 C   0  0  1  0  0  0  0  0  0  0  0  0
   17.7283    1.2962   11.7756 O   0  0  0  0  0  0  0  0  0  0  0  0
   18.3547   -2.8293   12.1520 C   0  0  1  0  0  0  0  0  0  0  0  0
   18.1950    2.4329    9.7686 O   0  0  0  0  0  0  0  0  0  0  0  0
   17.0726   -2.3987   11.4391 C   0  0  0  0  0  0  0  0  0  0  0  0
   15.0678    4.3533    9.8654 O   0  0  0  0  0  0  0  0  0  0  0  0
   16.8332   -0.9075   11.6932 C   0  0  1  0  0  0  0  0  0  0  0  0
   16.5214    5.4047   12.1118 O   0  0  0  0  0  0  0  0  0  0  0  0
   18.0296   -0.0297   11.3063 C   0  0  2  0  0  0  0  0  0  0  0  0
   20.6913    2.1321    8.8079 O   0  0  0  0  0  0  0  0  0  0  0  0
   18.5073    2.3403   11.1708 C   0  0  1  0  0  0  0  0  0  0  0  0
   20.5176    0.3903    6.8246 O   0  0  0  0  0  0  0  0  0  0  0  0
   16.8161    2.7299    9.4897 C   0  0  2  0  0  0  0  0  0  0  0  0
   16.6121    2.7878    7.9740 C   0  0  0  0  0  0  0  0  0  0  0  0
   16.4555    4.0902   10.0895 C   0  0  2  0  0  0  0  0  0  0  0  0
   16.7333    4.0870   11.5941 C   0  0  1  0  0  0  0  0  0  0  0  0
   18.1786    3.6639   11.8695 C   0  0  1  0  0  0  0  0  0  0  0  0
   21.3455    0.8811    9.0329 C   0  0  2  0  0  0  0  0  0  0  0  0
   21.6240    0.1817    7.7058 C   0  0  1  0  0  0  0  0  0  0  0  0
  1  3  1  0  0  0  0
  4  1  1  1  0  0  0
  4  6  1  0  0  0  0
  4 31  1  0  0  0  0
  6  7  1  0  0  0  0
  7  9  1  1  0  0  0
  7 30  1  0  0  0  0
  8 26  1  0  0  0  0
 10  9  1  6  0  0  0
 10 13  1  0  0  0  0
 10 21  1  0  0  0  0
 13 12  1  1  0  0  0
 13 15  1  0  0  0  0
 15  2  1  6  0  0  0
 15 17  1  0  0  0  0
 16 25  1  0  0  0  0
 16 23  1  0  0  0  0
 17 19  1  0  0  0  0
 19  5  1  6  0  0  0
 19 21  1  0  0  0  0
 21 14  1  1  0  0  0
 23 14  1  1  0  0  0
 23 29  1  0  0  0  0
 25 26  1  6  0  0  0
 25 27  1  0  0  0  0
 27 18  1  1  0  0  0
 27 28  1  0  0  0  0
 28 20  1  6  0  0  0
 28 29  1  0  0  0  0
 29 11  1  1  0  0  0
 30 22  1  6  0  0  0
 30 31  1  0  0  0  0
 31 24  1  6  0  0  0
M  END
>  <CHROM.1>
62.58330771,-81.43897515,57.74614907,65.41825921,72.79820108,64.93313186
18.88679380,0.60282859,10.27929070,-0.61285672,0.69241903,-0.53923084

>  <Name>
ligand

>  <RI>
0

>  <Rbt.Current_Directory>
/home/itssahil/PROJECTS/Mol_Feturizer/New_Systems/rnas/3DVV

>  <Rbt.Executable>
rbdock ($Id: //depot/dev/client3/rdock/2013.1/src/exe/rbdock.cxx#4 $)

>  <Rbt.Library>
libRbt.so (2013.1, Build901 2013/11/27)

>  <Rbt.Parameter_File>
/export/apps/rDock/src/rDock_2013.1_src/data/scripts/dock_solv.prm

>  <Rbt.Receptor>
prm/blind_docking_40.prm

>  <SCORE>
-12.0911

>  <SCORE.INTER>
-9.36558

>  <SCORE.INTER.CONST>
1

>  <SCORE.INTER.POLAR>
0

>  <SCORE.INTER.ROT>
6

>  <SCORE.INTER.SOLV>
24.1595

>  <SCORE.INTER.VDW>
-21.8969

>  <SCORE.INTER.norm>
-0.302115

>  <SCORE.INTRA>
-2.72549

>  <SCORE.INTRA.DIHEDRAL>
-7.55276

>  <SCORE.INTRA.DIHEDRAL.0>
10.8172

>  <SCORE.INTRA.POLAR>
0

>  <SCORE.INTRA.POLAR.0>
0

>  <SCORE.INTRA.REPUL>
0

>  <SCORE.INTRA.REPUL.0>
0

>  <SCORE.INTRA.SOLV>
-2.24963

>  <SCORE.INTRA.SOLV.lig_0>
-80.3833

>  <SCORE.INTRA.VDW>
2.17571

>  <SCORE.INTRA.VDW.0>
-4.63762

>  <SCORE.INTRA.norm>
-0.087919

>  <SCORE.RESTR>
0

>  <SCORE.RESTR.CAVITY>
0

>  <SCORE.RESTR.norm>
0

>  <SCORE.SYSTEM>
0

>  <SCORE.SYSTEM.CONST>
0

>  <SCORE.SYSTEM.DIHEDRAL>
0

>  <SCORE.SYSTEM.SOLV>
0

>  <SCORE.SYSTEM.norm>
0

>  <SCORE.heavy>
31

>  <SCORE.norm>
-0.390034

>  <RMSD>
9.360

$$$$
ligand
 OpenBabel11021811473D
libRbt.so/2013.1/901 2013/11/27
 31 33  0  0  0  0  0  0  0  0999 V2000
   23.2903   -1.6776    8.3752 C   0  0  0  0  0  0  0  0  0  0  0  0
   18.5195   -4.3075   11.9818 N   0  0  0  0  0  0  0  0  0  0  0  0
   23.9608   -1.6173    7.1120 O   0  0  0  0  0  0  0  0  0  0  0  0
   21.8111   -1.3225    8.2048 C   0  0  1  0  0  0  0  0  0  0  0  0
   15.6765   -0.4890   10.8682 N   0  0  0  0  0  0  0  0  0  0  0  0
   21.1237   -1.4394    9.4658 O   0  0  0  0  0  0  0  0  0  0  0  0
   20.4588   -0.1940    9.7427 C   0  0  1  0  0  0  0  0  0  0  0  0
   16.8252    1.4356    7.4046 N   0  0  0  0  0  0  0  0  0  0  0  0
   20.4200    0.0863   11.1508 O   0  0  0  0  0  0  0  0  0  0  0  0
   19.3546   -0.5805   11.8439 C   0  0  2  0  0  0  0  0  0  0  0  0
   18.3818    3.4935   13.3396 N   0  0  0  0  0  0  0  0  0  0  0  0
   20.7144   -2.5446   12.2125 O   0  0  0  0  0  0  0  0  0  0  0  0
   19.5142   -2.0833   11.5863 C   0  0  1  0  0  0  0  0  0  0  0  0
   17.7279    1.2720   11.7880 O   0  0  0  0  0  0  0  0  0  0  0  0
   18.3221   -2.8596   12.1495 C   0  0  1  0  0  0  0  0  0  0  0  0
   18.2091    2.4110    9.7857 O   0  0  0  0  0  0  0  0  0  0  0  0
   17.0495   -2.4165   11.4272 C   0  0  0  0  0  0  0  0  0  0  0  0
   15.0885    4.3426    9.8701 O   0  0  0  0  0  0  0  0  0  0  0  0
   16.8182   -0.9249   11.6866 C   0  0  1  0  0  0  0  0  0  0  0  0
   16.5342    5.3842   12.1262 O   0  0  0  0  0  0  0  0  0  0  0  0
   18.0241   -0.0536   11.3148 C   0  0  2  0  0  0  0  0  0  0  0  0
   20.6925    2.0788    8.8275 O   0  0  0  0  0  0  0  0  0  0  0  0
   18.5138    2.3144   11.1893 C   0  0  1  0  0  0  0  0  0  0  0  0
   20.5716    0.3201    6.8551 O   0  0  0  0  0  0  0  0  0  0  0  0
   16.8328    2.7135    9.5003 C   0  0  2  0  0  0  0  0  0  0  0  0
   16.6368    2.7753    7.9836 C   0  0  0  0  0  0  0  0  0  0  0  0
   16.4740    4.0739   10.1009 C   0  0  2  0  0  0  0  0  0  0  0  0
   16.7440    4.0667   11.6069 C   0  0  1  0  0  0  0  0  0  0  0  0
   18.1864    3.6379   11.8889 C   0  0  1  0  0  0  0  0  0  0  0  0
   21.3612    0.8390    9.0711 C   0  0  2  0  0  0  0  0  0  0  0  0
   21.6684    0.1338    7.7534 C   0  0  1  0  0  0  0  0  0  0  0  0
  1  3  1  0  0  0  0
  4  1  1  1  0  0  0
  4  6  1  0  0  0  0
  4 31  1  0  0  0  0
  6  7  1  0  0  0  0
  7  9  1  1  0  0  0
  7 30  1  0  0  0  0
  8 26  1  0  0  0  0
 10  9  1  6  0  0  0
 10 13  1  0  0  0  0
 10 21  1  0  0  0  0
 13 12  1  1  0  0  0
 13 15  1  0  0  0  0
 15  2  1  6  0  0  0
 15 17  1  0  0  0  0
 16 25  1  0  0  0  0
 16 23  1  0  0  0  0
 17 19  1  0  0  0  0
 19  5  1  6  0  0  0
 19 21  1  0  0  0  0
 21 14  1  1  0  0  0
 23 14  1  1  0  0  0
 23 29  1  0  0  0  0
 25 26  1  6  0  0  0
 25 27  1  0  0  0  0
 27 18  1  1  0  0  0
 27 28  1  0  0  0  0
 28 20  1  6  0  0  0
 28 29  1  0  0  0  0
 29 11  1  1  0  0  0
 30 22  1  6  0  0  0
 30 31  1  0  0  0  0
 31 24  1  6  0  0  0
M  END
>  <CHROM.1>
177.51692319,-82.20981271,56.80182561,65.25064087,73.16571705,67.08352606
18.91599031,0.62476346,10.24034276,-0.53855871,0.68376144,-0.51702670

>  <Name>
ligand

>  <RI>
0

>  <Rbt.Current_Directory>
/home/itssahil/PROJECTS/Mol_Feturizer/New_Systems/rnas/3DVV

>  <Rbt.Executable>
rbdock ($Id: //depot/dev/client3/rdock/2013.1/src/exe/rbdock.cxx#4 $)

>  <Rbt.Library>
libRbt.so (2013.1, Build901 2013/11/27)

>  <Rbt.Parameter_File>
/export/apps/rDock/src/rDock_2013.1_src/data/scripts/dock_solv.prm

>  <Rbt.Receptor>
prm/blind_docking_80.prm

>  <SCORE>
-11.9129

>  <SCORE.INTER>
-9.49307

>  <SCORE.INTER.CONST>
1

>  <SCORE.INTER.POLAR>
0

>  <SCORE.INTER.ROT>
6

>  <SCORE.INTER.SOLV>
23.9272

>  <SCORE.INTER.VDW>
-21.9044

>  <SCORE.INTER.norm>
-0.306228

>  <SCORE.INTRA>
-2.41978

>  <SCORE.INTRA.DIHEDRAL>
-7.28093

>  <SCORE.INTRA.DIHEDRAL.0>
10.8172

>  <SCORE.INTRA.POLAR>
0

>  <SCORE.INTRA.POLAR.0>
0

>  <SCORE.INTRA.REPUL>
0

>  <SCORE.INTRA.REPUL.0>
0

>  <SCORE.INTRA.SOLV>
-2.22345

>  <SCORE.INTRA.SOLV.lig_0>
-80.3833

>  <SCORE.INTRA.VDW>
2.33242

>  <SCORE.INTRA.VDW.0>
-4.63762

>  <SCORE.INTRA.norm>
-0.0780573

>  <SCORE.RESTR>
0

>  <SCORE.RESTR.CAVITY>
0

>  <SCORE.RESTR.norm>
0

>  <SCORE.SYSTEM>
0

>  <SCORE.SYSTEM.CONST>
0

>  <SCORE.SYSTEM.DIHEDRAL>
0

>  <SCORE.SYSTEM.SOLV>
0

>  <SCORE.SYSTEM.norm>
0

>  <SCORE.heavy>
31

>  <SCORE.norm>
-0.384286

>  <RMSD>
9.374

$$$$
ligand
 OpenBabel11021811473D
libRbt.so/2013.1/901 2013/11/27
 31 33  0  0  0  0  0  0  0  0999 V2000
   23.2225   -1.7120    8.3048 C   0  0  0  0  0  0  0  0  0  0  0  0
   18.6240   -4.2904   12.0386 N   0  0  0  0  0  0  0  0  0  0  0  0
   23.3312   -3.0941    8.6609 O   0  0  0  0  0  0  0  0  0  0  0  0
   21.7504   -1.3200    8.1550 C   0  0  1  0  0  0  0  0  0  0  0  0
   15.7010   -0.5400   10.9011 N   0  0  0  0  0  0  0  0  0  0  0  0
   21.0781   -1.4198    9.4256 O   0  0  0  0  0  0  0  0  0  0  0  0
   20.4485   -0.1582    9.7114 C   0  0  1  0  0  0  0  0  0  0  0  0
   16.8353    1.4409    7.3896 N   0  0  0  0  0  0  0  0  0  0  0  0
   20.4365    0.1230   11.1198 O   0  0  0  0  0  0  0  0  0  0  0  0
   19.3911   -0.5518   11.8352 C   0  0  2  0  0  0  0  0  0  0  0  0
   18.3927    3.4948   13.3152 N   0  0  0  0  0  0  0  0  0  0  0  0
   20.7897   -2.4859   12.2173 O   0  0  0  0  0  0  0  0  0  0  0  0
   19.5744   -2.0554   11.5983 C   0  0  1  0  0  0  0  0  0  0  0  0
   17.7311    1.2706   11.7705 O   0  0  0  0  0  0  0  0  0  0  0  0
   18.4028   -2.8439   12.1869 C   0  0  1  0  0  0  0  0  0  0  0  0
   18.1888    2.4107    9.7633 O   0  0  0  0  0  0  0  0  0  0  0  0
   17.1144   -2.4343   11.4729 C   0  0  0  0  0  0  0  0  0  0  0  0
   15.0626    4.3318    9.8780 O   0  0  0  0  0  0  0  0  0  0  0  0
   16.8595   -0.9432   11.7126 C   0  0  1  0  0  0  0  0  0  0  0  0
   16.5269    5.3788   12.1195 O   0  0  0  0  0  0  0  0  0  0  0  0
   18.0455   -0.0566   11.3138 C   0  0  2  0  0  0  0  0  0  0  0  0
   20.7261    2.1081    8.7923 O   0  0  0  0  0  0  0  0  0  0  0  0
   18.5076    2.3156   11.1640 C   0  0  1  0  0  0  0  0  0  0  0  0
   20.5336    0.3531    6.8224 O   0  0  0  0  0  0  0  0  0  0  0  0
   16.8087    2.7086    9.4914 C   0  0  2  0  0  0  0  0  0  0  0  0
   16.5977    2.7693    7.9767 C   0  0  0  0  0  0  0  0  0  0  0  0
   16.4512    4.0679   10.0952 C   0  0  2  0  0  0  0  0  0  0  0  0
   16.7360    4.0620   11.5985 C   0  0  1  0  0  0  0  0  0  0  0  0
   18.1825    3.6381   11.8664 C   0  0  1  0  0  0  0  0  0  0  0  0
   21.3669    0.8520    9.0269 C   0  0  2  0  0  0  0  0  0  0  0  0
   21.6378    0.1394    7.7052 C   0  0  1  0  0  0  0  0  0  0  0  0
  1  3  1  0  0  0  0
  4  1  1  1  0  0  0
  4  6  1  0  0  0  0
  4 31  1  0  0  0  0
  6  7  1  0  0  0  0
  7  9  1  1  0  0  0
  7 30  1  0  0  0  0
  8 26  1  0  0  0  0
 10  9  1  6  0  0  0
 10 13  1  0  0  0  0
 10 21  1  0  0  0  0
 13 12  1  1  0  0  0
 13 15  1  0  0  0  0
 15  2  1  6  0  0  0
 15 17  1  0  0  0  0
 16 25  1  0  0  0  0
 16 23  1  0  0  0  0
 17 19  1  0  0  0  0
 19  5  1  6  0  0  0
 19 21  1  0  0  0  0
 21 14  1  1  0  0  0
 23 14  1  1  0  0  0
 23 29  1  0  0  0  0
 25 26  1  6  0  0  0
 25 27  1  0  0  0  0
 27 18  1  1  0  0  0
 27 28  1  0  0  0  0
 28 20  1  6  0  0  0
 28 29  1  0  0  0  0
 29 11  1  1  0  0  0
 30 22  1  6  0  0  0
 30 31  1  0  0  0  0
 31 24  1  6  0  0  0
M  END
>  <CHROM.1>
65.20486746,-80.27350836,57.91910564,66.41453067,72.14211326,64.93741382
18.89858054,0.57696497,10.28565959,-0.60465804,0.69829717,-0.55355586

>  <Name>
ligand

>  <RI>
0

>  <Rbt.Current_Directory>
/home/itssahil/PROJECTS/Mol_Feturizer/New_Systems/rnas/3DVV

>  <Rbt.Executable>
rbdock ($Id: //depot/dev/client3/rdock/2013.1/src/exe/rbdock.cxx#4 $)

>  <Rbt.Library>
libRbt.so (2013.1, Build901 2013/11/27)

>  <Rbt.Parameter_File>
/export/apps/rDock/src/rDock_2013.1_src/data/scripts/dock_solv.prm

>  <Rbt.Receptor>
prm/blind_docking_80.prm

>  <SCORE>
-12.1225

>  <SCORE.INTER>
-9.27334

>  <SCORE.INTER.CONST>
1

>  <SCORE.INTER.POLAR>
0

>  <SCORE.INTER.ROT>
6

>  <SCORE.INTER.SOLV>
24.363

>  <SCORE.INTER.VDW>
-21.9032

>  <SCORE.INTER.norm>
-0.29914

>  <SCORE.INTRA>
-2.84915

>  <SCORE.INTRA.DIHEDRAL>
-7.68356

>  <SCORE.INTRA.DIHEDRAL.0>
10.8172

>  <SCORE.INTRA.POLAR>
0

>  <SCORE.INTRA.POLAR.0>
0

>  <SCORE.INTRA.REPUL>
0

>  <SCORE.INTRA.REPUL.0>
0

>  <SCORE.INTRA.SOLV>
-2.43858

>  <SCORE.INTRA.SOLV.lig_0>
-80.3833

>  <SCORE.INTRA.VDW>
2.21192

>  <SCORE.INTRA.VDW.0>
-4.63762

>  <SCORE.INTRA.norm>
-0.091908

>  <SCORE.RESTR>
0

>  <SCORE.RESTR.CAVITY>
0

>  <SCORE.RESTR.norm>
0

>  <SCORE.SYSTEM>
0

>  <SCORE.SYSTEM.CONST>
0

>  <SCORE.SYSTEM.DIHEDRAL>
0

>  <SCORE.SYSTEM.SOLV>
0

>  <SCORE.SYSTEM.norm>
0

>  <SCORE.heavy>
31

>  <SCORE.norm>
-0.391048

>  <RMSD>
9.374

$$$$
ligand
 OpenBabel11021811473D
libRbt.so/2013.1/901 2013/11/27
 31 33  0  0  0  0  0  0  0  0999 V2000
   16.0288   -2.7029   11.2098 C   0  0  0  0  0  0  0  0  0  0  0  0
   23.9261   -1.7721    7.1664 N   0  0  0  0  0  0  0  0  0  0  0  0
   16.7488   -1.9208   12.1684 O   0  0  0  0  0  0  0  0  0  0  0  0
   16.9928   -3.6017   10.4313 C   0  0  1  0  0  0  0  0  0  0  0  0
   21.2163    2.0562    8.5467 N   0  0  0  0  0  0  0  0  0  0  0  0
   18.0265   -2.8073    9.8174 O   0  0  0  0  0  0  0  0  0  0  0  0
   19.3054   -3.3237   10.2265 C   0  0  1  0  0  0  0  0  0  0  0  0
   19.8916    3.7431   12.9420 N   0  0  0  0  0  0  0  0  0  0  0  0
   20.2865   -2.2814   10.3447 O   0  0  0  0  0  0  0  0  0  0  0  0
   20.6280   -1.6645    9.0946 C   0  0  2  0  0  0  0  0  0  0  0  0
   16.3513   -0.0765    9.0386 N   0  0  0  0  0  0  0  0  0  0  0  0
   22.1212   -3.4750    8.5159 O   0  0  0  0  0  0  0  0  0  0  0  0
   22.0703   -2.0679    8.7668 C   0  0  1  0  0  0  0  0  0  0  0  0
   19.1079    0.2696    9.2666 O   0  0  0  0  0  0  0  0  0  0  0  0
   22.5759   -1.3179    7.5328 C   0  0  1  0  0  0  0  0  0  0  0  0
   18.9926    0.3987   11.6135 O   0  0  0  0  0  0  0  0  0  0  0  0
   22.5894    0.1820    7.8290 C   0  0  0  0  0  0  0  0  0  0  0  0
   17.6994    3.8343   11.5867 O   0  0  0  0  0  0  0  0  0  0  0  0
   21.1607    0.6486    8.1236 C   0  0  1  0  0  0  0  0  0  0  0  0
   15.5301    2.3367   10.4396 O   0  0  0  0  0  0  0  0  0  0  0  0
   20.4826   -0.1528    9.2414 C   0  0  2  0  0  0  0  0  0  0  0  0
   20.0107   -4.8273   12.0430 O   0  0  0  0  0  0  0  0  0  0  0  0
   18.3735   -0.1402   10.4308 C   0  0  1  0  0  0  0  0  0  0  0  0
   17.9232   -5.8527   10.7825 O   0  0  0  0  0  0  0  0  0  0  0  0
   19.0529    1.8348   11.6457 C   0  0  2  0  0  0  0  0  0  0  0  0
   19.7406    2.2792   12.9388 C   0  0  0  0  0  0  0  0  0  0  0  0
   17.6341    2.4061   11.6188 C   0  0  2  0  0  0  0  0  0  0  0  0
   16.8936    1.9054   10.3769 C   0  0  1  0  0  0  0  0  0  0  0  0
   16.9359    0.3765   10.3101 C   0  0  1  0  0  0  0  0  0  0  0  0
   19.0256   -3.8815   11.6205 C   0  0  2  0  0  0  0  0  0  0  0  0
   17.6884   -4.5773   11.3849 C   0  0  1  0  0  0  0  0  0  0  0  0
  1  3  1  0  0  0  0
  4  1  1  1  0  0  0
  4  6  1  0  0  0  0
  4 31  1  0  0  0  0
  6  7  1  0  0  0  0
  7  9  1  1  0  0  0
  7 30  1  0  0  0  0
  8 26  1  0  0  0  0
 10  9  1  1  0  0  0
 10 13  1  0  0  0  0
 10 21  1  0  0  0  0
 13 12  1  6  0  0  0
 13 15  1  0  0  0  0
 15  2  1  1  0  0  0
 15 17  1  0  0  0  0
 16 25  1  0  0  0  0
 16 23  1  0  0  0  0
 17 19  1  0  0  0  0
 19  5  1  1  0  0  0
 19 21  1  0  0  0  0
 21 14  1  6  0  0  0
 23 14  1  6  0  0  0
 23 29  1  0  0  0  0
 25 26  1  1  0  0  0
 25 27  1  0  0  0  0
 27 18  1  6  0  0  0
 27 28  1  0  0  0  0
 28 20  1  1  0  0  0
 28 29  1  0  0  0  0
 29 11  1  6  0  0  0
 30 22  1  6  0  0  0
 30 31  1  0  0  0  0
 31 24  1  6  0  0  0
M  END
>  <CHROM.1>
-55.78581375,-66.46399576,-111.08244916,59.85357866,67.80129259,176.15323117
19.16883535,-0.80328182,10.25243318,1.16914848,-0.52271394,-3.10673220

>  <Name>
ligand

>  <RI>
0

>  <Rbt.Current_Directory>
/home/itssahil/PROJECTS/Mol_Feturizer/New_Systems/rnas/3DVV

>  <Rbt.Executable>
rbdock ($Id: //depot/dev/client3/rdock/2013.1/src/exe/rbdock.cxx#4 $)

>  <Rbt.Library>
libRbt.so (2013.1, Build901 2013/11/27)

>  <Rbt.Parameter_File>
/export/apps/rDock/src/rDock_2013.1_src/data/scripts/dock_solv.prm

>  <Rbt.Receptor>
prm/blind_docking_100.prm

>  <SCORE>
-5.15929

>  <SCORE.INTER>
-4.55375

>  <SCORE.INTER.CONST>
1

>  <SCORE.INTER.POLAR>
0

>  <SCORE.INTER.ROT>
6

>  <SCORE.INTER.SOLV>
20.589

>  <SCORE.INTER.VDW>
-17.4988

>  <SCORE.INTER.norm>
-0.146895

>  <SCORE.INTRA>
-0.611802

>  <SCORE.INTRA.DIHEDRAL>
-3.13129

>  <SCORE.INTRA.DIHEDRAL.0>
10.8172

>  <SCORE.INTRA.POLAR>
0

>  <SCORE.INTRA.POLAR.0>
0

>  <SCORE.INTRA.REPUL>
0

>  <SCORE.INTRA.REPUL.0>
0

>  <SCORE.INTRA.SOLV>
0.460568

>  <SCORE.INTRA.SOLV.lig_0>
-80.3833

>  <SCORE.INTRA.VDW>
0.723557

>  <SCORE.INTRA.VDW.0>
-4.63762

>  <SCORE.INTRA.norm>
-0.0197355

>  <SCORE.RESTR>
0.00626174

>  <SCORE.RESTR.CAVITY>
0.00626174

>  <SCORE.RESTR.norm>
0.000201992

>  <SCORE.SYSTEM>
0

>  <SCORE.SYSTEM.CONST>
0

>  <SCORE.SYSTEM.DIHEDRAL>
0

>  <SCORE.SYSTEM.SOLV>
0

>  <SCORE.SYSTEM.norm>
0

>  <SCORE.heavy>
31

>  <SCORE.norm>
-0.166429

>  <RMSD>
9.430

$$$$
ligand
 OpenBabel11021811473D
libRbt.so/2013.1/901 2013/11/27
 31 33  0  0  0  0  0  0  0  0999 V2000
   20.4334    2.5506    9.3932 C   0  0  0  0  0  0  0  0  0  0  0  0
   20.3581   -6.1670   10.0993 N   0  0  0  0  0  0  0  0  0  0  0  0
   20.1210    2.7408   10.7771 O   0  0  0  0  0  0  0  0  0  0  0  0
   21.3249    1.3186    9.2182 C   0  0  1  0  0  0  0  0  0  0  0  0
   16.1098   -3.9796   11.1339 N   0  0  0  0  0  0  0  0  0  0  0  0
   20.6362    0.1382    9.6752 O   0  0  0  0  0  0  0  0  0  0  0  0
   20.6339   -0.8315    8.6124 C   0  0  1  0  0  0  0  0  0  0  0  0
   20.9000    1.5313   13.1778 N   0  0  0  0  0  0  0  0  0  0  0  0
   19.4398   -1.6297    8.6238 O   0  0  0  0  0  0  0  0  0  0  0  0
   19.3368   -2.4997    9.7606 C   0  0  2  0  0  0  0  0  0  0  0  0
   14.9624   -0.6804   11.9861 N   0  0  0  0  0  0  0  0  0  0  0  0
   21.3343   -3.7025    9.1236 O   0  0  0  0  0  0  0  0  0  0  0  0
   19.9308   -3.8532    9.3535 C   0  0  1  0  0  0  0  0  0  0  0  0
   17.3679   -1.4379   10.7985 O   0  0  0  0  0  0  0  0  0  0  0  0
   19.7095   -4.8949   10.4520 C   0  0  1  0  0  0  0  0  0  0  0  0
   18.5301   -1.2931   12.8398 O   0  0  0  0  0  0  0  0  0  0  0  0
   18.2079   -5.1076   10.6455 C   0  0  0  0  0  0  0  0  0  0  0  0
   18.6587    2.3749   12.7658 O   0  0  0  0  0  0  0  0  0  0  0  0
   17.5679   -3.7908   11.0952 C   0  0  1  0  0  0  0  0  0  0  0  0
   15.8530    1.8506   13.1093 O   0  0  0  0  0  0  0  0  0  0  0  0
   17.8665   -2.6209   10.1498 C   0  0  2  0  0  0  0  0  0  0  0  0
   21.0622   -0.6789    6.1935 O   0  0  0  0  0  0  0  0  0  0  0  0
   17.2510   -1.5384   12.2265 C   0  0  1  0  0  0  0  0  0  0  0  0
   22.9594    0.5932    7.5276 O   0  0  0  0  0  0  0  0  0  0  0  0
   19.0794    0.0056   12.5592 C   0  0  2  0  0  0  0  0  0  0  0  0
   20.4375    0.1363   13.2528 C   0  0  0  0  0  0  0  0  0  0  0  0
   18.1411    1.0849   13.1022 C   0  0  2  0  0  0  0  0  0  0  0  0
   16.7489    0.9225   12.4887 C   0  0  1  0  0  0  0  0  0  0  0  0
   16.2311   -0.5013   12.7086 C   0  0  1  0  0  0  0  0  0  0  0  0
   20.6231    0.0325    7.3531 C   0  0  2  0  0  0  0  0  0  0  0  0
   21.6401    1.1039    7.7351 C   0  0  1  0  0  0  0  0  0  0  0  0
  1  3  1  0  0  0  0
  4  1  1  6  0  0  0
  4  6  1  0  0  0  0
  4 31  1  0  0  0  0
  6  7  1  0  0  0  0
  7  9  1  1  0  0  0
  7 30  1  0  0  0  0
  8 26  1  0  0  0  0
 10  9  1  6  0  0  0
 10 13  1  0  0  0  0
 10 21  1  0  0  0  0
 13 12  1  1  0  0  0
 13 15  1  0  0  0  0
 15  2  1  6  0  0  0
 15 17  1  0  0  0  0
 16 25  1  0  0  0  0
 16 23  1  0  0  0  0
 17 19  1  0  0  0  0
 19  5  1  6  0  0  0
 19 21  1  0  0  0  0
 21 14  1  1  0  0  0
 23 14  1  6  0  0  0
 23 29  1  0  0  0  0
 25 26  1  1  0  0  0
 25 27  1  0  0  0  0
 27 18  1  6  0  0  0
 27 28  1  0  0  0  0
 28 20  1  1  0  0  0
 28 29  1  0  0  0  0
 29 11  1  6  0  0  0
 30 22  1  6  0  0  0
 30 31  1  0  0  0  0
 31 24  1  1  0  0  0
M  END
>  <CHROM.1>
61.47097647,-67.49193116,-93.06766908,82.06631771,-102.17441907,-169.95157524
19.16864762,-0.88559167,10.56190197,-0.49203952,0.76828056,0.28386515

>  <Name>
ligand

>  <RI>
0

>  <Rbt.Current_Directory>
/home/itssahil/PROJECTS/Mol_Feturizer/New_Systems/rnas/3DVV

>  <Rbt.Executable>
rbdock ($Id: //depot/dev/client3/rdock/2013.1/src/exe/rbdock.cxx#4 $)

>  <Rbt.Library>
libRbt.so (2013.1, Build901 2013/11/27)

>  <Rbt.Parameter_File>
/export/apps/rDock/src/rDock_2013.1_src/data/scripts/dock_solv.prm

>  <Rbt.Receptor>
prm/blind_docking_80.prm

>  <SCORE>
14.8348

>  <SCORE.INTER>
4.7016

>  <SCORE.INTER.CONST>
1

>  <SCORE.INTER.POLAR>
0

>  <SCORE.INTER.ROT>
6

>  <SCORE.INTER.SOLV>
28.5159

>  <SCORE.INTER.VDW>
-13.9709

>  <SCORE.INTER.norm>
0.151664

>  <SCORE.INTRA>
9.25348

>  <SCORE.INTRA.DIHEDRAL>
1.99348

>  <SCORE.INTRA.DIHEDRAL.0>
10.8172

>  <SCORE.INTRA.POLAR>
0

>  <SCORE.INTRA.POLAR.0>
0

>  <SCORE.INTRA.REPUL>
0.0710604

>  <SCORE.INTRA.REPUL.0>
0

>  <SCORE.INTRA.SOLV>
2.41233

>  <SCORE.INTRA.SOLV.lig_0>
-80.3833

>  <SCORE.INTRA.VDW>
6.69528

>  <SCORE.INTRA.VDW.0>
-4.63762

>  <SCORE.INTRA.norm>
0.298499

>  <SCORE.RESTR>
0.879674

>  <SCORE.RESTR.CAVITY>
0.879674

>  <SCORE.RESTR.norm>
0.0283766

>  <SCORE.SYSTEM>
0

>  <SCORE.SYSTEM.CONST>
0

>  <SCORE.SYSTEM.DIHEDRAL>
0

>  <SCORE.SYSTEM.SOLV>
0

>  <SCORE.SYSTEM.norm>
0

>  <SCORE.heavy>
31

>  <SCORE.norm>
0.47854

>  <RMSD>
9.457

$$$$
ligand
 OpenBabel11021811473D
libRbt.so/2013.1/901 2013/11/27
 31 33  0  0  0  0  0  0  0  0999 V2000
   22.3144   -2.2650    6.7474 C   0  0  0  0  0  0  0  0  0  0  0  0
   17.5278   -5.3986   10.9038 N   0  0  0  0  0  0  0  0  0  0  0  0
   22.1470   -3.6793    6.6041 O   0  0  0  0  0  0  0  0  0  0  0  0
   21.0090   -1.6251    7.2266 C   0  0  1  0  0  0  0  0  0  0  0  0
   16.0317   -0.7636   11.3292 N   0  0  0  0  0  0  0  0  0  0  0  0
   20.5670   -2.2520    8.4464 O   0  0  0  0  0  0  0  0  0  0  0  0
   20.3767   -1.2322    9.4431 C   0  0  1  0  0  0  0  0  0  0  0  0
   16.9933    3.3161    8.7329 N   0  0  0  0  0  0  0  0  0  0  0  0
   20.6889   -1.7115   10.7606 O   0  0  0  0  0  0  0  0  0  0  0  0
   19.5504   -2.2075   11.4803 C   0  0  2  0  0  0  0  0  0  0  0  0
   20.0177    1.8726   13.7124 N   0  0  0  0  0  0  0  0  0  0  0  0
   20.2002   -4.5024   11.0884 O   0  0  0  0  0  0  0  0  0  0  0  0
   19.1614   -3.5491   10.8484 C   0  0  1  0  0  0  0  0  0  0  0  0
   18.6505   -0.0265   12.1975 O   0  0  0  0  0  0  0  0  0  0  0  0
   17.8523   -4.0700   11.4449 C   0  0  1  0  0  0  0  0  0  0  0  0
   18.4560    1.4374   10.3651 O   0  0  0  0  0  0  0  0  0  0  0  0
   16.7286   -3.0842   11.1242 C   0  0  0  0  0  0  0  0  0  0  0  0
   15.7637    3.3887   11.9208 O   0  0  0  0  0  0  0  0  0  0  0  0
   17.0469   -1.7323   11.7697 C   0  0  1  0  0  0  0  0  0  0  0  0
   18.0222    3.9858   13.5963 O   0  0  0  0  0  0  0  0  0  0  0  0
   18.4236   -1.1842   11.3747 C   0  0  2  0  0  0  0  0  0  0  0  0
   21.1157    1.1090    9.6184 O   0  0  0  0  0  0  0  0  0  0  0  0
   19.2468    1.0885   11.5163 C   0  0  1  0  0  0  0  0  0  0  0  0
   20.0990    0.6613    7.2177 O   0  0  0  0  0  0  0  0  0  0  0  0
   17.1027    1.8142   10.6713 C   0  0  2  0  0  0  0  0  0  0  0  0
   16.3679    2.1465    9.3704 C   0  0  0  0  0  0  0  0  0  0  0  0
   17.1083    3.0546   11.5666 C   0  0  2  0  0  0  0  0  0  0  0  0
   17.9123    2.7764   12.8383 C   0  0  1  0  0  0  0  0  0  0  0  0
   19.3147    2.2745   12.4843 C   0  0  1  0  0  0  0  0  0  0  0  0
   21.4085   -0.1736    9.0592 C   0  0  2  0  0  0  0  0  0  0  0  0
   21.2346   -0.1440    7.5437 C   0  0  1  0  0  0  0  0  0  0  0  0
  1  3  1  0  0  0  0
  4  1  1  1  0  0  0
  4  6  1  0  0  0  0
  4 31  1  0  0  0  0
  6  7  1  0  0  0  0
  7  9  1  1  0  0  0
  7 30  1  0  0  0  0
  8 26  1  0  0  0  0
 10  9  1  6  0  0  0
 10 13  1  0  0  0  0
 10 21  1  0  0  0  0
 13 12  1  1  0  0  0
 13 15  1  0  0  0  0
 15  2  1  6  0  0  0
 15 17  1  0  0  0  0
 16 25  1  0  0  0  0
 16 23  1  0  0  0  0
 17 19  1  0  0  0  0
 19  5  1  6  0  0  0
 19 21  1  0  0  0  0
 21 14  1  1  0  0  0
 23 14  1  1  0  0  0
 23 29  1  0  0  0  0
 25 26  1  6  0  0  0
 25 27  1  0  0  0  0
 27 18  1  1  0  0  0
 27 28  1  0  0  0  0
 28 20  1  6  0  0  0
 28 29  1  0  0  0  0
 29 11  1  1  0  0  0
 30 22  1  1  0  0  0
 30 31  1  0  0  0  0
 31 24  1  1  0  0  0
M  END
>  <CHROM.1>
55.44668493,-93.93019040,72.64408556,54.88872099,95.88812151,-63.68754698
19.00627353,-0.33588174,10.40088301,-0.84045667,0.85653332,-0.08259196

>  <Name>
ligand

>  <RI>
0

>  <Rbt.Current_Directory>
/home/itssahil/PROJECTS/Mol_Feturizer/New_Systems/rnas/3DVV

>  <Rbt.Executable>
rbdock ($Id: //depot/dev/client3/rdock/2013.1/src/exe/rbdock.cxx#4 $)

>  <Rbt.Library>
libRbt.so (2013.1, Build901 2013/11/27)

>  <Rbt.Parameter_File>
/export/apps/rDock/src/rDock_2013.1_src/data/scripts/dock_solv.prm

>  <Rbt.Receptor>
prm/blind_docking_60.prm

>  <SCORE>
0.0622878

>  <SCORE.INTER>
-2.61706

>  <SCORE.INTER.CONST>
1

>  <SCORE.INTER.POLAR>
0

>  <SCORE.INTER.ROT>
6

>  <SCORE.INTER.SOLV>
17.3985

>  <SCORE.INTER.VDW>
-15.1442

>  <SCORE.INTER.norm>
-0.0844214

>  <SCORE.INTRA>
2.65406

>  <SCORE.INTRA.DIHEDRAL>
-0.825988

>  <SCORE.INTRA.DIHEDRAL.0>
10.8172

>  <SCORE.INTRA.POLAR>
0

>  <SCORE.INTRA.POLAR.0>
0

>  <SCORE.INTRA.REPUL>
0

>  <SCORE.INTRA.REPUL.0>
0

>  <SCORE.INTRA.SOLV>
0.628203

>  <SCORE.INTRA.SOLV.lig_0>
-80.3833

>  <SCORE.INTRA.VDW>
2.75295

>  <SCORE.INTRA.VDW.0>
-4.63762

>  <SCORE.INTRA.norm>
0.0856147

>  <SCORE.RESTR>
0.0252934

>  <SCORE.RESTR.CAVITY>
0.0252934

>  <SCORE.RESTR.norm>
0.000815916

>  <SCORE.SYSTEM>
0

>  <SCORE.SYSTEM.CONST>
0

>  <SCORE.SYSTEM.DIHEDRAL>
0

>  <SCORE.SYSTEM.SOLV>
0

>  <SCORE.SYSTEM.norm>
0

>  <SCORE.heavy>
31

>  <SCORE.norm>
0.00200928

>  <RMSD>
9.604

$$$$
ligand
 OpenBabel11021811473D
libRbt.so/2013.1/901 2013/11/27
 31 33  0  0  0  0  0  0  0  0999 V2000
   16.3250    3.8704    9.3229 C   0  0  0  0  0  0  0  0  0  0  0  0
   19.2081    2.4161   14.7250 N   0  0  0  0  0  0  0  0  0  0  0  0
   16.6381    4.7025   10.4447 O   0  0  0  0  0  0  0  0  0  0  0  0
   17.3758    2.7672    9.1748 C   0  0  1  0  0  0  0  0  0  0  0  0
   21.2924   -1.1824   12.1539 N   0  0  0  0  0  0  0  0  0  0  0  0
   17.5346    2.0620   10.4214 O   0  0  0  0  0  0  0  0  0  0  0  0
   17.3378    0.6571   10.1816 C   0  0  1  0  0  0  0  0  0  0  0  0
   21.9578   -2.2958    8.5415 N   0  0  0  0  0  0  0  0  0  0  0  0
   16.7329    0.0050   11.3093 O   0  0  0  0  0  0  0  0  0  0  0  0
   17.6278   -0.1864   12.4150 C   0  0  2  0  0  0  0  0  0  0  0  0
   16.3912   -3.7980   11.4059 N   0  0  0  0  0  0  0  0  0  0  0  0
   16.7179    1.7218   13.5869 O   0  0  0  0  0  0  0  0  0  0  0  0
   17.9169    1.1961   13.0113 C   0  0  1  0  0  0  0  0  0  0  0  0
   18.7024   -2.2520   11.6029 O   0  0  0  0  0  0  0  0  0  0  0  0
   18.9965    1.1056   14.0916 C   0  0  1  0  0  0  0  0  0  0  0  0
   19.2400   -2.5976    9.3380 O   0  0  0  0  0  0  0  0  0  0  0  0
   20.2980    0.6122   13.4591 C   0  0  0  0  0  0  0  0  0  0  0  0
   20.4475   -6.0164    9.9126 O   0  0  0  0  0  0  0  0  0  0  0  0
   20.0764   -0.7890   12.8819 C   0  0  1  0  0  0  0  0  0  0  0  0
   17.6313   -6.2466   10.4428 O   0  0  0  0  0  0  0  0  0  0  0  0
   18.8980   -0.8590   11.9031 C   0  0  2  0  0  0  0  0  0  0  0  0
   16.3341   -0.6092    8.3250 O   0  0  0  0  0  0  0  0  0  0  0  0
   18.1686   -2.5170   10.2962 C   0  0  1  0  0  0  0  0  0  0  0  0
   18.0054    1.2090    7.3772 O   0  0  0  0  0  0  0  0  0  0  0  0
   20.1994   -3.6329    9.6117 C   0  0  2  0  0  0  0  0  0  0  0  0
   21.2874   -3.6058    8.5355 C   0  0  0  0  0  0  0  0  0  0  0  0
   19.5042   -4.9951    9.5776 C   0  0  2  0  0  0  0  0  0  0  0  0
   18.3535   -5.0188   10.5858 C   0  0  1  0  0  0  0  0  0  0  0  0
   17.4034   -3.8439   10.3395 C   0  0  1  0  0  0  0  0  0  0  0  0
   16.3422    0.6380    9.0236 C   0  0  2  0  0  0  0  0  0  0  0  0
   16.9164    1.7391    8.1371 C   0  0  1  0  0  0  0  0  0  0  0  0
  1  3  1  0  0  0  0
  4  1  1  1  0  0  0
  4  6  1  0  0  0  0
  4 31  1  0  0  0  0
  6  7  1  0  0  0  0
  7  9  1  1  0  0  0
  7 30  1  0  0  0  0
  8 26  1  0  0  0  0
 10  9  1  6  0  0  0
 10 13  1  0  0  0  0
 10 21  1  0  0  0  0
 13 12  1  1  0  0  0
 13 15  1  0  0  0  0
 15  2  1  6  0  0  0
 15 17  1  0  0  0  0
 16 25  1  0  0  0  0
 16 23  1  0  0  0  0
 17 19  1  0  0  0  0
 19  5  1  6  0  0  0
 19 21  1  0  0  0  0
 21 14  1  1  0  0  0
 23 14  1  1  0  0  0
 23 29  1  0  0  0  0
 25 26  1  6  0  0  0
 25 27  1  0  0  0  0
 27 18  1  1  0  0  0
 27 28  1  0  0  0  0
 28 20  1  6  0  0  0
 28 29  1  0  0  0  0
 29 11  1  1  0  0  0
 30 22  1  6  0  0  0
 30 31  1  0  0  0  0
 31 24  1  1  0  0  0
M  END
>  <CHROM.1>
52.50580986,-74.12532180,69.70604367,86.62729785,84.27303978,59.86608585
18.36131281,-0.82427943,10.69141528,2.24226415,-1.10378761,0.76863961

>  <Name>
ligand

>  <RI>
0

>  <Rbt.Current_Directory>
/home/itssahil/PROJECTS/Mol_Feturizer/New_Systems/rnas/3DVV

>  <Rbt.Executable>
rbdock ($Id: //depot/dev/client3/rdock/2013.1/src/exe/rbdock.cxx#4 $)

>  <Rbt.Library>
libRbt.so (2013.1, Build901 2013/11/27)

>  <Rbt.Parameter_File>
/export/apps/rDock/src/rDock_2013.1_src/data/scripts/dock_solv.prm

>  <Rbt.Receptor>
prm/blind_docking_60.prm

>  <SCORE>
-3.21372

>  <SCORE.INTER>
-2.95713

>  <SCORE.INTER.CONST>
1

>  <SCORE.INTER.POLAR>
0

>  <SCORE.INTER.ROT>
6

>  <SCORE.INTER.SOLV>
20.3367

>  <SCORE.INTER.VDW>
-16.3503

>  <SCORE.INTER.norm>
-0.0953913

>  <SCORE.INTRA>
-0.382929

>  <SCORE.INTRA.DIHEDRAL>
-3.55977

>  <SCORE.INTRA.DIHEDRAL.0>
10.8172

>  <SCORE.INTRA.POLAR>
0

>  <SCORE.INTRA.POLAR.0>
0

>  <SCORE.INTRA.REPUL>
0

>  <SCORE.INTRA.REPUL.0>
0

>  <SCORE.INTRA.SOLV>
-1.92269

>  <SCORE.INTRA.SOLV.lig_0>
-80.3833

>  <SCORE.INTRA.VDW>
2.3583

>  <SCORE.INTRA.VDW.0>
-4.63762

>  <SCORE.INTRA.norm>
-0.0123526

>  <SCORE.RESTR>
0.126338

>  <SCORE.RESTR.CAVITY>
0.126338

>  <SCORE.RESTR.norm>
0.00407541

>  <SCORE.SYSTEM>
0

>  <SCORE.SYSTEM.CONST>
0

>  <SCORE.SYSTEM.DIHEDRAL>
0

>  <SCORE.SYSTEM.SOLV>
0

>  <SCORE.SYSTEM.norm>
0

>  <SCORE.heavy>
31

>  <SCORE.norm>
-0.103668

>  <RMSD>
9.634

$$$$
ligand
 OpenBabel11021811473D
libRbt.so/2013.1/901 2013/11/27
 31 33  0  0  0  0  0  0  0  0999 V2000
   16.7426   -5.0476   10.8050 C   0  0  0  0  0  0  0  0  0  0  0  0
   23.7469   -1.8661    7.7045 N   0  0  0  0  0  0  0  0  0  0  0  0
   16.3834   -3.8104   11.4288 O   0  0  0  0  0  0  0  0  0  0  0  0
   18.2222   -5.0307   10.4129 C   0  0  1  0  0  0  0  0  0  0  0  0
   21.2778    2.3233    8.2105 N   0  0  0  0  0  0  0  0  0  0  0  0
   18.5074   -3.8757    9.5999 O   0  0  0  0  0  0  0  0  0  0  0  0
   19.5907   -3.1465   10.2035 C   0  0  1  0  0  0  0  0  0  0  0  0
   18.3095    1.7734   13.4583 N   0  0  0  0  0  0  0  0  0  0  0  0
   19.4623   -1.7317    9.9918 O   0  0  0  0  0  0  0  0  0  0  0  0
   20.1422   -1.2584    8.8197 C   0  0  2  0  0  0  0  0  0  0  0  0
   16.2213    1.3963    7.8482 N   0  0  0  0  0  0  0  0  0  0  0  0
   21.4985   -3.2556    8.7007 O   0  0  0  0  0  0  0  0  0  0  0  0
   21.5624   -1.8350    8.8532 C   0  0  1  0  0  0  0  0  0  0  0  0
   18.8643    0.8306    8.5302 O   0  0  0  0  0  0  0  0  0  0  0  0
   22.4136   -1.2455    7.7267 C   0  0  1  0  0  0  0  0  0  0  0  0
   18.3563    0.7634   10.8271 O   0  0  0  0  0  0  0  0  0  0  0  0
   22.5408    0.2640    7.9326 C   0  0  0  0  0  0  0  0  0  0  0  0
   18.1612    4.4174   11.1214 O   0  0  0  0  0  0  0  0  0  0  0  0
   21.1487    0.8992    7.8664 C   0  0  1  0  0  0  0  0  0  0  0  0
   15.9010    3.7990    9.4560 O   0  0  0  0  0  0  0  0  0  0  0  0
   20.1500    0.2671    8.8435 C   0  0  2  0  0  0  0  0  0  0  0  0
   20.6028   -3.1859   12.4467 O   0  0  0  0  0  0  0  0  0  0  0  0
   17.8380    0.5639    9.4989 C   0  0  1  0  0  0  0  0  0  0  0  0
   20.3174   -5.6554   11.5423 O   0  0  0  0  0  0  0  0  0  0  0  0
   18.8298    2.0969   11.0813 C   0  0  2  0  0  0  0  0  0  0  0  0
   19.3639    2.1750   12.5135 C   0  0  0  0  0  0  0  0  0  0  0  0
   17.6733    3.0868   10.9304 C   0  0  2  0  0  0  0  0  0  0  0  0
   17.0636    2.9673    9.5321 C   0  0  1  0  0  0  0  0  0  0  0  0
   16.6654    1.5172    9.2452 C   0  0  1  0  0  0  0  0  0  0  0  0
   19.4120   -3.4282   11.6939 C   0  0  2  0  0  0  0  0  0  0  0  0
   19.0969   -4.9208   11.6650 C   0  0  1  0  0  0  0  0  0  0  0  0
  1  3  1  0  0  0  0
  4  1  1  1  0  0  0
  4  6  1  0  0  0  0
  4 31  1  0  0  0  0
  6  7  1  0  0  0  0
  7  9  1  1  0  0  0
  7 30  1  0  0  0  0
  8 26  1  0  0  0  0
 10  9  1  1  0  0  0
 10 13  1  0  0  0  0
 10 21  1  0  0  0  0
 13 12  1  6  0  0  0
 13 15  1  0  0  0  0
 15  2  1  1  0  0  0
 15 17  1  0  0  0  0
 16 25  1  0  0  0  0
 16 23  1  0  0  0  0
 17 19  1  0  0  0  0
 19  5  1  1  0  0  0
 19 21  1  0  0  0  0
 21 14  1  6  0  0  0
 23 14  1  6  0  0  0
 23 29  1  0  0  0  0
 25 26  1  1  0  0  0
 25 27  1  0  0  0  0
 27 18  1  6  0  0  0
 27 28  1  0  0  0  0
 28 20  1  1  0  0  0
 28 29  1  0  0  0  0
 29 11  1  6  0  0  0
 30 22  1  1  0  0  0
 30 31  1  0  0  0  0
 31 24  1  6  0  0  0
M  END
>  <CHROM.1>
-54.15296691,-92.16809779,-48.75900369,44.35759084,66.10171854,-56.88828358
19.20747592,-0.67285210,9.97667991,1.28227065,-0.54051806,2.92477276

>  <Name>
ligand

>  <RI>
0

>  <Rbt.Current_Directory>
/home/itssahil/PROJECTS/Mol_Feturizer/New_Systems/rnas/3DVV

>  <Rbt.Executable>
rbdock ($Id: //depot/dev/client3/rdock/2013.1/src/exe/rbdock.cxx#4 $)

>  <Rbt.Library>
libRbt.so (2013.1, Build901 2013/11/27)

>  <Rbt.Parameter_File>
/export/apps/rDock/src/rDock_2013.1_src/data/scripts/dock_solv.prm

>  <Rbt.Receptor>
prm/blind_docking_80.prm

>  <SCORE>
1.63421

>  <SCORE.INTER>
-1.91528

>  <SCORE.INTER.CONST>
1

>  <SCORE.INTER.POLAR>
0

>  <SCORE.INTER.ROT>
6

>  <SCORE.INTER.SOLV>
26.4486

>  <SCORE.INTER.VDW>
-17.6931

>  <SCORE.INTER.norm>
-0.0617832

>  <SCORE.INTRA>
3.49576

>  <SCORE.INTRA.DIHEDRAL>
-4.62708

>  <SCORE.INTRA.DIHEDRAL.0>
10.8172

>  <SCORE.INTRA.POLAR>
0

>  <SCORE.INTRA.POLAR.0>
0

>  <SCORE.INTRA.REPUL>
0

>  <SCORE.INTRA.REPUL.0>
0

>  <SCORE.INTRA.SOLV>
-1.92283

>  <SCORE.INTRA.SOLV.lig_0>
-80.3833

>  <SCORE.INTRA.VDW>
6.77072

>  <SCORE.INTRA.VDW.0>
-4.63762

>  <SCORE.INTRA.norm>
0.112766

>  <SCORE.RESTR>
0.0537328

>  <SCORE.RESTR.CAVITY>
0.0537328

>  <SCORE.RESTR.norm>
0.00173332

>  <SCORE.SYSTEM>
0

>  <SCORE.SYSTEM.CONST>
0

>  <SCORE.SYSTEM.DIHEDRAL>
0

>  <SCORE.SYSTEM.SOLV>
0

>  <SCORE.SYSTEM.norm>
0

>  <SCORE.heavy>
31

>  <SCORE.norm>
0.0527166

>  <RMSD>
9.691

$$$$
ligand
 OpenBabel11021811473D
libRbt.so/2013.1/901 2013/11/27
 31 33  0  0  0  0  0  0  0  0999 V2000
   22.6621   -3.2803    7.9833 C   0  0  0  0  0  0  0  0  0  0  0  0
   17.6412   -5.4184   11.2903 N   0  0  0  0  0  0  0  0  0  0  0  0
   22.3474   -4.6725    8.0909 O   0  0  0  0  0  0  0  0  0  0  0  0
   21.3772   -2.4484    7.9712 C   0  0  1  0  0  0  0  0  0  0  0  0
   15.6632   -0.9748   10.7949 N   0  0  0  0  0  0  0  0  0  0  0  0
   20.6480   -2.6429    9.1987 O   0  0  0  0  0  0  0  0  0  0  0  0
   20.4022   -1.3566    9.7945 C   0  0  1  0  0  0  0  0  0  0  0  0
   16.1107    1.9935    7.6874 N   0  0  0  0  0  0  0  0  0  0  0  0
   20.4088   -1.4253   11.2292 O   0  0  0  0  0  0  0  0  0  0  0  0
   19.2019   -1.9653   11.7877 C   0  0  2  0  0  0  0  0  0  0  0  0
   18.6439    2.2766   13.7120 N   0  0  0  0  0  0  0  0  0  0  0  0
   20.1283   -4.1973   11.8399 O   0  0  0  0  0  0  0  0  0  0  0  0
   19.0730   -3.4078   11.2845 C   0  0  1  0  0  0  0  0  0  0  0  0
   17.9777    0.1625   12.0217 O   0  0  0  0  0  0  0  0  0  0  0  0
   17.7264   -4.0069   11.6951 C   0  0  1  0  0  0  0  0  0  0  0  0
   18.7985    1.2937   10.1284 O   0  0  0  0  0  0  0  0  0  0  0  0
   16.6011   -3.2048   11.0411 C   0  0  0  0  0  0  0  0  0  0  0  0
   15.8825    3.5131    9.9106 O   0  0  0  0  0  0  0  0  0  0  0  0
   16.6574   -1.7590   11.5432 C   0  0  1  0  0  0  0  0  0  0  0  0
   17.1378    4.3617   12.3538 O   0  0  0  0  0  0  0  0  0  0  0  0
   18.0276   -1.1017   11.3374 C   0  0  2  0  0  0  0  0  0  0  0  0
   21.3715    0.8772    9.4366 O   0  0  0  0  0  0  0  0  0  0  0  0
   18.9227    1.1377   11.5541 C   0  0  1  0  0  0  0  0  0  0  0  0
   20.7643   -0.2260    7.1102 O   0  0  0  0  0  0  0  0  0  0  0  0
   17.5002    1.7329    9.6939 C   0  0  2  0  0  0  0  0  0  0  0  0
   17.4939    1.8464    8.1676 C   0  0  0  0  0  0  0  0  0  0  0  0
   17.1996    3.1080   10.2931 C   0  0  2  0  0  0  0  0  0  0  0  0
   17.2854    3.0419   11.8193 C   0  0  1  0  0  0  0  0  0  0  0  0
   18.6377    2.4708   12.2540 C   0  0  1  0  0  0  0  0  0  0  0  0
   21.6059   -0.5301    9.3468 C   0  0  2  0  0  0  0  0  0  0  0  0
   21.7166   -0.9576    7.8864 C   0  0  1  0  0  0  0  0  0  0  0  0
  1  3  1  0  0  0  0
  4  1  1  1  0  0  0
  4  6  1  0  0  0  0
  4 31  1  0  0  0  0
  6  7  1  0  0  0  0
  7  9  1  1  0  0  0
  7 30  1  0  0  0  0
  8 26  1  0  0  0  0
 10  9  1  6  0  0  0
 10 13  1  0  0  0  0
 10 21  1  0  0  0  0
 13 12  1  1  0  0  0
 13 15  1  0  0  0  0
 15  2  1  6  0  0  0
 15 17  1  0  0  0  0
 16 25  1  0  0  0  0
 16 23  1  0  0  0  0
 17 19  1  0  0  0  0
 19  5  1  6  0  0  0
 19 21  1  0  0  0  0
 21 14  1  1  0  0  0
 23 14  1  1  0  0  0
 23 29  1  0  0  0  0
 25 26  1  6  0  0  0
 25 27  1  0  0  0  0
 27 18  1  1  0  0  0
 27 28  1  0  0  0  0
 28 20  1  1  0  0  0
 28 29  1  0  0  0  0
 29 11  1  1  0  0  0
 30 22  1  6  0  0  0
 30 31  1  0  0  0  0
 31 24  1  6  0  0  0
M  END
>  <CHROM.1>
61.14285332,-77.73457248,62.55442821,52.90541363,77.12579275,167.21881377
18.91854454,-0.50129980,10.31358284,-0.85974979,0.71313239,-0.27139947

>  <Name>
ligand

>  <RI>
0

>  <Rbt.Current_Directory>
/home/itssahil/PROJECTS/Mol_Feturizer/New_Systems/rnas/3DVV

>  <Rbt.Executable>
rbdock ($Id: //depot/dev/client3/rdock/2013.1/src/exe/rbdock.cxx#4 $)

>  <Rbt.Library>
libRbt.so (2013.1, Build901 2013/11/27)

>  <Rbt.Parameter_File>
/export/apps/rDock/src/rDock_2013.1_src/data/scripts/dock_solv.prm

>  <Rbt.Receptor>
prm/blind_docking_60.prm

>  <SCORE>
-5.69893

>  <SCORE.INTER>
-3.70132

>  <SCORE.INTER.CONST>
1

>  <SCORE.INTER.POLAR>
0

>  <SCORE.INTER.ROT>
6

>  <SCORE.INTER.SOLV>
21.9188

>  <SCORE.INTER.VDW>
-17.3738

>  <SCORE.INTER.norm>
-0.119397

>  <SCORE.INTRA>
-2.00049

>  <SCORE.INTRA.DIHEDRAL>
-6.99633

>  <SCORE.INTRA.DIHEDRAL.0>
10.8172

>  <SCORE.INTRA.POLAR>
0

>  <SCORE.INTRA.POLAR.0>
0

>  <SCORE.INTRA.REPUL>
0

>  <SCORE.INTRA.REPUL.0>
0

>  <SCORE.INTRA.SOLV>
-1.44769

>  <SCORE.INTRA.SOLV.lig_0>
-80.3833

>  <SCORE.INTRA.VDW>
2.22152

>  <SCORE.INTRA.VDW.0>
-4.63762

>  <SCORE.INTRA.norm>
-0.0645321

>  <SCORE.RESTR>
0.00288757

>  <SCORE.RESTR.CAVITY>
0.00288757

>  <SCORE.RESTR.norm>
9.31474e-05

>  <SCORE.SYSTEM>
0

>  <SCORE.SYSTEM.CONST>
0

>  <SCORE.SYSTEM.DIHEDRAL>
0

>  <SCORE.SYSTEM.SOLV>
0

>  <SCORE.SYSTEM.norm>
0

>  <SCORE.heavy>
31

>  <SCORE.norm>
-0.183836

>  <RMSD>
9.758

$$$$
ligand
 OpenBabel11021811473D
libRbt.so/2013.1/901 2013/11/27
 31 33  0  0  0  0  0  0  0  0999 V2000
   18.3187    7.3302   19.6513 C   0  0  0  0  0  0  0  0  0  0  0  0
   10.1560    9.1024   17.7260 N   0  0  0  0  0  0  0  0  0  0  0  0
   17.6314    8.5284   19.2760 O   0  0  0  0  0  0  0  0  0  0  0  0
   17.4155    6.1136   19.4335 C   0  0  1  0  0  0  0  0  0  0  0  0
    9.5825    5.2156   20.6357 N   0  0  0  0  0  0  0  0  0  0  0  0
   16.2148    6.2392   20.2204 O   0  0  0  0  0  0  0  0  0  0  0  0
   15.0788    6.1056   19.3478 C   0  0  1  0  0  0  0  0  0  0  0  0
   11.5137    5.9005   24.2532 N   0  0  0  0  0  0  0  0  0  0  0  0
   13.9754    6.9151   19.7839 O   0  0  0  0  0  0  0  0  0  0  0  0
   12.7504    6.6474   19.0855 C   0  0  2  0  0  0  0  0  0  0  0  0
   13.9794    2.3196   19.5035 N   0  0  0  0  0  0  0  0  0  0  0  0
   12.9481    8.6803   17.7929 O   0  0  0  0  0  0  0  0  0  0  0  0
   12.1187    8.0007   18.7392 C   0  0  1  0  0  0  0  0  0  0  0  0
   12.2798    4.4480   20.0966 O   0  0  0  0  0  0  0  0  0  0  0  0
   10.7235    7.8104   18.1406 C   0  0  1  0  0  0  0  0  0  0  0  0
   13.1448    4.6547   22.2754 O   0  0  0  0  0  0  0  0  0  0  0  0
    9.8183    7.1492   19.1803 C   0  0  0  0  0  0  0  0  0  0  0  0
   11.3147    1.7269   23.5226 O   0  0  0  0  0  0  0  0  0  0  0  0
   10.3826    5.7698   19.5331 C   0  0  1  0  0  0  0  0  0  0  0  0
   13.1878    0.5599   21.6802 O   0  0  0  0  0  0  0  0  0  0  0  0
   11.8459    5.8152   19.9895 C   0  0  2  0  0  0  0  0  0  0  0  0
   14.8081    6.2365   16.9049 O   0  0  0  0  0  0  0  0  0  0  0  0
   13.4350    4.2463   20.9258 C   0  0  1  0  0  0  0  0  0  0  0  0
   16.8690    4.6895   17.5025 O   0  0  0  0  0  0  0  0  0  0  0  0
   12.0626    3.9345   22.8898 C   0  0  2  0  0  0  0  0  0  0  0  0
   11.8462    4.4680   24.3079 C   0  0  0  0  0  0  0  0  0  0  0  0
   12.4184    2.4488   22.9695 C   0  0  2  0  0  0  0  0  0  0  0  0
   12.7252    1.9102   21.5706 C   0  0  1  0  0  0  0  0  0  0  0  0
   13.8056    2.7598   20.8963 C   0  0  1  0  0  0  0  0  0  0  0  0
   15.5910    6.6644   18.0219 C   0  0  2  0  0  0  0  0  0  0  0  0
   16.9808    6.0370   17.9672 C   0  0  1  0  0  0  0  0  0  0  0  0
  1  3  1  0  0  0  0
  4  1  1  6  0  0  0
  4  6  1  0  0  0  0
  4 31  1  0  0  0  0
  6  7  1  0  0  0  0
  7  9  1  1  0  0  0
  7 30  1  0  0  0  0
  8 26  1  0  0  0  0
 10  9  1  1  0  0  0
 10 13  1  0  0  0  0
 10 21  1  0  0  0  0
 13 12  1  6  0  0  0
 13 15  1  0  0  0  0
 15  2  1  1  0  0  0
 15 17  1  0  0  0  0
 16 25  1  0  0  0  0
 16 23  1  0  0  0  0
 17 19  1  0  0  0  0
 19  5  1  1  0  0  0
 19 21  1  0  0  0  0
 21 14  1  6  0  0  0
 23 14  1  6  0  0  0
 23 29  1  0  0  0  0
 25 26  1  1  0  0  0
 25 27  1  0  0  0  0
 27 18  1  6  0  0  0
 27 28  1  0  0  0  0
 28 20  1  1  0  0  0
 28 29  1  0  0  0  0
 29 11  1  6  0  0  0
 30 22  1  6  0  0  0
 30 31  1  0  0  0  0
 31 24  1  1  0  0  0
M  END
>  <CHROM.1>
-59.39361804,-169.97340549,-135.72996094,61.86198780,74.85928138,60.07159533
13.42331134,5.42981973,20.11858354,-0.97311881,-0.19605844,2.48413190

>  <Name>
ligand

>  <RI>
0

>  <Rbt.Current_Directory>
/home/itssahil/PROJECTS/Mol_Feturizer/New_Systems/rnas/3DVV

>  <Rbt.Executable>
rbdock ($Id: //depot/dev/client3/rdock/2013.1/src/exe/rbdock.cxx#4 $)

>  <Rbt.Library>
libRbt.so (2013.1, Build901 2013/11/27)

>  <Rbt.Parameter_File>
/export/apps/rDock/src/rDock_2013.1_src/data/scripts/dock_solv.prm

>  <Rbt.Receptor>
prm/pocket_docking_8.prm

>  <SCORE>
-2.81394

>  <SCORE.INTER>
-1.43554

>  <SCORE.INTER.CONST>
1

>  <SCORE.INTER.POLAR>
0

>  <SCORE.INTER.ROT>
6

>  <SCORE.INTER.SOLV>
13.4347

>  <SCORE.INTER.VDW>
-13.0353

>  <SCORE.INTER.norm>
-0.0463078

>  <SCORE.INTRA>
-1.3784

>  <SCORE.INTRA.DIHEDRAL>
-3.0117

>  <SCORE.INTRA.DIHEDRAL.0>
10.8172

>  <SCORE.INTRA.POLAR>
0

>  <SCORE.INTRA.POLAR.0>
0

>  <SCORE.INTRA.REPUL>
0

>  <SCORE.INTRA.REPUL.0>
0

>  <SCORE.INTRA.SOLV>
-1.97219

>  <SCORE.INTRA.SOLV.lig_0>
-80.3833

>  <SCORE.INTRA.VDW>
1.11355

>  <SCORE.INTRA.VDW.0>
-4.63762

>  <SCORE.INTRA.norm>
-0.0444644

>  <SCORE.RESTR>
0

>  <SCORE.RESTR.CAVITY>
0

>  <SCORE.RESTR.norm>
0

>  <SCORE.SYSTEM>
0

>  <SCORE.SYSTEM.CONST>
0

>  <SCORE.SYSTEM.DIHEDRAL>
0

>  <SCORE.SYSTEM.SOLV>
0

>  <SCORE.SYSTEM.norm>
0

>  <SCORE.heavy>
31

>  <SCORE.norm>
-0.0907722

>  <RMSD>
9.795

$$$$
ligand
 OpenBabel11021811473D
libRbt.so/2013.1/901 2013/11/27
 31 33  0  0  0  0  0  0  0  0999 V2000
   23.3720   -2.0779    6.5990 C   0  0  0  0  0  0  0  0  0  0  0  0
   17.2633   -5.9675   11.3654 N   0  0  0  0  0  0  0  0  0  0  0  0
   23.1080   -2.2231    5.1997 O   0  0  0  0  0  0  0  0  0  0  0  0
   22.3747   -1.1000    7.2253 C   0  0  1  0  0  0  0  0  0  0  0  0
   15.7506   -1.3251   11.1139 N   0  0  0  0  0  0  0  0  0  0  0  0
   21.0311   -1.6007    7.0817 O   0  0  0  0  0  0  0  0  0  0  0  0
   20.4184   -1.6489    8.3824 C   0  0  1  0  0  0  0  0  0  0  0  0
   14.9179    1.9786   12.9572 N   0  0  0  0  0  0  0  0  0  0  0  0
   19.4977   -2.7455    8.4960 O   0  0  0  0  0  0  0  0  0  0  0  0
   18.9573   -2.9124    9.8151 C   0  0  2  0  0  0  0  0  0  0  0  0
   20.0590    1.2709    8.9837 N   0  0  0  0  0  0  0  0  0  0  0  0
   19.5348   -5.2594    9.8430 O   0  0  0  0  0  0  0  0  0  0  0  0
   18.4334   -4.3498    9.9140 C   0  0  1  0  0  0  0  0  0  0  0  0
   18.3488   -0.5559   10.2120 O   0  0  0  0  0  0  0  0  0  0  0  0
   17.6867   -4.5652   11.2319 C   0  0  1  0  0  0  0  0  0  0  0  0
   16.4641    0.7950    9.8103 O   0  0  0  0  0  0  0  0  0  0  0  0
   16.4679   -3.6430   11.2736 C   0  0  0  0  0  0  0  0  0  0  0  0
   17.2895    3.1414   12.5101 O   0  0  0  0  0  0  0  0  0  0  0  0
   16.9381   -2.1865   11.2197 C   0  0  1  0  0  0  0  0  0  0  0  0
   19.4096    3.5863   10.6202 O   0  0  0  0  0  0  0  0  0  0  0  0
   17.8443   -1.8889   10.0189 C   0  0  2  0  0  0  0  0  0  0  0  0
   21.3189   -1.5654   10.6715 O   0  0  0  0  0  0  0  0  0  0  0  0
   17.7777    0.4355    9.3438 C   0  0  1  0  0  0  0  0  0  0  0  0
   22.3951    0.3575    9.2080 O   0  0  0  0  0  0  0  0  0  0  0  0
   16.4398    1.3440   11.1389 C   0  0  2  0  0  0  0  0  0  0  0  0
   14.9939    1.6707   11.5202 C   0  0  0  0  0  0  0  0  0  0  0  0
   17.2635    2.6326   11.1739 C   0  0  2  0  0  0  0  0  0  0  0  0
   18.6945    2.3496   10.7123 C   0  0  1  0  0  0  0  0  0  0  0  0
   18.6885    1.6678    9.3415 C   0  0  1  0  0  0  0  0  0  0  0  0
   21.5995   -1.9138    9.3138 C   0  0  2  0  0  0  0  0  0  0  0  0
   22.6417   -0.9663    8.7273 C   0  0  1  0  0  0  0  0  0  0  0  0
  1  3  1  0  0  0  0
  4  1  1  1  0  0  0
  4  6  1  0  0  0  0
  4 31  1  0  0  0  0
  6  7  1  0  0  0  0
  7  9  1  6  0  0  0
  7 30  1  0  0  0  0
  8 26  1  0  0  0  0
 10  9  1  6  0  0  0
 10 13  1  0  0  0  0
 10 21  1  0  0  0  0
 13 12  1  1  0  0  0
 13 15  1  0  0  0  0
 15  2  1  6  0  0  0
 15 17  1  0  0  0  0
 16 25  1  0  0  0  0
 16 23  1  0  0  0  0
 17 19  1  0  0  0  0
 19  5  1  6  0  0  0
 19 21  1  0  0  0  0
 21 14  1  1  0  0  0
 23 14  1  1  0  0  0
 23 29  1  0  0  0  0
 25 26  1  6  0  0  0
 25 27  1  0  0  0  0
 27 18  1  1  0  0  0
 27 28  1  0  0  0  0
 28 20  1  6  0  0  0
 28 29  1  0  0  0  0
 29 11  1  1  0  0  0
 30 22  1  1  0  0  0
 30 31  1  0  0  0  0
 31 24  1  1  0  0  0
M  END
>  <CHROM.1>
61.27717336,174.35165902,-159.82042598,77.33534687,127.59637984,168.83420725
18.97421060,-0.86548637,9.81846414,-0.57112555,0.58286296,0.05570965

>  <Name>
ligand

>  <RI>
0

>  <Rbt.Current_Directory>
/home/itssahil/PROJECTS/Mol_Feturizer/New_Systems/rnas/3DVV

>  <Rbt.Executable>
rbdock ($Id: //depot/dev/client3/rdock/2013.1/src/exe/rbdock.cxx#4 $)

>  <Rbt.Library>
libRbt.so (2013.1, Build901 2013/11/27)

>  <Rbt.Parameter_File>
/export/apps/rDock/src/rDock_2013.1_src/data/scripts/dock_solv.prm

>  <Rbt.Receptor>
prm/blind_docking_100.prm

>  <SCORE>
3.26097

>  <SCORE.INTER>
-1.97538

>  <SCORE.INTER.CONST>
1

>  <SCORE.INTER.POLAR>
0

>  <SCORE.INTER.ROT>
6

>  <SCORE.INTER.SOLV>
20.5549

>  <SCORE.INTER.VDW>
-15.7685

>  <SCORE.INTER.norm>
-0.063722

>  <SCORE.INTRA>
4.72953

>  <SCORE.INTRA.DIHEDRAL>
-0.00533505

>  <SCORE.INTRA.DIHEDRAL.0>
10.8172

>  <SCORE.INTRA.POLAR>
0

>  <SCORE.INTRA.POLAR.0>
0

>  <SCORE.INTRA.REPUL>
0

>  <SCORE.INTRA.REPUL.0>
0

>  <SCORE.INTRA.SOLV>
5.33252

>  <SCORE.INTRA.SOLV.lig_0>
-80.3833

>  <SCORE.INTRA.VDW>
2.06594

>  <SCORE.INTRA.VDW.0>
-4.63762

>  <SCORE.INTRA.norm>
0.152566

>  <SCORE.RESTR>
0.506819

>  <SCORE.RESTR.CAVITY>
0.506819

>  <SCORE.RESTR.norm>
0.016349

>  <SCORE.SYSTEM>
0

>  <SCORE.SYSTEM.CONST>
0

>  <SCORE.SYSTEM.DIHEDRAL>
0

>  <SCORE.SYSTEM.SOLV>
0

>  <SCORE.SYSTEM.norm>
0

>  <SCORE.heavy>
31

>  <SCORE.norm>
0.105193

>  <RMSD>
10.255

$$$$
ligand
 OpenBabel11021811473D
libRbt.so/2013.1/901 2013/11/27
 31 33  0  0  0  0  0  0  0  0999 V2000
    6.2592   -9.4908    4.7610 C   0  0  0  0  0  0  0  0  0  0  0  0
    2.3751   -6.6854    1.5801 N   0  0  0  0  0  0  0  0  0  0  0  0
    4.9255   -9.7907    5.1854 O   0  0  0  0  0  0  0  0  0  0  0  0
    6.7394  -10.5368    3.7518 C   0  0  1  0  0  0  0  0  0  0  0  0
    5.8948   -5.1408   -1.4414 N   0  0  0  0  0  0  0  0  0  0  0  0
    5.9136  -10.5039    2.5713 O   0  0  0  0  0  0  0  0  0  0  0  0
    6.7620  -10.3247    1.4233 C   0  0  1  0  0  0  0  0  0  0  0  0
    9.2903   -2.5416   -1.3730 N   0  0  0  0  0  0  0  0  0  0  0  0
    6.1144   -9.5541    0.3987 O   0  0  0  0  0  0  0  0  0  0  0  0
    5.7897   -8.2151    0.8007 C   0  0  2  0  0  0  0  0  0  0  0  0
    9.3962   -8.5180   -1.9705 N   0  0  0  0  0  0  0  0  0  0  0  0
    3.9251   -8.9808    2.1347 O   0  0  0  0  0  0  0  0  0  0  0  0
    4.2729   -8.1597    1.0165 C   0  0  1  0  0  0  0  0  0  0  0  0
    7.6684   -7.0794   -0.3227 O   0  0  0  0  0  0  0  0  0  0  0  0
    3.8154   -6.7244    1.2841 C   0  0  1  0  0  0  0  0  0  0  0  0
    8.3220   -5.0269   -1.2703 O   0  0  0  0  0  0  0  0  0  0  0  0
    4.1226   -5.8640    0.0583 C   0  0  0  0  0  0  0  0  0  0  0  0
   11.5080   -4.9424    0.5514 O   0  0  0  0  0  0  0  0  0  0  0  0
    5.6355   -5.8502   -0.1794 C   0  0  1  0  0  0  0  0  0  0  0  0
   11.8644   -7.1653   -1.2365 O   0  0  0  0  0  0  0  0  0  0  0  0
    6.2409   -7.2543   -0.2953 C   0  0  2  0  0  0  0  0  0  0  0  0
    9.0933   -9.5832    1.1523 O   0  0  0  0  0  0  0  0  0  0  0  0
    8.1738   -6.4395   -1.5050 C   0  0  1  0  0  0  0  0  0  0  0  0
    8.9413  -11.3988    3.0702 O   0  0  0  0  0  0  0  0  0  0  0  0
    9.2264   -4.6980   -0.2021 C   0  0  2  0  0  0  0  0  0  0  0  0
    9.2856   -3.1767   -0.0455 C   0  0  0  0  0  0  0  0  0  0  0  0
   10.6257   -5.2150   -0.5406 C   0  0  2  0  0  0  0  0  0  0  0  0
   10.5785   -6.7242   -0.7882 C   0  0  1  0  0  0  0  0  0  0  0  0
    9.5316   -7.0580   -1.8543 C   0  0  1  0  0  0  0  0  0  0  0  0
    7.9275   -9.5071    1.9762 C   0  0  2  0  0  0  0  0  0  0  0  0
    8.1688  -10.2185    3.3042 C   0  0  1  0  0  0  0  0  0  0  0  0
  1  3  1  0  0  0  0
  4  1  1  1  0  0  0
  4  6  1  0  0  0  0
  4 31  1  0  0  0  0
  6  7  1  0  0  0  0
  7  9  1  6  0  0  0
  7 30  1  0  0  0  0
  8 26  1  0  0  0  0
 10  9  1  6  0  0  0
 10 13  1  0  0  0  0
 10 21  1  0  0  0  0
 13 12  1  1  0  0  0
 13 15  1  0  0  0  0
 15  2  1  6  0  0  0
 15 17  1  0  0  0  0
 16 25  1  0  0  0  0
 16 23  1  0  0  0  0
 17 19  1  0  0  0  0
 19  5  1  6  0  0  0
 19 21  1  0  0  0  0
 21 14  1  1  0  0  0
 23 14  1  1  0  0  0
 23 29  1  0  0  0  0
 25 26  1  6  0  0  0
 25 27  1  0  0  0  0
 27 18  1  1  0  0  0
 27 28  1  0  0  0  0
 28 20  1  6  0  0  0
 28 29  1  0  0  0  0
 29 11  1  1  0  0  0
 30 22  1  6  0  0  0
 30 31  1  0  0  0  0
 31 24  1  6  0  0  0
M  END
>  <CHROM.1>
62.63859869,62.71173992,-106.30811055,95.11764909,166.46665742,-40.15520755
7.38728844,-7.53216312,0.73680359,-2.19311983,0.17273956,-0.59440378

>  <Name>
ligand

>  <RI>
0

>  <Rbt.Current_Directory>
/home/itssahil/PROJECTS/Mol_Feturizer/New_Systems/rnas/3DVV

>  <Rbt.Executable>
rbdock ($Id: //depot/dev/client3/rdock/2013.1/src/exe/rbdock.cxx#4 $)

>  <Rbt.Library>
libRbt.so (2013.1, Build901 2013/11/27)

>  <Rbt.Parameter_File>
/export/apps/rDock/src/rDock_2013.1_src/data/scripts/dock_solv.prm

>  <Rbt.Receptor>
prm/blind_docking_20.prm

>  <SCORE>
7.06631

>  <SCORE.INTER>
0.516832

>  <SCORE.INTER.CONST>
1

>  <SCORE.INTER.POLAR>
0

>  <SCORE.INTER.ROT>
6

>  <SCORE.INTER.SOLV>
15.5039

>  <SCORE.INTER.VDW>
-12.4234

>  <SCORE.INTER.norm>
0.016672

>  <SCORE.INTRA>
6.2734

>  <SCORE.INTRA.DIHEDRAL>
2.52702

>  <SCORE.INTRA.DIHEDRAL.0>
10.8172

>  <SCORE.INTRA.POLAR>
0

>  <SCORE.INTRA.POLAR.0>
0

>  <SCORE.INTRA.REPUL>
0

>  <SCORE.INTRA.REPUL.0>
0

>  <SCORE.INTRA.SOLV>
1.66282

>  <SCORE.INTRA.SOLV.lig_0>
-80.3833

>  <SCORE.INTRA.VDW>
4.17848

>  <SCORE.INTRA.VDW.0>
-4.63762

>  <SCORE.INTRA.norm>
0.202368

>  <SCORE.RESTR>
0.27608

>  <SCORE.RESTR.CAVITY>
0.27608

>  <SCORE.RESTR.norm>
0.0089058

>  <SCORE.SYSTEM>
0

>  <SCORE.SYSTEM.CONST>
0

>  <SCORE.SYSTEM.DIHEDRAL>
0

>  <SCORE.SYSTEM.SOLV>
0

>  <SCORE.SYSTEM.norm>
0

>  <SCORE.heavy>
31

>  <SCORE.norm>
0.227946

>  <RMSD>
23.643

$$$$
ligand
 OpenBabel11021811473D
libRbt.so/2013.1/901 2013/11/27
 31 33  0  0  0  0  0  0  0  0999 V2000
    5.0379   -4.4824   -1.5387 C   0  0  0  0  0  0  0  0  0  0  0  0
   10.0659   -6.4868   -1.3494 N   0  0  0  0  0  0  0  0  0  0  0  0
    3.8871   -4.0102   -2.2469 O   0  0  0  0  0  0  0  0  0  0  0  0
    4.6558   -5.6575   -0.6352 C   0  0  1  0  0  0  0  0  0  0  0  0
    7.6789  -10.3221    0.5205 N   0  0  0  0  0  0  0  0  0  0  0  0
    5.8258   -6.1747    0.0283 O   0  0  0  0  0  0  0  0  0  0  0  0
    5.5842   -6.1789    1.4466 C   0  0  1  0  0  0  0  0  0  0  0  0
    9.0990  -11.8137    5.6216 N   0  0  0  0  0  0  0  0  0  0  0  0
    6.7861   -5.9263    2.1913 O   0  0  0  0  0  0  0  0  0  0  0  0
    7.8978   -6.7395    1.7879 C   0  0  2  0  0  0  0  0  0  0  0  0
    4.4708   -8.8088    2.2922 N   0  0  0  0  0  0  0  0  0  0  0  0
    8.9719   -4.8712    0.6931 O   0  0  0  0  0  0  0  0  0  0  0  0
    8.4210   -6.1710    0.4637 C   0  0  1  0  0  0  0  0  0  0  0  0
    7.1909   -8.8230    2.9017 O   0  0  0  0  0  0  0  0  0  0  0  0
    9.5018   -7.0788   -0.1268 C   0  0  1  0  0  0  0  0  0  0  0  0
    7.0855  -11.0152    3.7509 O   0  0  0  0  0  0  0  0  0  0  0  0
    8.8921   -8.4457   -0.4388 C   0  0  0  0  0  0  0  0  0  0  0  0
    5.5109   -9.9628    6.8956 O   0  0  0  0  0  0  0  0  0  0  0  0
    8.3888   -9.0799    0.8613 C   0  0  1  0  0  0  0  0  0  0  0  0
    3.4638   -9.4148    4.9529 O   0  0  0  0  0  0  0  0  0  0  0  0
    7.4181   -8.1798    1.6353 C   0  0  2  0  0  0  0  0  0  0  0  0
    3.9164   -5.0650    2.8733 O   0  0  0  0  0  0  0  0  0  0  0  0
    6.5032  -10.0814    2.8228 C   0  0  1  0  0  0  0  0  0  0  0  0
    2.7225   -6.1825    0.7940 O   0  0  0  0  0  0  0  0  0  0  0  0
    7.0264  -10.5958    5.1249 C   0  0  2  0  0  0  0  0  0  0  0  0
    7.6859  -11.6616    6.0034 C   0  0  0  0  0  0  0  0  0  0  0  0
    5.5648  -10.4408    5.5489 C   0  0  2  0  0  0  0  0  0  0  0  0
    4.8579   -9.4431    4.6292 C   0  0  1  0  0  0  0  0  0  0  0  0
    5.0267   -9.8549    3.1643 C   0  0  1  0  0  0  0  0  0  0  0  0
    4.6393   -4.9950    1.6420 C   0  0  2  0  0  0  0  0  0  0  0  0
    3.6940   -5.1880    0.4600 C   0  0  1  0  0  0  0  0  0  0  0  0
  1  3  1  0  0  0  0
  4  1  1  6  0  0  0
  4  6  1  0  0  0  0
  4 31  1  0  0  0  0
  6  7  1  0  0  0  0
  7  9  1  1  0  0  0
  7 30  1  0  0  0  0
  8 26  1  0  0  0  0
 10  9  1  6  0  0  0
 10 13  1  0  0  0  0
 10 21  1  0  0  0  0
 13 12  1  1  0  0  0
 13 15  1  0  0  0  0
 15  2  1  6  0  0  0
 15 17  1  0  0  0  0
 16 25  1  0  0  0  0
 16 23  1  0  0  0  0
 17 19  1  0  0  0  0
 19  5  1  6  0  0  0
 19 21  1  0  0  0  0
 21 14  1  1  0  0  0
 23 14  1  1  0  0  0
 23 29  1  0  0  0  0
 25 26  1  1  0  0  0
 25 27  1  0  0  0  0
 27 18  1  1  0  0  0
 27 28  1  0  0  0  0
 28 20  1  1  0  0  0
 28 29  1  0  0  0  0
 29 11  1  6  0  0  0
 30 22  1  1  0  0  0
 30 31  1  0  0  0  0
 31 24  1  1  0  0  0
M  END
>  <CHROM.1>
177.21282201,-49.29232941,75.64400024,139.71881806,168.75972222,61.24666202
6.33241866,-7.81227932,2.03537579,1.68573199,0.36169197,-0.83066095

>  <Name>
ligand

>  <RI>
0

>  <Rbt.Current_Directory>
/home/itssahil/PROJECTS/Mol_Feturizer/New_Systems/rnas/3DVV

>  <Rbt.Executable>
rbdock ($Id: //depot/dev/client3/rdock/2013.1/src/exe/rbdock.cxx#4 $)

>  <Rbt.Library>
libRbt.so (2013.1, Build901 2013/11/27)

>  <Rbt.Parameter_File>
/export/apps/rDock/src/rDock_2013.1_src/data/scripts/dock_solv.prm

>  <Rbt.Receptor>
prm/blind_docking_20.prm

>  <SCORE>
1.15818

>  <SCORE.INTER>
-4.16074

>  <SCORE.INTER.CONST>
1

>  <SCORE.INTER.POLAR>
0

>  <SCORE.INTER.ROT>
6

>  <SCORE.INTER.SOLV>
15.7691

>  <SCORE.INTER.VDW>
-15.6302

>  <SCORE.INTER.norm>
-0.134217

>  <SCORE.INTRA>
4.96551

>  <SCORE.INTRA.DIHEDRAL>
-2.80948

>  <SCORE.INTRA.DIHEDRAL.0>
10.8172

>  <SCORE.INTRA.POLAR>
0

>  <SCORE.INTRA.POLAR.0>
0

>  <SCORE.INTRA.REPUL>
0

>  <SCORE.INTRA.REPUL.0>
0

>  <SCORE.INTRA.SOLV>
1.61225

>  <SCORE.INTRA.SOLV.lig_0>
-80.3833

>  <SCORE.INTRA.VDW>
5.56413

>  <SCORE.INTRA.VDW.0>
-4.63762

>  <SCORE.INTRA.norm>
0.160178

>  <SCORE.RESTR>
0.353406

>  <SCORE.RESTR.CAVITY>
0.353406

>  <SCORE.RESTR.norm>
0.0114002

>  <SCORE.SYSTEM>
0

>  <SCORE.SYSTEM.CONST>
0

>  <SCORE.SYSTEM.DIHEDRAL>
0

>  <SCORE.SYSTEM.SOLV>
0

>  <SCORE.SYSTEM.norm>
0

>  <SCORE.heavy>
31

>  <SCORE.norm>
0.0373606

>  <RMSD>
23.669

$$$$
ligand
 OpenBabel11021811473D
libRbt.so/2013.1/901 2013/11/27
 31 33  0  0  0  0  0  0  0  0999 V2000
    2.1961   -8.0918    1.1850 C   0  0  0  0  0  0  0  0  0  0  0  0
   10.1282   -7.0780   -0.6075 N   0  0  0  0  0  0  0  0  0  0  0  0
    1.1060   -8.6564    0.4490 O   0  0  0  0  0  0  0  0  0  0  0  0
    3.4558   -8.0538    0.3160 C   0  0  1  0  0  0  0  0  0  0  0  0
    9.4417  -11.7617    0.6154 N   0  0  0  0  0  0  0  0  0  0  0  0
    4.5592   -7.5072    1.0644 O   0  0  0  0  0  0  0  0  0  0  0  0
    5.6513   -8.4427    1.0201 C   0  0  1  0  0  0  0  0  0  0  0  0
    4.7200   -9.1646    5.4669 N   0  0  0  0  0  0  0  0  0  0  0  0
    6.4210   -8.4192    2.2325 O   0  0  0  0  0  0  0  0  0  0  0  0
    7.8278   -8.6170    2.0281 C   0  0  2  0  0  0  0  0  0  0  0  0
   10.2619  -12.1439    3.8847 N   0  0  0  0  0  0  0  0  0  0  0  0
    8.1139   -6.3518    1.2347 O   0  0  0  0  0  0  0  0  0  0  0  0
    8.2474   -7.7240    0.8547 C   0  0  1  0  0  0  0  0  0  0  0  0
    7.9579  -10.9181    2.9050 O   0  0  0  0  0  0  0  0  0  0  0  0
    9.6995   -7.9975    0.4575 C   0  0  1  0  0  0  0  0  0  0  0  0
    7.5593   -9.8207    4.9482 O   0  0  0  0  0  0  0  0  0  0  0  0
    9.8247   -9.4453   -0.0175 C   0  0  0  0  0  0  0  0  0  0  0  0
    6.2855  -12.8493    6.5856 O   0  0  0  0  0  0  0  0  0  0  0  0
    9.4558  -10.3854    1.1339 C   0  0  1  0  0  0  0  0  0  0  0  0
    9.0607  -13.4766    6.1741 O   0  0  0  0  0  0  0  0  0  0  0  0
    8.0744  -10.0933    1.7324 C   0  0  2  0  0  0  0  0  0  0  0  0
    5.8029  -10.8262    0.4253 O   0  0  0  0  0  0  0  0  0  0  0  0
    8.5696  -10.3755    4.0857 C   0  0  1  0  0  0  0  0  0  0  0  0
    4.4109   -9.5253   -1.4098 O   0  0  0  0  0  0  0  0  0  0  0  0
    6.5748  -10.7706    5.3906 C   0  0  2  0  0  0  0  0  0  0  0  0
    5.5564  -10.0583    6.2839 C   0  0  0  0  0  0  0  0  0  0  0  0
    7.2577  -11.8734    6.2014 C   0  0  2  0  0  0  0  0  0  0  0  0
    8.3429  -12.5453    5.3577 C   0  0  1  0  0  0  0  0  0  0  0  0
    9.3178  -11.4994    4.8104 C   0  0  1  0  0  0  0  0  0  0  0  0
    4.9475   -9.7947    0.9231 C   0  0  2  0  0  0  0  0  0  0  0  0
    3.8556   -9.4743   -0.0932 C   0  0  1  0  0  0  0  0  0  0  0  0
  1  3  1  0  0  0  0
  4  1  1  1  0  0  0
  4  6  1  0  0  0  0
  4 31  1  0  0  0  0
  6  7  1  0  0  0  0
  7  9  1  1  0  0  0
  7 30  1  0  0  0  0
  8 26  1  0  0  0  0
 10  9  1  6  0  0  0
 10 13  1  0  0  0  0
 10 21  1  0  0  0  0
 13 12  1  1  0  0  0
 13 15  1  0  0  0  0
 15  2  1  6  0  0  0
 15 17  1  0  0  0  0
 16 25  1  0  0  0  0
 16 23  1  0  0  0  0
 17 19  1  0  0  0  0
 19  5  1  6  0  0  0
 19 21  1  0  0  0  0
 21 14  1  1  0  0  0
 23 14  1  6  0  0  0
 23 29  1  0  0  0  0
 25 26  1  1  0  0  0
 25 27  1  0  0  0  0
 27 18  1  6  0  0  0
 27 28  1  0  0  0  0
 28 20  1  1  0  0  0
 28 29  1  0  0  0  0
 29 11  1  6  0  0  0
 30 22  1  6  0  0  0
 30 31  1  0  0  0  0
 31 24  1  6  0  0  0
M  END
>  <CHROM.1>
-178.99272589,-144.12409565,45.78440632,102.30904671,-42.62254015,70.75704674
6.87935571,-9.79863546,2.44076048,2.12108297,0.12342003,-1.03328270

>  <Name>
ligand

>  <RI>
0

>  <Rbt.Current_Directory>
/home/itssahil/PROJECTS/Mol_Feturizer/New_Systems/rnas/3DVV

>  <Rbt.Executable>
rbdock ($Id: //depot/dev/client3/rdock/2013.1/src/exe/rbdock.cxx#4 $)

>  <Rbt.Library>
libRbt.so (2013.1, Build901 2013/11/27)

>  <Rbt.Parameter_File>
/export/apps/rDock/src/rDock_2013.1_src/data/scripts/dock_solv.prm

>  <Rbt.Receptor>
prm/blind_docking_20.prm

>  <SCORE>
3.55768

>  <SCORE.INTER>
-1.88734

>  <SCORE.INTER.CONST>
1

>  <SCORE.INTER.POLAR>
0

>  <SCORE.INTER.ROT>
6

>  <SCORE.INTER.SOLV>
21.0047

>  <SCORE.INTER.VDW>
-15.8598

>  <SCORE.INTER.norm>
-0.0608818

>  <SCORE.INTRA>
4.90888

>  <SCORE.INTRA.DIHEDRAL>
2.41937

>  <SCORE.INTRA.DIHEDRAL.0>
10.8172

>  <SCORE.INTRA.POLAR>
0

>  <SCORE.INTRA.POLAR.0>
0

>  <SCORE.INTRA.REPUL>
0

>  <SCORE.INTRA.REPUL.0>
0

>  <SCORE.INTRA.SOLV>
-1.1305

>  <SCORE.INTRA.SOLV.lig_0>
-80.3833

>  <SCORE.INTRA.VDW>
4.26445

>  <SCORE.INTRA.VDW.0>
-4.63762

>  <SCORE.INTRA.norm>
0.158351

>  <SCORE.RESTR>
0.536132

>  <SCORE.RESTR.CAVITY>
0.536132

>  <SCORE.RESTR.norm>
0.0172946

>  <SCORE.SYSTEM>
0

>  <SCORE.SYSTEM.CONST>
0

>  <SCORE.SYSTEM.DIHEDRAL>
0

>  <SCORE.SYSTEM.SOLV>
0

>  <SCORE.SYSTEM.norm>
0

>  <SCORE.heavy>
31

>  <SCORE.norm>
0.114764

>  <RMSD>
24.257

$$$$
ligand
 OpenBabel11021811473D
libRbt.so/2013.1/901 2013/11/27
 31 33  0  0  0  0  0  0  0  0999 V2000
    5.9108  -12.0005   -2.0658 C   0  0  0  0  0  0  0  0  0  0  0  0
    7.3302  -10.7658    6.3661 N   0  0  0  0  0  0  0  0  0  0  0  0
    6.7829  -12.9780   -1.4889 O   0  0  0  0  0  0  0  0  0  0  0  0
    6.3314  -10.5950   -1.6289 C   0  0  1  0  0  0  0  0  0  0  0  0
    3.7026   -9.3226    3.4231 N   0  0  0  0  0  0  0  0  0  0  0  0
    6.2966  -10.4903   -0.1921 O   0  0  0  0  0  0  0  0  0  0  0  0
    7.5828  -10.0365    0.2657 C   0  0  1  0  0  0  0  0  0  0  0  0
   10.2739   -7.2274   -0.1006 N   0  0  0  0  0  0  0  0  0  0  0  0
    7.9183  -10.5941    1.5461 O   0  0  0  0  0  0  0  0  0  0  0  0
    7.3934   -9.8506    2.6559 C   0  0  2  0  0  0  0  0  0  0  0  0
    3.8026   -6.7208    0.5683 N   0  0  0  0  0  0  0  0  0  0  0  0
    9.0788  -10.7314    4.1480 O   0  0  0  0  0  0  0  0  0  0  0  0
    7.6678  -10.6691    3.9229 C   0  0  1  0  0  0  0  0  0  0  0  0
    5.6287   -8.6441    1.4267 O   0  0  0  0  0  0  0  0  0  0  0  0
    6.9918  -10.0307    5.1379 C   0  0  1  0  0  0  0  0  0  0  0  0
    7.2254   -7.0111    1.9941 O   0  0  0  0  0  0  0  0  0  0  0  0
    5.4776  -10.0312    4.9264 C   0  0  0  0  0  0  0  0  0  0  0  0
    8.1893   -6.4161   -1.4978 O   0  0  0  0  0  0  0  0  0  0  0  0
    5.1425   -9.1893    3.6918 C   0  0  1  0  0  0  0  0  0  0  0  0
    5.4927   -5.4231   -1.4117 O   0  0  0  0  0  0  0  0  0  0  0  0
    5.8995   -9.6340    2.4345 C   0  0  2  0  0  0  0  0  0  0  0  0
    9.8047   -9.9345   -0.7881 O   0  0  0  0  0  0  0  0  0  0  0  0
    5.8194   -7.2853    1.8510 C   0  0  1  0  0  0  0  0  0  0  0  0
    7.9800   -8.9548   -2.4338 O   0  0  0  0  0  0  0  0  0  0  0  0
    7.9850   -7.1783    0.7849 C   0  0  2  0  0  0  0  0  0  0  0  0
    9.4571   -6.8720    1.0708 C   0  0  0  0  0  0  0  0  0  0  0  0
    7.4745   -6.2032   -0.2776 C   0  0  2  0  0  0  0  0  0  0  0  0
    5.9810   -6.4308   -0.5198 C   0  0  1  0  0  0  0  0  0  0  0  0
    5.2081   -6.3534    0.7995 C   0  0  1  0  0  0  0  0  0  0  0  0
    8.5438  -10.6080   -0.7747 C   0  0  2  0  0  0  0  0  0  0  0  0
    7.7746  -10.3197   -2.0605 C   0  0  1  0  0  0  0  0  0  0  0  0
  1  3  1  0  0  0  0
  4  1  1  1  0  0  0
  4  6  1  0  0  0  0
  4 31  1  0  0  0  0
  6  7  1  0  0  0  0
  7  9  1  1  0  0  0
  7 30  1  0  0  0  0
  8 26  1  0  0  0  0
 10  9  1  6  0  0  0
 10 13  1  0  0  0  0
 10 21  1  0  0  0  0
 13 12  1  1  0  0  0
 13 15  1  0  0  0  0
 15  2  1  1  0  0  0
 15 17  1  0  0  0  0
 16 25  1  0  0  0  0
 16 23  1  0  0  0  0
 17 19  1  0  0  0  0
 19  5  1  6  0  0  0
 19 21  1  0  0  0  0
 21 14  1  6  0  0  0
 23 14  1  6  0  0  0
 23 29  1  0  0  0  0
 25 26  1  1  0  0  0
 25 27  1  0  0  0  0
 27 18  1  6  0  0  0
 27 28  1  0  0  0  0
 28 20  1  6  0  0  0
 28 29  1  0  0  0  0
 29 11  1  6  0  0  0
 30 22  1  6  0  0  0
 30 31  1  0  0  0  0
 31 24  1  1  0  0  0
M  END
>  <CHROM.1>
-58.81111229,-85.50712931,172.31883102,71.95188092,-76.23758511,171.76505105
6.99773768,-8.99318921,0.98015124,-1.18895959,-1.19613041,2.24049355

>  <Name>
ligand

>  <RI>
0

>  <Rbt.Current_Directory>
/home/itssahil/PROJECTS/Mol_Feturizer/New_Systems/rnas/3DVV

>  <Rbt.Executable>
rbdock ($Id: //depot/dev/client3/rdock/2013.1/src/exe/rbdock.cxx#4 $)

>  <Rbt.Library>
libRbt.so (2013.1, Build901 2013/11/27)

>  <Rbt.Parameter_File>
/export/apps/rDock/src/rDock_2013.1_src/data/scripts/dock_solv.prm

>  <Rbt.Receptor>
prm/blind_docking_20.prm

>  <SCORE>
-0.881392

>  <SCORE.INTER>
-2.96565

>  <SCORE.INTER.CONST>
1

>  <SCORE.INTER.POLAR>
0

>  <SCORE.INTER.ROT>
6

>  <SCORE.INTER.SOLV>
12.6635

>  <SCORE.INTER.VDW>
-13.7983

>  <SCORE.INTER.norm>
-0.0956662

>  <SCORE.INTRA>
2.08426

>  <SCORE.INTRA.DIHEDRAL>
-5.49755

>  <SCORE.INTRA.DIHEDRAL.0>
10.8172

>  <SCORE.INTRA.POLAR>
0

>  <SCORE.INTRA.POLAR.0>
0

>  <SCORE.INTRA.REPUL>
0

>  <SCORE.INTRA.REPUL.0>
0

>  <SCORE.INTRA.SOLV>
2.42185

>  <SCORE.INTRA.SOLV.lig_0>
-80.3833

>  <SCORE.INTRA.VDW>
3.62211

>  <SCORE.INTRA.VDW.0>
-4.63762

>  <SCORE.INTRA.norm>
0.0672343

>  <SCORE.RESTR>
0

>  <SCORE.RESTR.CAVITY>
0

>  <SCORE.RESTR.norm>
0

>  <SCORE.SYSTEM>
0

>  <SCORE.SYSTEM.CONST>
0

>  <SCORE.SYSTEM.DIHEDRAL>
0

>  <SCORE.SYSTEM.SOLV>
0

>  <SCORE.SYSTEM.norm>
0

>  <SCORE.heavy>
31

>  <SCORE.norm>
-0.028432

>  <RMSD>
24.617

$$$$
ligand
 OpenBabel11021811473D
libRbt.so/2013.1/901 2013/11/27
 31 33  0  0  0  0  0  0  0  0999 V2000
    9.9219   -5.1076    1.9934 C   0  0  0  0  0  0  0  0  0  0  0  0
    8.1109  -10.2793   -4.5427 N   0  0  0  0  0  0  0  0  0  0  0  0
   10.2301   -3.7302    2.2315 O   0  0  0  0  0  0  0  0  0  0  0  0
    9.8667   -5.3833    0.4887 C   0  0  1  0  0  0  0  0  0  0  0  0
    6.2555  -12.5388   -0.6241 N   0  0  0  0  0  0  0  0  0  0  0  0
    9.5286   -6.7634    0.2488 O   0  0  0  0  0  0  0  0  0  0  0  0
    8.3803   -6.8102   -0.6167 C   0  0  1  0  0  0  0  0  0  0  0  0
    3.2998   -8.6926    2.9945 N   0  0  0  0  0  0  0  0  0  0  0  0
    7.5396   -7.9374   -0.3241 O   0  0  0  0  0  0  0  0  0  0  0  0
    8.0104   -9.1712   -0.8864 C   0  0  2  0  0  0  0  0  0  0  0  0
    9.0067  -10.4882    3.4162 N   0  0  0  0  0  0  0  0  0  0  0  0
    8.7433   -8.0651   -2.9068 O   0  0  0  0  0  0  0  0  0  0  0  0
    7.8533   -9.0674   -2.4079 C   0  0  1  0  0  0  0  0  0  0  0  0
    7.5288  -10.6123    1.0559 O   0  0  0  0  0  0  0  0  0  0  0  0
    8.1742  -10.4046   -3.0786 C   0  0  1  0  0  0  0  0  0  0  0  0
    5.8293   -9.2436    1.9372 O   0  0  0  0  0  0  0  0  0  0  0  0
    7.1756  -11.4580   -2.5985 C   0  0  0  0  0  0  0  0  0  0  0  0
    4.4049  -11.9407    3.9799 O   0  0  0  0  0  0  0  0  0  0  0  0
    7.3191  -11.6329   -1.0838 C   0  0  1  0  0  0  0  0  0  0  0  0
    6.9592  -11.4936    5.2210 O   0  0  0  0  0  0  0  0  0  0  0  0
    7.1842  -10.3165   -0.3089 C   0  0  2  0  0  0  0  0  0  0  0  0
    6.6967   -5.1385   -1.2716 O   0  0  0  0  0  0  0  0  0  0  0  0
    7.2316   -9.5646    1.9923 C   0  0  1  0  0  0  0  0  0  0  0  0
    9.1227   -4.1041   -1.4774 O   0  0  0  0  0  0  0  0  0  0  0  0
    4.9595  -10.3432    2.2555 C   0  0  2  0  0  0  0  0  0  0  0  0
    3.5049   -9.8793    2.1487 C   0  0  0  0  0  0  0  0  0  0  0  0
    5.2265  -10.8070    3.6886 C   0  0  2  0  0  0  0  0  0  0  0  0
    6.6982  -11.1951    3.8455 C   0  0  1  0  0  0  0  0  0  0  0  0
    7.6044  -10.0447    3.3990 C   0  0  1  0  0  0  0  0  0  0  0  0
    7.6198   -5.5361   -0.2551 C   0  0  2  0  0  0  0  0  0  0  0  0
    8.7688   -4.5365   -0.1613 C   0  0  1  0  0  0  0  0  0  0  0  0
  1  3  1  0  0  0  0
  4  1  1  1  0  0  0
  4  6  1  0  0  0  0
  4 31  1  0  0  0  0
  6  7  1  0  0  0  0
  7  9  1  1  0  0  0
  7 30  1  0  0  0  0
  8 26  1  0  0  0  0
 10  9  1  1  0  0  0
 10 13  1  0  0  0  0
 10 21  1  0  0  0  0
 13 12  1  6  0  0  0
 13 15  1  0  0  0  0
 15  2  1  6  0  0  0
 15 17  1  0  0  0  0
 16 25  1  0  0  0  0
 16 23  1  0  0  0  0
 17 19  1  0  0  0  0
 19  5  1  1  0  0  0
 19 21  1  0  0  0  0
 21 14  1  1  0  0  0
 23 14  1  6  0  0  0
 23 29  1  0  0  0  0
 25 26  1  1  0  0  0
 25 27  1  0  0  0  0
 27 18  1  6  0  0  0
 27 28  1  0  0  0  0
 28 20  1  1  0  0  0
 28 29  1  0  0  0  0
 29 11  1  6  0  0  0
 30 22  1  6  0  0  0
 30 31  1  0  0  0  0
 31 24  1  6  0  0  0
M  END
>  <CHROM.1>
-178.79039150,-80.03073490,-68.87159305,57.59067498,65.35925558,-54.58249685
7.38820675,-8.73943304,0.60774974,-0.10326184,1.10263078,1.09037174

>  <Name>
ligand

>  <RI>
0

>  <Rbt.Current_Directory>
/home/itssahil/PROJECTS/Mol_Feturizer/New_Systems/rnas/3DVV

>  <Rbt.Executable>
rbdock ($Id: //depot/dev/client3/rdock/2013.1/src/exe/rbdock.cxx#4 $)

>  <Rbt.Library>
libRbt.so (2013.1, Build901 2013/11/27)

>  <Rbt.Parameter_File>
/export/apps/rDock/src/rDock_2013.1_src/data/scripts/dock_solv.prm

>  <Rbt.Receptor>
prm/blind_docking_20.prm

>  <SCORE>
-1.92614

>  <SCORE.INTER>
-0.134222

>  <SCORE.INTER.CONST>
1

>  <SCORE.INTER.POLAR>
0

>  <SCORE.INTER.ROT>
6

>  <SCORE.INTER.SOLV>
11.6638

>  <SCORE.INTER.VDW>
-11.5774

>  <SCORE.INTER.norm>
-0.00432973

>  <SCORE.INTRA>
-2.40427

>  <SCORE.INTRA.DIHEDRAL>
-8.15865

>  <SCORE.INTRA.DIHEDRAL.0>
10.8172

>  <SCORE.INTRA.POLAR>
0

>  <SCORE.INTRA.POLAR.0>
0

>  <SCORE.INTRA.REPUL>
0

>  <SCORE.INTRA.REPUL.0>
0

>  <SCORE.INTRA.SOLV>
-2.87982

>  <SCORE.INTRA.SOLV.lig_0>
-80.3833

>  <SCORE.INTRA.VDW>
3.11497

>  <SCORE.INTRA.VDW.0>
-4.63762

>  <SCORE.INTRA.norm>
-0.0775571

>  <SCORE.RESTR>
0.612346

>  <SCORE.RESTR.CAVITY>
0.612346

>  <SCORE.RESTR.norm>
0.0197531

>  <SCORE.SYSTEM>
0

>  <SCORE.SYSTEM.CONST>
0

>  <SCORE.SYSTEM.DIHEDRAL>
0

>  <SCORE.SYSTEM.SOLV>
0

>  <SCORE.SYSTEM.norm>
0

>  <SCORE.heavy>
31

>  <SCORE.norm>
-0.0621337

>  <RMSD>
24.634

$$$$
ligand
 OpenBabel11021811473D
libRbt.so/2013.1/901 2013/11/27
 31 33  0  0  0  0  0  0  0  0999 V2000
    7.1008  -10.1111    3.9202 C   0  0  0  0  0  0  0  0  0  0  0  0
    1.3962   -5.2373    1.4839 N   0  0  0  0  0  0  0  0  0  0  0  0
    7.8355   -9.9888    2.6978 O   0  0  0  0  0  0  0  0  0  0  0  0
    5.5996  -10.1798    3.6288 C   0  0  1  0  0  0  0  0  0  0  0  0
    5.1236   -4.3372   -1.5492 N   0  0  0  0  0  0  0  0  0  0  0  0
    5.1908   -9.0343    2.8560 O   0  0  0  0  0  0  0  0  0  0  0  0
    4.5242   -9.4971    1.6680 C   0  0  1  0  0  0  0  0  0  0  0  0
   10.9184   -5.1927   -0.0878 N   0  0  0  0  0  0  0  0  0  0  0  0
    4.7559   -8.6217    0.5532 O   0  0  0  0  0  0  0  0  0  0  0  0
    4.5987   -7.2303    0.8682 C   0  0  2  0  0  0  0  0  0  0  0  0
    5.6260   -8.2822   -2.0920 N   0  0  0  0  0  0  0  0  0  0  0  0
    2.6342   -7.6714    2.2058 O   0  0  0  0  0  0  0  0  0  0  0  0
    3.0984   -6.9709    1.0485 C   0  0  1  0  0  0  0  0  0  0  0  0
    6.6213   -6.4117   -0.2807 O   0  0  0  0  0  0  0  0  0  0  0  0
    2.8236   -5.4758    1.2211 C   0  0  1  0  0  0  0  0  0  0  0  0
    8.6140   -6.1471   -1.5043 O   0  0  0  0  0  0  0  0  0  0  0  0
    3.2540   -4.7378   -0.0468 C   0  0  0  0  0  0  0  0  0  0  0  0
   10.0286   -9.3206   -0.3193 O   0  0  0  0  0  0  0  0  0  0  0  0
    4.7594   -4.9295   -0.2531 C   0  0  1  0  0  0  0  0  0  0  0  0
    7.8217  -10.1844   -1.9465 O   0  0  0  0  0  0  0  0  0  0  0  0
    5.1829   -6.4032   -0.2730 C   0  0  2  0  0  0  0  0  0  0  0  0
    4.4336  -11.6775    0.5297 O   0  0  0  0  0  0  0  0  0  0  0  0
    7.2158   -6.4800   -1.5863 C   0  0  1  0  0  0  0  0  0  0  0  0
    4.0178  -11.9956    3.1227 O   0  0  0  0  0  0  0  0  0  0  0  0
    9.3790   -7.0187   -0.6543 C   0  0  2  0  0  0  0  0  0  0  0  0
   10.8371   -6.5538   -0.6414 C   0  0  0  0  0  0  0  0  0  0  0  0
    9.3200   -8.4460   -1.2014 C   0  0  2  0  0  0  0  0  0  0  0  0
    7.8641   -8.9046   -1.3066 C   0  0  1  0  0  0  0  0  0  0  0  0
    7.0469   -7.9035   -2.1276 C   0  0  1  0  0  0  0  0  0  0  0  0
    5.2093  -10.8319    1.3822 C   0  0  2  0  0  0  0  0  0  0  0  0
    5.2831  -11.4200    2.7882 C   0  0  1  0  0  0  0  0  0  0  0  0
  1  3  1  0  0  0  0
  4  1  1  6  0  0  0
  4  6  1  0  0  0  0
  4 31  1  0  0  0  0
  6  7  1  0  0  0  0
  7  9  1  6  0  0  0
  7 30  1  0  0  0  0
  8 26  1  0  0  0  0
 10  9  1  6  0  0  0
 10 13  1  0  0  0  0
 10 21  1  0  0  0  0
 13 12  1  1  0  0  0
 13 15  1  0  0  0  0
 15  2  1  6  0  0  0
 15 17  1  0  0  0  0
 16 25  1  0  0  0  0
 16 23  1  0  0  0  0
 17 19  1  0  0  0  0
 19  5  1  6  0  0  0
 19 21  1  0  0  0  0
 21 14  1  1  0  0  0
 23 14  1  1  0  0  0
 23 29  1  0  0  0  0
 25 26  1  6  0  0  0
 25 27  1  0  0  0  0
 27 18  1  1  0  0  0
 27 28  1  0  0  0  0
 28 20  1  6  0  0  0
 28 29  1  0  0  0  0
 29 11  1  1  0  0  0
 30 22  1  6  0  0  0
 30 31  1  0  0  0  0
 31 24  1  1  0  0  0
M  END
>  <CHROM.1>
-55.49811830,-45.92589115,-72.30449326,165.62436035,141.03312449,61.88249221
6.08093859,-8.02503886,0.47289742,-2.58024926,0.34323113,-0.50040152

>  <Name>
ligand

>  <RI>
0

>  <Rbt.Current_Directory>
/home/itssahil/PROJECTS/Mol_Feturizer/New_Systems/rnas/3DVV

>  <Rbt.Executable>
rbdock ($Id: //depot/dev/client3/rdock/2013.1/src/exe/rbdock.cxx#4 $)

>  <Rbt.Library>
libRbt.so (2013.1, Build901 2013/11/27)

>  <Rbt.Parameter_File>
/export/apps/rDock/src/rDock_2013.1_src/data/scripts/dock_solv.prm

>  <Rbt.Receptor>
prm/blind_docking_40.prm

>  <SCORE>
2.2596

>  <SCORE.INTER>
0.23309

>  <SCORE.INTER.CONST>
1

>  <SCORE.INTER.POLAR>
0

>  <SCORE.INTER.ROT>
6

>  <SCORE.INTER.SOLV>
14.7185

>  <SCORE.INTER.VDW>
-12.3508

>  <SCORE.INTER.norm>
0.00751903

>  <SCORE.INTRA>
1.97639

>  <SCORE.INTRA.DIHEDRAL>
-2.7791

>  <SCORE.INTRA.DIHEDRAL.0>
10.8172

>  <SCORE.INTRA.POLAR>
0

>  <SCORE.INTRA.POLAR.0>
0

>  <SCORE.INTRA.REPUL>
0

>  <SCORE.INTRA.REPUL.0>
0

>  <SCORE.INTRA.SOLV>
0.584416

>  <SCORE.INTRA.SOLV.lig_0>
-80.3833

>  <SCORE.INTRA.VDW>
3.07373

>  <SCORE.INTRA.VDW.0>
-4.63762

>  <SCORE.INTRA.norm>
0.0637547

>  <SCORE.RESTR>
0.0501104

>  <SCORE.RESTR.CAVITY>
0.0501104

>  <SCORE.RESTR.norm>
0.00161647

>  <SCORE.SYSTEM>
0

>  <SCORE.SYSTEM.CONST>
0

>  <SCORE.SYSTEM.DIHEDRAL>
0

>  <SCORE.SYSTEM.SOLV>
0

>  <SCORE.SYSTEM.norm>
0

>  <SCORE.heavy>
31

>  <SCORE.norm>
0.0728902

>  <RMSD>
24.743

$$$$
ligand
 OpenBabel11021811473D
libRbt.so/2013.1/901 2013/11/27
 31 33  0  0  0  0  0  0  0  0999 V2000
    9.4909   -4.6049    0.8347 C   0  0  0  0  0  0  0  0  0  0  0  0
    8.0330  -10.9987   -5.2334 N   0  0  0  0  0  0  0  0  0  0  0  0
   10.4768   -3.5936    1.0672 O   0  0  0  0  0  0  0  0  0  0  0  0
   10.1615   -5.9742    0.6994 C   0  0  1  0  0  0  0  0  0  0  0  0
    5.6089  -12.2334   -1.1710 N   0  0  0  0  0  0  0  0  0  0  0  0
    9.1635   -7.0054    0.5689 O   0  0  0  0  0  0  0  0  0  0  0  0
    9.4375   -7.7600   -0.6249 C   0  0  1  0  0  0  0  0  0  0  0  0
    3.9514   -7.3757    1.9622 N   0  0  0  0  0  0  0  0  0  0  0  0
    8.2304   -8.2292   -1.2461 O   0  0  0  0  0  0  0  0  0  0  0  0
    8.3006   -9.5924   -1.6897 C   0  0  2  0  0  0  0  0  0  0  0  0
    8.8375  -10.7617    2.7571 N   0  0  0  0  0  0  0  0  0  0  0  0
    9.3193   -8.9439   -3.7835 O   0  0  0  0  0  0  0  0  0  0  0  0
    8.1711   -9.5813   -3.2173 C   0  0  1  0  0  0  0  0  0  0  0  0
    7.4191  -10.6417    0.3604 O   0  0  0  0  0  0  0  0  0  0  0  0
    8.0662  -11.0068   -3.7629 C   0  0  1  0  0  0  0  0  0  0  0  0
    6.1998   -8.7570    1.0670 O   0  0  0  0  0  0  0  0  0  0  0  0
    6.7987  -11.6615   -3.2132 C   0  0  0  0  0  0  0  0  0  0  0  0
    4.0055  -10.7182    3.2612 O   0  0  0  0  0  0  0  0  0  0  0  0
    6.8937  -11.7366   -1.6864 C   0  0  1  0  0  0  0  0  0  0  0  0
    6.5609  -10.9496    4.5578 O   0  0  0  0  0  0  0  0  0  0  0  0
    7.1702  -10.3778   -1.0315 C   0  0  2  0  0  0  0  0  0  0  0  0
   10.8362   -7.3304   -2.6041 O   0  0  0  0  0  0  0  0  0  0  0  0
    7.4397   -9.4764    1.1996 C   0  0  1  0  0  0  0  0  0  0  0  0
   12.2019   -6.7991   -0.4017 O   0  0  0  0  0  0  0  0  0  0  0  0
    5.0356   -9.5146    1.4383 C   0  0  2  0  0  0  0  0  0  0  0  0
    3.7894   -8.6482    1.2411 C   0  0  0  0  0  0  0  0  0  0  0  0
    5.1336   -9.9115    2.9124 C   0  0  2  0  0  0  0  0  0  0  0  0
    6.4183  -10.7065    3.1543 C   0  0  1  0  0  0  0  0  0  0  0  0
    7.6339   -9.9226    2.6527 C   0  0  1  0  0  0  0  0  0  0  0  0
   10.0840   -6.7289   -1.5476 C   0  0  2  0  0  0  0  0  0  0  0  0
   11.0160   -6.0184   -0.5706 C   0  0  1  0  0  0  0  0  0  0  0  0
  1  3  1  0  0  0  0
  4  1  1  6  0  0  0
  4  6  1  0  0  0  0
  4 31  1  0  0  0  0
  6  7  1  0  0  0  0
  7  9  1  6  0  0  0
  7 30  1  0  0  0  0
  8 26  1  0  0  0  0
 10  9  1  1  0  0  0
 10 13  1  0  0  0  0
 10 21  1  0  0  0  0
 13 12  1  6  0  0  0
 13 15  1  0  0  0  0
 15  2  1  6  0  0  0
 15 17  1  0  0  0  0
 16 25  1  0  0  0  0
 16 23  1  0  0  0  0
 17 19  1  0  0  0  0
 19  5  1  1  0  0  0
 19 21  1  0  0  0  0
 21 14  1  1  0  0  0
 23 14  1  6  0  0  0
 23 29  1  0  0  0  0
 25 26  1  1  0  0  0
 25 27  1  0  0  0  0
 27 18  1  6  0  0  0
 27 28  1  0  0  0  0
 28 20  1  1  0  0  0
 28 29  1  0  0  0  0
 29 11  1  6  0  0  0
 30 22  1  6  0  0  0
 30 31  1  0  0  0  0
 31 24  1  1  0  0  0
M  END
>  <CHROM.1>
175.57353709,-136.31933728,-115.76367447,56.45371336,66.29216073,-53.54119089
7.82763300,-8.91709937,-0.04770291,-0.17146700,0.78087589,1.03429842

>  <Name>
ligand

>  <RI>
0

>  <Rbt.Current_Directory>
/home/itssahil/PROJECTS/Mol_Feturizer/New_Systems/rnas/3DVV

>  <Rbt.Executable>
rbdock ($Id: //depot/dev/client3/rdock/2013.1/src/exe/rbdock.cxx#4 $)

>  <Rbt.Library>
libRbt.so (2013.1, Build901 2013/11/27)

>  <Rbt.Parameter_File>
/export/apps/rDock/src/rDock_2013.1_src/data/scripts/dock_solv.prm

>  <Rbt.Receptor>
prm/blind_docking_20.prm

>  <SCORE>
0.404464

>  <SCORE.INTER>
-1.39699

>  <SCORE.INTER.CONST>
1

>  <SCORE.INTER.POLAR>
0

>  <SCORE.INTER.ROT>
6

>  <SCORE.INTER.SOLV>
17.7284

>  <SCORE.INTER.VDW>
-14.4408

>  <SCORE.INTER.norm>
-0.0450643

>  <SCORE.INTRA>
1.79739

>  <SCORE.INTRA.DIHEDRAL>
2.72946

>  <SCORE.INTRA.DIHEDRAL.0>
10.8172

>  <SCORE.INTRA.POLAR>
0

>  <SCORE.INTRA.POLAR.0>
0

>  <SCORE.INTRA.REPUL>
0

>  <SCORE.INTRA.REPUL.0>
0

>  <SCORE.INTRA.SOLV>
-2.24461

>  <SCORE.INTRA.SOLV.lig_0>
-80.3833

>  <SCORE.INTRA.VDW>
1.55497

>  <SCORE.INTRA.VDW.0>
-4.63762

>  <SCORE.INTRA.norm>
0.0579804

>  <SCORE.RESTR>
0.00406608

>  <SCORE.RESTR.CAVITY>
0.00406608

>  <SCORE.RESTR.norm>
0.000131164

>  <SCORE.SYSTEM>
0

>  <SCORE.SYSTEM.CONST>
0

>  <SCORE.SYSTEM.DIHEDRAL>
0

>  <SCORE.SYSTEM.SOLV>
0

>  <SCORE.SYSTEM.norm>
0

>  <SCORE.heavy>
31

>  <SCORE.norm>
0.0130472

>  <RMSD>
24.976

$$$$
ligand
 OpenBabel11021811473D
libRbt.so/2013.1/901 2013/11/27
 31 33  0  0  0  0  0  0  0  0999 V2000
    9.8757   -4.7356    1.5546 C   0  0  0  0  0  0  0  0  0  0  0  0
    1.3387   -4.7356    2.0680 N   0  0  0  0  0  0  0  0  0  0  0  0
   10.8108   -4.1694    0.6306 O   0  0  0  0  0  0  0  0  0  0  0  0
    9.2653   -6.0127    0.9716 C   0  0  1  0  0  0  0  0  0  0  0  0
    2.2475   -9.4210    1.0074 N   0  0  0  0  0  0  0  0  0  0  0  0
    8.2589   -6.5334    1.8617 O   0  0  0  0  0  0  0  0  0  0  0  0
    7.0329   -6.6909    1.1254 C   0  0  1  0  0  0  0  0  0  0  0  0
    5.8647  -12.8474   -2.4984 N   0  0  0  0  0  0  0  0  0  0  0  0
    5.8823   -6.4531    1.9516 O   0  0  0  0  0  0  0  0  0  0  0  0
    4.6406   -6.4694    1.2321 C   0  0  2  0  0  0  0  0  0  0  0  0
    6.2354   -9.5510    2.4988 N   0  0  0  0  0  0  0  0  0  0  0  0
    4.1120   -4.2168    1.9316 O   0  0  0  0  0  0  0  0  0  0  0  0
    3.6599   -5.5721    1.9960 C   0  0  1  0  0  0  0  0  0  0  0  0
    4.8928   -8.6990    0.2092 O   0  0  0  0  0  0  0  0  0  0  0  0
    2.2573   -5.6643    1.3918 C   0  0  1  0  0  0  0  0  0  0  0  0
    4.9364  -10.8550   -0.7330 O   0  0  0  0  0  0  0  0  0  0  0  0
    1.7467   -7.0990    1.5275 C   0  0  0  0  0  0  0  0  0  0  0  0
    8.4753  -10.6155   -1.6790 O   0  0  0  0  0  0  0  0  0  0  0  0
    2.6703   -8.0370    0.7447 C   0  0  1  0  0  0  0  0  0  0  0  0
    8.5927  -10.6461    1.1933 O   0  0  0  0  0  0  0  0  0  0  0  0
    4.1438   -7.9096    1.1499 C   0  0  2  0  0  0  0  0  0  0  0  0
    6.2400   -5.8104   -1.0319 O   0  0  0  0  0  0  0  0  0  0  0  0
    4.9264  -10.1058    0.4963 C   0  0  1  0  0  0  0  0  0  0  0  0
    8.6891   -6.7745   -1.2964 O   0  0  0  0  0  0  0  0  0  0  0  0
    6.0623  -10.5783   -1.5833 C   0  0  2  0  0  0  0  0  0  0  0  0
    5.9497  -11.4222   -2.8552 C   0  0  0  0  0  0  0  0  0  0  0  0
    7.3553  -10.9510   -0.8556 C   0  0  2  0  0  0  0  0  0  0  0  0
    7.4503  -10.1840    0.4649 C   0  0  1  0  0  0  0  0  0  0  0  0
    6.1912  -10.4105    1.3059 C   0  0  1  0  0  0  0  0  0  0  0  0
    7.1110   -5.5817    0.0784 C   0  0  2  0  0  0  0  0  0  0  0  0
    8.5683   -5.7037   -0.3565 C   0  0  1  0  0  0  0  0  0  0  0  0
  1  3  1  0  0  0  0
  4  1  1  1  0  0  0
  4  6  1  0  0  0  0
  4 31  1  0  0  0  0
  6  7  1  0  0  0  0
  7  9  1  1  0  0  0
  7 30  1  0  0  0  0
  8 26  1  0  0  0  0
 10  9  1  1  0  0  0
 10 13  1  0  0  0  0
 10 21  1  0  0  0  0
 13 12  1  6  0  0  0
 13 15  1  0  0  0  0
 15  2  1  1  0  0  0
 15 17  1  0  0  0  0
 16 25  1  0  0  0  0
 16 23  1  0  0  0  0
 17 19  1  0  0  0  0
 19  5  1  1  0  0  0
 19 21  1  0  0  0  0
 21 14  1  6  0  0  0
 23 14  1  6  0  0  0
 23 29  1  0  0  0  0
 25 26  1  6  0  0  0
 25 27  1  0  0  0  0
 27 18  1  6  0  0  0
 27 28  1  0  0  0  0
 28 20  1  1  0  0  0
 28 29  1  0  0  0  0
 29 11  1  1  0  0  0
 30 22  1  6  0  0  0
 30 31  1  0  0  0  0
 31 24  1  6  0  0  0
M  END
>  <CHROM.1>
-176.14938068,174.21701107,-152.65529005,145.68737682,152.76212809,-56.93655331
6.03882371,-7.86836686,0.45671008,-1.84612080,-0.17242941,-2.77786878

>  <Name>
ligand

>  <RI>
0

>  <Rbt.Current_Directory>
/home/itssahil/PROJECTS/Mol_Feturizer/New_Systems/rnas/3DVV

>  <Rbt.Executable>
rbdock ($Id: //depot/dev/client3/rdock/2013.1/src/exe/rbdock.cxx#4 $)

>  <Rbt.Library>
libRbt.so (2013.1, Build901 2013/11/27)

>  <Rbt.Parameter_File>
/export/apps/rDock/src/rDock_2013.1_src/data/scripts/dock_solv.prm

>  <Rbt.Receptor>
prm/blind_docking_60.prm

>  <SCORE>
-1.19803

>  <SCORE.INTER>
-4.14525

>  <SCORE.INTER.CONST>
1

>  <SCORE.INTER.POLAR>
0

>  <SCORE.INTER.ROT>
6

>  <SCORE.INTER.SOLV>
15.1701

>  <SCORE.INTER.VDW>
-15.4202

>  <SCORE.INTER.norm>
-0.133718

>  <SCORE.INTRA>
2.66239

>  <SCORE.INTRA.DIHEDRAL>
0.206526

>  <SCORE.INTRA.DIHEDRAL.0>
10.8172

>  <SCORE.INTRA.POLAR>
0

>  <SCORE.INTRA.POLAR.0>
0

>  <SCORE.INTRA.REPUL>
0

>  <SCORE.INTRA.REPUL.0>
0

>  <SCORE.INTRA.SOLV>
1.79327

>  <SCORE.INTRA.SOLV.lig_0>
-80.3833

>  <SCORE.INTRA.VDW>
1.66249

>  <SCORE.INTRA.VDW.0>
-4.63762

>  <SCORE.INTRA.norm>
0.0858835

>  <SCORE.RESTR>
0.284836

>  <SCORE.RESTR.CAVITY>
0.284836

>  <SCORE.RESTR.norm>
0.00918825

>  <SCORE.SYSTEM>
0

>  <SCORE.SYSTEM.CONST>
0

>  <SCORE.SYSTEM.DIHEDRAL>
0

>  <SCORE.SYSTEM.SOLV>
0

>  <SCORE.SYSTEM.norm>
0

>  <SCORE.heavy>
31

>  <SCORE.norm>
-0.038646

>  <RMSD>
25.005

$$$$
ligand
 OpenBabel11021811473D
libRbt.so/2013.1/901 2013/11/27
 31 33  0  0  0  0  0  0  0  0999 V2000
    6.5495  -10.0555    6.2026 C   0  0  0  0  0  0  0  0  0  0  0  0
    5.1289  -14.5382   -0.5922 N   0  0  0  0  0  0  0  0  0  0  0  0
    5.6663  -10.6314    7.1706 O   0  0  0  0  0  0  0  0  0  0  0  0
    6.8258  -11.0573    5.0786 C   0  0  1  0  0  0  0  0  0  0  0  0
    6.5034  -10.0092   -1.8178 N   0  0  0  0  0  0  0  0  0  0  0  0
    5.5925  -11.4365    4.4370 O   0  0  0  0  0  0  0  0  0  0  0  0
    5.7170  -11.1935    3.0245 C   0  0  1  0  0  0  0  0  0  0  0  0
    8.7357   -7.2660    0.6018 N   0  0  0  0  0  0  0  0  0  0  0  0
    4.4651  -10.8004    2.4403 O   0  0  0  0  0  0  0  0  0  0  0  0
    4.3197  -11.1917    1.0671 C   0  0  2  0  0  0  0  0  0  0  0  0
    2.2910   -7.6667    0.8587 N   0  0  0  0  0  0  0  0  0  0  0  0
    3.8368  -13.4781    1.6850 O   0  0  0  0  0  0  0  0  0  0  0  0
    4.7583  -12.6571    0.9623 C   0  0  1  0  0  0  0  0  0  0  0  0
    4.6289   -8.9603    0.0641 O   0  0  0  0  0  0  0  0  0  0  0  0
    4.7960  -13.1086   -0.4990 C   0  0  1  0  0  0  0  0  0  0  0  0
    5.9676   -7.5710    1.4117 O   0  0  0  0  0  0  0  0  0  0  0  0
    5.8345  -12.2778   -1.2533 C   0  0  0  0  0  0  0  0  0  0  0  0
    5.7373   -4.7272   -0.8984 O   0  0  0  0  0  0  0  0  0  0  0  0
    5.4217  -10.8034   -1.2159 C   0  0  1  0  0  0  0  0  0  0  0  0
    3.0421   -4.9689    0.0725 O   0  0  0  0  0  0  0  0  0  0  0  0
    5.1868  -10.2785    0.2057 C   0  0  2  0  0  0  0  0  0  0  0  0
    7.2907   -9.8643    1.6774 O   0  0  0  0  0  0  0  0  0  0  0  0
    4.6636   -8.1607    1.2568 C   0  0  1  0  0  0  0  0  0  0  0  0
    8.6214  -11.3438    3.4205 O   0  0  0  0  0  0  0  0  0  0  0  0
    6.3600   -6.7136    0.3263 C   0  0  2  0  0  0  0  0  0  0  0  0
    7.7612   -6.1634    0.6029 C   0  0  0  0  0  0  0  0  0  0  0  0
    5.3811   -5.5428    0.2210 C   0  0  2  0  0  0  0  0  0  0  0  0
    3.9570   -6.0691    0.0308 C   0  0  1  0  0  0  0  0  0  0  0  0
    3.6018   -7.0619    1.1408 C   0  0  1  0  0  0  0  0  0  0  0  0
    6.6731  -10.0043    2.9590 C   0  0  2  0  0  0  0  0  0  0  0  0
    7.7066  -10.4129    4.0044 C   0  0  1  0  0  0  0  0  0  0  0  0
  1  3  1  0  0  0  0
  4  1  1  1  0  0  0
  4  6  1  0  0  0  0
  4 31  1  0  0  0  0
  6  7  1  0  0  0  0
  7  9  1  1  0  0  0
  7 30  1  0  0  0  0
  8 26  1  0  0  0  0
 10  9  1  1  0  0  0
 10 13  1  0  0  0  0
 10 21  1  0  0  0  0
 13 12  1  1  0  0  0
 13 15  1  0  0  0  0
 15  2  1  1  0  0  0
 15 17  1  0  0  0  0
 16 25  1  0  0  0  0
 16 23  1  0  0  0  0
 17 19  1  0  0  0  0
 19  5  1  1  0  0  0
 19 21  1  0  0  0  0
 21 14  1  6  0  0  0
 23 14  1  6  0  0  0
 23 29  1  0  0  0  0
 25 26  1  1  0  0  0
 25 27  1  0  0  0  0
 27 18  1  6  0  0  0
 27 28  1  0  0  0  0
 28 20  1  1  0  0  0
 28 29  1  0  0  0  0
 29 11  1  6  0  0  0
 30 22  1  6  0  0  0
 30 31  1  0  0  0  0
 31 24  1  6  0  0  0
M  END
>  <CHROM.1>
59.16729469,-149.87989888,46.39812180,81.33690395,70.29433615,65.00582374
5.58333903,-9.53982696,1.47587602,-1.19013742,-1.24653020,-0.13577124

>  <Name>
ligand

>  <RI>
0

>  <Rbt.Current_Directory>
/home/itssahil/PROJECTS/Mol_Feturizer/New_Systems/rnas/3DVV

>  <Rbt.Executable>
rbdock ($Id: //depot/dev/client3/rdock/2013.1/src/exe/rbdock.cxx#4 $)

>  <Rbt.Library>
libRbt.so (2013.1, Build901 2013/11/27)

>  <Rbt.Parameter_File>
/export/apps/rDock/src/rDock_2013.1_src/data/scripts/dock_solv.prm

>  <Rbt.Receptor>
prm/blind_docking_20.prm

>  <SCORE>
-3.33528

>  <SCORE.INTER>
-4.67807

>  <SCORE.INTER.CONST>
1

>  <SCORE.INTER.POLAR>
0

>  <SCORE.INTER.ROT>
6

>  <SCORE.INTER.SOLV>
16.2758

>  <SCORE.INTER.VDW>
-16.144

>  <SCORE.INTER.norm>
-0.150905

>  <SCORE.INTRA>
1.33789

>  <SCORE.INTRA.DIHEDRAL>
-3.59495

>  <SCORE.INTRA.DIHEDRAL.0>
10.8172

>  <SCORE.INTRA.POLAR>
0

>  <SCORE.INTRA.POLAR.0>
0

>  <SCORE.INTRA.REPUL>
0

>  <SCORE.INTRA.REPUL.0>
0

>  <SCORE.INTRA.SOLV>
-0.87722

>  <SCORE.INTRA.SOLV.lig_0>
-80.3833

>  <SCORE.INTRA.VDW>
3.57398

>  <SCORE.INTRA.VDW.0>
-4.63762

>  <SCORE.INTRA.norm>
0.0431579

>  <SCORE.RESTR>
0.00488865

>  <SCORE.RESTR.CAVITY>
0.00488865

>  <SCORE.RESTR.norm>
0.000157698

>  <SCORE.SYSTEM>
0

>  <SCORE.SYSTEM.CONST>
0

>  <SCORE.SYSTEM.DIHEDRAL>
0

>  <SCORE.SYSTEM.SOLV>
0

>  <SCORE.SYSTEM.norm>
0

>  <SCORE.heavy>
31

>  <SCORE.norm>
-0.10759

>  <RMSD>
25.130

$$$$
ligand
 OpenBabel11021811473D
libRbt.so/2013.1/901 2013/11/27
 31 33  0  0  0  0  0  0  0  0999 V2000
    8.6483   -6.0832    2.2578 C   0  0  0  0  0  0  0  0  0  0  0  0
    6.7884  -11.6597   -4.1211 N   0  0  0  0  0  0  0  0  0  0  0  0
    7.2542   -5.9421    2.5497 O   0  0  0  0  0  0  0  0  0  0  0  0
    8.8519   -6.3256    0.7602 C   0  0  1  0  0  0  0  0  0  0  0  0
    4.5819  -12.7253    0.1096 N   0  0  0  0  0  0  0  0  0  0  0  0
    8.2896   -7.5974    0.3820 O   0  0  0  0  0  0  0  0  0  0  0  0
    7.3636   -7.3860   -0.6986 C   0  0  1  0  0  0  0  0  0  0  0  0
    1.9835   -8.4892    1.4137 N   0  0  0  0  0  0  0  0  0  0  0  0
    6.2632   -8.3074   -0.6435 O   0  0  0  0  0  0  0  0  0  0  0  0
    6.6427   -9.6748   -0.8583 C   0  0  2  0  0  0  0  0  0  0  0  0
    7.9574  -10.1376    3.2403 N   0  0  0  0  0  0  0  0  0  0  0  0
    7.5523   -9.1649   -3.0390 O   0  0  0  0  0  0  0  0  0  0  0  0
    6.5564   -9.9398   -2.3659 C   0  0  1  0  0  0  0  0  0  0  0  0
    5.9560  -10.5471    1.3436 O   0  0  0  0  0  0  0  0  0  0  0  0
    6.7817  -11.4223   -2.6696 C   0  0  1  0  0  0  0  0  0  0  0  0
    4.8234   -8.5838    1.9767 O   0  0  0  0  0  0  0  0  0  0  0  0
    5.6737  -12.2429   -2.0089 C   0  0  0  0  0  0  0  0  0  0  0  0
    3.4373  -10.0956    5.0213 O   0  0  0  0  0  0  0  0  0  0  0  0
    5.7405  -12.0472   -0.4914 C   0  0  1  0  0  0  0  0  0  0  0  0
    6.2530   -9.9979    5.5933 O   0  0  0  0  0  0  0  0  0  0  0  0
    5.6942  -10.5733   -0.0705 C   0  0  2  0  0  0  0  0  0  0  0  0
    6.2427   -5.3832   -1.5874 O   0  0  0  0  0  0  0  0  0  0  0  0
    6.1062   -9.2331    1.9037 C   0  0  1  0  0  0  0  0  0  0  0  0
    8.8199   -4.8964   -1.2429 O   0  0  0  0  0  0  0  0  0  0  0  0
    3.8587   -9.2733    2.7899 C   0  0  2  0  0  0  0  0  0  0  0  0
    2.5417   -8.4937    2.7753 C   0  0  0  0  0  0  0  0  0  0  0  0
    4.3694   -9.3542    4.2296 C   0  0  2  0  0  0  0  0  0  0  0  0
    5.7297  -10.0539    4.2620 C   0  0  1  0  0  0  0  0  0  0  0  0
    6.7077   -9.3646    3.3069 C   0  0  1  0  0  0  0  0  0  0  0  0
    6.8289   -5.9811   -0.4288 C   0  0  2  0  0  0  0  0  0  0  0  0
    8.1164   -5.2549   -0.0508 C   0  0  1  0  0  0  0  0  0  0  0  0
  1  3  1  0  0  0  0
  4  1  1  1  0  0  0
  4  6  1  0  0  0  0
  4 31  1  0  0  0  0
  6  7  1  0  0  0  0
  7  9  1  1  0  0  0
  7 30  1  0  0  0  0
  8 26  1  0  0  0  0
 10  9  1  6  0  0  0
 10 13  1  0  0  0  0
 10 21  1  0  0  0  0
 13 12  1  6  0  0  0
 13 15  1  0  0  0  0
 15  2  1  6  0  0  0
 15 17  1  0  0  0  0
 16 25  1  0  0  0  0
 16 23  1  0  0  0  0
 17 19  1  0  0  0  0
 19  5  1  1  0  0  0
 19 21  1  0  0  0  0
 21 14  1  1  0  0  0
 23 14  1  1  0  0  0
 23 29  1  0  0  0  0
 25 26  1  1  0  0  0
 25 27  1  0  0  0  0
 27 18  1  1  0  0  0
 27 28  1  0  0  0  0
 28 20  1  1  0  0  0
 28 29  1  0  0  0  0
 29 11  1  6  0  0  0
 30 22  1  6  0  0  0
 30 31  1  0  0  0  0
 31 24  1  6  0  0  0
M  END
>  <CHROM.1>
-66.00303299,-65.93031817,-89.78209666,73.23953404,47.79452321,64.66353604
6.21411039,-8.86927682,0.77730556,-0.62312984,1.00766943,0.99732243

>  <Name>
ligand

>  <RI>
0

>  <Rbt.Current_Directory>
/home/itssahil/PROJECTS/Mol_Feturizer/New_Systems/rnas/3DVV

>  <Rbt.Executable>
rbdock ($Id: //depot/dev/client3/rdock/2013.1/src/exe/rbdock.cxx#4 $)

>  <Rbt.Library>
libRbt.so (2013.1, Build901 2013/11/27)

>  <Rbt.Parameter_File>
/export/apps/rDock/src/rDock_2013.1_src/data/scripts/dock_solv.prm

>  <Rbt.Receptor>
prm/blind_docking_20.prm

>  <SCORE>
-3.62739

>  <SCORE.INTER>
-1.30176

>  <SCORE.INTER.CONST>
1

>  <SCORE.INTER.POLAR>
0

>  <SCORE.INTER.ROT>
6

>  <SCORE.INTER.SOLV>
15.7374

>  <SCORE.INTER.VDW>
-13.7136

>  <SCORE.INTER.norm>
-0.0419922

>  <SCORE.INTRA>
-2.46849

>  <SCORE.INTRA.DIHEDRAL>
-5.09721

>  <SCORE.INTRA.DIHEDRAL.0>
10.8172

>  <SCORE.INTRA.POLAR>
0

>  <SCORE.INTRA.POLAR.0>
0

>  <SCORE.INTRA.REPUL>
0

>  <SCORE.INTRA.REPUL.0>
0

>  <SCORE.INTRA.SOLV>
-3.17936

>  <SCORE.INTRA.SOLV.lig_0>
-80.3833

>  <SCORE.INTRA.VDW>
1.6698

>  <SCORE.INTRA.VDW.0>
-4.63762

>  <SCORE.INTRA.norm>
-0.0796286

>  <SCORE.RESTR>
0.142856

>  <SCORE.RESTR.CAVITY>
0.142856

>  <SCORE.RESTR.norm>
0.00460827

>  <SCORE.SYSTEM>
0

>  <SCORE.SYSTEM.CONST>
0

>  <SCORE.SYSTEM.DIHEDRAL>
0

>  <SCORE.SYSTEM.SOLV>
0

>  <SCORE.SYSTEM.norm>
0

>  <SCORE.heavy>
31

>  <SCORE.norm>
-0.117013

>  <RMSD>
25.148

$$$$
ligand
 OpenBabel11021811473D
libRbt.so/2013.1/901 2013/11/27
 31 33  0  0  0  0  0  0  0  0999 V2000
    7.2979  -10.1955   -4.1148 C   0  0  0  0  0  0  0  0  0  0  0  0
    8.4386   -4.7033   -1.2647 N   0  0  0  0  0  0  0  0  0  0  0  0
    7.6815  -11.3861   -4.8106 O   0  0  0  0  0  0  0  0  0  0  0  0
    7.5454  -10.3592   -2.6131 C   0  0  1  0  0  0  0  0  0  0  0  0
    8.4710   -7.4043    2.8104 N   0  0  0  0  0  0  0  0  0  0  0  0
    7.2043   -9.1438   -1.9181 O   0  0  0  0  0  0  0  0  0  0  0  0
    6.2607   -9.4593   -0.8790 C   0  0  1  0  0  0  0  0  0  0  0  0
    9.0598  -11.0222    3.2177 N   0  0  0  0  0  0  0  0  0  0  0  0
    5.3288   -8.3878   -0.6640 O   0  0  0  0  0  0  0  0  0  0  0  0
    5.8957   -7.2553    0.0112 C   0  0  2  0  0  0  0  0  0  0  0  0
    3.0814   -8.6756    2.8659 N   0  0  0  0  0  0  0  0  0  0  0  0
    6.0578   -6.0043   -2.0506 O   0  0  0  0  0  0  0  0  0  0  0  0
    6.8313   -6.5549   -0.9811 C   0  0  1  0  0  0  0  0  0  0  0  0
    5.7610   -8.1500    2.3052 O   0  0  0  0  0  0  0  0  0  0  0  0
    7.6096   -5.4320   -0.2925 C   0  0  1  0  0  0  0  0  0  0  0  0
    6.3622  -10.4066    2.5962 O   0  0  0  0  0  0  0  0  0  0  0  0
    8.4910   -6.0322    0.8030 C   0  0  0  0  0  0  0  0  0  0  0  0
    6.2015  -10.2118    6.2585 O   0  0  0  0  0  0  0  0  0  0  0  0
    7.6010   -6.7115    1.8480 C   0  0  1  0  0  0  0  0  0  0  0  0
    3.4519   -9.8757    5.4895 O   0  0  0  0  0  0  0  0  0  0  0  0
    6.6460   -7.7487    1.2448 C   0  0  2  0  0  0  0  0  0  0  0  0
    4.8257  -11.4112   -0.4442 O   0  0  0  0  0  0  0  0  0  0  0  0
    5.3009   -9.5081    2.2236 C   0  0  1  0  0  0  0  0  0  0  0  0
    7.2844  -12.2071   -1.0090 O   0  0  0  0  0  0  0  0  0  0  0  0
    6.8548  -10.2154    3.9333 C   0  0  2  0  0  0  0  0  0  0  0  0
    7.9818  -11.2158    4.2006 C   0  0  0  0  0  0  0  0  0  0  0  0
    5.7249  -10.4646    4.9341 C   0  0  2  0  0  0  0  0  0  0  0  0
    4.5477   -9.5346    4.6339 C   0  0  1  0  0  0  0  0  0  0  0  0
    4.1110   -9.6801    3.1737 C   0  0  1  0  0  0  0  0  0  0  0  0
    5.4984  -10.6523   -1.4518 C   0  0  2  0  0  0  0  0  0  0  0  0
    6.6454  -11.4622   -2.0489 C   0  0  1  0  0  0  0  0  0  0  0  0
  1  3  1  0  0  0  0
  4  1  1  6  0  0  0
  4  6  1  0  0  0  0
  4 31  1  0  0  0  0
  6  7  1  0  0  0  0
  7  9  1  6  0  0  0
  7 30  1  0  0  0  0
  8 26  1  0  0  0  0
 10  9  1  6  0  0  0
 10 13  1  0  0  0  0
 10 21  1  0  0  0  0
 13 12  1  6  0  0  0
 13 15  1  0  0  0  0
 15  2  1  6  0  0  0
 15 17  1  0  0  0  0
 16 25  1  0  0  0  0
 16 23  1  0  0  0  0
 17 19  1  0  0  0  0
 19  5  1  1  0  0  0
 19 21  1  0  0  0  0
 21 14  1  1  0  0  0
 23 14  1  1  0  0  0
 23 29  1  0  0  0  0
 25 26  1  1  0  0  0
 25 27  1  0  0  0  0
 27 18  1  1  0  0  0
 27 28  1  0  0  0  0
 28 20  1  1  0  0  0
 28 29  1  0  0  0  0
 29 11  1  6  0  0  0
 30 22  1  1  0  0  0
 30 31  1  0  0  0  0
 31 24  1  1  0  0  0
M  END
>  <CHROM.1>
177.95004960,-73.50366743,71.88933719,74.31777588,86.00186813,58.63149741
6.44107566,-9.11330656,0.88607290,0.63829215,-1.30477806,-2.36656444

>  <Name>
ligand

>  <RI>
0

>  <Rbt.Current_Directory>
/home/itssahil/PROJECTS/Mol_Feturizer/New_Systems/rnas/3DVV

>  <Rbt.Executable>
rbdock ($Id: //depot/dev/client3/rdock/2013.1/src/exe/rbdock.cxx#4 $)

>  <Rbt.Library>
libRbt.so (2013.1, Build901 2013/11/27)

>  <Rbt.Parameter_File>
/export/apps/rDock/src/rDock_2013.1_src/data/scripts/dock_solv.prm

>  <Rbt.Receptor>
prm/blind_docking_20.prm

>  <SCORE>
-4.01243

>  <SCORE.INTER>
-3.29213

>  <SCORE.INTER.CONST>
1

>  <SCORE.INTER.POLAR>
0

>  <SCORE.INTER.ROT>
6

>  <SCORE.INTER.SOLV>
12.6848

>  <SCORE.INTER.VDW>
-14.023

>  <SCORE.INTER.norm>
-0.106198

>  <SCORE.INTRA>
-1.1111

>  <SCORE.INTRA.DIHEDRAL>
-5.28308

>  <SCORE.INTRA.DIHEDRAL.0>
10.8172

>  <SCORE.INTRA.POLAR>
0

>  <SCORE.INTRA.POLAR.0>
0

>  <SCORE.INTRA.REPUL>
0

>  <SCORE.INTRA.REPUL.0>
0

>  <SCORE.INTRA.SOLV>
-1.68362

>  <SCORE.INTRA.SOLV.lig_0>
-80.3833

>  <SCORE.INTRA.VDW>
2.37225

>  <SCORE.INTRA.VDW.0>
-4.63762

>  <SCORE.INTRA.norm>
-0.0358421

>  <SCORE.RESTR>
0.390801

>  <SCORE.RESTR.CAVITY>
0.390801

>  <SCORE.RESTR.norm>
0.0126065

>  <SCORE.SYSTEM>
0

>  <SCORE.SYSTEM.CONST>
0

>  <SCORE.SYSTEM.DIHEDRAL>
0

>  <SCORE.SYSTEM.SOLV>
0

>  <SCORE.SYSTEM.norm>
0

>  <SCORE.heavy>
31

>  <SCORE.norm>
-0.129433

>  <RMSD>
25.175

$$$$
ligand
 OpenBabel11021811473D
libRbt.so/2013.1/901 2013/11/27
 31 33  0  0  0  0  0  0  0  0999 V2000
    3.2505   -7.4928    1.8622 C   0  0  0  0  0  0  0  0  0  0  0  0
    6.4362  -13.1506   -3.8086 N   0  0  0  0  0  0  0  0  0  0  0  0
    2.7548   -6.6470    0.8193 O   0  0  0  0  0  0  0  0  0  0  0  0
    3.1981   -8.9582    1.4228 C   0  0  1  0  0  0  0  0  0  0  0  0
    8.8228   -8.8865   -3.9659 N   0  0  0  0  0  0  0  0  0  0  0  0
    4.0324   -9.1597    0.2653 O   0  0  0  0  0  0  0  0  0  0  0  0
    4.9632  -10.2191    0.5499 C   0  0  1  0  0  0  0  0  0  0  0  0
   10.5706   -9.0983    0.3624 N   0  0  0  0  0  0  0  0  0  0  0  0
    6.2233  -10.0104   -0.1070 O   0  0  0  0  0  0  0  0  0  0  0  0
    6.1493  -10.0896   -1.5382 C   0  0  2  0  0  0  0  0  0  0  0  0
    5.6253   -5.4487   -1.6065 N   0  0  0  0  0  0  0  0  0  0  0  0
    5.1499  -12.2886   -1.4462 O   0  0  0  0  0  0  0  0  0  0  0  0
    6.2904  -11.5676   -1.9203 C   0  0  1  0  0  0  0  0  0  0  0  0
    7.0096   -7.8312   -2.0284 O   0  0  0  0  0  0  0  0  0  0  0  0
    6.3919  -11.7278   -3.4385 C   0  0  1  0  0  0  0  0  0  0  0  0
    8.0703   -7.6960    0.0679 O   0  0  0  0  0  0  0  0  0  0  0  0
    7.6516  -11.0172   -3.9341 C   0  0  0  0  0  0  0  0  0  0  0  0
   10.4401   -5.1225   -1.0445 O   0  0  0  0  0  0  0  0  0  0  0  0
    7.5446   -9.5234   -3.6141 C   0  0  1  0  0  0  0  0  0  0  0  0
    7.9237   -3.7343   -1.1178 O   0  0  0  0  0  0  0  0  0  0  0  0
    7.2704   -9.2419   -2.1318 C   0  0  2  0  0  0  0  0  0  0  0  0
    5.7048  -11.2927    2.6369 O   0  0  0  0  0  0  0  0  0  0  0  0
    6.8969   -7.3367   -0.6847 C   0  0  1  0  0  0  0  0  0  0  0  0
    3.0658  -11.1136    2.6029 O   0  0  0  0  0  0  0  0  0  0  0  0
    9.2974   -7.1701   -0.4658 C   0  0  2  0  0  0  0  0  0  0  0  0
   10.4641   -7.6313    0.4108 C   0  0  0  0  0  0  0  0  0  0  0  0
    9.2450   -5.6412   -0.4547 C   0  0  2  0  0  0  0  0  0  0  0  0
    8.0342   -5.1550   -1.2538 C   0  0  1  0  0  0  0  0  0  0  0  0
    6.7526   -5.8120   -0.7343 C   0  0  1  0  0  0  0  0  0  0  0  0
    5.1800  -10.0962    2.0568 C   0  0  2  0  0  0  0  0  0  0  0  0
    3.7493   -9.8597    2.5311 C   0  0  1  0  0  0  0  0  0  0  0  0
  1  3  1  0  0  0  0
  4  1  1  1  0  0  0
  4  6  1  0  0  0  0
  4 31  1  0  0  0  0
  6  7  1  0  0  0  0
  7  9  1  6  0  0  0
  7 30  1  0  0  0  0
  8 26  1  0  0  0  0
 10  9  1  1  0  0  0
 10 13  1  0  0  0  0
 10 21  1  0  0  0  0
 13 12  1  6  0  0  0
 13 15  1  0  0  0  0
 15  2  1  1  0  0  0
 15 17  1  0  0  0  0
 16 25  1  0  0  0  0
 16 23  1  0  0  0  0
 17 19  1  0  0  0  0
 19  5  1  1  0  0  0
 19 21  1  0  0  0  0
 21 14  1  6  0  0  0
 23 14  1  6  0  0  0
 23 29  1  0  0  0  0
 25 26  1  1  0  0  0
 25 27  1  0  0  0  0
 27 18  1  6  0  0  0
 27 28  1  0  0  0  0
 28 20  1  1  0  0  0
 28 29  1  0  0  0  0
 29 11  1  6  0  0  0
 30 22  1  1  0  0  0
 30 31  1  0  0  0  0
 31 24  1  6  0  0  0
M  END
>  <CHROM.1>
61.46372080,-66.49292603,-85.74035042,54.39952661,62.18621170,63.19997096
6.56381616,-8.69931401,-0.60224561,2.67350939,-0.68118132,-2.67296726

>  <Name>
ligand

>  <RI>
0

>  <Rbt.Current_Directory>
/home/itssahil/PROJECTS/Mol_Feturizer/New_Systems/rnas/3DVV

>  <Rbt.Executable>
rbdock ($Id: //depot/dev/client3/rdock/2013.1/src/exe/rbdock.cxx#4 $)

>  <Rbt.Library>
libRbt.so (2013.1, Build901 2013/11/27)

>  <Rbt.Parameter_File>
/export/apps/rDock/src/rDock_2013.1_src/data/scripts/dock_solv.prm

>  <Rbt.Receptor>
prm/blind_docking_20.prm

>  <SCORE>
-5.65515

>  <SCORE.INTER>
-2.0562

>  <SCORE.INTER.CONST>
1

>  <SCORE.INTER.POLAR>
0

>  <SCORE.INTER.ROT>
6

>  <SCORE.INTER.SOLV>
15.4981

>  <SCORE.INTER.VDW>
-14.1368

>  <SCORE.INTER.norm>
-0.0663291

>  <SCORE.INTRA>
-4.15607

>  <SCORE.INTRA.DIHEDRAL>
-7.32188

>  <SCORE.INTRA.DIHEDRAL.0>
10.8172

>  <SCORE.INTRA.POLAR>
0

>  <SCORE.INTRA.POLAR.0>
0

>  <SCORE.INTRA.REPUL>
0

>  <SCORE.INTRA.REPUL.0>
0

>  <SCORE.INTRA.SOLV>
-3.98967

>  <SCORE.INTRA.SOLV.lig_0>
-80.3833

>  <SCORE.INTRA.VDW>
1.4997

>  <SCORE.INTRA.VDW.0>
-4.63762

>  <SCORE.INTRA.norm>
-0.134067

>  <SCORE.RESTR>
0.557124

>  <SCORE.RESTR.CAVITY>
0.557124

>  <SCORE.RESTR.norm>
0.0179718

>  <SCORE.SYSTEM>
0

>  <SCORE.SYSTEM.CONST>
0

>  <SCORE.SYSTEM.DIHEDRAL>
0

>  <SCORE.SYSTEM.SOLV>
0

>  <SCORE.SYSTEM.norm>
0

>  <SCORE.heavy>
31

>  <SCORE.norm>
-0.182424

>  <RMSD>
25.212

$$$$
ligand
 OpenBabel11021811473D
libRbt.so/2013.1/901 2013/11/27
 31 33  0  0  0  0  0  0  0  0999 V2000
    5.0750   -9.4653    6.2333 C   0  0  0  0  0  0  0  0  0  0  0  0
    9.1880   -4.5688    0.1375 N   0  0  0  0  0  0  0  0  0  0  0  0
    5.3272  -10.5184    7.1693 O   0  0  0  0  0  0  0  0  0  0  0  0
    5.0745  -10.0173    4.8056 C   0  0  1  0  0  0  0  0  0  0  0  0
    6.5545   -7.8686   -2.3283 N   0  0  0  0  0  0  0  0  0  0  0  0
    4.8278   -8.9559    3.8627 O   0  0  0  0  0  0  0  0  0  0  0  0
    5.8910   -8.9474    2.8935 C   0  0  1  0  0  0  0  0  0  0  0  0
    7.4515   -9.9461   -4.2597 N   0  0  0  0  0  0  0  0  0  0  0  0
    6.1837   -7.6173    2.4373 O   0  0  0  0  0  0  0  0  0  0  0  0
    7.1876   -7.5653    1.4129 C   0  0  2  0  0  0  0  0  0  0  0  0
    4.4045  -10.9550    1.3492 N   0  0  0  0  0  0  0  0  0  0  0  0
    8.3718   -5.7911    2.5497 O   0  0  0  0  0  0  0  0  0  0  0  0
    7.6867   -6.1177    1.3375 C   0  0  1  0  0  0  0  0  0  0  0  0
    6.3487   -9.4397    0.0476 O   0  0  0  0  0  0  0  0  0  0  0  0
    8.6401   -5.9337    0.1551 C   0  0  1  0  0  0  0  0  0  0  0  0
    5.5467  -10.0614   -2.0757 O   0  0  0  0  0  0  0  0  0  0  0  0
    7.8855   -6.2130   -1.1449 C   0  0  0  0  0  0  0  0  0  0  0  0
    7.0425  -13.4097   -1.9096 O   0  0  0  0  0  0  0  0  0  0  0  0
    7.3985   -7.6650   -1.1410 C   0  0  1  0  0  0  0  0  0  0  0  0
    5.0189  -13.5231    0.1292 O   0  0  0  0  0  0  0  0  0  0  0  0
    6.5641   -8.0183    0.0962 C   0  0  2  0  0  0  0  0  0  0  0  0
    8.1368   -9.9535    2.8495 O   0  0  0  0  0  0  0  0  0  0  0  0
    5.1906   -9.8478   -0.6972 C   0  0  1  0  0  0  0  0  0  0  0  0
    6.3575  -11.7521    3.6222 O   0  0  0  0  0  0  0  0  0  0  0  0
    6.5469  -11.0745   -2.2764 C   0  0  2  0  0  0  0  0  0  0  0  0
    6.8452  -11.1955   -3.7727 C   0  0  0  0  0  0  0  0  0  0  0  0
    6.0221  -12.4181   -1.7668 C   0  0  2  0  0  0  0  0  0  0  0  0
    5.6336  -12.3006   -0.2915 C   0  0  1  0  0  0  0  0  0  0  0  0
    4.6492  -11.1458   -0.0887 C   0  0  1  0  0  0  0  0  0  0  0  0
    7.0907   -9.4583    3.6886 C   0  0  2  0  0  0  0  0  0  0  0  0
    6.4487  -10.6025    4.4675 C   0  0  1  0  0  0  0  0  0  0  0  0
  1  3  1  0  0  0  0
  4  1  1  1  0  0  0
  4  6  1  0  0  0  0
  4 31  1  0  0  0  0
  6  7  1  0  0  0  0
  7  9  1  1  0  0  0
  7 30  1  0  0  0  0
  8 26  1  0  0  0  0
 10  9  1  1  0  0  0
 10 13  1  0  0  0  0
 10 21  1  0  0  0  0
 13 12  1  1  0  0  0
 13 15  1  0  0  0  0
 15  2  1  6  0  0  0
 15 17  1  0  0  0  0
 16 25  1  0  0  0  0
 16 23  1  0  0  0  0
 17 19  1  0  0  0  0
 19  5  1  6  0  0  0
 19 21  1  0  0  0  0
 21 14  1  1  0  0  0
 23 14  1  1  0  0  0
 23 29  1  0  0  0  0
 25 26  1  6  0  0  0
 25 27  1  0  0  0  0
 27 18  1  1  0  0  0
 27 28  1  0  0  0  0
 28 20  1  6  0  0  0
 28 29  1  0  0  0  0
 29 11  1  1  0  0  0
 30 22  1  6  0  0  0
 30 31  1  0  0  0  0
 31 24  1  6  0  0  0
M  END
>  <CHROM.1>
-179.69127102,-176.69477125,-163.21926534,89.97975090,146.69114773,65.01259625
6.46493808,-9.46292773,0.93079209,1.82077700,1.16554644,1.22064251

>  <Name>
ligand

>  <RI>
0

>  <Rbt.Current_Directory>
/home/itssahil/PROJECTS/Mol_Feturizer/New_Systems/rnas/3DVV

>  <Rbt.Executable>
rbdock ($Id: //depot/dev/client3/rdock/2013.1/src/exe/rbdock.cxx#4 $)

>  <Rbt.Library>
libRbt.so (2013.1, Build901 2013/11/27)

>  <Rbt.Parameter_File>
/export/apps/rDock/src/rDock_2013.1_src/data/scripts/dock_solv.prm

>  <Rbt.Receptor>
prm/blind_docking_20.prm

>  <SCORE>
-0.929311

>  <SCORE.INTER>
-4.24914

>  <SCORE.INTER.CONST>
1

>  <SCORE.INTER.POLAR>
0

>  <SCORE.INTER.ROT>
6

>  <SCORE.INTER.SOLV>
15.9006

>  <SCORE.INTER.VDW>
-15.7329

>  <SCORE.INTER.norm>
-0.137069

>  <SCORE.INTRA>
3.30715

>  <SCORE.INTRA.DIHEDRAL>
-1.39522

>  <SCORE.INTRA.DIHEDRAL.0>
10.8172

>  <SCORE.INTRA.POLAR>
0

>  <SCORE.INTRA.POLAR.0>
0

>  <SCORE.INTRA.REPUL>
0

>  <SCORE.INTRA.REPUL.0>
0

>  <SCORE.INTRA.SOLV>
4.83476

>  <SCORE.INTRA.SOLV.lig_0>
-80.3833

>  <SCORE.INTRA.VDW>
1.58738

>  <SCORE.INTRA.VDW.0>
-4.63762

>  <SCORE.INTRA.norm>
0.106682

>  <SCORE.RESTR>
0.0126769

>  <SCORE.RESTR.CAVITY>
0.0126769

>  <SCORE.RESTR.norm>
0.000408932

>  <SCORE.SYSTEM>
0

>  <SCORE.SYSTEM.CONST>
0

>  <SCORE.SYSTEM.DIHEDRAL>
0

>  <SCORE.SYSTEM.SOLV>
0

>  <SCORE.SYSTEM.norm>
0

>  <SCORE.heavy>
31

>  <SCORE.norm>
-0.0299778

>  <RMSD>
25.262

$$$$
ligand
 OpenBabel11021811473D
libRbt.so/2013.1/901 2013/11/27
 31 33  0  0  0  0  0  0  0  0999 V2000
    6.9817  -13.9752   -1.1925 C   0  0  0  0  0  0  0  0  0  0  0  0
    8.2531  -11.5727    3.9799 N   0  0  0  0  0  0  0  0  0  0  0  0
    6.5249  -15.0119   -2.0675 O   0  0  0  0  0  0  0  0  0  0  0  0
    6.1477  -12.7078   -1.3958 C   0  0  1  0  0  0  0  0  0  0  0  0
    4.2037   -9.3060    2.4412 N   0  0  0  0  0  0  0  0  0  0  0  0
    6.5420  -11.6965   -0.4480 O   0  0  0  0  0  0  0  0  0  0  0  0
    6.8834  -10.4999   -1.1700 C   0  0  1  0  0  0  0  0  0  0  0  0
   10.2285   -7.6384    0.5135 N   0  0  0  0  0  0  0  0  0  0  0  0
    7.9355   -9.7690   -0.5204 O   0  0  0  0  0  0  0  0  0  0  0  0
    7.6598   -9.4567    0.8531 C   0  0  2  0  0  0  0  0  0  0  0  0
    4.0065   -5.7723    0.4893 N   0  0  0  0  0  0  0  0  0  0  0  0
    9.5555  -10.7498    1.6124 O   0  0  0  0  0  0  0  0  0  0  0  0
    8.1313  -10.6484    1.6944 C   0  0  1  0  0  0  0  0  0  0  0  0
    5.7492   -7.9478    0.4607 O   0  0  0  0  0  0  0  0  0  0  0  0
    7.7225  -10.4741    3.1584 C   0  0  1  0  0  0  0  0  0  0  0  0
    7.5279   -6.6545    1.2983 O   0  0  0  0  0  0  0  0  0  0  0  0
    6.1968  -10.4389    3.2517 C   0  0  0  0  0  0  0  0  0  0  0  0
    8.1532   -5.0165   -1.9269 O   0  0  0  0  0  0  0  0  0  0  0  0
    5.6728   -9.2374    2.4595 C   0  0  1  0  0  0  0  0  0  0  0  0
    5.5735   -3.9853   -1.1875 O   0  0  0  0  0  0  0  0  0  0  0  0
    6.1614   -9.2133    1.0061 C   0  0  2  0  0  0  0  0  0  0  0  0
    7.4026  -10.0503   -3.5336 O   0  0  0  0  0  0  0  0  0  0  0  0
    6.0968   -6.8061    1.2597 C   0  0  1  0  0  0  0  0  0  0  0  0
    5.2247  -11.5413   -3.3561 O   0  0  0  0  0  0  0  0  0  0  0  0
    8.1353   -6.4592    0.0098 C   0  0  2  0  0  0  0  0  0  0  0  0
    9.6500   -6.3258    0.1844 C   0  0  0  0  0  0  0  0  0  0  0  0
    7.5951   -5.1739   -0.6197 C   0  0  2  0  0  0  0  0  0  0  0  0
    6.0704   -5.2459   -0.7258 C   0  0  1  0  0  0  0  0  0  0  0  0
    5.4543   -5.5606    0.6399 C   0  0  1  0  0  0  0  0  0  0  0  0
    7.4176  -11.0347   -2.4971 C   0  0  2  0  0  0  0  0  0  0  0  0
    6.3986  -12.1314   -2.7921 C   0  0  1  0  0  0  0  0  0  0  0  0
  1  3  1  0  0  0  0
  4  1  1  1  0  0  0
  4  6  1  0  0  0  0
  4 31  1  0  0  0  0
  6  7  1  0  0  0  0
  7  9  1  1  0  0  0
  7 30  1  0  0  0  0
  8 26  1  0  0  0  0
 10  9  1  6  0  0  0
 10 13  1  0  0  0  0
 10 21  1  0  0  0  0
 13 12  1  1  0  0  0
 13 15  1  0  0  0  0
 15  2  1  1  0  0  0
 15 17  1  0  0  0  0
 16 25  1  0  0  0  0
 16 23  1  0  0  0  0
 17 19  1  0  0  0  0
 19  5  1  6  0  0  0
 19 21  1  0  0  0  0
 21 14  1  1  0  0  0
 23 14  1  6  0  0  0
 23 29  1  0  0  0  0
 25 26  1  1  0  0  0
 25 27  1  0  0  0  0
 27 18  1  6  0  0  0
 27 28  1  0  0  0  0
 28 20  1  1  0  0  0
 28 29  1  0  0  0  0
 29 11  1  6  0  0  0
 30 22  1  6  0  0  0
 30 31  1  0  0  0  0
 31 24  1  1  0  0  0
M  END
>  <CHROM.1>
175.80237847,-54.48278060,87.26691564,66.20820898,-75.07717784,72.61633686
6.95097633,-9.11281440,0.01189908,1.51076509,1.41581688,-2.94149726

>  <Name>
ligand

>  <RI>
0

>  <Rbt.Current_Directory>
/home/itssahil/PROJECTS/Mol_Feturizer/New_Systems/rnas/3DVV

>  <Rbt.Executable>
rbdock ($Id: //depot/dev/client3/rdock/2013.1/src/exe/rbdock.cxx#4 $)

>  <Rbt.Library>
libRbt.so (2013.1, Build901 2013/11/27)

>  <Rbt.Parameter_File>
/export/apps/rDock/src/rDock_2013.1_src/data/scripts/dock_solv.prm

>  <Rbt.Receptor>
prm/blind_docking_80.prm

>  <SCORE>
2.29028

>  <SCORE.INTER>
-0.838186

>  <SCORE.INTER.CONST>
1

>  <SCORE.INTER.POLAR>
0

>  <SCORE.INTER.ROT>
6

>  <SCORE.INTER.SOLV>
15.0419

>  <SCORE.INTER.VDW>
-13.1728

>  <SCORE.INTER.norm>
-0.0270382

>  <SCORE.INTRA>
2.60895

>  <SCORE.INTRA.DIHEDRAL>
-5.4746

>  <SCORE.INTRA.DIHEDRAL.0>
10.8172

>  <SCORE.INTRA.POLAR>
0

>  <SCORE.INTRA.POLAR.0>
0

>  <SCORE.INTRA.REPUL>
0

>  <SCORE.INTRA.REPUL.0>
0

>  <SCORE.INTRA.SOLV>
-0.498248

>  <SCORE.INTRA.SOLV.lig_0>
-80.3833

>  <SCORE.INTRA.VDW>
5.59537

>  <SCORE.INTRA.VDW.0>
-4.63762

>  <SCORE.INTRA.norm>
0.0841597

>  <SCORE.RESTR>
0.519519

>  <SCORE.RESTR.CAVITY>
0.519519

>  <SCORE.RESTR.norm>
0.0167587

>  <SCORE.SYSTEM>
0

>  <SCORE.SYSTEM.CONST>
0

>  <SCORE.SYSTEM.DIHEDRAL>
0

>  <SCORE.SYSTEM.SOLV>
0

>  <SCORE.SYSTEM.norm>
0

>  <SCORE.heavy>
31

>  <SCORE.norm>
0.0738802

>  <RMSD>
25.285

$$$$
ligand
 OpenBabel11021811473D
libRbt.so/2013.1/901 2013/11/27
 31 33  0  0  0  0  0  0  0  0999 V2000
    7.1406  -11.0456    4.9455 C   0  0  0  0  0  0  0  0  0  0  0  0
    6.1424  -13.6906   -3.3983 N   0  0  0  0  0  0  0  0  0  0  0  0
    6.3185  -11.0443    6.1172 O   0  0  0  0  0  0  0  0  0  0  0  0
    6.6427   -9.9942    3.9506 C   0  0  1  0  0  0  0  0  0  0  0  0
    6.6485   -8.8341   -3.6461 N   0  0  0  0  0  0  0  0  0  0  0  0
    7.3931  -10.0771    2.7232 O   0  0  0  0  0  0  0  0  0  0  0  0
    6.4699  -10.2362    1.6314 C   0  0  1  0  0  0  0  0  0  0  0  0
    4.5119   -3.9329   -1.4309 N   0  0  0  0  0  0  0  0  0  0  0  0
    7.0222  -11.0466    0.5820 O   0  0  0  0  0  0  0  0  0  0  0  0
    6.2167  -11.0828   -0.6053 C   0  0  2  0  0  0  0  0  0  0  0  0
    8.4933   -8.1436    0.1348 N   0  0  0  0  0  0  0  0  0  0  0  0
    6.1435  -13.4987   -0.5802 O   0  0  0  0  0  0  0  0  0  0  0  0
    6.5676  -12.3736   -1.3545 C   0  0  1  0  0  0  0  0  0  0  0  0
    5.9479   -8.6474   -0.8839 O   0  0  0  0  0  0  0  0  0  0  0  0
    5.8777  -12.4129   -2.7195 C   0  0  1  0  0  0  0  0  0  0  0  0
    5.6311   -6.3893   -1.4661 O   0  0  0  0  0  0  0  0  0  0  0  0
    6.3872  -11.2505   -3.5720 C   0  0  0  0  0  0  0  0  0  0  0  0
    4.9769   -5.3543    1.9947 O   0  0  0  0  0  0  0  0  0  0  0  0
    6.0248   -9.9291   -2.8877 C   0  0  1  0  0  0  0  0  0  0  0  0
    7.7491   -6.1110    2.0779 O   0  0  0  0  0  0  0  0  0  0  0  0
    6.5229   -9.8428   -1.4399 C   0  0  2  0  0  0  0  0  0  0  0  0
    4.0983  -10.8840    1.5130 O   0  0  0  0  0  0  0  0  0  0  0  0
    6.6062   -7.4292   -1.2652 C   0  0  1  0  0  0  0  0  0  0  0  0
    4.4402   -9.0509    3.3893 O   0  0  0  0  0  0  0  0  0  0  0  0
    4.8422   -6.0876   -0.3025 C   0  0  2  0  0  0  0  0  0  0  0  0
    3.8409   -4.9829   -0.6481 C   0  0  0  0  0  0  0  0  0  0  0  0
    5.7564   -5.5928    0.8198 C   0  0  2  0  0  0  0  0  0  0  0  0
    6.8236   -6.6458    1.1257 C   0  0  1  0  0  0  0  0  0  0  0  0
    7.5781   -7.0280   -0.1504 C   0  0  1  0  0  0  0  0  0  0  0  0
    5.3080  -10.9974    2.2663 C   0  0  2  0  0  0  0  0  0  0  0  0
    5.1769  -10.2589    3.5950 C   0  0  1  0  0  0  0  0  0  0  0  0
  1  3  1  0  0  0  0
  4  1  1  1  0  0  0
  4  6  1  0  0  0  0
  4 31  1  0  0  0  0
  6  7  1  0  0  0  0
  7  9  1  6  0  0  0
  7 30  1  0  0  0  0
  8 26  1  0  0  0  0
 10  9  1  1  0  0  0
 10 13  1  0  0  0  0
 10 21  1  0  0  0  0
 13 12  1  1  0  0  0
 13 15  1  0  0  0  0
 15  2  1  6  0  0  0
 15 17  1  0  0  0  0
 16 25  1  0  0  0  0
 16 23  1  0  0  0  0
 17 19  1  0  0  0  0
 19  5  1  6  0  0  0
 19 21  1  0  0  0  0
 21 14  1  1  0  0  0
 23 14  1  1  0  0  0
 23 29  1  0  0  0  0
 25 26  1  6  0  0  0
 25 27  1  0  0  0  0
 27 18  1  1  0  0  0
 27 28  1  0  0  0  0
 28 20  1  1  0  0  0
 28 29  1  0  0  0  0
 29 11  1  1  0  0  0
 30 22  1  6  0  0  0
 30 31  1  0  0  0  0
 31 24  1  6  0  0  0
M  END
>  <CHROM.1>
-174.82614520,-171.84831024,-156.32704983,142.20855966,155.96509343,-43.86995658
6.09822213,-9.15645837,0.39853111,-0.27810216,-1.46689967,1.43720742

>  <Name>
ligand

>  <RI>
0

>  <Rbt.Current_Directory>
/home/itssahil/PROJECTS/Mol_Feturizer/New_Systems/rnas/3DVV

>  <Rbt.Executable>
rbdock ($Id: //depot/dev/client3/rdock/2013.1/src/exe/rbdock.cxx#4 $)

>  <Rbt.Library>
libRbt.so (2013.1, Build901 2013/11/27)

>  <Rbt.Parameter_File>
/export/apps/rDock/src/rDock_2013.1_src/data/scripts/dock_solv.prm

>  <Rbt.Receptor>
prm/blind_docking_60.prm

>  <SCORE>
-2.51109

>  <SCORE.INTER>
-4.97692

>  <SCORE.INTER.CONST>
1

>  <SCORE.INTER.POLAR>
0

>  <SCORE.INTER.ROT>
6

>  <SCORE.INTER.SOLV>
18.5398

>  <SCORE.INTER.VDW>
-17.0979

>  <SCORE.INTER.norm>
-0.160546

>  <SCORE.INTRA>
2.46462

>  <SCORE.INTRA.DIHEDRAL>
0.636138

>  <SCORE.INTRA.DIHEDRAL.0>
10.8172

>  <SCORE.INTRA.POLAR>
0

>  <SCORE.INTRA.POLAR.0>
0

>  <SCORE.INTRA.REPUL>
0

>  <SCORE.INTRA.REPUL.0>
0

>  <SCORE.INTRA.SOLV>
1.54499

>  <SCORE.INTRA.SOLV.lig_0>
-80.3833

>  <SCORE.INTRA.VDW>
1.37406

>  <SCORE.INTRA.VDW.0>
-4.63762

>  <SCORE.INTRA.norm>
0.0795039

>  <SCORE.RESTR>
0.00120385

>  <SCORE.RESTR.CAVITY>
0.00120385

>  <SCORE.RESTR.norm>
3.88338e-05

>  <SCORE.SYSTEM>
0

>  <SCORE.SYSTEM.CONST>
0

>  <SCORE.SYSTEM.DIHEDRAL>
0

>  <SCORE.SYSTEM.SOLV>
0

>  <SCORE.SYSTEM.norm>
0

>  <SCORE.heavy>
31

>  <SCORE.norm>
-0.081003

>  <RMSD>
25.328

$$$$
ligand
 OpenBabel11021811473D
libRbt.so/2013.1/901 2013/11/27
 31 33  0  0  0  0  0  0  0  0999 V2000
    3.0309   -8.9132    2.4393 C   0  0  0  0  0  0  0  0  0  0  0  0
    5.8179  -13.8509   -3.3024 N   0  0  0  0  0  0  0  0  0  0  0  0
    4.1503   -8.0312    2.3056 O   0  0  0  0  0  0  0  0  0  0  0  0
    3.4943  -10.3699    2.3582 C   0  0  1  0  0  0  0  0  0  0  0  0
    7.6769   -9.3887   -4.0345 N   0  0  0  0  0  0  0  0  0  0  0  0
    4.1544  -10.6118    1.1003 O   0  0  0  0  0  0  0  0  0  0  0  0
    5.4589  -11.1579    1.3648 C   0  0  1  0  0  0  0  0  0  0  0  0
   10.4454   -6.3403    0.4923 N   0  0  0  0  0  0  0  0  0  0  0  0
    6.4192  -10.7406    0.3816 O   0  0  0  0  0  0  0  0  0  0  0  0
    5.9394  -10.8270   -0.9683 C   0  0  2  0  0  0  0  0  0  0  0  0
    4.5338   -6.8894   -0.3582 N   0  0  0  0  0  0  0  0  0  0  0  0
    5.2044  -13.1072   -0.6474 O   0  0  0  0  0  0  0  0  0  0  0  0
    6.0908  -12.2864   -1.4128 C   0  0  1  0  0  0  0  0  0  0  0  0
    6.4210   -8.5004   -1.6285 O   0  0  0  0  0  0  0  0  0  0  0  0
    5.7600  -12.4377   -2.8989 C   0  0  1  0  0  0  0  0  0  0  0  0
    8.1417   -7.7776   -0.1949 O   0  0  0  0  0  0  0  0  0  0  0  0
    6.7547  -11.6165   -3.7197 C   0  0  0  0  0  0  0  0  0  0  0  0
    8.5018   -4.5411   -1.8896 O   0  0  0  0  0  0  0  0  0  0  0  0
    6.6164  -10.1382   -3.3441 C   0  0  1  0  0  0  0  0  0  0  0  0
    5.8932   -4.3404   -0.6981 O   0  0  0  0  0  0  0  0  0  0  0  0
    6.7616   -9.8818   -1.8391 C   0  0  2  0  0  0  0  0  0  0  0  0
    6.8707  -11.2446    3.3790 O   0  0  0  0  0  0  0  0  0  0  0  0
    6.7244   -7.9988   -0.3173 C   0  0  1  0  0  0  0  0  0  0  0  0
    4.4028  -11.9878    3.9746 O   0  0  0  0  0  0  0  0  0  0  0  0
    8.6740   -6.8290   -1.1351 C   0  0  2  0  0  0  0  0  0  0  0  0
   10.1821   -6.6936   -0.9118 C   0  0  0  0  0  0  0  0  0  0  0  0
    8.0169   -5.4656   -0.9122 C   0  0  2  0  0  0  0  0  0  0  0  0
    6.4977   -5.5910   -1.0442 C   0  0  1  0  0  0  0  0  0  0  0  0
    5.9687   -6.6821   -0.1096 C   0  0  1  0  0  0  0  0  0  0  0  0
    5.8355  -10.5266    2.7035 C   0  0  2  0  0  0  0  0  0  0  0  0
    4.5173  -10.6585    3.4605 C   0  0  1  0  0  0  0  0  0  0  0  0
  1  3  1  0  0  0  0
  4  1  1  6  0  0  0
  4  6  1  0  0  0  0
  4 31  1  0  0  0  0
  6  7  1  0  0  0  0
  7  9  1  6  0  0  0
  7 30  1  0  0  0  0
  8 26  1  0  0  0  0
 10  9  1  1  0  0  0
 10 13  1  0  0  0  0
 10 21  1  0  0  0  0
 13 12  1  1  0  0  0
 13 15  1  0  0  0  0
 15  2  1  6  0  0  0
 15 17  1  0  0  0  0
 16 25  1  0  0  0  0
 16 23  1  0  0  0  0
 17 19  1  0  0  0  0
 19  5  1  6  0  0  0
 19 21  1  0  0  0  0
 21 14  1  6  0  0  0
 23 14  1  6  0  0  0
 23 29  1  0  0  0  0
 25 26  1  1  0  0  0
 25 27  1  0  0  0  0
 27 18  1  6  0  0  0
 27 28  1  0  0  0  0
 28 20  1  1  0  0  0
 28 29  1  0  0  0  0
 29 11  1  6  0  0  0
 30 22  1  1  0  0  0
 30 31  1  0  0  0  0
 31 24  1  6  0  0  0
M  END
>  <CHROM.1>
-58.90467830,-44.90654226,-81.33405281,75.39801612,65.20011835,-55.04884390
6.28041962,-9.19751474,-0.19896992,2.64232431,-1.03429436,-2.52301198

>  <Name>
ligand

>  <RI>
0

>  <Rbt.Current_Directory>
/home/itssahil/PROJECTS/Mol_Feturizer/New_Systems/rnas/3DVV

>  <Rbt.Executable>
rbdock ($Id: //depot/dev/client3/rdock/2013.1/src/exe/rbdock.cxx#4 $)

>  <Rbt.Library>
libRbt.so (2013.1, Build901 2013/11/27)

>  <Rbt.Parameter_File>
/export/apps/rDock/src/rDock_2013.1_src/data/scripts/dock_solv.prm

>  <Rbt.Receptor>
prm/blind_docking_20.prm

>  <SCORE>
-3.24496

>  <SCORE.INTER>
-2.35542

>  <SCORE.INTER.CONST>
1

>  <SCORE.INTER.POLAR>
0

>  <SCORE.INTER.ROT>
6

>  <SCORE.INTER.SOLV>
13.8333

>  <SCORE.INTER.VDW>
-13.7814

>  <SCORE.INTER.norm>
-0.0759813

>  <SCORE.INTRA>
-1.64729

>  <SCORE.INTRA.DIHEDRAL>
-6.17203

>  <SCORE.INTRA.DIHEDRAL.0>
10.8172

>  <SCORE.INTRA.POLAR>
0

>  <SCORE.INTRA.POLAR.0>
0

>  <SCORE.INTRA.REPUL>
0

>  <SCORE.INTRA.REPUL.0>
0

>  <SCORE.INTRA.SOLV>
-0.407521

>  <SCORE.INTRA.SOLV.lig_0>
-80.3833

>  <SCORE.INTRA.VDW>
1.64248

>  <SCORE.INTRA.VDW.0>
-4.63762

>  <SCORE.INTRA.norm>
-0.0531385

>  <SCORE.RESTR>
0.757749

>  <SCORE.RESTR.CAVITY>
0.757749

>  <SCORE.RESTR.norm>
0.0244435

>  <SCORE.SYSTEM>
0

>  <SCORE.SYSTEM.CONST>
0

>  <SCORE.SYSTEM.DIHEDRAL>
0

>  <SCORE.SYSTEM.SOLV>
0

>  <SCORE.SYSTEM.norm>
0

>  <SCORE.heavy>
31

>  <SCORE.norm>
-0.104676

>  <RMSD>
25.433

$$$$
ligand
 OpenBabel11021811473D
libRbt.so/2013.1/901 2013/11/27
 31 33  0  0  0  0  0  0  0  0999 V2000
    9.2525   -2.9578   -0.4703 C   0  0  0  0  0  0  0  0  0  0  0  0
    3.6733   -4.4126    0.9783 N   0  0  0  0  0  0  0  0  0  0  0  0
    8.9016   -3.0127   -1.8569 O   0  0  0  0  0  0  0  0  0  0  0  0
    9.2869   -4.3691    0.1215 C   0  0  1  0  0  0  0  0  0  0  0  0
    5.5393   -8.7116    2.3713 N   0  0  0  0  0  0  0  0  0  0  0  0
    8.0149   -5.0188   -0.0695 O   0  0  0  0  0  0  0  0  0  0  0  0
    8.2365   -6.2718   -0.7409 C   0  0  1  0  0  0  0  0  0  0  0  0
    7.6174   -9.7459   -4.5754 N   0  0  0  0  0  0  0  0  0  0  0  0
    7.1473   -6.6062   -1.6154 O   0  0  0  0  0  0  0  0  0  0  0  0
    5.9107   -6.8536   -0.9302 C   0  0  2  0  0  0  0  0  0  0  0  0
    4.4349  -10.7985    0.9317 N   0  0  0  0  0  0  0  0  0  0  0  0
    5.0815   -4.6456   -1.4592 O   0  0  0  0  0  0  0  0  0  0  0  0
    5.4223   -5.5114   -0.3731 C   0  0  1  0  0  0  0  0  0  0  0  0
    6.3458   -9.2039   -0.3237 O   0  0  0  0  0  0  0  0  0  0  0  0
    4.1943   -5.7087    0.5179 C   0  0  1  0  0  0  0  0  0  0  0  0
    5.6897   -9.9365   -2.4616 O   0  0  0  0  0  0  0  0  0  0  0  0
    4.5796   -6.5752    1.7172 C   0  0  0  0  0  0  0  0  0  0  0  0
    7.3761  -13.1788   -2.1158 O   0  0  0  0  0  0  0  0  0  0  0  0
    5.0376   -7.9488    1.2182 C   0  0  1  0  0  0  0  0  0  0  0  0
    5.2641  -13.3580   -0.1736 O   0  0  0  0  0  0  0  0  0  0  0  0
    6.1635   -7.8690    0.1801 C   0  0  2  0  0  0  0  0  0  0  0  0
   10.1387   -7.1921   -2.0028 O   0  0  0  0  0  0  0  0  0  0  0  0
    5.2531   -9.7051   -1.1095 C   0  0  1  0  0  0  0  0  0  0  0  0
   10.9886   -6.1404    0.2709 O   0  0  0  0  0  0  0  0  0  0  0  0
    6.7584  -10.8909   -2.5813 C   0  0  2  0  0  0  0  0  0  0  0  0
    7.1376  -11.0369   -4.0569 C   0  0  0  0  0  0  0  0  0  0  0  0
    6.2914  -12.2489   -2.0541 C   0  0  2  0  0  0  0  0  0  0  0  0
    5.8237  -12.1126   -0.6037 C   0  0  1  0  0  0  0  0  0  0  0  0
    4.7620  -11.0159   -0.4858 C   0  0  1  0  0  0  0  0  0  0  0  0
    9.4719   -5.9951   -1.5951 C   0  0  2  0  0  0  0  0  0  0  0  0
   10.3341   -5.2185   -0.6044 C   0  0  1  0  0  0  0  0  0  0  0  0
  1  3  1  0  0  0  0
  4  1  1  6  0  0  0
  4  6  1  0  0  0  0
  4 31  1  0  0  0  0
  6  7  1  0  0  0  0
  7  9  1  6  0  0  0
  7 30  1  0  0  0  0
  8 26  1  0  0  0  0
 10  9  1  1  0  0  0
 10 13  1  0  0  0  0
 10 21  1  0  0  0  0
 13 12  1  6  0  0  0
 13 15  1  0  0  0  0
 15  2  1  1  0  0  0
 15 17  1  0  0  0  0
 16 25  1  0  0  0  0
 16 23  1  0  0  0  0
 17 19  1  0  0  0  0
 19  5  1  1  0  0  0
 19 21  1  0  0  0  0
 21 14  1  6  0  0  0
 23 14  1  1  0  0  0
 23 29  1  0  0  0  0
 25 26  1  6  0  0  0
 25 27  1  0  0  0  0
 27 18  1  1  0  0  0
 27 28  1  0  0  0  0
 28 20  1  6  0  0  0
 28 29  1  0  0  0  0
 29 11  1  1  0  0  0
 30 22  1  1  0  0  0
 30 31  1  0  0  0  0
 31 24  1  1  0  0  0
M  END
>  <CHROM.1>
-56.92550021,-65.36743824,69.70438936,115.99890878,-57.31036406,61.75292586
6.81519845,-7.87350887,-0.79512145,-1.20030639,-0.53435433,-2.83015810

>  <Name>
ligand

>  <RI>
0

>  <Rbt.Current_Directory>
/home/itssahil/PROJECTS/Mol_Feturizer/New_Systems/rnas/3DVV

>  <Rbt.Executable>
rbdock ($Id: //depot/dev/client3/rdock/2013.1/src/exe/rbdock.cxx#4 $)

>  <Rbt.Library>
libRbt.so (2013.1, Build901 2013/11/27)

>  <Rbt.Parameter_File>
/export/apps/rDock/src/rDock_2013.1_src/data/scripts/dock_solv.prm

>  <Rbt.Receptor>
prm/blind_docking_40.prm

>  <SCORE>
-1.92599

>  <SCORE.INTER>
-4.77512

>  <SCORE.INTER.CONST>
1

>  <SCORE.INTER.POLAR>
0

>  <SCORE.INTER.ROT>
6

>  <SCORE.INTER.SOLV>
18.8612

>  <SCORE.INTER.VDW>
-17.0705

>  <SCORE.INTER.norm>
-0.154036

>  <SCORE.INTRA>
2.84913

>  <SCORE.INTRA.DIHEDRAL>
-2.75068

>  <SCORE.INTRA.DIHEDRAL.0>
10.8172

>  <SCORE.INTRA.POLAR>
0

>  <SCORE.INTRA.POLAR.0>
0

>  <SCORE.INTRA.REPUL>
0

>  <SCORE.INTRA.REPUL.0>
0

>  <SCORE.INTRA.SOLV>
-0.279541

>  <SCORE.INTRA.SOLV.lig_0>
-80.3833

>  <SCORE.INTRA.VDW>
4.36424

>  <SCORE.INTRA.VDW.0>
-4.63762

>  <SCORE.INTRA.norm>
0.0919075

>  <SCORE.RESTR>
0

>  <SCORE.RESTR.CAVITY>
0

>  <SCORE.RESTR.norm>
0

>  <SCORE.SYSTEM>
0

>  <SCORE.SYSTEM.CONST>
0

>  <SCORE.SYSTEM.DIHEDRAL>
0

>  <SCORE.SYSTEM.SOLV>
0

>  <SCORE.SYSTEM.norm>
0

>  <SCORE.heavy>
31

>  <SCORE.norm>
-0.0621287

>  <RMSD>
25.514

$$$$
ligand
 OpenBabel11021811473D
libRbt.so/2013.1/901 2013/11/27
 31 33  0  0  0  0  0  0  0  0999 V2000
    6.5200  -11.0028    5.2209 C   0  0  0  0  0  0  0  0  0  0  0  0
    6.4805  -13.3152   -3.3974 N   0  0  0  0  0  0  0  0  0  0  0  0
    5.8734  -11.2798    6.4675 O   0  0  0  0  0  0  0  0  0  0  0  0
    5.5440  -10.3177    4.2610 C   0  0  1  0  0  0  0  0  0  0  0  0
    5.6932   -8.4947   -3.1821 N   0  0  0  0  0  0  0  0  0  0  0  0
    6.2083   -9.9950    3.0237 O   0  0  0  0  0  0  0  0  0  0  0  0
    5.4598  -10.5702    1.9380 C   0  0  1  0  0  0  0  0  0  0  0  0
    8.2462   -5.2680    0.0752 N   0  0  0  0  0  0  0  0  0  0  0  0
    6.3163  -10.9807    0.8606 O   0  0  0  0  0  0  0  0  0  0  0  0
    5.6431  -11.0942   -0.4019 C   0  0  2  0  0  0  0  0  0  0  0  0
    2.9698   -7.8001    1.3925 N   0  0  0  0  0  0  0  0  0  0  0  0
    6.2140  -13.4356   -0.5880 O   0  0  0  0  0  0  0  0  0  0  0  0
    6.3815  -12.1623   -1.2172 C   0  0  1  0  0  0  0  0  0  0  0  0
    4.7581   -8.7947   -0.5005 O   0  0  0  0  0  0  0  0  0  0  0  0
    5.8339  -12.2299   -2.6442 C   0  0  1  0  0  0  0  0  0  0  0  0
    6.4729   -7.3555    0.2250 O   0  0  0  0  0  0  0  0  0  0  0  0
    6.0796  -10.8903   -3.3390 C   0  0  0  0  0  0  0  0  0  0  0  0
    5.0193   -4.4201   -1.4324 O   0  0  0  0  0  0  0  0  0  0  0  0
    5.3271   -9.7888   -2.5867 C   0  0  1  0  0  0  0  0  0  0  0  0
    3.0963   -4.9972    0.6252 O   0  0  0  0  0  0  0  0  0  0  0  0
    5.6715   -9.7344   -1.0933 C   0  0  2  0  0  0  0  0  0  0  0  0
    3.7179  -12.3055    1.8277 O   0  0  0  0  0  0  0  0  0  0  0  0
    5.2857   -8.0675    0.6200 C   0  0  1  0  0  0  0  0  0  0  0  0
    3.1509  -10.5793    3.7503 O   0  0  0  0  0  0  0  0  0  0  0  0
    6.2643   -6.3996   -0.8286 C   0  0  2  0  0  0  0  0  0  0  0  0
    7.5962   -5.7240   -1.1638 C   0  0  0  0  0  0  0  0  0  0  0  0
    5.2727   -5.3327   -0.3609 C   0  0  2  0  0  0  0  0  0  0  0  0
    3.9589   -5.9921    0.0636 C   0  0  1  0  0  0  0  0  0  0  0  0
    4.2206   -7.0800    1.1085 C   0  0  1  0  0  0  0  0  0  0  0  0
    4.8422  -11.8188    2.5642 C   0  0  2  0  0  0  0  0  0  0  0  0
    4.3936  -11.2672    3.9143 C   0  0  1  0  0  0  0  0  0  0  0  0
  1  3  1  0  0  0  0
  4  1  1  1  0  0  0
  4  6  1  0  0  0  0
  4 31  1  0  0  0  0
  6  7  1  0  0  0  0
  7  9  1  6  0  0  0
  7 30  1  0  0  0  0
  8 26  1  0  0  0  0
 10  9  1  1  0  0  0
 10 13  1  0  0  0  0
 10 21  1  0  0  0  0
 13 12  1  1  0  0  0
 13 15  1  0  0  0  0
 15  2  1  6  0  0  0
 15 17  1  0  0  0  0
 16 25  1  0  0  0  0
 16 23  1  0  0  0  0
 17 19  1  0  0  0  0
 19  5  1  6  0  0  0
 19 21  1  0  0  0  0
 21 14  1  1  0  0  0
 23 14  1  6  0  0  0
 23 29  1  0  0  0  0
 25 26  1  1  0  0  0
 25 27  1  0  0  0  0
 27 18  1  6  0  0  0
 27 28  1  0  0  0  0
 28 20  1  1  0  0  0
 28 29  1  0  0  0  0
 29 11  1  6  0  0  0
 30 22  1  6  0  0  0
 30 31  1  0  0  0  0
 31 24  1  6  0  0  0
M  END
>  <CHROM.1>
177.91987023,-158.36182938,-151.15583855,57.74136274,86.15359030,-48.85164323
5.42454616,-9.30761738,0.53613106,1.79340884,-1.38944686,2.71237546

>  <Name>
ligand

>  <RI>
0

>  <Rbt.Current_Directory>
/home/itssahil/PROJECTS/Mol_Feturizer/New_Systems/rnas/3DVV

>  <Rbt.Executable>
rbdock ($Id: //depot/dev/client3/rdock/2013.1/src/exe/rbdock.cxx#4 $)

>  <Rbt.Library>
libRbt.so (2013.1, Build901 2013/11/27)

>  <Rbt.Parameter_File>
/export/apps/rDock/src/rDock_2013.1_src/data/scripts/dock_solv.prm

>  <Rbt.Receptor>
prm/blind_docking_20.prm

>  <SCORE>
-5.88398

>  <SCORE.INTER>
-6.26493

>  <SCORE.INTER.CONST>
1

>  <SCORE.INTER.POLAR>
0

>  <SCORE.INTER.ROT>
6

>  <SCORE.INTER.SOLV>
16.8474

>  <SCORE.INTER.VDW>
-17.3924

>  <SCORE.INTER.norm>
-0.202095

>  <SCORE.INTRA>
0.376449

>  <SCORE.INTRA.DIHEDRAL>
-1.90136

>  <SCORE.INTRA.DIHEDRAL.0>
10.8172

>  <SCORE.INTRA.POLAR>
0

>  <SCORE.INTRA.POLAR.0>
0

>  <SCORE.INTRA.REPUL>
0

>  <SCORE.INTRA.REPUL.0>
0

>  <SCORE.INTRA.SOLV>
-0.105003

>  <SCORE.INTRA.SOLV.lig_0>
-80.3833

>  <SCORE.INTRA.VDW>
1.37963

>  <SCORE.INTRA.VDW.0>
-4.63762

>  <SCORE.INTRA.norm>
0.0121435

>  <SCORE.RESTR>
0.00450799

>  <SCORE.RESTR.CAVITY>
0.00450799

>  <SCORE.RESTR.norm>
0.000145419

>  <SCORE.SYSTEM>
0

>  <SCORE.SYSTEM.CONST>
0

>  <SCORE.SYSTEM.DIHEDRAL>
0

>  <SCORE.SYSTEM.SOLV>
0

>  <SCORE.SYSTEM.norm>
0

>  <SCORE.heavy>
31

>  <SCORE.norm>
-0.189806

>  <RMSD>
25.627

$$$$
ligand
 OpenBabel11021811473D
libRbt.so/2013.1/901 2013/11/27
 31 33  0  0  0  0  0  0  0  0999 V2000
    5.7830  -13.0125   -2.7480 C   0  0  0  0  0  0  0  0  0  0  0  0
    9.5600   -5.2483   -1.6164 N   0  0  0  0  0  0  0  0  0  0  0  0
    6.0312  -13.9877   -3.7660 O   0  0  0  0  0  0  0  0  0  0  0  0
    6.0049  -11.6030   -3.3024 C   0  0  1  0  0  0  0  0  0  0  0  0
    7.2791   -5.9926    2.6436 N   0  0  0  0  0  0  0  0  0  0  0  0
    5.7245  -10.6200   -2.2867 O   0  0  0  0  0  0  0  0  0  0  0  0
    6.8742   -9.7670   -2.1445 C   0  0  1  0  0  0  0  0  0  0  0  0
    8.0827  -10.1382    5.1066 N   0  0  0  0  0  0  0  0  0  0  0  0
    7.0396   -9.3192   -0.7899 O   0  0  0  0  0  0  0  0  0  0  0  0
    6.9791   -7.8929   -0.6409 C   0  0  2  0  0  0  0  0  0  0  0  0
    2.8278   -8.4893    1.6062 N   0  0  0  0  0  0  0  0  0  0  0  0
    8.2818   -7.5465   -2.6473 O   0  0  0  0  0  0  0  0  0  0  0  0
    8.2699   -7.3179   -1.2356 C   0  0  1  0  0  0  0  0  0  0  0  0
    5.5269   -7.8407    1.3514 O   0  0  0  0  0  0  0  0  0  0  0  0
    8.3673   -5.8146   -0.9682 C   0  0  1  0  0  0  0  0  0  0  0  0
    6.2018  -10.0232    1.9167 O   0  0  0  0  0  0  0  0  0  0  0  0
    8.4277   -5.5772    0.5409 C   0  0  0  0  0  0  0  0  0  0  0  0
    5.5419   -9.5429    5.4958 O   0  0  0  0  0  0  0  0  0  0  0  0
    7.1384   -6.0974    1.1833 C   0  0  1  0  0  0  0  0  0  0  0  0
    2.9062   -9.4467    4.3518 O   0  0  0  0  0  0  0  0  0  0  0  0
    6.8433   -7.5632    0.8425 C   0  0  2  0  0  0  0  0  0  0  0  0
    9.2230   -9.9762   -2.8497 O   0  0  0  0  0  0  0  0  0  0  0  0
    5.1541   -9.2276    1.3321 C   0  0  1  0  0  0  0  0  0  0  0  0
    7.6189  -10.5923   -4.8610 O   0  0  0  0  0  0  0  0  0  0  0  0
    6.5000   -9.6931    3.2839 C   0  0  2  0  0  0  0  0  0  0  0  0
    7.6322  -10.5945    3.7820 C   0  0  0  0  0  0  0  0  0  0  0  0
    5.2610   -9.9321    4.1487 C   0  0  2  0  0  0  0  0  0  0  0  0
    4.0872   -9.1067    3.6177 C   0  0  1  0  0  0  0  0  0  0  0  0
    3.8584   -9.3977    2.1322 C   0  0  1  0  0  0  0  0  0  0  0  0
    8.0389  -10.6922   -2.4910 C   0  0  2  0  0  0  0  0  0  0  0  0
    7.4711  -11.4210   -3.7052 C   0  0  1  0  0  0  0  0  0  0  0  0
  1  3  1  0  0  0  0
  4  1  1  1  0  0  0
  4  6  1  0  0  0  0
  4 31  1  0  0  0  0
  6  7  1  0  0  0  0
  7  9  1  1  0  0  0
  7 30  1  0  0  0  0
  8 26  1  0  0  0  0
 10  9  1  1  0  0  0
 10 13  1  0  0  0  0
 10 21  1  0  0  0  0
 13 12  1  6  0  0  0
 13 15  1  0  0  0  0
 15  2  1  6  0  0  0
 15 17  1  0  0  0  0
 16 25  1  0  0  0  0
 16 23  1  0  0  0  0
 17 19  1  0  0  0  0
 19  5  1  1  0  0  0
 19 21  1  0  0  0  0
 21 14  1  6  0  0  0
 23 14  1  1  0  0  0
 23 29  1  0  0  0  0
 25 26  1  1  0  0  0
 25 27  1  0  0  0  0
 27 18  1  1  0  0  0
 27 28  1  0  0  0  0
 28 20  1  1  0  0  0
 28 29  1  0  0  0  0
 29 11  1  6  0  0  0
 30 22  1  6  0  0  0
 30 31  1  0  0  0  0
 31 24  1  6  0  0  0
M  END
>  <CHROM.1>
178.64566132,-119.34204971,-71.89642285,49.21108069,64.60787434,171.68101629
6.59292805,-9.18373369,0.20861233,1.08820060,-0.96965567,-2.20100676

>  <Name>
ligand

>  <RI>
0

>  <Rbt.Current_Directory>
/home/itssahil/PROJECTS/Mol_Feturizer/New_Systems/rnas/3DVV

>  <Rbt.Executable>
rbdock ($Id: //depot/dev/client3/rdock/2013.1/src/exe/rbdock.cxx#4 $)

>  <Rbt.Library>
libRbt.so (2013.1, Build901 2013/11/27)

>  <Rbt.Parameter_File>
/export/apps/rDock/src/rDock_2013.1_src/data/scripts/dock_solv.prm

>  <Rbt.Receptor>
prm/blind_docking_20.prm

>  <SCORE>
-0.886604

>  <SCORE.INTER>
-2.33616

>  <SCORE.INTER.CONST>
1

>  <SCORE.INTER.POLAR>
0

>  <SCORE.INTER.ROT>
6

>  <SCORE.INTER.SOLV>
15.1548

>  <SCORE.INTER.VDW>
-14.209

>  <SCORE.INTER.norm>
-0.0753601

>  <SCORE.INTRA>
0.793607

>  <SCORE.INTRA.DIHEDRAL>
-2.07773

>  <SCORE.INTRA.DIHEDRAL.0>
10.8172

>  <SCORE.INTRA.POLAR>
0

>  <SCORE.INTRA.POLAR.0>
0

>  <SCORE.INTRA.REPUL>
0

>  <SCORE.INTRA.REPUL.0>
0

>  <SCORE.INTRA.SOLV>
-2.62947

>  <SCORE.INTRA.SOLV.lig_0>
-80.3833

>  <SCORE.INTRA.VDW>
3.14721

>  <SCORE.INTRA.VDW.0>
-4.63762

>  <SCORE.INTRA.norm>
0.0256002

>  <SCORE.RESTR>
0.655953

>  <SCORE.RESTR.CAVITY>
0.655953

>  <SCORE.RESTR.norm>
0.0211598

>  <SCORE.SYSTEM>
0

>  <SCORE.SYSTEM.CONST>
0

>  <SCORE.SYSTEM.DIHEDRAL>
0

>  <SCORE.SYSTEM.SOLV>
0

>  <SCORE.SYSTEM.norm>
0

>  <SCORE.heavy>
31

>  <SCORE.norm>
-0.0286001

>  <RMSD>
25.666

$$$$
ligand
 OpenBabel11021811473D
libRbt.so/2013.1/901 2013/11/27
 31 33  0  0  0  0  0  0  0  0999 V2000
    4.0314  -10.0959    4.1894 C   0  0  0  0  0  0  0  0  0  0  0  0
    6.0797  -13.8673   -3.6727 N   0  0  0  0  0  0  0  0  0  0  0  0
    3.0987   -9.3394    4.9682 O   0  0  0  0  0  0  0  0  0  0  0  0
    4.6440   -9.2149    3.0977 C   0  0  1  0  0  0  0  0  0  0  0  0
    7.8476   -9.3096   -3.6016 N   0  0  0  0  0  0  0  0  0  0  0  0
    5.6646   -9.9424    2.3868 O   0  0  0  0  0  0  0  0  0  0  0  0
    5.3587   -9.9064    0.9815 C   0  0  1  0  0  0  0  0  0  0  0  0
    4.1898   -4.6400   -1.7338 N   0  0  0  0  0  0  0  0  0  0  0  0
    5.7708  -11.1111    0.3167 O   0  0  0  0  0  0  0  0  0  0  0  0
    5.5832  -11.0796   -1.1059 C   0  0  2  0  0  0  0  0  0  0  0  0
    8.4839   -9.2112   -0.1208 N   0  0  0  0  0  0  0  0  0  0  0  0
    4.9008  -13.3980   -1.1491 O   0  0  0  0  0  0  0  0  0  0  0  0
    5.8880  -12.4852   -1.6366 C   0  0  1  0  0  0  0  0  0  0  0  0
    6.0854   -8.6888   -1.4419 O   0  0  0  0  0  0  0  0  0  0  0  0
    5.8768  -12.5013   -3.1665 C   0  0  1  0  0  0  0  0  0  0  0  0
    6.5400   -6.3824   -1.5533 O   0  0  0  0  0  0  0  0  0  0  0  0
    6.9812  -11.5801   -3.6852 C   0  0  0  0  0  0  0  0  0  0  0  0
    5.7107   -5.8188    1.9781 O   0  0  0  0  0  0  0  0  0  0  0  0
    6.7025  -10.1487   -3.2172 C   0  0  1  0  0  0  0  0  0  0  0  0
    8.0910   -7.4229    2.1393 O   0  0  0  0  0  0  0  0  0  0  0  0
    6.5237  -10.0345   -1.6984 C   0  0  2  0  0  0  0  0  0  0  0  0
    3.3205   -9.3569   -0.2840 O   0  0  0  0  0  0  0  0  0  0  0  0
    7.1232   -7.6973   -1.4950 C   0  0  1  0  0  0  0  0  0  0  0  0
    3.7652   -7.5095    1.5564 O   0  0  0  0  0  0  0  0  0  0  0  0
    5.7107   -6.0545   -0.4255 C   0  0  2  0  0  0  0  0  0  0  0  0
    5.1434   -4.6453   -0.6130 C   0  0  0  0  0  0  0  0  0  0  0  0
    6.5516   -6.0829    0.8520 C   0  0  2  0  0  0  0  0  0  0  0  0
    7.2021   -7.4579    1.0177 C   0  0  1  0  0  0  0  0  0  0  0  0
    7.9921   -7.8300   -0.2398 C   0  0  1  0  0  0  0  0  0  0  0  0
    3.8330   -9.8423    0.9591 C   0  0  2  0  0  0  0  0  0  0  0  0
    3.5749   -8.8299    2.0711 C   0  0  1  0  0  0  0  0  0  0  0  0
  1  3  1  0  0  0  0
  4  1  1  1  0  0  0
  4  6  1  0  0  0  0
  4 31  1  0  0  0  0
  6  7  1  0  0  0  0
  7  9  1  6  0  0  0
  7 30  1  0  0  0  0
  8 26  1  0  0  0  0
 10  9  1  1  0  0  0
 10 13  1  0  0  0  0
 10 21  1  0  0  0  0
 13 12  1  1  0  0  0
 13 15  1  0  0  0  0
 15  2  1  1  0  0  0
 15 17  1  0  0  0  0
 16 25  1  0  0  0  0
 16 23  1  0  0  0  0
 17 19  1  0  0  0  0
 19  5  1  1  0  0  0
 19 21  1  0  0  0  0
 21 14  1  6  0  0  0
 23 14  1  1  0  0  0
 23 29  1  0  0  0  0
 25 26  1  6  0  0  0
 25 27  1  0  0  0  0
 27 18  1  1  0  0  0
 27 28  1  0  0  0  0
 28 20  1  1  0  0  0
 28 29  1  0  0  0  0
 29 11  1  1  0  0  0
 30 22  1  6  0  0  0
 30 31  1  0  0  0  0
 31 24  1  6  0  0  0
M  END
>  <CHROM.1>
175.13703177,-175.32424521,-172.56245903,165.95744664,157.00128371,68.00615278
5.72532897,-9.06725635,-0.08825762,2.00753223,1.10457994,0.37797869

>  <Name>
ligand

>  <RI>
0

>  <Rbt.Current_Directory>
/home/itssahil/PROJECTS/Mol_Feturizer/New_Systems/rnas/3DVV

>  <Rbt.Executable>
rbdock ($Id: //depot/dev/client3/rdock/2013.1/src/exe/rbdock.cxx#4 $)

>  <Rbt.Library>
libRbt.so (2013.1, Build901 2013/11/27)

>  <Rbt.Parameter_File>
/export/apps/rDock/src/rDock_2013.1_src/data/scripts/dock_solv.prm

>  <Rbt.Receptor>
prm/blind_docking_20.prm

>  <SCORE>
-5.27054

>  <SCORE.INTER>
-4.88576

>  <SCORE.INTER.CONST>
1

>  <SCORE.INTER.POLAR>
0

>  <SCORE.INTER.ROT>
6

>  <SCORE.INTER.SOLV>
16.3931

>  <SCORE.INTER.VDW>
-16.3215

>  <SCORE.INTER.norm>
-0.157605

>  <SCORE.INTRA>
-0.384777

>  <SCORE.INTRA.DIHEDRAL>
-6.68252

>  <SCORE.INTRA.DIHEDRAL.0>
10.8172

>  <SCORE.INTRA.POLAR>
0

>  <SCORE.INTRA.POLAR.0>
0

>  <SCORE.INTRA.REPUL>
0

>  <SCORE.INTRA.REPUL.0>
0

>  <SCORE.INTRA.SOLV>
3.08481

>  <SCORE.INTRA.SOLV.lig_0>
-80.3833

>  <SCORE.INTRA.VDW>
1.41408

>  <SCORE.INTRA.VDW.0>
-4.63762

>  <SCORE.INTRA.norm>
-0.0124122

>  <SCORE.RESTR>
0

>  <SCORE.RESTR.CAVITY>
0

>  <SCORE.RESTR.norm>
0

>  <SCORE.SYSTEM>
0

>  <SCORE.SYSTEM.CONST>
0

>  <SCORE.SYSTEM.DIHEDRAL>
0

>  <SCORE.SYSTEM.SOLV>
0

>  <SCORE.SYSTEM.norm>
0

>  <SCORE.heavy>
31

>  <SCORE.norm>
-0.170017

>  <RMSD>
25.697

$$$$
ligand
 OpenBabel11021811473D
libRbt.so/2013.1/901 2013/11/27
 31 33  0  0  0  0  0  0  0  0999 V2000
    8.4098  -11.6556    4.5143 C   0  0  0  0  0  0  0  0  0  0  0  0
    4.2530   -4.9451    2.1114 N   0  0  0  0  0  0  0  0  0  0  0  0
    9.7904  -11.4203    4.8098 O   0  0  0  0  0  0  0  0  0  0  0  0
    7.6140  -10.3540    4.6403 C   0  0  1  0  0  0  0  0  0  0  0  0
    3.0314   -8.9693   -0.3821 N   0  0  0  0  0  0  0  0  0  0  0  0
    8.0992   -9.3817    3.6939 O   0  0  0  0  0  0  0  0  0  0  0  0
    6.9911   -8.9229    2.8992 C   0  0  1  0  0  0  0  0  0  0  0  0
    4.0680  -14.2948   -0.9852 N   0  0  0  0  0  0  0  0  0  0  0  0
    7.3934   -8.6109    1.5561 O   0  0  0  0  0  0  0  0  0  0  0  0
    6.4439   -7.8072    0.8402 C   0  0  2  0  0  0  0  0  0  0  0  0
    8.0340   -9.3538   -2.5038 N   0  0  0  0  0  0  0  0  0  0  0  0
    6.9174   -5.8771    2.2162 O   0  0  0  0  0  0  0  0  0  0  0  0
    5.8788   -6.7809    1.8291 C   0  0  1  0  0  0  0  0  0  0  0  0
    5.8010   -9.4929   -0.8409 O   0  0  0  0  0  0  0  0  0  0  0  0
    4.7337   -5.9895    1.1939 C   0  0  1  0  0  0  0  0  0  0  0  0
    6.4296  -11.6055   -0.0161 O   0  0  0  0  0  0  0  0  0  0  0  0
    3.5943   -6.9481    0.8472 C   0  0  0  0  0  0  0  0  0  0  0  0
    5.3455  -13.3634   -3.0511 O   0  0  0  0  0  0  0  0  0  0  0  0
    4.0943   -7.9742   -0.1740 C   0  0  1  0  0  0  0  0  0  0  0  0
    7.5808  -11.8156   -3.9852 O   0  0  0  0  0  0  0  0  0  0  0  0
    5.3534   -8.7190    0.2859 C   0  0  2  0  0  0  0  0  0  0  0  0
    4.7237   -9.7971    2.5089 O   0  0  0  0  0  0  0  0  0  0  0  0
    6.9088  -10.3659   -0.5696 C   0  0  1  0  0  0  0  0  0  0  0  0
    5.2597   -9.8043    5.0993 O   0  0  0  0  0  0  0  0  0  0  0  0
    5.5332  -12.3284   -0.8770 C   0  0  2  0  0  0  0  0  0  0  0  0
    5.0877  -13.6122   -0.1728 C   0  0  0  0  0  0  0  0  0  0  0  0
    6.2580  -12.7006   -2.1717 C   0  0  2  0  0  0  0  0  0  0  0  0
    6.7905  -11.4383   -2.8529 C   0  0  1  0  0  0  0  0  0  0  0  0
    7.6556  -10.6315   -1.8810 C   0  0  1  0  0  0  0  0  0  0  0  0
    6.0680  -10.1388    2.8547 C   0  0  2  0  0  0  0  0  0  0  0  0
    6.1406  -10.6038    4.3061 C   0  0  1  0  0  0  0  0  0  0  0  0
  1  3  1  0  0  0  0
  4  1  1  6  0  0  0
  4  6  1  0  0  0  0
  4 31  1  0  0  0  0
  6  7  1  0  0  0  0
  7  9  1  6  0  0  0
  7 30  1  0  0  0  0
  8 26  1  0  0  0  0
 10  9  1  1  0  0  0
 10 13  1  0  0  0  0
 10 21  1  0  0  0  0
 13 12  1  6  0  0  0
 13 15  1  0  0  0  0
 15  2  1  1  0  0  0
 15 17  1  0  0  0  0
 16 25  1  0  0  0  0
 16 23  1  0  0  0  0
 17 19  1  0  0  0  0
 19  5  1  1  0  0  0
 19 21  1  0  0  0  0
 21 14  1  6  0  0  0
 23 14  1  6  0  0  0
 23 29  1  0  0  0  0
 25 26  1  1  0  0  0
 25 27  1  0  0  0  0
 27 18  1  6  0  0  0
 27 28  1  0  0  0  0
 28 20  1  6  0  0  0
 28 29  1  0  0  0  0
 29 11  1  6  0  0  0
 30 22  1  1  0  0  0
 30 31  1  0  0  0  0
 31 24  1  1  0  0  0
M  END
>  <CHROM.1>
61.62086653,-163.32033354,38.86621165,84.37649662,60.14296625,174.42285497
6.16387422,-9.88046899,0.85015144,-1.47158550,1.11068298,-2.27887066

>  <Name>
ligand

>  <RI>
0

>  <Rbt.Current_Directory>
/home/itssahil/PROJECTS/Mol_Feturizer/New_Systems/rnas/3DVV

>  <Rbt.Executable>
rbdock ($Id: //depot/dev/client3/rdock/2013.1/src/exe/rbdock.cxx#4 $)

>  <Rbt.Library>
libRbt.so (2013.1, Build901 2013/11/27)

>  <Rbt.Parameter_File>
/export/apps/rDock/src/rDock_2013.1_src/data/scripts/dock_solv.prm

>  <Rbt.Receptor>
prm/blind_docking_20.prm

>  <SCORE>
-0.702449

>  <SCORE.INTER>
-3.58113

>  <SCORE.INTER.CONST>
1

>  <SCORE.INTER.POLAR>
0

>  <SCORE.INTER.ROT>
6

>  <SCORE.INTER.SOLV>
26.6308

>  <SCORE.INTER.VDW>
-18.8643

>  <SCORE.INTER.norm>
-0.11552

>  <SCORE.INTRA>
2.87868

>  <SCORE.INTRA.DIHEDRAL>
-4.6494

>  <SCORE.INTRA.DIHEDRAL.0>
10.8172

>  <SCORE.INTRA.POLAR>
0

>  <SCORE.INTRA.POLAR.0>
0

>  <SCORE.INTRA.REPUL>
0

>  <SCORE.INTRA.REPUL.0>
0

>  <SCORE.INTRA.SOLV>
-1.36843

>  <SCORE.INTRA.SOLV.lig_0>
-80.3833

>  <SCORE.INTRA.VDW>
5.88759

>  <SCORE.INTRA.VDW.0>
-4.63762

>  <SCORE.INTRA.norm>
0.0928605

>  <SCORE.RESTR>
0

>  <SCORE.RESTR.CAVITY>
0

>  <SCORE.RESTR.norm>
0

>  <SCORE.SYSTEM>
0

>  <SCORE.SYSTEM.CONST>
0

>  <SCORE.SYSTEM.DIHEDRAL>
0

>  <SCORE.SYSTEM.SOLV>
0

>  <SCORE.SYSTEM.norm>
0

>  <SCORE.heavy>
31

>  <SCORE.norm>
-0.0226596

>  <RMSD>
25.706

$$$$
ligand
 OpenBabel11021811473D
libRbt.so/2013.1/901 2013/11/27
 31 33  0  0  0  0  0  0  0  0999 V2000
    3.8995   -5.0378   -0.6057 C   0  0  0  0  0  0  0  0  0  0  0  0
    6.7366   -9.5845    5.5045 N   0  0  0  0  0  0  0  0  0  0  0  0
    4.3139   -3.8973   -1.3648 O   0  0  0  0  0  0  0  0  0  0  0  0
    4.9944   -5.4372    0.3867 C   0  0  1  0  0  0  0  0  0  0  0  0
    9.4898  -10.6024    1.5946 N   0  0  0  0  0  0  0  0  0  0  0  0
    4.5885   -6.6018    1.1320 O   0  0  0  0  0  0  0  0  0  0  0  0
    5.6043   -7.6112    0.9942 C   0  0  1  0  0  0  0  0  0  0  0  0
    7.0039   -8.9759   -4.5764 N   0  0  0  0  0  0  0  0  0  0  0  0
    5.0435   -8.9335    0.9970 O   0  0  0  0  0  0  0  0  0  0  0  0
    5.7623   -9.8646    1.8195 C   0  0  2  0  0  0  0  0  0  0  0  0
    5.0177  -12.6933   -0.3074 N   0  0  0  0  0  0  0  0  0  0  0  0
    4.5251   -9.2052    3.7886 O   0  0  0  0  0  0  0  0  0  0  0  0
    5.8394   -9.2630    3.2276 C   0  0  1  0  0  0  0  0  0  0  0  0
    7.1167  -10.8908    0.0324 O   0  0  0  0  0  0  0  0  0  0  0  0
    6.7358  -10.1118    4.1314 C   0  0  1  0  0  0  0  0  0  0  0  0
    6.6210   -9.7876   -1.9863 O   0  0  0  0  0  0  0  0  0  0  0  0
    8.1574  -10.1125    3.5688 C   0  0  0  0  0  0  0  0  0  0  0  0
    8.0956  -12.4354   -4.0577 O   0  0  0  0  0  0  0  0  0  0  0  0
    8.1452  -10.7440    2.1736 C   0  0  1  0  0  0  0  0  0  0  0  0
    5.8085  -13.7400   -2.9035 O   0  0  0  0  0  0  0  0  0  0  0  0
    7.1483  -10.0771    1.2181 C   0  0  2  0  0  0  0  0  0  0  0  0
    7.4790   -7.9099   -0.5723 O   0  0  0  0  0  0  0  0  0  0  0  0
    6.0755  -10.5573   -0.8989 C   0  0  1  0  0  0  0  0  0  0  0  0
    7.4548   -5.4280    0.3429 O   0  0  0  0  0  0  0  0  0  0  0  0
    7.6444  -10.4662   -2.7342 C   0  0  2  0  0  0  0  0  0  0  0  0
    8.1486   -9.5432   -3.8461 C   0  0  0  0  0  0  0  0  0  0  0  0
    7.0603  -11.7302   -3.3678 C   0  0  2  0  0  0  0  0  0  0  0  0
    6.4698  -12.6327   -2.2825 C   0  0  1  0  0  0  0  0  0  0  0  0
    5.4611  -11.8558   -1.4324 C   0  0  1  0  0  0  0  0  0  0  0  0
    6.1819   -7.3364   -0.3926 C   0  0  2  0  0  0  0  0  0  0  0  0
    6.2741   -5.8137   -0.3653 C   0  0  1  0  0  0  0  0  0  0  0  0
  1  3  1  0  0  0  0
  4  1  1  6  0  0  0
  4  6  1  0  0  0  0
  4 31  1  0  0  0  0
  6  7  1  0  0  0  0
  7  9  1  6  0  0  0
  7 30  1  0  0  0  0
  8 26  1  0  0  0  0
 10  9  1  6  0  0  0
 10 13  1  0  0  0  0
 10 21  1  0  0  0  0
 13 12  1  1  0  0  0
 13 15  1  0  0  0  0
 15  2  1  1  0  0  0
 15 17  1  0  0  0  0
 16 25  1  0  0  0  0
 16 23  1  0  0  0  0
 17 19  1  0  0  0  0
 19  5  1  6  0  0  0
 19 21  1  0  0  0  0
 21 14  1  6  0  0  0
 23 14  1  1  0  0  0
 23 29  1  0  0  0  0
 25 26  1  6  0  0  0
 25 27  1  0  0  0  0
 27 18  1  1  0  0  0
 27 28  1  0  0  0  0
 28 20  1  6  0  0  0
 28 29  1  0  0  0  0
 29 11  1  1  0  0  0
 30 22  1  1  0  0  0
 30 31  1  0  0  0  0
 31 24  1  1  0  0  0
M  END
>  <CHROM.1>
-178.83633169,-135.33776605,55.20686558,101.45797013,44.68302989,-48.63682202
6.40293820,-9.29203702,-0.05124748,2.45143529,-1.30871249,1.64416535

>  <Name>
ligand

>  <RI>
0

>  <Rbt.Current_Directory>
/home/itssahil/PROJECTS/Mol_Feturizer/New_Systems/rnas/3DVV

>  <Rbt.Executable>
rbdock ($Id: //depot/dev/client3/rdock/2013.1/src/exe/rbdock.cxx#4 $)

>  <Rbt.Library>
libRbt.so (2013.1, Build901 2013/11/27)

>  <Rbt.Parameter_File>
/export/apps/rDock/src/rDock_2013.1_src/data/scripts/dock_solv.prm

>  <Rbt.Receptor>
prm/blind_docking_40.prm

>  <SCORE>
1.18054

>  <SCORE.INTER>
-3.88975

>  <SCORE.INTER.CONST>
1

>  <SCORE.INTER.POLAR>
0

>  <SCORE.INTER.ROT>
6

>  <SCORE.INTER.SOLV>
19.7258

>  <SCORE.INTER.VDW>
-16.7684

>  <SCORE.INTER.norm>
-0.125476

>  <SCORE.INTRA>
4.97116

>  <SCORE.INTRA.DIHEDRAL>
2.5599

>  <SCORE.INTRA.DIHEDRAL.0>
10.8172

>  <SCORE.INTRA.POLAR>
0

>  <SCORE.INTRA.POLAR.0>
0

>  <SCORE.INTRA.REPUL>
0

>  <SCORE.INTRA.REPUL.0>
0

>  <SCORE.INTRA.SOLV>
-0.953281

>  <SCORE.INTRA.SOLV.lig_0>
-80.3833

>  <SCORE.INTRA.VDW>
4.16785

>  <SCORE.INTRA.VDW.0>
-4.63762

>  <SCORE.INTRA.norm>
0.16036

>  <SCORE.RESTR>
0.099131

>  <SCORE.RESTR.CAVITY>
0.099131

>  <SCORE.RESTR.norm>
0.00319778

>  <SCORE.SYSTEM>
0

>  <SCORE.SYSTEM.CONST>
0

>  <SCORE.SYSTEM.DIHEDRAL>
0

>  <SCORE.SYSTEM.SOLV>
0

>  <SCORE.SYSTEM.norm>
0

>  <SCORE.heavy>
31

>  <SCORE.norm>
0.038082

>  <RMSD>
25.724

$$$$
ligand
 OpenBabel11021811473D
libRbt.so/2013.1/901 2013/11/27
 31 33  0  0  0  0  0  0  0  0999 V2000
    2.9829   -8.8040    2.0456 C   0  0  0  0  0  0  0  0  0  0  0  0
    6.6311  -13.7604   -3.4834 N   0  0  0  0  0  0  0  0  0  0  0  0
    2.0560   -8.5439    3.1048 O   0  0  0  0  0  0  0  0  0  0  0  0
    3.5009  -10.2414    2.1390 C   0  0  1  0  0  0  0  0  0  0  0  0
    7.2963   -8.9540   -4.0834 N   0  0  0  0  0  0  0  0  0  0  0  0
    4.2089  -10.5935    0.9343 O   0  0  0  0  0  0  0  0  0  0  0  0
    5.5232  -11.0556    1.2934 C   0  0  1  0  0  0  0  0  0  0  0  0
    5.0794   -3.6525   -1.5983 N   0  0  0  0  0  0  0  0  0  0  0  0
    6.4986  -10.7110    0.2970 O   0  0  0  0  0  0  0  0  0  0  0  0
    6.0315  -10.8748   -1.0502 C   0  0  2  0  0  0  0  0  0  0  0  0
    8.2854   -8.5430   -0.1931 N   0  0  0  0  0  0  0  0  0  0  0  0
    5.8986  -13.2751   -0.7989 O   0  0  0  0  0  0  0  0  0  0  0  0
    6.5365  -12.2351   -1.5451 C   0  0  1  0  0  0  0  0  0  0  0  0
    5.9013   -8.4830   -1.6364 O   0  0  0  0  0  0  0  0  0  0  0  0
    6.2274  -12.4200   -3.0320 C   0  0  1  0  0  0  0  0  0  0  0  0
    5.9432   -6.1350   -1.7896 O   0  0  0  0  0  0  0  0  0  0  0  0
    6.9690  -11.3507   -3.8345 C   0  0  0  0  0  0  0  0  0  0  0  0
    4.8515   -5.6635    1.6835 O   0  0  0  0  0  0  0  0  0  0  0  0
    6.4707   -9.9667   -3.4081 C   0  0  1  0  0  0  0  0  0  0  0  0
    7.4681   -6.8122    1.9971 O   0  0  0  0  0  0  0  0  0  0  0  0
    6.5741   -9.7274   -1.8969 C   0  0  2  0  0  0  0  0  0  0  0  0
    6.8725  -10.8657    3.3431 O   0  0  0  0  0  0  0  0  0  0  0  0
    6.7475   -7.3230   -1.6688 C   0  0  1  0  0  0  0  0  0  0  0  0
    4.4153  -11.6357    3.9489 O   0  0  0  0  0  0  0  0  0  0  0  0
    5.0135   -5.9400   -0.7104 C   0  0  2  0  0  0  0  0  0  0  0  0
    4.2147   -4.6589   -0.9619 C   0  0  0  0  0  0  0  0  0  0  0  0
    5.7812   -5.7937    0.6047 C   0  0  2  0  0  0  0  0  0  0  0  0
    6.6568   -7.0267    0.8374 C   0  0  1  0  0  0  0  0  0  0  0  0
    7.5623   -7.2746   -0.3720 C   0  0  1  0  0  0  0  0  0  0  0  0
    5.8340  -10.2672    2.5640 C   0  0  2  0  0  0  0  0  0  0  0  0
    4.4981  -10.3672    3.2943 C   0  0  1  0  0  0  0  0  0  0  0  0
  1  3  1  0  0  0  0
  4  1  1  6  0  0  0
  4  6  1  0  0  0  0
  4 31  1  0  0  0  0
  6  7  1  0  0  0  0
  7  9  1  6  0  0  0
  7 30  1  0  0  0  0
  8 26  1  0  0  0  0
 10  9  1  1  0  0  0
 10 13  1  0  0  0  0
 10 21  1  0  0  0  0
 13 12  1  1  0  0  0
 13 15  1  0  0  0  0
 15  2  1  6  0  0  0
 15 17  1  0  0  0  0
 16 25  1  0  0  0  0
 16 23  1  0  0  0  0
 17 19  1  0  0  0  0
 19  5  1  6  0  0  0
 19 21  1  0  0  0  0
 21 14  1  6  0  0  0
 23 14  1  1  0  0  0
 23 29  1  0  0  0  0
 25 26  1  6  0  0  0
 25 27  1  0  0  0  0
 27 18  1  1  0  0  0
 27 28  1  0  0  0  0
 28 20  1  1  0  0  0
 28 29  1  0  0  0  0
 29 11  1  1  0  0  0
 30 22  1  1  0  0  0
 30 31  1  0  0  0  0
 31 24  1  6  0  0  0
M  END
>  <CHROM.1>
168.15079872,-40.76014064,-97.56929687,163.23598823,142.89233449,-35.72385246
5.73794166,-9.12789194,-0.06980217,2.08785760,1.18589476,-0.13018515

>  <Name>
ligand

>  <RI>
0

>  <Rbt.Current_Directory>
/home/itssahil/PROJECTS/Mol_Feturizer/New_Systems/rnas/3DVV

>  <Rbt.Executable>
rbdock ($Id: //depot/dev/client3/rdock/2013.1/src/exe/rbdock.cxx#4 $)

>  <Rbt.Library>
libRbt.so (2013.1, Build901 2013/11/27)

>  <Rbt.Parameter_File>
/export/apps/rDock/src/rDock_2013.1_src/data/scripts/dock_solv.prm

>  <Rbt.Receptor>
prm/blind_docking_20.prm

>  <SCORE>
-0.547269

>  <SCORE.INTER>
-5.30063

>  <SCORE.INTER.CONST>
1

>  <SCORE.INTER.POLAR>
0

>  <SCORE.INTER.ROT>
6

>  <SCORE.INTER.SOLV>
15.1616

>  <SCORE.INTER.VDW>
-16.1876

>  <SCORE.INTER.norm>
-0.170988

>  <SCORE.INTRA>
4.31639

>  <SCORE.INTRA.DIHEDRAL>
4.46683

>  <SCORE.INTRA.DIHEDRAL.0>
10.8172

>  <SCORE.INTRA.POLAR>
0

>  <SCORE.INTRA.POLAR.0>
0

>  <SCORE.INTRA.REPUL>
0.0024765

>  <SCORE.INTRA.REPUL.0>
0

>  <SCORE.INTRA.SOLV>
1.2725

>  <SCORE.INTRA.SOLV.lig_0>
-80.3833

>  <SCORE.INTRA.VDW>
1.43435

>  <SCORE.INTRA.VDW.0>
-4.63762

>  <SCORE.INTRA.norm>
0.139238

>  <SCORE.RESTR>
0.436965

>  <SCORE.RESTR.CAVITY>
0.436965

>  <SCORE.RESTR.norm>
0.0140956

>  <SCORE.SYSTEM>
0

>  <SCORE.SYSTEM.CONST>
0

>  <SCORE.SYSTEM.DIHEDRAL>
0

>  <SCORE.SYSTEM.SOLV>
0

>  <SCORE.SYSTEM.norm>
0

>  <SCORE.heavy>
31

>  <SCORE.norm>
-0.0176539

>  <RMSD>
25.756

$$$$
ligand
 OpenBabel11021811473D
libRbt.so/2013.1/901 2013/11/27
 31 33  0  0  0  0  0  0  0  0999 V2000
    6.2793   -5.0023   -1.6144 C   0  0  0  0  0  0  0  0  0  0  0  0
    7.0779  -13.4205   -4.9947 N   0  0  0  0  0  0  0  0  0  0  0  0
    4.8878   -4.6674   -1.5981 O   0  0  0  0  0  0  0  0  0  0  0  0
    6.5408   -6.2141   -0.7164 C   0  0  1  0  0  0  0  0  0  0  0  0
    5.4237  -13.3823   -0.3941 N   0  0  0  0  0  0  0  0  0  0  0  0
    5.8816   -7.3791   -1.2499 O   0  0  0  0  0  0  0  0  0  0  0  0
    6.8567   -8.4248   -1.4097 C   0  0  1  0  0  0  0  0  0  0  0  0
    8.5873  -10.7704    4.0567 N   0  0  0  0  0  0  0  0  0  0  0  0
    6.5616   -9.2585   -2.5414 O   0  0  0  0  0  0  0  0  0  0  0  0
    7.0555  -10.6002   -2.4156 C   0  0  2  0  0  0  0  0  0  0  0  0
    4.1346   -9.8617   -0.5306 N   0  0  0  0  0  0  0  0  0  0  0  0
    7.6868  -10.6733   -4.7477 O   0  0  0  0  0  0  0  0  0  0  0  0
    6.8472  -11.2909   -3.7683 C   0  0  1  0  0  0  0  0  0  0  0  0
    6.6840  -10.8516    0.0093 O   0  0  0  0  0  0  0  0  0  0  0  0
    7.1914  -12.7788   -3.6761 C   0  0  1  0  0  0  0  0  0  0  0  0
    6.2773  -10.8998    2.3267 O   0  0  0  0  0  0  0  0  0  0  0  0
    6.2443  -13.4513   -2.6821 C   0  0  0  0  0  0  0  0  0  0  0  0
    6.6736   -7.2694    2.7002 O   0  0  0  0  0  0  0  0  0  0  0  0
    6.4413  -12.8254   -1.2983 C   0  0  1  0  0  0  0  0  0  0  0  0
    4.2705   -7.4822    1.1368 O   0  0  0  0  0  0  0  0  0  0  0  0
    6.2868  -11.2997   -1.2986 C   0  0  2  0  0  0  0  0  0  0  0  0
    9.3175   -8.4386   -1.4576 O   0  0  0  0  0  0  0  0  0  0  0  0
    5.6739  -10.9804    1.0221 C   0  0  1  0  0  0  0  0  0  0  0  0
    8.4632   -7.0094    0.5980 O   0  0  0  0  0  0  0  0  0  0  0  0
    6.9660   -9.6640    2.5828 C   0  0  2  0  0  0  0  0  0  0  0  0
    7.5706   -9.7086    3.9881 C   0  0  0  0  0  0  0  0  0  0  0  0
    5.9741   -8.5018    2.5080 C   0  0  2  0  0  0  0  0  0  0  0  0
    5.2899   -8.4872    1.1395 C   0  0  1  0  0  0  0  0  0  0  0  0
    4.6556   -9.8491    0.8449 C   0  0  1  0  0  0  0  0  0  0  0  0
    8.1450   -7.6576   -1.7002 C   0  0  2  0  0  0  0  0  0  0  0  0
    8.0392   -6.5281   -0.6798 C   0  0  1  0  0  0  0  0  0  0  0  0
  1  3  1  0  0  0  0
  4  1  1  6  0  0  0
  4  6  1  0  0  0  0
  4 31  1  0  0  0  0
  6  7  1  0  0  0  0
  7  9  1  6  0  0  0
  7 30  1  0  0  0  0
  8 26  1  0  0  0  0
 10  9  1  6  0  0  0
 10 13  1  0  0  0  0
 10 21  1  0  0  0  0
 13 12  1  6  0  0  0
 13 15  1  0  0  0  0
 15  2  1  6  0  0  0
 15 17  1  0  0  0  0
 16 25  1  0  0  0  0
 16 23  1  0  0  0  0
 17 19  1  0  0  0  0
 19  5  1  1  0  0  0
 19 21  1  0  0  0  0
 21 14  1  1  0  0  0
 23 14  1  6  0  0  0
 23 29  1  0  0  0  0
 25 26  1  1  0  0  0
 25 27  1  0  0  0  0
 27 18  1  6  0  0  0
 27 28  1  0  0  0  0
 28 20  1  1  0  0  0
 28 29  1  0  0  0  0
 29 11  1  6  0  0  0
 30 22  1  1  0  0  0
 30 31  1  0  0  0  0
 31 24  1  1  0  0  0
M  END
>  <CHROM.1>
65.16223745,-152.44725686,-171.79654469,162.58362595,153.58610853,63.90297351
6.58461241,-9.44925625,-0.50642045,-2.40679813,-1.51266717,3.04382377

>  <Name>
ligand

>  <RI>
0

>  <Rbt.Current_Directory>
/home/itssahil/PROJECTS/Mol_Feturizer/New_Systems/rnas/3DVV

>  <Rbt.Executable>
rbdock ($Id: //depot/dev/client3/rdock/2013.1/src/exe/rbdock.cxx#4 $)

>  <Rbt.Library>
libRbt.so (2013.1, Build901 2013/11/27)

>  <Rbt.Parameter_File>
/export/apps/rDock/src/rDock_2013.1_src/data/scripts/dock_solv.prm

>  <Rbt.Receptor>
prm/blind_docking_20.prm

>  <SCORE>
-2.26712

>  <SCORE.INTER>
-3.62908

>  <SCORE.INTER.CONST>
1

>  <SCORE.INTER.POLAR>
0

>  <SCORE.INTER.ROT>
6

>  <SCORE.INTER.SOLV>
21.0602

>  <SCORE.INTER.VDW>
-17.0394

>  <SCORE.INTER.norm>
-0.117067

>  <SCORE.INTRA>
1.34758

>  <SCORE.INTRA.DIHEDRAL>
-2.81539

>  <SCORE.INTRA.DIHEDRAL.0>
10.8172

>  <SCORE.INTRA.POLAR>
0

>  <SCORE.INTRA.POLAR.0>
0

>  <SCORE.INTRA.REPUL>
0

>  <SCORE.INTRA.REPUL.0>
0

>  <SCORE.INTRA.SOLV>
3.10917

>  <SCORE.INTRA.SOLV.lig_0>
-80.3833

>  <SCORE.INTRA.VDW>
1.20069

>  <SCORE.INTRA.VDW.0>
-4.63762

>  <SCORE.INTRA.norm>
0.0434704

>  <SCORE.RESTR>
0.0143731

>  <SCORE.RESTR.CAVITY>
0.0143731

>  <SCORE.RESTR.norm>
0.000463649

>  <SCORE.SYSTEM>
0

>  <SCORE.SYSTEM.CONST>
0

>  <SCORE.SYSTEM.DIHEDRAL>
0

>  <SCORE.SYSTEM.SOLV>
0

>  <SCORE.SYSTEM.norm>
0

>  <SCORE.heavy>
31

>  <SCORE.norm>
-0.073133

>  <RMSD>
25.864

$$$$
ligand
 OpenBabel11021811473D
libRbt.so/2013.1/901 2013/11/27
 31 33  0  0  0  0  0  0  0  0999 V2000
    5.0223   -9.6290    6.0664 C   0  0  0  0  0  0  0  0  0  0  0  0
    9.9030   -6.2731    0.3140 N   0  0  0  0  0  0  0  0  0  0  0  0
    3.6169   -9.3580    6.0845 O   0  0  0  0  0  0  0  0  0  0  0  0
    5.3480  -10.6536    4.9766 C   0  0  1  0  0  0  0  0  0  0  0  0
    7.6048   -9.3883   -2.6723 N   0  0  0  0  0  0  0  0  0  0  0  0
    5.0410  -10.1113    3.6774 O   0  0  0  0  0  0  0  0  0  0  0  0
    6.2156  -10.2057    2.8520 C   0  0  1  0  0  0  0  0  0  0  0  0
    8.1516  -11.2893   -4.6679 N   0  0  0  0  0  0  0  0  0  0  0  0
    6.3039   -9.1114    1.9259 O   0  0  0  0  0  0  0  0  0  0  0  0
    7.4939   -9.1275    1.1237 C   0  0  2  0  0  0  0  0  0  0  0  0
    4.7489  -12.4286    0.7135 N   0  0  0  0  0  0  0  0  0  0  0  0
    8.5409   -7.4369    2.4978 O   0  0  0  0  0  0  0  0  0  0  0  0
    8.0926   -7.7169    1.1689 C   0  0  1  0  0  0  0  0  0  0  0  0
    6.8235  -10.9413   -0.4066 O   0  0  0  0  0  0  0  0  0  0  0  0
    9.2737   -7.5980    0.2035 C   0  0  1  0  0  0  0  0  0  0  0  0
    6.1060  -11.4144   -2.5974 O   0  0  0  0  0  0  0  0  0  0  0  0
    8.7781   -7.8260   -1.2247 C   0  0  0  0  0  0  0  0  0  0  0  0
    7.4412  -14.8335   -2.5380 O   0  0  0  0  0  0  0  0  0  0  0  0
    8.2052   -9.2418   -1.3376 C   0  0  1  0  0  0  0  0  0  0  0  0
    5.3113  -14.9564   -0.6110 O   0  0  0  0  0  0  0  0  0  0  0  0
    7.1183   -9.5378   -0.2971 C   0  0  2  0  0  0  0  0  0  0  0  0
    8.5967  -10.5804    3.3495 O   0  0  0  0  0  0  0  0  0  0  0  0
    5.6887  -11.2556   -1.2288 C   0  0  1  0  0  0  0  0  0  0  0  0
    7.1143  -12.3373    4.6586 O   0  0  0  0  0  0  0  0  0  0  0  0
    7.0694  -12.4618   -2.8026 C   0  0  2  0  0  0  0  0  0  0  0  0
    7.4394  -12.5193   -4.2866 C   0  0  0  0  0  0  0  0  0  0  0  0
    6.4597  -13.8036   -2.3927 C   0  0  2  0  0  0  0  0  0  0  0  0
    6.0008  -13.7442   -0.9343 C   0  0  1  0  0  0  0  0  0  0  0  0
    5.0594  -12.5563   -0.7186 C   0  0  1  0  0  0  0  0  0  0  0  0
    7.3583  -10.0786    3.8573 C   0  0  2  0  0  0  0  0  0  0  0  0
    6.8460  -10.9710    4.9839 C   0  0  1  0  0  0  0  0  0  0  0  0
  1  3  1  0  0  0  0
  4  1  1  1  0  0  0
  4  6  1  0  0  0  0
  4 31  1  0  0  0  0
  6  7  1  0  0  0  0
  7  9  1  6  0  0  0
  7 30  1  0  0  0  0
  8 26  1  0  0  0  0
 10  9  1  1  0  0  0
 10 13  1  0  0  0  0
 10 21  1  0  0  0  0
 13 12  1  1  0  0  0
 13 15  1  0  0  0  0
 15  2  1  6  0  0  0
 15 17  1  0  0  0  0
 16 25  1  0  0  0  0
 16 23  1  0  0  0  0
 17 19  1  0  0  0  0
 19  5  1  6  0  0  0
 19 21  1  0  0  0  0
 21 14  1  1  0  0  0
 23 14  1  1  0  0  0
 23 29  1  0  0  0  0
 25 26  1  6  0  0  0
 25 27  1  0  0  0  0
 27 18  1  1  0  0  0
 27 28  1  0  0  0  0
 28 20  1  6  0  0  0
 28 29  1  0  0  0  0
 29 11  1  1  0  0  0
 30 22  1  6  0  0  0
 30 31  1  0  0  0  0
 31 24  1  6  0  0  0
M  END
>  <CHROM.1>
63.89271345,177.16672240,-132.13788765,88.55085892,138.25847725,66.26750171
6.84644675,-10.64669659,0.67919639,1.77192090,1.00601283,1.05208810

>  <Name>
ligand

>  <RI>
0

>  <Rbt.Current_Directory>
/home/itssahil/PROJECTS/Mol_Feturizer/New_Systems/rnas/3DVV

>  <Rbt.Executable>
rbdock ($Id: //depot/dev/client3/rdock/2013.1/src/exe/rbdock.cxx#4 $)

>  <Rbt.Library>
libRbt.so (2013.1, Build901 2013/11/27)

>  <Rbt.Parameter_File>
/export/apps/rDock/src/rDock_2013.1_src/data/scripts/dock_solv.prm

>  <Rbt.Receptor>
prm/blind_docking_20.prm

>  <SCORE>
-0.834965

>  <SCORE.INTER>
-5.95768

>  <SCORE.INTER.CONST>
1

>  <SCORE.INTER.POLAR>
0

>  <SCORE.INTER.ROT>
6

>  <SCORE.INTER.SOLV>
17.0368

>  <SCORE.INTER.VDW>
-17.2507

>  <SCORE.INTER.norm>
-0.192183

>  <SCORE.INTRA>
5.12272

>  <SCORE.INTRA.DIHEDRAL>
5.03639

>  <SCORE.INTRA.DIHEDRAL.0>
10.8172

>  <SCORE.INTRA.POLAR>
0

>  <SCORE.INTRA.POLAR.0>
0

>  <SCORE.INTRA.REPUL>
0

>  <SCORE.INTRA.REPUL.0>
0

>  <SCORE.INTRA.SOLV>
2.26674

>  <SCORE.INTRA.SOLV.lig_0>
-80.3833

>  <SCORE.INTRA.VDW>
1.47115

>  <SCORE.INTRA.VDW.0>
-4.63762

>  <SCORE.INTRA.norm>
0.165249

>  <SCORE.RESTR>
0

>  <SCORE.RESTR.CAVITY>
0

>  <SCORE.RESTR.norm>
0

>  <SCORE.SYSTEM>
0

>  <SCORE.SYSTEM.CONST>
0

>  <SCORE.SYSTEM.DIHEDRAL>
0

>  <SCORE.SYSTEM.SOLV>
0

>  <SCORE.SYSTEM.norm>
0

>  <SCORE.heavy>
31

>  <SCORE.norm>
-0.0269344

>  <RMSD>
25.875

$$$$
ligand
 OpenBabel11021811473D
libRbt.so/2013.1/901 2013/11/27
 31 33  0  0  0  0  0  0  0  0999 V2000
    5.5424  -10.6165    4.4915 C   0  0  0  0  0  0  0  0  0  0  0  0
    6.6337  -13.7553   -3.9514 N   0  0  0  0  0  0  0  0  0  0  0  0
    6.3198   -9.4489    4.7765 O   0  0  0  0  0  0  0  0  0  0  0  0
    4.6120  -10.3541    3.3046 C   0  0  1  0  0  0  0  0  0  0  0  0
    7.2514   -8.9097   -3.7455 N   0  0  0  0  0  0  0  0  0  0  0  0
    5.3842  -10.0716    2.1212 O   0  0  0  0  0  0  0  0  0  0  0  0
    4.9753  -10.9765    1.0802 C   0  0  1  0  0  0  0  0  0  0  0  0
    9.7671   -7.3593   -0.6416 N   0  0  0  0  0  0  0  0  0  0  0  0
    6.0694  -11.3221    0.2162 O   0  0  0  0  0  0  0  0  0  0  0  0
    5.7390  -11.2804   -1.1799 C   0  0  2  0  0  0  0  0  0  0  0  0
    3.3762   -7.8904   -0.0359 N   0  0  0  0  0  0  0  0  0  0  0  0
    5.6336  -13.6917   -1.3105 O   0  0  0  0  0  0  0  0  0  0  0  0
    6.3187  -12.5456   -1.8230 C   0  0  1  0  0  0  0  0  0  0  0  0
    5.6154   -8.8279   -1.4061 O   0  0  0  0  0  0  0  0  0  0  0  0
    6.1596  -12.5024   -3.3441 C   0  0  1  0  0  0  0  0  0  0  0  0
    7.0890   -7.9088    0.1820 O   0  0  0  0  0  0  0  0  0  0  0  0
    6.9527  -11.3181   -3.8972 C   0  0  0  0  0  0  0  0  0  0  0  0
    6.6815   -4.4880   -1.0863 O   0  0  0  0  0  0  0  0  0  0  0  0
    6.3858  -10.0190   -3.3171 C   0  0  1  0  0  0  0  0  0  0  0  0
    4.0843   -5.0694    0.0006 O   0  0  0  0  0  0  0  0  0  0  0  0
    6.3368  -10.0134   -1.7844 C   0  0  2  0  0  0  0  0  0  0  0  0
    3.7091  -13.0871    1.0859 O   0  0  0  0  0  0  0  0  0  0  0  0
    5.7692   -8.4428   -0.0311 C   0  0  1  0  0  0  0  0  0  0  0  0
    2.4578  -11.2805    2.5583 O   0  0  0  0  0  0  0  0  0  0  0  0
    7.3902   -6.7472   -0.6100 C   0  0  2  0  0  0  0  0  0  0  0  0
    8.8174   -6.2873   -0.3032 C   0  0  0  0  0  0  0  0  0  0  0  0
    6.4199   -5.6199   -0.2524 C   0  0  2  0  0  0  0  0  0  0  0  0
    4.9782   -6.0847   -0.4679 C   0  0  1  0  0  0  0  0  0  0  0  0
    4.7146   -7.3819    0.3013 C   0  0  1  0  0  0  0  0  0  0  0  0
    4.5570  -12.2270    1.8507 C   0  0  2  0  0  0  0  0  0  0  0  0
    3.7776  -11.6025    3.0042 C   0  0  1  0  0  0  0  0  0  0  0  0
  1  3  1  0  0  0  0
  4  1  1  1  0  0  0
  4  6  1  0  0  0  0
  4 31  1  0  0  0  0
  6  7  1  0  0  0  0
  7  9  1  6  0  0  0
  7 30  1  0  0  0  0
  8 26  1  0  0  0  0
 10  9  1  1  0  0  0
 10 13  1  0  0  0  0
 10 21  1  0  0  0  0
 13 12  1  1  0  0  0
 13 15  1  0  0  0  0
 15  2  1  6  0  0  0
 15 17  1  0  0  0  0
 16 25  1  0  0  0  0
 16 23  1  0  0  0  0
 17 19  1  0  0  0  0
 19  5  1  1  0  0  0
 19 21  1  0  0  0  0
 21 14  1  6  0  0  0
 23 14  1  6  0  0  0
 23 29  1  0  0  0  0
 25 26  1  1  0  0  0
 25 27  1  0  0  0  0
 27 18  1  6  0  0  0
 27 28  1  0  0  0  0
 28 20  1  1  0  0  0
 28 29  1  0  0  0  0
 29 11  1  6  0  0  0
 30 22  1  6  0  0  0
 30 31  1  0  0  0  0
 31 24  1  6  0  0  0
M  END
>  <CHROM.1>
62.54895703,-135.06265927,-135.12078890,72.46804598,70.81042167,60.57689789
5.77569516,-9.57824459,-0.09439325,2.26473739,-1.14366729,-2.67456730

>  <Name>
ligand

>  <RI>
0

>  <Rbt.Current_Directory>
/home/itssahil/PROJECTS/Mol_Feturizer/New_Systems/rnas/3DVV

>  <Rbt.Executable>
rbdock ($Id: //depot/dev/client3/rdock/2013.1/src/exe/rbdock.cxx#4 $)

>  <Rbt.Library>
libRbt.so (2013.1, Build901 2013/11/27)

>  <Rbt.Parameter_File>
/export/apps/rDock/src/rDock_2013.1_src/data/scripts/dock_solv.prm

>  <Rbt.Receptor>
prm/blind_docking_40.prm

>  <SCORE>
-3.25903

>  <SCORE.INTER>
-4.97667

>  <SCORE.INTER.CONST>
1

>  <SCORE.INTER.POLAR>
0

>  <SCORE.INTER.ROT>
6

>  <SCORE.INTER.SOLV>
17.9766

>  <SCORE.INTER.VDW>
-16.91

>  <SCORE.INTER.norm>
-0.160538

>  <SCORE.INTRA>
1.71281

>  <SCORE.INTRA.DIHEDRAL>
2.75914

>  <SCORE.INTRA.DIHEDRAL.0>
10.8172

>  <SCORE.INTRA.POLAR>
0

>  <SCORE.INTRA.POLAR.0>
0

>  <SCORE.INTRA.REPUL>
0

>  <SCORE.INTRA.REPUL.0>
0

>  <SCORE.INTRA.SOLV>
-2.22779

>  <SCORE.INTRA.SOLV.lig_0>
-80.3833

>  <SCORE.INTRA.VDW>
1.44713

>  <SCORE.INTRA.VDW.0>
-4.63762

>  <SCORE.INTRA.norm>
0.055252

>  <SCORE.RESTR>
0.00482282

>  <SCORE.RESTR.CAVITY>
0.00482282

>  <SCORE.RESTR.norm>
0.000155575

>  <SCORE.SYSTEM>
0

>  <SCORE.SYSTEM.CONST>
0

>  <SCORE.SYSTEM.DIHEDRAL>
0

>  <SCORE.SYSTEM.SOLV>
0

>  <SCORE.SYSTEM.norm>
0

>  <SCORE.heavy>
31

>  <SCORE.norm>
-0.10513

>  <RMSD>
25.883

$$$$
ligand
 OpenBabel11021811473D
libRbt.so/2013.1/901 2013/11/27
 31 33  0  0  0  0  0  0  0  0999 V2000
    3.9901   -5.5105    1.8894 C   0  0  0  0  0  0  0  0  0  0  0  0
    7.9045   -9.5457    5.1203 N   0  0  0  0  0  0  0  0  0  0  0  0
    2.8986   -6.4365    1.9011 O   0  0  0  0  0  0  0  0  0  0  0  0
    5.1818   -6.1092    1.1380 C   0  0  1  0  0  0  0  0  0  0  0  0
    9.7988  -10.6052    0.7394 N   0  0  0  0  0  0  0  0  0  0  0  0
    5.5371   -7.3849    1.7062 O   0  0  0  0  0  0  0  0  0  0  0  0
    5.5379   -8.3696    0.6573 C   0  0  1  0  0  0  0  0  0  0  0  0
    7.0059   -8.9413   -4.5310 N   0  0  0  0  0  0  0  0  0  0  0  0
    5.1237   -9.6582    1.1376 O   0  0  0  0  0  0  0  0  0  0  0  0
    6.1573  -10.3788    1.8248 C   0  0  2  0  0  0  0  0  0  0  0  0
    5.3739  -13.3846   -0.8478 N   0  0  0  0  0  0  0  0  0  0  0  0
    5.3224   -9.6799    3.9828 O   0  0  0  0  0  0  0  0  0  0  0  0
    6.4608   -9.6157    3.1194 C   0  0  1  0  0  0  0  0  0  0  0  0
    7.2073  -11.4012   -0.1585 O   0  0  0  0  0  0  0  0  0  0  0  0
    7.6702  -10.2211    3.8348 C   0  0  1  0  0  0  0  0  0  0  0  0
    6.6344  -10.0901   -2.0269 O   0  0  0  0  0  0  0  0  0  0  0  0
    8.9016  -10.0857    2.9389 C   0  0  0  0  0  0  0  0  0  0  0  0
    8.5065  -12.2071   -4.3699 O   0  0  0  0  0  0  0  0  0  0  0  0
    8.6683  -10.8677    1.6429 C   0  0  1  0  0  0  0  0  0  0  0  0
    6.3751  -13.9399   -3.5218 O   0  0  0  0  0  0  0  0  0  0  0  0
    7.3804  -10.4612    0.9164 C   0  0  2  0  0  0  0  0  0  0  0  0
    4.6029   -8.4048   -1.6192 O   0  0  0  0  0  0  0  0  0  0  0  0
    6.1608  -11.0703   -1.0848 C   0  0  1  0  0  0  0  0  0  0  0  0
    5.9053   -6.1382   -1.2139 O   0  0  0  0  0  0  0  0  0  0  0  0
    7.7605  -10.5207   -2.8102 C   0  0  2  0  0  0  0  0  0  0  0  0
    8.1739   -9.3917   -3.7572 C   0  0  0  0  0  0  0  0  0  0  0  0
    7.3669  -11.7435   -3.6408 C   0  0  2  0  0  0  0  0  0  0  0  0
    6.8662  -12.8594   -2.7215 C   0  0  1  0  0  0  0  0  0  0  0  0
    5.7386  -12.3452   -1.8227 C   0  0  1  0  0  0  0  0  0  0  0  0
    4.4738   -7.8509   -0.3077 C   0  0  2  0  0  0  0  0  0  0  0  0
    4.8078   -6.3622   -0.3252 C   0  0  1  0  0  0  0  0  0  0  0  0
  1  3  1  0  0  0  0
  4  1  1  1  0  0  0
  4  6  1  0  0  0  0
  4 31  1  0  0  0  0
  6  7  1  0  0  0  0
  7  9  1  1  0  0  0
  7 30  1  0  0  0  0
  8 26  1  0  0  0  0
 10  9  1  6  0  0  0
 10 13  1  0  0  0  0
 10 21  1  0  0  0  0
 13 12  1  1  0  0  0
 13 15  1  0  0  0  0
 15  2  1  1  0  0  0
 15 17  1  0  0  0  0
 16 25  1  0  0  0  0
 16 23  1  0  0  0  0
 17 19  1  0  0  0  0
 19  5  1  6  0  0  0
 19 21  1  0  0  0  0
 21 14  1  6  0  0  0
 23 14  1  1  0  0  0
 23 29  1  0  0  0  0
 25 26  1  6  0  0  0
 25 27  1  0  0  0  0
 27 18  1  1  0  0  0
 27 28  1  0  0  0  0
 28 20  1  6  0  0  0
 28 29  1  0  0  0  0
 29 11  1  1  0  0  0
 30 22  1  6  0  0  0
 30 31  1  0  0  0  0
 31 24  1  6  0  0  0
M  END
>  <CHROM.1>
-54.90117282,-79.55547199,67.04101398,80.72211782,63.55596765,-52.85355745
6.40680075,-9.71364507,-0.09010746,2.06987350,-1.01966809,1.37302678

>  <Name>
ligand

>  <RI>
0

>  <Rbt.Current_Directory>
/home/itssahil/PROJECTS/Mol_Feturizer/New_Systems/rnas/3DVV

>  <Rbt.Executable>
rbdock ($Id: //depot/dev/client3/rdock/2013.1/src/exe/rbdock.cxx#4 $)

>  <Rbt.Library>
libRbt.so (2013.1, Build901 2013/11/27)

>  <Rbt.Parameter_File>
/export/apps/rDock/src/rDock_2013.1_src/data/scripts/dock_solv.prm

>  <Rbt.Receptor>
prm/blind_docking_60.prm

>  <SCORE>
-6.87108

>  <SCORE.INTER>
-6.10482

>  <SCORE.INTER.CONST>
1

>  <SCORE.INTER.POLAR>
0

>  <SCORE.INTER.ROT>
6

>  <SCORE.INTER.SOLV>
21.6352

>  <SCORE.INTER.VDW>
-18.8816

>  <SCORE.INTER.norm>
-0.19693

>  <SCORE.INTRA>
-1.10218

>  <SCORE.INTRA.DIHEDRAL>
-6.38976

>  <SCORE.INTRA.DIHEDRAL.0>
10.8172

>  <SCORE.INTRA.POLAR>
0

>  <SCORE.INTRA.POLAR.0>
0

>  <SCORE.INTRA.REPUL>
0

>  <SCORE.INTRA.REPUL.0>
0

>  <SCORE.INTRA.SOLV>
-1.13708

>  <SCORE.INTRA.SOLV.lig_0>
-80.3833

>  <SCORE.INTRA.VDW>
2.66124

>  <SCORE.INTRA.VDW.0>
-4.63762

>  <SCORE.INTRA.norm>
-0.0355541

>  <SCORE.RESTR>
0.335919

>  <SCORE.RESTR.CAVITY>
0.335919

>  <SCORE.RESTR.norm>
0.0108361

>  <SCORE.SYSTEM>
0

>  <SCORE.SYSTEM.CONST>
0

>  <SCORE.SYSTEM.DIHEDRAL>
0

>  <SCORE.SYSTEM.SOLV>
0

>  <SCORE.SYSTEM.norm>
0

>  <SCORE.heavy>
31

>  <SCORE.norm>
-0.221648

>  <RMSD>
25.923

$$$$
ligand
 OpenBabel11021811473D
libRbt.so/2013.1/901 2013/11/27
 31 33  0  0  0  0  0  0  0  0999 V2000
    8.2294  -12.1642   -4.5720 C   0  0  0  0  0  0  0  0  0  0  0  0
   10.6040  -11.5038    1.4876 N   0  0  0  0  0  0  0  0  0  0  0  0
    7.6724  -13.1249   -5.4751 O   0  0  0  0  0  0  0  0  0  0  0  0
    7.4391  -12.1522   -3.2611 C   0  0  1  0  0  0  0  0  0  0  0  0
    6.4855   -9.3892    3.0591 N   0  0  0  0  0  0  0  0  0  0  0  0
    8.0753  -11.2813   -2.3055 O   0  0  0  0  0  0  0  0  0  0  0  0
    7.1081  -10.3206   -1.8458 C   0  0  1  0  0  0  0  0  0  0  0  0
    2.8937  -10.0635    2.9749 N   0  0  0  0  0  0  0  0  0  0  0  0
    7.7156   -9.0522   -1.5545 O   0  0  0  0  0  0  0  0  0  0  0  0
    8.3172   -8.9845   -0.2531 C   0  0  2  0  0  0  0  0  0  0  0  0
    5.9366   -5.0256   -0.0015 N   0  0  0  0  0  0  0  0  0  0  0  0
   10.2631  -10.2088   -0.9995 O   0  0  0  0  0  0  0  0  0  0  0  0
    9.1691  -10.2472   -0.0791 C   0  0  1  0  0  0  0  0  0  0  0  0
    6.5822   -7.6068    0.8299 O   0  0  0  0  0  0  0  0  0  0  0  0
    9.7142  -10.3411    1.3474 C   0  0  1  0  0  0  0  0  0  0  0  0
    4.4944   -8.4506    0.1465 O   0  0  0  0  0  0  0  0  0  0  0  0
    8.5438  -10.4552    2.3244 C   0  0  0  0  0  0  0  0  0  0  0  0
    2.7245   -7.0397    3.0366 O   0  0  0  0  0  0  0  0  0  0  0  0
    7.6791   -9.1953    2.2218 C   0  0  1  0  0  0  0  0  0  0  0  0
    3.5161   -4.6930    1.5769 O   0  0  0  0  0  0  0  0  0  0  0  0
    7.2089   -8.9009    0.7922 C   0  0  2  0  0  0  0  0  0  0  0  0
    4.9175   -9.5956   -2.7022 O   0  0  0  0  0  0  0  0  0  0  0  0
    5.4914   -7.4392   -0.0892 C   0  0  1  0  0  0  0  0  0  0  0  0
    5.0488  -12.2375   -2.6824 O   0  0  0  0  0  0  0  0  0  0  0  0
    3.9300   -8.4258    1.4686 C   0  0  2  0  0  0  0  0  0  0  0  0
    2.9000   -9.5507    1.5955 C   0  0  0  0  0  0  0  0  0  0  0  0
    3.2294   -7.0856    1.6994 C   0  0  2  0  0  0  0  0  0  0  0  0
    4.2190   -5.9372    1.4925 C   0  0  1  0  0  0  0  0  0  0  0  0
    4.8853   -6.0473    0.1185 C   0  0  1  0  0  0  0  0  0  0  0  0
    6.1885  -10.1478   -3.0529 C   0  0  2  0  0  0  0  0  0  0  0  0
    6.0318  -11.5980   -3.5004 C   0  0  1  0  0  0  0  0  0  0  0  0
  1  3  1  0  0  0  0
  4  1  1  6  0  0  0
  4  6  1  0  0  0  0
  4 31  1  0  0  0  0
  6  7  1  0  0  0  0
  7  9  1  6  0  0  0
  7 30  1  0  0  0  0
  8 26  1  0  0  0  0
 10  9  1  6  0  0  0
 10 13  1  0  0  0  0
 10 21  1  0  0  0  0
 13 12  1  6  0  0  0
 13 15  1  0  0  0  0
 15  2  1  6  0  0  0
 15 17  1  0  0  0  0
 16 25  1  0  0  0  0
 16 23  1  0  0  0  0
 17 19  1  0  0  0  0
 19  5  1  1  0  0  0
 19 21  1  0  0  0  0
 21 14  1  1  0  0  0
 23 14  1  1  0  0  0
 23 29  1  0  0  0  0
 25 26  1  6  0  0  0
 25 27  1  0  0  0  0
 27 18  1  1  0  0  0
 27 28  1  0  0  0  0
 28 20  1  6  0  0  0
 28 29  1  0  0  0  0
 29 11  1  1  0  0  0
 30 22  1  1  0  0  0
 30 31  1  0  0  0  0
 31 24  1  1  0  0  0
M  END
>  <CHROM.1>
174.45723141,-82.59156596,47.63763567,56.75557763,87.18136202,147.13500452
6.34650886,-9.30798093,-0.23656139,0.96877202,0.40431613,-2.09317381

>  <Name>
ligand

>  <RI>
0

>  <Rbt.Current_Directory>
/home/itssahil/PROJECTS/Mol_Feturizer/New_Systems/rnas/3DVV

>  <Rbt.Executable>
rbdock ($Id: //depot/dev/client3/rdock/2013.1/src/exe/rbdock.cxx#4 $)

>  <Rbt.Library>
libRbt.so (2013.1, Build901 2013/11/27)

>  <Rbt.Parameter_File>
/export/apps/rDock/src/rDock_2013.1_src/data/scripts/dock_solv.prm

>  <Rbt.Receptor>
prm/blind_docking_40.prm

>  <SCORE>
-0.531194

>  <SCORE.INTER>
-2.8199

>  <SCORE.INTER.CONST>
1

>  <SCORE.INTER.POLAR>
0

>  <SCORE.INTER.ROT>
6

>  <SCORE.INTER.SOLV>
21.2688

>  <SCORE.INTER.VDW>
-16.5695

>  <SCORE.INTER.norm>
-0.0909644

>  <SCORE.INTRA>
1.95675

>  <SCORE.INTRA.DIHEDRAL>
-1.50042

>  <SCORE.INTRA.DIHEDRAL.0>
10.8172

>  <SCORE.INTRA.POLAR>
0

>  <SCORE.INTRA.POLAR.0>
0

>  <SCORE.INTRA.REPUL>
0

>  <SCORE.INTRA.REPUL.0>
0

>  <SCORE.INTRA.SOLV>
-0.774785

>  <SCORE.INTRA.SOLV.lig_0>
-80.3833

>  <SCORE.INTRA.VDW>
3.09436

>  <SCORE.INTRA.VDW.0>
-4.63762

>  <SCORE.INTRA.norm>
0.063121

>  <SCORE.RESTR>
0.33195

>  <SCORE.RESTR.CAVITY>
0.33195

>  <SCORE.RESTR.norm>
0.0107081

>  <SCORE.SYSTEM>
0

>  <SCORE.SYSTEM.CONST>
0

>  <SCORE.SYSTEM.DIHEDRAL>
0

>  <SCORE.SYSTEM.SOLV>
0

>  <SCORE.SYSTEM.norm>
0

>  <SCORE.heavy>
31

>  <SCORE.norm>
-0.0171353

>  <RMSD>
26.064

$$$$
ligand
 OpenBabel11021811473D
libRbt.so/2013.1/901 2013/11/27
 31 33  0  0  0  0  0  0  0  0999 V2000
    6.9811  -13.4487   -2.5179 C   0  0  0  0  0  0  0  0  0  0  0  0
    3.9892  -13.7952    2.0907 N   0  0  0  0  0  0  0  0  0  0  0  0
    6.0015  -14.4905   -2.5808 O   0  0  0  0  0  0  0  0  0  0  0  0
    6.4528  -12.1858   -3.2029 C   0  0  1  0  0  0  0  0  0  0  0  0
    5.1230   -9.3394    3.7531 N   0  0  0  0  0  0  0  0  0  0  0  0
    5.2396  -11.7441   -2.5630 O   0  0  0  0  0  0  0  0  0  0  0  0
    5.4033  -10.3702   -2.1688 C   0  0  1  0  0  0  0  0  0  0  0  0
    9.9061   -6.1140    1.0098 N   0  0  0  0  0  0  0  0  0  0  0  0
    4.6910  -10.0765   -0.9566 O   0  0  0  0  0  0  0  0  0  0  0  0
    5.2400  -10.7148    0.2057 C   0  0  2  0  0  0  0  0  0  0  0  0
    3.6603   -7.7391    1.3346 N   0  0  0  0  0  0  0  0  0  0  0  0
    4.4949  -12.8909   -0.5371 O   0  0  0  0  0  0  0  0  0  0  0  0
    4.3604  -11.9317    0.5152 C   0  0  1  0  0  0  0  0  0  0  0  0
    6.2693   -8.7133    1.2135 O   0  0  0  0  0  0  0  0  0  0  0  0
    4.7733  -12.5763    1.8399 C   0  0  1  0  0  0  0  0  0  0  0  0
    7.1755   -6.6324    1.8356 O   0  0  0  0  0  0  0  0  0  0  0  0
    4.5600  -11.5727    2.9733 C   0  0  0  0  0  0  0  0  0  0  0  0
    6.6585   -5.1595   -1.4869 O   0  0  0  0  0  0  0  0  0  0  0  0
    5.4504  -10.3495    2.7354 C   0  0  1  0  0  0  0  0  0  0  0  0
    3.9701   -5.5378   -0.5414 O   0  0  0  0  0  0  0  0  0  0  0  0
    5.2443   -9.7123    1.3559 C   0  0  2  0  0  0  0  0  0  0  0  0
    7.3724   -8.9167   -1.9089 O   0  0  0  0  0  0  0  0  0  0  0  0
    6.0286   -7.4965    1.9377 C   0  0  1  0  0  0  0  0  0  0  0  0
    7.4988  -10.2026   -4.2172 O   0  0  0  0  0  0  0  0  0  0  0  0
    7.5113   -6.2543    0.4897 C   0  0  2  0  0  0  0  0  0  0  0  0
    8.7477   -5.3526    0.5157 C   0  0  0  0  0  0  0  0  0  0  0  0
    6.3466   -5.4786   -0.1283 C   0  0  2  0  0  0  0  0  0  0  0  0
    5.0743   -6.3275   -0.0872 C   0  0  1  0  0  0  0  0  0  0  0  0
    4.7977   -6.8064    1.3404 C   0  0  1  0  0  0  0  0  0  0  0  0
    6.9002  -10.2658   -1.8846 C   0  0  2  0  0  0  0  0  0  0  0  0
    7.4686  -11.0483   -3.0646 C   0  0  1  0  0  0  0  0  0  0  0  0
  1  3  1  0  0  0  0
  4  1  1  1  0  0  0
  4  6  1  0  0  0  0
  4 31  1  0  0  0  0
  6  7  1  0  0  0  0
  7  9  1  1  0  0  0
  7 30  1  0  0  0  0
  8 26  1  0  0  0  0
 10  9  1  6  0  0  0
 10 13  1  0  0  0  0
 10 21  1  0  0  0  0
 13 12  1  6  0  0  0
 13 15  1  0  0  0  0
 15  2  1  1  0  0  0
 15 17  1  0  0  0  0
 16 25  1  0  0  0  0
 16 23  1  0  0  0  0
 17 19  1  0  0  0  0
 19  5  1  1  0  0  0
 19 21  1  0  0  0  0
 21 14  1  6  0  0  0
 23 14  1  6  0  0  0
 23 29  1  0  0  0  0
 25 26  1  1  0  0  0
 25 27  1  0  0  0  0
 27 18  1  6  0  0  0
 27 28  1  0  0  0  0
 28 20  1  1  0  0  0
 28 29  1  0  0  0  0
 29 11  1  6  0  0  0
 30 22  1  6  0  0  0
 30 31  1  0  0  0  0
 31 24  1  6  0  0  0
M  END
>  <CHROM.1>
59.11295195,68.73642581,-101.41246819,174.01605433,157.64680536,64.93306549
5.92089104,-9.46059182,-0.13871077,-1.91708768,1.07769755,0.58291727

>  <Name>
ligand

>  <RI>
0

>  <Rbt.Current_Directory>
/home/itssahil/PROJECTS/Mol_Feturizer/New_Systems/rnas/3DVV

>  <Rbt.Executable>
rbdock ($Id: //depot/dev/client3/rdock/2013.1/src/exe/rbdock.cxx#4 $)

>  <Rbt.Library>
libRbt.so (2013.1, Build901 2013/11/27)

>  <Rbt.Parameter_File>
/export/apps/rDock/src/rDock_2013.1_src/data/scripts/dock_solv.prm

>  <Rbt.Receptor>
prm/blind_docking_20.prm

>  <SCORE>
1.33039

>  <SCORE.INTER>
-3.90101

>  <SCORE.INTER.CONST>
1

>  <SCORE.INTER.POLAR>
0

>  <SCORE.INTER.ROT>
6

>  <SCORE.INTER.SOLV>
14.7301

>  <SCORE.INTER.VDW>
-15.1107

>  <SCORE.INTER.norm>
-0.125839

>  <SCORE.INTRA>
5.22498

>  <SCORE.INTRA.DIHEDRAL>
-2.16509

>  <SCORE.INTRA.DIHEDRAL.0>
10.8172

>  <SCORE.INTRA.POLAR>
0

>  <SCORE.INTRA.POLAR.0>
0

>  <SCORE.INTRA.REPUL>
0

>  <SCORE.INTRA.REPUL.0>
0

>  <SCORE.INTRA.SOLV>
2.33835

>  <SCORE.INTRA.SOLV.lig_0>
-80.3833

>  <SCORE.INTRA.VDW>
5.13835

>  <SCORE.INTRA.VDW.0>
-4.63762

>  <SCORE.INTRA.norm>
0.168548

>  <SCORE.RESTR>
0.00641353

>  <SCORE.RESTR.CAVITY>
0.00641353

>  <SCORE.RESTR.norm>
0.000206888

>  <SCORE.SYSTEM>
0

>  <SCORE.SYSTEM.CONST>
0

>  <SCORE.SYSTEM.DIHEDRAL>
0

>  <SCORE.SYSTEM.SOLV>
0

>  <SCORE.SYSTEM.norm>
0

>  <SCORE.heavy>
31

>  <SCORE.norm>
0.0429158

>  <RMSD>
26.069

$$$$
ligand
 OpenBabel11021811473D
libRbt.so/2013.1/901 2013/11/27
 31 33  0  0  0  0  0  0  0  0999 V2000
    7.7939  -10.7112    5.7138 C   0  0  0  0  0  0  0  0  0  0  0  0
    7.1265   -5.3842   -0.5811 N   0  0  0  0  0  0  0  0  0  0  0  0
    8.3053  -11.7441    4.8649 O   0  0  0  0  0  0  0  0  0  0  0  0
    6.9994   -9.6955    4.8888 C   0  0  1  0  0  0  0  0  0  0  0  0
    4.0315   -9.1130   -1.2291 N   0  0  0  0  0  0  0  0  0  0  0  0
    7.7974   -9.2162    3.7889 O   0  0  0  0  0  0  0  0  0  0  0  0
    7.0658   -9.4230    2.5675 C   0  0  1  0  0  0  0  0  0  0  0  0
    5.5396  -15.8461   -1.8330 N   0  0  0  0  0  0  0  0  0  0  0  0
    7.9410   -9.7145    1.4665 O   0  0  0  0  0  0  0  0  0  0  0  0
    7.5456   -9.0946    0.2339 C   0  0  2  0  0  0  0  0  0  0  0  0
    7.4979   -9.6852   -2.7043 N   0  0  0  0  0  0  0  0  0  0  0  0
    8.9321   -7.1625    0.6664 O   0  0  0  0  0  0  0  0  0  0  0  0
    7.5800   -7.5780    0.4554 C   0  0  1  0  0  0  0  0  0  0  0  0
    6.1420  -10.9361   -0.6145 O   0  0  0  0  0  0  0  0  0  0  0  0
    7.0098   -6.8398   -0.7574 C   0  0  1  0  0  0  0  0  0  0  0  0
    7.4763  -12.8675   -0.7794 O   0  0  0  0  0  0  0  0  0  0  0  0
    5.5427   -7.2305   -0.9373 C   0  0  0  0  0  0  0  0  0  0  0  0
    5.7394  -14.0858   -3.7753 O   0  0  0  0  0  0  0  0  0  0  0  0
    5.4529   -8.7358   -1.2045 C   0  0  1  0  0  0  0  0  0  0  0  0
    7.0661  -11.7227   -4.7347 O   0  0  0  0  0  0  0  0  0  0  0  0
    6.1462   -9.5819   -0.1297 C   0  0  2  0  0  0  0  0  0  0  0  0
    5.1178  -10.8108    1.9866 O   0  0  0  0  0  0  0  0  0  0  0  0
    7.4311  -11.4444   -0.9919 C   0  0  1  0  0  0  0  0  0  0  0  0
    4.6411   -9.4769    4.2207 O   0  0  0  0  0  0  0  0  0  0  0  0
    6.5017  -13.6078   -1.5340 C   0  0  2  0  0  0  0  0  0  0  0  0
    6.6436  -15.0973   -1.2117 C   0  0  0  0  0  0  0  0  0  0  0  0
    6.7484  -13.3999   -3.0293 C   0  0  2  0  0  0  0  0  0  0  0  0
    6.6983  -11.9076   -3.3637 C   0  0  1  0  0  0  0  0  0  0  0  0
    7.6683  -11.1277   -2.4723 C   0  0  1  0  0  0  0  0  0  0  0  0
    6.2361  -10.6701    2.8659 C   0  0  2  0  0  0  0  0  0  0  0  0
    5.7615  -10.3630    4.2831 C   0  0  1  0  0  0  0  0  0  0  0  0
  1  3  1  0  0  0  0
  4  1  1  6  0  0  0
  4  6  1  0  0  0  0
  4 31  1  0  0  0  0
  6  7  1  0  0  0  0
  7  9  1  6  0  0  0
  7 30  1  0  0  0  0
  8 26  1  0  0  0  0
 10  9  1  1  0  0  0
 10 13  1  0  0  0  0
 10 21  1  0  0  0  0
 13 12  1  6  0  0  0
 13 15  1  0  0  0  0
 15  2  1  1  0  0  0
 15 17  1  0  0  0  0
 16 25  1  0  0  0  0
 16 23  1  0  0  0  0
 17 19  1  0  0  0  0
 19  5  1  1  0  0  0
 19 21  1  0  0  0  0
 21 14  1  6  0  0  0
 23 14  1  6  0  0  0
 23 29  1  0  0  0  0
 25 26  1  6  0  0  0
 25 27  1  0  0  0  0
 27 18  1  6  0  0  0
 27 28  1  0  0  0  0
 28 20  1  6  0  0  0
 28 29  1  0  0  0  0
 29 11  1  1  0  0  0
 30 22  1  6  0  0  0
 30 31  1  0  0  0  0
 31 24  1  6  0  0  0
M  END
>  <CHROM.1>
-53.08700973,-140.70136971,61.46686038,149.87275249,-15.37623958,172.38167845
6.72266538,-10.48137963,0.22282075,0.50853182,1.49046751,2.10069673

>  <Name>
ligand

>  <RI>
0

>  <Rbt.Current_Directory>
/home/itssahil/PROJECTS/Mol_Feturizer/New_Systems/rnas/3DVV

>  <Rbt.Executable>
rbdock ($Id: //depot/dev/client3/rdock/2013.1/src/exe/rbdock.cxx#4 $)

>  <Rbt.Library>
libRbt.so (2013.1, Build901 2013/11/27)

>  <Rbt.Parameter_File>
/export/apps/rDock/src/rDock_2013.1_src/data/scripts/dock_solv.prm

>  <Rbt.Receptor>
prm/blind_docking_20.prm

>  <SCORE>
5.56569

>  <SCORE.INTER>
-4.50779

>  <SCORE.INTER.CONST>
1

>  <SCORE.INTER.POLAR>
0

>  <SCORE.INTER.ROT>
6

>  <SCORE.INTER.SOLV>
18.9747

>  <SCORE.INTER.VDW>
-16.9301

>  <SCORE.INTER.norm>
-0.145412

>  <SCORE.INTRA>
10.0007

>  <SCORE.INTRA.DIHEDRAL>
4.45382

>  <SCORE.INTRA.DIHEDRAL.0>
10.8172

>  <SCORE.INTRA.POLAR>
0

>  <SCORE.INTRA.POLAR.0>
0

>  <SCORE.INTRA.REPUL>
0

>  <SCORE.INTRA.REPUL.0>
0

>  <SCORE.INTRA.SOLV>
2.62743

>  <SCORE.INTRA.SOLV.lig_0>
-80.3833

>  <SCORE.INTRA.VDW>
6.46004

>  <SCORE.INTRA.VDW.0>
-4.63762

>  <SCORE.INTRA.norm>
0.322602

>  <SCORE.RESTR>
0.0728074

>  <SCORE.RESTR.CAVITY>
0.0728074

>  <SCORE.RESTR.norm>
0.00234863

>  <SCORE.SYSTEM>
0

>  <SCORE.SYSTEM.CONST>
0

>  <SCORE.SYSTEM.DIHEDRAL>
0

>  <SCORE.SYSTEM.SOLV>
0

>  <SCORE.SYSTEM.norm>
0

>  <SCORE.heavy>
31

>  <SCORE.norm>
0.179538

>  <RMSD>
26.079

$$$$
ligand
 OpenBabel11021811473D
libRbt.so/2013.1/901 2013/11/27
 31 33  0  0  0  0  0  0  0  0999 V2000
   10.8044   -6.0506   -2.2780 C   0  0  0  0  0  0  0  0  0  0  0  0
    3.4218   -7.9509    2.3811 N   0  0  0  0  0  0  0  0  0  0  0  0
   11.2666   -7.2173   -1.5896 O   0  0  0  0  0  0  0  0  0  0  0  0
    9.5589   -5.4893   -1.5875 C   0  0  1  0  0  0  0  0  0  0  0  0
    4.7348  -11.7004   -0.4687 N   0  0  0  0  0  0  0  0  0  0  0  0
    8.5245   -6.4913   -1.5380 O   0  0  0  0  0  0  0  0  0  0  0  0
    8.1042   -6.6492   -0.1711 C   0  0  1  0  0  0  0  0  0  0  0  0
    5.6985  -14.9976   -2.0941 N   0  0  0  0  0  0  0  0  0  0  0  0
    7.7187   -8.0031    0.1136 O   0  0  0  0  0  0  0  0  0  0  0  0
    6.3214   -8.2612   -0.0893 C   0  0  2  0  0  0  0  0  0  0  0  0
    8.2094   -9.2757   -3.9708 N   0  0  0  0  0  0  0  0  0  0  0  0
    5.6913   -6.5323    1.4781 O   0  0  0  0  0  0  0  0  0  0  0  0
    5.6030   -7.9373    1.2258 C   0  0  1  0  0  0  0  0  0  0  0  0
    6.5648   -9.9857   -1.8350 O   0  0  0  0  0  0  0  0  0  0  0  0
    4.1299   -8.3442    1.1534 C   0  0  1  0  0  0  0  0  0  0  0  0
    7.7547  -11.9810   -1.4594 O   0  0  0  0  0  0  0  0  0  0  0  0
    4.0374   -9.8575    0.9563 C   0  0  0  0  0  0  0  0  0  0  0  0
    6.2260  -13.6969   -4.3221 O   0  0  0  0  0  0  0  0  0  0  0  0
    4.7060  -10.2332   -0.3694 C   0  0  1  0  0  0  0  0  0  0  0  0
    7.8189  -11.6639   -5.5847 O   0  0  0  0  0  0  0  0  0  0  0  0
    6.1484   -9.7250   -0.4832 C   0  0  2  0  0  0  0  0  0  0  0  0
    9.0986   -5.9917    1.9823 O   0  0  0  0  0  0  0  0  0  0  0  0
    7.8409  -10.6331   -1.9575 C   0  0  1  0  0  0  0  0  0  0  0  0
    9.1698   -3.9545    0.2963 O   0  0  0  0  0  0  0  0  0  0  0  0
    6.8030  -12.8063   -2.1526 C   0  0  2  0  0  0  0  0  0  0  0  0
    6.7969  -14.2015   -1.5235 C   0  0  0  0  0  0  0  0  0  0  0  0
    7.2085  -12.9285   -3.6225 C   0  0  2  0  0  0  0  0  0  0  0  0
    7.3070  -11.5382   -4.2538 C   0  0  1  0  0  0  0  0  0  0  0  0
    8.2440  -10.6455   -3.4359 C   0  0  1  0  0  0  0  0  0  0  0  0
    9.3712   -6.3330    0.6211 C   0  0  2  0  0  0  0  0  0  0  0  0
    9.8846   -5.1138   -0.1391 C   0  0  1  0  0  0  0  0  0  0  0  0
  1  3  1  0  0  0  0
  4  1  1  1  0  0  0
  4  6  1  0  0  0  0
  4 31  1  0  0  0  0
  6  7  1  0  0  0  0
  7  9  1  6  0  0  0
  7 30  1  0  0  0  0
  8 26  1  0  0  0  0
 10  9  1  1  0  0  0
 10 13  1  0  0  0  0
 10 21  1  0  0  0  0
 13 12  1  6  0  0  0
 13 15  1  0  0  0  0
 15  2  1  1  0  0  0
 15 17  1  0  0  0  0
 16 25  1  0  0  0  0
 16 23  1  0  0  0  0
 17 19  1  0  0  0  0
 19  5  1  1  0  0  0
 19 21  1  0  0  0  0
 21 14  1  6  0  0  0
 23 14  1  6  0  0  0
 23 29  1  0  0  0  0
 25 26  1  1  0  0  0
 25 27  1  0  0  0  0
 27 18  1  6  0  0  0
 27 28  1  0  0  0  0
 28 20  1  6  0  0  0
 28 29  1  0  0  0  0
 29 11  1  6  0  0  0
 30 22  1  1  0  0  0
 30 31  1  0  0  0  0
 31 24  1  1  0  0  0
M  END
>  <CHROM.1>
-57.73836767,-91.39694369,-88.49254410,68.35872997,103.29798910,172.06571649
7.28436360,-9.20711573,-1.12654014,-1.22850884,-0.64427481,-2.51865525

>  <Name>
ligand

>  <RI>
0

>  <Rbt.Current_Directory>
/home/itssahil/PROJECTS/Mol_Feturizer/New_Systems/rnas/3DVV

>  <Rbt.Executable>
rbdock ($Id: //depot/dev/client3/rdock/2013.1/src/exe/rbdock.cxx#4 $)

>  <Rbt.Library>
libRbt.so (2013.1, Build901 2013/11/27)

>  <Rbt.Parameter_File>
/export/apps/rDock/src/rDock_2013.1_src/data/scripts/dock_solv.prm

>  <Rbt.Receptor>
prm/blind_docking_80.prm

>  <SCORE>
-1.54469

>  <SCORE.INTER>
-4.41077

>  <SCORE.INTER.CONST>
1

>  <SCORE.INTER.POLAR>
0

>  <SCORE.INTER.ROT>
6

>  <SCORE.INTER.SOLV>
15.7231

>  <SCORE.INTER.VDW>
-15.7815

>  <SCORE.INTER.norm>
-0.142283

>  <SCORE.INTRA>
2.86085

>  <SCORE.INTRA.DIHEDRAL>
2.7949

>  <SCORE.INTRA.DIHEDRAL.0>
10.8172

>  <SCORE.INTRA.POLAR>
0

>  <SCORE.INTRA.POLAR.0>
0

>  <SCORE.INTRA.REPUL>
0

>  <SCORE.INTRA.REPUL.0>
0

>  <SCORE.INTRA.SOLV>
0.767276

>  <SCORE.INTRA.SOLV.lig_0>
-80.3833

>  <SCORE.INTRA.VDW>
1.07976

>  <SCORE.INTRA.VDW.0>
-4.63762

>  <SCORE.INTRA.norm>
0.0922853

>  <SCORE.RESTR>
0.00523274

>  <SCORE.RESTR.CAVITY>
0.00523274

>  <SCORE.RESTR.norm>
0.000168798

>  <SCORE.SYSTEM>
0

>  <SCORE.SYSTEM.CONST>
0

>  <SCORE.SYSTEM.DIHEDRAL>
0

>  <SCORE.SYSTEM.SOLV>
0

>  <SCORE.SYSTEM.norm>
0

>  <SCORE.heavy>
31

>  <SCORE.norm>
-0.0498286

>  <RMSD>
26.099

$$$$
ligand
 OpenBabel11021811473D
libRbt.so/2013.1/901 2013/11/27
 31 33  0  0  0  0  0  0  0  0999 V2000
    3.6879   -4.7417   -0.3058 C   0  0  0  0  0  0  0  0  0  0  0  0
    6.5281   -9.5150    4.6716 N   0  0  0  0  0  0  0  0  0  0  0  0
    2.8663   -4.5211    0.8454 O   0  0  0  0  0  0  0  0  0  0  0  0
    5.0530   -5.2900    0.1175 C   0  0  1  0  0  0  0  0  0  0  0  0
    9.5496  -10.5010    0.9565 N   0  0  0  0  0  0  0  0  0  0  0  0
    4.8973   -6.5746    0.7516 O   0  0  0  0  0  0  0  0  0  0  0  0
    5.7360   -7.5258    0.0720 C   0  0  1  0  0  0  0  0  0  0  0  0
    8.8583   -8.9155   -4.5139 N   0  0  0  0  0  0  0  0  0  0  0  0
    5.1514   -8.8377    0.0615 O   0  0  0  0  0  0  0  0  0  0  0  0
    5.8136   -9.7727    0.9260 C   0  0  2  0  0  0  0  0  0  0  0  0
    5.0755  -12.4739   -0.7118 N   0  0  0  0  0  0  0  0  0  0  0  0
    4.4406   -9.1291    2.8084 O   0  0  0  0  0  0  0  0  0  0  0  0
    5.7909   -9.1804    2.3399 C   0  0  1  0  0  0  0  0  0  0  0  0
    7.2918  -10.7840   -0.7690 O   0  0  0  0  0  0  0  0  0  0  0  0
    6.6244  -10.0332    3.2984 C   0  0  1  0  0  0  0  0  0  0  0  0
    6.7659  -10.0125   -2.9292 O   0  0  0  0  0  0  0  0  0  0  0  0
    8.0817  -10.0270    2.8363 C   0  0  0  0  0  0  0  0  0  0  0  0
    7.9793  -13.0686   -4.5613 O   0  0  0  0  0  0  0  0  0  0  0  0
    8.1683  -10.6493    1.4395 C   0  0  1  0  0  0  0  0  0  0  0  0
    5.6770  -14.0004   -3.1136 O   0  0  0  0  0  0  0  0  0  0  0  0
    7.2386   -9.9782    0.4212 C   0  0  2  0  0  0  0  0  0  0  0  0
    6.8715   -7.5107   -2.1116 O   0  0  0  0  0  0  0  0  0  0  0  0
    6.2286  -10.5463   -1.7049 C   0  0  1  0  0  0  0  0  0  0  0  0
    7.3157   -5.2295   -0.8480 O   0  0  0  0  0  0  0  0  0  0  0  0
    7.7100  -10.8760   -3.5850 C   0  0  2  0  0  0  0  0  0  0  0  0
    8.2140  -10.1930   -4.8585 C   0  0  0  0  0  0  0  0  0  0  0  0
    7.0221  -12.1880   -3.9668 C   0  0  2  0  0  0  0  0  0  0  0  0
    6.4320  -12.8497   -2.7198 C   0  0  1  0  0  0  0  0  0  0  0  0
    5.5133  -11.8730   -1.9810 C   0  0  1  0  0  0  0  0  0  0  0  0
    5.7662   -7.0010   -1.3619 C   0  0  2  0  0  0  0  0  0  0  0  0
    5.9381   -5.5054   -1.1134 C   0  0  1  0  0  0  0  0  0  0  0  0
  1  3  1  0  0  0  0
  4  1  1  6  0  0  0
  4  6  1  0  0  0  0
  4 31  1  0  0  0  0
  6  7  1  0  0  0  0
  7  9  1  6  0  0  0
  7 30  1  0  0  0  0
  8 26  1  0  0  0  0
 10  9  1  6  0  0  0
 10 13  1  0  0  0  0
 10 21  1  0  0  0  0
 13 12  1  1  0  0  0
 13 15  1  0  0  0  0
 15  2  1  1  0  0  0
 15 17  1  0  0  0  0
 16 25  1  0  0  0  0
 16 23  1  0  0  0  0
 17 19  1  0  0  0  0
 19  5  1  6  0  0  0
 19 21  1  0  0  0  0
 21 14  1  6  0  0  0
 23 14  1  1  0  0  0
 23 29  1  0  0  0  0
 25 26  1  6  0  0  0
 25 27  1  0  0  0  0
 27 18  1  1  0  0  0
 27 28  1  0  0  0  0
 28 20  1  6  0  0  0
 28 29  1  0  0  0  0
 29 11  1  1  0  0  0
 30 22  1  6  0  0  0
 30 31  1  0  0  0  0
 31 24  1  1  0  0  0
M  END
>  <CHROM.1>
63.20291097,-108.23309913,57.21536854,115.49186501,38.19152527,59.53099720
6.37624261,-9.30984641,-0.65093972,2.86065578,-1.26691185,1.96290876

>  <Name>
ligand

>  <RI>
0

>  <Rbt.Current_Directory>
/home/itssahil/PROJECTS/Mol_Feturizer/New_Systems/rnas/3DVV

>  <Rbt.Executable>
rbdock ($Id: //depot/dev/client3/rdock/2013.1/src/exe/rbdock.cxx#4 $)

>  <Rbt.Library>
libRbt.so (2013.1, Build901 2013/11/27)

>  <Rbt.Parameter_File>
/export/apps/rDock/src/rDock_2013.1_src/data/scripts/dock_solv.prm

>  <Rbt.Receptor>
prm/blind_docking_80.prm

>  <SCORE>
-2.83473

>  <SCORE.INTER>
-8.24451

>  <SCORE.INTER.CONST>
1

>  <SCORE.INTER.POLAR>
0

>  <SCORE.INTER.ROT>
6

>  <SCORE.INTER.SOLV>
18.2306

>  <SCORE.INTER.VDW>
-19.1732

>  <SCORE.INTER.norm>
-0.265952

>  <SCORE.INTRA>
5.40297

>  <SCORE.INTRA.DIHEDRAL>
4.92898

>  <SCORE.INTRA.DIHEDRAL.0>
10.8172

>  <SCORE.INTRA.POLAR>
0

>  <SCORE.INTRA.POLAR.0>
0

>  <SCORE.INTRA.REPUL>
0

>  <SCORE.INTRA.REPUL.0>
0

>  <SCORE.INTRA.SOLV>
-1.84419

>  <SCORE.INTRA.SOLV.lig_0>
-80.3833

>  <SCORE.INTRA.VDW>
3.86057

>  <SCORE.INTRA.VDW.0>
-4.63762

>  <SCORE.INTRA.norm>
0.174289

>  <SCORE.RESTR>
0.00681165

>  <SCORE.RESTR.CAVITY>
0.00681165

>  <SCORE.RESTR.norm>
0.000219731

>  <SCORE.SYSTEM>
0

>  <SCORE.SYSTEM.CONST>
0

>  <SCORE.SYSTEM.DIHEDRAL>
0

>  <SCORE.SYSTEM.SOLV>
0

>  <SCORE.SYSTEM.norm>
0

>  <SCORE.heavy>
31

>  <SCORE.norm>
-0.0914429

>  <RMSD>
26.125

$$$$
ligand
 OpenBabel11021811473D
libRbt.so/2013.1/901 2013/11/27
 31 33  0  0  0  0  0  0  0  0999 V2000
    7.5838  -12.2265    5.4816 C   0  0  0  0  0  0  0  0  0  0  0  0
    8.2284   -6.1124    0.3899 N   0  0  0  0  0  0  0  0  0  0  0  0
    6.4777  -12.9373    4.9157 O   0  0  0  0  0  0  0  0  0  0  0  0
    7.3747  -10.7178    5.3296 C   0  0  1  0  0  0  0  0  0  0  0  0
    6.2627   -9.5382   -2.4917 N   0  0  0  0  0  0  0  0  0  0  0  0
    7.4222  -10.3474    3.9379 O   0  0  0  0  0  0  0  0  0  0  0  0
    6.2164   -9.6336    3.6120 C   0  0  1  0  0  0  0  0  0  0  0  0
    6.6978  -13.5852   -4.8673 N   0  0  0  0  0  0  0  0  0  0  0  0
    5.8001   -9.8825    2.2601 O   0  0  0  0  0  0  0  0  0  0  0  0
    6.7893   -9.5397    1.2782 C   0  0  2  0  0  0  0  0  0  0  0  0
    4.2951  -13.0598    0.6070 N   0  0  0  0  0  0  0  0  0  0  0  0
    7.6203   -7.7183    2.6327 O   0  0  0  0  0  0  0  0  0  0  0  0
    7.0190   -8.0268    1.3722 C   0  0  1  0  0  0  0  0  0  0  0  0
    6.3184  -11.3722   -0.3033 O   0  0  0  0  0  0  0  0  0  0  0  0
    7.9364   -7.5467    0.2458 C   0  0  1  0  0  0  0  0  0  0  0  0
    6.0044  -12.0451   -2.5364 O   0  0  0  0  0  0  0  0  0  0  0  0
    7.2591   -7.8117   -1.0990 C   0  0  0  0  0  0  0  0  0  0  0  0
    7.7222  -15.2525   -2.0485 O   0  0  0  0  0  0  0  0  0  0  0  0
    7.0428   -9.3188   -1.2642 C   0  0  1  0  0  0  0  0  0  0  0  0
    5.3559  -15.5559   -0.4443 O   0  0  0  0  0  0  0  0  0  0  0  0
    6.2725   -9.9494   -0.0976 C   0  0  2  0  0  0  0  0  0  0  0  0
    4.0355   -9.4139    4.7317 O   0  0  0  0  0  0  0  0  0  0  0  0
    5.3682  -11.8735   -1.2565 C   0  0  1  0  0  0  0  0  0  0  0  0
    5.9876   -9.0402    6.4775 O   0  0  0  0  0  0  0  0  0  0  0  0
    7.1083  -12.9664   -2.5277 C   0  0  2  0  0  0  0  0  0  0  0  0
    7.7031  -13.0498   -3.9354 C   0  0  0  0  0  0  0  0  0  0  0  0
    6.6118  -14.3540   -2.1178 C   0  0  2  0  0  0  0  0  0  0  0  0
    5.9333  -14.2817   -0.7482 C   0  0  1  0  0  0  0  0  0  0  0  0
    4.8323  -13.2180   -0.7532 C   0  0  1  0  0  0  0  0  0  0  0  0
    5.1832  -10.2476    4.5544 C   0  0  2  0  0  0  0  0  0  0  0  0
    5.9886  -10.3240    5.8480 C   0  0  1  0  0  0  0  0  0  0  0  0
  1  3  1  0  0  0  0
  4  1  1  6  0  0  0
  4  6  1  0  0  0  0
  4 31  1  0  0  0  0
  6  7  1  0  0  0  0
  7  9  1  6  0  0  0
  7 30  1  0  0  0  0
  8 26  1  0  0  0  0
 10  9  1  1  0  0  0
 10 13  1  0  0  0  0
 10 21  1  0  0  0  0
 13 12  1  1  0  0  0
 13 15  1  0  0  0  0
 15  2  1  1  0  0  0
 15 17  1  0  0  0  0
 16 25  1  0  0  0  0
 16 23  1  0  0  0  0
 17 19  1  0  0  0  0
 19  5  1  6  0  0  0
 19 21  1  0  0  0  0
 21 14  1  6  0  0  0
 23 14  1  1  0  0  0
 23 29  1  0  0  0  0
 25 26  1  6  0  0  0
 25 27  1  0  0  0  0
 27 18  1  1  0  0  0
 27 28  1  0  0  0  0
 28 20  1  6  0  0  0
 28 29  1  0  0  0  0
 29 11  1  1  0  0  0
 30 22  1  1  0  0  0
 30 31  1  0  0  0  0
 31 24  1  6  0  0  0
M  END
>  <CHROM.1>
-66.77252107,-57.78242611,-63.36779964,97.87242100,154.29164385,-62.87529138
6.45953884,-11.01894403,0.92321006,1.62910381,1.34802176,1.04107489

>  <Name>
ligand

>  <RI>
0

>  <Rbt.Current_Directory>
/home/itssahil/PROJECTS/Mol_Feturizer/New_Systems/rnas/3DVV

>  <Rbt.Executable>
rbdock ($Id: //depot/dev/client3/rdock/2013.1/src/exe/rbdock.cxx#4 $)

>  <Rbt.Library>
libRbt.so (2013.1, Build901 2013/11/27)

>  <Rbt.Parameter_File>
/export/apps/rDock/src/rDock_2013.1_src/data/scripts/dock_solv.prm

>  <Rbt.Receptor>
prm/blind_docking_20.prm

>  <SCORE>
0.50656

>  <SCORE.INTER>
-3.23562

>  <SCORE.INTER.CONST>
1

>  <SCORE.INTER.POLAR>
0

>  <SCORE.INTER.ROT>
6

>  <SCORE.INTER.SOLV>
23.5416

>  <SCORE.INTER.VDW>
-17.6043

>  <SCORE.INTER.norm>
-0.104375

>  <SCORE.INTRA>
3.74218

>  <SCORE.INTRA.DIHEDRAL>
-2.51192

>  <SCORE.INTRA.DIHEDRAL.0>
10.8172

>  <SCORE.INTRA.POLAR>
0

>  <SCORE.INTRA.POLAR.0>
0

>  <SCORE.INTRA.REPUL>
0

>  <SCORE.INTRA.REPUL.0>
0

>  <SCORE.INTRA.SOLV>
0.518921

>  <SCORE.INTRA.SOLV.lig_0>
-80.3833

>  <SCORE.INTRA.VDW>
4.73868

>  <SCORE.INTRA.VDW.0>
-4.63762

>  <SCORE.INTRA.norm>
0.120716

>  <SCORE.RESTR>
0

>  <SCORE.RESTR.CAVITY>
0

>  <SCORE.RESTR.norm>
0

>  <SCORE.SYSTEM>
0

>  <SCORE.SYSTEM.CONST>
0

>  <SCORE.SYSTEM.DIHEDRAL>
0

>  <SCORE.SYSTEM.SOLV>
0

>  <SCORE.SYSTEM.norm>
0

>  <SCORE.heavy>
31

>  <SCORE.norm>
0.0163406

>  <RMSD>
26.163

$$$$
ligand
 OpenBabel11021811473D
libRbt.so/2013.1/901 2013/11/27
 31 33  0  0  0  0  0  0  0  0999 V2000
    9.9392   -4.8015   -0.5612 C   0  0  0  0  0  0  0  0  0  0  0  0
    2.6184   -7.7760    1.6843 N   0  0  0  0  0  0  0  0  0  0  0  0
   11.1758   -4.8144    0.1594 O   0  0  0  0  0  0  0  0  0  0  0  0
    8.7918   -5.2409    0.3519 C   0  0  1  0  0  0  0  0  0  0  0  0
    5.4713  -11.4801    0.2546 N   0  0  0  0  0  0  0  0  0  0  0  0
    7.5625   -5.3156   -0.3961 O   0  0  0  0  0  0  0  0  0  0  0  0
    7.0004   -6.6288   -0.2244 C   0  0  1  0  0  0  0  0  0  0  0  0
    5.5003  -15.0285   -1.9721 N   0  0  0  0  0  0  0  0  0  0  0  0
    6.3038   -7.0669   -1.4015 O   0  0  0  0  0  0  0  0  0  0  0  0
    5.2010   -7.9439   -1.1279 C   0  0  2  0  0  0  0  0  0  0  0  0
    8.0298   -9.3844   -4.0744 N   0  0  0  0  0  0  0  0  0  0  0  0
    3.8743   -6.1302   -0.2374 O   0  0  0  0  0  0  0  0  0  0  0  0
    4.4696   -7.3864    0.0988 C   0  0  1  0  0  0  0  0  0  0  0  0
    6.1808   -9.9967   -2.0802 O   0  0  0  0  0  0  0  0  0  0  0  0
    3.3781   -8.3523    0.5645 C   0  0  1  0  0  0  0  0  0  0  0  0
    7.3941  -11.8977   -1.4077 O   0  0  0  0  0  0  0  0  0  0  0  0
    4.0246   -9.6701    0.9921 C   0  0  0  0  0  0  0  0  0  0  0  0
    6.2658  -13.9072   -4.2651 O   0  0  0  0  0  0  0  0  0  0  0  0
    4.7373  -10.2938   -0.2115 C   0  0  1  0  0  0  0  0  0  0  0  0
    7.9147  -11.9100   -5.5128 O   0  0  0  0  0  0  0  0  0  0  0  0
    5.7452   -9.3464   -0.8735 C   0  0  2  0  0  0  0  0  0  0  0  0
    7.9234   -8.7621    0.5848 O   0  0  0  0  0  0  0  0  0  0  0  0
    7.4859  -10.5915   -2.0060 C   0  0  1  0  0  0  0  0  0  0  0  0
    8.5866   -6.8071    2.2389 O   0  0  0  0  0  0  0  0  0  0  0  0
    6.5588  -12.8194   -2.1288 C   0  0  2  0  0  0  0  0  0  0  0  0
    6.5334  -14.1584   -1.3880 C   0  0  0  0  0  0  0  0  0  0  0  0
    7.1330  -13.0402   -3.5294 C   0  0  2  0  0  0  0  0  0  0  0  0
    7.2506  -11.7019   -4.2618 C   0  0  1  0  0  0  0  0  0  0  0  0
    8.0545  -10.7037   -3.4245 C   0  0  1  0  0  0  0  0  0  0  0  0
    8.2319   -7.5125   -0.0371 C   0  0  2  0  0  0  0  0  0  0  0  0
    9.0646   -6.6441    0.9012 C   0  0  1  0  0  0  0  0  0  0  0  0
  1  3  1  0  0  0  0
  4  1  1  6  0  0  0
  4  6  1  0  0  0  0
  4 31  1  0  0  0  0
  6  7  1  0  0  0  0
  7  9  1  6  0  0  0
  7 30  1  0  0  0  0
  8 26  1  0  0  0  0
 10  9  1  1  0  0  0
 10 13  1  0  0  0  0
 10 21  1  0  0  0  0
 13 12  1  6  0  0  0
 13 15  1  0  0  0  0
 15  2  1  1  0  0  0
 15 17  1  0  0  0  0
 16 25  1  0  0  0  0
 16 23  1  0  0  0  0
 17 19  1  0  0  0  0
 19  5  1  1  0  0  0
 19 21  1  0  0  0  0
 21 14  1  6  0  0  0
 23 14  1  6  0  0  0
 23 29  1  0  0  0  0
 25 26  1  1  0  0  0
 25 27  1  0  0  0  0
 27 18  1  6  0  0  0
 27 28  1  0  0  0  0
 28 20  1  6  0  0  0
 28 29  1  0  0  0  0
 29 11  1  6  0  0  0
 30 22  1  1  0  0  0
 30 31  1  0  0  0  0
 31 24  1  1  0  0  0
M  END
>  <CHROM.1>
-176.10956758,-149.35090172,41.47051314,83.27761516,131.23160077,169.81890948
6.75188181,-9.23781421,-1.07897111,-1.39778362,-0.45240055,-2.61311071

>  <Name>
ligand

>  <RI>
0

>  <Rbt.Current_Directory>
/home/itssahil/PROJECTS/Mol_Feturizer/New_Systems/rnas/3DVV

>  <Rbt.Executable>
rbdock ($Id: //depot/dev/client3/rdock/2013.1/src/exe/rbdock.cxx#4 $)

>  <Rbt.Library>
libRbt.so (2013.1, Build901 2013/11/27)

>  <Rbt.Parameter_File>
/export/apps/rDock/src/rDock_2013.1_src/data/scripts/dock_solv.prm

>  <Rbt.Receptor>
prm/blind_docking_20.prm

>  <SCORE>
-2.46514

>  <SCORE.INTER>
-9.22269

>  <SCORE.INTER.CONST>
1

>  <SCORE.INTER.POLAR>
0

>  <SCORE.INTER.ROT>
6

>  <SCORE.INTER.SOLV>
15.8943

>  <SCORE.INTER.VDW>
-19.0466

>  <SCORE.INTER.norm>
-0.297506

>  <SCORE.INTRA>
6.74896

>  <SCORE.INTRA.DIHEDRAL>
3.77702

>  <SCORE.INTRA.DIHEDRAL.0>
10.8172

>  <SCORE.INTRA.POLAR>
0

>  <SCORE.INTRA.POLAR.0>
0

>  <SCORE.INTRA.REPUL>
0

>  <SCORE.INTRA.REPUL.0>
0

>  <SCORE.INTRA.SOLV>
1.46332

>  <SCORE.INTRA.SOLV.lig_0>
-80.3833

>  <SCORE.INTRA.VDW>
4.12879

>  <SCORE.INTRA.VDW.0>
-4.63762

>  <SCORE.INTRA.norm>
0.217709

>  <SCORE.RESTR>
0.00858558

>  <SCORE.RESTR.CAVITY>
0.00858558

>  <SCORE.RESTR.norm>
0.000276954

>  <SCORE.SYSTEM>
0

>  <SCORE.SYSTEM.CONST>
0

>  <SCORE.SYSTEM.DIHEDRAL>
0

>  <SCORE.SYSTEM.SOLV>
0

>  <SCORE.SYSTEM.norm>
0

>  <SCORE.heavy>
31

>  <SCORE.norm>
-0.0795208

>  <RMSD>
26.260

$$$$
ligand
 OpenBabel11021811473D
libRbt.so/2013.1/901 2013/11/27
 31 33  0  0  0  0  0  0  0  0999 V2000
    7.6822   -9.6745   -4.3546 C   0  0  0  0  0  0  0  0  0  0  0  0
    3.4302  -14.0805    2.3160 N   0  0  0  0  0  0  0  0  0  0  0  0
    8.0804  -10.0329   -5.6819 O   0  0  0  0  0  0  0  0  0  0  0  0
    7.9010  -10.8526   -3.4020 C   0  0  1  0  0  0  0  0  0  0  0  0
    4.2936   -9.4236    3.5289 N   0  0  0  0  0  0  0  0  0  0  0  0
    7.4190  -10.5224   -2.0848 O   0  0  0  0  0  0  0  0  0  0  0  0
    6.4821  -11.5334   -1.6727 C   0  0  1  0  0  0  0  0  0  0  0  0
    2.4205   -7.0530    1.0009 N   0  0  0  0  0  0  0  0  0  0  0  0
    5.4409  -10.9884   -0.8468 O   0  0  0  0  0  0  0  0  0  0  0  0
    5.5034  -11.4183    0.5211 C   0  0  2  0  0  0  0  0  0  0  0  0
    8.8108   -8.2570    0.9071 N   0  0  0  0  0  0  0  0  0  0  0  0
    4.8790  -13.6761   -0.0749 O   0  0  0  0  0  0  0  0  0  0  0  0
    4.4727  -12.5402    0.6933 C   0  0  1  0  0  0  0  0  0  0  0  0
    6.2884   -9.2907    1.4896 O   0  0  0  0  0  0  0  0  0  0  0  0
    4.3516  -12.9441    2.1640 C   0  0  1  0  0  0  0  0  0  0  0  0
    5.2172   -7.6962    0.1301 O   0  0  0  0  0  0  0  0  0  0  0  0
    3.8475  -11.7482    2.9721 C   0  0  0  0  0  0  0  0  0  0  0  0
    5.6227   -4.9979    2.5859 O   0  0  0  0  0  0  0  0  0  0  0  0
    4.8642  -10.6075    2.8687 C   0  0  1  0  0  0  0  0  0  0  0  0
    8.3305   -5.5227    1.7753 O   0  0  0  0  0  0  0  0  0  0  0  0
    5.1971  -10.2252    1.4214 C   0  0  2  0  0  0  0  0  0  0  0  0
    5.2391  -13.2735   -2.8913 O   0  0  0  0  0  0  0  0  0  0  0  0
    6.4293   -8.4447    0.3375 C   0  0  1  0  0  0  0  0  0  0  0  0
    7.7810  -13.3005   -3.6233 O   0  0  0  0  0  0  0  0  0  0  0  0
    4.8554   -6.8429    1.2293 C   0  0  2  0  0  0  0  0  0  0  0  0
    3.5508   -6.1169    0.8924 C   0  0  0  0  0  0  0  0  0  0  0  0
    5.9558   -5.8039    1.4526 C   0  0  2  0  0  0  0  0  0  0  0  0
    7.2919   -6.5054    1.7058 C   0  0  1  0  0  0  0  0  0  0  0  0
    7.6025   -7.4875    0.5733 C   0  0  1  0  0  0  0  0  0  0  0  0
    5.8610  -11.9902   -2.9911 C   0  0  2  0  0  0  0  0  0  0  0  0
    7.1008  -12.0687   -3.8769 C   0  0  1  0  0  0  0  0  0  0  0  0
  1  3  1  0  0  0  0
  4  1  1  6  0  0  0
  4  6  1  0  0  0  0
  4 31  1  0  0  0  0
  6  7  1  0  0  0  0
  7  9  1  1  0  0  0
  7 30  1  0  0  0  0
  8 26  1  0  0  0  0
 10  9  1  6  0  0  0
 10 13  1  0  0  0  0
 10 21  1  0  0  0  0
 13 12  1  6  0  0  0
 13 15  1  0  0  0  0
 15  2  1  6  0  0  0
 15 17  1  0  0  0  0
 16 25  1  0  0  0  0
 16 23  1  0  0  0  0
 17 19  1  0  0  0  0
 19  5  1  1  0  0  0
 19 21  1  0  0  0  0
 21 14  1  1  0  0  0
 23 14  1  1  0  0  0
 23 29  1  0  0  0  0
 25 26  1  6  0  0  0
 25 27  1  0  0  0  0
 27 18  1  1  0  0  0
 27 28  1  0  0  0  0
 28 20  1  6  0  0  0
 28 29  1  0  0  0  0
 29 11  1  1  0  0  0
 30 22  1  1  0  0  0
 30 31  1  0  0  0  0
 31 24  1  1  0  0  0
M  END
>  <CHROM.1>
-176.23971891,-111.09786470,-100.18947285,58.20687959,76.67811038,74.46409934
5.89883504,-9.83678726,-0.07379850,-1.30787253,0.97615198,0.51599389

>  <Name>
ligand

>  <RI>
0

>  <Rbt.Current_Directory>
/home/itssahil/PROJECTS/Mol_Feturizer/New_Systems/rnas/3DVV

>  <Rbt.Executable>
rbdock ($Id: //depot/dev/client3/rdock/2013.1/src/exe/rbdock.cxx#4 $)

>  <Rbt.Library>
libRbt.so (2013.1, Build901 2013/11/27)

>  <Rbt.Parameter_File>
/export/apps/rDock/src/rDock_2013.1_src/data/scripts/dock_solv.prm

>  <Rbt.Receptor>
prm/blind_docking_40.prm

>  <SCORE>
-3.20142

>  <SCORE.INTER>
-5.74908

>  <SCORE.INTER.CONST>
1

>  <SCORE.INTER.POLAR>
0

>  <SCORE.INTER.ROT>
6

>  <SCORE.INTER.SOLV>
18.8822

>  <SCORE.INTER.VDW>
-17.7268

>  <SCORE.INTER.norm>
-0.185454

>  <SCORE.INTRA>
1.30214

>  <SCORE.INTRA.DIHEDRAL>
3.4429

>  <SCORE.INTRA.DIHEDRAL.0>
10.8172

>  <SCORE.INTRA.POLAR>
0

>  <SCORE.INTRA.POLAR.0>
0

>  <SCORE.INTRA.REPUL>
0

>  <SCORE.INTRA.REPUL.0>
0

>  <SCORE.INTRA.SOLV>
-2.38845

>  <SCORE.INTRA.SOLV.lig_0>
-80.3833

>  <SCORE.INTRA.VDW>
0.774923

>  <SCORE.INTRA.VDW.0>
-4.63762

>  <SCORE.INTRA.norm>
0.0420047

>  <SCORE.RESTR>
1.24551

>  <SCORE.RESTR.CAVITY>
1.24551

>  <SCORE.RESTR.norm>
0.0401778

>  <SCORE.SYSTEM>
0

>  <SCORE.SYSTEM.CONST>
0

>  <SCORE.SYSTEM.DIHEDRAL>
0

>  <SCORE.SYSTEM.SOLV>
0

>  <SCORE.SYSTEM.norm>
0

>  <SCORE.heavy>
31

>  <SCORE.norm>
-0.103272

>  <RMSD>
26.348

$$$$
ligand
 OpenBabel11021811473D
libRbt.so/2013.1/901 2013/11/27
 31 33  0  0  0  0  0  0  0  0999 V2000
    9.4184   -3.9957    0.1059 C   0  0  0  0  0  0  0  0  0  0  0  0
    3.3229   -6.6201    1.1609 N   0  0  0  0  0  0  0  0  0  0  0  0
    9.2935   -3.7663   -1.3014 O   0  0  0  0  0  0  0  0  0  0  0  0
    9.1634   -5.4711    0.4246 C   0  0  1  0  0  0  0  0  0  0  0  0
    5.3879  -10.9489    0.2118 N   0  0  0  0  0  0  0  0  0  0  0  0
    7.8585   -5.8623   -0.0451 O   0  0  0  0  0  0  0  0  0  0  0  0
    8.0047   -7.0074   -0.9037 C   0  0  1  0  0  0  0  0  0  0  0  0
    5.2861  -14.8819   -1.7653 N   0  0  0  0  0  0  0  0  0  0  0  0
    7.0286   -7.0100   -1.9573 O   0  0  0  0  0  0  0  0  0  0  0  0
    5.7820   -7.6186   -1.5891 C   0  0  2  0  0  0  0  0  0  0  0  0
    8.1466   -9.6349   -4.3773 N   0  0  0  0  0  0  0  0  0  0  0  0
    4.8425   -5.4898   -0.9348 O   0  0  0  0  0  0  0  0  0  0  0  0
    5.1901   -6.7876   -0.4447 C   0  0  1  0  0  0  0  0  0  0  0  0
    6.3341   -9.9209   -2.2789 O   0  0  0  0  0  0  0  0  0  0  0  0
    3.9405   -7.4620    0.1250 C   0  0  1  0  0  0  0  0  0  0  0  0
    7.4109  -11.8581   -1.4879 O   0  0  0  0  0  0  0  0  0  0  0  0
    4.3278   -8.8188    0.7137 C   0  0  0  0  0  0  0  0  0  0  0  0
    6.0066  -13.9894   -4.1264 O   0  0  0  0  0  0  0  0  0  0  0  0
    4.8889   -9.7079   -0.3999 C   0  0  1  0  0  0  0  0  0  0  0  0
    7.7648  -12.2501   -5.5921 O   0  0  0  0  0  0  0  0  0  0  0  0
    6.0500   -9.0589   -1.1630 C   0  0  2  0  0  0  0  0  0  0  0  0
    9.9327   -8.0089   -2.0603 O   0  0  0  0  0  0  0  0  0  0  0  0
    7.5871  -10.6179   -2.1973 C   0  0  1  0  0  0  0  0  0  0  0  0
   10.5575   -7.4986    0.4590 O   0  0  0  0  0  0  0  0  0  0  0  0
    6.4739  -12.7602   -2.1006 C   0  0  2  0  0  0  0  0  0  0  0  0
    6.3668  -14.0271   -1.2486 C   0  0  0  0  0  0  0  0  0  0  0  0
    6.9715  -13.1431   -3.4956 C   0  0  2  0  0  0  0  0  0  0  0  0
    7.1706  -11.8842   -4.3421 C   0  0  1  0  0  0  0  0  0  0  0  0
    8.0875  -10.8940   -3.6192 C   0  0  1  0  0  0  0  0  0  0  0  0
    9.3841   -6.8017   -1.5261 C   0  0  2  0  0  0  0  0  0  0  0  0
   10.1818   -6.3507   -0.3062 C   0  0  1  0  0  0  0  0  0  0  0  0
  1  3  1  0  0  0  0
  4  1  1  6  0  0  0
  4  6  1  0  0  0  0
  4 31  1  0  0  0  0
  6  7  1  0  0  0  0
  7  9  1  6  0  0  0
  7 30  1  0  0  0  0
  8 26  1  0  0  0  0
 10  9  1  1  0  0  0
 10 13  1  0  0  0  0
 10 21  1  0  0  0  0
 13 12  1  6  0  0  0
 13 15  1  0  0  0  0
 15  2  1  1  0  0  0
 15 17  1  0  0  0  0
 16 25  1  0  0  0  0
 16 23  1  0  0  0  0
 17 19  1  0  0  0  0
 19  5  1  1  0  0  0
 19 21  1  0  0  0  0
 21 14  1  6  0  0  0
 23 14  1  6  0  0  0
 23 29  1  0  0  0  0
 25 26  1  1  0  0  0
 25 27  1  0  0  0  0
 27 18  1  6  0  0  0
 27 28  1  0  0  0  0
 28 20  1  6  0  0  0
 28 29  1  0  0  0  0
 29 11  1  6  0  0  0
 30 22  1  1  0  0  0
 30 31  1  0  0  0  0
 31 24  1  1  0  0  0
M  END
>  <CHROM.1>
-57.39560168,-86.43384497,62.33535279,87.82584558,123.80113333,172.67037499
7.06678017,-9.01777980,-1.50424763,-1.35887507,-0.43193964,-2.70589342

>  <Name>
ligand

>  <RI>
0

>  <Rbt.Current_Directory>
/home/itssahil/PROJECTS/Mol_Feturizer/New_Systems/rnas/3DVV

>  <Rbt.Executable>
rbdock ($Id: //depot/dev/client3/rdock/2013.1/src/exe/rbdock.cxx#4 $)

>  <Rbt.Library>
libRbt.so (2013.1, Build901 2013/11/27)

>  <Rbt.Parameter_File>
/export/apps/rDock/src/rDock_2013.1_src/data/scripts/dock_solv.prm

>  <Rbt.Receptor>
prm/blind_docking_20.prm

>  <SCORE>
-4.52628

>  <SCORE.INTER>
-8.75926

>  <SCORE.INTER.CONST>
1

>  <SCORE.INTER.POLAR>
0

>  <SCORE.INTER.ROT>
6

>  <SCORE.INTER.SOLV>
17.0281

>  <SCORE.INTER.VDW>
-19.1155

>  <SCORE.INTER.norm>
-0.282557

>  <SCORE.INTRA>
4.23298

>  <SCORE.INTRA.DIHEDRAL>
2.63105

>  <SCORE.INTRA.DIHEDRAL.0>
10.8172

>  <SCORE.INTRA.POLAR>
0

>  <SCORE.INTRA.POLAR.0>
0

>  <SCORE.INTRA.REPUL>
0

>  <SCORE.INTRA.REPUL.0>
0

>  <SCORE.INTRA.SOLV>
1.45907

>  <SCORE.INTRA.SOLV.lig_0>
-80.3833

>  <SCORE.INTRA.VDW>
2.18792

>  <SCORE.INTRA.VDW.0>
-4.63762

>  <SCORE.INTRA.norm>
0.136548

>  <SCORE.RESTR>
0

>  <SCORE.RESTR.CAVITY>
0

>  <SCORE.RESTR.norm>
0

>  <SCORE.SYSTEM>
0

>  <SCORE.SYSTEM.CONST>
0

>  <SCORE.SYSTEM.DIHEDRAL>
0

>  <SCORE.SYSTEM.SOLV>
0

>  <SCORE.SYSTEM.norm>
0

>  <SCORE.heavy>
31

>  <SCORE.norm>
-0.146009

>  <RMSD>
26.349

$$$$
ligand
 OpenBabel11021811473D
libRbt.so/2013.1/901 2013/11/27
 31 33  0  0  0  0  0  0  0  0999 V2000
    9.3390   -4.0546   -0.0008 C   0  0  0  0  0  0  0  0  0  0  0  0
    3.3565   -6.7715    1.1085 N   0  0  0  0  0  0  0  0  0  0  0  0
   10.4717   -3.5423    0.7087 O   0  0  0  0  0  0  0  0  0  0  0  0
    9.1061   -5.5223    0.3663 C   0  0  1  0  0  0  0  0  0  0  0  0
    5.3887  -11.1168    0.1639 N   0  0  0  0  0  0  0  0  0  0  0  0
    7.8213   -5.9579   -0.1192 O   0  0  0  0  0  0  0  0  0  0  0  0
    8.0114   -7.1304   -0.9309 C   0  0  1  0  0  0  0  0  0  0  0  0
    7.3267  -14.9573   -1.1298 N   0  0  0  0  0  0  0  0  0  0  0  0
    7.0615   -7.1921   -2.0065 O   0  0  0  0  0  0  0  0  0  0  0  0
    5.8100   -7.7908   -1.6389 C   0  0  2  0  0  0  0  0  0  0  0  0
    8.2029  -10.0009   -4.4024 N   0  0  0  0  0  0  0  0  0  0  0  0
    4.8865   -5.6544   -0.9866 O   0  0  0  0  0  0  0  0  0  0  0  0
    5.2237   -6.9546   -0.4955 C   0  0  1  0  0  0  0  0  0  0  0  0
    6.3447  -10.0978   -2.3267 O   0  0  0  0  0  0  0  0  0  0  0  0
    3.9684   -7.6189    0.0737 C   0  0  1  0  0  0  0  0  0  0  0  0
    7.2788  -12.0747   -1.4565 O   0  0  0  0  0  0  0  0  0  0  0  0
    4.3448   -8.9782    0.6636 C   0  0  0  0  0  0  0  0  0  0  0  0
    5.7750  -14.1944   -4.0491 O   0  0  0  0  0  0  0  0  0  0  0  0
    4.8998   -9.8724   -0.4491 C   0  0  1  0  0  0  0  0  0  0  0  0
    7.6662  -12.6238   -5.5396 O   0  0  0  0  0  0  0  0  0  0  0  0
    6.0665   -9.2329   -1.2116 C   0  0  2  0  0  0  0  0  0  0  0  0
    9.9869   -8.1327   -2.0038 O   0  0  0  0  0  0  0  0  0  0  0  0
    7.5474  -10.8728   -2.2020 C   0  0  1  0  0  0  0  0  0  0  0  0
   10.5397   -7.5174    0.5089 O   0  0  0  0  0  0  0  0  0  0  0  0
    6.2931  -12.9327   -2.0559 C   0  0  2  0  0  0  0  0  0  0  0  0
    6.0896  -14.1612   -1.1660 C   0  0  0  0  0  0  0  0  0  0  0  0
    6.7846  -13.3932   -3.4294 C   0  0  2  0  0  0  0  0  0  0  0  0
    7.0793  -12.1787   -4.3121 C   0  0  1  0  0  0  0  0  0  0  0  0
    8.0492  -11.2278   -3.6057 C   0  0  1  0  0  0  0  0  0  0  0  0
    9.4012   -6.9186   -1.5279 C   0  0  2  0  0  0  0  0  0  0  0  0
   10.1596   -6.4064   -0.3071 C   0  0  1  0  0  0  0  0  0  0  0  0
  1  3  1  0  0  0  0
  4  1  1  6  0  0  0
  4  6  1  0  0  0  0
  4 31  1  0  0  0  0
  6  7  1  0  0  0  0
  7  9  1  6  0  0  0
  7 30  1  0  0  0  0
  8 26  1  0  0  0  0
 10  9  1  1  0  0  0
 10 13  1  0  0  0  0
 10 21  1  0  0  0  0
 13 12  1  6  0  0  0
 13 15  1  0  0  0  0
 15  2  1  1  0  0  0
 15 17  1  0  0  0  0
 16 25  1  0  0  0  0
 16 23  1  0  0  0  0
 17 19  1  0  0  0  0
 19  5  1  1  0  0  0
 19 21  1  0  0  0  0
 21 14  1  6  0  0  0
 23 14  1  6  0  0  0
 23 29  1  0  0  0  0
 25 26  1  1  0  0  0
 25 27  1  0  0  0  0
 27 18  1  6  0  0  0
 27 28  1  0  0  0  0
 28 20  1  6  0  0  0
 28 29  1  0  0  0  0
 29 11  1  6  0  0  0
 30 22  1  1  0  0  0
 30 31  1  0  0  0  0
 31 24  1  1  0  0  0
M  END
>  <CHROM.1>
168.02778161,-85.35147713,59.11479995,84.78049223,127.83645299,-65.12915580
7.13885148,-9.17515868,-1.42129484,-1.35617853,-0.34094393,-2.70366062

>  <Name>
ligand

>  <RI>
0

>  <Rbt.Current_Directory>
/home/itssahil/PROJECTS/Mol_Feturizer/New_Systems/rnas/3DVV

>  <Rbt.Executable>
rbdock ($Id: //depot/dev/client3/rdock/2013.1/src/exe/rbdock.cxx#4 $)

>  <Rbt.Library>
libRbt.so (2013.1, Build901 2013/11/27)

>  <Rbt.Parameter_File>
/export/apps/rDock/src/rDock_2013.1_src/data/scripts/dock_solv.prm

>  <Rbt.Receptor>
prm/blind_docking_20.prm

>  <SCORE>
-2.68911

>  <SCORE.INTER>
-6.85792

>  <SCORE.INTER.CONST>
1

>  <SCORE.INTER.POLAR>
0

>  <SCORE.INTER.ROT>
6

>  <SCORE.INTER.SOLV>
23.9639

>  <SCORE.INTER.VDW>
-20.1599

>  <SCORE.INTER.norm>
-0.221223

>  <SCORE.INTRA>
4.16881

>  <SCORE.INTRA.DIHEDRAL>
2.00062

>  <SCORE.INTRA.DIHEDRAL.0>
10.8172

>  <SCORE.INTRA.POLAR>
0

>  <SCORE.INTRA.POLAR.0>
0

>  <SCORE.INTRA.REPUL>
0

>  <SCORE.INTRA.REPUL.0>
0

>  <SCORE.INTRA.SOLV>
1.27009

>  <SCORE.INTRA.SOLV.lig_0>
-80.3833

>  <SCORE.INTRA.VDW>
2.53346

>  <SCORE.INTRA.VDW.0>
-4.63762

>  <SCORE.INTRA.norm>
0.134478

>  <SCORE.RESTR>
0

>  <SCORE.RESTR.CAVITY>
0

>  <SCORE.RESTR.norm>
0

>  <SCORE.SYSTEM>
0

>  <SCORE.SYSTEM.CONST>
0

>  <SCORE.SYSTEM.DIHEDRAL>
0

>  <SCORE.SYSTEM.SOLV>
0

>  <SCORE.SYSTEM.norm>
0

>  <SCORE.heavy>
31

>  <SCORE.norm>
-0.0867454

>  <RMSD>
26.349

$$$$
ligand
 OpenBabel11021811473D
libRbt.so/2013.1/901 2013/11/27
 31 33  0  0  0  0  0  0  0  0999 V2000
    8.8731  -12.4448    4.6411 C   0  0  0  0  0  0  0  0  0  0  0  0
    7.5371   -6.0994   -0.1229 N   0  0  0  0  0  0  0  0  0  0  0  0
   10.1394  -12.6197    3.9972 O   0  0  0  0  0  0  0  0  0  0  0  0
    8.4428  -10.9775    4.5691 C   0  0  1  0  0  0  0  0  0  0  0  0
    5.6374   -9.6826   -2.8534 N   0  0  0  0  0  0  0  0  0  0  0  0
    8.1940  -10.5994    3.2011 O   0  0  0  0  0  0  0  0  0  0  0  0
    6.8659  -10.0537    3.1106 C   0  0  1  0  0  0  0  0  0  0  0  0
    7.9714  -11.1504   -5.0946 N   0  0  0  0  0  0  0  0  0  0  0  0
    6.2537  -10.3519    1.8460 O   0  0  0  0  0  0  0  0  0  0  0  0
    6.9384   -9.7782    0.7226 C   0  0  2  0  0  0  0  0  0  0  0  0
    4.9638  -13.7374    0.0320 N   0  0  0  0  0  0  0  0  0  0  0  0
    7.7051   -7.9044    2.0432 O   0  0  0  0  0  0  0  0  0  0  0  0
    6.9151   -8.2560    0.9041 C   0  0  1  0  0  0  0  0  0  0  0  0
    6.4722  -11.5829   -0.8919 O   0  0  0  0  0  0  0  0  0  0  0  0
    7.4762   -7.5537   -0.3340 C   0  0  1  0  0  0  0  0  0  0  0  0
    5.9710  -12.0737   -3.1382 O   0  0  0  0  0  0  0  0  0  0  0  0
    6.5877   -7.8727   -1.5366 C   0  0  0  0  0  0  0  0  0  0  0  0
    8.3231  -14.8884   -3.2838 O   0  0  0  0  0  0  0  0  0  0  0  0
    6.6080   -9.3830   -1.7897 C   0  0  1  0  0  0  0  0  0  0  0  0
    6.3180  -15.8382   -1.4557 O   0  0  0  0  0  0  0  0  0  0  0  0
    6.2230  -10.2070   -0.5550 C   0  0  2  0  0  0  0  0  0  0  0  0
    4.9080  -10.1341    4.5999 O   0  0  0  0  0  0  0  0  0  0  0  0
    5.5070  -12.1698   -1.7788 C   0  0  1  0  0  0  0  0  0  0  0  0
    7.0713   -9.5064    5.9869 O   0  0  0  0  0  0  0  0  0  0  0  0
    7.2200  -12.7422   -3.3838 C   0  0  2  0  0  0  0  0  0  0  0  0
    7.6083  -12.5558   -4.8525 C   0  0  0  0  0  0  0  0  0  0  0  0
    7.0633  -14.2372   -3.0998 C   0  0  2  0  0  0  0  0  0  0  0  0
    6.5903  -14.4478   -1.6600 C   0  0  1  0  0  0  0  0  0  0  0  0
    5.3174  -13.6405   -1.3925 C   0  0  1  0  0  0  0  0  0  0  0  0
    6.1061  -10.8048    4.2020 C   0  0  2  0  0  0  0  0  0  0  0  0
    7.1306  -10.7762    5.3323 C   0  0  1  0  0  0  0  0  0  0  0  0
  1  3  1  0  0  0  0
  4  1  1  6  0  0  0
  4  6  1  0  0  0  0
  4 31  1  0  0  0  0
  6  7  1  0  0  0  0
  7  9  1  6  0  0  0
  7 30  1  0  0  0  0
  8 26  1  0  0  0  0
 10  9  1  1  0  0  0
 10 13  1  0  0  0  0
 10 21  1  0  0  0  0
 13 12  1  1  0  0  0
 13 15  1  0  0  0  0
 15  2  1  1  0  0  0
 15 17  1  0  0  0  0
 16 25  1  0  0  0  0
 16 23  1  0  0  0  0
 17 19  1  0  0  0  0
 19  5  1  6  0  0  0
 19 21  1  0  0  0  0
 21 14  1  6  0  0  0
 23 14  1  1  0  0  0
 23 29  1  0  0  0  0
 25 26  1  6  0  0  0
 25 27  1  0  0  0  0
 27 18  1  1  0  0  0
 27 28  1  0  0  0  0
 28 20  1  6  0  0  0
 28 29  1  0  0  0  0
 29 11  1  1  0  0  0
 30 22  1  1  0  0  0
 30 31  1  0  0  0  0
 31 24  1  6  0  0  0
M  END
>  <CHROM.1>
65.81326103,-62.80254178,-61.02001401,94.76768267,159.67715959,69.46593495
6.94873765,-11.12021719,0.30079042,-0.73489182,1.47304763,-2.77272463

>  <Name>
ligand

>  <RI>
0

>  <Rbt.Current_Directory>
/home/itssahil/PROJECTS/Mol_Feturizer/New_Systems/rnas/3DVV

>  <Rbt.Executable>
rbdock ($Id: //depot/dev/client3/rdock/2013.1/src/exe/rbdock.cxx#4 $)

>  <Rbt.Library>
libRbt.so (2013.1, Build901 2013/11/27)

>  <Rbt.Parameter_File>
/export/apps/rDock/src/rDock_2013.1_src/data/scripts/dock_solv.prm

>  <Rbt.Receptor>
prm/blind_docking_20.prm

>  <SCORE>
-5.04161

>  <SCORE.INTER>
-8.48433

>  <SCORE.INTER.CONST>
1

>  <SCORE.INTER.POLAR>
0

>  <SCORE.INTER.ROT>
6

>  <SCORE.INTER.SOLV>
23.8953

>  <SCORE.INTER.VDW>
-21.2213

>  <SCORE.INTER.norm>
-0.273688

>  <SCORE.INTRA>
3.44272

>  <SCORE.INTRA.DIHEDRAL>
-3.76436

>  <SCORE.INTRA.DIHEDRAL.0>
10.8172

>  <SCORE.INTRA.POLAR>
0

>  <SCORE.INTRA.POLAR.0>
0

>  <SCORE.INTRA.REPUL>
0

>  <SCORE.INTRA.REPUL.0>
0

>  <SCORE.INTRA.SOLV>
-0.239044

>  <SCORE.INTRA.SOLV.lig_0>
-80.3833

>  <SCORE.INTRA.VDW>
5.44443

>  <SCORE.INTRA.VDW.0>
-4.63762

>  <SCORE.INTRA.norm>
0.111056

>  <SCORE.RESTR>
0

>  <SCORE.RESTR.CAVITY>
0

>  <SCORE.RESTR.norm>
0

>  <SCORE.SYSTEM>
0

>  <SCORE.SYSTEM.CONST>
0

>  <SCORE.SYSTEM.DIHEDRAL>
0

>  <SCORE.SYSTEM.SOLV>
0

>  <SCORE.SYSTEM.norm>
0

>  <SCORE.heavy>
31

>  <SCORE.norm>
-0.162632

>  <RMSD>
26.385

$$$$
ligand
 OpenBabel11021811473D
libRbt.so/2013.1/901 2013/11/27
 31 33  0  0  0  0  0  0  0  0999 V2000
    9.4391   -4.0118   -0.0060 C   0  0  0  0  0  0  0  0  0  0  0  0
    3.2872   -6.8133    1.1619 N   0  0  0  0  0  0  0  0  0  0  0  0
    9.2970   -3.8301   -1.4187 O   0  0  0  0  0  0  0  0  0  0  0  0
    9.1526   -5.4677    0.3701 C   0  0  1  0  0  0  0  0  0  0  0  0
    5.4627  -11.0721    0.1452 N   0  0  0  0  0  0  0  0  0  0  0  0
    7.8428   -5.8515   -0.0919 O   0  0  0  0  0  0  0  0  0  0  0  0
    7.9707   -7.0330   -0.9027 C   0  0  1  0  0  0  0  0  0  0  0  0
    5.2275  -14.9069   -1.7252 N   0  0  0  0  0  0  0  0  0  0  0  0
    7.0007   -7.0587   -1.9617 O   0  0  0  0  0  0  0  0  0  0  0  0
    5.7703   -7.7049   -1.6032 C   0  0  2  0  0  0  0  0  0  0  0  0
    8.2111   -9.7711   -4.4214 N   0  0  0  0  0  0  0  0  0  0  0  0
    4.7766   -5.6115   -0.9156 O   0  0  0  0  0  0  0  0  0  0  0  0
    5.1576   -6.9075   -0.4459 C   0  0  1  0  0  0  0  0  0  0  0  0
    6.3812   -9.9811   -2.3290 O   0  0  0  0  0  0  0  0  0  0  0  0
    3.9260   -7.6227    0.1130 C   0  0  1  0  0  0  0  0  0  0  0  0
    7.4145  -11.9240   -1.4951 O   0  0  0  0  0  0  0  0  0  0  0  0
    4.3483   -8.9781    0.6804 C   0  0  0  0  0  0  0  0  0  0  0  0
    5.9828  -14.0766   -4.1014 O   0  0  0  0  0  0  0  0  0  0  0  0
    4.9317   -9.8349   -0.4471 C   0  0  1  0  0  0  0  0  0  0  0  0
    7.7839  -12.4008   -5.5889 O   0  0  0  0  0  0  0  0  0  0  0  0
    6.0755   -9.1443   -1.1997 C   0  0  2  0  0  0  0  0  0  0  0  0
    9.8846   -8.1185   -2.0058 O   0  0  0  0  0  0  0  0  0  0  0  0
    7.6196  -10.7013   -2.2267 C   0  0  1  0  0  0  0  0  0  0  0  0
   10.5054   -7.5195    0.4950 O   0  0  0  0  0  0  0  0  0  0  0  0
    6.4631  -12.8187   -2.0964 C   0  0  2  0  0  0  0  0  0  0  0  0
    6.3258  -14.0669   -1.2213 C   0  0  0  0  0  0  0  0  0  0  0  0
    6.9608  -13.2379   -3.4809 C   0  0  2  0  0  0  0  0  0  0  0  0
    7.1900  -11.9995   -4.3497 C   0  0  1  0  0  0  0  0  0  0  0  0
    8.1224  -11.0142   -3.6400 C   0  0  1  0  0  0  0  0  0  0  0  0
    9.3575   -6.8801   -1.5241 C   0  0  2  0  0  0  0  0  0  0  0  0
   10.1572   -6.3962   -0.3182 C   0  0  1  0  0  0  0  0  0  0  0  0
  1  3  1  0  0  0  0
  4  1  1  6  0  0  0
  4  6  1  0  0  0  0
  4 31  1  0  0  0  0
  6  7  1  0  0  0  0
  7  9  1  6  0  0  0
  7 30  1  0  0  0  0
  8 26  1  0  0  0  0
 10  9  1  1  0  0  0
 10 13  1  0  0  0  0
 10 21  1  0  0  0  0
 13 12  1  6  0  0  0
 13 15  1  0  0  0  0
 15  2  1  1  0  0  0
 15 17  1  0  0  0  0
 16 25  1  0  0  0  0
 16 23  1  0  0  0  0
 17 19  1  0  0  0  0
 19  5  1  1  0  0  0
 19 21  1  0  0  0  0
 21 14  1  6  0  0  0
 23 14  1  6  0  0  0
 23 29  1  0  0  0  0
 25 26  1  1  0  0  0
 25 27  1  0  0  0  0
 27 18  1  6  0  0  0
 27 28  1  0  0  0  0
 28 20  1  6  0  0  0
 28 29  1  0  0  0  0
 29 11  1  6  0  0  0
 30 22  1  1  0  0  0
 30 31  1  0  0  0  0
 31 24  1  1  0  0  0
M  END
>  <CHROM.1>
-56.08894845,-90.24739979,61.61169314,84.80431393,126.91052329,172.44243665
7.06177272,-9.10131874,-1.51973005,-1.35388695,-0.44112163,-2.70915070

>  <Name>
ligand

>  <RI>
0

>  <Rbt.Current_Directory>
/home/itssahil/PROJECTS/Mol_Feturizer/New_Systems/rnas/3DVV

>  <Rbt.Executable>
rbdock ($Id: //depot/dev/client3/rdock/2013.1/src/exe/rbdock.cxx#4 $)

>  <Rbt.Library>
libRbt.so (2013.1, Build901 2013/11/27)

>  <Rbt.Parameter_File>
/export/apps/rDock/src/rDock_2013.1_src/data/scripts/dock_solv.prm

>  <Rbt.Receptor>
prm/blind_docking_20.prm

>  <SCORE>
-4.70135

>  <SCORE.INTER>
-9.10307

>  <SCORE.INTER.CONST>
1

>  <SCORE.INTER.POLAR>
0

>  <SCORE.INTER.ROT>
6

>  <SCORE.INTER.SOLV>
17.3821

>  <SCORE.INTER.VDW>
-19.4628

>  <SCORE.INTER.norm>
-0.293648

>  <SCORE.INTRA>
4.40172

>  <SCORE.INTRA.DIHEDRAL>
2.62761

>  <SCORE.INTRA.DIHEDRAL.0>
10.8172

>  <SCORE.INTRA.POLAR>
0

>  <SCORE.INTRA.POLAR.0>
0

>  <SCORE.INTRA.REPUL>
0

>  <SCORE.INTRA.REPUL.0>
0

>  <SCORE.INTRA.SOLV>
1.6775

>  <SCORE.INTRA.SOLV.lig_0>
-80.3833

>  <SCORE.INTRA.VDW>
2.24916

>  <SCORE.INTRA.VDW.0>
-4.63762

>  <SCORE.INTRA.norm>
0.141991

>  <SCORE.RESTR>
0

>  <SCORE.RESTR.CAVITY>
0

>  <SCORE.RESTR.norm>
0

>  <SCORE.SYSTEM>
0

>  <SCORE.SYSTEM.CONST>
0

>  <SCORE.SYSTEM.DIHEDRAL>
0

>  <SCORE.SYSTEM.SOLV>
0

>  <SCORE.SYSTEM.norm>
0

>  <SCORE.heavy>
31

>  <SCORE.norm>
-0.151657

>  <RMSD>
26.403

$$$$
ligand
 OpenBabel11021811473D
libRbt.so/2013.1/901 2013/11/27
 31 33  0  0  0  0  0  0  0  0999 V2000
    9.1765   -4.1611   -0.1228 C   0  0  0  0  0  0  0  0  0  0  0  0
    3.3139   -6.9363    1.0942 N   0  0  0  0  0  0  0  0  0  0  0  0
   10.3585   -3.6300    0.4852 O   0  0  0  0  0  0  0  0  0  0  0  0
    8.9758   -5.6189    0.2989 C   0  0  1  0  0  0  0  0  0  0  0  0
    5.3197  -11.3079    0.2176 N   0  0  0  0  0  0  0  0  0  0  0  0
    7.7082   -6.1055   -0.1836 O   0  0  0  0  0  0  0  0  0  0  0  0
    7.9373   -7.3034   -0.9466 C   0  0  1  0  0  0  0  0  0  0  0  0
    7.3608  -15.1635   -1.1383 N   0  0  0  0  0  0  0  0  0  0  0  0
    7.0024   -7.4309   -2.0295 O   0  0  0  0  0  0  0  0  0  0  0  0
    5.7495   -8.0166   -1.6457 C   0  0  2  0  0  0  0  0  0  0  0  0
    8.1411  -10.1568   -4.3527 N   0  0  0  0  0  0  0  0  0  0  0  0
    4.8399   -5.8642   -1.0273 O   0  0  0  0  0  0  0  0  0  0  0  0
    5.1727   -7.1573   -0.5147 C   0  0  1  0  0  0  0  0  0  0  0  0
    6.2694  -10.3381   -2.2950 O   0  0  0  0  0  0  0  0  0  0  0  0
    3.9167   -7.8049    0.0718 C   0  0  1  0  0  0  0  0  0  0  0  0
    7.2366  -12.3152   -1.4621 O   0  0  0  0  0  0  0  0  0  0  0  0
    4.2889   -9.1555    0.6840 C   0  0  0  0  0  0  0  0  0  0  0  0
    5.7958  -14.4050   -4.1142 O   0  0  0  0  0  0  0  0  0  0  0  0
    4.8343  -10.0721   -0.4151 C   0  0  1  0  0  0  0  0  0  0  0  0
    7.6662  -12.7633   -5.5533 O   0  0  0  0  0  0  0  0  0  0  0  0
    6.0007   -9.4522   -1.1941 C   0  0  2  0  0  0  0  0  0  0  0  0
    9.9500   -8.2962   -1.9573 O   0  0  0  0  0  0  0  0  0  0  0  0
    7.4865  -11.0915   -2.1780 C   0  0  1  0  0  0  0  0  0  0  0  0
   10.4568   -7.5700    0.5354 O   0  0  0  0  0  0  0  0  0  0  0  0
    6.2730  -13.1789   -2.0888 C   0  0  2  0  0  0  0  0  0  0  0  0
    6.0875  -14.4312   -1.2285 C   0  0  0  0  0  0  0  0  0  0  0  0
    6.7842  -13.5981   -3.4683 C   0  0  2  0  0  0  0  0  0  0  0  0
    7.0611  -12.3581   -4.3209 C   0  0  1  0  0  0  0  0  0  0  0  0
    8.0061  -11.4044   -3.5853 C   0  0  1  0  0  0  0  0  0  0  0  0
    9.3285   -7.0798   -1.5359 C   0  0  2  0  0  0  0  0  0  0  0  0
   10.0591   -6.5016   -0.3276 C   0  0  1  0  0  0  0  0  0  0  0  0
  1  3  1  0  0  0  0
  4  1  1  6  0  0  0
  4  6  1  0  0  0  0
  4 31  1  0  0  0  0
  6  7  1  0  0  0  0
  7  9  1  6  0  0  0
  7 30  1  0  0  0  0
  8 26  1  0  0  0  0
 10  9  1  1  0  0  0
 10 13  1  0  0  0  0
 10 21  1  0  0  0  0
 13 12  1  6  0  0  0
 13 15  1  0  0  0  0
 15  2  1  1  0  0  0
 15 17  1  0  0  0  0
 16 25  1  0  0  0  0
 16 23  1  0  0  0  0
 17 19  1  0  0  0  0
 19  5  1  1  0  0  0
 19 21  1  0  0  0  0
 21 14  1  6  0  0  0
 23 14  1  6  0  0  0
 23 29  1  0  0  0  0
 25 26  1  1  0  0  0
 25 27  1  0  0  0  0
 27 18  1  6  0  0  0
 27 28  1  0  0  0  0
 28 20  1  6  0  0  0
 28 29  1  0  0  0  0
 29 11  1  6  0  0  0
 30 22  1  1  0  0  0
 30 31  1  0  0  0  0
 31 24  1  1  0  0  0
M  END
>  <CHROM.1>
173.27926452,-83.91127072,56.63389216,87.87539860,126.30108698,-61.97242325
7.08337083,-9.35497986,-1.43966767,-1.36721710,-0.35816158,-2.71487857

>  <Name>
ligand

>  <RI>
0

>  <Rbt.Current_Directory>
/home/itssahil/PROJECTS/Mol_Feturizer/New_Systems/rnas/3DVV

>  <Rbt.Executable>
rbdock ($Id: //depot/dev/client3/rdock/2013.1/src/exe/rbdock.cxx#4 $)

>  <Rbt.Library>
libRbt.so (2013.1, Build901 2013/11/27)

>  <Rbt.Parameter_File>
/export/apps/rDock/src/rDock_2013.1_src/data/scripts/dock_solv.prm

>  <Rbt.Receptor>
prm/blind_docking_80.prm

>  <SCORE>
-2.16098

>  <SCORE.INTER>
-6.34195

>  <SCORE.INTER.CONST>
1

>  <SCORE.INTER.POLAR>
0

>  <SCORE.INTER.ROT>
6

>  <SCORE.INTER.SOLV>
24.5433

>  <SCORE.INTER.VDW>
-20.0091

>  <SCORE.INTER.norm>
-0.204579

>  <SCORE.INTRA>
4.17503

>  <SCORE.INTRA.DIHEDRAL>
2.06225

>  <SCORE.INTRA.DIHEDRAL.0>
10.8172

>  <SCORE.INTRA.POLAR>
0

>  <SCORE.INTRA.POLAR.0>
0

>  <SCORE.INTRA.REPUL>
0

>  <SCORE.INTRA.REPUL.0>
0

>  <SCORE.INTRA.SOLV>
1.19145

>  <SCORE.INTRA.SOLV.lig_0>
-80.3833

>  <SCORE.INTRA.VDW>
2.54818

>  <SCORE.INTRA.VDW.0>
-4.63762

>  <SCORE.INTRA.norm>
0.134678

>  <SCORE.RESTR>
0.00594622

>  <SCORE.RESTR.CAVITY>
0.00594622

>  <SCORE.RESTR.norm>
0.000191814

>  <SCORE.SYSTEM>
0

>  <SCORE.SYSTEM.CONST>
0

>  <SCORE.SYSTEM.DIHEDRAL>
0

>  <SCORE.SYSTEM.SOLV>
0

>  <SCORE.SYSTEM.norm>
0

>  <SCORE.heavy>
31

>  <SCORE.norm>
-0.0697089

>  <RMSD>
26.479

$$$$
ligand
 OpenBabel11021811473D
libRbt.so/2013.1/901 2013/11/27
 31 33  0  0  0  0  0  0  0  0999 V2000
    7.6354  -11.4441   -4.7443 C   0  0  0  0  0  0  0  0  0  0  0  0
    3.4253  -12.4974    2.7630 N   0  0  0  0  0  0  0  0  0  0  0  0
    7.9380  -12.5468   -5.6053 O   0  0  0  0  0  0  0  0  0  0  0  0
    7.7046  -11.8839   -3.2797 C   0  0  1  0  0  0  0  0  0  0  0  0
    2.2768   -7.9007    1.5571 N   0  0  0  0  0  0  0  0  0  0  0  0
    7.1708  -10.8531   -2.4258 O   0  0  0  0  0  0  0  0  0  0  0  0
    6.1354  -11.4262   -1.6077 C   0  0  1  0  0  0  0  0  0  0  0  0
    9.1688   -9.9708   -0.7606 N   0  0  0  0  0  0  0  0  0  0  0  0
    5.0915  -10.4793   -1.3307 O   0  0  0  0  0  0  0  0  0  0  0  0
    4.8996  -10.2232    0.0684 C   0  0  2  0  0  0  0  0  0  0  0  0
    5.0083   -5.0271    0.0825 N   0  0  0  0  0  0  0  0  0  0  0  0
    5.2742  -12.5446    0.6280 O   0  0  0  0  0  0  0  0  0  0  0  0
    4.3055  -11.4941    0.6867 C   0  0  1  0  0  0  0  0  0  0  0  0
    4.6058   -7.7800   -0.0912 O   0  0  0  0  0  0  0  0  0  0  0  0
    3.9107  -11.2540    2.1452 C   0  0  1  0  0  0  0  0  0  0  0  0
    6.5304   -8.2370    1.1836 O   0  0  0  0  0  0  0  0  0  0  0  0
    2.8225  -10.1815    2.1996 C   0  0  0  0  0  0  0  0  0  0  0  0
    8.8170   -7.5306   -1.6000 O   0  0  0  0  0  0  0  0  0  0  0  0
    3.3780   -8.8729    1.6300 C   0  0  1  0  0  0  0  0  0  0  0  0
    7.6905   -4.9456   -1.0399 O   0  0  0  0  0  0  0  0  0  0  0  0
    3.9632   -9.0283    0.2210 C   0  0  2  0  0  0  0  0  0  0  0  0
    4.8377  -13.5126   -1.7514 O   0  0  0  0  0  0  0  0  0  0  0  0
    5.4829   -7.2822    0.9314 C   0  0  1  0  0  0  0  0  0  0  0  0
    7.4095  -14.0240   -2.1012 O   0  0  0  0  0  0  0  0  0  0  0  0
    7.3509   -8.5284    0.0395 C   0  0  2  0  0  0  0  0  0  0  0  0
    8.4113   -9.5598    0.4323 C   0  0  0  0  0  0  0  0  0  0  0  0
    8.0522   -7.2505   -0.4245 C   0  0  2  0  0  0  0  0  0  0  0  0
    7.0146   -6.1716   -0.7412 C   0  0  1  0  0  0  0  0  0  0  0  0
    6.0858   -5.9559    0.4567 C   0  0  1  0  0  0  0  0  0  0  0  0
    5.5617  -12.5292   -2.4946 C   0  0  2  0  0  0  0  0  0  0  0  0
    6.8429  -13.1312   -3.0638 C   0  0  1  0  0  0  0  0  0  0  0  0
  1  3  1  0  0  0  0
  4  1  1  6  0  0  0
  4  6  1  0  0  0  0
  4 31  1  0  0  0  0
  6  7  1  0  0  0  0
  7  9  1  6  0  0  0
  7 30  1  0  0  0  0
  8 26  1  0  0  0  0
 10  9  1  6  0  0  0
 10 13  1  0  0  0  0
 10 21  1  0  0  0  0
 13 12  1  1  0  0  0
 13 15  1  0  0  0  0
 15  2  1  6  0  0  0
 15 17  1  0  0  0  0
 16 25  1  0  0  0  0
 16 23  1  0  0  0  0
 17 19  1  0  0  0  0
 19  5  1  6  0  0  0
 19 21  1  0  0  0  0
 21 14  1  1  0  0  0
 23 14  1  6  0  0  0
 23 29  1  0  0  0  0
 25 26  1  1  0  0  0
 25 27  1  0  0  0  0
 27 18  1  6  0  0  0
 27 28  1  0  0  0  0
 28 20  1  1  0  0  0
 28 29  1  0  0  0  0
 29 11  1  6  0  0  0
 30 22  1  1  0  0  0
 30 31  1  0  0  0  0
 31 24  1  1  0  0  0
M  END
>  <CHROM.1>
-169.70076241,-120.41083335,-69.45492467,59.71503377,-76.68966498,174.19656649
5.99364225,-9.83357796,-0.62557046,-1.23968967,0.75254176,0.35050782

>  <Name>
ligand

>  <RI>
0

>  <Rbt.Current_Directory>
/home/itssahil/PROJECTS/Mol_Feturizer/New_Systems/rnas/3DVV

>  <Rbt.Executable>
rbdock ($Id: //depot/dev/client3/rdock/2013.1/src/exe/rbdock.cxx#4 $)

>  <Rbt.Library>
libRbt.so (2013.1, Build901 2013/11/27)

>  <Rbt.Parameter_File>
/export/apps/rDock/src/rDock_2013.1_src/data/scripts/dock_solv.prm

>  <Rbt.Receptor>
prm/blind_docking_20.prm

>  <SCORE>
1.17897

>  <SCORE.INTER>
-2.91185

>  <SCORE.INTER.CONST>
1

>  <SCORE.INTER.POLAR>
0

>  <SCORE.INTER.ROT>
6

>  <SCORE.INTER.SOLV>
16.7682

>  <SCORE.INTER.VDW>
-15.1306

>  <SCORE.INTER.norm>
-0.0939305

>  <SCORE.INTRA>
3.85998

>  <SCORE.INTRA.DIHEDRAL>
-1.47613

>  <SCORE.INTRA.DIHEDRAL.0>
10.8172

>  <SCORE.INTRA.POLAR>
0

>  <SCORE.INTRA.POLAR.0>
0

>  <SCORE.INTRA.REPUL>
0

>  <SCORE.INTRA.REPUL.0>
0

>  <SCORE.INTRA.SOLV>
1.32174

>  <SCORE.INTRA.SOLV.lig_0>
-80.3833

>  <SCORE.INTRA.VDW>
3.93717

>  <SCORE.INTRA.VDW.0>
-4.63762

>  <SCORE.INTRA.norm>
0.124515

>  <SCORE.RESTR>
0.230845

>  <SCORE.RESTR.CAVITY>
0.230845

>  <SCORE.RESTR.norm>
0.00744662

>  <SCORE.SYSTEM>
0

>  <SCORE.SYSTEM.CONST>
0

>  <SCORE.SYSTEM.DIHEDRAL>
0

>  <SCORE.SYSTEM.SOLV>
0

>  <SCORE.SYSTEM.norm>
0

>  <SCORE.heavy>
31

>  <SCORE.norm>
0.0380314

>  <RMSD>
26.517

$$$$
ligand
 OpenBabel11021811473D
libRbt.so/2013.1/901 2013/11/27
 31 33  0  0  0  0  0  0  0  0999 V2000
    7.3019   -6.8258    1.0146 C   0  0  0  0  0  0  0  0  0  0  0  0
    7.6012   -9.1618    3.8470 N   0  0  0  0  0  0  0  0  0  0  0  0
    6.7431   -7.0615    2.3112 O   0  0  0  0  0  0  0  0  0  0  0  0
    6.2272   -6.9968   -0.0620 C   0  0  1  0  0  0  0  0  0  0  0  0
    9.3090  -10.6363   -0.4903 N   0  0  0  0  0  0  0  0  0  0  0  0
    6.0960   -8.3873   -0.4164 O   0  0  0  0  0  0  0  0  0  0  0  0
    4.7185   -8.7720   -0.2608 C   0  0  1  0  0  0  0  0  0  0  0  0
    8.3231   -8.8918   -4.0793 N   0  0  0  0  0  0  0  0  0  0  0  0
    4.5927  -10.1398    0.1592 O   0  0  0  0  0  0  0  0  0  0  0  0
    5.7465  -10.6408    0.8505 C   0  0  2  0  0  0  0  0  0  0  0  0
    5.1068  -13.9771   -1.6465 N   0  0  0  0  0  0  0  0  0  0  0  0
    4.9821   -9.7299    2.9549 O   0  0  0  0  0  0  0  0  0  0  0  0
    6.0451   -9.6713    2.0000 C   0  0  1  0  0  0  0  0  0  0  0  0
    6.7732  -11.8221   -1.0552 O   0  0  0  0  0  0  0  0  0  0  0  0
    7.3615  -10.0363    2.6890 C   0  0  1  0  0  0  0  0  0  0  0  0
    6.2252  -10.7255   -3.0640 O   0  0  0  0  0  0  0  0  0  0  0  0
    8.5064   -9.9026    1.6846 C   0  0  0  0  0  0  0  0  0  0  0  0
    8.3517  -12.9154   -5.1032 O   0  0  0  0  0  0  0  0  0  0  0  0
    8.2794  -10.8834    0.5305 C   0  0  1  0  0  0  0  0  0  0  0  0
    6.2875  -14.7029   -4.2039 O   0  0  0  0  0  0  0  0  0  0  0  0
    6.9075  -10.7240   -0.1359 C   0  0  2  0  0  0  0  0  0  0  0  0
    2.8084   -7.7537    0.9107 O   0  0  0  0  0  0  0  0  0  0  0  0
    5.7614  -11.6462   -2.0592 C   0  0  1  0  0  0  0  0  0  0  0  0
    4.0627   -5.9238   -0.5302 O   0  0  0  0  0  0  0  0  0  0  0  0
    7.4175  -11.1489   -3.7468 C   0  0  2  0  0  0  0  0  0  0  0  0
    7.8124  -10.0847   -4.7734 C   0  0  0  0  0  0  0  0  0  0  0  0
    7.1469  -12.4650   -4.4781 C   0  0  2  0  0  0  0  0  0  0  0  0
    6.6657  -13.5244   -3.4846 C   0  0  1  0  0  0  0  0  0  0  0  0
    5.4603  -13.0076   -2.6948 C   0  0  1  0  0  0  0  0  0  0  0  0
    4.2324   -7.8735    0.8745 C   0  0  2  0  0  0  0  0  0  0  0  0
    4.8669   -6.5443    0.4762 C   0  0  1  0  0  0  0  0  0  0  0  0
  1  3  1  0  0  0  0
  4  1  1  1  0  0  0
  4  6  1  0  0  0  0
  4 31  1  0  0  0  0
  6  7  1  0  0  0  0
  7  9  1  1  0  0  0
  7 30  1  0  0  0  0
  8 26  1  0  0  0  0
 10  9  1  6  0  0  0
 10 13  1  0  0  0  0
 10 21  1  0  0  0  0
 13 12  1  1  0  0  0
 13 15  1  0  0  0  0
 15  2  1  1  0  0  0
 15 17  1  0  0  0  0
 16 25  1  0  0  0  0
 16 23  1  0  0  0  0
 17 19  1  0  0  0  0
 19  5  1  6  0  0  0
 19 21  1  0  0  0  0
 21 14  1  6  0  0  0
 23 14  1  1  0  0  0
 23 29  1  0  0  0  0
 25 26  1  6  0  0  0
 25 27  1  0  0  0  0
 27 18  1  1  0  0  0
 27 28  1  0  0  0  0
 28 20  1  6  0  0  0
 28 29  1  0  0  0  0
 29 11  1  1  0  0  0
 30 22  1  6  0  0  0
 30 31  1  0  0  0  0
 31 24  1  6  0  0  0
M  END
>  <CHROM.1>
-84.10725636,24.55874383,53.51837951,75.45639942,72.53269625,71.29454749
6.35274603,-10.06918007,-0.71431725,2.07638073,-1.17772581,1.32686050

>  <Name>
ligand

>  <RI>
0

>  <Rbt.Current_Directory>
/home/itssahil/PROJECTS/Mol_Feturizer/New_Systems/rnas/3DVV

>  <Rbt.Executable>
rbdock ($Id: //depot/dev/client3/rdock/2013.1/src/exe/rbdock.cxx#4 $)

>  <Rbt.Library>
libRbt.so (2013.1, Build901 2013/11/27)

>  <Rbt.Parameter_File>
/export/apps/rDock/src/rDock_2013.1_src/data/scripts/dock_solv.prm

>  <Rbt.Receptor>
prm/blind_docking_80.prm

>  <SCORE>
-1.13983

>  <SCORE.INTER>
-8.09333

>  <SCORE.INTER.CONST>
1

>  <SCORE.INTER.POLAR>
0

>  <SCORE.INTER.ROT>
6

>  <SCORE.INTER.SOLV>
19.7497

>  <SCORE.INTER.VDW>
-19.5788

>  <SCORE.INTER.norm>
-0.261075

>  <SCORE.INTRA>
6.79452

>  <SCORE.INTRA.DIHEDRAL>
-1.82224

>  <SCORE.INTRA.DIHEDRAL.0>
10.8172

>  <SCORE.INTRA.POLAR>
0

>  <SCORE.INTRA.POLAR.0>
0

>  <SCORE.INTRA.REPUL>
0

>  <SCORE.INTRA.REPUL.0>
0

>  <SCORE.INTRA.SOLV>
1.09823

>  <SCORE.INTRA.SOLV.lig_0>
-80.3833

>  <SCORE.INTRA.VDW>
7.15652

>  <SCORE.INTRA.VDW.0>
-4.63762

>  <SCORE.INTRA.norm>
0.219178

>  <SCORE.RESTR>
0.158988

>  <SCORE.RESTR.CAVITY>
0.158988

>  <SCORE.RESTR.norm>
0.00512863

>  <SCORE.SYSTEM>
0

>  <SCORE.SYSTEM.CONST>
0

>  <SCORE.SYSTEM.DIHEDRAL>
0

>  <SCORE.SYSTEM.SOLV>
0

>  <SCORE.SYSTEM.norm>
0

>  <SCORE.heavy>
31

>  <SCORE.norm>
-0.0367686

>  <RMSD>
26.531

$$$$
ligand
 OpenBabel11021811473D
libRbt.so/2013.1/901 2013/11/27
 31 33  0  0  0  0  0  0  0  0999 V2000
    9.7346  -10.1062   -0.2755 C   0  0  0  0  0  0  0  0  0  0  0  0
    6.6845  -15.0857   -4.2222 N   0  0  0  0  0  0  0  0  0  0  0  0
    8.6550  -10.2030    0.6593 O   0  0  0  0  0  0  0  0  0  0  0  0
    9.3423   -9.1959   -1.4420 C   0  0  1  0  0  0  0  0  0  0  0  0
    4.2800  -13.5148   -0.2656 N   0  0  0  0  0  0  0  0  0  0  0  0
    8.6997   -9.9646   -2.4776 O   0  0  0  0  0  0  0  0  0  0  0  0
    7.4221   -9.3689   -2.7649 C   0  0  1  0  0  0  0  0  0  0  0  0
    5.2874  -10.8850    4.7133 N   0  0  0  0  0  0  0  0  0  0  0  0
    6.4468  -10.3559   -3.1358 O   0  0  0  0  0  0  0  0  0  0  0  0
    6.6806  -11.6470   -2.5542 C   0  0  2  0  0  0  0  0  0  0  0  0
    3.8439   -9.2949   -0.8868 N   0  0  0  0  0  0  0  0  0  0  0  0
    7.6895  -12.4716   -4.5901 O   0  0  0  0  0  0  0  0  0  0  0  0
    6.6004  -12.6777   -3.6863 C   0  0  1  0  0  0  0  0  0  0  0  0
    5.8536  -11.1318   -0.2889 O   0  0  0  0  0  0  0  0  0  0  0  0
    6.6705  -14.1011   -3.1296 C   0  0  1  0  0  0  0  0  0  0  0  0
    5.1402  -11.3277    1.9451 O   0  0  0  0  0  0  0  0  0  0  0  0
    5.4655  -14.3433   -2.2204 C   0  0  0  0  0  0  0  0  0  0  0  0
    6.6036   -8.1089    2.9318 O   0  0  0  0  0  0  0  0  0  0  0  0
    5.5185  -13.3637   -1.0444 C   0  0  1  0  0  0  0  0  0  0  0  0
    4.4926   -7.3194    1.1472 O   0  0  0  0  0  0  0  0  0  0  0  0
    5.6227  -11.8982   -1.4839 C   0  0  2  0  0  0  0  0  0  0  0  0
    6.0079   -7.7552   -1.5592 O   0  0  0  0  0  0  0  0  0  0  0  0
    4.7260  -11.0425    0.5962 C   0  0  1  0  0  0  0  0  0  0  0  0
    8.5064   -6.8889   -1.6296 O   0  0  0  0  0  0  0  0  0  0  0  0
    6.1410  -10.4313    2.4570 C   0  0  2  0  0  0  0  0  0  0  0  0
    6.5032  -10.8464    3.8849 C   0  0  0  0  0  0  0  0  0  0  0  0
    5.5850   -9.0064    2.4824 C   0  0  2  0  0  0  0  0  0  0  0  0
    5.1337   -8.5975    1.0787 C   0  0  1  0  0  0  0  0  0  0  0  0
    4.1496   -9.6251    0.5136 C   0  0  1  0  0  0  0  0  0  0  0  0
    7.0101   -8.7656   -1.4237 C   0  0  2  0  0  0  0  0  0  0  0  0
    8.3300   -8.1469   -0.9732 C   0  0  1  0  0  0  0  0  0  0  0  0
  1  3  1  0  0  0  0
  4  1  1  1  0  0  0
  4  6  1  0  0  0  0
  4 31  1  0  0  0  0
  6  7  1  0  0  0  0
  7  9  1  1  0  0  0
  7 30  1  0  0  0  0
  8 26  1  0  0  0  0
 10  9  1  6  0  0  0
 10 13  1  0  0  0  0
 10 21  1  0  0  0  0
 13 12  1  6  0  0  0
 13 15  1  0  0  0  0
 15  2  1  6  0  0  0
 15 17  1  0  0  0  0
 16 25  1  0  0  0  0
 16 23  1  0  0  0  0
 17 19  1  0  0  0  0
 19  5  1  6  0  0  0
 19 21  1  0  0  0  0
 21 14  1  1  0  0  0
 23 14  1  6  0  0  0
 23 29  1  0  0  0  0
 25 26  1  1  0  0  0
 25 27  1  0  0  0  0
 27 18  1  6  0  0  0
 27 28  1  0  0  0  0
 28 20  1  1  0  0  0
 28 29  1  0  0  0  0
 29 11  1  6  0  0  0
 30 22  1  6  0  0  0
 30 31  1  0  0  0  0
 31 24  1  6  0  0  0
M  END
>  <CHROM.1>
-88.57867519,28.50582243,-130.58478576,132.49519838,163.91754407,-55.69532735
6.43371824,-10.51804562,-0.56728904,-1.31161236,0.96924152,0.76081744

>  <Name>
ligand

>  <RI>
0

>  <Rbt.Current_Directory>
/home/itssahil/PROJECTS/Mol_Feturizer/New_Systems/rnas/3DVV

>  <Rbt.Executable>
rbdock ($Id: //depot/dev/client3/rdock/2013.1/src/exe/rbdock.cxx#4 $)

>  <Rbt.Library>
libRbt.so (2013.1, Build901 2013/11/27)

>  <Rbt.Parameter_File>
/export/apps/rDock/src/rDock_2013.1_src/data/scripts/dock_solv.prm

>  <Rbt.Receptor>
prm/blind_docking_20.prm

>  <SCORE>
2.06442

>  <SCORE.INTER>
-6.78234

>  <SCORE.INTER.CONST>
1

>  <SCORE.INTER.POLAR>
0

>  <SCORE.INTER.ROT>
6

>  <SCORE.INTER.SOLV>
19.6711

>  <SCORE.INTER.VDW>
-18.6786

>  <SCORE.INTER.norm>
-0.218785

>  <SCORE.INTRA>
8.81183

>  <SCORE.INTRA.DIHEDRAL>
9.93162

>  <SCORE.INTRA.DIHEDRAL.0>
10.8172

>  <SCORE.INTRA.POLAR>
0

>  <SCORE.INTRA.POLAR.0>
0

>  <SCORE.INTRA.REPUL>
0.00469472

>  <SCORE.INTRA.REPUL.0>
0

>  <SCORE.INTRA.SOLV>
4.44882

>  <SCORE.INTRA.SOLV.lig_0>
-80.3833

>  <SCORE.INTRA.VDW>
1.59813

>  <SCORE.INTRA.VDW.0>
-4.63762

>  <SCORE.INTRA.norm>
0.284252

>  <SCORE.RESTR>
0.0349355

>  <SCORE.RESTR.CAVITY>
0.0349355

>  <SCORE.RESTR.norm>
0.00112695

>  <SCORE.SYSTEM>
0

>  <SCORE.SYSTEM.CONST>
0

>  <SCORE.SYSTEM.DIHEDRAL>
0

>  <SCORE.SYSTEM.SOLV>
0

>  <SCORE.SYSTEM.norm>
0

>  <SCORE.heavy>
31

>  <SCORE.norm>
0.0665943

>  <RMSD>
26.642

$$$$
ligand
 OpenBabel11021811473D
libRbt.so/2013.1/901 2013/11/27
 31 33  0  0  0  0  0  0  0  0999 V2000
    8.3443  -10.3791   -3.2622 C   0  0  0  0  0  0  0  0  0  0  0  0
    3.4729   -4.7436    0.7186 N   0  0  0  0  0  0  0  0  0  0  0  0
    7.2261  -10.5490   -4.1393 O   0  0  0  0  0  0  0  0  0  0  0  0
    8.4666   -8.9124   -2.8414 C   0  0  1  0  0  0  0  0  0  0  0  0
    2.3312   -9.4392    1.4617 N   0  0  0  0  0  0  0  0  0  0  0  0
    7.3043   -8.5130   -2.0892 O   0  0  0  0  0  0  0  0  0  0  0  0
    7.7378   -7.9707   -0.8291 C   0  0  1  0  0  0  0  0  0  0  0  0
    4.8824  -11.2437    4.1624 N   0  0  0  0  0  0  0  0  0  0  0  0
    6.7989   -8.2505    0.2213 O   0  0  0  0  0  0  0  0  0  0  0  0
    5.4439   -7.9117   -0.1092 C   0  0  2  0  0  0  0  0  0  0  0  0
    5.5129  -11.8761   -2.1822 N   0  0  0  0  0  0  0  0  0  0  0  0
    5.9863   -5.5622   -0.2771 O   0  0  0  0  0  0  0  0  0  0  0  0
    5.1805   -6.5036    0.4370 C   0  0  1  0  0  0  0  0  0  0  0  0
    4.5459  -10.2076   -0.1694 O   0  0  0  0  0  0  0  0  0  0  0  0
    3.7061   -6.1273    0.2776 C   0  0  1  0  0  0  0  0  0  0  0  0
    5.6979  -11.3986    1.5016 O   0  0  0  0  0  0  0  0  0  0  0  0
    2.8513   -7.0914    1.1006 C   0  0  0  0  0  0  0  0  0  0  0  0
    3.3079  -14.1850    1.4800 O   0  0  0  0  0  0  0  0  0  0  0  0
    3.0449   -8.5142    0.5681 C   0  0  1  0  0  0  0  0  0  0  0  0
    4.5477  -14.3997   -1.1049 O   0  0  0  0  0  0  0  0  0  0  0  0
    4.5156   -8.9459    0.5206 C   0  0  2  0  0  0  0  0  0  0  0  0
    9.8613   -8.0825    0.4103 O   0  0  0  0  0  0  0  0  0  0  0  0
    5.6958  -11.0205    0.1126 C   0  0  1  0  0  0  0  0  0  0  0  0
   10.3253   -7.4696   -2.1208 O   0  0  0  0  0  0  0  0  0  0  0  0
    4.5452  -12.1556    1.9085 C   0  0  2  0  0  0  0  0  0  0  0  0
    4.6604  -12.4823    3.3994 C   0  0  0  0  0  0  0  0  0  0  0  0
    4.4891  -13.4644    1.1186 C   0  0  2  0  0  0  0  0  0  0  0  0
    4.4612  -13.1672   -0.3821 C   0  0  1  0  0  0  0  0  0  0  0  0
    5.6401  -12.2712   -0.7710 C   0  0  1  0  0  0  0  0  0  0  0  0
    9.0244   -8.7422   -0.5425 C   0  0  2  0  0  0  0  0  0  0  0  0
    9.6770   -8.7283   -1.9216 C   0  0  1  0  0  0  0  0  0  0  0  0
  1  3  1  0  0  0  0
  4  1  1  1  0  0  0
  4  6  1  0  0  0  0
  4 31  1  0  0  0  0
  6  7  1  0  0  0  0
  7  9  1  1  0  0  0
  7 30  1  0  0  0  0
  8 26  1  0  0  0  0
 10  9  1  1  0  0  0
 10 13  1  0  0  0  0
 10 21  1  0  0  0  0
 13 12  1  6  0  0  0
 13 15  1  0  0  0  0
 15  2  1  1  0  0  0
 15 17  1  0  0  0  0
 16 25  1  0  0  0  0
 16 23  1  0  0  0  0
 17 19  1  0  0  0  0
 19  5  1  1  0  0  0
 19 21  1  0  0  0  0
 21 14  1  6  0  0  0
 23 14  1  1  0  0  0
 23 29  1  0  0  0  0
 25 26  1  1  0  0  0
 25 27  1  0  0  0  0
 27 18  1  1  0  0  0
 27 28  1  0  0  0  0
 28 20  1  6  0  0  0
 28 29  1  0  0  0  0
 29 11  1  6  0  0  0
 30 22  1  1  0  0  0
 30 31  1  0  0  0  0
 31 24  1  6  0  0  0
M  END
>  <CHROM.1>
63.28192285,-50.02686318,-94.87601577,63.98363896,77.37368229,53.61458419
5.81700209,-9.69796674,-0.12922284,-0.77473424,-0.64690166,-3.08441231

>  <Name>
ligand

>  <RI>
0

>  <Rbt.Current_Directory>
/home/itssahil/PROJECTS/Mol_Feturizer/New_Systems/rnas/3DVV

>  <Rbt.Executable>
rbdock ($Id: //depot/dev/client3/rdock/2013.1/src/exe/rbdock.cxx#4 $)

>  <Rbt.Library>
libRbt.so (2013.1, Build901 2013/11/27)

>  <Rbt.Parameter_File>
/export/apps/rDock/src/rDock_2013.1_src/data/scripts/dock_solv.prm

>  <Rbt.Receptor>
prm/blind_docking_20.prm

>  <SCORE>
-2.94491

>  <SCORE.INTER>
-1.12144

>  <SCORE.INTER.CONST>
1

>  <SCORE.INTER.POLAR>
0

>  <SCORE.INTER.ROT>
6

>  <SCORE.INTER.SOLV>
19.7196

>  <SCORE.INTER.VDW>
-14.9208

>  <SCORE.INTER.norm>
-0.0361756

>  <SCORE.INTRA>
-1.82346

>  <SCORE.INTRA.DIHEDRAL>
-3.96274

>  <SCORE.INTRA.DIHEDRAL.0>
10.8172

>  <SCORE.INTRA.POLAR>
0

>  <SCORE.INTRA.POLAR.0>
0

>  <SCORE.INTRA.REPUL>
0

>  <SCORE.INTRA.REPUL.0>
0

>  <SCORE.INTRA.SOLV>
-0.94225

>  <SCORE.INTRA.SOLV.lig_0>
-80.3833

>  <SCORE.INTRA.VDW>
0.629029

>  <SCORE.INTRA.VDW.0>
-4.63762

>  <SCORE.INTRA.norm>
-0.0588214

>  <SCORE.RESTR>
0

>  <SCORE.RESTR.CAVITY>
0

>  <SCORE.RESTR.norm>
0

>  <SCORE.SYSTEM>
0

>  <SCORE.SYSTEM.CONST>
0

>  <SCORE.SYSTEM.DIHEDRAL>
0

>  <SCORE.SYSTEM.SOLV>
0

>  <SCORE.SYSTEM.norm>
0

>  <SCORE.heavy>
31

>  <SCORE.norm>
-0.094997

>  <RMSD>
26.643

$$$$
ligand
 OpenBabel11021811473D
libRbt.so/2013.1/901 2013/11/27
 31 33  0  0  0  0  0  0  0  0999 V2000
    7.0954  -13.3641   -4.5760 C   0  0  0  0  0  0  0  0  0  0  0  0
   10.2705   -8.2036   -2.1262 N   0  0  0  0  0  0  0  0  0  0  0  0
    7.9871  -12.5762   -5.3717 O   0  0  0  0  0  0  0  0  0  0  0  0
    7.3970  -13.1620   -3.0889 C   0  0  1  0  0  0  0  0  0  0  0  0
    8.1678   -8.9933    2.2165 N   0  0  0  0  0  0  0  0  0  0  0  0
    7.4117  -11.7565   -2.7716 O   0  0  0  0  0  0  0  0  0  0  0  0
    6.4926  -11.5211   -1.6901 C   0  0  1  0  0  0  0  0  0  0  0  0
    5.7071  -11.5846    5.3108 N   0  0  0  0  0  0  0  0  0  0  0  0
    5.8679  -10.2320   -1.7945 O   0  0  0  0  0  0  0  0  0  0  0  0
    6.6682   -9.1582   -1.2783 C   0  0  2  0  0  0  0  0  0  0  0  0
    3.0065   -8.1519    0.4455 N   0  0  0  0  0  0  0  0  0  0  0  0
    7.8401   -8.9138   -3.3782 O   0  0  0  0  0  0  0  0  0  0  0  0
    8.0236   -9.2165   -1.9925 C   0  0  1  0  0  0  0  0  0  0  0  0
    5.6109   -9.0112    0.9447 O   0  0  0  0  0  0  0  0  0  0  0  0
    9.0016   -8.2103   -1.3825 C   0  0  1  0  0  0  0  0  0  0  0  0
    4.8704  -11.0987    1.7398 O   0  0  0  0  0  0  0  0  0  0  0  0
    9.2524   -8.5791    0.0799 C   0  0  0  0  0  0  0  0  0  0  0  0
    3.7859   -9.7365    4.9717 O   0  0  0  0  0  0  0  0  0  0  0  0
    7.9326   -8.4960    0.8524 C   0  0  1  0  0  0  0  0  0  0  0  0
    1.9442   -8.5230    3.1278 O   0  0  0  0  0  0  0  0  0  0  0  0
    6.8145   -9.3407    0.2294 C   0  0  2  0  0  0  0  0  0  0  0  0
    4.6568  -12.8449   -0.7229 O   0  0  0  0  0  0  0  0  0  0  0  0
    4.5714   -9.9987    0.8606 C   0  0  1  0  0  0  0  0  0  0  0  0
    6.8019  -14.3631   -1.0252 O   0  0  0  0  0  0  0  0  0  0  0  0
    4.9831  -10.7324    3.1256 C   0  0  2  0  0  0  0  0  0  0  0  0
    5.3140  -11.9796    3.9488 C   0  0  0  0  0  0  0  0  0  0  0  0
    3.6512  -10.1582    3.6119 C   0  0  2  0  0  0  0  0  0  0  0  0
    3.2533   -8.9599    2.7477 C   0  0  1  0  0  0  0  0  0  0  0  0
    3.2445   -9.3487    1.2669 C   0  0  1  0  0  0  0  0  0  0  0  0
    5.4244  -12.5920   -1.9020 C   0  0  2  0  0  0  0  0  0  0  0  0
    6.2952  -13.7991   -2.2375 C   0  0  1  0  0  0  0  0  0  0  0  0
  1  3  1  0  0  0  0
  4  1  1  6  0  0  0
  4  6  1  0  0  0  0
  4 31  1  0  0  0  0
  6  7  1  0  0  0  0
  7  9  1  6  0  0  0
  7 30  1  0  0  0  0
  8 26  1  0  0  0  0
 10  9  1  6  0  0  0
 10 13  1  0  0  0  0
 10 21  1  0  0  0  0
 13 12  1  6  0  0  0
 13 15  1  0  0  0  0
 15  2  1  6  0  0  0
 15 17  1  0  0  0  0
 16 25  1  0  0  0  0
 16 23  1  0  0  0  0
 17 19  1  0  0  0  0
 19  5  1  1  0  0  0
 19 21  1  0  0  0  0
 21 14  1  1  0  0  0
 23 14  1  1  0  0  0
 23 29  1  0  0  0  0
 25 26  1  1  0  0  0
 25 27  1  0  0  0  0
 27 18  1  1  0  0  0
 27 28  1  0  0  0  0
 28 20  1  1  0  0  0
 28 29  1  0  0  0  0
 29 11  1  6  0  0  0
 30 22  1  1  0  0  0
 30 31  1  0  0  0  0
 31 24  1  1  0  0  0
M  END
>  <CHROM.1>
52.24156484,-82.39237493,54.74902641,77.33179539,75.78787835,168.26670468
6.09248981,-10.49519959,-0.01290805,0.81145977,-0.80669699,-2.42525350

>  <Name>
ligand

>  <RI>
0

>  <Rbt.Current_Directory>
/home/itssahil/PROJECTS/Mol_Feturizer/New_Systems/rnas/3DVV

>  <Rbt.Executable>
rbdock ($Id: //depot/dev/client3/rdock/2013.1/src/exe/rbdock.cxx#4 $)

>  <Rbt.Library>
libRbt.so (2013.1, Build901 2013/11/27)

>  <Rbt.Parameter_File>
/export/apps/rDock/src/rDock_2013.1_src/data/scripts/dock_solv.prm

>  <Rbt.Receptor>
prm/blind_docking_20.prm

>  <SCORE>
-3.33175

>  <SCORE.INTER>
-2.98506

>  <SCORE.INTER.CONST>
1

>  <SCORE.INTER.POLAR>
0

>  <SCORE.INTER.ROT>
6

>  <SCORE.INTER.SOLV>
16.0699

>  <SCORE.INTER.VDW>
-14.9467

>  <SCORE.INTER.norm>
-0.0962924

>  <SCORE.INTRA>
-0.448116

>  <SCORE.INTRA.DIHEDRAL>
-5.09986

>  <SCORE.INTRA.DIHEDRAL.0>
10.8172

>  <SCORE.INTRA.POLAR>
0

>  <SCORE.INTRA.POLAR.0>
0

>  <SCORE.INTRA.REPUL>
0.0529831

>  <SCORE.INTRA.REPUL.0>
0

>  <SCORE.INTRA.SOLV>
-2.00443

>  <SCORE.INTRA.SOLV.lig_0>
-80.3833

>  <SCORE.INTRA.VDW>
2.83911

>  <SCORE.INTRA.VDW.0>
-4.63762

>  <SCORE.INTRA.norm>
-0.0144554

>  <SCORE.RESTR>
0.101431

>  <SCORE.RESTR.CAVITY>
0.101431

>  <SCORE.RESTR.norm>
0.00327196

>  <SCORE.SYSTEM>
0

>  <SCORE.SYSTEM.CONST>
0

>  <SCORE.SYSTEM.DIHEDRAL>
0

>  <SCORE.SYSTEM.SOLV>
0

>  <SCORE.SYSTEM.norm>
0

>  <SCORE.heavy>
31

>  <SCORE.norm>
-0.107476

>  <RMSD>
26.694

$$$$
ligand
 OpenBabel11021811473D
libRbt.so/2013.1/901 2013/11/27
 31 33  0  0  0  0  0  0  0  0999 V2000
    8.2331  -10.1827   -5.1219 C   0  0  0  0  0  0  0  0  0  0  0  0
    3.4859  -14.5635    1.0808 N   0  0  0  0  0  0  0  0  0  0  0  0
    8.8943   -9.0219   -4.6080 O   0  0  0  0  0  0  0  0  0  0  0  0
    8.3816  -11.3509   -4.1438 C   0  0  1  0  0  0  0  0  0  0  0  0
    4.3404  -10.0398    2.7270 N   0  0  0  0  0  0  0  0  0  0  0  0
    7.8999  -10.9712   -2.8399 O   0  0  0  0  0  0  0  0  0  0  0  0
    6.9092  -11.9267   -2.4211 C   0  0  1  0  0  0  0  0  0  0  0  0
    4.6172   -5.4602   -0.7856 N   0  0  0  0  0  0  0  0  0  0  0  0
    5.8859  -11.3150   -1.6201 O   0  0  0  0  0  0  0  0  0  0  0  0
    5.7980  -11.8464   -0.2898 C   0  0  2  0  0  0  0  0  0  0  0  0
    9.1995   -9.1033    0.5235 N   0  0  0  0  0  0  0  0  0  0  0  0
    5.1798  -14.0322   -1.1162 O   0  0  0  0  0  0  0  0  0  0  0  0
    4.7268  -12.9431   -0.3074 C   0  0  1  0  0  0  0  0  0  0  0  0
    6.5347   -9.8232    0.9122 O   0  0  0  0  0  0  0  0  0  0  0  0
    4.4467  -13.4502    1.1087 C   0  0  1  0  0  0  0  0  0  0  0  0
    5.7602   -8.0255   -0.3941 O   0  0  0  0  0  0  0  0  0  0  0  0
    3.8938  -12.3010    1.9520 C   0  0  0  0  0  0  0  0  0  0  0  0
    6.3702   -5.5493    2.2465 O   0  0  0  0  0  0  0  0  0  0  0  0
    4.9447  -11.1902    2.0379 C   0  0  1  0  0  0  0  0  0  0  0  0
    9.0292   -6.3832    1.5398 O   0  0  0  0  0  0  0  0  0  0  0  0
    5.4325  -10.7134    0.6644 C   0  0  2  0  0  0  0  0  0  0  0  0
    5.5975  -13.6278   -3.6226 O   0  0  0  0  0  0  0  0  0  0  0  0
    6.8507   -8.9394   -0.1749 C   0  0  1  0  0  0  0  0  0  0  0  0
    8.1440  -13.7939   -4.3195 O   0  0  0  0  0  0  0  0  0  0  0  0
    5.4495   -7.1955    0.7380 C   0  0  2  0  0  0  0  0  0  0  0  0
    4.2719   -6.2842    0.3837 C   0  0  0  0  0  0  0  0  0  0  0  0
    6.6608   -6.3268    1.0819 C   0  0  2  0  0  0  0  0  0  0  0  0
    7.8774   -7.2132    1.3560 C   0  0  1  0  0  0  0  0  0  0  0  0
    8.1228   -8.1620    0.1798 C   0  0  1  0  0  0  0  0  0  0  0  0
    6.2830  -12.3787   -3.7387 C   0  0  2  0  0  0  0  0  0  0  0  0
    7.5285  -12.5356   -4.6060 C   0  0  1  0  0  0  0  0  0  0  0  0
  1  3  1  0  0  0  0
  4  1  1  6  0  0  0
  4  6  1  0  0  0  0
  4 31  1  0  0  0  0
  6  7  1  0  0  0  0
  7  9  1  1  0  0  0
  7 30  1  0  0  0  0
  8 26  1  0  0  0  0
 10  9  1  6  0  0  0
 10 13  1  0  0  0  0
 10 21  1  0  0  0  0
 13 12  1  6  0  0  0
 13 15  1  0  0  0  0
 15  2  1  6  0  0  0
 15 17  1  0  0  0  0
 16 25  1  0  0  0  0
 16 23  1  0  0  0  0
 17 19  1  0  0  0  0
 19  5  1  6  0  0  0
 19 21  1  0  0  0  0
 21 14  1  1  0  0  0
 23 14  1  1  0  0  0
 23 29  1  0  0  0  0
 25 26  1  6  0  0  0
 25 27  1  0  0  0  0
 27 18  1  1  0  0  0
 27 28  1  0  0  0  0
 28 20  1  6  0  0  0
 28 29  1  0  0  0  0
 29 11  1  1  0  0  0
 30 22  1  1  0  0  0
 30 31  1  0  0  0  0
 31 24  1  1  0  0  0
M  END
>  <CHROM.1>
55.19956730,-118.73560285,-94.40462920,65.36636137,74.08173309,-58.59580693
6.37176834,-10.20912255,-0.72988869,-1.53076650,0.92865573,0.57622384

>  <Name>
ligand

>  <RI>
0

>  <Rbt.Current_Directory>
/home/itssahil/PROJECTS/Mol_Feturizer/New_Systems/rnas/3DVV

>  <Rbt.Executable>
rbdock ($Id: //depot/dev/client3/rdock/2013.1/src/exe/rbdock.cxx#4 $)

>  <Rbt.Library>
libRbt.so (2013.1, Build901 2013/11/27)

>  <Rbt.Parameter_File>
/export/apps/rDock/src/rDock_2013.1_src/data/scripts/dock_solv.prm

>  <Rbt.Receptor>
prm/blind_docking_80.prm

>  <SCORE>
-6.56089

>  <SCORE.INTER>
-8.53682

>  <SCORE.INTER.CONST>
1

>  <SCORE.INTER.POLAR>
0

>  <SCORE.INTER.ROT>
6

>  <SCORE.INTER.SOLV>
19.3198

>  <SCORE.INTER.VDW>
-19.7311

>  <SCORE.INTER.norm>
-0.275381

>  <SCORE.INTRA>
1.27675

>  <SCORE.INTRA.DIHEDRAL>
1.88635

>  <SCORE.INTRA.DIHEDRAL.0>
10.8172

>  <SCORE.INTRA.POLAR>
0

>  <SCORE.INTRA.POLAR.0>
0

>  <SCORE.INTRA.REPUL>
0

>  <SCORE.INTRA.REPUL.0>
0

>  <SCORE.INTRA.SOLV>
-1.81633

>  <SCORE.INTRA.SOLV.lig_0>
-80.3833

>  <SCORE.INTRA.VDW>
1.24175

>  <SCORE.INTRA.VDW.0>
-4.63762

>  <SCORE.INTRA.norm>
0.0411856

>  <SCORE.RESTR>
0.699172

>  <SCORE.RESTR.CAVITY>
0.699172

>  <SCORE.RESTR.norm>
0.0225539

>  <SCORE.SYSTEM>
0

>  <SCORE.SYSTEM.CONST>
0

>  <SCORE.SYSTEM.DIHEDRAL>
0

>  <SCORE.SYSTEM.SOLV>
0

>  <SCORE.SYSTEM.norm>
0

>  <SCORE.heavy>
31

>  <SCORE.norm>
-0.211642

>  <RMSD>
26.712

$$$$
ligand
 OpenBabel11021811473D
libRbt.so/2013.1/901 2013/11/27
 31 33  0  0  0  0  0  0  0  0999 V2000
    4.4189  -12.4792    3.3175 C   0  0  0  0  0  0  0  0  0  0  0  0
    7.5172  -13.4537   -5.0724 N   0  0  0  0  0  0  0  0  0  0  0  0
    4.5538  -11.1753    3.8923 O   0  0  0  0  0  0  0  0  0  0  0  0
    3.7778  -12.3808    1.9310 C   0  0  1  0  0  0  0  0  0  0  0  0
    8.3632   -8.8772   -3.5746 N   0  0  0  0  0  0  0  0  0  0  0  0
    4.5859  -11.5577    1.0674 O   0  0  0  0  0  0  0  0  0  0  0  0
    4.8938  -12.3057   -0.1223 C   0  0  1  0  0  0  0  0  0  0  0  0
    3.2666   -5.6574    0.5540 N   0  0  0  0  0  0  0  0  0  0  0  0
    6.1918  -11.9722   -0.6389 O   0  0  0  0  0  0  0  0  0  0  0  0
    6.1816  -11.5815   -2.0199 C   0  0  2  0  0  0  0  0  0  0  0  0
    8.4555   -9.5656   -0.0005 N   0  0  0  0  0  0  0  0  0  0  0  0
    5.9634  -13.8749   -2.7515 O   0  0  0  0  0  0  0  0  0  0  0  0
    6.8122  -12.7260   -2.8216 C   0  0  1  0  0  0  0  0  0  0  0  0
    6.2583   -9.1427   -1.6629 O   0  0  0  0  0  0  0  0  0  0  0  0
    6.9964  -12.3247   -4.2865 C   0  0  1  0  0  0  0  0  0  0  0  0
    6.2810   -6.8241   -1.2606 O   0  0  0  0  0  0  0  0  0  0  0  0
    7.9617  -11.1417   -4.3643 C   0  0  0  0  0  0  0  0  0  0  0  0
    4.7788   -7.1593    2.0721 O   0  0  0  0  0  0  0  0  0  0  0  0
    7.3594   -9.9516   -3.6116 C   0  0  1  0  0  0  0  0  0  0  0  0
    7.3578   -8.3814    2.4188 O   0  0  0  0  0  0  0  0  0  0  0  0
    6.9730  -10.2852   -2.1655 C   0  0  2  0  0  0  0  0  0  0  0  0
    4.7766  -14.6993   -0.6833 O   0  0  0  0  0  0  0  0  0  0  0  0
    7.0839   -8.0173   -1.3244 C   0  0  1  0  0  0  0  0  0  0  0  0
    2.5309  -13.9363    0.4882 O   0  0  0  0  0  0  0  0  0  0  0  0
    5.2271   -6.8738   -0.2838 C   0  0  2  0  0  0  0  0  0  0  0  0
    4.4436   -5.5597   -0.3240 C   0  0  0  0  0  0  0  0  0  0  0  0
    5.8315   -7.0466    1.1108 C   0  0  2  0  0  0  0  0  0  0  0  0
    6.6928   -8.3105    1.1531 C   0  0  1  0  0  0  0  0  0  0  0  0
    7.7387   -8.2817    0.0355 C   0  0  1  0  0  0  0  0  0  0  0  0
    4.9299  -13.7495    0.3741 C   0  0  2  0  0  0  0  0  0  0  0  0
    3.7060  -13.7674    1.2850 C   0  0  1  0  0  0  0  0  0  0  0  0
  1  3  1  0  0  0  0
  4  1  1  1  0  0  0
  4  6  1  0  0  0  0
  4 31  1  0  0  0  0
  6  7  1  0  0  0  0
  7  9  1  1  0  0  0
  7 30  1  0  0  0  0
  8 26  1  0  0  0  0
 10  9  1  1  0  0  0
 10 13  1  0  0  0  0
 10 21  1  0  0  0  0
 13 12  1  6  0  0  0
 13 15  1  0  0  0  0
 15  2  1  6  0  0  0
 15 17  1  0  0  0  0
 16 25  1  0  0  0  0
 16 23  1  0  0  0  0
 17 19  1  0  0  0  0
 19  5  1  1  0  0  0
 19 21  1  0  0  0  0
 21 14  1  6  0  0  0
 23 14  1  1  0  0  0
 23 29  1  0  0  0  0
 25 26  1  1  0  0  0
 25 27  1  0  0  0  0
 27 18  1  1  0  0  0
 27 28  1  0  0  0  0
 28 20  1  1  0  0  0
 28 29  1  0  0  0  0
 29 11  1  6  0  0  0
 30 22  1  6  0  0  0
 30 31  1  0  0  0  0
 31 24  1  6  0  0  0
M  END
>  <CHROM.1>
59.18505127,-126.31597602,-107.77783582,161.26516716,158.59526685,173.27476292
5.83894815,-10.43777450,-0.51190835,1.54763090,-1.03860411,-2.78644724

>  <Name>
ligand

>  <RI>
0

>  <Rbt.Current_Directory>
/home/itssahil/PROJECTS/Mol_Feturizer/New_Systems/rnas/3DVV

>  <Rbt.Executable>
rbdock ($Id: //depot/dev/client3/rdock/2013.1/src/exe/rbdock.cxx#4 $)

>  <Rbt.Library>
libRbt.so (2013.1, Build901 2013/11/27)

>  <Rbt.Parameter_File>
/export/apps/rDock/src/rDock_2013.1_src/data/scripts/dock_solv.prm

>  <Rbt.Receptor>
prm/blind_docking_20.prm

>  <SCORE>
1.22563

>  <SCORE.INTER>
-5.42298

>  <SCORE.INTER.CONST>
1

>  <SCORE.INTER.POLAR>
0

>  <SCORE.INTER.ROT>
6

>  <SCORE.INTER.SOLV>
21.6655

>  <SCORE.INTER.VDW>
-18.4371

>  <SCORE.INTER.norm>
-0.174935

>  <SCORE.INTRA>
6.64861

>  <SCORE.INTRA.DIHEDRAL>
6.37236

>  <SCORE.INTRA.DIHEDRAL.0>
10.8172

>  <SCORE.INTRA.POLAR>
0

>  <SCORE.INTRA.POLAR.0>
0

>  <SCORE.INTRA.REPUL>
0

>  <SCORE.INTRA.REPUL.0>
0

>  <SCORE.INTRA.SOLV>
1.31341

>  <SCORE.INTRA.SOLV.lig_0>
-80.3833

>  <SCORE.INTRA.VDW>
2.80573

>  <SCORE.INTRA.VDW.0>
-4.63762

>  <SCORE.INTRA.norm>
0.214471

>  <SCORE.RESTR>
0

>  <SCORE.RESTR.CAVITY>
0

>  <SCORE.RESTR.norm>
0

>  <SCORE.SYSTEM>
0

>  <SCORE.SYSTEM.CONST>
0

>  <SCORE.SYSTEM.DIHEDRAL>
0

>  <SCORE.SYSTEM.SOLV>
0

>  <SCORE.SYSTEM.norm>
0

>  <SCORE.heavy>
31

>  <SCORE.norm>
0.0395364

>  <RMSD>
26.739

$$$$
ligand
 OpenBabel11021811473D
libRbt.so/2013.1/901 2013/11/27
 31 33  0  0  0  0  0  0  0  0999 V2000
    7.9393   -9.8393   -4.7458 C   0  0  0  0  0  0  0  0  0  0  0  0
    3.4840  -14.6289    1.4696 N   0  0  0  0  0  0  0  0  0  0  0  0
    8.4065  -10.1726   -6.0570 O   0  0  0  0  0  0  0  0  0  0  0  0
    8.1269  -11.0289   -3.8008 C   0  0  1  0  0  0  0  0  0  0  0  0
    3.8186   -9.9488    2.8435 N   0  0  0  0  0  0  0  0  0  0  0  0
    7.5407  -10.7402   -2.5164 O   0  0  0  0  0  0  0  0  0  0  0  0
    6.6098  -11.7880   -2.1916 C   0  0  1  0  0  0  0  0  0  0  0  0
    2.6212   -6.6264    1.1268 N   0  0  0  0  0  0  0  0  0  0  0  0
    5.4947  -11.2923   -1.4341 O   0  0  0  0  0  0  0  0  0  0  0  0
    5.4695  -11.7514   -0.0745 C   0  0  2  0  0  0  0  0  0  0  0  0
    8.5330   -9.0136    0.0649 N   0  0  0  0  0  0  0  0  0  0  0  0
    5.1038  -14.0379   -0.7677 O   0  0  0  0  0  0  0  0  0  0  0  0
    4.5305  -12.9620   -0.0200 C   0  0  1  0  0  0  0  0  0  0  0  0
    5.9719   -9.5905    1.0022 O   0  0  0  0  0  0  0  0  0  0  0  0
    4.3115  -13.4138    1.4253 C   0  0  1  0  0  0  0  0  0  0  0  0
    5.0604   -7.6860   -0.0370 O   0  0  0  0  0  0  0  0  0  0  0  0
    3.6321  -12.2876    2.2047 C   0  0  0  0  0  0  0  0  0  0  0  0
    6.3984   -5.3871    2.4930 O   0  0  0  0  0  0  0  0  0  0  0  0
    4.5494  -11.0613    2.2177 C   0  0  1  0  0  0  0  0  0  0  0  0
    8.7767   -6.3429    1.1911 O   0  0  0  0  0  0  0  0  0  0  0  0
    4.9782  -10.6134    0.8151 C   0  0  2  0  0  0  0  0  0  0  0  0
    5.5152  -13.5412   -3.5279 O   0  0  0  0  0  0  0  0  0  0  0  0
    6.1060   -8.6737   -0.0952 C   0  0  1  0  0  0  0  0  0  0  0  0
    8.1028  -13.4745   -4.0736 O   0  0  0  0  0  0  0  0  0  0  0  0
    5.0606   -6.8968    1.1648 C   0  0  2  0  0  0  0  0  0  0  0  0
    3.9007   -5.8997    1.1104 C   0  0  0  0  0  0  0  0  0  0  0  0
    6.3752   -6.1210    1.2659 C   0  0  2  0  0  0  0  0  0  0  0  0
    7.5574   -7.0917    1.2345 C   0  0  1  0  0  0  0  0  0  0  0  0
    7.4757   -7.9931   -0.0003 C   0  0  1  0  0  0  0  0  0  0  0  0
    6.1006  -12.2374   -3.5595 C   0  0  2  0  0  0  0  0  0  0  0  0
    7.4029  -12.2596   -4.3541 C   0  0  1  0  0  0  0  0  0  0  0  0
  1  3  1  0  0  0  0
  4  1  1  6  0  0  0
  4  6  1  0  0  0  0
  4 31  1  0  0  0  0
  6  7  1  0  0  0  0
  7  9  1  1  0  0  0
  7 30  1  0  0  0  0
  8 26  1  0  0  0  0
 10  9  1  6  0  0  0
 10 13  1  0  0  0  0
 10 21  1  0  0  0  0
 13 12  1  6  0  0  0
 13 15  1  0  0  0  0
 15  2  1  6  0  0  0
 15 17  1  0  0  0  0
 16 25  1  0  0  0  0
 16 23  1  0  0  0  0
 17 19  1  0  0  0  0
 19  5  1  6  0  0  0
 19 21  1  0  0  0  0
 21 14  1  1  0  0  0
 23 14  1  1  0  0  0
 23 29  1  0  0  0  0
 25 26  1  6  0  0  0
 25 27  1  0  0  0  0
 27 18  1  1  0  0  0
 27 28  1  0  0  0  0
 28 20  1  6  0  0  0
 28 29  1  0  0  0  0
 29 11  1  1  0  0  0
 30 22  1  1  0  0  0
 30 31  1  0  0  0  0
 31 24  1  1  0  0  0
M  END
>  <CHROM.1>
-174.49233121,-111.31971035,-96.71245180,79.82829878,78.97870801,65.26345785
5.99399917,-10.14143520,-0.54580564,-1.29627344,0.91292872,0.51552102

>  <Name>
ligand

>  <RI>
0

>  <Rbt.Current_Directory>
/home/itssahil/PROJECTS/Mol_Feturizer/New_Systems/rnas/3DVV

>  <Rbt.Executable>
rbdock ($Id: //depot/dev/client3/rdock/2013.1/src/exe/rbdock.cxx#4 $)

>  <Rbt.Library>
libRbt.so (2013.1, Build901 2013/11/27)

>  <Rbt.Parameter_File>
/export/apps/rDock/src/rDock_2013.1_src/data/scripts/dock_solv.prm

>  <Rbt.Receptor>
prm/blind_docking_20.prm

>  <SCORE>
-5.26433

>  <SCORE.INTER>
-7.94712

>  <SCORE.INTER.CONST>
1

>  <SCORE.INTER.POLAR>
0

>  <SCORE.INTER.ROT>
6

>  <SCORE.INTER.SOLV>
18.3796

>  <SCORE.INTER.VDW>
-19.0246

>  <SCORE.INTER.norm>
-0.256359

>  <SCORE.INTRA>
2.1091

>  <SCORE.INTRA.DIHEDRAL>
4.40047

>  <SCORE.INTRA.DIHEDRAL.0>
10.8172

>  <SCORE.INTRA.POLAR>
0

>  <SCORE.INTRA.POLAR.0>
0

>  <SCORE.INTRA.REPUL>
0

>  <SCORE.INTRA.REPUL.0>
0

>  <SCORE.INTRA.SOLV>
-1.44902

>  <SCORE.INTRA.SOLV.lig_0>
-80.3833

>  <SCORE.INTRA.VDW>
0.633374

>  <SCORE.INTRA.VDW.0>
-4.63762

>  <SCORE.INTRA.norm>
0.0680355

>  <SCORE.RESTR>
0.573688

>  <SCORE.RESTR.CAVITY>
0.573688

>  <SCORE.RESTR.norm>
0.0185061

>  <SCORE.SYSTEM>
0

>  <SCORE.SYSTEM.CONST>
0

>  <SCORE.SYSTEM.DIHEDRAL>
0

>  <SCORE.SYSTEM.SOLV>
0

>  <SCORE.SYSTEM.norm>
0

>  <SCORE.heavy>
31

>  <SCORE.norm>
-0.169817

>  <RMSD>
26.765

$$$$
ligand
 OpenBabel11021811473D
libRbt.so/2013.1/901 2013/11/27
 31 33  0  0  0  0  0  0  0  0999 V2000
    4.4732  -12.5754    3.4375 C   0  0  0  0  0  0  0  0  0  0  0  0
    7.6731  -13.5776   -5.0140 N   0  0  0  0  0  0  0  0  0  0  0  0
    4.6952  -11.2623    3.9622 O   0  0  0  0  0  0  0  0  0  0  0  0
    3.7797  -12.4890    2.0756 C   0  0  1  0  0  0  0  0  0  0  0  0
    7.8319   -8.9204   -3.5346 N   0  0  0  0  0  0  0  0  0  0  0  0
    4.5899  -11.7355    1.1525 O   0  0  0  0  0  0  0  0  0  0  0  0
    4.8103  -12.5355   -0.0227 C   0  0  1  0  0  0  0  0  0  0  0  0
    9.7028   -8.0166   -0.1032 N   0  0  0  0  0  0  0  0  0  0  0  0
    6.1001  -12.2844   -0.6026 O   0  0  0  0  0  0  0  0  0  0  0  0
    6.0482  -11.9053   -1.9859 C   0  0  2  0  0  0  0  0  0  0  0  0
    3.3201   -8.8938   -0.4430 N   0  0  0  0  0  0  0  0  0  0  0  0
    6.1719  -14.2093   -2.7062 O   0  0  0  0  0  0  0  0  0  0  0  0
    6.8463  -12.9500   -2.7746 C   0  0  1  0  0  0  0  0  0  0  0  0
    5.7673   -9.4795   -1.6424 O   0  0  0  0  0  0  0  0  0  0  0  0
    6.9860  -12.5326   -4.2399 C   0  0  1  0  0  0  0  0  0  0  0  0
    6.9690   -8.8297    0.2738 O   0  0  0  0  0  0  0  0  0  0  0  0
    7.7708  -11.2227   -4.3150 C   0  0  0  0  0  0  0  0  0  0  0  0
    6.5288   -5.2460   -0.3892 O   0  0  0  0  0  0  0  0  0  0  0  0
    6.9947  -10.1290   -3.5753 C   0  0  1  0  0  0  0  0  0  0  0  0
    3.8520   -6.1089    0.2068 O   0  0  0  0  0  0  0  0  0  0  0  0
    6.6452  -10.5088   -2.1312 C   0  0  2  0  0  0  0  0  0  0  0  0
    4.5524  -14.9369   -0.4970 O   0  0  0  0  0  0  0  0  0  0  0  0
    5.7208   -9.3572   -0.2122 C   0  0  1  0  0  0  0  0  0  0  0  0
    2.3983  -14.0249    0.7382 O   0  0  0  0  0  0  0  0  0  0  0  0
    7.3010   -7.5297   -0.2429 C   0  0  2  0  0  0  0  0  0  0  0  0
    8.6479   -7.0891    0.3354 C   0  0  0  0  0  0  0  0  0  0  0  0
    6.2289   -6.5235    0.1792 C   0  0  2  0  0  0  0  0  0  0  0  0
    4.8562   -6.9867   -0.3131 C   0  0  1  0  0  0  0  0  0  0  0  0
    4.5723   -8.4142    0.1617 C   0  0  1  0  0  0  0  0  0  0  0  0
    4.7966  -13.9629    0.5205 C   0  0  2  0  0  0  0  0  0  0  0  0
    3.6129  -13.8901    1.4805 C   0  0  1  0  0  0  0  0  0  0  0  0
  1  3  1  0  0  0  0
  4  1  1  1  0  0  0
  4  6  1  0  0  0  0
  4 31  1  0  0  0  0
  6  7  1  0  0  0  0
  7  9  1  1  0  0  0
  7 30  1  0  0  0  0
  8 26  1  0  0  0  0
 10  9  1  1  0  0  0
 10 13  1  0  0  0  0
 10 21  1  0  0  0  0
 13 12  1  6  0  0  0
 13 15  1  0  0  0  0
 15  2  1  6  0  0  0
 15 17  1  0  0  0  0
 16 25  1  0  0  0  0
 16 23  1  0  0  0  0
 17 19  1  0  0  0  0
 19  5  1  1  0  0  0
 19 21  1  0  0  0  0
 21 14  1  6  0  0  0
 23 14  1  6  0  0  0
 23 29  1  0  0  0  0
 25 26  1  1  0  0  0
 25 27  1  0  0  0  0
 27 18  1  6  0  0  0
 27 28  1  0  0  0  0
 28 20  1  1  0  0  0
 28 29  1  0  0  0  0
 29 11  1  6  0  0  0
 30 22  1  6  0  0  0
 30 31  1  0  0  0  0
 31 24  1  6  0  0  0
M  END
>  <CHROM.1>
59.22256055,-124.84298643,-119.95859526,69.83063882,76.87590337,62.72844079
5.78990935,-10.59156599,-0.61608643,2.07635624,-0.97545710,-2.74494353

>  <Name>
ligand

>  <RI>
0

>  <Rbt.Current_Directory>
/home/itssahil/PROJECTS/Mol_Feturizer/New_Systems/rnas/3DVV

>  <Rbt.Executable>
rbdock ($Id: //depot/dev/client3/rdock/2013.1/src/exe/rbdock.cxx#4 $)

>  <Rbt.Library>
libRbt.so (2013.1, Build901 2013/11/27)

>  <Rbt.Parameter_File>
/export/apps/rDock/src/rDock_2013.1_src/data/scripts/dock_solv.prm

>  <Rbt.Receptor>
prm/blind_docking_20.prm

>  <SCORE>
-3.05644

>  <SCORE.INTER>
-5.15923

>  <SCORE.INTER.CONST>
1

>  <SCORE.INTER.POLAR>
0

>  <SCORE.INTER.ROT>
6

>  <SCORE.INTER.SOLV>
24.8073

>  <SCORE.INTER.VDW>
-19.3086

>  <SCORE.INTER.norm>
-0.166427

>  <SCORE.INTRA>
2.10104

>  <SCORE.INTRA.DIHEDRAL>
5.19752

>  <SCORE.INTRA.DIHEDRAL.0>
10.8172

>  <SCORE.INTRA.POLAR>
0

>  <SCORE.INTRA.POLAR.0>
0

>  <SCORE.INTRA.REPUL>
0

>  <SCORE.INTRA.REPUL.0>
0

>  <SCORE.INTRA.SOLV>
-1.70605

>  <SCORE.INTRA.SOLV.lig_0>
-80.3833

>  <SCORE.INTRA.VDW>
0.355307

>  <SCORE.INTRA.VDW.0>
-4.63762

>  <SCORE.INTRA.norm>
0.0677755

>  <SCORE.RESTR>
0.00174364

>  <SCORE.RESTR.CAVITY>
0.00174364

>  <SCORE.RESTR.norm>
5.62465e-05

>  <SCORE.SYSTEM>
0

>  <SCORE.SYSTEM.CONST>
0

>  <SCORE.SYSTEM.DIHEDRAL>
0

>  <SCORE.SYSTEM.SOLV>
0

>  <SCORE.SYSTEM.norm>
0

>  <SCORE.heavy>
31

>  <SCORE.norm>
-0.098595

>  <RMSD>
26.817

$$$$
ligand
 OpenBabel11021811473D
libRbt.so/2013.1/901 2013/11/27
 31 33  0  0  0  0  0  0  0  0999 V2000
    4.5002  -12.6394    3.5594 C   0  0  0  0  0  0  0  0  0  0  0  0
    7.8288  -12.0668   -5.0125 N   0  0  0  0  0  0  0  0  0  0  0  0
    4.6314  -11.3185    4.0950 O   0  0  0  0  0  0  0  0  0  0  0  0
    3.7395  -12.5972    2.2317 C   0  0  1  0  0  0  0  0  0  0  0  0
    6.5316   -7.9796   -2.6639 N   0  0  0  0  0  0  0  0  0  0  0  0
    4.4529  -11.7883    1.2761 O   0  0  0  0  0  0  0  0  0  0  0  0
    4.6716  -12.5689    0.0875 C   0  0  1  0  0  0  0  0  0  0  0  0
    7.8401   -5.6438   -0.0748 N   0  0  0  0  0  0  0  0  0  0  0  0
    5.9130  -12.2296   -0.5504 O   0  0  0  0  0  0  0  0  0  0  0  0
    5.7524  -11.6124   -1.8362 C   0  0  2  0  0  0  0  0  0  0  0  0
    2.3543   -9.1886    0.3626 N   0  0  0  0  0  0  0  0  0  0  0  0
    6.5865  -13.5756   -2.9731 O   0  0  0  0  0  0  0  0  0  0  0  0
    6.8383  -12.1848   -2.7547 C   0  0  1  0  0  0  0  0  0  0  0  0
    4.7330   -9.5071   -1.0555 O   0  0  0  0  0  0  0  0  0  0  0  0
    6.8485  -11.4575   -4.1008 C   0  0  1  0  0  0  0  0  0  0  0  0
    6.0265   -8.7530    0.7601 O   0  0  0  0  0  0  0  0  0  0  0  0
    7.1896   -9.9849   -3.8718 C   0  0  0  0  0  0  0  0  0  0  0  0
    5.1644   -5.2286    0.2020 O   0  0  0  0  0  0  0  0  0  0  0  0
    6.1098   -9.3503   -2.9904 C   0  0  1  0  0  0  0  0  0  0  0  0
    2.6534   -6.3694    1.0133 O   0  0  0  0  0  0  0  0  0  0  0  0
    5.8885  -10.1017   -1.6720 C   0  0  2  0  0  0  0  0  0  0  0  0
    4.5550  -14.9812   -0.3872 O   0  0  0  0  0  0  0  0  0  0  0  0
    4.8008   -9.4028    0.3754 C   0  0  1  0  0  0  0  0  0  0  0  0
    2.4042  -14.2203    0.9518 O   0  0  0  0  0  0  0  0  0  0  0  0
    6.1765   -7.4211    0.2398 C   0  0  2  0  0  0  0  0  0  0  0  0
    7.5170   -6.8484    0.7064 C   0  0  0  0  0  0  0  0  0  0  0  0
    5.0484   -6.5352    0.7715 C   0  0  2  0  0  0  0  0  0  0  0  0
    3.6923   -7.1338    0.3924 C   0  0  1  0  0  0  0  0  0  0  0  0
    3.5993   -8.5872    0.8645 C   0  0  1  0  0  0  0  0  0  0  0  0
    4.7800  -13.9951    0.6231 C   0  0  2  0  0  0  0  0  0  0  0  0
    3.6403  -14.0050    1.6374 C   0  0  1  0  0  0  0  0  0  0  0  0
  1  3  1  0  0  0  0
  4  1  1  1  0  0  0
  4  6  1  0  0  0  0
  4 31  1  0  0  0  0
  6  7  1  0  0  0  0
  7  9  1  1  0  0  0
  7 30  1  0  0  0  0
  8 26  1  0  0  0  0
 10  9  1  1  0  0  0
 10 13  1  0  0  0  0
 10 21  1  0  0  0  0
 13 12  1  6  0  0  0
 13 15  1  0  0  0  0
 15  2  1  6  0  0  0
 15 17  1  0  0  0  0
 16 25  1  0  0  0  0
 16 23  1  0  0  0  0
 17 19  1  0  0  0  0
 19  5  1  1  0  0  0
 19 21  1  0  0  0  0
 21 14  1  6  0  0  0
 23 14  1  6  0  0  0
 23 29  1  0  0  0  0
 25 26  1  1  0  0  0
 25 27  1  0  0  0  0
 27 18  1  6  0  0  0
 27 28  1  0  0  0  0
 28 20  1  1  0  0  0
 28 29  1  0  0  0  0
 29 11  1  6  0  0  0
 30 22  1  6  0  0  0
 30 31  1  0  0  0  0
 31 24  1  6  0  0  0
M  END
>  <CHROM.1>
60.49470719,-113.62158794,-140.08559404,52.06826112,91.53886590,165.93405875
5.22113781,-10.31550645,-0.28264207,1.80453963,-1.02916839,-2.94735328

>  <Name>
ligand

>  <RI>
0

>  <Rbt.Current_Directory>
/home/itssahil/PROJECTS/Mol_Feturizer/New_Systems/rnas/3DVV

>  <Rbt.Executable>
rbdock ($Id: //depot/dev/client3/rdock/2013.1/src/exe/rbdock.cxx#4 $)

>  <Rbt.Library>
libRbt.so (2013.1, Build901 2013/11/27)

>  <Rbt.Parameter_File>
/export/apps/rDock/src/rDock_2013.1_src/data/scripts/dock_solv.prm

>  <Rbt.Receptor>
prm/blind_docking_20.prm

>  <SCORE>
-0.427956

>  <SCORE.INTER>
-5.81431

>  <SCORE.INTER.CONST>
1

>  <SCORE.INTER.POLAR>
0

>  <SCORE.INTER.ROT>
6

>  <SCORE.INTER.SOLV>
24.4569

>  <SCORE.INTER.VDW>
-19.6285

>  <SCORE.INTER.norm>
-0.187558

>  <SCORE.INTRA>
5.19225

>  <SCORE.INTRA.DIHEDRAL>
6.3031

>  <SCORE.INTRA.DIHEDRAL.0>
10.8172

>  <SCORE.INTRA.POLAR>
0

>  <SCORE.INTRA.POLAR.0>
0

>  <SCORE.INTRA.REPUL>
0

>  <SCORE.INTRA.REPUL.0>
0

>  <SCORE.INTRA.SOLV>
0.989206

>  <SCORE.INTRA.SOLV.lig_0>
-80.3833

>  <SCORE.INTRA.VDW>
1.5461

>  <SCORE.INTRA.VDW.0>
-4.63762

>  <SCORE.INTRA.norm>
0.167492

>  <SCORE.RESTR>
0.194098

>  <SCORE.RESTR.CAVITY>
0.194098

>  <SCORE.RESTR.norm>
0.00626122

>  <SCORE.SYSTEM>
0

>  <SCORE.SYSTEM.CONST>
0

>  <SCORE.SYSTEM.DIHEDRAL>
0

>  <SCORE.SYSTEM.SOLV>
0

>  <SCORE.SYSTEM.norm>
0

>  <SCORE.heavy>
31

>  <SCORE.norm>
-0.013805

>  <RMSD>
26.837

$$$$
ligand
 OpenBabel11021811473D
libRbt.so/2013.1/901 2013/11/27
 31 33  0  0  0  0  0  0  0  0999 V2000
    9.2402   -9.0695   -0.5243 C   0  0  0  0  0  0  0  0  0  0  0  0
    5.0360  -15.9597   -3.0733 N   0  0  0  0  0  0  0  0  0  0  0  0
    9.5631   -9.9873    0.5257 O   0  0  0  0  0  0  0  0  0  0  0  0
    9.1130   -9.8145   -1.8555 C   0  0  1  0  0  0  0  0  0  0  0  0
    3.5642  -13.7656    1.0405 N   0  0  0  0  0  0  0  0  0  0  0  0
    8.1790  -10.9043   -1.7275 O   0  0  0  0  0  0  0  0  0  0  0  0
    7.1708  -10.7656   -2.7444 C   0  0  1  0  0  0  0  0  0  0  0  0
    7.9996   -9.8105    4.6486 N   0  0  0  0  0  0  0  0  0  0  0  0
    5.8925  -11.2410   -2.2938 O   0  0  0  0  0  0  0  0  0  0  0  0
    5.9448  -12.5273   -1.6593 C   0  0  2  0  0  0  0  0  0  0  0  0
    4.2200   -9.7121   -0.6834 N   0  0  0  0  0  0  0  0  0  0  0  0
    6.4773  -13.6253   -3.7458 O   0  0  0  0  0  0  0  0  0  0  0  0
    5.5055  -13.5657   -2.6982 C   0  0  1  0  0  0  0  0  0  0  0  0
    5.5595  -11.7597    0.6522 O   0  0  0  0  0  0  0  0  0  0  0  0
    5.3694  -14.9487   -2.0583 C   0  0  1  0  0  0  0  0  0  0  0  0
    5.0007  -10.8774    2.7612 O   0  0  0  0  0  0  0  0  0  0  0  0
    4.2786  -14.9003   -0.9881 C   0  0  0  0  0  0  0  0  0  0  0  0
    7.5095   -8.2050    2.5589 O   0  0  0  0  0  0  0  0  0  0  0  0
    4.6876  -13.9045    0.1013 C   0  0  1  0  0  0  0  0  0  0  0  0
    5.6380   -7.4676    0.5050 O   0  0  0  0  0  0  0  0  0  0  0  0
    5.0175  -12.5112   -0.4479 C   0  0  2  0  0  0  0  0  0  0  0  0
    6.4829   -8.8953   -4.1889 O   0  0  0  0  0  0  0  0  0  0  0  0
    4.5970  -10.9839    1.3835 C   0  0  1  0  0  0  0  0  0  0  0  0
    9.1168   -9.1393   -4.2219 O   0  0  0  0  0  0  0  0  0  0  0  0
    6.2769  -10.2440    2.9546 C   0  0  2  0  0  0  0  0  0  0  0  0
    6.5955  -10.2043    4.4511 C   0  0  0  0  0  0  0  0  0  0  0  0
    6.2212   -8.8107    2.4229 C   0  0  2  0  0  0  0  0  0  0  0  0
    5.8185   -8.8173    0.9468 C   0  0  1  0  0  0  0  0  0  0  0  0
    4.5110   -9.5898    0.7533 C   0  0  1  0  0  0  0  0  0  0  0  0
    7.0801   -9.2537   -2.9405 C   0  0  2  0  0  0  0  0  0  0  0  0
    8.5586   -8.8770   -2.9319 C   0  0  1  0  0  0  0  0  0  0  0  0
  1  3  1  0  0  0  0
  4  1  1  1  0  0  0
  4  6  1  0  0  0  0
  4 31  1  0  0  0  0
  6  7  1  0  0  0  0
  7  9  1  1  0  0  0
  7 30  1  0  0  0  0
  8 26  1  0  0  0  0
 10  9  1  6  0  0  0
 10 13  1  0  0  0  0
 10 21  1  0  0  0  0
 13 12  1  6  0  0  0
 13 15  1  0  0  0  0
 15  2  1  6  0  0  0
 15 17  1  0  0  0  0
 16 25  1  0  0  0  0
 16 23  1  0  0  0  0
 17 19  1  0  0  0  0
 19  5  1  1  0  0  0
 19 21  1  0  0  0  0
 21 14  1  1  0  0  0
 23 14  1  6  0  0  0
 23 29  1  0  0  0  0
 25 26  1  1  0  0  0
 25 27  1  0  0  0  0
 27 18  1  6  0  0  0
 27 28  1  0  0  0  0
 28 20  1  1  0  0  0
 28 29  1  0  0  0  0
 29 11  1  6  0  0  0
 30 22  1  6  0  0  0
 30 31  1  0  0  0  0
 31 24  1  6  0  0  0
M  END
>  <CHROM.1>
53.62543187,-47.58790278,-99.68169834,149.26416662,141.53023551,168.73982226
6.36376099,-10.93551837,-0.43765511,-1.32070400,-0.95038042,-2.02462272

>  <Name>
ligand

>  <RI>
0

>  <Rbt.Current_Directory>
/home/itssahil/PROJECTS/Mol_Feturizer/New_Systems/rnas/3DVV

>  <Rbt.Executable>
rbdock ($Id: //depot/dev/client3/rdock/2013.1/src/exe/rbdock.cxx#4 $)

>  <Rbt.Library>
libRbt.so (2013.1, Build901 2013/11/27)

>  <Rbt.Parameter_File>
/export/apps/rDock/src/rDock_2013.1_src/data/scripts/dock_solv.prm

>  <Rbt.Receptor>
prm/blind_docking_20.prm

>  <SCORE>
-1.37451

>  <SCORE.INTER>
-4.87574

>  <SCORE.INTER.CONST>
1

>  <SCORE.INTER.POLAR>
0

>  <SCORE.INTER.ROT>
6

>  <SCORE.INTER.SOLV>
17.4194

>  <SCORE.INTER.VDW>
-16.657

>  <SCORE.INTER.norm>
-0.157282

>  <SCORE.INTRA>
3.47359

>  <SCORE.INTRA.DIHEDRAL>
4.83013

>  <SCORE.INTRA.DIHEDRAL.0>
10.8172

>  <SCORE.INTRA.POLAR>
0

>  <SCORE.INTRA.POLAR.0>
0

>  <SCORE.INTRA.REPUL>
0.0152195

>  <SCORE.INTRA.REPUL.0>
0

>  <SCORE.INTRA.SOLV>
1.18235

>  <SCORE.INTRA.SOLV.lig_0>
-80.3833

>  <SCORE.INTRA.VDW>
0.39125

>  <SCORE.INTRA.VDW.0>
-4.63762

>  <SCORE.INTRA.norm>
0.112051

>  <SCORE.RESTR>
0.0276388

>  <SCORE.RESTR.CAVITY>
0.0276388

>  <SCORE.RESTR.norm>
0.000891575

>  <SCORE.SYSTEM>
0

>  <SCORE.SYSTEM.CONST>
0

>  <SCORE.SYSTEM.DIHEDRAL>
0

>  <SCORE.SYSTEM.SOLV>
0

>  <SCORE.SYSTEM.norm>
0

>  <SCORE.heavy>
31

>  <SCORE.norm>
-0.0443391

>  <RMSD>
26.838

$$$$
ligand
 OpenBabel11021811473D
libRbt.so/2013.1/901 2013/11/27
 31 33  0  0  0  0  0  0  0  0999 V2000
    3.5797  -15.1024    0.8174 C   0  0  0  0  0  0  0  0  0  0  0  0
    6.9227   -8.9019   -4.3869 N   0  0  0  0  0  0  0  0  0  0  0  0
    2.9524  -14.0352    1.5360 O   0  0  0  0  0  0  0  0  0  0  0  0
    3.8914  -14.6621   -0.6152 C   0  0  1  0  0  0  0  0  0  0  0  0
    6.9019   -7.3842    0.2606 N   0  0  0  0  0  0  0  0  0  0  0  0
    4.2341  -13.2627   -0.6413 O   0  0  0  0  0  0  0  0  0  0  0  0
    5.5149  -13.1163   -1.2800 C   0  0  1  0  0  0  0  0  0  0  0  0
    7.9727  -11.4691    4.9811 N   0  0  0  0  0  0  0  0  0  0  0  0
    6.2648  -12.0251   -0.7234 O   0  0  0  0  0  0  0  0  0  0  0  0
    5.8574  -10.7370   -1.2081 C   0  0  2  0  0  0  0  0  0  0  0  0
    2.9493  -10.7739    1.7747 N   0  0  0  0  0  0  0  0  0  0  0  0
    6.0661  -11.4465   -3.5093 O   0  0  0  0  0  0  0  0  0  0  0  0
    6.5645  -10.5107   -2.5495 C   0  0  1  0  0  0  0  0  0  0  0  0
    5.3975   -9.7018    0.9823 O   0  0  0  0  0  0  0  0  0  0  0  0
    6.3197   -9.0888   -3.0584 C   0  0  1  0  0  0  0  0  0  0  0  0
    6.5838  -11.0289    2.5217 O   0  0  0  0  0  0  0  0  0  0  0  0
    6.9178   -8.0916   -2.0658 C   0  0  0  0  0  0  0  0  0  0  0  0
    5.6300   -8.9499    5.3930 O   0  0  0  0  0  0  0  0  0  0  0  0
    6.2155   -8.2461   -0.7136 C   0  0  1  0  0  0  0  0  0  0  0  0
    3.1252  -10.1192    4.6033 O   0  0  0  0  0  0  0  0  0  0  0  0
    6.2484   -9.6824   -0.1772 C   0  0  2  0  0  0  0  0  0  0  0  0
    7.3256  -14.6991   -1.8034 O   0  0  0  0  0  0  0  0  0  0  0  0
    5.3987  -10.9405    1.7092 C   0  0  1  0  0  0  0  0  0  0  0  0
    4.9980  -15.7138   -2.5452 O   0  0  0  0  0  0  0  0  0  0  0  0
    6.7121   -9.9776    3.4940 C   0  0  2  0  0  0  0  0  0  0  0  0
    8.0108  -10.1762    4.2792 C   0  0  0  0  0  0  0  0  0  0  0  0
    5.5327  -10.0350    4.4666 C   0  0  2  0  0  0  0  0  0  0  0  0
    4.2154   -9.9259    3.6960 C   0  0  1  0  0  0  0  0  0  0  0  0
    4.1503  -10.9891    2.5964 C   0  0  1  0  0  0  0  0  0  0  0  0
    6.2296  -14.4197   -0.9292 C   0  0  2  0  0  0  0  0  0  0  0  0
    5.1056  -15.4278   -1.1484 C   0  0  1  0  0  0  0  0  0  0  0  0
  1  3  1  0  0  0  0
  4  1  1  1  0  0  0
  4  6  1  0  0  0  0
  4 31  1  0  0  0  0
  6  7  1  0  0  0  0
  7  9  1  1  0  0  0
  7 30  1  0  0  0  0
  8 26  1  0  0  0  0
 10  9  1  1  0  0  0
 10 13  1  0  0  0  0
 10 21  1  0  0  0  0
 13 12  1  6  0  0  0
 13 15  1  0  0  0  0
 15  2  1  6  0  0  0
 15 17  1  0  0  0  0
 16 25  1  0  0  0  0
 16 23  1  0  0  0  0
 17 19  1  0  0  0  0
 19  5  1  1  0  0  0
 19 21  1  0  0  0  0
 21 14  1  1  0  0  0
 23 14  1  1  0  0  0
 23 29  1  0  0  0  0
 25 26  1  1  0  0  0
 25 27  1  0  0  0  0
 27 18  1  1  0  0  0
 27 28  1  0  0  0  0
 28 20  1  1  0  0  0
 28 29  1  0  0  0  0
 29 11  1  6  0  0  0
 30 22  1  6  0  0  0
 30 31  1  0  0  0  0
 31 24  1  6  0  0  0
M  END
>  <CHROM.1>
34.11962673,-79.11809677,-83.05267903,78.28474683,60.34866351,-60.91153193
5.59159172,-11.34792503,0.51801031,1.54398279,-1.19320761,-2.06700799

>  <Name>
ligand

>  <RI>
0

>  <Rbt.Current_Directory>
/home/itssahil/PROJECTS/Mol_Feturizer/New_Systems/rnas/3DVV

>  <Rbt.Executable>
rbdock ($Id: //depot/dev/client3/rdock/2013.1/src/exe/rbdock.cxx#4 $)

>  <Rbt.Library>
libRbt.so (2013.1, Build901 2013/11/27)

>  <Rbt.Parameter_File>
/export/apps/rDock/src/rDock_2013.1_src/data/scripts/dock_solv.prm

>  <Rbt.Receptor>
prm/blind_docking_20.prm

>  <SCORE>
-1.85494

>  <SCORE.INTER>
-1.35962

>  <SCORE.INTER.CONST>
1

>  <SCORE.INTER.POLAR>
0

>  <SCORE.INTER.ROT>
6

>  <SCORE.INTER.SOLV>
16.1548

>  <SCORE.INTER.VDW>
-13.8913

>  <SCORE.INTER.norm>
-0.0438586

>  <SCORE.INTRA>
-0.507461

>  <SCORE.INTRA.DIHEDRAL>
-3.06073

>  <SCORE.INTRA.DIHEDRAL.0>
10.8172

>  <SCORE.INTRA.POLAR>
0

>  <SCORE.INTRA.POLAR.0>
0

>  <SCORE.INTRA.REPUL>
0

>  <SCORE.INTRA.REPUL.0>
0

>  <SCORE.INTRA.SOLV>
-1.28861

>  <SCORE.INTRA.SOLV.lig_0>
-80.3833

>  <SCORE.INTRA.VDW>
1.66721

>  <SCORE.INTRA.VDW.0>
-4.63762

>  <SCORE.INTRA.norm>
-0.0163697

>  <SCORE.RESTR>
0.0121349

>  <SCORE.RESTR.CAVITY>
0.0121349

>  <SCORE.RESTR.norm>
0.00039145

>  <SCORE.SYSTEM>
0

>  <SCORE.SYSTEM.CONST>
0

>  <SCORE.SYSTEM.DIHEDRAL>
0

>  <SCORE.SYSTEM.SOLV>
0

>  <SCORE.SYSTEM.norm>
0

>  <SCORE.heavy>
31

>  <SCORE.norm>
-0.0598368

>  <RMSD>
26.953

$$$$
ligand
 OpenBabel11021811473D
libRbt.so/2013.1/901 2013/11/27
 31 33  0  0  0  0  0  0  0  0999 V2000
    8.1107  -10.4787   -5.1061 C   0  0  0  0  0  0  0  0  0  0  0  0
    3.8809  -15.4132    0.9126 N   0  0  0  0  0  0  0  0  0  0  0  0
    8.6682   -9.2624   -4.5977 O   0  0  0  0  0  0  0  0  0  0  0  0
    8.2872  -11.6066   -4.0863 C   0  0  1  0  0  0  0  0  0  0  0  0
    3.1990  -10.7631    2.2599 N   0  0  0  0  0  0  0  0  0  0  0  0
    7.6758  -11.2433   -2.8331 O   0  0  0  0  0  0  0  0  0  0  0  0
    6.7447  -12.2750   -2.4611 C   0  0  1  0  0  0  0  0  0  0  0  0
    9.5400   -8.5255   -2.0053 N   0  0  0  0  0  0  0  0  0  0  0  0
    5.6131  -11.7409   -1.7560 O   0  0  0  0  0  0  0  0  0  0  0  0
    5.4993  -12.2113   -0.4048 C   0  0  2  0  0  0  0  0  0  0  0  0
    5.6160   -8.7621    3.1897 N   0  0  0  0  0  0  0  0  0  0  0  0
    5.6379  -14.5190   -1.1103 O   0  0  0  0  0  0  0  0  0  0  0  0
    4.7921  -13.5707   -0.4539 C   0  0  1  0  0  0  0  0  0  0  0  0
    5.4682  -10.0068    0.6998 O   0  0  0  0  0  0  0  0  0  0  0  0
    4.4771  -14.0694    0.9578 C   0  0  1  0  0  0  0  0  0  0  0  0
    7.7857  -10.4138    0.6605 O   0  0  0  0  0  0  0  0  0  0  0  0
    3.5149  -13.0908    1.6316 C   0  0  0  0  0  0  0  0  0  0  0  0
    8.6110   -6.9347   -0.1711 O   0  0  0  0  0  0  0  0  0  0  0  0
    4.1895  -11.7205    1.7448 C   0  0  1  0  0  0  0  0  0  0  0  0
    7.5583   -6.7115    2.4947 O   0  0  0  0  0  0  0  0  0  0  0  0
    4.7046  -11.1887    0.4018 C   0  0  2  0  0  0  0  0  0  0  0  0
    5.6843  -14.1142   -3.7065 O   0  0  0  0  0  0  0  0  0  0  0  0
    6.6351  -10.2315    1.5063 C   0  0  1  0  0  0  0  0  0  0  0  0
    8.2811  -14.0644   -4.2082 O   0  0  0  0  0  0  0  0  0  0  0  0
    8.0781   -9.2903   -0.1878 C   0  0  2  0  0  0  0  0  0  0  0  0
    9.3071   -9.6126   -1.0412 C   0  0  0  0  0  0  0  0  0  0  0  0
    8.3832   -8.0647    0.6752 C   0  0  2  0  0  0  0  0  0  0  0  0
    7.2016   -7.7724    1.6023 C   0  0  1  0  0  0  0  0  0  0  0  0
    6.8419   -9.0171    2.4178 C   0  0  1  0  0  0  0  0  0  0  0  0
    6.2632  -12.8111   -3.8078 C   0  0  2  0  0  0  0  0  0  0  0  0
    7.5801  -12.8737   -4.5758 C   0  0  1  0  0  0  0  0  0  0  0  0
  1  3  1  0  0  0  0
  4  1  1  6  0  0  0
  4  6  1  0  0  0  0
  4 31  1  0  0  0  0
  6  7  1  0  0  0  0
  7  9  1  6  0  0  0
  7 30  1  0  0  0  0
  8 26  1  0  0  0  0
 10  9  1  6  0  0  0
 10 13  1  0  0  0  0
 10 21  1  0  0  0  0
 13 12  1  1  0  0  0
 13 15  1  0  0  0  0
 15  2  1  6  0  0  0
 15 17  1  0  0  0  0
 16 25  1  0  0  0  0
 16 23  1  0  0  0  0
 17 19  1  0  0  0  0
 19  5  1  6  0  0  0
 19 21  1  0  0  0  0
 21 14  1  1  0  0  0
 23 14  1  6  0  0  0
 23 29  1  0  0  0  0
 25 26  1  1  0  0  0
 25 27  1  0  0  0  0
 27 18  1  6  0  0  0
 27 28  1  0  0  0  0
 28 20  1  1  0  0  0
 28 29  1  0  0  0  0
 29 11  1  6  0  0  0
 30 22  1  1  0  0  0
 30 31  1  0  0  0  0
 31 24  1  1  0  0  0
M  END
>  <CHROM.1>
57.25540892,-116.59431558,-83.31648605,93.78370545,-62.12416474,174.56444482
6.60422182,-11.03272543,-0.73032892,-1.54387651,0.84826294,0.84792149

>  <Name>
ligand

>  <RI>
0

>  <Rbt.Current_Directory>
/home/itssahil/PROJECTS/Mol_Feturizer/New_Systems/rnas/3DVV

>  <Rbt.Executable>
rbdock ($Id: //depot/dev/client3/rdock/2013.1/src/exe/rbdock.cxx#4 $)

>  <Rbt.Library>
libRbt.so (2013.1, Build901 2013/11/27)

>  <Rbt.Parameter_File>
/export/apps/rDock/src/rDock_2013.1_src/data/scripts/dock_solv.prm

>  <Rbt.Receptor>
prm/blind_docking_20.prm

>  <SCORE>
-3.99906

>  <SCORE.INTER>
-8.46559

>  <SCORE.INTER.CONST>
1

>  <SCORE.INTER.POLAR>
0

>  <SCORE.INTER.ROT>
6

>  <SCORE.INTER.SOLV>
19.4059

>  <SCORE.INTER.VDW>
-19.7124

>  <SCORE.INTER.norm>
-0.273084

>  <SCORE.INTRA>
4.46653

>  <SCORE.INTRA.DIHEDRAL>
3.10651

>  <SCORE.INTRA.DIHEDRAL.0>
10.8172

>  <SCORE.INTRA.POLAR>
0

>  <SCORE.INTRA.POLAR.0>
0

>  <SCORE.INTRA.REPUL>
0

>  <SCORE.INTRA.REPUL.0>
0

>  <SCORE.INTRA.SOLV>
2.49999

>  <SCORE.INTRA.SOLV.lig_0>
-80.3833

>  <SCORE.INTRA.VDW>
1.66328

>  <SCORE.INTRA.VDW.0>
-4.63762

>  <SCORE.INTRA.norm>
0.144082

>  <SCORE.RESTR>
0

>  <SCORE.RESTR.CAVITY>
0

>  <SCORE.RESTR.norm>
0

>  <SCORE.SYSTEM>
0

>  <SCORE.SYSTEM.CONST>
0

>  <SCORE.SYSTEM.DIHEDRAL>
0

>  <SCORE.SYSTEM.SOLV>
0

>  <SCORE.SYSTEM.norm>
0

>  <SCORE.heavy>
31

>  <SCORE.norm>
-0.129002

>  <RMSD>
26.954

$$$$
ligand
 OpenBabel11021811473D
libRbt.so/2013.1/901 2013/11/27
 31 33  0  0  0  0  0  0  0  0999 V2000
    7.8880   -9.8745   -4.6732 C   0  0  0  0  0  0  0  0  0  0  0  0
    3.4302  -15.1070    1.1193 N   0  0  0  0  0  0  0  0  0  0  0  0
    8.4402  -10.1416   -5.9665 O   0  0  0  0  0  0  0  0  0  0  0  0
    8.1071  -11.0742   -3.7480 C   0  0  1  0  0  0  0  0  0  0  0  0
    3.4821  -10.5185    2.8065 N   0  0  0  0  0  0  0  0  0  0  0  0
    7.4791  -10.8390   -2.4726 O   0  0  0  0  0  0  0  0  0  0  0  0
    6.5890  -11.9337   -2.1911 C   0  0  1  0  0  0  0  0  0  0  0  0
    2.6872   -6.6197    0.8803 N   0  0  0  0  0  0  0  0  0  0  0  0
    5.4356  -11.5041   -1.4508 O   0  0  0  0  0  0  0  0  0  0  0  0
    5.3610  -12.0531   -0.1268 C   0  0  2  0  0  0  0  0  0  0  0  0
    8.4179   -9.6931    0.5056 N   0  0  0  0  0  0  0  0  0  0  0  0
    5.1351  -14.3018   -0.9840 O   0  0  0  0  0  0  0  0  0  0  0  0
    4.4759  -13.3027   -0.2012 C   0  0  1  0  0  0  0  0  0  0  0  0
    5.7092   -9.9494    1.1119 O   0  0  0  0  0  0  0  0  0  0  0  0
    4.2033  -13.8582    1.1981 C   0  0  1  0  0  0  0  0  0  0  0  0
    5.1495   -8.0442   -0.1510 O   0  0  0  0  0  0  0  0  0  0  0  0
    3.4345  -12.8155    2.0099 C   0  0  0  0  0  0  0  0  0  0  0  0
    6.3798   -5.7119    2.4030 O   0  0  0  0  0  0  0  0  0  0  0  0
    4.2937  -11.5556    2.1515 C   0  0  1  0  0  0  0  0  0  0  0  0
    8.7935   -6.9853    1.4991 O   0  0  0  0  0  0  0  0  0  0  0  0
    4.7736  -10.9981    0.8059 C   0  0  2  0  0  0  0  0  0  0  0  0
    5.6053  -13.7053   -3.5881 O   0  0  0  0  0  0  0  0  0  0  0  0
    6.0830   -9.1307   -0.0074 C   0  0  1  0  0  0  0  0  0  0  0  0
    8.1991  -13.5121   -4.0702 O   0  0  0  0  0  0  0  0  0  0  0  0
    5.0755   -7.1751    0.9919 C   0  0  2  0  0  0  0  0  0  0  0  0
    4.0454   -6.0761    0.7206 C   0  0  0  0  0  0  0  0  0  0  0  0
    6.4403   -6.5258    1.2287 C   0  0  2  0  0  0  0  0  0  0  0  0
    7.5066   -7.6068    1.4167 C   0  0  1  0  0  0  0  0  0  0  0  0
    7.4927   -8.5817    0.2364 C   0  0  1  0  0  0  0  0  0  0  0  0
    6.1321  -12.3764   -3.5796 C   0  0  2  0  0  0  0  0  0  0  0  0
    7.4521  -12.3239   -4.3430 C   0  0  1  0  0  0  0  0  0  0  0  0
  1  3  1  0  0  0  0
  4  1  1  6  0  0  0
  4  6  1  0  0  0  0
  4 31  1  0  0  0  0
  6  7  1  0  0  0  0
  7  9  1  1  0  0  0
  7 30  1  0  0  0  0
  8 26  1  0  0  0  0
 10  9  1  6  0  0  0
 10 13  1  0  0  0  0
 10 21  1  0  0  0  0
 13 12  1  6  0  0  0
 13 15  1  0  0  0  0
 15  2  1  6  0  0  0
 15 17  1  0  0  0  0
 16 25  1  0  0  0  0
 16 23  1  0  0  0  0
 17 19  1  0  0  0  0
 19  5  1  6  0  0  0
 19 21  1  0  0  0  0
 21 14  1  1  0  0  0
 23 14  1  1  0  0  0
 23 29  1  0  0  0  0
 25 26  1  6  0  0  0
 25 27  1  0  0  0  0
 27 18  1  1  0  0  0
 27 28  1  0  0  0  0
 28 20  1  6  0  0  0
 28 29  1  0  0  0  0
 29 11  1  1  0  0  0
 30 22  1  1  0  0  0
 30 31  1  0  0  0  0
 31 24  1  1  0  0  0
M  END
>  <CHROM.1>
-176.44651572,-114.64611181,-94.93497376,87.65783059,65.83482181,77.01722673
5.95531178,-10.44408296,-0.57190435,-1.32029788,0.91013328,0.52399110

>  <Name>
ligand

>  <RI>
0

>  <Rbt.Current_Directory>
/home/itssahil/PROJECTS/Mol_Feturizer/New_Systems/rnas/3DVV

>  <Rbt.Executable>
rbdock ($Id: //depot/dev/client3/rdock/2013.1/src/exe/rbdock.cxx#4 $)

>  <Rbt.Library>
libRbt.so (2013.1, Build901 2013/11/27)

>  <Rbt.Parameter_File>
/export/apps/rDock/src/rDock_2013.1_src/data/scripts/dock_solv.prm

>  <Rbt.Receptor>
prm/blind_docking_20.prm

>  <SCORE>
-5.90584

>  <SCORE.INTER>
-9.00564

>  <SCORE.INTER.CONST>
1

>  <SCORE.INTER.POLAR>
0

>  <SCORE.INTER.ROT>
6

>  <SCORE.INTER.SOLV>
18.3775

>  <SCORE.INTER.VDW>
-19.7296

>  <SCORE.INTER.norm>
-0.290504

>  <SCORE.INTRA>
2.36668

>  <SCORE.INTRA.DIHEDRAL>
5.07154

>  <SCORE.INTRA.DIHEDRAL.0>
10.8172

>  <SCORE.INTRA.POLAR>
0

>  <SCORE.INTRA.POLAR.0>
0

>  <SCORE.INTRA.REPUL>
0

>  <SCORE.INTRA.REPUL.0>
0

>  <SCORE.INTRA.SOLV>
-2.56866

>  <SCORE.INTRA.SOLV.lig_0>
-80.3833

>  <SCORE.INTRA.VDW>
1.11524

>  <SCORE.INTRA.VDW.0>
-4.63762

>  <SCORE.INTRA.norm>
0.0763444

>  <SCORE.RESTR>
0.733121

>  <SCORE.RESTR.CAVITY>
0.733121

>  <SCORE.RESTR.norm>
0.0236491

>  <SCORE.SYSTEM>
0

>  <SCORE.SYSTEM.CONST>
0

>  <SCORE.SYSTEM.DIHEDRAL>
0

>  <SCORE.SYSTEM.SOLV>
0

>  <SCORE.SYSTEM.norm>
0

>  <SCORE.heavy>
31

>  <SCORE.norm>
-0.190511

>  <RMSD>
26.963

$$$$
ligand
 OpenBabel11021811473D
libRbt.so/2013.1/901 2013/11/27
 31 33  0  0  0  0  0  0  0  0999 V2000
    8.1306  -10.2605   -5.0848 C   0  0  0  0  0  0  0  0  0  0  0  0
    3.6383  -14.9692    1.0659 N   0  0  0  0  0  0  0  0  0  0  0  0
    8.7231   -9.0563   -4.5873 O   0  0  0  0  0  0  0  0  0  0  0  0
    8.3126  -11.3950   -4.0733 C   0  0  1  0  0  0  0  0  0  0  0  0
    3.6375  -10.2727    2.4248 N   0  0  0  0  0  0  0  0  0  0  0  0
    7.7094  -11.0390   -2.8140 O   0  0  0  0  0  0  0  0  0  0  0  0
    6.7798  -12.0724   -2.4427 C   0  0  1  0  0  0  0  0  0  0  0  0
    2.5840   -6.7894    1.0530 N   0  0  0  0  0  0  0  0  0  0  0  0
    5.6532  -11.5418   -1.7271 O   0  0  0  0  0  0  0  0  0  0  0  0
    5.5649  -11.9964   -0.3686 C   0  0  2  0  0  0  0  0  0  0  0  0
    8.4403   -9.2537   -0.2380 N   0  0  0  0  0  0  0  0  0  0  0  0
    5.3652  -14.3017   -1.0674 O   0  0  0  0  0  0  0  0  0  0  0  0
    4.6892  -13.2548   -0.3656 C   0  0  1  0  0  0  0  0  0  0  0  0
    5.8828   -9.8079    0.7225 O   0  0  0  0  0  0  0  0  0  0  0  0
    4.4019  -13.7121    1.0659 C   0  0  1  0  0  0  0  0  0  0  0  0
    4.9879   -7.8707   -0.2698 O   0  0  0  0  0  0  0  0  0  0  0  0
    3.6156  -12.6205    1.7921 C   0  0  0  0  0  0  0  0  0  0  0  0
    6.3946   -5.6397    2.2837 O   0  0  0  0  0  0  0  0  0  0  0  0
    4.4644  -11.3473    1.8551 C   0  0  1  0  0  0  0  0  0  0  0  0
    8.7405   -6.6081    0.9332 O   0  0  0  0  0  0  0  0  0  0  0  0
    4.9582  -10.8827    0.4796 C   0  0  2  0  0  0  0  0  0  0  0  0
    5.7101  -13.9028   -3.6929 O   0  0  0  0  0  0  0  0  0  0  0  0
    6.0171   -8.8733   -0.3597 C   0  0  1  0  0  0  0  0  0  0  0  0
    8.3037  -13.8520   -4.2107 O   0  0  0  0  0  0  0  0  0  0  0  0
    5.0161   -7.1039    0.9461 C   0  0  2  0  0  0  0  0  0  0  0  0
    3.8715   -6.0881    0.9252 C   0  0  0  0  0  0  0  0  0  0  0  0
    6.3439   -6.3505    1.0438 C   0  0  2  0  0  0  0  0  0  0  0  0
    7.5103   -7.3387    0.9791 C   0  0  1  0  0  0  0  0  0  0  0  0
    7.3984   -8.2159   -0.2707 C   0  0  1  0  0  0  0  0  0  0  0  0
    6.2894  -12.5995   -3.7896 C   0  0  2  0  0  0  0  0  0  0  0  0
    7.6014  -12.6584   -4.5663 C   0  0  1  0  0  0  0  0  0  0  0  0
  1  3  1  0  0  0  0
  4  1  1  6  0  0  0
  4  6  1  0  0  0  0
  4 31  1  0  0  0  0
  6  7  1  0  0  0  0
  7  9  1  1  0  0  0
  7 30  1  0  0  0  0
  8 26  1  0  0  0  0
 10  9  1  6  0  0  0
 10 13  1  0  0  0  0
 10 21  1  0  0  0  0
 13 12  1  6  0  0  0
 13 15  1  0  0  0  0
 15  2  1  6  0  0  0
 15 17  1  0  0  0  0
 16 25  1  0  0  0  0
 16 23  1  0  0  0  0
 17 19  1  0  0  0  0
 19  5  1  6  0  0  0
 19 21  1  0  0  0  0
 21 14  1  1  0  0  0
 23 14  1  1  0  0  0
 23 29  1  0  0  0  0
 25 26  1  6  0  0  0
 25 27  1  0  0  0  0
 27 18  1  1  0  0  0
 27 28  1  0  0  0  0
 28 20  1  6  0  0  0
 28 29  1  0  0  0  0
 29 11  1  1  0  0  0
 30 22  1  1  0  0  0
 30 31  1  0  0  0  0
 31 24  1  1  0  0  0
M  END
>  <CHROM.1>
58.75358958,-115.23163217,-91.71506333,85.24754371,80.25864728,69.72388176
6.05407692,-10.37017798,-0.75442837,-1.32109688,0.86058827,0.45111973

>  <Name>
ligand

>  <RI>
0

>  <Rbt.Current_Directory>
/home/itssahil/PROJECTS/Mol_Feturizer/New_Systems/rnas/3DVV

>  <Rbt.Executable>
rbdock ($Id: //depot/dev/client3/rdock/2013.1/src/exe/rbdock.cxx#4 $)

>  <Rbt.Library>
libRbt.so (2013.1, Build901 2013/11/27)

>  <Rbt.Parameter_File>
/export/apps/rDock/src/rDock_2013.1_src/data/scripts/dock_solv.prm

>  <Rbt.Receptor>
prm/blind_docking_20.prm

>  <SCORE>
-7.73557

>  <SCORE.INTER>
-10.2181

>  <SCORE.INTER.CONST>
1

>  <SCORE.INTER.POLAR>
0

>  <SCORE.INTER.ROT>
6

>  <SCORE.INTER.SOLV>
18.0115

>  <SCORE.INTER.VDW>
-20.4159

>  <SCORE.INTER.norm>
-0.329615

>  <SCORE.INTRA>
2.48249

>  <SCORE.INTRA.DIHEDRAL>
4.99738

>  <SCORE.INTRA.DIHEDRAL.0>
10.8172

>  <SCORE.INTRA.POLAR>
0

>  <SCORE.INTRA.POLAR.0>
0

>  <SCORE.INTRA.REPUL>
0

>  <SCORE.INTRA.REPUL.0>
0

>  <SCORE.INTRA.SOLV>
-1.25345

>  <SCORE.INTRA.SOLV.lig_0>
-80.3833

>  <SCORE.INTRA.VDW>
0.610526

>  <SCORE.INTRA.VDW.0>
-4.63762

>  <SCORE.INTRA.norm>
0.0800804

>  <SCORE.RESTR>
0

>  <SCORE.RESTR.CAVITY>
0

>  <SCORE.RESTR.norm>
0

>  <SCORE.SYSTEM>
0

>  <SCORE.SYSTEM.CONST>
0

>  <SCORE.SYSTEM.DIHEDRAL>
0

>  <SCORE.SYSTEM.SOLV>
0

>  <SCORE.SYSTEM.norm>
0

>  <SCORE.heavy>
31

>  <SCORE.norm>
-0.249535

>  <RMSD>
26.994

$$$$
ligand
 OpenBabel11021811473D
libRbt.so/2013.1/901 2013/11/27
 31 33  0  0  0  0  0  0  0  0999 V2000
    4.2831  -10.9502    3.6323 C   0  0  0  0  0  0  0  0  0  0  0  0
    9.2764   -6.3910   -0.6689 N   0  0  0  0  0  0  0  0  0  0  0  0
    3.6216  -11.6766    2.5913 O   0  0  0  0  0  0  0  0  0  0  0  0
    4.5112   -9.4995    3.2004 C   0  0  1  0  0  0  0  0  0  0  0  0
    8.7446  -10.3978   -3.4198 N   0  0  0  0  0  0  0  0  0  0  0  0
    5.4773   -9.4452    2.1326 O   0  0  0  0  0  0  0  0  0  0  0  0
    4.8970   -8.7333    1.0252 C   0  0  1  0  0  0  0  0  0  0  0  0
    5.8610  -15.4388   -4.5158 N   0  0  0  0  0  0  0  0  0  0  0  0
    5.3639   -9.2393   -0.2353 O   0  0  0  0  0  0  0  0  0  0  0  0
    6.7942   -9.2794   -0.3482 C   0  0  2  0  0  0  0  0  0  0  0  0
    4.7904  -11.9070    0.2267 N   0  0  0  0  0  0  0  0  0  0  0  0
    7.0283   -7.1895    0.8435 O   0  0  0  0  0  0  0  0  0  0  0  0
    7.2870   -7.8289   -0.4094 C   0  0  1  0  0  0  0  0  0  0  0  0
    6.9657  -11.4731   -1.4615 O   0  0  0  0  0  0  0  0  0  0  0  0
    8.7882   -7.7782   -0.7001 C   0  0  1  0  0  0  0  0  0  0  0  0
    6.0500  -12.8364   -3.1470 O   0  0  0  0  0  0  0  0  0  0  0  0
    9.0538   -8.3971   -2.0726 C   0  0  0  0  0  0  0  0  0  0  0  0
    6.9217  -15.9529   -1.4140 O   0  0  0  0  0  0  0  0  0  0  0  0
    8.6167   -9.8648   -2.0549 C   0  0  1  0  0  0  0  0  0  0  0  0
    4.9252  -14.8114    0.3109 O   0  0  0  0  0  0  0  0  0  0  0  0
    7.1619  -10.0558   -1.6091 C   0  0  2  0  0  0  0  0  0  0  0  0
    2.5857   -8.1168    0.4458 O   0  0  0  0  0  0  0  0  0  0  0  0
    5.7478  -11.9750   -2.0338 C   0  0  1  0  0  0  0  0  0  0  0  0
    3.0725   -7.5157    2.9756 O   0  0  0  0  0  0  0  0  0  0  0  0
    6.8507  -13.9811   -2.8068 C   0  0  2  0  0  0  0  0  0  0  0  0
    7.1118  -14.8041   -4.0705 C   0  0  0  0  0  0  0  0  0  0  0  0
    6.0969  -14.8497   -1.7981 C   0  0  2  0  0  0  0  0  0  0  0  0
    5.7464  -14.0243   -0.5583 C   0  0  1  0  0  0  0  0  0  0  0  0
    4.9867  -12.7566   -0.9579 C   0  0  1  0  0  0  0  0  0  0  0  0
    3.4082   -9.0506    1.1494 C   0  0  2  0  0  0  0  0  0  0  0  0
    3.2109   -8.9023    2.6551 C   0  0  1  0  0  0  0  0  0  0  0  0
  1  3  1  0  0  0  0
  4  1  1  6  0  0  0
  4  6  1  0  0  0  0
  4 31  1  0  0  0  0
  6  7  1  0  0  0  0
  7  9  1  6  0  0  0
  7 30  1  0  0  0  0
  8 26  1  0  0  0  0
 10  9  1  6  0  0  0
 10 13  1  0  0  0  0
 10 21  1  0  0  0  0
 13 12  1  1  0  0  0
 13 15  1  0  0  0  0
 15  2  1  6  0  0  0
 15 17  1  0  0  0  0
 16 25  1  0  0  0  0
 16 23  1  0  0  0  0
 17 19  1  0  0  0  0
 19  5  1  6  0  0  0
 19 21  1  0  0  0  0
 21 14  1  1  0  0  0
 23 14  1  1  0  0  0
 23 29  1  0  0  0  0
 25 26  1  6  0  0  0
 25 27  1  0  0  0  0
 27 18  1  1  0  0  0
 27 28  1  0  0  0  0
 28 20  1  1  0  0  0
 28 29  1  0  0  0  0
 29 11  1  1  0  0  0
 30 22  1  6  0  0  0
 30 31  1  0  0  0  0
 31 24  1  6  0  0  0
M  END
>  <CHROM.1>
-68.09108034,-53.62230571,-68.98754589,113.41666679,99.74937274,-69.47090269
5.93944648,-10.81736956,-0.39102709,1.86715530,0.75296250,0.41672781

>  <Name>
ligand

>  <RI>
0

>  <Rbt.Current_Directory>
/home/itssahil/PROJECTS/Mol_Feturizer/New_Systems/rnas/3DVV

>  <Rbt.Executable>
rbdock ($Id: //depot/dev/client3/rdock/2013.1/src/exe/rbdock.cxx#4 $)

>  <Rbt.Library>
libRbt.so (2013.1, Build901 2013/11/27)

>  <Rbt.Parameter_File>
/export/apps/rDock/src/rDock_2013.1_src/data/scripts/dock_solv.prm

>  <Rbt.Receptor>
prm/blind_docking_20.prm

>  <SCORE>
4.42777

>  <SCORE.INTER>
-1.18402

>  <SCORE.INTER.CONST>
1

>  <SCORE.INTER.POLAR>
0

>  <SCORE.INTER.ROT>
6

>  <SCORE.INTER.SOLV>
18.9677

>  <SCORE.INTER.VDW>
-14.7119

>  <SCORE.INTER.norm>
-0.038194

>  <SCORE.INTRA>
5.61179

>  <SCORE.INTRA.DIHEDRAL>
2.7831

>  <SCORE.INTRA.DIHEDRAL.0>
10.8172

>  <SCORE.INTRA.POLAR>
0

>  <SCORE.INTRA.POLAR.0>
0

>  <SCORE.INTRA.REPUL>
0

>  <SCORE.INTRA.REPUL.0>
0

>  <SCORE.INTRA.SOLV>
3.80933

>  <SCORE.INTRA.SOLV.lig_0>
-80.3833

>  <SCORE.INTRA.VDW>
2.31557

>  <SCORE.INTRA.VDW.0>
-4.63762

>  <SCORE.INTRA.norm>
0.181025

>  <SCORE.RESTR>
0

>  <SCORE.RESTR.CAVITY>
0

>  <SCORE.RESTR.norm>
0

>  <SCORE.SYSTEM>
0

>  <SCORE.SYSTEM.CONST>
0

>  <SCORE.SYSTEM.DIHEDRAL>
0

>  <SCORE.SYSTEM.SOLV>
0

>  <SCORE.SYSTEM.norm>
0

>  <SCORE.heavy>
31

>  <SCORE.norm>
0.142831

>  <RMSD>
27.024

$$$$
ligand
 OpenBabel11021811473D
libRbt.so/2013.1/901 2013/11/27
 31 33  0  0  0  0  0  0  0  0999 V2000
    8.0994  -10.4638   -5.0796 C   0  0  0  0  0  0  0  0  0  0  0  0
    3.6540  -15.2948    1.0668 N   0  0  0  0  0  0  0  0  0  0  0  0
    8.6880   -9.2650   -4.5644 O   0  0  0  0  0  0  0  0  0  0  0  0
    8.2956  -11.6152   -4.0902 C   0  0  1  0  0  0  0  0  0  0  0  0
    3.6342  -10.5833    2.3725 N   0  0  0  0  0  0  0  0  0  0  0  0
    7.6635  -11.3034   -2.8334 O   0  0  0  0  0  0  0  0  0  0  0  0
    6.7560  -12.3688   -2.5000 C   0  0  1  0  0  0  0  0  0  0  0  0
    3.2166   -5.8939    1.7119 N   0  0  0  0  0  0  0  0  0  0  0  0
    5.6045  -11.8840   -1.7914 O   0  0  0  0  0  0  0  0  0  0  0  0
    5.5378  -12.3238   -0.4268 C   0  0  2  0  0  0  0  0  0  0  0  0
    8.4284   -9.3630   -0.1154 N   0  0  0  0  0  0  0  0  0  0  0  0
    5.3471  -14.6384   -1.0968 O   0  0  0  0  0  0  0  0  0  0  0  0
    4.6723  -13.5889   -0.3979 C   0  0  1  0  0  0  0  0  0  0  0  0
    5.8529  -10.1206    0.6351 O   0  0  0  0  0  0  0  0  0  0  0  0
    4.4077  -14.0320    1.0424 C   0  0  1  0  0  0  0  0  0  0  0  0
    4.8818   -8.3250   -0.5359 O   0  0  0  0  0  0  0  0  0  0  0  0
    3.6224  -12.9383    1.7667 C   0  0  0  0  0  0  0  0  0  0  0  0
    5.8238   -5.8579    2.0141 O   0  0  0  0  0  0  0  0  0  0  0  0
    4.4619  -11.6579    1.8039 C   0  0  1  0  0  0  0  0  0  0  0  0
    8.3682   -6.6519    0.9370 O   0  0  0  0  0  0  0  0  0  0  0  0
    4.9337  -11.2052    0.4167 C   0  0  2  0  0  0  0  0  0  0  0  0
    5.7551  -14.1985   -3.8071 O   0  0  0  0  0  0  0  0  0  0  0  0
    6.0034   -9.2258   -0.4782 C   0  0  1  0  0  0  0  0  0  0  0  0
    8.3543  -14.0680   -4.2812 O   0  0  0  0  0  0  0  0  0  0  0  0
    4.7219   -7.5065    0.6353 C   0  0  2  0  0  0  0  0  0  0  0  0
    3.4953   -6.6087    0.4561 C   0  0  0  0  0  0  0  0  0  0  0  0
    5.9586   -6.6240    0.8141 C   0  0  2  0  0  0  0  0  0  0  0  0
    7.2123   -7.4960    0.9087 C   0  0  1  0  0  0  0  0  0  0  0  0
    7.3028   -8.4339   -0.2980 C   0  0  1  0  0  0  0  0  0  0  0  0
    6.3010  -12.8786   -3.8659 C   0  0  2  0  0  0  0  0  0  0  0  0
    7.6262  -12.8856   -4.6221 C   0  0  1  0  0  0  0  0  0  0  0  0
  1  3  1  0  0  0  0
  4  1  1  6  0  0  0
  4  6  1  0  0  0  0
  4 31  1  0  0  0  0
  6  7  1  0  0  0  0
  7  9  1  1  0  0  0
  7 30  1  0  0  0  0
  8 26  1  0  0  0  0
 10  9  1  6  0  0  0
 10 13  1  0  0  0  0
 10 21  1  0  0  0  0
 13 12  1  6  0  0  0
 13 15  1  0  0  0  0
 15  2  1  6  0  0  0
 15 17  1  0  0  0  0
 16 25  1  0  0  0  0
 16 23  1  0  0  0  0
 17 19  1  0  0  0  0
 19  5  1  6  0  0  0
 19 21  1  0  0  0  0
 21 14  1  1  0  0  0
 23 14  1  1  0  0  0
 23 29  1  0  0  0  0
 25 26  1  6  0  0  0
 25 27  1  0  0  0  0
 27 18  1  1  0  0  0
 27 28  1  0  0  0  0
 28 20  1  6  0  0  0
 28 29  1  0  0  0  0
 29 11  1  1  0  0  0
 30 22  1  1  0  0  0
 30 31  1  0  0  0  0
 31 24  1  1  0  0  0
M  END
>  <CHROM.1>
60.52626671,-112.65288628,-94.18790840,78.22455500,78.01668813,172.67510063
5.98617341,-10.61588940,-0.81450444,-1.28272908,0.88938047,0.38630389

>  <Name>
ligand

>  <RI>
0

>  <Rbt.Current_Directory>
/home/itssahil/PROJECTS/Mol_Feturizer/New_Systems/rnas/3DVV

>  <Rbt.Executable>
rbdock ($Id: //depot/dev/client3/rdock/2013.1/src/exe/rbdock.cxx#4 $)

>  <Rbt.Library>
libRbt.so (2013.1, Build901 2013/11/27)

>  <Rbt.Parameter_File>
/export/apps/rDock/src/rDock_2013.1_src/data/scripts/dock_solv.prm

>  <Rbt.Receptor>
prm/blind_docking_20.prm

>  <SCORE>
-8.11047

>  <SCORE.INTER>
-10.1964

>  <SCORE.INTER.CONST>
1

>  <SCORE.INTER.POLAR>
0

>  <SCORE.INTER.ROT>
6

>  <SCORE.INTER.SOLV>
17.4579

>  <SCORE.INTER.VDW>
-20.2169

>  <SCORE.INTER.norm>
-0.328915

>  <SCORE.INTRA>
2.08238

>  <SCORE.INTRA.DIHEDRAL>
3.62202

>  <SCORE.INTRA.DIHEDRAL.0>
10.8172

>  <SCORE.INTRA.POLAR>
0

>  <SCORE.INTRA.POLAR.0>
0

>  <SCORE.INTRA.REPUL>
0

>  <SCORE.INTRA.REPUL.0>
0

>  <SCORE.INTRA.SOLV>
-1.31286

>  <SCORE.INTRA.SOLV.lig_0>
-80.3833

>  <SCORE.INTRA.VDW>
0.927807

>  <SCORE.INTRA.VDW.0>
-4.63762

>  <SCORE.INTRA.norm>
0.0671737

>  <SCORE.RESTR>
0.00351995

>  <SCORE.RESTR.CAVITY>
0.00351995

>  <SCORE.RESTR.norm>
0.000113547

>  <SCORE.SYSTEM>
0

>  <SCORE.SYSTEM.CONST>
0

>  <SCORE.SYSTEM.DIHEDRAL>
0

>  <SCORE.SYSTEM.SOLV>
0

>  <SCORE.SYSTEM.norm>
0

>  <SCORE.heavy>
31

>  <SCORE.norm>
-0.261628

>  <RMSD>
27.209

$$$$
ligand
 OpenBabel11021811473D
libRbt.so/2013.1/901 2013/11/27
 31 33  0  0  0  0  0  0  0  0999 V2000
    3.8342  -15.4991    0.4975 C   0  0  0  0  0  0  0  0  0  0  0  0
    6.9995   -8.9273   -4.4680 N   0  0  0  0  0  0  0  0  0  0  0  0
    2.6152  -15.0204    1.0751 O   0  0  0  0  0  0  0  0  0  0  0  0
    4.0375  -14.8848   -0.8898 C   0  0  1  0  0  0  0  0  0  0  0  0
    6.3509   -7.2005    0.0599 N   0  0  0  0  0  0  0  0  0  0  0  0
    4.1493  -13.4519   -0.7870 O   0  0  0  0  0  0  0  0  0  0  0  0
    5.3746  -13.0412   -1.4194 C   0  0  1  0  0  0  0  0  0  0  0  0
    8.7310  -10.7458    2.5074 N   0  0  0  0  0  0  0  0  0  0  0  0
    5.9514  -11.8980   -0.7687 O   0  0  0  0  0  0  0  0  0  0  0  0
    5.5797  -10.6457   -1.3634 C   0  0  2  0  0  0  0  0  0  0  0  0
    2.3295  -10.0982    1.8108 N   0  0  0  0  0  0  0  0  0  0  0  0
    6.0966  -11.4530   -3.5824 O   0  0  0  0  0  0  0  0  0  0  0  0
    6.4468  -10.4604   -2.6141 C   0  0  1  0  0  0  0  0  0  0  0  0
    4.8203   -9.5255    0.6980 O   0  0  0  0  0  0  0  0  0  0  0  0
    6.2363   -9.0708   -3.2188 C   0  0  1  0  0  0  0  0  0  0  0  0
    5.8854  -11.1718    1.9995 O   0  0  0  0  0  0  0  0  0  0  0  0
    6.6799   -8.0125   -2.2085 C   0  0  0  0  0  0  0  0  0  0  0  0
    5.8204   -9.1262    5.0470 O   0  0  0  0  0  0  0  0  0  0  0  0
    5.8144   -8.1255   -0.9500 C   0  0  1  0  0  0  0  0  0  0  0  0
    3.0347   -9.6797    4.6015 O   0  0  0  0  0  0  0  0  0  0  0  0
    5.8116   -9.5343   -0.3441 C   0  0  2  0  0  0  0  0  0  0  0  0
    7.4043  -14.2536   -2.1037 O   0  0  0  0  0  0  0  0  0  0  0  0
    4.6484  -10.7800    1.3758 C   0  0  1  0  0  0  0  0  0  0  0  0
    5.2542  -15.5614   -2.9190 O   0  0  0  0  0  0  0  0  0  0  0  0
    6.3758  -10.2370    2.9756 C   0  0  2  0  0  0  0  0  0  0  0  0
    7.6943  -10.7587    3.5517 C   0  0  0  0  0  0  0  0  0  0  0  0
    5.3588  -10.1035    4.1106 C   0  0  2  0  0  0  0  0  0  0  0  0
    4.0046   -9.6659    3.5487 C   0  0  1  0  0  0  0  0  0  0  0  0
    3.5549  -10.6176    2.4370 C   0  0  1  0  0  0  0  0  0  0  0  0
    6.2981  -14.2374   -1.1984 C   0  0  2  0  0  0  0  0  0  0  0  0
    5.3466  -15.3907   -1.5024 C   0  0  1  0  0  0  0  0  0  0  0  0
  1  3  1  0  0  0  0
  4  1  1  1  0  0  0
  4  6  1  0  0  0  0
  4 31  1  0  0  0  0
  6  7  1  0  0  0  0
  7  9  1  1  0  0  0
  7 30  1  0  0  0  0
  8 26  1  0  0  0  0
 10  9  1  1  0  0  0
 10 13  1  0  0  0  0
 10 21  1  0  0  0  0
 13 12  1  6  0  0  0
 13 15  1  0  0  0  0
 15  2  1  6  0  0  0
 15 17  1  0  0  0  0
 16 25  1  0  0  0  0
 16 23  1  0  0  0  0
 17 19  1  0  0  0  0
 19  5  1  1  0  0  0
 19 21  1  0  0  0  0
 21 14  1  1  0  0  0
 23 14  1  1  0  0  0
 23 29  1  0  0  0  0
 25 26  1  1  0  0  0
 25 27  1  0  0  0  0
 27 18  1  1  0  0  0
 27 28  1  0  0  0  0
 28 20  1  1  0  0  0
 28 29  1  0  0  0  0
 29 11  1  6  0  0  0
 30 22  1  6  0  0  0
 30 31  1  0  0  0  0
 31 24  1  6  0  0  0
M  END
>  <CHROM.1>
61.97401271,-94.15221671,-79.06200587,60.37875455,53.39132047,67.09985201
5.42448369,-11.30433660,0.20223716,1.40818448,-1.16882250,-2.34221182

>  <Name>
ligand

>  <RI>
0

>  <Rbt.Current_Directory>
/home/itssahil/PROJECTS/Mol_Feturizer/New_Systems/rnas/3DVV

>  <Rbt.Executable>
rbdock ($Id: //depot/dev/client3/rdock/2013.1/src/exe/rbdock.cxx#4 $)

>  <Rbt.Library>
libRbt.so (2013.1, Build901 2013/11/27)

>  <Rbt.Parameter_File>
/export/apps/rDock/src/rDock_2013.1_src/data/scripts/dock_solv.prm

>  <Rbt.Receptor>
prm/blind_docking_20.prm

>  <SCORE>
-4.63209

>  <SCORE.INTER>
-2.54186

>  <SCORE.INTER.CONST>
1

>  <SCORE.INTER.POLAR>
0

>  <SCORE.INTER.ROT>
6

>  <SCORE.INTER.SOLV>
15.8661

>  <SCORE.INTER.VDW>
-14.5833

>  <SCORE.INTER.norm>
-0.0819954

>  <SCORE.INTRA>
-2.09023

>  <SCORE.INTRA.DIHEDRAL>
-4.30756

>  <SCORE.INTRA.DIHEDRAL.0>
10.8172

>  <SCORE.INTRA.POLAR>
0

>  <SCORE.INTRA.POLAR.0>
0

>  <SCORE.INTRA.REPUL>
0

>  <SCORE.INTRA.REPUL.0>
0

>  <SCORE.INTRA.SOLV>
-4.36669

>  <SCORE.INTRA.SOLV.lig_0>
-80.3833

>  <SCORE.INTRA.VDW>
2.24689

>  <SCORE.INTRA.VDW.0>
-4.63762

>  <SCORE.INTRA.norm>
-0.0674268

>  <SCORE.RESTR>
0

>  <SCORE.RESTR.CAVITY>
0

>  <SCORE.RESTR.norm>
0

>  <SCORE.SYSTEM>
0

>  <SCORE.SYSTEM.CONST>
0

>  <SCORE.SYSTEM.DIHEDRAL>
0

>  <SCORE.SYSTEM.SOLV>
0

>  <SCORE.SYSTEM.norm>
0

>  <SCORE.heavy>
31

>  <SCORE.norm>
-0.149422

>  <RMSD>
27.215

$$$$
ligand
 OpenBabel11021811473D
libRbt.so/2013.1/901 2013/11/27
 31 33  0  0  0  0  0  0  0  0999 V2000
    3.8064  -15.4509    0.5540 C   0  0  0  0  0  0  0  0  0  0  0  0
    7.0144   -8.9505   -4.5230 N   0  0  0  0  0  0  0  0  0  0  0  0
    2.5730  -14.9773    1.1047 O   0  0  0  0  0  0  0  0  0  0  0  0
    4.0126  -14.8759   -0.8496 C   0  0  1  0  0  0  0  0  0  0  0  0
    6.2266   -7.1766   -0.0356 N   0  0  0  0  0  0  0  0  0  0  0  0
    4.1277  -13.4409   -0.7865 O   0  0  0  0  0  0  0  0  0  0  0  0
    5.3546  -13.0508   -1.4286 C   0  0  1  0  0  0  0  0  0  0  0  0
    8.6362  -10.7779    2.3718 N   0  0  0  0  0  0  0  0  0  0  0  0
    5.9333  -11.8912   -0.8094 O   0  0  0  0  0  0  0  0  0  0  0  0
    5.5529  -10.6540   -1.4296 C   0  0  2  0  0  0  0  0  0  0  0  0
    2.2417  -10.0823    1.7348 N   0  0  0  0  0  0  0  0  0  0  0  0
    6.1373  -11.4807   -3.6246 O   0  0  0  0  0  0  0  0  0  0  0  0
    6.4460  -10.4691   -2.6619 C   0  0  1  0  0  0  0  0  0  0  0  0
    4.7242   -9.5212    0.5979 O   0  0  0  0  0  0  0  0  0  0  0  0
    6.2245   -9.0918   -3.2903 C   0  0  1  0  0  0  0  0  0  0  0  0
    5.7970  -11.1615    1.9005 O   0  0  0  0  0  0  0  0  0  0  0  0
    6.6243   -8.0121   -2.2843 C   0  0  0  0  0  0  0  0  0  0  0  0
    5.7612   -9.0972    4.9359 O   0  0  0  0  0  0  0  0  0  0  0  0
    5.7314   -8.1247   -1.0451 C   0  0  1  0  0  0  0  0  0  0  0  0
    2.9709   -9.6481    4.5170 O   0  0  0  0  0  0  0  0  0  0  0  0
    5.7400   -9.5252   -0.4204 C   0  0  2  0  0  0  0  0  0  0  0  0
    7.3822  -14.2864   -2.0766 O   0  0  0  0  0  0  0  0  0  0  0  0
    4.5556  -10.7712    1.2848 C   0  0  1  0  0  0  0  0  0  0  0  0
    5.2301  -15.6115   -2.8577 O   0  0  0  0  0  0  0  0  0  0  0  0
    6.2973  -10.2217    2.8668 C   0  0  2  0  0  0  0  0  0  0  0  0
    7.6195  -10.7424    3.4351 C   0  0  0  0  0  0  0  0  0  0  0  0
    5.2900  -10.0793    4.0094 C   0  0  2  0  0  0  0  0  0  0  0  0
    3.9320   -9.6426    3.4561 C   0  0  1  0  0  0  0  0  0  0  0  0
    3.4713  -10.6002    2.3540 C   0  0  1  0  0  0  0  0  0  0  0  0
    6.2751  -14.2425   -1.1734 C   0  0  2  0  0  0  0  0  0  0  0  0
    5.3212  -15.4017   -1.4463 C   0  0  1  0  0  0  0  0  0  0  0  0
  1  3  1  0  0  0  0
  4  1  1  1  0  0  0
  4  6  1  0  0  0  0
  4 31  1  0  0  0  0
  6  7  1  0  0  0  0
  7  9  1  1  0  0  0
  7 30  1  0  0  0  0
  8 26  1  0  0  0  0
 10  9  1  1  0  0  0
 10 13  1  0  0  0  0
 10 21  1  0  0  0  0
 13 12  1  6  0  0  0
 13 15  1  0  0  0  0
 15  2  1  6  0  0  0
 15 17  1  0  0  0  0
 16 25  1  0  0  0  0
 16 23  1  0  0  0  0
 17 19  1  0  0  0  0
 19  5  1  1  0  0  0
 19 21  1  0  0  0  0
 21 14  1  1  0  0  0
 23 14  1  1  0  0  0
 23 29  1  0  0  0  0
 25 26  1  1  0  0  0
 25 27  1  0  0  0  0
 27 18  1  1  0  0  0
 27 28  1  0  0  0  0
 28 20  1  1  0  0  0
 28 29  1  0  0  0  0
 29 11  1  6  0  0  0
 30 22  1  6  0  0  0
 30 31  1  0  0  0  0
 31 24  1  6  0  0  0
M  END
>  <CHROM.1>
63.27184694,-93.47533150,-81.17631820,58.27378890,53.15309984,65.32767723
5.37560496,-11.30053879,0.15202011,1.35777992,-1.16758768,-2.39865546

>  <Name>
ligand

>  <RI>
0

>  <Rbt.Current_Directory>
/home/itssahil/PROJECTS/Mol_Feturizer/New_Systems/rnas/3DVV

>  <Rbt.Executable>
rbdock ($Id: //depot/dev/client3/rdock/2013.1/src/exe/rbdock.cxx#4 $)

>  <Rbt.Library>
libRbt.so (2013.1, Build901 2013/11/27)

>  <Rbt.Parameter_File>
/export/apps/rDock/src/rDock_2013.1_src/data/scripts/dock_solv.prm

>  <Rbt.Receptor>
prm/blind_docking_20.prm

>  <SCORE>
-4.89142

>  <SCORE.INTER>
-2.77613

>  <SCORE.INTER.CONST>
1

>  <SCORE.INTER.POLAR>
0

>  <SCORE.INTER.ROT>
6

>  <SCORE.INTER.SOLV>
16.4183

>  <SCORE.INTER.VDW>
-14.9235

>  <SCORE.INTER.norm>
-0.0895526

>  <SCORE.INTRA>
-2.12003

>  <SCORE.INTRA.DIHEDRAL>
-4.10523

>  <SCORE.INTRA.DIHEDRAL.0>
10.8172

>  <SCORE.INTRA.POLAR>
0

>  <SCORE.INTRA.POLAR.0>
0

>  <SCORE.INTRA.REPUL>
0

>  <SCORE.INTRA.REPUL.0>
0

>  <SCORE.INTRA.SOLV>
-4.32031

>  <SCORE.INTRA.SOLV.lig_0>
-80.3833

>  <SCORE.INTRA.VDW>
2.09274

>  <SCORE.INTRA.VDW.0>
-4.63762

>  <SCORE.INTRA.norm>
-0.0683882

>  <SCORE.RESTR>
0.00474232

>  <SCORE.RESTR.CAVITY>
0.00474232

>  <SCORE.RESTR.norm>
0.000152978

>  <SCORE.SYSTEM>
0

>  <SCORE.SYSTEM.CONST>
0

>  <SCORE.SYSTEM.DIHEDRAL>
0

>  <SCORE.SYSTEM.SOLV>
0

>  <SCORE.SYSTEM.norm>
0

>  <SCORE.heavy>
31

>  <SCORE.norm>
-0.157788

>  <RMSD>
27.266

$$$$
ligand
 OpenBabel11021811473D
libRbt.so/2013.1/901 2013/11/27
 31 33  0  0  0  0  0  0  0  0999 V2000
    3.9336  -14.4024    0.5764 C   0  0  0  0  0  0  0  0  0  0  0  0
    8.4747  -10.1955   -5.9301 N   0  0  0  0  0  0  0  0  0  0  0  0
    3.2363  -15.5774    1.0028 O   0  0  0  0  0  0  0  0  0  0  0  0
    4.1878  -14.4579   -0.9321 C   0  0  1  0  0  0  0  0  0  0  0  0
    7.5914   -7.7035   -1.8175 N   0  0  0  0  0  0  0  0  0  0  0  0
    4.7532  -13.2129   -1.3867 O   0  0  0  0  0  0  0  0  0  0  0  0
    5.9801  -13.4940   -2.0835 C   0  0  1  0  0  0  0  0  0  0  0  0
    8.9867  -11.1050    2.8061 N   0  0  0  0  0  0  0  0  0  0  0  0
    6.9454  -12.4455   -1.9043 O   0  0  0  0  0  0  0  0  0  0  0  0
    6.7056  -11.2926   -2.7248 C   0  0  2  0  0  0  0  0  0  0  0  0
    3.5459   -9.8786    0.5988 N   0  0  0  0  0  0  0  0  0  0  0  0
    7.3390  -12.4861   -4.7290 O   0  0  0  0  0  0  0  0  0  0  0  0
    7.6780  -11.3653   -3.9078 C   0  0  1  0  0  0  0  0  0  0  0  0
    5.8641   -9.8046   -0.9475 O   0  0  0  0  0  0  0  0  0  0  0  0
    7.6085  -10.0874   -4.7462 C   0  0  1  0  0  0  0  0  0  0  0  0
    7.1113  -10.9321    0.6992 O   0  0  0  0  0  0  0  0  0  0  0  0
    8.0414   -8.8999   -3.8861 C   0  0  0  0  0  0  0  0  0  0  0  0
    7.4106   -7.9580    2.8303 O   0  0  0  0  0  0  0  0  0  0  0  0
    7.0749   -8.7548   -2.7070 C   0  0  1  0  0  0  0  0  0  0  0  0
    4.5989   -8.5435    2.9587 O   0  0  0  0  0  0  0  0  0  0  0  0
    6.9309  -10.0401   -1.8831 C   0  0  2  0  0  0  0  0  0  0  0  0
    7.4524  -15.4644   -2.1719 O   0  0  0  0  0  0  0  0  0  0  0  0
    5.7989  -10.7414    0.1393 C   0  0  1  0  0  0  0  0  0  0  0  0
    4.9337  -16.2049   -2.4966 O   0  0  0  0  0  0  0  0  0  0  0  0
    7.7101   -9.7334    1.2205 C   0  0  2  0  0  0  0  0  0  0  0  0
    9.0992  -10.0650    1.7710 C   0  0  0  0  0  0  0  0  0  0  0  0
    6.8462   -9.1838    2.3570 C   0  0  2  0  0  0  0  0  0  0  0  0
    5.4247   -8.9251    1.8534 C   0  0  1  0  0  0  0  0  0  0  0  0
    4.8491  -10.1878    1.2068 C   0  0  1  0  0  0  0  0  0  0  0  0
    6.4978  -14.7492   -1.3841 C   0  0  2  0  0  0  0  0  0  0  0  0
    5.2080  -15.5538   -1.2535 C   0  0  1  0  0  0  0  0  0  0  0  0
  1  3  1  0  0  0  0
  4  1  1  1  0  0  0
  4  6  1  0  0  0  0
  4 31  1  0  0  0  0
  6  7  1  0  0  0  0
  7  9  1  1  0  0  0
  7 30  1  0  0  0  0
  8 26  1  0  0  0  0
 10  9  1  1  0  0  0
 10 13  1  0  0  0  0
 10 21  1  0  0  0  0
 13 12  1  6  0  0  0
 13 15  1  0  0  0  0
 15  2  1  6  0  0  0
 15 17  1  0  0  0  0
 16 25  1  0  0  0  0
 16 23  1  0  0  0  0
 17 19  1  0  0  0  0
 19  5  1  1  0  0  0
 19 21  1  0  0  0  0
 21 14  1  1  0  0  0
 23 14  1  6  0  0  0
 23 29  1  0  0  0  0
 25 26  1  1  0  0  0
 25 27  1  0  0  0  0
 27 18  1  6  0  0  0
 27 28  1  0  0  0  0
 28 20  1  1  0  0  0
 28 29  1  0  0  0  0
 29 11  1  6  0  0  0
 30 22  1  6  0  0  0
 30 31  1  0  0  0  0
 31 24  1  6  0  0  0
M  END
>  <CHROM.1>
173.55071932,-78.35511926,-101.60200278,46.57839458,70.09237552,-57.62272889
6.36434258,-11.44278979,-0.84926612,1.89744252,-1.06703654,-2.26550748

>  <Name>
ligand

>  <RI>
0

>  <Rbt.Current_Directory>
/home/itssahil/PROJECTS/Mol_Feturizer/New_Systems/rnas/3DVV

>  <Rbt.Executable>
rbdock ($Id: //depot/dev/client3/rdock/2013.1/src/exe/rbdock.cxx#4 $)

>  <Rbt.Library>
libRbt.so (2013.1, Build901 2013/11/27)

>  <Rbt.Parameter_File>
/export/apps/rDock/src/rDock_2013.1_src/data/scripts/dock_solv.prm

>  <Rbt.Receptor>
prm/blind_docking_20.prm

>  <SCORE>
-3.56929

>  <SCORE.INTER>
-3.35691

>  <SCORE.INTER.CONST>
1

>  <SCORE.INTER.POLAR>
0

>  <SCORE.INTER.ROT>
6

>  <SCORE.INTER.SOLV>
19.9591

>  <SCORE.INTER.VDW>
-16.491

>  <SCORE.INTER.norm>
-0.108287

>  <SCORE.INTRA>
-0.960922

>  <SCORE.INTRA.DIHEDRAL>
-1.92785

>  <SCORE.INTRA.DIHEDRAL.0>
10.8172

>  <SCORE.INTRA.POLAR>
0

>  <SCORE.INTRA.POLAR.0>
0

>  <SCORE.INTRA.REPUL>
0

>  <SCORE.INTRA.REPUL.0>
0

>  <SCORE.INTRA.SOLV>
-2.10922

>  <SCORE.INTRA.SOLV.lig_0>
-80.3833

>  <SCORE.INTRA.VDW>
1.05761

>  <SCORE.INTRA.VDW.0>
-4.63762

>  <SCORE.INTRA.norm>
-0.0309975

>  <SCORE.RESTR>
0.748542

>  <SCORE.RESTR.CAVITY>
0.748542

>  <SCORE.RESTR.norm>
0.0241465

>  <SCORE.SYSTEM>
0

>  <SCORE.SYSTEM.CONST>
0

>  <SCORE.SYSTEM.DIHEDRAL>
0

>  <SCORE.SYSTEM.SOLV>
0

>  <SCORE.SYSTEM.norm>
0

>  <SCORE.heavy>
31

>  <SCORE.norm>
-0.115138

>  <RMSD>
27.354

$$$$
ligand
 OpenBabel11021811473D
libRbt.so/2013.1/901 2013/11/27
 31 33  0  0  0  0  0  0  0  0999 V2000
    3.9273  -15.0191    0.8294 C   0  0  0  0  0  0  0  0  0  0  0  0
    8.4806  -10.6073   -5.5984 N   0  0  0  0  0  0  0  0  0  0  0  0
    3.0351  -14.0894    1.4527 O   0  0  0  0  0  0  0  0  0  0  0  0
    3.9795  -14.7693   -0.6800 C   0  0  1  0  0  0  0  0  0  0  0  0
    7.3155   -7.6527   -1.8813 N   0  0  0  0  0  0  0  0  0  0  0  0
    4.3810  -13.4110   -0.9450 O   0  0  0  0  0  0  0  0  0  0  0  0
    5.5208  -13.4328   -1.8226 C   0  0  1  0  0  0  0  0  0  0  0  0
    9.2341  -10.4995    1.1134 N   0  0  0  0  0  0  0  0  0  0  0  0
    6.4178  -12.3432   -1.5562 O   0  0  0  0  0  0  0  0  0  0  0  0
    6.3294  -11.2750   -2.5108 C   0  0  2  0  0  0  0  0  0  0  0  0
    2.9196   -9.3315    0.2686 N   0  0  0  0  0  0  0  0  0  0  0  0
    7.1000  -12.7031   -4.3022 O   0  0  0  0  0  0  0  0  0  0  0  0
    7.4140  -11.5173   -3.5669 C   0  0  1  0  0  0  0  0  0  0  0  0
    5.3923   -9.5693   -0.9963 O   0  0  0  0  0  0  0  0  0  0  0  0
    7.5035  -10.3345   -4.5333 C   0  0  1  0  0  0  0  0  0  0  0  0
    6.3225  -10.7228    0.8320 O   0  0  0  0  0  0  0  0  0  0  0  0
    7.9104   -9.0824   -3.7562 C   0  0  0  0  0  0  0  0  0  0  0  0
    6.6868   -7.6814    2.8551 O   0  0  0  0  0  0  0  0  0  0  0  0
    6.8362   -8.7689   -2.7105 C   0  0  1  0  0  0  0  0  0  0  0  0
    3.8331   -7.9802    2.6770 O   0  0  0  0  0  0  0  0  0  0  0  0
    6.5357   -9.9511   -1.7810 C   0  0  2  0  0  0  0  0  0  0  0  0
    7.1149  -15.1936   -2.4678 O   0  0  0  0  0  0  0  0  0  0  0  0
    5.1083  -10.4349    0.1141 C   0  0  1  0  0  0  0  0  0  0  0  0
    4.6399  -16.1128   -2.6330 O   0  0  0  0  0  0  0  0  0  0  0  0
    6.9799   -9.5622    1.3686 C   0  0  2  0  0  0  0  0  0  0  0  0
    8.2561   -9.9982    2.0922 C   0  0  0  0  0  0  0  0  0  0  0  0
    6.0551   -8.8696    2.3713 C   0  0  2  0  0  0  0  0  0  0  0  0
    4.7340   -8.5003    1.6936 C   0  0  1  0  0  0  0  0  0  0  0  0
    4.1070   -9.7336    1.0381 C   0  0  1  0  0  0  0  0  0  0  0  0
    6.2230  -14.7365   -1.4485 C   0  0  2  0  0  0  0  0  0  0  0  0
    5.0283  -15.6779   -1.3275 C   0  0  1  0  0  0  0  0  0  0  0  0
  1  3  1  0  0  0  0
  4  1  1  1  0  0  0
  4  6  1  0  0  0  0
  4 31  1  0  0  0  0
  6  7  1  0  0  0  0
  7  9  1  1  0  0  0
  7 30  1  0  0  0  0
  8 26  1  0  0  0  0
 10  9  1  1  0  0  0
 10 13  1  0  0  0  0
 10 21  1  0  0  0  0
 13 12  1  6  0  0  0
 13 15  1  0  0  0  0
 15  2  1  6  0  0  0
 15 17  1  0  0  0  0
 16 25  1  0  0  0  0
 16 23  1  0  0  0  0
 17 19  1  0  0  0  0
 19  5  1  1  0  0  0
 19 21  1  0  0  0  0
 21 14  1  6  0  0  0
 23 14  1  6  0  0  0
 23 29  1  0  0  0  0
 25 26  1  1  0  0  0
 25 27  1  0  0  0  0
 27 18  1  6  0  0  0
 27 28  1  0  0  0  0
 28 20  1  1  0  0  0
 28 29  1  0  0  0  0
 29 11  1  6  0  0  0
 30 22  1  6  0  0  0
 30 31  1  0  0  0  0
 31 24  1  6  0  0  0
M  END
>  <CHROM.1>
57.20857573,-103.36295685,-94.88861625,45.96675071,66.02285993,68.24423105
5.95924750,-11.30874977,-0.81308255,1.62142627,-0.97165347,-2.52284148

>  <Name>
ligand

>  <RI>
0

>  <Rbt.Current_Directory>
/home/itssahil/PROJECTS/Mol_Feturizer/New_Systems/rnas/3DVV

>  <Rbt.Executable>
rbdock ($Id: //depot/dev/client3/rdock/2013.1/src/exe/rbdock.cxx#4 $)

>  <Rbt.Library>
libRbt.so (2013.1, Build901 2013/11/27)

>  <Rbt.Parameter_File>
/export/apps/rDock/src/rDock_2013.1_src/data/scripts/dock_solv.prm

>  <Rbt.Receptor>
prm/blind_docking_20.prm

>  <SCORE>
-3.89731

>  <SCORE.INTER>
-3.78348

>  <SCORE.INTER.CONST>
1

>  <SCORE.INTER.POLAR>
0

>  <SCORE.INTER.ROT>
6

>  <SCORE.INTER.SOLV>
21.574

>  <SCORE.INTER.VDW>
-17.3137

>  <SCORE.INTER.norm>
-0.122048

>  <SCORE.INTRA>
-0.257717

>  <SCORE.INTRA.DIHEDRAL>
0.991116

>  <SCORE.INTRA.DIHEDRAL.0>
10.8172

>  <SCORE.INTRA.POLAR>
0

>  <SCORE.INTRA.POLAR.0>
0

>  <SCORE.INTRA.REPUL>
0

>  <SCORE.INTRA.REPUL.0>
0

>  <SCORE.INTRA.SOLV>
-3.56989

>  <SCORE.INTRA.SOLV.lig_0>
-80.3833

>  <SCORE.INTRA.VDW>
1.03167

>  <SCORE.INTRA.VDW.0>
-4.63762

>  <SCORE.INTRA.norm>
-0.00831346

>  <SCORE.RESTR>
0.143885

>  <SCORE.RESTR.CAVITY>
0.143885

>  <SCORE.RESTR.norm>
0.00464145

>  <SCORE.SYSTEM>
0

>  <SCORE.SYSTEM.CONST>
0

>  <SCORE.SYSTEM.DIHEDRAL>
0

>  <SCORE.SYSTEM.SOLV>
0

>  <SCORE.SYSTEM.norm>
0

>  <SCORE.heavy>
31

>  <SCORE.norm>
-0.12572

>  <RMSD>
27.455

$$$$
ligand
 OpenBabel11021811473D
libRbt.so/2013.1/901 2013/11/27
 31 33  0  0  0  0  0  0  0  0999 V2000
    8.9939   -7.9661   -0.6700 C   0  0  0  0  0  0  0  0  0  0  0  0
    2.2117  -12.0489    3.2111 N   0  0  0  0  0  0  0  0  0  0  0  0
    8.7528   -8.0194   -2.0799 O   0  0  0  0  0  0  0  0  0  0  0  0
    7.6673   -7.8809    0.0892 C   0  0  1  0  0  0  0  0  0  0  0  0
    4.0173  -15.1234   -0.1342 N   0  0  0  0  0  0  0  0  0  0  0  0
    6.8518   -9.0318   -0.2053 O   0  0  0  0  0  0  0  0  0  0  0  0
    6.4817   -9.6607    1.0346 C   0  0  1  0  0  0  0  0  0  0  0  0
    6.9550  -17.1570   -0.6905 N   0  0  0  0  0  0  0  0  0  0  0  0
    6.3736  -11.0862    0.8961 O   0  0  0  0  0  0  0  0  0  0  0  0
    5.0311  -11.5459    0.6804 C   0  0  2  0  0  0  0  0  0  0  0  0
    6.5876  -11.1544   -3.0987 N   0  0  0  0  0  0  0  0  0  0  0  0
    4.1834  -10.1653    2.4743 O   0  0  0  0  0  0  0  0  0  0  0  0
    4.3176  -11.5205    2.0371 C   0  0  1  0  0  0  0  0  0  0  0  0
    5.4903  -12.9639   -1.2842 O   0  0  0  0  0  0  0  0  0  0  0  0
    2.9296  -12.1553    1.9318 C   0  0  1  0  0  0  0  0  0  0  0  0
    7.4057  -14.3299   -1.3437 O   0  0  0  0  0  0  0  0  0  0  0  0
    3.0794  -13.6241    1.5348 C   0  0  0  0  0  0  0  0  0  0  0  0
    6.5524  -15.7716   -4.6101 O   0  0  0  0  0  0  0  0  0  0  0  0
    3.7519  -13.7072    0.1613 C   0  0  1  0  0  0  0  0  0  0  0  0
    7.1129  -13.0280   -5.2607 O   0  0  0  0  0  0  0  0  0  0  0  0
    5.0863  -12.9543    0.0962 C   0  0  2  0  0  0  0  0  0  0  0  0
    7.3433   -9.4861    3.3335 O   0  0  0  0  0  0  0  0  0  0  0  0
    6.9107  -12.9866   -1.4954 C   0  0  1  0  0  0  0  0  0  0  0  0
    6.9973   -7.0698    2.3138 O   0  0  0  0  0  0  0  0  0  0  0  0
    6.8347  -15.2763   -2.2632 C   0  0  2  0  0  0  0  0  0  0  0  0
    7.4291  -16.6603   -1.9921 C   0  0  0  0  0  0  0  0  0  0  0  0
    7.1749  -14.8644   -3.6967 C   0  0  2  0  0  0  0  0  0  0  0  0
    6.6667  -13.4466   -3.9665 C   0  0  1  0  0  0  0  0  0  0  0  0
    7.2037  -12.4768   -2.9105 C   0  0  1  0  0  0  0  0  0  0  0  0
    7.6673   -9.3546    1.9474 C   0  0  2  0  0  0  0  0  0  0  0  0
    7.9237   -7.8915    1.5989 C   0  0  1  0  0  0  0  0  0  0  0  0
  1  3  1  0  0  0  0
  4  1  1  6  0  0  0
  4  6  1  0  0  0  0
  4 31  1  0  0  0  0
  6  7  1  0  0  0  0
  7  9  1  6  0  0  0
  7 30  1  0  0  0  0
  8 26  1  0  0  0  0
 10  9  1  1  0  0  0
 10 13  1  0  0  0  0
 10 21  1  0  0  0  0
 13 12  1  6  0  0  0
 13 15  1  0  0  0  0
 15  2  1  1  0  0  0
 15 17  1  0  0  0  0
 16 25  1  0  0  0  0
 16 23  1  0  0  0  0
 17 19  1  0  0  0  0
 19  5  1  1  0  0  0
 19 21  1  0  0  0  0
 21 14  1  6  0  0  0
 23 14  1  6  0  0  0
 23 29  1  0  0  0  0
 25 26  1  1  0  0  0
 25 27  1  0  0  0  0
 27 18  1  6  0  0  0
 27 28  1  0  0  0  0
 28 20  1  6  0  0  0
 28 29  1  0  0  0  0
 29 11  1  6  0  0  0
 30 22  1  1  0  0  0
 30 31  1  0  0  0  0
 31 24  1  1  0  0  0
M  END
>  <CHROM.1>
59.65819711,-96.89145743,-77.68303110,80.53031909,86.29303978,68.50925754
6.21868915,-11.91362585,-0.40864454,-1.54370595,-0.83799746,-2.51338186

>  <Name>
ligand

>  <RI>
0

>  <Rbt.Current_Directory>
/home/itssahil/PROJECTS/Mol_Feturizer/New_Systems/rnas/3DVV

>  <Rbt.Executable>
rbdock ($Id: //depot/dev/client3/rdock/2013.1/src/exe/rbdock.cxx#4 $)

>  <Rbt.Library>
libRbt.so (2013.1, Build901 2013/11/27)

>  <Rbt.Parameter_File>
/export/apps/rDock/src/rDock_2013.1_src/data/scripts/dock_solv.prm

>  <Rbt.Receptor>
prm/blind_docking_20.prm

>  <SCORE>
1.19706

>  <SCORE.INTER>
-1.49501

>  <SCORE.INTER.CONST>
1

>  <SCORE.INTER.POLAR>
0

>  <SCORE.INTER.ROT>
6

>  <SCORE.INTER.SOLV>
20.4773

>  <SCORE.INTER.VDW>
-15.4225

>  <SCORE.INTER.norm>
-0.0482262

>  <SCORE.INTRA>
0.777565

>  <SCORE.INTRA.DIHEDRAL>
0.520601

>  <SCORE.INTRA.DIHEDRAL.0>
10.8172

>  <SCORE.INTRA.POLAR>
0

>  <SCORE.INTRA.POLAR.0>
0

>  <SCORE.INTRA.REPUL>
0

>  <SCORE.INTRA.REPUL.0>
0

>  <SCORE.INTRA.SOLV>
-1.22551

>  <SCORE.INTRA.SOLV.lig_0>
-80.3833

>  <SCORE.INTRA.VDW>
1.13002

>  <SCORE.INTRA.VDW.0>
-4.63762

>  <SCORE.INTRA.norm>
0.0250827

>  <SCORE.RESTR>
1.91451

>  <SCORE.RESTR.CAVITY>
1.91451

>  <SCORE.RESTR.norm>
0.0617584

>  <SCORE.SYSTEM>
0

>  <SCORE.SYSTEM.CONST>
0

>  <SCORE.SYSTEM.DIHEDRAL>
0

>  <SCORE.SYSTEM.SOLV>
0

>  <SCORE.SYSTEM.norm>
0

>  <SCORE.heavy>
31

>  <SCORE.norm>
0.0386149

>  <RMSD>
27.523

$$$$
ligand
 OpenBabel11021811473D
libRbt.so/2013.1/901 2013/11/27
 31 33  0  0  0  0  0  0  0  0999 V2000
    8.0557  -10.3018   -4.8983 C   0  0  0  0  0  0  0  0  0  0  0  0
    3.9787  -15.5402    1.0293 N   0  0  0  0  0  0  0  0  0  0  0  0
    8.5857   -9.0915   -4.3478 O   0  0  0  0  0  0  0  0  0  0  0  0
    8.2515  -11.4586   -3.9151 C   0  0  1  0  0  0  0  0  0  0  0  0
    3.0051  -10.9152    2.2806 N   0  0  0  0  0  0  0  0  0  0  0  0
    7.5733  -11.1768   -2.6753 O   0  0  0  0  0  0  0  0  0  0  0  0
    6.6840  -12.2687   -2.3808 C   0  0  1  0  0  0  0  0  0  0  0  0
    0.8427   -9.1781    0.6781 N   0  0  0  0  0  0  0  0  0  0  0  0
    5.4992  -11.8214   -1.7032 O   0  0  0  0  0  0  0  0  0  0  0  0
    5.4061  -12.2714   -0.3435 C   0  0  2  0  0  0  0  0  0  0  0  0
    7.2148   -8.1356    0.3014 N   0  0  0  0  0  0  0  0  0  0  0  0
    5.6900  -14.5796   -1.0023 O   0  0  0  0  0  0  0  0  0  0  0  0
    4.7838  -13.6723   -0.3691 C   0  0  1  0  0  0  0  0  0  0  0  0
    5.2333  -10.0518    0.7169 O   0  0  0  0  0  0  0  0  0  0  0  0
    4.4912  -14.1617    1.0507 C   0  0  1  0  0  0  0  0  0  0  0  0
    3.5697   -8.6690   -0.2098 O   0  0  0  0  0  0  0  0  0  0  0  0
    3.4668  -13.2310    1.7001 C   0  0  0  0  0  0  0  0  0  0  0  0
    3.3485   -6.5492    2.7792 O   0  0  0  0  0  0  0  0  0  0  0  0
    4.0556  -11.8200    1.7895 C   0  0  1  0  0  0  0  0  0  0  0  0
    5.9793   -5.9581    1.7821 O   0  0  0  0  0  0  0  0  0  0  0  0
    4.5454  -11.2839    0.4388 C   0  0  2  0  0  0  0  0  0  0  0  0
    5.7714  -14.1091   -3.7366 O   0  0  0  0  0  0  0  0  0  0  0  0
    4.9725   -8.9926   -0.2173 C   0  0  1  0  0  0  0  0  0  0  0  0
    8.3797  -13.9068   -4.1291 O   0  0  0  0  0  0  0  0  0  0  0  0
    3.0728   -8.2287    1.0655 C   0  0  2  0  0  0  0  0  0  0  0  0
    1.5764   -7.9308    0.9451 C   0  0  0  0  0  0  0  0  0  0  0  0
    3.7997   -6.9488    1.4823 C   0  0  2  0  0  0  0  0  0  0  0  0
    5.3089   -7.1967    1.5259 C   0  0  1  0  0  0  0  0  0  0  0  0
    5.7954   -7.7660    0.1905 C   0  0  1  0  0  0  0  0  0  0  0  0
    6.2844  -12.7751   -3.7652 C   0  0  2  0  0  0  0  0  0  0  0  0
    7.6318  -12.7398   -4.4802 C   0  0  1  0  0  0  0  0  0  0  0  0
  1  3  1  0  0  0  0
  4  1  1  6  0  0  0
  4  6  1  0  0  0  0
  4 31  1  0  0  0  0
  6  7  1  0  0  0  0
  7  9  1  6  0  0  0
  7 30  1  0  0  0  0
  8 26  1  0  0  0  0
 10  9  1  6  0  0  0
 10 13  1  0  0  0  0
 10 21  1  0  0  0  0
 13 12  1  1  0  0  0
 13 15  1  0  0  0  0
 15  2  1  6  0  0  0
 15 17  1  0  0  0  0
 16 25  1  0  0  0  0
 16 23  1  0  0  0  0
 17 19  1  0  0  0  0
 19  5  1  6  0  0  0
 19 21  1  0  0  0  0
 21 14  1  1  0  0  0
 23 14  1  1  0  0  0
 23 29  1  0  0  0  0
 25 26  1  6  0  0  0
 25 27  1  0  0  0  0
 27 18  1  1  0  0  0
 27 28  1  0  0  0  0
 28 20  1  6  0  0  0
 28 29  1  0  0  0  0
 29 11  1  1  0  0  0
 30 22  1  1  0  0  0
 30 31  1  0  0  0  0
 31 24  1  1  0  0  0
M  END
>  <CHROM.1>
59.98442540,-112.31927959,-84.92891043,60.95077559,95.84854965,66.22515980
5.28189325,-10.72381290,-0.62481146,-0.83329315,0.83652871,0.19436865

>  <Name>
ligand

>  <RI>
0

>  <Rbt.Current_Directory>
/home/itssahil/PROJECTS/Mol_Feturizer/New_Systems/rnas/3DVV

>  <Rbt.Executable>
rbdock ($Id: //depot/dev/client3/rdock/2013.1/src/exe/rbdock.cxx#4 $)

>  <Rbt.Library>
libRbt.so (2013.1, Build901 2013/11/27)

>  <Rbt.Parameter_File>
/export/apps/rDock/src/rDock_2013.1_src/data/scripts/dock_solv.prm

>  <Rbt.Receptor>
prm/blind_docking_20.prm

>  <SCORE>
-6.64602

>  <SCORE.INTER>
-9.15668

>  <SCORE.INTER.CONST>
1

>  <SCORE.INTER.POLAR>
0

>  <SCORE.INTER.ROT>
6

>  <SCORE.INTER.SOLV>
22.45

>  <SCORE.INTER.VDW>
-21.1878

>  <SCORE.INTER.norm>
-0.295377

>  <SCORE.INTRA>
2.51066

>  <SCORE.INTRA.DIHEDRAL>
3.42019

>  <SCORE.INTRA.DIHEDRAL.0>
10.8172

>  <SCORE.INTRA.POLAR>
0

>  <SCORE.INTRA.POLAR.0>
0

>  <SCORE.INTRA.REPUL>
0

>  <SCORE.INTRA.REPUL.0>
0

>  <SCORE.INTRA.SOLV>
-0.204528

>  <SCORE.INTRA.SOLV.lig_0>
-80.3833

>  <SCORE.INTRA.VDW>
0.902825

>  <SCORE.INTRA.VDW.0>
-4.63762

>  <SCORE.INTRA.norm>
0.0809889

>  <SCORE.RESTR>
0

>  <SCORE.RESTR.CAVITY>
0

>  <SCORE.RESTR.norm>
0

>  <SCORE.SYSTEM>
0

>  <SCORE.SYSTEM.CONST>
0

>  <SCORE.SYSTEM.DIHEDRAL>
0

>  <SCORE.SYSTEM.SOLV>
0

>  <SCORE.SYSTEM.norm>
0

>  <SCORE.heavy>
31

>  <SCORE.norm>
-0.214388

>  <RMSD>
27.577

$$$$
ligand
 OpenBabel11021811473D
libRbt.so/2013.1/901 2013/11/27
 31 33  0  0  0  0  0  0  0  0999 V2000
    1.8020   -9.8553    1.7074 C   0  0  0  0  0  0  0  0  0  0  0  0
    9.2907   -7.4567   -2.0618 N   0  0  0  0  0  0  0  0  0  0  0  0
    1.2578   -9.5080    0.4299 O   0  0  0  0  0  0  0  0  0  0  0  0
    3.2476   -9.3638    1.8163 C   0  0  1  0  0  0  0  0  0  0  0  0
    7.6056  -10.9909   -4.9898 N   0  0  0  0  0  0  0  0  0  0  0  0
    4.0766  -10.0417    0.8522 O   0  0  0  0  0  0  0  0  0  0  0  0
    4.7545   -9.0540    0.0554 C   0  0  1  0  0  0  0  0  0  0  0  0
    3.0655  -13.4454    1.1047 N   0  0  0  0  0  0  0  0  0  0  0  0
    4.9516   -9.5038   -1.2943 O   0  0  0  0  0  0  0  0  0  0  0  0
    6.3176   -9.8146   -1.6065 C   0  0  2  0  0  0  0  0  0  0  0  0
    6.9535  -14.1799   -4.0477 N   0  0  0  0  0  0  0  0  0  0  0  0
    7.1252   -7.9389   -0.3135 O   0  0  0  0  0  0  0  0  0  0  0  0
    7.0913   -8.4913   -1.6322 C   0  0  1  0  0  0  0  0  0  0  0  0
    5.8915  -11.8794   -2.8856 O   0  0  0  0  0  0  0  0  0  0  0  0
    8.5236   -8.7101   -2.1234 C   0  0  1  0  0  0  0  0  0  0  0  0
    6.2181  -12.7140   -0.7096 O   0  0  0  0  0  0  0  0  0  0  0  0
    8.4863   -9.2322   -3.5599 C   0  0  0  0  0  0  0  0  0  0  0  0
    3.3375  -14.9812   -0.9034 O   0  0  0  0  0  0  0  0  0  0  0  0
    7.7577  -10.5791   -3.5860 C   0  0  1  0  0  0  0  0  0  0  0  0
    5.1572  -16.1110   -2.8210 O   0  0  0  0  0  0  0  0  0  0  0  0
    6.3599  -10.5214   -2.9580 C   0  0  2  0  0  0  0  0  0  0  0  0
    4.3908   -6.6474   -0.3101 O   0  0  0  0  0  0  0  0  0  0  0  0
    6.6910  -12.7492   -2.0689 C   0  0  1  0  0  0  0  0  0  0  0  0
    4.3047   -7.1899    2.2776 O   0  0  0  0  0  0  0  0  0  0  0  0
    4.8525  -13.1340   -0.5490 C   0  0  2  0  0  0  0  0  0  0  0  0
    4.4690  -13.0389    0.9296 C   0  0  0  0  0  0  0  0  0  0  0  0
    4.7085  -14.5872   -1.0047 C   0  0  2  0  0  0  0  0  0  0  0  0
    5.1689  -14.7265   -2.4571 C   0  0  1  0  0  0  0  0  0  0  0  0
    6.5870  -14.1740   -2.6231 C   0  0  1  0  0  0  0  0  0  0  0  0
    3.7690   -7.8875    0.0349 C   0  0  2  0  0  0  0  0  0  0  0  0
    3.3206   -7.8687    1.4932 C   0  0  1  0  0  0  0  0  0  0  0  0
  1  3  1  0  0  0  0
  4  1  1  6  0  0  0
  4  6  1  0  0  0  0
  4 31  1  0  0  0  0
  6  7  1  0  0  0  0
  7  9  1  6  0  0  0
  7 30  1  0  0  0  0
  8 26  1  0  0  0  0
 10  9  1  6  0  0  0
 10 13  1  0  0  0  0
 10 21  1  0  0  0  0
 13 12  1  1  0  0  0
 13 15  1  0  0  0  0
 15  2  1  6  0  0  0
 15 17  1  0  0  0  0
 16 25  1  0  0  0  0
 16 23  1  0  0  0  0
 17 19  1  0  0  0  0
 19  5  1  6  0  0  0
 19 21  1  0  0  0  0
 21 14  1  1  0  0  0
 23 14  1  6  0  0  0
 23 29  1  0  0  0  0
 25 26  1  1  0  0  0
 25 27  1  0  0  0  0
 27 18  1  6  0  0  0
 27 28  1  0  0  0  0
 28 20  1  1  0  0  0
 28 29  1  0  0  0  0
 29 11  1  6  0  0  0
 30 22  1  1  0  0  0
 30 31  1  0  0  0  0
 31 24  1  1  0  0  0
M  END
>  <CHROM.1>
-64.23199111,-108.59389776,-69.58286597,89.27515778,-63.92114679,179.07782190
5.36321929,-10.84236165,-1.06234802,1.87971659,0.69834246,0.29230433

>  <Name>
ligand

>  <RI>
0

>  <Rbt.Current_Directory>
/home/itssahil/PROJECTS/Mol_Feturizer/New_Systems/rnas/3DVV

>  <Rbt.Executable>
rbdock ($Id: //depot/dev/client3/rdock/2013.1/src/exe/rbdock.cxx#4 $)

>  <Rbt.Library>
libRbt.so (2013.1, Build901 2013/11/27)

>  <Rbt.Parameter_File>
/export/apps/rDock/src/rDock_2013.1_src/data/scripts/dock_solv.prm

>  <Rbt.Receptor>
prm/blind_docking_20.prm

>  <SCORE>
-1.82627

>  <SCORE.INTER>
-5.33491

>  <SCORE.INTER.CONST>
1

>  <SCORE.INTER.POLAR>
0

>  <SCORE.INTER.ROT>
6

>  <SCORE.INTER.SOLV>
21.5834

>  <SCORE.INTER.VDW>
-18.3511

>  <SCORE.INTER.norm>
-0.172094

>  <SCORE.INTRA>
3.49767

>  <SCORE.INTRA.DIHEDRAL>
-0.21414

>  <SCORE.INTRA.DIHEDRAL.0>
10.8172

>  <SCORE.INTRA.POLAR>
0

>  <SCORE.INTRA.POLAR.0>
0

>  <SCORE.INTRA.REPUL>
0

>  <SCORE.INTRA.REPUL.0>
0

>  <SCORE.INTRA.SOLV>
1.41216

>  <SCORE.INTRA.SOLV.lig_0>
-80.3833

>  <SCORE.INTRA.VDW>
2.89865

>  <SCORE.INTRA.VDW.0>
-4.63762

>  <SCORE.INTRA.norm>
0.112828

>  <SCORE.RESTR>
0.0109737

>  <SCORE.RESTR.CAVITY>
0.0109737

>  <SCORE.RESTR.norm>
0.000353991

>  <SCORE.SYSTEM>
0

>  <SCORE.SYSTEM.CONST>
0

>  <SCORE.SYSTEM.DIHEDRAL>
0

>  <SCORE.SYSTEM.SOLV>
0

>  <SCORE.SYSTEM.norm>
0

>  <SCORE.heavy>
31

>  <SCORE.norm>
-0.058912

>  <RMSD>
27.769

$$$$
ligand
 OpenBabel11021811473D
libRbt.so/2013.1/901 2013/11/27
 31 33  0  0  0  0  0  0  0  0999 V2000
    4.9053  -11.6882    2.6624 C   0  0  0  0  0  0  0  0  0  0  0  0
    9.4961   -7.6058   -1.9980 N   0  0  0  0  0  0  0  0  0  0  0  0
    4.4080  -11.7582    4.0028 O   0  0  0  0  0  0  0  0  0  0  0  0
    5.1506  -10.2301    2.2662 C   0  0  1  0  0  0  0  0  0  0  0  0
    7.7168  -10.8445   -5.1994 N   0  0  0  0  0  0  0  0  0  0  0  0
    5.8498  -10.1682    1.0078 O   0  0  0  0  0  0  0  0  0  0  0  0
    5.0951   -9.3412    0.1042 C   0  0  1  0  0  0  0  0  0  0  0  0
    3.8999  -13.4273    0.4815 N   0  0  0  0  0  0  0  0  0  0  0  0
    5.2191   -9.7884   -1.2550 O   0  0  0  0  0  0  0  0  0  0  0  0
    6.5727  -10.0441   -1.6583 C   0  0  2  0  0  0  0  0  0  0  0  0
    7.9513  -13.5098   -4.5454 N   0  0  0  0  0  0  0  0  0  0  0  0
    7.4183   -8.2996   -0.2146 O   0  0  0  0  0  0  0  0  0  0  0  0
    7.3300   -8.7133   -1.5808 C   0  0  1  0  0  0  0  0  0  0  0  0
    6.1107  -11.9721   -3.1247 O   0  0  0  0  0  0  0  0  0  0  0  0
    8.7406   -8.8580   -2.1554 C   0  0  1  0  0  0  0  0  0  0  0  0
    6.1992  -13.4130   -1.2661 O   0  0  0  0  0  0  0  0  0  0  0  0
    8.6430   -9.2295   -3.6352 C   0  0  0  0  0  0  0  0  0  0  0  0
    4.1155  -15.9755   -2.8686 O   0  0  0  0  0  0  0  0  0  0  0  0
    7.9287  -10.5776   -3.7686 C   0  0  1  0  0  0  0  0  0  0  0  0
    6.5160  -16.0379   -4.4493 O   0  0  0  0  0  0  0  0  0  0  0  0
    6.5606  -10.6068   -3.0764 C   0  0  2  0  0  0  0  0  0  0  0  0
    2.7728   -8.5257    0.1101 O   0  0  0  0  0  0  0  0  0  0  0  0
    6.9288  -12.9015   -2.3969 C   0  0  1  0  0  0  0  0  0  0  0  0
    3.8704   -8.1399    2.4858 O   0  0  0  0  0  0  0  0  0  0  0  0
    4.9885  -14.1078   -1.6106 C   0  0  2  0  0  0  0  0  0  0  0  0
    4.3035  -14.5875   -0.3288 C   0  0  0  0  0  0  0  0  0  0  0  0
    5.3261  -15.3236   -2.4755 C   0  0  2  0  0  0  0  0  0  0  0  0
    6.0901  -14.8793   -3.7244 C   0  0  1  0  0  0  0  0  0  0  0  0
    7.3166  -14.0506   -3.3336 C   0  0  1  0  0  0  0  0  0  0  0  0
    3.6522   -9.5619    0.5536 C   0  0  2  0  0  0  0  0  0  0  0  0
    3.8152   -9.5067    2.0696 C   0  0  1  0  0  0  0  0  0  0  0  0
  1  3  1  0  0  0  0
  4  1  1  6  0  0  0
  4  6  1  0  0  0  0
  4 31  1  0  0  0  0
  6  7  1  0  0  0  0
  7  9  1  6  0  0  0
  7 30  1  0  0  0  0
  8 26  1  0  0  0  0
 10  9  1  6  0  0  0
 10 13  1  0  0  0  0
 10 21  1  0  0  0  0
 13 12  1  1  0  0  0
 13 15  1  0  0  0  0
 15  2  1  6  0  0  0
 15 17  1  0  0  0  0
 16 25  1  0  0  0  0
 16 23  1  0  0  0  0
 17 19  1  0  0  0  0
 19  5  1  6  0  0  0
 19 21  1  0  0  0  0
 21 14  1  1  0  0  0
 23 14  1  6  0  0  0
 23 29  1  0  0  0  0
 25 26  1  1  0  0  0
 25 27  1  0  0  0  0
 27 18  1  6  0  0  0
 27 28  1  0  0  0  0
 28 20  1  1  0  0  0
 28 29  1  0  0  0  0
 29 11  1  6  0  0  0
 30 22  1  6  0  0  0
 30 31  1  0  0  0  0
 31 24  1  6  0  0  0
M  END
>  <CHROM.1>
170.72925530,-47.92942755,-63.12939657,112.52485250,-61.68379600,63.82976786
5.92733745,-11.41112635,-1.21662333,1.97427835,0.89372976,0.51215303

>  <Name>
ligand

>  <RI>
0

>  <Rbt.Current_Directory>
/home/itssahil/PROJECTS/Mol_Feturizer/New_Systems/rnas/3DVV

>  <Rbt.Executable>
rbdock ($Id: //depot/dev/client3/rdock/2013.1/src/exe/rbdock.cxx#4 $)

>  <Rbt.Library>
libRbt.so (2013.1, Build901 2013/11/27)

>  <Rbt.Parameter_File>
/export/apps/rDock/src/rDock_2013.1_src/data/scripts/dock_solv.prm

>  <Rbt.Receptor>
prm/blind_docking_20.prm

>  <SCORE>
-0.892696

>  <SCORE.INTER>
-5.14416

>  <SCORE.INTER.CONST>
1

>  <SCORE.INTER.POLAR>
0

>  <SCORE.INTER.ROT>
6

>  <SCORE.INTER.SOLV>
22.8767

>  <SCORE.INTER.VDW>
-18.655

>  <SCORE.INTER.norm>
-0.165941

>  <SCORE.INTRA>
4.25146

>  <SCORE.INTRA.DIHEDRAL>
-2.53962

>  <SCORE.INTRA.DIHEDRAL.0>
10.8172

>  <SCORE.INTRA.POLAR>
0

>  <SCORE.INTRA.POLAR.0>
0

>  <SCORE.INTRA.REPUL>
0.019024

>  <SCORE.INTRA.REPUL.0>
0

>  <SCORE.INTRA.SOLV>
2.51352

>  <SCORE.INTRA.SOLV.lig_0>
-80.3833

>  <SCORE.INTRA.VDW>
4.16939

>  <SCORE.INTRA.VDW.0>
-4.63762

>  <SCORE.INTRA.norm>
0.137144

>  <SCORE.RESTR>
0

>  <SCORE.RESTR.CAVITY>
0

>  <SCORE.RESTR.norm>
0

>  <SCORE.SYSTEM>
0

>  <SCORE.SYSTEM.CONST>
0

>  <SCORE.SYSTEM.DIHEDRAL>
0

>  <SCORE.SYSTEM.SOLV>
0

>  <SCORE.SYSTEM.norm>
0

>  <SCORE.heavy>
31

>  <SCORE.norm>
-0.0287966

>  <RMSD>
27.902

$$$$
