@<TRIPOS>MOLECULE
3DVV_rdock.pdb
 938 1048 0 0 0
SMALL
GASTEIGER

@<TRIPOS>ATOM
      1  C5'        1.6560   -4.1670   -5.9590 C.3     1  C1          0.2141
      2  O5'        2.9600   -4.1640   -6.5470 O.3     1  C1         -0.2176
      3  C4'        0.9970   -5.5120   -6.1280 C.3     1  C1          0.1802
      4  O4'        1.0850   -5.9210   -7.5170 O.3     1  C1         -0.3306
      5  C3'        1.6530   -6.6510   -5.3650 C.3     1  C1          0.1861
      6  O3'        1.1630   -6.6730   -4.0290 O.3     1  C1         -0.3112
      7  C2'        1.2040   -7.8740   -6.1550 C.3     1  C1          0.2309
      8  O2'       -0.1090   -8.2740   -5.8400 O.3     1  C1         -0.2156
      9  C1'        1.2130   -7.3320   -7.5860 C.3     1  C1          0.2420
     10  N1         2.4270   -7.6650   -8.3470 N.ar    1  C1         -0.2535
     11  C2         2.6090   -8.9900   -8.7510 C.ar    1  C1          0.3532
     12  O2         1.7390   -9.8220   -8.4560 O.2     1  C1         -0.2443
     13  N3         3.7190   -9.3260   -9.4500 N.ar    1  C1         -0.1739
     14  C4         4.6290   -8.3910   -9.7460 C.ar    1  C1          0.1759
     15  N4         5.7170   -8.7640  -10.4350 N.pl3   1  C1         -0.1070
     16  C5         4.4660   -7.0260   -9.3480 C.ar    1  C1          0.0566
     17  C6         3.3600   -6.7110   -8.6560 C.ar    1  C1          0.0850
     18  P          2.1290   -7.1140   -2.8190 P.3     2  U2          0.2141
     19  C5'        0.8790   -9.4030   -2.5440 C.3     2  U2          0.1813
     20  O5'        2.0880   -8.7020   -2.8500 O.3     2  U2         -0.3114
     21  C4'        1.0660  -10.8750   -2.7860 C.3     2  U2          0.1801
     22  O4'        1.2660  -11.1170   -4.2030 O.3     2  U2         -0.3306
     23  C3'        2.3060  -11.4660   -2.1470 C.3     2  U2          0.2161
     24  O3'        2.1000  -11.7480   -0.7730 O.3     2  U2         -0.2175
     25  C2'        2.5330  -12.7140   -2.9890 C.3     2  U2          0.2338
     26  O2'        1.6380  -13.7570   -2.6510 O.3     2  U2         -0.2155
     27  C1'        2.1750  -12.1890   -4.3790 C.3     2  U2          0.2421
     28  N1         3.3100  -11.6880   -5.1620 N.ar    2  U2         -0.2534
     29  C2         4.0800  -12.6080   -5.8360 C.ar    2  U2          0.3546
     30  O2         3.8980  -13.8040   -5.7490 O.2     2  U2         -0.2443
     31  N3         5.0700  -12.0740   -6.6170 N.ar    2  U2         -0.1530
     32  C4         5.3660  -10.7390   -6.7820 C.ar    2  U2          0.2846
     33  O4         6.2090  -10.4070   -7.6160 O.2     2  U2         -0.2650
     34  C5         4.5520   -9.8500   -6.0150 C.ar    2  U2          0.0814
     35  C6         3.5790  -10.3410   -5.2490 C.ar    2  U2          0.0870
     36  OP1        1.4760   -6.6480   -1.5630 O.3     2  U2         -0.4373
     37  OP2        3.5220   -6.6740   -3.1350 O.co2   2  U2         -0.5172
     38  P          7.5250  -14.6870    2.1480 P.3     4  G4          0.1280
     39  C5'        9.2890  -16.5550    1.6430 C.3     4  G4          0.1795
     40  O5'        8.9420  -15.1690    1.6130 O.3     4  G4         -0.3259
     41  C4'       10.4460  -16.8160    0.7270 C.3     4  G4          0.1772
     42  O4'       10.0740  -16.4780   -0.6360 O.3     4  G4         -0.3307
     43  C3'       11.6590  -15.9400    0.9570 C.3     4  G4          0.1860
     44  O3'       12.4280  -16.3600    2.0610 O.3     4  G4         -0.3112
     45  C2'       12.3980  -16.1030   -0.3550 C.3     4  G4          0.2309
     46  O2'       13.0330  -17.3660   -0.4300 O.3     4  G4         -0.2156
     47  C1'       11.2290  -16.0440   -1.3410 C.3     4  G4          0.2408
     48  N1        12.6430  -12.5400   -4.7010 N.ar    4  G4         -0.1709
     49  C2        13.1560  -13.7930   -4.4660 C.ar    4  G4          0.2606
     50  N2        14.1960  -14.1620   -5.2220 N.pl3   4  G4         -0.0859
     51  N3        12.6900  -14.6200   -3.5500 N.ar    4  G4         -0.1918
     52  C4        11.6770  -14.0800   -2.8550 C.ar    4  G4          0.1723
     53  C5        11.1040  -12.8370   -2.9930 C.ar    4  G4          0.1748
     54  C6        11.5940  -11.9660   -4.0020 C.ar    4  G4          0.3023
     55  O6        11.2090  -10.8310   -4.3010 O.2     4  G4         -0.2633
     56  N7        10.0950  -12.6560   -2.0600 N.ar    4  G4         -0.2173
     57  C8        10.0670  -13.7820   -1.3910 C.ar    4  G4          0.1817
     58  N9        10.9940  -14.6900   -1.8340 N.ar    4  G4         -0.2693
     59  OP1        7.3740  -15.0470    3.5860 O.3     4  G4         -0.1955
     60  OP2        7.3470  -13.2750    1.7190 O.co2   4  G4         -0.7863
     61  P         13.2040  -15.2650    2.9300 P.3     5  C5          0.2141
     62  C5'       15.3830  -15.8180    1.5980 C.3     5  C5          0.1812
     63  O5'       14.4310  -14.8410    2.0080 O.3     5  C5         -0.3114
     64  C4'       16.2240  -15.2880    0.4830 C.3     5  C5          0.1773
     65  O4'       15.3550  -14.9390   -0.6220 O.3     5  C5         -0.3307
     66  C3'       16.9770  -13.9940    0.7310 C.3     5  C5          0.1860
     67  O3'       18.1540  -14.1640    1.4950 O.3     5  C5         -0.3112
     68  C2'       17.2720  -13.5490   -0.6940 C.3     5  C5          0.2309
     69  O2'       18.2900  -14.3050   -1.3180 O.3     5  C5         -0.2156
     70  C1'       15.9430  -13.8840   -1.3710 C.3     5  C5          0.2420
     71  N1        15.0180  -12.7350   -1.3580 N.ar    5  C5         -0.2535
     72  C2        15.1630  -11.7610   -2.3500 C.ar    5  C5          0.3532
     73  O2        16.0640  -11.8900   -3.1790 O.2     5  C5         -0.2443
     74  N3        14.3190  -10.7030   -2.3760 N.ar    5  C5         -0.1739
     75  C4        13.3630  -10.5950   -1.4540 C.ar    5  C5          0.1759
     76  N4        12.5450   -9.5440   -1.5350 N.pl3   5  C5         -0.1070
     77  C5        13.1970  -11.5660   -0.4140 C.ar    5  C5          0.0566
     78  C6        14.0430  -12.6150   -0.4090 C.ar    5  C5          0.0850
     79  OP1       13.7350  -15.9560    4.1370 O.3     5  C5         -0.4373
     80  OP2       12.3470  -14.0770    3.0900 O.co2   5  C5         -0.5172
     81  P         18.7120  -12.9250    2.3580 P.3     6  U6          0.2141
     82  C5'       20.3330  -12.3390    0.3740 C.3     6  U6          0.1812
     83  O5'       19.2720  -11.9230    1.2500 O.3     6  U6         -0.3114
     84  C4'       20.6110  -11.2870   -0.6780 C.3     6  U6          0.1773
     85  O4'       19.4370  -11.0720   -1.5090 O.3     6  U6         -0.3307
     86  C3'       20.9230   -9.8890   -0.1710 C.3     6  U6          0.1860
     87  O3'       22.2760   -9.7840    0.2650 O.3     6  U6         -0.3112
     88  C2'       20.7030   -9.0690   -1.4300 C.3     6  U6          0.2309
     89  O2'       21.7690   -9.2480   -2.3340 O.3     6  U6         -0.2156
     90  C1'       19.4520   -9.7430   -1.9970 C.3     6  U6          0.2420
     91  N1        18.2280   -9.0660   -1.5480 N.ar    6  U6         -0.2534
     92  C2        17.8330   -7.9620   -2.2720 C.ar    6  U6          0.3546
     93  O2        18.4850   -7.5380   -3.2100 O.2     6  U6         -0.2443
     94  N3        16.6620   -7.3790   -1.8480 N.ar    6  U6         -0.1530
     95  C4        15.8750   -7.7740   -0.7890 C.ar    6  U6          0.2846
     96  O4        14.8000   -7.1950   -0.5700 O.2     6  U6         -0.2650
     97  C5        16.3770   -8.9080   -0.0680 C.ar    6  U6          0.0814
     98  C6        17.5040   -9.5000   -0.4690 C.ar    6  U6          0.0870
     99  OP1       19.8680  -13.3980    3.1870 O.3     6  U6         -0.4373
    100  OP2       17.5710  -12.2730    3.0180 O.co2   6  U6         -0.5172
    101  P         22.6840   -8.6220    1.2860 P.3     7  G7          0.2141
    102  C5'       23.5390   -7.0290   -0.6280 C.3     7  G7          0.1812
    103  O5'       22.5840   -7.2980    0.4060 O.3     7  G7         -0.3114
    104  C4'       23.1670   -5.7540   -1.3580 C.3     7  G7          0.1773
    105  O4'       21.8630   -5.9250   -1.9810 O.3     7  G7         -0.3307
    106  C3'       22.9740   -4.5120   -0.4910 C.3     7  G7          0.1860
    107  O3'       24.2060   -3.8790   -0.1900 O.3     7  G7         -0.3112
    108  C2'       22.1390   -3.6340   -1.4090 C.3     7  G7          0.2309
    109  O2'       22.8950   -3.0900   -2.4560 O.3     7  G7         -0.2156
    110  C1'       21.1950   -4.6630   -2.0250 C.3     7  G7          0.2408
    111  N1        16.7260   -2.4530   -1.0610 N.ar    7  G7         -0.1709
    112  C2        17.7270   -2.0610   -1.9220 C.ar    7  G7          0.2606
    113  N2        17.5260   -0.9150   -2.5950 N.pl3   7  G7         -0.0859
    114  N3        18.8490   -2.7400   -2.1080 N.ar    7  G7         -0.1918
    115  C4        18.9040   -3.8520   -1.3340 C.ar    7  G7          0.1723
    116  C5        17.9680   -4.3260   -0.4440 C.ar    7  G7          0.1748
    117  C6        16.7560   -3.5990   -0.2680 C.ar    7  G7          0.3023
    118  O6        15.8020   -3.8670    0.4620 O.2     7  G7         -0.2633
    119  N7        18.4160   -5.4880    0.1690 N.ar    7  G7         -0.2173
    120  C8        19.5940   -5.6990   -0.3510 C.ar    7  G7          0.1817
    121  N9        19.9550   -4.7440   -1.2680 N.ar    7  G7         -0.2693
    122  OP1       24.1140   -8.8350    1.6520 O.2     7  G7         -0.5172
    123  OP2       21.6450   -8.5650    2.3400 O.co2   7  G7         -0.4373
    124  P         24.7150   -3.7950    1.3340 P.3     8  A8          0.2141
    125  C5'       24.9000   -1.1750    1.2740 C.3     8  A8          0.1812
    126  O5'       25.5600   -2.4490    1.3390 O.3     8  A8         -0.3114
    127  C4'       24.7760   -0.5990    2.6590 C.3     8  A8          0.1773
    128  O4'       26.0970   -0.6150    3.2690 O.3     8  A8         -0.3307
    129  C3'       24.3300    0.8560    2.7200 C.3     8  A8          0.1860
    130  O3'       22.9490    1.2350    2.7270 O.3     8  A8         -0.3112
    131  C2'       25.5050    1.6590    3.2740 C.3     8  A8          0.2309
    132  O2'       25.1240    2.6850    4.1700 O.3     8  A8         -0.2156
    133  C1'       26.2890    0.5690    4.0160 C.3     8  A8          0.2408
    134  N1        30.5110    1.4160    6.8320 N.ar    8  A8         -0.2040
    135  C2        29.2820    1.0020    7.1690 C.ar    8  A8          0.2016
    136  N3        28.2270    0.7640    6.3850 N.ar    8  A8         -0.2048
    137  C4        28.5410    0.9790    5.0980 C.ar    8  A8          0.1692
    138  C5        29.7630    1.3860    4.5970 C.ar    8  A8          0.1518
    139  C6        30.7840    1.6350    5.5290 C.ar    8  A8          0.1919
    140  N6        31.9880    2.0940    5.1960 N.pl3   8  A8         -0.1054
    141  N7        29.7210    1.4790    3.2130 N.ar    8  A8         -0.2193
    142  C8        28.4920    1.1540    2.9170 C.ar    8  A8          0.1816
    143  N9        27.7140    0.8700    4.0110 N.ar    8  A8         -0.2693
    144  OP1       25.6730   -4.9230    1.5570 O.2     8  A8         -0.5172
    145  OP2       23.5490   -3.6410    2.2450 O.co2   8  A8         -0.4373
    146  P         22.1210    1.2220    4.0960 P.3     9  A9          0.2141
    147  C5'       22.5550    3.2220    5.8020 C.3     9  A9          0.1812
    148  O5'       22.0120    2.7580    4.5340 O.3     9  A9         -0.3114
    149  C4'       22.5870    4.7400    5.8430 C.3     9  A9          0.1773
    150  O4'       23.4170    5.2270    4.7560 O.3     9  A9         -0.3307
    151  C3'       21.2380    5.4120    5.6410 C.3     9  A9          0.1860
    152  O3'       20.6080    5.6040    6.8970 O.3     9  A9         -0.3112
    153  C2'       21.6170    6.7580    5.0330 C.3     9  A9          0.2309
    154  O2'       22.0390    7.7020    5.9960 O.3     9  A9         -0.2156
    155  C1'       22.8270    6.3810    4.1800 C.3     9  A9          0.2408
    156  N1        22.4210    8.2600   -0.6240 N.ar    9  A9         -0.2040
    157  C2        22.7160    8.8430    0.5490 C.ar    9  A9          0.2016
    158  N3        22.7890    8.3040    1.7730 N.ar    9  A9         -0.2048
    159  C4        22.5140    6.9870    1.7270 C.ar    9  A9          0.1692
    160  C5        22.1860    6.2460    0.5960 C.ar    9  A9          0.1518
    161  C6        22.1380    6.9380   -0.6370 C.ar    9  A9          0.1919
    162  N6        21.8260    6.3580   -1.8080 N.pl3   9  A9         -0.1054
    163  N7        21.9680    4.9150    0.9290 N.ar    9  A9         -0.2193
    164  C8        22.1690    4.8750    2.2290 C.ar    9  A9          0.1816
    165  N9        22.5110    6.0930    2.7770 N.ar    9  A9         -0.2693
    166  OP1       22.9880    0.4660    5.0240 O.3     9  A9         -0.4373
    167  OP2       20.7980    0.7000    3.7420 O.co2   9  A9         -0.5172
    168  P         19.2610    4.8160    7.2480 P.3    10  G10         0.2141
    169  C5'       18.1150    6.9080    6.1110 C.3    10  G10         0.1812
    170  O5'       18.1600    5.4830    6.3080 O.3    10  G10        -0.3114
    171  C4'       16.7460    7.3130    5.6130 C.3    10  G10         0.1773
    172  O4'       16.4620    6.5860    4.3880 O.3    10  G10        -0.3307
    173  C3'       15.5980    6.9840    6.5520 C.3    10  G10         0.1860
    174  O3'       15.3920    8.0500    7.4840 O.3    10  G10        -0.3112
    175  C2'       14.4400    6.7890    5.5820 C.3    10  G10         0.2309
    176  O2'       13.9590    8.0210    5.0920 O.3    10  G10        -0.2156
    177  C1'       15.1410    6.0740    4.4270 C.3    10  G10         0.2408
    178  N1        12.6720    1.6770    5.2190 N.ar   10  G10        -0.1709
    179  C2        12.1620    2.9460    5.0740 C.ar   10  G10         0.2606
    180  N2        10.8370    3.0600    5.1600 N.pl3  10  G10        -0.0859
    181  N3        12.9010    4.0230    4.8620 N.ar   10  G10        -0.1918
    182  C4        14.2140    3.7290    4.8030 C.ar   10  G10         0.1723
    183  C5        14.8270    2.4980    4.9340 C.ar   10  G10         0.1748
    184  C6        14.0230    1.3500    5.1670 C.ar   10  G10         0.3023
    185  O6        14.3860    0.1690    5.3250 O.2    10  G10        -0.2633
    186  N7        16.2010    2.6160    4.8090 N.ar   10  G10        -0.2173
    187  C8        16.4040    3.8910    4.6130 C.ar   10  G10         0.1817
    188  N9        15.2430    4.6280    4.6040 N.ar   10  G10        -0.2693
    189  OP1       18.9090    5.0910    8.6660 O.3    10  G10        -0.4373
    190  OP2       19.4560    3.4110    6.7990 O.co2  10  G10        -0.5172
    191  P         14.6750    7.7660    8.8950 P.3    11  U11         0.2141
    192  C5'       12.1470    7.7800    8.1560 C.3    11  U11         0.1812
    193  O5'       13.3140    7.0280    8.5270 O.3    11  U11        -0.3114
    194  C4'       10.8900    6.9740    8.4070 C.3    11  U11         0.1773
    195  O4'       10.8870    5.8000    7.5590 O.3    11  U11        -0.3307
    196  C3'       10.6970    6.4190    9.8050 C.3    11  U11         0.1860
    197  O3'       10.1660    7.3990   10.6780 O.3    11  U11        -0.3112
    198  C2'        9.7230    5.2690    9.5620 C.3    11  U11         0.2309
    199  O2'        8.3740    5.6720    9.4120 O.3    11  U11        -0.2156
    200  C1'       10.2220    4.7350    8.2200 C.3    11  U11         0.2420
    201  N1        11.1630    3.6140    8.3590 N.ar   11  U11        -0.2534
    202  C2        10.6290    2.3680    8.6030 C.ar   11  U11         0.3546
    203  O2         9.4380    2.1710    8.7140 O.2    11  U11        -0.2443
    204  N3        11.5460    1.3540    8.7220 N.ar   11  U11        -0.1530
    205  C4        12.9160    1.4580    8.6210 C.ar   11  U11         0.2846
    206  O4        13.6020    0.4350    8.6740 O.2    11  U11        -0.2650
    207  C5        13.3940    2.7830    8.3770 C.ar   11  U11         0.0814
    208  C6        12.5200    3.7930    8.2550 C.ar   11  U11         0.0870
    209  OP1       14.3040    9.0810    9.4840 O.2    11  U11        -0.5172
    210  OP2       15.5390    6.8370    9.6660 O.co2  11  U11        -0.4373
    211  P         10.3510    7.2420   12.2630 P.3    12  G12         0.2141
    212  C5'        8.0500    6.0560   12.5420 C.3    12  G12         0.1812
    213  O5'        9.4730    5.9680   12.6040 O.3    12  G12        -0.3114
    214  C4'        7.4320    4.7770   13.0140 C.3    12  G12         0.1773
    215  O4'        7.7110    3.7170   12.0630 O.3    12  G12        -0.3307
    216  C3'        7.9990    4.2410   14.3120 C.3    12  G12         0.1860
    217  O3'        7.4620    4.9030   15.4530 O.3    12  G12        -0.3112
    218  C2'        7.5930    2.7790   14.2450 C.3    12  G12         0.2309
    219  O2'        6.2430    2.5800   14.6120 O.3    12  G12        -0.2156
    220  C1'        7.7860    2.4800   12.7530 C.3    12  G12         0.2408
    221  N1        10.4530   -1.8210   12.6290 N.ar   12  G12        -0.1709
    222  C2         9.1200   -1.6210   12.8790 C.ar   12  G12         0.2606
    223  N2         8.4070   -2.7180   13.1620 N.pl3  12  G12        -0.0859
    224  N3         8.5290   -0.4400   12.8590 N.ar   12  G12        -0.1918
    225  C4         9.3950    0.5490   12.5680 C.ar   12  G12         0.1723
    226  C5        10.7470    0.4640   12.3060 C.ar   12  G12         0.1748
    227  C6        11.3700   -0.8260   12.3270 C.ar   12  G12         0.3023
    228  O6        12.5560   -1.1270   12.1160 O.2    12  G12        -0.2633
    229  N7        11.2770    1.7230   12.0580 N.ar   12  G12        -0.2173
    230  C8        10.2610    2.5320   12.1780 C.ar   12  G12         0.1817
    231  N9         9.0930    1.8830   12.4970 N.ar   12  G12        -0.2693
    232  OP1        9.7150    8.4050   12.9250 O.3    12  G12        -0.4373
    233  OP2       11.7750    6.9420   12.5310 O.co2  12  G12        -0.5172
    234  P          8.2660    4.8620   16.8360 P.3    13  C13         0.2141
    235  C5'        7.0270    2.6950   17.6510 C.3    13  C13         0.1812
    236  O5'        8.2480    3.3280   17.2660 O.3    13  C13        -0.3114
    237  C4'        7.2440    1.2160   17.8770 C.3    13  C13         0.1773
    238  O4'        7.6630    0.5800   16.6390 O.3    13  C13        -0.3307
    239  C3'        8.3400    0.8200   18.8530 C.3    13  C13         0.1860
    240  O3'        7.9600    0.9540   20.2180 O.3    13  C13        -0.3112
    241  C2'        8.5700   -0.6310   18.4620 C.3    13  C13         0.2309
    242  O2'        7.5100   -1.4530   18.8960 O.3    13  C13        -0.2156
    243  C1'        8.5000   -0.5260   16.9380 C.3    13  C13         0.2420
    244  N1         9.8310   -0.2740   16.3770 N.ar   13  C13        -0.2535
    245  C2        10.6400   -1.3640   16.0890 C.ar   13  C13         0.3532
    246  O2        10.1980   -2.5030   16.2920 O.2    13  C13        -0.2443
    247  N3        11.8750   -1.1620   15.6030 N.ar   13  C13        -0.1739
    248  C4        12.3160    0.0770   15.4010 C.ar   13  C13         0.1759
    249  N4        13.5620    0.2250   14.9420 N.pl3  13  C13        -0.1070
    250  C5        11.5060    1.2160   15.6680 C.ar   13  C13         0.0566
    251  C6        10.2790    0.9970   16.1510 C.ar   13  C13         0.0850
    252  OP1        7.5100    5.6310   17.8470 O.3    13  C13        -0.4373
    253  OP2        9.6570    5.2460   16.5120 O.co2  13  C13        -0.5172
    254  P          9.0750    1.3810   21.3100 P.3    14  A14         0.2141
    255  C5'        9.2880   -1.0770   22.1850 C.3    14  A14         0.1812
    256  O5'        9.9010    0.0470   21.5570 O.3    14  A14        -0.3114
    257  C4'       10.1510   -2.3010   22.0140 C.3    14  A14         0.1773
    258  O4'       10.3400   -2.5670   20.5950 O.3    14  A14        -0.3307
    259  C3'       11.5780   -2.1860   22.5100 C.3    14  A14         0.1860
    260  O3'       11.7000   -2.3150   23.9130 O.3    14  A14        -0.3112
    261  C2'       12.2340   -3.3410   21.7750 C.3    14  A14         0.2309
    262  O2'       11.8650   -4.5910   22.3110 O.3    14  A14        -0.2156
    263  C1'       11.6020   -3.1860   20.3990 C.3    14  A14         0.2408
    264  N1        15.9600   -2.9350   17.7520 N.ar   14  A14        -0.2040
    265  C2        15.3670   -3.9190   18.4320 C.ar   14  A14         0.2016
    266  N3        14.2050   -3.9100   19.0900 N.ar   14  A14        -0.2048
    267  C4        13.6290   -2.7010   19.0140 C.ar   14  A14         0.1692
    268  C5        14.1110   -1.5900   18.3490 C.ar   14  A14         0.1518
    269  C6        15.3400   -1.7340   17.6780 C.ar   14  A14         0.1919
    270  N6        15.9240   -0.7550   16.9730 N.pl3  14  A14        -0.1054
    271  N7        13.2450   -0.5190   18.5000 N.ar   14  A14        -0.2193
    272  C8        12.2720   -1.0010   19.2390 C.ar   14  A14         0.1816
    273  N9        12.4430   -2.3140   19.5850 N.ar   14  A14        -0.2693
    274  OP1        8.3690    1.7380   22.5690 O.3    14  A14        -0.4373
    275  OP2        9.9950    2.3560   20.6810 O.co2  14  A14        -0.5172
    276  P         12.9290   -1.6020   24.6720 P.3    15  C15         0.2141
    277  C5'       14.5240   -3.6590   24.3570 C.3    15  C15         0.1812
    278  O5'       14.2460   -2.2810   24.0870 O.3    15  C15        -0.3114
    279  C4'       15.7880   -4.0980   23.6670 C.3    15  C15         0.1773
    280  O4'       15.6970   -3.8260   22.2470 O.3    15  C15        -0.3307
    281  C3'       17.0780   -3.3850   24.0160 C.3    15  C15         0.1860
    282  O3'       17.6180   -3.7900   25.2580 O.3    15  C15        -0.3112
    283  C2'       17.9770   -3.8560   22.8850 C.3    15  C15         0.2309
    284  O2'       18.4240   -5.1870   23.0690 O.3    15  C15        -0.2156
    285  C1'       17.0040   -3.8130   21.7060 C.3    15  C15         0.2420
    286  N1        17.2030   -2.5800   20.9380 N.ar   15  C15        -0.2535
    287  C2        18.3210   -2.5080   20.1400 C.ar   15  C15         0.3532
    288  O2        19.0970   -3.4770   20.1270 O.2    15  C15        -0.2443
    289  N3        18.5570   -1.3920   19.4170 N.ar   15  C15        -0.1739
    290  C4        17.7240   -0.3530   19.5090 C.ar   15  C15         0.1759
    291  N4        18.0260    0.7570   18.8100 N.pl3  15  C15        -0.1070
    292  C5        16.5580   -0.3990   20.3240 C.ar   15  C15         0.0566
    293  C6        16.3320   -1.5290   21.0140 C.ar   15  C15         0.0850
    294  OP1       12.7750   -2.0030   26.0890 O.3    15  C15        -0.4373
    295  OP2       12.9520   -0.1590   24.2990 O.co2  15  C15        -0.5172
    296  P         18.6230   -2.8120   26.0340 P.3    16  A16         0.2141
    297  C5'       20.8160   -3.8620   25.0740 C.3    16  A16         0.1812
    298  O5'       19.9200   -2.7500   25.1140 O.3    16  A16        -0.3114
    299  C4'       21.9320   -3.6190   24.0910 C.3    16  A16         0.1773
    300  O4'       21.3810   -3.3430   22.7820 O.3    16  A16        -0.3307
    301  C3'       22.8570   -2.4360   24.3280 C.3    16  A16         0.1860
    302  O3'       23.8310   -2.7360   25.3250 O.3    16  A16        -0.3112
    303  C2'       23.5110   -2.3170   22.9620 C.3    16  A16         0.2309
    304  O2'       24.4680   -3.3310   22.7590 O.3    16  A16        -0.2156
    305  C1'       22.3230   -2.5860   22.0360 C.3    16  A16         0.2408
    306  N1        22.7350    1.5120   18.9890 N.ar   16  A16        -0.2040
    307  C2        23.5080    0.4350   19.1620 C.ar   16  A16         0.2016
    308  N3        23.3240   -0.6110   19.9650 N.ar   16  A16        -0.2048
    309  C4        22.1810   -0.4830   20.6570 C.ar   16  A16         0.1692
    310  C5        21.2790    0.5560   20.5820 C.ar   16  A16         0.1518
    311  C6        21.5870    1.6040   19.6970 C.ar   16  A16         0.1919
    312  N6        20.8150    2.6790   19.5180 N.pl3  16  A16        -0.1054
    313  N7        20.2130    0.3400   21.4410 N.ar   16  A16        -0.2193
    314  C8        20.5000   -0.8030   22.0170 C.ar   16  A16         0.1816
    315  N9        21.6800   -1.3490   21.5960 N.ar   16  A16        -0.2693
    316  OP1       19.0050   -3.4790   27.3040 O.3    16  A16        -0.4373
    317  OP2       18.0080   -1.4550   26.0660 O.co2  16  A16        -0.5172
    318  P         24.4190   -1.5670   26.2600 P.3    17  C17         0.2141
    319  C5'       26.4490   -1.2120   24.6450 C.3    17  C17         0.1812
    320  O5'       25.2890   -0.6780   25.2740 O.3    17  C17        -0.3114
    321  C4'       27.0350   -0.1930   23.7110 C.3    17  C17         0.1773
    322  O4'       26.1260    0.0160   22.5980 O.3    17  C17        -0.3307
    323  C3'       27.1830    1.1980   24.3000 C.3    17  C17         0.1860
    324  O3'       28.3190    1.3480   25.1440 O.3    17  C17        -0.3112
    325  C2'       27.2450    2.0660   23.0530 C.3    17  C17         0.2309
    326  O2'       28.5120    2.0740   22.4270 O.3    17  C17        -0.2156
    327  C1'       26.2180    1.3650   22.1590 C.3    17  C17         0.2420
    328  N1        24.8950    1.9990   22.2590 N.ar   17  C17        -0.2535
    329  C2        24.6380    3.1180   21.4620 C.ar   17  C17         0.3532
    330  O2        25.5080    3.4940   20.6690 O.2    17  C17        -0.2443
    331  N3        23.4550    3.7590   21.5720 N.ar   17  C17        -0.1739
    332  C4        22.5380    3.3190   22.4290 C.ar   17  C17         0.1759
    333  N4        21.3900    4.0020   22.5120 N.pl3  17  C17        -0.1070
    334  C5        22.7570    2.1620   23.2430 C.ar   17  C17         0.0566
    335  C6        23.9400    1.5340   23.1210 C.ar   17  C17         0.0850
    336  OP1       25.3580   -2.2190   27.2070 O.3    17  C17        -0.4373
    337  OP2       23.3000   -0.7420   26.7790 O.co2  17  C17        -0.5172
    338  P         28.2670    2.4090   26.3590 P.3    18  A18         0.2141
    339  C5'       29.4550    4.2370   24.8810 C.3    18  A18         0.1812
    340  O5'       28.2870    3.8260   25.6200 O.3    18  A18        -0.3114
    341  C4'       29.2700    5.6220   24.3070 C.3    18  A18         0.1773
    342  O4'       28.2420    5.6040   23.2840 O.3    18  A18        -0.3307
    343  C3'       28.8100    6.7030   25.2700 C.3    18  A18         0.1860
    344  O3'       29.8970    7.2120   26.0450 O.3    18  A18        -0.3112
    345  C2'       28.2550    7.7440   24.3080 C.3    18  A18         0.2309
    346  O2'       29.3120    8.4430   23.6770 O.3    18  A18        -0.2156
    347  C1'       27.5580    6.8480   23.2770 C.3    18  A18         0.2408
    348  N1        22.7080    8.5280   22.8330 N.ar   18  A18        -0.2040
    349  C2        23.8760    9.0420   22.4360 C.ar   18  A18         0.2016
    350  N3        25.1090    8.5510   22.5780 N.ar   18  A18        -0.2048
    351  C4        25.0800    7.3790   23.2350 C.ar   18  A18         0.1692
    352  C5        23.9560    6.7260   23.7090 C.ar   18  A18         0.1518
    353  C6        22.7100    7.3440   23.4760 C.ar   18  A18         0.1919
    354  N6        21.5430    6.8210   23.8490 N.pl3  18  A18        -0.1054
    355  N7        24.3080    5.5400   24.3440 N.ar   18  A18        -0.2193
    356  C8        25.6160    5.5040   24.2370 C.ar   18  A18         0.1816
    357  N9        26.1480    6.5850   23.5740 N.ar   18  A18        -0.2693
    358  OP1       29.5310    2.2720   27.1130 O.3    18  A18        -0.4373
    359  OP2       26.9770    2.2490   27.0650 O.co2  18  A18        -0.5172
    360  P         29.6020    7.9830   27.4280 P.3    19  G19         0.2141
    361  C5'       29.6750   10.2870   26.1830 C.3    19  G19         0.1812
    362  O5'       28.9290    9.3480   26.9670 O.3    19  G19        -0.3114
    363  C4'       28.8360   11.5020   25.8900 C.3    19  G19         0.1773
    364  O4'       27.7870   11.1620   24.9470 O.3    19  G19        -0.3307
    365  C3'       28.0900   12.0700   27.0800 C.3    19  G19         0.1860
    366  O3'       28.9140   12.9280   27.8470 O.3    19  G19        -0.3112
    367  C2'       26.9710   12.8470   26.4140 C.3    19  G19         0.2309
    368  O2'       27.4190   14.0940   25.9350 O.3    19  G19        -0.2156
    369  C1'       26.6370   11.9350   25.2310 C.3    19  G19         0.2408
    370  N1        21.6180   11.3600   25.3530 N.ar   19  G19        -0.1709
    371  C2        22.3640   12.4460   24.9560 C.ar   19  G19         0.2606
    372  N2        21.6680   13.5250   24.5560 N.pl3  19  G19        -0.0859
    373  N3        23.6860   12.4720   24.9580 N.ar   19  G19        -0.1918
    374  C4        24.2070   11.3100   25.4050 C.ar   19  G19         0.1723
    375  C5        23.5500   10.1760   25.8260 C.ar   19  G19         0.1748
    376  C6        22.1370   10.1600   25.8140 C.ar   19  G19         0.3023
    377  O6        21.3780    9.2540   26.1500 O.2    19  G19        -0.2633
    378  N7        24.4540    9.1940   26.2050 N.ar   19  G19        -0.2173
    379  C8        25.6230    9.7460   26.0140 C.ar   19  G19         0.1817
    380  N9        25.5390   11.0290   25.5350 N.ar   19  G19        -0.2693
    381  OP1       30.9170    8.3180   28.0410 O.2    19  G19        -0.5172
    382  OP2       28.6180    7.1850   28.2020 O.co2  19  G19        -0.4373
    383  P         28.5040   13.2730   29.3560 P.3    20  C20         0.2141
    384  C5'       27.2440   15.4590   28.6480 C.3    20  C20         0.1812
    385  O5'       27.1900   14.1610   29.2300 O.3    20  C20        -0.3114
    386  C4'       25.8510   16.0190   28.4880 C.3    20  C20         0.1773
    387  O4'       25.0920   15.1960   27.5570 O.3    20  C20        -0.3307
    388  C3'       24.9880   16.0190   29.7340 C.3    20  C20         0.1860
    389  O3'       25.2870   17.0880   30.6190 O.3    20  C20        -0.3112
    390  C2'       23.5900   16.1210   29.1430 C.3    20  C20         0.2309
    391  O2'       23.2730   17.4230   28.7020 O.3    20  C20        -0.2156
    392  C1'       23.7180   15.2010   27.9290 C.3    20  C20         0.2420
    393  N1        23.3120   13.8260   28.2640 N.ar   20  C20        -0.2535
    394  C2        21.9680   13.4870   28.1440 C.ar   20  C20         0.3532
    395  O2        21.1760   14.3420   27.7430 O.2    20  C20        -0.2443
    396  N3        21.5640   12.2400   28.4700 N.ar   20  C20        -0.1739
    397  C4        22.4490   11.3420   28.9030 C.ar   20  C20         0.1759
    398  N4        21.9930   10.1290   29.2330 N.pl3  20  C20        -0.1070
    399  C5        23.8410   11.6520   29.0230 C.ar   20  C20         0.0566
    400  C6        24.2240   12.8980   28.6960 C.ar   20  C20         0.0850
    401  OP1       29.5910   14.1130   29.9140 O.2    20  C20        -0.5172
    402  OP2       28.1400   12.0060   30.0290 O.co2  20  C20        -0.4373
    403  P         24.9880   16.9200   32.1920 P.3    21  A21         0.2141
    404  C5'       22.6900   18.1790   32.0080 C.3    21  A21         0.1812
    405  O5'       23.3980   16.9640   32.2960 O.3    21  A21        -0.3114
    406  C4'       21.2000   17.9640   32.1010 C.3    21  A21         0.1773
    407  O4'       20.7810   17.0090   31.0930 O.3    21  A21        -0.3307
    408  C3'       20.6620   17.3820   33.3980 C.3    21  A21         0.1860
    409  O3'       20.4950   18.3660   34.4100 O.3    21  A21        -0.3112
    410  C2'       19.3150   16.8390   32.9510 C.3    21  A21         0.2309
    411  O2'       18.3580   17.8670   32.8020 O.3    21  A21        -0.2156
    412  C1'       19.6670   16.2700   31.5740 C.3    21  A21         0.2408
    413  N1        18.0930   11.3600   31.8580 N.ar   21  A21        -0.2040
    414  C2        17.4200   12.5190   31.8640 C.ar   21  A21         0.2016
    415  N3        17.8850   13.7640   31.7980 N.ar   21  A21        -0.2048
    416  C4        19.2250   13.7680   31.7250 C.ar   21  A21         0.1692
    417  C5        20.0550   12.6630   31.7150 C.ar   21  A21         0.1518
    418  C6        19.4390   11.3990   31.7780 C.ar   21  A21         0.1919
    419  N6        20.1110   10.2470   31.7550 N.pl3  21  A21        -0.1054
    420  N7        21.3860   13.0480   31.6330 N.ar   21  A21        -0.2193
    421  C8        21.3340   14.3560   31.5890 C.ar   21  A21         0.1816
    422  N9        20.0570   14.8600   31.6310 N.ar   21  A21        -0.2693
    423  OP1       25.5260   18.1110   32.9010 O.3    21  A21        -0.4373
    424  OP2       25.4580   15.5570   32.5880 O.co2  21  A21        -0.5172
    425  P         20.5560   17.9360   35.9600 P.3    22  A22         0.2141
    426  C5'       17.9620   17.6460   36.2470 C.3    22  A22         0.1812
    427  O5'       19.2600   17.0340   36.1730 O.3    22  A22        -0.3114
    428  C4'       16.8980   16.6040   36.4930 C.3    22  A22         0.1773
    429  O4'       16.8280   15.6990   35.3570 O.3    22  A22        -0.3307
    430  C3'       17.1460   15.6750   37.6670 C.3    22  A22         0.1860
    431  O3'       16.8260   16.2610   38.9200 O.3    22  A22        -0.3112
    432  C2'       16.2580   14.4910   37.3130 C.3    22  A22         0.2309
    433  O2'       14.8800   14.7360   37.5240 O.3    22  A22        -0.2156
    434  C1'       16.5200   14.3850   35.8120 C.3    22  A22         0.2408
    435  N1        18.1220    9.5480   35.1570 N.ar   22  A22        -0.2040
    436  C2        16.9130   10.0760   35.3760 C.ar   22  A22         0.2016
    437  N3        16.5630   11.3510   35.5280 N.ar   22  A22        -0.2048
    438  C4        17.6410   12.1510   35.4350 C.ar   22  A22         0.1692
    439  C5        18.9460   11.7590   35.2100 C.ar   22  A22         0.1518
    440  C6        19.1820   10.3780   35.0620 C.ar   22  A22         0.1919
    441  N6        20.3810    9.8460   34.8370 N.pl3  22  A22        -0.1054
    442  N7        19.7870   12.8610   35.1740 N.ar   22  A22        -0.2193
    443  C8        18.9840   13.8800   35.3750 C.ar   22  A22         0.1816
    444  N9        17.6720   13.5210   35.5470 N.ar   22  A22        -0.2693
    445  OP1       20.3490   19.1530   36.7810 O.3    22  A22        -0.4373
    446  OP2       21.7990   17.1230   36.1420 O.co2  22  A22        -0.5172
    447  P         17.6640   15.8360   40.2230 P.3    23  G23         0.2141
    448  C5'       15.8950   13.9740   40.8010 C.3    23  G23         0.1813
    449  O5'       17.2460   14.3170   40.4640 O.3    23  G23        -0.3114
    450  C4'       15.7280   12.4700   40.8320 C.3    23  G23         0.1801
    451  O4'       16.0390   11.9160   39.5250 O.3    23  G23        -0.3306
    452  C3'       16.6720   11.7000   41.7410 C.3    23  G23         0.2161
    453  O3'       16.3750   11.7750   43.1370 O.3    23  G23        -0.2175
    454  C2'       16.5520   10.2930   41.1820 C.3    23  G23         0.2337
    455  O2'       15.3720    9.6450   41.5890 O.3    23  G23        -0.2155
    456  C1'       16.4780   10.5750   39.6820 C.3    23  G23         0.2409
    457  N1        19.6460    7.2640   37.6040 N.ar   23  G23        -0.1709
    458  C2        18.3590    7.0960   38.0570 C.ar   23  G23         0.2606
    459  N2        17.8280    5.8710   37.9630 N.pl3  23  G23        -0.0859
    460  N3        17.6320    8.0630   38.5650 N.ar   23  G23        -0.1918
    461  C4        18.2830    9.2360   38.5740 C.ar   23  G23         0.1723
    462  C5        19.5550    9.5210   38.1430 C.ar   23  G23         0.1748
    463  C6        20.3440    8.4700   37.6120 C.ar   23  G23         0.3023
    464  O6        21.5090    8.5130   37.1910 O.2    23  G23        -0.2633
    465  N7        19.8410   10.8670   38.3190 N.ar   23  G23        -0.2173
    466  C8        18.7570   11.3590   38.8580 C.ar   23  G23         0.1817
    467  N9        17.7840   10.4150   39.0540 N.ar   23  G23        -0.2693
    468  OP1       17.1680   16.6510   41.3710 O.3    23  G23        -0.4373
    469  OP2       19.1090   15.8660   39.8570 O.co2  23  G23        -0.5172
    470  C5'       21.8110   -0.8760   34.0640 C.3     1  C1          0.2141
    471  O5'       22.4140    0.3070   33.5390 O.3     1  C1         -0.2176
    472  C4'       20.7700   -0.5080   35.0890 C.3     1  C1          0.1802
    473  O4'       21.3840    0.3160   36.1180 O.3     1  C1         -0.3306
    474  C3'       19.6270    0.3410   34.5580 C.3     1  C1          0.1861
    475  O3'       18.6290   -0.4770   33.9440 O.3     1  C1         -0.3112
    476  C2'       19.1430    1.0440   35.8210 C.3     1  C1          0.2309
    477  O2'       18.3650    0.1950   36.6320 O.3     1  C1         -0.2156
    478  C1'       20.4680    1.3160   36.5430 C.3     1  C1          0.2420
    479  N1        21.0620    2.6290   36.2330 N.ar    1  C1         -0.2535
    480  C2        20.5670    3.7670   36.8720 C.ar    1  C1          0.3532
    481  O2        19.6560    3.6420   37.6950 O.2     1  C1         -0.2443
    482  N3        21.0960    4.9740   36.5790 N.ar    1  C1         -0.1739
    483  C4        22.0830    5.0700   35.6910 C.ar    1  C1          0.1759
    484  N4        22.5630    6.2840   35.4180 N.pl3   1  C1         -0.1070
    485  C5        22.6190    3.9250   35.0340 C.ar    1  C1          0.0566
    486  C6        22.0810    2.7350   35.3300 C.ar    1  C1          0.0850
    487  P         17.7690    0.0950   32.7060 P.3     2  U2          0.2141
    488  C5'       15.7830    0.7050   34.3070 C.3     2  U2          0.1813
    489  O5'       16.7900    1.1370   33.3960 O.3     2  U2         -0.3114
    490  C4'       14.9790    1.8900   34.7780 C.3     2  U2          0.1801
    491  O4'       15.7890    2.7260   35.6480 O.3     2  U2         -0.3306
    492  C3'       14.5340    2.8520   33.6890 C.3     2  U2          0.2161
    493  O3'       13.3890    2.3950   32.9840 O.3     2  U2         -0.2175
    494  C2'       14.2500    4.1170   34.4880 C.3     2  U2          0.2338
    495  O2'       13.0250    4.0630   35.1840 O.3     2  U2         -0.2155
    496  C1'       15.3960    4.0860   35.4990 C.3     2  U2          0.2421
    497  N1        16.5580    4.8640   35.0440 N.ar    2  U2         -0.2534
    498  C2        16.5550    6.2110   35.3130 C.ar    2  U2          0.3546
    499  O2        15.6320    6.7610   35.8540 O.2     2  U2         -0.2443
    500  N3        17.6750    6.8870   34.9200 N.ar    2  U2         -0.1530
    501  C4        18.7820    6.3640   34.2950 C.ar    2  U2          0.2846
    502  O4        19.7380    7.0980   34.0390 O.2     2  U2         -0.2650
    503  C5        18.6980    4.9600   34.0230 C.ar    2  U2          0.0814
    504  C6        17.6090    4.2780   34.3950 C.ar    2  U2          0.0870
    505  OP1       16.9690   -1.0400   32.1530 O.3     2  U2         -0.4373
    506  OP2       18.6560    0.8650   31.7950 O.co2   2  U2         -0.5172
    507  P         11.0550    7.1250   28.3720 P.3     4  G4          0.1280
    508  C5'       10.8310    9.7310   28.4640 C.3     4  G4          0.1795
    509  O5'       11.6630    8.5890   28.2150 O.3     4  G4         -0.3259
    510  C4'       11.6250   10.9940   28.3470 C.3     4  G4          0.1772
    511  O4'       12.6690   10.9790   29.3410 O.3     4  G4         -0.3307
    512  C3'       12.3850   11.2140   27.0490 C.3     4  G4          0.1860
    513  O3'       11.5440   11.6930   26.0010 O.3     4  G4         -0.3112
    514  C2'       13.4030   12.2540   27.4800 C.3     4  G4          0.2309
    515  O2'       12.8440   13.5460   27.6190 O.3     4  G4         -0.2156
    516  C1'       13.7700   11.7320   28.8680 C.3     4  G4          0.2408
    517  N1        18.8040   11.6410   28.5550 N.ar    4  G4         -0.1709
    518  C2        17.9390   12.7060   28.5710 C.ar    4  G4          0.2606
    519  N2        18.4880   13.9210   28.4880 N.pl3   4  G4         -0.0859
    520  N3        16.6300   12.5900   28.6570 N.ar    4  G4         -0.1918
    521  C4        16.2390   11.3040   28.7220 C.ar    4  G4          0.1723
    522  C5        17.0110   10.1660   28.7050 C.ar    4  G4          0.1748
    523  C6        18.4210   10.3040   28.6110 C.ar    4  G4          0.3023
    524  O6        19.2750    9.4250   28.5660 O.2     4  G4         -0.2633
    525  N7        16.2130    9.0290   28.7870 N.ar    4  G4         -0.2173
    526  C8        14.9940    9.4960   28.8570 C.ar    4  G4          0.1817
    527  N9        14.9440   10.8690   28.8210 N.ar    4  G4         -0.2693
    528  OP1        9.7740    7.0520   27.6200 O.3     4  G4         -0.1955
    529  OP2       12.1270    6.1370   28.0890 O.co2   4  G4         -0.7863
    530  P         11.9610   11.4450   24.4660 P.3     5  C5          0.2141
    531  C5'       12.8960   13.8830   24.2660 C.3     5  C5          0.1812
    532  O5'       13.1420   12.4770   24.2150 O.3     5  C5         -0.3114
    533  C4'       14.1880   14.6420   24.0930 C.3     5  C5          0.1773
    534  O4'       15.0630   14.3530   25.2100 O.3     5  C5         -0.3307
    535  C3'       15.0120   14.2700   22.8730 C.3     5  C5          0.1860
    536  O3'       14.5590   14.9230   21.7000 O.3     5  C5         -0.3112
    537  C2'       16.4090   14.7140   23.2830 C.3     5  C5          0.2309
    538  O2'       16.6040   16.1080   23.1430 O.3     5  C5         -0.2156
    539  C1'       16.4100   14.3390   24.7670 C.3     5  C5          0.2420
    540  N1        16.9480   12.9960   25.0040 N.ar    5  C5         -0.2535
    541  C2        18.3230   12.8350   25.1510 C.ar    5  C5          0.3532
    542  O2        19.0530   13.8280   25.0680 O.2     5  C5         -0.2443
    543  N3        18.8270   11.5990   25.3680 N.ar    5  C5         -0.1739
    544  C4        18.0080   10.5510   25.4300 C.ar    5  C5          0.1759
    545  N4        18.5460    9.3490   25.6170 N.pl3   5  C5         -0.1070
    546  C5        16.6000   10.6860   25.2920 C.ar    5  C5          0.0566
    547  C6        16.1160   11.9160   25.0790 C.ar    5  C5          0.0850
    548  OP1       10.8000   11.8450   23.6100 O.2     5  C5         -0.5172
    549  OP2       12.5300   10.0830   24.3290 O.co2   5  C5         -0.4373
    550  P         14.6500   14.1610   20.2940 P.3     6  U6          0.2141
    551  C5'       17.0210   15.1880   19.8380 C.3     6  U6          0.1812
    552  O5'       16.2170   14.0220   20.0510 O.3     6  U6         -0.3114
    553  C4'       18.4930   14.8500   19.8830 C.3     6  U6          0.1773
    554  O4'       18.8460   14.3060   21.1820 O.3     6  U6         -0.3307
    555  C3'       19.0360   13.8080   18.9180 C.3     6  U6          0.1860
    556  O3'       19.2100   14.3120   17.5950 O.3     6  U6         -0.3112
    557  C2'       20.3810   13.5060   19.5610 C.3     6  U6          0.2309
    558  O2'       21.3160   14.5370   19.3320 O.3     6  U6         -0.2156
    559  C1'       20.0100   13.5020   21.0470 C.3     6  U6          0.2420
    560  N1        19.7340   12.1350   21.5260 N.ar    6  U6         -0.2534
    561  C2        20.8360   11.3480   21.8210 C.ar    6  U6          0.3546
    562  O2        21.9740   11.7710   21.7510 O.2     6  U6         -0.2443
    563  N3        20.5550   10.0570   22.2020 N.ar    6  U6         -0.1530
    564  C4        19.3050    9.4820   22.3210 C.ar    6  U6          0.2846
    565  O4        19.2160    8.2900   22.6080 O.2     6  U6         -0.2650
    566  C5        18.2120   10.3680   22.0310 C.ar    6  U6          0.0814
    567  C6        18.4590   11.6370   21.6550 C.ar    6  U6          0.0870
    568  OP1       14.0650   15.0310   19.2540 O.2     6  U6         -0.5172
    569  OP2       14.0830   12.8070   20.5210 O.co2   6  U6         -0.4373
    570  P         19.3980   13.2800   16.3620 P.3     7  G7          0.2141
    571  C5'       22.0060   13.4470   16.5030 C.3     7  G7          0.1812
    572  O5'       20.8340   12.6530   16.6190 O.3     7  G7         -0.3114
    573  C4'       23.2190   12.5900   16.7260 C.3     7  G7          0.1773
    574  O4'       23.1910   12.0490   18.0690 O.3     7  G7         -0.3307
    575  C3'       23.3110   11.3520   15.8520 C.3     7  G7          0.1860
    576  O3'       23.8240   11.6690   14.5650 O.3     7  G7         -0.3112
    577  C2'       24.2710   10.4800   16.6540 C.3     7  G7          0.2309
    578  O2'       25.6100   10.8970   16.5250 O.3     7  G7         -0.2156
    579  C1'       23.8290   10.7850   18.0860 C.3     7  G7          0.2408
    580  N1        23.2680    6.2540   20.3210 N.ar    7  G7         -0.1709
    581  C2        24.4170    6.8980   19.9350 C.ar    7  G7          0.2606
    582  N2        25.5590    6.2550   20.1760 N.pl3   7  G7         -0.0859
    583  N3        24.4400    8.0920   19.3490 N.ar    7  G7         -0.1918
    584  C4        23.2010    8.5920   19.1830 C.ar    7  G7          0.1723
    585  C5        21.9940    8.0280   19.5310 C.ar    7  G7          0.1748
    586  C6        21.9840    6.7530   20.1540 C.ar    7  G7          0.3023
    587  O6        21.0140    6.0950   20.5360 O.2     7  G7         -0.2633
    588  N7        20.9420    8.8660   19.1890 N.ar    7  G7         -0.2173
    589  C8        21.5180    9.9020   18.6460 C.ar    7  G7          0.1817
    590  N9        22.8870    9.8030   18.6150 N.ar    7  G7         -0.2693
    591  OP1       19.4520   14.0300   15.0810 O.2     7  G7         -0.5172
    592  OP2       18.3970   12.2030   16.5280 O.co2   7  G7         -0.4373
    593  P         22.9510   11.3340   13.2620 P.3     8  A8          0.2141
    594  C5'       24.4850    9.6000   12.0190 C.3     8  A8          0.1812
    595  O5'       24.0300   10.9620   12.1550 O.3     8  A8         -0.3114
    596  C4'       23.8730    8.9700   10.7870 C.3     8  A8          0.1773
    597  O4'       24.3600    9.6550    9.6080 O.3     8  A8         -0.3307
    598  C3'       24.2080    7.5000   10.5600 C.3     8  A8          0.1860
    599  O3'       23.2230    6.7090   11.2330 O.3     8  A8         -0.3112
    600  C2'       24.0380    7.3490    9.0520 C.3     8  A8          0.2309
    601  O2'       22.6880    7.2120    8.7140 O.3     8  A8         -0.2156
    602  C1'       24.4580    8.7340    8.5410 C.3     8  A8          0.2408
    603  N1        27.5320    7.2450    4.6890 N.ar    8  A8         -0.2040
    604  C2        26.2980    6.8590    5.0550 C.ar    8  A8          0.2016
    605  N3        25.5610    7.2610    6.0900 N.ar    8  A8         -0.2048
    606  C4        26.2300    8.1720    6.8240 C.ar    8  A8          0.1692
    607  C5        27.5010    8.6520    6.5870 C.ar    8  A8          0.1518
    608  C6        28.1690    8.1650    5.4470 C.ar    8  A8          0.1919
    609  N6        29.3800    8.5700    5.0710 N.pl3   8  A8         -0.1054
    610  N7        27.8600    9.5810    7.5530 N.ar    8  A8         -0.2193
    611  C8        26.8170    9.6460    8.3350 C.ar    8  A8          0.1816
    612  N9        25.7830    8.8400    7.9400 N.ar    8  A8         -0.2693
    613  OP1       22.2300   12.5690   12.8710 O.2     8  A8         -0.5172
    614  OP2       22.1850   10.1060   13.5520 O.co2   8  A8         -0.4373
    615  P         23.6560    5.3980   12.0560 P.3     9  A9          0.2141
    616  C5'       23.2650    3.6170   10.0930 C.3     9  A9          0.1812
    617  O5'       24.1880    4.3810   10.9330 O.3     9  A9         -0.3114
    618  C4'       24.0300    2.8080    9.0560 C.3     9  A9          0.1773
    619  O4'       24.6530    3.7050    8.0990 O.3     9  A9         -0.3307
    620  C3'       25.1920    1.9830    9.6020 C.3     9  A9          0.1860
    621  O3'       24.7540    0.7060   10.0440 O.3     9  A9         -0.3112
    622  C2'       26.0960    1.8230    8.3890 C.3     9  A9          0.2309
    623  O2'       25.7140    0.7580    7.5460 O.3     9  A9         -0.2156
    624  C1'       25.8800    3.1500    7.6590 C.3     9  A9          0.2408
    625  N1        30.0950    5.4140    5.7560 N.ar    9  A9         -0.2040
    626  C2        29.2730    4.4830    5.2540 C.ar    9  A9          0.2016
    627  N3        28.1980    3.9260    5.8000 N.ar    9  A9         -0.2048
    628  C4        27.9660    4.4400    7.0220 C.ar    9  A9          0.1692
    629  C5        28.7190    5.3990    7.6700 C.ar    9  A9          0.1518
    630  C6        29.8490    5.8890    6.9940 C.ar    9  A9          0.1919
    631  N6        30.6950    6.7870    7.5130 N.pl3   9  A9         -0.1054
    632  N7        28.1800    5.6850    8.9140 N.ar    9  A9         -0.2193
    633  C8        27.1370    4.9060    8.9970 C.ar    9  A9          0.1816
    634  N9        26.9450    4.1220    7.8870 N.ar    9  A9         -0.2693
    635  OP1       22.4050    4.8560   12.6660 O.2     9  A9         -0.5172
    636  OP2       24.7810    5.7640   12.9290 O.co2   9  A9         -0.4373
    637  P         24.2840    0.5100   11.5600 P.3    10  G10         0.2141
    638  C5'       25.8320   -1.6220   11.8740 C.3    10  G10         0.1812
    639  O5'       24.5090   -1.0470   11.8280 O.3    10  G10        -0.3114
    640  C4'       25.9200   -2.5780   13.0380 C.3    10  G10         0.1773
    641  O4'       26.0220   -1.8310   14.2810 O.3    10  G10        -0.3307
    642  C3'       24.6790   -3.4400   13.2130 C.3    10  G10         0.1860
    643  O3'       24.7120   -4.5830   12.3530 O.3    10  G10        -0.3112
    644  C2'       24.7350   -3.7740   14.6960 C.3    10  G10         0.2309
    645  O2'       25.7000   -4.7690   14.9990 O.3    10  G10        -0.2156
    646  C1'       25.2220   -2.4450   15.2760 C.3    10  G10         0.2408
    647  N1        20.8960   -1.6770   17.8050 N.ar   10  G10        -0.1709
    648  C2        21.7390   -2.7630   17.8450 C.ar   10  G10         0.2606
    649  N2        21.3810   -3.7820   18.6680 N.pl3  10  G10        -0.0859
    650  N3        22.8500   -2.8480   17.1480 N.ar   10  G10        -0.1918
    651  C4        23.0700   -1.7400   16.4160 C.ar   10  G10         0.1723
    652  C5        22.2960   -0.5980   16.3270 C.ar   10  G10         0.1748
    653  C6        21.1120   -0.5250   17.0570 C.ar   10  G10         0.3023
    654  O6        20.2970    0.3980   17.1010 O.2    10  G10        -0.2633
    655  N7        22.8700    0.3200   15.4640 N.ar   10  G10        -0.2173
    656  C8        23.9530   -0.2700   15.0380 C.ar   10  G10         0.1817
    657  N9        24.1290   -1.5270   15.5740 N.ar   10  G10        -0.2693
    658  OP1       22.8270    0.7870   11.6410 O.2    10  G10        -0.5172
    659  OP2       25.2140    1.2680   12.4030 O.co2  10  G10        -0.4373
    660  P         23.3610   -5.0770   11.6250 P.3    11  U11         0.2141
    661  C5'       23.0920   -6.8980   13.5160 C.3    11  U11         0.1812
    662  O5'       22.5280   -5.8000   12.7770 O.3    11  U11        -0.3114
    663  C4'       22.1180   -7.3760   14.5610 C.3    11  U11         0.1773
    664  O4'       21.9750   -6.3700   15.5940 O.3    11  U11        -0.3307
    665  C3'       20.7000   -7.5990   14.0660 C.3    11  U11         0.1860
    666  O3'       20.5470   -8.8700   13.4450 O.3    11  U11        -0.3112
    667  C2'       19.8970   -7.4990   15.3510 C.3    11  U11         0.2309
    668  O2'       19.9600   -8.6770   16.1170 O.3    11  U11        -0.2156
    669  C1'       20.6490   -6.3940   16.0930 C.3    11  U11         0.2420
    670  N1        20.0350   -5.0680   15.9230 N.ar   11  U11        -0.2534
    671  C2        18.8530   -4.8310   16.6040 C.ar   11  U11         0.3546
    672  O2        18.3260   -5.6610   17.3150 O.2    11  U11        -0.2443
    673  N3        18.3030   -3.5870   16.4170 N.ar   11  U11        -0.1530
    674  C4        18.8030   -2.5750   15.6340 C.ar   11  U11         0.2846
    675  O4        18.1870   -1.5140   15.5670 O.2    11  U11        -0.2650
    676  C5        20.0320   -2.8890   14.9560 C.ar   11  U11         0.0814
    677  C6        20.5930   -4.0970   15.1200 C.ar   11  U11         0.0870
    678  OP1       23.7400   -6.0910   10.6020 O.2    11  U11        -0.5172
    679  OP2       22.5730   -3.8950   11.2140 O.co2  11  U11        -0.4373
    680  P         19.4290   -9.0750   12.3110 P.3    12  G12         0.2141
    681  C5'       17.8840  -10.2200   14.1040 C.3    12  G12         0.1812
    682  O5'       18.0610   -9.2070   13.1060 O.3    12  G12        -0.3114
    683  C4'       16.5950   -9.9820   14.8410 C.3    12  G12         0.1773
    684  O4'       16.7120   -8.7710   15.6370 O.3    12  G12        -0.3307
    685  C3'       15.4150   -9.6980   13.9360 C.3    12  G12         0.1860
    686  O3'       14.8370  -10.8790   13.4050 O.3    12  G12        -0.3112
    687  C2'       14.4750   -8.9290   14.8500 C.3    12  G12         0.2309
    688  O2'       13.7400   -9.7610   15.7140 O.3    12  G12        -0.2156
    689  C1'       15.4670   -8.0970   15.6650 C.3    12  G12         0.2408
    690  N1        13.4840   -3.4710   15.2890 N.ar   12  G12        -0.1709
    691  C2        12.9880   -4.5960   15.9080 C.ar   12  G12         0.2606
    692  N2        11.7980   -4.4680   16.5180 N.pl3  12  G12        -0.0859
    693  N3        13.6120   -5.7590   15.9290 N.ar   12  G12        -0.1918
    694  C4        14.7810   -5.7160   15.2670 C.ar   12  G12         0.1723
    695  C5        15.3640   -4.6550   14.6120 C.ar   12  G12         0.1748
    696  C6        14.6930   -3.4010   14.6100 C.ar   12  G12         0.3023
    697  O6        15.0530   -2.3280   14.1040 O.2    12  G12        -0.2633
    698  N7        16.5760   -5.0320   14.0490 N.ar   12  G12        -0.2173
    699  C8        16.7050   -6.2860   14.3810 C.ar   12  G12         0.1817
    700  N9        15.6500   -6.7570   15.1220 N.ar   12  G12        -0.2693
    701  OP1       19.7150  -10.3570   11.6140 O.3    12  G12        -0.4373
    702  OP2       19.3390   -7.8140   11.5260 O.co2  12  G12        -0.5172
    703  P         14.0220  -10.8000   12.0300 P.3    13  C13         0.2141
    704  C5'       11.5460  -10.8380   12.9320 C.3    13  C13         0.1812
    705  O5'       12.6550  -10.0790   12.4170 O.3    13  C13        -0.3114
    706  C4'       10.3220   -9.9650   13.0730 C.3    13  C13         0.1773
    707  O4'       10.6240   -8.8820   13.9940 O.3    13  C13        -0.3307
    708  C3'        9.8310   -9.2380   11.8290 C.3    13  C13         0.1860
    709  O3'        9.0560  -10.0360   10.9450 O.3    13  C13        -0.3112
    710  C2'        9.0150   -8.1060   12.4320 C.3    13  C13         0.2309
    711  O2'        7.7370   -8.5030   12.8930 O.3    13  C13        -0.2156
    712  C1'        9.9110   -7.7120   13.6060 C.3    13  C13         0.2420
    713  N1        10.8900   -6.7250   13.1370 N.ar   13  C13        -0.2535
    714  C2        10.5140   -5.3960   13.0800 C.ar   13  C13         0.3532
    715  O2         9.3880   -5.0890   13.4620 O.2    13  C13        -0.2443
    716  N3        11.3880   -4.4780   12.6120 N.ar   13  C13        -0.1739
    717  C4        12.6090   -4.8600   12.2190 C.ar   13  C13         0.1759
    718  N4        13.4480   -3.9250   11.7580 N.pl3  13  C13        -0.1070
    719  C5        13.0240   -6.2160   12.2800 C.ar   13  C13         0.0566
    720  C6        12.1410   -7.1090   12.7450 C.ar   13  C13         0.0850
    721  OP1       13.7070  -12.1840   11.6060 O.3    13  C13        -0.4373
    722  OP2       14.7940   -9.9100   11.1210 O.co2  13  C13        -0.5172
    723  P          9.3260   -9.9460    9.3630 P.3    14  A14         0.2141
    724  C5'        7.1330   -8.5380    9.1020 C.3    14  A14         0.1812
    725  O5'        8.5350   -8.6470    8.8920 O.3    14  A14        -0.3114
    726  C4'        6.7400   -7.0920    9.2080 C.3    14  A14         0.1773
    727  O4'        7.6080   -6.4500   10.1840 O.3    14  A14        -0.3307
    728  C3'        6.9500   -6.2090    7.9890 C.3    14  A14         0.1860
    729  O3'        5.9530   -6.3870    6.9790 O.3    14  A14        -0.3112
    730  C2'        6.8540   -4.8330    8.6320 C.3    14  A14         0.2309
    731  O2'        5.5310   -4.5070    8.9940 O.3    14  A14        -0.2156
    732  C1'        7.6530   -5.0550    9.9170 C.3    14  A14         0.2408
    733  N1        10.7250   -1.0550    9.0870 N.ar   14  A14        -0.2040
    734  C2         9.4030   -1.1620    9.2950 C.ar   14  A14         0.2016
    735  N3         8.6750   -2.2460    9.5340 N.ar   14  A14        -0.2048
    736  C4         9.4490   -3.3430    9.5410 C.ar   14  A14         0.1692
    737  C5        10.8170   -3.3970    9.3470 C.ar   14  A14         0.1518
    738  C6        11.4760   -2.1760    9.1210 C.ar   14  A14         0.1919
    739  N6        12.7970   -2.0640    8.9510 N.pl3  14  A14        -0.1054
    740  N7        11.2700   -4.7070    9.4150 N.ar   14  A14        -0.2193
    741  C8        10.1840   -5.4040    9.6550 C.ar   14  A14         0.1816
    742  N9         9.0430   -4.6420    9.7250 N.ar   14  A14        -0.2693
    743  OP1        8.6950  -11.1450    8.7540 O.2    14  A14        -0.5172
    744  OP2       10.7730   -9.6830    9.1360 O.co2  14  A14        -0.4373
    745  P          6.3280   -6.1230    5.4290 P.3    15  C15         0.2141
    746  C5'        5.2800   -3.7400    5.4260 C.3    15  C15         0.1812
    747  O5'        6.4490   -4.5400    5.3070 O.3    15  C15        -0.3114
    748  C4'        5.6160   -2.2880    5.2960 C.3    15  C15         0.1773
    749  O4'        6.5690   -1.9300    6.3220 O.3    15  C15        -0.3307
    750  C3'        6.3200   -1.8590    4.0290 C.3    15  C15         0.1860
    751  O3'        5.4230   -1.7720    2.9260 O.3    15  C15        -0.3112
    752  C2'        6.8810   -0.5080    4.4540 C.3    15  C15         0.2309
    753  O2'        5.9050    0.5160    4.5110 O.3    15  C15        -0.2156
    754  C1'        7.3420   -0.8270    5.8780 C.3    15  C15         0.2420
    755  N1         8.7550   -1.2140    5.8970 N.ar   15  C15        -0.2535
    756  C2         9.7050   -0.2190    5.7540 C.ar   15  C15         0.3532
    757  O2         9.3200    0.9510    5.6830 O.2    15  C15        -0.2443
    758  N3        11.0140   -0.5470    5.7040 N.ar   15  C15        -0.1739
    759  C4        11.3820   -1.8260    5.8180 C.ar   15  C15         0.1759
    760  N4        12.6850   -2.1120    5.7470 N.pl3  15  C15        -0.1070
    761  C5        10.4270   -2.8700    6.0040 C.ar   15  C15         0.0566
    762  C6         9.1340   -2.5210    6.0330 C.ar   15  C15         0.0850
    763  OP1        5.1440   -6.5170    4.6150 O.2    15  C15        -0.5172
    764  OP2        7.6540   -6.7430    5.1480 O.co2  15  C15        -0.4373
    765  P          5.9720   -2.0140    1.4300 P.3    16  A16         0.2141
    766  C5'        6.1950    0.5880    1.3240 C.3    16  A16         0.1812
    767  O5'        6.8010   -0.6920    1.1260 O.3    16  A16        -0.3114
    768  C4'        7.2320    1.6640    1.2180 C.3    16  A16         0.1773
    769  O4'        8.1840    1.5490    2.3060 O.3    16  A16        -0.3307
    770  C3'        8.0910    1.5600   -0.0220 C.3    16  A16         0.1860
    771  O3'        7.4210    2.1390   -1.1320 O.3    16  A16        -0.3112
    772  C2'        9.3320    2.3430    0.3780 C.3    16  A16         0.2309
    773  O2'        9.1140    3.7290    0.2580 O.3    16  A16        -0.2156
    774  C1'        9.4670    1.9610    1.8580 C.3    16  A16         0.2408
    775  N1        14.3860    0.5020    1.9620 N.ar   16  A16        -0.2040
    776  C2        13.7990    1.6800    1.6930 C.ar   16  A16         0.2016
    777  N3        12.5120    1.9940    1.6910 N.ar   16  A16        -0.2048
    778  C4        11.7670    0.9240    2.0050 C.ar   16  A16         0.1692
    779  C5        12.2230   -0.3510    2.3000 C.ar   16  A16         0.1518
    780  C6        13.6070   -0.5510    2.2760 C.ar   16  A16         0.1919
    781  N6        14.1890   -1.7170    2.5440 N.pl3  16  A16        -0.1054
    782  N7        11.1620   -1.2050    2.5640 N.ar   16  A16        -0.2193
    783  C8        10.1060   -0.4370    2.4330 C.ar   16  A16         0.1816
    784  N9        10.4010    0.8610    2.0920 N.ar   16  A16        -0.2693
    785  OP1        4.8030   -1.9980    0.5120 O.2    16  A16        -0.5172
    786  OP2        6.8860   -3.1840    1.4350 O.co2  16  A16        -0.4373
    787  P          7.7150    1.5830   -2.5990 P.3    17  C17         0.2141
    788  C5'        9.6950    3.2500   -3.0080 C.3    17  C17         0.1812
    789  O5'        9.2520    1.9030   -2.8380 O.3    17  C17        -0.3114
    790  C4'       11.1710    3.2740   -3.2760 C.3    17  C17         0.1773
    791  O4'       11.8950    2.8960   -2.0810 O.3    17  C17        -0.3307
    792  C3'       11.6500    2.2780   -4.3120 C.3    17  C17         0.1860
    793  O3'       11.4410    2.7480   -5.6300 O.3    17  C17        -0.3112
    794  C2'       13.1250    2.1590   -3.9740 C.3    17  C17         0.2309
    795  O2'       13.8680    3.2610   -4.4560 O.3    17  C17        -0.2156
    796  C1'       13.0730    2.1920   -2.4470 C.3    17  C17         0.2420
    797  N1        12.9960    0.8390   -1.8730 N.ar   17  C17        -0.2535
    798  C2        14.1880    0.1510   -1.6400 C.ar   17  C17         0.3532
    799  O2        15.2600    0.7000   -1.9380 O.2    17  C17        -0.2443
    800  N3        14.1440   -1.0870   -1.1080 N.ar   17  C17        -0.1739
    801  C4        12.9670   -1.6430   -0.8110 C.ar   17  C17         0.1759
    802  N4        12.9750   -2.8590   -0.2530 N.pl3  17  C17        -0.1070
    803  C5        11.7310   -0.9720   -1.0580 C.ar   17  C17         0.0566
    804  C6        11.7940    0.2610   -1.5830 C.ar   17  C17         0.0850
    805  OP1        6.9120    2.3870   -3.5590 O.2    17  C17        -0.5172
    806  OP2        7.5570    0.1110   -2.5350 O.co2  17  C17        -0.4373
    807  P         11.1960    1.6950   -6.8160 P.3    18  A18         0.2141
    808  C5'       13.7460    1.6710   -7.4620 C.3    18  A18         0.1812
    809  O5'       12.5960    0.9570   -6.9810 O.3    18  A18        -0.3114
    810  C4'       14.9590    0.7730   -7.4510 C.3    18  A18         0.1773
    811  O4'       15.3060    0.4450   -6.0810 O.3    18  A18        -0.3307
    812  C3'       14.7970   -0.5900   -8.1030 C.3    18  A18         0.1860
    813  O3'       14.9360   -0.5390   -9.5180 O.3    18  A18        -0.3112
    814  C2'       15.9560   -1.3510   -7.4870 C.3    18  A18         0.2309
    815  O2'       17.1670   -0.9600   -8.1000 O.3    18  A18        -0.2156
    816  C1'       15.9110   -0.8420   -6.0430 C.3    18  A18         0.2408
    817  N1        15.7730   -5.2060   -3.3260 N.ar   18  A18        -0.2040
    818  C2        16.7260   -4.6460   -4.0710 C.ar   18  A18         0.2016
    819  N3        16.7080   -3.4990   -4.7410 N.ar   18  A18        -0.2048
    820  C4        15.5240   -2.8880   -4.5940 C.ar   18  A18         0.1692
    821  C5        14.4500   -3.3360   -3.8470 C.ar   18  A18         0.1518
    822  C6        14.6000   -4.5600   -3.1870 C.ar   18  A18         0.1919
    823  N6        13.6600   -5.1150   -2.4370 N.pl3  18  A18        -0.1054
    824  N7        13.4040   -2.4340   -3.9100 N.ar   18  A18        -0.2193
    825  C8        13.8560   -1.4850   -4.6930 C.ar   18  A18         0.1816
    826  N9        15.1250   -1.6980   -5.1480 N.ar   18  A18        -0.2693
    827  OP1       10.9500    2.4970   -8.0510 O.2    18  A18        -0.5172
    828  OP2       10.1920    0.7080   -6.3710 O.co2  18  A18        -0.4373
    829  P         14.2260   -1.6630  -10.4270 P.3    19  G19         0.2141
    830  C5'       16.3430   -3.2170  -10.6480 C.3    19  G19         0.1812
    831  O5'       15.0260   -3.0160  -10.1290 O.3    19  G19        -0.3114
    832  C4'       16.9840   -4.4590  -10.0420 C.3    19  G19         0.1773
    833  O4'       16.9280   -4.4010   -8.5820 O.3    19  G19        -0.3307
    834  C3'       16.3830   -5.8260  -10.3490 C.3    19  G19         0.1860
    835  O3'       16.7950   -6.2660  -11.6400 O.3    19  G19        -0.3112
    836  C2'       17.0540   -6.6640   -9.2650 C.3    19  G19         0.2309
    837  O2'       18.4280   -6.8120   -9.5420 O.3    19  G19        -0.2156
    838  C1'       16.9820   -5.7220   -8.0660 C.3    19  G19         0.2408
    839  N1        15.0330   -8.7590   -4.5160 N.ar   19  G19        -0.1709
    840  C2        16.2500   -8.8130   -5.1390 C.ar   19  G19         0.2606
    841  N2        17.0460   -9.8260   -4.7690 N.pl3  19  G19        -0.0859
    842  N3        16.6530   -7.9450   -6.0590 N.ar   19  G19        -0.1918
    843  C4        15.7060   -7.0110   -6.3180 C.ar   19  G19         0.1723
    844  C5        14.4590   -6.8730   -5.7540 C.ar   19  G19         0.1748
    845  C6        14.0530   -7.8050   -4.7540 C.ar   19  G19         0.3023
    846  O6        13.0020   -7.8440   -4.1130 O.2    19  G19        -0.2633
    847  N7        13.7920   -5.7790   -6.2970 N.ar   19  G19        -0.2173
    848  C8        14.6340   -5.2830   -7.1660 C.ar   19  G19         0.1817
    849  N9        15.8170   -5.9810   -7.2250 N.ar   19  G19        -0.2693
    850  OP1       14.4530   -1.2740  -11.8420 O.2    19  G19        -0.5172
    851  OP2       12.8440   -1.8760   -9.9280 O.co2  19  G19        -0.4373
    852  P         15.9520   -7.4040  -12.4260 P.3    20  C20         0.2141
    853  C5'       17.7480   -9.1660  -11.6600 C.3    20  C20         0.1812
    854  O5'       16.3780   -8.7710  -11.7310 O.3    20  C20        -0.3114
    855  C4'       17.8750  -10.3800  -10.7810 C.3    20  C20         0.1773
    856  O4'       17.5310  -10.0410   -9.4150 O.3    20  C20        -0.3307
    857  C3'       16.8790  -11.4650  -11.1200 C.3    20  C20         0.1860
    858  O3'       17.2840  -12.1880  -12.2670 O.3    20  C20        -0.3112
    859  C2'       16.8310  -12.2710   -9.8310 C.3    20  C20         0.2309
    860  O2'       17.9430  -13.1230   -9.6410 O.3    20  C20        -0.2156
    861  C1'       16.9130  -11.1550   -8.7950 C.3    20  C20         0.2420
    862  N1        15.6000  -10.7470   -8.3110 N.ar   20  C20        -0.2535
    863  C2        15.0240  -11.4790   -7.2750 C.ar   20  C20         0.3532
    864  O2        15.6350  -12.4640   -6.8330 O.2    20  C20        -0.2443
    865  N3        13.8260  -11.1020   -6.7820 N.ar   20  C20        -0.1739
    866  C4        13.2100  -10.0310   -7.2870 C.ar   20  C20         0.1759
    867  N4        12.0510   -9.6690   -6.7450 N.pl3  20  C20        -0.1070
    868  C5        13.7640   -9.2790   -8.3640 C.ar   20  C20         0.0566
    869  C6        14.9480   -9.6700   -8.8450 C.ar   20  C20         0.0850
    870  OP1       16.4700   -7.3910  -13.8080 O.2    20  C20        -0.5172
    871  OP2       14.5130   -7.2700  -12.1690 O.co2  20  C20        -0.4373
    872  P         16.2030  -13.0630  -13.0640 P.3    21  A21         0.2141
    873  C5'       15.0210  -15.2490  -12.3350 C.3    21  A21         0.1812
    874  O5'       16.1110  -14.3760  -12.1770 O.3    21  A21        -0.3114
    875  C4'       14.9490  -16.2120  -11.1920 C.3    21  A21         0.1773
    876  O4'       15.1160  -15.5280   -9.9260 O.3    21  A21        -0.3307
    877  C3'       13.5680  -16.8140  -11.1310 C.3    21  A21         0.1860
    878  O3'       13.4940  -17.8910  -12.0340 O.3    21  A21        -0.3112
    879  C2'       13.4220  -17.1710   -9.6650 C.3    21  A21         0.2309
    880  O2'       14.1100  -18.3680   -9.3570 O.3    21  A21        -0.2156
    881  C1'       14.1180  -15.9680   -9.0170 C.3    21  A21         0.2408
    882  N1        10.1890  -14.0570   -6.2710 N.ar   21  A21        -0.2040
    883  C2        10.7650  -15.2650   -6.2840 C.ar   21  A21         0.2016
    884  N3        11.7670  -15.7150   -7.0430 N.ar   21  A21        -0.2048
    885  C4        12.1920  -14.7550   -7.8790 C.ar   21  A21         0.1692
    886  C5        11.6910  -13.4690   -7.9890 C.ar   21  A21         0.1518
    887  C6        10.6380  -13.1180   -7.1320 C.ar   21  A21         0.1919
    888  N6        10.0630  -11.9170   -7.1190 N.pl3  21  A21        -0.1054
    889  N7        12.3740  -12.7580   -8.9650 N.ar   21  A21        -0.2193
    890  C8        13.2670  -13.6110   -9.4070 C.ar   21  A21         0.1816
    891  N9        13.2240  -14.8340   -8.7810 N.ar   21  A21        -0.2693
    892  OP1       16.7780  -13.4220  -14.3880 O.2    21  A21        -0.5172
    893  OP2       14.8780  -12.3900  -13.0010 O.co2  21  A21        -0.4373
    894  P         12.4270  -17.8360  -13.2180 P.3    22  A22         0.2141
    895  C5'       11.2460  -19.6750  -11.7710 C.3    22  A22         0.1812
    896  O5'       11.1350  -18.4680  -12.5390 O.3    22  A22        -0.3114
    897  C4'       10.1610  -19.7370  -10.7290 C.3    22  A22         0.1773
    898  O4'       10.4030  -18.7640   -9.6780 O.3    22  A22        -0.3307
    899  C3'        8.7730  -19.3750  -11.2190 C.3    22  A22         0.1860
    900  O3'        8.1680  -20.4070  -11.9740 O.3    22  A22        -0.3112
    901  C2'        8.0540  -19.0680   -9.9150 C.3    22  A22         0.2309
    902  O2'        7.6820  -20.2270   -9.1990 O.3    22  A22        -0.2156
    903  C1'        9.1540  -18.3210   -9.1560 C.3    22  A22         0.2408
    904  N1         6.7680  -14.0160   -7.7170 N.ar   22  A22        -0.2040
    905  C2         6.6760  -15.2860   -7.2970 C.ar   22  A22         0.2016
    906  N3         7.3370  -16.3640   -7.7180 N.ar   22  A22        -0.2048
    907  C4         8.1930  -16.0400   -8.7040 C.ar   22  A22         0.1692
    908  C5         8.4010  -14.7850   -9.2420 C.ar   22  A22         0.1518
    909  C6         7.6400  -13.7270   -8.7060 C.ar   22  A22         0.1919
    910  N6         7.7370  -12.4630   -9.1200 N.pl3  22  A22        -0.1054
    911  N7         9.3650  -14.8340  -10.2400 N.ar   22  A22        -0.2193
    912  C8         9.7130  -16.0990  -10.2810 C.ar   22  A22         0.1816
    913  N9         9.0410  -16.8830   -9.3790 N.ar   22  A22        -0.2693
    914  OP1       12.9060  -18.7270  -14.3100 O.2    22  A22        -0.5172
    915  OP2       12.1680  -16.3990  -13.5040 O.co2  22  A22        -0.4373
    916  P          7.2840  -20.0160  -13.2570 P.3    23  G23         0.2141
    917  C5'        5.2790  -20.2120  -11.5660 C.3    23  G23         0.1813
    918  O5'        5.9230  -19.4830  -12.6200 O.3    23  G23        -0.3114
    919  C4'        4.3300  -19.3140  -10.8090 C.3    23  G23         0.1801
    920  O4'        5.0490  -18.1740  -10.2750 O.3    23  G23        -0.3306
    921  C3'        3.2430  -18.6350  -11.6200 C.3    23  G23         0.2161
    922  O3'        2.1950  -19.5120  -12.0590 O.3    23  G23        -0.2175
    923  C2'        2.7890  -17.5450  -10.6550 C.3    23  G23         0.2337
    924  O2'        1.9470  -18.0460   -9.6380 O.3    23  G23        -0.2155
    925  C1'        4.1230  -17.1240  -10.0250 C.3    23  G23         0.2409
    926  N1         3.9320  -12.0360   -9.9560 N.ar   23  G23        -0.1709
    927  C2         3.2310  -12.9420   -9.1960 C.ar   23  G23         0.2606
    928  N2         2.3600  -12.4190   -8.3100 N.pl3  23  G23        -0.0859
    929  N3         3.3700  -14.2610   -9.2960 N.ar   23  G23        -0.1918
    930  C4         4.2840  -14.6020  -10.2360 C.ar   23  G23         0.1723
    931  C5         5.0380  -13.7730  -11.0450 C.ar   23  G23         0.1748
    932  C6         4.8750  -12.3650  -10.9280 C.ar   23  G23         0.3023
    933  O6         5.4460  -11.4700  -11.5650 O.2    23  G23        -0.2633
    934  N7         5.8690  -14.5140  -11.8760 N.ar   23  G23        -0.2173
    935  C8         5.6110  -15.7580  -11.5680 C.ar   23  G23         0.1817
    936  N9         4.6540  -15.8840  -10.5850 N.ar   23  G23        -0.2693
    937  OP1        7.0060  -21.2490  -14.0430 O.2    23  G23        -0.5172
    938  OP2        7.9610  -18.8720  -13.9160 O.co2  23  G23        -0.4373
@<TRIPOS>BOND
     1   892   872    2
     2   914   894    2
     3   937   916    2
     4   938   916    1
     5   870   852    2
     6   915   894    1
     7   916   918    1
     8   916   900    1
     9   894   896    1
    10   894   878    1
    11   872   893    1
    12   872   858    1
    13   872   874    1
    14   918   917    1
    15   896   895    1
    16   852   871    1
    17   852   854    1
    18   852   835    1
    19   873   874    1
    20   873   875    1
    21   858   857    1
    22   922   921    1
    23   878   877    1
    24   900   899    1
    25   934   935   ar
    26   934   931   ar
    27   850   829    2
    28   895   897    1
    29   854   853    1
    30   853   855    1
    31   835   834    1
    32   921   919    1
    33   921   923    1
    34   935   936   ar
    35   917   919    1
    36   933   932    2
    37   899   897    1
    38   899   901    1
    39   875   877    1
    40   875   876    1
    41   877   879    1
    42   857   855    1
    43   857   859    1
    44   931   932   ar
    45   931   930   ar
    46   932   926   ar
    47   919   920    1
    48   855   856    1
    49   897   898    1
    50   923   925    1
    51   923   924    1
    52   830   831    1
    53   830   832    1
    54   936   930   ar
    55   936   925    1
    56    15    14    1
    57   829   831    1
    58   829   851    1
    59   829   813    1
    60   834   832    1
    61   834   836    1
    62   912   911   ar
    63   912   913   ar
    64   920   925    1
    65   911   908   ar
    66   930   929   ar
    67   832   833    1
    68   926   927   ar
    69   876   881    1
    70   901   902    1
    71   901   903    1
    72   859   860    1
    73   859   861    1
    74    14    13   ar
    75    14    16   ar
    76   898   903    1
    77   879   880    1
    78   879   881    1
    79   837   836    1
    80   813   812    1
    81    13    11   ar
    82   856   861    1
    83   890   889   ar
    84   890   891   ar
    85   913   903    1
    86   913   907   ar
    87    16    17   ar
    88   929   927   ar
    89   836   838    1
    90   908   909   ar
    91   908   907   ar
    92   927   928    1
    93   910   909    1
    94   881   891    1
    95   889   886   ar
    96   869   868   ar
    97   869   862   ar
    98   861   862    1
    99   891   885   ar
   100    11    12    2
   101    11    10   ar
   102   909   904   ar
   103   907   906   ar
   104    17    10   ar
   105   833   838    1
   106   868   866   ar
   107    10     9    1
   108   862   863   ar
   109   812   814    1
   110   812   810    1
   111   815   814    1
   112   838   849    1
   113   827   807    2
   114   886   885   ar
   115   886   887   ar
   116   885   884   ar
   117   906   905   ar
   118   904   905   ar
   119    33    32    2
   120     9     4    1
   121     9     7    1
   122     4     3    1
   123   814   816    1
   124   808   810    1
   125   808   809    1
   126   810   811    1
   127   866   865   ar
   128   866   867    1
   129   863   864    2
   130   863   865   ar
   131   849   848   ar
   132   849   843   ar
   133   848   847   ar
   134   887   888    1
   135   887   882   ar
   136   884   883   ar
   137   809   807    1
   138   807   828    1
   139   807   793    1
   140    32    31   ar
   141    32    34   ar
   142    31    29   ar
   143     2     1    1
   144   843   842   ar
   145   843   844   ar
   146   847   844   ar
   147   883   882   ar
   148     7     8    1
   149     7     5    1
   150     3     1    1
   151     3     5    1
   152   811   816    1
   153   842   840   ar
   154   816   826    1
   155    34    35   ar
   156    29    30    2
   157    29    28   ar
   158   844   845   ar
   159   793   792    1
   160     5     6    1
   161    35    28   ar
   162    50    49    1
   163    28    27    1
   164   826   825   ar
   165   826   820   ar
   166   840   841    1
   167   840   839   ar
   168   845   839   ar
   169   845   846    2
   170   819   820   ar
   171   819   818   ar
   172    48    49   ar
   173    48    54   ar
   174   825   824   ar
   175   820   821   ar
   176    49    51   ar
   177   795   794    1
   178    27    22    1
   179    27    25    1
   180   792   794    1
   181   792   790    1
   182    55    54    2
   183    22    21    1
   184   818   817   ar
   185     6    18    1
   186    54    53   ar
   187   794   796    1
   188   824   821   ar
   189   821   822   ar
   190   805   787    2
   191    51    52   ar
   192   817   822   ar
   193   790   788    1
   194   790   791    1
   195    93    92    2
   196   822   823    1
   197    73    72    2
   198    37    18    2
   199   788   789    1
   200    53    52   ar
   201    53    56   ar
   202    25    26    1
   203    25    23    1
   204    52    58   ar
   205    20    18    1
   206    20    19    1
   207   789   787    1
   208    18    36    1
   209    21    19    1
   210    21    23    1
   211   787   806    1
   212   787   771    1
   213   113   112    1
   214   109   108    1
   215   796   791    1
   216   796   797    1
   217    74    72   ar
   218    74    75   ar
   219    72    71   ar
   220    89    88    1
   221    92    94   ar
   222    92    91   ar
   223    23    24    1
   224   114   112   ar
   225   114   115   ar
   226    56    57   ar
   227   110   105    1
   228   110   108    1
   229   110   121    1
   230    90    91    1
   231    90    85    1
   232    90    88    1
   233   105   104    1
   234   799   798    2
   235   112   111   ar
   236   797   798   ar
   237   797   804   ar
   238    94    95   ar
   239    58    57   ar
   240    58    47    1
   241   162   161    1
   242   798   800   ar
   243   804   803   ar
   244    91    98   ar
   245    76    75    1
   246    85    84    1
   247    75    77   ar
   248    88    86    1
   249   108   106    1
   250    70    71    1
   251    70    68    1
   252    70    65    1
   253    71    78   ar
   254   104   102    1
   255   104   106    1
   256    47    42    1
   257    47    45    1
   258   115   121   ar
   259   115   116   ar
   260    69    68    1
   261   121   120   ar
   262   771   770    1
   263   800   801   ar
   264   111   117   ar
   265   803   801   ar
   266   801   802    1
   267    95    96    2
   268    95    97   ar
   269    68    66    1
   270    84    86    1
   271    84    82    1
   272   161   156   ar
   273   161   160   ar
   274    42    41    1
   275   102   103    1
   276   156   157   ar
   277    65    64    1
   278   106   107    1
   279    98    97   ar
   280   116   117   ar
   281   116   119   ar
   282    46    45    1
   283    77    78   ar
   284    45    43    1
   285   120   119   ar
   286   117   118    2
   287   107   124    1
   288    86    87    1
   289   770   772    1
   290   770   768    1
   291   773   772    1
   292    87   101    1
   293    82    83    1
   294   772   774    1
   295   103   101    1
   296    64    66    1
   297    64    62    1
   298   785   765    2
   299   157   158   ar
   300   160   163   ar
   301   160   159   ar
   302    41    43    1
   303    41    39    1
   304    66    67    1
   305   163   164   ar
   306    43    44    1
   307   767   766    1
   308   767   765    1
   309   768   766    1
   310   768   769    1
   311    83    81    1
   312   125   126    1
   313   125   127    1
   314   101   122    2
   315   101   123    1
   316   124   126    1
   317   124   144    2
   318   124   145    1
   319   765   786    1
   320   765   751    1
   321    67    81    1
   322    62    63    1
   323    40    39    1
   324    40    38    1
   325   777   776   ar
   326   777   778   ar
   327   776   775   ar
   328    60    38    1
   329   159   158   ar
   330   159   165   ar
   331   774   784    1
   332   774   769    1
   333   775   780   ar
   334   778   784   ar
   335   778   779   ar
   336    63    61    1
   337    44    61    1
   338   784   783   ar
   339    38    59    1
   340   164   165   ar
   341   780   779   ar
   342   780   781    1
   343   779   782   ar
   344    81   100    2
   345    81    99    1
   346   783   782   ar
   347   127   129    1
   348   127   128    1
   349   129   130    1
   350   129   131    1
   351   130   146    1
   352   165   155    1
   353   142   141   ar
   354   142   143   ar
   355   751   750    1
   356    61    80    2
   357    61    79    1
   358   141   138   ar
   359   128   133    1
   360   131   133    1
   361   131   132    1
   362   167   146    2
   363   143   133    1
   364   143   137   ar
   365   750   752    1
   366   750   748    1
   367   146   148    1
   368   146   166    1
   369   155   150    1
   370   155   153    1
   371   172   177    1
   372   172   171    1
   373   177   188    1
   374   177   175    1
   375   752   753    1
   376   752   754    1
   377   148   147    1
   378   138   137   ar
   379   138   139   ar
   380   188   187   ar
   381   188   182   ar
   382   187   186   ar
   383   763   745    2
   384   603   604   ar
   385   603   608   ar
   386   150   149    1
   387   182   181   ar
   388   182   183   ar
   389   186   183   ar
   390   181   179   ar
   391   183   184   ar
   392   153   151    1
   393   153   154    1
   394   604   605   ar
   395   609   608    1
   396   179   180    1
   397   179   178   ar
   398   176   175    1
   399   137   136   ar
   400   764   745    1
   401   184   178   ar
   402   184   185    2
   403   140   139    1
   404   626   625   ar
   405   626   627   ar
   406   748   746    1
   407   748   749    1
   408   747   746    1
   409   747   745    1
   410   745   729    1
   411   608   607   ar
   412   139   134   ar
   413   175   173    1
   414   171   169    1
   415   171   173    1
   416   151   149    1
   417   151   152    1
   418   757   756    2
   419   758   756   ar
   420   758   759   ar
   421   760   759    1
   422   756   755   ar
   423   625   630   ar
   424   627   628   ar
   425   147   149    1
   426   759   761   ar
   427   754   755    1
   428   754   749    1
   429   755   762   ar
   430   761   762   ar
   431   605   606   ar
   432   169   170    1
   433   170   168    1
   434   136   135   ar
   435   173   174    1
   436   607   606   ar
   437   607   610   ar
   438   190   168    2
   439   606   612   ar
   440   134   135   ar
   441   152   168    1
   442   729   728    1
   443   630   631    1
   444   630   629   ar
   445   628   629   ar
   446   628   634   ar
   447   168   189    1
   448   174   191    1
   449   623   622    1
   450   610   611   ar
   451   195   200    1
   452   195   194    1
   453   624   634    1
   454   624   619    1
   455   624   622    1
   456   629   632   ar
   457   634   633   ar
   458   612   611   ar
   459   612   602    1
   460   728   730    1
   461   728   726    1
   462   619   618    1
   463   192   194    1
   464   192   193    1
   465   200   201    1
   466   200   198    1
   467   208   201   ar
   468   208   207   ar
   469   201   202   ar
   470   207   205   ar
   471   622   620    1
   472   194   196    1
   473   193   191    1
   474   602   600    1
   475   602   597    1
   476   202   203    2
   477   202   204   ar
   478   205   206    2
   479   205   204   ar
   480   730   731    1
   481   730   732    1
   482   601   600    1
   483   743   723    2
   484   725   724    1
   485   725   723    1
   486   191   209    2
   487   191   210    1
   488   632   633   ar
   489   739   738    1
   490   600   598    1
   491   618   620    1
   492   618   616    1
   493   733   738   ar
   494   733   734   ar
   495   724   726    1
   496   738   737   ar
   497   744   723    1
   498   726   727    1
   499   734   735   ar
   500   737   740   ar
   501   737   736   ar
   502   723   709    1
   503   199   198    1
   504   740   741   ar
   505   735   736   ar
   506   736   742   ar
   507   198   196    1
   508   620   621    1
   509   597   596    1
   510   741   742   ar
   511   742   732    1
   512   196   197    1
   513   732   727    1
   514   621   637    1
   515   616   617    1
   516   598   596    1
   517   598   599    1
   518   678   660    2
   519   197   211    1
   520   596   594    1
   521   617   615    1
   522   709   708    1
   523   722   703    2
   524   679   660    1
   525   599   615    1
   526   702   680    2
   527   637   658    2
   528   637   639    1
   529   637   659    1
   530   721   703    1
   531   701   680    1
   532   660   643    1
   533   660   662    1
   534   718   717    1
   535   639   638    1
   536   708   710    1
   537   708   706    1
   538   638   640    1
   539   594   595    1
   540   703   705    1
   541   703   686    1
   542   615   635    2
   543   615   636    1
   544   229   230   ar
   545   229   226   ar
   546   215   220    1
   547   215   214    1
   548   228   227    2
   549   595   593    1
   550   230   231   ar
   551   717   719   ar
   552   717   716   ar
   553   211   233    2
   554   211   213    1
   555   211   232    1
   556   719   720   ar
   557   226   227   ar
   558   226   225   ar
   559   680   682    1
   560   680   666    1
   561   227   221   ar
   562   643   642    1
   563   705   704    1
   564   710   711    1
   565   710   712    1
   566   231   225   ar
   567   231   220    1
   568   212   213    1
   569   212   214    1
   570   225   224   ar
   571   716   714   ar
   572   221   222   ar
   573   720   713   ar
   574   220   218    1
   575   662   661    1
   576   224   222   ar
   577   613   593    2
   578   222   223    1
   579   704   706    1
   580   214   216    1
   581   640   642    1
   582   640   641    1
   583   706   707    1
   584   714   713   ar
   585   714   715    2
   586   682   681    1
   587   713   712    1
   588   642   644    1
   589   593   614    1
   590   593   576    1
   591   686   685    1
   592   666   665    1
   593   661   663    1
   594   712   707    1
   595   685   683    1
   596   685   687    1
   597   698   699   ar
   598   698   695   ar
   599   665   663    1
   600   665   667    1
   601   697   696    2
   602   681   683    1
   603   218   216    1
   604   218   219    1
   605   641   646    1
   606   216   217    1
   607   699   700   ar
   608   663   664    1
   609   576   575    1
   610   696   695   ar
   611   696   690   ar
   612   695   694   ar
   613   644   645    1
   614   644   646    1
   615   683   684    1
   616   687   689    1
   617   687   688    1
   618   249   248    1
   619   676   677   ar
   620   676   674   ar
   621   656   655   ar
   622   656   657   ar
   623   591   570    2
   624   677   670   ar
   625   700   694   ar
   626   700   689    1
   627   694   693   ar
   628   646   657    1
   629   690   691   ar
   630   667   669    1
   631   667   668    1
   632   248   247   ar
   633   248   250   ar
   634   217   234    1
   635   655   652   ar
   636   675   674    2
   637   657   651   ar
   638   664   669    1
   639   247   245   ar
   640   674   673   ar
   641   684   689    1
   642   250   251   ar
   643   575   577    1
   644   575   573    1
   645   691   693   ar
   646   691   692    1
   647   670   669    1
   648   670   671   ar
   649   245   246    2
   650   245   244   ar
   651   251   244   ar
   652   652   651   ar
   653   652   653   ar
   654   570   592    1
   655   570   572    1
   656   570   556    1
   657   244   243    1
   658   651   650   ar
   659   673   671   ar
   660   571   572    1
   661   571   573    1
   662   253   234    2
   663   578   577    1
   664   671   672    2
   665   238   243    1
   666   238   237    1
   667   577   579    1
   668   573   574    1
   669   234   236    1
   670   234   252    1
   671   243   241    1
   672   270   269    1
   673   653   654    2
   674   653   647   ar
   675   650   648   ar
   676   236   235    1
   677   556   555    1
   678   235   237    1
   679   269   264   ar
   680   269   268   ar
   681   264   265   ar
   682   647   648   ar
   683   648   649    1
   684   237   239    1
   685   574   579    1
   686   579   590    1
   687   268   271   ar
   688   268   267   ar
   689   265   266   ar
   690   241   239    1
   691   241   242    1
   692   271   272   ar
   693   590   589   ar
   694   590   584   ar
   695   589   588   ar
   696   291   290    1
   697   239   240    1
   698   555   557    1
   699   555   553    1
   700   306   307   ar
   701   306   311   ar
   702   267   266   ar
   703   267   273   ar
   704   307   308   ar
   705   584   583   ar
   706   584   585   ar
   707   588   585   ar
   708   272   273   ar
   709   568   550    2
   710   558   557    1
   711   583   581   ar
   712   289   290   ar
   713   289   287   ar
   714   290   292   ar
   715   312   311    1
   716   585   586   ar
   717   557   559    1
   718   273   263    1
   719   311   310   ar
   720   551   553    1
   721   551   552    1
   722   553   554    1
   723   581   582    1
   724   581   580   ar
   725   308   309   ar
   726   552   550    1
   727   288   287    2
   728   287   286   ar
   729   586   580   ar
   730   586   587    2
   731   240   254    1
   732   550   569    1
   733   550   536    1
   734   292   293   ar
   735   263   258    1
   736   263   261    1
   737   310   309   ar
   738   310   313   ar
   739   258   257    1
   740   309   315   ar
   741   330   329    2
   742   275   254    2
   743   286   293   ar
   744   286   285    1
   745   559   554    1
   746   559   560    1
   747   254   256    1
   748   254   274    1
   749   313   314   ar
   750   329   331   ar
   751   329   328   ar
   752   560   567   ar
   753   560   561   ar
   754   256   255    1
   755   331   332   ar
   756   315   314   ar
   757   315   305    1
   758   567   566   ar
   759   536   535    1
   760   285   280    1
   761   285   283    1
   762   562   561    2
   763   261   262    1
   764   261   259    1
   765   561   563   ar
   766   257   255    1
   767   257   259    1
   768   566   564   ar
   769   305   300    1
   770   305   303    1
   771   327   328    1
   772   327   322    1
   773   327   325    1
   774   563   564   ar
   775   280   279    1
   776   328   335   ar
   777   564   565    2
   778   326   325    1
   779   332   333    1
   780   332   334   ar
   781   349   350   ar
   782   349   348   ar
   783   259   260    1
   784   350   351   ar
   785   322   321    1
   786   304   303    1
   787   300   299    1
   788   348   353   ar
   789   535   537    1
   790   535   533    1
   791   283   284    1
   792   283   281    1
   793   303   301    1
   794   325   323    1
   795   335   334   ar
   796   538   537    1
   797   351   357   ar
   798   351   352   ar
   799   347   342    1
   800   347   357    1
   801   347   345    1
   802   537   539    1
   803   342   341    1
   804   353   352   ar
   805   353   354    1
   806   357   356   ar
   807   548   530    2
   808   279   281    1
   809   279   277    1
   810   346   345    1
   811   352   355   ar
   812   321   323    1
   813   321   319    1
   814   260   276    1
   815   281   282    1
   816   278   277    1
   817   278   276    1
   818   299   301    1
   819   299   297    1
   820   533   531    1
   821   533   534    1
   822   532   531    1
   823   532   530    1
   824   356   355   ar
   825   295   276    2
   826   323   324    1
   827   341   339    1
   828   341   343    1
   829   345   343    1
   830   301   302    1
   831   549   530    1
   832   530   513    1
   833   372   371    1
   834   319   320    1
   835   276   294    1
   836   539   540    1
   837   539   534    1
   838   339   340    1
   839   364   369    1
   840   364   363    1
   841   371   373   ar
   842   371   370   ar
   843   373   374   ar
   844   540   547   ar
   845   540   541   ar
   846   542   541    2
   847   297   298    1
   848   547   546   ar
   849   298   296    1
   850   324   338    1
   851   541   543   ar
   852   369   380    1
   853   369   367    1
   854   282   296    1
   855   343   344    1
   856   320   318    1
   857   546   544   ar
   858   302   318    1
   859   370   376   ar
   860   543   544   ar
   861   374   380   ar
   862   374   375   ar
   863   544   545    1
   864   380   379   ar
   865   340   338    1
   866   376   375   ar
   867   376   377    2
   868   375   378   ar
   869   363   361    1
   870   363   365    1
   871   368   367    1
   872   513   512    1
   873   379   378   ar
   874   296   317    2
   875   296   316    1
   876   344   360    1
   877   361   362    1
   878   318   337    2
   879   318   336    1
   880   338   359    2
   881   338   358    1
   882   367   365    1
   883   362   360    1
   884   512   514    1
   885   512   510    1
   886   365   366    1
   887   360   381    2
   888   360   382    1
   889   514   515    1
   890   514   516    1
   891   387   392    1
   892   387   386    1
   893   528   507    1
   894   395   394    2
   895   366   383    1
   896   392   393    1
   897   392   390    1
   898   529   507    1
   899   394   393   ar
   900   394   396   ar
   901   509   507    1
   902   509   508    1
   903   393   400   ar
   904   510   508    1
   905   510   511    1
   906   396   397   ar
   907   519   518    1
   908   386   384    1
   909   386   388    1
   910   517   518   ar
   911   517   523   ar
   912   524   523    2
   913   518   520   ar
   914   523   522   ar
   915   384   385    1
   916   520   521   ar
   917   400   399   ar
   918   391   390    1
   919   522   521   ar
   920   522   525   ar
   921   521   527   ar
   922   525   526   ar
   923   527   526   ar
   924   527   516    1
   925   516   511    1
   926   397   399   ar
   927   397   398    1
   928   390   388    1
   929   385   383    1
   930   383   401    2
   931   383   402    1
   932   388   389    1
   933   389   403    1
   934   407   412    1
   935   407   406    1
   936   412   422    1
   937   412   410    1
   938   421   422   ar
   939   421   420   ar
   940   422   416   ar
   941   420   417   ar
   942   417   416   ar
   943   417   418   ar
   944   416   415   ar
   945   419   418    1
   946   418   413   ar
   947   506   487    2
   948   415   414   ar
   949   413   414   ar
   950   404   406    1
   951   404   405    1
   952   406   408    1
   953   505   487    1
   954   403   405    1
   955   403   424    2
   956   403   423    1
   957   487   489    1
   958   487   475    1
   959   411   410    1
   960   410   408    1
   961   493   492    1
   962   489   488    1
   963   408   409    1
   964   471   470    1
   965   492   494    1
   966   492   490    1
   967   475   474    1
   968   503   501   ar
   969   503   504   ar
   970   502   501    2
   971   470   472    1
   972   501   500   ar
   973   488   490    1
   974   504   497   ar
   975   409   425    1
   976   494   495    1
   977   494   496    1
   978   474   472    1
   979   474   476    1
   980   490   491    1
   981   441   440    1
   982   500   498   ar
   983   485   486   ar
   984   485   483   ar
   985   497   498   ar
   986   497   496    1
   987   440   435   ar
   988   440   439   ar
   989   472   473    1
   990   435   436   ar
   991   442   439   ar
   992   442   443   ar
   993   439   438   ar
   994   498   499    2
   995   486   479   ar
   996   429   434    1
   997   429   428    1
   998   443   444   ar
   999   436   437   ar
  1000   484   483    1
  1001   438   437   ar
  1002   438   444   ar
  1003   496   491    1
  1004   444   434    1
  1005   483   482   ar
  1006   434   432    1
  1007   476   478    1
  1008   476   477    1
  1009   425   446    2
  1010   425   427    1
  1011   425   445    1
  1012   473   478    1
  1013   427   426    1
  1014   479   478    1
  1015   479   480   ar
  1016   426   428    1
  1017   428   430    1
  1018   482   480   ar
  1019   480   481    2
  1020   464   463    2
  1021   432   433    1
  1022   432   430    1
  1023   457   463   ar
  1024   457   458   ar
  1025   463   462   ar
  1026   430   431    1
  1027   459   458    1
  1028   458   460   ar
  1029   462   465   ar
  1030   462   461   ar
  1031   465   466   ar
  1032   460   461   ar
  1033   461   467   ar
  1034   466   467   ar
  1035   431   447    1
  1036   467   456    1
  1037   451   456    1
  1038   451   450    1
  1039   456   454    1
  1040   469   447    2
  1041   447   449    1
  1042   447   468    1
  1043   449   448    1
  1044   448   450    1
  1045   450   452    1
  1046   454   455    1
  1047   454   452    1
  1048   452   453    1
