ligand
 OpenBabel02271912143D
libRbt.so/2013.1/901 2013/11/27
 46 52  0  0  0  0  0  0  0  0999 V2000
   -9.7579    4.9273   15.6106 P   0  0  1  0  0  0  0  0  0  0  0  0
   -5.2770    2.6045   18.6440 P   0  0  2  0  0  0  0  0  0  0  0  0
  -10.4953    3.6980   14.5681 O   0  5  0  0  0  0  0  0  0  0  0  0
  -10.6375    6.4760   15.5247 O   0  0  0  0  0  0  0  0  0  0  0  0
   -9.1204    5.1031   18.1769 C   0  0  0  0  0  0  0  0  0  0  0  0
   -9.7505    4.3727   17.1244 O   0  0  0  0  0  0  0  0  0  0  0  0
   -8.8470    4.1539   19.3280 C   0  0  1  0  0  0  0  0  0  0  0  0
  -10.0599    3.4773   19.6875 O   0  0  0  0  0  0  0  0  0  0  0  0
   -7.8562    3.0557   18.9781 C   0  0  1  0  0  0  0  0  0  0  0  0
   -6.5128    3.4293   19.2760 O   0  0  0  0  0  0  0  0  0  0  0  0
   -8.3228    1.8867   19.8277 C   0  0  1  0  0  0  0  0  0  0  0  0
   -7.6968    1.9334   21.1124 O   0  0  0  0  0  0  0  0  0  0  0  0
   -9.8145    2.0989   20.0075 C   0  0  2  0  0  0  0  0  0  0  0  0
   -5.9806    2.9388   13.5479 C   0  0  1  0  0  0  0  0  0  0  0  0
  -10.6065   -2.7501   17.9944 N   0  0  0  0  0  0  0  0  0  0  0  0
   -9.6944   -2.3443   18.9195 C   0  0  1  0  0  0  0  0  0  0  0  0
   -7.3963    3.3303   13.8641 C   0  0  2  0  0  0  0  0  0  0  0  0
   -8.8455   -3.2668   19.4284 N   0  0  0  0  0  0  0  0  0  0  0  0
   -7.8171    4.2060   12.8167 O   0  0  0  0  0  0  0  0  0  0  0  0
   -7.3111    4.0404   15.2006 C   0  0  2  0  0  0  0  0  0  0  0  0
   -9.6016   -1.0504   19.3485 N   0  0  0  0  0  0  0  0  0  0  0  0
   -8.2014    5.1460   15.2663 O   0  0  0  0  0  0  0  0  0  0  0  0
  -10.4308   -0.0883   18.8705 C   0  0  2  0  0  0  0  0  0  0  0  0
   -5.8766    4.5220   15.2945 C   0  0  2  0  0  0  0  0  0  0  0  0
   -5.1272    3.6966   14.4044 O   0  0  0  0  0  0  0  0  0  0  0  0
  -11.4352   -0.4740   17.8641 C   0  0  1  0  0  0  0  0  0  0  0  0
   -5.3033    4.4034   16.7022 C   0  0  0  0  0  0  0  0  0  0  0  0
   -5.2992    3.0282   17.0907 O   0  0  0  0  0  0  0  0  0  0  0  0
  -11.4869   -1.8849   17.4414 C   0  0  0  0  0  0  0  0  0  0  0  0
  -12.3907   -2.2975   16.5168 O   0  0  0  0  0  0  0  0  0  0  0  0
  -12.1161    0.6337   17.5502 N   0  0  0  0  0  0  0  0  0  0  0  0
  -11.5949    1.6549   18.2912 C   0  0  0  0  0  0  0  0  0  0  0  0
  -10.5869    1.2290   19.0812 N   0  0  1  0  0  0  0  0  0  0  0  0
   -7.3189   -1.8370   11.8838 N   0  0  0  0  0  0  0  0  0  0  0  0
   -5.5107    0.8449   18.8164 O   0  5  0  0  0  0  0  0  0  0  0  0
   -7.7209   -0.6150   11.4388 C   0  0  2  0  0  0  0  0  0  0  0  0
   -8.5981   -0.5415   10.4039 N   0  0  0  0  0  0  0  0  0  0  0  0
   -3.7040    3.0617   19.3258 O   0  0  0  0  0  0  0  0  0  0  0  0
   -7.2704    0.5408   11.9987 N   0  0  0  0  0  0  0  0  0  0  0  0
   -6.3909    0.5322   13.0275 C   0  0  2  0  0  0  0  0  0  0  0  0
   -5.9223   -0.7567   13.5536 C   0  0  2  0  0  0  0  0  0  0  0  0
   -6.4514   -1.9774   12.9086 C   0  0  0  0  0  0  0  0  0  0  0  0
   -6.0785   -3.2119   13.3273 O   0  0  0  0  0  0  0  0  0  0  0  0
   -5.0772   -0.4757   14.5651 N   0  0  0  0  0  0  0  0  0  0  0  0
   -5.0077    0.8846   14.6740 C   0  0  0  0  0  0  0  0  0  0  0  0
   -5.7977    1.4820   13.7532 N   0  0  1  0  0  0  0  0  0  0  0  0
  1  3  1  6  0  0  0
  1  4  2  0  0  0  0
  1  6  1  0  0  0  0
  1 22  1  0  0  0  0
  2 28  1  0  0  0  0
  2 35  1  1  0  0  0
  2 38  2  0  0  0  0
  2 10  1  0  0  0  0
  5  6  1  0  0  0  0
  7  5  1  6  0  0  0
  7  8  1  0  0  0  0
  7  9  1  0  0  0  0
  9 10  1  1  0  0  0
  9 11  1  0  0  0  0
 11 12  1  1  0  0  0
 11 13  1  0  0  0  0
 13  8  1  6  0  0  0
 13 33  1  0  0  0  0
 14 46  1  0  0  0  0
 14 17  1  0  0  0  0
 14 25  1  1  0  0  0
 15 16  1  0  0  0  0
 15 29  1  0  0  0  0
 16 18  1  6  0  0  0
 16 21  1  0  0  0  0
 17 19  1  6  0  0  0
 17 20  1  0  0  0  0
 20 22  1  6  0  0  0
 20 24  1  0  0  0  0
 23 21  1  6  0  0  0
 23 26  1  0  0  0  0
 23 33  1  0  0  0  0
 24 25  1  6  0  0  0
 24 27  1  0  0  0  0
 26 29  1  1  0  0  0
 26 31  1  0  0  0  0
 27 28  1  0  0  0  0
 29 30  2  0  0  0  0
 31 32  1  0  0  0  0
 33 32  1  1  0  0  0
 34 36  1  0  0  0  0
 34 42  1  0  0  0  0
 36 37  1  6  0  0  0
 36 39  1  0  0  0  0
 40 39  1  1  0  0  0
 40 41  1  0  0  0  0
 40 46  1  0  0  0  0
 41 42  1  1  0  0  0
 41 44  1  0  0  0  0
 42 43  2  0  0  0  0
 44 45  1  0  0  0  0
 46 45  1  6  0  0  0
M  CHG  2   3  -1  35  -1
M  END
>  <CHROM.1>
165.43999473,65.98329163,-8.03820890,1.71865940,16.43730060,-2.31862693,-0.99231742
-2.49765944

>  <Name>
ligand

>  <RI>
416

>  <Rbt.Current_Directory>
/home/itssahil/PROJECTS/Mol_Feturizer/Test_systems_manuscript/rnas/3mum

>  <Rbt.Executable>
rbdock ($Id: //depot/dev/client3/rdock/2013.1/src/exe/rbdock.cxx#4 $)

>  <Rbt.Library>
libRbt.so (2013.1, Build901 2013/11/27)

>  <Rbt.Parameter_File>
/export/apps/rDock/src/rDock_2013.1_src/data/scripts/dock_solv.prm

>  <Rbt.Receptor>
prm/pocket_docking_2.prm

>  <SCORE>
-40.4085

>  <SCORE.INTER>
-40.3971

>  <SCORE.INTER.CONST>
1

>  <SCORE.INTER.POLAR>
0

>  <SCORE.INTER.ROT>
2

>  <SCORE.INTER.SOLV>
38.4244

>  <SCORE.INTER.VDW>
-44.6728

>  <SCORE.INTER.norm>
-0.878197

>  <SCORE.INTRA>
-0.0114475

>  <SCORE.INTRA.DIHEDRAL>
0.00114683

>  <SCORE.INTRA.DIHEDRAL.0>
2.40424

>  <SCORE.INTRA.POLAR>
0

>  <SCORE.INTRA.POLAR.0>
0

>  <SCORE.INTRA.REPUL>
0

>  <SCORE.INTRA.REPUL.0>
0

>  <SCORE.INTRA.SOLV>
0.000461516

>  <SCORE.INTRA.SOLV.lig_0>
-134.169

>  <SCORE.INTRA.VDW>
-0.0122516

>  <SCORE.INTRA.VDW.0>
-2.18386

>  <SCORE.INTRA.norm>
-0.000248858

>  <SCORE.RESTR>
0

>  <SCORE.RESTR.CAVITY>
0

>  <SCORE.RESTR.norm>
0

>  <SCORE.SYSTEM>
0

>  <SCORE.SYSTEM.CONST>
0

>  <SCORE.SYSTEM.DIHEDRAL>
0

>  <SCORE.SYSTEM.SOLV>
0

>  <SCORE.SYSTEM.norm>
0

>  <SCORE.heavy>
46

>  <SCORE.norm>
-0.878446

>  <RMSD>
0.127

$$$$
ligand
 OpenBabel02271912143D
libRbt.so/2013.1/901 2013/11/27
 46 52  0  0  0  0  0  0  0  0999 V2000
   -9.7513    4.9269   15.6126 P   0  0  1  0  0  0  0  0  0  0  0  0
   -5.2716    2.5726   18.6235 P   0  0  2  0  0  0  0  0  0  0  0  0
  -10.5005    3.7035   14.5715 O   0  5  0  0  0  0  0  0  0  0  0  0
  -10.6218    6.4809   15.5327 O   0  0  0  0  0  0  0  0  0  0  0  0
   -9.1018    5.0951   18.1764 C   0  0  0  0  0  0  0  0  0  0  0  0
   -9.7408    4.3700   17.1255 O   0  0  0  0  0  0  0  0  0  0  0  0
   -8.8293    4.1426   19.3250 C   0  0  1  0  0  0  0  0  0  0  0  0
  -10.0446    3.4729   19.6887 O   0  0  0  0  0  0  0  0  0  0  0  0
   -7.8466    3.0389   18.9693 C   0  0  1  0  0  0  0  0  0  0  0  0
   -6.4996    3.4039   19.2620 O   0  0  0  0  0  0  0  0  0  0  0  0
   -8.3167    1.8715   19.8192 C   0  0  1  0  0  0  0  0  0  0  0  0
   -7.6849    1.9126   21.1012 O   0  0  0  0  0  0  0  0  0  0  0  0
   -9.8062    2.0925   20.0057 C   0  0  2  0  0  0  0  0  0  0  0  0
   -5.9950    2.9185   13.5309 C   0  0  1  0  0  0  0  0  0  0  0  0
  -10.6276   -2.7461   17.9795 N   0  0  0  0  0  0  0  0  0  0  0  0
   -9.7078   -2.3467   18.8997 C   0  0  1  0  0  0  0  0  0  0  0  0
   -7.4068    3.3181   13.8537 C   0  0  2  0  0  0  0  0  0  0  0  0
   -8.8582   -3.2739   19.3990 N   0  0  0  0  0  0  0  0  0  0  0  0
   -7.8268    4.1979   12.8094 O   0  0  0  0  0  0  0  0  0  0  0  0
   -7.3117    4.0257   15.1909 C   0  0  2  0  0  0  0  0  0  0  0  0
   -9.6079   -1.0549   19.3330 N   0  0  0  0  0  0  0  0  0  0  0  0
   -8.1950    5.1366   15.2619 O   0  0  0  0  0  0  0  0  0  0  0  0
  -10.4374   -0.0884   18.8646 C   0  0  2  0  0  0  0  0  0  0  0  0
   -5.8739    4.4985   15.2793 C   0  0  2  0  0  0  0  0  0  0  0  0
   -5.1333    3.6699   14.3848 O   0  0  0  0  0  0  0  0  0  0  0  0
  -11.4500   -0.4669   17.8638 C   0  0  1  0  0  0  0  0  0  0  0  0
   -5.2953    4.3744   16.6844 C   0  0  0  0  0  0  0  0  0  0  0  0
   -5.2979    2.9987   17.0710 O   0  0  0  0  0  0  0  0  0  0  0  0
  -11.5091   -1.8760   17.4360 C   0  0  0  0  0  0  0  0  0  0  0  0
  -12.4207   -2.2822   16.5162 O   0  0  0  0  0  0  0  0  0  0  0  0
  -12.1296    0.6440   17.5589 N   0  0  0  0  0  0  0  0  0  0  0  0
  -11.6000    1.6607   18.3002 C   0  0  0  0  0  0  0  0  0  0  0  0
  -10.5878    1.2287   19.0815 N   0  0  1  0  0  0  0  0  0  0  0  0
   -7.3829   -1.8468   11.8774 N   0  0  0  0  0  0  0  0  0  0  0  0
   -5.5152    0.8142   18.7944 O   0  5  0  0  0  0  0  0  0  0  0  0
   -7.7810   -0.6217   11.4373 C   0  0  2  0  0  0  0  0  0  0  0  0
   -8.6682   -0.5414   10.4114 N   0  0  0  0  0  0  0  0  0  0  0  0
   -3.6930    3.0193   19.2992 O   0  0  0  0  0  0  0  0  0  0  0  0
   -7.3169    0.5305   11.9933 N   0  0  0  0  0  0  0  0  0  0  0  0
   -6.4271    0.5152   13.0132 C   0  0  2  0  0  0  0  0  0  0  0  0
   -5.9620   -0.7774   13.5336 C   0  0  2  0  0  0  0  0  0  0  0  0
   -6.5061   -1.9939   12.8931 C   0  0  0  0  0  0  0  0  0  0  0  0
   -6.1374   -3.2313   13.3073 O   0  0  0  0  0  0  0  0  0  0  0  0
   -5.1048   -0.5029   14.5366 N   0  0  0  0  0  0  0  0  0  0  0  0
   -5.0248    0.8568   14.6457 C   0  0  0  0  0  0  0  0  0  0  0  0
   -5.8200    1.4603   13.7334 N   0  0  1  0  0  0  0  0  0  0  0  0
  1  3  1  6  0  0  0
  1  4  2  0  0  0  0
  1  6  1  0  0  0  0
  1 22  1  0  0  0  0
  2 28  1  0  0  0  0
  2 35  1  1  0  0  0
  2 38  2  0  0  0  0
  2 10  1  0  0  0  0
  5  6  1  0  0  0  0
  7  5  1  6  0  0  0
  7  8  1  0  0  0  0
  7  9  1  0  0  0  0
  9 10  1  1  0  0  0
  9 11  1  0  0  0  0
 11 12  1  1  0  0  0
 11 13  1  0  0  0  0
 13  8  1  6  0  0  0
 13 33  1  0  0  0  0
 14 46  1  0  0  0  0
 14 17  1  0  0  0  0
 14 25  1  1  0  0  0
 15 16  1  0  0  0  0
 15 29  1  0  0  0  0
 16 18  1  6  0  0  0
 16 21  1  0  0  0  0
 17 19  1  6  0  0  0
 17 20  1  0  0  0  0
 20 22  1  6  0  0  0
 20 24  1  0  0  0  0
 23 21  1  6  0  0  0
 23 26  1  0  0  0  0
 23 33  1  0  0  0  0
 24 25  1  6  0  0  0
 24 27  1  0  0  0  0
 26 29  1  1  0  0  0
 26 31  1  0  0  0  0
 27 28  1  0  0  0  0
 29 30  2  0  0  0  0
 31 32  1  0  0  0  0
 33 32  1  1  0  0  0
 34 36  1  0  0  0  0
 34 42  1  0  0  0  0
 36 37  1  6  0  0  0
 36 39  1  0  0  0  0
 40 39  1  1  0  0  0
 40 41  1  0  0  0  0
 40 46  1  0  0  0  0
 41 42  1  1  0  0  0
 41 44  1  0  0  0  0
 42 43  2  0  0  0  0
 44 45  1  0  0  0  0
 46 45  1  6  0  0  0
M  CHG  2   3  -1  35  -1
M  END
>  <CHROM.1>
165.17042496,65.64004207,-8.04812003,1.70692573,16.42760135,-2.29751582,-0.99183053
-2.48373062

>  <Name>
ligand

>  <RI>
416

>  <Rbt.Current_Directory>
/home/itssahil/PROJECTS/Mol_Feturizer/Test_systems_manuscript/rnas/3mum

>  <Rbt.Executable>
rbdock ($Id: //depot/dev/client3/rdock/2013.1/src/exe/rbdock.cxx#4 $)

>  <Rbt.Library>
libRbt.so (2013.1, Build901 2013/11/27)

>  <Rbt.Parameter_File>
/export/apps/rDock/src/rDock_2013.1_src/data/scripts/dock_solv.prm

>  <Rbt.Receptor>
prm/pocket_docking_3.prm

>  <SCORE>
-40.3445

>  <SCORE.INTER>
-40.3385

>  <SCORE.INTER.CONST>
1

>  <SCORE.INTER.POLAR>
0

>  <SCORE.INTER.ROT>
2

>  <SCORE.INTER.SOLV>
38.6844

>  <SCORE.INTER.VDW>
-44.7205

>  <SCORE.INTER.norm>
-0.876924

>  <SCORE.INTRA>
-0.00593531

>  <SCORE.INTRA.DIHEDRAL>
0.000634235

>  <SCORE.INTRA.DIHEDRAL.0>
2.40424

>  <SCORE.INTRA.POLAR>
0

>  <SCORE.INTRA.POLAR.0>
0

>  <SCORE.INTRA.REPUL>
0

>  <SCORE.INTRA.REPUL.0>
0

>  <SCORE.INTRA.SOLV>
0.00106336

>  <SCORE.INTRA.SOLV.lig_0>
-134.169

>  <SCORE.INTRA.VDW>
-0.00678411

>  <SCORE.INTRA.VDW.0>
-2.18386

>  <SCORE.INTRA.norm>
-0.000129029

>  <SCORE.RESTR>
0

>  <SCORE.RESTR.CAVITY>
0

>  <SCORE.RESTR.norm>
0

>  <SCORE.SYSTEM>
0

>  <SCORE.SYSTEM.CONST>
0

>  <SCORE.SYSTEM.DIHEDRAL>
0

>  <SCORE.SYSTEM.SOLV>
0

>  <SCORE.SYSTEM.norm>
0

>  <SCORE.heavy>
46

>  <SCORE.norm>
-0.877053

>  <RMSD>
0.134

$$$$
ligand
 OpenBabel02271912143D
libRbt.so/2013.1/901 2013/11/27
 46 52  0  0  0  0  0  0  0  0999 V2000
   -9.7582    4.9271   15.6301 P   0  0  1  0  0  0  0  0  0  0  0  0
   -5.2695    2.5722   18.6272 P   0  0  2  0  0  0  0  0  0  0  0  0
  -10.5085    3.7048   14.5886 O   0  5  0  0  0  0  0  0  0  0  0  0
  -10.6305    6.4804   15.5548 O   0  0  0  0  0  0  0  0  0  0  0  0
   -9.1032    5.0916   18.1928 C   0  0  0  0  0  0  0  0  0  0  0  0
   -9.7438    4.3676   17.1421 O   0  0  0  0  0  0  0  0  0  0  0  0
   -8.8272    4.1374   19.3391 C   0  0  1  0  0  0  0  0  0  0  0  0
  -10.0411    3.4658   19.7044 O   0  0  0  0  0  0  0  0  0  0  0  0
   -7.8442    3.0353   18.9794 C   0  0  1  0  0  0  0  0  0  0  0  0
   -6.4970    3.4012   19.2698 O   0  0  0  0  0  0  0  0  0  0  0  0
   -8.3112    1.8660   19.8283 C   0  0  1  0  0  0  0  0  0  0  0  0
   -7.6767    1.9054   21.1090 O   0  0  0  0  0  0  0  0  0  0  0  0
   -9.8006    2.0851   20.0185 C   0  0  2  0  0  0  0  0  0  0  0  0
   -6.0045    2.9261   13.5367 C   0  0  1  0  0  0  0  0  0  0  0  0
  -10.5876   -2.7400   17.9469 N   0  0  0  0  0  0  0  0  0  0  0  0
   -9.6609   -2.3395   18.8596 C   0  0  1  0  0  0  0  0  0  0  0  0
   -7.4160    3.3237   13.8634 C   0  0  2  0  0  0  0  0  0  0  0  0
   -8.7933   -3.2615   19.3370 N   0  0  0  0  0  0  0  0  0  0  0  0
   -7.8392    4.2048   12.8215 O   0  0  0  0  0  0  0  0  0  0  0  0
   -7.3186    4.0291   15.2015 C   0  0  2  0  0  0  0  0  0  0  0  0
   -9.5715   -1.0515   19.3066 N   0  0  0  0  0  0  0  0  0  0  0  0
   -8.2029    5.1390   15.2764 O   0  0  0  0  0  0  0  0  0  0  0  0
  -10.4192   -0.0903   18.8604 C   0  0  2  0  0  0  0  0  0  0  0  0
   -5.8812    4.5032   15.2876 C   0  0  2  0  0  0  0  0  0  0  0  0
   -5.1417    3.6769   14.3901 O   0  0  0  0  0  0  0  0  0  0  0  0
  -11.4401   -0.4702   17.8685 C   0  0  1  0  0  0  0  0  0  0  0  0
   -5.2993    4.3773   16.6912 C   0  0  0  0  0  0  0  0  0  0  0  0
   -5.2997    3.0009   17.0754 O   0  0  0  0  0  0  0  0  0  0  0  0
  -11.4871   -1.8750   17.4250 C   0  0  0  0  0  0  0  0  0  0  0  0
  -12.4055   -2.2821   16.5125 O   0  0  0  0  0  0  0  0  0  0  0  0
  -12.1376    0.6354   17.5854 N   0  0  0  0  0  0  0  0  0  0  0  0
  -11.6111    1.6501   18.3316 C   0  0  0  0  0  0  0  0  0  0  0  0
  -10.5833    1.2221   19.0945 N   0  0  1  0  0  0  0  0  0  0  0  0
   -7.3758   -1.8376   11.8650 N   0  0  0  0  0  0  0  0  0  0  0  0
   -5.5110    0.8132   18.7955 O   0  5  0  0  0  0  0  0  0  0  0  0
   -7.7743   -0.6123   11.4263 C   0  0  2  0  0  0  0  0  0  0  0  0
   -8.6570   -0.5311   10.3966 N   0  0  0  0  0  0  0  0  0  0  0  0
   -3.6899    3.0193   19.3001 O   0  0  0  0  0  0  0  0  0  0  0  0
   -7.3149    0.5395   11.9873 N   0  0  0  0  0  0  0  0  0  0  0  0
   -6.4296    0.5233   13.0110 C   0  0  2  0  0  0  0  0  0  0  0  0
   -5.9644   -0.7697   13.5302 C   0  0  2  0  0  0  0  0  0  0  0  0
   -6.5032   -1.9856   12.8843 C   0  0  0  0  0  0  0  0  0  0  0  0
   -6.1340   -3.2234   13.2970 O   0  0  0  0  0  0  0  0  0  0  0  0
   -5.1121   -0.4961   14.5378 N   0  0  0  0  0  0  0  0  0  0  0  0
   -5.0353    0.8634   14.6506 C   0  0  0  0  0  0  0  0  0  0  0  0
   -5.8276    1.4677   13.7363 N   0  0  1  0  0  0  0  0  0  0  0  0
  1  3  1  6  0  0  0
  1  4  2  0  0  0  0
  1  6  1  0  0  0  0
  1 22  1  0  0  0  0
  2 28  1  0  0  0  0
  2 35  1  1  0  0  0
  2 38  2  0  0  0  0
  2 10  1  0  0  0  0
  5  6  1  0  0  0  0
  7  5  1  6  0  0  0
  7  8  1  0  0  0  0
  7  9  1  0  0  0  0
  9 10  1  1  0  0  0
  9 11  1  0  0  0  0
 11 12  1  1  0  0  0
 11 13  1  0  0  0  0
 13  8  1  6  0  0  0
 13 33  1  0  0  0  0
 14 46  1  0  0  0  0
 14 17  1  0  0  0  0
 14 25  1  1  0  0  0
 15 16  1  0  0  0  0
 15 29  1  0  0  0  0
 16 18  1  6  0  0  0
 16 21  1  0  0  0  0
 17 19  1  6  0  0  0
 17 20  1  0  0  0  0
 20 22  1  6  0  0  0
 20 24  1  0  0  0  0
 23 21  1  6  0  0  0
 23 26  1  0  0  0  0
 23 33  1  0  0  0  0
 24 25  1  6  0  0  0
 24 27  1  0  0  0  0
 26 29  1  1  0  0  0
 26 31  1  0  0  0  0
 27 28  1  0  0  0  0
 29 30  2  0  0  0  0
 31 32  1  0  0  0  0
 33 32  1  1  0  0  0
 34 36  1  0  0  0  0
 34 42  1  0  0  0  0
 36 37  1  6  0  0  0
 36 39  1  0  0  0  0
 40 39  1  1  0  0  0
 40 41  1  0  0  0  0
 40 46  1  0  0  0  0
 41 42  1  1  0  0  0
 41 44  1  0  0  0  0
 42 43  2  0  0  0  0
 44 45  1  0  0  0  0
 46 45  1  6  0  0  0
M  CHG  2   3  -1  35  -1
M  END
>  <CHROM.1>
164.09704579,66.02841292,-8.04464143,1.70865696,16.43023447,-2.27634348,-0.99425869
-2.48477082

>  <Name>
ligand

>  <RI>
-1

>  <Rbt.Current_Directory>
/home/itssahil/PROJECTS/Mol_Feturizer/Test_systems_manuscript/rnas/3mum

>  <Rbt.Executable>
rbdock ($Id: //depot/dev/client3/rdock/2013.1/src/exe/rbdock.cxx#4 $)

>  <Rbt.Library>
libRbt.so (2013.1, Build901 2013/11/27)

>  <Rbt.Parameter_File>
/export/apps/rDock/src/rDock_2013.1_src/data/scripts/dock_solv.prm

>  <Rbt.Receptor>
prm/pocket_docking_7.prm

>  <SCORE>
-40.4967

>  <SCORE.INTER>
-40.4762

>  <SCORE.INTER.CONST>
1

>  <SCORE.INTER.POLAR>
0

>  <SCORE.INTER.ROT>
2

>  <SCORE.INTER.SOLV>
38.6415

>  <SCORE.INTER.VDW>
-44.798

>  <SCORE.INTER.norm>
-0.879918

>  <SCORE.INTRA>
-0.0204173

>  <SCORE.INTRA.DIHEDRAL>
0.00103228

>  <SCORE.INTRA.DIHEDRAL.0>
2.40424

>  <SCORE.INTRA.POLAR>
0

>  <SCORE.INTRA.POLAR.0>
0

>  <SCORE.INTRA.REPUL>
0

>  <SCORE.INTRA.REPUL.0>
0

>  <SCORE.INTRA.SOLV>
0.00103571

>  <SCORE.INTRA.SOLV.lig_0>
-134.169

>  <SCORE.INTRA.VDW>
-0.0214513

>  <SCORE.INTRA.VDW.0>
-2.18386

>  <SCORE.INTRA.norm>
-0.000443854

>  <SCORE.RESTR>
0

>  <SCORE.RESTR.CAVITY>
0

>  <SCORE.RESTR.norm>
0

>  <SCORE.SYSTEM>
0

>  <SCORE.SYSTEM.CONST>
0

>  <SCORE.SYSTEM.DIHEDRAL>
0

>  <SCORE.SYSTEM.SOLV>
0

>  <SCORE.SYSTEM.norm>
0

>  <SCORE.heavy>
46

>  <SCORE.norm>
-0.880362

>  <RMSD>
0.139

$$$$
ligand
 OpenBabel02271912143D
libRbt.so/2013.1/901 2013/11/27
 46 52  0  0  0  0  0  0  0  0999 V2000
   -9.7576    4.9418   15.6145 P   0  0  1  0  0  0  0  0  0  0  0  0
   -5.2886    2.5821   18.6371 P   0  0  2  0  0  0  0  0  0  0  0  0
  -10.5053    3.7196   14.5711 O   0  5  0  0  0  0  0  0  0  0  0  0
  -10.6262    6.4969   15.5326 O   0  0  0  0  0  0  0  0  0  0  0  0
   -9.1149    5.1088   18.1801 C   0  0  0  0  0  0  0  0  0  0  0  0
   -9.7518    4.3846   17.1273 O   0  0  0  0  0  0  0  0  0  0  0  0
   -8.8465    4.1558   19.3292 C   0  0  1  0  0  0  0  0  0  0  0  0
  -10.0636    3.4872   19.6895 O   0  0  0  0  0  0  0  0  0  0  0  0
   -7.8640    3.0510   18.9760 C   0  0  1  0  0  0  0  0  0  0  0  0
   -6.5175    3.4146   19.2724 O   0  0  0  0  0  0  0  0  0  0  0  0
   -8.3377    1.8840   19.8243 C   0  0  1  0  0  0  0  0  0  0  0  0
   -7.7094    1.9241   21.1081 O   0  0  0  0  0  0  0  0  0  0  0  0
   -9.8275    2.1066   20.0068 C   0  0  2  0  0  0  0  0  0  0  0  0
   -5.9978    2.9298   13.5426 C   0  0  1  0  0  0  0  0  0  0  0  0
  -10.6856   -2.7413   18.0183 N   0  0  0  0  0  0  0  0  0  0  0  0
   -9.7736   -2.3448   18.9475 C   0  0  1  0  0  0  0  0  0  0  0  0
   -7.4101    3.3309   13.8617 C   0  0  2  0  0  0  0  0  0  0  0  0
   -8.9440   -3.2781   19.4684 N   0  0  0  0  0  0  0  0  0  0  0  0
   -7.8263    4.2114   12.8164 O   0  0  0  0  0  0  0  0  0  0  0  0
   -7.3178    4.0381   15.1992 C   0  0  2  0  0  0  0  0  0  0  0  0
   -9.6624   -1.0500   19.3691 N   0  0  0  0  0  0  0  0  0  0  0  0
   -8.2001    5.1499   15.2681 O   0  0  0  0  0  0  0  0  0  0  0  0
  -10.4719   -0.0773   18.8790 C   0  0  2  0  0  0  0  0  0  0  0  0
   -5.8798    4.5093   15.2917 C   0  0  2  0  0  0  0  0  0  0  0  0
   -5.1377    3.6801   14.3990 O   0  0  0  0  0  0  0  0  0  0  0  0
  -11.4753   -0.4526   17.8676 C   0  0  1  0  0  0  0  0  0  0  0  0
   -5.3051    4.3843   16.6983 C   0  0  0  0  0  0  0  0  0  0  0  0
   -5.3103    3.0085   17.0845 O   0  0  0  0  0  0  0  0  0  0  0  0
  -11.5474   -1.8651   17.4533 C   0  0  0  0  0  0  0  0  0  0  0  0
  -12.4512   -2.2685   16.5247 O   0  0  0  0  0  0  0  0  0  0  0  0
  -12.1353    0.6642   17.5417 N   0  0  0  0  0  0  0  0  0  0  0  0
  -11.6026    1.6813   18.2802 C   0  0  0  0  0  0  0  0  0  0  0  0
  -10.6075    1.2438   19.0803 N   0  0  1  0  0  0  0  0  0  0  0  0
   -7.3740   -1.8335   11.8738 N   0  0  0  0  0  0  0  0  0  0  0  0
   -5.5346    0.8238   18.8069 O   0  5  0  0  0  0  0  0  0  0  0  0
   -7.7682   -0.6080   11.4316 C   0  0  2  0  0  0  0  0  0  0  0  0
   -8.6470   -0.5265   10.3987 N   0  0  0  0  0  0  0  0  0  0  0  0
   -3.7114    3.0269   19.3171 O   0  0  0  0  0  0  0  0  0  0  0  0
   -7.3082    0.5437   11.9924 N   0  0  0  0  0  0  0  0  0  0  0  0
   -6.4265    0.5271   13.0193 C   0  0  2  0  0  0  0  0  0  0  0  0
   -5.9662   -0.7660   13.5423 C   0  0  2  0  0  0  0  0  0  0  0  0
   -6.5054   -1.9818   12.8965 C   0  0  0  0  0  0  0  0  0  0  0  0
   -6.1405   -3.2197   13.3125 O   0  0  0  0  0  0  0  0  0  0  0  0
   -5.1169   -0.4927   14.5525 N   0  0  0  0  0  0  0  0  0  0  0  0
   -5.0373    0.8669   14.6634 C   0  0  0  0  0  0  0  0  0  0  0  0
   -5.8250    1.4714   13.7452 N   0  0  1  0  0  0  0  0  0  0  0  0
  1  3  1  6  0  0  0
  1  4  2  0  0  0  0
  1  6  1  0  0  0  0
  1 22  1  0  0  0  0
  2 28  1  0  0  0  0
  2 35  1  1  0  0  0
  2 38  2  0  0  0  0
  2 10  1  0  0  0  0
  5  6  1  0  0  0  0
  7  5  1  6  0  0  0
  7  8  1  0  0  0  0
  7  9  1  0  0  0  0
  9 10  1  1  0  0  0
  9 11  1  0  0  0  0
 11 12  1  1  0  0  0
 11 13  1  0  0  0  0
 13  8  1  6  0  0  0
 13 33  1  0  0  0  0
 14 46  1  0  0  0  0
 14 17  1  0  0  0  0
 14 25  1  1  0  0  0
 15 16  1  0  0  0  0
 15 29  1  0  0  0  0
 16 18  1  6  0  0  0
 16 21  1  0  0  0  0
 17 19  1  6  0  0  0
 17 20  1  0  0  0  0
 20 22  1  6  0  0  0
 20 24  1  0  0  0  0
 23 21  1  6  0  0  0
 23 26  1  0  0  0  0
 23 33  1  0  0  0  0
 24 25  1  6  0  0  0
 24 27  1  0  0  0  0
 26 29  1  1  0  0  0
 26 31  1  0  0  0  0
 27 28  1  0  0  0  0
 29 30  2  0  0  0  0
 31 32  1  0  0  0  0
 33 32  1  1  0  0  0
 34 36  1  0  0  0  0
 34 42  1  0  0  0  0
 36 37  1  6  0  0  0
 36 39  1  0  0  0  0
 40 39  1  1  0  0  0
 40 41  1  0  0  0  0
 40 46  1  0  0  0  0
 41 42  1  1  0  0  0
 41 44  1  0  0  0  0
 42 43  2  0  0  0  0
 44 45  1  0  0  0  0
 46 45  1  6  0  0  0
M  CHG  2   3  -1  35  -1
M  END
>  <CHROM.1>
166.31454805,65.95026380,-8.06275768,1.71872912,16.43671043,-2.32518386,-0.98918449
-2.48414364

>  <Name>
ligand

>  <RI>
-1

>  <Rbt.Current_Directory>
/home/itssahil/PROJECTS/Mol_Feturizer/Test_systems_manuscript/rnas/3mum

>  <Rbt.Executable>
rbdock ($Id: //depot/dev/client3/rdock/2013.1/src/exe/rbdock.cxx#4 $)

>  <Rbt.Library>
libRbt.so (2013.1, Build901 2013/11/27)

>  <Rbt.Parameter_File>
/export/apps/rDock/src/rDock_2013.1_src/data/scripts/dock_solv.prm

>  <Rbt.Receptor>
prm/pocket_docking_5.prm

>  <SCORE>
-40.3964

>  <SCORE.INTER>
-40.3966

>  <SCORE.INTER.CONST>
1

>  <SCORE.INTER.POLAR>
0

>  <SCORE.INTER.ROT>
2

>  <SCORE.INTER.SOLV>
38.6471

>  <SCORE.INTER.VDW>
-44.7468

>  <SCORE.INTER.norm>
-0.878187

>  <SCORE.INTRA>
0.000187461

>  <SCORE.INTRA.DIHEDRAL>
0.00122308

>  <SCORE.INTRA.DIHEDRAL.0>
2.40424

>  <SCORE.INTRA.POLAR>
0

>  <SCORE.INTRA.POLAR.0>
0

>  <SCORE.INTRA.REPUL>
0

>  <SCORE.INTRA.REPUL.0>
0

>  <SCORE.INTRA.SOLV>
9.33714e-05

>  <SCORE.INTRA.SOLV.lig_0>
-134.169

>  <SCORE.INTRA.VDW>
-0.000470763

>  <SCORE.INTRA.VDW.0>
-2.18386

>  <SCORE.INTRA.norm>
4.07524e-06

>  <SCORE.RESTR>
0

>  <SCORE.RESTR.CAVITY>
0

>  <SCORE.RESTR.norm>
0

>  <SCORE.SYSTEM>
0

>  <SCORE.SYSTEM.CONST>
0

>  <SCORE.SYSTEM.DIHEDRAL>
0

>  <SCORE.SYSTEM.SOLV>
0

>  <SCORE.SYSTEM.norm>
0

>  <SCORE.heavy>
46

>  <SCORE.norm>
-0.878183

>  <RMSD>
0.140

$$$$
ligand
 OpenBabel02271912143D
libRbt.so/2013.1/901 2013/11/27
 46 52  0  0  0  0  0  0  0  0999 V2000
   -9.7457    4.9430   15.6264 P   0  0  1  0  0  0  0  0  0  0  0  0
   -5.2751    2.5650   18.6322 P   0  0  2  0  0  0  0  0  0  0  0  0
  -10.4996    3.7249   14.5825 O   0  5  0  0  0  0  0  0  0  0  0  0
  -10.6104    6.5005   15.5500 O   0  0  0  0  0  0  0  0  0  0  0  0
   -9.0957    5.1029   18.1907 C   0  0  0  0  0  0  0  0  0  0  0  0
   -9.7374    4.3826   17.1381 O   0  0  0  0  0  0  0  0  0  0  0  0
   -8.8268    4.1468   19.3371 C   0  0  1  0  0  0  0  0  0  0  0  0
  -10.0447    3.4808   19.6992 O   0  0  0  0  0  0  0  0  0  0  0  0
   -7.8483    3.0402   18.9789 C   0  0  1  0  0  0  0  0  0  0  0  0
   -6.5000    3.3995   19.2725 O   0  0  0  0  0  0  0  0  0  0  0  0
   -8.3228    1.8727   19.8261 C   0  0  1  0  0  0  0  0  0  0  0  0
   -7.6910    1.9084   21.1083 O   0  0  0  0  0  0  0  0  0  0  0  0
   -9.8116    2.0988   20.0131 C   0  0  2  0  0  0  0  0  0  0  0  0
   -5.9969    2.9252   13.5403 C   0  0  1  0  0  0  0  0  0  0  0  0
  -10.6594   -2.7345   17.9852 N   0  0  0  0  0  0  0  0  0  0  0  0
   -9.7394   -2.3411   18.9078 C   0  0  1  0  0  0  0  0  0  0  0  0
   -7.4073    3.3294   13.8640 C   0  0  2  0  0  0  0  0  0  0  0  0
   -8.8974   -3.2738   19.4094 N   0  0  0  0  0  0  0  0  0  0  0  0
   -7.8239    4.2131   12.8217 O   0  0  0  0  0  0  0  0  0  0  0  0
   -7.3095    4.0335   15.2028 C   0  0  2  0  0  0  0  0  0  0  0  0
   -9.6322   -1.0498   19.3412 N   0  0  0  0  0  0  0  0  0  0  0  0
   -8.1887    5.1476   15.2763 O   0  0  0  0  0  0  0  0  0  0  0  0
  -10.4541   -0.0779   18.8706 C   0  0  2  0  0  0  0  0  0  0  0  0
   -5.8700    4.5007   15.2924 C   0  0  2  0  0  0  0  0  0  0  0  0
   -5.1325    3.6713   14.3960 O   0  0  0  0  0  0  0  0  0  0  0  0
  -11.4665   -0.4499   17.8671 C   0  0  1  0  0  0  0  0  0  0  0  0
   -5.2919    4.3713   16.6972 C   0  0  0  0  0  0  0  0  0  0  0  0
   -5.2997    2.9947   17.0806 O   0  0  0  0  0  0  0  0  0  0  0  0
  -11.5337   -1.8587   17.4392 C   0  0  0  0  0  0  0  0  0  0  0  0
  -12.4455   -2.2589   16.5170 O   0  0  0  0  0  0  0  0  0  0  0  0
  -12.1379    0.6655   17.5603 N   0  0  0  0  0  0  0  0  0  0  0  0
  -11.6036    1.6787   18.3029 C   0  0  0  0  0  0  0  0  0  0  0  0
  -10.5964    1.2401   19.0869 N   0  0  1  0  0  0  0  0  0  0  0  0
   -7.3764   -1.8310   11.8539 N   0  0  0  0  0  0  0  0  0  0  0  0
   -5.5254    0.8071   18.7991 O   0  5  0  0  0  0  0  0  0  0  0  0
   -7.7669   -0.6035   11.4138 C   0  0  2  0  0  0  0  0  0  0  0  0
   -8.6421   -0.5175   10.3781 N   0  0  0  0  0  0  0  0  0  0  0  0
   -3.6949    3.0042   19.3090 O   0  0  0  0  0  0  0  0  0  0  0  0
   -7.3066    0.5457   11.9792 N   0  0  0  0  0  0  0  0  0  0  0  0
   -6.4284    0.5247   13.0090 C   0  0  2  0  0  0  0  0  0  0  0  0
   -5.9722   -0.7707   13.5300 C   0  0  2  0  0  0  0  0  0  0  0  0
   -6.5115   -1.9837   12.8790 C   0  0  0  0  0  0  0  0  0  0  0  0
   -6.1503   -3.2234   13.2928 O   0  0  0  0  0  0  0  0  0  0  0  0
   -5.1257   -0.5018   14.5437 N   0  0  0  0  0  0  0  0  0  0  0  0
   -5.0440    0.8573   14.6586 C   0  0  0  0  0  0  0  0  0  0  0  0
   -5.8275    1.4658   13.7395 N   0  0  1  0  0  0  0  0  0  0  0  0
  1  3  1  6  0  0  0
  1  4  2  0  0  0  0
  1  6  1  0  0  0  0
  1 22  1  0  0  0  0
  2 28  1  0  0  0  0
  2 35  1  1  0  0  0
  2 38  2  0  0  0  0
  2 10  1  0  0  0  0
  5  6  1  0  0  0  0
  7  5  1  6  0  0  0
  7  8  1  0  0  0  0
  7  9  1  0  0  0  0
  9 10  1  1  0  0  0
  9 11  1  0  0  0  0
 11 12  1  1  0  0  0
 11 13  1  0  0  0  0
 13  8  1  6  0  0  0
 13 33  1  0  0  0  0
 14 46  1  0  0  0  0
 14 17  1  0  0  0  0
 14 25  1  1  0  0  0
 15 16  1  0  0  0  0
 15 29  1  0  0  0  0
 16 18  1  6  0  0  0
 16 21  1  0  0  0  0
 17 19  1  6  0  0  0
 17 20  1  0  0  0  0
 20 22  1  6  0  0  0
 20 24  1  0  0  0  0
 23 21  1  6  0  0  0
 23 26  1  0  0  0  0
 23 33  1  0  0  0  0
 24 25  1  6  0  0  0
 24 27  1  0  0  0  0
 26 29  1  1  0  0  0
 26 31  1  0  0  0  0
 27 28  1  0  0  0  0
 29 30  2  0  0  0  0
 31 32  1  0  0  0  0
 33 32  1  1  0  0  0
 34 36  1  0  0  0  0
 34 42  1  0  0  0  0
 36 37  1  6  0  0  0
 36 39  1  0  0  0  0
 40 39  1  1  0  0  0
 40 41  1  0  0  0  0
 40 46  1  0  0  0  0
 41 42  1  1  0  0  0
 41 44  1  0  0  0  0
 42 43  2  0  0  0  0
 44 45  1  0  0  0  0
 46 45  1  6  0  0  0
M  CHG  2   3  -1  35  -1
M  END
>  <CHROM.1>
165.42919488,66.29936558,-8.05277979,1.71451593,16.43279769,-2.30110291,-0.98989398
-2.47963683

>  <Name>
ligand

>  <RI>
416

>  <Rbt.Current_Directory>
/home/itssahil/PROJECTS/Mol_Feturizer/Test_systems_manuscript/rnas/3mum

>  <Rbt.Executable>
rbdock ($Id: //depot/dev/client3/rdock/2013.1/src/exe/rbdock.cxx#4 $)

>  <Rbt.Library>
libRbt.so (2013.1, Build901 2013/11/27)

>  <Rbt.Parameter_File>
/export/apps/rDock/src/rDock_2013.1_src/data/scripts/dock_solv.prm

>  <Rbt.Receptor>
prm/pocket_docking_3.prm

>  <SCORE>
-40.3714

>  <SCORE.INTER>
-40.3569

>  <SCORE.INTER.CONST>
1

>  <SCORE.INTER.POLAR>
0

>  <SCORE.INTER.ROT>
2

>  <SCORE.INTER.SOLV>
38.6489

>  <SCORE.INTER.VDW>
-44.7209

>  <SCORE.INTER.norm>
-0.877324

>  <SCORE.INTRA>
-0.0145209

>  <SCORE.INTRA.DIHEDRAL>
0.00158147

>  <SCORE.INTRA.DIHEDRAL.0>
2.40424

>  <SCORE.INTRA.POLAR>
0

>  <SCORE.INTRA.POLAR.0>
0

>  <SCORE.INTRA.REPUL>
0

>  <SCORE.INTRA.REPUL.0>
0

>  <SCORE.INTRA.SOLV>
2.76585e-05

>  <SCORE.INTRA.SOLV.lig_0>
-134.169

>  <SCORE.INTRA.VDW>
-0.0153255

>  <SCORE.INTRA.VDW.0>
-2.18386

>  <SCORE.INTRA.norm>
-0.000315672

>  <SCORE.RESTR>
0

>  <SCORE.RESTR.CAVITY>
0

>  <SCORE.RESTR.norm>
0

>  <SCORE.SYSTEM>
0

>  <SCORE.SYSTEM.CONST>
0

>  <SCORE.SYSTEM.DIHEDRAL>
0

>  <SCORE.SYSTEM.SOLV>
0

>  <SCORE.SYSTEM.norm>
0

>  <SCORE.heavy>
46

>  <SCORE.norm>
-0.87764

>  <RMSD>
0.142

$$$$
ligand
 OpenBabel02271912143D
libRbt.so/2013.1/901 2013/11/27
 46 52  0  0  0  0  0  0  0  0999 V2000
   -9.7557    4.9156   15.6408 P   0  0  1  0  0  0  0  0  0  0  0  0
   -5.2652    2.5955   18.6623 P   0  0  2  0  0  0  0  0  0  0  0  0
  -10.4926    3.6868   14.5973 O   0  5  0  0  0  0  0  0  0  0  0  0
  -10.6383    6.4627   15.5593 O   0  0  0  0  0  0  0  0  0  0  0  0
   -9.1141    5.0878   18.2064 C   0  0  0  0  0  0  0  0  0  0  0  0
   -9.7447    4.3581   17.1536 O   0  0  0  0  0  0  0  0  0  0  0  0
   -8.8370    4.1370   19.3553 C   0  0  1  0  0  0  0  0  0  0  0  0
  -10.0479    3.4575   19.7156 O   0  0  0  0  0  0  0  0  0  0  0  0
   -7.8447    3.0412   19.0016 C   0  0  1  0  0  0  0  0  0  0  0  0
   -6.5014    3.4168   19.2979 O   0  0  0  0  0  0  0  0  0  0  0  0
   -8.3077    1.8698   19.8498 C   0  0  1  0  0  0  0  0  0  0  0  0
   -7.6796    1.9152   21.1335 O   0  0  0  0  0  0  0  0  0  0  0  0
   -9.7995    2.0789   20.0326 C   0  0  2  0  0  0  0  0  0  0  0  0
   -5.9783    2.9378   13.5679 C   0  0  1  0  0  0  0  0  0  0  0  0
  -10.5402   -2.7530   17.9599 N   0  0  0  0  0  0  0  0  0  0  0  0
   -9.6201   -2.3449   18.8760 C   0  0  1  0  0  0  0  0  0  0  0  0
   -7.3941    3.3261   13.8873 C   0  0  2  0  0  0  0  0  0  0  0  0
   -8.7470   -3.2597   19.3570 N   0  0  0  0  0  0  0  0  0  0  0  0
   -7.8184    4.2030   12.8423 O   0  0  0  0  0  0  0  0  0  0  0  0
   -7.3079    4.0339   15.2250 C   0  0  2  0  0  0  0  0  0  0  0  0
   -9.5427   -1.0560   19.3228 N   0  0  0  0  0  0  0  0  0  0  0  0
   -8.2002    5.1377   15.2943 O   0  0  0  0  0  0  0  0  0  0  0  0
  -10.3964   -0.1018   18.8730 C   0  0  2  0  0  0  0  0  0  0  0  0
   -5.8742    4.5180   15.3173 C   0  0  2  0  0  0  0  0  0  0  0  0
   -5.1248    3.6956   14.4244 O   0  0  0  0  0  0  0  0  0  0  0  0
  -11.4105   -0.4902   17.8775 C   0  0  1  0  0  0  0  0  0  0  0  0
   -5.2982    4.3979   16.7238 C   0  0  0  0  0  0  0  0  0  0  0  0
   -5.2910    3.0220   17.1098 O   0  0  0  0  0  0  0  0  0  0  0  0
  -11.4446   -1.8954   17.4344 C   0  0  0  0  0  0  0  0  0  0  0  0
  -12.3563   -2.3102   16.5185 O   0  0  0  0  0  0  0  0  0  0  0  0
  -12.1156    0.6098   17.5914 N   0  0  0  0  0  0  0  0  0  0  0  0
  -11.6001    1.6289   18.3391 C   0  0  0  0  0  0  0  0  0  0  0  0
  -10.5718    1.2094   19.1060 N   0  0  1  0  0  0  0  0  0  0  0  0
   -7.4106   -1.8381   11.9843 N   0  0  0  0  0  0  0  0  0  0  0  0
   -5.4954    0.8350   18.8318 O   0  5  0  0  0  0  0  0  0  0  0  0
   -7.8273   -0.6159   11.5534 C   0  0  2  0  0  0  0  0  0  0  0  0
   -8.7502   -0.5423   10.5590 N   0  0  0  0  0  0  0  0  0  0  0  0
   -3.6919    3.0543   19.3422 O   0  0  0  0  0  0  0  0  0  0  0  0
   -7.3471    0.5399   12.0879 N   0  0  0  0  0  0  0  0  0  0  0  0
   -6.4218    0.5312   13.0758 C   0  0  2  0  0  0  0  0  0  0  0  0
   -5.9352   -0.7579   13.5850 C   0  0  2  0  0  0  0  0  0  0  0  0
   -6.4981   -1.9785   12.9692 C   0  0  0  0  0  0  0  0  0  0  0  0
   -6.1118   -3.2132   13.3753 O   0  0  0  0  0  0  0  0  0  0  0  0
   -5.0439   -0.4769   14.5560 N   0  0  0  0  0  0  0  0  0  0  0  0
   -4.9639    0.8834   14.6565 C   0  0  0  0  0  0  0  0  0  0  0  0
   -5.7923    1.4809   13.7702 N   0  0  1  0  0  0  0  0  0  0  0  0
  1  3  1  6  0  0  0
  1  4  2  0  0  0  0
  1  6  1  0  0  0  0
  1 22  1  0  0  0  0
  2 28  1  0  0  0  0
  2 35  1  1  0  0  0
  2 38  2  0  0  0  0
  2 10  1  0  0  0  0
  5  6  1  0  0  0  0
  7  5  1  6  0  0  0
  7  8  1  0  0  0  0
  7  9  1  0  0  0  0
  9 10  1  1  0  0  0
  9 11  1  0  0  0  0
 11 12  1  1  0  0  0
 11 13  1  0  0  0  0
 13  8  1  6  0  0  0
 13 33  1  0  0  0  0
 14 46  1  0  0  0  0
 14 17  1  0  0  0  0
 14 25  1  1  0  0  0
 15 16  1  0  0  0  0
 15 29  1  0  0  0  0
 16 18  1  6  0  0  0
 16 21  1  0  0  0  0
 17 19  1  6  0  0  0
 17 20  1  0  0  0  0
 20 22  1  6  0  0  0
 20 24  1  0  0  0  0
 23 21  1  6  0  0  0
 23 26  1  0  0  0  0
 23 33  1  0  0  0  0
 24 25  1  6  0  0  0
 24 27  1  0  0  0  0
 26 29  1  1  0  0  0
 26 31  1  0  0  0  0
 27 28  1  0  0  0  0
 29 30  2  0  0  0  0
 31 32  1  0  0  0  0
 33 32  1  1  0  0  0
 34 36  1  0  0  0  0
 34 42  1  0  0  0  0
 36 37  1  6  0  0  0
 36 39  1  0  0  0  0
 40 39  1  1  0  0  0
 40 41  1  0  0  0  0
 40 46  1  0  0  0  0
 41 42  1  1  0  0  0
 41 44  1  0  0  0  0
 42 43  2  0  0  0  0
 44 45  1  0  0  0  0
 46 45  1  6  0  0  0
M  CHG  2   3  -1  35  -1
M  END
>  <CHROM.1>
163.99747843,63.43843168,-8.03465337,1.71006982,16.46253658,-2.27327486,-0.99288644
-2.48741559

>  <Name>
ligand

>  <RI>
-1

>  <Rbt.Current_Directory>
/home/itssahil/PROJECTS/Mol_Feturizer/Test_systems_manuscript/rnas/3mum

>  <Rbt.Executable>
rbdock ($Id: //depot/dev/client3/rdock/2013.1/src/exe/rbdock.cxx#4 $)

>  <Rbt.Library>
libRbt.so (2013.1, Build901 2013/11/27)

>  <Rbt.Parameter_File>
/export/apps/rDock/src/rDock_2013.1_src/data/scripts/dock_solv.prm

>  <Rbt.Receptor>
prm/pocket_docking_6.prm

>  <SCORE>
-40.4657

>  <SCORE.INTER>
-40.4553

>  <SCORE.INTER.CONST>
1

>  <SCORE.INTER.POLAR>
0

>  <SCORE.INTER.ROT>
2

>  <SCORE.INTER.SOLV>
38.4946

>  <SCORE.INTER.VDW>
-44.7351

>  <SCORE.INTER.norm>
-0.879464

>  <SCORE.INTRA>
-0.0103614

>  <SCORE.INTRA.DIHEDRAL>
-0.0026225

>  <SCORE.INTRA.DIHEDRAL.0>
2.40424

>  <SCORE.INTRA.POLAR>
0

>  <SCORE.INTRA.POLAR.0>
0

>  <SCORE.INTRA.REPUL>
0

>  <SCORE.INTRA.REPUL.0>
0

>  <SCORE.INTRA.SOLV>
0.0045951

>  <SCORE.INTRA.SOLV.lig_0>
-134.169

>  <SCORE.INTRA.VDW>
-0.0113477

>  <SCORE.INTRA.VDW.0>
-2.18386

>  <SCORE.INTRA.norm>
-0.000225248

>  <SCORE.RESTR>
0

>  <SCORE.RESTR.CAVITY>
0

>  <SCORE.RESTR.norm>
0

>  <SCORE.SYSTEM>
0

>  <SCORE.SYSTEM.CONST>
0

>  <SCORE.SYSTEM.DIHEDRAL>
0

>  <SCORE.SYSTEM.SOLV>
0

>  <SCORE.SYSTEM.norm>
0

>  <SCORE.heavy>
46

>  <SCORE.norm>
-0.879689

>  <RMSD>
0.143

$$$$
ligand
 OpenBabel02271912143D
libRbt.so/2013.1/901 2013/11/27
 46 52  0  0  0  0  0  0  0  0999 V2000
   -9.7577    4.9308   15.6238 P   0  0  1  0  0  0  0  0  0  0  0  0
   -5.2632    2.5833   18.6180 P   0  0  2  0  0  0  0  0  0  0  0  0
  -10.5107    3.7057   14.5876 O   0  5  0  0  0  0  0  0  0  0  0  0
  -10.6296    6.4842   15.5458 O   0  0  0  0  0  0  0  0  0  0  0  0
   -9.0969    5.1028   18.1845 C   0  0  0  0  0  0  0  0  0  0  0  0
   -9.7401    4.3759   17.1374 O   0  0  0  0  0  0  0  0  0  0  0  0
   -8.8187    4.1519   19.3331 C   0  0  1  0  0  0  0  0  0  0  0  0
  -10.0320    3.4819   19.7031 O   0  0  0  0  0  0  0  0  0  0  0  0
   -7.8369    3.0484   18.9745 C   0  0  1  0  0  0  0  0  0  0  0  0
   -6.4889    3.4147   19.2608 O   0  0  0  0  0  0  0  0  0  0  0  0
   -8.3025    1.8818   19.8280 C   0  0  1  0  0  0  0  0  0  0  0  0
   -7.6650    1.9249   21.1072 O   0  0  0  0  0  0  0  0  0  0  0  0
   -9.7913    2.1021   20.0208 C   0  0  2  0  0  0  0  0  0  0  0  0
   -6.0093    2.9221   13.5281 C   0  0  1  0  0  0  0  0  0  0  0  0
  -10.5614   -2.7209   17.9380 N   0  0  0  0  0  0  0  0  0  0  0  0
   -9.6288   -2.3168   18.8432 C   0  0  1  0  0  0  0  0  0  0  0  0
   -7.4200    3.3213   13.8567 C   0  0  2  0  0  0  0  0  0  0  0  0
   -8.7494   -3.2338   19.3083 N   0  0  0  0  0  0  0  0  0  0  0  0
   -7.8452    4.1994   12.8131 O   0  0  0  0  0  0  0  0  0  0  0  0
   -7.3194    4.0306   15.1925 C   0  0  2  0  0  0  0  0  0  0  0  0
   -9.5450   -1.0299   19.2944 N   0  0  0  0  0  0  0  0  0  0  0  0
   -8.2031    5.1411   15.2660 O   0  0  0  0  0  0  0  0  0  0  0  0
  -10.4045   -0.0736   18.8603 C   0  0  2  0  0  0  0  0  0  0  0  0
   -5.8815    4.5045   15.2740 C   0  0  2  0  0  0  0  0  0  0  0  0
   -5.1444    3.6752   14.3773 O   0  0  0  0  0  0  0  0  0  0  0  0
  -11.4322   -0.4576   17.8770 C   0  0  1  0  0  0  0  0  0  0  0  0
   -5.2966    4.3826   16.6766 C   0  0  0  0  0  0  0  0  0  0  0  0
   -5.2967    3.0073   17.0650 O   0  0  0  0  0  0  0  0  0  0  0  0
  -11.4726   -1.8609   17.4285 C   0  0  0  0  0  0  0  0  0  0  0  0
  -12.3968   -2.2717   16.5234 O   0  0  0  0  0  0  0  0  0  0  0  0
  -12.1409    0.6437   17.6052 N   0  0  0  0  0  0  0  0  0  0  0  0
  -11.6150    1.6596   18.3501 C   0  0  0  0  0  0  0  0  0  0  0  0
  -10.5764    1.2366   19.1012 N   0  0  1  0  0  0  0  0  0  0  0  0
   -7.3469   -1.8459   11.8413 N   0  0  0  0  0  0  0  0  0  0  0  0
   -5.5049    0.8249   18.7922 O   0  5  0  0  0  0  0  0  0  0  0  0
   -7.7413   -0.6217   11.3956 C   0  0  2  0  0  0  0  0  0  0  0  0
   -8.6091   -0.5432   10.3531 N   0  0  0  0  0  0  0  0  0  0  0  0
   -3.6819    3.0319   19.2860 O   0  0  0  0  0  0  0  0  0  0  0  0
   -7.2924    0.5315   11.9621 N   0  0  0  0  0  0  0  0  0  0  0  0
   -6.4221    0.5180   12.9987 C   0  0  2  0  0  0  0  0  0  0  0  0
   -5.9620   -0.7736   13.5259 C   0  0  2  0  0  0  0  0  0  0  0  0
   -6.4889   -1.9912   12.8734 C   0  0  0  0  0  0  0  0  0  0  0  0
   -6.1234   -3.2278   13.2926 O   0  0  0  0  0  0  0  0  0  0  0  0
   -5.1250   -0.4974   14.5455 N   0  0  0  0  0  0  0  0  0  0  0  0
   -5.0525    0.8625   14.6581 C   0  0  0  0  0  0  0  0  0  0  0  0
   -5.8325    1.4643   13.7317 N   0  0  1  0  0  0  0  0  0  0  0  0
  1  3  1  6  0  0  0
  1  4  2  0  0  0  0
  1  6  1  0  0  0  0
  1 22  1  0  0  0  0
  2 28  1  0  0  0  0
  2 35  1  1  0  0  0
  2 38  2  0  0  0  0
  2 10  1  0  0  0  0
  5  6  1  0  0  0  0
  7  5  1  6  0  0  0
  7  8  1  0  0  0  0
  7  9  1  0  0  0  0
  9 10  1  1  0  0  0
  9 11  1  0  0  0  0
 11 12  1  1  0  0  0
 11 13  1  0  0  0  0
 13  8  1  6  0  0  0
 13 33  1  0  0  0  0
 14 46  1  0  0  0  0
 14 17  1  0  0  0  0
 14 25  1  1  0  0  0
 15 16  1  0  0  0  0
 15 29  1  0  0  0  0
 16 18  1  6  0  0  0
 16 21  1  0  0  0  0
 17 19  1  6  0  0  0
 17 20  1  0  0  0  0
 20 22  1  6  0  0  0
 20 24  1  0  0  0  0
 23 21  1  6  0  0  0
 23 26  1  0  0  0  0
 23 33  1  0  0  0  0
 24 25  1  6  0  0  0
 24 27  1  0  0  0  0
 26 29  1  1  0  0  0
 26 31  1  0  0  0  0
 27 28  1  0  0  0  0
 29 30  2  0  0  0  0
 31 32  1  0  0  0  0
 33 32  1  1  0  0  0
 34 36  1  0  0  0  0
 34 42  1  0  0  0  0
 36 37  1  6  0  0  0
 36 39  1  0  0  0  0
 40 39  1  1  0  0  0
 40 41  1  0  0  0  0
 40 46  1  0  0  0  0
 41 42  1  1  0  0  0
 41 44  1  0  0  0  0
 42 43  2  0  0  0  0
 44 45  1  0  0  0  0
 46 45  1  6  0  0  0
M  CHG  2   3  -1  35  -1
M  END
>  <CHROM.1>
163.34475798,67.00740097,-8.03667130,1.71506723,16.42329279,-2.26550538,-0.99617201
-2.49117219

>  <Name>
ligand

>  <RI>
-1

>  <Rbt.Current_Directory>
/home/itssahil/PROJECTS/Mol_Feturizer/Test_systems_manuscript/rnas/3mum

>  <Rbt.Executable>
rbdock ($Id: //depot/dev/client3/rdock/2013.1/src/exe/rbdock.cxx#4 $)

>  <Rbt.Library>
libRbt.so (2013.1, Build901 2013/11/27)

>  <Rbt.Parameter_File>
/export/apps/rDock/src/rDock_2013.1_src/data/scripts/dock_solv.prm

>  <Rbt.Receptor>
prm/pocket_docking_7.prm

>  <SCORE>
-40.5209

>  <SCORE.INTER>
-40.4966

>  <SCORE.INTER.CONST>
1

>  <SCORE.INTER.POLAR>
0

>  <SCORE.INTER.ROT>
2

>  <SCORE.INTER.SOLV>
38.5265

>  <SCORE.INTER.VDW>
-44.7732

>  <SCORE.INTER.norm>
-0.88036

>  <SCORE.INTRA>
-0.0243165

>  <SCORE.INTRA.DIHEDRAL>
0.0022811

>  <SCORE.INTRA.DIHEDRAL.0>
2.40424

>  <SCORE.INTRA.POLAR>
0

>  <SCORE.INTRA.POLAR.0>
0

>  <SCORE.INTRA.REPUL>
0

>  <SCORE.INTRA.REPUL.0>
0

>  <SCORE.INTRA.SOLV>
2.49059e-05

>  <SCORE.INTRA.SOLV.lig_0>
-134.169

>  <SCORE.INTRA.VDW>
-0.0254695

>  <SCORE.INTRA.VDW.0>
-2.18386

>  <SCORE.INTRA.norm>
-0.00052862

>  <SCORE.RESTR>
0

>  <SCORE.RESTR.CAVITY>
0

>  <SCORE.RESTR.norm>
0

>  <SCORE.SYSTEM>
0

>  <SCORE.SYSTEM.CONST>
0

>  <SCORE.SYSTEM.DIHEDRAL>
0

>  <SCORE.SYSTEM.SOLV>
0

>  <SCORE.SYSTEM.norm>
0

>  <SCORE.heavy>
46

>  <SCORE.norm>
-0.880889

>  <RMSD>
0.143

$$$$
ligand
 OpenBabel02271912143D
libRbt.so/2013.1/901 2013/11/27
 46 52  0  0  0  0  0  0  0  0999 V2000
   -9.7588    4.9122   15.6432 P   0  0  1  0  0  0  0  0  0  0  0  0
   -5.2633    2.5838   18.6506 P   0  0  2  0  0  0  0  0  0  0  0  0
  -10.4994    3.6856   14.5998 O   0  5  0  0  0  0  0  0  0  0  0  0
  -10.6401    6.4603   15.5659 O   0  0  0  0  0  0  0  0  0  0  0  0
   -9.1109    5.0804   18.2074 C   0  0  0  0  0  0  0  0  0  0  0  0
   -9.7447    4.3527   17.1551 O   0  0  0  0  0  0  0  0  0  0  0  0
   -8.8319    4.1278   19.3543 C   0  0  1  0  0  0  0  0  0  0  0  0
  -10.0426    3.4490   19.7167 O   0  0  0  0  0  0  0  0  0  0  0  0
   -7.8415    3.0315   18.9968 C   0  0  1  0  0  0  0  0  0  0  0  0
   -6.4972    3.4054   19.2904 O   0  0  0  0  0  0  0  0  0  0  0  0
   -8.3036    1.8594   19.8446 C   0  0  1  0  0  0  0  0  0  0  0  0
   -7.6723    1.9026   21.1268 O   0  0  0  0  0  0  0  0  0  0  0  0
   -9.7947    2.0697   20.0313 C   0  0  2  0  0  0  0  0  0  0  0  0
   -5.9883    2.9337   13.5585 C   0  0  1  0  0  0  0  0  0  0  0  0
  -10.5095   -2.7460   17.9122 N   0  0  0  0  0  0  0  0  0  0  0  0
   -9.5812   -2.3379   18.8200 C   0  0  1  0  0  0  0  0  0  0  0  0
   -7.4030    3.3229   13.8818 C   0  0  2  0  0  0  0  0  0  0  0  0
   -8.6910   -3.2481   19.2778 N   0  0  0  0  0  0  0  0  0  0  0  0
   -7.8289    4.2016   12.8390 O   0  0  0  0  0  0  0  0  0  0  0  0
   -7.3129    4.0288   15.2203 C   0  0  2  0  0  0  0  0  0  0  0  0
   -9.5122   -1.0536   19.2809 N   0  0  0  0  0  0  0  0  0  0  0  0
   -8.2040    5.1334   15.2931 O   0  0  0  0  0  0  0  0  0  0  0  0
  -10.3830   -0.1041   18.8544 C   0  0  2  0  0  0  0  0  0  0  0  0
   -5.8785    4.5114   15.3098 C   0  0  2  0  0  0  0  0  0  0  0  0
   -5.1320    3.6895   14.4139 O   0  0  0  0  0  0  0  0  0  0  0  0
  -11.4066   -0.4926   17.8687 C   0  0  1  0  0  0  0  0  0  0  0  0
   -5.2992    4.3888   16.7147 C   0  0  0  0  0  0  0  0  0  0  0  0
   -5.2924    3.0124   17.0988 O   0  0  0  0  0  0  0  0  0  0  0  0
  -11.4309   -1.8928   17.4095 C   0  0  0  0  0  0  0  0  0  0  0  0
  -12.3507   -2.3074   16.5017 O   0  0  0  0  0  0  0  0  0  0  0  0
  -12.1283    0.6024   17.6055 N   0  0  0  0  0  0  0  0  0  0  0  0
  -11.6138    1.6187   18.3579 C   0  0  0  0  0  0  0  0  0  0  0  0
  -10.5701    1.2021   19.1054 N   0  0  1  0  0  0  0  0  0  0  0  0
   -7.3351   -1.8381   11.8898 N   0  0  0  0  0  0  0  0  0  0  0  0
   -5.4947    0.8234   18.8183 O   0  5  0  0  0  0  0  0  0  0  0  0
   -7.7408   -0.6150   11.4510 C   0  0  2  0  0  0  0  0  0  0  0  0
   -8.6249   -0.5390   10.4221 N   0  0  0  0  0  0  0  0  0  0  0  0
   -3.6879    3.0403   19.3273 O   0  0  0  0  0  0  0  0  0  0  0  0
   -7.2872    0.5394   12.0111 N   0  0  0  0  0  0  0  0  0  0  0  0
   -6.4008    0.5284   13.0340 C   0  0  2  0  0  0  0  0  0  0  0  0
   -5.9280   -0.7618   13.5533 C   0  0  2  0  0  0  0  0  0  0  0  0
   -6.4607   -1.9809   12.9083 C   0  0  0  0  0  0  0  0  0  0  0  0
   -6.0844   -3.2165   13.3210 O   0  0  0  0  0  0  0  0  0  0  0  0
   -5.0763   -0.4832   14.5599 N   0  0  0  0  0  0  0  0  0  0  0  0
   -5.0068    0.8768   14.6722 C   0  0  0  0  0  0  0  0  0  0  0  0
   -5.8033    1.4764   13.7584 N   0  0  1  0  0  0  0  0  0  0  0  0
  1  3  1  6  0  0  0
  1  4  2  0  0  0  0
  1  6  1  0  0  0  0
  1 22  1  0  0  0  0
  2 28  1  0  0  0  0
  2 35  1  1  0  0  0
  2 38  2  0  0  0  0
  2 10  1  0  0  0  0
  5  6  1  0  0  0  0
  7  5  1  6  0  0  0
  7  8  1  0  0  0  0
  7  9  1  0  0  0  0
  9 10  1  1  0  0  0
  9 11  1  0  0  0  0
 11 12  1  1  0  0  0
 11 13  1  0  0  0  0
 13  8  1  6  0  0  0
 13 33  1  0  0  0  0
 14 46  1  0  0  0  0
 14 17  1  0  0  0  0
 14 25  1  1  0  0  0
 15 16  1  0  0  0  0
 15 29  1  0  0  0  0
 16 18  1  6  0  0  0
 16 21  1  0  0  0  0
 17 19  1  6  0  0  0
 17 20  1  0  0  0  0
 20 22  1  6  0  0  0
 20 24  1  0  0  0  0
 23 21  1  6  0  0  0
 23 26  1  0  0  0  0
 23 33  1  0  0  0  0
 24 25  1  6  0  0  0
 24 27  1  0  0  0  0
 26 29  1  1  0  0  0
 26 31  1  0  0  0  0
 27 28  1  0  0  0  0
 29 30  2  0  0  0  0
 31 32  1  0  0  0  0
 33 32  1  1  0  0  0
 34 36  1  0  0  0  0
 34 42  1  0  0  0  0
 36 37  1  6  0  0  0
 36 39  1  0  0  0  0
 40 39  1  1  0  0  0
 40 41  1  0  0  0  0
 40 46  1  0  0  0  0
 41 42  1  1  0  0  0
 41 44  1  0  0  0  0
 42 43  2  0  0  0  0
 44 45  1  0  0  0  0
 46 45  1  6  0  0  0
M  CHG  2   3  -1  35  -1
M  END
>  <CHROM.1>
162.85203664,65.83488380,-8.02472359,1.70544311,16.44293058,-2.26126628,-0.99542076
-2.49506966

>  <Name>
ligand

>  <RI>
416

>  <Rbt.Current_Directory>
/home/itssahil/PROJECTS/Mol_Feturizer/Test_systems_manuscript/rnas/3mum

>  <Rbt.Executable>
rbdock ($Id: //depot/dev/client3/rdock/2013.1/src/exe/rbdock.cxx#4 $)

>  <Rbt.Library>
libRbt.so (2013.1, Build901 2013/11/27)

>  <Rbt.Parameter_File>
/export/apps/rDock/src/rDock_2013.1_src/data/scripts/dock_solv.prm

>  <Rbt.Receptor>
prm/pocket_docking_2.prm

>  <SCORE>
-40.4381

>  <SCORE.INTER>
-40.4291

>  <SCORE.INTER.CONST>
1

>  <SCORE.INTER.POLAR>
0

>  <SCORE.INTER.ROT>
2

>  <SCORE.INTER.SOLV>
38.4446

>  <SCORE.INTER.VDW>
-44.7009

>  <SCORE.INTER.norm>
-0.878894

>  <SCORE.INTRA>
-0.00892814

>  <SCORE.INTRA.DIHEDRAL>
0.000612138

>  <SCORE.INTRA.DIHEDRAL.0>
2.40424

>  <SCORE.INTRA.POLAR>
0

>  <SCORE.INTRA.POLAR.0>
0

>  <SCORE.INTRA.REPUL>
0

>  <SCORE.INTRA.REPUL.0>
0

>  <SCORE.INTRA.SOLV>
0.00189473

>  <SCORE.INTRA.SOLV.lig_0>
-134.169

>  <SCORE.INTRA.VDW>
-0.0101816

>  <SCORE.INTRA.VDW.0>
-2.18386

>  <SCORE.INTRA.norm>
-0.00019409

>  <SCORE.RESTR>
0

>  <SCORE.RESTR.CAVITY>
0

>  <SCORE.RESTR.norm>
0

>  <SCORE.SYSTEM>
0

>  <SCORE.SYSTEM.CONST>
0

>  <SCORE.SYSTEM.DIHEDRAL>
0

>  <SCORE.SYSTEM.SOLV>
0

>  <SCORE.SYSTEM.norm>
0

>  <SCORE.heavy>
46

>  <SCORE.norm>
-0.879088

>  <RMSD>
0.145

$$$$
ligand
 OpenBabel02271912143D
libRbt.so/2013.1/901 2013/11/27
 46 52  0  0  0  0  0  0  0  0999 V2000
   -9.7644    4.8904   15.6673 P   0  0  1  0  0  0  0  0  0  0  0  0
   -5.2259    2.5864   18.6287 P   0  0  2  0  0  0  0  0  0  0  0  0
  -10.4783    3.6730   14.5948 O   0  5  0  0  0  0  0  0  0  0  0  0
  -10.6773    6.4214   15.6239 O   0  0  0  0  0  0  0  0  0  0  0  0
   -9.1234    5.0130   18.2358 C   0  0  0  0  0  0  0  0  0  0  0  0
   -9.7408    4.2968   17.1661 O   0  0  0  0  0  0  0  0  0  0  0  0
   -8.8264    4.0403   19.3612 C   0  0  1  0  0  0  0  0  0  0  0  0
  -10.0234    3.3286   19.7057 O   0  0  0  0  0  0  0  0  0  0  0  0
   -7.8132    2.9730   18.9804 C   0  0  1  0  0  0  0  0  0  0  0  0
   -6.4773    3.3676   19.2848 O   0  0  0  0  0  0  0  0  0  0  0  0
   -8.2522    1.7726   19.8003 C   0  0  1  0  0  0  0  0  0  0  0  0
   -7.6237    1.7993   21.0843 O   0  0  0  0  0  0  0  0  0  0  0  0
   -9.7476    1.9479   19.9891 C   0  0  2  0  0  0  0  0  0  0  0  0
   -5.9514    3.0379   13.5446 C   0  0  1  0  0  0  0  0  0  0  0  0
  -10.7447   -2.9366   18.1614 N   0  0  0  0  0  0  0  0  0  0  0  0
   -9.8864   -2.5471   19.1432 C   0  0  1  0  0  0  0  0  0  0  0  0
   -7.3741    3.3905   13.8742 C   0  0  2  0  0  0  0  0  0  0  0  0
   -9.1601   -3.4994   19.7727 N   0  0  0  0  0  0  0  0  0  0  0  0
   -7.8167    4.2840   12.8510 O   0  0  0  0  0  0  0  0  0  0  0  0
   -7.3003    4.0672   15.2286 C   0  0  2  0  0  0  0  0  0  0  0  0
   -9.7287   -1.2412   19.5126 N   0  0  0  0  0  0  0  0  0  0  0  0
   -8.2140    5.1513   15.3252 O   0  0  0  0  0  0  0  0  0  0  0  0
  -10.4350   -0.2492   18.9136 C   0  0  2  0  0  0  0  0  0  0  0  0
   -5.8763    4.5770   15.3317 C   0  0  2  0  0  0  0  0  0  0  0  0
   -5.1119    3.7914   14.4186 O   0  0  0  0  0  0  0  0  0  0  0  0
  -11.3764   -0.6164   17.8416 C   0  0  1  0  0  0  0  0  0  0  0  0
   -5.2964    4.4342   16.7345 C   0  0  0  0  0  0  0  0  0  0  0  0
   -5.2618    3.0498   17.0870 O   0  0  0  0  0  0  0  0  0  0  0  0
  -11.5030   -2.0415   17.4880 C   0  0  0  0  0  0  0  0  0  0  0  0
  -12.3538   -2.4383   16.5078 O   0  0  0  0  0  0  0  0  0  0  0  0
  -11.9380    0.5189   17.4116 N   0  0  0  0  0  0  0  0  0  0  0  0
  -11.4033    1.5395   18.1439 C   0  0  0  0  0  0  0  0  0  0  0  0
  -10.5038    1.0860   19.0422 N   0  0  1  0  0  0  0  0  0  0  0  0
   -7.4636   -1.7313   12.0163 N   0  0  0  0  0  0  0  0  0  0  0  0
   -5.4213    0.8182   18.7556 O   0  5  0  0  0  0  0  0  0  0  0  0
   -7.9246   -0.5080   11.6370 C   0  0  2  0  0  0  0  0  0  0  0  0
   -8.9252   -0.4309   10.7211 N   0  0  0  0  0  0  0  0  0  0  0  0
   -3.6612    3.0594   19.3184 O   0  0  0  0  0  0  0  0  0  0  0  0
   -7.4133    0.6456   12.1468 N   0  0  0  0  0  0  0  0  0  0  0  0
   -6.4114    0.6335   13.0570 C   0  0  2  0  0  0  0  0  0  0  0  0
   -5.8739   -0.6571   13.5077 C   0  0  2  0  0  0  0  0  0  0  0  0
   -6.4735   -1.8753   12.9226 C   0  0  0  0  0  0  0  0  0  0  0  0
   -6.0447   -3.1111   13.2795 O   0  0  0  0  0  0  0  0  0  0  0  0
   -4.9098   -0.3797   14.4077 N   0  0  0  0  0  0  0  0  0  0  0  0
   -4.8342    0.9800   14.5200 C   0  0  0  0  0  0  0  0  0  0  0  0
   -5.7366    1.5805   13.7114 N   0  0  1  0  0  0  0  0  0  0  0  0
  1  3  1  6  0  0  0
  1  4  2  0  0  0  0
  1  6  1  0  0  0  0
  1 22  1  0  0  0  0
  2 28  1  0  0  0  0
  2 35  1  1  0  0  0
  2 38  2  0  0  0  0
  2 10  1  0  0  0  0
  5  6  1  0  0  0  0
  7  5  1  6  0  0  0
  7  8  1  0  0  0  0
  7  9  1  0  0  0  0
  9 10  1  1  0  0  0
  9 11  1  0  0  0  0
 11 12  1  1  0  0  0
 11 13  1  0  0  0  0
 13  8  1  6  0  0  0
 13 33  1  0  0  0  0
 14 46  1  0  0  0  0
 14 17  1  0  0  0  0
 14 25  1  1  0  0  0
 15 16  1  0  0  0  0
 15 29  1  0  0  0  0
 16 18  1  6  0  0  0
 16 21  1  0  0  0  0
 17 19  1  6  0  0  0
 17 20  1  0  0  0  0
 20 22  1  6  0  0  0
 20 24  1  0  0  0  0
 23 21  1  6  0  0  0
 23 26  1  0  0  0  0
 23 33  1  0  0  0  0
 24 25  1  6  0  0  0
 24 27  1  0  0  0  0
 26 29  1  1  0  0  0
 26 31  1  0  0  0  0
 27 28  1  0  0  0  0
 29 30  2  0  0  0  0
 31 32  1  0  0  0  0
 33 32  1  1  0  0  0
 34 36  1  0  0  0  0
 34 42  1  0  0  0  0
 36 37  1  6  0  0  0
 36 39  1  0  0  0  0
 40 39  1  1  0  0  0
 40 41  1  0  0  0  0
 40 46  1  0  0  0  0
 41 42  1  1  0  0  0
 41 44  1  0  0  0  0
 42 43  2  0  0  0  0
 44 45  1  0  0  0  0
 46 45  1  6  0  0  0
M  CHG  2   3  -1  35  -1
M  END
>  <CHROM.1>
174.39402446,58.79577398,-8.03648409,1.68987485,16.46747469,-0.52024038,0.99808641
0.69709464

>  <Name>
ligand

>  <RI>
416

>  <Rbt.Current_Directory>
/home/itssahil/PROJECTS/Mol_Feturizer/Test_systems_manuscript/rnas/3mum

>  <Rbt.Executable>
rbdock ($Id: //depot/dev/client3/rdock/2013.1/src/exe/rbdock.cxx#4 $)

>  <Rbt.Library>
libRbt.so (2013.1, Build901 2013/11/27)

>  <Rbt.Parameter_File>
/export/apps/rDock/src/rDock_2013.1_src/data/scripts/dock_solv.prm

>  <Rbt.Receptor>
prm/pocket_docking_3.prm

>  <SCORE>
-39.6034

>  <SCORE.INTER>
-39.6247

>  <SCORE.INTER.CONST>
1

>  <SCORE.INTER.POLAR>
0

>  <SCORE.INTER.ROT>
2

>  <SCORE.INTER.SOLV>
39.8817

>  <SCORE.INTER.VDW>
-44.6437

>  <SCORE.INTER.norm>
-0.861407

>  <SCORE.INTRA>
0.0213004

>  <SCORE.INTRA.DIHEDRAL>
-0.00766672

>  <SCORE.INTRA.DIHEDRAL.0>
2.40424

>  <SCORE.INTRA.POLAR>
0

>  <SCORE.INTRA.POLAR.0>
0

>  <SCORE.INTRA.REPUL>
0

>  <SCORE.INTRA.REPUL.0>
0

>  <SCORE.INTRA.SOLV>
0.00634851

>  <SCORE.INTRA.SOLV.lig_0>
-134.169

>  <SCORE.INTRA.VDW>
0.0219595

>  <SCORE.INTRA.VDW.0>
-2.18386

>  <SCORE.INTRA.norm>
0.000463053

>  <SCORE.RESTR>
0

>  <SCORE.RESTR.CAVITY>
0

>  <SCORE.RESTR.norm>
0

>  <SCORE.SYSTEM>
0

>  <SCORE.SYSTEM.CONST>
0

>  <SCORE.SYSTEM.DIHEDRAL>
0

>  <SCORE.SYSTEM.SOLV>
0

>  <SCORE.SYSTEM.norm>
0

>  <SCORE.heavy>
46

>  <SCORE.norm>
-0.860944

>  <RMSD>
0.145

$$$$
ligand
 OpenBabel02271912143D
libRbt.so/2013.1/901 2013/11/27
 46 52  0  0  0  0  0  0  0  0999 V2000
   -9.7495    4.9228   15.6214 P   0  0  1  0  0  0  0  0  0  0  0  0
   -5.2770    2.5728   18.6463 P   0  0  2  0  0  0  0  0  0  0  0  0
  -10.4951    3.6985   14.5788 O   0  5  0  0  0  0  0  0  0  0  0  0
  -10.6208    6.4763   15.5382 O   0  0  0  0  0  0  0  0  0  0  0  0
   -9.1074    5.0927   18.1870 C   0  0  0  0  0  0  0  0  0  0  0  0
   -9.7430    4.3668   17.1347 O   0  0  0  0  0  0  0  0  0  0  0  0
   -8.8376    4.1410   19.3368 C   0  0  1  0  0  0  0  0  0  0  0  0
  -10.0536    3.4707   19.6975 O   0  0  0  0  0  0  0  0  0  0  0  0
   -7.8532    3.0377   18.9845 C   0  0  1  0  0  0  0  0  0  0  0  0
   -6.5074    3.4037   19.2809 O   0  0  0  0  0  0  0  0  0  0  0  0
   -8.3251    1.8705   19.8337 C   0  0  1  0  0  0  0  0  0  0  0  0
   -7.6970    1.9126   21.1175 O   0  0  0  0  0  0  0  0  0  0  0  0
   -9.8153    2.0907   20.0159 C   0  0  2  0  0  0  0  0  0  0  0  0
   -5.9861    2.9156   13.5515 C   0  0  1  0  0  0  0  0  0  0  0  0
  -10.6022   -2.7414   17.9605 N   0  0  0  0  0  0  0  0  0  0  0  0
   -9.6811   -2.3397   18.8785 C   0  0  1  0  0  0  0  0  0  0  0  0
   -7.3991    3.3146   13.8701 C   0  0  2  0  0  0  0  0  0  0  0  0
   -8.8203   -3.2623   19.3668 N   0  0  0  0  0  0  0  0  0  0  0  0
   -7.8167    4.1935   12.8241 O   0  0  0  0  0  0  0  0  0  0  0  0
   -7.3082    4.0229   15.2072 C   0  0  2  0  0  0  0  0  0  0  0  0
   -9.5910   -1.0500   19.3202 N   0  0  0  0  0  0  0  0  0  0  0  0
   -8.1924    5.1333   15.2751 O   0  0  0  0  0  0  0  0  0  0  0  0
  -10.4321   -0.0881   18.8630 C   0  0  2  0  0  0  0  0  0  0  0  0
   -5.8710    4.4966   15.2995 C   0  0  2  0  0  0  0  0  0  0  0  0
   -5.1273    3.6680   14.4075 O   0  0  0  0  0  0  0  0  0  0  0  0
  -11.4466   -0.4693   17.8650 C   0  0  1  0  0  0  0  0  0  0  0  0
   -5.2963    4.3736   16.7062 C   0  0  0  0  0  0  0  0  0  0  0  0
   -5.2992    2.9981   17.0935 O   0  0  0  0  0  0  0  0  0  0  0  0
  -11.4947   -1.8759   17.4277 C   0  0  0  0  0  0  0  0  0  0  0  0
  -12.4074   -2.2843   16.5100 O   0  0  0  0  0  0  0  0  0  0  0  0
  -12.1382    0.6373   17.5715 N   0  0  0  0  0  0  0  0  0  0  0  0
  -11.6142    1.6537   18.3170 C   0  0  0  0  0  0  0  0  0  0  0  0
  -10.5937    1.2259   19.0898 N   0  0  1  0  0  0  0  0  0  0  0  0
   -7.3898   -1.8513   11.9162 N   0  0  0  0  0  0  0  0  0  0  0  0
   -5.5201    0.8143   18.8174 O   0  5  0  0  0  0  0  0  0  0  0  0
   -7.7901   -0.6267   11.4770 C   0  0  2  0  0  0  0  0  0  0  0  0
   -8.6845   -0.5475   10.4573 N   0  0  0  0  0  0  0  0  0  0  0  0
   -3.7006    3.0208   19.3263 O   0  0  0  0  0  0  0  0  0  0  0  0
   -7.3211    0.5261   12.0276 N   0  0  0  0  0  0  0  0  0  0  0  0
   -6.4238    0.5118   13.0410 C   0  0  2  0  0  0  0  0  0  0  0  0
   -5.9561   -0.7802   13.5603 C   0  0  2  0  0  0  0  0  0  0  0  0
   -6.5057   -1.9974   12.9259 C   0  0  0  0  0  0  0  0  0  0  0  0
   -6.1351   -3.2344   13.3395 O   0  0  0  0  0  0  0  0  0  0  0  0
   -5.0914   -0.5047   14.5566 N   0  0  0  0  0  0  0  0  0  0  0  0
   -5.0095    0.8551   14.6628 C   0  0  0  0  0  0  0  0  0  0  0  0
   -5.8108    1.4576   13.7552 N   0  0  1  0  0  0  0  0  0  0  0  0
  1  3  1  6  0  0  0
  1  4  2  0  0  0  0
  1  6  1  0  0  0  0
  1 22  1  0  0  0  0
  2 28  1  0  0  0  0
  2 35  1  1  0  0  0
  2 38  2  0  0  0  0
  2 10  1  0  0  0  0
  5  6  1  0  0  0  0
  7  5  1  6  0  0  0
  7  8  1  0  0  0  0
  7  9  1  0  0  0  0
  9 10  1  1  0  0  0
  9 11  1  0  0  0  0
 11 12  1  1  0  0  0
 11 13  1  0  0  0  0
 13  8  1  6  0  0  0
 13 33  1  0  0  0  0
 14 46  1  0  0  0  0
 14 17  1  0  0  0  0
 14 25  1  1  0  0  0
 15 16  1  0  0  0  0
 15 29  1  0  0  0  0
 16 18  1  6  0  0  0
 16 21  1  0  0  0  0
 17 19  1  6  0  0  0
 17 20  1  0  0  0  0
 20 22  1  6  0  0  0
 20 24  1  0  0  0  0
 23 21  1  6  0  0  0
 23 26  1  0  0  0  0
 23 33  1  0  0  0  0
 24 25  1  6  0  0  0
 24 27  1  0  0  0  0
 26 29  1  1  0  0  0
 26 31  1  0  0  0  0
 27 28  1  0  0  0  0
 29 30  2  0  0  0  0
 31 32  1  0  0  0  0
 33 32  1  1  0  0  0
 34 36  1  0  0  0  0
 34 42  1  0  0  0  0
 36 37  1  6  0  0  0
 36 39  1  0  0  0  0
 40 39  1  1  0  0  0
 40 41  1  0  0  0  0
 40 46  1  0  0  0  0
 41 42  1  1  0  0  0
 41 44  1  0  0  0  0
 42 43  2  0  0  0  0
 44 45  1  0  0  0  0
 46 45  1  6  0  0  0
M  CHG  2   3  -1  35  -1
M  END
>  <CHROM.1>
164.35891188,65.05299053,-8.04652662,1.70519514,16.44194766,-2.28071533,-0.98943586
-2.48624521

>  <Name>
ligand

>  <RI>
416

>  <Rbt.Current_Directory>
/home/itssahil/PROJECTS/Mol_Feturizer/Test_systems_manuscript/rnas/3mum

>  <Rbt.Executable>
rbdock ($Id: //depot/dev/client3/rdock/2013.1/src/exe/rbdock.cxx#4 $)

>  <Rbt.Library>
libRbt.so (2013.1, Build901 2013/11/27)

>  <Rbt.Parameter_File>
/export/apps/rDock/src/rDock_2013.1_src/data/scripts/dock_solv.prm

>  <Rbt.Receptor>
prm/pocket_docking_3.prm

>  <SCORE>
-40.5054

>  <SCORE.INTER>
-40.4929

>  <SCORE.INTER.CONST>
1

>  <SCORE.INTER.POLAR>
0

>  <SCORE.INTER.ROT>
2

>  <SCORE.INTER.SOLV>
38.5871

>  <SCORE.INTER.VDW>
-44.791

>  <SCORE.INTER.norm>
-0.880281

>  <SCORE.INTRA>
-0.012423

>  <SCORE.INTRA.DIHEDRAL>
-0.000292336

>  <SCORE.INTRA.DIHEDRAL.0>
2.40424

>  <SCORE.INTRA.POLAR>
0

>  <SCORE.INTRA.POLAR.0>
0

>  <SCORE.INTRA.REPUL>
0

>  <SCORE.INTRA.REPUL.0>
0

>  <SCORE.INTRA.SOLV>
0.00225273

>  <SCORE.INTRA.SOLV.lig_0>
-134.169

>  <SCORE.INTRA.VDW>
-0.0134032

>  <SCORE.INTRA.VDW.0>
-2.18386

>  <SCORE.INTRA.norm>
-0.000270066

>  <SCORE.RESTR>
0

>  <SCORE.RESTR.CAVITY>
0

>  <SCORE.RESTR.norm>
0

>  <SCORE.SYSTEM>
0

>  <SCORE.SYSTEM.CONST>
0

>  <SCORE.SYSTEM.DIHEDRAL>
0

>  <SCORE.SYSTEM.SOLV>
0

>  <SCORE.SYSTEM.norm>
0

>  <SCORE.heavy>
46

>  <SCORE.norm>
-0.880551

>  <RMSD>
0.145

$$$$
ligand
 OpenBabel02271912143D
libRbt.so/2013.1/901 2013/11/27
 46 52  0  0  0  0  0  0  0  0999 V2000
   -9.6705    4.8561   15.6068 P   0  0  1  0  0  0  0  0  0  0  0  0
   -5.1639    2.4919   18.5694 P   0  0  2  0  0  0  0  0  0  0  0  0
  -10.4147    3.6422   14.5513 O   0  5  0  0  0  0  0  0  0  0  0  0
  -10.5522    6.4049   15.5516 O   0  0  0  0  0  0  0  0  0  0  0  0
   -9.0133    4.9931   18.1706 C   0  0  0  0  0  0  0  0  0  0  0  0
   -9.6508    4.2783   17.1118 O   0  0  0  0  0  0  0  0  0  0  0  0
   -8.7300    4.0266   19.3048 C   0  0  1  0  0  0  0  0  0  0  0  0
   -9.9394    3.3433   19.6632 O   0  0  0  0  0  0  0  0  0  0  0  0
   -7.7408    2.9350   18.9304 C   0  0  1  0  0  0  0  0  0  0  0  0
   -6.3955    3.3055   19.2236 O   0  0  0  0  0  0  0  0  0  0  0  0
   -8.1997    1.7526   19.7655 C   0  0  1  0  0  0  0  0  0  0  0  0
   -7.5638    1.7802   21.0458 O   0  0  0  0  0  0  0  0  0  0  0  0
   -9.6902    1.9603   19.9601 C   0  0  2  0  0  0  0  0  0  0  0  0
   -5.9074    2.9037   13.4846 C   0  0  1  0  0  0  0  0  0  0  0  0
  -10.7914   -2.9215   18.1860 N   0  0  0  0  0  0  0  0  0  0  0  0
   -9.9193   -2.5390   19.1583 C   0  0  1  0  0  0  0  0  0  0  0  0
   -7.3209    3.2887   13.8178 C   0  0  2  0  0  0  0  0  0  0  0  0
   -9.2069   -3.4989   19.7921 N   0  0  0  0  0  0  0  0  0  0  0  0
   -7.7507    4.1800   12.7873 O   0  0  0  0  0  0  0  0  0  0  0  0
   -7.2260    3.9782   15.1644 C   0  0  2  0  0  0  0  0  0  0  0  0
   -9.7345   -1.2329   19.5141 N   0  0  0  0  0  0  0  0  0  0  0  0
   -8.1169    5.0817   15.2539 O   0  0  0  0  0  0  0  0  0  0  0  0
  -10.4260   -0.2335   18.9103 C   0  0  2  0  0  0  0  0  0  0  0  0
   -5.7914    4.4599   15.2546 C   0  0  2  0  0  0  0  0  0  0  0  0
   -5.0481    3.6492   14.3461 O   0  0  0  0  0  0  0  0  0  0  0  0
  -11.3815   -0.5929   17.8480 C   0  0  1  0  0  0  0  0  0  0  0  0
   -5.2070    4.3204   16.6558 C   0  0  0  0  0  0  0  0  0  0  0  0
   -5.1986    2.9394   17.0231 O   0  0  0  0  0  0  0  0  0  0  0  0
  -11.5372   -2.0187   17.5090 C   0  0  0  0  0  0  0  0  0  0  0  0
  -12.4019   -2.4086   16.5382 O   0  0  0  0  0  0  0  0  0  0  0  0
  -11.9244    0.5487   17.4109 N   0  0  0  0  0  0  0  0  0  0  0  0
  -11.3657    1.5658   18.1298 C   0  0  0  0  0  0  0  0  0  0  0  0
  -10.4688    1.1040   19.0265 N   0  0  1  0  0  0  0  0  0  0  0  0
   -7.4251   -1.8499   11.9136 N   0  0  0  0  0  0  0  0  0  0  0  0
   -5.3945    0.7295   18.7165 O   0  5  0  0  0  0  0  0  0  0  0  0
   -7.8518   -0.6217   11.5105 C   0  0  2  0  0  0  0  0  0  0  0  0
   -8.8121   -0.5342   10.5534 N   0  0  0  0  0  0  0  0  0  0  0  0
   -3.5861    2.9403   19.2460 O   0  0  0  0  0  0  0  0  0  0  0  0
   -7.3451    0.5266   12.0366 N   0  0  0  0  0  0  0  0  0  0  0  0
   -6.3823    0.5040   12.9878 C   0  0  2  0  0  0  0  0  0  0  0  0
   -5.8832   -0.7922   13.4658 C   0  0  2  0  0  0  0  0  0  0  0  0
   -6.4760   -2.0042   12.8610 C   0  0  0  0  0  0  0  0  0  0  0  0
   -6.0807   -3.2445   13.2404 O   0  0  0  0  0  0  0  0  0  0  0  0
   -4.9535   -0.5248   14.4041 N   0  0  0  0  0  0  0  0  0  0  0  0
   -4.8624    0.8341   14.5140 C   0  0  0  0  0  0  0  0  0  0  0  0
   -5.7214    1.4440   13.6661 N   0  0  1  0  0  0  0  0  0  0  0  0
  1  3  1  6  0  0  0
  1  4  2  0  0  0  0
  1  6  1  0  0  0  0
  1 22  1  0  0  0  0
  2 28  1  0  0  0  0
  2 35  1  1  0  0  0
  2 38  2  0  0  0  0
  2 10  1  0  0  0  0
  5  6  1  0  0  0  0
  7  5  1  6  0  0  0
  7  8  1  0  0  0  0
  7  9  1  0  0  0  0
  9 10  1  1  0  0  0
  9 11  1  0  0  0  0
 11 12  1  1  0  0  0
 11 13  1  0  0  0  0
 13  8  1  6  0  0  0
 13 33  1  0  0  0  0
 14 46  1  0  0  0  0
 14 17  1  0  0  0  0
 14 25  1  1  0  0  0
 15 16  1  0  0  0  0
 15 29  1  0  0  0  0
 16 18  1  6  0  0  0
 16 21  1  0  0  0  0
 17 19  1  6  0  0  0
 17 20  1  0  0  0  0
 20 22  1  6  0  0  0
 20 24  1  0  0  0  0
 23 21  1  6  0  0  0
 23 26  1  0  0  0  0
 23 33  1  0  0  0  0
 24 25  1  6  0  0  0
 24 27  1  0  0  0  0
 26 29  1  1  0  0  0
 26 31  1  0  0  0  0
 27 28  1  0  0  0  0
 29 30  2  0  0  0  0
 31 32  1  0  0  0  0
 33 32  1  1  0  0  0
 34 36  1  0  0  0  0
 34 42  1  0  0  0  0
 36 37  1  6  0  0  0
 36 39  1  0  0  0  0
 40 39  1  1  0  0  0
 40 41  1  0  0  0  0
 40 46  1  0  0  0  0
 41 42  1  1  0  0  0
 41 44  1  0  0  0  0
 42 43  2  0  0  0  0
 44 45  1  0  0  0  0
 46 45  1  6  0  0  0
M  CHG  2   3  -1  35  -1
M  END
>  <CHROM.1>
174.25839735,61.53305634,-7.99226994,1.62984875,16.42098918,-0.60322116,0.99102949
0.70556357

>  <Name>
ligand

>  <RI>
416

>  <Rbt.Current_Directory>
/home/itssahil/PROJECTS/Mol_Feturizer/Test_systems_manuscript/rnas/3mum

>  <Rbt.Executable>
rbdock ($Id: //depot/dev/client3/rdock/2013.1/src/exe/rbdock.cxx#4 $)

>  <Rbt.Library>
libRbt.so (2013.1, Build901 2013/11/27)

>  <Rbt.Parameter_File>
/export/apps/rDock/src/rDock_2013.1_src/data/scripts/dock_solv.prm

>  <Rbt.Receptor>
prm/pocket_docking_3.prm

>  <SCORE>
-39.8102

>  <SCORE.INTER>
-39.7979

>  <SCORE.INTER.CONST>
1

>  <SCORE.INTER.POLAR>
0

>  <SCORE.INTER.ROT>
2

>  <SCORE.INTER.SOLV>
40.2499

>  <SCORE.INTER.VDW>
-44.8819

>  <SCORE.INTER.norm>
-0.865172

>  <SCORE.INTRA>
-0.0122961

>  <SCORE.INTRA.DIHEDRAL>
-0.00374329

>  <SCORE.INTRA.DIHEDRAL.0>
2.40424

>  <SCORE.INTRA.POLAR>
0

>  <SCORE.INTRA.POLAR.0>
0

>  <SCORE.INTRA.REPUL>
0

>  <SCORE.INTRA.REPUL.0>
0

>  <SCORE.INTRA.SOLV>
0.00242568

>  <SCORE.INTRA.SOLV.lig_0>
-134.169

>  <SCORE.INTRA.VDW>
-0.0116373

>  <SCORE.INTRA.VDW.0>
-2.18386

>  <SCORE.INTRA.norm>
-0.000267307

>  <SCORE.RESTR>
0

>  <SCORE.RESTR.CAVITY>
0

>  <SCORE.RESTR.norm>
0

>  <SCORE.SYSTEM>
0

>  <SCORE.SYSTEM.CONST>
0

>  <SCORE.SYSTEM.DIHEDRAL>
0

>  <SCORE.SYSTEM.SOLV>
0

>  <SCORE.SYSTEM.norm>
0

>  <SCORE.heavy>
46

>  <SCORE.norm>
-0.86544

>  <RMSD>
0.146

$$$$
ligand
 OpenBabel02271912143D
libRbt.so/2013.1/901 2013/11/27
 46 52  0  0  0  0  0  0  0  0999 V2000
   -9.7745    4.9138   15.6129 P   0  0  1  0  0  0  0  0  0  0  0  0
   -5.2888    2.5963   18.6433 P   0  0  2  0  0  0  0  0  0  0  0  0
  -10.5138    3.6826   14.5740 O   0  5  0  0  0  0  0  0  0  0  0  0
  -10.6541    6.4624   15.5256 O   0  0  0  0  0  0  0  0  0  0  0  0
   -9.1327    5.0944   18.1779 C   0  0  0  0  0  0  0  0  0  0  0  0
   -9.7647    4.3620   17.1278 O   0  0  0  0  0  0  0  0  0  0  0  0
   -8.8575    4.1473   19.3303 C   0  0  1  0  0  0  0  0  0  0  0  0
  -10.0698    3.4716   19.6931 O   0  0  0  0  0  0  0  0  0  0  0  0
   -7.8674    3.0483   18.9809 C   0  0  1  0  0  0  0  0  0  0  0  0
   -6.5234    3.4223   19.2758 O   0  0  0  0  0  0  0  0  0  0  0  0
   -8.3327    1.8810   19.8334 C   0  0  1  0  0  0  0  0  0  0  0  0
   -7.7046    1.9300   21.1169 O   0  0  0  0  0  0  0  0  0  0  0  0
   -9.8241    2.0937   20.0153 C   0  0  2  0  0  0  0  0  0  0  0  0
   -6.0009    2.9209   13.5477 C   0  0  1  0  0  0  0  0  0  0  0  0
  -10.5537   -2.7374   17.9368 N   0  0  0  0  0  0  0  0  0  0  0  0
   -9.6296   -2.3265   18.8477 C   0  0  1  0  0  0  0  0  0  0  0  0
   -7.4159    3.3132   13.8655 C   0  0  2  0  0  0  0  0  0  0  0  0
   -8.7486   -3.2379   19.3208 N   0  0  0  0  0  0  0  0  0  0  0  0
   -7.8384    4.1870   12.8172 O   0  0  0  0  0  0  0  0  0  0  0  0
   -7.3285    4.0258   15.2006 C   0  0  2  0  0  0  0  0  0  0  0  0
   -9.5559   -1.0383   19.2968 N   0  0  0  0  0  0  0  0  0  0  0  0
   -8.2186    5.1316   15.2656 O   0  0  0  0  0  0  0  0  0  0  0  0
  -10.4174   -0.0875   18.8549 C   0  0  2  0  0  0  0  0  0  0  0  0
   -5.8938    4.5074   15.2912 C   0  0  2  0  0  0  0  0  0  0  0  0
   -5.1459    3.6803   14.4014 O   0  0  0  0  0  0  0  0  0  0  0  0
  -11.4361   -0.4790   17.8652 C   0  0  1  0  0  0  0  0  0  0  0  0
   -5.3181    4.3914   16.6982 C   0  0  0  0  0  0  0  0  0  0  0  0
   -5.3136    3.0170   17.0893 O   0  0  0  0  0  0  0  0  0  0  0  0
  -11.4659   -1.8833   17.4192 C   0  0  0  0  0  0  0  0  0  0  0  0
  -12.3816   -2.3008   16.5085 O   0  0  0  0  0  0  0  0  0  0  0  0
  -12.1488    0.6180   17.5862 N   0  0  0  0  0  0  0  0  0  0  0  0
  -11.6336    1.6381   18.3328 C   0  0  0  0  0  0  0  0  0  0  0  0
  -10.5981    1.2222   19.0919 N   0  0  1  0  0  0  0  0  0  0  0  0
   -7.3325   -1.8578   11.8867 N   0  0  0  0  0  0  0  0  0  0  0  0
   -5.5224    0.8369   18.8194 O   0  5  0  0  0  0  0  0  0  0  0  0
   -7.7340   -0.6366   11.4391 C   0  0  2  0  0  0  0  0  0  0  0  0
   -8.6086   -0.5649   10.4017 N   0  0  0  0  0  0  0  0  0  0  0  0
   -3.7146    3.0546   19.3216 O   0  0  0  0  0  0  0  0  0  0  0  0
   -7.2855    0.5202   11.9985 N   0  0  0  0  0  0  0  0  0  0  0  0
   -6.4086    0.5134   13.0296 C   0  0  2  0  0  0  0  0  0  0  0  0
   -5.9408   -0.7745   13.5586 C   0  0  2  0  0  0  0  0  0  0  0  0
   -6.4676   -1.9964   12.9139 C   0  0  0  0  0  0  0  0  0  0  0  0
   -6.0952   -3.2302   13.3353 O   0  0  0  0  0  0  0  0  0  0  0  0
   -5.0984   -0.4917   14.5719 N   0  0  0  0  0  0  0  0  0  0  0  0
   -5.0298    0.8687   14.6791 C   0  0  0  0  0  0  0  0  0  0  0  0
   -5.8178    1.4645   13.7555 N   0  0  1  0  0  0  0  0  0  0  0  0
  1  3  1  6  0  0  0
  1  4  2  0  0  0  0
  1  6  1  0  0  0  0
  1 22  1  0  0  0  0
  2 28  1  0  0  0  0
  2 35  1  1  0  0  0
  2 38  2  0  0  0  0
  2 10  1  0  0  0  0
  5  6  1  0  0  0  0
  7  5  1  6  0  0  0
  7  8  1  0  0  0  0
  7  9  1  0  0  0  0
  9 10  1  1  0  0  0
  9 11  1  0  0  0  0
 11 12  1  1  0  0  0
 11 13  1  0  0  0  0
 13  8  1  6  0  0  0
 13 33  1  0  0  0  0
 14 46  1  0  0  0  0
 14 17  1  0  0  0  0
 14 25  1  1  0  0  0
 15 16  1  0  0  0  0
 15 29  1  0  0  0  0
 16 18  1  6  0  0  0
 16 21  1  0  0  0  0
 17 19  1  6  0  0  0
 17 20  1  0  0  0  0
 20 22  1  6  0  0  0
 20 24  1  0  0  0  0
 23 21  1  6  0  0  0
 23 26  1  0  0  0  0
 23 33  1  0  0  0  0
 24 25  1  6  0  0  0
 24 27  1  0  0  0  0
 26 29  1  1  0  0  0
 26 31  1  0  0  0  0
 27 28  1  0  0  0  0
 29 30  2  0  0  0  0
 31 32  1  0  0  0  0
 33 32  1  1  0  0  0
 34 36  1  0  0  0  0
 34 42  1  0  0  0  0
 36 37  1  6  0  0  0
 36 39  1  0  0  0  0
 40 39  1  1  0  0  0
 40 41  1  0  0  0  0
 40 46  1  0  0  0  0
 41 42  1  1  0  0  0
 41 44  1  0  0  0  0
 42 43  2  0  0  0  0
 44 45  1  0  0  0  0
 46 45  1  6  0  0  0
M  CHG  2   3  -1  35  -1
M  END
>  <CHROM.1>
163.34083190,66.23056968,-8.04554276,1.70884191,16.43377912,-2.27515128,-0.99328797
-2.50241625

>  <Name>
ligand

>  <RI>
416

>  <Rbt.Current_Directory>
/home/itssahil/PROJECTS/Mol_Feturizer/Test_systems_manuscript/rnas/3mum

>  <Rbt.Executable>
rbdock ($Id: //depot/dev/client3/rdock/2013.1/src/exe/rbdock.cxx#4 $)

>  <Rbt.Library>
libRbt.so (2013.1, Build901 2013/11/27)

>  <Rbt.Parameter_File>
/export/apps/rDock/src/rDock_2013.1_src/data/scripts/dock_solv.prm

>  <Rbt.Receptor>
prm/pocket_docking_3.prm

>  <SCORE>
-40.584

>  <SCORE.INTER>
-40.5673

>  <SCORE.INTER.CONST>
1

>  <SCORE.INTER.POLAR>
0

>  <SCORE.INTER.ROT>
2

>  <SCORE.INTER.SOLV>
38.4435

>  <SCORE.INTER.VDW>
-44.7927

>  <SCORE.INTER.norm>
-0.881898

>  <SCORE.INTRA>
-0.0166737

>  <SCORE.INTRA.DIHEDRAL>
0.00121741

>  <SCORE.INTRA.DIHEDRAL.0>
2.40424

>  <SCORE.INTRA.POLAR>
0

>  <SCORE.INTRA.POLAR.0>
0

>  <SCORE.INTRA.REPUL>
0

>  <SCORE.INTRA.REPUL.0>
0

>  <SCORE.INTRA.SOLV>
0.001114

>  <SCORE.INTRA.SOLV.lig_0>
-134.169

>  <SCORE.INTRA.VDW>
-0.0178394

>  <SCORE.INTRA.VDW.0>
-2.18386

>  <SCORE.INTRA.norm>
-0.000362472

>  <SCORE.RESTR>
0

>  <SCORE.RESTR.CAVITY>
0

>  <SCORE.RESTR.norm>
0

>  <SCORE.SYSTEM>
0

>  <SCORE.SYSTEM.CONST>
0

>  <SCORE.SYSTEM.DIHEDRAL>
0

>  <SCORE.SYSTEM.SOLV>
0

>  <SCORE.SYSTEM.norm>
0

>  <SCORE.heavy>
46

>  <SCORE.norm>
-0.882261

>  <RMSD>
0.148

$$$$
ligand
 OpenBabel02271912143D
libRbt.so/2013.1/901 2013/11/27
 46 52  0  0  0  0  0  0  0  0999 V2000
   -9.7170    4.8588   15.6259 P   0  0  1  0  0  0  0  0  0  0  0  0
   -5.2176    2.5148   18.6155 P   0  0  2  0  0  0  0  0  0  0  0  0
  -10.4461    3.6430   14.5620 O   0  5  0  0  0  0  0  0  0  0  0  0
  -10.6078    6.4023   15.5680 O   0  0  0  0  0  0  0  0  0  0  0  0
   -9.0792    4.9935   18.1947 C   0  0  0  0  0  0  0  0  0  0  0  0
   -9.7047    4.2774   17.1296 O   0  0  0  0  0  0  0  0  0  0  0  0
   -8.7984    4.0260   19.3286 C   0  0  1  0  0  0  0  0  0  0  0  0
  -10.0061    3.3344   19.6766 O   0  0  0  0  0  0  0  0  0  0  0  0
   -7.7998    2.9413   18.9588 C   0  0  1  0  0  0  0  0  0  0  0  0
   -6.4589    3.3192   19.2626 O   0  0  0  0  0  0  0  0  0  0  0  0
   -8.2575    1.7540   19.7876 C   0  0  1  0  0  0  0  0  0  0  0  0
   -7.6311    1.7824   21.0726 O   0  0  0  0  0  0  0  0  0  0  0  0
   -9.7506    1.9523   19.9719 C   0  0  2  0  0  0  0  0  0  0  0  0
   -5.9267    2.9346   13.5264 C   0  0  1  0  0  0  0  0  0  0  0  0
  -10.8213   -2.9333   18.1892 N   0  0  0  0  0  0  0  0  0  0  0  0
   -9.9604   -2.5481   19.1705 C   0  0  1  0  0  0  0  0  0  0  0  0
   -7.3449    3.3102   13.8502 C   0  0  2  0  0  0  0  0  0  0  0  0
   -9.2525   -3.5059   19.8125 N   0  0  0  0  0  0  0  0  0  0  0  0
   -7.7727    4.2013   12.8187 O   0  0  0  0  0  0  0  0  0  0  0  0
   -7.2641    3.9969   15.1991 C   0  0  2  0  0  0  0  0  0  0  0  0
   -9.7826   -1.2414   19.5274 N   0  0  0  0  0  0  0  0  0  0  0  0
   -8.1623    5.0947   15.2848 O   0  0  0  0  0  0  0  0  0  0  0  0
  -10.4700   -0.2440   18.9156 C   0  0  2  0  0  0  0  0  0  0  0  0
   -5.8331    4.4872   15.3009 C   0  0  2  0  0  0  0  0  0  0  0  0
   -5.0783    3.6831   14.3959 O   0  0  0  0  0  0  0  0  0  0  0  0
  -11.4132   -0.6063   17.8435 C   0  0  1  0  0  0  0  0  0  0  0  0
   -5.2581    4.3477   16.7060 C   0  0  0  0  0  0  0  0  0  0  0  0
   -5.2439    2.9659   17.0700 O   0  0  0  0  0  0  0  0  0  0  0  0
  -11.5619   -2.0327   17.5037 C   0  0  0  0  0  0  0  0  0  0  0  0
  -12.4153   -2.4252   16.5240 O   0  0  0  0  0  0  0  0  0  0  0  0
  -11.9541    0.5337   17.3999 N   0  0  0  0  0  0  0  0  0  0  0  0
  -11.4055    1.5526   18.1241 C   0  0  0  0  0  0  0  0  0  0  0  0
  -10.5172    1.0935   19.0306 N   0  0  1  0  0  0  0  0  0  0  0  0
   -7.4052   -1.8243   11.9341 N   0  0  0  0  0  0  0  0  0  0  0  0
   -5.4386    0.7507   18.7566 O   0  5  0  0  0  0  0  0  0  0  0  0
   -7.8365   -0.5978   11.5310 C   0  0  2  0  0  0  0  0  0  0  0  0
   -8.7909   -0.5137   10.5676 N   0  0  0  0  0  0  0  0  0  0  0  0
   -3.6476    2.9711   19.3045 O   0  0  0  0  0  0  0  0  0  0  0  0
   -7.3403    0.5524   12.0632 N   0  0  0  0  0  0  0  0  0  0  0  0
   -6.3838    0.5333   13.0208 C   0  0  2  0  0  0  0  0  0  0  0  0
   -5.8801   -0.7610   13.4990 C   0  0  2  0  0  0  0  0  0  0  0  0
   -6.4615   -1.9751   12.8875 C   0  0  0  0  0  0  0  0  0  0  0  0
   -6.0613   -3.2140   13.2666 O   0  0  0  0  0  0  0  0  0  0  0  0
   -4.9584   -0.4903   14.4442 N   0  0  0  0  0  0  0  0  0  0  0  0
   -4.8762    0.8689   14.5579 C   0  0  0  0  0  0  0  0  0  0  0  0
   -5.7332    1.4757   13.7057 N   0  0  1  0  0  0  0  0  0  0  0  0
  1  3  1  6  0  0  0
  1  4  2  0  0  0  0
  1  6  1  0  0  0  0
  1 22  1  0  0  0  0
  2 28  1  0  0  0  0
  2 35  1  1  0  0  0
  2 38  2  0  0  0  0
  2 10  1  0  0  0  0
  5  6  1  0  0  0  0
  7  5  1  6  0  0  0
  7  8  1  0  0  0  0
  7  9  1  0  0  0  0
  9 10  1  1  0  0  0
  9 11  1  0  0  0  0
 11 12  1  1  0  0  0
 11 13  1  0  0  0  0
 13  8  1  6  0  0  0
 13 33  1  0  0  0  0
 14 46  1  0  0  0  0
 14 17  1  0  0  0  0
 14 25  1  1  0  0  0
 15 16  1  0  0  0  0
 15 29  1  0  0  0  0
 16 18  1  6  0  0  0
 16 21  1  0  0  0  0
 17 19  1  6  0  0  0
 17 20  1  0  0  0  0
 20 22  1  6  0  0  0
 20 24  1  0  0  0  0
 23 21  1  6  0  0  0
 23 26  1  0  0  0  0
 23 33  1  0  0  0  0
 24 25  1  6  0  0  0
 24 27  1  0  0  0  0
 26 29  1  1  0  0  0
 26 31  1  0  0  0  0
 27 28  1  0  0  0  0
 29 30  2  0  0  0  0
 31 32  1  0  0  0  0
 33 32  1  1  0  0  0
 34 36  1  0  0  0  0
 34 42  1  0  0  0  0
 36 37  1  6  0  0  0
 36 39  1  0  0  0  0
 40 39  1  1  0  0  0
 40 41  1  0  0  0  0
 40 46  1  0  0  0  0
 41 42  1  1  0  0  0
 41 44  1  0  0  0  0
 42 43  2  0  0  0  0
 44 45  1  0  0  0  0
 46 45  1  6  0  0  0
M  CHG  2   3  -1  35  -1
M  END
>  <CHROM.1>
174.59614519,61.50078560,-8.02650733,1.64067658,16.44576027,-0.57777136,0.98897231
0.69487349

>  <Name>
ligand

>  <RI>
-1

>  <Rbt.Current_Directory>
/home/itssahil/PROJECTS/Mol_Feturizer/Test_systems_manuscript/rnas/3mum

>  <Rbt.Executable>
rbdock ($Id: //depot/dev/client3/rdock/2013.1/src/exe/rbdock.cxx#4 $)

>  <Rbt.Library>
libRbt.so (2013.1, Build901 2013/11/27)

>  <Rbt.Parameter_File>
/export/apps/rDock/src/rDock_2013.1_src/data/scripts/dock_solv.prm

>  <Rbt.Receptor>
prm/pocket_docking_4.prm

>  <SCORE>
-39.7062

>  <SCORE.INTER>
-39.6919

>  <SCORE.INTER.CONST>
1

>  <SCORE.INTER.POLAR>
0

>  <SCORE.INTER.ROT>
2

>  <SCORE.INTER.SOLV>
40.2727

>  <SCORE.INTER.VDW>
-44.8188

>  <SCORE.INTER.norm>
-0.862867

>  <SCORE.INTRA>
-0.014358

>  <SCORE.INTRA.DIHEDRAL>
-0.00372864

>  <SCORE.INTRA.DIHEDRAL.0>
2.40424

>  <SCORE.INTRA.POLAR>
0

>  <SCORE.INTRA.POLAR.0>
0

>  <SCORE.INTRA.REPUL>
0

>  <SCORE.INTRA.REPUL.0>
0

>  <SCORE.INTRA.SOLV>
0.00231559

>  <SCORE.INTRA.SOLV.lig_0>
-134.169

>  <SCORE.INTRA.VDW>
-0.0136514

>  <SCORE.INTRA.VDW.0>
-2.18386

>  <SCORE.INTRA.norm>
-0.000312129

>  <SCORE.RESTR>
0

>  <SCORE.RESTR.CAVITY>
0

>  <SCORE.RESTR.norm>
0

>  <SCORE.SYSTEM>
0

>  <SCORE.SYSTEM.CONST>
0

>  <SCORE.SYSTEM.DIHEDRAL>
0

>  <SCORE.SYSTEM.SOLV>
0

>  <SCORE.SYSTEM.norm>
0

>  <SCORE.heavy>
46

>  <SCORE.norm>
-0.863179

>  <RMSD>
0.148

$$$$
ligand
 OpenBabel02271912143D
libRbt.so/2013.1/901 2013/11/27
 46 52  0  0  0  0  0  0  0  0999 V2000
   -9.7629    4.9361   15.6244 P   0  0  1  0  0  0  0  0  0  0  0  0
   -5.2879    2.5787   18.6399 P   0  0  2  0  0  0  0  0  0  0  0  0
  -10.5098    3.7142   14.5801 O   0  5  0  0  0  0  0  0  0  0  0  0
  -10.6338    6.4900   15.5453 O   0  0  0  0  0  0  0  0  0  0  0  0
   -9.1181    5.1006   18.1897 C   0  0  0  0  0  0  0  0  0  0  0  0
   -9.7550    4.3770   17.1365 O   0  0  0  0  0  0  0  0  0  0  0  0
   -8.8474    4.1465   19.3373 C   0  0  1  0  0  0  0  0  0  0  0  0
  -10.0632    3.4758   19.6978 O   0  0  0  0  0  0  0  0  0  0  0  0
   -7.8637    3.0436   18.9817 C   0  0  1  0  0  0  0  0  0  0  0  0
   -6.5174    3.4086   19.2774 O   0  0  0  0  0  0  0  0  0  0  0  0
   -8.3349    1.8748   19.8289 C   0  0  1  0  0  0  0  0  0  0  0  0
   -7.7055    1.9140   21.1122 O   0  0  0  0  0  0  0  0  0  0  0  0
   -9.8249    2.0950   20.0131 C   0  0  2  0  0  0  0  0  0  0  0  0
   -6.0021    2.9322   13.5465 C   0  0  1  0  0  0  0  0  0  0  0  0
  -10.6071   -2.7300   17.9394 N   0  0  0  0  0  0  0  0  0  0  0  0
   -9.6838   -2.3300   18.8558 C   0  0  1  0  0  0  0  0  0  0  0  0
   -7.4147    3.3308   13.8674 C   0  0  2  0  0  0  0  0  0  0  0  0
   -8.8189   -3.2526   19.3369 N   0  0  0  0  0  0  0  0  0  0  0  0
   -7.8331    4.2121   12.8236 O   0  0  0  0  0  0  0  0  0  0  0  0
   -7.3222    4.0364   15.2058 C   0  0  2  0  0  0  0  0  0  0  0  0
   -9.5953   -1.0420   19.3029 N   0  0  0  0  0  0  0  0  0  0  0  0
   -8.2060    5.1469   15.2769 O   0  0  0  0  0  0  0  0  0  0  0  0
  -10.4405   -0.0803   18.8529 C   0  0  2  0  0  0  0  0  0  0  0  0
   -5.8848    4.5095   15.2976 C   0  0  2  0  0  0  0  0  0  0  0  0
   -5.1422    3.6825   14.4032 O   0  0  0  0  0  0  0  0  0  0  0  0
  -11.4576   -0.4596   17.8570 C   0  0  1  0  0  0  0  0  0  0  0  0
   -5.3087    4.3835   16.7036 C   0  0  0  0  0  0  0  0  0  0  0  0
   -5.3116    3.0071   17.0880 O   0  0  0  0  0  0  0  0  0  0  0  0
  -11.5038   -1.8644   17.4137 C   0  0  0  0  0  0  0  0  0  0  0  0
  -12.4188   -2.2711   16.4974 O   0  0  0  0  0  0  0  0  0  0  0  0
  -12.1530    0.6465   17.5708 N   0  0  0  0  0  0  0  0  0  0  0  0
  -11.6288    1.6610   18.3188 C   0  0  0  0  0  0  0  0  0  0  0  0
  -10.6045    1.2323   19.0861 N   0  0  1  0  0  0  0  0  0  0  0  0
   -7.3722   -1.8309   11.8720 N   0  0  0  0  0  0  0  0  0  0  0  0
   -5.5313    0.8199   18.8076 O   0  5  0  0  0  0  0  0  0  0  0  0
   -7.7684   -0.6053   11.4317 C   0  0  2  0  0  0  0  0  0  0  0  0
   -8.6479   -0.5237   10.3993 N   0  0  0  0  0  0  0  0  0  0  0  0
   -3.7107    3.0249   19.3192 O   0  0  0  0  0  0  0  0  0  0  0  0
   -7.3098    0.5462   11.9937 N   0  0  0  0  0  0  0  0  0  0  0  0
   -6.4276    0.5295   13.0202 C   0  0  2  0  0  0  0  0  0  0  0  0
   -5.9651   -0.7636   13.5412 C   0  0  2  0  0  0  0  0  0  0  0  0
   -6.5029   -1.9793   12.8940 C   0  0  0  0  0  0  0  0  0  0  0  0
   -6.1360   -3.2172   13.3082 O   0  0  0  0  0  0  0  0  0  0  0  0
   -5.1157   -0.4905   14.5513 N   0  0  0  0  0  0  0  0  0  0  0  0
   -5.0380    0.8691   14.6640 C   0  0  0  0  0  0  0  0  0  0  0  0
   -5.8270    1.4737   13.7471 N   0  0  1  0  0  0  0  0  0  0  0  0
  1  3  1  6  0  0  0
  1  4  2  0  0  0  0
  1  6  1  0  0  0  0
  1 22  1  0  0  0  0
  2 28  1  0  0  0  0
  2 35  1  1  0  0  0
  2 38  2  0  0  0  0
  2 10  1  0  0  0  0
  5  6  1  0  0  0  0
  7  5  1  6  0  0  0
  7  8  1  0  0  0  0
  7  9  1  0  0  0  0
  9 10  1  1  0  0  0
  9 11  1  0  0  0  0
 11 12  1  1  0  0  0
 11 13  1  0  0  0  0
 13  8  1  6  0  0  0
 13 33  1  0  0  0  0
 14 46  1  0  0  0  0
 14 17  1  0  0  0  0
 14 25  1  1  0  0  0
 15 16  1  0  0  0  0
 15 29  1  0  0  0  0
 16 18  1  6  0  0  0
 16 21  1  0  0  0  0
 17 19  1  6  0  0  0
 17 20  1  0  0  0  0
 20 22  1  6  0  0  0
 20 24  1  0  0  0  0
 23 21  1  6  0  0  0
 23 26  1  0  0  0  0
 23 33  1  0  0  0  0
 24 25  1  6  0  0  0
 24 27  1  0  0  0  0
 26 29  1  1  0  0  0
 26 31  1  0  0  0  0
 27 28  1  0  0  0  0
 29 30  2  0  0  0  0
 31 32  1  0  0  0  0
 33 32  1  1  0  0  0
 34 36  1  0  0  0  0
 34 42  1  0  0  0  0
 36 37  1  6  0  0  0
 36 39  1  0  0  0  0
 40 39  1  1  0  0  0
 40 41  1  0  0  0  0
 40 46  1  0  0  0  0
 41 42  1  1  0  0  0
 41 44  1  0  0  0  0
 42 43  2  0  0  0  0
 44 45  1  0  0  0  0
 46 45  1  6  0  0  0
M  CHG  2   3  -1  35  -1
M  END
>  <CHROM.1>
164.10347929,65.97208218,-8.05503977,1.71666644,16.43221657,-2.27959694,-0.99060646
-2.48759660

>  <Name>
ligand

>  <RI>
-1

>  <Rbt.Current_Directory>
/home/itssahil/PROJECTS/Mol_Feturizer/Test_systems_manuscript/rnas/3mum

>  <Rbt.Executable>
rbdock ($Id: //depot/dev/client3/rdock/2013.1/src/exe/rbdock.cxx#4 $)

>  <Rbt.Library>
libRbt.so (2013.1, Build901 2013/11/27)

>  <Rbt.Parameter_File>
/export/apps/rDock/src/rDock_2013.1_src/data/scripts/dock_solv.prm

>  <Rbt.Receptor>
prm/pocket_docking_6.prm

>  <SCORE>
-40.5547

>  <SCORE.INTER>
-40.5348

>  <SCORE.INTER.CONST>
1

>  <SCORE.INTER.POLAR>
0

>  <SCORE.INTER.ROT>
2

>  <SCORE.INTER.SOLV>
38.5717

>  <SCORE.INTER.VDW>
-44.8138

>  <SCORE.INTER.norm>
-0.881191

>  <SCORE.INTRA>
-0.0199005

>  <SCORE.INTRA.DIHEDRAL>
0.000955195

>  <SCORE.INTRA.DIHEDRAL.0>
2.40424

>  <SCORE.INTRA.POLAR>
0

>  <SCORE.INTRA.POLAR.0>
0

>  <SCORE.INTRA.REPUL>
0

>  <SCORE.INTRA.REPUL.0>
0

>  <SCORE.INTRA.SOLV>
0.00111071

>  <SCORE.INTRA.SOLV.lig_0>
-134.169

>  <SCORE.INTRA.VDW>
-0.0209334

>  <SCORE.INTRA.VDW.0>
-2.18386

>  <SCORE.INTRA.norm>
-0.000432619

>  <SCORE.RESTR>
0

>  <SCORE.RESTR.CAVITY>
0

>  <SCORE.RESTR.norm>
0

>  <SCORE.SYSTEM>
0

>  <SCORE.SYSTEM.CONST>
0

>  <SCORE.SYSTEM.DIHEDRAL>
0

>  <SCORE.SYSTEM.SOLV>
0

>  <SCORE.SYSTEM.norm>
0

>  <SCORE.heavy>
46

>  <SCORE.norm>
-0.881624

>  <RMSD>
0.149

$$$$
ligand
 OpenBabel02271912143D
libRbt.so/2013.1/901 2013/11/27
 46 52  0  0  0  0  0  0  0  0999 V2000
   -9.7431    4.9511   15.6431 P   0  0  1  0  0  0  0  0  0  0  0  0
   -5.2875    2.5645   18.6643 P   0  0  2  0  0  0  0  0  0  0  0  0
  -10.4926    3.7356   14.5930 O   0  5  0  0  0  0  0  0  0  0  0  0
  -10.6068    6.5091   15.5661 O   0  0  0  0  0  0  0  0  0  0  0  0
   -9.1049    5.1051   18.2106 C   0  0  0  0  0  0  0  0  0  0  0  0
   -9.7421    4.3874   17.1536 O   0  0  0  0  0  0  0  0  0  0  0  0
   -8.8418    4.1463   19.3562 C   0  0  1  0  0  0  0  0  0  0  0  0
  -10.0616    3.4801   19.7112 O   0  0  0  0  0  0  0  0  0  0  0  0
   -7.8621    3.0401   19.0002 C   0  0  1  0  0  0  0  0  0  0  0  0
   -6.5150    3.3981   19.3007 O   0  0  0  0  0  0  0  0  0  0  0  0
   -8.3410    1.8709   19.8426 C   0  0  1  0  0  0  0  0  0  0  0  0
   -7.7151    1.9036   21.1277 O   0  0  0  0  0  0  0  0  0  0  0  0
   -9.8305    2.0973   20.0232 C   0  0  2  0  0  0  0  0  0  0  0  0
   -5.9856    2.9362   13.5700 C   0  0  1  0  0  0  0  0  0  0  0  0
  -10.7005   -2.7395   18.0130 N   0  0  0  0  0  0  0  0  0  0  0  0
   -9.7892   -2.3498   18.9458 C   0  0  1  0  0  0  0  0  0  0  0  0
   -7.3972    3.3403   13.8880 C   0  0  2  0  0  0  0  0  0  0  0  0
   -8.9638   -3.2880   19.4647 N   0  0  0  0  0  0  0  0  0  0  0  0
   -7.8086    4.2265   12.8457 O   0  0  0  0  0  0  0  0  0  0  0  0
   -7.3054    4.0415   15.2287 C   0  0  2  0  0  0  0  0  0  0  0  0
   -9.6745   -1.0571   19.3729 N   0  0  0  0  0  0  0  0  0  0  0  0
   -8.1844    5.1558   15.3006 O   0  0  0  0  0  0  0  0  0  0  0  0
  -10.4798   -0.0798   18.8851 C   0  0  2  0  0  0  0  0  0  0  0  0
   -5.8661    4.5078   15.3260 C   0  0  2  0  0  0  0  0  0  0  0  0
   -5.1248    3.6801   14.4313 O   0  0  0  0  0  0  0  0  0  0  0  0
  -11.4822   -0.4476   17.8700 C   0  0  1  0  0  0  0  0  0  0  0  0
   -5.2946    4.3750   16.7332 C   0  0  0  0  0  0  0  0  0  0  0  0
   -5.3048    2.9976   17.1135 O   0  0  0  0  0  0  0  0  0  0  0  0
  -11.5581   -1.8581   17.4498 C   0  0  0  0  0  0  0  0  0  0  0  0
  -12.4613   -2.2547   16.5175 O   0  0  0  0  0  0  0  0  0  0  0  0
  -12.1377    0.6728   17.5472 N   0  0  0  0  0  0  0  0  0  0  0  0
  -11.6032    1.6850   18.2910 C   0  0  0  0  0  0  0  0  0  0  0  0
  -10.6114    1.2410   19.0914 N   0  0  1  0  0  0  0  0  0  0  0  0
   -7.3710   -1.8157   11.8763 N   0  0  0  0  0  0  0  0  0  0  0  0
   -5.5393    0.8063   18.8261 O   0  5  0  0  0  0  0  0  0  0  0  0
   -7.7602   -0.5871   11.4383 C   0  0  2  0  0  0  0  0  0  0  0  0
   -8.6357   -0.4984   10.4031 N   0  0  0  0  0  0  0  0  0  0  0  0
   -3.7102    3.0015   19.3493 O   0  0  0  0  0  0  0  0  0  0  0  0
   -7.2984    0.5607   12.0054 N   0  0  0  0  0  0  0  0  0  0  0  0
   -6.4199    0.5371   13.0349 C   0  0  2  0  0  0  0  0  0  0  0  0
   -5.9649   -0.7597   13.5536 C   0  0  2  0  0  0  0  0  0  0  0  0
   -6.5059   -1.9711   12.9008 C   0  0  0  0  0  0  0  0  0  0  0  0
   -6.1459   -3.2118   13.3125 O   0  0  0  0  0  0  0  0  0  0  0  0
   -5.1178   -0.4934   14.5674 N   0  0  0  0  0  0  0  0  0  0  0  0
   -5.0346    0.8654   14.6845 C   0  0  0  0  0  0  0  0  0  0  0  0
   -5.8177    1.4763   13.7667 N   0  0  1  0  0  0  0  0  0  0  0  0
  1  3  1  6  0  0  0
  1  4  2  0  0  0  0
  1  6  1  0  0  0  0
  1 22  1  0  0  0  0
  2 28  1  0  0  0  0
  2 35  1  1  0  0  0
  2 38  2  0  0  0  0
  2 10  1  0  0  0  0
  5  6  1  0  0  0  0
  7  5  1  6  0  0  0
  7  8  1  0  0  0  0
  7  9  1  0  0  0  0
  9 10  1  1  0  0  0
  9 11  1  0  0  0  0
 11 12  1  1  0  0  0
 11 13  1  0  0  0  0
 13  8  1  6  0  0  0
 13 33  1  0  0  0  0
 14 46  1  0  0  0  0
 14 17  1  0  0  0  0
 14 25  1  1  0  0  0
 15 16  1  0  0  0  0
 15 29  1  0  0  0  0
 16 18  1  6  0  0  0
 16 21  1  0  0  0  0
 17 19  1  6  0  0  0
 17 20  1  0  0  0  0
 20 22  1  6  0  0  0
 20 24  1  0  0  0  0
 23 21  1  6  0  0  0
 23 26  1  0  0  0  0
 23 33  1  0  0  0  0
 24 25  1  6  0  0  0
 24 27  1  0  0  0  0
 26 29  1  1  0  0  0
 26 31  1  0  0  0  0
 27 28  1  0  0  0  0
 29 30  2  0  0  0  0
 31 32  1  0  0  0  0
 33 32  1  1  0  0  0
 34 36  1  0  0  0  0
 34 42  1  0  0  0  0
 36 37  1  6  0  0  0
 36 39  1  0  0  0  0
 40 39  1  1  0  0  0
 40 41  1  0  0  0  0
 40 46  1  0  0  0  0
 41 42  1  1  0  0  0
 41 44  1  0  0  0  0
 42 43  2  0  0  0  0
 44 45  1  0  0  0  0
 46 45  1  6  0  0  0
M  CHG  2   3  -1  35  -1
M  END
>  <CHROM.1>
166.33587488,66.00902625,-8.05977966,1.71919184,16.45472232,-2.32359667,-0.98575747
-2.47821120

>  <Name>
ligand

>  <RI>
416

>  <Rbt.Current_Directory>
/home/itssahil/PROJECTS/Mol_Feturizer/Test_systems_manuscript/rnas/3mum

>  <Rbt.Executable>
rbdock ($Id: //depot/dev/client3/rdock/2013.1/src/exe/rbdock.cxx#4 $)

>  <Rbt.Library>
libRbt.so (2013.1, Build901 2013/11/27)

>  <Rbt.Parameter_File>
/export/apps/rDock/src/rDock_2013.1_src/data/scripts/dock_solv.prm

>  <Rbt.Receptor>
prm/pocket_docking_2.prm

>  <SCORE>
-40.3641

>  <SCORE.INTER>
-40.3635

>  <SCORE.INTER.CONST>
1

>  <SCORE.INTER.POLAR>
0

>  <SCORE.INTER.ROT>
2

>  <SCORE.INTER.SOLV>
38.6017

>  <SCORE.INTER.VDW>
-44.7096

>  <SCORE.INTER.norm>
-0.877468

>  <SCORE.INTRA>
-0.000564129

>  <SCORE.INTRA.DIHEDRAL>
0.0013074

>  <SCORE.INTRA.DIHEDRAL.0>
2.40424

>  <SCORE.INTRA.POLAR>
0

>  <SCORE.INTRA.POLAR.0>
0

>  <SCORE.INTRA.REPUL>
0

>  <SCORE.INTRA.REPUL.0>
0

>  <SCORE.INTRA.SOLV>
1.89214e-06

>  <SCORE.INTRA.SOLV.lig_0>
-134.169

>  <SCORE.INTRA.VDW>
-0.00121878

>  <SCORE.INTRA.VDW.0>
-2.18386

>  <SCORE.INTRA.norm>
-1.22637e-05

>  <SCORE.RESTR>
0

>  <SCORE.RESTR.CAVITY>
0

>  <SCORE.RESTR.norm>
0

>  <SCORE.SYSTEM>
0

>  <SCORE.SYSTEM.CONST>
0

>  <SCORE.SYSTEM.DIHEDRAL>
0

>  <SCORE.SYSTEM.SOLV>
0

>  <SCORE.SYSTEM.norm>
0

>  <SCORE.heavy>
46

>  <SCORE.norm>
-0.87748

>  <RMSD>
0.151

$$$$
ligand
 OpenBabel02271912143D
libRbt.so/2013.1/901 2013/11/27
 46 52  0  0  0  0  0  0  0  0999 V2000
   -9.7461    4.8673   15.6499 P   0  0  1  0  0  0  0  0  0  0  0  0
   -5.2374    2.5537   18.6491 P   0  0  2  0  0  0  0  0  0  0  0  0
  -10.4590    3.6490   14.5778 O   0  5  0  0  0  0  0  0  0  0  0  0
  -10.6513    6.4025   15.5946 O   0  0  0  0  0  0  0  0  0  0  0  0
   -9.1206    4.9972   18.2220 C   0  0  0  0  0  0  0  0  0  0  0  0
   -9.7347    4.2797   17.1512 O   0  0  0  0  0  0  0  0  0  0  0  0
   -8.8354    4.0277   19.3530 C   0  0  1  0  0  0  0  0  0  0  0  0
  -10.0379    3.3231   19.6929 O   0  0  0  0  0  0  0  0  0  0  0  0
   -7.8249    2.9541   18.9830 C   0  0  1  0  0  0  0  0  0  0  0  0
   -6.4891    3.3436   19.2942 O   0  0  0  0  0  0  0  0  0  0  0  0
   -8.2748    1.7591   19.8049 C   0  0  1  0  0  0  0  0  0  0  0  0
   -7.6542    1.7880   21.0927 O   0  0  0  0  0  0  0  0  0  0  0  0
   -9.7705    1.9423   19.9836 C   0  0  2  0  0  0  0  0  0  0  0  0
   -5.9287    2.9881   13.5588 C   0  0  1  0  0  0  0  0  0  0  0  0
  -10.7676   -2.9431   18.1582 N   0  0  0  0  0  0  0  0  0  0  0  0
   -9.9117   -2.5535   19.1421 C   0  0  1  0  0  0  0  0  0  0  0  0
   -7.3518    3.3488   13.8780 C   0  0  2  0  0  0  0  0  0  0  0  0
   -9.1883   -3.5059   19.7748 N   0  0  0  0  0  0  0  0  0  0  0  0
   -7.7836    4.2402   12.8485 O   0  0  0  0  0  0  0  0  0  0  0  0
   -7.2833    4.0306   15.2301 C   0  0  2  0  0  0  0  0  0  0  0  0
   -9.7536   -1.2473   19.5106 N   0  0  0  0  0  0  0  0  0  0  0  0
   -8.1923    5.1195   15.3165 O   0  0  0  0  0  0  0  0  0  0  0  0
  -10.4571   -0.2553   18.9084 C   0  0  2  0  0  0  0  0  0  0  0  0
   -5.8574    4.5341   15.3401 C   0  0  2  0  0  0  0  0  0  0  0  0
   -5.0911    3.7411   14.4350 O   0  0  0  0  0  0  0  0  0  0  0  0
  -11.3958   -0.6225   17.8340 C   0  0  1  0  0  0  0  0  0  0  0  0
   -5.2871    4.3942   16.7471 C   0  0  0  0  0  0  0  0  0  0  0  0
   -5.2613    3.0110   17.1054 O   0  0  0  0  0  0  0  0  0  0  0  0
  -11.5229   -2.0479   17.4816 C   0  0  0  0  0  0  0  0  0  0  0  0
  -12.3712   -2.4449   16.4993 O   0  0  0  0  0  0  0  0  0  0  0  0
  -11.9548    0.5129   17.4012 N   0  0  0  0  0  0  0  0  0  0  0  0
  -11.4212    1.5336   18.1340 C   0  0  0  0  0  0  0  0  0  0  0  0
  -10.5249    1.0802   19.0354 N   0  0  1  0  0  0  0  0  0  0  0  0
   -7.4337   -1.7797   12.0190 N   0  0  0  0  0  0  0  0  0  0  0  0
   -5.4420    0.7870   18.7819 O   0  5  0  0  0  0  0  0  0  0  0  0
   -7.8841   -0.5557   11.6291 C   0  0  2  0  0  0  0  0  0  0  0  0
   -8.8697   -0.4774   10.6972 N   0  0  0  0  0  0  0  0  0  0  0  0
   -3.6747    3.0221   19.3468 O   0  0  0  0  0  0  0  0  0  0  0  0
   -7.3768    0.5974   12.1441 N   0  0  0  0  0  0  0  0  0  0  0  0
   -6.3897    0.5841   13.0702 C   0  0  2  0  0  0  0  0  0  0  0  0
   -5.8641   -0.7072   13.5328 C   0  0  2  0  0  0  0  0  0  0  0  0
   -6.4588   -1.9248   12.9414 C   0  0  0  0  0  0  0  0  0  0  0  0
   -6.0402   -3.1612   13.3082 O   0  0  0  0  0  0  0  0  0  0  0  0
   -4.9136   -0.4309   14.4474 N   0  0  0  0  0  0  0  0  0  0  0  0
   -4.8347    0.9288   14.5573 C   0  0  0  0  0  0  0  0  0  0  0  0
   -5.7220    1.5304   13.7328 N   0  0  1  0  0  0  0  0  0  0  0  0
  1  3  1  6  0  0  0
  1  4  2  0  0  0  0
  1  6  1  0  0  0  0
  1 22  1  0  0  0  0
  2 28  1  0  0  0  0
  2 35  1  1  0  0  0
  2 38  2  0  0  0  0
  2 10  1  0  0  0  0
  5  6  1  0  0  0  0
  7  5  1  6  0  0  0
  7  8  1  0  0  0  0
  7  9  1  0  0  0  0
  9 10  1  1  0  0  0
  9 11  1  0  0  0  0
 11 12  1  1  0  0  0
 11 13  1  0  0  0  0
 13  8  1  6  0  0  0
 13 33  1  0  0  0  0
 14 46  1  0  0  0  0
 14 17  1  0  0  0  0
 14 25  1  1  0  0  0
 15 16  1  0  0  0  0
 15 29  1  0  0  0  0
 16 18  1  6  0  0  0
 16 21  1  0  0  0  0
 17 19  1  6  0  0  0
 17 20  1  0  0  0  0
 20 22  1  6  0  0  0
 20 24  1  0  0  0  0
 23 21  1  6  0  0  0
 23 26  1  0  0  0  0
 23 33  1  0  0  0  0
 24 25  1  6  0  0  0
 24 27  1  0  0  0  0
 26 29  1  1  0  0  0
 26 31  1  0  0  0  0
 27 28  1  0  0  0  0
 29 30  2  0  0  0  0
 31 32  1  0  0  0  0
 33 32  1  1  0  0  0
 34 36  1  0  0  0  0
 34 42  1  0  0  0  0
 36 37  1  6  0  0  0
 36 39  1  0  0  0  0
 40 39  1  1  0  0  0
 40 41  1  0  0  0  0
 40 46  1  0  0  0  0
 41 42  1  1  0  0  0
 41 44  1  0  0  0  0
 42 43  2  0  0  0  0
 44 45  1  0  0  0  0
 46 45  1  6  0  0  0
M  CHG  2   3  -1  35  -1
M  END
>  <CHROM.1>
174.06184983,59.36023629,-8.03502194,1.66209467,16.47034942,-0.53921529,0.99096035
0.68970877

>  <Name>
ligand

>  <RI>
416

>  <Rbt.Current_Directory>
/home/itssahil/PROJECTS/Mol_Feturizer/Test_systems_manuscript/rnas/3mum

>  <Rbt.Executable>
rbdock ($Id: //depot/dev/client3/rdock/2013.1/src/exe/rbdock.cxx#4 $)

>  <Rbt.Library>
libRbt.so (2013.1, Build901 2013/11/27)

>  <Rbt.Parameter_File>
/export/apps/rDock/src/rDock_2013.1_src/data/scripts/dock_solv.prm

>  <Rbt.Receptor>
prm/pocket_docking_2.prm

>  <SCORE>
-39.5856

>  <SCORE.INTER>
-39.6018

>  <SCORE.INTER.CONST>
1

>  <SCORE.INTER.POLAR>
0

>  <SCORE.INTER.ROT>
2

>  <SCORE.INTER.SOLV>
39.9299

>  <SCORE.INTER.VDW>
-44.6445

>  <SCORE.INTER.norm>
-0.860908

>  <SCORE.INTRA>
0.0161994

>  <SCORE.INTRA.DIHEDRAL>
-0.00691388

>  <SCORE.INTRA.DIHEDRAL.0>
2.40424

>  <SCORE.INTRA.POLAR>
0

>  <SCORE.INTRA.POLAR.0>
0

>  <SCORE.INTRA.REPUL>
0

>  <SCORE.INTRA.REPUL.0>
0

>  <SCORE.INTRA.SOLV>
0.00554811

>  <SCORE.INTRA.SOLV.lig_0>
-134.169

>  <SCORE.INTRA.VDW>
0.0168823

>  <SCORE.INTRA.VDW.0>
-2.18386

>  <SCORE.INTRA.norm>
0.000352162

>  <SCORE.RESTR>
0

>  <SCORE.RESTR.CAVITY>
0

>  <SCORE.RESTR.norm>
0

>  <SCORE.SYSTEM>
0

>  <SCORE.SYSTEM.CONST>
0

>  <SCORE.SYSTEM.DIHEDRAL>
0

>  <SCORE.SYSTEM.SOLV>
0

>  <SCORE.SYSTEM.norm>
0

>  <SCORE.heavy>
46

>  <SCORE.norm>
-0.860556

>  <RMSD>
0.152

$$$$
ligand
 OpenBabel02271912143D
libRbt.so/2013.1/901 2013/11/27
 46 52  0  0  0  0  0  0  0  0999 V2000
   -9.7901    4.9098   15.6011 P   0  0  1  0  0  0  0  0  0  0  0  0
   -5.2995    2.6231   18.6477 P   0  0  2  0  0  0  0  0  0  0  0  0
  -10.5205    3.6722   14.5634 O   0  5  0  0  0  0  0  0  0  0  0  0
  -10.6776    6.4535   15.5079 O   0  0  0  0  0  0  0  0  0  0  0  0
   -9.1553    5.0999   18.1671 C   0  0  0  0  0  0  0  0  0  0  0  0
   -9.7810    4.3617   17.1173 O   0  0  0  0  0  0  0  0  0  0  0  0
   -8.8779    4.1572   19.3225 C   0  0  1  0  0  0  0  0  0  0  0  0
  -10.0875    3.4760   19.6841 O   0  0  0  0  0  0  0  0  0  0  0  0
   -7.8812    3.0625   18.9781 C   0  0  1  0  0  0  0  0  0  0  0  0
   -6.5399    3.4442   19.2753 O   0  0  0  0  0  0  0  0  0  0  0  0
   -8.3425    1.8948   19.8324 C   0  0  1  0  0  0  0  0  0  0  0  0
   -7.7176    1.9503   21.1172 O   0  0  0  0  0  0  0  0  0  0  0  0
   -9.8354    2.1002   20.0103 C   0  0  2  0  0  0  0  0  0  0  0  0
   -6.0013    2.9316   13.5496 C   0  0  1  0  0  0  0  0  0  0  0  0
  -10.5415   -2.7421   17.9497 N   0  0  0  0  0  0  0  0  0  0  0  0
   -9.6228   -2.3245   18.8630 C   0  0  1  0  0  0  0  0  0  0  0  0
   -7.4191    3.3172   13.8632 C   0  0  2  0  0  0  0  0  0  0  0  0
   -8.7414   -3.2313   19.3441 N   0  0  0  0  0  0  0  0  0  0  0  0
   -7.8437    4.1863   12.8117 O   0  0  0  0  0  0  0  0  0  0  0  0
   -7.3385    4.0335   15.1967 C   0  0  2  0  0  0  0  0  0  0  0  0
   -9.5549   -1.0342   19.3068 N   0  0  0  0  0  0  0  0  0  0  0  0
   -8.2346    5.1348   15.2569 O   0  0  0  0  0  0  0  0  0  0  0  0
  -10.4171   -0.0878   18.8567 C   0  0  2  0  0  0  0  0  0  0  0  0
   -5.9066    4.5229   15.2895 C   0  0  2  0  0  0  0  0  0  0  0  0
   -5.1524    3.6975   14.4034 O   0  0  0  0  0  0  0  0  0  0  0  0
  -11.4302   -0.4866   17.8641 C   0  0  1  0  0  0  0  0  0  0  0  0
   -5.3337    4.4133   16.6981 C   0  0  0  0  0  0  0  0  0  0  0  0
   -5.3229    3.0399   17.0925 O   0  0  0  0  0  0  0  0  0  0  0  0
  -11.4538   -1.8930   17.4242 C   0  0  0  0  0  0  0  0  0  0  0  0
  -12.3641   -2.3171   16.5112 O   0  0  0  0  0  0  0  0  0  0  0  0
  -12.1447    0.6071   17.5771 N   0  0  0  0  0  0  0  0  0  0  0  0
  -11.6358    1.6320   18.3215 C   0  0  0  0  0  0  0  0  0  0  0  0
  -10.6026    1.2224   19.0872 N   0  0  1  0  0  0  0  0  0  0  0  0
   -7.4101   -1.8586   11.9885 N   0  0  0  0  0  0  0  0  0  0  0  0
   -5.5244    0.8630   18.8275 O   0  5  0  0  0  0  0  0  0  0  0  0
   -7.8293   -0.6406   11.5485 C   0  0  2  0  0  0  0  0  0  0  0  0
   -8.7482   -0.5761   10.5498 N   0  0  0  0  0  0  0  0  0  0  0  0
   -3.7294    3.0912   19.3285 O   0  0  0  0  0  0  0  0  0  0  0  0
   -7.3554    0.5201   12.0781 N   0  0  0  0  0  0  0  0  0  0  0  0
   -6.4343    0.5205   13.0700 C   0  0  2  0  0  0  0  0  0  0  0  0
   -5.9453   -0.7638   13.5889 C   0  0  2  0  0  0  0  0  0  0  0  0
   -6.5013   -1.9901   12.9780 C   0  0  0  0  0  0  0  0  0  0  0  0
   -6.1124   -3.2209   13.3931 O   0  0  0  0  0  0  0  0  0  0  0  0
   -5.0592   -0.4739   14.5620 N   0  0  0  0  0  0  0  0  0  0  0  0
   -4.9843    0.8873   14.6547 C   0  0  0  0  0  0  0  0  0  0  0  0
   -5.8111    1.4766   13.7614 N   0  0  1  0  0  0  0  0  0  0  0  0
  1  3  1  6  0  0  0
  1  4  2  0  0  0  0
  1  6  1  0  0  0  0
  1 22  1  0  0  0  0
  2 28  1  0  0  0  0
  2 35  1  1  0  0  0
  2 38  2  0  0  0  0
  2 10  1  0  0  0  0
  5  6  1  0  0  0  0
  7  5  1  6  0  0  0
  7  8  1  0  0  0  0
  7  9  1  0  0  0  0
  9 10  1  1  0  0  0
  9 11  1  0  0  0  0
 11 12  1  1  0  0  0
 11 13  1  0  0  0  0
 13  8  1  6  0  0  0
 13 33  1  0  0  0  0
 14 46  1  0  0  0  0
 14 17  1  0  0  0  0
 14 25  1  1  0  0  0
 15 16  1  0  0  0  0
 15 29  1  0  0  0  0
 16 18  1  6  0  0  0
 16 21  1  0  0  0  0
 17 19  1  6  0  0  0
 17 20  1  0  0  0  0
 20 22  1  6  0  0  0
 20 24  1  0  0  0  0
 23 21  1  6  0  0  0
 23 26  1  0  0  0  0
 23 33  1  0  0  0  0
 24 25  1  6  0  0  0
 24 27  1  0  0  0  0
 26 29  1  1  0  0  0
 26 31  1  0  0  0  0
 27 28  1  0  0  0  0
 29 30  2  0  0  0  0
 31 32  1  0  0  0  0
 33 32  1  1  0  0  0
 34 36  1  0  0  0  0
 34 42  1  0  0  0  0
 36 37  1  6  0  0  0
 36 39  1  0  0  0  0
 40 39  1  1  0  0  0
 40 41  1  0  0  0  0
 40 46  1  0  0  0  0
 41 42  1  1  0  0  0
 41 44  1  0  0  0  0
 42 43  2  0  0  0  0
 44 45  1  0  0  0  0
 46 45  1  6  0  0  0
M  CHG  2   3  -1  35  -1
M  END
>  <CHROM.1>
163.55639392,63.54430541,-8.05875322,1.71555608,16.44466698,-2.27119576,-0.99283596
-2.50096044

>  <Name>
ligand

>  <RI>
-1

>  <Rbt.Current_Directory>
/home/itssahil/PROJECTS/Mol_Feturizer/Test_systems_manuscript/rnas/3mum

>  <Rbt.Executable>
rbdock ($Id: //depot/dev/client3/rdock/2013.1/src/exe/rbdock.cxx#4 $)

>  <Rbt.Library>
libRbt.so (2013.1, Build901 2013/11/27)

>  <Rbt.Parameter_File>
/export/apps/rDock/src/rDock_2013.1_src/data/scripts/dock_solv.prm

>  <Rbt.Receptor>
prm/pocket_docking_5.prm

>  <SCORE>
-40.5484

>  <SCORE.INTER>
-40.5402

>  <SCORE.INTER.CONST>
1

>  <SCORE.INTER.POLAR>
0

>  <SCORE.INTER.ROT>
2

>  <SCORE.INTER.SOLV>
38.5308

>  <SCORE.INTER.VDW>
-44.8037

>  <SCORE.INTER.norm>
-0.881308

>  <SCORE.INTRA>
-0.00816715

>  <SCORE.INTRA.DIHEDRAL>
-0.00252654

>  <SCORE.INTRA.DIHEDRAL.0>
2.40424

>  <SCORE.INTRA.POLAR>
0

>  <SCORE.INTRA.POLAR.0>
0

>  <SCORE.INTRA.REPUL>
0

>  <SCORE.INTRA.REPUL.0>
0

>  <SCORE.INTRA.SOLV>
0.00466406

>  <SCORE.INTRA.SOLV.lig_0>
-134.169

>  <SCORE.INTRA.VDW>
-0.00923591

>  <SCORE.INTRA.VDW.0>
-2.18386

>  <SCORE.INTRA.norm>
-0.000177547

>  <SCORE.RESTR>
0

>  <SCORE.RESTR.CAVITY>
0

>  <SCORE.RESTR.norm>
0

>  <SCORE.SYSTEM>
0

>  <SCORE.SYSTEM.CONST>
0

>  <SCORE.SYSTEM.DIHEDRAL>
0

>  <SCORE.SYSTEM.SOLV>
0

>  <SCORE.SYSTEM.norm>
0

>  <SCORE.heavy>
46

>  <SCORE.norm>
-0.881486

>  <RMSD>
0.154

$$$$
ligand
 OpenBabel02271912143D
libRbt.so/2013.1/901 2013/11/27
 46 52  0  0  0  0  0  0  0  0999 V2000
   -9.7383    4.9317   15.6498 P   0  0  1  0  0  0  0  0  0  0  0  0
   -5.2573    2.5542   18.6405 P   0  0  2  0  0  0  0  0  0  0  0  0
  -10.4936    3.7143   14.6062 O   0  5  0  0  0  0  0  0  0  0  0  0
  -10.6047    6.4885   15.5777 O   0  0  0  0  0  0  0  0  0  0  0  0
   -9.0816    5.0888   18.2125 C   0  0  0  0  0  0  0  0  0  0  0  0
   -9.7254    4.3694   17.1607 O   0  0  0  0  0  0  0  0  0  0  0  0
   -8.8088    4.1315   19.3569 C   0  0  1  0  0  0  0  0  0  0  0  0
  -10.0250    3.4638   19.7214 O   0  0  0  0  0  0  0  0  0  0  0  0
   -7.8301    3.0263   18.9947 C   0  0  1  0  0  0  0  0  0  0  0  0
   -6.4814    3.3866   19.2851 O   0  0  0  0  0  0  0  0  0  0  0  0
   -8.3012    1.8572   19.8415 C   0  0  1  0  0  0  0  0  0  0  0  0
   -7.6660    1.8918   21.1221 O   0  0  0  0  0  0  0  0  0  0  0  0
   -9.7897    2.0816   20.0328 C   0  0  2  0  0  0  0  0  0  0  0  0
   -5.9930    2.9206   13.5510 C   0  0  1  0  0  0  0  0  0  0  0  0
  -10.5599   -2.7240   17.9102 N   0  0  0  0  0  0  0  0  0  0  0  0
   -9.6257   -2.3268   18.8168 C   0  0  1  0  0  0  0  0  0  0  0  0
   -7.4029    3.3229   13.8790 C   0  0  2  0  0  0  0  0  0  0  0  0
   -8.7444   -3.2470   19.2721 N   0  0  0  0  0  0  0  0  0  0  0  0
   -7.8231    4.2076   12.8389 O   0  0  0  0  0  0  0  0  0  0  0  0
   -7.3023    4.0254   15.2185 C   0  0  2  0  0  0  0  0  0  0  0  0
   -9.5421   -1.0438   19.2788 N   0  0  0  0  0  0  0  0  0  0  0  0
   -8.1823    5.1384   15.2958 O   0  0  0  0  0  0  0  0  0  0  0  0
  -10.4034   -0.0846   18.8549 C   0  0  2  0  0  0  0  0  0  0  0  0
   -5.8630    4.4939   15.3049 C   0  0  2  0  0  0  0  0  0  0  0  0
   -5.1270    3.6664   14.4054 O   0  0  0  0  0  0  0  0  0  0  0  0
  -11.4329   -0.4611   17.8706 C   0  0  1  0  0  0  0  0  0  0  0  0
   -5.2811    4.3631   16.7080 C   0  0  0  0  0  0  0  0  0  0  0  0
   -5.2865    2.9860   17.0895 O   0  0  0  0  0  0  0  0  0  0  0  0
  -11.4731   -1.8605   17.4101 C   0  0  0  0  0  0  0  0  0  0  0  0
  -12.3989   -2.2644   16.5036 O   0  0  0  0  0  0  0  0  0  0  0  0
  -12.1432    0.6418   17.6098 N   0  0  0  0  0  0  0  0  0  0  0  0
  -11.6166    1.6518   18.3623 C   0  0  0  0  0  0  0  0  0  0  0  0
  -10.5760    1.2233   19.1074 N   0  0  1  0  0  0  0  0  0  0  0  0
   -7.3776   -1.8348   11.8663 N   0  0  0  0  0  0  0  0  0  0  0  0
   -5.5054    0.7958   18.8056 O   0  5  0  0  0  0  0  0  0  0  0  0
   -7.7710   -0.6070   11.4295 C   0  0  2  0  0  0  0  0  0  0  0  0
   -8.6514   -0.5205   10.3983 N   0  0  0  0  0  0  0  0  0  0  0  0
   -3.6757    2.9941   19.3136 O   0  0  0  0  0  0  0  0  0  0  0  0
   -7.3087    0.5419   11.9939 N   0  0  0  0  0  0  0  0  0  0  0  0
   -6.4254    0.5204   13.0193 C   0  0  2  0  0  0  0  0  0  0  0  0
   -5.9657   -0.7753   13.5366 C   0  0  2  0  0  0  0  0  0  0  0  0
   -6.5074   -1.9880   12.8870 C   0  0  0  0  0  0  0  0  0  0  0  0
   -6.1433   -3.2279   13.2976 O   0  0  0  0  0  0  0  0  0  0  0  0
   -5.1144   -0.5069   14.5463 N   0  0  0  0  0  0  0  0  0  0  0  0
   -5.0331    0.8521   14.6623 C   0  0  0  0  0  0  0  0  0  0  0  0
   -5.8215    1.4611   13.7478 N   0  0  1  0  0  0  0  0  0  0  0  0
  1  3  1  6  0  0  0
  1  4  2  0  0  0  0
  1  6  1  0  0  0  0
  1 22  1  0  0  0  0
  2 28  1  0  0  0  0
  2 35  1  1  0  0  0
  2 38  2  0  0  0  0
  2 10  1  0  0  0  0
  5  6  1  0  0  0  0
  7  5  1  6  0  0  0
  7  8  1  0  0  0  0
  7  9  1  0  0  0  0
  9 10  1  1  0  0  0
  9 11  1  0  0  0  0
 11 12  1  1  0  0  0
 11 13  1  0  0  0  0
 13  8  1  6  0  0  0
 13 33  1  0  0  0  0
 14 46  1  0  0  0  0
 14 17  1  0  0  0  0
 14 25  1  1  0  0  0
 15 16  1  0  0  0  0
 15 29  1  0  0  0  0
 16 18  1  6  0  0  0
 16 21  1  0  0  0  0
 17 19  1  6  0  0  0
 17 20  1  0  0  0  0
 20 22  1  6  0  0  0
 20 24  1  0  0  0  0
 23 21  1  6  0  0  0
 23 26  1  0  0  0  0
 23 33  1  0  0  0  0
 24 25  1  6  0  0  0
 24 27  1  0  0  0  0
 26 29  1  1  0  0  0
 26 31  1  0  0  0  0
 27 28  1  0  0  0  0
 29 30  2  0  0  0  0
 31 32  1  0  0  0  0
 33 32  1  1  0  0  0
 34 36  1  0  0  0  0
 34 42  1  0  0  0  0
 36 37  1  6  0  0  0
 36 39  1  0  0  0  0
 40 39  1  1  0  0  0
 40 41  1  0  0  0  0
 40 46  1  0  0  0  0
 41 42  1  1  0  0  0
 41 44  1  0  0  0  0
 42 43  2  0  0  0  0
 44 45  1  0  0  0  0
 46 45  1  6  0  0  0
M  CHG  2   3  -1  35  -1
M  END
>  <CHROM.1>
162.94489451,66.16318103,-8.03210208,1.70669082,16.43801601,-2.24841775,-0.99195949
-2.48023581

>  <Name>
ligand

>  <RI>
-1

>  <Rbt.Current_Directory>
/home/itssahil/PROJECTS/Mol_Feturizer/Test_systems_manuscript/rnas/3mum

>  <Rbt.Executable>
rbdock ($Id: //depot/dev/client3/rdock/2013.1/src/exe/rbdock.cxx#4 $)

>  <Rbt.Library>
libRbt.so (2013.1, Build901 2013/11/27)

>  <Rbt.Parameter_File>
/export/apps/rDock/src/rDock_2013.1_src/data/scripts/dock_solv.prm

>  <Rbt.Receptor>
prm/pocket_docking_6.prm

>  <SCORE>
-40.5378

>  <SCORE.INTER>
-40.5248

>  <SCORE.INTER.CONST>
1

>  <SCORE.INTER.POLAR>
0

>  <SCORE.INTER.ROT>
2

>  <SCORE.INTER.SOLV>
38.5401

>  <SCORE.INTER.VDW>
-44.7966

>  <SCORE.INTER.norm>
-0.880975

>  <SCORE.INTRA>
-0.0129446

>  <SCORE.INTRA.DIHEDRAL>
0.00107709

>  <SCORE.INTRA.DIHEDRAL.0>
2.40424

>  <SCORE.INTRA.POLAR>
0

>  <SCORE.INTRA.POLAR.0>
0

>  <SCORE.INTRA.REPUL>
0

>  <SCORE.INTRA.REPUL.0>
0

>  <SCORE.INTRA.SOLV>
0.00139573

>  <SCORE.INTRA.SOLV.lig_0>
-134.169

>  <SCORE.INTRA.VDW>
-0.014181

>  <SCORE.INTRA.VDW.0>
-2.18386

>  <SCORE.INTRA.norm>
-0.000281405

>  <SCORE.RESTR>
0

>  <SCORE.RESTR.CAVITY>
0

>  <SCORE.RESTR.norm>
0

>  <SCORE.SYSTEM>
0

>  <SCORE.SYSTEM.CONST>
0

>  <SCORE.SYSTEM.DIHEDRAL>
0

>  <SCORE.SYSTEM.SOLV>
0

>  <SCORE.SYSTEM.norm>
0

>  <SCORE.heavy>
46

>  <SCORE.norm>
-0.881256

>  <RMSD>
0.154

$$$$
ligand
 OpenBabel02271912143D
libRbt.so/2013.1/901 2013/11/27
 46 52  0  0  0  0  0  0  0  0999 V2000
   -9.7792    4.9167   15.6080 P   0  0  1  0  0  0  0  0  0  0  0  0
   -5.2912    2.5896   18.6276 P   0  0  2  0  0  0  0  0  0  0  0  0
  -10.5244    3.6867   14.5718 O   0  5  0  0  0  0  0  0  0  0  0  0
  -10.6551    6.4674   15.5221 O   0  0  0  0  0  0  0  0  0  0  0  0
   -9.1300    5.0971   18.1711 C   0  0  0  0  0  0  0  0  0  0  0  0
   -9.7667    4.3658   17.1232 O   0  0  0  0  0  0  0  0  0  0  0  0
   -8.8541    4.1501   19.3234 C   0  0  1  0  0  0  0  0  0  0  0  0
  -10.0671    3.4776   19.6899 O   0  0  0  0  0  0  0  0  0  0  0  0
   -7.8677    3.0484   18.9719 C   0  0  1  0  0  0  0  0  0  0  0  0
   -6.5220    3.4192   19.2630 O   0  0  0  0  0  0  0  0  0  0  0  0
   -8.3337    1.8827   19.8264 C   0  0  1  0  0  0  0  0  0  0  0  0
   -7.7019    1.9309   21.1082 O   0  0  0  0  0  0  0  0  0  0  0  0
   -9.8240    2.0993   20.0123 C   0  0  2  0  0  0  0  0  0  0  0  0
   -6.0163    2.9130   13.5338 C   0  0  1  0  0  0  0  0  0  0  0  0
  -10.5599   -2.7271   17.9250 N   0  0  0  0  0  0  0  0  0  0  0  0
   -9.6305   -2.3173   18.8309 C   0  0  1  0  0  0  0  0  0  0  0  0
   -7.4295    3.3091   13.8552 C   0  0  2  0  0  0  0  0  0  0  0  0
   -8.7451   -3.2287   19.2957 N   0  0  0  0  0  0  0  0  0  0  0  0
   -7.8526    4.1833   12.8075 O   0  0  0  0  0  0  0  0  0  0  0  0
   -7.3366    4.0222   15.1896 C   0  0  2  0  0  0  0  0  0  0  0  0
   -9.5558   -1.0303   19.2832 N   0  0  0  0  0  0  0  0  0  0  0  0
   -8.2237    5.1303   15.2564 O   0  0  0  0  0  0  0  0  0  0  0  0
  -10.4217   -0.0795   18.8495 C   0  0  2  0  0  0  0  0  0  0  0  0
   -5.9005    4.5003   15.2760 C   0  0  2  0  0  0  0  0  0  0  0  0
   -5.1571    3.6707   14.3847 O   0  0  0  0  0  0  0  0  0  0  0  0
  -11.4462   -0.4698   17.8654 C   0  0  1  0  0  0  0  0  0  0  0  0
   -5.3213    4.3837   16.6815 C   0  0  0  0  0  0  0  0  0  0  0  0
   -5.3191    3.0094   17.0734 O   0  0  0  0  0  0  0  0  0  0  0  0
  -11.4768   -1.8729   17.4157 C   0  0  0  0  0  0  0  0  0  0  0  0
  -12.3977   -2.2893   16.5099 O   0  0  0  0  0  0  0  0  0  0  0  0
  -12.1624    0.6269   17.5942 N   0  0  0  0  0  0  0  0  0  0  0  0
  -11.6438    1.6457   18.3403 C   0  0  0  0  0  0  0  0  0  0  0  0
  -10.6027    1.2292   19.0915 N   0  0  1  0  0  0  0  0  0  0  0  0
   -7.3690   -1.8633   11.8830 N   0  0  0  0  0  0  0  0  0  0  0  0
   -5.5288    0.8309   18.8054 O   0  5  0  0  0  0  0  0  0  0  0  0
   -7.7691   -0.6414   11.4361 C   0  0  2  0  0  0  0  0  0  0  0  0
   -8.6482   -0.5681   10.4028 N   0  0  0  0  0  0  0  0  0  0  0  0
   -3.7140    3.0443   19.3014 O   0  0  0  0  0  0  0  0  0  0  0  0
   -7.3148    0.5146   11.9925 N   0  0  0  0  0  0  0  0  0  0  0  0
   -6.4332    0.5062   13.0196 C   0  0  2  0  0  0  0  0  0  0  0  0
   -5.9665   -0.7826   13.5475 C   0  0  2  0  0  0  0  0  0  0  0  0
   -6.4997   -2.0035   12.9063 C   0  0  0  0  0  0  0  0  0  0  0  0
   -6.1288   -3.2380   13.3270 O   0  0  0  0  0  0  0  0  0  0  0  0
   -5.1187   -0.5013   14.5567 N   0  0  0  0  0  0  0  0  0  0  0  0
   -5.0458    0.8590   14.6624 C   0  0  0  0  0  0  0  0  0  0  0  0
   -5.8363    1.4562   13.7419 N   0  0  1  0  0  0  0  0  0  0  0  0
  1  3  1  6  0  0  0
  1  4  2  0  0  0  0
  1  6  1  0  0  0  0
  1 22  1  0  0  0  0
  2 28  1  0  0  0  0
  2 35  1  1  0  0  0
  2 38  2  0  0  0  0
  2 10  1  0  0  0  0
  5  6  1  0  0  0  0
  7  5  1  6  0  0  0
  7  8  1  0  0  0  0
  7  9  1  0  0  0  0
  9 10  1  1  0  0  0
  9 11  1  0  0  0  0
 11 12  1  1  0  0  0
 11 13  1  0  0  0  0
 13  8  1  6  0  0  0
 13 33  1  0  0  0  0
 14 46  1  0  0  0  0
 14 17  1  0  0  0  0
 14 25  1  1  0  0  0
 15 16  1  0  0  0  0
 15 29  1  0  0  0  0
 16 18  1  6  0  0  0
 16 21  1  0  0  0  0
 17 19  1  6  0  0  0
 17 20  1  0  0  0  0
 20 22  1  6  0  0  0
 20 24  1  0  0  0  0
 23 21  1  6  0  0  0
 23 26  1  0  0  0  0
 23 33  1  0  0  0  0
 24 25  1  6  0  0  0
 24 27  1  0  0  0  0
 26 29  1  1  0  0  0
 26 31  1  0  0  0  0
 27 28  1  0  0  0  0
 29 30  2  0  0  0  0
 31 32  1  0  0  0  0
 33 32  1  1  0  0  0
 34 36  1  0  0  0  0
 34 42  1  0  0  0  0
 36 37  1  6  0  0  0
 36 39  1  0  0  0  0
 40 39  1  1  0  0  0
 40 41  1  0  0  0  0
 40 46  1  0  0  0  0
 41 42  1  1  0  0  0
 41 44  1  0  0  0  0
 42 43  2  0  0  0  0
 44 45  1  0  0  0  0
 46 45  1  6  0  0  0
M  CHG  2   3  -1  35  -1
M  END
>  <CHROM.1>
162.96748665,66.11958796,-8.05540599,1.70826566,16.42503593,-2.26029180,-0.99372575
-2.49738920

>  <Name>
ligand

>  <RI>
416

>  <Rbt.Current_Directory>
/home/itssahil/PROJECTS/Mol_Feturizer/Test_systems_manuscript/rnas/3mum

>  <Rbt.Executable>
rbdock ($Id: //depot/dev/client3/rdock/2013.1/src/exe/rbdock.cxx#4 $)

>  <Rbt.Library>
libRbt.so (2013.1, Build901 2013/11/27)

>  <Rbt.Parameter_File>
/export/apps/rDock/src/rDock_2013.1_src/data/scripts/dock_solv.prm

>  <Rbt.Receptor>
prm/pocket_docking_2.prm

>  <SCORE>
-40.5931

>  <SCORE.INTER>
-40.5804

>  <SCORE.INTER.CONST>
1

>  <SCORE.INTER.POLAR>
0

>  <SCORE.INTER.ROT>
2

>  <SCORE.INTER.SOLV>
38.564

>  <SCORE.INTER.VDW>
-44.8416

>  <SCORE.INTER.norm>
-0.882183

>  <SCORE.INTRA>
-0.0126847

>  <SCORE.INTRA.DIHEDRAL>
0.00101961

>  <SCORE.INTRA.DIHEDRAL.0>
2.40424

>  <SCORE.INTRA.POLAR>
0

>  <SCORE.INTRA.POLAR.0>
0

>  <SCORE.INTRA.REPUL>
0

>  <SCORE.INTRA.REPUL.0>
0

>  <SCORE.INTRA.SOLV>
0.00144554

>  <SCORE.INTRA.SOLV.lig_0>
-134.169

>  <SCORE.INTRA.VDW>
-0.0139173

>  <SCORE.INTRA.VDW.0>
-2.18386

>  <SCORE.INTRA.norm>
-0.000275755

>  <SCORE.RESTR>
0

>  <SCORE.RESTR.CAVITY>
0

>  <SCORE.RESTR.norm>
0

>  <SCORE.SYSTEM>
0

>  <SCORE.SYSTEM.CONST>
0

>  <SCORE.SYSTEM.DIHEDRAL>
0

>  <SCORE.SYSTEM.SOLV>
0

>  <SCORE.SYSTEM.norm>
0

>  <SCORE.heavy>
46

>  <SCORE.norm>
-0.882459

>  <RMSD>
0.155

$$$$
ligand
 OpenBabel02271912143D
libRbt.so/2013.1/901 2013/11/27
 46 52  0  0  0  0  0  0  0  0999 V2000
   -9.7396    4.9249   15.6301 P   0  0  1  0  0  0  0  0  0  0  0  0
   -5.2730    2.5559   18.6490 P   0  0  2  0  0  0  0  0  0  0  0  0
  -10.4891    3.7048   14.5854 O   0  5  0  0  0  0  0  0  0  0  0  0
  -10.6063    6.4811   15.5502 O   0  0  0  0  0  0  0  0  0  0  0  0
   -9.0962    5.0880   18.1958 C   0  0  0  0  0  0  0  0  0  0  0  0
   -9.7342    4.3659   17.1423 O   0  0  0  0  0  0  0  0  0  0  0  0
   -8.8288    4.1332   19.3438 C   0  0  1  0  0  0  0  0  0  0  0  0
  -10.0466    3.4658   19.7035 O   0  0  0  0  0  0  0  0  0  0  0  0
   -7.8478    3.0277   18.9890 C   0  0  1  0  0  0  0  0  0  0  0  0
   -6.5007    3.3892   19.2856 O   0  0  0  0  0  0  0  0  0  0  0  0
   -8.3227    1.8602   19.8360 C   0  0  1  0  0  0  0  0  0  0  0  0
   -7.6941    1.8980   21.1197 O   0  0  0  0  0  0  0  0  0  0  0  0
   -9.8123    2.0844   20.0191 C   0  0  2  0  0  0  0  0  0  0  0  0
   -5.9828    2.9107   13.5551 C   0  0  1  0  0  0  0  0  0  0  0  0
  -10.5761   -2.7285   17.9110 N   0  0  0  0  0  0  0  0  0  0  0  0
   -9.6477   -2.3293   18.8226 C   0  0  1  0  0  0  0  0  0  0  0  0
   -7.3945    3.3131   13.8749 C   0  0  2  0  0  0  0  0  0  0  0  0
   -8.7715   -3.2492   19.2880 N   0  0  0  0  0  0  0  0  0  0  0  0
   -7.8098    4.1953   12.8308 O   0  0  0  0  0  0  0  0  0  0  0  0
   -7.3010    4.0186   15.2133 C   0  0  2  0  0  0  0  0  0  0  0  0
   -9.5651   -1.0445   19.2799 N   0  0  0  0  0  0  0  0  0  0  0  0
   -8.1819    5.1314   15.2837 O   0  0  0  0  0  0  0  0  0  0  0  0
  -10.4215   -0.0855   18.8458 C   0  0  2  0  0  0  0  0  0  0  0  0
   -5.8624    4.4879   15.3061 C   0  0  2  0  0  0  0  0  0  0  0  0
   -5.1215    3.6588   14.4123 O   0  0  0  0  0  0  0  0  0  0  0  0
  -11.4446   -0.4642   17.8557 C   0  0  1  0  0  0  0  0  0  0  0  0
   -5.2876    4.3605   16.7124 C   0  0  0  0  0  0  0  0  0  0  0  0
   -5.2944    2.9842   17.0970 O   0  0  0  0  0  0  0  0  0  0  0  0
  -11.4840   -1.8654   17.4007 C   0  0  0  0  0  0  0  0  0  0  0  0
  -12.4041   -2.2713   16.4892 O   0  0  0  0  0  0  0  0  0  0  0  0
  -12.1510    0.6390   17.5852 N   0  0  0  0  0  0  0  0  0  0  0  0
  -11.6279    1.6510   18.3373 C   0  0  0  0  0  0  0  0  0  0  0  0
  -10.5935    1.2238   19.0917 N   0  0  1  0  0  0  0  0  0  0  0  0
   -7.3599   -1.8490   11.8765 N   0  0  0  0  0  0  0  0  0  0  0  0
   -5.5212    0.7978   18.8168 O   0  5  0  0  0  0  0  0  0  0  0  0
   -7.7520   -0.6224   11.4353 C   0  0  2  0  0  0  0  0  0  0  0  0
   -8.6286   -0.5385   10.4006 N   0  0  0  0  0  0  0  0  0  0  0  0
   -3.6951    2.9979   19.3293 O   0  0  0  0  0  0  0  0  0  0  0  0
   -7.2921    0.5280   11.9986 N   0  0  0  0  0  0  0  0  0  0  0  0
   -6.4126    0.5091   13.0274 C   0  0  2  0  0  0  0  0  0  0  0  0
   -5.9546   -0.7852   13.5495 C   0  0  2  0  0  0  0  0  0  0  0  0
   -6.4936   -1.9996   12.9007 C   0  0  0  0  0  0  0  0  0  0  0  0
   -6.1308   -3.2384   13.3157 O   0  0  0  0  0  0  0  0  0  0  0  0
   -5.1072   -0.5142   14.5618 N   0  0  0  0  0  0  0  0  0  0  0  0
   -5.0266    0.8451   14.6749 C   0  0  0  0  0  0  0  0  0  0  0  0
   -5.8117    1.4517   13.7559 N   0  0  1  0  0  0  0  0  0  0  0  0
  1  3  1  6  0  0  0
  1  4  2  0  0  0  0
  1  6  1  0  0  0  0
  1 22  1  0  0  0  0
  2 28  1  0  0  0  0
  2 35  1  1  0  0  0
  2 38  2  0  0  0  0
  2 10  1  0  0  0  0
  5  6  1  0  0  0  0
  7  5  1  6  0  0  0
  7  8  1  0  0  0  0
  7  9  1  0  0  0  0
  9 10  1  1  0  0  0
  9 11  1  0  0  0  0
 11 12  1  1  0  0  0
 11 13  1  0  0  0  0
 13  8  1  6  0  0  0
 13 33  1  0  0  0  0
 14 46  1  0  0  0  0
 14 17  1  0  0  0  0
 14 25  1  1  0  0  0
 15 16  1  0  0  0  0
 15 29  1  0  0  0  0
 16 18  1  6  0  0  0
 16 21  1  0  0  0  0
 17 19  1  6  0  0  0
 17 20  1  0  0  0  0
 20 22  1  6  0  0  0
 20 24  1  0  0  0  0
 23 21  1  6  0  0  0
 23 26  1  0  0  0  0
 23 33  1  0  0  0  0
 24 25  1  6  0  0  0
 24 27  1  0  0  0  0
 26 29  1  1  0  0  0
 26 31  1  0  0  0  0
 27 28  1  0  0  0  0
 29 30  2  0  0  0  0
 31 32  1  0  0  0  0
 33 32  1  1  0  0  0
 34 36  1  0  0  0  0
 34 42  1  0  0  0  0
 36 37  1  6  0  0  0
 36 39  1  0  0  0  0
 40 39  1  1  0  0  0
 40 41  1  0  0  0  0
 40 46  1  0  0  0  0
 41 42  1  1  0  0  0
 41 44  1  0  0  0  0
 42 43  2  0  0  0  0
 44 45  1  0  0  0  0
 46 45  1  6  0  0  0
M  CHG  2   3  -1  35  -1
M  END
>  <CHROM.1>
163.15391206,66.08387217,-8.03720015,1.70207402,16.43538984,-2.25821904,-0.98819880
-2.48706414

>  <Name>
ligand

>  <RI>
416

>  <Rbt.Current_Directory>
/home/itssahil/PROJECTS/Mol_Feturizer/Test_systems_manuscript/rnas/3mum

>  <Rbt.Executable>
rbdock ($Id: //depot/dev/client3/rdock/2013.1/src/exe/rbdock.cxx#4 $)

>  <Rbt.Library>
libRbt.so (2013.1, Build901 2013/11/27)

>  <Rbt.Parameter_File>
/export/apps/rDock/src/rDock_2013.1_src/data/scripts/dock_solv.prm

>  <Rbt.Receptor>
prm/pocket_docking_2.prm

>  <SCORE>
-40.5158

>  <SCORE.INTER>
-40.5021

>  <SCORE.INTER.CONST>
1

>  <SCORE.INTER.POLAR>
0

>  <SCORE.INTER.ROT>
2

>  <SCORE.INTER.SOLV>
38.5128

>  <SCORE.INTER.VDW>
-44.7723

>  <SCORE.INTER.norm>
-0.88048

>  <SCORE.INTRA>
-0.0137703

>  <SCORE.INTRA.DIHEDRAL>
0.00099251

>  <SCORE.INTRA.DIHEDRAL.0>
2.40424

>  <SCORE.INTRA.POLAR>
0

>  <SCORE.INTRA.POLAR.0>
0

>  <SCORE.INTRA.REPUL>
0

>  <SCORE.INTRA.REPUL.0>
0

>  <SCORE.INTRA.SOLV>
0.00140656

>  <SCORE.INTRA.SOLV.lig_0>
-134.169

>  <SCORE.INTRA.VDW>
-0.0149698

>  <SCORE.INTRA.VDW.0>
-2.18386

>  <SCORE.INTRA.norm>
-0.000299354

>  <SCORE.RESTR>
0

>  <SCORE.RESTR.CAVITY>
0

>  <SCORE.RESTR.norm>
0

>  <SCORE.SYSTEM>
0

>  <SCORE.SYSTEM.CONST>
0

>  <SCORE.SYSTEM.DIHEDRAL>
0

>  <SCORE.SYSTEM.SOLV>
0

>  <SCORE.SYSTEM.norm>
0

>  <SCORE.heavy>
46

>  <SCORE.norm>
-0.880779

>  <RMSD>
0.157

$$$$
ligand
 OpenBabel02271912143D
libRbt.so/2013.1/901 2013/11/27
 46 52  0  0  0  0  0  0  0  0999 V2000
   -9.7279    4.9228   15.6496 P   0  0  1  0  0  0  0  0  0  0  0  0
   -5.2575    2.5494   18.6594 P   0  0  2  0  0  0  0  0  0  0  0  0
  -10.4771    3.7049   14.6022 O   0  5  0  0  0  0  0  0  0  0  0  0
  -10.5959    6.4785   15.5744 O   0  0  0  0  0  0  0  0  0  0  0  0
   -9.0830    5.0796   18.2153 C   0  0  0  0  0  0  0  0  0  0  0  0
   -9.7212    4.3598   17.1603 O   0  0  0  0  0  0  0  0  0  0  0  0
   -8.8141    4.1221   19.3606 C   0  0  1  0  0  0  0  0  0  0  0  0
  -10.0312    3.4528   19.7193 O   0  0  0  0  0  0  0  0  0  0  0  0
   -7.8324    3.0183   19.0023 C   0  0  1  0  0  0  0  0  0  0  0  0
   -6.4855    3.3800   19.2989 O   0  0  0  0  0  0  0  0  0  0  0  0
   -8.3059    1.8482   19.8465 C   0  0  1  0  0  0  0  0  0  0  0  0
   -7.6765    1.8831   21.1299 O   0  0  0  0  0  0  0  0  0  0  0  0
   -9.7955    2.0708   20.0312 C   0  0  2  0  0  0  0  0  0  0  0  0
   -5.9708    2.9170   13.5669 C   0  0  1  0  0  0  0  0  0  0  0  0
  -10.5532   -2.7359   17.9065 N   0  0  0  0  0  0  0  0  0  0  0  0
   -9.6240   -2.3381   18.8178 C   0  0  1  0  0  0  0  0  0  0  0  0
   -7.3827    3.3175   13.8887 C   0  0  2  0  0  0  0  0  0  0  0  0
   -8.7450   -3.2579   19.2782 N   0  0  0  0  0  0  0  0  0  0  0  0
   -7.7994    4.2021   12.8471 O   0  0  0  0  0  0  0  0  0  0  0  0
   -7.2889    4.0195   15.2289 C   0  0  2  0  0  0  0  0  0  0  0  0
   -9.5432   -1.0549   19.2798 N   0  0  0  0  0  0  0  0  0  0  0  0
   -8.1707    5.1315   15.3027 O   0  0  0  0  0  0  0  0  0  0  0  0
  -10.4024   -0.0961   18.8509 C   0  0  2  0  0  0  0  0  0  0  0  0
   -5.8506    4.4897   15.3219 C   0  0  2  0  0  0  0  0  0  0  0  0
   -5.1096    3.6636   14.4255 O   0  0  0  0  0  0  0  0  0  0  0  0
  -11.4265   -0.4732   17.8612 C   0  0  1  0  0  0  0  0  0  0  0  0
   -5.2748    4.3591   16.7276 C   0  0  0  0  0  0  0  0  0  0  0  0
   -5.2803    2.9818   17.1085 O   0  0  0  0  0  0  0  0  0  0  0  0
  -11.4639   -1.8728   17.4011 C   0  0  0  0  0  0  0  0  0  0  0  0
  -12.3848   -2.2772   16.4898 O   0  0  0  0  0  0  0  0  0  0  0  0
  -12.1357    0.6294   17.5962 N   0  0  0  0  0  0  0  0  0  0  0  0
  -11.6133    1.6398   18.3511 C   0  0  0  0  0  0  0  0  0  0  0  0
  -10.5767    1.2119   19.1020 N   0  0  1  0  0  0  0  0  0  0  0  0
   -7.3967   -1.8394   11.9202 N   0  0  0  0  0  0  0  0  0  0  0  0
   -5.5042    0.7906   18.8227 O   0  5  0  0  0  0  0  0  0  0  0  0
   -7.7960   -0.6120   11.4881 C   0  0  2  0  0  0  0  0  0  0  0  0
   -8.6959   -0.5261   10.4737 N   0  0  0  0  0  0  0  0  0  0  0  0
   -3.6795    2.9909   19.3398 O   0  0  0  0  0  0  0  0  0  0  0  0
   -7.3208    0.5373   12.0408 N   0  0  0  0  0  0  0  0  0  0  0  0
   -6.4181    0.5164   13.0492 C   0  0  2  0  0  0  0  0  0  0  0  0
   -5.9511   -0.7789   13.5607 C   0  0  2  0  0  0  0  0  0  0  0  0
   -6.5075   -1.9920   12.9244 C   0  0  0  0  0  0  0  0  0  0  0  0
   -6.1381   -3.2317   13.3310 O   0  0  0  0  0  0  0  0  0  0  0  0
   -5.0801   -0.5098   14.5533 N   0  0  0  0  0  0  0  0  0  0  0  0
   -4.9939    0.8493   14.6645 C   0  0  0  0  0  0  0  0  0  0  0  0
   -5.7985    1.4577   13.7638 N   0  0  1  0  0  0  0  0  0  0  0  0
  1  3  1  6  0  0  0
  1  4  2  0  0  0  0
  1  6  1  0  0  0  0
  1 22  1  0  0  0  0
  2 28  1  0  0  0  0
  2 35  1  1  0  0  0
  2 38  2  0  0  0  0
  2 10  1  0  0  0  0
  5  6  1  0  0  0  0
  7  5  1  6  0  0  0
  7  8  1  0  0  0  0
  7  9  1  0  0  0  0
  9 10  1  1  0  0  0
  9 11  1  0  0  0  0
 11 12  1  1  0  0  0
 11 13  1  0  0  0  0
 13  8  1  6  0  0  0
 13 33  1  0  0  0  0
 14 46  1  0  0  0  0
 14 17  1  0  0  0  0
 14 25  1  1  0  0  0
 15 16  1  0  0  0  0
 15 29  1  0  0  0  0
 16 18  1  6  0  0  0
 16 21  1  0  0  0  0
 17 19  1  6  0  0  0
 17 20  1  0  0  0  0
 20 22  1  6  0  0  0
 20 24  1  0  0  0  0
 23 21  1  6  0  0  0
 23 26  1  0  0  0  0
 23 33  1  0  0  0  0
 24 25  1  6  0  0  0
 24 27  1  0  0  0  0
 26 29  1  1  0  0  0
 26 31  1  0  0  0  0
 27 28  1  0  0  0  0
 29 30  2  0  0  0  0
 31 32  1  0  0  0  0
 33 32  1  1  0  0  0
 34 36  1  0  0  0  0
 34 42  1  0  0  0  0
 36 37  1  6  0  0  0
 36 39  1  0  0  0  0
 40 39  1  1  0  0  0
 40 41  1  0  0  0  0
 40 46  1  0  0  0  0
 41 42  1  1  0  0  0
 41 44  1  0  0  0  0
 42 43  2  0  0  0  0
 44 45  1  0  0  0  0
 46 45  1  6  0  0  0
M  CHG  2   3  -1  35  -1
M  END
>  <CHROM.1>
163.03392172,64.78938354,-8.02770845,1.69934056,16.44958815,-2.24658087,-0.98826279
-2.47899559

>  <Name>
ligand

>  <RI>
416

>  <Rbt.Current_Directory>
/home/itssahil/PROJECTS/Mol_Feturizer/Test_systems_manuscript/rnas/3mum

>  <Rbt.Executable>
rbdock ($Id: //depot/dev/client3/rdock/2013.1/src/exe/rbdock.cxx#4 $)

>  <Rbt.Library>
libRbt.so (2013.1, Build901 2013/11/27)

>  <Rbt.Parameter_File>
/export/apps/rDock/src/rDock_2013.1_src/data/scripts/dock_solv.prm

>  <Rbt.Receptor>
prm/pocket_docking_3.prm

>  <SCORE>
-40.5148

>  <SCORE.INTER>
-40.5152

>  <SCORE.INTER.CONST>
1

>  <SCORE.INTER.POLAR>
0

>  <SCORE.INTER.ROT>
2

>  <SCORE.INTER.SOLV>
38.5329

>  <SCORE.INTER.VDW>
-44.7878

>  <SCORE.INTER.norm>
-0.880766

>  <SCORE.INTRA>
0.000438317

>  <SCORE.INTRA.DIHEDRAL>
-0.000826674

>  <SCORE.INTRA.DIHEDRAL.0>
2.40424

>  <SCORE.INTRA.POLAR>
0

>  <SCORE.INTRA.POLAR.0>
0

>  <SCORE.INTRA.REPUL>
0

>  <SCORE.INTRA.REPUL.0>
0

>  <SCORE.INTRA.SOLV>
0.00324042

>  <SCORE.INTRA.SOLV.lig_0>
-134.169

>  <SCORE.INTRA.VDW>
-0.000768557

>  <SCORE.INTRA.VDW.0>
-2.18386

>  <SCORE.INTRA.norm>
9.52863e-06

>  <SCORE.RESTR>
0

>  <SCORE.RESTR.CAVITY>
0

>  <SCORE.RESTR.norm>
0

>  <SCORE.SYSTEM>
0

>  <SCORE.SYSTEM.CONST>
0

>  <SCORE.SYSTEM.DIHEDRAL>
0

>  <SCORE.SYSTEM.SOLV>
0

>  <SCORE.SYSTEM.norm>
0

>  <SCORE.heavy>
46

>  <SCORE.norm>
-0.880756

>  <RMSD>
0.157

$$$$
ligand
 OpenBabel02271912143D
libRbt.so/2013.1/901 2013/11/27
 46 52  0  0  0  0  0  0  0  0999 V2000
   -9.7709    4.9313   15.6308 P   0  0  1  0  0  0  0  0  0  0  0  0
   -5.2890    2.5856   18.6452 P   0  0  2  0  0  0  0  0  0  0  0  0
  -10.5157    3.7071   14.5876 O   0  5  0  0  0  0  0  0  0  0  0  0
  -10.6452    6.4833   15.5512 O   0  0  0  0  0  0  0  0  0  0  0  0
   -9.1250    5.0989   18.1956 C   0  0  0  0  0  0  0  0  0  0  0  0
   -9.7609    4.3731   17.1432 O   0  0  0  0  0  0  0  0  0  0  0  0
   -8.8515    4.1460   19.3436 C   0  0  1  0  0  0  0  0  0  0  0  0
  -10.0656    3.4729   19.7052 O   0  0  0  0  0  0  0  0  0  0  0  0
   -7.8656    3.0451   18.9882 C   0  0  1  0  0  0  0  0  0  0  0  0
   -6.5199    3.4133   19.2829 O   0  0  0  0  0  0  0  0  0  0  0  0
   -8.3338    1.8758   19.8364 C   0  0  1  0  0  0  0  0  0  0  0  0
   -7.7037    1.9172   21.1193 O   0  0  0  0  0  0  0  0  0  0  0  0
   -9.8241    2.0928   20.0213 C   0  0  2  0  0  0  0  0  0  0  0  0
   -6.0069    2.9343   13.5520 C   0  0  1  0  0  0  0  0  0  0  0  0
  -10.5595   -2.7220   17.9073 N   0  0  0  0  0  0  0  0  0  0  0  0
   -9.6306   -2.3173   18.8161 C   0  0  1  0  0  0  0  0  0  0  0  0
   -7.4202    3.3301   13.8734 C   0  0  2  0  0  0  0  0  0  0  0  0
   -8.7456   -3.2314   19.2765 N   0  0  0  0  0  0  0  0  0  0  0  0
   -7.8411    4.2097   12.8293 O   0  0  0  0  0  0  0  0  0  0  0  0
   -7.3285    4.0367   15.2113 C   0  0  2  0  0  0  0  0  0  0  0  0
   -9.5560   -1.0328   19.2754 N   0  0  0  0  0  0  0  0  0  0  0  0
   -8.2147    5.1453   15.2822 O   0  0  0  0  0  0  0  0  0  0  0  0
  -10.4214   -0.0796   18.8463 C   0  0  2  0  0  0  0  0  0  0  0  0
   -5.8920    4.5130   15.3020 C   0  0  2  0  0  0  0  0  0  0  0  0
   -5.1482    3.6871   14.4076 O   0  0  0  0  0  0  0  0  0  0  0  0
  -11.4453   -0.4643   17.8595 C   0  0  1  0  0  0  0  0  0  0  0  0
   -5.3148    4.3891   16.7077 C   0  0  0  0  0  0  0  0  0  0  0  0
   -5.3145    3.0130   17.0930 O   0  0  0  0  0  0  0  0  0  0  0  0
  -11.4758   -1.8650   17.4021 C   0  0  0  0  0  0  0  0  0  0  0  0
  -12.3963   -2.2762   16.4934 O   0  0  0  0  0  0  0  0  0  0  0  0
  -12.1611    0.6340   17.5937 N   0  0  0  0  0  0  0  0  0  0  0  0
  -11.6429    1.6486   18.3456 C   0  0  0  0  0  0  0  0  0  0  0  0
  -10.6024    1.2279   19.0953 N   0  0  1  0  0  0  0  0  0  0  0  0
   -7.3697   -1.8329   11.8831 N   0  0  0  0  0  0  0  0  0  0  0  0
   -5.5284    0.8264   18.8141 O   0  5  0  0  0  0  0  0  0  0  0  0
   -7.7691   -0.6084   11.4424 C   0  0  2  0  0  0  0  0  0  0  0  0
   -8.6503   -0.5294   10.4113 N   0  0  0  0  0  0  0  0  0  0  0  0
   -3.7124    3.0357   19.3232 O   0  0  0  0  0  0  0  0  0  0  0  0
   -7.3120    0.5445   12.0029 N   0  0  0  0  0  0  0  0  0  0  0  0
   -6.4282    0.5304   13.0281 C   0  0  2  0  0  0  0  0  0  0  0  0
   -5.9622   -0.7614   13.5494 C   0  0  2  0  0  0  0  0  0  0  0  0
   -6.4985   -1.9787   12.9039 C   0  0  0  0  0  0  0  0  0  0  0  0
   -6.1284   -3.2156   13.3184 O   0  0  0  0  0  0  0  0  0  0  0  0
   -5.1119   -0.4857   14.5580 N   0  0  0  0  0  0  0  0  0  0  0  0
   -5.0369    0.8740   14.6695 C   0  0  0  0  0  0  0  0  0  0  0  0
   -5.8285    1.4763   13.7533 N   0  0  1  0  0  0  0  0  0  0  0  0
  1  3  1  6  0  0  0
  1  4  2  0  0  0  0
  1  6  1  0  0  0  0
  1 22  1  0  0  0  0
  2 28  1  0  0  0  0
  2 35  1  1  0  0  0
  2 38  2  0  0  0  0
  2 10  1  0  0  0  0
  5  6  1  0  0  0  0
  7  5  1  6  0  0  0
  7  8  1  0  0  0  0
  7  9  1  0  0  0  0
  9 10  1  1  0  0  0
  9 11  1  0  0  0  0
 11 12  1  1  0  0  0
 11 13  1  0  0  0  0
 13  8  1  6  0  0  0
 13 33  1  0  0  0  0
 14 46  1  0  0  0  0
 14 17  1  0  0  0  0
 14 25  1  1  0  0  0
 15 16  1  0  0  0  0
 15 29  1  0  0  0  0
 16 18  1  6  0  0  0
 16 21  1  0  0  0  0
 17 19  1  6  0  0  0
 17 20  1  0  0  0  0
 20 22  1  6  0  0  0
 20 24  1  0  0  0  0
 23 21  1  6  0  0  0
 23 26  1  0  0  0  0
 23 33  1  0  0  0  0
 24 25  1  6  0  0  0
 24 27  1  0  0  0  0
 26 29  1  1  0  0  0
 26 31  1  0  0  0  0
 27 28  1  0  0  0  0
 29 30  2  0  0  0  0
 31 32  1  0  0  0  0
 33 32  1  1  0  0  0
 34 36  1  0  0  0  0
 34 42  1  0  0  0  0
 36 37  1  6  0  0  0
 36 39  1  0  0  0  0
 40 39  1  1  0  0  0
 40 41  1  0  0  0  0
 40 46  1  0  0  0  0
 41 42  1  1  0  0  0
 41 44  1  0  0  0  0
 42 43  2  0  0  0  0
 44 45  1  0  0  0  0
 46 45  1  6  0  0  0
M  CHG  2   3  -1  35  -1
M  END
>  <CHROM.1>
162.89975217,65.91830970,-8.05168887,1.71754742,16.43508703,-2.25758178,-0.99194424
-2.49184807

>  <Name>
ligand

>  <RI>
-1

>  <Rbt.Current_Directory>
/home/itssahil/PROJECTS/Mol_Feturizer/Test_systems_manuscript/rnas/3mum

>  <Rbt.Executable>
rbdock ($Id: //depot/dev/client3/rdock/2013.1/src/exe/rbdock.cxx#4 $)

>  <Rbt.Library>
libRbt.so (2013.1, Build901 2013/11/27)

>  <Rbt.Parameter_File>
/export/apps/rDock/src/rDock_2013.1_src/data/scripts/dock_solv.prm

>  <Rbt.Receptor>
prm/pocket_docking_4.prm

>  <SCORE>
-40.568

>  <SCORE.INTER>
-40.5579

>  <SCORE.INTER.CONST>
1

>  <SCORE.INTER.POLAR>
0

>  <SCORE.INTER.ROT>
2

>  <SCORE.INTER.SOLV>
38.5013

>  <SCORE.INTER.VDW>
-44.8057

>  <SCORE.INTER.norm>
-0.881693

>  <SCORE.INTRA>
-0.0101403

>  <SCORE.INTRA.DIHEDRAL>
0.000733345

>  <SCORE.INTRA.DIHEDRAL.0>
2.40424

>  <SCORE.INTRA.POLAR>
0

>  <SCORE.INTRA.POLAR.0>
0

>  <SCORE.INTRA.REPUL>
0

>  <SCORE.INTRA.REPUL.0>
0

>  <SCORE.INTRA.SOLV>
0.0017567

>  <SCORE.INTRA.SOLV.lig_0>
-134.169

>  <SCORE.INTRA.VDW>
-0.0113854

>  <SCORE.INTRA.VDW.0>
-2.18386

>  <SCORE.INTRA.norm>
-0.000220442

>  <SCORE.RESTR>
0

>  <SCORE.RESTR.CAVITY>
0

>  <SCORE.RESTR.norm>
0

>  <SCORE.SYSTEM>
0

>  <SCORE.SYSTEM.CONST>
0

>  <SCORE.SYSTEM.DIHEDRAL>
0

>  <SCORE.SYSTEM.SOLV>
0

>  <SCORE.SYSTEM.norm>
0

>  <SCORE.heavy>
46

>  <SCORE.norm>
-0.881914

>  <RMSD>
0.157

$$$$
ligand
 OpenBabel02271912143D
libRbt.so/2013.1/901 2013/11/27
 46 52  0  0  0  0  0  0  0  0999 V2000
   -9.7893    4.8934   15.6182 P   0  0  1  0  0  0  0  0  0  0  0  0
   -5.3098    2.5708   18.6540 P   0  0  2  0  0  0  0  0  0  0  0  0
  -10.5231    3.6652   14.5718 O   0  5  0  0  0  0  0  0  0  0  0  0
  -10.6711    6.4409   15.5342 O   0  0  0  0  0  0  0  0  0  0  0  0
   -9.1563    5.0646   18.1860 C   0  0  0  0  0  0  0  0  0  0  0  0
   -9.7836    4.3355   17.1308 O   0  0  0  0  0  0  0  0  0  0  0  0
   -8.8833    4.1133   19.3355 C   0  0  1  0  0  0  0  0  0  0  0  0
  -10.0957    3.4342   19.6915 O   0  0  0  0  0  0  0  0  0  0  0  0
   -7.8902    3.0173   18.9849 C   0  0  1  0  0  0  0  0  0  0  0  0
   -6.5479    3.3923   19.2858 O   0  0  0  0  0  0  0  0  0  0  0  0
   -8.3565    1.8458   19.8311 C   0  0  1  0  0  0  0  0  0  0  0  0
   -7.7327    1.8907   21.1169 O   0  0  0  0  0  0  0  0  0  0  0  0
   -9.8488    2.0554   20.0090 C   0  0  2  0  0  0  0  0  0  0  0  0
   -6.0057    2.9150   13.5574 C   0  0  1  0  0  0  0  0  0  0  0  0
  -10.5680   -2.7700   17.9134 N   0  0  0  0  0  0  0  0  0  0  0  0
   -9.6483   -2.3615   18.8298 C   0  0  1  0  0  0  0  0  0  0  0  0
   -7.4224    3.3037   13.8722 C   0  0  2  0  0  0  0  0  0  0  0  0
   -8.7694   -3.2741   19.3044 N   0  0  0  0  0  0  0  0  0  0  0  0
   -7.8428    4.1810   12.8260 O   0  0  0  0  0  0  0  0  0  0  0  0
   -7.3405    4.0110   15.2104 C   0  0  2  0  0  0  0  0  0  0  0  0
   -9.5768   -1.0745   19.2829 N   0  0  0  0  0  0  0  0  0  0  0  0
   -8.2326    5.1151   15.2769 O   0  0  0  0  0  0  0  0  0  0  0  0
  -10.4364   -0.1226   18.8396 C   0  0  2  0  0  0  0  0  0  0  0  0
   -5.9069    4.4945   15.3077 C   0  0  2  0  0  0  0  0  0  0  0  0
   -5.1548    3.6722   14.4170 O   0  0  0  0  0  0  0  0  0  0  0  0
  -11.4504   -0.5114   17.8441 C   0  0  1  0  0  0  0  0  0  0  0  0
   -5.3357    4.3738   16.7160 C   0  0  0  0  0  0  0  0  0  0  0  0
   -5.3302    2.9978   17.1016 O   0  0  0  0  0  0  0  0  0  0  0  0
  -11.4779   -1.9145   17.3940 C   0  0  0  0  0  0  0  0  0  0  0  0
  -12.3892   -2.3296   16.4779 O   0  0  0  0  0  0  0  0  0  0  0  0
  -12.1620    0.5862   17.5648 N   0  0  0  0  0  0  0  0  0  0  0  0
  -11.6504    1.6043   18.3167 C   0  0  0  0  0  0  0  0  0  0  0  0
  -10.6184    1.1864   19.0795 N   0  0  1  0  0  0  0  0  0  0  0  0
   -7.3400   -1.8593   11.8859 N   0  0  0  0  0  0  0  0  0  0  0  0
   -5.5412    0.8104   18.8222 O   0  5  0  0  0  0  0  0  0  0  0  0
   -7.7439   -0.6370   11.4435 C   0  0  2  0  0  0  0  0  0  0  0  0
   -8.6221   -0.5626   10.4095 N   0  0  0  0  0  0  0  0  0  0  0  0
   -3.7387    3.0288   19.3393 O   0  0  0  0  0  0  0  0  0  0  0  0
   -7.2942    0.5183   12.0051 N   0  0  0  0  0  0  0  0  0  0  0  0
   -6.4137    0.5089   13.0331 C   0  0  2  0  0  0  0  0  0  0  0  0
   -5.9432   -0.7805   13.5563 C   0  0  2  0  0  0  0  0  0  0  0  0
   -6.4715   -2.0006   12.9096 C   0  0  0  0  0  0  0  0  0  0  0  0
   -6.0968   -3.2355   13.3257 O   0  0  0  0  0  0  0  0  0  0  0  0
   -5.0974   -0.5004   14.5676 N   0  0  0  0  0  0  0  0  0  0  0  0
   -5.0294    0.8598   14.6789 C   0  0  0  0  0  0  0  0  0  0  0  0
   -5.8209    1.4579   13.7599 N   0  0  1  0  0  0  0  0  0  0  0  0
  1  3  1  6  0  0  0
  1  4  2  0  0  0  0
  1  6  1  0  0  0  0
  1 22  1  0  0  0  0
  2 28  1  0  0  0  0
  2 35  1  1  0  0  0
  2 38  2  0  0  0  0
  2 10  1  0  0  0  0
  5  6  1  0  0  0  0
  7  5  1  6  0  0  0
  7  8  1  0  0  0  0
  7  9  1  0  0  0  0
  9 10  1  1  0  0  0
  9 11  1  0  0  0  0
 11 12  1  1  0  0  0
 11 13  1  0  0  0  0
 13  8  1  6  0  0  0
 13 33  1  0  0  0  0
 14 46  1  0  0  0  0
 14 17  1  0  0  0  0
 14 25  1  1  0  0  0
 15 16  1  0  0  0  0
 15 29  1  0  0  0  0
 16 18  1  6  0  0  0
 16 21  1  0  0  0  0
 17 19  1  6  0  0  0
 17 20  1  0  0  0  0
 20 22  1  6  0  0  0
 20 24  1  0  0  0  0
 23 21  1  6  0  0  0
 23 26  1  0  0  0  0
 23 33  1  0  0  0  0
 24 25  1  6  0  0  0
 24 27  1  0  0  0  0
 26 29  1  1  0  0  0
 26 31  1  0  0  0  0
 27 28  1  0  0  0  0
 29 30  2  0  0  0  0
 31 32  1  0  0  0  0
 33 32  1  1  0  0  0
 34 36  1  0  0  0  0
 34 42  1  0  0  0  0
 36 37  1  6  0  0  0
 36 39  1  0  0  0  0
 40 39  1  1  0  0  0
 40 41  1  0  0  0  0
 40 46  1  0  0  0  0
 41 42  1  1  0  0  0
 41 44  1  0  0  0  0
 42 43  2  0  0  0  0
 44 45  1  0  0  0  0
 46 45  1  6  0  0  0
M  CHG  2   3  -1  35  -1
M  END
>  <CHROM.1>
163.47674332,65.83434832,-8.06007298,1.68771887,16.43375514,-2.28092242,-0.99141537
-2.50126562

>  <Name>
ligand

>  <RI>
416

>  <Rbt.Current_Directory>
/home/itssahil/PROJECTS/Mol_Feturizer/Test_systems_manuscript/rnas/3mum

>  <Rbt.Executable>
rbdock ($Id: //depot/dev/client3/rdock/2013.1/src/exe/rbdock.cxx#4 $)

>  <Rbt.Library>
libRbt.so (2013.1, Build901 2013/11/27)

>  <Rbt.Parameter_File>
/export/apps/rDock/src/rDock_2013.1_src/data/scripts/dock_solv.prm

>  <Rbt.Receptor>
prm/pocket_docking_2.prm

>  <SCORE>
-40.4261

>  <SCORE.INTER>
-40.4123

>  <SCORE.INTER.CONST>
1

>  <SCORE.INTER.POLAR>
0

>  <SCORE.INTER.ROT>
2

>  <SCORE.INTER.SOLV>
38.7023

>  <SCORE.INTER.VDW>
-44.7757

>  <SCORE.INTER.norm>
-0.878529

>  <SCORE.INTRA>
-0.013745

>  <SCORE.INTRA.DIHEDRAL>
0.000686311

>  <SCORE.INTRA.DIHEDRAL.0>
2.40424

>  <SCORE.INTRA.POLAR>
0

>  <SCORE.INTRA.POLAR.0>
0

>  <SCORE.INTRA.REPUL>
0

>  <SCORE.INTRA.REPUL.0>
0

>  <SCORE.INTRA.SOLV>
0.00159876

>  <SCORE.INTRA.SOLV.lig_0>
-134.169

>  <SCORE.INTRA.VDW>
-0.0148876

>  <SCORE.INTRA.VDW.0>
-2.18386

>  <SCORE.INTRA.norm>
-0.000298805

>  <SCORE.RESTR>
0

>  <SCORE.RESTR.CAVITY>
0

>  <SCORE.RESTR.norm>
0

>  <SCORE.SYSTEM>
0

>  <SCORE.SYSTEM.CONST>
0

>  <SCORE.SYSTEM.DIHEDRAL>
0

>  <SCORE.SYSTEM.SOLV>
0

>  <SCORE.SYSTEM.norm>
0

>  <SCORE.heavy>
46

>  <SCORE.norm>
-0.878828

>  <RMSD>
0.158

$$$$
ligand
 OpenBabel02271912143D
libRbt.so/2013.1/901 2013/11/27
 46 52  0  0  0  0  0  0  0  0999 V2000
   -9.7922    4.8991   15.6325 P   0  0  1  0  0  0  0  0  0  0  0  0
   -5.2991    2.5820   18.6523 P   0  0  2  0  0  0  0  0  0  0  0  0
  -10.5326    3.6683   14.5939 O   0  5  0  0  0  0  0  0  0  0  0  0
  -10.6730    6.4472   15.5482 O   0  0  0  0  0  0  0  0  0  0  0  0
   -9.1456    5.0780   18.1964 C   0  0  0  0  0  0  0  0  0  0  0  0
   -9.7791    4.3461   17.1469 O   0  0  0  0  0  0  0  0  0  0  0  0
   -8.8676    4.1302   19.3475 C   0  0  1  0  0  0  0  0  0  0  0  0
  -10.0787    3.4533   19.7120 O   0  0  0  0  0  0  0  0  0  0  0  0
   -7.8774    3.0321   18.9952 C   0  0  1  0  0  0  0  0  0  0  0  0
   -6.5331    3.4067   19.2879 O   0  0  0  0  0  0  0  0  0  0  0  0
   -8.3403    1.8637   19.8476 C   0  0  1  0  0  0  0  0  0  0  0  0
   -7.7097    1.9121   21.1300 O   0  0  0  0  0  0  0  0  0  0  0  0
   -9.8315    2.0753   20.0326 C   0  0  2  0  0  0  0  0  0  0  0  0
   -6.0213    2.9105   13.5584 C   0  0  1  0  0  0  0  0  0  0  0  0
  -10.5438   -2.7480   17.9301 N   0  0  0  0  0  0  0  0  0  0  0  0
   -9.6154   -2.3362   18.8361 C   0  0  1  0  0  0  0  0  0  0  0  0
   -7.4360    3.3015   13.8792 C   0  0  2  0  0  0  0  0  0  0  0  0
   -8.7243   -3.2443   19.2966 N   0  0  0  0  0  0  0  0  0  0  0  0
   -7.8611    4.1759   12.8324 O   0  0  0  0  0  0  0  0  0  0  0  0
   -7.3464    4.0130   15.2147 C   0  0  2  0  0  0  0  0  0  0  0  0
   -9.5471   -1.0503   19.2927 N   0  0  0  0  0  0  0  0  0  0  0  0
   -8.2371    5.1182   15.2824 O   0  0  0  0  0  0  0  0  0  0  0  0
  -10.4188   -0.1029   18.8634 C   0  0  2  0  0  0  0  0  0  0  0  0
   -5.9119    4.4956   15.3030 C   0  0  2  0  0  0  0  0  0  0  0  0
   -5.1652    3.6696   14.4110 O   0  0  0  0  0  0  0  0  0  0  0  0
  -11.4425   -0.4954   17.8794 C   0  0  1  0  0  0  0  0  0  0  0  0
   -5.3334    4.3788   16.7087 C   0  0  0  0  0  0  0  0  0  0  0  0
   -5.3272    3.0040   17.0987 O   0  0  0  0  0  0  0  0  0  0  0  0
  -11.4660   -1.8972   17.4250 C   0  0  0  0  0  0  0  0  0  0  0  0
  -12.3860   -2.3155   16.5190 O   0  0  0  0  0  0  0  0  0  0  0  0
  -12.1651    0.5982   17.6129 N   0  0  0  0  0  0  0  0  0  0  0  0
  -11.6510    1.6174   18.3616 C   0  0  0  0  0  0  0  0  0  0  0  0
  -10.6067    1.2041   19.1100 N   0  0  1  0  0  0  0  0  0  0  0  0
   -7.3314   -1.8675   11.8782 N   0  0  0  0  0  0  0  0  0  0  0  0
   -5.5312    0.8224   18.8274 O   0  5  0  0  0  0  0  0  0  0  0  0
   -7.7320   -0.6462   11.4301 C   0  0  2  0  0  0  0  0  0  0  0  0
   -8.5992   -0.5742   10.3866 N   0  0  0  0  0  0  0  0  0  0  0  0
   -3.7240    3.0408   19.3279 O   0  0  0  0  0  0  0  0  0  0  0  0
   -7.2899    0.5103   11.9951 N   0  0  0  0  0  0  0  0  0  0  0  0
   -6.4205    0.5032   13.0325 C   0  0  2  0  0  0  0  0  0  0  0  0
   -5.9540   -0.7849   13.5624 C   0  0  2  0  0  0  0  0  0  0  0  0
   -6.4737   -2.0064   12.9114 C   0  0  0  0  0  0  0  0  0  0  0  0
   -6.1019   -3.2404   13.3330 O   0  0  0  0  0  0  0  0  0  0  0  0
   -5.1195   -0.5025   14.5823 N   0  0  0  0  0  0  0  0  0  0  0  0
   -5.0544    0.8579   14.6927 C   0  0  0  0  0  0  0  0  0  0  0  0
   -5.8368    1.4539   13.7645 N   0  0  1  0  0  0  0  0  0  0  0  0
  1  3  1  6  0  0  0
  1  4  2  0  0  0  0
  1  6  1  0  0  0  0
  1 22  1  0  0  0  0
  2 28  1  0  0  0  0
  2 35  1  1  0  0  0
  2 38  2  0  0  0  0
  2 10  1  0  0  0  0
  5  6  1  0  0  0  0
  7  5  1  6  0  0  0
  7  8  1  0  0  0  0
  7  9  1  0  0  0  0
  9 10  1  1  0  0  0
  9 11  1  0  0  0  0
 11 12  1  1  0  0  0
 11 13  1  0  0  0  0
 13  8  1  6  0  0  0
 13 33  1  0  0  0  0
 14 46  1  0  0  0  0
 14 17  1  0  0  0  0
 14 25  1  1  0  0  0
 15 16  1  0  0  0  0
 15 29  1  0  0  0  0
 16 18  1  6  0  0  0
 16 21  1  0  0  0  0
 17 19  1  6  0  0  0
 17 20  1  0  0  0  0
 20 22  1  6  0  0  0
 20 24  1  0  0  0  0
 23 21  1  6  0  0  0
 23 26  1  0  0  0  0
 23 33  1  0  0  0  0
 24 25  1  6  0  0  0
 24 27  1  0  0  0  0
 26 29  1  1  0  0  0
 26 31  1  0  0  0  0
 27 28  1  0  0  0  0
 29 30  2  0  0  0  0
 31 32  1  0  0  0  0
 33 32  1  1  0  0  0
 34 36  1  0  0  0  0
 34 42  1  0  0  0  0
 36 37  1  6  0  0  0
 36 39  1  0  0  0  0
 40 39  1  1  0  0  0
 40 41  1  0  0  0  0
 40 46  1  0  0  0  0
 41 42  1  1  0  0  0
 41 44  1  0  0  0  0
 42 43  2  0  0  0  0
 44 45  1  0  0  0  0
 46 45  1  6  0  0  0
M  CHG  2   3  -1  35  -1
M  END
>  <CHROM.1>
162.75518589,66.76685019,-8.05524636,1.69534955,16.44308567,-2.26690631,-0.99529614
-2.50405379

>  <Name>
ligand

>  <RI>
416

>  <Rbt.Current_Directory>
/home/itssahil/PROJECTS/Mol_Feturizer/Test_systems_manuscript/rnas/3mum

>  <Rbt.Executable>
rbdock ($Id: //depot/dev/client3/rdock/2013.1/src/exe/rbdock.cxx#4 $)

>  <Rbt.Library>
libRbt.so (2013.1, Build901 2013/11/27)

>  <Rbt.Parameter_File>
/export/apps/rDock/src/rDock_2013.1_src/data/scripts/dock_solv.prm

>  <Rbt.Receptor>
prm/pocket_docking_2.prm

>  <SCORE>
-40.4985

>  <SCORE.INTER>
-40.4811

>  <SCORE.INTER.CONST>
1

>  <SCORE.INTER.POLAR>
0

>  <SCORE.INTER.ROT>
2

>  <SCORE.INTER.SOLV>
38.5328

>  <SCORE.INTER.VDW>
-44.765

>  <SCORE.INTER.norm>
-0.880024

>  <SCORE.INTRA>
-0.0174202

>  <SCORE.INTRA.DIHEDRAL>
0.00188325

>  <SCORE.INTRA.DIHEDRAL.0>
2.40424

>  <SCORE.INTRA.POLAR>
0

>  <SCORE.INTRA.POLAR.0>
0

>  <SCORE.INTRA.REPUL>
0

>  <SCORE.INTRA.REPUL.0>
0

>  <SCORE.INTRA.SOLV>
0.000643061

>  <SCORE.INTRA.SOLV.lig_0>
-134.169

>  <SCORE.INTRA.VDW>
-0.0186834

>  <SCORE.INTRA.VDW.0>
-2.18386

>  <SCORE.INTRA.norm>
-0.0003787

>  <SCORE.RESTR>
0

>  <SCORE.RESTR.CAVITY>
0

>  <SCORE.RESTR.norm>
0

>  <SCORE.SYSTEM>
0

>  <SCORE.SYSTEM.CONST>
0

>  <SCORE.SYSTEM.DIHEDRAL>
0

>  <SCORE.SYSTEM.SOLV>
0

>  <SCORE.SYSTEM.norm>
0

>  <SCORE.heavy>
46

>  <SCORE.norm>
-0.880402

>  <RMSD>
0.159

$$$$
ligand
 OpenBabel02271912143D
libRbt.so/2013.1/901 2013/11/27
 46 52  0  0  0  0  0  0  0  0999 V2000
   -9.7916    4.8912   15.6221 P   0  0  1  0  0  0  0  0  0  0  0  0
   -5.2913    2.5994   18.6505 P   0  0  2  0  0  0  0  0  0  0  0  0
  -10.5256    3.6552   14.5851 O   0  5  0  0  0  0  0  0  0  0  0  0
  -10.6790    6.4352   15.5340 O   0  0  0  0  0  0  0  0  0  0  0  0
   -9.1482    5.0776   18.1862 C   0  0  0  0  0  0  0  0  0  0  0  0
   -9.7775    4.3410   17.1375 O   0  0  0  0  0  0  0  0  0  0  0  0
   -8.8671    4.1332   19.3394 C   0  0  1  0  0  0  0  0  0  0  0  0
  -10.0757    3.4517   19.7040 O   0  0  0  0  0  0  0  0  0  0  0  0
   -7.8718    3.0388   18.9901 C   0  0  1  0  0  0  0  0  0  0  0  0
   -6.5294    3.4199   19.2834 O   0  0  0  0  0  0  0  0  0  0  0  0
   -8.3304    1.8700   19.8443 C   0  0  1  0  0  0  0  0  0  0  0  0
   -7.7013    1.9235   21.1271 O   0  0  0  0  0  0  0  0  0  0  0  0
   -9.8227    2.0754   20.0274 C   0  0  2  0  0  0  0  0  0  0  0  0
   -6.0099    2.9153   13.5552 C   0  0  1  0  0  0  0  0  0  0  0  0
  -10.5086   -2.7537   17.9293 N   0  0  0  0  0  0  0  0  0  0  0  0
   -9.5824   -2.3359   18.8349 C   0  0  1  0  0  0  0  0  0  0  0  0
   -7.4266    3.3007   13.8741 C   0  0  2  0  0  0  0  0  0  0  0  0
   -8.6863   -3.2387   19.2961 N   0  0  0  0  0  0  0  0  0  0  0  0
   -7.8546    4.1713   12.8252 O   0  0  0  0  0  0  0  0  0  0  0  0
   -7.3415    4.0151   15.2083 C   0  0  2  0  0  0  0  0  0  0  0  0
   -9.5212   -1.0492   19.2903 N   0  0  0  0  0  0  0  0  0  0  0  0
   -8.2371    5.1165   15.2731 O   0  0  0  0  0  0  0  0  0  0  0  0
  -10.3981   -0.1071   18.8602 C   0  0  2  0  0  0  0  0  0  0  0  0
   -5.9092    4.5041   15.2970 C   0  0  2  0  0  0  0  0  0  0  0  0
   -5.1580    3.6798   14.4073 O   0  0  0  0  0  0  0  0  0  0  0  0
  -11.4197   -0.5061   17.8767 C   0  0  1  0  0  0  0  0  0  0  0  0
   -5.3316    4.3924   16.7035 C   0  0  0  0  0  0  0  0  0  0  0  0
   -5.3197    3.0184   17.0960 O   0  0  0  0  0  0  0  0  0  0  0  0
  -11.4356   -1.9084   17.4236 C   0  0  0  0  0  0  0  0  0  0  0  0
  -12.3533   -2.3326   16.5181 O   0  0  0  0  0  0  0  0  0  0  0  0
  -12.1483    0.5832   17.6092 N   0  0  0  0  0  0  0  0  0  0  0  0
  -11.6399    1.6059   18.3570 C   0  0  0  0  0  0  0  0  0  0  0  0
  -10.5931    1.1990   19.1057 N   0  0  1  0  0  0  0  0  0  0  0  0
   -7.4062   -1.8725   11.9752 N   0  0  0  0  0  0  0  0  0  0  0  0
   -5.5158    0.8391   18.8286 O   0  5  0  0  0  0  0  0  0  0  0  0
   -7.8244   -0.6537   11.5363 C   0  0  2  0  0  0  0  0  0  0  0  0
   -8.7385   -0.5877   10.5332 N   0  0  0  0  0  0  0  0  0  0  0  0
   -3.7188    3.0663   19.3268 O   0  0  0  0  0  0  0  0  0  0  0  0
   -7.3543    0.5061   12.0711 N   0  0  0  0  0  0  0  0  0  0  0  0
   -6.4381    0.5050   13.0675 C   0  0  2  0  0  0  0  0  0  0  0  0
   -5.9504   -0.7801   13.5856 C   0  0  2  0  0  0  0  0  0  0  0  0
   -6.5021   -2.0054   12.9689 C   0  0  0  0  0  0  0  0  0  0  0  0
   -6.1140   -3.2369   13.3828 O   0  0  0  0  0  0  0  0  0  0  0  0
   -5.0693   -0.4918   14.5638 N   0  0  0  0  0  0  0  0  0  0  0  0
   -4.9963    0.8693   14.6602 C   0  0  0  0  0  0  0  0  0  0  0  0
   -5.8193    1.4600   13.7643 N   0  0  1  0  0  0  0  0  0  0  0  0
  1  3  1  6  0  0  0
  1  4  2  0  0  0  0
  1  6  1  0  0  0  0
  1 22  1  0  0  0  0
  2 28  1  0  0  0  0
  2 35  1  1  0  0  0
  2 38  2  0  0  0  0
  2 10  1  0  0  0  0
  5  6  1  0  0  0  0
  7  5  1  6  0  0  0
  7  8  1  0  0  0  0
  7  9  1  0  0  0  0
  9 10  1  1  0  0  0
  9 11  1  0  0  0  0
 11 12  1  1  0  0  0
 11 13  1  0  0  0  0
 13  8  1  6  0  0  0
 13 33  1  0  0  0  0
 14 46  1  0  0  0  0
 14 17  1  0  0  0  0
 14 25  1  1  0  0  0
 15 16  1  0  0  0  0
 15 29  1  0  0  0  0
 16 18  1  6  0  0  0
 16 21  1  0  0  0  0
 17 19  1  6  0  0  0
 17 20  1  0  0  0  0
 20 22  1  6  0  0  0
 20 24  1  0  0  0  0
 23 21  1  6  0  0  0
 23 26  1  0  0  0  0
 23 33  1  0  0  0  0
 24 25  1  6  0  0  0
 24 27  1  0  0  0  0
 26 29  1  1  0  0  0
 26 31  1  0  0  0  0
 27 28  1  0  0  0  0
 29 30  2  0  0  0  0
 31 32  1  0  0  0  0
 33 32  1  1  0  0  0
 34 36  1  0  0  0  0
 34 42  1  0  0  0  0
 36 37  1  6  0  0  0
 36 39  1  0  0  0  0
 40 39  1  1  0  0  0
 40 41  1  0  0  0  0
 40 46  1  0  0  0  0
 41 42  1  1  0  0  0
 41 44  1  0  0  0  0
 42 43  2  0  0  0  0
 44 45  1  0  0  0  0
 46 45  1  6  0  0  0
M  CHG  2   3  -1  35  -1
M  END
>  <CHROM.1>
162.65073536,64.02547572,-8.05290817,1.69660957,16.44997936,-2.25073397,-0.99530355
-2.49961399

>  <Name>
ligand

>  <RI>
-1

>  <Rbt.Current_Directory>
/home/itssahil/PROJECTS/Mol_Feturizer/Test_systems_manuscript/rnas/3mum

>  <Rbt.Executable>
rbdock ($Id: //depot/dev/client3/rdock/2013.1/src/exe/rbdock.cxx#4 $)

>  <Rbt.Library>
libRbt.so (2013.1, Build901 2013/11/27)

>  <Rbt.Parameter_File>
/export/apps/rDock/src/rDock_2013.1_src/data/scripts/dock_solv.prm

>  <Rbt.Receptor>
prm/pocket_docking_5.prm

>  <SCORE>
-40.5138

>  <SCORE.INTER>
-40.525

>  <SCORE.INTER.CONST>
1

>  <SCORE.INTER.POLAR>
0

>  <SCORE.INTER.ROT>
2

>  <SCORE.INTER.SOLV>
38.6115

>  <SCORE.INTER.VDW>
-44.8205

>  <SCORE.INTER.norm>
-0.880979

>  <SCORE.INTRA>
0.0112119

>  <SCORE.INTRA.DIHEDRAL>
-0.00195072

>  <SCORE.INTRA.DIHEDRAL.0>
2.40424

>  <SCORE.INTRA.POLAR>
0

>  <SCORE.INTRA.POLAR.0>
0

>  <SCORE.INTRA.REPUL>
0

>  <SCORE.INTRA.REPUL.0>
0

>  <SCORE.INTRA.SOLV>
0.00445258

>  <SCORE.INTRA.SOLV.lig_0>
-134.169

>  <SCORE.INTRA.VDW>
0.00996101

>  <SCORE.INTRA.VDW.0>
-2.18386

>  <SCORE.INTRA.norm>
0.000243738

>  <SCORE.RESTR>
0

>  <SCORE.RESTR.CAVITY>
0

>  <SCORE.RESTR.norm>
0

>  <SCORE.SYSTEM>
0

>  <SCORE.SYSTEM.CONST>
0

>  <SCORE.SYSTEM.DIHEDRAL>
0

>  <SCORE.SYSTEM.SOLV>
0

>  <SCORE.SYSTEM.norm>
0

>  <SCORE.heavy>
46

>  <SCORE.norm>
-0.880735

>  <RMSD>
0.159

$$$$
ligand
 OpenBabel02271912143D
libRbt.so/2013.1/901 2013/11/27
 46 52  0  0  0  0  0  0  0  0999 V2000
   -9.7692    4.9326   15.6300 P   0  0  1  0  0  0  0  0  0  0  0  0
   -5.2903    2.5778   18.6418 P   0  0  2  0  0  0  0  0  0  0  0  0
  -10.5174    3.7098   14.5875 O   0  5  0  0  0  0  0  0  0  0  0  0
  -10.6403    6.4864   15.5508 O   0  0  0  0  0  0  0  0  0  0  0  0
   -9.1212    5.0991   18.1944 C   0  0  0  0  0  0  0  0  0  0  0  0
   -9.7594    4.3746   17.1426 O   0  0  0  0  0  0  0  0  0  0  0  0
   -8.8490    4.1459   19.3424 C   0  0  1  0  0  0  0  0  0  0  0  0
  -10.0643    3.4754   19.7049 O   0  0  0  0  0  0  0  0  0  0  0  0
   -7.8657    3.0428   18.9864 C   0  0  1  0  0  0  0  0  0  0  0  0
   -6.5191    3.4081   19.2802 O   0  0  0  0  0  0  0  0  0  0  0  0
   -8.3358    1.8746   19.8351 C   0  0  1  0  0  0  0  0  0  0  0  0
   -7.7048    1.9149   21.1176 O   0  0  0  0  0  0  0  0  0  0  0  0
   -9.8256    2.0948   20.0210 C   0  0  2  0  0  0  0  0  0  0  0  0
   -6.0109    2.9272   13.5490 C   0  0  1  0  0  0  0  0  0  0  0  0
  -10.5730   -2.7189   17.9087 N   0  0  0  0  0  0  0  0  0  0  0  0
   -9.6428   -2.3161   18.8169 C   0  0  1  0  0  0  0  0  0  0  0  0
   -7.4231    3.3261   13.8713 C   0  0  2  0  0  0  0  0  0  0  0  0
   -8.7597   -3.2321   19.2771 N   0  0  0  0  0  0  0  0  0  0  0  0
   -7.8428    4.2065   12.8274 O   0  0  0  0  0  0  0  0  0  0  0  0
   -7.3290    4.0327   15.2091 C   0  0  2  0  0  0  0  0  0  0  0  0
   -9.5650   -1.0316   19.2758 N   0  0  0  0  0  0  0  0  0  0  0  0
   -8.2128    5.1432   15.2804 O   0  0  0  0  0  0  0  0  0  0  0  0
  -10.4284   -0.0765   18.8469 C   0  0  2  0  0  0  0  0  0  0  0  0
   -5.8915    4.5060   15.2987 C   0  0  2  0  0  0  0  0  0  0  0  0
   -5.1500    3.6783   14.4040 O   0  0  0  0  0  0  0  0  0  0  0  0
  -11.4538   -0.4591   17.8607 C   0  0  1  0  0  0  0  0  0  0  0  0
   -5.3136    4.3810   16.7040 C   0  0  0  0  0  0  0  0  0  0  0  0
   -5.3159    3.0050   17.0895 O   0  0  0  0  0  0  0  0  0  0  0  0
  -11.4877   -1.8599   17.4037 C   0  0  0  0  0  0  0  0  0  0  0  0
  -12.4095   -2.2693   16.4956 O   0  0  0  0  0  0  0  0  0  0  0  0
  -12.1672    0.6406   17.5950 N   0  0  0  0  0  0  0  0  0  0  0  0
  -11.6462    1.6543   18.3464 C   0  0  0  0  0  0  0  0  0  0  0  0
  -10.6063    1.2314   19.0956 N   0  0  1  0  0  0  0  0  0  0  0  0
   -7.3761   -1.8372   11.8743 N   0  0  0  0  0  0  0  0  0  0  0  0
   -5.5334    0.8191   18.8112 O   0  5  0  0  0  0  0  0  0  0  0  0
   -7.7721   -0.6120   11.4328 C   0  0  2  0  0  0  0  0  0  0  0  0
   -8.6500   -0.5312   10.3990 N   0  0  0  0  0  0  0  0  0  0  0  0
   -3.7123    3.0245   19.3187 O   0  0  0  0  0  0  0  0  0  0  0  0
   -7.3150    0.5400   11.9951 N   0  0  0  0  0  0  0  0  0  0  0  0
   -6.4344    0.5242   13.0230 C   0  0  2  0  0  0  0  0  0  0  0  0
   -5.9721   -0.7685   13.5454 C   0  0  2  0  0  0  0  0  0  0  0  0
   -6.5084   -1.9848   12.8978 C   0  0  0  0  0  0  0  0  0  0  0  0
   -6.1416   -3.2223   13.3131 O   0  0  0  0  0  0  0  0  0  0  0  0
   -5.1245   -0.4946   14.5567 N   0  0  0  0  0  0  0  0  0  0  0  0
   -5.0477    0.8651   14.6689 C   0  0  0  0  0  0  0  0  0  0  0  0
   -5.8355    1.4689   13.7505 N   0  0  1  0  0  0  0  0  0  0  0  0
  1  3  1  6  0  0  0
  1  4  2  0  0  0  0
  1  6  1  0  0  0  0
  1 22  1  0  0  0  0
  2 28  1  0  0  0  0
  2 35  1  1  0  0  0
  2 38  2  0  0  0  0
  2 10  1  0  0  0  0
  5  6  1  0  0  0  0
  7  5  1  6  0  0  0
  7  8  1  0  0  0  0
  7  9  1  0  0  0  0
  9 10  1  1  0  0  0
  9 11  1  0  0  0  0
 11 12  1  1  0  0  0
 11 13  1  0  0  0  0
 13  8  1  6  0  0  0
 13 33  1  0  0  0  0
 14 46  1  0  0  0  0
 14 17  1  0  0  0  0
 14 25  1  1  0  0  0
 15 16  1  0  0  0  0
 15 29  1  0  0  0  0
 16 18  1  6  0  0  0
 16 21  1  0  0  0  0
 17 19  1  6  0  0  0
 17 20  1  0  0  0  0
 20 22  1  6  0  0  0
 20 24  1  0  0  0  0
 23 21  1  6  0  0  0
 23 26  1  0  0  0  0
 23 33  1  0  0  0  0
 24 25  1  6  0  0  0
 24 27  1  0  0  0  0
 26 29  1  1  0  0  0
 26 31  1  0  0  0  0
 27 28  1  0  0  0  0
 29 30  2  0  0  0  0
 31 32  1  0  0  0  0
 33 32  1  1  0  0  0
 34 36  1  0  0  0  0
 34 42  1  0  0  0  0
 36 37  1  6  0  0  0
 36 39  1  0  0  0  0
 40 39  1  1  0  0  0
 40 41  1  0  0  0  0
 40 46  1  0  0  0  0
 41 42  1  1  0  0  0
 41 44  1  0  0  0  0
 42 43  2  0  0  0  0
 44 45  1  0  0  0  0
 46 45  1  6  0  0  0
M  CHG  2   3  -1  35  -1
M  END
>  <CHROM.1>
162.91440692,66.13902883,-8.05541117,1.71524631,16.43290878,-2.25575002,-0.99132819
-2.48981356

>  <Name>
ligand

>  <RI>
-1

>  <Rbt.Current_Directory>
/home/itssahil/PROJECTS/Mol_Feturizer/Test_systems_manuscript/rnas/3mum

>  <Rbt.Executable>
rbdock ($Id: //depot/dev/client3/rdock/2013.1/src/exe/rbdock.cxx#4 $)

>  <Rbt.Library>
libRbt.so (2013.1, Build901 2013/11/27)

>  <Rbt.Parameter_File>
/export/apps/rDock/src/rDock_2013.1_src/data/scripts/dock_solv.prm

>  <Rbt.Receptor>
prm/pocket_docking_4.prm

>  <SCORE>
-40.6116

>  <SCORE.INTER>
-40.5992

>  <SCORE.INTER.CONST>
1

>  <SCORE.INTER.POLAR>
0

>  <SCORE.INTER.ROT>
2

>  <SCORE.INTER.SOLV>
38.5377

>  <SCORE.INTER.VDW>
-44.8453

>  <SCORE.INTER.norm>
-0.88259

>  <SCORE.INTRA>
-0.012467

>  <SCORE.INTRA.DIHEDRAL>
0.00104017

>  <SCORE.INTRA.DIHEDRAL.0>
2.40424

>  <SCORE.INTRA.POLAR>
0

>  <SCORE.INTRA.POLAR.0>
0

>  <SCORE.INTRA.REPUL>
0

>  <SCORE.INTRA.REPUL.0>
0

>  <SCORE.INTRA.SOLV>
0.00144377

>  <SCORE.INTRA.SOLV.lig_0>
-134.169

>  <SCORE.INTRA.VDW>
-0.013709

>  <SCORE.INTRA.VDW.0>
-2.18386

>  <SCORE.INTRA.norm>
-0.000271022

>  <SCORE.RESTR>
0

>  <SCORE.RESTR.CAVITY>
0

>  <SCORE.RESTR.norm>
0

>  <SCORE.SYSTEM>
0

>  <SCORE.SYSTEM.CONST>
0

>  <SCORE.SYSTEM.DIHEDRAL>
0

>  <SCORE.SYSTEM.SOLV>
0

>  <SCORE.SYSTEM.norm>
0

>  <SCORE.heavy>
46

>  <SCORE.norm>
-0.882861

>  <RMSD>
0.160

$$$$
ligand
 OpenBabel02271912143D
libRbt.so/2013.1/901 2013/11/27
 46 52  0  0  0  0  0  0  0  0999 V2000
   -9.7538    4.9168   15.6514 P   0  0  1  0  0  0  0  0  0  0  0  0
   -5.2783    2.5560   18.6635 P   0  0  2  0  0  0  0  0  0  0  0  0
  -10.5003    3.6963   14.6051 O   0  5  0  0  0  0  0  0  0  0  0  0
  -10.6252    6.4706   15.5747 O   0  0  0  0  0  0  0  0  0  0  0  0
   -9.1092    5.0774   18.2170 C   0  0  0  0  0  0  0  0  0  0  0  0
   -9.7458    4.3553   17.1626 O   0  0  0  0  0  0  0  0  0  0  0  0
   -8.8383    4.1216   19.3631 C   0  0  1  0  0  0  0  0  0  0  0  0
  -10.0539    3.4499   19.7224 O   0  0  0  0  0  0  0  0  0  0  0  0
   -7.8542    3.0196   19.0058 C   0  0  1  0  0  0  0  0  0  0  0  0
   -6.5081    3.3845   19.3022 O   0  0  0  0  0  0  0  0  0  0  0  0
   -8.3252    1.8493   19.8512 C   0  0  1  0  0  0  0  0  0  0  0  0
   -7.6959    1.8867   21.1345 O   0  0  0  0  0  0  0  0  0  0  0  0
   -9.8153    2.0687   20.0356 C   0  0  2  0  0  0  0  0  0  0  0  0
   -5.9923    2.9173   13.5706 C   0  0  1  0  0  0  0  0  0  0  0  0
  -10.5571   -2.7396   17.9090 N   0  0  0  0  0  0  0  0  0  0  0  0
   -9.6279   -2.3386   18.8191 C   0  0  1  0  0  0  0  0  0  0  0  0
   -7.4050    3.3150   13.8920 C   0  0  2  0  0  0  0  0  0  0  0  0
   -8.7444   -3.2552   19.2774 N   0  0  0  0  0  0  0  0  0  0  0  0
   -7.8236    4.1978   12.8496 O   0  0  0  0  0  0  0  0  0  0  0  0
   -7.3128    4.0185   15.2315 C   0  0  2  0  0  0  0  0  0  0  0  0
   -9.5515   -1.0554   19.2818 N   0  0  0  0  0  0  0  0  0  0  0  0
   -8.1970    5.1286   15.3043 O   0  0  0  0  0  0  0  0  0  0  0  0
  -10.4154   -0.0998   18.8549 C   0  0  2  0  0  0  0  0  0  0  0  0
   -5.8756    4.4919   15.3242 C   0  0  2  0  0  0  0  0  0  0  0  0
   -5.1327    3.6665   14.4285 O   0  0  0  0  0  0  0  0  0  0  0  0
  -11.4397   -0.4804   17.8668 C   0  0  1  0  0  0  0  0  0  0  0  0
   -5.2995    4.3638   16.7299 C   0  0  0  0  0  0  0  0  0  0  0  0
   -5.3020    2.9869   17.1122 O   0  0  0  0  0  0  0  0  0  0  0  0
  -11.4721   -1.8799   17.4058 C   0  0  0  0  0  0  0  0  0  0  0  0
  -12.3929   -2.2875   16.4958 O   0  0  0  0  0  0  0  0  0  0  0  0
  -12.1538    0.6195   17.6037 N   0  0  0  0  0  0  0  0  0  0  0  0
  -11.6342    1.6315   18.3584 C   0  0  0  0  0  0  0  0  0  0  0  0
  -10.5945    1.2073   19.1072 N   0  0  1  0  0  0  0  0  0  0  0  0
   -7.3911   -1.8437   11.9139 N   0  0  0  0  0  0  0  0  0  0  0  0
   -5.5212    0.7968   18.8284 O   0  5  0  0  0  0  0  0  0  0  0  0
   -7.7911   -0.6175   11.4788 C   0  0  2  0  0  0  0  0  0  0  0  0
   -8.6838   -0.5346   10.4579 N   0  0  0  0  0  0  0  0  0  0  0  0
   -3.7013    3.0015   19.3435 O   0  0  0  0  0  0  0  0  0  0  0  0
   -7.3235    0.5333   12.0348 N   0  0  0  0  0  0  0  0  0  0  0  0
   -6.4281    0.5153   13.0498 C   0  0  2  0  0  0  0  0  0  0  0  0
   -5.9608   -0.7786   13.5648 C   0  0  2  0  0  0  0  0  0  0  0  0
   -6.5088   -1.9934   12.9246 C   0  0  0  0  0  0  0  0  0  0  0  0
   -6.1383   -3.2319   13.3339 O   0  0  0  0  0  0  0  0  0  0  0  0
   -5.0980   -0.5067   14.5638 N   0  0  0  0  0  0  0  0  0  0  0  0
   -5.0169    0.8527   14.6754 C   0  0  0  0  0  0  0  0  0  0  0  0
   -5.8168    1.4586   13.7688 N   0  0  1  0  0  0  0  0  0  0  0  0
  1  3  1  6  0  0  0
  1  4  2  0  0  0  0
  1  6  1  0  0  0  0
  1 22  1  0  0  0  0
  2 28  1  0  0  0  0
  2 35  1  1  0  0  0
  2 38  2  0  0  0  0
  2 10  1  0  0  0  0
  5  6  1  0  0  0  0
  7  5  1  6  0  0  0
  7  8  1  0  0  0  0
  7  9  1  0  0  0  0
  9 10  1  1  0  0  0
  9 11  1  0  0  0  0
 11 12  1  1  0  0  0
 11 13  1  0  0  0  0
 13  8  1  6  0  0  0
 13 33  1  0  0  0  0
 14 46  1  0  0  0  0
 14 17  1  0  0  0  0
 14 25  1  1  0  0  0
 15 16  1  0  0  0  0
 15 29  1  0  0  0  0
 16 18  1  6  0  0  0
 16 21  1  0  0  0  0
 17 19  1  6  0  0  0
 17 20  1  0  0  0  0
 20 22  1  6  0  0  0
 20 24  1  0  0  0  0
 23 21  1  6  0  0  0
 23 26  1  0  0  0  0
 23 33  1  0  0  0  0
 24 25  1  6  0  0  0
 24 27  1  0  0  0  0
 26 29  1  1  0  0  0
 26 31  1  0  0  0  0
 27 28  1  0  0  0  0
 29 30  2  0  0  0  0
 31 32  1  0  0  0  0
 33 32  1  1  0  0  0
 34 36  1  0  0  0  0
 34 42  1  0  0  0  0
 36 37  1  6  0  0  0
 36 39  1  0  0  0  0
 40 39  1  1  0  0  0
 40 41  1  0  0  0  0
 40 46  1  0  0  0  0
 41 42  1  1  0  0  0
 41 44  1  0  0  0  0
 42 43  2  0  0  0  0
 44 45  1  0  0  0  0
 46 45  1  6  0  0  0
M  CHG  2   3  -1  35  -1
M  END
>  <CHROM.1>
162.86140413,65.21378231,-8.04416619,1.69805356,16.45212713,-2.24936353,-0.98980296
-2.48470892

>  <Name>
ligand

>  <RI>
416

>  <Rbt.Current_Directory>
/home/itssahil/PROJECTS/Mol_Feturizer/Test_systems_manuscript/rnas/3mum

>  <Rbt.Executable>
rbdock ($Id: //depot/dev/client3/rdock/2013.1/src/exe/rbdock.cxx#4 $)

>  <Rbt.Library>
libRbt.so (2013.1, Build901 2013/11/27)

>  <Rbt.Parameter_File>
/export/apps/rDock/src/rDock_2013.1_src/data/scripts/dock_solv.prm

>  <Rbt.Receptor>
prm/pocket_docking_3.prm

>  <SCORE>
-40.5191

>  <SCORE.INTER>
-40.5164

>  <SCORE.INTER.CONST>
1

>  <SCORE.INTER.POLAR>
0

>  <SCORE.INTER.ROT>
2

>  <SCORE.INTER.SOLV>
38.5712

>  <SCORE.INTER.VDW>
-44.8014

>  <SCORE.INTER.norm>
-0.880792

>  <SCORE.INTRA>
-0.00265099

>  <SCORE.INTRA.DIHEDRAL>
-0.000251794

>  <SCORE.INTRA.DIHEDRAL.0>
2.40424

>  <SCORE.INTRA.POLAR>
0

>  <SCORE.INTRA.POLAR.0>
0

>  <SCORE.INTRA.REPUL>
0

>  <SCORE.INTRA.REPUL.0>
0

>  <SCORE.INTRA.SOLV>
0.00274411

>  <SCORE.INTRA.SOLV.lig_0>
-134.169

>  <SCORE.INTRA.VDW>
-0.00389715

>  <SCORE.INTRA.VDW.0>
-2.18386

>  <SCORE.INTRA.norm>
-5.76302e-05

>  <SCORE.RESTR>
0

>  <SCORE.RESTR.CAVITY>
0

>  <SCORE.RESTR.norm>
0

>  <SCORE.SYSTEM>
0

>  <SCORE.SYSTEM.CONST>
0

>  <SCORE.SYSTEM.DIHEDRAL>
0

>  <SCORE.SYSTEM.SOLV>
0

>  <SCORE.SYSTEM.norm>
0

>  <SCORE.heavy>
46

>  <SCORE.norm>
-0.88085

>  <RMSD>
0.161

$$$$
ligand
 OpenBabel02271912143D
libRbt.so/2013.1/901 2013/11/27
 46 52  0  0  0  0  0  0  0  0999 V2000
   -9.7741    4.8587   15.6321 P   0  0  1  0  0  0  0  0  0  0  0  0
   -5.2489    2.5940   18.6437 P   0  0  2  0  0  0  0  0  0  0  0  0
  -10.4740    3.6314   14.5617 O   0  5  0  0  0  0  0  0  0  0  0  0
  -10.6934    6.3853   15.5718 O   0  0  0  0  0  0  0  0  0  0  0  0
   -9.1540    5.0004   18.2048 C   0  0  0  0  0  0  0  0  0  0  0  0
   -9.7597    4.2747   17.1347 O   0  0  0  0  0  0  0  0  0  0  0  0
   -8.8616    4.0361   19.3385 C   0  0  1  0  0  0  0  0  0  0  0  0
  -10.0581    3.3213   19.6782 O   0  0  0  0  0  0  0  0  0  0  0  0
   -7.8406    2.9711   18.9726 C   0  0  1  0  0  0  0  0  0  0  0  0
   -6.5089    3.3737   19.2850 O   0  0  0  0  0  0  0  0  0  0  0  0
   -8.2808    1.7739   19.7965 C   0  0  1  0  0  0  0  0  0  0  0  0
   -7.6625    1.8115   21.0853 O   0  0  0  0  0  0  0  0  0  0  0  0
   -9.7783    1.9436   19.9724 C   0  0  2  0  0  0  0  0  0  0  0  0
   -5.9361    3.0102   13.5513 C   0  0  1  0  0  0  0  0  0  0  0  0
  -10.7372   -2.9564   18.1661 N   0  0  0  0  0  0  0  0  0  0  0  0
   -9.8880   -2.5569   19.1519 C   0  0  1  0  0  0  0  0  0  0  0  0
   -7.3630    3.3584   13.8675 C   0  0  2  0  0  0  0  0  0  0  0  0
   -9.1616   -3.5018   19.7923 N   0  0  0  0  0  0  0  0  0  0  0  0
   -7.8015    4.2434   12.8352 O   0  0  0  0  0  0  0  0  0  0  0  0
   -7.3030    4.0440   15.2181 C   0  0  2  0  0  0  0  0  0  0  0  0
   -9.7397   -1.2480   19.5148 N   0  0  0  0  0  0  0  0  0  0  0  0
   -8.2222    5.1245   15.3005 O   0  0  0  0  0  0  0  0  0  0  0  0
  -10.4466   -0.2632   18.9048 C   0  0  2  0  0  0  0  0  0  0  0  0
   -5.8821    4.5608   15.3292 C   0  0  2  0  0  0  0  0  0  0  0  0
   -5.1070    3.7729   14.4271 O   0  0  0  0  0  0  0  0  0  0  0  0
  -11.3783   -0.6414   17.8281 C   0  0  1  0  0  0  0  0  0  0  0  0
   -5.3127    4.4295   16.7374 C   0  0  0  0  0  0  0  0  0  0  0  0
   -5.2747    3.0475   17.0989 O   0  0  0  0  0  0  0  0  0  0  0  0
  -11.4950   -2.0692   17.4819 C   0  0  0  0  0  0  0  0  0  0  0  0
  -12.3365   -2.4760   16.4978 O   0  0  0  0  0  0  0  0  0  0  0  0
  -11.9424    0.4885   17.3874 N   0  0  0  0  0  0  0  0  0  0  0  0
  -11.4183    1.5160   18.1176 C   0  0  0  0  0  0  0  0  0  0  0  0
  -10.5232    1.0724   19.0251 N   0  0  1  0  0  0  0  0  0  0  0  0
   -7.4483   -1.7761   12.0772 N   0  0  0  0  0  0  0  0  0  0  0  0
   -5.4374    0.8257   18.7803 O   0  5  0  0  0  0  0  0  0  0  0  0
   -7.9156   -0.5573   11.6910 C   0  0  2  0  0  0  0  0  0  0  0  0
   -8.9239   -0.4907   10.7828 N   0  0  0  0  0  0  0  0  0  0  0  0
   -3.6918    3.0784   19.3428 O   0  0  0  0  0  0  0  0  0  0  0  0
   -7.4032    0.6020   12.1866 N   0  0  0  0  0  0  0  0  0  0  0  0
   -6.3938    0.6004   13.0885 C   0  0  2  0  0  0  0  0  0  0  0  0
   -5.8492   -0.6848   13.5460 C   0  0  2  0  0  0  0  0  0  0  0  0
   -6.4505   -1.9096   12.9765 C   0  0  0  0  0  0  0  0  0  0  0  0
   -6.0154   -3.1412   13.3406 O   0  0  0  0  0  0  0  0  0  0  0  0
   -4.8785   -0.3971   14.4356 N   0  0  0  0  0  0  0  0  0  0  0  0
   -4.8055    0.9637   14.5353 C   0  0  0  0  0  0  0  0  0  0  0  0
   -5.7162    1.5548   13.7290 N   0  0  1  0  0  0  0  0  0  0  0  0
  1  3  1  6  0  0  0
  1  4  2  0  0  0  0
  1  6  1  0  0  0  0
  1 22  1  0  0  0  0
  2 28  1  0  0  0  0
  2 35  1  1  0  0  0
  2 38  2  0  0  0  0
  2 10  1  0  0  0  0
  5  6  1  0  0  0  0
  7  5  1  6  0  0  0
  7  8  1  0  0  0  0
  7  9  1  0  0  0  0
  9 10  1  1  0  0  0
  9 11  1  0  0  0  0
 11 12  1  1  0  0  0
 11 13  1  0  0  0  0
 13  8  1  6  0  0  0
 13 33  1  0  0  0  0
 14 46  1  0  0  0  0
 14 17  1  0  0  0  0
 14 25  1  1  0  0  0
 15 16  1  0  0  0  0
 15 29  1  0  0  0  0
 16 18  1  6  0  0  0
 16 21  1  0  0  0  0
 17 19  1  6  0  0  0
 17 20  1  0  0  0  0
 20 22  1  6  0  0  0
 20 24  1  0  0  0  0
 23 21  1  6  0  0  0
 23 26  1  0  0  0  0
 23 33  1  0  0  0  0
 24 25  1  6  0  0  0
 24 27  1  0  0  0  0
 26 29  1  1  0  0  0
 26 31  1  0  0  0  0
 27 28  1  0  0  0  0
 29 30  2  0  0  0  0
 31 32  1  0  0  0  0
 33 32  1  1  0  0  0
 34 36  1  0  0  0  0
 34 42  1  0  0  0  0
 36 37  1  6  0  0  0
 36 39  1  0  0  0  0
 40 39  1  1  0  0  0
 40 41  1  0  0  0  0
 40 46  1  0  0  0  0
 41 42  1  1  0  0  0
 41 44  1  0  0  0  0
 42 43  2  0  0  0  0
 44 45  1  0  0  0  0
 46 45  1  6  0  0  0
M  CHG  2   3  -1  35  -1
M  END
>  <CHROM.1>
174.34002082,57.85440611,-8.04172268,1.67112032,16.46984537,-0.48549846,0.99421867
0.68034630

>  <Name>
ligand

>  <RI>
-1

>  <Rbt.Current_Directory>
/home/itssahil/PROJECTS/Mol_Feturizer/Test_systems_manuscript/rnas/3mum

>  <Rbt.Executable>
rbdock ($Id: //depot/dev/client3/rdock/2013.1/src/exe/rbdock.cxx#4 $)

>  <Rbt.Library>
libRbt.so (2013.1, Build901 2013/11/27)

>  <Rbt.Parameter_File>
/export/apps/rDock/src/rDock_2013.1_src/data/scripts/dock_solv.prm

>  <Rbt.Receptor>
prm/pocket_docking_8.prm

>  <SCORE>
-39.4676

>  <SCORE.INTER>
-39.4655

>  <SCORE.INTER.CONST>
1

>  <SCORE.INTER.POLAR>
0

>  <SCORE.INTER.ROT>
2

>  <SCORE.INTER.SOLV>
39.9405

>  <SCORE.INTER.VDW>
-44.5572

>  <SCORE.INTER.norm>
-0.857946

>  <SCORE.INTRA>
-0.00211247

>  <SCORE.INTRA.DIHEDRAL>
-0.00902706

>  <SCORE.INTRA.DIHEDRAL.0>
2.40424

>  <SCORE.INTRA.POLAR>
0

>  <SCORE.INTRA.POLAR.0>
0

>  <SCORE.INTRA.REPUL>
0

>  <SCORE.INTRA.REPUL.0>
0

>  <SCORE.INTRA.SOLV>
0.00793352

>  <SCORE.INTRA.SOLV.lig_0>
-134.169

>  <SCORE.INTRA.VDW>
-0.0015657

>  <SCORE.INTRA.VDW.0>
-2.18386

>  <SCORE.INTRA.norm>
-4.59232e-05

>  <SCORE.RESTR>
0

>  <SCORE.RESTR.CAVITY>
0

>  <SCORE.RESTR.norm>
0

>  <SCORE.SYSTEM>
0

>  <SCORE.SYSTEM.CONST>
0

>  <SCORE.SYSTEM.DIHEDRAL>
0

>  <SCORE.SYSTEM.SOLV>
0

>  <SCORE.SYSTEM.norm>
0

>  <SCORE.heavy>
46

>  <SCORE.norm>
-0.857992

>  <RMSD>
0.161

$$$$
ligand
 OpenBabel02271912143D
libRbt.so/2013.1/901 2013/11/27
 46 52  0  0  0  0  0  0  0  0999 V2000
   -9.7608    4.9265   15.6246 P   0  0  1  0  0  0  0  0  0  0  0  0
   -5.2902    2.5842   18.6583 P   0  0  2  0  0  0  0  0  0  0  0  0
  -10.5021    3.7010   14.5804 O   0  5  0  0  0  0  0  0  0  0  0  0
  -10.6347    6.4784   15.5398 O   0  0  0  0  0  0  0  0  0  0  0  0
   -9.1242    5.0973   18.1915 C   0  0  0  0  0  0  0  0  0  0  0  0
   -9.7564    4.3703   17.1379 O   0  0  0  0  0  0  0  0  0  0  0  0
   -8.8550    4.1460   19.3418 C   0  0  1  0  0  0  0  0  0  0  0  0
  -10.0705    3.4734   19.6999 O   0  0  0  0  0  0  0  0  0  0  0  0
   -7.8679    3.0444   18.9914 C   0  0  1  0  0  0  0  0  0  0  0  0
   -6.5233    3.4128   19.2905 O   0  0  0  0  0  0  0  0  0  0  0  0
   -8.3394    1.8763   19.8395 C   0  0  1  0  0  0  0  0  0  0  0  0
   -7.7140    1.9194   21.1245 O   0  0  0  0  0  0  0  0  0  0  0  0
   -9.8304    2.0938   20.0187 C   0  0  2  0  0  0  0  0  0  0  0  0
   -5.9896    2.9262   13.5621 C   0  0  1  0  0  0  0  0  0  0  0  0
  -10.5566   -2.7230   17.9059 N   0  0  0  0  0  0  0  0  0  0  0  0
   -9.6307   -2.3171   18.8172 C   0  0  1  0  0  0  0  0  0  0  0  0
   -7.4040    3.3226   13.8779 C   0  0  2  0  0  0  0  0  0  0  0  0
   -8.7465   -3.2303   19.2809 N   0  0  0  0  0  0  0  0  0  0  0  0
   -7.8210    4.2009   12.8311 O   0  0  0  0  0  0  0  0  0  0  0  0
   -7.3170    4.0310   15.2152 C   0  0  2  0  0  0  0  0  0  0  0  0
   -9.5582   -1.0322   19.2758 N   0  0  0  0  0  0  0  0  0  0  0  0
   -8.2034    5.1398   15.2815 O   0  0  0  0  0  0  0  0  0  0  0  0
  -10.4229   -0.0798   18.8435 C   0  0  2  0  0  0  0  0  0  0  0  0
   -5.8809    4.5073   15.3104 C   0  0  2  0  0  0  0  0  0  0  0  0
   -5.1339    3.6800   14.4199 O   0  0  0  0  0  0  0  0  0  0  0  0
  -11.4437   -0.4658   17.8539 C   0  0  1  0  0  0  0  0  0  0  0  0
   -5.3088    4.3851   16.7184 C   0  0  0  0  0  0  0  0  0  0  0  0
   -5.3100    3.0096   17.1055 O   0  0  0  0  0  0  0  0  0  0  0  0
  -11.4720   -1.8669   17.3974 C   0  0  0  0  0  0  0  0  0  0  0  0
  -12.3895   -2.2793   16.4863 O   0  0  0  0  0  0  0  0  0  0  0  0
  -12.1593    0.6318   17.5853 N   0  0  0  0  0  0  0  0  0  0  0  0
  -11.6439    1.6473   18.3380 C   0  0  0  0  0  0  0  0  0  0  0  0
  -10.6054    1.2277   19.0910 N   0  0  1  0  0  0  0  0  0  0  0  0
   -7.3873   -1.8431   11.9286 N   0  0  0  0  0  0  0  0  0  0  0  0
   -5.5305    0.8252   18.8288 O   0  5  0  0  0  0  0  0  0  0  0  0
   -7.7896   -0.6192   11.4892 C   0  0  2  0  0  0  0  0  0  0  0  0
   -8.6847   -0.5414   10.4701 N   0  0  0  0  0  0  0  0  0  0  0  0
   -3.7160    3.0349   19.3415 O   0  0  0  0  0  0  0  0  0  0  0  0
   -7.3219    0.5345   12.0394 N   0  0  0  0  0  0  0  0  0  0  0  0
   -6.4242    0.5216   13.0524 C   0  0  2  0  0  0  0  0  0  0  0  0
   -5.9543   -0.7696   13.5717 C   0  0  2  0  0  0  0  0  0  0  0  0
   -6.5025   -1.9877   12.9378 C   0  0  0  0  0  0  0  0  0  0  0  0
   -6.1299   -3.2240   13.3515 O   0  0  0  0  0  0  0  0  0  0  0  0
   -5.0895   -0.4926   14.5675 N   0  0  0  0  0  0  0  0  0  0  0  0
   -5.0095    0.8673   14.6733 C   0  0  0  0  0  0  0  0  0  0  0  0
   -5.8122    1.4685   13.7660 N   0  0  1  0  0  0  0  0  0  0  0  0
  1  3  1  6  0  0  0
  1  4  2  0  0  0  0
  1  6  1  0  0  0  0
  1 22  1  0  0  0  0
  2 28  1  0  0  0  0
  2 35  1  1  0  0  0
  2 38  2  0  0  0  0
  2 10  1  0  0  0  0
  5  6  1  0  0  0  0
  7  5  1  6  0  0  0
  7  8  1  0  0  0  0
  7  9  1  0  0  0  0
  9 10  1  1  0  0  0
  9 11  1  0  0  0  0
 11 12  1  1  0  0  0
 11 13  1  0  0  0  0
 13  8  1  6  0  0  0
 13 33  1  0  0  0  0
 14 46  1  0  0  0  0
 14 17  1  0  0  0  0
 14 25  1  1  0  0  0
 15 16  1  0  0  0  0
 15 29  1  0  0  0  0
 16 18  1  6  0  0  0
 16 21  1  0  0  0  0
 17 19  1  6  0  0  0
 17 20  1  0  0  0  0
 20 22  1  6  0  0  0
 20 24  1  0  0  0  0
 23 21  1  6  0  0  0
 23 26  1  0  0  0  0
 23 33  1  0  0  0  0
 24 25  1  6  0  0  0
 24 27  1  0  0  0  0
 26 29  1  1  0  0  0
 26 31  1  0  0  0  0
 27 28  1  0  0  0  0
 29 30  2  0  0  0  0
 31 32  1  0  0  0  0
 33 32  1  1  0  0  0
 34 36  1  0  0  0  0
 34 42  1  0  0  0  0
 36 37  1  6  0  0  0
 36 39  1  0  0  0  0
 40 39  1  1  0  0  0
 40 41  1  0  0  0  0
 40 46  1  0  0  0  0
 41 42  1  1  0  0  0
 41 44  1  0  0  0  0
 42 43  2  0  0  0  0
 44 45  1  0  0  0  0
 46 45  1  6  0  0  0
M  CHG  2   3  -1  35  -1
M  END
>  <CHROM.1>
162.83372044,64.90569709,-8.04918303,1.71360652,16.44286126,-2.25229248,-0.98827724
-2.49177152

>  <Name>
ligand

>  <RI>
416

>  <Rbt.Current_Directory>
/home/itssahil/PROJECTS/Mol_Feturizer/Test_systems_manuscript/rnas/3mum

>  <Rbt.Executable>
rbdock ($Id: //depot/dev/client3/rdock/2013.1/src/exe/rbdock.cxx#4 $)

>  <Rbt.Library>
libRbt.so (2013.1, Build901 2013/11/27)

>  <Rbt.Parameter_File>
/export/apps/rDock/src/rDock_2013.1_src/data/scripts/dock_solv.prm

>  <Rbt.Receptor>
prm/pocket_docking_3.prm

>  <SCORE>
-40.6381

>  <SCORE.INTER>
-40.6389

>  <SCORE.INTER.CONST>
1

>  <SCORE.INTER.POLAR>
0

>  <SCORE.INTER.ROT>
2

>  <SCORE.INTER.SOLV>
38.4661

>  <SCORE.INTER.VDW>
-44.848

>  <SCORE.INTER.norm>
-0.883454

>  <SCORE.INTRA>
0.000771373

>  <SCORE.INTRA.DIHEDRAL>
-0.000686863

>  <SCORE.INTRA.DIHEDRAL.0>
2.40424

>  <SCORE.INTRA.POLAR>
0

>  <SCORE.INTRA.POLAR.0>
0

>  <SCORE.INTRA.REPUL>
0

>  <SCORE.INTRA.REPUL.0>
0

>  <SCORE.INTRA.SOLV>
0.00317746

>  <SCORE.INTRA.SOLV.lig_0>
-134.169

>  <SCORE.INTRA.VDW>
-0.000473927

>  <SCORE.INTRA.VDW.0>
-2.18386

>  <SCORE.INTRA.norm>
1.6769e-05

>  <SCORE.RESTR>
0

>  <SCORE.RESTR.CAVITY>
0

>  <SCORE.RESTR.norm>
0

>  <SCORE.SYSTEM>
0

>  <SCORE.SYSTEM.CONST>
0

>  <SCORE.SYSTEM.DIHEDRAL>
0

>  <SCORE.SYSTEM.SOLV>
0

>  <SCORE.SYSTEM.norm>
0

>  <SCORE.heavy>
46

>  <SCORE.norm>
-0.883438

>  <RMSD>
0.162

$$$$
ligand
 OpenBabel02271912143D
libRbt.so/2013.1/901 2013/11/27
 46 52  0  0  0  0  0  0  0  0999 V2000
   -9.7410    4.9464   15.6333 P   0  0  1  0  0  0  0  0  0  0  0  0
   -5.2770    2.5589   18.6414 P   0  0  2  0  0  0  0  0  0  0  0  0
  -10.4956    3.7304   14.5875 O   0  5  0  0  0  0  0  0  0  0  0  0
  -10.6032    6.5053   15.5574 O   0  0  0  0  0  0  0  0  0  0  0  0
   -9.0934    5.1031   18.1983 C   0  0  0  0  0  0  0  0  0  0  0  0
   -9.7351    4.3847   17.1445 O   0  0  0  0  0  0  0  0  0  0  0  0
   -8.8271    4.1455   19.3441 C   0  0  1  0  0  0  0  0  0  0  0  0
  -10.0464    3.4811   19.7045 O   0  0  0  0  0  0  0  0  0  0  0  0
   -7.8499    3.0377   18.9860 C   0  0  1  0  0  0  0  0  0  0  0  0
   -6.5013    3.3947   19.2812 O   0  0  0  0  0  0  0  0  0  0  0  0
   -8.3270    1.8702   19.8317 C   0  0  1  0  0  0  0  0  0  0  0  0
   -7.6964    1.9038   21.1145 O   0  0  0  0  0  0  0  0  0  0  0  0
   -9.8156    2.0985   20.0174 C   0  0  2  0  0  0  0  0  0  0  0  0
   -5.9932    2.9247   13.5492 C   0  0  1  0  0  0  0  0  0  0  0  0
  -10.5983   -2.7090   17.9036 N   0  0  0  0  0  0  0  0  0  0  0  0
   -9.6676   -2.3142   18.8148 C   0  0  1  0  0  0  0  0  0  0  0  0
   -7.4032    3.3308   13.8718 C   0  0  2  0  0  0  0  0  0  0  0  0
   -8.7941   -3.2378   19.2782 N   0  0  0  0  0  0  0  0  0  0  0  0
   -7.8175    4.2161   12.8298 O   0  0  0  0  0  0  0  0  0  0  0  0
   -7.3058    4.0336   15.2113 C   0  0  2  0  0  0  0  0  0  0  0  0
   -9.5800   -1.0303   19.2738 N   0  0  0  0  0  0  0  0  0  0  0  0
   -8.1833    5.1490   15.2849 O   0  0  0  0  0  0  0  0  0  0  0  0
  -10.4336   -0.0678   18.8418 C   0  0  2  0  0  0  0  0  0  0  0  0
   -5.8656    4.4985   15.3027 C   0  0  2  0  0  0  0  0  0  0  0  0
   -5.1285    3.6688   14.4064 O   0  0  0  0  0  0  0  0  0  0  0  0
  -11.4589   -0.4416   17.8522 C   0  0  1  0  0  0  0  0  0  0  0  0
   -5.2892    4.3670   16.7080 C   0  0  0  0  0  0  0  0  0  0  0  0
   -5.2995    2.9900   17.0902 O   0  0  0  0  0  0  0  0  0  0  0  0
  -11.5037   -1.8421   17.3954 C   0  0  0  0  0  0  0  0  0  0  0  0
  -12.4260   -2.2436   16.4843 O   0  0  0  0  0  0  0  0  0  0  0  0
  -12.1617    0.6643   17.5839 N   0  0  0  0  0  0  0  0  0  0  0  0
  -11.6344    1.6736   18.3368 C   0  0  0  0  0  0  0  0  0  0  0  0
  -10.6008    1.2417   19.0896 N   0  0  1  0  0  0  0  0  0  0  0  0
   -7.3735   -1.8278   11.8532 N   0  0  0  0  0  0  0  0  0  0  0  0
   -5.5302    0.8012   18.8065 O   0  5  0  0  0  0  0  0  0  0  0  0
   -7.7610   -0.5993   11.4132 C   0  0  2  0  0  0  0  0  0  0  0  0
   -8.6330   -0.5111   10.3750 N   0  0  0  0  0  0  0  0  0  0  0  0
   -3.6968    2.9951   19.3202 O   0  0  0  0  0  0  0  0  0  0  0  0
   -7.3010    0.5487   11.9814 N   0  0  0  0  0  0  0  0  0  0  0  0
   -6.4260    0.5254   13.0138 C   0  0  2  0  0  0  0  0  0  0  0  0
   -5.9730   -0.7712   13.5347 C   0  0  2  0  0  0  0  0  0  0  0  0
   -6.5119   -1.9828   12.8807 C   0  0  0  0  0  0  0  0  0  0  0  0
   -6.1535   -3.2234   13.2943 O   0  0  0  0  0  0  0  0  0  0  0  0
   -5.1293   -0.5044   14.5513 N   0  0  0  0  0  0  0  0  0  0  0  0
   -5.0463    0.8544   14.6680 C   0  0  0  0  0  0  0  0  0  0  0  0
   -5.8262    1.4650   13.7472 N   0  0  1  0  0  0  0  0  0  0  0  0
  1  3  1  6  0  0  0
  1  4  2  0  0  0  0
  1  6  1  0  0  0  0
  1 22  1  0  0  0  0
  2 28  1  0  0  0  0
  2 35  1  1  0  0  0
  2 38  2  0  0  0  0
  2 10  1  0  0  0  0
  5  6  1  0  0  0  0
  7  5  1  6  0  0  0
  7  8  1  0  0  0  0
  7  9  1  0  0  0  0
  9 10  1  1  0  0  0
  9 11  1  0  0  0  0
 11 12  1  1  0  0  0
 11 13  1  0  0  0  0
 13  8  1  6  0  0  0
 13 33  1  0  0  0  0
 14 46  1  0  0  0  0
 14 17  1  0  0  0  0
 14 25  1  1  0  0  0
 15 16  1  0  0  0  0
 15 29  1  0  0  0  0
 16 18  1  6  0  0  0
 16 21  1  0  0  0  0
 17 19  1  6  0  0  0
 17 20  1  0  0  0  0
 20 22  1  6  0  0  0
 20 24  1  0  0  0  0
 23 21  1  6  0  0  0
 23 26  1  0  0  0  0
 23 33  1  0  0  0  0
 24 25  1  6  0  0  0
 24 27  1  0  0  0  0
 26 29  1  1  0  0  0
 26 31  1  0  0  0  0
 27 28  1  0  0  0  0
 29 30  2  0  0  0  0
 31 32  1  0  0  0  0
 33 32  1  1  0  0  0
 34 36  1  0  0  0  0
 34 42  1  0  0  0  0
 36 37  1  6  0  0  0
 36 39  1  0  0  0  0
 40 39  1  1  0  0  0
 40 41  1  0  0  0  0
 40 46  1  0  0  0  0
 41 42  1  1  0  0  0
 41 44  1  0  0  0  0
 42 43  2  0  0  0  0
 44 45  1  0  0  0  0
 46 45  1  6  0  0  0
M  CHG  2   3  -1  35  -1
M  END
>  <CHROM.1>
163.20081490,66.41789587,-8.04566025,1.71710494,16.42932778,-2.25577354,-0.98778917
-2.48193699

>  <Name>
ligand

>  <RI>
-1

>  <Rbt.Current_Directory>
/home/itssahil/PROJECTS/Mol_Feturizer/Test_systems_manuscript/rnas/3mum

>  <Rbt.Executable>
rbdock ($Id: //depot/dev/client3/rdock/2013.1/src/exe/rbdock.cxx#4 $)

>  <Rbt.Library>
libRbt.so (2013.1, Build901 2013/11/27)

>  <Rbt.Parameter_File>
/export/apps/rDock/src/rDock_2013.1_src/data/scripts/dock_solv.prm

>  <Rbt.Receptor>
prm/pocket_docking_4.prm

>  <SCORE>
-40.5104

>  <SCORE.INTER>
-40.4929

>  <SCORE.INTER.CONST>
1

>  <SCORE.INTER.POLAR>
0

>  <SCORE.INTER.ROT>
2

>  <SCORE.INTER.SOLV>
38.5152

>  <SCORE.INTER.VDW>
-44.767

>  <SCORE.INTER.norm>
-0.880281

>  <SCORE.INTRA>
-0.0174523

>  <SCORE.INTRA.DIHEDRAL>
0.0014582

>  <SCORE.INTRA.DIHEDRAL.0>
2.40424

>  <SCORE.INTRA.POLAR>
0

>  <SCORE.INTRA.POLAR.0>
0

>  <SCORE.INTRA.REPUL>
0

>  <SCORE.INTRA.REPUL.0>
0

>  <SCORE.INTRA.SOLV>
0.000919556

>  <SCORE.INTRA.SOLV.lig_0>
-134.169

>  <SCORE.INTRA.VDW>
-0.0186412

>  <SCORE.INTRA.VDW.0>
-2.18386

>  <SCORE.INTRA.norm>
-0.000379398

>  <SCORE.RESTR>
0

>  <SCORE.RESTR.CAVITY>
0

>  <SCORE.RESTR.norm>
0

>  <SCORE.SYSTEM>
0

>  <SCORE.SYSTEM.CONST>
0

>  <SCORE.SYSTEM.DIHEDRAL>
0

>  <SCORE.SYSTEM.SOLV>
0

>  <SCORE.SYSTEM.norm>
0

>  <SCORE.heavy>
46

>  <SCORE.norm>
-0.88066

>  <RMSD>
0.162

$$$$
ligand
 OpenBabel02271912143D
libRbt.so/2013.1/901 2013/11/27
 46 52  0  0  0  0  0  0  0  0999 V2000
   -9.7441    4.9285   15.6373 P   0  0  1  0  0  0  0  0  0  0  0  0
   -5.2856    2.5302   18.6449 P   0  0  2  0  0  0  0  0  0  0  0  0
  -10.4941    3.7173   14.5827 O   0  5  0  0  0  0  0  0  0  0  0  0
  -10.6082    6.4866   15.5676 O   0  0  0  0  0  0  0  0  0  0  0  0
   -9.1040    5.0717   18.2050 C   0  0  0  0  0  0  0  0  0  0  0  0
   -9.7418    4.3584   17.1454 O   0  0  0  0  0  0  0  0  0  0  0  0
   -8.8397    4.1081   19.3463 C   0  0  1  0  0  0  0  0  0  0  0  0
  -10.0591    3.4400   19.6994 O   0  0  0  0  0  0  0  0  0  0  0  0
   -7.8600    3.0037   18.9848 C   0  0  1  0  0  0  0  0  0  0  0  0
   -6.5128    3.3608   19.2859 O   0  0  0  0  0  0  0  0  0  0  0  0
   -8.3380    1.8308   19.8226 C   0  0  1  0  0  0  0  0  0  0  0  0
   -7.7111    1.8581   21.1074 O   0  0  0  0  0  0  0  0  0  0  0  0
   -9.8274    2.0560   20.0053 C   0  0  2  0  0  0  0  0  0  0  0  0
   -5.9876    2.9235   13.5528 C   0  0  1  0  0  0  0  0  0  0  0  0
  -10.6165   -2.7473   17.8844 N   0  0  0  0  0  0  0  0  0  0  0  0
   -9.6919   -2.3574   18.8039 C   0  0  1  0  0  0  0  0  0  0  0  0
   -7.3991    3.3258   13.8736 C   0  0  2  0  0  0  0  0  0  0  0  0
   -8.8275   -3.2855   19.2751 N   0  0  0  0  0  0  0  0  0  0  0  0
   -7.8116    4.2164   12.8354 O   0  0  0  0  0  0  0  0  0  0  0  0
   -7.3064    4.0213   15.2173 C   0  0  2  0  0  0  0  0  0  0  0  0
   -9.6017   -1.0740   19.2637 N   0  0  0  0  0  0  0  0  0  0  0  0
   -8.1857    5.1350   15.2946 O   0  0  0  0  0  0  0  0  0  0  0  0
  -10.4463   -0.1070   18.8241 C   0  0  2  0  0  0  0  0  0  0  0  0
   -5.8672    4.4876   15.3154 C   0  0  2  0  0  0  0  0  0  0  0  0
   -5.1263    3.6639   14.4166 O   0  0  0  0  0  0  0  0  0  0  0  0
  -11.4647   -0.4754   17.8254 C   0  0  1  0  0  0  0  0  0  0  0  0
   -5.2946    4.3490   16.7216 C   0  0  0  0  0  0  0  0  0  0  0  0
   -5.3041    2.9699   17.0961 O   0  0  0  0  0  0  0  0  0  0  0  0
  -11.5127   -1.8756   17.3682 C   0  0  0  0  0  0  0  0  0  0  0  0
  -12.4290   -2.2723   16.4488 O   0  0  0  0  0  0  0  0  0  0  0  0
  -12.1592    0.6342   17.5508 N   0  0  0  0  0  0  0  0  0  0  0  0
  -11.6333    1.6407   18.3084 C   0  0  0  0  0  0  0  0  0  0  0  0
  -10.6088    1.2034   19.0704 N   0  0  1  0  0  0  0  0  0  0  0  0
   -7.3676   -1.8215   11.8354 N   0  0  0  0  0  0  0  0  0  0  0  0
   -5.5368    0.7713   18.7995 O   0  5  0  0  0  0  0  0  0  0  0  0
   -7.7568   -0.5911   11.4024 C   0  0  2  0  0  0  0  0  0  0  0  0
   -8.6308   -0.4982   10.3662 N   0  0  0  0  0  0  0  0  0  0  0  0
   -3.7079    2.9647   19.3306 O   0  0  0  0  0  0  0  0  0  0  0  0
   -7.2966    0.5544   11.9754 N   0  0  0  0  0  0  0  0  0  0  0  0
   -6.4197    0.5265   13.0062 C   0  0  2  0  0  0  0  0  0  0  0  0
   -5.9648   -0.7723   13.5197 C   0  0  2  0  0  0  0  0  0  0  0  0
   -6.5040   -1.9810   12.8606 C   0  0  0  0  0  0  0  0  0  0  0  0
   -6.1440   -3.2234   13.2672 O   0  0  0  0  0  0  0  0  0  0  0  0
   -5.1194   -0.5101   14.5360 N   0  0  0  0  0  0  0  0  0  0  0  0
   -5.0371    0.8482   14.6594 C   0  0  0  0  0  0  0  0  0  0  0  0
   -5.8192    1.4628   13.7431 N   0  0  1  0  0  0  0  0  0  0  0  0
  1  3  1  6  0  0  0
  1  4  2  0  0  0  0
  1  6  1  0  0  0  0
  1 22  1  0  0  0  0
  2 28  1  0  0  0  0
  2 35  1  1  0  0  0
  2 38  2  0  0  0  0
  2 10  1  0  0  0  0
  5  6  1  0  0  0  0
  7  5  1  6  0  0  0
  7  8  1  0  0  0  0
  7  9  1  0  0  0  0
  9 10  1  1  0  0  0
  9 11  1  0  0  0  0
 11 12  1  1  0  0  0
 11 13  1  0  0  0  0
 13  8  1  6  0  0  0
 13 33  1  0  0  0  0
 14 46  1  0  0  0  0
 14 17  1  0  0  0  0
 14 25  1  1  0  0  0
 15 16  1  0  0  0  0
 15 29  1  0  0  0  0
 16 18  1  6  0  0  0
 16 21  1  0  0  0  0
 17 19  1  6  0  0  0
 17 20  1  0  0  0  0
 20 22  1  6  0  0  0
 20 24  1  0  0  0  0
 23 21  1  6  0  0  0
 23 26  1  0  0  0  0
 23 33  1  0  0  0  0
 24 25  1  6  0  0  0
 24 27  1  0  0  0  0
 26 29  1  1  0  0  0
 26 31  1  0  0  0  0
 27 28  1  0  0  0  0
 29 30  2  0  0  0  0
 31 32  1  0  0  0  0
 33 32  1  1  0  0  0
 34 36  1  0  0  0  0
 34 42  1  0  0  0  0
 36 37  1  6  0  0  0
 36 39  1  0  0  0  0
 40 39  1  1  0  0  0
 40 41  1  0  0  0  0
 40 46  1  0  0  0  0
 41 42  1  1  0  0  0
 41 44  1  0  0  0  0
 42 43  2  0  0  0  0
 44 45  1  0  0  0  0
 46 45  1  6  0  0  0
M  CHG  2   3  -1  35  -1
M  END
>  <CHROM.1>
163.80612901,66.14411820,-8.04994030,1.69632291,16.42359866,-2.27088447,-0.98638325
-2.47844730

>  <Name>
ligand

>  <RI>
416

>  <Rbt.Current_Directory>
/home/itssahil/PROJECTS/Mol_Feturizer/Test_systems_manuscript/rnas/3mum

>  <Rbt.Executable>
rbdock ($Id: //depot/dev/client3/rdock/2013.1/src/exe/rbdock.cxx#4 $)

>  <Rbt.Library>
libRbt.so (2013.1, Build901 2013/11/27)

>  <Rbt.Parameter_File>
/export/apps/rDock/src/rDock_2013.1_src/data/scripts/dock_solv.prm

>  <Rbt.Receptor>
prm/pocket_docking_3.prm

>  <SCORE>
-40.3408

>  <SCORE.INTER>
-40.3214

>  <SCORE.INTER.CONST>
1

>  <SCORE.INTER.POLAR>
0

>  <SCORE.INTER.ROT>
2

>  <SCORE.INTER.SOLV>
38.7746

>  <SCORE.INTER.VDW>
-44.7391

>  <SCORE.INTER.norm>
-0.876552

>  <SCORE.INTRA>
-0.0193698

>  <SCORE.INTRA.DIHEDRAL>
0.00115546

>  <SCORE.INTRA.DIHEDRAL.0>
2.40424

>  <SCORE.INTRA.POLAR>
0

>  <SCORE.INTRA.POLAR.0>
0

>  <SCORE.INTRA.REPUL>
0

>  <SCORE.INTRA.REPUL.0>
0

>  <SCORE.INTRA.SOLV>
0.00101323

>  <SCORE.INTRA.SOLV.lig_0>
-134.169

>  <SCORE.INTRA.VDW>
-0.0204541

>  <SCORE.INTRA.VDW.0>
-2.18386

>  <SCORE.INTRA.norm>
-0.000421082

>  <SCORE.RESTR>
0

>  <SCORE.RESTR.CAVITY>
0

>  <SCORE.RESTR.norm>
0

>  <SCORE.SYSTEM>
0

>  <SCORE.SYSTEM.CONST>
0

>  <SCORE.SYSTEM.DIHEDRAL>
0

>  <SCORE.SYSTEM.SOLV>
0

>  <SCORE.SYSTEM.norm>
0

>  <SCORE.heavy>
46

>  <SCORE.norm>
-0.876973

>  <RMSD>
0.163

$$$$
ligand
 OpenBabel02271912143D
libRbt.so/2013.1/901 2013/11/27
 46 52  0  0  0  0  0  0  0  0999 V2000
   -9.7287    4.9293   15.6555 P   0  0  1  0  0  0  0  0  0  0  0  0
   -5.2600    2.5474   18.6611 P   0  0  2  0  0  0  0  0  0  0  0  0
  -10.4827    3.7122   14.6106 O   0  5  0  0  0  0  0  0  0  0  0  0
  -10.5927    6.4872   15.5799 O   0  0  0  0  0  0  0  0  0  0  0  0
   -9.0794    5.0873   18.2201 C   0  0  0  0  0  0  0  0  0  0  0  0
   -9.7211    4.3680   17.1669 O   0  0  0  0  0  0  0  0  0  0  0  0
   -8.8113    4.1303   19.3660 C   0  0  1  0  0  0  0  0  0  0  0  0
  -10.0296    3.4646   19.7273 O   0  0  0  0  0  0  0  0  0  0  0  0
   -7.8331    3.0235   19.0074 C   0  0  1  0  0  0  0  0  0  0  0  0
   -6.4848    3.3820   19.3016 O   0  0  0  0  0  0  0  0  0  0  0  0
   -8.3084    1.8556   19.8536 C   0  0  1  0  0  0  0  0  0  0  0  0
   -7.6769    1.8902   21.1360 O   0  0  0  0  0  0  0  0  0  0  0  0
   -9.7971    2.0823   20.0403 C   0  0  2  0  0  0  0  0  0  0  0  0
   -5.9801    2.9113   13.5693 C   0  0  1  0  0  0  0  0  0  0  0  0
  -10.5583   -2.7202   17.9073 N   0  0  0  0  0  0  0  0  0  0  0  0
   -9.6246   -2.3231   18.8145 C   0  0  1  0  0  0  0  0  0  0  0  0
   -7.3904    3.3159   13.8928 C   0  0  2  0  0  0  0  0  0  0  0  0
   -8.7414   -3.2426   19.2675 N   0  0  0  0  0  0  0  0  0  0  0  0
   -7.8063    4.2005   12.8509 O   0  0  0  0  0  0  0  0  0  0  0  0
   -7.2927    4.0191   15.2321 C   0  0  2  0  0  0  0  0  0  0  0  0
   -9.5435   -1.0409   19.2794 N   0  0  0  0  0  0  0  0  0  0  0  0
   -8.1714    5.1335   15.3061 O   0  0  0  0  0  0  0  0  0  0  0  0
  -10.4068   -0.0825   18.8578 C   0  0  2  0  0  0  0  0  0  0  0  0
   -5.8531    4.4857   15.3224 C   0  0  2  0  0  0  0  0  0  0  0  0
   -5.1156    3.6566   14.4257 O   0  0  0  0  0  0  0  0  0  0  0  0
  -11.4358   -0.4589   17.8729 C   0  0  1  0  0  0  0  0  0  0  0  0
   -5.2755    4.3550   16.7273 C   0  0  0  0  0  0  0  0  0  0  0  0
   -5.2840    2.9782   17.1098 O   0  0  0  0  0  0  0  0  0  0  0  0
  -11.4732   -1.8574   17.4093 C   0  0  0  0  0  0  0  0  0  0  0  0
  -12.3985   -2.2610   16.5021 O   0  0  0  0  0  0  0  0  0  0  0  0
  -12.1484    0.6432   17.6147 N   0  0  0  0  0  0  0  0  0  0  0  0
  -11.6236    1.6525   18.3693 C   0  0  0  0  0  0  0  0  0  0  0  0
  -10.5820    1.2245   19.1133 N   0  0  1  0  0  0  0  0  0  0  0  0
   -7.3592   -1.8431   11.8776 N   0  0  0  0  0  0  0  0  0  0  0  0
   -5.5111    0.7895   18.8267 O   0  5  0  0  0  0  0  0  0  0  0  0
   -7.7487   -0.6152   11.4380 C   0  0  2  0  0  0  0  0  0  0  0  0
   -8.6228   -0.5281   10.4014 N   0  0  0  0  0  0  0  0  0  0  0  0
   -3.6798    2.9855   19.3386 O   0  0  0  0  0  0  0  0  0  0  0  0
   -7.2887    0.5335   12.0048 N   0  0  0  0  0  0  0  0  0  0  0  0
   -6.4117    0.5114   13.0356 C   0  0  2  0  0  0  0  0  0  0  0  0
   -5.9565   -0.7846   13.5561 C   0  0  2  0  0  0  0  0  0  0  0  0
   -6.4955   -1.9969   12.9036 C   0  0  0  0  0  0  0  0  0  0  0  0
   -6.1351   -3.2370   13.3169 O   0  0  0  0  0  0  0  0  0  0  0  0
   -5.1111   -0.5167   14.5710 N   0  0  0  0  0  0  0  0  0  0  0  0
   -5.0291    0.8423   14.6870 C   0  0  0  0  0  0  0  0  0  0  0  0
   -5.8113    1.4518   13.7675 N   0  0  1  0  0  0  0  0  0  0  0  0
  1  3  1  6  0  0  0
  1  4  2  0  0  0  0
  1  6  1  0  0  0  0
  1 22  1  0  0  0  0
  2 28  1  0  0  0  0
  2 35  1  1  0  0  0
  2 38  2  0  0  0  0
  2 10  1  0  0  0  0
  5  6  1  0  0  0  0
  7  5  1  6  0  0  0
  7  8  1  0  0  0  0
  7  9  1  0  0  0  0
  9 10  1  1  0  0  0
  9 11  1  0  0  0  0
 11 12  1  1  0  0  0
 11 13  1  0  0  0  0
 13  8  1  6  0  0  0
 13 33  1  0  0  0  0
 14 46  1  0  0  0  0
 14 17  1  0  0  0  0
 14 25  1  1  0  0  0
 15 16  1  0  0  0  0
 15 29  1  0  0  0  0
 16 18  1  6  0  0  0
 16 21  1  0  0  0  0
 17 19  1  6  0  0  0
 17 20  1  0  0  0  0
 20 22  1  6  0  0  0
 20 24  1  0  0  0  0
 23 21  1  6  0  0  0
 23 26  1  0  0  0  0
 23 33  1  0  0  0  0
 24 25  1  6  0  0  0
 24 27  1  0  0  0  0
 26 29  1  1  0  0  0
 26 31  1  0  0  0  0
 27 28  1  0  0  0  0
 29 30  2  0  0  0  0
 31 32  1  0  0  0  0
 33 32  1  1  0  0  0
 34 36  1  0  0  0  0
 34 42  1  0  0  0  0
 36 37  1  6  0  0  0
 36 39  1  0  0  0  0
 40 39  1  1  0  0  0
 40 41  1  0  0  0  0
 40 46  1  0  0  0  0
 41 42  1  1  0  0  0
 41 44  1  0  0  0  0
 42 43  2  0  0  0  0
 44 45  1  0  0  0  0
 46 45  1  6  0  0  0
M  CHG  2   3  -1  35  -1
M  END
>  <CHROM.1>
162.62880250,66.34727057,-8.02764525,1.70275844,16.44913058,-2.24501294,-0.98872432
-2.48325547

>  <Name>
ligand

>  <RI>
-1

>  <Rbt.Current_Directory>
/home/itssahil/PROJECTS/Mol_Feturizer/Test_systems_manuscript/rnas/3mum

>  <Rbt.Executable>
rbdock ($Id: //depot/dev/client3/rdock/2013.1/src/exe/rbdock.cxx#4 $)

>  <Rbt.Library>
libRbt.so (2013.1, Build901 2013/11/27)

>  <Rbt.Parameter_File>
/export/apps/rDock/src/rDock_2013.1_src/data/scripts/dock_solv.prm

>  <Rbt.Receptor>
prm/pocket_docking_4.prm

>  <SCORE>
-40.5033

>  <SCORE.INTER>
-40.5086

>  <SCORE.INTER.CONST>
1

>  <SCORE.INTER.POLAR>
0

>  <SCORE.INTER.ROT>
2

>  <SCORE.INTER.SOLV>
38.4295

>  <SCORE.INTER.VDW>
-44.7489

>  <SCORE.INTER.norm>
-0.880622

>  <SCORE.INTRA>
0.00528157

>  <SCORE.INTRA.DIHEDRAL>
0.00129364

>  <SCORE.INTRA.DIHEDRAL.0>
2.40424

>  <SCORE.INTRA.POLAR>
0

>  <SCORE.INTRA.POLAR.0>
0

>  <SCORE.INTRA.REPUL>
0

>  <SCORE.INTRA.REPUL.0>
0

>  <SCORE.INTRA.SOLV>
0.00128976

>  <SCORE.INTRA.SOLV.lig_0>
-134.169

>  <SCORE.INTRA.VDW>
0.00398987

>  <SCORE.INTRA.VDW.0>
-2.18386

>  <SCORE.INTRA.norm>
0.000114817

>  <SCORE.RESTR>
0

>  <SCORE.RESTR.CAVITY>
0

>  <SCORE.RESTR.norm>
0

>  <SCORE.SYSTEM>
0

>  <SCORE.SYSTEM.CONST>
0

>  <SCORE.SYSTEM.DIHEDRAL>
0

>  <SCORE.SYSTEM.SOLV>
0

>  <SCORE.SYSTEM.norm>
0

>  <SCORE.heavy>
46

>  <SCORE.norm>
-0.880507

>  <RMSD>
0.163

$$$$
ligand
 OpenBabel02271912143D
libRbt.so/2013.1/901 2013/11/27
 46 52  0  0  0  0  0  0  0  0999 V2000
   -9.7539    4.9285   15.6400 P   0  0  1  0  0  0  0  0  0  0  0  0
   -5.2847    2.5718   18.6646 P   0  0  2  0  0  0  0  0  0  0  0  0
  -10.4977    3.7068   14.5931 O   0  5  0  0  0  0  0  0  0  0  0  0
  -10.6255    6.4820   15.5598 O   0  0  0  0  0  0  0  0  0  0  0  0
   -9.1153    5.0918   18.2069 C   0  0  0  0  0  0  0  0  0  0  0  0
   -9.7493    4.3684   17.1518 O   0  0  0  0  0  0  0  0  0  0  0  0
   -8.8467    4.1371   19.3545 C   0  0  1  0  0  0  0  0  0  0  0  0
  -10.0630    3.4654   19.7117 O   0  0  0  0  0  0  0  0  0  0  0  0
   -7.8616    3.0350   19.0006 C   0  0  1  0  0  0  0  0  0  0  0  0
   -6.5162    3.4006   19.2997 O   0  0  0  0  0  0  0  0  0  0  0  0
   -8.3341    1.8654   19.8460 C   0  0  1  0  0  0  0  0  0  0  0  0
   -7.7078    1.9042   21.1307 O   0  0  0  0  0  0  0  0  0  0  0  0
   -9.8247    2.0846   20.0267 C   0  0  2  0  0  0  0  0  0  0  0  0
   -5.9871    2.9280   13.5697 C   0  0  1  0  0  0  0  0  0  0  0  0
  -10.5576   -2.7249   17.8998 N   0  0  0  0  0  0  0  0  0  0  0  0
   -9.6301   -2.3227   18.8111 C   0  0  1  0  0  0  0  0  0  0  0  0
   -7.4007    3.3257   13.8875 C   0  0  2  0  0  0  0  0  0  0  0  0
   -8.7461   -3.2380   19.2707 N   0  0  0  0  0  0  0  0  0  0  0  0
   -7.8171    4.2073   12.8433 O   0  0  0  0  0  0  0  0  0  0  0  0
   -7.3118    4.0305   15.2266 C   0  0  2  0  0  0  0  0  0  0  0  0
   -9.5560   -1.0392   19.2737 N   0  0  0  0  0  0  0  0  0  0  0  0
   -8.1964    5.1404   15.2963 O   0  0  0  0  0  0  0  0  0  0  0  0
  -10.4205   -0.0848   18.8455 C   0  0  2  0  0  0  0  0  0  0  0  0
   -5.8748    4.5044   15.3221 C   0  0  2  0  0  0  0  0  0  0  0  0
   -5.1297    3.6783   14.4289 O   0  0  0  0  0  0  0  0  0  0  0  0
  -11.4429   -0.4669   17.8560 C   0  0  1  0  0  0  0  0  0  0  0  0
   -5.3020    4.3778   16.7293 C   0  0  0  0  0  0  0  0  0  0  0  0
   -5.3050    3.0012   17.1128 O   0  0  0  0  0  0  0  0  0  0  0  0
  -11.4730   -1.8664   17.3952 C   0  0  0  0  0  0  0  0  0  0  0  0
  -12.3920   -2.2753   16.4840 O   0  0  0  0  0  0  0  0  0  0  0  0
  -12.1580    0.6321   17.5918 N   0  0  0  0  0  0  0  0  0  0  0  0
  -11.6408    1.6449   18.3471 C   0  0  0  0  0  0  0  0  0  0  0  0
  -10.6016    1.2221   19.0974 N   0  0  1  0  0  0  0  0  0  0  0  0
   -7.3828   -1.8349   11.9162 N   0  0  0  0  0  0  0  0  0  0  0  0
   -5.5275    0.8127   18.8306 O   0  5  0  0  0  0  0  0  0  0  0  0
   -7.7824   -0.6093   11.4792 C   0  0  2  0  0  0  0  0  0  0  0  0
   -8.6737   -0.5276   10.4569 N   0  0  0  0  0  0  0  0  0  0  0  0
   -3.7094    3.0184   19.3478 O   0  0  0  0  0  0  0  0  0  0  0  0
   -7.3158    0.5422   12.0347 N   0  0  0  0  0  0  0  0  0  0  0  0
   -6.4219    0.5254   13.0509 C   0  0  2  0  0  0  0  0  0  0  0  0
   -5.9551   -0.7678   13.5679 C   0  0  2  0  0  0  0  0  0  0  0  0
   -6.5019   -1.9835   12.9282 C   0  0  0  0  0  0  0  0  0  0  0  0
   -6.1319   -3.2214   13.3394 O   0  0  0  0  0  0  0  0  0  0  0  0
   -5.0937   -0.4947   14.5678 N   0  0  0  0  0  0  0  0  0  0  0  0
   -5.0130    0.8648   14.6782 C   0  0  0  0  0  0  0  0  0  0  0  0
   -5.8117    1.4695   13.7698 N   0  0  1  0  0  0  0  0  0  0  0  0
  1  3  1  6  0  0  0
  1  4  2  0  0  0  0
  1  6  1  0  0  0  0
  1 22  1  0  0  0  0
  2 28  1  0  0  0  0
  2 35  1  1  0  0  0
  2 38  2  0  0  0  0
  2 10  1  0  0  0  0
  5  6  1  0  0  0  0
  7  5  1  6  0  0  0
  7  8  1  0  0  0  0
  7  9  1  0  0  0  0
  9 10  1  1  0  0  0
  9 11  1  0  0  0  0
 11 12  1  1  0  0  0
 11 13  1  0  0  0  0
 13  8  1  6  0  0  0
 13 33  1  0  0  0  0
 14 46  1  0  0  0  0
 14 17  1  0  0  0  0
 14 25  1  1  0  0  0
 15 16  1  0  0  0  0
 15 29  1  0  0  0  0
 16 18  1  6  0  0  0
 16 21  1  0  0  0  0
 17 19  1  6  0  0  0
 17 20  1  0  0  0  0
 20 22  1  6  0  0  0
 20 24  1  0  0  0  0
 23 21  1  6  0  0  0
 23 26  1  0  0  0  0
 23 33  1  0  0  0  0
 24 25  1  6  0  0  0
 24 27  1  0  0  0  0
 26 29  1  1  0  0  0
 26 31  1  0  0  0  0
 27 28  1  0  0  0  0
 29 30  2  0  0  0  0
 31 32  1  0  0  0  0
 33 32  1  1  0  0  0
 34 36  1  0  0  0  0
 34 42  1  0  0  0  0
 36 37  1  6  0  0  0
 36 39  1  0  0  0  0
 40 39  1  1  0  0  0
 40 41  1  0  0  0  0
 40 46  1  0  0  0  0
 41 42  1  1  0  0  0
 41 44  1  0  0  0  0
 42 43  2  0  0  0  0
 44 45  1  0  0  0  0
 46 45  1  6  0  0  0
M  CHG  2   3  -1  35  -1
M  END
>  <CHROM.1>
162.77082056,65.16180756,-8.04519468,1.71110494,16.44755780,-2.25006693,-0.98806335
-2.48800535

>  <Name>
ligand

>  <RI>
-1

>  <Rbt.Current_Directory>
/home/itssahil/PROJECTS/Mol_Feturizer/Test_systems_manuscript/rnas/3mum

>  <Rbt.Executable>
rbdock ($Id: //depot/dev/client3/rdock/2013.1/src/exe/rbdock.cxx#4 $)

>  <Rbt.Library>
libRbt.so (2013.1, Build901 2013/11/27)

>  <Rbt.Parameter_File>
/export/apps/rDock/src/rDock_2013.1_src/data/scripts/dock_solv.prm

>  <Rbt.Receptor>
prm/pocket_docking_4.prm

>  <SCORE>
-40.5836

>  <SCORE.INTER>
-40.5822

>  <SCORE.INTER.CONST>
1

>  <SCORE.INTER.POLAR>
0

>  <SCORE.INTER.ROT>
2

>  <SCORE.INTER.SOLV>
38.4729

>  <SCORE.INTER.VDW>
-44.8124

>  <SCORE.INTER.norm>
-0.882221

>  <SCORE.INTRA>
-0.0014076

>  <SCORE.INTRA.DIHEDRAL>
-0.000335141

>  <SCORE.INTRA.DIHEDRAL.0>
2.40424

>  <SCORE.INTRA.POLAR>
0

>  <SCORE.INTRA.POLAR.0>
0

>  <SCORE.INTRA.REPUL>
0

>  <SCORE.INTRA.REPUL.0>
0

>  <SCORE.INTRA.SOLV>
0.00285819

>  <SCORE.INTRA.SOLV.lig_0>
-134.169

>  <SCORE.INTRA.VDW>
-0.00266912

>  <SCORE.INTRA.VDW.0>
-2.18386

>  <SCORE.INTRA.norm>
-3.06e-05

>  <SCORE.RESTR>
0

>  <SCORE.RESTR.CAVITY>
0

>  <SCORE.RESTR.norm>
0

>  <SCORE.SYSTEM>
0

>  <SCORE.SYSTEM.CONST>
0

>  <SCORE.SYSTEM.DIHEDRAL>
0

>  <SCORE.SYSTEM.SOLV>
0

>  <SCORE.SYSTEM.norm>
0

>  <SCORE.heavy>
46

>  <SCORE.norm>
-0.882252

>  <RMSD>
0.163

$$$$
ligand
 OpenBabel02271912143D
libRbt.so/2013.1/901 2013/11/27
 46 52  0  0  0  0  0  0  0  0999 V2000
   -9.7544    4.9229   15.6448 P   0  0  1  0  0  0  0  0  0  0  0  0
   -5.2807    2.5685   18.6648 P   0  0  2  0  0  0  0  0  0  0  0  0
  -10.5001    3.7002   14.6005 O   0  5  0  0  0  0  0  0  0  0  0  0
  -10.6258    6.4764   15.5644 O   0  0  0  0  0  0  0  0  0  0  0  0
   -9.1116    5.0888   18.2105 C   0  0  0  0  0  0  0  0  0  0  0  0
   -9.7474    4.3644   17.1572 O   0  0  0  0  0  0  0  0  0  0  0  0
   -8.8413    4.1352   19.3588 C   0  0  1  0  0  0  0  0  0  0  0  0
  -10.0571    3.4642   19.7186 O   0  0  0  0  0  0  0  0  0  0  0  0
   -7.8569    3.0326   19.0044 C   0  0  1  0  0  0  0  0  0  0  0  0
   -6.5110    3.3983   19.3010 O   0  0  0  0  0  0  0  0  0  0  0  0
   -8.3284    1.8639   19.8518 C   0  0  1  0  0  0  0  0  0  0  0  0
   -7.6999    1.9040   21.1355 O   0  0  0  0  0  0  0  0  0  0  0  0
   -9.8186    2.0837   20.0348 C   0  0  2  0  0  0  0  0  0  0  0  0
   -5.9913    2.9194   13.5707 C   0  0  1  0  0  0  0  0  0  0  0  0
  -10.5498   -2.7258   17.9070 N   0  0  0  0  0  0  0  0  0  0  0  0
   -9.6198   -2.3224   18.8152 C   0  0  1  0  0  0  0  0  0  0  0  0
   -7.4042    3.3177   13.8903 C   0  0  2  0  0  0  0  0  0  0  0  0
   -8.7324   -3.2363   19.2710 N   0  0  0  0  0  0  0  0  0  0  0  0
   -7.8222    4.1983   12.8458 O   0  0  0  0  0  0  0  0  0  0  0  0
   -7.3130    4.0239   15.2285 C   0  0  2  0  0  0  0  0  0  0  0  0
   -9.5465   -1.0391   19.2785 N   0  0  0  0  0  0  0  0  0  0  0  0
   -8.1973    5.1341   15.2984 O   0  0  0  0  0  0  0  0  0  0  0  0
  -10.4144   -0.0861   18.8541 C   0  0  2  0  0  0  0  0  0  0  0  0
   -5.8758    4.4976   15.3211 C   0  0  2  0  0  0  0  0  0  0  0  0
   -5.1323    3.6705   14.4276 O   0  0  0  0  0  0  0  0  0  0  0  0
  -11.4396   -0.4694   17.8681 C   0  0  1  0  0  0  0  0  0  0  0  0
   -5.3007    4.3724   16.7276 C   0  0  0  0  0  0  0  0  0  0  0  0
   -5.3034    2.9963   17.1126 O   0  0  0  0  0  0  0  0  0  0  0  0
  -11.4686   -1.8687   17.4063 C   0  0  0  0  0  0  0  0  0  0  0  0
  -12.3901   -2.2787   16.4981 O   0  0  0  0  0  0  0  0  0  0  0  0
  -12.1578    0.6284   17.6072 N   0  0  0  0  0  0  0  0  0  0  0  0
  -11.6398    1.6416   18.3613 C   0  0  0  0  0  0  0  0  0  0  0  0
  -10.5971    1.2203   19.1076 N   0  0  1  0  0  0  0  0  0  0  0  0
   -7.3864   -1.8451   11.9209 N   0  0  0  0  0  0  0  0  0  0  0  0
   -5.5235    0.8097   18.8331 O   0  5  0  0  0  0  0  0  0  0  0  0
   -7.7860   -0.6198   11.4828 C   0  0  2  0  0  0  0  0  0  0  0  0
   -8.6770   -0.5390   10.4603 N   0  0  0  0  0  0  0  0  0  0  0  0
   -3.7042    3.0156   19.3450 O   0  0  0  0  0  0  0  0  0  0  0  0
   -7.3196    0.5322   12.0374 N   0  0  0  0  0  0  0  0  0  0  0  0
   -6.4258    0.5164   13.0538 C   0  0  2  0  0  0  0  0  0  0  0  0
   -5.9590   -0.7764   13.5720 C   0  0  2  0  0  0  0  0  0  0  0  0
   -6.5057   -1.9926   12.9333 C   0  0  0  0  0  0  0  0  0  0  0  0
   -6.1357   -3.2302   13.3456 O   0  0  0  0  0  0  0  0  0  0  0  0
   -5.0978   -0.5024   14.5719 N   0  0  0  0  0  0  0  0  0  0  0  0
   -5.0172    0.8572   14.6810 C   0  0  0  0  0  0  0  0  0  0  0  0
   -5.8158    1.4611   13.7720 N   0  0  1  0  0  0  0  0  0  0  0  0
  1  3  1  6  0  0  0
  1  4  2  0  0  0  0
  1  6  1  0  0  0  0
  1 22  1  0  0  0  0
  2 28  1  0  0  0  0
  2 35  1  1  0  0  0
  2 38  2  0  0  0  0
  2 10  1  0  0  0  0
  5  6  1  0  0  0  0
  7  5  1  6  0  0  0
  7  8  1  0  0  0  0
  7  9  1  0  0  0  0
  9 10  1  1  0  0  0
  9 11  1  0  0  0  0
 11 12  1  1  0  0  0
 11 13  1  0  0  0  0
 13  8  1  6  0  0  0
 13 33  1  0  0  0  0
 14 46  1  0  0  0  0
 14 17  1  0  0  0  0
 14 25  1  1  0  0  0
 15 16  1  0  0  0  0
 15 29  1  0  0  0  0
 16 18  1  6  0  0  0
 16 21  1  0  0  0  0
 17 19  1  6  0  0  0
 17 20  1  0  0  0  0
 20 22  1  6  0  0  0
 20 24  1  0  0  0  0
 23 21  1  6  0  0  0
 23 26  1  0  0  0  0
 23 33  1  0  0  0  0
 24 25  1  6  0  0  0
 24 27  1  0  0  0  0
 26 29  1  1  0  0  0
 26 31  1  0  0  0  0
 27 28  1  0  0  0  0
 29 30  2  0  0  0  0
 31 32  1  0  0  0  0
 33 32  1  1  0  0  0
 34 36  1  0  0  0  0
 34 42  1  0  0  0  0
 36 37  1  6  0  0  0
 36 39  1  0  0  0  0
 40 39  1  1  0  0  0
 40 41  1  0  0  0  0
 40 46  1  0  0  0  0
 41 42  1  1  0  0  0
 41 44  1  0  0  0  0
 42 43  2  0  0  0  0
 44 45  1  0  0  0  0
 46 45  1  6  0  0  0
M  CHG  2   3  -1  35  -1
M  END
>  <CHROM.1>
162.57491748,65.26673506,-8.04381850,1.70622474,16.45195414,-2.24488256,-0.98920234
-2.48809818

>  <Name>
ligand

>  <RI>
416

>  <Rbt.Current_Directory>
/home/itssahil/PROJECTS/Mol_Feturizer/Test_systems_manuscript/rnas/3mum

>  <Rbt.Executable>
rbdock ($Id: //depot/dev/client3/rdock/2013.1/src/exe/rbdock.cxx#4 $)

>  <Rbt.Library>
libRbt.so (2013.1, Build901 2013/11/27)

>  <Rbt.Parameter_File>
/export/apps/rDock/src/rDock_2013.1_src/data/scripts/dock_solv.prm

>  <Rbt.Receptor>
prm/pocket_docking_3.prm

>  <SCORE>
-40.5087

>  <SCORE.INTER>
-40.5253

>  <SCORE.INTER.CONST>
1

>  <SCORE.INTER.POLAR>
0

>  <SCORE.INTER.ROT>
2

>  <SCORE.INTER.SOLV>
38.4737

>  <SCORE.INTER.VDW>
-44.7747

>  <SCORE.INTER.norm>
-0.880984

>  <SCORE.INTRA>
0.0166162

>  <SCORE.INTRA.DIHEDRAL>
-0.000211118

>  <SCORE.INTRA.DIHEDRAL.0>
2.40424

>  <SCORE.INTRA.POLAR>
0

>  <SCORE.INTRA.POLAR.0>
0

>  <SCORE.INTRA.REPUL>
0

>  <SCORE.INTRA.REPUL.0>
0

>  <SCORE.INTRA.SOLV>
0.00280778

>  <SCORE.INTRA.SOLV.lig_0>
-134.169

>  <SCORE.INTRA.VDW>
0.0153178

>  <SCORE.INTRA.VDW.0>
-2.18386

>  <SCORE.INTRA.norm>
0.000361221

>  <SCORE.RESTR>
0

>  <SCORE.RESTR.CAVITY>
0

>  <SCORE.RESTR.norm>
0

>  <SCORE.SYSTEM>
0

>  <SCORE.SYSTEM.CONST>
0

>  <SCORE.SYSTEM.DIHEDRAL>
0

>  <SCORE.SYSTEM.SOLV>
0

>  <SCORE.SYSTEM.norm>
0

>  <SCORE.heavy>
46

>  <SCORE.norm>
-0.880623

>  <RMSD>
0.164

$$$$
ligand
 OpenBabel02271912143D
libRbt.so/2013.1/901 2013/11/27
 46 52  0  0  0  0  0  0  0  0999 V2000
   -9.7198    4.9274   15.6698 P   0  0  1  0  0  0  0  0  0  0  0  0
   -5.2756    2.4738   18.6539 P   0  0  2  0  0  0  0  0  0  0  0  0
  -10.4723    3.7327   14.5982 O   0  5  0  0  0  0  0  0  0  0  0  0
  -10.5781    6.4894   15.6189 O   0  0  0  0  0  0  0  0  0  0  0  0
   -9.0839    5.0348   18.2403 C   0  0  0  0  0  0  0  0  0  0  0  0
   -9.7223    4.3377   17.1704 O   0  0  0  0  0  0  0  0  0  0  0  0
   -8.8252    4.0556   19.3694 C   0  0  1  0  0  0  0  0  0  0  0  0
  -10.0477    3.3875   19.7117 O   0  0  0  0  0  0  0  0  0  0  0  0
   -7.8489    2.9523   18.9953 C   0  0  1  0  0  0  0  0  0  0  0  0
   -6.5009    3.3005   19.3034 O   0  0  0  0  0  0  0  0  0  0  0  0
   -8.3327    1.7704   19.8170 C   0  0  1  0  0  0  0  0  0  0  0  0
   -7.7081    1.7787   21.1031 O   0  0  0  0  0  0  0  0  0  0  0  0
   -9.8216    1.9988   19.9999 C   0  0  2  0  0  0  0  0  0  0  0  0
   -5.9669    2.9357   13.5660 C   0  0  1  0  0  0  0  0  0  0  0  0
  -10.7690   -2.8163   17.9726 N   0  0  0  0  0  0  0  0  0  0  0  0
   -9.8673   -2.4486   18.9234 C   0  0  1  0  0  0  0  0  0  0  0  0
   -7.3775    3.3391   13.8896 C   0  0  2  0  0  0  0  0  0  0  0  0
   -9.0756   -3.4064   19.4586 N   0  0  0  0  0  0  0  0  0  0  0  0
   -7.7848    4.2446   12.8623 O   0  0  0  0  0  0  0  0  0  0  0  0
   -7.2847    4.0167   15.2423 C   0  0  2  0  0  0  0  0  0  0  0  0
   -9.7297   -1.1588   19.3527 N   0  0  0  0  0  0  0  0  0  0  0  0
   -8.1600    5.1326   15.3326 O   0  0  0  0  0  0  0  0  0  0  0  0
  -10.5009   -0.1624   18.8490 C   0  0  2  0  0  0  0  0  0  0  0  0
   -5.8440    4.4764   15.3491 C   0  0  2  0  0  0  0  0  0  0  0  0
   -5.1045    3.6617   14.4409 O   0  0  0  0  0  0  0  0  0  0  0  0
  -11.4916   -0.5061   17.8141 C   0  0  1  0  0  0  0  0  0  0  0  0
   -5.2744    4.3174   16.7544 C   0  0  0  0  0  0  0  0  0  0  0  0
   -5.2897    2.9337   17.1109 O   0  0  0  0  0  0  0  0  0  0  0  0
  -11.5934   -1.9146   17.3924 C   0  0  0  0  0  0  0  0  0  0  0  0
  -12.4872   -2.2894   16.4423 O   0  0  0  0  0  0  0  0  0  0  0  0
  -12.1130    0.6298   17.4783 N   0  0  0  0  0  0  0  0  0  0  0  0
  -11.5689    1.6290   18.2326 C   0  0  0  0  0  0  0  0  0  0  0  0
  -10.6044    1.1613   19.0527 N   0  0  1  0  0  0  0  0  0  0  0  0
   -7.3768   -1.7816   11.7976 N   0  0  0  0  0  0  0  0  0  0  0  0
   -5.5335    0.7139   18.7851 O   0  5  0  0  0  0  0  0  0  0  0  0
   -7.7625   -0.5442   11.3816 C   0  0  2  0  0  0  0  0  0  0  0  0
   -8.6411   -0.4348   10.3509 N   0  0  0  0  0  0  0  0  0  0  0  0
   -3.6976    2.8935   19.3480 O   0  0  0  0  0  0  0  0  0  0  0  0
   -7.2943    0.5920   11.9663 N   0  0  0  0  0  0  0  0  0  0  0  0
   -6.4125    0.5476   12.9923 C   0  0  2  0  0  0  0  0  0  0  0  0
   -5.9610   -0.7594   13.4877 C   0  0  2  0  0  0  0  0  0  0  0  0
   -6.5089   -1.9575   12.8165 C   0  0  0  0  0  0  0  0  0  0  0  0
   -6.1526   -3.2064   13.2061 O   0  0  0  0  0  0  0  0  0  0  0  0
   -5.1096   -0.5135   14.5030 N   0  0  0  0  0  0  0  0  0  0  0  0
   -5.0205    0.8429   14.6425 C   0  0  0  0  0  0  0  0  0  0  0  0
   -5.8042    1.4722   13.7377 N   0  0  1  0  0  0  0  0  0  0  0  0
  1  3  1  6  0  0  0
  1  4  2  0  0  0  0
  1  6  1  0  0  0  0
  1 22  1  0  0  0  0
  2 28  1  0  0  0  0
  2 35  1  1  0  0  0
  2 38  2  0  0  0  0
  2 10  1  0  0  0  0
  5  6  1  0  0  0  0
  7  5  1  6  0  0  0
  7  8  1  0  0  0  0
  7  9  1  0  0  0  0
  9 10  1  1  0  0  0
  9 11  1  0  0  0  0
 11 12  1  1  0  0  0
 11 13  1  0  0  0  0
 13  8  1  6  0  0  0
 13 33  1  0  0  0  0
 14 46  1  0  0  0  0
 14 17  1  0  0  0  0
 14 25  1  1  0  0  0
 15 16  1  0  0  0  0
 15 29  1  0  0  0  0
 16 18  1  6  0  0  0
 16 21  1  0  0  0  0
 17 19  1  6  0  0  0
 17 20  1  0  0  0  0
 20 22  1  6  0  0  0
 20 24  1  0  0  0  0
 23 21  1  6  0  0  0
 23 26  1  0  0  0  0
 23 33  1  0  0  0  0
 24 25  1  6  0  0  0
 24 27  1  0  0  0  0
 26 29  1  1  0  0  0
 26 31  1  0  0  0  0
 27 28  1  0  0  0  0
 29 30  2  0  0  0  0
 31 32  1  0  0  0  0
 33 32  1  1  0  0  0
 34 36  1  0  0  0  0
 34 42  1  0  0  0  0
 36 37  1  6  0  0  0
 36 39  1  0  0  0  0
 40 39  1  1  0  0  0
 40 41  1  0  0  0  0
 40 46  1  0  0  0  0
 41 42  1  1  0  0  0
 41 44  1  0  0  0  0
 42 43  2  0  0  0  0
 44 45  1  0  0  0  0
 46 45  1  6  0  0  0
M  CHG  2   3  -1  35  -1
M  END
>  <CHROM.1>
168.23915556,65.75574749,-8.05627190,1.67439856,16.43541240,-2.36133169,-0.98216636
-2.45294464

>  <Name>
ligand

>  <RI>
416

>  <Rbt.Current_Directory>
/home/itssahil/PROJECTS/Mol_Feturizer/Test_systems_manuscript/rnas/3mum

>  <Rbt.Executable>
rbdock ($Id: //depot/dev/client3/rdock/2013.1/src/exe/rbdock.cxx#4 $)

>  <Rbt.Library>
libRbt.so (2013.1, Build901 2013/11/27)

>  <Rbt.Parameter_File>
/export/apps/rDock/src/rDock_2013.1_src/data/scripts/dock_solv.prm

>  <Rbt.Receptor>
prm/pocket_docking_2.prm

>  <SCORE>
-40.1768

>  <SCORE.INTER>
-40.1817

>  <SCORE.INTER.CONST>
1

>  <SCORE.INTER.POLAR>
0

>  <SCORE.INTER.ROT>
2

>  <SCORE.INTER.SOLV>
39.4293

>  <SCORE.INTER.VDW>
-44.8643

>  <SCORE.INTER.norm>
-0.873516

>  <SCORE.INTRA>
0.00494397

>  <SCORE.INTRA.DIHEDRAL>
0.00123904

>  <SCORE.INTRA.DIHEDRAL.0>
2.40424

>  <SCORE.INTRA.POLAR>
0

>  <SCORE.INTRA.POLAR.0>
0

>  <SCORE.INTRA.REPUL>
0

>  <SCORE.INTRA.REPUL.0>
0

>  <SCORE.INTRA.SOLV>
-0.000545719

>  <SCORE.INTRA.SOLV.lig_0>
-134.169

>  <SCORE.INTRA.VDW>
0.00459731

>  <SCORE.INTRA.VDW.0>
-2.18386

>  <SCORE.INTRA.norm>
0.000107478

>  <SCORE.RESTR>
0

>  <SCORE.RESTR.CAVITY>
0

>  <SCORE.RESTR.norm>
0

>  <SCORE.SYSTEM>
0

>  <SCORE.SYSTEM.CONST>
0

>  <SCORE.SYSTEM.DIHEDRAL>
0

>  <SCORE.SYSTEM.SOLV>
0

>  <SCORE.SYSTEM.norm>
0

>  <SCORE.heavy>
46

>  <SCORE.norm>
-0.873408

>  <RMSD>
0.167

$$$$
ligand
 OpenBabel02271912143D
libRbt.so/2013.1/901 2013/11/27
 46 52  0  0  0  0  0  0  0  0999 V2000
   -9.7554    4.9164   15.6032 P   0  0  1  0  0  0  0  0  0  0  0  0
   -5.2871    2.5720   18.6387 P   0  0  2  0  0  0  0  0  0  0  0  0
  -10.5041    3.6884   14.5672 O   0  5  0  0  0  0  0  0  0  0  0  0
  -10.6232    6.4714   15.5123 O   0  0  0  0  0  0  0  0  0  0  0  0
   -9.1120    5.0981   18.1677 C   0  0  0  0  0  0  0  0  0  0  0  0
   -9.7496    4.3681   17.1194 O   0  0  0  0  0  0  0  0  0  0  0  0
   -8.8439    4.1518   19.3223 C   0  0  1  0  0  0  0  0  0  0  0  0
  -10.0612    3.4861   19.6868 O   0  0  0  0  0  0  0  0  0  0  0  0
   -7.8621    3.0444   18.9754 C   0  0  1  0  0  0  0  0  0  0  0  0
   -6.5153    3.4089   19.2693 O   0  0  0  0  0  0  0  0  0  0  0  0
   -8.3363    1.8827   19.8307 C   0  0  1  0  0  0  0  0  0  0  0  0
   -7.7076    1.9300   21.1141 O   0  0  0  0  0  0  0  0  0  0  0  0
   -9.8259    2.1072   20.0123 C   0  0  2  0  0  0  0  0  0  0  0  0
   -5.9973    2.8901   13.5424 C   0  0  1  0  0  0  0  0  0  0  0  0
  -10.5659   -2.7138   17.9139 N   0  0  0  0  0  0  0  0  0  0  0  0
   -9.6345   -2.3063   18.8188 C   0  0  1  0  0  0  0  0  0  0  0  0
   -7.4093    3.2938   13.8594 C   0  0  2  0  0  0  0  0  0  0  0  0
   -8.7478   -3.2188   19.2791 N   0  0  0  0  0  0  0  0  0  0  0  0
   -7.8252    4.1683   12.8090 O   0  0  0  0  0  0  0  0  0  0  0  0
   -7.3162    4.0088   15.1928 C   0  0  2  0  0  0  0  0  0  0  0  0
   -9.5589   -1.0204   19.2743 N   0  0  0  0  0  0  0  0  0  0  0  0
   -8.1979    5.1216   15.2553 O   0  0  0  0  0  0  0  0  0  0  0  0
  -10.4259   -0.0687   18.8452 C   0  0  2  0  0  0  0  0  0  0  0  0
   -5.8780    4.4798   15.2821 C   0  0  2  0  0  0  0  0  0  0  0  0
   -5.1365    3.6449   14.3942 O   0  0  0  0  0  0  0  0  0  0  0  0
  -11.4527   -0.4565   17.8624 C   0  0  1  0  0  0  0  0  0  0  0  0
   -5.3030    4.3628   16.6893 C   0  0  0  0  0  0  0  0  0  0  0  0
   -5.3089    2.9892   17.0836 O   0  0  0  0  0  0  0  0  0  0  0  0
  -11.4841   -1.8585   17.4091 C   0  0  0  0  0  0  0  0  0  0  0  0
  -12.4071   -2.2726   16.5043 O   0  0  0  0  0  0  0  0  0  0  0  0
  -12.1696    0.6407   17.5958 N   0  0  0  0  0  0  0  0  0  0  0  0
  -11.6495    1.6577   18.3433 C   0  0  0  0  0  0  0  0  0  0  0  0
  -10.6066    1.2394   19.0910 N   0  0  1  0  0  0  0  0  0  0  0  0
   -7.3703   -1.8823   11.8969 N   0  0  0  0  0  0  0  0  0  0  0  0
   -5.5340    0.8149   18.8189 O   0  5  0  0  0  0  0  0  0  0  0  0
   -7.7632   -0.6592   11.4469 C   0  0  2  0  0  0  0  0  0  0  0  0
   -8.6395   -0.5833   10.4114 N   0  0  0  0  0  0  0  0  0  0  0  0
   -3.7094    3.0199   19.3157 O   0  0  0  0  0  0  0  0  0  0  0  0
   -7.3043    0.4955   12.0023 N   0  0  0  0  0  0  0  0  0  0  0  0
   -6.4252    0.4845   13.0315 C   0  0  2  0  0  0  0  0  0  0  0  0
   -5.9664   -0.8057   13.5629 C   0  0  2  0  0  0  0  0  0  0  0  0
   -6.5043   -2.0250   12.9225 C   0  0  0  0  0  0  0  0  0  0  0  0
   -6.1407   -3.2606   13.3464 O   0  0  0  0  0  0  0  0  0  0  0  0
   -5.1195   -0.5270   14.5735 N   0  0  0  0  0  0  0  0  0  0  0  0
   -5.0399    0.8332   14.6770 C   0  0  0  0  0  0  0  0  0  0  0  0
   -5.8252    1.4327   13.7536 N   0  0  1  0  0  0  0  0  0  0  0  0
  1  3  1  6  0  0  0
  1  4  2  0  0  0  0
  1  6  1  0  0  0  0
  1 22  1  0  0  0  0
  2 28  1  0  0  0  0
  2 35  1  1  0  0  0
  2 38  2  0  0  0  0
  2 10  1  0  0  0  0
  5  6  1  0  0  0  0
  7  5  1  6  0  0  0
  7  8  1  0  0  0  0
  7  9  1  0  0  0  0
  9 10  1  1  0  0  0
  9 11  1  0  0  0  0
 11 12  1  1  0  0  0
 11 13  1  0  0  0  0
 13  8  1  6  0  0  0
 13 33  1  0  0  0  0
 14 46  1  0  0  0  0
 14 17  1  0  0  0  0
 14 25  1  1  0  0  0
 15 16  1  0  0  0  0
 15 29  1  0  0  0  0
 16 18  1  6  0  0  0
 16 21  1  0  0  0  0
 17 19  1  6  0  0  0
 17 20  1  0  0  0  0
 20 22  1  6  0  0  0
 20 24  1  0  0  0  0
 23 21  1  6  0  0  0
 23 26  1  0  0  0  0
 23 33  1  0  0  0  0
 24 25  1  6  0  0  0
 24 27  1  0  0  0  0
 26 29  1  1  0  0  0
 26 31  1  0  0  0  0
 27 28  1  0  0  0  0
 29 30  2  0  0  0  0
 31 32  1  0  0  0  0
 33 32  1  1  0  0  0
 34 36  1  0  0  0  0
 34 42  1  0  0  0  0
 36 37  1  6  0  0  0
 36 39  1  0  0  0  0
 40 39  1  1  0  0  0
 40 41  1  0  0  0  0
 40 46  1  0  0  0  0
 41 42  1  1  0  0  0
 41 44  1  0  0  0  0
 42 43  2  0  0  0  0
 44 45  1  0  0  0  0
 46 45  1  6  0  0  0
M  CHG  2   3  -1  35  -1
M  END
>  <CHROM.1>
162.48431263,66.10641922,-8.04844099,1.70135074,16.42854590,-2.24632580,-0.98835726
-2.49595841

>  <Name>
ligand

>  <RI>
416

>  <Rbt.Current_Directory>
/home/itssahil/PROJECTS/Mol_Feturizer/Test_systems_manuscript/rnas/3mum

>  <Rbt.Executable>
rbdock ($Id: //depot/dev/client3/rdock/2013.1/src/exe/rbdock.cxx#4 $)

>  <Rbt.Library>
libRbt.so (2013.1, Build901 2013/11/27)

>  <Rbt.Parameter_File>
/export/apps/rDock/src/rDock_2013.1_src/data/scripts/dock_solv.prm

>  <Rbt.Receptor>
prm/pocket_docking_2.prm

>  <SCORE>
-40.5649

>  <SCORE.INTER>
-40.5737

>  <SCORE.INTER.CONST>
1

>  <SCORE.INTER.POLAR>
0

>  <SCORE.INTER.ROT>
2

>  <SCORE.INTER.SOLV>
38.4974

>  <SCORE.INTER.VDW>
-44.8149

>  <SCORE.INTER.norm>
-0.882037

>  <SCORE.INTRA>
0.00877118

>  <SCORE.INTRA.DIHEDRAL>
0.000945131

>  <SCORE.INTRA.DIHEDRAL.0>
2.40424

>  <SCORE.INTRA.POLAR>
0

>  <SCORE.INTRA.POLAR.0>
0

>  <SCORE.INTRA.REPUL>
0

>  <SCORE.INTRA.REPUL.0>
0

>  <SCORE.INTRA.SOLV>
0.00169338

>  <SCORE.INTRA.SOLV.lig_0>
-134.169

>  <SCORE.INTRA.VDW>
0.00745192

>  <SCORE.INTRA.VDW.0>
-2.18386

>  <SCORE.INTRA.norm>
0.000190678

>  <SCORE.RESTR>
0

>  <SCORE.RESTR.CAVITY>
0

>  <SCORE.RESTR.norm>
0

>  <SCORE.SYSTEM>
0

>  <SCORE.SYSTEM.CONST>
0

>  <SCORE.SYSTEM.DIHEDRAL>
0

>  <SCORE.SYSTEM.SOLV>
0

>  <SCORE.SYSTEM.norm>
0

>  <SCORE.heavy>
46

>  <SCORE.norm>
-0.881846

>  <RMSD>
0.167

$$$$
ligand
 OpenBabel02271912143D
libRbt.so/2013.1/901 2013/11/27
 46 52  0  0  0  0  0  0  0  0999 V2000
   -9.7332    4.9441   15.6452 P   0  0  1  0  0  0  0  0  0  0  0  0
   -5.2612    2.5543   18.6395 P   0  0  2  0  0  0  0  0  0  0  0  0
  -10.4895    3.7293   14.5992 O   0  5  0  0  0  0  0  0  0  0  0  0
  -10.5965    6.5026   15.5737 O   0  0  0  0  0  0  0  0  0  0  0  0
   -9.0799    5.0970   18.2090 C   0  0  0  0  0  0  0  0  0  0  0  0
   -9.7236    4.3800   17.1554 O   0  0  0  0  0  0  0  0  0  0  0  0
   -8.8105    4.1378   19.3527 C   0  0  1  0  0  0  0  0  0  0  0  0
  -10.0286    3.4721   19.7147 O   0  0  0  0  0  0  0  0  0  0  0  0
   -7.8335    3.0311   18.9906 C   0  0  1  0  0  0  0  0  0  0  0  0
   -6.4845    3.3884   19.2834 O   0  0  0  0  0  0  0  0  0  0  0  0
   -8.3081    1.8620   19.8355 C   0  0  1  0  0  0  0  0  0  0  0  0
   -7.6746    1.8939   21.1169 O   0  0  0  0  0  0  0  0  0  0  0  0
   -9.7964    2.0892   20.0249 C   0  0  2  0  0  0  0  0  0  0  0  0
   -5.9890    2.9278   13.5494 C   0  0  1  0  0  0  0  0  0  0  0  0
  -10.5466   -2.7026   17.8640 N   0  0  0  0  0  0  0  0  0  0  0  0
   -9.6086   -2.3067   18.7673 C   0  0  1  0  0  0  0  0  0  0  0  0
   -7.3985    3.3326   13.8759 C   0  0  2  0  0  0  0  0  0  0  0  0
   -8.7172   -3.2243   19.2077 N   0  0  0  0  0  0  0  0  0  0  0  0
   -7.8156    4.2193   12.8362 O   0  0  0  0  0  0  0  0  0  0  0  0
   -7.2984    4.0333   15.2162 C   0  0  2  0  0  0  0  0  0  0  0  0
   -9.5312   -1.0273   19.2405 N   0  0  0  0  0  0  0  0  0  0  0  0
   -8.1764    5.1481   15.2936 O   0  0  0  0  0  0  0  0  0  0  0  0
  -10.4027   -0.0708   18.8317 C   0  0  2  0  0  0  0  0  0  0  0  0
   -5.8583    4.4989   15.3052 C   0  0  2  0  0  0  0  0  0  0  0  0
   -5.1227    3.6710   14.4059 O   0  0  0  0  0  0  0  0  0  0  0  0
  -11.4366   -0.4460   17.8516 C   0  0  1  0  0  0  0  0  0  0  0  0
   -5.2786    4.3654   16.7090 C   0  0  0  0  0  0  0  0  0  0  0  0
   -5.2873    2.9879   17.0890 O   0  0  0  0  0  0  0  0  0  0  0  0
  -11.4698   -1.8414   17.3786 C   0  0  0  0  0  0  0  0  0  0  0  0
  -12.3993   -2.2439   16.4752 O   0  0  0  0  0  0  0  0  0  0  0  0
  -12.1570    0.6539   17.6061 N   0  0  0  0  0  0  0  0  0  0  0  0
  -11.6324    1.6609   18.3640 C   0  0  0  0  0  0  0  0  0  0  0  0
  -10.5832    1.2334   19.0975 N   0  0  1  0  0  0  0  0  0  0  0  0
   -7.3561   -1.8227   11.8372 N   0  0  0  0  0  0  0  0  0  0  0  0
   -5.5129    0.7962   18.8023 O   0  5  0  0  0  0  0  0  0  0  0  0
   -7.7436   -0.5938   11.3986 C   0  0  2  0  0  0  0  0  0  0  0  0
   -8.6117   -0.5043   10.3572 N   0  0  0  0  0  0  0  0  0  0  0  0
   -3.6797    2.9903   19.3153 O   0  0  0  0  0  0  0  0  0  0  0  0
   -7.2874    0.5536   11.9711 N   0  0  0  0  0  0  0  0  0  0  0  0
   -6.4164    0.5291   13.0069 C   0  0  2  0  0  0  0  0  0  0  0  0
   -5.9636   -0.7680   13.5266 C   0  0  2  0  0  0  0  0  0  0  0  0
   -6.4983   -1.9789   12.8677 C   0  0  0  0  0  0  0  0  0  0  0  0
   -6.1398   -3.2199   13.2798 O   0  0  0  0  0  0  0  0  0  0  0  0
   -5.1243   -0.5025   14.5470 N   0  0  0  0  0  0  0  0  0  0  0  0
   -5.0435    0.8562   14.6671 C   0  0  0  0  0  0  0  0  0  0  0  0
   -5.8207    1.4678   13.7447 N   0  0  1  0  0  0  0  0  0  0  0  0
  1  3  1  6  0  0  0
  1  4  2  0  0  0  0
  1  6  1  0  0  0  0
  1 22  1  0  0  0  0
  2 28  1  0  0  0  0
  2 35  1  1  0  0  0
  2 38  2  0  0  0  0
  2 10  1  0  0  0  0
  5  6  1  0  0  0  0
  7  5  1  6  0  0  0
  7  8  1  0  0  0  0
  7  9  1  0  0  0  0
  9 10  1  1  0  0  0
  9 11  1  0  0  0  0
 11 12  1  1  0  0  0
 11 13  1  0  0  0  0
 13  8  1  6  0  0  0
 13 33  1  0  0  0  0
 14 46  1  0  0  0  0
 14 17  1  0  0  0  0
 14 25  1  1  0  0  0
 15 16  1  0  0  0  0
 15 29  1  0  0  0  0
 16 18  1  6  0  0  0
 16 21  1  0  0  0  0
 17 19  1  6  0  0  0
 17 20  1  0  0  0  0
 20 22  1  6  0  0  0
 20 24  1  0  0  0  0
 23 21  1  6  0  0  0
 23 26  1  0  0  0  0
 23 33  1  0  0  0  0
 24 25  1  6  0  0  0
 24 27  1  0  0  0  0
 26 29  1  1  0  0  0
 26 31  1  0  0  0  0
 27 28  1  0  0  0  0
 29 30  2  0  0  0  0
 31 32  1  0  0  0  0
 33 32  1  1  0  0  0
 34 36  1  0  0  0  0
 34 42  1  0  0  0  0
 36 37  1  6  0  0  0
 36 39  1  0  0  0  0
 40 39  1  1  0  0  0
 40 41  1  0  0  0  0
 40 46  1  0  0  0  0
 41 42  1  1  0  0  0
 41 44  1  0  0  0  0
 42 43  2  0  0  0  0
 44 45  1  0  0  0  0
 46 45  1  6  0  0  0
M  CHG  2   3  -1  35  -1
M  END
>  <CHROM.1>
162.07509763,66.77443618,-8.02899282,1.71586706,16.42652641,-2.23570506,-0.98960100
-2.48211246

>  <Name>
ligand

>  <RI>
416

>  <Rbt.Current_Directory>
/home/itssahil/PROJECTS/Mol_Feturizer/Test_systems_manuscript/rnas/3mum

>  <Rbt.Executable>
rbdock ($Id: //depot/dev/client3/rdock/2013.1/src/exe/rbdock.cxx#4 $)

>  <Rbt.Library>
libRbt.so (2013.1, Build901 2013/11/27)

>  <Rbt.Parameter_File>
/export/apps/rDock/src/rDock_2013.1_src/data/scripts/dock_solv.prm

>  <Rbt.Receptor>
prm/pocket_docking_2.prm

>  <SCORE>
-40.4505

>  <SCORE.INTER>
-40.4558

>  <SCORE.INTER.CONST>
1

>  <SCORE.INTER.POLAR>
0

>  <SCORE.INTER.ROT>
2

>  <SCORE.INTER.SOLV>
38.4793

>  <SCORE.INTER.VDW>
-44.7303

>  <SCORE.INTER.norm>
-0.879475

>  <SCORE.INTRA>
0.00529804

>  <SCORE.INTRA.DIHEDRAL>
0.00181601

>  <SCORE.INTRA.DIHEDRAL.0>
2.40424

>  <SCORE.INTRA.POLAR>
0

>  <SCORE.INTRA.POLAR.0>
0

>  <SCORE.INTRA.REPUL>
0

>  <SCORE.INTRA.REPUL.0>
0

>  <SCORE.INTRA.SOLV>
0.000955581

>  <SCORE.INTRA.SOLV.lig_0>
-134.169

>  <SCORE.INTRA.VDW>
0.00391224

>  <SCORE.INTRA.VDW.0>
-2.18386

>  <SCORE.INTRA.norm>
0.000115175

>  <SCORE.RESTR>
0

>  <SCORE.RESTR.CAVITY>
0

>  <SCORE.RESTR.norm>
0

>  <SCORE.SYSTEM>
0

>  <SCORE.SYSTEM.CONST>
0

>  <SCORE.SYSTEM.DIHEDRAL>
0

>  <SCORE.SYSTEM.SOLV>
0

>  <SCORE.SYSTEM.norm>
0

>  <SCORE.heavy>
46

>  <SCORE.norm>
-0.87936

>  <RMSD>
0.168

$$$$
ligand
 OpenBabel02271912143D
libRbt.so/2013.1/901 2013/11/27
 46 52  0  0  0  0  0  0  0  0999 V2000
   -9.7599    4.9100   15.6097 P   0  0  1  0  0  0  0  0  0  0  0  0
   -5.2901    2.5629   18.6410 P   0  0  2  0  0  0  0  0  0  0  0  0
  -10.5083    3.6831   14.5721 O   0  5  0  0  0  0  0  0  0  0  0  0
  -10.6282    6.4648   15.5211 O   0  0  0  0  0  0  0  0  0  0  0  0
   -9.1160    5.0883   18.1743 C   0  0  0  0  0  0  0  0  0  0  0  0
   -9.7536    4.3596   17.1251 O   0  0  0  0  0  0  0  0  0  0  0  0
   -8.8474    4.1405   19.3275 C   0  0  1  0  0  0  0  0  0  0  0  0
  -10.0644    3.4739   19.6914 O   0  0  0  0  0  0  0  0  0  0  0  0
   -7.8653    3.0339   18.9789 C   0  0  1  0  0  0  0  0  0  0  0  0
   -6.5186    3.3985   19.2731 O   0  0  0  0  0  0  0  0  0  0  0  0
   -8.3388    1.8709   19.8327 C   0  0  1  0  0  0  0  0  0  0  0  0
   -7.7100    1.9166   21.1160 O   0  0  0  0  0  0  0  0  0  0  0  0
   -9.8286    2.0946   20.0149 C   0  0  2  0  0  0  0  0  0  0  0  0
   -6.0014    2.8878   13.5453 C   0  0  1  0  0  0  0  0  0  0  0  0
  -10.5658   -2.7232   17.9082 N   0  0  0  0  0  0  0  0  0  0  0  0
   -9.6341   -2.3165   18.8132 C   0  0  1  0  0  0  0  0  0  0  0  0
   -7.4135    3.2906   13.8632 C   0  0  2  0  0  0  0  0  0  0  0  0
   -8.7464   -3.2291   19.2712 N   0  0  0  0  0  0  0  0  0  0  0  0
   -7.8300    4.1664   12.8141 O   0  0  0  0  0  0  0  0  0  0  0  0
   -7.3205    4.0038   15.1975 C   0  0  2  0  0  0  0  0  0  0  0  0
   -9.5594   -1.0314   19.2710 N   0  0  0  0  0  0  0  0  0  0  0  0
   -8.2025    5.1161   15.2617 O   0  0  0  0  0  0  0  0  0  0  0  0
  -10.4275   -0.0797   18.8442 C   0  0  2  0  0  0  0  0  0  0  0  0
   -5.8823    4.4751   15.2872 C   0  0  2  0  0  0  0  0  0  0  0  0
   -5.1407    3.6417   14.3980 O   0  0  0  0  0  0  0  0  0  0  0  0
  -11.4546   -0.4666   17.8614 C   0  0  1  0  0  0  0  0  0  0  0  0
   -5.3071    4.3563   16.6941 C   0  0  0  0  0  0  0  0  0  0  0  0
   -5.3124    2.9823   17.0866 O   0  0  0  0  0  0  0  0  0  0  0  0
  -11.4851   -1.8677   17.4055 C   0  0  0  0  0  0  0  0  0  0  0  0
  -12.4083   -2.2810   16.5006 O   0  0  0  0  0  0  0  0  0  0  0  0
  -12.1727    0.6305   17.5973 N   0  0  0  0  0  0  0  0  0  0  0  0
  -11.6529    1.6466   18.3463 C   0  0  0  0  0  0  0  0  0  0  0  0
  -10.6091    1.2278   19.0925 N   0  0  1  0  0  0  0  0  0  0  0  0
   -7.3684   -1.8828   11.8896 N   0  0  0  0  0  0  0  0  0  0  0  0
   -5.5364    0.8055   18.8189 O   0  5  0  0  0  0  0  0  0  0  0  0
   -7.7612   -0.6592   11.4409 C   0  0  2  0  0  0  0  0  0  0  0  0
   -8.6357   -0.5821   10.4038 N   0  0  0  0  0  0  0  0  0  0  0  0
   -3.7125    3.0104   19.3184 O   0  0  0  0  0  0  0  0  0  0  0  0
   -7.3041    0.4949   11.9990 N   0  0  0  0  0  0  0  0  0  0  0  0
   -6.4269    0.4828   13.0297 C   0  0  2  0  0  0  0  0  0  0  0  0
   -5.9682   -0.8080   13.5599 C   0  0  2  0  0  0  0  0  0  0  0  0
   -6.5041   -2.0266   12.9165 C   0  0  0  0  0  0  0  0  0  0  0  0
   -6.1405   -3.2627   13.3390 O   0  0  0  0  0  0  0  0  0  0  0  0
   -5.1233   -0.5304   14.5725 N   0  0  0  0  0  0  0  0  0  0  0  0
   -5.0448    0.8297   14.6783 C   0  0  0  0  0  0  0  0  0  0  0  0
   -5.8288    1.4302   13.7544 N   0  0  1  0  0  0  0  0  0  0  0  0
  1  3  1  6  0  0  0
  1  4  2  0  0  0  0
  1  6  1  0  0  0  0
  1 22  1  0  0  0  0
  2 28  1  0  0  0  0
  2 35  1  1  0  0  0
  2 38  2  0  0  0  0
  2 10  1  0  0  0  0
  5  6  1  0  0  0  0
  7  5  1  6  0  0  0
  7  8  1  0  0  0  0
  7  9  1  0  0  0  0
  9 10  1  1  0  0  0
  9 11  1  0  0  0  0
 11 12  1  1  0  0  0
 11 13  1  0  0  0  0
 13  8  1  6  0  0  0
 13 33  1  0  0  0  0
 14 46  1  0  0  0  0
 14 17  1  0  0  0  0
 14 25  1  1  0  0  0
 15 16  1  0  0  0  0
 15 29  1  0  0  0  0
 16 18  1  6  0  0  0
 16 21  1  0  0  0  0
 17 19  1  6  0  0  0
 17 20  1  0  0  0  0
 20 22  1  6  0  0  0
 20 24  1  0  0  0  0
 23 21  1  6  0  0  0
 23 26  1  0  0  0  0
 23 33  1  0  0  0  0
 24 25  1  6  0  0  0
 24 27  1  0  0  0  0
 26 29  1  1  0  0  0
 26 31  1  0  0  0  0
 27 28  1  0  0  0  0
 29 30  2  0  0  0  0
 31 32  1  0  0  0  0
 33 32  1  1  0  0  0
 34 36  1  0  0  0  0
 34 42  1  0  0  0  0
 36 37  1  6  0  0  0
 36 39  1  0  0  0  0
 40 39  1  1  0  0  0
 40 41  1  0  0  0  0
 40 46  1  0  0  0  0
 41 42  1  1  0  0  0
 41 44  1  0  0  0  0
 42 43  2  0  0  0  0
 44 45  1  0  0  0  0
 46 45  1  6  0  0  0
M  CHG  2   3  -1  35  -1
M  END
>  <CHROM.1>
162.43640861,66.22402139,-8.05093908,1.69441005,16.42959817,-2.24666412,-0.98876928
-2.49543747

>  <Name>
ligand

>  <RI>
-1

>  <Rbt.Current_Directory>
/home/itssahil/PROJECTS/Mol_Feturizer/Test_systems_manuscript/rnas/3mum

>  <Rbt.Executable>
rbdock ($Id: //depot/dev/client3/rdock/2013.1/src/exe/rbdock.cxx#4 $)

>  <Rbt.Library>
libRbt.so (2013.1, Build901 2013/11/27)

>  <Rbt.Parameter_File>
/export/apps/rDock/src/rDock_2013.1_src/data/scripts/dock_solv.prm

>  <Rbt.Receptor>
prm/pocket_docking_4.prm

>  <SCORE>
-40.5623

>  <SCORE.INTER>
-40.5703

>  <SCORE.INTER.CONST>
1

>  <SCORE.INTER.POLAR>
0

>  <SCORE.INTER.ROT>
2

>  <SCORE.INTER.SOLV>
38.5648

>  <SCORE.INTER.VDW>
-44.8351

>  <SCORE.INTER.norm>
-0.881962

>  <SCORE.INTRA>
0.00796174

>  <SCORE.INTRA.DIHEDRAL>
0.00110185

>  <SCORE.INTRA.DIHEDRAL.0>
2.40424

>  <SCORE.INTRA.POLAR>
0

>  <SCORE.INTRA.POLAR.0>
0

>  <SCORE.INTRA.REPUL>
0

>  <SCORE.INTRA.REPUL.0>
0

>  <SCORE.INTRA.SOLV>
0.00155275

>  <SCORE.INTRA.SOLV.lig_0>
-134.169

>  <SCORE.INTRA.VDW>
0.00663444

>  <SCORE.INTRA.VDW.0>
-2.18386

>  <SCORE.INTRA.norm>
0.000173081

>  <SCORE.RESTR>
0

>  <SCORE.RESTR.CAVITY>
0

>  <SCORE.RESTR.norm>
0

>  <SCORE.SYSTEM>
0

>  <SCORE.SYSTEM.CONST>
0

>  <SCORE.SYSTEM.DIHEDRAL>
0

>  <SCORE.SYSTEM.SOLV>
0

>  <SCORE.SYSTEM.norm>
0

>  <SCORE.heavy>
46

>  <SCORE.norm>
-0.881789

>  <RMSD>
0.168

$$$$
ligand
 OpenBabel02271912143D
libRbt.so/2013.1/901 2013/11/27
 46 52  0  0  0  0  0  0  0  0999 V2000
   -9.7562    4.9243   15.6276 P   0  0  1  0  0  0  0  0  0  0  0  0
   -5.2950    2.5865   18.6786 P   0  0  2  0  0  0  0  0  0  0  0  0
  -10.4921    3.6980   14.5804 O   0  5  0  0  0  0  0  0  0  0  0  0
  -10.6313    6.4753   15.5395 O   0  0  0  0  0  0  0  0  0  0  0  0
   -9.1298    5.0956   18.1969 C   0  0  0  0  0  0  0  0  0  0  0  0
   -9.7570    4.3679   17.1408 O   0  0  0  0  0  0  0  0  0  0  0  0
   -8.8640    4.1445   19.3482 C   0  0  1  0  0  0  0  0  0  0  0  0
  -10.0802    3.4706   19.7015 O   0  0  0  0  0  0  0  0  0  0  0  0
   -7.8744    3.0440   19.0016 C   0  0  1  0  0  0  0  0  0  0  0  0
   -6.5314    3.4138   19.3059 O   0  0  0  0  0  0  0  0  0  0  0  0
   -8.3479    1.8753   19.8478 C   0  0  1  0  0  0  0  0  0  0  0  0
   -7.7276    1.9190   21.1353 O   0  0  0  0  0  0  0  0  0  0  0  0
   -9.8399    2.0912   20.0212 C   0  0  2  0  0  0  0  0  0  0  0  0
   -5.9749    2.9281   13.5797 C   0  0  1  0  0  0  0  0  0  0  0  0
  -10.5536   -2.7265   17.9063 N   0  0  0  0  0  0  0  0  0  0  0  0
   -9.6318   -2.3198   18.8214 C   0  0  1  0  0  0  0  0  0  0  0  0
   -7.3909    3.3230   13.8900 C   0  0  2  0  0  0  0  0  0  0  0  0
   -8.7488   -3.2322   19.2889 N   0  0  0  0  0  0  0  0  0  0  0  0
   -7.8047    4.2009   12.8417 O   0  0  0  0  0  0  0  0  0  0  0  0
   -7.3099    4.0313   15.2276 C   0  0  2  0  0  0  0  0  0  0  0  0
   -9.5622   -1.0347   19.2801 N   0  0  0  0  0  0  0  0  0  0  0  0
   -8.1976    5.1392   15.2905 O   0  0  0  0  0  0  0  0  0  0  0  0
  -10.4258   -0.0831   18.8440 C   0  0  2  0  0  0  0  0  0  0  0  0
   -5.8746    4.5092   15.3285 C   0  0  2  0  0  0  0  0  0  0  0  0
   -5.1233    3.6828   14.4408 O   0  0  0  0  0  0  0  0  0  0  0  0
  -11.4421   -0.4700   17.8502 C   0  0  1  0  0  0  0  0  0  0  0  0
   -5.3079    4.3876   16.7387 C   0  0  0  0  0  0  0  0  0  0  0  0
   -5.3091    3.0120   17.1257 O   0  0  0  0  0  0  0  0  0  0  0  0
  -11.4675   -1.8712   17.3939 C   0  0  0  0  0  0  0  0  0  0  0  0
  -12.3809   -2.2845   16.4790 O   0  0  0  0  0  0  0  0  0  0  0  0
  -12.1575    0.6270   17.5783 N   0  0  0  0  0  0  0  0  0  0  0  0
  -11.6460    1.6430   18.3330 C   0  0  0  0  0  0  0  0  0  0  0  0
  -10.6103    1.2244   19.0904 N   0  0  1  0  0  0  0  0  0  0  0  0
   -7.3905   -1.8426   11.9660 N   0  0  0  0  0  0  0  0  0  0  0  0
   -5.5340    0.8273   18.8480 O   0  5  0  0  0  0  0  0  0  0  0  0
   -7.7959   -0.6191   11.5284 C   0  0  2  0  0  0  0  0  0  0  0  0
   -8.7000   -0.5421   10.5171 N   0  0  0  0  0  0  0  0  0  0  0  0
   -3.7239    3.0389   19.3679 O   0  0  0  0  0  0  0  0  0  0  0  0
   -7.3225    0.5351   12.0726 N   0  0  0  0  0  0  0  0  0  0  0  0
   -6.4157    0.5231   13.0775 C   0  0  2  0  0  0  0  0  0  0  0  0
   -5.9422   -0.7677   13.5945 C   0  0  2  0  0  0  0  0  0  0  0  0
   -6.4969   -1.9864   12.9674 C   0  0  0  0  0  0  0  0  0  0  0  0
   -6.1215   -3.2224   13.3796 O   0  0  0  0  0  0  0  0  0  0  0  0
   -5.0682   -0.4899   14.5822 N   0  0  0  0  0  0  0  0  0  0  0  0
   -4.9864    0.8701   14.6852 C   0  0  0  0  0  0  0  0  0  0  0  0
   -5.7967    1.4706   13.7842 N   0  0  1  0  0  0  0  0  0  0  0  0
  1  3  1  6  0  0  0
  1  4  2  0  0  0  0
  1  6  1  0  0  0  0
  1 22  1  0  0  0  0
  2 28  1  0  0  0  0
  2 35  1  1  0  0  0
  2 38  2  0  0  0  0
  2 10  1  0  0  0  0
  5  6  1  0  0  0  0
  7  5  1  6  0  0  0
  7  8  1  0  0  0  0
  7  9  1  0  0  0  0
  9 10  1  1  0  0  0
  9 11  1  0  0  0  0
 11 12  1  1  0  0  0
 11 13  1  0  0  0  0
 13  8  1  6  0  0  0
 13 33  1  0  0  0  0
 14 46  1  0  0  0  0
 14 17  1  0  0  0  0
 14 25  1  1  0  0  0
 15 16  1  0  0  0  0
 15 29  1  0  0  0  0
 16 18  1  6  0  0  0
 16 21  1  0  0  0  0
 17 19  1  6  0  0  0
 17 20  1  0  0  0  0
 20 22  1  6  0  0  0
 20 24  1  0  0  0  0
 23 21  1  6  0  0  0
 23 26  1  0  0  0  0
 23 33  1  0  0  0  0
 24 25  1  6  0  0  0
 24 27  1  0  0  0  0
 26 29  1  1  0  0  0
 26 31  1  0  0  0  0
 27 28  1  0  0  0  0
 29 30  2  0  0  0  0
 31 32  1  0  0  0  0
 33 32  1  1  0  0  0
 34 36  1  0  0  0  0
 34 42  1  0  0  0  0
 36 37  1  6  0  0  0
 36 39  1  0  0  0  0
 40 39  1  1  0  0  0
 40 41  1  0  0  0  0
 40 46  1  0  0  0  0
 41 42  1  1  0  0  0
 41 44  1  0  0  0  0
 42 43  2  0  0  0  0
 44 45  1  0  0  0  0
 46 45  1  6  0  0  0
M  CHG  2   3  -1  35  -1
M  END
>  <CHROM.1>
162.86051182,64.15693980,-8.04766396,1.71310052,16.45520479,-2.25304667,-0.98529522
-2.49323783

>  <Name>
ligand

>  <RI>
416

>  <Rbt.Current_Directory>
/home/itssahil/PROJECTS/Mol_Feturizer/Test_systems_manuscript/rnas/3mum

>  <Rbt.Executable>
rbdock ($Id: //depot/dev/client3/rdock/2013.1/src/exe/rbdock.cxx#4 $)

>  <Rbt.Library>
libRbt.so (2013.1, Build901 2013/11/27)

>  <Rbt.Parameter_File>
/export/apps/rDock/src/rDock_2013.1_src/data/scripts/dock_solv.prm

>  <Rbt.Receptor>
prm/pocket_docking_2.prm

>  <SCORE>
-40.5548

>  <SCORE.INTER>
-40.5633

>  <SCORE.INTER.CONST>
1

>  <SCORE.INTER.POLAR>
0

>  <SCORE.INTER.ROT>
2

>  <SCORE.INTER.SOLV>
38.4015

>  <SCORE.INTER.VDW>
-44.776

>  <SCORE.INTER.norm>
-0.881812

>  <SCORE.INTRA>
0.00851938

>  <SCORE.INTRA.DIHEDRAL>
-0.00173989

>  <SCORE.INTRA.DIHEDRAL.0>
2.40424

>  <SCORE.INTRA.POLAR>
0

>  <SCORE.INTRA.POLAR.0>
0

>  <SCORE.INTRA.REPUL>
0

>  <SCORE.INTRA.REPUL.0>
0

>  <SCORE.INTRA.SOLV>
0.00417663

>  <SCORE.INTRA.SOLV.lig_0>
-134.169

>  <SCORE.INTRA.VDW>
0.00730101

>  <SCORE.INTRA.VDW.0>
-2.18386

>  <SCORE.INTRA.norm>
0.000185204

>  <SCORE.RESTR>
0

>  <SCORE.RESTR.CAVITY>
0

>  <SCORE.RESTR.norm>
0

>  <SCORE.SYSTEM>
0

>  <SCORE.SYSTEM.CONST>
0

>  <SCORE.SYSTEM.DIHEDRAL>
0

>  <SCORE.SYSTEM.SOLV>
0

>  <SCORE.SYSTEM.norm>
0

>  <SCORE.heavy>
46

>  <SCORE.norm>
-0.881626

>  <RMSD>
0.169

$$$$
ligand
 OpenBabel02271912143D
libRbt.so/2013.1/901 2013/11/27
 46 52  0  0  0  0  0  0  0  0999 V2000
   -9.7503    4.9059   15.6466 P   0  0  1  0  0  0  0  0  0  0  0  0
   -5.2763    2.5376   18.6551 P   0  0  2  0  0  0  0  0  0  0  0  0
  -10.5033    3.6851   14.6052 O   0  5  0  0  0  0  0  0  0  0  0  0
  -10.6164    6.4624   15.5677 O   0  0  0  0  0  0  0  0  0  0  0  0
   -9.0995    5.0711   18.2103 C   0  0  0  0  0  0  0  0  0  0  0  0
   -9.7409    4.3483   17.1593 O   0  0  0  0  0  0  0  0  0  0  0  0
   -8.8293    4.1173   19.3584 C   0  0  1  0  0  0  0  0  0  0  0  0
  -10.0464    3.4508   19.7222 O   0  0  0  0  0  0  0  0  0  0  0  0
   -7.8498    3.0109   19.0019 C   0  0  1  0  0  0  0  0  0  0  0  0
   -6.5018    3.3721   19.2943 O   0  0  0  0  0  0  0  0  0  0  0  0
   -8.3230    1.8445   19.8514 C   0  0  1  0  0  0  0  0  0  0  0  0
   -7.6907    1.8832   21.1332 O   0  0  0  0  0  0  0  0  0  0  0  0
   -9.8119    2.0696   20.0385 C   0  0  2  0  0  0  0  0  0  0  0  0
   -6.0003    2.8878   13.5628 C   0  0  1  0  0  0  0  0  0  0  0  0
  -10.5587   -2.7357   17.9069 N   0  0  0  0  0  0  0  0  0  0  0  0
   -9.6235   -2.3346   18.8108 C   0  0  1  0  0  0  0  0  0  0  0  0
   -7.4109    3.2913   13.8863 C   0  0  2  0  0  0  0  0  0  0  0  0
   -8.7344   -3.2500   19.2603 N   0  0  0  0  0  0  0  0  0  0  0  0
   -7.8288    4.1727   12.8425 O   0  0  0  0  0  0  0  0  0  0  0  0
   -7.3133    3.9980   15.2237 C   0  0  2  0  0  0  0  0  0  0  0  0
   -9.5466   -1.0521   19.2757 N   0  0  0  0  0  0  0  0  0  0  0  0
   -8.1935    5.1113   15.2955 O   0  0  0  0  0  0  0  0  0  0  0  0
  -10.4159   -0.0977   18.8576 C   0  0  2  0  0  0  0  0  0  0  0  0
   -5.8742    4.4667   15.3120 C   0  0  2  0  0  0  0  0  0  0  0  0
   -5.1363    3.6364   14.4168 O   0  0  0  0  0  0  0  0  0  0  0  0
  -11.4468   -0.4785   17.8764 C   0  0  1  0  0  0  0  0  0  0  0  0
   -5.2955    4.3403   16.7168 C   0  0  0  0  0  0  0  0  0  0  0  0
   -5.3019    2.9644   17.1027 O   0  0  0  0  0  0  0  0  0  0  0  0
  -11.4795   -1.8770   17.4126 C   0  0  0  0  0  0  0  0  0  0  0  0
  -12.4062   -2.2847   16.5087 O   0  0  0  0  0  0  0  0  0  0  0  0
  -12.1654    0.6203   17.6212 N   0  0  0  0  0  0  0  0  0  0  0  0
  -11.6425    1.6319   18.3741 C   0  0  0  0  0  0  0  0  0  0  0  0
  -10.5962    1.2085   19.1141 N   0  0  1  0  0  0  0  0  0  0  0  0
   -7.4031   -1.8728   11.9082 N   0  0  0  0  0  0  0  0  0  0  0  0
   -5.5249    0.7797   18.8252 O   0  5  0  0  0  0  0  0  0  0  0  0
   -7.7980   -0.6464   11.4689 C   0  0  2  0  0  0  0  0  0  0  0  0
   -8.6855   -0.5631   10.4436 N   0  0  0  0  0  0  0  0  0  0  0  0
   -3.6963    2.9795   19.3305 O   0  0  0  0  0  0  0  0  0  0  0  0
   -7.3302    0.5043   12.0251 N   0  0  0  0  0  0  0  0  0  0  0  0
   -6.4397    0.4860   13.0444 C   0  0  2  0  0  0  0  0  0  0  0  0
   -5.9780   -0.8081   13.5640 C   0  0  2  0  0  0  0  0  0  0  0  0
   -6.5260   -2.0228   12.9234 C   0  0  0  0  0  0  0  0  0  0  0  0
   -6.1606   -3.2614   13.3368 O   0  0  0  0  0  0  0  0  0  0  0  0
   -5.1193   -0.5365   14.5665 N   0  0  0  0  0  0  0  0  0  0  0  0
   -5.0353    0.8229   14.6761 C   0  0  0  0  0  0  0  0  0  0  0  0
   -5.8294    1.4290   13.7646 N   0  0  1  0  0  0  0  0  0  0  0  0
  1  3  1  6  0  0  0
  1  4  2  0  0  0  0
  1  6  1  0  0  0  0
  1 22  1  0  0  0  0
  2 28  1  0  0  0  0
  2 35  1  1  0  0  0
  2 38  2  0  0  0  0
  2 10  1  0  0  0  0
  5  6  1  0  0  0  0
  7  5  1  6  0  0  0
  7  8  1  0  0  0  0
  7  9  1  0  0  0  0
  9 10  1  1  0  0  0
  9 11  1  0  0  0  0
 11 12  1  1  0  0  0
 11 13  1  0  0  0  0
 13  8  1  6  0  0  0
 13 33  1  0  0  0  0
 14 46  1  0  0  0  0
 14 17  1  0  0  0  0
 14 25  1  1  0  0  0
 15 16  1  0  0  0  0
 15 29  1  0  0  0  0
 16 18  1  6  0  0  0
 16 21  1  0  0  0  0
 17 19  1  6  0  0  0
 17 20  1  0  0  0  0
 20 22  1  6  0  0  0
 20 24  1  0  0  0  0
 23 21  1  6  0  0  0
 23 26  1  0  0  0  0
 23 33  1  0  0  0  0
 24 25  1  6  0  0  0
 24 27  1  0  0  0  0
 26 29  1  1  0  0  0
 26 31  1  0  0  0  0
 27 28  1  0  0  0  0
 29 30  2  0  0  0  0
 31 32  1  0  0  0  0
 33 32  1  1  0  0  0
 34 36  1  0  0  0  0
 34 42  1  0  0  0  0
 36 37  1  6  0  0  0
 36 39  1  0  0  0  0
 40 39  1  1  0  0  0
 40 41  1  0  0  0  0
 40 46  1  0  0  0  0
 41 42  1  1  0  0  0
 41 44  1  0  0  0  0
 42 43  2  0  0  0  0
 44 45  1  0  0  0  0
 46 45  1  6  0  0  0
M  CHG  2   3  -1  35  -1
M  END
>  <CHROM.1>
162.32917156,65.61937565,-8.04646658,1.68397679,16.44852616,-2.23456772,-0.98944282
-2.48372546

>  <Name>
ligand

>  <RI>
416

>  <Rbt.Current_Directory>
/home/itssahil/PROJECTS/Mol_Feturizer/Test_systems_manuscript/rnas/3mum

>  <Rbt.Executable>
rbdock ($Id: //depot/dev/client3/rdock/2013.1/src/exe/rbdock.cxx#4 $)

>  <Rbt.Library>
libRbt.so (2013.1, Build901 2013/11/27)

>  <Rbt.Parameter_File>
/export/apps/rDock/src/rDock_2013.1_src/data/scripts/dock_solv.prm

>  <Rbt.Receptor>
prm/pocket_docking_2.prm

>  <SCORE>
-40.4445

>  <SCORE.INTER>
-40.4594

>  <SCORE.INTER.CONST>
1

>  <SCORE.INTER.POLAR>
0

>  <SCORE.INTER.ROT>
2

>  <SCORE.INTER.SOLV>
38.6562

>  <SCORE.INTER.VDW>
-44.7916

>  <SCORE.INTER.norm>
-0.879552

>  <SCORE.INTRA>
0.014864

>  <SCORE.INTRA.DIHEDRAL>
0.00025249

>  <SCORE.INTRA.DIHEDRAL.0>
2.40424

>  <SCORE.INTRA.POLAR>
0

>  <SCORE.INTRA.POLAR.0>
0

>  <SCORE.INTRA.REPUL>
0

>  <SCORE.INTRA.REPUL.0>
0

>  <SCORE.INTRA.SOLV>
0.00244043

>  <SCORE.INTRA.SOLV.lig_0>
-134.169

>  <SCORE.INTRA.VDW>
0.0135176

>  <SCORE.INTRA.VDW.0>
-2.18386

>  <SCORE.INTRA.norm>
0.000323131

>  <SCORE.RESTR>
0

>  <SCORE.RESTR.CAVITY>
0

>  <SCORE.RESTR.norm>
0

>  <SCORE.SYSTEM>
0

>  <SCORE.SYSTEM.CONST>
0

>  <SCORE.SYSTEM.DIHEDRAL>
0

>  <SCORE.SYSTEM.SOLV>
0

>  <SCORE.SYSTEM.norm>
0

>  <SCORE.heavy>
46

>  <SCORE.norm>
-0.879229

>  <RMSD>
0.171

$$$$
ligand
 OpenBabel02271912143D
libRbt.so/2013.1/901 2013/11/27
 46 52  0  0  0  0  0  0  0  0999 V2000
   -9.7896    4.9411   15.6305 P   0  0  1  0  0  0  0  0  0  0  0  0
   -5.2942    2.6028   18.6305 P   0  0  2  0  0  0  0  0  0  0  0  0
  -10.5157    3.7239   14.5661 O   0  5  0  0  0  0  0  0  0  0  0  0
  -10.6814    6.4840   15.5697 O   0  0  0  0  0  0  0  0  0  0  0  0
   -9.1569    5.0782   18.2004 C   0  0  0  0  0  0  0  0  0  0  0  0
   -9.7798    4.3608   17.1346 O   0  0  0  0  0  0  0  0  0  0  0  0
   -8.8775    4.1118   19.3355 C   0  0  1  0  0  0  0  0  0  0  0  0
  -10.0853    3.4195   19.6817 O   0  0  0  0  0  0  0  0  0  0  0  0
   -7.8774    3.0276   18.9684 C   0  0  1  0  0  0  0  0  0  0  0  0
   -6.5374    3.4068   19.2746 O   0  0  0  0  0  0  0  0  0  0  0  0
   -8.3358    1.8406   19.7973 C   0  0  1  0  0  0  0  0  0  0  0  0
   -7.7119    1.8703   21.0834 O   0  0  0  0  0  0  0  0  0  0  0  0
   -9.8294    2.0378   19.9785 C   0  0  2  0  0  0  0  0  0  0  0  0
   -5.9938    3.0182   13.5397 C   0  0  1  0  0  0  0  0  0  0  0  0
  -10.8371   -2.8424   18.1454 N   0  0  0  0  0  0  0  0  0  0  0  0
   -9.9697   -2.4547   19.1200 C   0  0  1  0  0  0  0  0  0  0  0  0
   -7.4129    3.3930   13.8605 C   0  0  2  0  0  0  0  0  0  0  0  0
   -9.2359   -3.4079   19.7393 N   0  0  0  0  0  0  0  0  0  0  0  0
   -7.8394    4.2831   12.8275 O   0  0  0  0  0  0  0  0  0  0  0  0
   -7.3352    4.0808   15.2090 C   0  0  2  0  0  0  0  0  0  0  0  0
   -9.8104   -1.1498   19.4919 N   0  0  0  0  0  0  0  0  0  0  0  0
   -8.2344    5.1780   15.2922 O   0  0  0  0  0  0  0  0  0  0  0  0
  -10.5240   -0.1570   18.9029 C   0  0  2  0  0  0  0  0  0  0  0  0
   -5.9048    4.5722   15.3132 C   0  0  2  0  0  0  0  0  0  0  0  0
   -5.1476    3.7681   14.4102 O   0  0  0  0  0  0  0  0  0  0  0  0
  -11.4753   -0.5222   17.8390 C   0  0  1  0  0  0  0  0  0  0  0  0
   -5.3324    4.4342   16.7195 C   0  0  0  0  0  0  0  0  0  0  0  0
   -5.3178    3.0527   17.0846 O   0  0  0  0  0  0  0  0  0  0  0  0
  -11.6033   -1.9465   17.4823 C   0  0  0  0  0  0  0  0  0  0  0  0
  -12.4630   -2.3415   16.5092 O   0  0  0  0  0  0  0  0  0  0  0  0
  -12.0427    0.6135   17.4182 N   0  0  0  0  0  0  0  0  0  0  0  0
  -11.5024    1.6326   18.1483 C   0  0  0  0  0  0  0  0  0  0  0  0
  -10.5935    1.1777   19.0364 N   0  0  1  0  0  0  0  0  0  0  0  0
   -7.5381   -1.7437   12.0204 N   0  0  0  0  0  0  0  0  0  0  0  0
   -5.5141    0.8386   18.7725 O   0  5  0  0  0  0  0  0  0  0  0  0
   -7.9779   -0.5177   11.6248 C   0  0  2  0  0  0  0  0  0  0  0  0
   -8.9622   -0.4353   10.6919 N   0  0  0  0  0  0  0  0  0  0  0  0
   -3.7259    3.0608   19.3222 O   0  0  0  0  0  0  0  0  0  0  0  0
   -7.4612    0.6334   12.1349 N   0  0  0  0  0  0  0  0  0  0  0  0
   -6.4748    0.6160   13.0616 C   0  0  2  0  0  0  0  0  0  0  0  0
   -5.9604   -0.6776   13.5304 C   0  0  2  0  0  0  0  0  0  0  0  0
   -6.5650   -1.8928   12.9441 C   0  0  0  0  0  0  0  0  0  0  0  0
   -6.1571   -3.1311   13.3168 O   0  0  0  0  0  0  0  0  0  0  0  0
   -5.0081   -0.4052   14.4444 N   0  0  0  0  0  0  0  0  0  0  0  0
   -4.9179    0.9542   14.5481 C   0  0  0  0  0  0  0  0  0  0  0  0
   -5.7995    1.5596   13.7204 N   0  0  1  0  0  0  0  0  0  0  0  0
  1  3  1  6  0  0  0
  1  4  2  0  0  0  0
  1  6  1  0  0  0  0
  1 22  1  0  0  0  0
  2 28  1  0  0  0  0
  2 35  1  1  0  0  0
  2 38  2  0  0  0  0
  2 10  1  0  0  0  0
  5  6  1  0  0  0  0
  7  5  1  6  0  0  0
  7  8  1  0  0  0  0
  7  9  1  0  0  0  0
  9 10  1  1  0  0  0
  9 11  1  0  0  0  0
 11 12  1  1  0  0  0
 11 13  1  0  0  0  0
 13  8  1  6  0  0  0
 13 33  1  0  0  0  0
 14 46  1  0  0  0  0
 14 17  1  0  0  0  0
 14 25  1  1  0  0  0
 15 16  1  0  0  0  0
 15 29  1  0  0  0  0
 16 18  1  6  0  0  0
 16 21  1  0  0  0  0
 17 19  1  6  0  0  0
 17 20  1  0  0  0  0
 20 22  1  6  0  0  0
 20 24  1  0  0  0  0
 23 21  1  6  0  0  0
 23 26  1  0  0  0  0
 23 33  1  0  0  0  0
 24 25  1  6  0  0  0
 24 27  1  0  0  0  0
 26 29  1  1  0  0  0
 26 31  1  0  0  0  0
 27 28  1  0  0  0  0
 29 30  2  0  0  0  0
 31 32  1  0  0  0  0
 33 32  1  1  0  0  0
 34 36  1  0  0  0  0
 34 42  1  0  0  0  0
 36 37  1  6  0  0  0
 36 39  1  0  0  0  0
 40 39  1  1  0  0  0
 40 41  1  0  0  0  0
 40 46  1  0  0  0  0
 41 42  1  1  0  0  0
 41 44  1  0  0  0  0
 42 43  2  0  0  0  0
 44 45  1  0  0  0  0
 46 45  1  6  0  0  0
M  CHG  2   3  -1  35  -1
M  END
>  <CHROM.1>
173.03687794,59.53365264,-8.10015969,1.72563009,16.45827442,-0.58538822,0.98835383
0.69388238

>  <Name>
ligand

>  <RI>
-1

>  <Rbt.Current_Directory>
/home/itssahil/PROJECTS/Mol_Feturizer/Test_systems_manuscript/rnas/3mum

>  <Rbt.Executable>
rbdock ($Id: //depot/dev/client3/rdock/2013.1/src/exe/rbdock.cxx#4 $)

>  <Rbt.Library>
libRbt.so (2013.1, Build901 2013/11/27)

>  <Rbt.Parameter_File>
/export/apps/rDock/src/rDock_2013.1_src/data/scripts/dock_solv.prm

>  <Rbt.Receptor>
prm/pocket_docking_4.prm

>  <SCORE>
-39.6986

>  <SCORE.INTER>
-39.72

>  <SCORE.INTER.CONST>
1

>  <SCORE.INTER.POLAR>
0

>  <SCORE.INTER.ROT>
2

>  <SCORE.INTER.SOLV>
39.7042

>  <SCORE.INTER.VDW>
-44.6481

>  <SCORE.INTER.norm>
-0.863479

>  <SCORE.INTRA>
0.0214282

>  <SCORE.INTRA.DIHEDRAL>
-0.00684668

>  <SCORE.INTRA.DIHEDRAL.0>
2.40424

>  <SCORE.INTRA.POLAR>
0

>  <SCORE.INTRA.POLAR.0>
0

>  <SCORE.INTRA.REPUL>
0

>  <SCORE.INTRA.REPUL.0>
0

>  <SCORE.INTRA.SOLV>
0.00572461

>  <SCORE.INTRA.SOLV.lig_0>
-134.169

>  <SCORE.INTRA.VDW>
0.0219892

>  <SCORE.INTRA.VDW.0>
-2.18386

>  <SCORE.INTRA.norm>
0.000465831

>  <SCORE.RESTR>
0

>  <SCORE.RESTR.CAVITY>
0

>  <SCORE.RESTR.norm>
0

>  <SCORE.SYSTEM>
0

>  <SCORE.SYSTEM.CONST>
0

>  <SCORE.SYSTEM.DIHEDRAL>
0

>  <SCORE.SYSTEM.SOLV>
0

>  <SCORE.SYSTEM.norm>
0

>  <SCORE.heavy>
46

>  <SCORE.norm>
-0.863013

>  <RMSD>
0.172

$$$$
ligand
 OpenBabel02271912143D
libRbt.so/2013.1/901 2013/11/27
 46 52  0  0  0  0  0  0  0  0999 V2000
   -9.7546    4.8689   15.6453 P   0  0  1  0  0  0  0  0  0  0  0  0
   -5.2408    2.5020   18.5947 P   0  0  2  0  0  0  0  0  0  0  0  0
  -10.4986    3.6571   14.5870 O   0  5  0  0  0  0  0  0  0  0  0  0
  -10.6386    6.4166   15.5959 O   0  0  0  0  0  0  0  0  0  0  0  0
   -9.0942    4.9991   18.2086 C   0  0  0  0  0  0  0  0  0  0  0  0
   -9.7322    4.2865   17.1485 O   0  0  0  0  0  0  0  0  0  0  0  0
   -8.8081    4.0296   19.3395 C   0  0  1  0  0  0  0  0  0  0  0  0
  -10.0161    3.3434   19.6974 O   0  0  0  0  0  0  0  0  0  0  0  0
   -7.8179    2.9404   18.9605 C   0  0  1  0  0  0  0  0  0  0  0  0
   -6.4727    3.3119   19.2530 O   0  0  0  0  0  0  0  0  0  0  0  0
   -8.2741    1.7548   19.7925 C   0  0  1  0  0  0  0  0  0  0  0  0
   -7.6365    1.7794   21.0721 O   0  0  0  0  0  0  0  0  0  0  0  0
   -9.7646    1.9600   19.9898 C   0  0  2  0  0  0  0  0  0  0  0  0
   -5.9917    2.9282   13.5122 C   0  0  1  0  0  0  0  0  0  0  0  0
  -10.8274   -2.9136   18.1699 N   0  0  0  0  0  0  0  0  0  0  0  0
   -9.9491   -2.5321   19.1371 C   0  0  1  0  0  0  0  0  0  0  0  0
   -7.4052    3.3102   13.8484 C   0  0  2  0  0  0  0  0  0  0  0  0
   -9.2184   -3.4908   19.7517 N   0  0  0  0  0  0  0  0  0  0  0  0
   -7.8377    4.2040   12.8211 O   0  0  0  0  0  0  0  0  0  0  0  0
   -7.3096    3.9958   15.1969 C   0  0  2  0  0  0  0  0  0  0  0  0
   -9.7760   -1.2281   19.5064 N   0  0  0  0  0  0  0  0  0  0  0  0
   -8.2019    5.0978   15.2910 O   0  0  0  0  0  0  0  0  0  0  0  0
  -10.4859   -0.2301   18.9220 C   0  0  2  0  0  0  0  0  0  0  0  0
   -5.8755    4.4792   15.2867 C   0  0  2  0  0  0  0  0  0  0  0  0
   -5.1322    3.6722   14.3747 O   0  0  0  0  0  0  0  0  0  0  0  0
  -11.4487   -0.5884   17.8661 C   0  0  1  0  0  0  0  0  0  0  0  0
   -5.2890    4.3362   16.6867 C   0  0  0  0  0  0  0  0  0  0  0  0
   -5.2782    2.9541   17.0498 O   0  0  0  0  0  0  0  0  0  0  0  0
  -11.5913   -2.0119   17.5118 C   0  0  0  0  0  0  0  0  0  0  0  0
  -12.4619   -2.4007   16.5460 O   0  0  0  0  0  0  0  0  0  0  0  0
  -12.0099    0.5516   17.4485 N   0  0  0  0  0  0  0  0  0  0  0  0
  -11.4553    1.5669   18.1733 C   0  0  0  0  0  0  0  0  0  0  0  0
  -10.5433    1.1053   19.0546 N   0  0  1  0  0  0  0  0  0  0  0  0
   -7.5793   -1.8232   12.0046 N   0  0  0  0  0  0  0  0  0  0  0  0
   -5.4688    0.7388   18.7368 O   0  5  0  0  0  0  0  0  0  0  0  0
   -8.0167   -0.5943   11.6154 C   0  0  2  0  0  0  0  0  0  0  0  0
   -9.0109   -0.5053   10.6937 N   0  0  0  0  0  0  0  0  0  0  0  0
   -3.6628    2.9505   19.2705 O   0  0  0  0  0  0  0  0  0  0  0  0
   -7.4879    0.5533   12.1210 N   0  0  0  0  0  0  0  0  0  0  0  0
   -6.4913    0.5292   13.0366 C   0  0  2  0  0  0  0  0  0  0  0  0
   -5.9789   -0.7678   13.4981 C   0  0  2  0  0  0  0  0  0  0  0  0
   -6.5967   -1.9789   12.9171 C   0  0  0  0  0  0  0  0  0  0  0  0
   -6.1915   -3.2198   13.2837 O   0  0  0  0  0  0  0  0  0  0  0  0
   -5.0149   -0.5018   14.4016 N   0  0  0  0  0  0  0  0  0  0  0  0
   -4.9160    0.8570   14.5060 C   0  0  0  0  0  0  0  0  0  0  0  0
   -5.8035    1.4682   13.6890 N   0  0  1  0  0  0  0  0  0  0  0  0
  1  3  1  6  0  0  0
  1  4  2  0  0  0  0
  1  6  1  0  0  0  0
  1 22  1  0  0  0  0
  2 28  1  0  0  0  0
  2 35  1  1  0  0  0
  2 38  2  0  0  0  0
  2 10  1  0  0  0  0
  5  6  1  0  0  0  0
  7  5  1  6  0  0  0
  7  8  1  0  0  0  0
  7  9  1  0  0  0  0
  9 10  1  1  0  0  0
  9 11  1  0  0  0  0
 11 12  1  1  0  0  0
 11 13  1  0  0  0  0
 13  8  1  6  0  0  0
 13 33  1  0  0  0  0
 14 46  1  0  0  0  0
 14 17  1  0  0  0  0
 14 25  1  1  0  0  0
 15 16  1  0  0  0  0
 15 29  1  0  0  0  0
 16 18  1  6  0  0  0
 16 21  1  0  0  0  0
 17 19  1  6  0  0  0
 17 20  1  0  0  0  0
 20 22  1  6  0  0  0
 20 24  1  0  0  0  0
 23 21  1  6  0  0  0
 23 26  1  0  0  0  0
 23 33  1  0  0  0  0
 24 25  1  6  0  0  0
 24 27  1  0  0  0  0
 26 29  1  1  0  0  0
 26 31  1  0  0  0  0
 27 28  1  0  0  0  0
 29 30  2  0  0  0  0
 31 32  1  0  0  0  0
 33 32  1  1  0  0  0
 34 36  1  0  0  0  0
 34 42  1  0  0  0  0
 36 37  1  6  0  0  0
 36 39  1  0  0  0  0
 40 39  1  1  0  0  0
 40 41  1  0  0  0  0
 40 46  1  0  0  0  0
 41 42  1  1  0  0  0
 41 44  1  0  0  0  0
 42 43  2  0  0  0  0
 44 45  1  0  0  0  0
 46 45  1  6  0  0  0
M  CHG  2   3  -1  35  -1
M  END
>  <CHROM.1>
173.29804092,59.49384383,-8.07536486,1.64297712,16.45221345,-0.59739772,0.99255886
0.71280946

>  <Name>
ligand

>  <RI>
-1

>  <Rbt.Current_Directory>
/home/itssahil/PROJECTS/Mol_Feturizer/Test_systems_manuscript/rnas/3mum

>  <Rbt.Executable>
rbdock ($Id: //depot/dev/client3/rdock/2013.1/src/exe/rbdock.cxx#4 $)

>  <Rbt.Library>
libRbt.so (2013.1, Build901 2013/11/27)

>  <Rbt.Parameter_File>
/export/apps/rDock/src/rDock_2013.1_src/data/scripts/dock_solv.prm

>  <Rbt.Receptor>
prm/pocket_docking_5.prm

>  <SCORE>
-39.762

>  <SCORE.INTER>
-39.7821

>  <SCORE.INTER.CONST>
1

>  <SCORE.INTER.POLAR>
0

>  <SCORE.INTER.ROT>
2

>  <SCORE.INTER.SOLV>
40.439

>  <SCORE.INTER.VDW>
-44.9344

>  <SCORE.INTER.norm>
-0.864828

>  <SCORE.INTRA>
0.0200278

>  <SCORE.INTRA.DIHEDRAL>
-0.00685783

>  <SCORE.INTRA.DIHEDRAL.0>
2.40424

>  <SCORE.INTRA.POLAR>
0

>  <SCORE.INTRA.POLAR.0>
0

>  <SCORE.INTRA.REPUL>
0

>  <SCORE.INTRA.REPUL.0>
0

>  <SCORE.INTRA.SOLV>
0.00567204

>  <SCORE.INTRA.SOLV.lig_0>
-134.169

>  <SCORE.INTRA.VDW>
0.0206207

>  <SCORE.INTRA.VDW.0>
-2.18386

>  <SCORE.INTRA.norm>
0.000435386

>  <SCORE.RESTR>
0

>  <SCORE.RESTR.CAVITY>
0

>  <SCORE.RESTR.norm>
0

>  <SCORE.SYSTEM>
0

>  <SCORE.SYSTEM.CONST>
0

>  <SCORE.SYSTEM.DIHEDRAL>
0

>  <SCORE.SYSTEM.SOLV>
0

>  <SCORE.SYSTEM.norm>
0

>  <SCORE.heavy>
46

>  <SCORE.norm>
-0.864392

>  <RMSD>
0.175

$$$$
ligand
 OpenBabel02271912143D
libRbt.so/2013.1/901 2013/11/27
 46 52  0  0  0  0  0  0  0  0999 V2000
   -9.7465    4.8949   15.6732 P   0  0  1  0  0  0  0  0  0  0  0  0
   -5.2748    2.4914   18.6569 P   0  0  2  0  0  0  0  0  0  0  0  0
  -10.4934    3.6887   14.6106 O   0  5  0  0  0  0  0  0  0  0  0  0
  -10.6166    6.4502   15.6162 O   0  0  0  0  0  0  0  0  0  0  0  0
   -9.1034    5.0216   18.2410 C   0  0  0  0  0  0  0  0  0  0  0  0
   -9.7399    4.3137   17.1769 O   0  0  0  0  0  0  0  0  0  0  0  0
   -8.8339    4.0506   19.3747 C   0  0  1  0  0  0  0  0  0  0  0  0
  -10.0503    3.3753   19.7245 O   0  0  0  0  0  0  0  0  0  0  0  0
   -7.8505    2.9525   19.0037 C   0  0  1  0  0  0  0  0  0  0  0  0
   -6.5043    3.3125   19.3056 O   0  0  0  0  0  0  0  0  0  0  0  0
   -8.3229    1.7717   19.8334 C   0  0  1  0  0  0  0  0  0  0  0  0
   -7.6944    1.7919   21.1175 O   0  0  0  0  0  0  0  0  0  0  0  0
   -9.8130    1.9900   20.0198 C   0  0  2  0  0  0  0  0  0  0  0  0
   -5.9854    2.9196   13.5687 C   0  0  1  0  0  0  0  0  0  0  0  0
  -10.5596   -2.7905   17.8329 N   0  0  0  0  0  0  0  0  0  0  0  0
   -9.6309   -2.4023   18.7491 C   0  0  1  0  0  0  0  0  0  0  0  0
   -7.3980    3.3143   13.8944 C   0  0  2  0  0  0  0  0  0  0  0  0
   -8.7495   -3.3258   19.1971 N   0  0  0  0  0  0  0  0  0  0  0  0
   -7.8152    4.2109   12.8634 O   0  0  0  0  0  0  0  0  0  0  0  0
   -7.3060    4.0001   15.2431 C   0  0  2  0  0  0  0  0  0  0  0  0
   -9.5531   -1.1250   19.2277 N   0  0  0  0  0  0  0  0  0  0  0  0
   -8.1894    5.1099   15.3298 O   0  0  0  0  0  0  0  0  0  0  0  0
  -10.4149   -0.1628   18.8116 C   0  0  2  0  0  0  0  0  0  0  0  0
   -5.8684    4.4712   15.3427 C   0  0  2  0  0  0  0  0  0  0  0  0
   -5.1257    3.6569   14.4368 O   0  0  0  0  0  0  0  0  0  0  0  0
  -11.4385   -0.5295   17.8175 C   0  0  1  0  0  0  0  0  0  0  0  0
   -5.2933    4.3243   16.7471 C   0  0  0  0  0  0  0  0  0  0  0  0
   -5.2972    2.9425   17.1113 O   0  0  0  0  0  0  0  0  0  0  0  0
  -11.4725   -1.9231   17.3392 C   0  0  0  0  0  0  0  0  0  0  0  0
  -12.3928   -2.3179   16.4230 O   0  0  0  0  0  0  0  0  0  0  0  0
  -12.1505    0.5747   17.5671 N   0  0  0  0  0  0  0  0  0  0  0  0
  -11.6304    1.5764   18.3349 C   0  0  0  0  0  0  0  0  0  0  0  0
  -10.5923    1.1413   19.0798 N   0  0  1  0  0  0  0  0  0  0  0  0
   -7.3800   -1.8182   11.8434 N   0  0  0  0  0  0  0  0  0  0  0  0
   -5.5191    0.7304   18.7987 O   0  5  0  0  0  0  0  0  0  0  0  0
   -7.7779   -0.5861   11.4232 C   0  0  2  0  0  0  0  0  0  0  0  0
   -8.6669   -0.4891   10.4003 N   0  0  0  0  0  0  0  0  0  0  0  0
   -3.6978    2.9268   19.3436 O   0  0  0  0  0  0  0  0  0  0  0  0
   -7.3120    0.5570   11.9964 N   0  0  0  0  0  0  0  0  0  0  0  0
   -6.4203    0.5250   13.0142 C   0  0  2  0  0  0  0  0  0  0  0  0
   -5.9553   -0.7758   13.5135 C   0  0  2  0  0  0  0  0  0  0  0  0
   -6.5014   -1.9818   12.8551 C   0  0  0  0  0  0  0  0  0  0  0  0
   -6.1330   -3.2258   13.2492 O   0  0  0  0  0  0  0  0  0  0  0  0
   -5.0960   -0.5177   14.5192 N   0  0  0  0  0  0  0  0  0  0  0  0
   -5.0148    0.8400   14.6493 C   0  0  0  0  0  0  0  0  0  0  0  0
   -5.8112    1.4583   13.7480 N   0  0  1  0  0  0  0  0  0  0  0  0
  1  3  1  6  0  0  0
  1  4  2  0  0  0  0
  1  6  1  0  0  0  0
  1 22  1  0  0  0  0
  2 28  1  0  0  0  0
  2 35  1  1  0  0  0
  2 38  2  0  0  0  0
  2 10  1  0  0  0  0
  5  6  1  0  0  0  0
  7  5  1  6  0  0  0
  7  8  1  0  0  0  0
  7  9  1  0  0  0  0
  9 10  1  1  0  0  0
  9 11  1  0  0  0  0
 11 12  1  1  0  0  0
 11 13  1  0  0  0  0
 13  8  1  6  0  0  0
 13 33  1  0  0  0  0
 14 46  1  0  0  0  0
 14 17  1  0  0  0  0
 14 25  1  1  0  0  0
 15 16  1  0  0  0  0
 15 29  1  0  0  0  0
 16 18  1  6  0  0  0
 16 21  1  0  0  0  0
 17 19  1  6  0  0  0
 17 20  1  0  0  0  0
 20 22  1  6  0  0  0
 20 24  1  0  0  0  0
 23 21  1  6  0  0  0
 23 26  1  0  0  0  0
 23 33  1  0  0  0  0
 24 25  1  6  0  0  0
 24 27  1  0  0  0  0
 26 29  1  1  0  0  0
 26 31  1  0  0  0  0
 27 28  1  0  0  0  0
 29 30  2  0  0  0  0
 31 32  1  0  0  0  0
 33 32  1  1  0  0  0
 34 36  1  0  0  0  0
 34 42  1  0  0  0  0
 36 37  1  6  0  0  0
 36 39  1  0  0  0  0
 40 39  1  1  0  0  0
 40 41  1  0  0  0  0
 40 46  1  0  0  0  0
 41 42  1  1  0  0  0
 41 44  1  0  0  0  0
 42 43  2  0  0  0  0
 44 45  1  0  0  0  0
 46 45  1  6  0  0  0
M  CHG  2   3  -1  35  -1
M  END
>  <CHROM.1>
162.93212762,65.38943180,-8.03944143,1.66451633,16.43251316,-2.25165372,-0.98898241
-2.47198150

>  <Name>
ligand

>  <RI>
416

>  <Rbt.Current_Directory>
/home/itssahil/PROJECTS/Mol_Feturizer/Test_systems_manuscript/rnas/3mum

>  <Rbt.Executable>
rbdock ($Id: //depot/dev/client3/rdock/2013.1/src/exe/rbdock.cxx#4 $)

>  <Rbt.Library>
libRbt.so (2013.1, Build901 2013/11/27)

>  <Rbt.Parameter_File>
/export/apps/rDock/src/rDock_2013.1_src/data/scripts/dock_solv.prm

>  <Rbt.Receptor>
prm/pocket_docking_2.prm

>  <SCORE>
-40.4909

>  <SCORE.INTER>
-40.4859

>  <SCORE.INTER.CONST>
1

>  <SCORE.INTER.POLAR>
0

>  <SCORE.INTER.ROT>
2

>  <SCORE.INTER.SOLV>
39.0269

>  <SCORE.INTER.VDW>
-44.9329

>  <SCORE.INTER.norm>
-0.880128

>  <SCORE.INTRA>
-0.00501174

>  <SCORE.INTRA.DIHEDRAL>
1.94709e-06

>  <SCORE.INTRA.DIHEDRAL.0>
2.40424

>  <SCORE.INTRA.POLAR>
0

>  <SCORE.INTRA.POLAR.0>
0

>  <SCORE.INTRA.REPUL>
0

>  <SCORE.INTRA.REPUL.0>
0

>  <SCORE.INTRA.SOLV>
0.00246995

>  <SCORE.INTRA.SOLV.lig_0>
-134.169

>  <SCORE.INTRA.VDW>
-0.00624769

>  <SCORE.INTRA.VDW.0>
-2.18386

>  <SCORE.INTRA.norm>
-0.000108951

>  <SCORE.RESTR>
0

>  <SCORE.RESTR.CAVITY>
0

>  <SCORE.RESTR.norm>
0

>  <SCORE.SYSTEM>
0

>  <SCORE.SYSTEM.CONST>
0

>  <SCORE.SYSTEM.DIHEDRAL>
0

>  <SCORE.SYSTEM.SOLV>
0

>  <SCORE.SYSTEM.norm>
0

>  <SCORE.heavy>
46

>  <SCORE.norm>
-0.880237

>  <RMSD>
0.176

$$$$
ligand
 OpenBabel02271912143D
libRbt.so/2013.1/901 2013/11/27
 46 52  0  0  0  0  0  0  0  0999 V2000
   -9.7543    4.8956   15.6747 P   0  0  1  0  0  0  0  0  0  0  0  0
   -5.2815    2.4959   18.6600 P   0  0  2  0  0  0  0  0  0  0  0  0
  -10.4992    3.6890   14.6112 O   0  5  0  0  0  0  0  0  0  0  0  0
  -10.6261    6.4500   15.6179 O   0  0  0  0  0  0  0  0  0  0  0  0
   -9.1128    5.0219   18.2430 C   0  0  0  0  0  0  0  0  0  0  0  0
   -9.7479    4.3138   17.1783 O   0  0  0  0  0  0  0  0  0  0  0  0
   -8.8429    4.0508   19.3764 C   0  0  1  0  0  0  0  0  0  0  0  0
  -10.0587    3.3740   19.7253 O   0  0  0  0  0  0  0  0  0  0  0  0
   -7.8580    2.9540   19.0056 C   0  0  1  0  0  0  0  0  0  0  0  0
   -6.5123    3.3154   19.3084 O   0  0  0  0  0  0  0  0  0  0  0  0
   -8.3296    1.7723   19.8346 C   0  0  1  0  0  0  0  0  0  0  0  0
   -7.7018    1.7927   21.1190 O   0  0  0  0  0  0  0  0  0  0  0  0
   -9.8199    1.9888   20.0202 C   0  0  2  0  0  0  0  0  0  0  0  0
   -5.9897    2.9254   13.5716 C   0  0  1  0  0  0  0  0  0  0  0  0
  -10.5618   -2.7923   17.8332 N   0  0  0  0  0  0  0  0  0  0  0  0
   -9.6345   -2.4036   18.7504 C   0  0  1  0  0  0  0  0  0  0  0  0
   -7.4029    3.3183   13.8967 C   0  0  2  0  0  0  0  0  0  0  0  0
   -8.7531   -3.3266   19.1996 N   0  0  0  0  0  0  0  0  0  0  0  0
   -7.8206    4.2149   12.8658 O   0  0  0  0  0  0  0  0  0  0  0  0
   -7.3125    4.0038   15.2457 C   0  0  2  0  0  0  0  0  0  0  0  0
   -9.5578   -1.1261   19.2289 N   0  0  0  0  0  0  0  0  0  0  0  0
   -8.1972    5.1125   15.3324 O   0  0  0  0  0  0  0  0  0  0  0  0
  -10.4195   -0.1644   18.8116 C   0  0  2  0  0  0  0  0  0  0  0  0
   -5.8755    4.4764   15.3463 C   0  0  2  0  0  0  0  0  0  0  0  0
   -5.1314    3.6633   14.4405 O   0  0  0  0  0  0  0  0  0  0  0  0
  -11.4417   -0.5318   17.8163 C   0  0  1  0  0  0  0  0  0  0  0  0
   -5.3011    4.3296   16.7509 C   0  0  0  0  0  0  0  0  0  0  0  0
   -5.3035    2.9476   17.1146 O   0  0  0  0  0  0  0  0  0  0  0  0
  -11.4746   -1.9255   17.3382 C   0  0  0  0  0  0  0  0  0  0  0  0
  -12.3936   -2.3208   16.4210 O   0  0  0  0  0  0  0  0  0  0  0  0
  -12.1539    0.5721   17.5649 N   0  0  0  0  0  0  0  0  0  0  0  0
  -11.6351    1.5742   18.3332 C   0  0  0  0  0  0  0  0  0  0  0  0
  -10.5978    1.1397   19.0793 N   0  0  1  0  0  0  0  0  0  0  0  0
   -7.3769   -1.8132   11.8427 N   0  0  0  0  0  0  0  0  0  0  0  0
   -5.5240    0.7346   18.8010 O   0  5  0  0  0  0  0  0  0  0  0  0
   -7.7759   -0.5814   11.4227 C   0  0  2  0  0  0  0  0  0  0  0  0
   -8.6639   -0.4850   10.3989 N   0  0  0  0  0  0  0  0  0  0  0  0
   -3.7054    2.9328   19.3478 O   0  0  0  0  0  0  0  0  0  0  0  0
   -7.3119    0.5619   11.9968 N   0  0  0  0  0  0  0  0  0  0  0  0
   -6.4212    0.5305   13.0156 C   0  0  2  0  0  0  0  0  0  0  0  0
   -5.9552   -0.7700   13.5148 C   0  0  2  0  0  0  0  0  0  0  0  0
   -6.4992   -1.9763   12.8553 C   0  0  0  0  0  0  0  0  0  0  0  0
   -6.1297   -3.2200   13.2492 O   0  0  0  0  0  0  0  0  0  0  0  0
   -5.0972   -0.5113   14.5214 N   0  0  0  0  0  0  0  0  0  0  0  0
   -5.0178    0.8465   14.6523 C   0  0  0  0  0  0  0  0  0  0  0  0
   -5.8140    1.4642   13.7504 N   0  0  1  0  0  0  0  0  0  0  0  0
  1  3  1  6  0  0  0
  1  4  2  0  0  0  0
  1  6  1  0  0  0  0
  1 22  1  0  0  0  0
  2 28  1  0  0  0  0
  2 35  1  1  0  0  0
  2 38  2  0  0  0  0
  2 10  1  0  0  0  0
  5  6  1  0  0  0  0
  7  5  1  6  0  0  0
  7  8  1  0  0  0  0
  7  9  1  0  0  0  0
  9 10  1  1  0  0  0
  9 11  1  0  0  0  0
 11 12  1  1  0  0  0
 11 13  1  0  0  0  0
 13  8  1  6  0  0  0
 13 33  1  0  0  0  0
 14 46  1  0  0  0  0
 14 17  1  0  0  0  0
 14 25  1  1  0  0  0
 15 16  1  0  0  0  0
 15 29  1  0  0  0  0
 16 18  1  6  0  0  0
 16 21  1  0  0  0  0
 17 19  1  6  0  0  0
 17 20  1  0  0  0  0
 20 22  1  6  0  0  0
 20 24  1  0  0  0  0
 23 21  1  6  0  0  0
 23 26  1  0  0  0  0
 23 33  1  0  0  0  0
 24 25  1  6  0  0  0
 24 27  1  0  0  0  0
 26 29  1  1  0  0  0
 26 31  1  0  0  0  0
 27 28  1  0  0  0  0
 29 30  2  0  0  0  0
 31 32  1  0  0  0  0
 33 32  1  1  0  0  0
 34 36  1  0  0  0  0
 34 42  1  0  0  0  0
 36 37  1  6  0  0  0
 36 39  1  0  0  0  0
 40 39  1  1  0  0  0
 40 41  1  0  0  0  0
 40 46  1  0  0  0  0
 41 42  1  1  0  0  0
 41 44  1  0  0  0  0
 42 43  2  0  0  0  0
 44 45  1  0  0  0  0
 46 45  1  6  0  0  0
M  CHG  2   3  -1  35  -1
M  END
>  <CHROM.1>
162.99448304,65.41586279,-8.04408778,1.66674985,16.43389941,-2.25537263,-0.98927885
-2.47350339

>  <Name>
ligand

>  <RI>
-1

>  <Rbt.Current_Directory>
/home/itssahil/PROJECTS/Mol_Feturizer/Test_systems_manuscript/rnas/3mum

>  <Rbt.Executable>
rbdock ($Id: //depot/dev/client3/rdock/2013.1/src/exe/rbdock.cxx#4 $)

>  <Rbt.Library>
libRbt.so (2013.1, Build901 2013/11/27)

>  <Rbt.Parameter_File>
/export/apps/rDock/src/rDock_2013.1_src/data/scripts/dock_solv.prm

>  <Rbt.Receptor>
prm/pocket_docking_6.prm

>  <SCORE>
-40.4601

>  <SCORE.INTER>
-40.4543

>  <SCORE.INTER.CONST>
1

>  <SCORE.INTER.POLAR>
0

>  <SCORE.INTER.ROT>
2

>  <SCORE.INTER.SOLV>
39.0266

>  <SCORE.INTER.VDW>
-44.9117

>  <SCORE.INTER.norm>
-0.879442

>  <SCORE.INTRA>
-0.00576686

>  <SCORE.INTRA.DIHEDRAL>
4.62049e-05

>  <SCORE.INTRA.DIHEDRAL.0>
2.40424

>  <SCORE.INTRA.POLAR>
0

>  <SCORE.INTRA.POLAR.0>
0

>  <SCORE.INTRA.REPUL>
0

>  <SCORE.INTRA.REPUL.0>
0

>  <SCORE.INTRA.SOLV>
0.00240407

>  <SCORE.INTRA.SOLV.lig_0>
-134.169

>  <SCORE.INTRA.VDW>
-0.006992

>  <SCORE.INTRA.VDW.0>
-2.18386

>  <SCORE.INTRA.norm>
-0.000125367

>  <SCORE.RESTR>
0

>  <SCORE.RESTR.CAVITY>
0

>  <SCORE.RESTR.norm>
0

>  <SCORE.SYSTEM>
0

>  <SCORE.SYSTEM.CONST>
0

>  <SCORE.SYSTEM.DIHEDRAL>
0

>  <SCORE.SYSTEM.SOLV>
0

>  <SCORE.SYSTEM.norm>
0

>  <SCORE.heavy>
46

>  <SCORE.norm>
-0.879568

>  <RMSD>
0.176

$$$$
ligand
 OpenBabel02271912143D
libRbt.so/2013.1/901 2013/11/27
 46 52  0  0  0  0  0  0  0  0999 V2000
   -9.7371    4.9388   15.6566 P   0  0  1  0  0  0  0  0  0  0  0  0
   -5.2676    2.5413   18.6485 P   0  0  2  0  0  0  0  0  0  0  0  0
  -10.4940    3.7262   14.6086 O   0  5  0  0  0  0  0  0  0  0  0  0
  -10.5992    6.4981   15.5872 O   0  0  0  0  0  0  0  0  0  0  0  0
   -9.0843    5.0875   18.2208 C   0  0  0  0  0  0  0  0  0  0  0  0
   -9.7283    4.3725   17.1660 O   0  0  0  0  0  0  0  0  0  0  0  0
   -8.8160    4.1264   19.3631 C   0  0  1  0  0  0  0  0  0  0  0  0
  -10.0347    3.4610   19.7238 O   0  0  0  0  0  0  0  0  0  0  0  0
   -7.8397    3.0195   18.9996 C   0  0  1  0  0  0  0  0  0  0  0  0
   -6.4905    3.3753   19.2933 O   0  0  0  0  0  0  0  0  0  0  0  0
   -8.3154    1.8494   19.8427 C   0  0  1  0  0  0  0  0  0  0  0  0
   -7.6822    1.8790   21.1243 O   0  0  0  0  0  0  0  0  0  0  0  0
   -9.8036    2.0774   20.0320 C   0  0  2  0  0  0  0  0  0  0  0  0
   -5.9938    2.9229   13.5588 C   0  0  1  0  0  0  0  0  0  0  0  0
  -10.5430   -2.7050   17.8471 N   0  0  0  0  0  0  0  0  0  0  0  0
   -9.6028   -2.3103   18.7486 C   0  0  1  0  0  0  0  0  0  0  0  0
   -7.4032    3.3282   13.8855 C   0  0  2  0  0  0  0  0  0  0  0  0
   -8.7057   -3.2267   19.1799 N   0  0  0  0  0  0  0  0  0  0  0  0
   -7.8193    4.2168   12.8470 O   0  0  0  0  0  0  0  0  0  0  0  0
   -7.3029    4.0269   15.2269 C   0  0  2  0  0  0  0  0  0  0  0  0
   -9.5287   -1.0333   19.2287 N   0  0  0  0  0  0  0  0  0  0  0  0
   -8.1800    5.1422   15.3057 O   0  0  0  0  0  0  0  0  0  0  0  0
  -10.4060   -0.0782   18.8291 C   0  0  2  0  0  0  0  0  0  0  0  0
   -5.8625    4.4913   15.3170 C   0  0  2  0  0  0  0  0  0  0  0  0
   -5.1272    3.6642   14.4166 O   0  0  0  0  0  0  0  0  0  0  0  0
  -11.4425   -0.4522   17.8513 C   0  0  1  0  0  0  0  0  0  0  0  0
   -5.2832    4.3552   16.7207 C   0  0  0  0  0  0  0  0  0  0  0  0
   -5.2931    2.9771   17.0986 O   0  0  0  0  0  0  0  0  0  0  0  0
  -11.4718   -1.8451   17.3705 C   0  0  0  0  0  0  0  0  0  0  0  0
  -12.4035   -2.2463   16.4689 O   0  0  0  0  0  0  0  0  0  0  0  0
  -12.1686    0.6460   17.6153 N   0  0  0  0  0  0  0  0  0  0  0  0
  -11.6449    1.6509   18.3766 C   0  0  0  0  0  0  0  0  0  0  0  0
  -10.5907    1.2237   19.1031 N   0  0  1  0  0  0  0  0  0  0  0  0
   -7.3749   -1.8241   11.8480 N   0  0  0  0  0  0  0  0  0  0  0  0
   -5.5208    0.7831   18.8086 O   0  5  0  0  0  0  0  0  0  0  0  0
   -7.7627   -0.5942   11.4123 C   0  0  2  0  0  0  0  0  0  0  0  0
   -8.6351   -0.5026   10.3748 N   0  0  0  0  0  0  0  0  0  0  0  0
   -3.6860    2.9750   19.3254 O   0  0  0  0  0  0  0  0  0  0  0  0
   -7.3024    0.5519   11.9839 N   0  0  0  0  0  0  0  0  0  0  0  0
   -6.4269    0.5253   13.0159 C   0  0  2  0  0  0  0  0  0  0  0  0
   -5.9736   -0.7730   13.5323 C   0  0  2  0  0  0  0  0  0  0  0  0
   -6.5128   -1.9824   12.8747 C   0  0  0  0  0  0  0  0  0  0  0  0
   -6.1542   -3.2244   13.2840 O   0  0  0  0  0  0  0  0  0  0  0  0
   -5.1295   -0.5095   14.5494 N   0  0  0  0  0  0  0  0  0  0  0  0
   -5.0463    0.8489   14.6704 C   0  0  0  0  0  0  0  0  0  0  0  0
   -5.8267    1.4625   13.7520 N   0  0  1  0  0  0  0  0  0  0  0  0
  1  3  1  6  0  0  0
  1  4  2  0  0  0  0
  1  6  1  0  0  0  0
  1 22  1  0  0  0  0
  2 28  1  0  0  0  0
  2 35  1  1  0  0  0
  2 38  2  0  0  0  0
  2 10  1  0  0  0  0
  5  6  1  0  0  0  0
  7  5  1  6  0  0  0
  7  8  1  0  0  0  0
  7  9  1  0  0  0  0
  9 10  1  1  0  0  0
  9 11  1  0  0  0  0
 11 12  1  1  0  0  0
 11 13  1  0  0  0  0
 13  8  1  6  0  0  0
 13 33  1  0  0  0  0
 14 46  1  0  0  0  0
 14 17  1  0  0  0  0
 14 25  1  1  0  0  0
 15 16  1  0  0  0  0
 15 29  1  0  0  0  0
 16 18  1  6  0  0  0
 16 21  1  0  0  0  0
 17 19  1  6  0  0  0
 17 20  1  0  0  0  0
 20 22  1  6  0  0  0
 20 24  1  0  0  0  0
 23 21  1  6  0  0  0
 23 26  1  0  0  0  0
 23 33  1  0  0  0  0
 24 25  1  6  0  0  0
 24 27  1  0  0  0  0
 26 29  1  1  0  0  0
 26 31  1  0  0  0  0
 27 28  1  0  0  0  0
 29 30  2  0  0  0  0
 31 32  1  0  0  0  0
 33 32  1  1  0  0  0
 34 36  1  0  0  0  0
 34 42  1  0  0  0  0
 36 37  1  6  0  0  0
 36 39  1  0  0  0  0
 40 39  1  1  0  0  0
 40 41  1  0  0  0  0
 40 46  1  0  0  0  0
 41 42  1  1  0  0  0
 41 44  1  0  0  0  0
 42 43  2  0  0  0  0
 44 45  1  0  0  0  0
 46 45  1  6  0  0  0
M  CHG  2   3  -1  35  -1
M  END
>  <CHROM.1>
161.61977915,66.50529845,-8.03520316,1.70876736,16.43273396,-2.22427751,-0.98847719
-2.47919764

>  <Name>
ligand

>  <RI>
416

>  <Rbt.Current_Directory>
/home/itssahil/PROJECTS/Mol_Feturizer/Test_systems_manuscript/rnas/3mum

>  <Rbt.Executable>
rbdock ($Id: //depot/dev/client3/rdock/2013.1/src/exe/rbdock.cxx#4 $)

>  <Rbt.Library>
libRbt.so (2013.1, Build901 2013/11/27)

>  <Rbt.Parameter_File>
/export/apps/rDock/src/rDock_2013.1_src/data/scripts/dock_solv.prm

>  <Rbt.Receptor>
prm/pocket_docking_3.prm

>  <SCORE>
-40.5045

>  <SCORE.INTER>
-40.5159

>  <SCORE.INTER.CONST>
1

>  <SCORE.INTER.POLAR>
0

>  <SCORE.INTER.ROT>
2

>  <SCORE.INTER.SOLV>
38.5426

>  <SCORE.INTER.VDW>
-44.7915

>  <SCORE.INTER.norm>
-0.880781

>  <SCORE.INTRA>
0.0114417

>  <SCORE.INTRA.DIHEDRAL>
0.00139789

>  <SCORE.INTRA.DIHEDRAL.0>
2.40424

>  <SCORE.INTRA.POLAR>
0

>  <SCORE.INTRA.POLAR.0>
0

>  <SCORE.INTRA.REPUL>
0

>  <SCORE.INTRA.REPUL.0>
0

>  <SCORE.INTRA.SOLV>
0.00154879

>  <SCORE.INTRA.SOLV.lig_0>
-134.169

>  <SCORE.INTRA.VDW>
0.00996835

>  <SCORE.INTRA.VDW.0>
-2.18386

>  <SCORE.INTRA.norm>
0.000248732

>  <SCORE.RESTR>
0

>  <SCORE.RESTR.CAVITY>
0

>  <SCORE.RESTR.norm>
0

>  <SCORE.SYSTEM>
0

>  <SCORE.SYSTEM.CONST>
0

>  <SCORE.SYSTEM.DIHEDRAL>
0

>  <SCORE.SYSTEM.SOLV>
0

>  <SCORE.SYSTEM.norm>
0

>  <SCORE.heavy>
46

>  <SCORE.norm>
-0.880532

>  <RMSD>
0.177

$$$$
ligand
 OpenBabel02271912143D
libRbt.so/2013.1/901 2013/11/27
 46 52  0  0  0  0  0  0  0  0999 V2000
   -9.7344    4.9029   15.6684 P   0  0  1  0  0  0  0  0  0  0  0  0
   -5.2723    2.4881   18.6575 P   0  0  2  0  0  0  0  0  0  0  0  0
  -10.4839    3.6982   14.6060 O   0  5  0  0  0  0  0  0  0  0  0  0
  -10.5998    6.4607   15.6096 O   0  0  0  0  0  0  0  0  0  0  0  0
   -9.0930    5.0294   18.2366 C   0  0  0  0  0  0  0  0  0  0  0  0
   -9.7308    4.3227   17.1726 O   0  0  0  0  0  0  0  0  0  0  0  0
   -8.8274    4.0585   19.3713 C   0  0  1  0  0  0  0  0  0  0  0  0
  -10.0461    3.3871   19.7206 O   0  0  0  0  0  0  0  0  0  0  0  0
   -7.8470    2.9572   19.0019 C   0  0  1  0  0  0  0  0  0  0  0  0
   -6.4999    3.3134   19.3047 O   0  0  0  0  0  0  0  0  0  0  0  0
   -8.3236    1.7784   19.8320 C   0  0  1  0  0  0  0  0  0  0  0  0
   -7.6961    1.7976   21.1167 O   0  0  0  0  0  0  0  0  0  0  0  0
   -9.8131    2.0012   20.0170 C   0  0  2  0  0  0  0  0  0  0  0  0
   -5.9774    2.9149   13.5685 C   0  0  1  0  0  0  0  0  0  0  0  0
  -10.5745   -2.7794   17.8356 N   0  0  0  0  0  0  0  0  0  0  0  0
   -9.6459   -2.3935   18.7527 C   0  0  1  0  0  0  0  0  0  0  0  0
   -7.3890    3.3140   13.8927 C   0  0  2  0  0  0  0  0  0  0  0  0
   -8.7687   -3.3198   19.2035 N   0  0  0  0  0  0  0  0  0  0  0  0
   -7.8027    4.2111   12.8607 O   0  0  0  0  0  0  0  0  0  0  0  0
   -7.2962    4.0005   15.2410 C   0  0  2  0  0  0  0  0  0  0  0  0
   -9.5639   -1.1158   19.2297 N   0  0  0  0  0  0  0  0  0  0  0  0
   -8.1763    5.1130   15.3262 O   0  0  0  0  0  0  0  0  0  0  0  0
  -10.4214   -0.1509   18.8109 C   0  0  2  0  0  0  0  0  0  0  0  0
   -5.8573    4.4673   15.3415 C   0  0  2  0  0  0  0  0  0  0  0  0
   -5.1162    3.6503   14.4368 O   0  0  0  0  0  0  0  0  0  0  0  0
  -11.4447   -0.5152   17.8156 C   0  0  1  0  0  0  0  0  0  0  0  0
   -5.2838    4.3197   16.7464 C   0  0  0  0  0  0  0  0  0  0  0  0
   -5.2920    2.9382   17.1116 O   0  0  0  0  0  0  0  0  0  0  0  0
  -11.4834   -1.9093   17.3392 C   0  0  0  0  0  0  0  0  0  0  0  0
  -12.4036   -2.3019   16.4221 O   0  0  0  0  0  0  0  0  0  0  0  0
  -12.1521    0.5914   17.5625 N   0  0  0  0  0  0  0  0  0  0  0  0
  -11.6294    1.5923   18.3298 C   0  0  0  0  0  0  0  0  0  0  0  0
  -10.5942    1.1543   19.0769 N   0  0  1  0  0  0  0  0  0  0  0  0
   -7.3842   -1.8199   11.8449 N   0  0  0  0  0  0  0  0  0  0  0  0
   -5.5220    0.7280   18.8004 O   0  5  0  0  0  0  0  0  0  0  0  0
   -7.7781   -0.5870   11.4235 C   0  0  2  0  0  0  0  0  0  0  0  0
   -8.6656   -0.4880   10.3996 N   0  0  0  0  0  0  0  0  0  0  0  0
   -3.6946    2.9193   19.3453 O   0  0  0  0  0  0  0  0  0  0  0  0
   -7.3093    0.5551   11.9964 N   0  0  0  0  0  0  0  0  0  0  0  0
   -6.4187    0.5212   13.0152 C   0  0  2  0  0  0  0  0  0  0  0  0
   -5.9581   -0.7807   13.5158 C   0  0  2  0  0  0  0  0  0  0  0  0
   -6.5071   -1.9855   12.8577 C   0  0  0  0  0  0  0  0  0  0  0  0
   -6.1428   -3.2303   13.2530 O   0  0  0  0  0  0  0  0  0  0  0  0
   -5.0991   -0.5244   14.5222 N   0  0  0  0  0  0  0  0  0  0  0  0
   -5.0140    0.8332   14.6515 C   0  0  0  0  0  0  0  0  0  0  0  0
   -5.8077    1.4532   13.7490 N   0  0  1  0  0  0  0  0  0  0  0  0
  1  3  1  6  0  0  0
  1  4  2  0  0  0  0
  1  6  1  0  0  0  0
  1 22  1  0  0  0  0
  2 28  1  0  0  0  0
  2 35  1  1  0  0  0
  2 38  2  0  0  0  0
  2 10  1  0  0  0  0
  5  6  1  0  0  0  0
  7  5  1  6  0  0  0
  7  8  1  0  0  0  0
  7  9  1  0  0  0  0
  9 10  1  1  0  0  0
  9 11  1  0  0  0  0
 11 12  1  1  0  0  0
 11 13  1  0  0  0  0
 13  8  1  6  0  0  0
 13 33  1  0  0  0  0
 14 46  1  0  0  0  0
 14 17  1  0  0  0  0
 14 25  1  1  0  0  0
 15 16  1  0  0  0  0
 15 29  1  0  0  0  0
 16 18  1  6  0  0  0
 16 21  1  0  0  0  0
 17 19  1  6  0  0  0
 17 20  1  0  0  0  0
 20 22  1  6  0  0  0
 20 24  1  0  0  0  0
 23 21  1  6  0  0  0
 23 26  1  0  0  0  0
 23 33  1  0  0  0  0
 24 25  1  6  0  0  0
 24 27  1  0  0  0  0
 26 29  1  1  0  0  0
 26 31  1  0  0  0  0
 27 28  1  0  0  0  0
 29 30  2  0  0  0  0
 31 32  1  0  0  0  0
 33 32  1  1  0  0  0
 34 36  1  0  0  0  0
 34 42  1  0  0  0  0
 36 37  1  6  0  0  0
 36 39  1  0  0  0  0
 40 39  1  1  0  0  0
 40 41  1  0  0  0  0
 40 46  1  0  0  0  0
 41 42  1  1  0  0  0
 41 44  1  0  0  0  0
 42 43  2  0  0  0  0
 44 45  1  0  0  0  0
 46 45  1  6  0  0  0
M  CHG  2   3  -1  35  -1
M  END
>  <CHROM.1>
163.00903003,65.40088848,-8.03776344,1.66784126,16.43169372,-2.25000127,-0.98651308
-2.46988631

>  <Name>
ligand

>  <RI>
-1

>  <Rbt.Current_Directory>
/home/itssahil/PROJECTS/Mol_Feturizer/Test_systems_manuscript/rnas/3mum

>  <Rbt.Executable>
rbdock ($Id: //depot/dev/client3/rdock/2013.1/src/exe/rbdock.cxx#4 $)

>  <Rbt.Library>
libRbt.so (2013.1, Build901 2013/11/27)

>  <Rbt.Parameter_File>
/export/apps/rDock/src/rDock_2013.1_src/data/scripts/dock_solv.prm

>  <Rbt.Receptor>
prm/pocket_docking_4.prm

>  <SCORE>
-40.4563

>  <SCORE.INTER>
-40.4506

>  <SCORE.INTER.CONST>
1

>  <SCORE.INTER.POLAR>
0

>  <SCORE.INTER.ROT>
2

>  <SCORE.INTER.SOLV>
38.9793

>  <SCORE.INTER.VDW>
-44.8935

>  <SCORE.INTER.norm>
-0.879361

>  <SCORE.INTRA>
-0.00572581

>  <SCORE.INTRA.DIHEDRAL>
2.70409e-05

>  <SCORE.INTRA.DIHEDRAL.0>
2.40424

>  <SCORE.INTRA.POLAR>
0

>  <SCORE.INTRA.POLAR.0>
0

>  <SCORE.INTRA.REPUL>
0

>  <SCORE.INTRA.REPUL.0>
0

>  <SCORE.INTRA.SOLV>
0.00241771

>  <SCORE.INTRA.SOLV.lig_0>
-134.169

>  <SCORE.INTRA.VDW>
-0.00694818

>  <SCORE.INTRA.VDW.0>
-2.18386

>  <SCORE.INTRA.norm>
-0.000124474

>  <SCORE.RESTR>
0

>  <SCORE.RESTR.CAVITY>
0

>  <SCORE.RESTR.norm>
0

>  <SCORE.SYSTEM>
0

>  <SCORE.SYSTEM.CONST>
0

>  <SCORE.SYSTEM.DIHEDRAL>
0

>  <SCORE.SYSTEM.SOLV>
0

>  <SCORE.SYSTEM.norm>
0

>  <SCORE.heavy>
46

>  <SCORE.norm>
-0.879485

>  <RMSD>
0.177

$$$$
ligand
 OpenBabel02271912143D
libRbt.so/2013.1/901 2013/11/27
 46 52  0  0  0  0  0  0  0  0999 V2000
   -9.7444    4.9451   15.6222 P   0  0  1  0  0  0  0  0  0  0  0  0
   -5.2925    2.5804   18.6661 P   0  0  2  0  0  0  0  0  0  0  0  0
  -10.4859    3.7247   14.5721 O   0  5  0  0  0  0  0  0  0  0  0  0
  -10.6130    6.5000   15.5383 O   0  0  0  0  0  0  0  0  0  0  0  0
   -9.1166    5.1072   18.1919 C   0  0  0  0  0  0  0  0  0  0  0  0
   -9.7473    4.3849   17.1340 O   0  0  0  0  0  0  0  0  0  0  0  0
   -8.8547    4.1520   19.3406 C   0  0  1  0  0  0  0  0  0  0  0  0
  -10.0737    3.4825   19.6926 O   0  0  0  0  0  0  0  0  0  0  0  0
   -7.8699    3.0481   18.9909 C   0  0  1  0  0  0  0  0  0  0  0  0
   -6.5253    3.4114   19.2959 O   0  0  0  0  0  0  0  0  0  0  0  0
   -8.3483    1.8793   19.8343 C   0  0  1  0  0  0  0  0  0  0  0  0
   -7.7274    1.9170   21.1217 O   0  0  0  0  0  0  0  0  0  0  0  0
   -9.8392    2.1012   20.0086 C   0  0  2  0  0  0  0  0  0  0  0  0
   -5.9723    2.9379   13.5682 C   0  0  1  0  0  0  0  0  0  0  0  0
  -10.5505   -2.6992   17.8539 N   0  0  0  0  0  0  0  0  0  0  0  0
   -9.6231   -2.2974   18.7654 C   0  0  1  0  0  0  0  0  0  0  0  0
   -7.3865    3.3380   13.8799 C   0  0  2  0  0  0  0  0  0  0  0  0
   -8.7328   -3.2106   19.2172 N   0  0  0  0  0  0  0  0  0  0  0  0
   -7.7969    4.2204   12.8339 O   0  0  0  0  0  0  0  0  0  0  0  0
   -7.3021    4.0427   15.2194 C   0  0  2  0  0  0  0  0  0  0  0  0
   -9.5549   -1.0164   19.2357 N   0  0  0  0  0  0  0  0  0  0  0  0
   -8.1851    5.1542   15.2853 O   0  0  0  0  0  0  0  0  0  0  0  0
  -10.4258   -0.0642   18.8156 C   0  0  2  0  0  0  0  0  0  0  0  0
   -5.8648    4.5140   15.3211 C   0  0  2  0  0  0  0  0  0  0  0  0
   -5.1173    3.6867   14.4311 O   0  0  0  0  0  0  0  0  0  0  0  0
  -11.4486   -0.4459   17.8263 C   0  0  1  0  0  0  0  0  0  0  0  0
   -5.2982    4.3864   16.7307 C   0  0  0  0  0  0  0  0  0  0  0  0
   -5.3053    3.0098   17.1142 O   0  0  0  0  0  0  0  0  0  0  0  0
  -11.4720   -1.8428   17.3569 C   0  0  0  0  0  0  0  0  0  0  0  0
  -12.3910   -2.2511   16.4455 O   0  0  0  0  0  0  0  0  0  0  0  0
  -12.1705    0.6507   17.5706 N   0  0  0  0  0  0  0  0  0  0  0  0
  -11.6570    1.6616   18.3307 C   0  0  0  0  0  0  0  0  0  0  0  0
  -10.6136    1.2401   19.0759 N   0  0  1  0  0  0  0  0  0  0  0  0
   -7.3881   -1.8226   11.9247 N   0  0  0  0  0  0  0  0  0  0  0  0
   -5.5391    0.8218   18.8310 O   0  5  0  0  0  0  0  0  0  0  0  0
   -7.7859   -0.5962   11.4880 C   0  0  2  0  0  0  0  0  0  0  0  0
   -8.6808   -0.5129   10.4691 N   0  0  0  0  0  0  0  0  0  0  0  0
   -3.7194    3.0242   19.3561 O   0  0  0  0  0  0  0  0  0  0  0  0
   -7.3138    0.5545   12.0406 N   0  0  0  0  0  0  0  0  0  0  0  0
   -6.4160    0.5361   13.0534 C   0  0  2  0  0  0  0  0  0  0  0  0
   -5.9509   -0.7580   13.5699 C   0  0  2  0  0  0  0  0  0  0  0  0
   -6.5038   -1.9727   12.9335 C   0  0  0  0  0  0  0  0  0  0  0  0
   -6.1357   -3.2113   13.3445 O   0  0  0  0  0  0  0  0  0  0  0  0
   -5.0849   -0.4865   14.5662 N   0  0  0  0  0  0  0  0  0  0  0  0
   -4.9998    0.8729   14.6749 C   0  0  0  0  0  0  0  0  0  0  0  0
   -5.8003    1.4791   13.7690 N   0  0  1  0  0  0  0  0  0  0  0  0
  1  3  1  6  0  0  0
  1  4  2  0  0  0  0
  1  6  1  0  0  0  0
  1 22  1  0  0  0  0
  2 28  1  0  0  0  0
  2 35  1  1  0  0  0
  2 38  2  0  0  0  0
  2 10  1  0  0  0  0
  5  6  1  0  0  0  0
  7  5  1  6  0  0  0
  7  8  1  0  0  0  0
  7  9  1  0  0  0  0
  9 10  1  1  0  0  0
  9 11  1  0  0  0  0
 11 12  1  1  0  0  0
 11 13  1  0  0  0  0
 13  8  1  6  0  0  0
 13 33  1  0  0  0  0
 14 46  1  0  0  0  0
 14 17  1  0  0  0  0
 14 25  1  1  0  0  0
 15 16  1  0  0  0  0
 15 29  1  0  0  0  0
 16 18  1  6  0  0  0
 16 21  1  0  0  0  0
 17 19  1  6  0  0  0
 17 20  1  0  0  0  0
 20 22  1  6  0  0  0
 20 24  1  0  0  0  0
 23 21  1  6  0  0  0
 23 26  1  0  0  0  0
 23 33  1  0  0  0  0
 24 25  1  6  0  0  0
 24 27  1  0  0  0  0
 26 29  1  1  0  0  0
 26 31  1  0  0  0  0
 27 28  1  0  0  0  0
 29 30  2  0  0  0  0
 31 32  1  0  0  0  0
 33 32  1  1  0  0  0
 34 36  1  0  0  0  0
 34 42  1  0  0  0  0
 36 37  1  6  0  0  0
 36 39  1  0  0  0  0
 40 39  1  1  0  0  0
 40 41  1  0  0  0  0
 40 46  1  0  0  0  0
 41 42  1  1  0  0  0
 41 44  1  0  0  0  0
 42 43  2  0  0  0  0
 44 45  1  0  0  0  0
 46 45  1  6  0  0  0
M  CHG  2   3  -1  35  -1
M  END
>  <CHROM.1>
162.09733569,64.68557934,-8.04472466,1.72543668,16.43623933,-2.23486887,-0.98284788
-2.48858140

>  <Name>
ligand

>  <RI>
416

>  <Rbt.Current_Directory>
/home/itssahil/PROJECTS/Mol_Feturizer/Test_systems_manuscript/rnas/3mum

>  <Rbt.Executable>
rbdock ($Id: //depot/dev/client3/rdock/2013.1/src/exe/rbdock.cxx#4 $)

>  <Rbt.Library>
libRbt.so (2013.1, Build901 2013/11/27)

>  <Rbt.Parameter_File>
/export/apps/rDock/src/rDock_2013.1_src/data/scripts/dock_solv.prm

>  <Rbt.Receptor>
prm/pocket_docking_2.prm

>  <SCORE>
-40.4654

>  <SCORE.INTER>
-40.4917

>  <SCORE.INTER.CONST>
1

>  <SCORE.INTER.POLAR>
0

>  <SCORE.INTER.ROT>
2

>  <SCORE.INTER.SOLV>
38.3925

>  <SCORE.INTER.VDW>
-44.7253

>  <SCORE.INTER.norm>
-0.880255

>  <SCORE.INTRA>
0.0263198

>  <SCORE.INTRA.DIHEDRAL>
-0.00108071

>  <SCORE.INTRA.DIHEDRAL.0>
2.40424

>  <SCORE.INTRA.POLAR>
0

>  <SCORE.INTRA.POLAR.0>
0

>  <SCORE.INTRA.REPUL>
0

>  <SCORE.INTRA.REPUL.0>
0

>  <SCORE.INTRA.SOLV>
0.00382622

>  <SCORE.INTRA.SOLV.lig_0>
-134.169

>  <SCORE.INTRA.VDW>
0.024947

>  <SCORE.INTRA.VDW.0>
-2.18386

>  <SCORE.INTRA.norm>
0.000572169

>  <SCORE.RESTR>
0

>  <SCORE.RESTR.CAVITY>
0

>  <SCORE.RESTR.norm>
0

>  <SCORE.SYSTEM>
0

>  <SCORE.SYSTEM.CONST>
0

>  <SCORE.SYSTEM.DIHEDRAL>
0

>  <SCORE.SYSTEM.SOLV>
0

>  <SCORE.SYSTEM.norm>
0

>  <SCORE.heavy>
46

>  <SCORE.norm>
-0.879683

>  <RMSD>
0.178

$$$$
ligand
 OpenBabel02271912143D
libRbt.so/2013.1/901 2013/11/27
 46 52  0  0  0  0  0  0  0  0999 V2000
   -9.7432    4.9272   15.6386 P   0  0  1  0  0  0  0  0  0  0  0  0
   -5.2813    2.5533   18.6606 P   0  0  2  0  0  0  0  0  0  0  0  0
  -10.4916    3.7085   14.5914 O   0  5  0  0  0  0  0  0  0  0  0  0
  -10.6093    6.4837   15.5594 O   0  0  0  0  0  0  0  0  0  0  0  0
   -9.1031    5.0870   18.2053 C   0  0  0  0  0  0  0  0  0  0  0  0
   -9.7400    4.3664   17.1501 O   0  0  0  0  0  0  0  0  0  0  0  0
   -8.8375    4.1309   19.3525 C   0  0  1  0  0  0  0  0  0  0  0  0
  -10.0560    3.4634   19.7098 O   0  0  0  0  0  0  0  0  0  0  0  0
   -7.8563    3.0254   18.9977 C   0  0  1  0  0  0  0  0  0  0  0  0
   -6.5096    3.3862   19.2965 O   0  0  0  0  0  0  0  0  0  0  0  0
   -8.3328    1.8571   19.8427 C   0  0  1  0  0  0  0  0  0  0  0  0
   -7.7059    1.8932   21.1273 O   0  0  0  0  0  0  0  0  0  0  0  0
   -9.8225    2.0816   20.0241 C   0  0  2  0  0  0  0  0  0  0  0  0
   -5.9842    2.9142   13.5661 C   0  0  1  0  0  0  0  0  0  0  0  0
  -10.5383   -2.7111   17.8537 N   0  0  0  0  0  0  0  0  0  0  0  0
   -9.6036   -2.3104   18.7583 C   0  0  1  0  0  0  0  0  0  0  0  0
   -7.3962    3.3167   13.8846 C   0  0  2  0  0  0  0  0  0  0  0  0
   -8.7061   -3.2227   19.1975 N   0  0  0  0  0  0  0  0  0  0  0  0
   -7.8099    4.2003   12.8409 O   0  0  0  0  0  0  0  0  0  0  0  0
   -7.3043    4.0206   15.2239 C   0  0  2  0  0  0  0  0  0  0  0  0
   -9.5353   -1.0314   19.2340 N   0  0  0  0  0  0  0  0  0  0  0  0
   -8.1850    5.1336   15.2945 O   0  0  0  0  0  0  0  0  0  0  0  0
  -10.4132   -0.0802   18.8265 C   0  0  2  0  0  0  0  0  0  0  0  0
   -5.8657    4.4894   15.3191 C   0  0  2  0  0  0  0  0  0  0  0  0
   -5.1238    3.6611   14.4253 O   0  0  0  0  0  0  0  0  0  0  0  0
  -11.4439   -0.4607   17.8450 C   0  0  1  0  0  0  0  0  0  0  0  0
   -5.2928    4.3601   16.7261 C   0  0  0  0  0  0  0  0  0  0  0  0
   -5.3005    2.9834   17.1090 O   0  0  0  0  0  0  0  0  0  0  0  0
  -11.4671   -1.8554   17.3694 C   0  0  0  0  0  0  0  0  0  0  0  0
  -12.3933   -2.2626   16.4647 O   0  0  0  0  0  0  0  0  0  0  0  0
  -12.1717    0.6347   17.6012 N   0  0  0  0  0  0  0  0  0  0  0  0
  -11.6545    1.6438   18.3613 C   0  0  0  0  0  0  0  0  0  0  0  0
  -10.6028    1.2222   19.0946 N   0  0  1  0  0  0  0  0  0  0  0  0
   -7.3407   -1.8429   11.8638 N   0  0  0  0  0  0  0  0  0  0  0  0
   -5.5302    0.7950   18.8260 O   0  5  0  0  0  0  0  0  0  0  0  0
   -7.7295   -0.6157   11.4214 C   0  0  2  0  0  0  0  0  0  0  0  0
   -8.5960   -0.5304   10.3784 N   0  0  0  0  0  0  0  0  0  0  0  0
   -3.7041    2.9940   19.3435 O   0  0  0  0  0  0  0  0  0  0  0  0
   -7.2762    0.5338   11.9918 N   0  0  0  0  0  0  0  0  0  0  0  0
   -6.4068    0.5134   13.0291 C   0  0  2  0  0  0  0  0  0  0  0  0
   -5.9527   -0.7816   13.5528 C   0  0  2  0  0  0  0  0  0  0  0  0
   -6.4844   -1.9950   12.8962 C   0  0  0  0  0  0  0  0  0  0  0  0
   -6.1245   -3.2344   13.3121 O   0  0  0  0  0  0  0  0  0  0  0  0
   -5.1155   -0.5121   14.5740 N   0  0  0  0  0  0  0  0  0  0  0  0
   -5.0372    0.8471   14.6907 C   0  0  0  0  0  0  0  0  0  0  0  0
   -5.8139    1.4550   13.7655 N   0  0  1  0  0  0  0  0  0  0  0  0
  1  3  1  6  0  0  0
  1  4  2  0  0  0  0
  1  6  1  0  0  0  0
  1 22  1  0  0  0  0
  2 28  1  0  0  0  0
  2 35  1  1  0  0  0
  2 38  2  0  0  0  0
  2 10  1  0  0  0  0
  5  6  1  0  0  0  0
  7  5  1  6  0  0  0
  7  8  1  0  0  0  0
  7  9  1  0  0  0  0
  9 10  1  1  0  0  0
  9 11  1  0  0  0  0
 11 12  1  1  0  0  0
 11 13  1  0  0  0  0
 13  8  1  6  0  0  0
 13 33  1  0  0  0  0
 14 46  1  0  0  0  0
 14 17  1  0  0  0  0
 14 25  1  1  0  0  0
 15 16  1  0  0  0  0
 15 29  1  0  0  0  0
 16 18  1  6  0  0  0
 16 21  1  0  0  0  0
 17 19  1  6  0  0  0
 17 20  1  0  0  0  0
 20 22  1  6  0  0  0
 20 24  1  0  0  0  0
 23 21  1  6  0  0  0
 23 26  1  0  0  0  0
 23 33  1  0  0  0  0
 24 25  1  6  0  0  0
 24 27  1  0  0  0  0
 26 29  1  1  0  0  0
 26 31  1  0  0  0  0
 27 28  1  0  0  0  0
 29 30  2  0  0  0  0
 31 32  1  0  0  0  0
 33 32  1  1  0  0  0
 34 36  1  0  0  0  0
 34 42  1  0  0  0  0
 36 37  1  6  0  0  0
 36 39  1  0  0  0  0
 40 39  1  1  0  0  0
 40 41  1  0  0  0  0
 40 46  1  0  0  0  0
 41 42  1  1  0  0  0
 41 44  1  0  0  0  0
 42 43  2  0  0  0  0
 44 45  1  0  0  0  0
 46 45  1  6  0  0  0
M  CHG  2   3  -1  35  -1
M  END
>  <CHROM.1>
161.63266016,66.57686958,-8.03558683,1.70478994,16.43451402,-2.23452877,-0.98647452
-2.49102021

>  <Name>
ligand

>  <RI>
416

>  <Rbt.Current_Directory>
/home/itssahil/PROJECTS/Mol_Feturizer/Test_systems_manuscript/rnas/3mum

>  <Rbt.Executable>
rbdock ($Id: //depot/dev/client3/rdock/2013.1/src/exe/rbdock.cxx#4 $)

>  <Rbt.Library>
libRbt.so (2013.1, Build901 2013/11/27)

>  <Rbt.Parameter_File>
/export/apps/rDock/src/rDock_2013.1_src/data/scripts/dock_solv.prm

>  <Rbt.Receptor>
prm/pocket_docking_2.prm

>  <SCORE>
-40.4599

>  <SCORE.INTER>
-40.4705

>  <SCORE.INTER.CONST>
1

>  <SCORE.INTER.POLAR>
0

>  <SCORE.INTER.ROT>
2

>  <SCORE.INTER.SOLV>
38.4439

>  <SCORE.INTER.VDW>
-44.7283

>  <SCORE.INTER.norm>
-0.879794

>  <SCORE.INTRA>
0.0106384

>  <SCORE.INTRA.DIHEDRAL>
0.00149737

>  <SCORE.INTRA.DIHEDRAL.0>
2.40424

>  <SCORE.INTRA.POLAR>
0

>  <SCORE.INTRA.POLAR.0>
0

>  <SCORE.INTRA.REPUL>
0

>  <SCORE.INTRA.REPUL.0>
0

>  <SCORE.INTRA.SOLV>
0.00144262

>  <SCORE.INTRA.SOLV.lig_0>
-134.169

>  <SCORE.INTRA.VDW>
0.00916841

>  <SCORE.INTRA.VDW.0>
-2.18386

>  <SCORE.INTRA.norm>
0.00023127

>  <SCORE.RESTR>
0

>  <SCORE.RESTR.CAVITY>
0

>  <SCORE.RESTR.norm>
0

>  <SCORE.SYSTEM>
0

>  <SCORE.SYSTEM.CONST>
0

>  <SCORE.SYSTEM.DIHEDRAL>
0

>  <SCORE.SYSTEM.SOLV>
0

>  <SCORE.SYSTEM.norm>
0

>  <SCORE.heavy>
46

>  <SCORE.norm>
-0.879563

>  <RMSD>
0.178

$$$$
ligand
 OpenBabel02271912143D
libRbt.so/2013.1/901 2013/11/27
 46 52  0  0  0  0  0  0  0  0999 V2000
   -9.7371    4.9242   15.6595 P   0  0  1  0  0  0  0  0  0  0  0  0
   -5.2694    2.5318   18.6583 P   0  0  2  0  0  0  0  0  0  0  0  0
  -10.4927    3.7100   14.6124 O   0  5  0  0  0  0  0  0  0  0  0  0
  -10.5996    6.4831   15.5874 O   0  0  0  0  0  0  0  0  0  0  0  0
   -9.0865    5.0763   18.2241 C   0  0  0  0  0  0  0  0  0  0  0  0
   -9.7294    4.3598   17.1697 O   0  0  0  0  0  0  0  0  0  0  0  0
   -8.8189    4.1167   19.3679 C   0  0  1  0  0  0  0  0  0  0  0  0
  -10.0377    3.4515   19.7284 O   0  0  0  0  0  0  0  0  0  0  0  0
   -7.8419    3.0097   19.0066 C   0  0  1  0  0  0  0  0  0  0  0  0
   -6.4931    3.3663   19.3010 O   0  0  0  0  0  0  0  0  0  0  0  0
   -8.3180    1.8406   19.8507 C   0  0  1  0  0  0  0  0  0  0  0  0
   -7.6860    1.8719   21.1329 O   0  0  0  0  0  0  0  0  0  0  0  0
   -9.8064    2.0683   20.0385 C   0  0  2  0  0  0  0  0  0  0  0  0
   -5.9914    2.9068   13.5675 C   0  0  1  0  0  0  0  0  0  0  0  0
  -10.5384   -2.7156   17.8542 N   0  0  0  0  0  0  0  0  0  0  0  0
   -9.5985   -2.3191   18.7552 C   0  0  1  0  0  0  0  0  0  0  0  0
   -7.4011    3.3121   13.8925 C   0  0  2  0  0  0  0  0  0  0  0  0
   -8.6996   -3.2339   19.1861 N   0  0  0  0  0  0  0  0  0  0  0  0
   -7.8166    4.1992   12.8526 O   0  0  0  0  0  0  0  0  0  0  0  0
   -7.3022    4.0125   15.2331 C   0  0  2  0  0  0  0  0  0  0  0  0
   -9.5264   -1.0420   19.2352 N   0  0  0  0  0  0  0  0  0  0  0  0
   -8.1798    5.1276   15.3098 O   0  0  0  0  0  0  0  0  0  0  0  0
  -10.4056   -0.0884   18.8360 C   0  0  2  0  0  0  0  0  0  0  0  0
   -5.8620    4.4774   15.3238 C   0  0  2  0  0  0  0  0  0  0  0  0
   -5.1258    3.6494   14.4251 O   0  0  0  0  0  0  0  0  0  0  0  0
  -11.4419   -0.4643   17.8587 C   0  0  1  0  0  0  0  0  0  0  0  0
   -5.2839    4.3433   16.7282 C   0  0  0  0  0  0  0  0  0  0  0  0
   -5.2937    2.9657   17.1079 O   0  0  0  0  0  0  0  0  0  0  0  0
  -11.4690   -1.8572   17.3780 C   0  0  0  0  0  0  0  0  0  0  0  0
  -12.4004   -2.2601   16.4768 O   0  0  0  0  0  0  0  0  0  0  0  0
  -12.1701    0.6327   17.6229 N   0  0  0  0  0  0  0  0  0  0  0  0
  -11.6477    1.6384   18.3840 C   0  0  0  0  0  0  0  0  0  0  0  0
  -10.5925    1.2132   19.1100 N   0  0  1  0  0  0  0  0  0  0  0  0
   -7.3248   -1.8425   11.8256 N   0  0  0  0  0  0  0  0  0  0  0  0
   -5.5222    0.7738   18.8204 O   0  5  0  0  0  0  0  0  0  0  0  0
   -7.7074   -0.6133   11.3833 C   0  0  2  0  0  0  0  0  0  0  0  0
   -8.5594   -0.5232   10.3288 N   0  0  0  0  0  0  0  0  0  0  0  0
   -3.6885    2.9669   19.3360 O   0  0  0  0  0  0  0  0  0  0  0  0
   -7.2618    0.5336   11.9649 N   0  0  0  0  0  0  0  0  0  0  0  0
   -6.4068    0.5085   13.0140 C   0  0  2  0  0  0  0  0  0  0  0  0
   -5.9601   -0.7890   13.5382 C   0  0  2  0  0  0  0  0  0  0  0  0
   -6.4828   -1.9994   12.8689 C   0  0  0  0  0  0  0  0  0  0  0  0
   -6.1288   -3.2407   13.2842 O   0  0  0  0  0  0  0  0  0  0  0  0
   -5.1370   -0.5241   14.5720 N   0  0  0  0  0  0  0  0  0  0  0  0
   -5.0602    0.8345   14.6959 C   0  0  0  0  0  0  0  0  0  0  0  0
   -5.8240    1.4467   13.7627 N   0  0  1  0  0  0  0  0  0  0  0  0
  1  3  1  6  0  0  0
  1  4  2  0  0  0  0
  1  6  1  0  0  0  0
  1 22  1  0  0  0  0
  2 28  1  0  0  0  0
  2 35  1  1  0  0  0
  2 38  2  0  0  0  0
  2 10  1  0  0  0  0
  5  6  1  0  0  0  0
  7  5  1  6  0  0  0
  7  8  1  0  0  0  0
  7  9  1  0  0  0  0
  9 10  1  1  0  0  0
  9 11  1  0  0  0  0
 11 12  1  1  0  0  0
 11 13  1  0  0  0  0
 13  8  1  6  0  0  0
 13 33  1  0  0  0  0
 14 46  1  0  0  0  0
 14 17  1  0  0  0  0
 14 25  1  1  0  0  0
 15 16  1  0  0  0  0
 15 29  1  0  0  0  0
 16 18  1  6  0  0  0
 16 21  1  0  0  0  0
 17 19  1  6  0  0  0
 17 20  1  0  0  0  0
 20 22  1  6  0  0  0
 20 24  1  0  0  0  0
 23 21  1  6  0  0  0
 23 26  1  0  0  0  0
 23 33  1  0  0  0  0
 24 25  1  6  0  0  0
 24 27  1  0  0  0  0
 26 29  1  1  0  0  0
 26 31  1  0  0  0  0
 27 28  1  0  0  0  0
 29 30  2  0  0  0  0
 31 32  1  0  0  0  0
 33 32  1  1  0  0  0
 34 36  1  0  0  0  0
 34 42  1  0  0  0  0
 36 37  1  6  0  0  0
 36 39  1  0  0  0  0
 40 39  1  1  0  0  0
 40 41  1  0  0  0  0
 40 46  1  0  0  0  0
 41 42  1  1  0  0  0
 41 44  1  0  0  0  0
 42 43  2  0  0  0  0
 44 45  1  0  0  0  0
 46 45  1  6  0  0  0
M  CHG  2   3  -1  35  -1
M  END
>  <CHROM.1>
161.48736933,67.60737212,-8.02950228,1.69585984,16.43676934,-2.23322880,-0.98860884
-2.48722852

>  <Name>
ligand

>  <RI>
-1

>  <Rbt.Current_Directory>
/home/itssahil/PROJECTS/Mol_Feturizer/Test_systems_manuscript/rnas/3mum

>  <Rbt.Executable>
rbdock ($Id: //depot/dev/client3/rdock/2013.1/src/exe/rbdock.cxx#4 $)

>  <Rbt.Library>
libRbt.so (2013.1, Build901 2013/11/27)

>  <Rbt.Parameter_File>
/export/apps/rDock/src/rDock_2013.1_src/data/scripts/dock_solv.prm

>  <Rbt.Receptor>
prm/pocket_docking_7.prm

>  <SCORE>
-40.445

>  <SCORE.INTER>
-40.4469

>  <SCORE.INTER.CONST>
1

>  <SCORE.INTER.POLAR>
0

>  <SCORE.INTER.ROT>
2

>  <SCORE.INTER.SOLV>
38.6271

>  <SCORE.INTER.VDW>
-44.7736

>  <SCORE.INTER.norm>
-0.87928

>  <SCORE.INTRA>
0.00185037

>  <SCORE.INTRA.DIHEDRAL>
0.00287998

>  <SCORE.INTRA.DIHEDRAL.0>
2.40424

>  <SCORE.INTRA.POLAR>
0

>  <SCORE.INTRA.POLAR.0>
0

>  <SCORE.INTRA.REPUL>
0

>  <SCORE.INTRA.REPUL.0>
0

>  <SCORE.INTRA.SOLV>
5.86146e-05

>  <SCORE.INTRA.SOLV.lig_0>
-134.169

>  <SCORE.INTRA.VDW>
0.000381076

>  <SCORE.INTRA.VDW.0>
-2.18386

>  <SCORE.INTRA.norm>
4.02255e-05

>  <SCORE.RESTR>
0

>  <SCORE.RESTR.CAVITY>
0

>  <SCORE.RESTR.norm>
0

>  <SCORE.SYSTEM>
0

>  <SCORE.SYSTEM.CONST>
0

>  <SCORE.SYSTEM.DIHEDRAL>
0

>  <SCORE.SYSTEM.SOLV>
0

>  <SCORE.SYSTEM.norm>
0

>  <SCORE.heavy>
46

>  <SCORE.norm>
-0.87924

>  <RMSD>
0.181

$$$$
ligand
 OpenBabel02271912143D
libRbt.so/2013.1/901 2013/11/27
 46 52  0  0  0  0  0  0  0  0999 V2000
   -9.7647    4.9301   15.6441 P   0  0  1  0  0  0  0  0  0  0  0  0
   -5.2922    2.5548   18.6492 P   0  0  2  0  0  0  0  0  0  0  0  0
  -10.5198    3.7108   14.6026 O   0  5  0  0  0  0  0  0  0  0  0  0
  -10.6289    6.4878   15.5663 O   0  0  0  0  0  0  0  0  0  0  0  0
   -9.1123    5.0934   18.2076 C   0  0  0  0  0  0  0  0  0  0  0  0
   -9.7552    4.3719   17.1566 O   0  0  0  0  0  0  0  0  0  0  0  0
   -8.8428    4.1387   19.3551 C   0  0  1  0  0  0  0  0  0  0  0  0
  -10.0605    3.4737   19.7192 O   0  0  0  0  0  0  0  0  0  0  0  0
   -7.8649    3.0313   18.9976 C   0  0  1  0  0  0  0  0  0  0  0  0
   -6.5162    3.3905   19.2895 O   0  0  0  0  0  0  0  0  0  0  0  0
   -8.3391    1.8651   19.8468 C   0  0  1  0  0  0  0  0  0  0  0  0
   -7.7061    1.9024   21.1284 O   0  0  0  0  0  0  0  0  0  0  0  0
   -9.8276    2.0921   20.0348 C   0  0  2  0  0  0  0  0  0  0  0  0
   -6.0184    2.9082   13.5575 C   0  0  1  0  0  0  0  0  0  0  0  0
  -10.5537   -2.7005   17.8675 N   0  0  0  0  0  0  0  0  0  0  0  0
   -9.6131   -2.2992   18.7657 C   0  0  1  0  0  0  0  0  0  0  0  0
   -7.4283    3.3133   13.8819 C   0  0  2  0  0  0  0  0  0  0  0  0
   -8.7117   -3.2108   19.1982 N   0  0  0  0  0  0  0  0  0  0  0  0
   -7.8456    4.1957   12.8387 O   0  0  0  0  0  0  0  0  0  0  0  0
   -7.3291    4.0193   15.2196 C   0  0  2  0  0  0  0  0  0  0  0  0
   -9.5427   -1.0204   19.2414 N   0  0  0  0  0  0  0  0  0  0  0  0
   -8.2078    5.1337   15.2924 O   0  0  0  0  0  0  0  0  0  0  0  0
  -10.4244   -0.0698   18.8404 C   0  0  2  0  0  0  0  0  0  0  0  0
   -5.8894    4.4861   15.3073 C   0  0  2  0  0  0  0  0  0  0  0  0
   -5.1529    3.6552   14.4114 O   0  0  0  0  0  0  0  0  0  0  0  0
  -11.4616   -0.4510   17.8660 C   0  0  1  0  0  0  0  0  0  0  0  0
   -5.3101    4.3584   16.7117 C   0  0  0  0  0  0  0  0  0  0  0  0
   -5.3180    2.9823   17.0970 O   0  0  0  0  0  0  0  0  0  0  0  0
  -11.4867   -1.8456   17.3900 C   0  0  0  0  0  0  0  0  0  0  0  0
  -12.4188   -2.2533   16.4916 O   0  0  0  0  0  0  0  0  0  0  0  0
  -12.1922    0.6437   17.6278 N   0  0  0  0  0  0  0  0  0  0  0  0
  -11.6707    1.6531   18.3846 C   0  0  0  0  0  0  0  0  0  0  0  0
  -10.6135    1.2323   19.1104 N   0  0  1  0  0  0  0  0  0  0  0  0
   -7.3957   -1.8499   11.8745 N   0  0  0  0  0  0  0  0  0  0  0  0
   -5.5429    0.7971   18.8187 O   0  5  0  0  0  0  0  0  0  0  0  0
   -7.7855   -0.6228   11.4324 C   0  0  2  0  0  0  0  0  0  0  0  0
   -8.6593   -0.5380   10.3955 N   0  0  0  0  0  0  0  0  0  0  0  0
   -3.7112    2.9943   19.3240 O   0  0  0  0  0  0  0  0  0  0  0  0
   -7.3260    0.5270   11.9972 N   0  0  0  0  0  0  0  0  0  0  0  0
   -6.4492    0.5071   13.0283 C   0  0  2  0  0  0  0  0  0  0  0  0
   -5.9937   -0.7877   13.5513 C   0  0  2  0  0  0  0  0  0  0  0  0
   -6.5322   -2.0015   12.9010 C   0  0  0  0  0  0  0  0  0  0  0  0
   -6.1716   -3.2407   13.3167 O   0  0  0  0  0  0  0  0  0  0  0  0
   -5.1487   -0.5177   14.5659 N   0  0  0  0  0  0  0  0  0  0  0  0
   -5.0671    0.8415   14.6794 C   0  0  0  0  0  0  0  0  0  0  0  0
   -5.8493    1.4490   13.7585 N   0  0  1  0  0  0  0  0  0  0  0  0
  1  3  1  6  0  0  0
  1  4  2  0  0  0  0
  1  6  1  0  0  0  0
  1 22  1  0  0  0  0
  2 28  1  0  0  0  0
  2 35  1  1  0  0  0
  2 38  2  0  0  0  0
  2 10  1  0  0  0  0
  5  6  1  0  0  0  0
  7  5  1  6  0  0  0
  7  8  1  0  0  0  0
  7  9  1  0  0  0  0
  9 10  1  1  0  0  0
  9 11  1  0  0  0  0
 11 12  1  1  0  0  0
 11 13  1  0  0  0  0
 13  8  1  6  0  0  0
 13 33  1  0  0  0  0
 14 46  1  0  0  0  0
 14 17  1  0  0  0  0
 14 25  1  1  0  0  0
 15 16  1  0  0  0  0
 15 29  1  0  0  0  0
 16 18  1  6  0  0  0
 16 21  1  0  0  0  0
 17 19  1  6  0  0  0
 17 20  1  0  0  0  0
 20 22  1  6  0  0  0
 20 24  1  0  0  0  0
 23 21  1  6  0  0  0
 23 26  1  0  0  0  0
 23 33  1  0  0  0  0
 24 25  1  6  0  0  0
 24 27  1  0  0  0  0
 26 29  1  1  0  0  0
 26 31  1  0  0  0  0
 27 28  1  0  0  0  0
 29 30  2  0  0  0  0
 31 32  1  0  0  0  0
 33 32  1  1  0  0  0
 34 36  1  0  0  0  0
 34 42  1  0  0  0  0
 36 37  1  6  0  0  0
 36 39  1  0  0  0  0
 40 39  1  1  0  0  0
 40 41  1  0  0  0  0
 40 46  1  0  0  0  0
 41 42  1  1  0  0  0
 41 44  1  0  0  0  0
 42 43  2  0  0  0  0
 44 45  1  0  0  0  0
 46 45  1  6  0  0  0
M  CHG  2   3  -1  35  -1
M  END
>  <CHROM.1>
161.40485790,66.43066581,-8.05798918,1.70687554,16.43712323,-2.22181494,-0.98905768
-2.48617466

>  <Name>
ligand

>  <RI>
416

>  <Rbt.Current_Directory>
/home/itssahil/PROJECTS/Mol_Feturizer/Test_systems_manuscript/rnas/3mum

>  <Rbt.Executable>
rbdock ($Id: //depot/dev/client3/rdock/2013.1/src/exe/rbdock.cxx#4 $)

>  <Rbt.Library>
libRbt.so (2013.1, Build901 2013/11/27)

>  <Rbt.Parameter_File>
/export/apps/rDock/src/rDock_2013.1_src/data/scripts/dock_solv.prm

>  <Rbt.Receptor>
prm/pocket_docking_2.prm

>  <SCORE>
-40.481

>  <SCORE.INTER>
-40.4949

>  <SCORE.INTER.CONST>
1

>  <SCORE.INTER.POLAR>
0

>  <SCORE.INTER.ROT>
2

>  <SCORE.INTER.SOLV>
38.5622

>  <SCORE.INTER.VDW>
-44.784

>  <SCORE.INTER.norm>
-0.880324

>  <SCORE.INTRA>
0.0138478

>  <SCORE.INTRA.DIHEDRAL>
0.00127251

>  <SCORE.INTRA.DIHEDRAL.0>
2.40424

>  <SCORE.INTRA.POLAR>
0

>  <SCORE.INTRA.POLAR.0>
0

>  <SCORE.INTRA.REPUL>
0

>  <SCORE.INTRA.REPUL.0>
0

>  <SCORE.INTRA.SOLV>
0.00175514

>  <SCORE.INTRA.SOLV.lig_0>
-134.169

>  <SCORE.INTRA.VDW>
0.012334

>  <SCORE.INTRA.VDW.0>
-2.18386

>  <SCORE.INTRA.norm>
0.000301039

>  <SCORE.RESTR>
0

>  <SCORE.RESTR.CAVITY>
0

>  <SCORE.RESTR.norm>
0

>  <SCORE.SYSTEM>
0

>  <SCORE.SYSTEM.CONST>
0

>  <SCORE.SYSTEM.DIHEDRAL>
0

>  <SCORE.SYSTEM.SOLV>
0

>  <SCORE.SYSTEM.norm>
0

>  <SCORE.heavy>
46

>  <SCORE.norm>
-0.880023

>  <RMSD>
0.183

$$$$
ligand
 OpenBabel02271912143D
libRbt.so/2013.1/901 2013/11/27
 46 52  0  0  0  0  0  0  0  0999 V2000
   -9.7703    4.9158   15.6384 P   0  0  1  0  0  0  0  0  0  0  0  0
   -5.3020    2.5357   18.6460 P   0  0  2  0  0  0  0  0  0  0  0  0
  -10.5168    3.7010   14.5854 O   0  5  0  0  0  0  0  0  0  0  0  0
  -10.6397    6.4709   15.5676 O   0  0  0  0  0  0  0  0  0  0  0  0
   -9.1293    5.0638   18.2056 C   0  0  0  0  0  0  0  0  0  0  0  0
   -9.7652    4.3473   17.1470 O   0  0  0  0  0  0  0  0  0  0  0  0
   -8.8611    4.1024   19.3477 C   0  0  1  0  0  0  0  0  0  0  0  0
  -10.0781    3.4305   19.7022 O   0  0  0  0  0  0  0  0  0  0  0  0
   -7.8779    3.0008   18.9868 C   0  0  1  0  0  0  0  0  0  0  0  0
   -6.5317    3.3628   19.2867 O   0  0  0  0  0  0  0  0  0  0  0  0
   -8.3515    1.8272   19.8260 C   0  0  1  0  0  0  0  0  0  0  0  0
   -7.7239    1.8580   21.1105 O   0  0  0  0  0  0  0  0  0  0  0  0
   -9.8415    2.0476   20.0093 C   0  0  2  0  0  0  0  0  0  0  0  0
   -6.0082    2.9213   13.5538 C   0  0  1  0  0  0  0  0  0  0  0  0
  -10.5533   -2.7373   17.8206 N   0  0  0  0  0  0  0  0  0  0  0  0
   -9.6197   -2.3396   18.7277 C   0  0  1  0  0  0  0  0  0  0  0  0
   -7.4209    3.3192   13.8750 C   0  0  2  0  0  0  0  0  0  0  0  0
   -8.7224   -3.2532   19.1645 N   0  0  0  0  0  0  0  0  0  0  0  0
   -7.8369    4.2073   12.8361 O   0  0  0  0  0  0  0  0  0  0  0  0
   -7.3298    4.0164   15.2179 C   0  0  2  0  0  0  0  0  0  0  0  0
   -9.5524   -1.0624   19.2081 N   0  0  0  0  0  0  0  0  0  0  0  0
   -8.2127    5.1273   15.2945 O   0  0  0  0  0  0  0  0  0  0  0  0
  -10.4301   -0.1099   18.8031 C   0  0  2  0  0  0  0  0  0  0  0  0
   -5.8921    4.4877   15.3148 C   0  0  2  0  0  0  0  0  0  0  0  0
   -5.1490    3.6655   14.4164 O   0  0  0  0  0  0  0  0  0  0  0  0
  -11.4596   -0.4872   17.8191 C   0  0  1  0  0  0  0  0  0  0  0  0
   -5.3182    4.3524   16.7208 C   0  0  0  0  0  0  0  0  0  0  0  0
   -5.3229    2.9737   17.0967 O   0  0  0  0  0  0  0  0  0  0  0  0
  -11.4819   -1.8802   17.3383 C   0  0  0  0  0  0  0  0  0  0  0  0
  -12.4069   -2.2843   16.4311 O   0  0  0  0  0  0  0  0  0  0  0  0
  -12.1876    0.6088   17.5786 N   0  0  0  0  0  0  0  0  0  0  0  0
  -11.6716    1.6153   18.3429 C   0  0  0  0  0  0  0  0  0  0  0  0
  -10.6205    1.1914   19.0758 N   0  0  1  0  0  0  0  0  0  0  0  0
   -7.3621   -1.8300   11.8330 N   0  0  0  0  0  0  0  0  0  0  0  0
   -5.5472    0.7761   18.8025 O   0  5  0  0  0  0  0  0  0  0  0  0
   -7.7544   -0.6013   11.3977 C   0  0  2  0  0  0  0  0  0  0  0  0
   -8.6243   -0.5125   10.3579 N   0  0  0  0  0  0  0  0  0  0  0  0
   -3.7254    2.9762   19.3303 O   0  0  0  0  0  0  0  0  0  0  0  0
   -7.3012    0.5463   11.9721 N   0  0  0  0  0  0  0  0  0  0  0  0
   -6.4285    0.5224   13.0066 C   0  0  2  0  0  0  0  0  0  0  0  0
   -5.9705   -0.7744   13.5226 C   0  0  2  0  0  0  0  0  0  0  0  0
   -6.5022   -1.9855   12.8619 C   0  0  0  0  0  0  0  0  0  0  0  0
   -6.1389   -3.2263   13.2706 O   0  0  0  0  0  0  0  0  0  0  0  0
   -5.1305   -0.5083   14.5424 N   0  0  0  0  0  0  0  0  0  0  0  0
   -5.0541    0.8504   14.6654 C   0  0  0  0  0  0  0  0  0  0  0  0
   -5.8348    1.4614   13.7456 N   0  0  1  0  0  0  0  0  0  0  0  0
  1  3  1  6  0  0  0
  1  4  2  0  0  0  0
  1  6  1  0  0  0  0
  1 22  1  0  0  0  0
  2 28  1  0  0  0  0
  2 35  1  1  0  0  0
  2 38  2  0  0  0  0
  2 10  1  0  0  0  0
  5  6  1  0  0  0  0
  7  5  1  6  0  0  0
  7  8  1  0  0  0  0
  7  9  1  0  0  0  0
  9 10  1  1  0  0  0
  9 11  1  0  0  0  0
 11 12  1  1  0  0  0
 11 13  1  0  0  0  0
 13  8  1  6  0  0  0
 13 33  1  0  0  0  0
 14 46  1  0  0  0  0
 14 17  1  0  0  0  0
 14 25  1  1  0  0  0
 15 16  1  0  0  0  0
 15 29  1  0  0  0  0
 16 18  1  6  0  0  0
 16 21  1  0  0  0  0
 17 19  1  6  0  0  0
 17 20  1  0  0  0  0
 20 22  1  6  0  0  0
 20 24  1  0  0  0  0
 23 21  1  6  0  0  0
 23 26  1  0  0  0  0
 23 33  1  0  0  0  0
 24 25  1  6  0  0  0
 24 27  1  0  0  0  0
 26 29  1  1  0  0  0
 26 31  1  0  0  0  0
 27 28  1  0  0  0  0
 29 30  2  0  0  0  0
 31 32  1  0  0  0  0
 33 32  1  1  0  0  0
 34 36  1  0  0  0  0
 34 42  1  0  0  0  0
 36 37  1  6  0  0  0
 36 39  1  0  0  0  0
 40 39  1  1  0  0  0
 40 41  1  0  0  0  0
 40 46  1  0  0  0  0
 41 42  1  1  0  0  0
 41 44  1  0  0  0  0
 42 43  2  0  0  0  0
 44 45  1  0  0  0  0
 46 45  1  6  0  0  0
M  CHG  2   3  -1  35  -1
M  END
>  <CHROM.1>
161.79071941,66.42057750,-8.05687226,1.69270976,16.41813618,-2.23847036,-0.98813362
-2.48699742

>  <Name>
ligand

>  <RI>
-1

>  <Rbt.Current_Directory>
/home/itssahil/PROJECTS/Mol_Feturizer/Test_systems_manuscript/rnas/3mum

>  <Rbt.Executable>
rbdock ($Id: //depot/dev/client3/rdock/2013.1/src/exe/rbdock.cxx#4 $)

>  <Rbt.Library>
libRbt.so (2013.1, Build901 2013/11/27)

>  <Rbt.Parameter_File>
/export/apps/rDock/src/rDock_2013.1_src/data/scripts/dock_solv.prm

>  <Rbt.Receptor>
prm/pocket_docking_4.prm

>  <SCORE>
-40.3646

>  <SCORE.INTER>
-40.3755

>  <SCORE.INTER.CONST>
1

>  <SCORE.INTER.POLAR>
0

>  <SCORE.INTER.ROT>
2

>  <SCORE.INTER.SOLV>
38.7951

>  <SCORE.INTER.VDW>
-44.7821

>  <SCORE.INTER.norm>
-0.877729

>  <SCORE.INTRA>
0.0109549

>  <SCORE.INTRA.DIHEDRAL>
0.00130014

>  <SCORE.INTRA.DIHEDRAL.0>
2.40424

>  <SCORE.INTRA.POLAR>
0

>  <SCORE.INTRA.POLAR.0>
0

>  <SCORE.INTRA.REPUL>
0

>  <SCORE.INTRA.REPUL.0>
0

>  <SCORE.INTRA.SOLV>
0.00158582

>  <SCORE.INTRA.SOLV.lig_0>
-134.169

>  <SCORE.INTRA.VDW>
0.00951192

>  <SCORE.INTRA.VDW.0>
-2.18386

>  <SCORE.INTRA.norm>
0.00023815

>  <SCORE.RESTR>
0

>  <SCORE.RESTR.CAVITY>
0

>  <SCORE.RESTR.norm>
0

>  <SCORE.SYSTEM>
0

>  <SCORE.SYSTEM.CONST>
0

>  <SCORE.SYSTEM.DIHEDRAL>
0

>  <SCORE.SYSTEM.SOLV>
0

>  <SCORE.SYSTEM.norm>
0

>  <SCORE.heavy>
46

>  <SCORE.norm>
-0.877491

>  <RMSD>
0.183

$$$$
ligand
 OpenBabel02271912143D
libRbt.so/2013.1/901 2013/11/27
 46 52  0  0  0  0  0  0  0  0999 V2000
   -9.7496    4.9260   15.6400 P   0  0  1  0  0  0  0  0  0  0  0  0
   -5.2823    2.5656   18.6644 P   0  0  2  0  0  0  0  0  0  0  0  0
  -10.4967    3.7040   14.5958 O   0  5  0  0  0  0  0  0  0  0  0  0
  -10.6183    6.4810   15.5581 O   0  0  0  0  0  0  0  0  0  0  0  0
   -9.1084    5.0923   18.2060 C   0  0  0  0  0  0  0  0  0  0  0  0
   -9.7447    4.3684   17.1527 O   0  0  0  0  0  0  0  0  0  0  0  0
   -8.8406    4.1389   19.3550 C   0  0  1  0  0  0  0  0  0  0  0  0
  -10.0578    3.4702   19.7144 O   0  0  0  0  0  0  0  0  0  0  0  0
   -7.8579    3.0343   19.0020 C   0  0  1  0  0  0  0  0  0  0  0  0
   -6.5115    3.3979   19.2993 O   0  0  0  0  0  0  0  0  0  0  0  0
   -8.3319    1.8670   19.8497 C   0  0  1  0  0  0  0  0  0  0  0  0
   -7.7043    1.9067   21.1338 O   0  0  0  0  0  0  0  0  0  0  0  0
   -9.8219    2.0894   20.0315 C   0  0  2  0  0  0  0  0  0  0  0  0
   -5.9886    2.9149   13.5696 C   0  0  1  0  0  0  0  0  0  0  0  0
  -10.5125   -2.7013   17.8487 N   0  0  0  0  0  0  0  0  0  0  0  0
   -9.5750   -2.2960   18.7483 C   0  0  1  0  0  0  0  0  0  0  0  0
   -7.4011    3.3158   13.8880 C   0  0  2  0  0  0  0  0  0  0  0  0
   -8.6670   -3.2024   19.1781 N   0  0  0  0  0  0  0  0  0  0  0  0
   -7.8168    4.1965   12.8428 O   0  0  0  0  0  0  0  0  0  0  0  0
   -7.3096    4.0226   15.2259 C   0  0  2  0  0  0  0  0  0  0  0  0
   -9.5141   -1.0182   19.2281 N   0  0  0  0  0  0  0  0  0  0  0  0
   -8.1920    5.1343   15.2946 O   0  0  0  0  0  0  0  0  0  0  0  0
  -10.4027   -0.0729   18.8301 C   0  0  2  0  0  0  0  0  0  0  0  0
   -5.8716    4.4939   15.3193 C   0  0  2  0  0  0  0  0  0  0  0  0
   -5.1290    3.6649   14.4267 O   0  0  0  0  0  0  0  0  0  0  0  0
  -11.4369   -0.4585   17.8543 C   0  0  1  0  0  0  0  0  0  0  0  0
   -5.2978    4.3684   16.7262 C   0  0  0  0  0  0  0  0  0  0  0  0
   -5.3031    2.9925   17.1120 O   0  0  0  0  0  0  0  0  0  0  0  0
  -11.4517   -1.8517   17.3737 C   0  0  0  0  0  0  0  0  0  0  0  0
  -12.3806   -2.2634   16.4739 O   0  0  0  0  0  0  0  0  0  0  0  0
  -12.1755    0.6316   17.6194 N   0  0  0  0  0  0  0  0  0  0  0  0
  -11.6615    1.6423   18.3796 C   0  0  0  0  0  0  0  0  0  0  0  0
  -10.6013    1.2269   19.1042 N   0  0  1  0  0  0  0  0  0  0  0  0
   -7.3867   -1.8481   11.9181 N   0  0  0  0  0  0  0  0  0  0  0  0
   -5.5282    0.8073   18.8335 O   0  5  0  0  0  0  0  0  0  0  0  0
   -7.7834   -0.6224   11.4785 C   0  0  2  0  0  0  0  0  0  0  0  0
   -8.6717   -0.5406   10.4538 N   0  0  0  0  0  0  0  0  0  0  0  0
   -3.7054    3.0103   19.3455 O   0  0  0  0  0  0  0  0  0  0  0  0
   -7.3166    0.5291   12.0339 N   0  0  0  0  0  0  0  0  0  0  0  0
   -6.4254    0.5123   13.0525 C   0  0  2  0  0  0  0  0  0  0  0  0
   -5.9618   -0.7810   13.5723 C   0  0  2  0  0  0  0  0  0  0  0  0
   -6.5087   -1.9967   12.9327 C   0  0  0  0  0  0  0  0  0  0  0  0
   -6.1416   -3.2347   13.3464 O   0  0  0  0  0  0  0  0  0  0  0  0
   -5.1027   -0.5080   14.5742 N   0  0  0  0  0  0  0  0  0  0  0  0
   -5.0204    0.8516   14.6831 C   0  0  0  0  0  0  0  0  0  0  0  0
   -5.8158    1.4564   13.7719 N   0  0  1  0  0  0  0  0  0  0  0  0
  1  3  1  6  0  0  0
  1  4  2  0  0  0  0
  1  6  1  0  0  0  0
  1 22  1  0  0  0  0
  2 28  1  0  0  0  0
  2 35  1  1  0  0  0
  2 38  2  0  0  0  0
  2 10  1  0  0  0  0
  5  6  1  0  0  0  0
  7  5  1  6  0  0  0
  7  8  1  0  0  0  0
  7  9  1  0  0  0  0
  9 10  1  1  0  0  0
  9 11  1  0  0  0  0
 11 12  1  1  0  0  0
 11 13  1  0  0  0  0
 13  8  1  6  0  0  0
 13 33  1  0  0  0  0
 14 46  1  0  0  0  0
 14 17  1  0  0  0  0
 14 25  1  1  0  0  0
 15 16  1  0  0  0  0
 15 29  1  0  0  0  0
 16 18  1  6  0  0  0
 16 21  1  0  0  0  0
 17 19  1  6  0  0  0
 17 20  1  0  0  0  0
 20 22  1  6  0  0  0
 20 24  1  0  0  0  0
 23 21  1  6  0  0  0
 23 26  1  0  0  0  0
 23 33  1  0  0  0  0
 24 25  1  6  0  0  0
 24 27  1  0  0  0  0
 26 29  1  1  0  0  0
 26 31  1  0  0  0  0
 27 28  1  0  0  0  0
 29 30  2  0  0  0  0
 31 32  1  0  0  0  0
 33 32  1  1  0  0  0
 34 36  1  0  0  0  0
 34 42  1  0  0  0  0
 36 37  1  6  0  0  0
 36 39  1  0  0  0  0
 40 39  1  1  0  0  0
 40 41  1  0  0  0  0
 40 46  1  0  0  0  0
 41 42  1  1  0  0  0
 41 44  1  0  0  0  0
 42 43  2  0  0  0  0
 44 45  1  0  0  0  0
 46 45  1  6  0  0  0
M  CHG  2   3  -1  35  -1
M  END
>  <CHROM.1>
161.01414709,65.37090351,-8.03968778,1.70889036,16.44356604,-2.21398685,-0.98663039
-2.48953671

>  <Name>
ligand

>  <RI>
-1

>  <Rbt.Current_Directory>
/home/itssahil/PROJECTS/Mol_Feturizer/Test_systems_manuscript/rnas/3mum

>  <Rbt.Executable>
rbdock ($Id: //depot/dev/client3/rdock/2013.1/src/exe/rbdock.cxx#4 $)

>  <Rbt.Library>
libRbt.so (2013.1, Build901 2013/11/27)

>  <Rbt.Parameter_File>
/export/apps/rDock/src/rDock_2013.1_src/data/scripts/dock_solv.prm

>  <Rbt.Receptor>
prm/pocket_docking_7.prm

>  <SCORE>
-40.4658

>  <SCORE.INTER>
-40.4934

>  <SCORE.INTER.CONST>
1

>  <SCORE.INTER.POLAR>
0

>  <SCORE.INTER.ROT>
2

>  <SCORE.INTER.SOLV>
38.4236

>  <SCORE.INTER.VDW>
-44.7368

>  <SCORE.INTER.norm>
-0.880291

>  <SCORE.INTRA>
0.0275871

>  <SCORE.INTRA.DIHEDRAL>
-0.000235885

>  <SCORE.INTRA.DIHEDRAL.0>
2.40424

>  <SCORE.INTRA.POLAR>
0

>  <SCORE.INTRA.POLAR.0>
0

>  <SCORE.INTRA.REPUL>
0

>  <SCORE.INTRA.REPUL.0>
0

>  <SCORE.INTRA.SOLV>
0.00340684

>  <SCORE.INTRA.SOLV.lig_0>
-134.169

>  <SCORE.INTRA.VDW>
0.0260016

>  <SCORE.INTRA.VDW.0>
-2.18386

>  <SCORE.INTRA.norm>
0.000599719

>  <SCORE.RESTR>
0

>  <SCORE.RESTR.CAVITY>
0

>  <SCORE.RESTR.norm>
0

>  <SCORE.SYSTEM>
0

>  <SCORE.SYSTEM.CONST>
0

>  <SCORE.SYSTEM.DIHEDRAL>
0

>  <SCORE.SYSTEM.SOLV>
0

>  <SCORE.SYSTEM.norm>
0

>  <SCORE.heavy>
46

>  <SCORE.norm>
-0.879691

>  <RMSD>
0.183

$$$$
ligand
 OpenBabel02271912143D
libRbt.so/2013.1/901 2013/11/27
 46 52  0  0  0  0  0  0  0  0999 V2000
   -9.8283    4.9208   15.6136 P   0  0  1  0  0  0  0  0  0  0  0  0
   -5.3217    2.6433   18.6434 P   0  0  2  0  0  0  0  0  0  0  0  0
  -10.5258    3.6962   14.5386 O   0  5  0  0  0  0  0  0  0  0  0  0
  -10.7442    6.4494   15.5508 O   0  0  0  0  0  0  0  0  0  0  0  0
   -9.2197    5.0583   18.1893 C   0  0  0  0  0  0  0  0  0  0  0  0
   -9.8220    4.3351   17.1156 O   0  0  0  0  0  0  0  0  0  0  0  0
   -8.9345    4.0922   19.3233 C   0  0  1  0  0  0  0  0  0  0  0  0
  -10.1340    3.3794   19.6566 O   0  0  0  0  0  0  0  0  0  0  0  0
   -7.9141    3.0255   18.9608 C   0  0  1  0  0  0  0  0  0  0  0  0
   -6.5830    3.4249   19.2798 O   0  0  0  0  0  0  0  0  0  0  0  0
   -8.3605    1.8282   19.7814 C   0  0  1  0  0  0  0  0  0  0  0  0
   -7.7481    1.8631   21.0729 O   0  0  0  0  0  0  0  0  0  0  0  0
   -9.8585    2.0009   19.9506 C   0  0  2  0  0  0  0  0  0  0  0  0
   -5.9847    3.0667   13.5484 C   0  0  1  0  0  0  0  0  0  0  0  0
  -10.8234   -2.8957   18.1382 N   0  0  0  0  0  0  0  0  0  0  0  0
   -9.9786   -2.4992   19.1289 C   0  0  1  0  0  0  0  0  0  0  0  0
   -7.4123    3.4175   13.8584 C   0  0  2  0  0  0  0  0  0  0  0  0
   -9.2591   -3.4466   19.7733 N   0  0  0  0  0  0  0  0  0  0  0  0
   -7.8441    4.3045   12.8251 O   0  0  0  0  0  0  0  0  0  0  0  0
   -7.3570    4.1014   15.2100 C   0  0  2  0  0  0  0  0  0  0  0  0
   -9.8280   -1.1909   19.4928 N   0  0  0  0  0  0  0  0  0  0  0  0
   -8.2744    5.1838   15.2895 O   0  0  0  0  0  0  0  0  0  0  0  0
  -10.5280   -0.2036   18.8789 C   0  0  2  0  0  0  0  0  0  0  0  0
   -5.9356    4.6152   15.3282 C   0  0  2  0  0  0  0  0  0  0  0  0
   -5.1580    3.8267   14.4288 O   0  0  0  0  0  0  0  0  0  0  0  0
  -11.4547   -0.5785   17.7967 C   0  0  1  0  0  0  0  0  0  0  0  0
   -5.3730    4.4811   16.7389 C   0  0  0  0  0  0  0  0  0  0  0  0
   -5.3394    3.0986   17.0990 O   0  0  0  0  0  0  0  0  0  0  0  0
  -11.5742   -2.0059   17.4497 C   0  0  0  0  0  0  0  0  0  0  0  0
  -12.4114   -2.4098   16.4607 O   0  0  0  0  0  0  0  0  0  0  0  0
  -12.0124    0.5533   17.3529 N   0  0  0  0  0  0  0  0  0  0  0  0
  -11.4891    1.5789   18.0862 C   0  0  0  0  0  0  0  0  0  0  0  0
  -10.6008    1.1322   18.9989 N   0  0  1  0  0  0  0  0  0  0  0  0
   -7.4736   -1.7143   12.0339 N   0  0  0  0  0  0  0  0  0  0  0  0
   -5.5145    0.8753   18.7771 O   0  5  0  0  0  0  0  0  0  0  0  0
   -7.9336   -0.4941   11.6435 C   0  0  2  0  0  0  0  0  0  0  0  0
   -8.9261   -0.4242   10.7182 N   0  0  0  0  0  0  0  0  0  0  0  0
   -3.7668    3.1237   19.3501 O   0  0  0  0  0  0  0  0  0  0  0  0
   -7.4292    0.6635   12.1513 N   0  0  0  0  0  0  0  0  0  0  0  0
   -6.4356    0.6586   13.0704 C   0  0  2  0  0  0  0  0  0  0  0  0
   -5.8995   -0.6283   13.5334 C   0  0  2  0  0  0  0  0  0  0  0  0
   -6.4915   -1.8511   12.9499 C   0  0  0  0  0  0  0  0  0  0  0  0
   -6.0634   -3.0840   13.3177 O   0  0  0  0  0  0  0  0  0  0  0  0
   -4.9442   -0.3438   14.4404 N   0  0  0  0  0  0  0  0  0  0  0  0
   -4.8722    1.0166   14.5455 C   0  0  0  0  0  0  0  0  0  0  0  0
   -5.7686    1.6107   13.7254 N   0  0  1  0  0  0  0  0  0  0  0  0
  1  3  1  6  0  0  0
  1  4  2  0  0  0  0
  1  6  1  0  0  0  0
  1 22  1  0  0  0  0
  2 28  1  0  0  0  0
  2 35  1  1  0  0  0
  2 38  2  0  0  0  0
  2 10  1  0  0  0  0
  5  6  1  0  0  0  0
  7  5  1  6  0  0  0
  7  8  1  0  0  0  0
  7  9  1  0  0  0  0
  9 10  1  1  0  0  0
  9 11  1  0  0  0  0
 11 12  1  1  0  0  0
 11 13  1  0  0  0  0
 13  8  1  6  0  0  0
 13 33  1  0  0  0  0
 14 46  1  0  0  0  0
 14 17  1  0  0  0  0
 14 25  1  1  0  0  0
 15 16  1  0  0  0  0
 15 29  1  0  0  0  0
 16 18  1  6  0  0  0
 16 21  1  0  0  0  0
 17 19  1  6  0  0  0
 17 20  1  0  0  0  0
 20 22  1  6  0  0  0
 20 24  1  0  0  0  0
 23 21  1  6  0  0  0
 23 26  1  0  0  0  0
 23 33  1  0  0  0  0
 24 25  1  6  0  0  0
 24 27  1  0  0  0  0
 26 29  1  1  0  0  0
 26 31  1  0  0  0  0
 27 28  1  0  0  0  0
 29 30  2  0  0  0  0
 31 32  1  0  0  0  0
 33 32  1  1  0  0  0
 34 36  1  0  0  0  0
 34 42  1  0  0  0  0
 36 37  1  6  0  0  0
 36 39  1  0  0  0  0
 40 39  1  1  0  0  0
 40 41  1  0  0  0  0
 40 46  1  0  0  0  0
 41 42  1  1  0  0  0
 41 44  1  0  0  0  0
 42 43  2  0  0  0  0
 44 45  1  0  0  0  0
 46 45  1  6  0  0  0
M  CHG  2   3  -1  35  -1
M  END
>  <CHROM.1>
174.45640939,58.59162284,-8.10396234,1.72868476,16.45304795,-0.49645136,0.98975009
0.67767251

>  <Name>
ligand

>  <RI>
-1

>  <Rbt.Current_Directory>
/home/itssahil/PROJECTS/Mol_Feturizer/Test_systems_manuscript/rnas/3mum

>  <Rbt.Executable>
rbdock ($Id: //depot/dev/client3/rdock/2013.1/src/exe/rbdock.cxx#4 $)

>  <Rbt.Library>
libRbt.so (2013.1, Build901 2013/11/27)

>  <Rbt.Parameter_File>
/export/apps/rDock/src/rDock_2013.1_src/data/scripts/dock_solv.prm

>  <Rbt.Receptor>
prm/pocket_docking_5.prm

>  <SCORE>
-39.5876

>  <SCORE.INTER>
-39.6112

>  <SCORE.INTER.CONST>
1

>  <SCORE.INTER.POLAR>
0

>  <SCORE.INTER.ROT>
2

>  <SCORE.INTER.SOLV>
39.7943

>  <SCORE.INTER.VDW>
-44.6056

>  <SCORE.INTER.norm>
-0.861113

>  <SCORE.INTRA>
0.0236062

>  <SCORE.INTRA.DIHEDRAL>
-0.00794892

>  <SCORE.INTRA.DIHEDRAL.0>
2.40424

>  <SCORE.INTRA.POLAR>
0

>  <SCORE.INTRA.POLAR.0>
0

>  <SCORE.INTRA.REPUL>
0

>  <SCORE.INTRA.REPUL.0>
0

>  <SCORE.INTRA.SOLV>
0.00666136

>  <SCORE.INTRA.SOLV.lig_0>
-134.169

>  <SCORE.INTRA.VDW>
0.02425

>  <SCORE.INTRA.VDW.0>
-2.18386

>  <SCORE.INTRA.norm>
0.000513179

>  <SCORE.RESTR>
0

>  <SCORE.RESTR.CAVITY>
0

>  <SCORE.RESTR.norm>
0

>  <SCORE.SYSTEM>
0

>  <SCORE.SYSTEM.CONST>
0

>  <SCORE.SYSTEM.DIHEDRAL>
0

>  <SCORE.SYSTEM.SOLV>
0

>  <SCORE.SYSTEM.norm>
0

>  <SCORE.heavy>
46

>  <SCORE.norm>
-0.860599

>  <RMSD>
0.184

$$$$
ligand
 OpenBabel02271912143D
libRbt.so/2013.1/901 2013/11/27
 46 52  0  0  0  0  0  0  0  0999 V2000
   -9.7584    4.9248   15.6332 P   0  0  1  0  0  0  0  0  0  0  0  0
   -5.3106    2.5440   18.6706 P   0  0  2  0  0  0  0  0  0  0  0  0
  -10.5113    3.7049   14.5908 O   0  5  0  0  0  0  0  0  0  0  0  0
  -10.6173    6.4849   15.5462 O   0  0  0  0  0  0  0  0  0  0  0  0
   -9.1202    5.0931   18.1999 C   0  0  0  0  0  0  0  0  0  0  0  0
   -9.7593    4.3707   17.1473 O   0  0  0  0  0  0  0  0  0  0  0  0
   -8.8602    4.1409   19.3516 C   0  0  1  0  0  0  0  0  0  0  0  0
  -10.0822    3.4806   19.7106 O   0  0  0  0  0  0  0  0  0  0  0  0
   -7.8838    3.0294   19.0028 C   0  0  1  0  0  0  0  0  0  0  0  0
   -6.5357    3.3853   19.3014 O   0  0  0  0  0  0  0  0  0  0  0  0
   -8.3665    1.8671   19.8525 C   0  0  1  0  0  0  0  0  0  0  0  0
   -7.7407    1.9060   21.1376 O   0  0  0  0  0  0  0  0  0  0  0  0
   -9.8553    2.0992   20.0313 C   0  0  2  0  0  0  0  0  0  0  0  0
   -6.0065    2.8854   13.5738 C   0  0  1  0  0  0  0  0  0  0  0  0
  -10.6317   -2.7149   17.9302 N   0  0  0  0  0  0  0  0  0  0  0  0
   -9.7026   -2.3168   18.8416 C   0  0  1  0  0  0  0  0  0  0  0  0
   -7.4170    3.2958   13.8889 C   0  0  2  0  0  0  0  0  0  0  0  0
   -8.8291   -3.2385   19.3088 N   0  0  0  0  0  0  0  0  0  0  0  0
   -7.8255    4.1766   12.8409 O   0  0  0  0  0  0  0  0  0  0  0  0
   -7.3233    4.0052   15.2252 C   0  0  2  0  0  0  0  0  0  0  0  0
   -9.6165   -1.0316   19.2970 N   0  0  0  0  0  0  0  0  0  0  0  0
   -8.1989    5.1226   15.2899 O   0  0  0  0  0  0  0  0  0  0  0  0
  -10.4701   -0.0709   18.8611 C   0  0  2  0  0  0  0  0  0  0  0  0
   -5.8826    4.4678   15.3199 C   0  0  2  0  0  0  0  0  0  0  0  0
   -5.1436    3.6322   14.4305 O   0  0  0  0  0  0  0  0  0  0  0  0
  -11.4938   -0.4482   17.8710 C   0  0  1  0  0  0  0  0  0  0  0  0
   -5.3118    4.3422   16.7280 C   0  0  0  0  0  0  0  0  0  0  0  0
   -5.3262    2.9673   17.1171 O   0  0  0  0  0  0  0  0  0  0  0  0
  -11.5369   -1.8500   17.4182 C   0  0  0  0  0  0  0  0  0  0  0  0
  -12.4577   -2.2547   16.5069 O   0  0  0  0  0  0  0  0  0  0  0  0
  -12.1970    0.6565   17.5986 N   0  0  0  0  0  0  0  0  0  0  0  0
  -11.6714    1.6683   18.3494 C   0  0  0  0  0  0  0  0  0  0  0  0
  -10.6385    1.2392   19.1049 N   0  0  1  0  0  0  0  0  0  0  0  0
   -7.3833   -1.8730   11.8915 N   0  0  0  0  0  0  0  0  0  0  0  0
   -5.5677    0.7876   18.8435 O   0  5  0  0  0  0  0  0  0  0  0  0
   -7.7661   -0.6460   11.4432 C   0  0  2  0  0  0  0  0  0  0  0  0
   -8.6312   -0.5614   10.3990 N   0  0  0  0  0  0  0  0  0  0  0  0
   -3.7321    2.9805   19.3531 O   0  0  0  0  0  0  0  0  0  0  0  0
   -7.3080    0.5039   12.0089 N   0  0  0  0  0  0  0  0  0  0  0  0
   -6.4397    0.4842   13.0471 C   0  0  2  0  0  0  0  0  0  0  0  0
   -5.9921   -0.8106   13.5770 C   0  0  2  0  0  0  0  0  0  0  0  0
   -6.5286   -2.0244   12.9253 C   0  0  0  0  0  0  0  0  0  0  0  0
   -6.1749   -3.2636   13.3471 O   0  0  0  0  0  0  0  0  0  0  0  0
   -5.1545   -0.5403   14.5978 N   0  0  0  0  0  0  0  0  0  0  0  0
   -5.0701    0.8190   14.7085 C   0  0  0  0  0  0  0  0  0  0  0  0
   -5.8431    1.4263   13.7798 N   0  0  1  0  0  0  0  0  0  0  0  0
  1  3  1  6  0  0  0
  1  4  2  0  0  0  0
  1  6  1  0  0  0  0
  1 22  1  0  0  0  0
  2 28  1  0  0  0  0
  2 35  1  1  0  0  0
  2 38  2  0  0  0  0
  2 10  1  0  0  0  0
  5  6  1  0  0  0  0
  7  5  1  6  0  0  0
  7  8  1  0  0  0  0
  7  9  1  0  0  0  0
  9 10  1  1  0  0  0
  9 11  1  0  0  0  0
 11 12  1  1  0  0  0
 11 13  1  0  0  0  0
 13  8  1  6  0  0  0
 13 33  1  0  0  0  0
 14 46  1  0  0  0  0
 14 17  1  0  0  0  0
 14 25  1  1  0  0  0
 15 16  1  0  0  0  0
 15 29  1  0  0  0  0
 16 18  1  6  0  0  0
 16 21  1  0  0  0  0
 17 19  1  6  0  0  0
 17 20  1  0  0  0  0
 20 22  1  6  0  0  0
 20 24  1  0  0  0  0
 23 21  1  6  0  0  0
 23 26  1  0  0  0  0
 23 33  1  0  0  0  0
 24 25  1  6  0  0  0
 24 27  1  0  0  0  0
 26 29  1  1  0  0  0
 26 31  1  0  0  0  0
 27 28  1  0  0  0  0
 29 30  2  0  0  0  0
 31 32  1  0  0  0  0
 33 32  1  1  0  0  0
 34 36  1  0  0  0  0
 34 42  1  0  0  0  0
 36 37  1  6  0  0  0
 36 39  1  0  0  0  0
 40 39  1  1  0  0  0
 40 41  1  0  0  0  0
 40 46  1  0  0  0  0
 41 42  1  1  0  0  0
 41 44  1  0  0  0  0
 42 43  2  0  0  0  0
 44 45  1  0  0  0  0
 46 45  1  6  0  0  0
M  CHG  2   3  -1  35  -1
M  END
>  <CHROM.1>
162.96147486,66.57022503,-8.07086633,1.69655527,16.45061730,-2.25379276,-0.98357380
-2.48927193

>  <Name>
ligand

>  <RI>
416

>  <Rbt.Current_Directory>
/home/itssahil/PROJECTS/Mol_Feturizer/Test_systems_manuscript/rnas/3mum

>  <Rbt.Executable>
rbdock ($Id: //depot/dev/client3/rdock/2013.1/src/exe/rbdock.cxx#4 $)

>  <Rbt.Library>
libRbt.so (2013.1, Build901 2013/11/27)

>  <Rbt.Parameter_File>
/export/apps/rDock/src/rDock_2013.1_src/data/scripts/dock_solv.prm

>  <Rbt.Receptor>
prm/pocket_docking_3.prm

>  <SCORE>
-40.398

>  <SCORE.INTER>
-40.3809

>  <SCORE.INTER.CONST>
1

>  <SCORE.INTER.POLAR>
0

>  <SCORE.INTER.ROT>
2

>  <SCORE.INTER.SOLV>
38.5272

>  <SCORE.INTER.VDW>
-44.6963

>  <SCORE.INTER.norm>
-0.877847

>  <SCORE.INTRA>
-0.0171011

>  <SCORE.INTRA.DIHEDRAL>
0.0016386

>  <SCORE.INTRA.DIHEDRAL.0>
2.40424

>  <SCORE.INTRA.POLAR>
0

>  <SCORE.INTRA.POLAR.0>
0

>  <SCORE.INTRA.REPUL>
0

>  <SCORE.INTRA.REPUL.0>
0

>  <SCORE.INTRA.SOLV>
0.00082047

>  <SCORE.INTRA.SOLV.lig_0>
-134.169

>  <SCORE.INTRA.VDW>
-0.0183307

>  <SCORE.INTRA.VDW.0>
-2.18386

>  <SCORE.INTRA.norm>
-0.000371763

>  <SCORE.RESTR>
0

>  <SCORE.RESTR.CAVITY>
0

>  <SCORE.RESTR.norm>
0

>  <SCORE.SYSTEM>
0

>  <SCORE.SYSTEM.CONST>
0

>  <SCORE.SYSTEM.DIHEDRAL>
0

>  <SCORE.SYSTEM.SOLV>
0

>  <SCORE.SYSTEM.norm>
0

>  <SCORE.heavy>
46

>  <SCORE.norm>
-0.878218

>  <RMSD>
0.185

$$$$
ligand
 OpenBabel02271912143D
libRbt.so/2013.1/901 2013/11/27
 46 52  0  0  0  0  0  0  0  0999 V2000
   -9.7345    4.8840   15.6616 P   0  0  1  0  0  0  0  0  0  0  0  0
   -5.2809    2.4862   18.6769 P   0  0  2  0  0  0  0  0  0  0  0  0
  -10.4776    3.6747   14.5999 O   0  5  0  0  0  0  0  0  0  0  0  0
  -10.6022    6.4403   15.5942 O   0  0  0  0  0  0  0  0  0  0  0  0
   -9.1040    5.0198   18.2321 C   0  0  0  0  0  0  0  0  0  0  0  0
   -9.7362    4.3086   17.1676 O   0  0  0  0  0  0  0  0  0  0  0  0
   -8.8415    4.0529   19.3709 C   0  0  1  0  0  0  0  0  0  0  0  0
  -10.0605    3.3805   19.7172 O   0  0  0  0  0  0  0  0  0  0  0  0
   -7.8577    2.9521   19.0091 C   0  0  1  0  0  0  0  0  0  0  0  0
   -6.5125    3.3115   19.3163 O   0  0  0  0  0  0  0  0  0  0  0  0
   -8.3358    1.7751   19.8410 C   0  0  1  0  0  0  0  0  0  0  0  0
   -7.7137    1.7994   21.1281 O   0  0  0  0  0  0  0  0  0  0  0  0
   -9.8265    1.9960   20.0190 C   0  0  2  0  0  0  0  0  0  0  0  0
   -5.9654    2.8957   13.5836 C   0  0  1  0  0  0  0  0  0  0  0  0
  -10.5558   -2.7871   17.8321 N   0  0  0  0  0  0  0  0  0  0  0  0
   -9.6292   -2.3958   18.7491 C   0  0  1  0  0  0  0  0  0  0  0  0
   -7.3791    3.2934   13.9007 C   0  0  2  0  0  0  0  0  0  0  0  0
   -8.7452   -3.3165   19.1980 N   0  0  0  0  0  0  0  0  0  0  0  0
   -7.7900    4.1866   12.8642 O   0  0  0  0  0  0  0  0  0  0  0  0
   -7.2930    3.9844   15.2472 C   0  0  2  0  0  0  0  0  0  0  0  0
   -9.5559   -1.1182   19.2276 N   0  0  0  0  0  0  0  0  0  0  0  0
   -8.1753    5.0957   15.3252 O   0  0  0  0  0  0  0  0  0  0  0  0
  -10.4204   -0.1588   18.8106 C   0  0  2  0  0  0  0  0  0  0  0  0
   -5.8553    4.4539   15.3522 C   0  0  2  0  0  0  0  0  0  0  0  0
   -5.1092    3.6352   14.4532 O   0  0  0  0  0  0  0  0  0  0  0  0
  -11.4419   -0.5290   17.8156 C   0  0  1  0  0  0  0  0  0  0  0  0
   -5.2874    4.3117   16.7600 C   0  0  0  0  0  0  0  0  0  0  0  0
   -5.2949    2.9314   17.1295 O   0  0  0  0  0  0  0  0  0  0  0  0
  -11.4710   -1.9228   17.3374 C   0  0  0  0  0  0  0  0  0  0  0  0
  -12.3892   -2.3206   16.4204 O   0  0  0  0  0  0  0  0  0  0  0  0
  -12.1572    0.5729   17.5644 N   0  0  0  0  0  0  0  0  0  0  0  0
  -11.6410    1.5764   18.3325 C   0  0  0  0  0  0  0  0  0  0  0  0
  -10.6023    1.1448   19.0784 N   0  0  1  0  0  0  0  0  0  0  0  0
   -7.4035   -1.8473   11.9091 N   0  0  0  0  0  0  0  0  0  0  0  0
   -5.5283    0.7262   18.8243 O   0  5  0  0  0  0  0  0  0  0  0  0
   -7.8031   -0.6163   11.4872 C   0  0  2  0  0  0  0  0  0  0  0  0
   -8.7069   -0.5222   10.4771 N   0  0  0  0  0  0  0  0  0  0  0  0
   -3.7068    2.9222   19.3699 O   0  0  0  0  0  0  0  0  0  0  0  0
   -7.3243    0.5285   12.0462 N   0  0  0  0  0  0  0  0  0  0  0  0
   -6.4176    0.4994   13.0507 C   0  0  2  0  0  0  0  0  0  0  0  0
   -5.9501   -0.8001   13.5512 C   0  0  2  0  0  0  0  0  0  0  0  0
   -6.5105   -2.0080   12.9086 C   0  0  0  0  0  0  0  0  0  0  0  0
   -6.1409   -3.2510   13.3049 O   0  0  0  0  0  0  0  0  0  0  0  0
   -5.0749   -0.5391   14.5422 N   0  0  0  0  0  0  0  0  0  0  0  0
   -4.9866    0.8191   14.6626 C   0  0  0  0  0  0  0  0  0  0  0  0
   -5.7941    1.4348   13.7695 N   0  0  1  0  0  0  0  0  0  0  0  0
  1  3  1  6  0  0  0
  1  4  2  0  0  0  0
  1  6  1  0  0  0  0
  1 22  1  0  0  0  0
  2 28  1  0  0  0  0
  2 35  1  1  0  0  0
  2 38  2  0  0  0  0
  2 10  1  0  0  0  0
  5  6  1  0  0  0  0
  7  5  1  6  0  0  0
  7  8  1  0  0  0  0
  7  9  1  0  0  0  0
  9 10  1  1  0  0  0
  9 11  1  0  0  0  0
 11 12  1  1  0  0  0
 11 13  1  0  0  0  0
 13  8  1  6  0  0  0
 13 33  1  0  0  0  0
 14 46  1  0  0  0  0
 14 17  1  0  0  0  0
 14 25  1  1  0  0  0
 15 16  1  0  0  0  0
 15 29  1  0  0  0  0
 16 18  1  6  0  0  0
 16 21  1  0  0  0  0
 17 19  1  6  0  0  0
 17 20  1  0  0  0  0
 20 22  1  6  0  0  0
 20 24  1  0  0  0  0
 23 21  1  6  0  0  0
 23 26  1  0  0  0  0
 23 33  1  0  0  0  0
 24 25  1  6  0  0  0
 24 27  1  0  0  0  0
 26 29  1  1  0  0  0
 26 31  1  0  0  0  0
 27 28  1  0  0  0  0
 29 30  2  0  0  0  0
 31 32  1  0  0  0  0
 33 32  1  1  0  0  0
 34 36  1  0  0  0  0
 34 42  1  0  0  0  0
 36 37  1  6  0  0  0
 36 39  1  0  0  0  0
 40 39  1  1  0  0  0
 40 41  1  0  0  0  0
 40 46  1  0  0  0  0
 41 42  1  1  0  0  0
 41 44  1  0  0  0  0
 42 43  2  0  0  0  0
 44 45  1  0  0  0  0
 46 45  1  6  0  0  0
M  CHG  2   3  -1  35  -1
M  END
>  <CHROM.1>
162.52297715,64.22758221,-8.03912532,1.65483856,16.44466831,-2.23807778,-0.98320294
-2.47437582

>  <Name>
ligand

>  <RI>
416

>  <Rbt.Current_Directory>
/home/itssahil/PROJECTS/Mol_Feturizer/Test_systems_manuscript/rnas/3mum

>  <Rbt.Executable>
rbdock ($Id: //depot/dev/client3/rdock/2013.1/src/exe/rbdock.cxx#4 $)

>  <Rbt.Library>
libRbt.so (2013.1, Build901 2013/11/27)

>  <Rbt.Parameter_File>
/export/apps/rDock/src/rDock_2013.1_src/data/scripts/dock_solv.prm

>  <Rbt.Receptor>
prm/pocket_docking_2.prm

>  <SCORE>
-40.4358

>  <SCORE.INTER>
-40.4638

>  <SCORE.INTER.CONST>
1

>  <SCORE.INTER.POLAR>
0

>  <SCORE.INTER.ROT>
2

>  <SCORE.INTER.SOLV>
38.9556

>  <SCORE.INTER.VDW>
-44.8944

>  <SCORE.INTER.norm>
-0.879647

>  <SCORE.INTRA>
0.0279595

>  <SCORE.INTRA.DIHEDRAL>
-0.00167911

>  <SCORE.INTRA.DIHEDRAL.0>
2.40424

>  <SCORE.INTRA.POLAR>
0

>  <SCORE.INTRA.POLAR.0>
0

>  <SCORE.INTRA.REPUL>
0

>  <SCORE.INTRA.REPUL.0>
0

>  <SCORE.INTRA.SOLV>
0.0042421

>  <SCORE.INTRA.SOLV.lig_0>
-134.169

>  <SCORE.INTRA.VDW>
0.026678

>  <SCORE.INTRA.VDW.0>
-2.18386

>  <SCORE.INTRA.norm>
0.000607814

>  <SCORE.RESTR>
0

>  <SCORE.RESTR.CAVITY>
0

>  <SCORE.RESTR.norm>
0

>  <SCORE.SYSTEM>
0

>  <SCORE.SYSTEM.CONST>
0

>  <SCORE.SYSTEM.DIHEDRAL>
0

>  <SCORE.SYSTEM.SOLV>
0

>  <SCORE.SYSTEM.norm>
0

>  <SCORE.heavy>
46

>  <SCORE.norm>
-0.879039

>  <RMSD>
0.187

$$$$
ligand
 OpenBabel02271912143D
libRbt.so/2013.1/901 2013/11/27
 46 52  0  0  0  0  0  0  0  0999 V2000
   -9.7365    4.9336   15.6253 P   0  0  1  0  0  0  0  0  0  0  0  0
   -5.2755    2.5684   18.6553 P   0  0  2  0  0  0  0  0  0  0  0  0
  -10.4841    3.7122   14.5808 O   0  5  0  0  0  0  0  0  0  0  0  0
  -10.6030    6.4897   15.5418 O   0  0  0  0  0  0  0  0  0  0  0  0
   -9.0977    5.1000   18.1919 C   0  0  0  0  0  0  0  0  0  0  0  0
   -9.7339    4.3766   17.1382 O   0  0  0  0  0  0  0  0  0  0  0  0
   -8.8324    4.1467   19.3416 C   0  0  1  0  0  0  0  0  0  0  0  0
  -10.0509    3.4798   19.6999 O   0  0  0  0  0  0  0  0  0  0  0  0
   -7.8508    3.0407   18.9900 C   0  0  1  0  0  0  0  0  0  0  0  0
   -6.5043    3.4025   19.2886 O   0  0  0  0  0  0  0  0  0  0  0  0
   -8.3273    1.8744   19.8377 C   0  0  1  0  0  0  0  0  0  0  0  0
   -7.7010    1.9137   21.1224 O   0  0  0  0  0  0  0  0  0  0  0  0
   -9.8172    2.0989   20.0178 C   0  0  2  0  0  0  0  0  0  0  0  0
   -5.9760    2.9166   13.5596 C   0  0  1  0  0  0  0  0  0  0  0  0
  -10.5025   -2.6879   17.8246 N   0  0  0  0  0  0  0  0  0  0  0  0
   -9.5640   -2.2829   18.7233 C   0  0  1  0  0  0  0  0  0  0  0  0
   -7.3883    3.3195   13.8764 C   0  0  2  0  0  0  0  0  0  0  0  0
   -8.6532   -3.1885   19.1489 N   0  0  0  0  0  0  0  0  0  0  0  0
   -7.8017    4.2004   12.8304 O   0  0  0  0  0  0  0  0  0  0  0  0
   -7.2972    4.0267   15.2141 C   0  0  2  0  0  0  0  0  0  0  0  0
   -9.5047   -1.0062   19.2061 N   0  0  0  0  0  0  0  0  0  0  0  0
   -8.1782    5.1397   15.2814 O   0  0  0  0  0  0  0  0  0  0  0  0
  -10.3961   -0.0617   18.8123 C   0  0  2  0  0  0  0  0  0  0  0  0
   -5.8587    4.4961   15.3088 C   0  0  2  0  0  0  0  0  0  0  0  0
   -5.1162    3.6658   14.4174 O   0  0  0  0  0  0  0  0  0  0  0  0
  -11.4315   -0.4471   17.8377 C   0  0  1  0  0  0  0  0  0  0  0  0
   -5.2865    4.3704   16.7163 C   0  0  0  0  0  0  0  0  0  0  0  0
   -5.2941    2.9947   17.1027 O   0  0  0  0  0  0  0  0  0  0  0  0
  -11.4445   -1.8391   17.3538 C   0  0  0  0  0  0  0  0  0  0  0  0
  -12.3745   -2.2505   16.4549 O   0  0  0  0  0  0  0  0  0  0  0  0
  -12.1729    0.6421   17.6071 N   0  0  0  0  0  0  0  0  0  0  0  0
  -11.6594    1.6520   18.3687 C   0  0  0  0  0  0  0  0  0  0  0  0
  -10.5968    1.2370   19.0901 N   0  0  1  0  0  0  0  0  0  0  0  0
   -7.3950   -1.8452   11.9224 N   0  0  0  0  0  0  0  0  0  0  0  0
   -5.5240    0.8105   18.8249 O   0  5  0  0  0  0  0  0  0  0  0  0
   -7.7915   -0.6191   11.4837 C   0  0  2  0  0  0  0  0  0  0  0  0
   -8.6858   -0.5365   10.4642 N   0  0  0  0  0  0  0  0  0  0  0  0
   -3.6988    3.0112   19.3379 O   0  0  0  0  0  0  0  0  0  0  0  0
   -7.3187    0.5320   12.0348 N   0  0  0  0  0  0  0  0  0  0  0  0
   -6.4215    0.5144   13.0481 C   0  0  2  0  0  0  0  0  0  0  0  0
   -5.9578   -0.7794   13.5668 C   0  0  2  0  0  0  0  0  0  0  0  0
   -6.5113   -1.9945   12.9319 C   0  0  0  0  0  0  0  0  0  0  0  0
   -6.1446   -3.2329   13.3449 O   0  0  0  0  0  0  0  0  0  0  0  0
   -5.0921   -0.5071   14.5631 N   0  0  0  0  0  0  0  0  0  0  0  0
   -5.0059    0.8524   14.6699 C   0  0  0  0  0  0  0  0  0  0  0  0
   -5.8054    1.4579   13.7627 N   0  0  1  0  0  0  0  0  0  0  0  0
  1  3  1  6  0  0  0
  1  4  2  0  0  0  0
  1  6  1  0  0  0  0
  1 22  1  0  0  0  0
  2 28  1  0  0  0  0
  2 35  1  1  0  0  0
  2 38  2  0  0  0  0
  2 10  1  0  0  0  0
  5  6  1  0  0  0  0
  7  5  1  6  0  0  0
  7  8  1  0  0  0  0
  7  9  1  0  0  0  0
  9 10  1  1  0  0  0
  9 11  1  0  0  0  0
 11 12  1  1  0  0  0
 11 13  1  0  0  0  0
 13  8  1  6  0  0  0
 13 33  1  0  0  0  0
 14 46  1  0  0  0  0
 14 17  1  0  0  0  0
 14 25  1  1  0  0  0
 15 16  1  0  0  0  0
 15 29  1  0  0  0  0
 16 18  1  6  0  0  0
 16 21  1  0  0  0  0
 17 19  1  6  0  0  0
 17 20  1  0  0  0  0
 20 22  1  6  0  0  0
 20 24  1  0  0  0  0
 23 21  1  6  0  0  0
 23 26  1  0  0  0  0
 23 33  1  0  0  0  0
 24 25  1  6  0  0  0
 24 27  1  0  0  0  0
 26 29  1  1  0  0  0
 26 31  1  0  0  0  0
 27 28  1  0  0  0  0
 29 30  2  0  0  0  0
 31 32  1  0  0  0  0
 33 32  1  1  0  0  0
 34 36  1  0  0  0  0
 34 42  1  0  0  0  0
 36 37  1  6  0  0  0
 36 39  1  0  0  0  0
 40 39  1  1  0  0  0
 40 41  1  0  0  0  0
 40 46  1  0  0  0  0
 41 42  1  1  0  0  0
 41 44  1  0  0  0  0
 42 43  2  0  0  0  0
 44 45  1  0  0  0  0
 46 45  1  6  0  0  0
M  CHG  2   3  -1  35  -1
M  END
>  <CHROM.1>
160.70125390,64.96067915,-8.03249342,1.71490706,16.43218838,-2.20356884,-0.98441208
-2.48776397

>  <Name>
ligand

>  <RI>
416

>  <Rbt.Current_Directory>
/home/itssahil/PROJECTS/Mol_Feturizer/Test_systems_manuscript/rnas/3mum

>  <Rbt.Executable>
rbdock ($Id: //depot/dev/client3/rdock/2013.1/src/exe/rbdock.cxx#4 $)

>  <Rbt.Library>
libRbt.so (2013.1, Build901 2013/11/27)

>  <Rbt.Parameter_File>
/export/apps/rDock/src/rDock_2013.1_src/data/scripts/dock_solv.prm

>  <Rbt.Receptor>
prm/pocket_docking_2.prm

>  <SCORE>
-40.4369

>  <SCORE.INTER>
-40.4712

>  <SCORE.INTER.CONST>
1

>  <SCORE.INTER.POLAR>
0

>  <SCORE.INTER.ROT>
2

>  <SCORE.INTER.SOLV>
38.3966

>  <SCORE.INTER.VDW>
-44.713

>  <SCORE.INTER.norm>
-0.879809

>  <SCORE.INTRA>
0.0343139

>  <SCORE.INTRA.DIHEDRAL>
-0.00084179

>  <SCORE.INTRA.DIHEDRAL.0>
2.40424

>  <SCORE.INTRA.POLAR>
0

>  <SCORE.INTRA.POLAR.0>
0

>  <SCORE.INTRA.REPUL>
0

>  <SCORE.INTRA.REPUL.0>
0

>  <SCORE.INTRA.SOLV>
0.00411608

>  <SCORE.INTRA.SOLV.lig_0>
-134.169

>  <SCORE.INTRA.VDW>
0.0326768

>  <SCORE.INTRA.VDW.0>
-2.18386

>  <SCORE.INTRA.norm>
0.000745955

>  <SCORE.RESTR>
0

>  <SCORE.RESTR.CAVITY>
0

>  <SCORE.RESTR.norm>
0

>  <SCORE.SYSTEM>
0

>  <SCORE.SYSTEM.CONST>
0

>  <SCORE.SYSTEM.DIHEDRAL>
0

>  <SCORE.SYSTEM.SOLV>
0

>  <SCORE.SYSTEM.norm>
0

>  <SCORE.heavy>
46

>  <SCORE.norm>
-0.879063

>  <RMSD>
0.187

$$$$
ligand
 OpenBabel02271912143D
libRbt.so/2013.1/901 2013/11/27
 46 52  0  0  0  0  0  0  0  0999 V2000
   -9.7414    4.9204   15.6732 P   0  0  1  0  0  0  0  0  0  0  0  0
   -5.2995    2.4746   18.6671 P   0  0  2  0  0  0  0  0  0  0  0  0
  -10.4895    3.7245   14.5999 O   0  5  0  0  0  0  0  0  0  0  0  0
  -10.6023    6.4810   15.6203 O   0  0  0  0  0  0  0  0  0  0  0  0
   -9.1114    5.0290   18.2451 C   0  0  0  0  0  0  0  0  0  0  0  0
   -9.7462    4.3308   17.1737 O   0  0  0  0  0  0  0  0  0  0  0  0
   -8.8535    4.0502   19.3747 C   0  0  1  0  0  0  0  0  0  0  0  0
  -10.0756    3.3800   19.7143 O   0  0  0  0  0  0  0  0  0  0  0  0
   -7.8744    2.9486   19.0028 C   0  0  1  0  0  0  0  0  0  0  0  0
   -6.5278    3.2992   19.3139 O   0  0  0  0  0  0  0  0  0  0  0  0
   -8.3580    1.7659   19.8234 C   0  0  1  0  0  0  0  0  0  0  0  0
   -7.7362    1.7753   21.1109 O   0  0  0  0  0  0  0  0  0  0  0  0
   -9.8477    1.9916   20.0030 C   0  0  2  0  0  0  0  0  0  0  0  0
   -5.9804    2.9353   13.5777 C   0  0  1  0  0  0  0  0  0  0  0  0
  -10.6645   -2.7915   17.8472 N   0  0  0  0  0  0  0  0  0  0  0  0
   -9.7471   -2.4168   18.7802 C   0  0  1  0  0  0  0  0  0  0  0  0
   -7.3925    3.3362   13.8981 C   0  0  2  0  0  0  0  0  0  0  0  0
   -8.8991   -3.3571   19.2571 N   0  0  0  0  0  0  0  0  0  0  0  0
   -7.7990    4.2410   12.8699 O   0  0  0  0  0  0  0  0  0  0  0  0
   -7.3038    4.0140   15.2511 C   0  0  2  0  0  0  0  0  0  0  0  0
   -9.6481   -1.1369   19.2478 N   0  0  0  0  0  0  0  0  0  0  0  0
   -8.1812    5.1284   15.3393 O   0  0  0  0  0  0  0  0  0  0  0  0
  -10.4762   -0.1581   18.8029 C   0  0  2  0  0  0  0  0  0  0  0  0
   -5.8641    4.4762   15.3610 C   0  0  2  0  0  0  0  0  0  0  0  0
   -5.1212    3.6628   14.4545 O   0  0  0  0  0  0  0  0  0  0  0  0
  -11.4861   -0.5098   17.7896 C   0  0  1  0  0  0  0  0  0  0  0  0
   -5.2974    4.3182   16.7675 C   0  0  0  0  0  0  0  0  0  0  0  0
   -5.3111    2.9344   17.1240 O   0  0  0  0  0  0  0  0  0  0  0  0
  -11.5443   -1.9070   17.3245 C   0  0  0  0  0  0  0  0  0  0  0  0
  -12.4534   -2.2885   16.3918 O   0  0  0  0  0  0  0  0  0  0  0  0
  -12.1647    0.6090   17.5124 N   0  0  0  0  0  0  0  0  0  0  0  0
  -11.6369    1.6056   18.2818 C   0  0  0  0  0  0  0  0  0  0  0  0
  -10.6269    1.1528   19.0541 N   0  0  1  0  0  0  0  0  0  0  0  0
   -7.3764   -1.7844   11.8047 N   0  0  0  0  0  0  0  0  0  0  0  0
   -5.5547    0.7143   18.7977 O   0  5  0  0  0  0  0  0  0  0  0  0
   -7.7632   -0.5478   11.3876 C   0  0  2  0  0  0  0  0  0  0  0  0
   -8.6388   -0.4398   10.3544 N   0  0  0  0  0  0  0  0  0  0  0  0
   -3.7238    2.8971   19.3647 O   0  0  0  0  0  0  0  0  0  0  0  0
   -7.2988    0.5893   11.9739 N   0  0  0  0  0  0  0  0  0  0  0  0
   -6.4200    0.5465   13.0025 C   0  0  2  0  0  0  0  0  0  0  0  0
   -5.9675   -0.7598   13.4991 C   0  0  2  0  0  0  0  0  0  0  0  0
   -6.5112   -1.9588   12.8262 C   0  0  0  0  0  0  0  0  0  0  0  0
   -6.1538   -3.2071   13.2168 O   0  0  0  0  0  0  0  0  0  0  0  0
   -5.1195   -0.5124   14.5169 N   0  0  0  0  0  0  0  0  0  0  0  0
   -5.0334    0.8441   14.6568 C   0  0  0  0  0  0  0  0  0  0  0  0
   -5.8155    1.4720   13.7497 N   0  0  1  0  0  0  0  0  0  0  0  0
  1  3  1  6  0  0  0
  1  4  2  0  0  0  0
  1  6  1  0  0  0  0
  1 22  1  0  0  0  0
  2 28  1  0  0  0  0
  2 35  1  1  0  0  0
  2 38  2  0  0  0  0
  2 10  1  0  0  0  0
  5  6  1  0  0  0  0
  7  5  1  6  0  0  0
  7  8  1  0  0  0  0
  7  9  1  0  0  0  0
  9 10  1  1  0  0  0
  9 11  1  0  0  0  0
 11 12  1  1  0  0  0
 11 13  1  0  0  0  0
 13  8  1  6  0  0  0
 13 33  1  0  0  0  0
 14 46  1  0  0  0  0
 14 17  1  0  0  0  0
 14 25  1  1  0  0  0
 15 16  1  0  0  0  0
 15 29  1  0  0  0  0
 16 18  1  6  0  0  0
 16 21  1  0  0  0  0
 17 19  1  6  0  0  0
 17 20  1  0  0  0  0
 20 22  1  6  0  0  0
 20 24  1  0  0  0  0
 23 21  1  6  0  0  0
 23 26  1  0  0  0  0
 23 33  1  0  0  0  0
 24 25  1  6  0  0  0
 24 27  1  0  0  0  0
 26 29  1  1  0  0  0
 26 31  1  0  0  0  0
 27 28  1  0  0  0  0
 29 30  2  0  0  0  0
 31 32  1  0  0  0  0
 33 32  1  1  0  0  0
 34 36  1  0  0  0  0
 34 42  1  0  0  0  0
 36 37  1  6  0  0  0
 36 39  1  0  0  0  0
 40 39  1  1  0  0  0
 40 41  1  0  0  0  0
 40 46  1  0  0  0  0
 41 42  1  1  0  0  0
 41 44  1  0  0  0  0
 42 43  2  0  0  0  0
 44 45  1  0  0  0  0
 46 45  1  6  0  0  0
M  CHG  2   3  -1  35  -1
M  END
>  <CHROM.1>
164.65619576,65.79904838,-8.06101564,1.67399524,16.42863581,-2.28793885,-0.98203282
-2.46397682

>  <Name>
ligand

>  <RI>
416

>  <Rbt.Current_Directory>
/home/itssahil/PROJECTS/Mol_Feturizer/Test_systems_manuscript/rnas/3mum

>  <Rbt.Executable>
rbdock ($Id: //depot/dev/client3/rdock/2013.1/src/exe/rbdock.cxx#4 $)

>  <Rbt.Library>
libRbt.so (2013.1, Build901 2013/11/27)

>  <Rbt.Parameter_File>
/export/apps/rDock/src/rDock_2013.1_src/data/scripts/dock_solv.prm

>  <Rbt.Receptor>
prm/pocket_docking_3.prm

>  <SCORE>
-40.2885

>  <SCORE.INTER>
-40.2849

>  <SCORE.INTER.CONST>
1

>  <SCORE.INTER.POLAR>
0

>  <SCORE.INTER.ROT>
2

>  <SCORE.INTER.SOLV>
39.1394

>  <SCORE.INTER.VDW>
-44.8364

>  <SCORE.INTER.norm>
-0.875758

>  <SCORE.INTRA>
-0.00362022

>  <SCORE.INTRA.DIHEDRAL>
0.000786775

>  <SCORE.INTRA.DIHEDRAL.0>
2.40424

>  <SCORE.INTRA.POLAR>
0

>  <SCORE.INTRA.POLAR.0>
0

>  <SCORE.INTRA.REPUL>
0

>  <SCORE.INTRA.REPUL.0>
0

>  <SCORE.INTRA.SOLV>
0.00108782

>  <SCORE.INTRA.SOLV.lig_0>
-134.169

>  <SCORE.INTRA.VDW>
-0.00455751

>  <SCORE.INTRA.VDW.0>
-2.18386

>  <SCORE.INTRA.norm>
-7.87003e-05

>  <SCORE.RESTR>
0

>  <SCORE.RESTR.CAVITY>
0

>  <SCORE.RESTR.norm>
0

>  <SCORE.SYSTEM>
0

>  <SCORE.SYSTEM.CONST>
0

>  <SCORE.SYSTEM.DIHEDRAL>
0

>  <SCORE.SYSTEM.SOLV>
0

>  <SCORE.SYSTEM.norm>
0

>  <SCORE.heavy>
46

>  <SCORE.norm>
-0.875837

>  <RMSD>
0.187

$$$$
ligand
 OpenBabel02271912143D
libRbt.so/2013.1/901 2013/11/27
 46 52  0  0  0  0  0  0  0  0999 V2000
   -9.7576    4.9014   15.6479 P   0  0  1  0  0  0  0  0  0  0  0  0
   -5.3084    2.5161   18.6797 P   0  0  2  0  0  0  0  0  0  0  0  0
  -10.4978    3.6883   14.5886 O   0  5  0  0  0  0  0  0  0  0  0  0
  -10.6262    6.4568   15.5740 O   0  0  0  0  0  0  0  0  0  0  0  0
   -9.1324    5.0456   18.2193 C   0  0  0  0  0  0  0  0  0  0  0  0
   -9.7619    4.3307   17.1558 O   0  0  0  0  0  0  0  0  0  0  0  0
   -8.8715    4.0825   19.3616 C   0  0  1  0  0  0  0  0  0  0  0  0
  -10.0907    3.4104   19.7076 O   0  0  0  0  0  0  0  0  0  0  0  0
   -7.8862    2.9812   19.0052 C   0  0  1  0  0  0  0  0  0  0  0  0
   -6.5419    3.3425   19.3140 O   0  0  0  0  0  0  0  0  0  0  0  0
   -8.3652    1.8065   19.8399 C   0  0  1  0  0  0  0  0  0  0  0  0
   -7.7457    1.8353   21.1282 O   0  0  0  0  0  0  0  0  0  0  0  0
   -9.8564    2.0270   20.0143 C   0  0  2  0  0  0  0  0  0  0  0  0
   -5.9831    2.9091   13.5838 C   0  0  1  0  0  0  0  0  0  0  0  0
  -10.5782   -2.7635   17.8410 N   0  0  0  0  0  0  0  0  0  0  0  0
   -9.6538   -2.3687   18.7586 C   0  0  1  0  0  0  0  0  0  0  0  0
   -7.3976    3.3069   13.8968 C   0  0  2  0  0  0  0  0  0  0  0  0
   -8.7701   -3.2874   19.2123 N   0  0  0  0  0  0  0  0  0  0  0  0
   -7.8070    4.1965   12.8566 O   0  0  0  0  0  0  0  0  0  0  0  0
   -7.3147    4.0021   15.2413 C   0  0  2  0  0  0  0  0  0  0  0  0
   -9.5823   -1.0895   19.2332 N   0  0  0  0  0  0  0  0  0  0  0  0
   -8.1979    5.1130   15.3140 O   0  0  0  0  0  0  0  0  0  0  0  0
  -10.4465   -0.1321   18.8114 C   0  0  2  0  0  0  0  0  0  0  0  0
   -5.8775    4.4729   15.3477 C   0  0  2  0  0  0  0  0  0  0  0  0
   -5.1290    3.6519   14.4527 O   0  0  0  0  0  0  0  0  0  0  0  0
  -11.4657   -0.5060   17.8155 C   0  0  1  0  0  0  0  0  0  0  0  0
   -5.3124    4.3355   16.7570 C   0  0  0  0  0  0  0  0  0  0  0  0
   -5.3197    2.9563   17.1309 O   0  0  0  0  0  0  0  0  0  0  0  0
  -11.4930   -1.9013   17.3417 C   0  0  0  0  0  0  0  0  0  0  0  0
  -12.4090   -2.3026   16.4241 O   0  0  0  0  0  0  0  0  0  0  0  0
  -12.1812    0.5947   17.5594 N   0  0  0  0  0  0  0  0  0  0  0  0
  -11.6672    1.6009   18.3254 C   0  0  0  0  0  0  0  0  0  0  0  0
  -10.6297    1.1723   19.0747 N   0  0  1  0  0  0  0  0  0  0  0  0
   -7.3966   -1.8400   11.9056 N   0  0  0  0  0  0  0  0  0  0  0  0
   -5.5549    0.7563   18.8321 O   0  5  0  0  0  0  0  0  0  0  0  0
   -7.7940   -0.6106   11.4771 C   0  0  2  0  0  0  0  0  0  0  0  0
   -8.6879   -0.5203   10.4579 N   0  0  0  0  0  0  0  0  0  0  0  0
   -3.7360    2.9553   19.3744 O   0  0  0  0  0  0  0  0  0  0  0  0
   -7.3227    0.5362   12.0382 N   0  0  0  0  0  0  0  0  0  0  0  0
   -6.4259    0.5108   13.0518 C   0  0  2  0  0  0  0  0  0  0  0  0
   -5.9612   -0.7868   13.5596 C   0  0  2  0  0  0  0  0  0  0  0  0
   -6.5132   -1.9970   12.9142 C   0  0  0  0  0  0  0  0  0  0  0  0
   -6.1455   -3.2385   13.3169 O   0  0  0  0  0  0  0  0  0  0  0  0
   -5.0962   -0.5221   14.5587 N   0  0  0  0  0  0  0  0  0  0  0  0
   -5.0115    0.8365   14.6770 C   0  0  0  0  0  0  0  0  0  0  0  0
   -5.8111    1.4489   13.7746 N   0  0  1  0  0  0  0  0  0  0  0  0
  1  3  1  6  0  0  0
  1  4  2  0  0  0  0
  1  6  1  0  0  0  0
  1 22  1  0  0  0  0
  2 28  1  0  0  0  0
  2 35  1  1  0  0  0
  2 38  2  0  0  0  0
  2 10  1  0  0  0  0
  5  6  1  0  0  0  0
  7  5  1  6  0  0  0
  7  8  1  0  0  0  0
  7  9  1  0  0  0  0
  9 10  1  1  0  0  0
  9 11  1  0  0  0  0
 11 12  1  1  0  0  0
 11 13  1  0  0  0  0
 13  8  1  6  0  0  0
 13 33  1  0  0  0  0
 14 46  1  0  0  0  0
 14 17  1  0  0  0  0
 14 25  1  1  0  0  0
 15 16  1  0  0  0  0
 15 29  1  0  0  0  0
 16 18  1  6  0  0  0
 16 21  1  0  0  0  0
 17 19  1  6  0  0  0
 17 20  1  0  0  0  0
 20 22  1  6  0  0  0
 20 24  1  0  0  0  0
 23 21  1  6  0  0  0
 23 26  1  0  0  0  0
 23 33  1  0  0  0  0
 24 25  1  6  0  0  0
 24 27  1  0  0  0  0
 26 29  1  1  0  0  0
 26 31  1  0  0  0  0
 27 28  1  0  0  0  0
 29 30  2  0  0  0  0
 31 32  1  0  0  0  0
 33 32  1  1  0  0  0
 34 36  1  0  0  0  0
 34 42  1  0  0  0  0
 36 37  1  6  0  0  0
 36 39  1  0  0  0  0
 40 39  1  1  0  0  0
 40 41  1  0  0  0  0
 40 46  1  0  0  0  0
 41 42  1  1  0  0  0
 41 44  1  0  0  0  0
 42 43  2  0  0  0  0
 44 45  1  0  0  0  0
 46 45  1  6  0  0  0
M  CHG  2   3  -1  35  -1
M  END
>  <CHROM.1>
162.52710332,64.68704485,-8.05967139,1.67581583,16.44285239,-2.24491299,-0.98237598
-2.48213657

>  <Name>
ligand

>  <RI>
-1

>  <Rbt.Current_Directory>
/home/itssahil/PROJECTS/Mol_Feturizer/Test_systems_manuscript/rnas/3mum

>  <Rbt.Executable>
rbdock ($Id: //depot/dev/client3/rdock/2013.1/src/exe/rbdock.cxx#4 $)

>  <Rbt.Library>
libRbt.so (2013.1, Build901 2013/11/27)

>  <Rbt.Parameter_File>
/export/apps/rDock/src/rDock_2013.1_src/data/scripts/dock_solv.prm

>  <Rbt.Receptor>
prm/pocket_docking_4.prm

>  <SCORE>
-40.4493

>  <SCORE.INTER>
-40.4723

>  <SCORE.INTER.CONST>
1

>  <SCORE.INTER.POLAR>
0

>  <SCORE.INTER.ROT>
2

>  <SCORE.INTER.SOLV>
38.8354

>  <SCORE.INTER.VDW>
-44.86

>  <SCORE.INTER.norm>
-0.879832

>  <SCORE.INTRA>
0.0230319

>  <SCORE.INTRA.DIHEDRAL>
-0.00102997

>  <SCORE.INTRA.DIHEDRAL.0>
2.40424

>  <SCORE.INTRA.POLAR>
0

>  <SCORE.INTRA.POLAR.0>
0

>  <SCORE.INTRA.REPUL>
0

>  <SCORE.INTRA.REPUL.0>
0

>  <SCORE.INTRA.SOLV>
0.00362001

>  <SCORE.INTRA.SOLV.lig_0>
-134.169

>  <SCORE.INTRA.VDW>
0.0217369

>  <SCORE.INTRA.VDW.0>
-2.18386

>  <SCORE.INTRA.norm>
0.000500694

>  <SCORE.RESTR>
0

>  <SCORE.RESTR.CAVITY>
0

>  <SCORE.RESTR.norm>
0

>  <SCORE.SYSTEM>
0

>  <SCORE.SYSTEM.CONST>
0

>  <SCORE.SYSTEM.DIHEDRAL>
0

>  <SCORE.SYSTEM.SOLV>
0

>  <SCORE.SYSTEM.norm>
0

>  <SCORE.heavy>
46

>  <SCORE.norm>
-0.879332

>  <RMSD>
0.188

$$$$
ligand
 OpenBabel02271912143D
libRbt.so/2013.1/901 2013/11/27
 46 52  0  0  0  0  0  0  0  0999 V2000
   -9.7278    4.9118   15.6832 P   0  0  1  0  0  0  0  0  0  0  0  0
   -5.2742    2.4715   18.6642 P   0  0  2  0  0  0  0  0  0  0  0  0
  -10.4841    3.7122   14.6197 O   0  5  0  0  0  0  0  0  0  0  0  0
  -10.5859    6.4738   15.6276 O   0  0  0  0  0  0  0  0  0  0  0  0
   -9.0833    5.0314   18.2510 C   0  0  0  0  0  0  0  0  0  0  0  0
   -9.7254    4.3293   17.1865 O   0  0  0  0  0  0  0  0  0  0  0  0
   -8.8211    4.0575   19.3839 C   0  0  1  0  0  0  0  0  0  0  0  0
  -10.0426    3.3913   19.7334 O   0  0  0  0  0  0  0  0  0  0  0  0
   -7.8463    2.9522   19.0118 C   0  0  1  0  0  0  0  0  0  0  0  0
   -6.4973    3.3016   19.3138 O   0  0  0  0  0  0  0  0  0  0  0  0
   -8.3276    1.7744   19.8407 C   0  0  1  0  0  0  0  0  0  0  0  0
   -7.6987    1.7887   21.1247 O   0  0  0  0  0  0  0  0  0  0  0  0
   -9.8159    2.0039   20.0275 C   0  0  2  0  0  0  0  0  0  0  0  0
   -5.9823    2.9093   13.5765 C   0  0  1  0  0  0  0  0  0  0  0  0
  -10.5949   -2.7671   17.8313 N   0  0  0  0  0  0  0  0  0  0  0  0
   -9.6624   -2.3865   18.7468 C   0  0  1  0  0  0  0  0  0  0  0  0
   -7.3918    3.3145   13.9028 C   0  0  2  0  0  0  0  0  0  0  0  0
   -8.7858   -3.3163   19.1913 N   0  0  0  0  0  0  0  0  0  0  0  0
   -7.8022    4.2152   12.8725 O   0  0  0  0  0  0  0  0  0  0  0  0
   -7.2943    3.9986   15.2520 C   0  0  2  0  0  0  0  0  0  0  0  0
   -9.5761   -1.1107   19.2281 N   0  0  0  0  0  0  0  0  0  0  0  0
   -8.1691    5.1151   15.3398 O   0  0  0  0  0  0  0  0  0  0  0  0
  -10.4328   -0.1425   18.8156 C   0  0  2  0  0  0  0  0  0  0  0  0
   -5.8531    4.4585   15.3518 C   0  0  2  0  0  0  0  0  0  0  0  0
   -5.1168    3.6393   14.4451 O   0  0  0  0  0  0  0  0  0  0  0  0
  -11.4602   -0.5009   17.8224 C   0  0  1  0  0  0  0  0  0  0  0  0
   -5.2790    4.3060   16.7559 C   0  0  0  0  0  0  0  0  0  0  0  0
   -5.2934    2.9240   17.1190 O   0  0  0  0  0  0  0  0  0  0  0  0
  -11.5034   -1.8932   17.3411 C   0  0  0  0  0  0  0  0  0  0  0  0
  -12.4276   -2.2804   16.4256 O   0  0  0  0  0  0  0  0  0  0  0  0
  -12.1660    0.6082   17.5756 N   0  0  0  0  0  0  0  0  0  0  0  0
  -11.6386    1.6051   18.3448 C   0  0  0  0  0  0  0  0  0  0  0  0
  -10.6019    1.1621   19.0869 N   0  0  1  0  0  0  0  0  0  0  0  0
   -7.3696   -1.8158   11.8110 N   0  0  0  0  0  0  0  0  0  0  0  0
   -5.5321    0.7124   18.8047 O   0  5  0  0  0  0  0  0  0  0  0  0
   -7.7530   -0.5803   11.3872 C   0  0  2  0  0  0  0  0  0  0  0  0
   -8.6221   -0.4755   10.3481 N   0  0  0  0  0  0  0  0  0  0  0  0
   -3.6938    2.8942   19.3511 O   0  0  0  0  0  0  0  0  0  0  0  0
   -7.2918    0.5585   11.9724 N   0  0  0  0  0  0  0  0  0  0  0  0
   -6.4195    0.5187   13.0067 C   0  0  2  0  0  0  0  0  0  0  0  0
   -5.9710   -0.7861   13.5107 C   0  0  2  0  0  0  0  0  0  0  0  0
   -6.5111   -1.9871   12.8385 C   0  0  0  0  0  0  0  0  0  0  0  0
   -6.1567   -3.2342   13.2356 O   0  0  0  0  0  0  0  0  0  0  0  0
   -5.1293   -0.5356   14.5330 N   0  0  0  0  0  0  0  0  0  0  0  0
   -5.0433    0.8213   14.6688 C   0  0  0  0  0  0  0  0  0  0  0  0
   -5.8193    1.4465   13.7546 N   0  0  1  0  0  0  0  0  0  0  0  0
  1  3  1  6  0  0  0
  1  4  2  0  0  0  0
  1  6  1  0  0  0  0
  1 22  1  0  0  0  0
  2 28  1  0  0  0  0
  2 35  1  1  0  0  0
  2 38  2  0  0  0  0
  2 10  1  0  0  0  0
  5  6  1  0  0  0  0
  7  5  1  6  0  0  0
  7  8  1  0  0  0  0
  7  9  1  0  0  0  0
  9 10  1  1  0  0  0
  9 11  1  0  0  0  0
 11 12  1  1  0  0  0
 11 13  1  0  0  0  0
 13  8  1  6  0  0  0
 13 33  1  0  0  0  0
 14 46  1  0  0  0  0
 14 17  1  0  0  0  0
 14 25  1  1  0  0  0
 15 16  1  0  0  0  0
 15 29  1  0  0  0  0
 16 18  1  6  0  0  0
 16 21  1  0  0  0  0
 17 19  1  6  0  0  0
 17 20  1  0  0  0  0
 20 22  1  6  0  0  0
 20 24  1  0  0  0  0
 23 21  1  6  0  0  0
 23 26  1  0  0  0  0
 23 33  1  0  0  0  0
 24 25  1  6  0  0  0
 24 27  1  0  0  0  0
 26 29  1  1  0  0  0
 26 31  1  0  0  0  0
 27 28  1  0  0  0  0
 29 30  2  0  0  0  0
 31 32  1  0  0  0  0
 33 32  1  1  0  0  0
 34 36  1  0  0  0  0
 34 42  1  0  0  0  0
 36 37  1  6  0  0  0
 36 39  1  0  0  0  0
 40 39  1  1  0  0  0
 40 41  1  0  0  0  0
 40 46  1  0  0  0  0
 41 42  1  1  0  0  0
 41 44  1  0  0  0  0
 42 43  2  0  0  0  0
 44 45  1  0  0  0  0
 46 45  1  6  0  0  0
M  CHG  2   3  -1  35  -1
M  END
>  <CHROM.1>
162.77973572,66.48799556,-8.04017012,1.66797802,16.43505139,-2.24607593,-0.98497474
-2.46728314

>  <Name>
ligand

>  <RI>
-1

>  <Rbt.Current_Directory>
/home/itssahil/PROJECTS/Mol_Feturizer/Test_systems_manuscript/rnas/3mum

>  <Rbt.Executable>
rbdock ($Id: //depot/dev/client3/rdock/2013.1/src/exe/rbdock.cxx#4 $)

>  <Rbt.Library>
libRbt.so (2013.1, Build901 2013/11/27)

>  <Rbt.Parameter_File>
/export/apps/rDock/src/rDock_2013.1_src/data/scripts/dock_solv.prm

>  <Rbt.Receptor>
prm/pocket_docking_7.prm

>  <SCORE>
-40.4462

>  <SCORE.INTER>
-40.4313

>  <SCORE.INTER.CONST>
1

>  <SCORE.INTER.POLAR>
0

>  <SCORE.INTER.ROT>
2

>  <SCORE.INTER.SOLV>
38.9529

>  <SCORE.INTER.VDW>
-44.8718

>  <SCORE.INTER.norm>
-0.878942

>  <SCORE.INTRA>
-0.0148798

>  <SCORE.INTRA.DIHEDRAL>
0.00150449

>  <SCORE.INTRA.DIHEDRAL.0>
2.40424

>  <SCORE.INTRA.POLAR>
0

>  <SCORE.INTRA.POLAR.0>
0

>  <SCORE.INTRA.REPUL>
0

>  <SCORE.INTRA.REPUL.0>
0

>  <SCORE.INTRA.SOLV>
0.00102173

>  <SCORE.INTRA.SOLV.lig_0>
-134.169

>  <SCORE.INTRA.VDW>
-0.0161429

>  <SCORE.INTRA.VDW.0>
-2.18386

>  <SCORE.INTRA.norm>
-0.000323475

>  <SCORE.RESTR>
0

>  <SCORE.RESTR.CAVITY>
0

>  <SCORE.RESTR.norm>
0

>  <SCORE.SYSTEM>
0

>  <SCORE.SYSTEM.CONST>
0

>  <SCORE.SYSTEM.DIHEDRAL>
0

>  <SCORE.SYSTEM.SOLV>
0

>  <SCORE.SYSTEM.norm>
0

>  <SCORE.heavy>
46

>  <SCORE.norm>
-0.879266

>  <RMSD>
0.188

$$$$
ligand
 OpenBabel02271912143D
libRbt.so/2013.1/901 2013/11/27
 46 52  0  0  0  0  0  0  0  0999 V2000
   -9.7673    4.9450   15.6116 P   0  0  1  0  0  0  0  0  0  0  0  0
   -5.3302    2.5481   18.6519 P   0  0  2  0  0  0  0  0  0  0  0  0
  -10.5123    3.7323   14.5552 O   0  5  0  0  0  0  0  0  0  0  0  0
  -10.6290    6.5040   15.5331 O   0  0  0  0  0  0  0  0  0  0  0  0
   -9.1427    5.0933   18.1829 C   0  0  0  0  0  0  0  0  0  0  0  0
   -9.7749    4.3783   17.1210 O   0  0  0  0  0  0  0  0  0  0  0  0
   -8.8866    4.1320   19.3279 C   0  0  1  0  0  0  0  0  0  0  0  0
  -10.1090    3.4663   19.6751 O   0  0  0  0  0  0  0  0  0  0  0  0
   -7.9061    3.0255   18.9749 C   0  0  1  0  0  0  0  0  0  0  0  0
   -6.5603    3.3816   19.2834 O   0  0  0  0  0  0  0  0  0  0  0  0
   -8.3907    1.8551   19.8124 C   0  0  1  0  0  0  0  0  0  0  0  0
   -7.7716    1.8846   21.1010 O   0  0  0  0  0  0  0  0  0  0  0  0
   -9.8809    2.0827   19.9855 C   0  0  2  0  0  0  0  0  0  0  0  0
   -6.0007    2.9305   13.5546 C   0  0  1  0  0  0  0  0  0  0  0  0
  -10.8903   -2.7815   18.1110 N   0  0  0  0  0  0  0  0  0  0  0  0
  -10.0064   -2.3997   19.0729 C   0  0  1  0  0  0  0  0  0  0  0  0
   -7.4136    3.3354   13.8659 C   0  0  2  0  0  0  0  0  0  0  0  0
   -9.2537   -3.3551   19.6654 N   0  0  0  0  0  0  0  0  0  0  0  0
   -7.8186    4.2240   12.8232 O   0  0  0  0  0  0  0  0  0  0  0  0
   -7.3282    4.0338   15.2085 C   0  0  2  0  0  0  0  0  0  0  0  0
   -9.8490   -1.0983   19.4581 N   0  0  0  0  0  0  0  0  0  0  0  0
   -8.2065    5.1488   15.2779 O   0  0  0  0  0  0  0  0  0  0  0  0
  -10.5812   -0.1035   18.8961 C   0  0  2  0  0  0  0  0  0  0  0  0
   -5.8890    4.4986   15.3144 C   0  0  2  0  0  0  0  0  0  0  0  0
   -5.1438    3.6719   14.4220 O   0  0  0  0  0  0  0  0  0  0  0  0
  -11.5510   -0.4624   17.8468 C   0  0  1  0  0  0  0  0  0  0  0  0
   -5.3252    4.3624   16.7244 C   0  0  0  0  0  0  0  0  0  0  0  0
   -5.3388    2.9842   17.1019 O   0  0  0  0  0  0  0  0  0  0  0  0
  -11.6759   -1.8829   17.4746 C   0  0  0  0  0  0  0  0  0  0  0  0
  -12.5521   -2.2720   16.5138 O   0  0  0  0  0  0  0  0  0  0  0  0
  -12.1348    0.6744   17.4518 N   0  0  0  0  0  0  0  0  0  0  0  0
  -11.5872    1.6881   18.1839 C   0  0  0  0  0  0  0  0  0  0  0  0
  -10.6576    1.2289   19.0479 N   0  0  1  0  0  0  0  0  0  0  0  0
   -7.3686   -1.8166   11.8336 N   0  0  0  0  0  0  0  0  0  0  0  0
   -5.5846    0.7898   18.8089 O   0  5  0  0  0  0  0  0  0  0  0  0
   -7.7528   -0.5867   11.3946 C   0  0  2  0  0  0  0  0  0  0  0  0
   -8.6170   -0.4952   10.3502 N   0  0  0  0  0  0  0  0  0  0  0  0
   -3.7562    2.9821   19.3462 O   0  0  0  0  0  0  0  0  0  0  0  0
   -7.2970    0.5595   11.9697 N   0  0  0  0  0  0  0  0  0  0  0  0
   -6.4297    0.5329   13.0086 C   0  0  2  0  0  0  0  0  0  0  0  0
   -5.9806   -0.7654   13.5289 C   0  0  2  0  0  0  0  0  0  0  0  0
   -6.5147   -1.9749   12.8671 C   0  0  0  0  0  0  0  0  0  0  0  0
   -6.1596   -3.2168   13.2794 O   0  0  0  0  0  0  0  0  0  0  0  0
   -5.1446   -0.5019   14.5525 N   0  0  0  0  0  0  0  0  0  0  0  0
   -5.0623    0.8566   14.6740 C   0  0  0  0  0  0  0  0  0  0  0  0
   -5.8352    1.4701   13.7493 N   0  0  1  0  0  0  0  0  0  0  0  0
  1  3  1  6  0  0  0
  1  4  2  0  0  0  0
  1  6  1  0  0  0  0
  1 22  1  0  0  0  0
  2 28  1  0  0  0  0
  2 35  1  1  0  0  0
  2 38  2  0  0  0  0
  2 10  1  0  0  0  0
  5  6  1  0  0  0  0
  7  5  1  6  0  0  0
  7  8  1  0  0  0  0
  7  9  1  0  0  0  0
  9 10  1  1  0  0  0
  9 11  1  0  0  0  0
 11 12  1  1  0  0  0
 11 13  1  0  0  0  0
 13  8  1  6  0  0  0
 13 33  1  0  0  0  0
 14 46  1  0  0  0  0
 14 17  1  0  0  0  0
 14 25  1  1  0  0  0
 15 16  1  0  0  0  0
 15 29  1  0  0  0  0
 16 18  1  6  0  0  0
 16 21  1  0  0  0  0
 17 19  1  6  0  0  0
 17 20  1  0  0  0  0
 20 22  1  6  0  0  0
 20 24  1  0  0  0  0
 23 21  1  6  0  0  0
 23 26  1  0  0  0  0
 23 33  1  0  0  0  0
 24 25  1  6  0  0  0
 24 27  1  0  0  0  0
 26 29  1  1  0  0  0
 26 31  1  0  0  0  0
 27 28  1  0  0  0  0
 29 30  2  0  0  0  0
 31 32  1  0  0  0  0
 33 32  1  1  0  0  0
 34 36  1  0  0  0  0
 34 42  1  0  0  0  0
 36 37  1  6  0  0  0
 36 39  1  0  0  0  0
 40 39  1  1  0  0  0
 40 41  1  0  0  0  0
 40 46  1  0  0  0  0
 41 42  1  1  0  0  0
 41 44  1  0  0  0  0
 42 43  2  0  0  0  0
 44 45  1  0  0  0  0
 46 45  1  6  0  0  0
M  CHG  2   3  -1  35  -1
M  END
>  <CHROM.1>
170.63729745,66.32979255,-8.10573789,1.70636475,16.44086736,-2.42265268,-0.97921667
-2.47235738

>  <Name>
ligand

>  <RI>
-1

>  <Rbt.Current_Directory>
/home/itssahil/PROJECTS/Mol_Feturizer/Test_systems_manuscript/rnas/3mum

>  <Rbt.Executable>
rbdock ($Id: //depot/dev/client3/rdock/2013.1/src/exe/rbdock.cxx#4 $)

>  <Rbt.Library>
libRbt.so (2013.1, Build901 2013/11/27)

>  <Rbt.Parameter_File>
/export/apps/rDock/src/rDock_2013.1_src/data/scripts/dock_solv.prm

>  <Rbt.Receptor>
prm/pocket_docking_8.prm

>  <SCORE>
-40.1502

>  <SCORE.INTER>
-40.1307

>  <SCORE.INTER.CONST>
1

>  <SCORE.INTER.POLAR>
0

>  <SCORE.INTER.ROT>
2

>  <SCORE.INTER.SOLV>
39.3694

>  <SCORE.INTER.VDW>
-44.8102

>  <SCORE.INTER.norm>
-0.872406

>  <SCORE.INTRA>
-0.0195213

>  <SCORE.INTRA.DIHEDRAL>
0.00241758

>  <SCORE.INTRA.DIHEDRAL.0>
2.40424

>  <SCORE.INTRA.POLAR>
0

>  <SCORE.INTRA.POLAR.0>
0

>  <SCORE.INTRA.REPUL>
0

>  <SCORE.INTRA.REPUL.0>
0

>  <SCORE.INTRA.SOLV>
-0.00246569

>  <SCORE.INTRA.SOLV.lig_0>
-134.169

>  <SCORE.INTRA.VDW>
-0.0194972

>  <SCORE.INTRA.VDW.0>
-2.18386

>  <SCORE.INTRA.norm>
-0.000424376

>  <SCORE.RESTR>
0

>  <SCORE.RESTR.CAVITY>
0

>  <SCORE.RESTR.norm>
0

>  <SCORE.SYSTEM>
0

>  <SCORE.SYSTEM.CONST>
0

>  <SCORE.SYSTEM.DIHEDRAL>
0

>  <SCORE.SYSTEM.SOLV>
0

>  <SCORE.SYSTEM.norm>
0

>  <SCORE.heavy>
46

>  <SCORE.norm>
-0.87283

>  <RMSD>
0.188

$$$$
ligand
 OpenBabel02271912143D
libRbt.so/2013.1/901 2013/11/27
 46 52  0  0  0  0  0  0  0  0999 V2000
   -9.7327    4.9154   15.6981 P   0  0  1  0  0  0  0  0  0  0  0  0
   -5.2668    2.4905   18.6733 P   0  0  2  0  0  0  0  0  0  0  0  0
  -10.4993    3.7080   14.6511 O   0  5  0  0  0  0  0  0  0  0  0  0
  -10.5866    6.4794   15.6331 O   0  0  0  0  0  0  0  0  0  0  0  0
   -9.0711    5.0576   18.2604 C   0  0  0  0  0  0  0  0  0  0  0  0
   -9.7222    4.3473   17.2068 O   0  0  0  0  0  0  0  0  0  0  0  0
   -8.8044    4.0937   19.4008 C   0  0  1  0  0  0  0  0  0  0  0  0
  -10.0255    3.4345   19.7646 O   0  0  0  0  0  0  0  0  0  0  0  0
   -7.8352    2.9821   19.0330 C   0  0  1  0  0  0  0  0  0  0  0  0
   -6.4832    3.3303   19.3229 O   0  0  0  0  0  0  0  0  0  0  0  0
   -8.3145    1.8136   19.8762 C   0  0  1  0  0  0  0  0  0  0  0  0
   -7.6773    1.8383   21.1559 O   0  0  0  0  0  0  0  0  0  0  0  0
   -9.8009    2.0494   20.0704 C   0  0  2  0  0  0  0  0  0  0  0  0
   -6.0068    2.8819   13.5864 C   0  0  1  0  0  0  0  0  0  0  0  0
  -10.5865   -2.7320   17.8992 N   0  0  0  0  0  0  0  0  0  0  0  0
   -9.6436   -2.3442   18.8009 C   0  0  1  0  0  0  0  0  0  0  0  0
   -7.4129    3.2943   13.9179 C   0  0  2  0  0  0  0  0  0  0  0  0
   -8.7566   -3.2685   19.2364 N   0  0  0  0  0  0  0  0  0  0  0  0
   -7.8275    4.1863   12.8818 O   0  0  0  0  0  0  0  0  0  0  0  0
   -7.3047    3.9910   15.2598 C   0  0  2  0  0  0  0  0  0  0  0  0
   -9.5570   -1.0666   19.2772 N   0  0  0  0  0  0  0  0  0  0  0  0
   -8.1756    5.1108   15.3426 O   0  0  0  0  0  0  0  0  0  0  0  0
  -10.4238   -0.1037   18.8733 C   0  0  2  0  0  0  0  0  0  0  0  0
   -5.8616    4.4475   15.3459 C   0  0  2  0  0  0  0  0  0  0  0  0
   -5.1336    3.6175   14.4423 O   0  0  0  0  0  0  0  0  0  0  0  0
  -11.4627   -0.4700   17.8952 C   0  0  1  0  0  0  0  0  0  0  0  0
   -5.2787    4.3067   16.7476 C   0  0  0  0  0  0  0  0  0  0  0  0
   -5.2947    2.9283   17.1240 O   0  0  0  0  0  0  0  0  0  0  0  0
  -11.5058   -1.8639   17.4186 C   0  0  0  0  0  0  0  0  0  0  0  0
  -12.4403   -2.2583   16.5168 O   0  0  0  0  0  0  0  0  0  0  0  0
  -12.1771    0.6350   17.6546 N   0  0  0  0  0  0  0  0  0  0  0  0
  -11.6441    1.6367   18.4136 C   0  0  0  0  0  0  0  0  0  0  0  0
  -10.5955    1.2009   19.1430 N   0  0  1  0  0  0  0  0  0  0  0  0
   -7.3962   -1.8557   11.8561 N   0  0  0  0  0  0  0  0  0  0  0  0
   -5.5289    0.7335   18.8322 O   0  5  0  0  0  0  0  0  0  0  0  0
   -7.7761   -0.6232   11.4207 C   0  0  2  0  0  0  0  0  0  0  0  0
   -8.6415   -0.5257   10.3778 N   0  0  0  0  0  0  0  0  0  0  0  0
   -3.6808    2.9150   19.3458 O   0  0  0  0  0  0  0  0  0  0  0  0
   -7.3149    0.5198   11.9978 N   0  0  0  0  0  0  0  0  0  0  0  0
   -6.4462    0.4873   13.0353 C   0  0  2  0  0  0  0  0  0  0  0  0
   -6.0015   -0.8140   13.5518 C   0  0  2  0  0  0  0  0  0  0  0  0
   -6.5414   -2.0198   12.8880 C   0  0  0  0  0  0  0  0  0  0  0  0
   -6.1906   -3.2641   13.2968 O   0  0  0  0  0  0  0  0  0  0  0  0
   -5.1629   -0.5563   14.5748 N   0  0  0  0  0  0  0  0  0  0  0  0
   -5.0750    0.8016   14.6994 C   0  0  0  0  0  0  0  0  0  0  0  0
   -5.8469    1.4204   13.7774 N   0  0  1  0  0  0  0  0  0  0  0  0
  1  3  1  6  0  0  0
  1  4  2  0  0  0  0
  1  6  1  0  0  0  0
  1 22  1  0  0  0  0
  2 28  1  0  0  0  0
  2 35  1  1  0  0  0
  2 38  2  0  0  0  0
  2 10  1  0  0  0  0
  5  6  1  0  0  0  0
  7  5  1  6  0  0  0
  7  8  1  0  0  0  0
  7  9  1  0  0  0  0
  9 10  1  1  0  0  0
  9 11  1  0  0  0  0
 11 12  1  1  0  0  0
 11 13  1  0  0  0  0
 13  8  1  6  0  0  0
 13 33  1  0  0  0  0
 14 46  1  0  0  0  0
 14 17  1  0  0  0  0
 14 25  1  1  0  0  0
 15 16  1  0  0  0  0
 15 29  1  0  0  0  0
 16 18  1  6  0  0  0
 16 21  1  0  0  0  0
 17 19  1  6  0  0  0
 17 20  1  0  0  0  0
 20 22  1  6  0  0  0
 20 24  1  0  0  0  0
 23 21  1  6  0  0  0
 23 26  1  0  0  0  0
 23 33  1  0  0  0  0
 24 25  1  6  0  0  0
 24 27  1  0  0  0  0
 26 29  1  1  0  0  0
 26 31  1  0  0  0  0
 27 28  1  0  0  0  0
 29 30  2  0  0  0  0
 31 32  1  0  0  0  0
 33 32  1  1  0  0  0
 34 36  1  0  0  0  0
 34 42  1  0  0  0  0
 36 37  1  6  0  0  0
 36 39  1  0  0  0  0
 40 39  1  1  0  0  0
 40 41  1  0  0  0  0
 40 46  1  0  0  0  0
 41 42  1  1  0  0  0
 41 44  1  0  0  0  0
 42 43  2  0  0  0  0
 44 45  1  0  0  0  0
 46 45  1  6  0  0  0
M  CHG  2   3  -1  35  -1
M  END
>  <CHROM.1>
162.07736623,67.06097150,-8.04474348,1.67479064,16.46506850,-2.22625630,-0.98825447
-2.47090466

>  <Name>
ligand

>  <RI>
-1

>  <Rbt.Current_Directory>
/home/itssahil/PROJECTS/Mol_Feturizer/Test_systems_manuscript/rnas/3mum

>  <Rbt.Executable>
rbdock ($Id: //depot/dev/client3/rdock/2013.1/src/exe/rbdock.cxx#4 $)

>  <Rbt.Library>
libRbt.so (2013.1, Build901 2013/11/27)

>  <Rbt.Parameter_File>
/export/apps/rDock/src/rDock_2013.1_src/data/scripts/dock_solv.prm

>  <Rbt.Receptor>
prm/pocket_docking_4.prm

>  <SCORE>
-40.2913

>  <SCORE.INTER>
-40.2939

>  <SCORE.INTER.CONST>
1

>  <SCORE.INTER.POLAR>
0

>  <SCORE.INTER.ROT>
2

>  <SCORE.INTER.SOLV>
38.7014

>  <SCORE.INTER.VDW>
-44.6964

>  <SCORE.INTER.norm>
-0.875953

>  <SCORE.INTRA>
0.00250505

>  <SCORE.INTRA.DIHEDRAL>
0.00220636

>  <SCORE.INTRA.DIHEDRAL.0>
2.40424

>  <SCORE.INTRA.POLAR>
0

>  <SCORE.INTRA.POLAR.0>
0

>  <SCORE.INTRA.REPUL>
0

>  <SCORE.INTRA.REPUL.0>
0

>  <SCORE.INTRA.SOLV>
0.000551569

>  <SCORE.INTRA.SOLV.lig_0>
-134.169

>  <SCORE.INTRA.VDW>
0.00112609

>  <SCORE.INTRA.VDW.0>
-2.18386

>  <SCORE.INTRA.norm>
5.44577e-05

>  <SCORE.RESTR>
0

>  <SCORE.RESTR.CAVITY>
0

>  <SCORE.RESTR.norm>
0

>  <SCORE.SYSTEM>
0

>  <SCORE.SYSTEM.CONST>
0

>  <SCORE.SYSTEM.DIHEDRAL>
0

>  <SCORE.SYSTEM.SOLV>
0

>  <SCORE.SYSTEM.norm>
0

>  <SCORE.heavy>
46

>  <SCORE.norm>
-0.875899

>  <RMSD>
0.189

$$$$
ligand
 OpenBabel02271912143D
libRbt.so/2013.1/901 2013/11/27
 46 52  0  0  0  0  0  0  0  0999 V2000
   -9.7456    4.9421   15.6269 P   0  0  1  0  0  0  0  0  0  0  0  0
   -5.3111    2.5131   18.6453 P   0  0  2  0  0  0  0  0  0  0  0  0
  -10.4922    3.7398   14.5598 O   0  5  0  0  0  0  0  0  0  0  0  0
  -10.6055    6.5028   15.5624 O   0  0  0  0  0  0  0  0  0  0  0  0
   -9.1207    5.0668   18.1993 C   0  0  0  0  0  0  0  0  0  0  0  0
   -9.7537    4.3621   17.1312 O   0  0  0  0  0  0  0  0  0  0  0  0
   -8.8656    4.0951   19.3357 C   0  0  1  0  0  0  0  0  0  0  0  0
  -10.0887    3.4277   19.6771 O   0  0  0  0  0  0  0  0  0  0  0  0
   -7.8864    2.9906   18.9728 C   0  0  1  0  0  0  0  0  0  0  0  0
   -6.5402    3.3424   19.2844 O   0  0  0  0  0  0  0  0  0  0  0  0
   -8.3723    1.8134   19.7999 C   0  0  1  0  0  0  0  0  0  0  0  0
   -7.7531    1.8306   21.0886 O   0  0  0  0  0  0  0  0  0  0  0  0
   -9.8622    2.0411   19.9751 C   0  0  2  0  0  0  0  0  0  0  0  0
   -5.9815    2.9417   13.5517 C   0  0  1  0  0  0  0  0  0  0  0  0
  -10.9177   -2.8117   18.0965 N   0  0  0  0  0  0  0  0  0  0  0  0
  -10.0396   -2.4406   19.0679 C   0  0  1  0  0  0  0  0  0  0  0  0
   -7.3940    3.3454   13.8667 C   0  0  2  0  0  0  0  0  0  0  0  0
   -9.3070   -3.4054   19.6704 N   0  0  0  0  0  0  0  0  0  0  0  0
   -7.7980    4.2438   12.8320 O   0  0  0  0  0  0  0  0  0  0  0  0
   -7.3077    4.0318   15.2155 C   0  0  2  0  0  0  0  0  0  0  0  0
   -9.8685   -1.1409   19.4529 N   0  0  0  0  0  0  0  0  0  0  0  0
   -8.1847    5.1471   15.2949 O   0  0  0  0  0  0  0  0  0  0  0  0
  -10.5804   -0.1370   18.8811 C   0  0  2  0  0  0  0  0  0  0  0  0
   -5.8679    4.4939   15.3254 C   0  0  2  0  0  0  0  0  0  0  0  0
   -5.1237    3.6743   14.4256 O   0  0  0  0  0  0  0  0  0  0  0  0
  -11.5431   -0.4841   17.8213 C   0  0  1  0  0  0  0  0  0  0  0  0
   -5.3041    4.3445   16.7341 C   0  0  0  0  0  0  0  0  0  0  0  0
   -5.3193    2.9631   17.0993 O   0  0  0  0  0  0  0  0  0  0  0  0
  -11.6835   -1.9034   17.4499 C   0  0  0  0  0  0  0  0  0  0  0  0
  -12.5540   -2.2818   16.4798 O   0  0  0  0  0  0  0  0  0  0  0  0
  -12.1065    0.6600   17.4180 N   0  0  0  0  0  0  0  0  0  0  0  0
  -11.5533    1.6673   18.1548 C   0  0  0  0  0  0  0  0  0  0  0  0
  -10.6400    1.1966   19.0300 N   0  0  1  0  0  0  0  0  0  0  0  0
   -7.3809   -1.7885   11.8096 N   0  0  0  0  0  0  0  0  0  0  0  0
   -5.5675    0.7538   18.7866 O   0  5  0  0  0  0  0  0  0  0  0  0
   -7.7666   -0.5543   11.3844 C   0  0  2  0  0  0  0  0  0  0  0  0
   -8.6421   -0.4525   10.3503 N   0  0  0  0  0  0  0  0  0  0  0  0
   -3.7365    2.9391   19.3433 O   0  0  0  0  0  0  0  0  0  0  0  0
   -7.3015    0.5863   11.9632 N   0  0  0  0  0  0  0  0  0  0  0  0
   -6.4228    0.5495   12.9921 C   0  0  2  0  0  0  0  0  0  0  0  0
   -5.9715   -0.7539   13.4974 C   0  0  2  0  0  0  0  0  0  0  0  0
   -6.5160   -1.9569   12.8323 C   0  0  0  0  0  0  0  0  0  0  0  0
   -6.1596   -3.2028   13.2312 O   0  0  0  0  0  0  0  0  0  0  0  0
   -5.1234   -0.5004   14.5137 N   0  0  0  0  0  0  0  0  0  0  0  0
   -5.0363    0.8569   14.6447 C   0  0  0  0  0  0  0  0  0  0  0  0
   -5.8178    1.4795   13.7334 N   0  0  1  0  0  0  0  0  0  0  0  0
  1  3  1  6  0  0  0
  1  4  2  0  0  0  0
  1  6  1  0  0  0  0
  1 22  1  0  0  0  0
  2 28  1  0  0  0  0
  2 35  1  1  0  0  0
  2 38  2  0  0  0  0
  2 10  1  0  0  0  0
  5  6  1  0  0  0  0
  7  5  1  6  0  0  0
  7  8  1  0  0  0  0
  7  9  1  0  0  0  0
  9 10  1  1  0  0  0
  9 11  1  0  0  0  0
 11 12  1  1  0  0  0
 11 13  1  0  0  0  0
 13  8  1  6  0  0  0
 13 33  1  0  0  0  0
 14 46  1  0  0  0  0
 14 17  1  0  0  0  0
 14 25  1  1  0  0  0
 15 16  1  0  0  0  0
 15 29  1  0  0  0  0
 16 18  1  6  0  0  0
 16 21  1  0  0  0  0
 17 19  1  6  0  0  0
 17 20  1  0  0  0  0
 20 22  1  6  0  0  0
 20 24  1  0  0  0  0
 23 21  1  6  0  0  0
 23 26  1  0  0  0  0
 23 33  1  0  0  0  0
 24 25  1  6  0  0  0
 24 27  1  0  0  0  0
 26 29  1  1  0  0  0
 26 31  1  0  0  0  0
 27 28  1  0  0  0  0
 29 30  2  0  0  0  0
 31 32  1  0  0  0  0
 33 32  1  1  0  0  0
 34 36  1  0  0  0  0
 34 42  1  0  0  0  0
 36 37  1  6  0  0  0
 36 39  1  0  0  0  0
 40 39  1  1  0  0  0
 40 41  1  0  0  0  0
 40 46  1  0  0  0  0
 41 42  1  1  0  0  0
 41 44  1  0  0  0  0
 42 43  2  0  0  0  0
 44 45  1  0  0  0  0
 46 45  1  6  0  0  0
M  CHG  2   3  -1  35  -1
M  END
>  <CHROM.1>
171.78773866,65.69137471,-8.09496232,1.69359315,16.43364820,-2.44697111,-0.97726616
-2.45613430

>  <Name>
ligand

>  <RI>
-1

>  <Rbt.Current_Directory>
/home/itssahil/PROJECTS/Mol_Feturizer/Test_systems_manuscript/rnas/3mum

>  <Rbt.Executable>
rbdock ($Id: //depot/dev/client3/rdock/2013.1/src/exe/rbdock.cxx#4 $)

>  <Rbt.Library>
libRbt.so (2013.1, Build901 2013/11/27)

>  <Rbt.Parameter_File>
/export/apps/rDock/src/rDock_2013.1_src/data/scripts/dock_solv.prm

>  <Rbt.Receptor>
prm/pocket_docking_6.prm

>  <SCORE>
-40.0538

>  <SCORE.INTER>
-40.032

>  <SCORE.INTER.CONST>
1

>  <SCORE.INTER.POLAR>
0

>  <SCORE.INTER.ROT>
2

>  <SCORE.INTER.SOLV>
39.6859

>  <SCORE.INTER.VDW>
-44.85

>  <SCORE.INTER.norm>
-0.870261

>  <SCORE.INTRA>
-0.0218239

>  <SCORE.INTRA.DIHEDRAL>
0.00172967

>  <SCORE.INTRA.DIHEDRAL.0>
2.40424

>  <SCORE.INTRA.POLAR>
0

>  <SCORE.INTRA.POLAR.0>
0

>  <SCORE.INTRA.REPUL>
0

>  <SCORE.INTRA.REPUL.0>
0

>  <SCORE.INTRA.SOLV>
-0.00211649

>  <SCORE.INTRA.SOLV.lig_0>
-134.169

>  <SCORE.INTRA.VDW>
-0.0216305

>  <SCORE.INTRA.VDW.0>
-2.18386

>  <SCORE.INTRA.norm>
-0.000474434

>  <SCORE.RESTR>
0

>  <SCORE.RESTR.CAVITY>
0

>  <SCORE.RESTR.norm>
0

>  <SCORE.SYSTEM>
0

>  <SCORE.SYSTEM.CONST>
0

>  <SCORE.SYSTEM.DIHEDRAL>
0

>  <SCORE.SYSTEM.SOLV>
0

>  <SCORE.SYSTEM.norm>
0

>  <SCORE.heavy>
46

>  <SCORE.norm>
-0.870735

>  <RMSD>
0.189

$$$$
ligand
 OpenBabel02271912143D
libRbt.so/2013.1/901 2013/11/27
 46 52  0  0  0  0  0  0  0  0999 V2000
   -9.7847    4.8912   15.6262 P   0  0  1  0  0  0  0  0  0  0  0  0
   -5.3043    2.5595   18.6537 P   0  0  2  0  0  0  0  0  0  0  0  0
  -10.5212    3.6652   14.5792 O   0  5  0  0  0  0  0  0  0  0  0  0
  -10.6646    6.4398   15.5452 O   0  0  0  0  0  0  0  0  0  0  0  0
   -9.1483    5.0585   18.1934 C   0  0  0  0  0  0  0  0  0  0  0  0
   -9.7778    4.3314   17.1381 O   0  0  0  0  0  0  0  0  0  0  0  0
   -8.8751    4.1055   19.3414 C   0  0  1  0  0  0  0  0  0  0  0  0
  -10.0879    3.4274   19.6981 O   0  0  0  0  0  0  0  0  0  0  0  0
   -7.8838    3.0087   18.9883 C   0  0  1  0  0  0  0  0  0  0  0  0
   -6.5406    3.3817   19.2880 O   0  0  0  0  0  0  0  0  0  0  0  0
   -8.3505    1.8367   19.8337 C   0  0  1  0  0  0  0  0  0  0  0  0
   -7.7250    1.8793   21.1188 O   0  0  0  0  0  0  0  0  0  0  0  0
   -9.8423    2.0479   20.0136 C   0  0  2  0  0  0  0  0  0  0  0  0
   -6.0059    2.9107   13.5584 C   0  0  1  0  0  0  0  0  0  0  0  0
  -10.4804   -2.7386   17.8059 N   0  0  0  0  0  0  0  0  0  0  0  0
   -9.5451   -2.3268   18.7047 C   0  0  1  0  0  0  0  0  0  0  0  0
   -7.4218    3.3007   13.8754 C   0  0  2  0  0  0  0  0  0  0  0  0
   -8.6244   -3.2242   19.1263 N   0  0  0  0  0  0  0  0  0  0  0  0
   -7.8425    4.1798   12.8307 O   0  0  0  0  0  0  0  0  0  0  0  0
   -7.3374    4.0063   15.2143 C   0  0  2  0  0  0  0  0  0  0  0  0
   -9.4985   -1.0511   19.1916 N   0  0  0  0  0  0  0  0  0  0  0  0
   -8.2281    5.1114   15.2833 O   0  0  0  0  0  0  0  0  0  0  0  0
  -10.4001   -0.1147   18.8018 C   0  0  2  0  0  0  0  0  0  0  0  0
   -5.9031    4.4880   15.3105 C   0  0  2  0  0  0  0  0  0  0  0  0
   -5.1531    3.6658   14.4179 O   0  0  0  0  0  0  0  0  0  0  0  0
  -11.4327   -0.5077   17.8272 C   0  0  1  0  0  0  0  0  0  0  0  0
   -5.3303    4.3648   16.7180 C   0  0  0  0  0  0  0  0  0  0  0  0
   -5.3261    2.9884   17.1019 O   0  0  0  0  0  0  0  0  0  0  0  0
  -11.4318   -1.8982   17.3389 C   0  0  0  0  0  0  0  0  0  0  0  0
  -12.3585   -2.3163   16.4397 O   0  0  0  0  0  0  0  0  0  0  0  0
  -12.1856    0.5744   17.6010 N   0  0  0  0  0  0  0  0  0  0  0  0
  -11.6817    1.5872   18.3653 C   0  0  0  0  0  0  0  0  0  0  0  0
  -10.6140    1.1810   19.0840 N   0  0  1  0  0  0  0  0  0  0  0  0
   -7.3484   -1.8600   11.8830 N   0  0  0  0  0  0  0  0  0  0  0  0
   -5.5376    0.7991   18.8201 O   0  5  0  0  0  0  0  0  0  0  0  0
   -7.7514   -0.6366   11.4426 C   0  0  2  0  0  0  0  0  0  0  0  0
   -8.6309   -0.5599   10.4099 N   0  0  0  0  0  0  0  0  0  0  0  0
   -3.7318    3.0148   19.3377 O   0  0  0  0  0  0  0  0  0  0  0  0
   -7.2995    0.5175   12.0049 N   0  0  0  0  0  0  0  0  0  0  0  0
   -6.4176    0.5057   13.0318 C   0  0  2  0  0  0  0  0  0  0  0  0
   -5.9480   -0.7849   13.5528 C   0  0  2  0  0  0  0  0  0  0  0  0
   -6.4786   -2.0035   12.9053 C   0  0  0  0  0  0  0  0  0  0  0  0
   -6.1049   -3.2394   13.3195 O   0  0  0  0  0  0  0  0  0  0  0  0
   -5.1005   -0.5070   14.5633 N   0  0  0  0  0  0  0  0  0  0  0  0
   -5.0306    0.8530   14.6761 C   0  0  0  0  0  0  0  0  0  0  0  0
   -5.8227    1.4532   13.7589 N   0  0  1  0  0  0  0  0  0  0  0  0
  1  3  1  6  0  0  0
  1  4  2  0  0  0  0
  1  6  1  0  0  0  0
  1 22  1  0  0  0  0
  2 28  1  0  0  0  0
  2 35  1  1  0  0  0
  2 38  2  0  0  0  0
  2 10  1  0  0  0  0
  5  6  1  0  0  0  0
  7  5  1  6  0  0  0
  7  8  1  0  0  0  0
  7  9  1  0  0  0  0
  9 10  1  1  0  0  0
  9 11  1  0  0  0  0
 11 12  1  1  0  0  0
 11 13  1  0  0  0  0
 13  8  1  6  0  0  0
 13 33  1  0  0  0  0
 14 46  1  0  0  0  0
 14 17  1  0  0  0  0
 14 25  1  1  0  0  0
 15 16  1  0  0  0  0
 15 29  1  0  0  0  0
 16 18  1  6  0  0  0
 16 21  1  0  0  0  0
 17 19  1  6  0  0  0
 17 20  1  0  0  0  0
 20 22  1  6  0  0  0
 20 24  1  0  0  0  0
 23 21  1  6  0  0  0
 23 26  1  0  0  0  0
 23 33  1  0  0  0  0
 24 25  1  6  0  0  0
 24 27  1  0  0  0  0
 26 29  1  1  0  0  0
 26 31  1  0  0  0  0
 27 28  1  0  0  0  0
 29 30  2  0  0  0  0
 31 32  1  0  0  0  0
 33 32  1  1  0  0  0
 34 36  1  0  0  0  0
 34 42  1  0  0  0  0
 36 37  1  6  0  0  0
 36 39  1  0  0  0  0
 40 39  1  1  0  0  0
 40 41  1  0  0  0  0
 40 46  1  0  0  0  0
 41 42  1  1  0  0  0
 41 44  1  0  0  0  0
 42 43  2  0  0  0  0
 44 45  1  0  0  0  0
 46 45  1  6  0  0  0
M  CHG  2   3  -1  35  -1
M  END
>  <CHROM.1>
160.54481668,65.82604311,-8.04870700,1.68624446,16.42421381,-2.22204510,-0.98985176
-2.50093627

>  <Name>
ligand

>  <RI>
416

>  <Rbt.Current_Directory>
/home/itssahil/PROJECTS/Mol_Feturizer/Test_systems_manuscript/rnas/3mum

>  <Rbt.Executable>
rbdock ($Id: //depot/dev/client3/rdock/2013.1/src/exe/rbdock.cxx#4 $)

>  <Rbt.Library>
libRbt.so (2013.1, Build901 2013/11/27)

>  <Rbt.Parameter_File>
/export/apps/rDock/src/rDock_2013.1_src/data/scripts/dock_solv.prm

>  <Rbt.Receptor>
prm/pocket_docking_3.prm

>  <SCORE>
-40.2996

>  <SCORE.INTER>
-40.3262

>  <SCORE.INTER.CONST>
1

>  <SCORE.INTER.POLAR>
0

>  <SCORE.INTER.ROT>
2

>  <SCORE.INTER.SOLV>
38.6513

>  <SCORE.INTER.VDW>
-44.7013

>  <SCORE.INTER.norm>
-0.876658

>  <SCORE.INTRA>
0.0266684

>  <SCORE.INTRA.DIHEDRAL>
0.000350057

>  <SCORE.INTRA.DIHEDRAL.0>
2.40424

>  <SCORE.INTRA.POLAR>
0

>  <SCORE.INTRA.POLAR.0>
0

>  <SCORE.INTRA.REPUL>
0

>  <SCORE.INTRA.REPUL.0>
0

>  <SCORE.INTRA.SOLV>
0.00300825

>  <SCORE.INTRA.SOLV.lig_0>
-134.169

>  <SCORE.INTRA.VDW>
0.0249893

>  <SCORE.INTRA.VDW.0>
-2.18386

>  <SCORE.INTRA.norm>
0.000579749

>  <SCORE.RESTR>
0

>  <SCORE.RESTR.CAVITY>
0

>  <SCORE.RESTR.norm>
0

>  <SCORE.SYSTEM>
0

>  <SCORE.SYSTEM.CONST>
0

>  <SCORE.SYSTEM.DIHEDRAL>
0

>  <SCORE.SYSTEM.SOLV>
0

>  <SCORE.SYSTEM.norm>
0

>  <SCORE.heavy>
46

>  <SCORE.norm>
-0.876078

>  <RMSD>
0.190

$$$$
ligand
 OpenBabel02271912143D
libRbt.so/2013.1/901 2013/11/27
 46 52  0  0  0  0  0  0  0  0999 V2000
   -9.7355    4.9162   15.6351 P   0  0  1  0  0  0  0  0  0  0  0  0
   -5.3105    2.4732   18.6562 P   0  0  2  0  0  0  0  0  0  0  0  0
  -10.4822    3.7174   14.5641 O   0  5  0  0  0  0  0  0  0  0  0  0
  -10.5926    6.4785   15.5723 O   0  0  0  0  0  0  0  0  0  0  0  0
   -9.1149    5.0344   18.2089 C   0  0  0  0  0  0  0  0  0  0  0  0
   -9.7473    4.3330   17.1381 O   0  0  0  0  0  0  0  0  0  0  0  0
   -8.8635    4.0598   19.3437 C   0  0  1  0  0  0  0  0  0  0  0  0
  -10.0883    3.3938   19.6815 O   0  0  0  0  0  0  0  0  0  0  0  0
   -7.8855    2.9544   18.9801 C   0  0  1  0  0  0  0  0  0  0  0  0
   -6.5393    3.3033   19.2948 O   0  0  0  0  0  0  0  0  0  0  0  0
   -8.3749    1.7763   19.8039 C   0  0  1  0  0  0  0  0  0  0  0  0
   -7.7579    1.7898   21.0937 O   0  0  0  0  0  0  0  0  0  0  0  0
   -9.8647    2.0062   19.9770 C   0  0  2  0  0  0  0  0  0  0  0  0
   -5.9712    2.9137   13.5623 C   0  0  1  0  0  0  0  0  0  0  0  0
  -10.7048   -2.7907   17.8611 N   0  0  0  0  0  0  0  0  0  0  0  0
   -9.7933   -2.4151   18.7995 C   0  0  1  0  0  0  0  0  0  0  0  0
   -7.3835    3.3192   13.8757 C   0  0  2  0  0  0  0  0  0  0  0  0
   -8.9589   -3.3584   19.2943 N   0  0  0  0  0  0  0  0  0  0  0  0
   -7.7842    4.2204   12.8421 O   0  0  0  0  0  0  0  0  0  0  0  0
   -7.2984    4.0025   15.2261 C   0  0  2  0  0  0  0  0  0  0  0  0
   -9.6870   -1.1315   19.2552 N   0  0  0  0  0  0  0  0  0  0  0  0
   -8.1736    5.1192   15.3063 O   0  0  0  0  0  0  0  0  0  0  0  0
  -10.5013   -0.1496   18.7922 C   0  0  2  0  0  0  0  0  0  0  0  0
   -5.8581    4.4620   15.3395 C   0  0  2  0  0  0  0  0  0  0  0  0
   -5.1136    3.6430   14.4392 O   0  0  0  0  0  0  0  0  0  0  0  0
  -11.5044   -0.5022   17.7724 C   0  0  1  0  0  0  0  0  0  0  0  0
   -5.2970    4.3087   16.7488 C   0  0  0  0  0  0  0  0  0  0  0  0
   -5.3151    2.9265   17.1111 O   0  0  0  0  0  0  0  0  0  0  0  0
  -11.5710   -1.9035   17.3207 C   0  0  0  0  0  0  0  0  0  0  0  0
  -12.4743   -2.2859   16.3828 O   0  0  0  0  0  0  0  0  0  0  0  0
  -12.1696    0.6200   17.4771 N   0  0  0  0  0  0  0  0  0  0  0  0
  -11.6402    1.6194   18.2418 C   0  0  0  0  0  0  0  0  0  0  0  0
  -10.6422    1.1650   19.0287 N   0  0  1  0  0  0  0  0  0  0  0  0
   -7.3996   -1.8107   11.8279 N   0  0  0  0  0  0  0  0  0  0  0  0
   -5.5701    0.7141   18.7933 O   0  5  0  0  0  0  0  0  0  0  0  0
   -7.7853   -0.5749   11.4071 C   0  0  2  0  0  0  0  0  0  0  0  0
   -8.6693   -0.4695   10.3807 N   0  0  0  0  0  0  0  0  0  0  0  0
   -3.7364    2.8951   19.3579 O   0  0  0  0  0  0  0  0  0  0  0  0
   -7.3118    0.5637   11.9830 N   0  0  0  0  0  0  0  0  0  0  0  0
   -6.4244    0.5233   13.0043 C   0  0  2  0  0  0  0  0  0  0  0  0
   -5.9726   -0.7818   13.5045 C   0  0  2  0  0  0  0  0  0  0  0  0
   -6.5265   -1.9826   12.8430 C   0  0  0  0  0  0  0  0  0  0  0  0
   -6.1703   -3.2300   13.2376 O   0  0  0  0  0  0  0  0  0  0  0  0
   -5.1151   -0.5319   14.5137 N   0  0  0  0  0  0  0  0  0  0  0  0
   -5.0228    0.8251   14.6452 C   0  0  0  0  0  0  0  0  0  0  0  0
   -5.8102    1.4508   13.7412 N   0  0  1  0  0  0  0  0  0  0  0  0
  1  3  1  6  0  0  0
  1  4  2  0  0  0  0
  1  6  1  0  0  0  0
  1 22  1  0  0  0  0
  2 28  1  0  0  0  0
  2 35  1  1  0  0  0
  2 38  2  0  0  0  0
  2 10  1  0  0  0  0
  5  6  1  0  0  0  0
  7  5  1  6  0  0  0
  7  8  1  0  0  0  0
  7  9  1  0  0  0  0
  9 10  1  1  0  0  0
  9 11  1  0  0  0  0
 11 12  1  1  0  0  0
 11 13  1  0  0  0  0
 13  8  1  6  0  0  0
 13 33  1  0  0  0  0
 14 46  1  0  0  0  0
 14 17  1  0  0  0  0
 14 25  1  1  0  0  0
 15 16  1  0  0  0  0
 15 29  1  0  0  0  0
 16 18  1  6  0  0  0
 16 21  1  0  0  0  0
 17 19  1  6  0  0  0
 17 20  1  0  0  0  0
 20 22  1  6  0  0  0
 20 24  1  0  0  0  0
 23 21  1  6  0  0  0
 23 26  1  0  0  0  0
 23 33  1  0  0  0  0
 24 25  1  6  0  0  0
 24 27  1  0  0  0  0
 26 29  1  1  0  0  0
 26 31  1  0  0  0  0
 27 28  1  0  0  0  0
 29 30  2  0  0  0  0
 31 32  1  0  0  0  0
 33 32  1  1  0  0  0
 34 36  1  0  0  0  0
 34 42  1  0  0  0  0
 36 37  1  6  0  0  0
 36 39  1  0  0  0  0
 40 39  1  1  0  0  0
 40 41  1  0  0  0  0
 40 46  1  0  0  0  0
 41 42  1  1  0  0  0
 41 44  1  0  0  0  0
 42 43  2  0  0  0  0
 44 45  1  0  0  0  0
 46 45  1  6  0  0  0
M  CHG  2   3  -1  35  -1
M  END
>  <CHROM.1>
165.29138895,65.08947633,-8.07065216,1.66853723,16.41577729,-2.29896410,-0.97730887
-2.46483506

>  <Name>
ligand

>  <RI>
-1

>  <Rbt.Current_Directory>
/home/itssahil/PROJECTS/Mol_Feturizer/Test_systems_manuscript/rnas/3mum

>  <Rbt.Executable>
rbdock ($Id: //depot/dev/client3/rdock/2013.1/src/exe/rbdock.cxx#4 $)

>  <Rbt.Library>
libRbt.so (2013.1, Build901 2013/11/27)

>  <Rbt.Parameter_File>
/export/apps/rDock/src/rDock_2013.1_src/data/scripts/dock_solv.prm

>  <Rbt.Receptor>
prm/pocket_docking_4.prm

>  <SCORE>
-40.287

>  <SCORE.INTER>
-40.2858

>  <SCORE.INTER.CONST>
1

>  <SCORE.INTER.POLAR>
0

>  <SCORE.INTER.ROT>
2

>  <SCORE.INTER.SOLV>
39.2412

>  <SCORE.INTER.VDW>
-44.8709

>  <SCORE.INTER.norm>
-0.875777

>  <SCORE.INTRA>
-0.00118921

>  <SCORE.INTRA.DIHEDRAL>
-0.000117953

>  <SCORE.INTRA.DIHEDRAL.0>
2.40424

>  <SCORE.INTRA.POLAR>
0

>  <SCORE.INTRA.POLAR.0>
0

>  <SCORE.INTRA.REPUL>
0

>  <SCORE.INTRA.REPUL.0>
0

>  <SCORE.INTRA.SOLV>
0.00176088

>  <SCORE.INTRA.SOLV.lig_0>
-134.169

>  <SCORE.INTRA.VDW>
-0.00201068

>  <SCORE.INTRA.VDW.0>
-2.18386

>  <SCORE.INTRA.norm>
-2.58525e-05

>  <SCORE.RESTR>
0

>  <SCORE.RESTR.CAVITY>
0

>  <SCORE.RESTR.norm>
0

>  <SCORE.SYSTEM>
0

>  <SCORE.SYSTEM.CONST>
0

>  <SCORE.SYSTEM.DIHEDRAL>
0

>  <SCORE.SYSTEM.SOLV>
0

>  <SCORE.SYSTEM.norm>
0

>  <SCORE.heavy>
46

>  <SCORE.norm>
-0.875803

>  <RMSD>
0.190

$$$$
ligand
 OpenBabel02271912143D
libRbt.so/2013.1/901 2013/11/27
 46 52  0  0  0  0  0  0  0  0999 V2000
   -9.7624    4.9527   15.6685 P   0  0  1  0  0  0  0  0  0  0  0  0
   -5.3269    2.5646   18.7180 P   0  0  2  0  0  0  0  0  0  0  0  0
  -10.5025    3.7386   14.6101 O   0  5  0  0  0  0  0  0  0  0  0  0
  -10.6273    6.5098   15.5885 O   0  0  0  0  0  0  0  0  0  0  0  0
   -9.1439    5.1016   18.2412 C   0  0  0  0  0  0  0  0  0  0  0  0
   -9.7721    4.3856   17.1777 O   0  0  0  0  0  0  0  0  0  0  0  0
   -8.8882    4.1407   19.3865 C   0  0  1  0  0  0  0  0  0  0  0  0
  -10.1099    3.4722   19.7308 O   0  0  0  0  0  0  0  0  0  0  0  0
   -7.9045    3.0363   19.0354 C   0  0  1  0  0  0  0  0  0  0  0  0
   -6.5602    3.3953   19.3470 O   0  0  0  0  0  0  0  0  0  0  0  0
   -8.3884    1.8647   19.8716 C   0  0  1  0  0  0  0  0  0  0  0  0
   -7.7723    1.8952   21.1615 O   0  0  0  0  0  0  0  0  0  0  0  0
   -9.8795    2.0890   20.0414 C   0  0  2  0  0  0  0  0  0  0  0  0
   -5.9869    2.9469   13.6194 C   0  0  1  0  0  0  0  0  0  0  0  0
  -10.6351   -2.7154   17.9108 N   0  0  0  0  0  0  0  0  0  0  0  0
   -9.7168   -2.3222   18.8352 C   0  0  1  0  0  0  0  0  0  0  0  0
   -7.4014    3.3486   13.9276 C   0  0  2  0  0  0  0  0  0  0  0  0
   -8.8500   -3.2467   19.3092 N   0  0  0  0  0  0  0  0  0  0  0  0
   -7.8060    4.2367   12.8842 O   0  0  0  0  0  0  0  0  0  0  0  0
   -7.3205    4.0469   15.2706 C   0  0  2  0  0  0  0  0  0  0  0  0
   -9.6350   -1.0389   19.2970 N   0  0  0  0  0  0  0  0  0  0  0  0
   -8.2014    5.1600   15.3383 O   0  0  0  0  0  0  0  0  0  0  0  0
  -10.4822   -0.0755   18.8547 C   0  0  2  0  0  0  0  0  0  0  0  0
   -5.8826    4.5148   15.3798 C   0  0  2  0  0  0  0  0  0  0  0  0
   -5.1335    3.6899   14.4888 O   0  0  0  0  0  0  0  0  0  0  0  0
  -11.4941   -0.4476   17.8507 C   0  0  1  0  0  0  0  0  0  0  0  0
   -5.3216    4.3795   16.7910 C   0  0  0  0  0  0  0  0  0  0  0  0
   -5.3330    3.0012   17.1681 O   0  0  0  0  0  0  0  0  0  0  0  0
  -11.5332   -1.8475   17.3915 C   0  0  0  0  0  0  0  0  0  0  0  0
  -12.4431   -2.2474   16.4673 O   0  0  0  0  0  0  0  0  0  0  0  0
  -12.1928    0.6590   17.5743 N   0  0  0  0  0  0  0  0  0  0  0  0
  -11.6754    1.6670   18.3356 C   0  0  0  0  0  0  0  0  0  0  0  0
  -10.6523    1.2338   19.1019 N   0  0  1  0  0  0  0  0  0  0  0  0
   -7.3810   -1.8030   11.9271 N   0  0  0  0  0  0  0  0  0  0  0  0
   -5.5778    0.8058   18.8740 O   0  5  0  0  0  0  0  0  0  0  0  0
   -7.7715   -0.5738   11.4918 C   0  0  2  0  0  0  0  0  0  0  0  0
   -8.6512   -0.4839   10.4603 N   0  0  0  0  0  0  0  0  0  0  0  0
   -3.7554    3.0019   19.4159 O   0  0  0  0  0  0  0  0  0  0  0  0
   -7.3070    0.5733   12.0581 N   0  0  0  0  0  0  0  0  0  0  0  0
   -6.4243    0.5484   13.0839 C   0  0  2  0  0  0  0  0  0  0  0  0
   -5.9677   -0.7490   13.5996 C   0  0  2  0  0  0  0  0  0  0  0  0
   -6.5117   -1.9595   12.9480 C   0  0  0  0  0  0  0  0  0  0  0  0
   -6.1506   -3.2008   13.3571 O   0  0  0  0  0  0  0  0  0  0  0  0
   -5.1163   -0.4839   14.6102 N   0  0  0  0  0  0  0  0  0  0  0  0
   -5.0321    0.8748   14.7281 C   0  0  0  0  0  0  0  0  0  0  0  0
   -5.8187    1.4868   13.8141 N   0  0  1  0  0  0  0  0  0  0  0  0
  1  3  1  6  0  0  0
  1  4  2  0  0  0  0
  1  6  1  0  0  0  0
  1 22  1  0  0  0  0
  2 28  1  0  0  0  0
  2 35  1  1  0  0  0
  2 38  2  0  0  0  0
  2 10  1  0  0  0  0
  5  6  1  0  0  0  0
  7  5  1  6  0  0  0
  7  8  1  0  0  0  0
  7  9  1  0  0  0  0
  9 10  1  1  0  0  0
  9 11  1  0  0  0  0
 11 12  1  1  0  0  0
 11 13  1  0  0  0  0
 13  8  1  6  0  0  0
 13 33  1  0  0  0  0
 14 46  1  0  0  0  0
 14 17  1  0  0  0  0
 14 25  1  1  0  0  0
 15 16  1  0  0  0  0
 15 29  1  0  0  0  0
 16 18  1  6  0  0  0
 16 21  1  0  0  0  0
 17 19  1  6  0  0  0
 17 20  1  0  0  0  0
 20 22  1  6  0  0  0
 20 24  1  0  0  0  0
 23 21  1  6  0  0  0
 23 26  1  0  0  0  0
 23 33  1  0  0  0  0
 24 25  1  6  0  0  0
 24 27  1  0  0  0  0
 26 29  1  1  0  0  0
 26 31  1  0  0  0  0
 27 28  1  0  0  0  0
 29 30  2  0  0  0  0
 31 32  1  0  0  0  0
 33 32  1  1  0  0  0
 34 36  1  0  0  0  0
 34 42  1  0  0  0  0
 36 37  1  6  0  0  0
 36 39  1  0  0  0  0
 40 39  1  1  0  0  0
 40 41  1  0  0  0  0
 40 46  1  0  0  0  0
 41 42  1  1  0  0  0
 41 44  1  0  0  0  0
 42 43  2  0  0  0  0
 44 45  1  0  0  0  0
 46 45  1  6  0  0  0
M  CHG  2   3  -1  35  -1
M  END
>  <CHROM.1>
163.44457871,65.33007829,-8.07430356,1.72406998,16.47695633,-2.26835687,-0.97972227
-2.48595524

>  <Name>
ligand

>  <RI>
-1

>  <Rbt.Current_Directory>
/home/itssahil/PROJECTS/Mol_Feturizer/Test_systems_manuscript/rnas/3mum

>  <Rbt.Executable>
rbdock ($Id: //depot/dev/client3/rdock/2013.1/src/exe/rbdock.cxx#4 $)

>  <Rbt.Library>
libRbt.so (2013.1, Build901 2013/11/27)

>  <Rbt.Parameter_File>
/export/apps/rDock/src/rDock_2013.1_src/data/scripts/dock_solv.prm

>  <Rbt.Receptor>
prm/pocket_docking_4.prm

>  <SCORE>
-40.4348

>  <SCORE.INTER>
-40.4265

>  <SCORE.INTER.CONST>
1

>  <SCORE.INTER.POLAR>
0

>  <SCORE.INTER.ROT>
2

>  <SCORE.INTER.SOLV>
38.3646

>  <SCORE.INTER.VDW>
-44.6725

>  <SCORE.INTER.norm>
-0.878836

>  <SCORE.INTRA>
-0.00835454

>  <SCORE.INTRA.DIHEDRAL>
-1.93633e-05

>  <SCORE.INTRA.DIHEDRAL.0>
2.40424

>  <SCORE.INTRA.POLAR>
0

>  <SCORE.INTRA.POLAR.0>
0

>  <SCORE.INTRA.REPUL>
0

>  <SCORE.INTRA.REPUL.0>
0

>  <SCORE.INTRA.SOLV>
0.00230793

>  <SCORE.INTRA.SOLV.lig_0>
-134.169

>  <SCORE.INTRA.VDW>
-0.00949883

>  <SCORE.INTRA.VDW.0>
-2.18386

>  <SCORE.INTRA.norm>
-0.00018162

>  <SCORE.RESTR>
0

>  <SCORE.RESTR.CAVITY>
0

>  <SCORE.RESTR.norm>
0

>  <SCORE.SYSTEM>
0

>  <SCORE.SYSTEM.CONST>
0

>  <SCORE.SYSTEM.DIHEDRAL>
0

>  <SCORE.SYSTEM.SOLV>
0

>  <SCORE.SYSTEM.norm>
0

>  <SCORE.heavy>
46

>  <SCORE.norm>
-0.879018

>  <RMSD>
0.194

$$$$
ligand
 OpenBabel02271912143D
libRbt.so/2013.1/901 2013/11/27
 46 52  0  0  0  0  0  0  0  0999 V2000
   -9.8002    4.9282   15.6337 P   0  0  1  0  0  0  0  0  0  0  0  0
   -5.3391    2.6358   18.7192 P   0  0  2  0  0  0  0  0  0  0  0  0
  -10.4919    3.7043   14.5542 O   0  5  0  0  0  0  0  0  0  0  0  0
  -10.7075    6.4612   15.5569 O   0  0  0  0  0  0  0  0  0  0  0  0
   -9.2196    5.0693   18.2157 C   0  0  0  0  0  0  0  0  0  0  0  0
   -9.8135    4.3463   17.1372 O   0  0  0  0  0  0  0  0  0  0  0  0
   -8.9518    4.1047   19.3552 C   0  0  1  0  0  0  0  0  0  0  0  0
  -10.1586    3.3988   19.6770 O   0  0  0  0  0  0  0  0  0  0  0  0
   -7.9329    3.0319   19.0068 C   0  0  1  0  0  0  0  0  0  0  0  0
   -6.6034    3.4254   19.3396 O   0  0  0  0  0  0  0  0  0  0  0  0
   -8.3944    1.8391   19.8254 C   0  0  1  0  0  0  0  0  0  0  0  0
   -7.7962    1.8742   21.1236 O   0  0  0  0  0  0  0  0  0  0  0  0
   -9.8933    2.0197   19.9775 C   0  0  2  0  0  0  0  0  0  0  0  0
   -5.9433    3.0493   13.6161 C   0  0  1  0  0  0  0  0  0  0  0  0
  -10.8126   -2.8695   18.1218 N   0  0  0  0  0  0  0  0  0  0  0  0
   -9.9690   -2.4734   19.1137 C   0  0  1  0  0  0  0  0  0  0  0  0
   -7.3724    3.4081   13.9093 C   0  0  2  0  0  0  0  0  0  0  0  0
   -9.2377   -3.4193   19.7471 N   0  0  0  0  0  0  0  0  0  0  0  0
   -7.7883    4.2946   12.8690 O   0  0  0  0  0  0  0  0  0  0  0  0
   -7.3287    4.0953   15.2597 C   0  0  2  0  0  0  0  0  0  0  0  0
   -9.8310   -1.1671   19.4895 N   0  0  0  0  0  0  0  0  0  0  0  0
   -8.2414    5.1824   15.3262 O   0  0  0  0  0  0  0  0  0  0  0  0
  -10.5431   -0.1815   18.8870 C   0  0  2  0  0  0  0  0  0  0  0  0
   -5.9061    4.6022   15.3924 C   0  0  2  0  0  0  0  0  0  0  0  0
   -5.1226    3.8074   14.5037 O   0  0  0  0  0  0  0  0  0  0  0  0
  -11.4691   -0.5559   17.8041 C   0  0  1  0  0  0  0  0  0  0  0  0
   -5.3599    4.4689   16.8096 C   0  0  0  0  0  0  0  0  0  0  0  0
   -5.3373    3.0872   17.1735 O   0  0  0  0  0  0  0  0  0  0  0  0
  -11.5748   -1.9811   17.4440 C   0  0  0  0  0  0  0  0  0  0  0  0
  -12.4107   -2.3844   16.4537 O   0  0  0  0  0  0  0  0  0  0  0  0
  -12.0399    0.5742   17.3726 N   0  0  0  0  0  0  0  0  0  0  0  0
  -11.5251    1.5983   18.1140 C   0  0  0  0  0  0  0  0  0  0  0  0
  -10.6294    1.1524   19.0198 N   0  0  1  0  0  0  0  0  0  0  0  0
   -7.3984   -1.7274   12.0558 N   0  0  0  0  0  0  0  0  0  0  0  0
   -5.5423    0.8692   18.8553 O   0  5  0  0  0  0  0  0  0  0  0  0
   -7.8430   -0.5059   11.6519 C   0  0  2  0  0  0  0  0  0  0  0  0
   -8.8068   -0.4332   10.6970 N   0  0  0  0  0  0  0  0  0  0  0  0
   -3.7897    3.1102   19.4420 O   0  0  0  0  0  0  0  0  0  0  0  0
   -7.3512    0.6502   12.1751 N   0  0  0  0  0  0  0  0  0  0  0  0
   -6.3859    0.6425   13.1240 C   0  0  2  0  0  0  0  0  0  0  0  0
   -5.8676   -0.6459   13.6027 C   0  0  2  0  0  0  0  0  0  0  0  0
   -6.4449   -1.8670   13.0012 C   0  0  0  0  0  0  0  0  0  0  0  0
   -6.0315   -3.1011   13.3814 O   0  0  0  0  0  0  0  0  0  0  0  0
   -4.9395   -0.3641   14.5384 N   0  0  0  0  0  0  0  0  0  0  0  0
   -4.8671    0.9961   14.6460 C   0  0  0  0  0  0  0  0  0  0  0  0
   -5.7366    1.5927   13.7992 N   0  0  1  0  0  0  0  0  0  0  0  0
  1  3  1  6  0  0  0
  1  4  2  0  0  0  0
  1  6  1  0  0  0  0
  1 22  1  0  0  0  0
  2 28  1  0  0  0  0
  2 35  1  1  0  0  0
  2 38  2  0  0  0  0
  2 10  1  0  0  0  0
  5  6  1  0  0  0  0
  7  5  1  6  0  0  0
  7  8  1  0  0  0  0
  7  9  1  0  0  0  0
  9 10  1  1  0  0  0
  9 11  1  0  0  0  0
 11 12  1  1  0  0  0
 11 13  1  0  0  0  0
 13  8  1  6  0  0  0
 13 33  1  0  0  0  0
 14 46  1  0  0  0  0
 14 17  1  0  0  0  0
 14 25  1  1  0  0  0
 15 16  1  0  0  0  0
 15 29  1  0  0  0  0
 16 18  1  6  0  0  0
 16 21  1  0  0  0  0
 17 19  1  6  0  0  0
 17 20  1  0  0  0  0
 20 22  1  6  0  0  0
 20 24  1  0  0  0  0
 23 21  1  6  0  0  0
 23 26  1  0  0  0  0
 23 33  1  0  0  0  0
 24 25  1  6  0  0  0
 24 27  1  0  0  0  0
 26 29  1  1  0  0  0
 26 31  1  0  0  0  0
 27 28  1  0  0  0  0
 29 30  2  0  0  0  0
 31 32  1  0  0  0  0
 33 32  1  1  0  0  0
 34 36  1  0  0  0  0
 34 42  1  0  0  0  0
 36 37  1  6  0  0  0
 36 39  1  0  0  0  0
 40 39  1  1  0  0  0
 40 41  1  0  0  0  0
 40 46  1  0  0  0  0
 41 42  1  1  0  0  0
 41 44  1  0  0  0  0
 42 43  2  0  0  0  0
 44 45  1  0  0  0  0
 46 45  1  6  0  0  0
M  CHG  2   3  -1  35  -1
M  END
>  <CHROM.1>
173.07392042,59.71569402,-8.09153243,1.73043111,16.49099349,-0.54967294,0.98006419
0.66303011

>  <Name>
ligand

>  <RI>
416

>  <Rbt.Current_Directory>
/home/itssahil/PROJECTS/Mol_Feturizer/Test_systems_manuscript/rnas/3mum

>  <Rbt.Executable>
rbdock ($Id: //depot/dev/client3/rdock/2013.1/src/exe/rbdock.cxx#4 $)

>  <Rbt.Library>
libRbt.so (2013.1, Build901 2013/11/27)

>  <Rbt.Parameter_File>
/export/apps/rDock/src/rDock_2013.1_src/data/scripts/dock_solv.prm

>  <Rbt.Receptor>
prm/pocket_docking_3.prm

>  <SCORE>
-39.7711

>  <SCORE.INTER>
-39.7899

>  <SCORE.INTER.CONST>
1

>  <SCORE.INTER.POLAR>
0

>  <SCORE.INTER.ROT>
2

>  <SCORE.INTER.SOLV>
39.2308

>  <SCORE.INTER.VDW>
-44.5369

>  <SCORE.INTER.norm>
-0.864998

>  <SCORE.INTRA>
0.0188052

>  <SCORE.INTRA.DIHEDRAL>
-0.00657756

>  <SCORE.INTRA.DIHEDRAL.0>
2.40424

>  <SCORE.INTRA.POLAR>
0

>  <SCORE.INTRA.POLAR.0>
0

>  <SCORE.INTRA.REPUL>
0

>  <SCORE.INTRA.REPUL.0>
0

>  <SCORE.INTRA.SOLV>
0.00544066

>  <SCORE.INTRA.SOLV.lig_0>
-134.169

>  <SCORE.INTRA.VDW>
0.0193736

>  <SCORE.INTRA.VDW.0>
-2.18386

>  <SCORE.INTRA.norm>
0.000408808

>  <SCORE.RESTR>
0

>  <SCORE.RESTR.CAVITY>
0

>  <SCORE.RESTR.norm>
0

>  <SCORE.SYSTEM>
0

>  <SCORE.SYSTEM.CONST>
0

>  <SCORE.SYSTEM.DIHEDRAL>
0

>  <SCORE.SYSTEM.SOLV>
0

>  <SCORE.SYSTEM.norm>
0

>  <SCORE.heavy>
46

>  <SCORE.norm>
-0.864589

>  <RMSD>
0.197

$$$$
ligand
 OpenBabel02271912143D
libRbt.so/2013.1/901 2013/11/27
 46 52  0  0  0  0  0  0  0  0999 V2000
   -9.8001    4.8806   15.6002 P   0  0  1  0  0  0  0  0  0  0  0  0
   -5.3159    2.5328   18.6095 P   0  0  2  0  0  0  0  0  0  0  0  0
  -10.5261    3.6651   14.5337 O   0  5  0  0  0  0  0  0  0  0  0  0
  -10.6889    6.4250   15.5380 O   0  0  0  0  0  0  0  0  0  0  0  0
   -9.1730    5.0156   18.1715 C   0  0  0  0  0  0  0  0  0  0  0  0
   -9.7948    4.2997   17.1041 O   0  0  0  0  0  0  0  0  0  0  0  0
   -8.8979    4.0482   19.3070 C   0  0  1  0  0  0  0  0  0  0  0  0
  -10.1078    3.3581   19.6502 O   0  0  0  0  0  0  0  0  0  0  0  0
   -7.8990    2.9623   18.9418 C   0  0  1  0  0  0  0  0  0  0  0  0
   -6.5590    3.3389   19.2511 O   0  0  0  0  0  0  0  0  0  0  0  0
   -8.3615    1.7759   19.7692 C   0  0  1  0  0  0  0  0  0  0  0  0
   -7.7405    1.8040   21.0568 O   0  0  0  0  0  0  0  0  0  0  0  0
   -9.8551    1.9758   19.9471 C   0  0  2  0  0  0  0  0  0  0  0  0
   -6.0032    2.9513   13.5173 C   0  0  1  0  0  0  0  0  0  0  0  0
  -10.8743   -2.9029   18.1161 N   0  0  0  0  0  0  0  0  0  0  0  0
  -10.0094   -2.5173   19.0938 C   0  0  1  0  0  0  0  0  0  0  0  0
   -7.4223    3.3286   13.8350 C   0  0  2  0  0  0  0  0  0  0  0  0
   -9.2818   -3.4725   19.7174 N   0  0  0  0  0  0  0  0  0  0  0  0
   -7.8448    4.2198   12.8014 O   0  0  0  0  0  0  0  0  0  0  0  0
   -7.3464    4.0158   15.1840 C   0  0  2  0  0  0  0  0  0  0  0  0
   -9.8465   -1.2125   19.4646 N   0  0  0  0  0  0  0  0  0  0  0  0
   -8.2438    5.1146   15.2655 O   0  0  0  0  0  0  0  0  0  0  0  0
  -10.5538   -0.2177   18.8715 C   0  0  2  0  0  0  0  0  0  0  0  0
   -5.9153    4.5045   15.2916 C   0  0  2  0  0  0  0  0  0  0  0  0
   -5.1576    3.6993   14.3900 O   0  0  0  0  0  0  0  0  0  0  0  0
  -11.5022   -0.5806   17.8042 C   0  0  1  0  0  0  0  0  0  0  0  0
   -5.3463    4.3650   16.6992 C   0  0  0  0  0  0  0  0  0  0  0  0
   -5.3352    2.9833   17.0637 O   0  0  0  0  0  0  0  0  0  0  0  0
  -11.6342   -2.0048   17.4487 C   0  0  0  0  0  0  0  0  0  0  0  0
  -12.4915   -2.3977   16.4726 O   0  0  0  0  0  0  0  0  0  0  0  0
  -12.0635    0.5568   17.3795 N   0  0  0  0  0  0  0  0  0  0  0  0
  -11.5222    1.5747   18.1106 C   0  0  0  0  0  0  0  0  0  0  0  0
  -10.6187    1.1175   19.0030 N   0  0  1  0  0  0  0  0  0  0  0  0
   -7.5719   -1.8072   12.0127 N   0  0  0  0  0  0  0  0  0  0  0  0
   -5.5393    0.7690   18.7504 O   0  5  0  0  0  0  0  0  0  0  0  0
   -8.0108   -0.5803   11.6190 C   0  0  2  0  0  0  0  0  0  0  0  0
   -9.0012   -0.4957   10.6927 N   0  0  0  0  0  0  0  0  0  0  0  0
   -3.7483    2.9877   19.3049 O   0  0  0  0  0  0  0  0  0  0  0  0
   -7.4872    0.5697   12.1246 N   0  0  0  0  0  0  0  0  0  0  0  0
   -6.4946    0.5501   13.0446 C   0  0  2  0  0  0  0  0  0  0  0  0
   -5.9809   -0.7446   13.5110 C   0  0  2  0  0  0  0  0  0  0  0  0
   -6.5930   -1.9585   12.9298 C   0  0  0  0  0  0  0  0  0  0  0  0
   -6.1863   -3.1976   13.3008 O   0  0  0  0  0  0  0  0  0  0  0  0
   -5.0216   -0.4743   14.4182 N   0  0  0  0  0  0  0  0  0  0  0  0
   -4.9266    0.8850   14.5202 C   0  0  0  0  0  0  0  0  0  0  0  0
   -5.8120    1.4923   13.6980 N   0  0  1  0  0  0  0  0  0  0  0  0
  1  3  1  6  0  0  0
  1  4  2  0  0  0  0
  1  6  1  0  0  0  0
  1 22  1  0  0  0  0
  2 28  1  0  0  0  0
  2 35  1  1  0  0  0
  2 38  2  0  0  0  0
  2 10  1  0  0  0  0
  5  6  1  0  0  0  0
  7  5  1  6  0  0  0
  7  8  1  0  0  0  0
  7  9  1  0  0  0  0
  9 10  1  1  0  0  0
  9 11  1  0  0  0  0
 11 12  1  1  0  0  0
 11 13  1  0  0  0  0
 13  8  1  6  0  0  0
 13 33  1  0  0  0  0
 14 46  1  0  0  0  0
 14 17  1  0  0  0  0
 14 25  1  1  0  0  0
 15 16  1  0  0  0  0
 15 29  1  0  0  0  0
 16 18  1  6  0  0  0
 16 21  1  0  0  0  0
 17 19  1  6  0  0  0
 17 20  1  0  0  0  0
 20 22  1  6  0  0  0
 20 24  1  0  0  0  0
 23 21  1  6  0  0  0
 23 26  1  0  0  0  0
 23 33  1  0  0  0  0
 24 25  1  6  0  0  0
 24 27  1  0  0  0  0
 26 29  1  1  0  0  0
 26 31  1  0  0  0  0
 27 28  1  0  0  0  0
 29 30  2  0  0  0  0
 31 32  1  0  0  0  0
 33 32  1  1  0  0  0
 34 36  1  0  0  0  0
 34 42  1  0  0  0  0
 36 37  1  6  0  0  0
 36 39  1  0  0  0  0
 40 39  1  1  0  0  0
 40 41  1  0  0  0  0
 40 46  1  0  0  0  0
 41 42  1  1  0  0  0
 41 44  1  0  0  0  0
 42 43  2  0  0  0  0
 44 45  1  0  0  0  0
 46 45  1  6  0  0  0
M  CHG  2   3  -1  35  -1
M  END
>  <CHROM.1>
173.21959248,59.00607013,-8.12133136,1.66151632,16.43350472,-0.57085496,0.98485990
0.69640165

>  <Name>
ligand

>  <RI>
-1

>  <Rbt.Current_Directory>
/home/itssahil/PROJECTS/Mol_Feturizer/Test_systems_manuscript/rnas/3mum

>  <Rbt.Executable>
rbdock ($Id: //depot/dev/client3/rdock/2013.1/src/exe/rbdock.cxx#4 $)

>  <Rbt.Library>
libRbt.so (2013.1, Build901 2013/11/27)

>  <Rbt.Parameter_File>
/export/apps/rDock/src/rDock_2013.1_src/data/scripts/dock_solv.prm

>  <Rbt.Receptor>
prm/pocket_docking_7.prm

>  <SCORE>
-39.6799

>  <SCORE.INTER>
-39.7069

>  <SCORE.INTER.CONST>
1

>  <SCORE.INTER.POLAR>
0

>  <SCORE.INTER.ROT>
2

>  <SCORE.INTER.SOLV>
40.4673

>  <SCORE.INTER.VDW>
-44.8937

>  <SCORE.INTER.norm>
-0.863194

>  <SCORE.INTRA>
0.0270533

>  <SCORE.INTRA.DIHEDRAL>
-0.00757455

>  <SCORE.INTRA.DIHEDRAL.0>
2.40424

>  <SCORE.INTRA.POLAR>
0

>  <SCORE.INTRA.POLAR.0>
0

>  <SCORE.INTRA.REPUL>
0

>  <SCORE.INTRA.REPUL.0>
0

>  <SCORE.INTRA.SOLV>
0.00653483

>  <SCORE.INTRA.SOLV.lig_0>
-134.169

>  <SCORE.INTRA.VDW>
0.0275732

>  <SCORE.INTRA.VDW.0>
-2.18386

>  <SCORE.INTRA.norm>
0.000588115

>  <SCORE.RESTR>
0

>  <SCORE.RESTR.CAVITY>
0

>  <SCORE.RESTR.norm>
0

>  <SCORE.SYSTEM>
0

>  <SCORE.SYSTEM.CONST>
0

>  <SCORE.SYSTEM.DIHEDRAL>
0

>  <SCORE.SYSTEM.SOLV>
0

>  <SCORE.SYSTEM.norm>
0

>  <SCORE.heavy>
46

>  <SCORE.norm>
-0.862606

>  <RMSD>
0.199

$$$$
ligand
 OpenBabel02271912143D
libRbt.so/2013.1/901 2013/11/27
 46 52  0  0  0  0  0  0  0  0999 V2000
   -9.7492    4.9491   15.6660 P   0  0  1  0  0  0  0  0  0  0  0  0
   -5.3000    2.4919   18.6396 P   0  0  2  0  0  0  0  0  0  0  0  0
  -10.5288    3.7458   14.6237 O   0  5  0  0  0  0  0  0  0  0  0  0
  -10.5891    6.5205   15.5984 O   0  0  0  0  0  0  0  0  0  0  0  0
   -9.0816    5.0922   18.2267 C   0  0  0  0  0  0  0  0  0  0  0  0
   -9.7411    4.3850   17.1763 O   0  0  0  0  0  0  0  0  0  0  0  0
   -8.8215    4.1291   19.3693 C   0  0  1  0  0  0  0  0  0  0  0  0
  -10.0478    3.4820   19.7371 O   0  0  0  0  0  0  0  0  0  0  0  0
   -7.8631    3.0077   19.0027 C   0  0  1  0  0  0  0  0  0  0  0  0
   -6.5075    3.3445   19.2891 O   0  0  0  0  0  0  0  0  0  0  0  0
   -8.3514    1.8460   19.8500 C   0  0  1  0  0  0  0  0  0  0  0  0
   -7.7115    1.8684   21.1285 O   0  0  0  0  0  0  0  0  0  0  0  0
   -9.8352    2.0957   20.0463 C   0  0  2  0  0  0  0  0  0  0  0  0
   -6.0459    2.8761   13.5530 C   0  0  1  0  0  0  0  0  0  0  0  0
  -10.6988   -2.6952   17.9264 N   0  0  0  0  0  0  0  0  0  0  0  0
   -9.7555   -2.3153   18.8310 C   0  0  1  0  0  0  0  0  0  0  0  0
   -7.4476    3.3022   13.8860 C   0  0  2  0  0  0  0  0  0  0  0  0
   -8.8906   -3.2516   19.2848 N   0  0  0  0  0  0  0  0  0  0  0  0
   -7.8560    4.1951   12.8482 O   0  0  0  0  0  0  0  0  0  0  0  0
   -7.3306    4.0015   15.2258 C   0  0  2  0  0  0  0  0  0  0  0  0
   -9.6472   -1.0339   19.2926 N   0  0  0  0  0  0  0  0  0  0  0  0
   -8.1911    5.1294   15.3071 O   0  0  0  0  0  0  0  0  0  0  0  0
  -10.4914   -0.0590   18.8702 C   0  0  2  0  0  0  0  0  0  0  0  0
   -5.8832    4.4452   15.3079 C   0  0  2  0  0  0  0  0  0  0  0  0
   -5.1644    3.6062   14.4053 O   0  0  0  0  0  0  0  0  0  0  0  0
  -11.5296   -0.4165   17.8880 C   0  0  1  0  0  0  0  0  0  0  0  0
   -5.2990    4.3029   16.7090 C   0  0  0  0  0  0  0  0  0  0  0  0
   -5.3268    2.9257   17.0892 O   0  0  0  0  0  0  0  0  0  0  0  0
  -11.5967   -1.8150   17.4279 C   0  0  0  0  0  0  0  0  0  0  0  0
  -12.5317   -2.2018   16.5233 O   0  0  0  0  0  0  0  0  0  0  0  0
  -12.2199    0.6994   17.6284 N   0  0  0  0  0  0  0  0  0  0  0  0
  -11.6731    1.6995   18.3796 C   0  0  0  0  0  0  0  0  0  0  0  0
  -10.6392    1.2519   19.1228 N   0  0  1  0  0  0  0  0  0  0  0  0
   -7.4797   -1.8534   11.8370 N   0  0  0  0  0  0  0  0  0  0  0  0
   -5.5776    0.7378   18.8039 O   0  5  0  0  0  0  0  0  0  0  0  0
   -7.8491   -0.6187   11.3987 C   0  0  2  0  0  0  0  0  0  0  0  0
   -8.7147   -0.5162   10.3565 N   0  0  0  0  0  0  0  0  0  0  0  0
   -3.7089    2.9039   19.3080 O   0  0  0  0  0  0  0  0  0  0  0  0
   -7.3769    0.5216   11.9723 N   0  0  0  0  0  0  0  0  0  0  0  0
   -6.5073    0.4841   13.0089 C   0  0  2  0  0  0  0  0  0  0  0  0
   -6.0737   -0.8197   13.5283 C   0  0  2  0  0  0  0  0  0  0  0  0
   -6.6252   -2.0224   12.8683 C   0  0  0  0  0  0  0  0  0  0  0  0
   -6.2850   -3.2687   13.2801 O   0  0  0  0  0  0  0  0  0  0  0  0
   -5.2316   -0.5668   14.5497 N   0  0  0  0  0  0  0  0  0  0  0  0
   -5.1314    0.7906   14.6705 C   0  0  0  0  0  0  0  0  0  0  0  0
   -5.8988    1.4138   13.7477 N   0  0  1  0  0  0  0  0  0  0  0  0
  1  3  1  6  0  0  0
  1  4  2  0  0  0  0
  1  6  1  0  0  0  0
  1 22  1  0  0  0  0
  2 28  1  0  0  0  0
  2 35  1  1  0  0  0
  2 38  2  0  0  0  0
  2 10  1  0  0  0  0
  5  6  1  0  0  0  0
  7  5  1  6  0  0  0
  7  8  1  0  0  0  0
  7  9  1  0  0  0  0
  9 10  1  1  0  0  0
  9 11  1  0  0  0  0
 11 12  1  1  0  0  0
 11 13  1  0  0  0  0
 13  8  1  6  0  0  0
 13 33  1  0  0  0  0
 14 46  1  0  0  0  0
 14 17  1  0  0  0  0
 14 25  1  1  0  0  0
 15 16  1  0  0  0  0
 15 29  1  0  0  0  0
 16 18  1  6  0  0  0
 16 21  1  0  0  0  0
 17 19  1  6  0  0  0
 17 20  1  0  0  0  0
 20 22  1  6  0  0  0
 20 24  1  0  0  0  0
 23 21  1  6  0  0  0
 23 26  1  0  0  0  0
 23 33  1  0  0  0  0
 24 25  1  6  0  0  0
 24 27  1  0  0  0  0
 26 29  1  1  0  0  0
 26 31  1  0  0  0  0
 27 28  1  0  0  0  0
 29 30  2  0  0  0  0
 31 32  1  0  0  0  0
 33 32  1  1  0  0  0
 34 36  1  0  0  0  0
 34 42  1  0  0  0  0
 36 37  1  6  0  0  0
 36 39  1  0  0  0  0
 40 39  1  1  0  0  0
 40 41  1  0  0  0  0
 40 46  1  0  0  0  0
 41 42  1  1  0  0  0
 41 44  1  0  0  0  0
 42 43  2  0  0  0  0
 44 45  1  0  0  0  0
 46 45  1  6  0  0  0
M  CHG  2   3  -1  35  -1
M  END
>  <CHROM.1>
163.07532151,67.10166091,-8.09238913,1.69421756,16.44258780,-2.23005149,-0.98452831
-2.46011275

>  <Name>
ligand

>  <RI>
-1

>  <Rbt.Current_Directory>
/home/itssahil/PROJECTS/Mol_Feturizer/Test_systems_manuscript/rnas/3mum

>  <Rbt.Executable>
rbdock ($Id: //depot/dev/client3/rdock/2013.1/src/exe/rbdock.cxx#4 $)

>  <Rbt.Library>
libRbt.so (2013.1, Build901 2013/11/27)

>  <Rbt.Parameter_File>
/export/apps/rDock/src/rDock_2013.1_src/data/scripts/dock_solv.prm

>  <Rbt.Receptor>
prm/pocket_docking_4.prm

>  <SCORE>
-40.3177

>  <SCORE.INTER>
-40.2945

>  <SCORE.INTER.CONST>
1

>  <SCORE.INTER.POLAR>
0

>  <SCORE.INTER.ROT>
2

>  <SCORE.INTER.SOLV>
38.8745

>  <SCORE.INTER.VDW>
-44.7545

>  <SCORE.INTER.norm>
-0.875968

>  <SCORE.INTRA>
-0.0231472

>  <SCORE.INTRA.DIHEDRAL>
0.00237669

>  <SCORE.INTRA.DIHEDRAL.0>
2.40424

>  <SCORE.INTRA.POLAR>
0

>  <SCORE.INTRA.POLAR.0>
0

>  <SCORE.INTRA.REPUL>
0

>  <SCORE.INTRA.REPUL.0>
0

>  <SCORE.INTRA.SOLV>
2.00386e-05

>  <SCORE.INTRA.SOLV.lig_0>
-134.169

>  <SCORE.INTRA.VDW>
-0.0243456

>  <SCORE.INTRA.VDW.0>
-2.18386

>  <SCORE.INTRA.norm>
-0.0005032

>  <SCORE.RESTR>
0

>  <SCORE.RESTR.CAVITY>
0

>  <SCORE.RESTR.norm>
0

>  <SCORE.SYSTEM>
0

>  <SCORE.SYSTEM.CONST>
0

>  <SCORE.SYSTEM.DIHEDRAL>
0

>  <SCORE.SYSTEM.SOLV>
0

>  <SCORE.SYSTEM.norm>
0

>  <SCORE.heavy>
46

>  <SCORE.norm>
-0.876471

>  <RMSD>
0.208

$$$$
ligand
 OpenBabel02271912143D
libRbt.so/2013.1/901 2013/11/27
 46 52  0  0  0  0  0  0  0  0999 V2000
   -5.2901    2.6054   18.6842 P   0  0  1  0  0  0  0  0  0  0  0  0
   -9.7990    4.7989   15.5966 P   0  0  2  0  0  0  0  0  0  0  0  0
   -5.4009    0.8380   18.7601 O   0  5  0  0  0  0  0  0  0  0  0  0
   -3.8046    3.2053   19.4671 O   0  0  0  0  0  0  0  0  0  0  0  0
   -5.3564    4.4291   16.7625 C   0  0  0  0  0  0  0  0  0  0  0  0
   -5.3239    3.0513   17.1353 O   0  0  0  0  0  0  0  0  0  0  0  0
   -5.8651    4.5327   15.3373 C   0  0  1  0  0  0  0  0  0  0  0  0
   -5.0820    3.6826   14.4876 O   0  0  0  0  0  0  0  0  0  0  0  0
   -7.3004    4.0589   15.1762 C   0  0  1  0  0  0  0  0  0  0  0  0
   -8.2381    5.1208   15.3387 O   0  0  0  0  0  0  0  0  0  0  0  0
   -7.3208    3.4931   13.7672 C   0  0  1  0  0  0  0  0  0  0  0  0
   -7.6392    4.5242   12.8292 O   0  0  0  0  0  0  0  0  0  0  0  0
   -5.9010    3.0243   13.5085 C   0  0  2  0  0  0  0  0  0  0  0  0
   -9.8281    1.9170   19.8711 C   0  0  1  0  0  0  0  0  0  0  0  0
   -7.3824   -1.8157   11.9048 N   0  0  0  0  0  0  0  0  0  0  0  0
   -7.7618   -0.6000   11.4248 C   0  0  1  0  0  0  0  0  0  0  0  0
   -8.3674    1.6824   19.6096 C   0  0  2  0  0  0  0  0  0  0  0  0
   -8.6393   -0.5641   10.3955 N   0  0  0  0  0  0  0  0  0  0  0  0
   -7.7499    1.5142   20.8868 O   0  0  0  0  0  0  0  0  0  0  0  0
   -7.8937    2.9404   18.9090 C   0  0  2  0  0  0  0  0  0  0  0  0
   -7.2967    0.5767   11.9404 N   0  0  0  0  0  0  0  0  0  0  0  0
   -6.5863    3.3125   19.3235 O   0  0  0  0  0  0  0  0  0  0  0  0
   -6.4141    0.5944   12.9712 C   0  0  2  0  0  0  0  0  0  0  0  0
   -8.8905    4.0091   19.3123 C   0  0  2  0  0  0  0  0  0  0  0  0
  -10.0715    3.3137   19.7087 O   0  0  0  0  0  0  0  0  0  0  0  0
   -5.9731   -0.6952   13.5304 C   0  0  1  0  0  0  0  0  0  0  0  0
   -9.2229    4.9682   18.1747 C   0  0  0  0  0  0  0  0  0  0  0  0
   -9.8209    4.2341   17.1043 O   0  0  0  0  0  0  0  0  0  0  0  0
   -6.5095   -1.9304   12.9316 C   0  0  0  0  0  0  0  0  0  0  0  0
   -6.1395   -3.1469   13.4064 O   0  0  0  0  0  0  0  0  0  0  0  0
   -5.1228   -0.4173   14.5248 N   0  0  0  0  0  0  0  0  0  0  0  0
   -5.0217    0.9417   14.6051 C   0  0  0  0  0  0  0  0  0  0  0  0
   -5.7921    1.5511   13.6796 N   0  0  1  0  0  0  0  0  0  0  0  0
  -10.8422   -2.8975   18.0935 N   0  0  0  0  0  0  0  0  0  0  0  0
  -10.4083    3.5685   14.4583 O   0  5  0  0  0  0  0  0  0  0  0  0
   -9.9387   -2.4849   19.0242 C   0  0  2  0  0  0  0  0  0  0  0  0
   -9.1466   -3.4053   19.6337 N   0  0  0  0  0  0  0  0  0  0  0  0
  -10.8354    6.2371   15.5232 O   0  0  0  0  0  0  0  0  0  0  0  0
   -9.8026   -1.1747   19.3665 N   0  0  0  0  0  0  0  0  0  0  0  0
  -10.5674   -0.2126   18.7993 C   0  0  2  0  0  0  0  0  0  0  0  0
  -11.5588   -0.5960   17.7855 C   0  0  2  0  0  0  0  0  0  0  0  0
  -11.6562   -2.0330   17.4514 C   0  0  0  0  0  0  0  0  0  0  0  0
  -12.5401   -2.4814   16.5261 O   0  0  0  0  0  0  0  0  0  0  0  0
  -12.1618    0.5415   17.3868 N   0  0  0  0  0  0  0  0  0  0  0  0
  -11.6034    1.5695   18.0928 C   0  0  0  0  0  0  0  0  0  0  0  0
  -10.6484    1.1124   18.9343 N   0  0  1  0  0  0  0  0  0  0  0  0
  1  3  1  1  0  0  0
  1  4  2  0  0  0  0
  1  6  1  0  0  0  0
  1 22  1  0  0  0  0
  2 28  1  0  0  0  0
  2 35  1  6  0  0  0
  2 38  2  0  0  0  0
  2 10  1  0  0  0  0
  5  6  1  0  0  0  0
  7  5  1  1  0  0  0
  7  8  1  0  0  0  0
  7  9  1  0  0  0  0
  9 10  1  6  0  0  0
  9 11  1  0  0  0  0
 11 12  1  6  0  0  0
 11 13  1  0  0  0  0
 13  8  1  1  0  0  0
 13 33  1  0  0  0  0
 14 46  1  0  0  0  0
 14 17  1  0  0  0  0
 14 25  1  6  0  0  0
 15 16  1  0  0  0  0
 15 29  1  0  0  0  0
 16 18  1  1  0  0  0
 16 21  1  0  0  0  0
 17 19  1  1  0  0  0
 17 20  1  0  0  0  0
 20 22  1  1  0  0  0
 20 24  1  0  0  0  0
 23 21  1  1  0  0  0
 23 26  1  0  0  0  0
 23 33  1  0  0  0  0
 24 25  1  6  0  0  0
 24 27  1  0  0  0  0
 26 29  1  6  0  0  0
 26 31  1  0  0  0  0
 27 28  1  0  0  0  0
 29 30  2  0  0  0  0
 31 32  1  0  0  0  0
 33 32  1  6  0  0  0
 34 36  1  0  0  0  0
 34 42  1  0  0  0  0
 36 37  1  1  0  0  0
 36 39  1  0  0  0  0
 40 39  1  6  0  0  0
 40 41  1  0  0  0  0
 40 46  1  0  0  0  0
 41 42  1  6  0  0  0
 41 44  1  0  0  0  0
 42 43  2  0  0  0  0
 44 45  1  0  0  0  0
 46 45  1  1  0  0  0
M  CHG  2   3  -1  35  -1
M  END
>  <CHROM.1>
179.20780931,56.42445800,-8.08800677,1.66646223,16.42165833,-2.57607986,-0.96938943
-2.42301887

>  <Name>
ligand

>  <RI>
416

>  <Rbt.Current_Directory>
/home/itssahil/PROJECTS/Mol_Feturizer/Test_systems_manuscript/rnas/3mum

>  <Rbt.Executable>
rbdock ($Id: //depot/dev/client3/rdock/2013.1/src/exe/rbdock.cxx#4 $)

>  <Rbt.Library>
libRbt.so (2013.1, Build901 2013/11/27)

>  <Rbt.Parameter_File>
/export/apps/rDock/src/rDock_2013.1_src/data/scripts/dock_solv.prm

>  <Rbt.Receptor>
prm/pocket_docking_3.prm

>  <SCORE>
-40.1562

>  <SCORE.INTER>
-40.1227

>  <SCORE.INTER.CONST>
1

>  <SCORE.INTER.POLAR>
0

>  <SCORE.INTER.ROT>
2

>  <SCORE.INTER.SOLV>
39.7604

>  <SCORE.INTER.VDW>
-44.9353

>  <SCORE.INTER.norm>
-0.872232

>  <SCORE.INTRA>
-0.033535

>  <SCORE.INTRA.DIHEDRAL>
-0.010155

>  <SCORE.INTRA.DIHEDRAL.0>
2.40424

>  <SCORE.INTRA.POLAR>
0

>  <SCORE.INTRA.POLAR.0>
0

>  <SCORE.INTRA.REPUL>
0

>  <SCORE.INTRA.REPUL.0>
0

>  <SCORE.INTRA.SOLV>
0.00805347

>  <SCORE.INTRA.SOLV.lig_0>
-134.169

>  <SCORE.INTRA.VDW>
-0.0324843

>  <SCORE.INTRA.VDW.0>
-2.18386

>  <SCORE.INTRA.norm>
-0.000729022

>  <SCORE.RESTR>
0

>  <SCORE.RESTR.CAVITY>
0

>  <SCORE.RESTR.norm>
0

>  <SCORE.SYSTEM>
0

>  <SCORE.SYSTEM.CONST>
0

>  <SCORE.SYSTEM.DIHEDRAL>
0

>  <SCORE.SYSTEM.SOLV>
0

>  <SCORE.SYSTEM.norm>
0

>  <SCORE.heavy>
46

>  <SCORE.norm>
-0.872961

>  <RMSD>
0.209

$$$$
ligand
 OpenBabel02271912143D
libRbt.so/2013.1/901 2013/11/27
 46 52  0  0  0  0  0  0  0  0999 V2000
   -9.7804    4.9242   15.6221 P   0  0  1  0  0  0  0  0  0  0  0  0
   -5.3558    2.5090   18.6661 P   0  0  2  0  0  0  0  0  0  0  0  0
  -10.5244    3.7165   14.5591 O   0  5  0  0  0  0  0  0  0  0  0  0
  -10.6394    6.4849   15.5468 O   0  0  0  0  0  0  0  0  0  0  0  0
   -9.1629    5.0621   18.1956 C   0  0  0  0  0  0  0  0  0  0  0  0
   -9.7932    4.3520   17.1293 O   0  0  0  0  0  0  0  0  0  0  0  0
   -8.9116    4.0963   19.3378 C   0  0  1  0  0  0  0  0  0  0  0  0
  -10.1360    3.4312   19.6792 O   0  0  0  0  0  0  0  0  0  0  0  0
   -7.9318    2.9894   18.9836 C   0  0  1  0  0  0  0  0  0  0  0  0
   -6.5864    3.3423   19.2972 O   0  0  0  0  0  0  0  0  0  0  0  0
   -8.4207    1.8168   19.8155 C   0  0  1  0  0  0  0  0  0  0  0  0
   -7.8052    1.8406   21.1059 O   0  0  0  0  0  0  0  0  0  0  0  0
   -9.9110    2.0461   19.9852 C   0  0  2  0  0  0  0  0  0  0  0  0
   -6.0112    2.9111   13.5684 C   0  0  1  0  0  0  0  0  0  0  0  0
  -10.6772   -2.7459   17.8307 N   0  0  0  0  0  0  0  0  0  0  0  0
   -9.7569   -2.3589   18.7558 C   0  0  1  0  0  0  0  0  0  0  0  0
   -7.4244    3.3171   13.8772 C   0  0  2  0  0  0  0  0  0  0  0  0
   -8.8910   -3.2873   19.2238 N   0  0  0  0  0  0  0  0  0  0  0  0
   -7.8250    4.2102   12.8365 O   0  0  0  0  0  0  0  0  0  0  0  0
   -7.3417    4.0105   15.2226 C   0  0  2  0  0  0  0  0  0  0  0  0
   -9.6725   -1.0782   19.2241 N   0  0  0  0  0  0  0  0  0  0  0  0
   -8.2184    5.1267   15.2935 O   0  0  0  0  0  0  0  0  0  0  0  0
  -10.5188   -0.1112   18.7880 C   0  0  2  0  0  0  0  0  0  0  0  0
   -5.9021    4.4726   15.3342 C   0  0  2  0  0  0  0  0  0  0  0  0
   -5.1556    3.6479   14.4409 O   0  0  0  0  0  0  0  0  0  0  0  0
  -11.5327   -0.4765   17.7835 C   0  0  1  0  0  0  0  0  0  0  0  0
   -5.3424    4.3304   16.7453 C   0  0  0  0  0  0  0  0  0  0  0  0
   -5.3593    2.9509   17.1178 O   0  0  0  0  0  0  0  0  0  0  0  0
  -11.5745   -1.8739   17.3171 C   0  0  0  0  0  0  0  0  0  0  0  0
  -12.4864   -2.2675   16.3921 O   0  0  0  0  0  0  0  0  0  0  0  0
  -12.2300    0.6326   17.5138 N   0  0  0  0  0  0  0  0  0  0  0  0
  -11.7099    1.6359   18.2797 C   0  0  0  0  0  0  0  0  0  0  0  0
  -10.6864    1.1970   19.0423 N   0  0  1  0  0  0  0  0  0  0  0  0
   -7.3737   -1.8275   11.8196 N   0  0  0  0  0  0  0  0  0  0  0  0
   -5.6135    0.7506   18.8160 O   0  5  0  0  0  0  0  0  0  0  0  0
   -7.7536   -0.5954   11.3832 C   0  0  2  0  0  0  0  0  0  0  0  0
   -8.6111   -0.4986   10.3337 N   0  0  0  0  0  0  0  0  0  0  0  0
   -3.7831    2.9380   19.3665 O   0  0  0  0  0  0  0  0  0  0  0  0
   -7.3001    0.5480   11.9658 N   0  0  0  0  0  0  0  0  0  0  0  0
   -6.4395    0.5162   13.0100 C   0  0  2  0  0  0  0  0  0  0  0  0
   -5.9953   -0.7846   13.5279 C   0  0  2  0  0  0  0  0  0  0  0  0
   -6.5265   -1.9909   12.8578 C   0  0  0  0  0  0  0  0  0  0  0  0
   -6.1754   -3.2348   13.2674 O   0  0  0  0  0  0  0  0  0  0  0  0
   -5.1654   -0.5263   14.5579 N   0  0  0  0  0  0  0  0  0  0  0  0
   -5.0823    0.8316   14.6854 C   0  0  0  0  0  0  0  0  0  0  0  0
   -5.8487    1.4497   13.7583 N   0  0  1  0  0  0  0  0  0  0  0  0
  1  3  1  6  0  0  0
  1  4  2  0  0  0  0
  1  6  1  0  0  0  0
  1 22  1  0  0  0  0
  2 28  1  0  0  0  0
  2 35  1  1  0  0  0
  2 38  2  0  0  0  0
  2 10  1  0  0  0  0
  5  6  1  0  0  0  0
  7  5  1  6  0  0  0
  7  8  1  0  0  0  0
  7  9  1  0  0  0  0
  9 10  1  1  0  0  0
  9 11  1  0  0  0  0
 11 12  1  1  0  0  0
 11 13  1  0  0  0  0
 13  8  1  6  0  0  0
 13 33  1  0  0  0  0
 14 46  1  0  0  0  0
 14 17  1  0  0  0  0
 14 25  1  1  0  0  0
 15 16  1  0  0  0  0
 15 29  1  0  0  0  0
 16 18  1  6  0  0  0
 16 21  1  0  0  0  0
 17 19  1  6  0  0  0
 17 20  1  0  0  0  0
 20 22  1  6  0  0  0
 20 24  1  0  0  0  0
 23 21  1  6  0  0  0
 23 26  1  0  0  0  0
 23 33  1  0  0  0  0
 24 25  1  6  0  0  0
 24 27  1  0  0  0  0
 26 29  1  1  0  0  0
 26 31  1  0  0  0  0
 27 28  1  0  0  0  0
 29 30  2  0  0  0  0
 31 32  1  0  0  0  0
 33 32  1  1  0  0  0
 34 36  1  0  0  0  0
 34 42  1  0  0  0  0
 36 37  1  6  0  0  0
 36 39  1  0  0  0  0
 40 39  1  1  0  0  0
 40 41  1  0  0  0  0
 40 46  1  0  0  0  0
 41 42  1  1  0  0  0
 41 44  1  0  0  0  0
 42 43  2  0  0  0  0
 44 45  1  0  0  0  0
 46 45  1  6  0  0  0
M  CHG  2   3  -1  35  -1
M  END
>  <CHROM.1>
163.24497156,66.53392101,-8.09900299,1.68675249,16.41548627,-2.26835831,-0.97760778
-2.48455164

>  <Name>
ligand

>  <RI>
-1

>  <Rbt.Current_Directory>
/home/itssahil/PROJECTS/Mol_Feturizer/Test_systems_manuscript/rnas/3mum

>  <Rbt.Executable>
rbdock ($Id: //depot/dev/client3/rdock/2013.1/src/exe/rbdock.cxx#4 $)

>  <Rbt.Library>
libRbt.so (2013.1, Build901 2013/11/27)

>  <Rbt.Parameter_File>
/export/apps/rDock/src/rDock_2013.1_src/data/scripts/dock_solv.prm

>  <Rbt.Receptor>
prm/pocket_docking_4.prm

>  <SCORE>
-40.4306

>  <SCORE.INTER>
-40.4116

>  <SCORE.INTER.CONST>
1

>  <SCORE.INTER.POLAR>
0

>  <SCORE.INTER.ROT>
2

>  <SCORE.INTER.SOLV>
38.9815

>  <SCORE.INTER.VDW>
-44.8683

>  <SCORE.INTER.norm>
-0.878514

>  <SCORE.INTRA>
-0.018936

>  <SCORE.INTRA.DIHEDRAL>
0.00162272

>  <SCORE.INTRA.DIHEDRAL.0>
2.40424

>  <SCORE.INTRA.POLAR>
0

>  <SCORE.INTRA.POLAR.0>
0

>  <SCORE.INTRA.REPUL>
0

>  <SCORE.INTRA.REPUL.0>
0

>  <SCORE.INTRA.SOLV>
0.000736569

>  <SCORE.INTRA.SOLV.lig_0>
-134.169

>  <SCORE.INTRA.VDW>
-0.0201156

>  <SCORE.INTRA.VDW.0>
-2.18386

>  <SCORE.INTRA.norm>
-0.000411651

>  <SCORE.RESTR>
0

>  <SCORE.RESTR.CAVITY>
0

>  <SCORE.RESTR.norm>
0

>  <SCORE.SYSTEM>
0

>  <SCORE.SYSTEM.CONST>
0

>  <SCORE.SYSTEM.DIHEDRAL>
0

>  <SCORE.SYSTEM.SOLV>
0

>  <SCORE.SYSTEM.norm>
0

>  <SCORE.heavy>
46

>  <SCORE.norm>
-0.878926

>  <RMSD>
0.211

$$$$
ligand
 OpenBabel02271912143D
libRbt.so/2013.1/901 2013/11/27
 46 52  0  0  0  0  0  0  0  0999 V2000
   -9.7640    4.9269   15.6134 P   0  0  1  0  0  0  0  0  0  0  0  0
   -5.3096    2.5629   18.6540 P   0  0  2  0  0  0  0  0  0  0  0  0
  -10.5142    3.7032   14.5734 O   0  5  0  0  0  0  0  0  0  0  0  0
  -10.6268    6.4847   15.5236 O   0  0  0  0  0  0  0  0  0  0  0  0
   -9.1256    5.1017   18.1796 C   0  0  0  0  0  0  0  0  0  0  0  0
   -9.7632    4.3757   17.1285 O   0  0  0  0  0  0  0  0  0  0  0  0
   -8.8630    4.1523   19.3330 C   0  0  1  0  0  0  0  0  0  0  0  0
  -10.0832    3.4896   19.6935 O   0  0  0  0  0  0  0  0  0  0  0  0
   -7.8839    3.0426   18.9860 C   0  0  1  0  0  0  0  0  0  0  0  0
   -6.5366    3.4024   19.2836 O   0  0  0  0  0  0  0  0  0  0  0  0
   -8.3634    1.8807   19.8381 C   0  0  1  0  0  0  0  0  0  0  0  0
   -7.7375    1.9235   21.1229 O   0  0  0  0  0  0  0  0  0  0  0  0
   -9.8528    2.1094   20.0168 C   0  0  2  0  0  0  0  0  0  0  0  0
   -6.0076    2.8929   13.5568 C   0  0  1  0  0  0  0  0  0  0  0  0
  -10.5110   -2.6680   17.7950 N   0  0  0  0  0  0  0  0  0  0  0  0
   -9.5660   -2.2591   18.6850 C   0  0  1  0  0  0  0  0  0  0  0  0
   -7.4190    3.3004   13.8716 C   0  0  2  0  0  0  0  0  0  0  0  0
   -8.6396   -3.1574   19.0921 N   0  0  0  0  0  0  0  0  0  0  0  0
   -7.8300    4.1782   12.8220 O   0  0  0  0  0  0  0  0  0  0  0  0
   -7.3267    4.0126   15.2065 C   0  0  2  0  0  0  0  0  0  0  0  0
   -9.5152   -0.9856   19.1770 N   0  0  0  0  0  0  0  0  0  0  0  0
   -8.2051    5.1279   15.2692 O   0  0  0  0  0  0  0  0  0  0  0  0
  -10.4221   -0.0484   18.8018 C   0  0  2  0  0  0  0  0  0  0  0  0
   -5.8872    4.4790   15.2999 C   0  0  2  0  0  0  0  0  0  0  0  0
   -5.1464    3.6435   14.4119 O   0  0  0  0  0  0  0  0  0  0  0  0
  -11.4653   -0.4381   17.8372 C   0  0  1  0  0  0  0  0  0  0  0  0
   -5.3157    4.3574   16.7081 C   0  0  0  0  0  0  0  0  0  0  0  0
   -5.3267    2.9832   17.0998 O   0  0  0  0  0  0  0  0  0  0  0  0
  -11.4685   -1.8264   17.3426 C   0  0  0  0  0  0  0  0  0  0  0  0
  -12.4049   -2.2416   16.4522 O   0  0  0  0  0  0  0  0  0  0  0  0
  -12.2219    0.6442   17.6244 N   0  0  0  0  0  0  0  0  0  0  0  0
  -11.7104    1.6540   18.3874 C   0  0  0  0  0  0  0  0  0  0  0  0
  -10.6341    1.2458   19.0922 N   0  0  1  0  0  0  0  0  0  0  0  0
   -7.3621   -1.8721   11.8751 N   0  0  0  0  0  0  0  0  0  0  0  0
   -5.5623    0.8062   18.8304 O   0  5  0  0  0  0  0  0  0  0  0  0
   -7.7468   -0.6469   11.4235 C   0  0  2  0  0  0  0  0  0  0  0  0
   -8.6076   -0.5664   10.3754 N   0  0  0  0  0  0  0  0  0  0  0  0
   -3.7320    3.0046   19.3354 O   0  0  0  0  0  0  0  0  0  0  0  0
   -7.2947    0.5053   11.9895 N   0  0  0  0  0  0  0  0  0  0  0  0
   -6.4309    0.4897   13.0315 C   0  0  2  0  0  0  0  0  0  0  0  0
   -5.9816   -0.8030   13.5652 C   0  0  2  0  0  0  0  0  0  0  0  0
   -6.5115   -2.0194   12.9129 C   0  0  0  0  0  0  0  0  0  0  0  0
   -6.1557   -3.2569   13.3378 O   0  0  0  0  0  0  0  0  0  0  0  0
   -5.1494   -0.5287   14.5892 N   0  0  0  0  0  0  0  0  0  0  0  0
   -5.0697    0.8310   14.6985 C   0  0  0  0  0  0  0  0  0  0  0  0
   -5.8405    1.4347   13.7656 N   0  0  1  0  0  0  0  0  0  0  0  0
  1  3  1  6  0  0  0
  1  4  2  0  0  0  0
  1  6  1  0  0  0  0
  1 22  1  0  0  0  0
  2 28  1  0  0  0  0
  2 35  1  1  0  0  0
  2 38  2  0  0  0  0
  2 10  1  0  0  0  0
  5  6  1  0  0  0  0
  7  5  1  6  0  0  0
  7  8  1  0  0  0  0
  7  9  1  0  0  0  0
  9 10  1  1  0  0  0
  9 11  1  0  0  0  0
 11 12  1  1  0  0  0
 11 13  1  0  0  0  0
 13  8  1  6  0  0  0
 13 33  1  0  0  0  0
 14 46  1  0  0  0  0
 14 17  1  0  0  0  0
 14 25  1  1  0  0  0
 15 16  1  0  0  0  0
 15 29  1  0  0  0  0
 16 18  1  6  0  0  0
 16 21  1  0  0  0  0
 17 19  1  6  0  0  0
 17 20  1  0  0  0  0
 20 22  1  6  0  0  0
 20 24  1  0  0  0  0
 23 21  1  6  0  0  0
 23 26  1  0  0  0  0
 23 33  1  0  0  0  0
 24 25  1  6  0  0  0
 24 27  1  0  0  0  0
 26 29  1  1  0  0  0
 26 31  1  0  0  0  0
 27 28  1  0  0  0  0
 29 30  2  0  0  0  0
 31 32  1  0  0  0  0
 33 32  1  1  0  0  0
 34 36  1  0  0  0  0
 34 42  1  0  0  0  0
 36 37  1  6  0  0  0
 36 39  1  0  0  0  0
 40 39  1  1  0  0  0
 40 41  1  0  0  0  0
 40 46  1  0  0  0  0
 41 42  1  1  0  0  0
 41 44  1  0  0  0  0
 42 43  2  0  0  0  0
 44 45  1  0  0  0  0
 46 45  1  6  0  0  0
M  CHG  2   3  -1  35  -1
M  END
>  <CHROM.1>
159.43028712,66.83886347,-8.05555487,1.70901555,16.42142000,-2.19716152,-0.98288709
-2.49891101

>  <Name>
ligand

>  <RI>
416

>  <Rbt.Current_Directory>
/home/itssahil/PROJECTS/Mol_Feturizer/Test_systems_manuscript/rnas/3mum

>  <Rbt.Executable>
rbdock ($Id: //depot/dev/client3/rdock/2013.1/src/exe/rbdock.cxx#4 $)

>  <Rbt.Library>
libRbt.so (2013.1, Build901 2013/11/27)

>  <Rbt.Parameter_File>
/export/apps/rDock/src/rDock_2013.1_src/data/scripts/dock_solv.prm

>  <Rbt.Receptor>
prm/pocket_docking_2.prm

>  <SCORE>
-40.2904

>  <SCORE.INTER>
-40.3348

>  <SCORE.INTER.CONST>
1

>  <SCORE.INTER.POLAR>
0

>  <SCORE.INTER.ROT>
2

>  <SCORE.INTER.SOLV>
38.4148

>  <SCORE.INTER.VDW>
-44.6281

>  <SCORE.INTER.norm>
-0.876843

>  <SCORE.INTRA>
0.0443651

>  <SCORE.INTRA.DIHEDRAL>
0.00163823

>  <SCORE.INTRA.DIHEDRAL.0>
2.40424

>  <SCORE.INTRA.POLAR>
0

>  <SCORE.INTRA.POLAR.0>
0

>  <SCORE.INTRA.REPUL>
0

>  <SCORE.INTRA.REPUL.0>
0

>  <SCORE.INTRA.SOLV>
0.00219528

>  <SCORE.INTRA.SOLV.lig_0>
-134.169

>  <SCORE.INTRA.VDW>
0.0424484

>  <SCORE.INTRA.VDW.0>
-2.18386

>  <SCORE.INTRA.norm>
0.00096446

>  <SCORE.RESTR>
0

>  <SCORE.RESTR.CAVITY>
0

>  <SCORE.RESTR.norm>
0

>  <SCORE.SYSTEM>
0

>  <SCORE.SYSTEM.CONST>
0

>  <SCORE.SYSTEM.DIHEDRAL>
0

>  <SCORE.SYSTEM.SOLV>
0

>  <SCORE.SYSTEM.norm>
0

>  <SCORE.heavy>
46

>  <SCORE.norm>
-0.875878

>  <RMSD>
0.213

$$$$
ligand
 OpenBabel02271912143D
libRbt.so/2013.1/901 2013/11/27
 46 52  0  0  0  0  0  0  0  0999 V2000
   -9.7526    4.9089   15.6396 P   0  0  1  0  0  0  0  0  0  0  0  0
   -5.3228    2.4585   18.6476 P   0  0  2  0  0  0  0  0  0  0  0  0
  -10.5132    3.7079   14.5809 O   0  5  0  0  0  0  0  0  0  0  0  0
  -10.6008    6.4758   15.5725 O   0  0  0  0  0  0  0  0  0  0  0  0
   -9.1147    5.0395   18.2085 C   0  0  0  0  0  0  0  0  0  0  0  0
   -9.7581    4.3352   17.1463 O   0  0  0  0  0  0  0  0  0  0  0  0
   -8.8618    4.0705   19.3478 C   0  0  1  0  0  0  0  0  0  0  0  0
  -10.0884    3.4140   19.6976 O   0  0  0  0  0  0  0  0  0  0  0  0
   -7.8928    2.9571   18.9850 C   0  0  1  0  0  0  0  0  0  0  0  0
   -6.5425    3.2999   19.2889 O   0  0  0  0  0  0  0  0  0  0  0  0
   -8.3838    1.7871   19.8193 C   0  0  1  0  0  0  0  0  0  0  0  0
   -7.7585    1.8050   21.1050 O   0  0  0  0  0  0  0  0  0  0  0  0
   -9.8711    2.0269   20.0004 C   0  0  2  0  0  0  0  0  0  0  0  0
   -6.0135    2.8711   13.5554 C   0  0  1  0  0  0  0  0  0  0  0  0
  -10.6721   -2.7514   17.8282 N   0  0  0  0  0  0  0  0  0  0  0  0
   -9.7398   -2.3712   18.7439 C   0  0  1  0  0  0  0  0  0  0  0  0
   -7.4214    3.2870   13.8753 C   0  0  2  0  0  0  0  0  0  0  0  0
   -8.8696   -3.3036   19.1957 N   0  0  0  0  0  0  0  0  0  0  0  0
   -7.8233    4.1841   12.8386 O   0  0  0  0  0  0  0  0  0  0  0  0
   -7.3236    3.9782   15.2207 C   0  0  2  0  0  0  0  0  0  0  0  0
   -9.6473   -1.0934   19.2185 N   0  0  0  0  0  0  0  0  0  0  0  0
   -8.1917    5.1006   15.2995 O   0  0  0  0  0  0  0  0  0  0  0  0
  -10.4974   -0.1225   18.7986 C   0  0  2  0  0  0  0  0  0  0  0  0
   -5.8799    4.4298   15.3221 C   0  0  2  0  0  0  0  0  0  0  0  0
   -5.1461    3.6008   14.4223 O   0  0  0  0  0  0  0  0  0  0  0  0
  -11.5244   -0.4804   17.8048 C   0  0  1  0  0  0  0  0  0  0  0  0
   -5.3107    4.2819   16.7287 C   0  0  0  0  0  0  0  0  0  0  0  0
   -5.3347    2.9022   17.0998 O   0  0  0  0  0  0  0  0  0  0  0  0
  -11.5744   -1.8750   17.3309 C   0  0  0  0  0  0  0  0  0  0  0  0
  -12.4985   -2.2619   16.4152 O   0  0  0  0  0  0  0  0  0  0  0  0
  -12.2232    0.6314   17.5503 N   0  0  0  0  0  0  0  0  0  0  0  0
  -11.6919    1.6294   18.3153 C   0  0  0  0  0  0  0  0  0  0  0  0
  -10.6597    1.1845   19.0624 N   0  0  1  0  0  0  0  0  0  0  0  0
   -7.4196   -1.8555   11.8089 N   0  0  0  0  0  0  0  0  0  0  0  0
   -5.5919    0.7019   18.7975 O   0  5  0  0  0  0  0  0  0  0  0  0
   -7.7935   -0.6202   11.3762 C   0  0  2  0  0  0  0  0  0  0  0  0
   -8.6565   -0.5160   10.3320 N   0  0  0  0  0  0  0  0  0  0  0  0
   -3.7418    2.8754   19.3366 O   0  0  0  0  0  0  0  0  0  0  0  0
   -7.3285    0.5192   11.9576 N   0  0  0  0  0  0  0  0  0  0  0  0
   -6.4619    0.4800   12.9966 C   0  0  2  0  0  0  0  0  0  0  0  0
   -6.0237   -0.8246   13.5101 C   0  0  2  0  0  0  0  0  0  0  0  0
   -6.5674   -2.0261   12.8418 C   0  0  0  0  0  0  0  0  0  0  0  0
   -6.2225   -3.2731   13.2477 O   0  0  0  0  0  0  0  0  0  0  0  0
   -5.1859   -0.5733   14.5355 N   0  0  0  0  0  0  0  0  0  0  0  0
   -5.0926    0.7838   14.6642 C   0  0  0  0  0  0  0  0  0  0  0  0
   -5.8601    1.4084   13.7425 N   0  0  1  0  0  0  0  0  0  0  0  0
  1  3  1  6  0  0  0
  1  4  2  0  0  0  0
  1  6  1  0  0  0  0
  1 22  1  0  0  0  0
  2 28  1  0  0  0  0
  2 35  1  1  0  0  0
  2 38  2  0  0  0  0
  2 10  1  0  0  0  0
  5  6  1  0  0  0  0
  7  5  1  6  0  0  0
  7  8  1  0  0  0  0
  7  9  1  0  0  0  0
  9 10  1  1  0  0  0
  9 11  1  0  0  0  0
 11 12  1  1  0  0  0
 11 13  1  0  0  0  0
 13  8  1  6  0  0  0
 13 33  1  0  0  0  0
 14 46  1  0  0  0  0
 14 17  1  0  0  0  0
 14 25  1  1  0  0  0
 15 16  1  0  0  0  0
 15 29  1  0  0  0  0
 16 18  1  6  0  0  0
 16 21  1  0  0  0  0
 17 19  1  6  0  0  0
 17 20  1  0  0  0  0
 20 22  1  6  0  0  0
 20 24  1  0  0  0  0
 23 21  1  6  0  0  0
 23 26  1  0  0  0  0
 23 33  1  0  0  0  0
 24 25  1  6  0  0  0
 24 27  1  0  0  0  0
 26 29  1  1  0  0  0
 26 31  1  0  0  0  0
 27 28  1  0  0  0  0
 29 30  2  0  0  0  0
 31 32  1  0  0  0  0
 33 32  1  1  0  0  0
 34 36  1  0  0  0  0
 34 42  1  0  0  0  0
 36 37  1  6  0  0  0
 36 39  1  0  0  0  0
 40 39  1  1  0  0  0
 40 41  1  0  0  0  0
 40 46  1  0  0  0  0
 41 42  1  1  0  0  0
 41 44  1  0  0  0  0
 42 43  2  0  0  0  0
 44 45  1  0  0  0  0
 46 45  1  6  0  0  0
M  CHG  2   3  -1  35  -1
M  END
>  <CHROM.1>
162.74018509,66.62294133,-8.08651075,1.65920658,16.41450055,-2.24092286,-0.97893325
-2.46923587

>  <Name>
ligand

>  <RI>
416

>  <Rbt.Current_Directory>
/home/itssahil/PROJECTS/Mol_Feturizer/Test_systems_manuscript/rnas/3mum

>  <Rbt.Executable>
rbdock ($Id: //depot/dev/client3/rdock/2013.1/src/exe/rbdock.cxx#4 $)

>  <Rbt.Library>
libRbt.so (2013.1, Build901 2013/11/27)

>  <Rbt.Parameter_File>
/export/apps/rDock/src/rDock_2013.1_src/data/scripts/dock_solv.prm

>  <Rbt.Receptor>
prm/pocket_docking_3.prm

>  <SCORE>
-40.3599

>  <SCORE.INTER>
-40.344

>  <SCORE.INTER.CONST>
1

>  <SCORE.INTER.POLAR>
0

>  <SCORE.INTER.ROT>
2

>  <SCORE.INTER.SOLV>
39.1734

>  <SCORE.INTER.VDW>
-44.8871

>  <SCORE.INTER.norm>
-0.877044

>  <SCORE.INTRA>
-0.0158972

>  <SCORE.INTRA.DIHEDRAL>
0.00168479

>  <SCORE.INTRA.DIHEDRAL.0>
2.40424

>  <SCORE.INTRA.POLAR>
0

>  <SCORE.INTRA.POLAR.0>
0

>  <SCORE.INTRA.REPUL>
0

>  <SCORE.INTRA.REPUL.0>
0

>  <SCORE.INTRA.SOLV>
0.000851844

>  <SCORE.INTRA.SOLV.lig_0>
-134.169

>  <SCORE.INTRA.VDW>
-0.0171655

>  <SCORE.INTRA.VDW.0>
-2.18386

>  <SCORE.INTRA.norm>
-0.000345591

>  <SCORE.RESTR>
0

>  <SCORE.RESTR.CAVITY>
0

>  <SCORE.RESTR.norm>
0

>  <SCORE.SYSTEM>
0

>  <SCORE.SYSTEM.CONST>
0

>  <SCORE.SYSTEM.DIHEDRAL>
0

>  <SCORE.SYSTEM.SOLV>
0

>  <SCORE.SYSTEM.norm>
0

>  <SCORE.heavy>
46

>  <SCORE.norm>
-0.87739

>  <RMSD>
0.214

$$$$
ligand
 OpenBabel02271912143D
libRbt.so/2013.1/901 2013/11/27
 46 52  0  0  0  0  0  0  0  0999 V2000
   -9.7347    4.9266   15.6660 P   0  0  1  0  0  0  0  0  0  0  0  0
   -5.3291    2.4447   18.6837 P   0  0  2  0  0  0  0  0  0  0  0  0
  -10.4884    3.7361   14.5906 O   0  5  0  0  0  0  0  0  0  0  0  0
  -10.5812    6.4948   15.6071 O   0  0  0  0  0  0  0  0  0  0  0  0
   -9.1158    5.0328   18.2406 C   0  0  0  0  0  0  0  0  0  0  0  0
   -9.7518    4.3389   17.1672 O   0  0  0  0  0  0  0  0  0  0  0  0
   -8.8720    4.0531   19.3727 C   0  0  1  0  0  0  0  0  0  0  0  0
  -10.1017    3.3943   19.7073 O   0  0  0  0  0  0  0  0  0  0  0  0
   -7.9012    2.9423   19.0067 C   0  0  1  0  0  0  0  0  0  0  0  0
   -6.5529    3.2811   19.3237 O   0  0  0  0  0  0  0  0  0  0  0  0
   -8.3992    1.7650   19.8265 C   0  0  1  0  0  0  0  0  0  0  0  0
   -7.7834    1.7704   21.1169 O   0  0  0  0  0  0  0  0  0  0  0  0
   -9.8877    2.0044   19.9988 C   0  0  2  0  0  0  0  0  0  0  0  0
   -5.9819    2.9052   13.5906 C   0  0  1  0  0  0  0  0  0  0  0  0
  -10.8763   -2.8109   17.9917 N   0  0  0  0  0  0  0  0  0  0  0  0
   -9.9817   -2.4492   18.9515 C   0  0  1  0  0  0  0  0  0  0  0  0
   -7.3918    3.3192   13.9039 C   0  0  2  0  0  0  0  0  0  0  0  0
   -9.2103   -3.4142   19.5032 N   0  0  0  0  0  0  0  0  0  0  0  0
   -7.7854    4.2262   12.8727 O   0  0  0  0  0  0  0  0  0  0  0  0
   -7.3034    3.9978   15.2564 C   0  0  2  0  0  0  0  0  0  0  0  0
   -9.8316   -1.1585   19.3740 N   0  0  0  0  0  0  0  0  0  0  0  0
   -8.1712    5.1201   15.3392 O   0  0  0  0  0  0  0  0  0  0  0  0
  -10.5824   -0.1549   18.8537 C   0  0  2  0  0  0  0  0  0  0  0  0
   -5.8601    4.4472   15.3726 C   0  0  2  0  0  0  0  0  0  0  0  0
   -5.1203    3.6260   14.4706 O   0  0  0  0  0  0  0  0  0  0  0  0
  -11.5644   -0.4919   17.8085 C   0  0  1  0  0  0  0  0  0  0  0  0
   -5.3015    4.2859   16.7820 C   0  0  0  0  0  0  0  0  0  0  0  0
   -5.3292    2.9027   17.1400 O   0  0  0  0  0  0  0  0  0  0  0  0
  -11.6806   -1.9017   17.3949 C   0  0  0  0  0  0  0  0  0  0  0  0
  -12.5674   -2.2706   16.4360 O   0  0  0  0  0  0  0  0  0  0  0  0
  -12.1657    0.6501   17.4573 N   0  0  0  0  0  0  0  0  0  0  0  0
  -11.6173    1.6468   18.2118 C   0  0  0  0  0  0  0  0  0  0  0  0
  -10.6699    1.1714   19.0473 N   0  0  1  0  0  0  0  0  0  0  0  0
   -7.4064   -1.8041   11.8122 N   0  0  0  0  0  0  0  0  0  0  0  0
   -5.6007    0.6870   18.8153 O   0  5  0  0  0  0  0  0  0  0  0  0
   -7.7794   -0.5645   11.3913 C   0  0  2  0  0  0  0  0  0  0  0  0
   -8.6467   -0.4500   10.3518 N   0  0  0  0  0  0  0  0  0  0  0  0
   -3.7529    2.8539   19.3882 O   0  0  0  0  0  0  0  0  0  0  0  0
   -7.3093    0.5691   11.9797 N   0  0  0  0  0  0  0  0  0  0  0  0
   -6.4382    0.5196   13.0145 C   0  0  2  0  0  0  0  0  0  0  0  0
   -6.0007   -0.7900   13.5156 C   0  0  2  0  0  0  0  0  0  0  0  0
   -6.5500   -1.9850   12.8400 C   0  0  0  0  0  0  0  0  0  0  0  0
   -6.2062   -3.2359   13.2343 O   0  0  0  0  0  0  0  0  0  0  0  0
   -5.1578   -0.5489   14.5392 N   0  0  0  0  0  0  0  0  0  0  0  0
   -5.0608    0.8069   14.6784 C   0  0  0  0  0  0  0  0  0  0  0  0
   -5.8310    1.4407   13.7652 N   0  0  1  0  0  0  0  0  0  0  0  0
  1  3  1  6  0  0  0
  1  4  2  0  0  0  0
  1  6  1  0  0  0  0
  1 22  1  0  0  0  0
  2 28  1  0  0  0  0
  2 35  1  1  0  0  0
  2 38  2  0  0  0  0
  2 10  1  0  0  0  0
  5  6  1  0  0  0  0
  7  5  1  6  0  0  0
  7  8  1  0  0  0  0
  7  9  1  0  0  0  0
  9 10  1  1  0  0  0
  9 11  1  0  0  0  0
 11 12  1  1  0  0  0
 11 13  1  0  0  0  0
 13  8  1  6  0  0  0
 13 33  1  0  0  0  0
 14 46  1  0  0  0  0
 14 17  1  0  0  0  0
 14 25  1  1  0  0  0
 15 16  1  0  0  0  0
 15 29  1  0  0  0  0
 16 18  1  6  0  0  0
 16 21  1  0  0  0  0
 17 19  1  6  0  0  0
 17 20  1  0  0  0  0
 20 22  1  6  0  0  0
 20 24  1  0  0  0  0
 23 21  1  6  0  0  0
 23 26  1  0  0  0  0
 23 33  1  0  0  0  0
 24 25  1  6  0  0  0
 24 27  1  0  0  0  0
 26 29  1  1  0  0  0
 26 31  1  0  0  0  0
 27 28  1  0  0  0  0
 29 30  2  0  0  0  0
 31 32  1  0  0  0  0
 33 32  1  1  0  0  0
 34 36  1  0  0  0  0
 34 42  1  0  0  0  0
 36 37  1  6  0  0  0
 36 39  1  0  0  0  0
 40 39  1  1  0  0  0
 40 41  1  0  0  0  0
 40 46  1  0  0  0  0
 41 42  1  1  0  0  0
 41 44  1  0  0  0  0
 42 43  2  0  0  0  0
 44 45  1  0  0  0  0
 46 45  1  6  0  0  0
M  CHG  2   3  -1  35  -1
M  END
>  <CHROM.1>
168.83748723,65.93853184,-8.10152750,1.66218741,16.44860663,-2.37280976,-0.97205300
-2.45200155

>  <Name>
ligand

>  <RI>
-1

>  <Rbt.Current_Directory>
/home/itssahil/PROJECTS/Mol_Feturizer/Test_systems_manuscript/rnas/3mum

>  <Rbt.Executable>
rbdock ($Id: //depot/dev/client3/rdock/2013.1/src/exe/rbdock.cxx#4 $)

>  <Rbt.Library>
libRbt.so (2013.1, Build901 2013/11/27)

>  <Rbt.Parameter_File>
/export/apps/rDock/src/rDock_2013.1_src/data/scripts/dock_solv.prm

>  <Rbt.Receptor>
prm/pocket_docking_4.prm

>  <SCORE>
-40.2371

>  <SCORE.INTER>
-40.2355

>  <SCORE.INTER.CONST>
1

>  <SCORE.INTER.POLAR>
0

>  <SCORE.INTER.ROT>
2

>  <SCORE.INTER.SOLV>
39.6421

>  <SCORE.INTER.VDW>
-44.971

>  <SCORE.INTER.norm>
-0.874684

>  <SCORE.INTRA>
-0.00164814

>  <SCORE.INTRA.DIHEDRAL>
0.00158567

>  <SCORE.INTRA.DIHEDRAL.0>
2.40424

>  <SCORE.INTRA.POLAR>
0

>  <SCORE.INTRA.POLAR.0>
0

>  <SCORE.INTRA.REPUL>
0

>  <SCORE.INTRA.REPUL.0>
0

>  <SCORE.INTRA.SOLV>
-0.00107965

>  <SCORE.INTRA.SOLV.lig_0>
-134.169

>  <SCORE.INTRA.VDW>
-0.00190115

>  <SCORE.INTRA.VDW.0>
-2.18386

>  <SCORE.INTRA.norm>
-3.58291e-05

>  <SCORE.RESTR>
0

>  <SCORE.RESTR.CAVITY>
0

>  <SCORE.RESTR.norm>
0

>  <SCORE.SYSTEM>
0

>  <SCORE.SYSTEM.CONST>
0

>  <SCORE.SYSTEM.DIHEDRAL>
0

>  <SCORE.SYSTEM.SOLV>
0

>  <SCORE.SYSTEM.norm>
0

>  <SCORE.heavy>
46

>  <SCORE.norm>
-0.87472

>  <RMSD>
0.217

$$$$
ligand
 OpenBabel02271912143D
libRbt.so/2013.1/901 2013/11/27
 46 52  0  0  0  0  0  0  0  0999 V2000
   -9.7446    4.9099   15.6373 P   0  0  1  0  0  0  0  0  0  0  0  0
   -5.3351    2.4609   18.6761 P   0  0  2  0  0  0  0  0  0  0  0  0
  -10.4954    3.7095   14.5710 O   0  5  0  0  0  0  0  0  0  0  0  0
  -10.5943    6.4758   15.5659 O   0  0  0  0  0  0  0  0  0  0  0  0
   -9.1269    5.0375   18.2113 C   0  0  0  0  0  0  0  0  0  0  0  0
   -9.7611    4.3340   17.1431 O   0  0  0  0  0  0  0  0  0  0  0  0
   -8.8816    4.0673   19.3511 C   0  0  1  0  0  0  0  0  0  0  0  0
  -10.1100    3.4086   19.6904 O   0  0  0  0  0  0  0  0  0  0  0  0
   -7.9083    2.9556   18.9943 C   0  0  1  0  0  0  0  0  0  0  0  0
   -6.5608    3.2997   19.3091 O   0  0  0  0  0  0  0  0  0  0  0  0
   -8.4043    1.7838   19.8230 C   0  0  1  0  0  0  0  0  0  0  0  0
   -7.7890    1.8006   21.1136 O   0  0  0  0  0  0  0  0  0  0  0  0
   -9.8933    2.0214   19.9929 C   0  0  2  0  0  0  0  0  0  0  0  0
   -5.9868    2.8800   13.5793 C   0  0  1  0  0  0  0  0  0  0  0  0
  -10.6777   -2.7571   17.8151 N   0  0  0  0  0  0  0  0  0  0  0  0
   -9.7539   -2.3774   18.7398 C   0  0  1  0  0  0  0  0  0  0  0  0
   -7.3976    3.2935   13.8888 C   0  0  2  0  0  0  0  0  0  0  0  0
   -8.8892   -3.3105   19.2005 N   0  0  0  0  0  0  0  0  0  0  0  0
   -7.7927    4.1917   12.8504 O   0  0  0  0  0  0  0  0  0  0  0  0
   -7.3112    3.9830   15.2360 C   0  0  2  0  0  0  0  0  0  0  0  0
   -9.6649   -1.0995   19.2147 N   0  0  0  0  0  0  0  0  0  0  0  0
   -8.1813    5.1041   15.3097 O   0  0  0  0  0  0  0  0  0  0  0  0
  -10.5099   -0.1279   18.7860 C   0  0  2  0  0  0  0  0  0  0  0  0
   -5.8689    4.4362   15.3492 C   0  0  2  0  0  0  0  0  0  0  0  0
   -5.1270    3.6095   14.4539 O   0  0  0  0  0  0  0  0  0  0  0  0
  -11.5274   -0.4852   17.7823 C   0  0  1  0  0  0  0  0  0  0  0  0
   -5.3105    4.2871   16.7600 C   0  0  0  0  0  0  0  0  0  0  0  0
   -5.3355    2.9067   17.1289 O   0  0  0  0  0  0  0  0  0  0  0  0
  -11.5742   -1.8800   17.3086 C   0  0  0  0  0  0  0  0  0  0  0  0
  -12.4896   -2.2664   16.3840 O   0  0  0  0  0  0  0  0  0  0  0  0
  -12.2225    0.6271   17.5204 N   0  0  0  0  0  0  0  0  0  0  0  0
  -11.6978    1.6249   18.2902 C   0  0  0  0  0  0  0  0  0  0  0  0
  -10.6734    1.1794   19.0476 N   0  0  1  0  0  0  0  0  0  0  0  0
   -7.3937   -1.8460   11.8317 N   0  0  0  0  0  0  0  0  0  0  0  0
   -5.6031    0.7036   18.8214 O   0  5  0  0  0  0  0  0  0  0  0  0
   -7.7683   -0.6105   11.4001 C   0  0  2  0  0  0  0  0  0  0  0  0
   -8.6324   -0.5059   10.3568 N   0  0  0  0  0  0  0  0  0  0  0  0
   -3.7600    2.8788   19.3780 O   0  0  0  0  0  0  0  0  0  0  0  0
   -7.3030    0.5287   11.9815 N   0  0  0  0  0  0  0  0  0  0  0  0
   -6.4353    0.4891   13.0197 C   0  0  2  0  0  0  0  0  0  0  0  0
   -5.9964   -0.8157   13.5321 C   0  0  2  0  0  0  0  0  0  0  0  0
   -6.5405   -2.0170   12.8636 C   0  0  0  0  0  0  0  0  0  0  0  0
   -6.1950   -3.2641   13.2685 O   0  0  0  0  0  0  0  0  0  0  0  0
   -5.1576   -0.5649   14.5567 N   0  0  0  0  0  0  0  0  0  0  0  0
   -5.0643    0.7922   14.6861 C   0  0  0  0  0  0  0  0  0  0  0  0
   -5.8329    1.4172   13.7655 N   0  0  1  0  0  0  0  0  0  0  0  0
  1  3  1  6  0  0  0
  1  4  2  0  0  0  0
  1  6  1  0  0  0  0
  1 22  1  0  0  0  0
  2 28  1  0  0  0  0
  2 35  1  1  0  0  0
  2 38  2  0  0  0  0
  2 10  1  0  0  0  0
  5  6  1  0  0  0  0
  7  5  1  6  0  0  0
  7  8  1  0  0  0  0
  7  9  1  0  0  0  0
  9 10  1  1  0  0  0
  9 11  1  0  0  0  0
 11 12  1  1  0  0  0
 11 13  1  0  0  0  0
 13  8  1  6  0  0  0
 13 33  1  0  0  0  0
 14 46  1  0  0  0  0
 14 17  1  0  0  0  0
 14 25  1  1  0  0  0
 15 16  1  0  0  0  0
 15 29  1  0  0  0  0
 16 18  1  6  0  0  0
 16 21  1  0  0  0  0
 17 19  1  6  0  0  0
 17 20  1  0  0  0  0
 20 22  1  6  0  0  0
 20 24  1  0  0  0  0
 23 21  1  6  0  0  0
 23 26  1  0  0  0  0
 23 33  1  0  0  0  0
 24 25  1  6  0  0  0
 24 27  1  0  0  0  0
 26 29  1  1  0  0  0
 26 31  1  0  0  0  0
 27 28  1  0  0  0  0
 29 30  2  0  0  0  0
 31 32  1  0  0  0  0
 33 32  1  1  0  0  0
 34 36  1  0  0  0  0
 34 42  1  0  0  0  0
 36 37  1  6  0  0  0
 36 39  1  0  0  0  0
 40 39  1  1  0  0  0
 40 41  1  0  0  0  0
 40 46  1  0  0  0  0
 41 42  1  1  0  0  0
 41 44  1  0  0  0  0
 42 43  2  0  0  0  0
 44 45  1  0  0  0  0
 46 45  1  6  0  0  0
M  CHG  2   3  -1  35  -1
M  END
>  <CHROM.1>
162.94739451,66.11366487,-8.08332118,1.66096192,16.42306656,-2.25139032,-0.97340444
-2.47374639

>  <Name>
ligand

>  <RI>
416

>  <Rbt.Current_Directory>
/home/itssahil/PROJECTS/Mol_Feturizer/Test_systems_manuscript/rnas/3mum

>  <Rbt.Executable>
rbdock ($Id: //depot/dev/client3/rdock/2013.1/src/exe/rbdock.cxx#4 $)

>  <Rbt.Library>
libRbt.so (2013.1, Build901 2013/11/27)

>  <Rbt.Parameter_File>
/export/apps/rDock/src/rDock_2013.1_src/data/scripts/dock_solv.prm

>  <Rbt.Receptor>
prm/pocket_docking_2.prm

>  <SCORE>
-40.3936

>  <SCORE.INTER>
-40.3811

>  <SCORE.INTER.CONST>
1

>  <SCORE.INTER.POLAR>
0

>  <SCORE.INTER.ROT>
2

>  <SCORE.INTER.SOLV>
39.0416

>  <SCORE.INTER.VDW>
-44.868

>  <SCORE.INTER.norm>
-0.877851

>  <SCORE.INTRA>
-0.0124697

>  <SCORE.INTRA.DIHEDRAL>
0.00100906

>  <SCORE.INTRA.DIHEDRAL.0>
2.40424

>  <SCORE.INTRA.POLAR>
0

>  <SCORE.INTRA.POLAR.0>
0

>  <SCORE.INTRA.REPUL>
0

>  <SCORE.INTRA.REPUL.0>
0

>  <SCORE.INTRA.SOLV>
0.00146331

>  <SCORE.INTRA.SOLV.lig_0>
-134.169

>  <SCORE.INTRA.VDW>
-0.0137059

>  <SCORE.INTRA.VDW.0>
-2.18386

>  <SCORE.INTRA.norm>
-0.000271081

>  <SCORE.RESTR>
0

>  <SCORE.RESTR.CAVITY>
0

>  <SCORE.RESTR.norm>
0

>  <SCORE.SYSTEM>
0

>  <SCORE.SYSTEM.CONST>
0

>  <SCORE.SYSTEM.DIHEDRAL>
0

>  <SCORE.SYSTEM.SOLV>
0

>  <SCORE.SYSTEM.norm>
0

>  <SCORE.heavy>
46

>  <SCORE.norm>
-0.878122

>  <RMSD>
0.220

$$$$
ligand
 OpenBabel02271912143D
libRbt.so/2013.1/901 2013/11/27
 46 52  0  0  0  0  0  0  0  0999 V2000
   -5.2698    2.5950   18.6877 P   0  0  1  0  0  0  0  0  0  0  0  0
   -9.7573    4.8541   15.6160 P   0  0  2  0  0  0  0  0  0  0  0  0
   -5.4040    0.8291   18.7607 O   0  5  0  0  0  0  0  0  0  0  0  0
   -3.7744    3.1736   19.4676 O   0  0  0  0  0  0  0  0  0  0  0  0
   -5.3169    4.4229   16.7694 C   0  0  0  0  0  0  0  0  0  0  0  0
   -5.3018    3.0441   17.1396 O   0  0  0  0  0  0  0  0  0  0  0  0
   -5.8280    4.5358   15.3457 C   0  0  1  0  0  0  0  0  0  0  0  0
   -5.0585    3.6769   14.4925 O   0  0  0  0  0  0  0  0  0  0  0  0
   -7.2699    4.0816   15.1877 C   0  0  1  0  0  0  0  0  0  0  0  0
   -8.1928    5.1556   15.3545 O   0  0  0  0  0  0  0  0  0  0  0  0
   -7.3015    3.5186   13.7777 C   0  0  1  0  0  0  0  0  0  0  0  0
   -7.6086    4.5556   12.8424 O   0  0  0  0  0  0  0  0  0  0  0  0
   -5.8888    3.0314   13.5144 C   0  0  2  0  0  0  0  0  0  0  0  0
   -9.8135    1.9652   19.8856 C   0  0  1  0  0  0  0  0  0  0  0  0
   -7.3982   -1.7870   11.8718 N   0  0  0  0  0  0  0  0  0  0  0  0
   -7.7561   -0.5656   11.3896 C   0  0  1  0  0  0  0  0  0  0  0  0
   -8.3567    1.7115   19.6196 C   0  0  2  0  0  0  0  0  0  0  0  0
   -8.6164   -0.5168   10.3464 N   0  0  0  0  0  0  0  0  0  0  0  0
   -7.7381    1.5328   20.8949 O   0  0  0  0  0  0  0  0  0  0  0  0
   -7.8681    2.9643   18.9200 C   0  0  2  0  0  0  0  0  0  0  0  0
   -7.2863    0.6042   11.9163 N   0  0  0  0  0  0  0  0  0  0  0  0
   -6.5548    3.3182   19.3317 O   0  0  0  0  0  0  0  0  0  0  0  0
   -6.4203    0.6090   12.9612 C   0  0  2  0  0  0  0  0  0  0  0  0
   -8.8495    4.0455   19.3279 C   0  0  2  0  0  0  0  0  0  0  0  0
  -10.0386    3.3652   19.7263 O   0  0  0  0  0  0  0  0  0  0  0  0
   -6.0028   -0.6872   13.5234 C   0  0  1  0  0  0  0  0  0  0  0  0
   -9.1721    5.0110   18.1929 C   0  0  0  0  0  0  0  0  0  0  0  0
   -9.7826    4.2870   17.1228 O   0  0  0  0  0  0  0  0  0  0  0  0
   -6.5433   -1.9145   12.9122 C   0  0  0  0  0  0  0  0  0  0  0  0
   -6.1946   -3.1364   13.3891 O   0  0  0  0  0  0  0  0  0  0  0  0
   -5.1656   -0.4217   14.5323 N   0  0  0  0  0  0  0  0  0  0  0  0
   -5.0507    0.9358   14.6185 C   0  0  0  0  0  0  0  0  0  0  0  0
   -5.7992    1.5566   13.6826 N   0  0  1  0  0  0  0  0  0  0  0  0
  -10.6452   -2.7720   17.8274 N   0  0  0  0  0  0  0  0  0  0  0  0
  -10.3860    3.6340   14.4772 O   0  5  0  0  0  0  0  0  0  0  0  0
   -9.7044   -2.3640   18.7226 C   0  0  2  0  0  0  0  0  0  0  0  0
   -8.8128   -3.2680   19.2063 N   0  0  0  0  0  0  0  0  0  0  0  0
  -10.7745    6.3062   15.5480 O   0  0  0  0  0  0  0  0  0  0  0  0
   -9.6276   -1.0747   19.1514 N   0  0  0  0  0  0  0  0  0  0  0  0
  -10.4916   -0.1304   18.7109 C   0  0  2  0  0  0  0  0  0  0  0  0
  -11.5279   -0.5095   17.7414 C   0  0  2  0  0  0  0  0  0  0  0  0
  -11.5575   -1.9229   17.3086 C   0  0  0  0  0  0  0  0  0  0  0  0
  -12.4761   -2.3655   16.4148 O   0  0  0  0  0  0  0  0  0  0  0  0
  -12.2297    0.6088   17.4706 N   0  0  0  0  0  0  0  0  0  0  0  0
  -11.6880    1.6210   18.2115 C   0  0  0  0  0  0  0  0  0  0  0  0
  -10.6469    1.1732   18.9495 N   0  0  1  0  0  0  0  0  0  0  0  0
  1  3  1  1  0  0  0
  1  4  2  0  0  0  0
  1  6  1  0  0  0  0
  1 22  1  0  0  0  0
  2 28  1  0  0  0  0
  2 35  1  6  0  0  0
  2 38  2  0  0  0  0
  2 10  1  0  0  0  0
  5  6  1  0  0  0  0
  7  5  1  1  0  0  0
  7  8  1  0  0  0  0
  7  9  1  0  0  0  0
  9 10  1  6  0  0  0
  9 11  1  0  0  0  0
 11 12  1  6  0  0  0
 11 13  1  0  0  0  0
 13  8  1  1  0  0  0
 13 33  1  0  0  0  0
 14 46  1  0  0  0  0
 14 17  1  0  0  0  0
 14 25  1  6  0  0  0
 15 16  1  0  0  0  0
 15 29  1  0  0  0  0
 16 18  1  1  0  0  0
 16 21  1  0  0  0  0
 17 19  1  1  0  0  0
 17 20  1  0  0  0  0
 20 22  1  1  0  0  0
 20 24  1  0  0  0  0
 23 21  1  1  0  0  0
 23 26  1  0  0  0  0
 23 33  1  0  0  0  0
 24 25  1  6  0  0  0
 24 27  1  0  0  0  0
 26 29  1  6  0  0  0
 26 31  1  0  0  0  0
 27 28  1  0  0  0  0
 29 30  2  0  0  0  0
 31 32  1  0  0  0  0
 33 32  1  6  0  0  0
 34 36  1  0  0  0  0
 34 42  1  0  0  0  0
 36 37  1  1  0  0  0
 36 39  1  0  0  0  0
 40 39  1  6  0  0  0
 40 41  1  0  0  0  0
 40 46  1  0  0  0  0
 41 42  1  6  0  0  0
 41 44  1  0  0  0  0
 42 43  2  0  0  0  0
 44 45  1  0  0  0  0
 46 45  1  1  0  0  0
M  CHG  2   3  -1  35  -1
M  END
>  <CHROM.1>
-179.70485027,49.17707200,-8.05409064,1.70398209,16.39722415,-2.32953348
-0.96395832,-2.42363662

>  <Name>
ligand

>  <RI>
-1

>  <Rbt.Current_Directory>
/home/itssahil/PROJECTS/Mol_Feturizer/Test_systems_manuscript/rnas/3mum

>  <Rbt.Executable>
rbdock ($Id: //depot/dev/client3/rdock/2013.1/src/exe/rbdock.cxx#4 $)

>  <Rbt.Library>
libRbt.so (2013.1, Build901 2013/11/27)

>  <Rbt.Parameter_File>
/export/apps/rDock/src/rDock_2013.1_src/data/scripts/dock_solv.prm

>  <Rbt.Receptor>
prm/pocket_docking_5.prm

>  <SCORE>
-40.3701

>  <SCORE.INTER>
-40.4494

>  <SCORE.INTER.CONST>
1

>  <SCORE.INTER.POLAR>
0

>  <SCORE.INTER.ROT>
2

>  <SCORE.INTER.SOLV>
38.8347

>  <SCORE.INTER.VDW>
-44.8445

>  <SCORE.INTER.norm>
-0.879335

>  <SCORE.INTRA>
0.0793607

>  <SCORE.INTRA.DIHEDRAL>
-0.0195286

>  <SCORE.INTRA.DIHEDRAL.0>
2.40424

>  <SCORE.INTRA.POLAR>
0

>  <SCORE.INTRA.POLAR.0>
0

>  <SCORE.INTRA.REPUL>
0

>  <SCORE.INTRA.REPUL.0>
0

>  <SCORE.INTRA.SOLV>
0.0179864

>  <SCORE.INTRA.SOLV.lig_0>
-134.169

>  <SCORE.INTRA.VDW>
0.0801318

>  <SCORE.INTRA.VDW.0>
-2.18386

>  <SCORE.INTRA.norm>
0.00172523

>  <SCORE.RESTR>
0

>  <SCORE.RESTR.CAVITY>
0

>  <SCORE.RESTR.norm>
0

>  <SCORE.SYSTEM>
0

>  <SCORE.SYSTEM.CONST>
0

>  <SCORE.SYSTEM.DIHEDRAL>
0

>  <SCORE.SYSTEM.SOLV>
0

>  <SCORE.SYSTEM.norm>
0

>  <SCORE.heavy>
46

>  <SCORE.norm>
-0.87761

>  <RMSD>
0.220

$$$$
ligand
 OpenBabel02271912143D
libRbt.so/2013.1/901 2013/11/27
 46 52  0  0  0  0  0  0  0  0999 V2000
   -9.8106    4.9059   15.6280 P   0  0  1  0  0  0  0  0  0  0  0  0
   -5.3988    2.5442   18.7319 P   0  0  2  0  0  0  0  0  0  0  0  0
  -10.5252    3.6896   14.5548 O   0  5  0  0  0  0  0  0  0  0  0  0
  -10.6875    6.4560   15.5412 O   0  0  0  0  0  0  0  0  0  0  0  0
   -9.2300    5.0505   18.2097 C   0  0  0  0  0  0  0  0  0  0  0  0
   -9.8370    4.3331   17.1348 O   0  0  0  0  0  0  0  0  0  0  0  0
   -8.9826    4.0875   19.3552 C   0  0  1  0  0  0  0  0  0  0  0  0
  -10.2033    3.4074   19.6796 O   0  0  0  0  0  0  0  0  0  0  0  0
   -7.9846    2.9929   19.0142 C   0  0  1  0  0  0  0  0  0  0  0  0
   -6.6479    3.3621   19.3462 O   0  0  0  0  0  0  0  0  0  0  0  0
   -8.4703    1.8141   19.8392 C   0  0  1  0  0  0  0  0  0  0  0  0
   -7.8729    1.8450   21.1378 O   0  0  0  0  0  0  0  0  0  0  0  0
   -9.9656    2.0251   19.9885 C   0  0  2  0  0  0  0  0  0  0  0  0
   -5.9893    2.9398   13.6258 C   0  0  1  0  0  0  0  0  0  0  0  0
  -10.8162   -2.8262   18.0052 N   0  0  0  0  0  0  0  0  0  0  0  0
   -9.9406   -2.4364   18.9714 C   0  0  1  0  0  0  0  0  0  0  0  0
   -7.4114    3.3283   13.9152 C   0  0  2  0  0  0  0  0  0  0  0  0
   -9.1516   -3.3786   19.5375 N   0  0  0  0  0  0  0  0  0  0  0  0
   -7.8087    4.2168   12.8693 O   0  0  0  0  0  0  0  0  0  0  0  0
   -7.3556    4.0223   15.2617 C   0  0  2  0  0  0  0  0  0  0  0  0
   -9.8262   -1.1397   19.3863 N   0  0  0  0  0  0  0  0  0  0  0  0
   -8.2468    5.1276   15.3209 O   0  0  0  0  0  0  0  0  0  0  0  0
  -10.5958   -0.1582   18.8515 C   0  0  2  0  0  0  0  0  0  0  0  0
   -5.9234    4.5019   15.3931 C   0  0  2  0  0  0  0  0  0  0  0  0
   -5.1548    3.6867   14.5100 O   0  0  0  0  0  0  0  0  0  0  0  0
  -11.5586   -0.5260   17.7989 C   0  0  1  0  0  0  0  0  0  0  0  0
   -5.3814    4.3661   16.8117 C   0  0  0  0  0  0  0  0  0  0  0  0
   -5.3865    2.9864   17.1837 O   0  0  0  0  0  0  0  0  0  0  0  0
  -11.6362   -1.9410   17.3940 C   0  0  0  0  0  0  0  0  0  0  0  0
  -12.5039   -2.3379   16.4288 O   0  0  0  0  0  0  0  0  0  0  0  0
  -12.1838    0.5986   17.4336 N   0  0  0  0  0  0  0  0  0  0  0  0
  -11.6676    1.6135   18.1867 C   0  0  0  0  0  0  0  0  0  0  0  0
  -10.7175    1.1669   19.0349 N   0  0  1  0  0  0  0  0  0  0  0  0
   -7.3717   -1.8161   11.9407 N   0  0  0  0  0  0  0  0  0  0  0  0
   -5.6369    0.7827   18.8780 O   0  5  0  0  0  0  0  0  0  0  0  0
   -7.7726   -0.5887   11.5100 C   0  0  2  0  0  0  0  0  0  0  0  0
   -8.6615   -0.5026   10.4860 N   0  0  0  0  0  0  0  0  0  0  0  0
   -3.8411    2.9922   19.4537 O   0  0  0  0  0  0  0  0  0  0  0  0
   -7.3096    0.5604   12.0734 N   0  0  0  0  0  0  0  0  0  0  0  0
   -6.4181    0.5394   13.0917 C   0  0  2  0  0  0  0  0  0  0  0  0
   -5.9500   -0.7560   13.6022 C   0  0  2  0  0  0  0  0  0  0  0  0
   -6.4929   -1.9689   12.9540 C   0  0  0  0  0  0  0  0  0  0  0  0
   -6.1215   -3.2085   13.3589 O   0  0  0  0  0  0  0  0  0  0  0  0
   -5.0916   -0.4871   14.6058 N   0  0  0  0  0  0  0  0  0  0  0  0
   -5.0138    0.8719   14.7244 C   0  0  0  0  0  0  0  0  0  0  0  0
   -5.8115    1.4804   13.8176 N   0  0  1  0  0  0  0  0  0  0  0  0
  1  3  1  6  0  0  0
  1  4  2  0  0  0  0
  1  6  1  0  0  0  0
  1 22  1  0  0  0  0
  2 28  1  0  0  0  0
  2 35  1  1  0  0  0
  2 38  2  0  0  0  0
  2 10  1  0  0  0  0
  5  6  1  0  0  0  0
  7  5  1  6  0  0  0
  7  8  1  0  0  0  0
  7  9  1  0  0  0  0
  9 10  1  1  0  0  0
  9 11  1  0  0  0  0
 11 12  1  1  0  0  0
 11 13  1  0  0  0  0
 13  8  1  6  0  0  0
 13 33  1  0  0  0  0
 14 46  1  0  0  0  0
 14 17  1  0  0  0  0
 14 25  1  1  0  0  0
 15 16  1  0  0  0  0
 15 29  1  0  0  0  0
 16 18  1  6  0  0  0
 16 21  1  0  0  0  0
 17 19  1  6  0  0  0
 17 20  1  0  0  0  0
 20 22  1  6  0  0  0
 20 24  1  0  0  0  0
 23 21  1  6  0  0  0
 23 26  1  0  0  0  0
 23 33  1  0  0  0  0
 24 25  1  6  0  0  0
 24 27  1  0  0  0  0
 26 29  1  1  0  0  0
 26 31  1  0  0  0  0
 27 28  1  0  0  0  0
 29 30  2  0  0  0  0
 31 32  1  0  0  0  0
 33 32  1  1  0  0  0
 34 36  1  0  0  0  0
 34 42  1  0  0  0  0
 36 37  1  6  0  0  0
 36 39  1  0  0  0  0
 40 39  1  1  0  0  0
 40 41  1  0  0  0  0
 40 46  1  0  0  0  0
 41 42  1  1  0  0  0
 41 44  1  0  0  0  0
 42 43  2  0  0  0  0
 44 45  1  0  0  0  0
 46 45  1  6  0  0  0
M  CHG  2   3  -1  35  -1
M  END
>  <CHROM.1>
168.46094628,64.00769196,-8.13049496,1.68337453,16.47257339,-2.40673674,-0.97276013
-2.49023421

>  <Name>
ligand

>  <RI>
-1

>  <Rbt.Current_Directory>
/home/itssahil/PROJECTS/Mol_Feturizer/Test_systems_manuscript/rnas/3mum

>  <Rbt.Executable>
rbdock ($Id: //depot/dev/client3/rdock/2013.1/src/exe/rbdock.cxx#4 $)

>  <Rbt.Library>
libRbt.so (2013.1, Build901 2013/11/27)

>  <Rbt.Parameter_File>
/export/apps/rDock/src/rDock_2013.1_src/data/scripts/dock_solv.prm

>  <Rbt.Receptor>
prm/pocket_docking_6.prm

>  <SCORE>
-40.246

>  <SCORE.INTER>
-40.2495

>  <SCORE.INTER.CONST>
1

>  <SCORE.INTER.POLAR>
0

>  <SCORE.INTER.ROT>
2

>  <SCORE.INTER.SOLV>
39.2898

>  <SCORE.INTER.VDW>
-44.8629

>  <SCORE.INTER.norm>
-0.874989

>  <SCORE.INTRA>
0.00354003

>  <SCORE.INTRA.DIHEDRAL>
-0.00118142

>  <SCORE.INTRA.DIHEDRAL.0>
2.40424

>  <SCORE.INTRA.POLAR>
0

>  <SCORE.INTRA.POLAR.0>
0

>  <SCORE.INTRA.REPUL>
0

>  <SCORE.INTRA.REPUL.0>
0

>  <SCORE.INTRA.SOLV>
0.00172669

>  <SCORE.INTRA.SOLV.lig_0>
-134.169

>  <SCORE.INTRA.VDW>
0.00326739

>  <SCORE.INTRA.VDW.0>
-2.18386

>  <SCORE.INTRA.norm>
7.69571e-05

>  <SCORE.RESTR>
0

>  <SCORE.RESTR.CAVITY>
0

>  <SCORE.RESTR.norm>
0

>  <SCORE.SYSTEM>
0

>  <SCORE.SYSTEM.CONST>
0

>  <SCORE.SYSTEM.DIHEDRAL>
0

>  <SCORE.SYSTEM.SOLV>
0

>  <SCORE.SYSTEM.norm>
0

>  <SCORE.heavy>
46

>  <SCORE.norm>
-0.874912

>  <RMSD>
0.221

$$$$
ligand
 OpenBabel02271912143D
libRbt.so/2013.1/901 2013/11/27
 46 52  0  0  0  0  0  0  0  0999 V2000
   -5.2904    2.6148   18.6265 P   0  0  1  0  0  0  0  0  0  0  0  0
   -9.7983    4.8331   15.5550 P   0  0  2  0  0  0  0  0  0  0  0  0
   -5.4149    0.8486   18.7094 O   0  5  0  0  0  0  0  0  0  0  0  0
   -3.7960    3.2057   19.3991 O   0  0  0  0  0  0  0  0  0  0  0  0
   -5.3526    4.4320   16.6984 C   0  0  0  0  0  0  0  0  0  0  0  0
   -5.3290    3.0553   17.0761 O   0  0  0  0  0  0  0  0  0  0  0  0
   -5.8681    4.5345   15.2756 C   0  0  1  0  0  0  0  0  0  0  0  0
   -5.0964    3.6751   14.4249 O   0  0  0  0  0  0  0  0  0  0  0  0
   -7.3080    4.0717   15.1240 C   0  0  1  0  0  0  0  0  0  0  0  0
   -8.2363    5.1416   15.2876 O   0  0  0  0  0  0  0  0  0  0  0  0
   -7.3405    3.5009   13.7172 C   0  0  1  0  0  0  0  0  0  0  0  0
   -7.6557    4.5311   12.7772 O   0  0  0  0  0  0  0  0  0  0  0  0
   -5.9259    3.0198   13.4526 C   0  0  2  0  0  0  0  0  0  0  0  0
   -9.8273    1.9671   19.8403 C   0  0  1  0  0  0  0  0  0  0  0  0
   -7.4588   -1.8139   11.8783 N   0  0  0  0  0  0  0  0  0  0  0  0
   -7.8317   -0.5968   11.3965 C   0  0  1  0  0  0  0  0  0  0  0  0
   -8.3699    1.7198   19.5717 C   0  0  2  0  0  0  0  0  0  0  0  0
   -8.7165   -0.5576   10.3736 N   0  0  0  0  0  0  0  0  0  0  0  0
   -7.7469    1.5513   20.8462 O   0  0  0  0  0  0  0  0  0  0  0  0
   -7.8900    2.9715   18.8640 C   0  0  2  0  0  0  0  0  0  0  0  0
   -7.3532    0.5779   11.9042 N   0  0  0  0  0  0  0  0  0  0  0  0
   -6.5775    3.3345   19.2701 O   0  0  0  0  0  0  0  0  0  0  0  0
   -6.4629    0.5922   12.9283 C   0  0  2  0  0  0  0  0  0  0  0  0
   -8.8761    4.0495   19.2687 C   0  0  2  0  0  0  0  0  0  0  0  0
  -10.0604    3.3650   19.6740 O   0  0  0  0  0  0  0  0  0  0  0  0
   -6.0283   -0.6989   13.4893 C   0  0  1  0  0  0  0  0  0  0  0  0
   -9.2070    5.0071   18.1294 C   0  0  0  0  0  0  0  0  0  0  0  0
   -9.8165    4.2740   17.0650 O   0  0  0  0  0  0  0  0  0  0  0  0
   -6.5793   -1.9319   12.8992 C   0  0  0  0  0  0  0  0  0  0  0  0
   -6.2158   -3.1495   13.3759 O   0  0  0  0  0  0  0  0  0  0  0  0
   -5.1685   -0.4242   14.4763 N   0  0  0  0  0  0  0  0  0  0  0  0
   -5.0556    0.9342   14.5507 C   0  0  0  0  0  0  0  0  0  0  0  0
   -5.8279    1.5465   13.6285 N   0  0  1  0  0  0  0  0  0  0  0  0
  -10.6599   -2.7923   17.8345 N   0  0  0  0  0  0  0  0  0  0  0  0
  -10.4236    3.6035   14.4246 O   0  5  0  0  0  0  0  0  0  0  0  0
   -9.7212   -2.3754   18.7278 C   0  0  2  0  0  0  0  0  0  0  0  0
   -8.8325   -3.2750   19.2247 N   0  0  0  0  0  0  0  0  0  0  0  0
  -10.8236    6.2793   15.4819 O   0  0  0  0  0  0  0  0  0  0  0  0
   -9.6438   -1.0813   19.1419 N   0  0  0  0  0  0  0  0  0  0  0  0
  -10.5050   -0.1409   18.6878 C   0  0  2  0  0  0  0  0  0  0  0  0
  -11.5388   -0.5296   17.7195 C   0  0  2  0  0  0  0  0  0  0  0  0
  -11.5692   -1.9480   17.3030 C   0  0  0  0  0  0  0  0  0  0  0  0
  -12.4857   -2.3995   16.4115 O   0  0  0  0  0  0  0  0  0  0  0  0
  -12.2380    0.5865   17.4336 N   0  0  0  0  0  0  0  0  0  0  0  0
  -11.6971    1.6064   18.1644 C   0  0  0  0  0  0  0  0  0  0  0  0
  -10.6591    1.1656   18.9108 N   0  0  1  0  0  0  0  0  0  0  0  0
  1  3  1  1  0  0  0
  1  4  2  0  0  0  0
  1  6  1  0  0  0  0
  1 22  1  0  0  0  0
  2 28  1  0  0  0  0
  2 35  1  6  0  0  0
  2 38  2  0  0  0  0
  2 10  1  0  0  0  0
  5  6  1  0  0  0  0
  7  5  1  1  0  0  0
  7  8  1  0  0  0  0
  7  9  1  0  0  0  0
  9 10  1  6  0  0  0
  9 11  1  0  0  0  0
 11 12  1  6  0  0  0
 11 13  1  0  0  0  0
 13  8  1  1  0  0  0
 13 33  1  0  0  0  0
 14 46  1  0  0  0  0
 14 17  1  0  0  0  0
 14 25  1  6  0  0  0
 15 16  1  0  0  0  0
 15 29  1  0  0  0  0
 16 18  1  1  0  0  0
 16 21  1  0  0  0  0
 17 19  1  1  0  0  0
 17 20  1  0  0  0  0
 20 22  1  1  0  0  0
 20 24  1  0  0  0  0
 23 21  1  1  0  0  0
 23 26  1  0  0  0  0
 23 33  1  0  0  0  0
 24 25  1  6  0  0  0
 24 27  1  0  0  0  0
 26 29  1  6  0  0  0
 26 31  1  0  0  0  0
 27 28  1  0  0  0  0
 29 30  2  0  0  0  0
 31 32  1  0  0  0  0
 33 32  1  6  0  0  0
 34 36  1  0  0  0  0
 34 42  1  0  0  0  0
 36 37  1  1  0  0  0
 36 39  1  0  0  0  0
 40 39  1  6  0  0  0
 40 41  1  0  0  0  0
 40 46  1  0  0  0  0
 41 42  1  6  0  0  0
 41 44  1  0  0  0  0
 42 43  2  0  0  0  0
 44 45  1  0  0  0  0
 46 45  1  1  0  0  0
M  CHG  2   3  -1  35  -1
M  END
>  <CHROM.1>
179.09309706,49.80553323,-8.08322438,1.69589559,16.35532507,-2.35474114,-0.96913198
-2.42608737

>  <Name>
ligand

>  <RI>
416

>  <Rbt.Current_Directory>
/home/itssahil/PROJECTS/Mol_Feturizer/Test_systems_manuscript/rnas/3mum

>  <Rbt.Executable>
rbdock ($Id: //depot/dev/client3/rdock/2013.1/src/exe/rbdock.cxx#4 $)

>  <Rbt.Library>
libRbt.so (2013.1, Build901 2013/11/27)

>  <Rbt.Parameter_File>
/export/apps/rDock/src/rDock_2013.1_src/data/scripts/dock_solv.prm

>  <Rbt.Receptor>
prm/pocket_docking_2.prm

>  <SCORE>
-40.2425

>  <SCORE.INTER>
-40.3357

>  <SCORE.INTER.CONST>
1

>  <SCORE.INTER.POLAR>
0

>  <SCORE.INTER.ROT>
2

>  <SCORE.INTER.SOLV>
39.2797

>  <SCORE.INTER.VDW>
-44.917

>  <SCORE.INTER.norm>
-0.876862

>  <SCORE.INTRA>
0.0931224

>  <SCORE.INTRA.DIHEDRAL>
-0.0189938

>  <SCORE.INTRA.DIHEDRAL.0>
2.40424

>  <SCORE.INTRA.POLAR>
0

>  <SCORE.INTRA.POLAR.0>
0

>  <SCORE.INTRA.REPUL>
0

>  <SCORE.INTRA.REPUL.0>
0

>  <SCORE.INTRA.SOLV>
0.0175913

>  <SCORE.INTRA.SOLV.lig_0>
-134.169

>  <SCORE.INTRA.VDW>
0.0938237

>  <SCORE.INTRA.VDW.0>
-2.18386

>  <SCORE.INTRA.norm>
0.0020244

>  <SCORE.RESTR>
0

>  <SCORE.RESTR.CAVITY>
0

>  <SCORE.RESTR.norm>
0

>  <SCORE.SYSTEM>
0

>  <SCORE.SYSTEM.CONST>
0

>  <SCORE.SYSTEM.DIHEDRAL>
0

>  <SCORE.SYSTEM.SOLV>
0

>  <SCORE.SYSTEM.norm>
0

>  <SCORE.heavy>
46

>  <SCORE.norm>
-0.874838

>  <RMSD>
0.222

$$$$
ligand
 OpenBabel02271912143D
libRbt.so/2013.1/901 2013/11/27
 46 52  0  0  0  0  0  0  0  0999 V2000
   -9.8449    4.8857   15.5998 P   0  0  1  0  0  0  0  0  0  0  0  0
   -5.3370    2.7070   18.6996 P   0  0  2  0  0  0  0  0  0  0  0  0
  -10.4956    3.6477   14.5109 O   0  5  0  0  0  0  0  0  0  0  0  0
  -10.7951    6.3926   15.5248 O   0  0  0  0  0  0  0  0  0  0  0  0
   -9.2825    5.0312   18.1855 C   0  0  0  0  0  0  0  0  0  0  0  0
   -9.8497    4.2967   17.1006 O   0  0  0  0  0  0  0  0  0  0  0  0
   -8.9936    4.0693   19.3222 C   0  0  1  0  0  0  0  0  0  0  0  0
  -10.1814    3.3279   19.6340 O   0  0  0  0  0  0  0  0  0  0  0  0
   -7.9426    3.0277   18.9746 C   0  0  1  0  0  0  0  0  0  0  0  0
   -6.6267    3.4573   19.3165 O   0  0  0  0  0  0  0  0  0  0  0  0
   -8.3743    1.8183   19.7852 C   0  0  1  0  0  0  0  0  0  0  0  0
   -7.7844    1.8644   21.0869 O   0  0  0  0  0  0  0  0  0  0  0  0
   -9.8786    1.9555   19.9298 C   0  0  2  0  0  0  0  0  0  0  0  0
   -5.9251    3.1269   13.5951 C   0  0  1  0  0  0  0  0  0  0  0  0
  -10.7318   -2.9631   18.1209 N   0  0  0  0  0  0  0  0  0  0  0  0
   -9.9184   -2.5501   19.1309 C   0  0  1  0  0  0  0  0  0  0  0  0
   -7.3655    3.4435   13.8820 C   0  0  2  0  0  0  0  0  0  0  0  0
   -9.2035   -3.4844   19.7992 N   0  0  0  0  0  0  0  0  0  0  0  0
   -7.8008    4.3227   12.8434 O   0  0  0  0  0  0  0  0  0  0  0  0
   -7.3487    4.1253   15.2358 C   0  0  2  0  0  0  0  0  0  0  0  0
   -9.7944   -1.2380   19.4911 N   0  0  0  0  0  0  0  0  0  0  0  0
   -8.2923    5.1857   15.3021 O   0  0  0  0  0  0  0  0  0  0  0  0
  -10.4911   -0.2634   18.8537 C   0  0  2  0  0  0  0  0  0  0  0  0
   -5.9418    4.6719   15.3786 C   0  0  2  0  0  0  0  0  0  0  0  0
   -5.1311    3.9040   14.4907 O   0  0  0  0  0  0  0  0  0  0  0  0
  -11.3843   -0.6563   17.7500 C   0  0  1  0  0  0  0  0  0  0  0  0
   -5.3997    4.5476   16.7982 C   0  0  0  0  0  0  0  0  0  0  0  0
   -5.3398    3.1654   17.1560 O   0  0  0  0  0  0  0  0  0  0  0  0
  -11.4761   -2.0870   17.4082 C   0  0  0  0  0  0  0  0  0  0  0  0
  -12.2819   -2.5072   16.4001 O   0  0  0  0  0  0  0  0  0  0  0  0
  -11.9451    0.4656   17.2854 N   0  0  0  0  0  0  0  0  0  0  0  0
  -11.4545    1.5020   18.0262 C   0  0  0  0  0  0  0  0  0  0  0  0
  -10.5844    1.0720   18.9641 N   0  0  1  0  0  0  0  0  0  0  0  0
   -7.3355   -1.6864   12.1083 N   0  0  0  0  0  0  0  0  0  0  0  0
   -5.4905    0.9346   18.8265 O   0  5  0  0  0  0  0  0  0  0  0  0
   -7.8243   -0.4766   11.7205 C   0  0  2  0  0  0  0  0  0  0  0  0
   -8.8285   -0.4287   10.8066 N   0  0  0  0  0  0  0  0  0  0  0  0
   -3.8058    3.2219   19.4331 O   0  0  0  0  0  0  0  0  0  0  0  0
   -7.3373    0.6920   12.2199 N   0  0  0  0  0  0  0  0  0  0  0  0
   -6.3332    0.7092   13.1276 C   0  0  2  0  0  0  0  0  0  0  0  0
   -5.7663   -0.5656   13.5871 C   0  0  2  0  0  0  0  0  0  0  0  0
   -6.3404   -1.8014   13.0132 C   0  0  0  0  0  0  0  0  0  0  0  0
   -5.8836   -3.0246   13.3786 O   0  0  0  0  0  0  0  0  0  0  0  0
   -4.8065   -0.2600   14.4825 N   0  0  0  0  0  0  0  0  0  0  0  0
   -4.7605    1.1019   14.5838 C   0  0  0  0  0  0  0  0  0  0  0  0
   -5.6779    1.6760   13.7728 N   0  0  1  0  0  0  0  0  0  0  0  0
  1  3  1  6  0  0  0
  1  4  2  0  0  0  0
  1  6  1  0  0  0  0
  1 22  1  0  0  0  0
  2 28  1  0  0  0  0
  2 35  1  1  0  0  0
  2 38  2  0  0  0  0
  2 10  1  0  0  0  0
  5  6  1  0  0  0  0
  7  5  1  6  0  0  0
  7  8  1  0  0  0  0
  7  9  1  0  0  0  0
  9 10  1  1  0  0  0
  9 11  1  0  0  0  0
 11 12  1  1  0  0  0
 11 13  1  0  0  0  0
 13  8  1  6  0  0  0
 13 33  1  0  0  0  0
 14 46  1  0  0  0  0
 14 17  1  0  0  0  0
 14 25  1  1  0  0  0
 15 16  1  0  0  0  0
 15 29  1  0  0  0  0
 16 18  1  6  0  0  0
 16 21  1  0  0  0  0
 17 19  1  6  0  0  0
 17 20  1  0  0  0  0
 20 22  1  6  0  0  0
 20 24  1  0  0  0  0
 23 21  1  6  0  0  0
 23 26  1  0  0  0  0
 23 33  1  0  0  0  0
 24 25  1  6  0  0  0
 24 27  1  0  0  0  0
 26 29  1  1  0  0  0
 26 31  1  0  0  0  0
 27 28  1  0  0  0  0
 29 30  2  0  0  0  0
 31 32  1  0  0  0  0
 33 32  1  1  0  0  0
 34 36  1  0  0  0  0
 34 42  1  0  0  0  0
 36 37  1  6  0  0  0
 36 39  1  0  0  0  0
 40 39  1  1  0  0  0
 40 41  1  0  0  0  0
 40 46  1  0  0  0  0
 41 42  1  1  0  0  0
 41 44  1  0  0  0  0
 42 43  2  0  0  0  0
 44 45  1  0  0  0  0
 46 45  1  6  0  0  0
M  CHG  2   3  -1  35  -1
M  END
>  <CHROM.1>
175.36639530,56.94862657,-8.07047593,1.73196207,16.47131847,-0.38191753,0.98885514
0.64384270

>  <Name>
ligand

>  <RI>
-1

>  <Rbt.Current_Directory>
/home/itssahil/PROJECTS/Mol_Feturizer/Test_systems_manuscript/rnas/3mum

>  <Rbt.Executable>
rbdock ($Id: //depot/dev/client3/rdock/2013.1/src/exe/rbdock.cxx#4 $)

>  <Rbt.Library>
libRbt.so (2013.1, Build901 2013/11/27)

>  <Rbt.Parameter_File>
/export/apps/rDock/src/rDock_2013.1_src/data/scripts/dock_solv.prm

>  <Rbt.Receptor>
prm/pocket_docking_5.prm

>  <SCORE>
-39.1321

>  <SCORE.INTER>
-39.1352

>  <SCORE.INTER.CONST>
1

>  <SCORE.INTER.POLAR>
0

>  <SCORE.INTER.ROT>
2

>  <SCORE.INTER.SOLV>
39.5125

>  <SCORE.INTER.VDW>
-44.1943

>  <SCORE.INTER.norm>
-0.850765

>  <SCORE.INTRA>
0.00305848

>  <SCORE.INTRA.DIHEDRAL>
-0.010131

>  <SCORE.INTRA.DIHEDRAL.0>
2.40424

>  <SCORE.INTRA.POLAR>
0

>  <SCORE.INTRA.POLAR.0>
0

>  <SCORE.INTRA.REPUL>
0

>  <SCORE.INTRA.REPUL.0>
0

>  <SCORE.INTRA.SOLV>
0.00893169

>  <SCORE.INTRA.SOLV.lig_0>
-134.169

>  <SCORE.INTRA.VDW>
0.00365814

>  <SCORE.INTRA.VDW.0>
-2.18386

>  <SCORE.INTRA.norm>
6.64887e-05

>  <SCORE.RESTR>
0

>  <SCORE.RESTR.CAVITY>
0

>  <SCORE.RESTR.norm>
0

>  <SCORE.SYSTEM>
0

>  <SCORE.SYSTEM.CONST>
0

>  <SCORE.SYSTEM.DIHEDRAL>
0

>  <SCORE.SYSTEM.SOLV>
0

>  <SCORE.SYSTEM.norm>
0

>  <SCORE.heavy>
46

>  <SCORE.norm>
-0.850698

>  <RMSD>
0.222

$$$$
ligand
 OpenBabel02271912143D
libRbt.so/2013.1/901 2013/11/27
 46 52  0  0  0  0  0  0  0  0999 V2000
   -5.2212    2.6232   18.6012 P   0  0  1  0  0  0  0  0  0  0  0  0
   -9.7651    4.7966   15.5508 P   0  0  2  0  0  0  0  0  0  0  0  0
   -5.3223    0.8552   18.6760 O   0  5  0  0  0  0  0  0  0  0  0  0
   -3.7329    3.2300   19.3732 O   0  0  0  0  0  0  0  0  0  0  0  0
   -5.3118    4.4486   16.6820 C   0  0  0  0  0  0  0  0  0  0  0  0
   -5.2693    3.0706   17.0530 O   0  0  0  0  0  0  0  0  0  0  0  0
   -5.8320    4.5511   15.2609 C   0  0  1  0  0  0  0  0  0  0  0  0
   -5.0510    3.7059   14.4043 O   0  0  0  0  0  0  0  0  0  0  0  0
   -7.2660    4.0700   15.1104 C   0  0  1  0  0  0  0  0  0  0  0  0
   -8.2079    5.1269   15.2812 O   0  0  0  0  0  0  0  0  0  0  0  0
   -7.2943    3.5056   13.7010 C   0  0  1  0  0  0  0  0  0  0  0  0
   -7.6253    4.5361   12.7666 O   0  0  0  0  0  0  0  0  0  0  0  0
   -5.8742    3.0444   13.4308 C   0  0  2  0  0  0  0  0  0  0  0  0
   -9.7463    1.9101   19.8223 C   0  0  1  0  0  0  0  0  0  0  0  0
   -7.5904   -1.7937   12.0745 N   0  0  0  0  0  0  0  0  0  0  0  0
   -8.0184   -0.5781   11.6367 C   0  0  1  0  0  0  0  0  0  0  0  0
   -8.2865    1.6833   19.5492 C   0  0  2  0  0  0  0  0  0  0  0  0
   -9.0211   -0.5419   10.7290 N   0  0  0  0  0  0  0  0  0  0  0  0
   -7.6582    1.5170   20.8215 O   0  0  0  0  0  0  0  0  0  0  0  0
   -7.8247    2.9445   18.8464 C   0  0  2  0  0  0  0  0  0  0  0  0
   -7.4809    0.5980   12.0776 N   0  0  0  0  0  0  0  0  0  0  0  0
   -6.5161    3.3229   19.2512 O   0  0  0  0  0  0  0  0  0  0  0  0
   -6.4726    0.6154   12.9857 C   0  0  2  0  0  0  0  0  0  0  0  0
   -8.8239    4.0076   19.2585 C   0  0  2  0  0  0  0  0  0  0  0  0
   -9.9981    3.3057   19.6633 O   0  0  0  0  0  0  0  0  0  0  0  0
   -5.9737   -0.6740   13.4947 C   0  0  1  0  0  0  0  0  0  0  0  0
   -9.1700    4.9662   18.1246 C   0  0  0  0  0  0  0  0  0  0  0  0
   -9.7724    4.2302   17.0581 O   0  0  0  0  0  0  0  0  0  0  0  0
   -6.5933   -1.9087   12.9811 C   0  0  0  0  0  0  0  0  0  0  0  0
   -6.1751   -3.1248   13.4149 O   0  0  0  0  0  0  0  0  0  0  0  0
   -4.9999   -0.3964   14.3686 N   0  0  0  0  0  0  0  0  0  0  0  0
   -4.8780    0.9622   14.4232 C   0  0  0  0  0  0  0  0  0  0  0  0
   -5.7564    1.5717   13.5994 N   0  0  1  0  0  0  0  0  0  0  0  0
  -10.8329   -2.9200   18.1319 N   0  0  0  0  0  0  0  0  0  0  0  0
  -10.3768    3.5643   14.4159 O   0  5  0  0  0  0  0  0  0  0  0  0
   -9.9342   -2.5058   19.0666 C   0  0  2  0  0  0  0  0  0  0  0  0
   -9.1695   -3.4286   19.7065 N   0  0  0  0  0  0  0  0  0  0  0  0
  -10.8095    6.2295   15.4870 O   0  0  0  0  0  0  0  0  0  0  0  0
   -9.7764   -1.1915   19.3831 N   0  0  0  0  0  0  0  0  0  0  0  0
  -10.5136   -0.2267   18.7850 C   0  0  2  0  0  0  0  0  0  0  0  0
  -11.4984   -0.6117   17.7654 C   0  0  2  0  0  0  0  0  0  0  0  0
  -11.6203   -2.0533   17.4602 C   0  0  0  0  0  0  0  0  0  0  0  0
  -12.5001   -2.5035   16.5319 O   0  0  0  0  0  0  0  0  0  0  0  0
  -12.0727    0.5288   17.3343 N   0  0  0  0  0  0  0  0  0  0  0  0
  -11.5034    1.5603   18.0265 C   0  0  0  0  0  0  0  0  0  0  0  0
  -10.5697    1.1022   18.8909 N   0  0  1  0  0  0  0  0  0  0  0  0
  1  3  1  1  0  0  0
  1  4  2  0  0  0  0
  1  6  1  0  0  0  0
  1 22  1  0  0  0  0
  2 28  1  0  0  0  0
  2 35  1  6  0  0  0
  2 38  2  0  0  0  0
  2 10  1  0  0  0  0
  5  6  1  0  0  0  0
  7  5  1  1  0  0  0
  7  8  1  0  0  0  0
  7  9  1  0  0  0  0
  9 10  1  6  0  0  0
  9 11  1  0  0  0  0
 11 12  1  6  0  0  0
 11 13  1  0  0  0  0
 13  8  1  1  0  0  0
 13 33  1  0  0  0  0
 14 46  1  0  0  0  0
 14 17  1  0  0  0  0
 14 25  1  6  0  0  0
 15 16  1  0  0  0  0
 15 29  1  0  0  0  0
 16 18  1  1  0  0  0
 16 21  1  0  0  0  0
 17 19  1  1  0  0  0
 17 20  1  0  0  0  0
 20 22  1  1  0  0  0
 20 24  1  0  0  0  0
 23 21  1  1  0  0  0
 23 26  1  0  0  0  0
 23 33  1  0  0  0  0
 24 25  1  6  0  0  0
 24 27  1  0  0  0  0
 26 29  1  6  0  0  0
 26 31  1  0  0  0  0
 27 28  1  0  0  0  0
 29 30  2  0  0  0  0
 31 32  1  0  0  0  0
 33 32  1  6  0  0  0
 34 36  1  0  0  0  0
 34 42  1  0  0  0  0
 36 37  1  1  0  0  0
 36 39  1  0  0  0  0
 40 39  1  6  0  0  0
 40 41  1  0  0  0  0
 40 46  1  0  0  0  0
 41 42  1  6  0  0  0
 41 44  1  0  0  0  0
 42 43  2  0  0  0  0
 44 45  1  0  0  0  0
 46 45  1  1  0  0  0
M  CHG  2   3  -1  35  -1
M  END
>  <CHROM.1>
172.16832402,58.72256500,-8.06749815,1.67173154,16.39456249,-0.35251523,0.97256740
0.75324614

>  <Name>
ligand

>  <RI>
416

>  <Rbt.Current_Directory>
/home/itssahil/PROJECTS/Mol_Feturizer/Test_systems_manuscript/rnas/3mum

>  <Rbt.Executable>
rbdock ($Id: //depot/dev/client3/rdock/2013.1/src/exe/rbdock.cxx#4 $)

>  <Rbt.Library>
libRbt.so (2013.1, Build901 2013/11/27)

>  <Rbt.Parameter_File>
/export/apps/rDock/src/rDock_2013.1_src/data/scripts/dock_solv.prm

>  <Rbt.Receptor>
prm/pocket_docking_2.prm

>  <SCORE>
-39.5368

>  <SCORE.INTER>
-39.5754

>  <SCORE.INTER.CONST>
1

>  <SCORE.INTER.POLAR>
0

>  <SCORE.INTER.ROT>
2

>  <SCORE.INTER.SOLV>
40.3488

>  <SCORE.INTER.VDW>
-44.7665

>  <SCORE.INTER.norm>
-0.860335

>  <SCORE.INTRA>
0.0386423

>  <SCORE.INTRA.DIHEDRAL>
-0.00816678

>  <SCORE.INTRA.DIHEDRAL.0>
2.40424

>  <SCORE.INTRA.POLAR>
0

>  <SCORE.INTRA.POLAR.0>
0

>  <SCORE.INTRA.REPUL>
0

>  <SCORE.INTRA.REPUL.0>
0

>  <SCORE.INTRA.SOLV>
0.00749693

>  <SCORE.INTRA.SOLV.lig_0>
-134.169

>  <SCORE.INTRA.VDW>
0.0389772

>  <SCORE.INTRA.VDW.0>
-2.18386

>  <SCORE.INTRA.norm>
0.000840049

>  <SCORE.RESTR>
0

>  <SCORE.RESTR.CAVITY>
0

>  <SCORE.RESTR.norm>
0

>  <SCORE.SYSTEM>
0

>  <SCORE.SYSTEM.CONST>
0

>  <SCORE.SYSTEM.DIHEDRAL>
0

>  <SCORE.SYSTEM.SOLV>
0

>  <SCORE.SYSTEM.norm>
0

>  <SCORE.heavy>
46

>  <SCORE.norm>
-0.859495

>  <RMSD>
0.223

$$$$
ligand
 OpenBabel02271912143D
libRbt.so/2013.1/901 2013/11/27
 46 52  0  0  0  0  0  0  0  0999 V2000
   -9.8348    4.9132   15.6659 P   0  0  1  0  0  0  0  0  0  0  0  0
   -5.3464    2.6212   18.7118 P   0  0  2  0  0  0  0  0  0  0  0  0
  -10.5201    3.6963   14.5745 O   0  5  0  0  0  0  0  0  0  0  0  0
  -10.7545    6.4397   15.6093 O   0  0  0  0  0  0  0  0  0  0  0  0
   -9.2474    5.0294   18.2476 C   0  0  0  0  0  0  0  0  0  0  0  0
   -9.8389    4.3141   17.1627 O   0  0  0  0  0  0  0  0  0  0  0  0
   -8.9687    4.0541   19.3752 C   0  0  1  0  0  0  0  0  0  0  0  0
  -10.1688    3.3350   19.6925 O   0  0  0  0  0  0  0  0  0  0  0  0
   -7.9424    2.9934   19.0116 C   0  0  1  0  0  0  0  0  0  0  0  0
   -6.6150    3.3937   19.3449 O   0  0  0  0  0  0  0  0  0  0  0  0
   -8.3919    1.7877   19.8179 C   0  0  1  0  0  0  0  0  0  0  0  0
   -7.7901    1.8128   21.1146 O   0  0  0  0  0  0  0  0  0  0  0  0
   -9.8918    1.9547   19.9765 C   0  0  2  0  0  0  0  0  0  0  0  0
   -5.9693    3.0881   13.6155 C   0  0  1  0  0  0  0  0  0  0  0  0
  -10.8342   -2.9291   18.1183 N   0  0  0  0  0  0  0  0  0  0  0  0
   -9.9995   -2.5392   19.1201 C   0  0  1  0  0  0  0  0  0  0  0  0
   -7.4004    3.4322   13.9171 C   0  0  2  0  0  0  0  0  0  0  0  0
   -9.2854   -3.4907   19.7645 N   0  0  0  0  0  0  0  0  0  0  0  0
   -7.8264    4.3272   12.8882 O   0  0  0  0  0  0  0  0  0  0  0  0
   -7.3580    4.1042   15.2751 C   0  0  2  0  0  0  0  0  0  0  0  0
   -9.8537   -1.2335   19.4952 N   0  0  0  0  0  0  0  0  0  0  0  0
   -8.2790    5.1833   15.3568 O   0  0  0  0  0  0  0  0  0  0  0  0
  -10.5486   -0.2423   18.8818 C   0  0  2  0  0  0  0  0  0  0  0  0
   -5.9390    4.6209   15.4094 C   0  0  2  0  0  0  0  0  0  0  0  0
   -5.1519    3.8425   14.5094 O   0  0  0  0  0  0  0  0  0  0  0  0
  -11.4644   -0.6100   17.7879 C   0  0  1  0  0  0  0  0  0  0  0  0
   -5.3874    4.4757   16.8233 C   0  0  0  0  0  0  0  0  0  0  0  0
   -5.3529    3.0902   17.1714 O   0  0  0  0  0  0  0  0  0  0  0  0
  -11.5791   -2.0348   17.4292 C   0  0  0  0  0  0  0  0  0  0  0  0
  -12.4062   -2.4321   16.4290 O   0  0  0  0  0  0  0  0  0  0  0  0
  -12.0188    0.5246   17.3471 N   0  0  0  0  0  0  0  0  0  0  0  0
  -11.5037    1.5452   18.0931 C   0  0  0  0  0  0  0  0  0  0  0  0
  -10.6239    1.0925   19.0111 N   0  0  1  0  0  0  0  0  0  0  0  0
   -7.4573   -1.6841   12.0726 N   0  0  0  0  0  0  0  0  0  0  0  0
   -5.5352    0.8516   18.8283 O   0  5  0  0  0  0  0  0  0  0  0  0
   -7.9205   -0.4618   11.6926 C   0  0  2  0  0  0  0  0  0  0  0  0
   -8.9165   -0.3867   10.7715 N   0  0  0  0  0  0  0  0  0  0  0  0
   -3.7986    3.0997   19.4354 O   0  0  0  0  0  0  0  0  0  0  0  0
   -7.4157    0.6929   12.2067 N   0  0  0  0  0  0  0  0  0  0  0  0
   -6.4187    0.6828   13.1221 C   0  0  2  0  0  0  0  0  0  0  0  0
   -5.8792   -0.6065   13.5739 C   0  0  2  0  0  0  0  0  0  0  0  0
   -6.4716   -1.8260   12.9839 C   0  0  0  0  0  0  0  0  0  0  0  0
   -6.0404   -3.0609   13.3413 O   0  0  0  0  0  0  0  0  0  0  0  0
   -4.9208   -0.3272   14.4794 N   0  0  0  0  0  0  0  0  0  0  0  0
   -4.8504    1.0326   14.5939 C   0  0  0  0  0  0  0  0  0  0  0  0
   -5.7506    1.6312   13.7815 N   0  0  1  0  0  0  0  0  0  0  0  0
  1  3  1  6  0  0  0
  1  4  2  0  0  0  0
  1  6  1  0  0  0  0
  1 22  1  0  0  0  0
  2 28  1  0  0  0  0
  2 35  1  1  0  0  0
  2 38  2  0  0  0  0
  2 10  1  0  0  0  0
  5  6  1  0  0  0  0
  7  5  1  6  0  0  0
  7  8  1  0  0  0  0
  7  9  1  0  0  0  0
  9 10  1  1  0  0  0
  9 11  1  0  0  0  0
 11 12  1  1  0  0  0
 11 13  1  0  0  0  0
 13  8  1  6  0  0  0
 13 33  1  0  0  0  0
 14 46  1  0  0  0  0
 14 17  1  0  0  0  0
 14 25  1  1  0  0  0
 15 16  1  0  0  0  0
 15 29  1  0  0  0  0
 16 18  1  6  0  0  0
 16 21  1  0  0  0  0
 17 19  1  6  0  0  0
 17 20  1  0  0  0  0
 20 22  1  6  0  0  0
 20 24  1  0  0  0  0
 23 21  1  6  0  0  0
 23 26  1  0  0  0  0
 23 33  1  0  0  0  0
 24 25  1  6  0  0  0
 24 27  1  0  0  0  0
 26 29  1  1  0  0  0
 26 31  1  0  0  0  0
 27 28  1  0  0  0  0
 29 30  2  0  0  0  0
 31 32  1  0  0  0  0
 33 32  1  1  0  0  0
 34 36  1  0  0  0  0
 34 42  1  0  0  0  0
 36 37  1  6  0  0  0
 36 39  1  0  0  0  0
 40 39  1  1  0  0  0
 40 41  1  0  0  0  0
 40 46  1  0  0  0  0
 41 42  1  1  0  0  0
 41 44  1  0  0  0  0
 42 43  2  0  0  0  0
 44 45  1  0  0  0  0
 46 45  1  6  0  0  0
M  CHG  2   3  -1  35  -1
M  END
>  <CHROM.1>
174.62194128,57.90349570,-8.11163455,1.71830923,16.49438415,-0.46368717,0.98453211
0.67814324

>  <Name>
ligand

>  <RI>
416

>  <Rbt.Current_Directory>
/home/itssahil/PROJECTS/Mol_Feturizer/Test_systems_manuscript/rnas/3mum

>  <Rbt.Executable>
rbdock ($Id: //depot/dev/client3/rdock/2013.1/src/exe/rbdock.cxx#4 $)

>  <Rbt.Library>
libRbt.so (2013.1, Build901 2013/11/27)

>  <Rbt.Parameter_File>
/export/apps/rDock/src/rDock_2013.1_src/data/scripts/dock_solv.prm

>  <Rbt.Receptor>
prm/pocket_docking_3.prm

>  <SCORE>
-39.5724

>  <SCORE.INTER>
-39.5676

>  <SCORE.INTER.CONST>
1

>  <SCORE.INTER.POLAR>
0

>  <SCORE.INTER.ROT>
2

>  <SCORE.INTER.SOLV>
39.8465

>  <SCORE.INTER.VDW>
-44.5939

>  <SCORE.INTER.norm>
-0.860165

>  <SCORE.INTRA>
-0.00482195

>  <SCORE.INTRA.DIHEDRAL>
-0.00890573

>  <SCORE.INTRA.DIHEDRAL.0>
2.40424

>  <SCORE.INTRA.POLAR>
0

>  <SCORE.INTRA.POLAR.0>
0

>  <SCORE.INTRA.REPUL>
0

>  <SCORE.INTRA.REPUL.0>
0

>  <SCORE.INTRA.SOLV>
0.00772397

>  <SCORE.INTRA.SOLV.lig_0>
-134.169

>  <SCORE.INTRA.VDW>
-0.00423107

>  <SCORE.INTRA.VDW.0>
-2.18386

>  <SCORE.INTRA.norm>
-0.000104825

>  <SCORE.RESTR>
0

>  <SCORE.RESTR.CAVITY>
0

>  <SCORE.RESTR.norm>
0

>  <SCORE.SYSTEM>
0

>  <SCORE.SYSTEM.CONST>
0

>  <SCORE.SYSTEM.DIHEDRAL>
0

>  <SCORE.SYSTEM.SOLV>
0

>  <SCORE.SYSTEM.norm>
0

>  <SCORE.heavy>
46

>  <SCORE.norm>
-0.86027

>  <RMSD>
0.223

$$$$
ligand
 OpenBabel02271912143D
libRbt.so/2013.1/901 2013/11/27
 46 52  0  0  0  0  0  0  0  0999 V2000
   -5.2495    2.5015   18.6412 P   0  0  1  0  0  0  0  0  0  0  0  0
   -9.7497    4.8273   15.6388 P   0  0  2  0  0  0  0  0  0  0  0  0
   -5.4016    0.7366   18.7049 O   0  5  0  0  0  0  0  0  0  0  0  0
   -3.7386    3.0593   19.4063 O   0  0  0  0  0  0  0  0  0  0  0  0
   -5.3005    4.3419   16.7350 C   0  0  0  0  0  0  0  0  0  0  0  0
   -5.2956    2.9607   17.0964 O   0  0  0  0  0  0  0  0  0  0  0  0
   -5.8276    4.4693   15.3184 C   0  0  1  0  0  0  0  0  0  0  0  0
   -5.0778    3.6076   14.4505 O   0  0  0  0  0  0  0  0  0  0  0  0
   -7.2761    4.0313   15.1752 C   0  0  1  0  0  0  0  0  0  0  0  0
   -8.1854    5.1139   15.3600 O   0  0  0  0  0  0  0  0  0  0  0  0
   -7.3309    3.4777   13.7623 C   0  0  1  0  0  0  0  0  0  0  0  0
   -7.6383    4.5237   12.8373 O   0  0  0  0  0  0  0  0  0  0  0  0
   -5.9268    2.9772   13.4787 C   0  0  2  0  0  0  0  0  0  0  0  0
   -9.7847    1.9121   19.8907 C   0  0  1  0  0  0  0  0  0  0  0  0
   -7.4782   -1.8155   11.8006 N   0  0  0  0  0  0  0  0  0  0  0  0
   -7.8244   -0.5876   11.3266 C   0  0  1  0  0  0  0  0  0  0  0  0
   -8.3341    1.6448   19.6054 C   0  0  2  0  0  0  0  0  0  0  0  0
   -8.6830   -0.5236   10.2828 N   0  0  0  0  0  0  0  0  0  0  0  0
   -7.7019    1.4514   20.8719 O   0  0  0  0  0  0  0  0  0  0  0  0
   -7.8407    2.8968   18.9076 C   0  0  2  0  0  0  0  0  0  0  0  0
   -7.3445    0.5742   11.8621 N   0  0  0  0  0  0  0  0  0  0  0  0
   -6.5188    3.2341   19.3053 O   0  0  0  0  0  0  0  0  0  0  0  0
   -6.4798    0.5637   12.9079 C   0  0  2  0  0  0  0  0  0  0  0  0
   -8.8055    3.9857   19.3342 C   0  0  2  0  0  0  0  0  0  0  0  0
   -9.9968    3.3155   19.7428 O   0  0  0  0  0  0  0  0  0  0  0  0
   -6.0748   -0.7401   13.4614 C   0  0  1  0  0  0  0  0  0  0  0  0
   -9.1315    4.9617   18.2092 C   0  0  0  0  0  0  0  0  0  0  0  0
   -9.7628    4.2510   17.1423 O   0  0  0  0  0  0  0  0  0  0  0  0
   -6.6258   -1.9581   12.8410 C   0  0  0  0  0  0  0  0  0  0  0  0
   -6.2888   -3.1865   13.3096 O   0  0  0  0  0  0  0  0  0  0  0  0
   -5.2364   -0.4895   14.4730 N   0  0  0  0  0  0  0  0  0  0  0  0
   -5.1091    0.8663   14.5689 C   0  0  0  0  0  0  0  0  0  0  0  0
   -5.8509    1.5005   13.6366 N   0  0  1  0  0  0  0  0  0  0  0  0
  -10.8253   -2.8402   17.9670 N   0  0  0  0  0  0  0  0  0  0  0  0
  -10.4052    3.6212   14.5002 O   0  5  0  0  0  0  0  0  0  0  0  0
   -9.8849   -2.4535   18.8720 C   0  0  2  0  0  0  0  0  0  0  0  0
   -9.0556   -3.3872   19.4072 N   0  0  0  0  0  0  0  0  0  0  0  0
  -10.7522    6.2905   15.5922 O   0  0  0  0  0  0  0  0  0  0  0  0
   -9.7479   -1.1563   19.2605 N   0  0  0  0  0  0  0  0  0  0  0  0
  -10.5484   -0.1823   18.7679 C   0  0  2  0  0  0  0  0  0  0  0  0
  -11.5807   -0.5377   17.7852 C   0  0  2  0  0  0  0  0  0  0  0  0
  -11.6773   -1.9613   17.3979 C   0  0  0  0  0  0  0  0  0  0  0  0
  -12.5974   -2.3838   16.4960 O   0  0  0  0  0  0  0  0  0  0  0  0
  -12.2139    0.6069   17.4605 N   0  0  0  0  0  0  0  0  0  0  0  0
  -11.6352    1.6130   18.1817 C   0  0  0  0  0  0  0  0  0  0  0  0
  -10.6379    1.1351   18.9600 N   0  0  1  0  0  0  0  0  0  0  0  0
  1  3  1  1  0  0  0
  1  4  2  0  0  0  0
  1  6  1  0  0  0  0
  1 22  1  0  0  0  0
  2 28  1  0  0  0  0
  2 35  1  6  0  0  0
  2 38  2  0  0  0  0
  2 10  1  0  0  0  0
  5  6  1  0  0  0  0
  7  5  1  1  0  0  0
  7  8  1  0  0  0  0
  7  9  1  0  0  0  0
  9 10  1  6  0  0  0
  9 11  1  0  0  0  0
 11 12  1  6  0  0  0
 11 13  1  0  0  0  0
 13  8  1  1  0  0  0
 13 33  1  0  0  0  0
 14 46  1  0  0  0  0
 14 17  1  0  0  0  0
 14 25  1  6  0  0  0
 15 16  1  0  0  0  0
 15 29  1  0  0  0  0
 16 18  1  1  0  0  0
 16 21  1  0  0  0  0
 17 19  1  1  0  0  0
 17 20  1  0  0  0  0
 20 22  1  1  0  0  0
 20 24  1  0  0  0  0
 23 21  1  1  0  0  0
 23 26  1  0  0  0  0
 23 33  1  0  0  0  0
 24 25  1  6  0  0  0
 24 27  1  0  0  0  0
 26 29  1  6  0  0  0
 26 31  1  0  0  0  0
 27 28  1  0  0  0  0
 29 30  2  0  0  0  0
 31 32  1  0  0  0  0
 33 32  1  6  0  0  0
 34 36  1  0  0  0  0
 34 42  1  0  0  0  0
 36 37  1  1  0  0  0
 36 39  1  0  0  0  0
 40 39  1  6  0  0  0
 40 41  1  0  0  0  0
 40 46  1  0  0  0  0
 41 42  1  6  0  0  0
 41 44  1  0  0  0  0
 42 43  2  0  0  0  0
 44 45  1  0  0  0  0
 46 45  1  1  0  0  0
M  CHG  2   3  -1  35  -1
M  END
>  <CHROM.1>
-178.93528736,53.14920483,-8.08228684,1.65032396,16.39367786,-2.41824041
-0.96677084,-2.39053249

>  <Name>
ligand

>  <RI>
416

>  <Rbt.Current_Directory>
/home/itssahil/PROJECTS/Mol_Feturizer/Test_systems_manuscript/rnas/3mum

>  <Rbt.Executable>
rbdock ($Id: //depot/dev/client3/rdock/2013.1/src/exe/rbdock.cxx#4 $)

>  <Rbt.Library>
libRbt.so (2013.1, Build901 2013/11/27)

>  <Rbt.Parameter_File>
/export/apps/rDock/src/rDock_2013.1_src/data/scripts/dock_solv.prm

>  <Rbt.Receptor>
prm/pocket_docking_2.prm

>  <SCORE>
-40.1215

>  <SCORE.INTER>
-40.1254

>  <SCORE.INTER.CONST>
1

>  <SCORE.INTER.POLAR>
0

>  <SCORE.INTER.ROT>
2

>  <SCORE.INTER.SOLV>
39.9332

>  <SCORE.INTER.VDW>
-44.9947

>  <SCORE.INTER.norm>
-0.872292

>  <SCORE.INTRA>
0.00388476

>  <SCORE.INTRA.DIHEDRAL>
-0.0143209

>  <SCORE.INTRA.DIHEDRAL.0>
2.40424

>  <SCORE.INTRA.POLAR>
0

>  <SCORE.INTRA.POLAR.0>
0

>  <SCORE.INTRA.REPUL>
0

>  <SCORE.INTRA.REPUL.0>
0

>  <SCORE.INTRA.SOLV>
0.012374

>  <SCORE.INTRA.SOLV.lig_0>
-134.169

>  <SCORE.INTRA.VDW>
0.00485822

>  <SCORE.INTRA.VDW.0>
-2.18386

>  <SCORE.INTRA.norm>
8.44514e-05

>  <SCORE.RESTR>
0

>  <SCORE.RESTR.CAVITY>
0

>  <SCORE.RESTR.norm>
0

>  <SCORE.SYSTEM>
0

>  <SCORE.SYSTEM.CONST>
0

>  <SCORE.SYSTEM.DIHEDRAL>
0

>  <SCORE.SYSTEM.SOLV>
0

>  <SCORE.SYSTEM.norm>
0

>  <SCORE.heavy>
46

>  <SCORE.norm>
-0.872207

>  <RMSD>
0.224

$$$$
ligand
 OpenBabel02271912143D
libRbt.so/2013.1/901 2013/11/27
 46 52  0  0  0  0  0  0  0  0999 V2000
   -9.7697    4.9167   15.6268 P   0  0  1  0  0  0  0  0  0  0  0  0
   -5.3553    2.4674   18.6582 P   0  0  2  0  0  0  0  0  0  0  0  0
  -10.5217    3.7166   14.5610 O   0  5  0  0  0  0  0  0  0  0  0  0
  -10.6200    6.4825   15.5574 O   0  0  0  0  0  0  0  0  0  0  0  0
   -9.1484    5.0432   18.2000 C   0  0  0  0  0  0  0  0  0  0  0  0
   -9.7839    4.3400   17.1323 O   0  0  0  0  0  0  0  0  0  0  0  0
   -8.9013    4.0725   19.3390 C   0  0  1  0  0  0  0  0  0  0  0  0
  -10.1290    3.4133   19.6797 O   0  0  0  0  0  0  0  0  0  0  0  0
   -7.9281    2.9613   18.9802 C   0  0  1  0  0  0  0  0  0  0  0  0
   -6.5804    3.3056   19.2933 O   0  0  0  0  0  0  0  0  0  0  0  0
   -8.4226    1.7888   19.8090 C   0  0  1  0  0  0  0  0  0  0  0  0
   -7.8056    1.8052   21.0987 O   0  0  0  0  0  0  0  0  0  0  0  0
   -9.9115    2.0260   19.9811 C   0  0  2  0  0  0  0  0  0  0  0  0
   -6.0143    2.8889   13.5625 C   0  0  1  0  0  0  0  0  0  0  0  0
  -10.7138   -2.7573   17.8204 N   0  0  0  0  0  0  0  0  0  0  0  0
   -9.7914   -2.3788   18.7468 C   0  0  1  0  0  0  0  0  0  0  0  0
   -7.4248    3.3019   13.8742 C   0  0  2  0  0  0  0  0  0  0  0  0
   -8.9333   -3.3145   19.2146 N   0  0  0  0  0  0  0  0  0  0  0  0
   -7.8215    4.2004   12.8368 O   0  0  0  0  0  0  0  0  0  0  0  0
   -7.3366    3.9907   15.2216 C   0  0  2  0  0  0  0  0  0  0  0  0
   -9.6971   -1.0993   19.2167 N   0  0  0  0  0  0  0  0  0  0  0  0
   -8.2069    5.1115   15.2971 O   0  0  0  0  0  0  0  0  0  0  0  0
  -10.5353   -0.1250   18.7809 C   0  0  2  0  0  0  0  0  0  0  0  0
   -5.8943    4.4442   15.3330 C   0  0  2  0  0  0  0  0  0  0  0  0
   -5.1535    3.6182   14.4363 O   0  0  0  0  0  0  0  0  0  0  0  0
  -11.5511   -0.4811   17.7750 C   0  0  1  0  0  0  0  0  0  0  0  0
   -5.3338    4.2945   16.7429 C   0  0  0  0  0  0  0  0  0  0  0  0
   -5.3580    2.9140   17.1112 O   0  0  0  0  0  0  0  0  0  0  0  0
  -11.6036   -1.8776   17.3070 C   0  0  0  0  0  0  0  0  0  0  0  0
  -12.5178   -2.2629   16.3807 O   0  0  0  0  0  0  0  0  0  0  0  0
  -12.2392    0.6339   17.5060 N   0  0  0  0  0  0  0  0  0  0  0  0
  -11.7119    1.6321   18.2735 C   0  0  0  0  0  0  0  0  0  0  0  0
  -10.6927    1.1842   19.0365 N   0  0  1  0  0  0  0  0  0  0  0  0
   -7.4084   -1.8365   11.8031 N   0  0  0  0  0  0  0  0  0  0  0  0
   -5.6226    0.7100   18.8029 O   0  5  0  0  0  0  0  0  0  0  0  0
   -7.7823   -0.6009   11.3712 C   0  0  2  0  0  0  0  0  0  0  0  0
   -8.6417   -0.4961   10.3242 N   0  0  0  0  0  0  0  0  0  0  0  0
   -3.7793    2.8854   19.3580 O   0  0  0  0  0  0  0  0  0  0  0  0
   -7.3208    0.5380   11.9561 N   0  0  0  0  0  0  0  0  0  0  0  0
   -6.4578    0.4982   12.9981 C   0  0  2  0  0  0  0  0  0  0  0  0
   -6.0198   -0.8067   13.5110 C   0  0  2  0  0  0  0  0  0  0  0  0
   -6.5597   -2.0079   12.8388 C   0  0  0  0  0  0  0  0  0  0  0  0
   -6.2147   -3.2551   13.2438 O   0  0  0  0  0  0  0  0  0  0  0  0
   -5.1859   -0.5562   14.5397 N   0  0  0  0  0  0  0  0  0  0  0  0
   -5.0947    0.8008   14.6710 C   0  0  0  0  0  0  0  0  0  0  0  0
   -5.8597    1.4261   13.7477 N   0  0  1  0  0  0  0  0  0  0  0  0
  1  3  1  6  0  0  0
  1  4  2  0  0  0  0
  1  6  1  0  0  0  0
  1 22  1  0  0  0  0
  2 28  1  0  0  0  0
  2 35  1  1  0  0  0
  2 38  2  0  0  0  0
  2 10  1  0  0  0  0
  5  6  1  0  0  0  0
  7  5  1  6  0  0  0
  7  8  1  0  0  0  0
  7  9  1  0  0  0  0
  9 10  1  1  0  0  0
  9 11  1  0  0  0  0
 11 12  1  1  0  0  0
 11 13  1  0  0  0  0
 13  8  1  6  0  0  0
 13 33  1  0  0  0  0
 14 46  1  0  0  0  0
 14 17  1  0  0  0  0
 14 25  1  1  0  0  0
 15 16  1  0  0  0  0
 15 29  1  0  0  0  0
 16 18  1  6  0  0  0
 16 21  1  0  0  0  0
 17 19  1  6  0  0  0
 17 20  1  0  0  0  0
 20 22  1  6  0  0  0
 20 24  1  0  0  0  0
 23 21  1  6  0  0  0
 23 26  1  0  0  0  0
 23 33  1  0  0  0  0
 24 25  1  6  0  0  0
 24 27  1  0  0  0  0
 26 29  1  1  0  0  0
 26 31  1  0  0  0  0
 27 28  1  0  0  0  0
 29 30  2  0  0  0  0
 31 32  1  0  0  0  0
 33 32  1  1  0  0  0
 34 36  1  0  0  0  0
 34 42  1  0  0  0  0
 36 37  1  6  0  0  0
 36 39  1  0  0  0  0
 40 39  1  1  0  0  0
 40 41  1  0  0  0  0
 40 46  1  0  0  0  0
 41 42  1  1  0  0  0
 41 44  1  0  0  0  0
 42 43  2  0  0  0  0
 44 45  1  0  0  0  0
 46 45  1  6  0  0  0
M  CHG  2   3  -1  35  -1
M  END
>  <CHROM.1>
163.45877614,66.45849093,-8.10666178,1.66723541,16.40932068,-2.26278472,-0.97509966
-2.47318871

>  <Name>
ligand

>  <RI>
416

>  <Rbt.Current_Directory>
/home/itssahil/PROJECTS/Mol_Feturizer/Test_systems_manuscript/rnas/3mum

>  <Rbt.Executable>
rbdock ($Id: //depot/dev/client3/rdock/2013.1/src/exe/rbdock.cxx#4 $)

>  <Rbt.Library>
libRbt.so (2013.1, Build901 2013/11/27)

>  <Rbt.Parameter_File>
/export/apps/rDock/src/rDock_2013.1_src/data/scripts/dock_solv.prm

>  <Rbt.Receptor>
prm/pocket_docking_3.prm

>  <SCORE>
-40.4147

>  <SCORE.INTER>
-40.3949

>  <SCORE.INTER.CONST>
1

>  <SCORE.INTER.POLAR>
0

>  <SCORE.INTER.ROT>
2

>  <SCORE.INTER.SOLV>
39.2149

>  <SCORE.INTER.VDW>
-44.9349

>  <SCORE.INTER.norm>
-0.878149

>  <SCORE.INTRA>
-0.0198364

>  <SCORE.INTRA.DIHEDRAL>
0.0015452

>  <SCORE.INTRA.DIHEDRAL.0>
2.40424

>  <SCORE.INTRA.POLAR>
0

>  <SCORE.INTRA.POLAR.0>
0

>  <SCORE.INTRA.REPUL>
0

>  <SCORE.INTRA.REPUL.0>
0

>  <SCORE.INTRA.SOLV>
0.000740398

>  <SCORE.INTRA.SOLV.lig_0>
-134.169

>  <SCORE.INTRA.VDW>
-0.0209792

>  <SCORE.INTRA.VDW.0>
-2.18386

>  <SCORE.INTRA.norm>
-0.000431226

>  <SCORE.RESTR>
0

>  <SCORE.RESTR.CAVITY>
0

>  <SCORE.RESTR.norm>
0

>  <SCORE.SYSTEM>
0

>  <SCORE.SYSTEM.CONST>
0

>  <SCORE.SYSTEM.DIHEDRAL>
0

>  <SCORE.SYSTEM.SOLV>
0

>  <SCORE.SYSTEM.norm>
0

>  <SCORE.heavy>
46

>  <SCORE.norm>
-0.87858

>  <RMSD>
0.225

$$$$
ligand
 OpenBabel02271912143D
libRbt.so/2013.1/901 2013/11/27
 46 52  0  0  0  0  0  0  0  0999 V2000
   -9.8036    4.8743   15.6625 P   0  0  1  0  0  0  0  0  0  0  0  0
   -5.3781    2.5018   18.7385 P   0  0  2  0  0  0  0  0  0  0  0  0
  -10.5100    3.6672   14.5737 O   0  5  0  0  0  0  0  0  0  0  0  0
  -10.6904    6.4198   15.5949 O   0  0  0  0  0  0  0  0  0  0  0  0
   -9.2250    4.9901   18.2461 C   0  0  0  0  0  0  0  0  0  0  0  0
   -9.8269    4.2825   17.1620 O   0  0  0  0  0  0  0  0  0  0  0  0
   -8.9719    4.0143   19.3794 C   0  0  1  0  0  0  0  0  0  0  0  0
  -10.1884    3.3224   19.6947 O   0  0  0  0  0  0  0  0  0  0  0  0
   -7.9668    2.9305   19.0252 C   0  0  1  0  0  0  0  0  0  0  0  0
   -6.6327    3.3040   19.3625 O   0  0  0  0  0  0  0  0  0  0  0  0
   -8.4454    1.7383   19.8350 C   0  0  1  0  0  0  0  0  0  0  0  0
   -7.8487    1.7567   21.1342 O   0  0  0  0  0  0  0  0  0  0  0  0
   -9.9420    1.9379   19.9862 C   0  0  2  0  0  0  0  0  0  0  0  0
   -5.9691    2.9581   13.6374 C   0  0  1  0  0  0  0  0  0  0  0  0
  -10.8526   -2.9137   18.0304 N   0  0  0  0  0  0  0  0  0  0  0  0
   -9.9943   -2.5338   19.0159 C   0  0  1  0  0  0  0  0  0  0  0  0
   -7.3938    3.3339   13.9311 C   0  0  2  0  0  0  0  0  0  0  0  0
   -9.2430   -3.4878   19.6127 N   0  0  0  0  0  0  0  0  0  0  0  0
   -7.7963    4.2329   12.8963 O   0  0  0  0  0  0  0  0  0  0  0  0
   -7.3429    4.0112   15.2863 C   0  0  2  0  0  0  0  0  0  0  0  0
   -9.8607   -1.2356   19.4204 N   0  0  0  0  0  0  0  0  0  0  0  0
   -8.2412    5.1099   15.3589 O   0  0  0  0  0  0  0  0  0  0  0  0
  -10.5925   -0.2425   18.8551 C   0  0  2  0  0  0  0  0  0  0  0  0
   -5.9139    4.4982   15.4244 C   0  0  2  0  0  0  0  0  0  0  0  0
   -5.1397    3.6991   14.5314 O   0  0  0  0  0  0  0  0  0  0  0  0
  -11.5352   -0.5994   17.7806 C   0  0  1  0  0  0  0  0  0  0  0  0
   -5.3716    4.3480   16.8414 C   0  0  0  0  0  0  0  0  0  0  0  0
   -5.3680    2.9637   17.1959 O   0  0  0  0  0  0  0  0  0  0  0  0
  -11.6351   -2.0165   17.3883 C   0  0  0  0  0  0  0  0  0  0  0  0
  -12.4857   -2.4036   16.4041 O   0  0  0  0  0  0  0  0  0  0  0  0
  -12.1239    0.5354   17.3871 N   0  0  0  0  0  0  0  0  0  0  0  0
  -11.6044    1.5462   18.1434 C   0  0  0  0  0  0  0  0  0  0  0  0
  -10.6880    1.0870   19.0216 N   0  0  1  0  0  0  0  0  0  0  0  0
   -7.3439   -1.7855   11.9120 N   0  0  0  0  0  0  0  0  0  0  0  0
   -5.6050    0.7372   18.8622 O   0  5  0  0  0  0  0  0  0  0  0  0
   -7.7552   -0.5553   11.4992 C   0  0  2  0  0  0  0  0  0  0  0  0
   -8.6545   -0.4623   10.4850 N   0  0  0  0  0  0  0  0  0  0  0  0
   -3.8236    2.9506   19.4666 O   0  0  0  0  0  0  0  0  0  0  0  0
   -7.2925    0.5897   12.0711 N   0  0  0  0  0  0  0  0  0  0  0  0
   -6.3909    0.5617   13.0803 C   0  0  2  0  0  0  0  0  0  0  0  0
   -5.9114   -0.7369   13.5715 C   0  0  2  0  0  0  0  0  0  0  0  0
   -6.4545   -1.9452   12.9149 C   0  0  0  0  0  0  0  0  0  0  0  0
   -6.0729   -3.1874   13.3020 O   0  0  0  0  0  0  0  0  0  0  0  0
   -5.0445   -0.4750   14.5697 N   0  0  0  0  0  0  0  0  0  0  0  0
   -4.9724    0.8830   14.7029 C   0  0  0  0  0  0  0  0  0  0  0  0
   -5.7820    1.4976   13.8110 N   0  0  1  0  0  0  0  0  0  0  0  0
  1  3  1  6  0  0  0
  1  4  2  0  0  0  0
  1  6  1  0  0  0  0
  1 22  1  0  0  0  0
  2 28  1  0  0  0  0
  2 35  1  1  0  0  0
  2 38  2  0  0  0  0
  2 10  1  0  0  0  0
  5  6  1  0  0  0  0
  7  5  1  6  0  0  0
  7  8  1  0  0  0  0
  7  9  1  0  0  0  0
  9 10  1  1  0  0  0
  9 11  1  0  0  0  0
 11 12  1  1  0  0  0
 11 13  1  0  0  0  0
 13  8  1  6  0  0  0
 13 33  1  0  0  0  0
 14 46  1  0  0  0  0
 14 17  1  0  0  0  0
 14 25  1  1  0  0  0
 15 16  1  0  0  0  0
 15 29  1  0  0  0  0
 16 18  1  6  0  0  0
 16 21  1  0  0  0  0
 17 19  1  6  0  0  0
 17 20  1  0  0  0  0
 20 22  1  6  0  0  0
 20 24  1  0  0  0  0
 23 21  1  6  0  0  0
 23 26  1  0  0  0  0
 23 33  1  0  0  0  0
 24 25  1  6  0  0  0
 24 27  1  0  0  0  0
 26 29  1  1  0  0  0
 26 31  1  0  0  0  0
 27 28  1  0  0  0  0
 29 30  2  0  0  0  0
 31 32  1  0  0  0  0
 33 32  1  1  0  0  0
 34 36  1  0  0  0  0
 34 42  1  0  0  0  0
 36 37  1  6  0  0  0
 36 39  1  0  0  0  0
 40 39  1  1  0  0  0
 40 41  1  0  0  0  0
 40 46  1  0  0  0  0
 41 42  1  1  0  0  0
 41 44  1  0  0  0  0
 42 43  2  0  0  0  0
 44 45  1  0  0  0  0
 46 45  1  6  0  0  0
M  CHG  2   3  -1  35  -1
M  END
>  <CHROM.1>
171.09514380,63.41338764,-8.11581691,1.64997444,16.47895410,-2.48393097,-0.97454582
-2.47674991

>  <Name>
ligand

>  <RI>
416

>  <Rbt.Current_Directory>
/home/itssahil/PROJECTS/Mol_Feturizer/Test_systems_manuscript/rnas/3mum

>  <Rbt.Executable>
rbdock ($Id: //depot/dev/client3/rdock/2013.1/src/exe/rbdock.cxx#4 $)

>  <Rbt.Library>
libRbt.so (2013.1, Build901 2013/11/27)

>  <Rbt.Parameter_File>
/export/apps/rDock/src/rDock_2013.1_src/data/scripts/dock_solv.prm

>  <Rbt.Receptor>
prm/pocket_docking_3.prm

>  <SCORE>
-40.0904

>  <SCORE.INTER>
-40.0799

>  <SCORE.INTER.CONST>
1

>  <SCORE.INTER.POLAR>
0

>  <SCORE.INTER.ROT>
2

>  <SCORE.INTER.SOLV>
39.8939

>  <SCORE.INTER.VDW>
-44.9513

>  <SCORE.INTER.norm>
-0.871303

>  <SCORE.INTRA>
-0.0104233

>  <SCORE.INTRA.DIHEDRAL>
-0.00159909

>  <SCORE.INTRA.DIHEDRAL.0>
2.40424

>  <SCORE.INTRA.POLAR>
0

>  <SCORE.INTRA.POLAR.0>
0

>  <SCORE.INTRA.REPUL>
0

>  <SCORE.INTRA.REPUL.0>
0

>  <SCORE.INTRA.SOLV>
0.001285

>  <SCORE.INTRA.SOLV.lig_0>
-134.169

>  <SCORE.INTRA.VDW>
-0.0102663

>  <SCORE.INTRA.VDW.0>
-2.18386

>  <SCORE.INTRA.norm>
-0.000226594

>  <SCORE.RESTR>
0

>  <SCORE.RESTR.CAVITY>
0

>  <SCORE.RESTR.norm>
0

>  <SCORE.SYSTEM>
0

>  <SCORE.SYSTEM.CONST>
0

>  <SCORE.SYSTEM.DIHEDRAL>
0

>  <SCORE.SYSTEM.SOLV>
0

>  <SCORE.SYSTEM.norm>
0

>  <SCORE.heavy>
46

>  <SCORE.norm>
-0.871529

>  <RMSD>
0.225

$$$$
ligand
 OpenBabel02271912143D
libRbt.so/2013.1/901 2013/11/27
 46 52  0  0  0  0  0  0  0  0999 V2000
   -9.8393    4.9072   15.6551 P   0  0  1  0  0  0  0  0  0  0  0  0
   -5.3548    2.6194   18.7098 P   0  0  2  0  0  0  0  0  0  0  0  0
  -10.5214    3.6896   14.5624 O   0  5  0  0  0  0  0  0  0  0  0  0
  -10.7601    6.4329   15.5966 O   0  0  0  0  0  0  0  0  0  0  0  0
   -9.2570    5.0241   18.2379 C   0  0  0  0  0  0  0  0  0  0  0  0
   -9.8458    4.3082   17.1519 O   0  0  0  0  0  0  0  0  0  0  0  0
   -8.9795    4.0490   19.3661 C   0  0  1  0  0  0  0  0  0  0  0  0
  -10.1797    3.3290   19.6811 O   0  0  0  0  0  0  0  0  0  0  0  0
   -7.9516    2.9893   19.0045 C   0  0  1  0  0  0  0  0  0  0  0  0
   -6.6253    3.3907   19.3404 O   0  0  0  0  0  0  0  0  0  0  0  0
   -8.4017    1.7832   19.8100 C   0  0  1  0  0  0  0  0  0  0  0  0
   -7.8024    1.8089   21.1079 O   0  0  0  0  0  0  0  0  0  0  0  0
   -9.9020    1.9489   19.9657 C   0  0  2  0  0  0  0  0  0  0  0  0
   -5.9682    3.0854   13.6123 C   0  0  1  0  0  0  0  0  0  0  0  0
  -10.8354   -2.9357   18.1050 N   0  0  0  0  0  0  0  0  0  0  0  0
  -10.0028   -2.5449   19.1082 C   0  0  1  0  0  0  0  0  0  0  0  0
   -7.4002    3.4282   13.9110 C   0  0  2  0  0  0  0  0  0  0  0  0
   -9.2885   -3.4957   19.7536 N   0  0  0  0  0  0  0  0  0  0  0  0
   -7.8250    4.3228   12.8813 O   0  0  0  0  0  0  0  0  0  0  0  0
   -7.3610    4.1003   15.2692 C   0  0  2  0  0  0  0  0  0  0  0  0
   -9.8592   -1.2391   19.4838 N   0  0  0  0  0  0  0  0  0  0  0  0
   -8.2831    5.1786   15.3489 O   0  0  0  0  0  0  0  0  0  0  0  0
  -10.5544   -0.2487   18.8696 C   0  0  2  0  0  0  0  0  0  0  0  0
   -5.9427    4.6182   15.4061 C   0  0  2  0  0  0  0  0  0  0  0  0
   -5.1532    3.8405   14.5077 O   0  0  0  0  0  0  0  0  0  0  0  0
  -11.4679   -0.6173   17.7741 C   0  0  1  0  0  0  0  0  0  0  0  0
   -5.3938    4.4737   16.8211 C   0  0  0  0  0  0  0  0  0  0  0  0
   -5.3587    3.0882   17.1694 O   0  0  0  0  0  0  0  0  0  0  0  0
  -11.5803   -2.0422   17.4149 C   0  0  0  0  0  0  0  0  0  0  0  0
  -12.4052   -2.4402   16.4133 O   0  0  0  0  0  0  0  0  0  0  0  0
  -12.0230    0.5168   17.3326 N   0  0  0  0  0  0  0  0  0  0  0  0
  -11.5103    1.5379   18.0797 C   0  0  0  0  0  0  0  0  0  0  0  0
  -10.6314    1.0861   18.9989 N   0  0  1  0  0  0  0  0  0  0  0  0
   -7.4506   -1.6883   12.0685 N   0  0  0  0  0  0  0  0  0  0  0  0
   -5.5423    0.8496   18.8260 O   0  5  0  0  0  0  0  0  0  0  0  0
   -7.9143   -0.4664   11.6877 C   0  0  2  0  0  0  0  0  0  0  0  0
   -8.9093   -0.3923   10.7654 N   0  0  0  0  0  0  0  0  0  0  0  0
   -3.8088    3.0992   19.4363 O   0  0  0  0  0  0  0  0  0  0  0  0
   -7.4111    0.6887   12.2022 N   0  0  0  0  0  0  0  0  0  0  0  0
   -6.4151    0.6796   13.1188 C   0  0  2  0  0  0  0  0  0  0  0  0
   -5.8751   -0.6092   13.5715 C   0  0  2  0  0  0  0  0  0  0  0  0
   -6.4659   -1.8292   12.9810 C   0  0  0  0  0  0  0  0  0  0  0  0
   -6.0342   -3.0637   13.3391 O   0  0  0  0  0  0  0  0  0  0  0  0
   -4.9181   -0.3290   14.4780 N   0  0  0  0  0  0  0  0  0  0  0  0
   -4.8488    1.0309   14.5924 C   0  0  0  0  0  0  0  0  0  0  0  0
   -5.7485    1.6286   13.7787 N   0  0  1  0  0  0  0  0  0  0  0  0
  1  3  1  6  0  0  0
  1  4  2  0  0  0  0
  1  6  1  0  0  0  0
  1 22  1  0  0  0  0
  2 28  1  0  0  0  0
  2 35  1  1  0  0  0
  2 38  2  0  0  0  0
  2 10  1  0  0  0  0
  5  6  1  0  0  0  0
  7  5  1  6  0  0  0
  7  8  1  0  0  0  0
  7  9  1  0  0  0  0
  9 10  1  1  0  0  0
  9 11  1  0  0  0  0
 11 12  1  1  0  0  0
 11 13  1  0  0  0  0
 13  8  1  6  0  0  0
 13 33  1  0  0  0  0
 14 46  1  0  0  0  0
 14 17  1  0  0  0  0
 14 25  1  1  0  0  0
 15 16  1  0  0  0  0
 15 29  1  0  0  0  0
 16 18  1  6  0  0  0
 16 21  1  0  0  0  0
 17 19  1  6  0  0  0
 17 20  1  0  0  0  0
 20 22  1  6  0  0  0
 20 24  1  0  0  0  0
 23 21  1  6  0  0  0
 23 26  1  0  0  0  0
 23 33  1  0  0  0  0
 24 25  1  6  0  0  0
 24 27  1  0  0  0  0
 26 29  1  1  0  0  0
 26 31  1  0  0  0  0
 27 28  1  0  0  0  0
 29 30  2  0  0  0  0
 31 32  1  0  0  0  0
 33 32  1  1  0  0  0
 34 36  1  0  0  0  0
 34 42  1  0  0  0  0
 36 37  1  6  0  0  0
 36 39  1  0  0  0  0
 40 39  1  1  0  0  0
 40 41  1  0  0  0  0
 40 46  1  0  0  0  0
 41 42  1  1  0  0  0
 41 44  1  0  0  0  0
 42 43  2  0  0  0  0
 44 45  1  0  0  0  0
 46 45  1  6  0  0  0
M  CHG  2   3  -1  35  -1
M  END
>  <CHROM.1>
174.59033409,57.85949641,-8.11494764,1.71387363,16.48715765,-0.46006133,0.98357417
0.67525992

>  <Name>
ligand

>  <RI>
-1

>  <Rbt.Current_Directory>
/home/itssahil/PROJECTS/Mol_Feturizer/Test_systems_manuscript/rnas/3mum

>  <Rbt.Executable>
rbdock ($Id: //depot/dev/client3/rdock/2013.1/src/exe/rbdock.cxx#4 $)

>  <Rbt.Library>
libRbt.so (2013.1, Build901 2013/11/27)

>  <Rbt.Parameter_File>
/export/apps/rDock/src/rDock_2013.1_src/data/scripts/dock_solv.prm

>  <Rbt.Receptor>
prm/pocket_docking_5.prm

>  <SCORE>
-39.5606

>  <SCORE.INTER>
-39.5566

>  <SCORE.INTER.CONST>
1

>  <SCORE.INTER.POLAR>
0

>  <SCORE.INTER.ROT>
2

>  <SCORE.INTER.SOLV>
39.8883

>  <SCORE.INTER.VDW>
-44.6005

>  <SCORE.INTER.norm>
-0.859926

>  <SCORE.INTRA>
-0.00399418

>  <SCORE.INTRA.DIHEDRAL>
-0.00897442

>  <SCORE.INTRA.DIHEDRAL.0>
2.40424

>  <SCORE.INTRA.POLAR>
0

>  <SCORE.INTRA.POLAR.0>
0

>  <SCORE.INTRA.REPUL>
0

>  <SCORE.INTRA.REPUL.0>
0

>  <SCORE.INTRA.SOLV>
0.00781057

>  <SCORE.INTRA.SOLV.lig_0>
-134.169

>  <SCORE.INTRA.VDW>
-0.00341225

>  <SCORE.INTRA.VDW.0>
-2.18386

>  <SCORE.INTRA.norm>
-8.683e-05

>  <SCORE.RESTR>
0

>  <SCORE.RESTR.CAVITY>
0

>  <SCORE.RESTR.norm>
0

>  <SCORE.SYSTEM>
0

>  <SCORE.SYSTEM.CONST>
0

>  <SCORE.SYSTEM.DIHEDRAL>
0

>  <SCORE.SYSTEM.SOLV>
0

>  <SCORE.SYSTEM.norm>
0

>  <SCORE.heavy>
46

>  <SCORE.norm>
-0.860013

>  <RMSD>
0.226

$$$$
ligand
 OpenBabel02271912143D
libRbt.so/2013.1/901 2013/11/27
 46 52  0  0  0  0  0  0  0  0999 V2000
   -5.3010    2.6200   18.6747 P   0  0  1  0  0  0  0  0  0  0  0  0
   -9.8243    4.8067   15.6032 P   0  0  2  0  0  0  0  0  0  0  0  0
   -5.3989    0.8512   18.7354 O   0  5  0  0  0  0  0  0  0  0  0  0
   -3.8204    3.2241   19.4635 O   0  0  0  0  0  0  0  0  0  0  0  0
   -5.3797    4.4595   16.7685 C   0  0  0  0  0  0  0  0  0  0  0  0
   -5.3373    3.0788   17.1295 O   0  0  0  0  0  0  0  0  0  0  0  0
   -5.8884    4.5715   15.3439 C   0  0  1  0  0  0  0  0  0  0  0  0
   -5.0986    3.7344   14.4875 O   0  0  0  0  0  0  0  0  0  0  0  0
   -7.3201    4.0886   15.1780 C   0  0  1  0  0  0  0  0  0  0  0  0
   -8.2656    5.1422   15.3489 O   0  0  0  0  0  0  0  0  0  0  0  0
   -7.3356    3.5347   13.7642 C   0  0  1  0  0  0  0  0  0  0  0  0
   -7.6610    4.5714   12.8348 O   0  0  0  0  0  0  0  0  0  0  0  0
   -5.9123    3.0785   13.5024 C   0  0  2  0  0  0  0  0  0  0  0  0
   -9.8345    1.8884   19.8531 C   0  0  1  0  0  0  0  0  0  0  0  0
   -7.4938   -1.7562   11.9800 N   0  0  0  0  0  0  0  0  0  0  0  0
   -7.9030   -0.5388   11.5296 C   0  0  1  0  0  0  0  0  0  0  0  0
   -8.3720    1.6667   19.5903 C   0  0  2  0  0  0  0  0  0  0  0  0
   -8.8447   -0.4995   10.5588 N   0  0  0  0  0  0  0  0  0  0  0  0
   -7.7539    1.4922   20.8665 O   0  0  0  0  0  0  0  0  0  0  0  0
   -7.9071    2.9341   18.9008 C   0  0  2  0  0  0  0  0  0  0  0  0
   -7.4058    0.6361   12.0184 N   0  0  0  0  0  0  0  0  0  0  0  0
   -6.6027    3.3121   19.3192 O   0  0  0  0  0  0  0  0  0  0  0  0
   -6.4590    0.6504   12.9905 C   0  0  2  0  0  0  0  0  0  0  0  0
   -8.9120    3.9920   19.3126 C   0  0  2  0  0  0  0  0  0  0  0  0
  -10.0880    3.2846   19.7024 O   0  0  0  0  0  0  0  0  0  0  0  0
   -5.9830   -0.6411   13.5158 C   0  0  1  0  0  0  0  0  0  0  0  0
   -9.2507    4.9583   18.1830 C   0  0  0  0  0  0  0  0  0  0  0  0
   -9.8428    4.2290   17.1061 O   0  0  0  0  0  0  0  0  0  0  0  0
   -6.5568   -1.8743   12.9484 C   0  0  0  0  0  0  0  0  0  0  0  0
   -6.1572   -3.0923   13.3942 O   0  0  0  0  0  0  0  0  0  0  0  0
   -5.0707   -0.3665   14.4546 N   0  0  0  0  0  0  0  0  0  0  0  0
   -4.9646    0.9922   14.5331 C   0  0  0  0  0  0  0  0  0  0  0  0
   -5.7928    1.6048   13.6610 N   0  0  1  0  0  0  0  0  0  0  0  0
  -10.8142   -2.9184   18.0356 N   0  0  0  0  0  0  0  0  0  0  0  0
  -10.4240    3.5816   14.4541 O   0  5  0  0  0  0  0  0  0  0  0  0
   -9.9144   -2.5072   18.9706 C   0  0  2  0  0  0  0  0  0  0  0  0
   -9.1166   -3.4271   19.5734 N   0  0  0  0  0  0  0  0  0  0  0  0
  -10.8711    6.2379   15.5415 O   0  0  0  0  0  0  0  0  0  0  0  0
   -9.7875   -1.1989   19.3235 N   0  0  0  0  0  0  0  0  0  0  0  0
  -10.5583   -0.2374   18.7633 C   0  0  2  0  0  0  0  0  0  0  0  0
  -11.5461   -0.6193   17.7455 C   0  0  2  0  0  0  0  0  0  0  0  0
  -11.6334   -2.0542   17.3997 C   0  0  0  0  0  0  0  0  0  0  0  0
  -12.5133   -2.5011   16.4699 O   0  0  0  0  0  0  0  0  0  0  0  0
  -12.1564    0.5172   17.3554 N   0  0  0  0  0  0  0  0  0  0  0  0
  -11.6056    1.5432   18.0702 C   0  0  0  0  0  0  0  0  0  0  0  0
  -10.6484    1.0858   18.9089 N   0  0  1  0  0  0  0  0  0  0  0  0
  1  3  1  1  0  0  0
  1  4  2  0  0  0  0
  1  6  1  0  0  0  0
  1 22  1  0  0  0  0
  2 28  1  0  0  0  0
  2 35  1  6  0  0  0
  2 38  2  0  0  0  0
  2 10  1  0  0  0  0
  5  6  1  0  0  0  0
  7  5  1  1  0  0  0
  7  8  1  0  0  0  0
  7  9  1  0  0  0  0
  9 10  1  6  0  0  0
  9 11  1  0  0  0  0
 11 12  1  6  0  0  0
 11 13  1  0  0  0  0
 13  8  1  1  0  0  0
 13 33  1  0  0  0  0
 14 46  1  0  0  0  0
 14 17  1  0  0  0  0
 14 25  1  6  0  0  0
 15 16  1  0  0  0  0
 15 29  1  0  0  0  0
 16 18  1  1  0  0  0
 16 21  1  0  0  0  0
 17 19  1  1  0  0  0
 17 20  1  0  0  0  0
 20 22  1  1  0  0  0
 20 24  1  0  0  0  0
 23 21  1  1  0  0  0
 23 26  1  0  0  0  0
 23 33  1  0  0  0  0
 24 25  1  6  0  0  0
 24 27  1  0  0  0  0
 26 29  1  6  0  0  0
 26 31  1  0  0  0  0
 27 28  1  0  0  0  0
 29 30  2  0  0  0  0
 31 32  1  0  0  0  0
 33 32  1  6  0  0  0
 34 36  1  0  0  0  0
 34 42  1  0  0  0  0
 36 37  1  1  0  0  0
 36 39  1  0  0  0  0
 40 39  1  6  0  0  0
 40 41  1  0  0  0  0
 40 46  1  0  0  0  0
 41 42  1  6  0  0  0
 41 44  1  0  0  0  0
 42 43  2  0  0  0  0
 44 45  1  0  0  0  0
 46 45  1  1  0  0  0
M  CHG  2   3  -1  35  -1
M  END
>  <CHROM.1>
175.46663179,56.47087113,-8.10572477,1.68017105,16.41608827,-2.65572845,-0.97182054
-2.40791679

>  <Name>
ligand

>  <RI>
416

>  <Rbt.Current_Directory>
/home/itssahil/PROJECTS/Mol_Feturizer/Test_systems_manuscript/rnas/3mum

>  <Rbt.Executable>
rbdock ($Id: //depot/dev/client3/rdock/2013.1/src/exe/rbdock.cxx#4 $)

>  <Rbt.Library>
libRbt.so (2013.1, Build901 2013/11/27)

>  <Rbt.Parameter_File>
/export/apps/rDock/src/rDock_2013.1_src/data/scripts/dock_solv.prm

>  <Rbt.Receptor>
prm/pocket_docking_2.prm

>  <SCORE>
-39.9575

>  <SCORE.INTER>
-39.9667

>  <SCORE.INTER.CONST>
1

>  <SCORE.INTER.POLAR>
0

>  <SCORE.INTER.ROT>
2

>  <SCORE.INTER.SOLV>
40.0387

>  <SCORE.INTER.VDW>
-44.924

>  <SCORE.INTER.norm>
-0.868841

>  <SCORE.INTRA>
0.00915072

>  <SCORE.INTRA.DIHEDRAL>
-0.0107892

>  <SCORE.INTRA.DIHEDRAL.0>
2.40424

>  <SCORE.INTRA.POLAR>
0

>  <SCORE.INTRA.POLAR.0>
0

>  <SCORE.INTRA.REPUL>
0

>  <SCORE.INTRA.REPUL.0>
0

>  <SCORE.INTRA.SOLV>
0.00964614

>  <SCORE.INTRA.SOLV.lig_0>
-134.169

>  <SCORE.INTRA.VDW>
0.00972224

>  <SCORE.INTRA.VDW.0>
-2.18386

>  <SCORE.INTRA.norm>
0.000198929

>  <SCORE.RESTR>
0

>  <SCORE.RESTR.CAVITY>
0

>  <SCORE.RESTR.norm>
0

>  <SCORE.SYSTEM>
0

>  <SCORE.SYSTEM.CONST>
0

>  <SCORE.SYSTEM.DIHEDRAL>
0

>  <SCORE.SYSTEM.SOLV>
0

>  <SCORE.SYSTEM.norm>
0

>  <SCORE.heavy>
46

>  <SCORE.norm>
-0.868642

>  <RMSD>
0.227

$$$$
ligand
 OpenBabel02271912143D
libRbt.so/2013.1/901 2013/11/27
 46 52  0  0  0  0  0  0  0  0999 V2000
   -5.2312    2.6276   18.6014 P   0  0  1  0  0  0  0  0  0  0  0  0
   -9.7835    4.7834   15.5509 P   0  0  2  0  0  0  0  0  0  0  0  0
   -5.3212    0.8586   18.6693 O   0  5  0  0  0  0  0  0  0  0  0  0
   -3.7483    3.2409   19.3785 O   0  0  0  0  0  0  0  0  0  0  0  0
   -5.3300    4.4596   16.6891 C   0  0  0  0  0  0  0  0  0  0  0  0
   -5.2794    3.0805   17.0549 O   0  0  0  0  0  0  0  0  0  0  0  0
   -5.8483    4.5642   15.2674 C   0  0  1  0  0  0  0  0  0  0  0  0
   -5.0604    3.7273   14.4090 O   0  0  0  0  0  0  0  0  0  0  0  0
   -7.2789    4.0746   15.1124 C   0  0  1  0  0  0  0  0  0  0  0  0
   -8.2279    5.1247   15.2855 O   0  0  0  0  0  0  0  0  0  0  0  0
   -7.3011    3.5153   13.7008 C   0  0  1  0  0  0  0  0  0  0  0  0
   -7.6369    4.5472   12.7697 O   0  0  0  0  0  0  0  0  0  0  0  0
   -5.8775    3.0643   13.4315 C   0  0  2  0  0  0  0  0  0  0  0  0
   -9.7540    1.8808   19.8114 C   0  0  1  0  0  0  0  0  0  0  0  0
   -7.5659   -1.7793   12.0599 N   0  0  0  0  0  0  0  0  0  0  0  0
   -8.0019   -0.5648   11.6270 C   0  0  1  0  0  0  0  0  0  0  0  0
   -8.2922    1.6645   19.5402 C   0  0  2  0  0  0  0  0  0  0  0  0
   -9.0058   -0.5315   10.7205 N   0  0  0  0  0  0  0  0  0  0  0  0
   -7.6652    1.4973   20.8130 O   0  0  0  0  0  0  0  0  0  0  0  0
   -7.8372    2.9312   18.8430 C   0  0  2  0  0  0  0  0  0  0  0  0
   -7.4709    0.6130   12.0714 N   0  0  0  0  0  0  0  0  0  0  0  0
   -6.5318    3.3165   19.2517 O   0  0  0  0  0  0  0  0  0  0  0  0
   -6.4616    0.6333   12.9784 C   0  0  2  0  0  0  0  0  0  0  0  0
   -8.8440    3.9863   19.2573 C   0  0  2  0  0  0  0  0  0  0  0  0
  -10.0144    3.2754   19.6573 O   0  0  0  0  0  0  0  0  0  0  0  0
   -5.9544   -0.6548   13.4823 C   0  0  1  0  0  0  0  0  0  0  0  0
   -9.1941    4.9470   18.1264 C   0  0  0  0  0  0  0  0  0  0  0  0
   -9.7898    4.2112   17.0560 O   0  0  0  0  0  0  0  0  0  0  0  0
   -6.5670   -1.8914   12.9649 C   0  0  0  0  0  0  0  0  0  0  0  0
   -6.1410   -3.1066   13.3939 O   0  0  0  0  0  0  0  0  0  0  0  0
   -4.9812   -0.3744   14.3560 N   0  0  0  0  0  0  0  0  0  0  0  0
   -4.8675    0.9846   14.4153 C   0  0  0  0  0  0  0  0  0  0  0  0
   -5.7506    1.5917   13.5947 N   0  0  1  0  0  0  0  0  0  0  0  0
  -10.8172   -2.9510   18.1112 N   0  0  0  0  0  0  0  0  0  0  0  0
  -10.3851    3.5515   14.4102 O   0  5  0  0  0  0  0  0  0  0  0  0
   -9.9242   -2.5349   19.0505 C   0  0  2  0  0  0  0  0  0  0  0  0
   -9.1595   -3.4559   19.6930 N   0  0  0  0  0  0  0  0  0  0  0  0
  -10.8368    6.2099   15.4906 O   0  0  0  0  0  0  0  0  0  0  0  0
   -9.7721   -1.2204   19.3691 N   0  0  0  0  0  0  0  0  0  0  0  0
  -10.5096   -0.2574   18.7685 C   0  0  2  0  0  0  0  0  0  0  0  0
  -11.4884   -0.6445   17.7440 C   0  0  2  0  0  0  0  0  0  0  0  0
  -11.6042   -2.0861   17.4368 C   0  0  0  0  0  0  0  0  0  0  0  0
  -12.4783   -2.5383   16.5040 O   0  0  0  0  0  0  0  0  0  0  0  0
  -12.0643    0.4946   17.3114 N   0  0  0  0  0  0  0  0  0  0  0  0
  -11.5016    1.5272   18.0072 C   0  0  0  0  0  0  0  0  0  0  0  0
  -10.5704    1.0713   18.8755 N   0  0  1  0  0  0  0  0  0  0  0  0
  1  3  1  1  0  0  0
  1  4  2  0  0  0  0
  1  6  1  0  0  0  0
  1 22  1  0  0  0  0
  2 28  1  0  0  0  0
  2 35  1  6  0  0  0
  2 38  2  0  0  0  0
  2 10  1  0  0  0  0
  5  6  1  0  0  0  0
  7  5  1  1  0  0  0
  7  8  1  0  0  0  0
  7  9  1  0  0  0  0
  9 10  1  6  0  0  0
  9 11  1  0  0  0  0
 11 12  1  6  0  0  0
 11 13  1  0  0  0  0
 13  8  1  1  0  0  0
 13 33  1  0  0  0  0
 14 46  1  0  0  0  0
 14 17  1  0  0  0  0
 14 25  1  6  0  0  0
 15 16  1  0  0  0  0
 15 29  1  0  0  0  0
 16 18  1  1  0  0  0
 16 21  1  0  0  0  0
 17 19  1  1  0  0  0
 17 20  1  0  0  0  0
 20 22  1  1  0  0  0
 20 24  1  0  0  0  0
 23 21  1  1  0  0  0
 23 26  1  0  0  0  0
 23 33  1  0  0  0  0
 24 25  1  6  0  0  0
 24 27  1  0  0  0  0
 26 29  1  6  0  0  0
 26 31  1  0  0  0  0
 27 28  1  0  0  0  0
 29 30  2  0  0  0  0
 31 32  1  0  0  0  0
 33 32  1  6  0  0  0
 34 36  1  0  0  0  0
 34 42  1  0  0  0  0
 36 37  1  1  0  0  0
 36 39  1  0  0  0  0
 40 39  1  6  0  0  0
 40 41  1  0  0  0  0
 40 46  1  0  0  0  0
 41 42  1  6  0  0  0
 41 44  1  0  0  0  0
 42 43  2  0  0  0  0
 44 45  1  0  0  0  0
 46 45  1  1  0  0  0
M  CHG  2   3  -1  35  -1
M  END
>  <CHROM.1>
171.99389825,59.01412979,-8.06916745,1.66616726,16.38776319,-0.33140216,0.97520390
0.74963926

>  <Name>
ligand

>  <RI>
416

>  <Rbt.Current_Directory>
/home/itssahil/PROJECTS/Mol_Feturizer/Test_systems_manuscript/rnas/3mum

>  <Rbt.Executable>
rbdock ($Id: //depot/dev/client3/rdock/2013.1/src/exe/rbdock.cxx#4 $)

>  <Rbt.Library>
libRbt.so (2013.1, Build901 2013/11/27)

>  <Rbt.Parameter_File>
/export/apps/rDock/src/rDock_2013.1_src/data/scripts/dock_solv.prm

>  <Rbt.Receptor>
prm/pocket_docking_3.prm

>  <SCORE>
-39.5061

>  <SCORE.INTER>
-39.5421

>  <SCORE.INTER.CONST>
1

>  <SCORE.INTER.POLAR>
0

>  <SCORE.INTER.ROT>
2

>  <SCORE.INTER.SOLV>
40.4778

>  <SCORE.INTER.VDW>
-44.7874

>  <SCORE.INTER.norm>
-0.859612

>  <SCORE.INTRA>
0.0360331

>  <SCORE.INTRA.DIHEDRAL>
-0.00777746

>  <SCORE.INTRA.DIHEDRAL.0>
2.40424

>  <SCORE.INTRA.POLAR>
0

>  <SCORE.INTRA.POLAR.0>
0

>  <SCORE.INTRA.REPUL>
0

>  <SCORE.INTRA.REPUL.0>
0

>  <SCORE.INTRA.SOLV>
0.00708815

>  <SCORE.INTRA.SOLV.lig_0>
-134.169

>  <SCORE.INTRA.VDW>
0.0363777

>  <SCORE.INTRA.VDW.0>
-2.18386

>  <SCORE.INTRA.norm>
0.000783327

>  <SCORE.RESTR>
0

>  <SCORE.RESTR.CAVITY>
0

>  <SCORE.RESTR.norm>
0

>  <SCORE.SYSTEM>
0

>  <SCORE.SYSTEM.CONST>
0

>  <SCORE.SYSTEM.DIHEDRAL>
0

>  <SCORE.SYSTEM.SOLV>
0

>  <SCORE.SYSTEM.norm>
0

>  <SCORE.heavy>
46

>  <SCORE.norm>
-0.858828

>  <RMSD>
0.228

$$$$
ligand
 OpenBabel02271912143D
libRbt.so/2013.1/901 2013/11/27
 46 52  0  0  0  0  0  0  0  0999 V2000
   -5.2170    2.6125   18.6627 P   0  0  1  0  0  0  0  0  0  0  0  0
   -9.7472    4.8322   15.6251 P   0  0  2  0  0  0  0  0  0  0  0  0
   -5.3210    0.8438   18.7142 O   0  5  0  0  0  0  0  0  0  0  0  0
   -3.7305    3.2070   19.4476 O   0  0  0  0  0  0  0  0  0  0  0  0
   -5.2983    4.4627   16.7670 C   0  0  0  0  0  0  0  0  0  0  0  0
   -5.2592    3.0799   17.1202 O   0  0  0  0  0  0  0  0  0  0  0  0
   -5.8135    4.5844   15.3455 C   0  0  1  0  0  0  0  0  0  0  0  0
   -5.0308    3.7492   14.4807 O   0  0  0  0  0  0  0  0  0  0  0  0
   -7.2477    4.1075   15.1839 C   0  0  1  0  0  0  0  0  0  0  0  0
   -8.1886    5.1635   15.3651 O   0  0  0  0  0  0  0  0  0  0  0  0
   -7.2720    3.5614   13.7672 C   0  0  1  0  0  0  0  0  0  0  0  0
   -7.5982    4.6044   12.8451 O   0  0  0  0  0  0  0  0  0  0  0  0
   -5.8516    3.1016   13.4960 C   0  0  2  0  0  0  0  0  0  0  0  0
   -9.7474    1.8906   19.8589 C   0  0  1  0  0  0  0  0  0  0  0  0
   -7.5469   -1.7167   12.0459 N   0  0  0  0  0  0  0  0  0  0  0  0
   -7.9680   -0.4950   11.6185 C   0  0  1  0  0  0  0  0  0  0  0  0
   -8.2870    1.6652   19.5879 C   0  0  2  0  0  0  0  0  0  0  0  0
   -8.9564   -0.4459   10.6958 N   0  0  0  0  0  0  0  0  0  0  0  0
   -7.6634    1.4814   20.8601 O   0  0  0  0  0  0  0  0  0  0  0  0
   -7.8209    2.9346   18.9030 C   0  0  2  0  0  0  0  0  0  0  0  0
   -7.4373    0.6747   12.0840 N   0  0  0  0  0  0  0  0  0  0  0  0
   -6.5132    3.3057   19.3172 O   0  0  0  0  0  0  0  0  0  0  0  0
   -6.4432    0.6792   13.0078 C   0  0  2  0  0  0  0  0  0  0  0  0
   -8.8200    3.9938   19.3255 C   0  0  2  0  0  0  0  0  0  0  0  0
   -9.9966    3.2885   19.7171 O   0  0  0  0  0  0  0  0  0  0  0  0
   -5.9525   -0.6173   13.5066 C   0  0  1  0  0  0  0  0  0  0  0  0
   -9.1607    4.9675   18.2029 C   0  0  0  0  0  0  0  0  0  0  0  0
   -9.7605    4.2463   17.1248 O   0  0  0  0  0  0  0  0  0  0  0  0
   -6.5640   -1.8445   12.9663 C   0  0  0  0  0  0  0  0  0  0  0  0
   -6.1528   -3.0667   13.3896 O   0  0  0  0  0  0  0  0  0  0  0  0
   -4.9923   -0.3522   14.3993 N   0  0  0  0  0  0  0  0  0  0  0  0
   -4.8712    1.0055   14.4747 C   0  0  0  0  0  0  0  0  0  0  0  0
   -5.7366    1.6266   13.6459 N   0  0  1  0  0  0  0  0  0  0  0  0
  -10.8757   -2.9204   18.1416 N   0  0  0  0  0  0  0  0  0  0  0  0
  -10.3568    3.6155   14.4722 O   0  5  0  0  0  0  0  0  0  0  0  0
   -9.9844   -2.5205   19.0895 C   0  0  2  0  0  0  0  0  0  0  0  0
   -9.2410   -3.4551   19.7375 N   0  0  0  0  0  0  0  0  0  0  0  0
  -10.7892    6.2674   15.5762 O   0  0  0  0  0  0  0  0  0  0  0  0
   -9.8133   -1.2093   19.4115 N   0  0  0  0  0  0  0  0  0  0  0  0
  -10.5292   -0.2332   18.8058 C   0  0  2  0  0  0  0  0  0  0  0  0
  -11.5050   -0.6025   17.7719 C   0  0  2  0  0  0  0  0  0  0  0  0
  -11.6421   -2.0415   17.4615 C   0  0  0  0  0  0  0  0  0  0  0  0
  -12.5151   -2.4777   16.5201 O   0  0  0  0  0  0  0  0  0  0  0  0
  -12.0579    0.5467   17.3359 N   0  0  0  0  0  0  0  0  0  0  0  0
  -11.4843    1.5687   18.0384 C   0  0  0  0  0  0  0  0  0  0  0  0
  -10.5688    1.0961   18.9143 N   0  0  1  0  0  0  0  0  0  0  0  0
  1  3  1  1  0  0  0
  1  4  2  0  0  0  0
  1  6  1  0  0  0  0
  1 22  1  0  0  0  0
  2 28  1  0  0  0  0
  2 35  1  6  0  0  0
  2 38  2  0  0  0  0
  2 10  1  0  0  0  0
  5  6  1  0  0  0  0
  7  5  1  1  0  0  0
  7  8  1  0  0  0  0
  7  9  1  0  0  0  0
  9 10  1  6  0  0  0
  9 11  1  0  0  0  0
 11 12  1  6  0  0  0
 11 13  1  0  0  0  0
 13  8  1  1  0  0  0
 13 33  1  0  0  0  0
 14 46  1  0  0  0  0
 14 17  1  0  0  0  0
 14 25  1  6  0  0  0
 15 16  1  0  0  0  0
 15 29  1  0  0  0  0
 16 18  1  1  0  0  0
 16 21  1  0  0  0  0
 17 19  1  1  0  0  0
 17 20  1  0  0  0  0
 20 22  1  1  0  0  0
 20 24  1  0  0  0  0
 23 21  1  1  0  0  0
 23 26  1  0  0  0  0
 23 33  1  0  0  0  0
 24 25  1  6  0  0  0
 24 27  1  0  0  0  0
 26 29  1  6  0  0  0
 26 31  1  0  0  0  0
 27 28  1  0  0  0  0
 29 30  2  0  0  0  0
 31 32  1  0  0  0  0
 33 32  1  6  0  0  0
 34 36  1  0  0  0  0
 34 42  1  0  0  0  0
 36 37  1  1  0  0  0
 36 39  1  0  0  0  0
 40 39  1  6  0  0  0
 40 41  1  0  0  0  0
 40 46  1  0  0  0  0
 41 42  1  6  0  0  0
 41 44  1  0  0  0  0
 42 43  2  0  0  0  0
 44 45  1  0  0  0  0
 46 45  1  1  0  0  0
M  CHG  2   3  -1  35  -1
M  END
>  <CHROM.1>
172.87006109,59.80721451,-8.05905618,1.69343203,16.43568660,-0.35252335,0.96845242
0.76547795

>  <Name>
ligand

>  <RI>
416

>  <Rbt.Current_Directory>
/home/itssahil/PROJECTS/Mol_Feturizer/Test_systems_manuscript/rnas/3mum

>  <Rbt.Executable>
rbdock ($Id: //depot/dev/client3/rdock/2013.1/src/exe/rbdock.cxx#4 $)

>  <Rbt.Library>
libRbt.so (2013.1, Build901 2013/11/27)

>  <Rbt.Parameter_File>
/export/apps/rDock/src/rDock_2013.1_src/data/scripts/dock_solv.prm

>  <Rbt.Receptor>
prm/pocket_docking_3.prm

>  <SCORE>
-39.5822

>  <SCORE.INTER>
-39.6013

>  <SCORE.INTER.CONST>
1

>  <SCORE.INTER.POLAR>
0

>  <SCORE.INTER.ROT>
2

>  <SCORE.INTER.SOLV>
40.1174

>  <SCORE.INTER.VDW>
-44.7067

>  <SCORE.INTER.norm>
-0.860898

>  <SCORE.INTRA>
0.0191398

>  <SCORE.INTRA.DIHEDRAL>
-0.00648148

>  <SCORE.INTRA.DIHEDRAL.0>
2.40424

>  <SCORE.INTRA.POLAR>
0

>  <SCORE.INTRA.POLAR.0>
0

>  <SCORE.INTRA.REPUL>
0

>  <SCORE.INTRA.REPUL.0>
0

>  <SCORE.INTRA.SOLV>
0.00541243

>  <SCORE.INTRA.SOLV.lig_0>
-134.169

>  <SCORE.INTRA.VDW>
0.0196743

>  <SCORE.INTRA.VDW.0>
-2.18386

>  <SCORE.INTRA.norm>
0.000416082

>  <SCORE.RESTR>
0

>  <SCORE.RESTR.CAVITY>
0

>  <SCORE.RESTR.norm>
0

>  <SCORE.SYSTEM>
0

>  <SCORE.SYSTEM.CONST>
0

>  <SCORE.SYSTEM.DIHEDRAL>
0

>  <SCORE.SYSTEM.SOLV>
0

>  <SCORE.SYSTEM.norm>
0

>  <SCORE.heavy>
46

>  <SCORE.norm>
-0.860482

>  <RMSD>
0.230

$$$$
ligand
 OpenBabel02271912143D
libRbt.so/2013.1/901 2013/11/27
 46 52  0  0  0  0  0  0  0  0999 V2000
   -5.2562    2.5540   18.6530 P   0  0  1  0  0  0  0  0  0  0  0  0
   -9.7406    4.8283   15.5880 P   0  0  2  0  0  0  0  0  0  0  0  0
   -5.4042    0.7897   18.7386 O   0  5  0  0  0  0  0  0  0  0  0  0
   -3.7524    3.1258   19.4217 O   0  0  0  0  0  0  0  0  0  0  0  0
   -5.2981    4.3692   16.7226 C   0  0  0  0  0  0  0  0  0  0  0  0
   -5.2923    2.9929   17.1021 O   0  0  0  0  0  0  0  0  0  0  0  0
   -5.8153    4.4767   15.3007 C   0  0  1  0  0  0  0  0  0  0  0  0
   -5.0569    3.6059   14.4495 O   0  0  0  0  0  0  0  0  0  0  0  0
   -7.2616    4.0330   15.1528 C   0  0  1  0  0  0  0  0  0  0  0  0
   -8.1751    5.1155   15.3168 O   0  0  0  0  0  0  0  0  0  0  0  0
   -7.3047    3.4608   13.7468 C   0  0  1  0  0  0  0  0  0  0  0  0
   -7.6081    4.4939   12.8060 O   0  0  0  0  0  0  0  0  0  0  0  0
   -5.8972    2.9605   13.4799 C   0  0  2  0  0  0  0  0  0  0  0  0
   -9.7989    1.9688   19.8772 C   0  0  1  0  0  0  0  0  0  0  0  0
   -7.4331   -1.8575   11.8609 N   0  0  0  0  0  0  0  0  0  0  0  0
   -7.7805   -0.6367   11.3695 C   0  0  1  0  0  0  0  0  0  0  0  0
   -8.3455    1.7016   19.6059 C   0  0  2  0  0  0  0  0  0  0  0  0
   -8.6360   -0.5884   10.3224 N   0  0  0  0  0  0  0  0  0  0  0  0
   -7.7220    1.5265   20.8794 O   0  0  0  0  0  0  0  0  0  0  0  0
   -7.8503    2.9458   18.8955 C   0  0  2  0  0  0  0  0  0  0  0  0
   -7.3048    0.5331   11.8910 N   0  0  0  0  0  0  0  0  0  0  0  0
   -6.5322    3.2918   19.2983 O   0  0  0  0  0  0  0  0  0  0  0  0
   -6.4432    0.5384   12.9395 C   0  0  2  0  0  0  0  0  0  0  0  0
   -8.8210    4.0375   19.3008 C   0  0  2  0  0  0  0  0  0  0  0  0
  -10.0135    3.3695   19.7095 O   0  0  0  0  0  0  0  0  0  0  0  0
   -6.0371   -0.7571   13.5116 C   0  0  1  0  0  0  0  0  0  0  0  0
   -9.1414    4.9979   18.1608 C   0  0  0  0  0  0  0  0  0  0  0  0
   -9.7630    4.2716   17.0987 O   0  0  0  0  0  0  0  0  0  0  0  0
   -6.5836   -1.9844   12.9057 C   0  0  0  0  0  0  0  0  0  0  0  0
   -6.2454   -3.2057   13.3916 O   0  0  0  0  0  0  0  0  0  0  0  0
   -5.2024   -0.4911   14.5223 N   0  0  0  0  0  0  0  0  0  0  0  0
   -5.0784    0.8661   14.6006 C   0  0  0  0  0  0  0  0  0  0  0  0
   -5.8186    1.4862   13.6576 N   0  0  1  0  0  0  0  0  0  0  0  0
  -10.6291   -2.7585   17.7958 N   0  0  0  0  0  0  0  0  0  0  0  0
  -10.3846    3.6057   14.4605 O   0  5  0  0  0  0  0  0  0  0  0  0
   -9.6748   -2.3496   18.6762 C   0  0  2  0  0  0  0  0  0  0  0  0
   -8.7664   -3.2497   19.1352 N   0  0  0  0  0  0  0  0  0  0  0  0
  -10.7465    6.2880   15.5151 O   0  0  0  0  0  0  0  0  0  0  0  0
   -9.6009   -1.0632   19.1142 N   0  0  0  0  0  0  0  0  0  0  0  0
  -10.4813   -0.1229   18.6982 C   0  0  2  0  0  0  0  0  0  0  0  0
  -11.5326   -0.5031   17.7455 C   0  0  2  0  0  0  0  0  0  0  0  0
  -11.5583   -1.9132   17.3015 C   0  0  0  0  0  0  0  0  0  0  0  0
  -12.4900   -2.3564   16.4217 O   0  0  0  0  0  0  0  0  0  0  0  0
  -12.2491    0.6111   17.4975 N   0  0  0  0  0  0  0  0  0  0  0  0
  -11.7020    1.6220   18.2363 C   0  0  0  0  0  0  0  0  0  0  0  0
  -10.6432    1.1773   18.9506 N   0  0  1  0  0  0  0  0  0  0  0  0
  1  3  1  1  0  0  0
  1  4  2  0  0  0  0
  1  6  1  0  0  0  0
  1 22  1  0  0  0  0
  2 28  1  0  0  0  0
  2 35  1  6  0  0  0
  2 38  2  0  0  0  0
  2 10  1  0  0  0  0
  5  6  1  0  0  0  0
  7  5  1  1  0  0  0
  7  8  1  0  0  0  0
  7  9  1  0  0  0  0
  9 10  1  6  0  0  0
  9 11  1  0  0  0  0
 11 12  1  6  0  0  0
 11 13  1  0  0  0  0
 13  8  1  1  0  0  0
 13 33  1  0  0  0  0
 14 46  1  0  0  0  0
 14 17  1  0  0  0  0
 14 25  1  6  0  0  0
 15 16  1  0  0  0  0
 15 29  1  0  0  0  0
 16 18  1  1  0  0  0
 16 21  1  0  0  0  0
 17 19  1  1  0  0  0
 17 20  1  0  0  0  0
 20 22  1  1  0  0  0
 20 24  1  0  0  0  0
 23 21  1  1  0  0  0
 23 26  1  0  0  0  0
 23 33  1  0  0  0  0
 24 25  1  6  0  0  0
 24 27  1  0  0  0  0
 26 29  1  6  0  0  0
 26 31  1  0  0  0  0
 27 28  1  0  0  0  0
 29 30  2  0  0  0  0
 31 32  1  0  0  0  0
 33 32  1  6  0  0  0
 34 36  1  0  0  0  0
 34 42  1  0  0  0  0
 36 37  1  1  0  0  0
 36 39  1  0  0  0  0
 40 39  1  6  0  0  0
 40 41  1  0  0  0  0
 40 46  1  0  0  0  0
 41 42  1  6  0  0  0
 41 44  1  0  0  0  0
 42 43  2  0  0  0  0
 44 45  1  0  0  0  0
 46 45  1  1  0  0  0
M  CHG  2   3  -1  35  -1
M  END
>  <CHROM.1>
-179.17639575,47.65506086,-8.05121981,1.67170442,16.37389883,-2.26939030
-0.96177526,-2.42160121

>  <Name>
ligand

>  <RI>
416

>  <Rbt.Current_Directory>
/home/itssahil/PROJECTS/Mol_Feturizer/Test_systems_manuscript/rnas/3mum

>  <Rbt.Executable>
rbdock ($Id: //depot/dev/client3/rdock/2013.1/src/exe/rbdock.cxx#4 $)

>  <Rbt.Library>
libRbt.so (2013.1, Build901 2013/11/27)

>  <Rbt.Parameter_File>
/export/apps/rDock/src/rDock_2013.1_src/data/scripts/dock_solv.prm

>  <Rbt.Receptor>
prm/pocket_docking_2.prm

>  <SCORE>
-40.276

>  <SCORE.INTER>
-40.363

>  <SCORE.INTER.CONST>
1

>  <SCORE.INTER.POLAR>
0

>  <SCORE.INTER.ROT>
2

>  <SCORE.INTER.SOLV>
39.097

>  <SCORE.INTER.VDW>
-44.8743

>  <SCORE.INTER.norm>
-0.877457

>  <SCORE.INTRA>
0.087049

>  <SCORE.INTRA.DIHEDRAL>
-0.0212042

>  <SCORE.INTRA.DIHEDRAL.0>
2.40424

>  <SCORE.INTRA.POLAR>
0

>  <SCORE.INTRA.POLAR.0>
0

>  <SCORE.INTRA.REPUL>
0

>  <SCORE.INTRA.REPUL.0>
0

>  <SCORE.INTRA.SOLV>
0.0196696

>  <SCORE.INTRA.SOLV.lig_0>
-134.169

>  <SCORE.INTRA.VDW>
0.0878163

>  <SCORE.INTRA.VDW.0>
-2.18386

>  <SCORE.INTRA.norm>
0.00189237

>  <SCORE.RESTR>
0

>  <SCORE.RESTR.CAVITY>
0

>  <SCORE.RESTR.norm>
0

>  <SCORE.SYSTEM>
0

>  <SCORE.SYSTEM.CONST>
0

>  <SCORE.SYSTEM.DIHEDRAL>
0

>  <SCORE.SYSTEM.SOLV>
0

>  <SCORE.SYSTEM.norm>
0

>  <SCORE.heavy>
46

>  <SCORE.norm>
-0.875565

>  <RMSD>
0.231

$$$$
ligand
 OpenBabel02271912143D
libRbt.so/2013.1/901 2013/11/27
 46 52  0  0  0  0  0  0  0  0999 V2000
   -5.3082    2.6134   18.6671 P   0  0  1  0  0  0  0  0  0  0  0  0
   -9.8174    4.8210   15.5898 P   0  0  2  0  0  0  0  0  0  0  0  0
   -5.4303    0.8471   18.7524 O   0  5  0  0  0  0  0  0  0  0  0  0
   -3.8152    3.2074   19.4400 O   0  0  0  0  0  0  0  0  0  0  0  0
   -5.3718    4.4279   16.7366 C   0  0  0  0  0  0  0  0  0  0  0  0
   -5.3465    3.0517   17.1161 O   0  0  0  0  0  0  0  0  0  0  0  0
   -5.8866    4.5277   15.3133 C   0  0  1  0  0  0  0  0  0  0  0  0
   -5.1131    3.6682   14.4642 O   0  0  0  0  0  0  0  0  0  0  0  0
   -7.3257    4.0626   15.1614 C   0  0  1  0  0  0  0  0  0  0  0  0
   -8.2556    5.1314   15.3229 O   0  0  0  0  0  0  0  0  0  0  0  0
   -7.3565    3.4898   13.7554 C   0  0  1  0  0  0  0  0  0  0  0  0
   -7.6726    4.5184   12.8137 O   0  0  0  0  0  0  0  0  0  0  0  0
   -5.9410    3.0104   13.4923 C   0  0  2  0  0  0  0  0  0  0  0  0
   -9.8450    1.9608   19.8789 C   0  0  1  0  0  0  0  0  0  0  0  0
   -7.4083   -1.8295   11.8752 N   0  0  0  0  0  0  0  0  0  0  0  0
   -7.7736   -0.6139   11.3839 C   0  0  1  0  0  0  0  0  0  0  0  0
   -8.3871    1.7153   19.6116 C   0  0  2  0  0  0  0  0  0  0  0  0
   -8.6304   -0.5782   10.3373 N   0  0  0  0  0  0  0  0  0  0  0  0
   -7.7646    1.5494   20.8868 O   0  0  0  0  0  0  0  0  0  0  0  0
   -7.9085    2.9666   18.9025 C   0  0  2  0  0  0  0  0  0  0  0  0
   -7.3144    0.5627   11.9048 N   0  0  0  0  0  0  0  0  0  0  0  0
   -6.5968    3.3321   19.3089 O   0  0  0  0  0  0  0  0  0  0  0  0
   -6.4524    0.5806   12.9528 C   0  0  2  0  0  0  0  0  0  0  0  0
   -8.8964    4.0439   19.3051 C   0  0  2  0  0  0  0  0  0  0  0  0
  -10.0800    3.3582   19.7106 O   0  0  0  0  0  0  0  0  0  0  0  0
   -6.0272   -0.7087   13.5248 C   0  0  1  0  0  0  0  0  0  0  0  0
   -9.2279    4.9994   18.1643 C   0  0  0  0  0  0  0  0  0  0  0  0
   -9.8357    4.2640   17.1005 O   0  0  0  0  0  0  0  0  0  0  0  0
   -6.5563   -1.9439   12.9195 C   0  0  0  0  0  0  0  0  0  0  0  0
   -6.2002   -3.1601   13.4055 O   0  0  0  0  0  0  0  0  0  0  0  0
   -5.1958   -0.4306   14.5349 N   0  0  0  0  0  0  0  0  0  0  0  0
   -5.0913    0.9283   14.6129 C   0  0  0  0  0  0  0  0  0  0  0  0
   -5.8410    1.5375   13.6703 N   0  0  1  0  0  0  0  0  0  0  0  0
  -10.6116   -2.7827   17.8102 N   0  0  0  0  0  0  0  0  0  0  0  0
  -10.4401    3.5890   14.4606 O   0  5  0  0  0  0  0  0  0  0  0  0
   -9.6673   -2.3604   18.6950 C   0  0  2  0  0  0  0  0  0  0  0  0
   -8.7523   -3.2490   19.1632 N   0  0  0  0  0  0  0  0  0  0  0  0
  -10.8447    6.2657   15.5141 O   0  0  0  0  0  0  0  0  0  0  0  0
   -9.6099   -1.0717   19.1287 N   0  0  0  0  0  0  0  0  0  0  0  0
  -10.4976   -0.1424   18.7036 C   0  0  2  0  0  0  0  0  0  0  0  0
  -11.5388   -0.5373   17.7457 C   0  0  2  0  0  0  0  0  0  0  0  0
  -11.5467   -1.9493   17.3069 C   0  0  0  0  0  0  0  0  0  0  0  0
  -12.4680   -2.4057   16.4229 O   0  0  0  0  0  0  0  0  0  0  0  0
  -12.2655    0.5683   17.4889 N   0  0  0  0  0  0  0  0  0  0  0  0
  -11.7339    1.5876   18.2274 C   0  0  0  0  0  0  0  0  0  0  0  0
  -10.6750    1.1569   18.9500 N   0  0  1  0  0  0  0  0  0  0  0  0
  1  3  1  1  0  0  0
  1  4  2  0  0  0  0
  1  6  1  0  0  0  0
  1 22  1  0  0  0  0
  2 28  1  0  0  0  0
  2 35  1  6  0  0  0
  2 38  2  0  0  0  0
  2 10  1  0  0  0  0
  5  6  1  0  0  0  0
  7  5  1  1  0  0  0
  7  8  1  0  0  0  0
  7  9  1  0  0  0  0
  9 10  1  6  0  0  0
  9 11  1  0  0  0  0
 11 12  1  6  0  0  0
 11 13  1  0  0  0  0
 13  8  1  1  0  0  0
 13 33  1  0  0  0  0
 14 46  1  0  0  0  0
 14 17  1  0  0  0  0
 14 25  1  6  0  0  0
 15 16  1  0  0  0  0
 15 29  1  0  0  0  0
 16 18  1  1  0  0  0
 16 21  1  0  0  0  0
 17 19  1  1  0  0  0
 17 20  1  0  0  0  0
 20 22  1  1  0  0  0
 20 24  1  0  0  0  0
 23 21  1  1  0  0  0
 23 26  1  0  0  0  0
 23 33  1  0  0  0  0
 24 25  1  6  0  0  0
 24 27  1  0  0  0  0
 26 29  1  6  0  0  0
 26 31  1  0  0  0  0
 27 28  1  0  0  0  0
 29 30  2  0  0  0  0
 31 32  1  0  0  0  0
 33 32  1  6  0  0  0
 34 36  1  0  0  0  0
 34 42  1  0  0  0  0
 36 37  1  1  0  0  0
 36 39  1  0  0  0  0
 40 39  1  6  0  0  0
 40 41  1  0  0  0  0
 40 46  1  0  0  0  0
 41 42  1  6  0  0  0
 41 44  1  0  0  0  0
 42 43  2  0  0  0  0
 44 45  1  0  0  0  0
 46 45  1  1  0  0  0
M  CHG  2   3  -1  35  -1
M  END
>  <CHROM.1>
-179.37278238,48.03597111,-8.08572932,1.68933368,16.38270031,-2.30262974
-0.96952975,-2.43903695

>  <Name>
ligand

>  <RI>
-1

>  <Rbt.Current_Directory>
/home/itssahil/PROJECTS/Mol_Feturizer/Test_systems_manuscript/rnas/3mum

>  <Rbt.Executable>
rbdock ($Id: //depot/dev/client3/rdock/2013.1/src/exe/rbdock.cxx#4 $)

>  <Rbt.Library>
libRbt.so (2013.1, Build901 2013/11/27)

>  <Rbt.Parameter_File>
/export/apps/rDock/src/rDock_2013.1_src/data/scripts/dock_solv.prm

>  <Rbt.Receptor>
prm/pocket_docking_6.prm

>  <SCORE>
-40.3404

>  <SCORE.INTER>
-40.4391

>  <SCORE.INTER.CONST>
1

>  <SCORE.INTER.POLAR>
0

>  <SCORE.INTER.ROT>
2

>  <SCORE.INTER.SOLV>
39.0937

>  <SCORE.INTER.VDW>
-44.9239

>  <SCORE.INTER.norm>
-0.87911

>  <SCORE.INTRA>
0.0986555

>  <SCORE.INTRA.DIHEDRAL>
-0.0208068

>  <SCORE.INTRA.DIHEDRAL.0>
2.40424

>  <SCORE.INTRA.POLAR>
0

>  <SCORE.INTRA.POLAR.0>
0

>  <SCORE.INTRA.REPUL>
0

>  <SCORE.INTRA.REPUL.0>
0

>  <SCORE.INTRA.SOLV>
0.0192799

>  <SCORE.INTRA.SOLV.lig_0>
-134.169

>  <SCORE.INTRA.VDW>
0.099419

>  <SCORE.INTRA.VDW.0>
-2.18386

>  <SCORE.INTRA.norm>
0.00214469

>  <SCORE.RESTR>
0

>  <SCORE.RESTR.CAVITY>
0

>  <SCORE.RESTR.norm>
0

>  <SCORE.SYSTEM>
0

>  <SCORE.SYSTEM.CONST>
0

>  <SCORE.SYSTEM.DIHEDRAL>
0

>  <SCORE.SYSTEM.SOLV>
0

>  <SCORE.SYSTEM.norm>
0

>  <SCORE.heavy>
46

>  <SCORE.norm>
-0.876966

>  <RMSD>
0.231

$$$$
ligand
 OpenBabel02271912143D
libRbt.so/2013.1/901 2013/11/27
 46 52  0  0  0  0  0  0  0  0999 V2000
   -5.1650    2.5648   18.6645 P   0  0  1  0  0  0  0  0  0  0  0  0
   -9.6830    4.8296   15.6422 P   0  0  2  0  0  0  0  0  0  0  0  0
   -5.2828    0.7968   18.7105 O   0  5  0  0  0  0  0  0  0  0  0  0
   -3.6725    3.1450   19.4487 O   0  0  0  0  0  0  0  0  0  0  0  0
   -5.2352    4.4217   16.7750 C   0  0  0  0  0  0  0  0  0  0  0  0
   -5.2062    3.0375   17.1237 O   0  0  0  0  0  0  0  0  0  0  0  0
   -5.7519    4.5520   15.3548 C   0  0  1  0  0  0  0  0  0  0  0  0
   -4.9773    3.7135   14.4859 O   0  0  0  0  0  0  0  0  0  0  0  0
   -7.1900    4.0869   15.1942 C   0  0  1  0  0  0  0  0  0  0  0  0
   -8.1223    5.1496   15.3805 O   0  0  0  0  0  0  0  0  0  0  0  0
   -7.2211    3.5456   13.7758 C   0  0  1  0  0  0  0  0  0  0  0  0
   -7.5407    4.5941   12.8576 O   0  0  0  0  0  0  0  0  0  0  0  0
   -5.8048    3.0756   13.5005 C   0  0  2  0  0  0  0  0  0  0  0  0
   -9.6989    1.8744   19.8665 C   0  0  1  0  0  0  0  0  0  0  0  0
   -7.5354   -1.7247   12.0327 N   0  0  0  0  0  0  0  0  0  0  0  0
   -7.9469   -0.4985   11.6092 C   0  0  1  0  0  0  0  0  0  0  0  0
   -8.2407    1.6384   19.5921 C   0  0  2  0  0  0  0  0  0  0  0  0
   -8.9342   -0.4387   10.6859 N   0  0  0  0  0  0  0  0  0  0  0  0
   -7.6163    1.4456   20.8626 O   0  0  0  0  0  0  0  0  0  0  0  0
   -7.7659    2.9064   18.9106 C   0  0  2  0  0  0  0  0  0  0  0  0
   -7.4077    0.6656   12.0791 N   0  0  0  0  0  0  0  0  0  0  0  0
   -6.4546    3.2659   19.3236 O   0  0  0  0  0  0  0  0  0  0  0  0
   -6.4143    0.6594   13.0036 C   0  0  2  0  0  0  0  0  0  0  0  0
   -8.7559    3.9720   19.3382 C   0  0  2  0  0  0  0  0  0  0  0  0
   -9.9373    3.2746   19.7296 O   0  0  0  0  0  0  0  0  0  0  0  0
   -5.9338   -0.6425   13.4983 C   0  0  1  0  0  0  0  0  0  0  0  0
   -9.0910    4.9520   18.2193 C   0  0  0  0  0  0  0  0  0  0  0  0
   -9.6983    4.2390   17.1401 O   0  0  0  0  0  0  0  0  0  0  0  0
   -6.5542   -1.8632   12.9533 C   0  0  0  0  0  0  0  0  0  0  0  0
   -6.1526   -3.0899   13.3727 O   0  0  0  0  0  0  0  0  0  0  0  0
   -4.9724   -0.3877   14.3926 N   0  0  0  0  0  0  0  0  0  0  0  0
   -4.8410    0.9687   14.4728 C   0  0  0  0  0  0  0  0  0  0  0  0
   -5.7011    1.5993   13.6455 N   0  0  1  0  0  0  0  0  0  0  0  0
  -10.8808   -2.9234   18.1481 N   0  0  0  0  0  0  0  0  0  0  0  0
  -10.3042    3.6216   14.4865 O   0  5  0  0  0  0  0  0  0  0  0  0
   -9.9863   -2.5338   19.0973 C   0  0  2  0  0  0  0  0  0  0  0  0
   -9.2548   -3.4769   19.7464 N   0  0  0  0  0  0  0  0  0  0  0  0
  -10.7138    6.2731   15.5998 O   0  0  0  0  0  0  0  0  0  0  0  0
   -9.8003   -1.2246   19.4193 N   0  0  0  0  0  0  0  0  0  0  0  0
  -10.5038   -0.2403   18.8125 C   0  0  2  0  0  0  0  0  0  0  0  0
  -11.4824   -0.5983   17.7771 C   0  0  2  0  0  0  0  0  0  0  0  0
  -11.6358   -2.0357   17.4667 C   0  0  0  0  0  0  0  0  0  0  0  0
  -12.5125   -2.4617   16.5241 O   0  0  0  0  0  0  0  0  0  0  0  0
  -12.0212    0.5572   17.3402 N   0  0  0  0  0  0  0  0  0  0  0  0
  -11.4367    1.5726   18.0434 C   0  0  0  0  0  0  0  0  0  0  0  0
  -10.5280    1.0894   18.9208 N   0  0  1  0  0  0  0  0  0  0  0  0
  1  3  1  1  0  0  0
  1  4  2  0  0  0  0
  1  6  1  0  0  0  0
  1 22  1  0  0  0  0
  2 28  1  0  0  0  0
  2 35  1  6  0  0  0
  2 38  2  0  0  0  0
  2 10  1  0  0  0  0
  5  6  1  0  0  0  0
  7  5  1  1  0  0  0
  7  8  1  0  0  0  0
  7  9  1  0  0  0  0
  9 10  1  6  0  0  0
  9 11  1  0  0  0  0
 11 12  1  6  0  0  0
 11 13  1  0  0  0  0
 13  8  1  1  0  0  0
 13 33  1  0  0  0  0
 14 46  1  0  0  0  0
 14 17  1  0  0  0  0
 14 25  1  6  0  0  0
 15 16  1  0  0  0  0
 15 29  1  0  0  0  0
 16 18  1  1  0  0  0
 16 21  1  0  0  0  0
 17 19  1  1  0  0  0
 17 20  1  0  0  0  0
 20 22  1  1  0  0  0
 20 24  1  0  0  0  0
 23 21  1  1  0  0  0
 23 26  1  0  0  0  0
 23 33  1  0  0  0  0
 24 25  1  6  0  0  0
 24 27  1  0  0  0  0
 26 29  1  6  0  0  0
 26 31  1  0  0  0  0
 27 28  1  0  0  0  0
 29 30  2  0  0  0  0
 31 32  1  0  0  0  0
 33 32  1  6  0  0  0
 34 36  1  0  0  0  0
 34 42  1  0  0  0  0
 36 37  1  1  0  0  0
 36 39  1  0  0  0  0
 40 39  1  6  0  0  0
 40 41  1  0  0  0  0
 40 46  1  0  0  0  0
 41 42  1  6  0  0  0
 41 44  1  0  0  0  0
 42 43  2  0  0  0  0
 44 45  1  0  0  0  0
 46 45  1  1  0  0  0
M  CHG  2   3  -1  35  -1
M  END
>  <CHROM.1>
173.01509126,60.15512005,-8.01896469,1.67498908,16.44041377,-0.36312455,0.96396948
0.77921424

>  <Name>
ligand

>  <RI>
416

>  <Rbt.Current_Directory>
/home/itssahil/PROJECTS/Mol_Feturizer/Test_systems_manuscript/rnas/3mum

>  <Rbt.Executable>
rbdock ($Id: //depot/dev/client3/rdock/2013.1/src/exe/rbdock.cxx#4 $)

>  <Rbt.Library>
libRbt.so (2013.1, Build901 2013/11/27)

>  <Rbt.Parameter_File>
/export/apps/rDock/src/rDock_2013.1_src/data/scripts/dock_solv.prm

>  <Rbt.Receptor>
prm/pocket_docking_2.prm

>  <SCORE>
-39.6403

>  <SCORE.INTER>
-39.654

>  <SCORE.INTER.CONST>
1

>  <SCORE.INTER.POLAR>
0

>  <SCORE.INTER.ROT>
2

>  <SCORE.INTER.SOLV>
40.1065

>  <SCORE.INTER.VDW>
-44.7381

>  <SCORE.INTER.norm>
-0.862043

>  <SCORE.INTRA>
0.0136638

>  <SCORE.INTRA.DIHEDRAL>
-0.0059538

>  <SCORE.INTRA.DIHEDRAL.0>
2.40424

>  <SCORE.INTRA.POLAR>
0

>  <SCORE.INTRA.POLAR.0>
0

>  <SCORE.INTRA.REPUL>
0

>  <SCORE.INTRA.REPUL.0>
0

>  <SCORE.INTRA.SOLV>
0.00487835

>  <SCORE.INTRA.SOLV.lig_0>
-134.169

>  <SCORE.INTRA.VDW>
0.0142015

>  <SCORE.INTRA.VDW.0>
-2.18386

>  <SCORE.INTRA.norm>
0.000297039

>  <SCORE.RESTR>
0

>  <SCORE.RESTR.CAVITY>
0

>  <SCORE.RESTR.norm>
0

>  <SCORE.SYSTEM>
0

>  <SCORE.SYSTEM.CONST>
0

>  <SCORE.SYSTEM.DIHEDRAL>
0

>  <SCORE.SYSTEM.SOLV>
0

>  <SCORE.SYSTEM.norm>
0

>  <SCORE.heavy>
46

>  <SCORE.norm>
-0.861746

>  <RMSD>
0.232

$$$$
ligand
 OpenBabel02271912143D
libRbt.so/2013.1/901 2013/11/27
 46 52  0  0  0  0  0  0  0  0999 V2000
   -5.2195    2.6333   18.5859 P   0  0  1  0  0  0  0  0  0  0  0  0
   -9.7717    4.7915   15.5371 P   0  0  2  0  0  0  0  0  0  0  0  0
   -5.3143    0.8649   18.6601 O   0  5  0  0  0  0  0  0  0  0  0  0
   -3.7333    3.2451   19.3580 O   0  0  0  0  0  0  0  0  0  0  0  0
   -5.3170    4.4590   16.6675 C   0  0  0  0  0  0  0  0  0  0  0  0
   -5.2695    3.0810   17.0379 O   0  0  0  0  0  0  0  0  0  0  0  0
   -5.8378    4.5601   15.2465 C   0  0  1  0  0  0  0  0  0  0  0  0
   -5.0539    3.7181   14.3894 O   0  0  0  0  0  0  0  0  0  0  0  0
   -7.2701    4.0741   15.0960 C   0  0  1  0  0  0  0  0  0  0  0  0
   -8.2157    5.1274   15.2673 O   0  0  0  0  0  0  0  0  0  0  0  0
   -7.2966    3.5100   13.6863 C   0  0  1  0  0  0  0  0  0  0  0  0
   -7.6314    4.5396   12.7524 O   0  0  0  0  0  0  0  0  0  0  0  0
   -5.8748    3.0541   13.4158 C   0  0  2  0  0  0  0  0  0  0  0  0
   -9.7419    1.9035   19.8075 C   0  0  1  0  0  0  0  0  0  0  0  0
   -7.5869   -1.7891   12.0723 N   0  0  0  0  0  0  0  0  0  0  0  0
   -8.0214   -0.5749   11.6374 C   0  0  1  0  0  0  0  0  0  0  0  0
   -8.2813    1.6821   19.5341 C   0  0  2  0  0  0  0  0  0  0  0  0
   -9.0305   -0.5417   10.7366 N   0  0  0  0  0  0  0  0  0  0  0  0
   -7.6523    1.5175   20.8062 O   0  0  0  0  0  0  0  0  0  0  0  0
   -7.8241    2.9452   18.8316 C   0  0  2  0  0  0  0  0  0  0  0  0
   -7.4841    0.6029   12.0743 N   0  0  0  0  0  0  0  0  0  0  0  0
   -6.5169    3.3281   19.2364 O   0  0  0  0  0  0  0  0  0  0  0  0
   -6.4695    0.6233   12.9753 C   0  0  2  0  0  0  0  0  0  0  0  0
   -8.8271    4.0045   19.2443 C   0  0  2  0  0  0  0  0  0  0  0  0
   -9.9987    3.2982   19.6490 O   0  0  0  0  0  0  0  0  0  0  0  0
   -5.9635   -0.6646   13.4811 C   0  0  1  0  0  0  0  0  0  0  0  0
   -9.1768    4.9622   18.1108 C   0  0  0  0  0  0  0  0  0  0  0  0
   -9.7767    4.2245   17.0441 O   0  0  0  0  0  0  0  0  0  0  0  0
   -6.5831   -1.9011   12.9720 C   0  0  0  0  0  0  0  0  0  0  0  0
   -6.1586   -3.1160   13.4031 O   0  0  0  0  0  0  0  0  0  0  0  0
   -4.9844   -0.3841   14.3481 N   0  0  0  0  0  0  0  0  0  0  0  0
   -4.8659    0.9748   14.4016 C   0  0  0  0  0  0  0  0  0  0  0  0
   -5.7517    1.5817   13.5839 N   0  0  1  0  0  0  0  0  0  0  0  0
  -10.8641   -2.9356   18.1669 N   0  0  0  0  0  0  0  0  0  0  0  0
  -10.3792    3.5574   14.4018 O   0  5  0  0  0  0  0  0  0  0  0  0
   -9.9730   -2.5196   19.1080 C   0  0  2  0  0  0  0  0  0  0  0  0
   -9.2280   -3.4428   19.7704 N   0  0  0  0  0  0  0  0  0  0  0  0
  -10.8212    6.2207   15.4739 O   0  0  0  0  0  0  0  0  0  0  0  0
   -9.8036   -1.2032   19.4092 N   0  0  0  0  0  0  0  0  0  0  0  0
  -10.5211   -0.2378   18.7884 C   0  0  2  0  0  0  0  0  0  0  0  0
  -11.4968   -0.6247   17.7609 C   0  0  2  0  0  0  0  0  0  0  0  0
  -11.6320   -2.0687   17.4733 C   0  0  0  0  0  0  0  0  0  0  0  0
  -12.5048   -2.5209   16.5393 O   0  0  0  0  0  0  0  0  0  0  0  0
  -12.0515    0.5167   17.3070 N   0  0  0  0  0  0  0  0  0  0  0  0
  -11.4790    1.5505   17.9930 C   0  0  0  0  0  0  0  0  0  0  0  0
  -10.5625    1.0930   18.8759 N   0  0  1  0  0  0  0  0  0  0  0  0
  1  3  1  1  0  0  0
  1  4  2  0  0  0  0
  1  6  1  0  0  0  0
  1 22  1  0  0  0  0
  2 28  1  0  0  0  0
  2 35  1  6  0  0  0
  2 38  2  0  0  0  0
  2 10  1  0  0  0  0
  5  6  1  0  0  0  0
  7  5  1  1  0  0  0
  7  8  1  0  0  0  0
  7  9  1  0  0  0  0
  9 10  1  6  0  0  0
  9 11  1  0  0  0  0
 11 12  1  6  0  0  0
 11 13  1  0  0  0  0
 13  8  1  1  0  0  0
 13 33  1  0  0  0  0
 14 46  1  0  0  0  0
 14 17  1  0  0  0  0
 14 25  1  6  0  0  0
 15 16  1  0  0  0  0
 15 29  1  0  0  0  0
 16 18  1  1  0  0  0
 16 21  1  0  0  0  0
 17 19  1  1  0  0  0
 17 20  1  0  0  0  0
 20 22  1  1  0  0  0
 20 24  1  0  0  0  0
 23 21  1  1  0  0  0
 23 26  1  0  0  0  0
 23 33  1  0  0  0  0
 24 25  1  6  0  0  0
 24 27  1  0  0  0  0
 26 29  1  6  0  0  0
 26 31  1  0  0  0  0
 27 28  1  0  0  0  0
 29 30  2  0  0  0  0
 31 32  1  0  0  0  0
 33 32  1  6  0  0  0
 34 36  1  0  0  0  0
 34 42  1  0  0  0  0
 36 37  1  1  0  0  0
 36 39  1  0  0  0  0
 40 39  1  6  0  0  0
 40 41  1  0  0  0  0
 40 46  1  0  0  0  0
 41 42  1  6  0  0  0
 41 44  1  0  0  0  0
 42 43  2  0  0  0  0
 44 45  1  0  0  0  0
 46 45  1  1  0  0  0
M  CHG  2   3  -1  35  -1
M  END
>  <CHROM.1>
171.77314425,60.14208065,-8.06994401,1.67185021,16.38656534,-0.31375519,0.97342064
0.75517906

>  <Name>
ligand

>  <RI>
-1

>  <Rbt.Current_Directory>
/home/itssahil/PROJECTS/Mol_Feturizer/Test_systems_manuscript/rnas/3mum

>  <Rbt.Executable>
rbdock ($Id: //depot/dev/client3/rdock/2013.1/src/exe/rbdock.cxx#4 $)

>  <Rbt.Library>
libRbt.so (2013.1, Build901 2013/11/27)

>  <Rbt.Parameter_File>
/export/apps/rDock/src/rDock_2013.1_src/data/scripts/dock_solv.prm

>  <Rbt.Receptor>
prm/pocket_docking_5.prm

>  <SCORE>
-39.3637

>  <SCORE.INTER>
-39.3867

>  <SCORE.INTER.CONST>
1

>  <SCORE.INTER.POLAR>
0

>  <SCORE.INTER.ROT>
2

>  <SCORE.INTER.SOLV>
40.5522

>  <SCORE.INTER.VDW>
-44.7085

>  <SCORE.INTER.norm>
-0.856233

>  <SCORE.INTRA>
0.0230632

>  <SCORE.INTRA.DIHEDRAL>
-0.00618897

>  <SCORE.INTRA.DIHEDRAL.0>
2.40424

>  <SCORE.INTRA.POLAR>
0

>  <SCORE.INTRA.POLAR.0>
0

>  <SCORE.INTRA.REPUL>
0

>  <SCORE.INTRA.REPUL.0>
0

>  <SCORE.INTRA.SOLV>
0.00547093

>  <SCORE.INTRA.SOLV.lig_0>
-134.169

>  <SCORE.INTRA.VDW>
0.0234223

>  <SCORE.INTRA.VDW.0>
-2.18386

>  <SCORE.INTRA.norm>
0.000501375

>  <SCORE.RESTR>
0

>  <SCORE.RESTR.CAVITY>
0

>  <SCORE.RESTR.norm>
0

>  <SCORE.SYSTEM>
0

>  <SCORE.SYSTEM.CONST>
0

>  <SCORE.SYSTEM.DIHEDRAL>
0

>  <SCORE.SYSTEM.SOLV>
0

>  <SCORE.SYSTEM.norm>
0

>  <SCORE.heavy>
46

>  <SCORE.norm>
-0.855732

>  <RMSD>
0.232

$$$$
ligand
 OpenBabel02271912143D
libRbt.so/2013.1/901 2013/11/27
 46 52  0  0  0  0  0  0  0  0999 V2000
   -5.2778    2.5518   18.6807 P   0  0  1  0  0  0  0  0  0  0  0  0
   -9.7537    4.8505   15.6214 P   0  0  2  0  0  0  0  0  0  0  0  0
   -5.4265    0.7870   18.7526 O   0  5  0  0  0  0  0  0  0  0  0  0
   -3.7759    3.1174   19.4575 O   0  0  0  0  0  0  0  0  0  0  0  0
   -5.3143    4.3816   16.7639 C   0  0  0  0  0  0  0  0  0  0  0  0
   -5.3098    3.0024   17.1330 O   0  0  0  0  0  0  0  0  0  0  0  0
   -5.8278    4.4999   15.3416 C   0  0  1  0  0  0  0  0  0  0  0  0
   -5.0675    3.6353   14.4858 O   0  0  0  0  0  0  0  0  0  0  0  0
   -7.2738    4.0577   15.1866 C   0  0  1  0  0  0  0  0  0  0  0  0
   -8.1874    5.1392   15.3564 O   0  0  0  0  0  0  0  0  0  0  0  0
   -7.3134    3.4962   13.7762 C   0  0  1  0  0  0  0  0  0  0  0  0
   -7.6141    4.5365   12.8425 O   0  0  0  0  0  0  0  0  0  0  0  0
   -5.9054    2.9975   13.5092 C   0  0  2  0  0  0  0  0  0  0  0  0
   -9.8238    1.9586   19.8887 C   0  0  1  0  0  0  0  0  0  0  0  0
   -7.4774   -1.8060   11.8821 N   0  0  0  0  0  0  0  0  0  0  0  0
   -7.8294   -0.5812   11.4043 C   0  0  1  0  0  0  0  0  0  0  0  0
   -8.3698    1.6931   19.6192 C   0  0  2  0  0  0  0  0  0  0  0  0
   -8.7007   -0.5241   10.3707 N   0  0  0  0  0  0  0  0  0  0  0  0
   -7.7496    1.5082   20.8929 O   0  0  0  0  0  0  0  0  0  0  0  0
   -7.8725    2.9424   18.9194 C   0  0  2  0  0  0  0  0  0  0  0  0
   -7.3429    0.5840   11.9261 N   0  0  0  0  0  0  0  0  0  0  0  0
   -6.5553    3.2850   19.3282 O   0  0  0  0  0  0  0  0  0  0  0  0
   -6.4655    0.5803   12.9613 C   0  0  2  0  0  0  0  0  0  0  0  0
   -8.8439    4.0314   19.3305 C   0  0  2  0  0  0  0  0  0  0  0  0
  -10.0376    3.3606   19.7311 O   0  0  0  0  0  0  0  0  0  0  0  0
   -6.0537   -0.7198   13.5185 C   0  0  1  0  0  0  0  0  0  0  0  0
   -9.1611    5.0004   18.1970 C   0  0  0  0  0  0  0  0  0  0  0  0
   -9.7802    4.2823   17.1278 O   0  0  0  0  0  0  0  0  0  0  0  0
   -6.6123   -1.9419   12.9130 C   0  0  0  0  0  0  0  0  0  0  0  0
   -6.2697   -3.1671   13.3856 O   0  0  0  0  0  0  0  0  0  0  0  0
   -5.2030   -0.4625   14.5181 N   0  0  0  0  0  0  0  0  0  0  0  0
   -5.0745    0.8939   14.6034 C   0  0  0  0  0  0  0  0  0  0  0  0
   -5.8276    1.5219   13.6760 N   0  0  1  0  0  0  0  0  0  0  0  0
  -10.7059   -2.7719   17.8363 N   0  0  0  0  0  0  0  0  0  0  0  0
  -10.3951    3.6365   14.4831 O   0  5  0  0  0  0  0  0  0  0  0  0
   -9.7603   -2.3728   18.7304 C   0  0  2  0  0  0  0  0  0  0  0  0
   -8.8779   -3.2854   19.2146 N   0  0  0  0  0  0  0  0  0  0  0  0
  -10.7590    6.3110   15.5569 O   0  0  0  0  0  0  0  0  0  0  0  0
   -9.6699   -1.0838   19.1578 N   0  0  0  0  0  0  0  0  0  0  0  0
  -10.5243   -0.1310   18.7168 C   0  0  2  0  0  0  0  0  0  0  0  0
  -11.5650   -0.5004   17.7482 C   0  0  2  0  0  0  0  0  0  0  0  0
  -11.6096   -1.9140   17.3170 C   0  0  0  0  0  0  0  0  0  0  0  0
  -12.5333   -2.3479   16.4242 O   0  0  0  0  0  0  0  0  0  0  0  0
  -12.2554    0.6248   17.4766 N   0  0  0  0  0  0  0  0  0  0  0  0
  -11.7027    1.6321   18.2161 C   0  0  0  0  0  0  0  0  0  0  0  0
  -10.6659    1.1744   18.9540 N   0  0  1  0  0  0  0  0  0  0  0  0
  1  3  1  1  0  0  0
  1  4  2  0  0  0  0
  1  6  1  0  0  0  0
  1 22  1  0  0  0  0
  2 28  1  0  0  0  0
  2 35  1  6  0  0  0
  2 38  2  0  0  0  0
  2 10  1  0  0  0  0
  5  6  1  0  0  0  0
  7  5  1  1  0  0  0
  7  8  1  0  0  0  0
  7  9  1  0  0  0  0
  9 10  1  6  0  0  0
  9 11  1  0  0  0  0
 11 12  1  6  0  0  0
 11 13  1  0  0  0  0
 13  8  1  1  0  0  0
 13 33  1  0  0  0  0
 14 46  1  0  0  0  0
 14 17  1  0  0  0  0
 14 25  1  6  0  0  0
 15 16  1  0  0  0  0
 15 29  1  0  0  0  0
 16 18  1  1  0  0  0
 16 21  1  0  0  0  0
 17 19  1  1  0  0  0
 17 20  1  0  0  0  0
 20 22  1  1  0  0  0
 20 24  1  0  0  0  0
 23 21  1  1  0  0  0
 23 26  1  0  0  0  0
 23 33  1  0  0  0  0
 24 25  1  6  0  0  0
 24 27  1  0  0  0  0
 26 29  1  6  0  0  0
 26 31  1  0  0  0  0
 27 28  1  0  0  0  0
 29 30  2  0  0  0  0
 31 32  1  0  0  0  0
 33 32  1  6  0  0  0
 34 36  1  0  0  0  0
 34 42  1  0  0  0  0
 36 37  1  1  0  0  0
 36 39  1  0  0  0  0
 40 39  1  6  0  0  0
 40 41  1  0  0  0  0
 40 46  1  0  0  0  0
 41 42  1  6  0  0  0
 41 44  1  0  0  0  0
 42 43  2  0  0  0  0
 44 45  1  0  0  0  0
 46 45  1  1  0  0  0
M  CHG  2   3  -1  35  -1
M  END
>  <CHROM.1>
179.79093600,49.36977669,-8.07754709,1.68558463,16.39859499,-2.32203427,-0.96001954
-2.40919069

>  <Name>
ligand

>  <RI>
416

>  <Rbt.Current_Directory>
/home/itssahil/PROJECTS/Mol_Feturizer/Test_systems_manuscript/rnas/3mum

>  <Rbt.Executable>
rbdock ($Id: //depot/dev/client3/rdock/2013.1/src/exe/rbdock.cxx#4 $)

>  <Rbt.Library>
libRbt.so (2013.1, Build901 2013/11/27)

>  <Rbt.Parameter_File>
/export/apps/rDock/src/rDock_2013.1_src/data/scripts/dock_solv.prm

>  <Rbt.Receptor>
prm/pocket_docking_2.prm

>  <SCORE>
-40.3418

>  <SCORE.INTER>
-40.4211

>  <SCORE.INTER.CONST>
1

>  <SCORE.INTER.POLAR>
0

>  <SCORE.INTER.ROT>
2

>  <SCORE.INTER.SOLV>
39.0991

>  <SCORE.INTER.VDW>
-44.9138

>  <SCORE.INTER.norm>
-0.878719

>  <SCORE.INTRA>
0.0793191

>  <SCORE.INTRA.DIHEDRAL>
-0.019392

>  <SCORE.INTRA.DIHEDRAL.0>
2.40424

>  <SCORE.INTRA.POLAR>
0

>  <SCORE.INTRA.POLAR.0>
0

>  <SCORE.INTRA.REPUL>
0

>  <SCORE.INTRA.REPUL.0>
0

>  <SCORE.INTRA.SOLV>
0.0179123

>  <SCORE.INTRA.SOLV.lig_0>
-134.169

>  <SCORE.INTRA.VDW>
0.0800589

>  <SCORE.INTRA.VDW.0>
-2.18386

>  <SCORE.INTRA.norm>
0.00172433

>  <SCORE.RESTR>
0

>  <SCORE.RESTR.CAVITY>
0

>  <SCORE.RESTR.norm>
0

>  <SCORE.SYSTEM>
0

>  <SCORE.SYSTEM.CONST>
0

>  <SCORE.SYSTEM.DIHEDRAL>
0

>  <SCORE.SYSTEM.SOLV>
0

>  <SCORE.SYSTEM.norm>
0

>  <SCORE.heavy>
46

>  <SCORE.norm>
-0.876995

>  <RMSD>
0.233

$$$$
ligand
 OpenBabel02271912143D
libRbt.so/2013.1/901 2013/11/27
 46 52  0  0  0  0  0  0  0  0999 V2000
   -5.1688    2.5832   18.6619 P   0  0  1  0  0  0  0  0  0  0  0  0
   -9.6873    4.8315   15.6281 P   0  0  2  0  0  0  0  0  0  0  0  0
   -5.2821    0.8150   18.7107 O   0  5  0  0  0  0  0  0  0  0  0  0
   -3.6791    3.1686   19.4477 O   0  0  0  0  0  0  0  0  0  0  0  0
   -5.2404    4.4368   16.7692 C   0  0  0  0  0  0  0  0  0  0  0  0
   -5.2085    3.0532   17.1203 O   0  0  0  0  0  0  0  0  0  0  0  0
   -5.7549    4.5633   15.3479 C   0  0  1  0  0  0  0  0  0  0  0  0
   -4.9767    3.7254   14.4818 O   0  0  0  0  0  0  0  0  0  0  0  0
   -7.1916    4.0944   15.1856 C   0  0  1  0  0  0  0  0  0  0  0  0
   -8.1269    5.1550   15.3686 O   0  0  0  0  0  0  0  0  0  0  0  0
   -7.2189    3.5506   13.7680 C   0  0  1  0  0  0  0  0  0  0  0  0
   -7.5396    4.5967   12.8476 O   0  0  0  0  0  0  0  0  0  0  0  0
   -5.8009    3.0837   13.4961 C   0  0  2  0  0  0  0  0  0  0  0  0
   -9.7029    1.8833   19.8573 C   0  0  1  0  0  0  0  0  0  0  0  0
   -7.5355   -1.7228   12.0533 N   0  0  0  0  0  0  0  0  0  0  0  0
   -7.9523   -0.4982   11.6301 C   0  0  1  0  0  0  0  0  0  0  0  0
   -8.2436    1.6506   19.5859 C   0  0  2  0  0  0  0  0  0  0  0  0
   -8.9469   -0.4422   10.7146 N   0  0  0  0  0  0  0  0  0  0  0  0
   -7.6210    1.4615   20.8577 O   0  0  0  0  0  0  0  0  0  0  0  0
   -7.7709    2.9187   18.9030 C   0  0  2  0  0  0  0  0  0  0  0  0
   -7.4112    0.6679   12.0930 N   0  0  0  0  0  0  0  0  0  0  0  0
   -6.4612    3.2822   19.3176 O   0  0  0  0  0  0  0  0  0  0  0  0
   -6.4105    0.6654   13.0097 C   0  0  2  0  0  0  0  0  0  0  0  0
   -8.7643    3.9824   19.3271 C   0  0  2  0  0  0  0  0  0  0  0  0
   -9.9447    3.2827   19.7177 O   0  0  0  0  0  0  0  0  0  0  0  0
   -5.9240   -0.6345   13.5036 C   0  0  1  0  0  0  0  0  0  0  0  0
   -9.1000    4.9597   18.2060 C   0  0  0  0  0  0  0  0  0  0  0  0
   -9.7036    4.2433   17.1269 O   0  0  0  0  0  0  0  0  0  0  0  0
   -6.5468   -1.8575   12.9665 C   0  0  0  0  0  0  0  0  0  0  0  0
   -6.1399   -3.0826   13.3856 O   0  0  0  0  0  0  0  0  0  0  0  0
   -4.9560   -0.3761   14.3897 N   0  0  0  0  0  0  0  0  0  0  0  0
   -4.8262    0.9807   14.4656 C   0  0  0  0  0  0  0  0  0  0  0  0
   -5.6937    1.6079   13.6437 N   0  0  1  0  0  0  0  0  0  0  0  0
  -10.8794   -2.9212   18.1542 N   0  0  0  0  0  0  0  0  0  0  0  0
  -10.3034    3.6199   14.4734 O   0  5  0  0  0  0  0  0  0  0  0  0
   -9.9886   -2.5279   19.1054 C   0  0  2  0  0  0  0  0  0  0  0  0
   -9.2601   -3.4686   19.7615 N   0  0  0  0  0  0  0  0  0  0  0  0
  -10.7217    6.2723   15.5816 O   0  0  0  0  0  0  0  0  0  0  0  0
   -9.8035   -1.2175   19.4228 N   0  0  0  0  0  0  0  0  0  0  0  0
  -10.5042   -0.2355   18.8089 C   0  0  2  0  0  0  0  0  0  0  0  0
  -11.4787   -0.5975   17.7711 C   0  0  2  0  0  0  0  0  0  0  0  0
  -11.6313   -2.0361   17.4660 C   0  0  0  0  0  0  0  0  0  0  0  0
  -12.5042   -2.4659   16.5216 O   0  0  0  0  0  0  0  0  0  0  0  0
  -12.0152    0.5564   17.3271 N   0  0  0  0  0  0  0  0  0  0  0  0
  -11.4333    1.5745   18.0284 C   0  0  0  0  0  0  0  0  0  0  0  0
  -10.5284    1.0947   18.9115 N   0  0  1  0  0  0  0  0  0  0  0  0
  1  3  1  1  0  0  0
  1  4  2  0  0  0  0
  1  6  1  0  0  0  0
  1 22  1  0  0  0  0
  2 28  1  0  0  0  0
  2 35  1  6  0  0  0
  2 38  2  0  0  0  0
  2 10  1  0  0  0  0
  5  6  1  0  0  0  0
  7  5  1  1  0  0  0
  7  8  1  0  0  0  0
  7  9  1  0  0  0  0
  9 10  1  6  0  0  0
  9 11  1  0  0  0  0
 11 12  1  6  0  0  0
 11 13  1  0  0  0  0
 13  8  1  1  0  0  0
 13 33  1  0  0  0  0
 14 46  1  0  0  0  0
 14 17  1  0  0  0  0
 14 25  1  6  0  0  0
 15 16  1  0  0  0  0
 15 29  1  0  0  0  0
 16 18  1  1  0  0  0
 16 21  1  0  0  0  0
 17 19  1  1  0  0  0
 17 20  1  0  0  0  0
 20 22  1  1  0  0  0
 20 24  1  0  0  0  0
 23 21  1  1  0  0  0
 23 26  1  0  0  0  0
 23 33  1  0  0  0  0
 24 25  1  6  0  0  0
 24 27  1  0  0  0  0
 26 29  1  6  0  0  0
 26 31  1  0  0  0  0
 27 28  1  0  0  0  0
 29 30  2  0  0  0  0
 31 32  1  0  0  0  0
 33 32  1  6  0  0  0
 34 36  1  0  0  0  0
 34 42  1  0  0  0  0
 36 37  1  1  0  0  0
 36 39  1  0  0  0  0
 40 39  1  6  0  0  0
 40 41  1  0  0  0  0
 40 46  1  0  0  0  0
 41 42  1  6  0  0  0
 41 44  1  0  0  0  0
 42 43  2  0  0  0  0
 44 45  1  0  0  0  0
 46 45  1  1  0  0  0
M  CHG  2   3  -1  35  -1
M  END
>  <CHROM.1>
172.45919252,60.41273990,-8.01966693,1.68242535,16.43764535,-0.33865853,0.96384314
0.77555251

>  <Name>
ligand

>  <RI>
-1

>  <Rbt.Current_Directory>
/home/itssahil/PROJECTS/Mol_Feturizer/Test_systems_manuscript/rnas/3mum

>  <Rbt.Executable>
rbdock ($Id: //depot/dev/client3/rdock/2013.1/src/exe/rbdock.cxx#4 $)

>  <Rbt.Library>
libRbt.so (2013.1, Build901 2013/11/27)

>  <Rbt.Parameter_File>
/export/apps/rDock/src/rDock_2013.1_src/data/scripts/dock_solv.prm

>  <Rbt.Receptor>
prm/pocket_docking_6.prm

>  <SCORE>
-39.5766

>  <SCORE.INTER>
-39.5912

>  <SCORE.INTER.CONST>
1

>  <SCORE.INTER.POLAR>
0

>  <SCORE.INTER.ROT>
2

>  <SCORE.INTER.SOLV>
40.0642

>  <SCORE.INTER.VDW>
-44.6822

>  <SCORE.INTER.norm>
-0.860678

>  <SCORE.INTRA>
0.0145539

>  <SCORE.INTRA.DIHEDRAL>
-0.00567947

>  <SCORE.INTRA.DIHEDRAL.0>
2.40424

>  <SCORE.INTRA.POLAR>
0

>  <SCORE.INTRA.POLAR.0>
0

>  <SCORE.INTRA.REPUL>
0

>  <SCORE.INTRA.REPUL.0>
0

>  <SCORE.INTRA.SOLV>
0.00478738

>  <SCORE.INTRA.SOLV.lig_0>
-134.169

>  <SCORE.INTRA.VDW>
0.0149999

>  <SCORE.INTRA.VDW.0>
-2.18386

>  <SCORE.INTRA.norm>
0.000316389

>  <SCORE.RESTR>
0

>  <SCORE.RESTR.CAVITY>
0

>  <SCORE.RESTR.norm>
0

>  <SCORE.SYSTEM>
0

>  <SCORE.SYSTEM.CONST>
0

>  <SCORE.SYSTEM.DIHEDRAL>
0

>  <SCORE.SYSTEM.SOLV>
0

>  <SCORE.SYSTEM.norm>
0

>  <SCORE.heavy>
46

>  <SCORE.norm>
-0.860361

>  <RMSD>
0.233

$$$$
ligand
 OpenBabel02271912143D
libRbt.so/2013.1/901 2013/11/27
 46 52  0  0  0  0  0  0  0  0999 V2000
   -5.2605    2.5037   18.6858 P   0  0  1  0  0  0  0  0  0  0  0  0
   -9.7442    4.8078   15.6422 P   0  0  2  0  0  0  0  0  0  0  0  0
   -5.3964    0.7371   18.7352 O   0  5  0  0  0  0  0  0  0  0  0  0
   -3.7649    3.0705   19.4742 O   0  0  0  0  0  0  0  0  0  0  0  0
   -5.3048    4.3570   16.7920 C   0  0  0  0  0  0  0  0  0  0  0  0
   -5.2912    2.9734   17.1439 O   0  0  0  0  0  0  0  0  0  0  0  0
   -5.8150    4.4895   15.3697 C   0  0  1  0  0  0  0  0  0  0  0  0
   -5.0459    3.6412   14.5055 O   0  0  0  0  0  0  0  0  0  0  0  0
   -7.2573    4.0387   15.2049 C   0  0  1  0  0  0  0  0  0  0  0  0
   -8.1793    5.1113   15.3856 O   0  0  0  0  0  0  0  0  0  0  0  0
   -7.2887    3.4946   13.7875 C   0  0  1  0  0  0  0  0  0  0  0  0
   -7.5943    4.5443   12.8660 O   0  0  0  0  0  0  0  0  0  0  0  0
   -5.8763    3.0096   13.5185 C   0  0  2  0  0  0  0  0  0  0  0  0
   -9.8054    1.8623   19.8728 C   0  0  1  0  0  0  0  0  0  0  0  0
   -7.4096   -1.7845   11.8278 N   0  0  0  0  0  0  0  0  0  0  0  0
   -7.7693   -0.5564   11.3644 C   0  0  1  0  0  0  0  0  0  0  0  0
   -8.3487    1.6109   19.6043 C   0  0  2  0  0  0  0  0  0  0  0  0
   -8.6386   -0.4926   10.3295 N   0  0  0  0  0  0  0  0  0  0  0  0
   -7.7309    1.4145   20.8775 O   0  0  0  0  0  0  0  0  0  0  0  0
   -7.8585    2.8724   18.9217 C   0  0  2  0  0  0  0  0  0  0  0  0
   -7.2926    0.6057   11.9019 N   0  0  0  0  0  0  0  0  0  0  0  0
   -6.5451    3.2195   19.3387 O   0  0  0  0  0  0  0  0  0  0  0  0
   -6.4175    0.5955   12.9391 C   0  0  2  0  0  0  0  0  0  0  0  0
   -8.8392    3.9490   19.3434 C   0  0  2  0  0  0  0  0  0  0  0  0
  -10.0290    3.2646   19.7321 O   0  0  0  0  0  0  0  0  0  0  0  0
   -5.9977   -0.7085   13.4811 C   0  0  1  0  0  0  0  0  0  0  0  0
   -9.1602    4.9299   18.2212 C   0  0  0  0  0  0  0  0  0  0  0  0
   -9.7709    4.2207   17.1413 O   0  0  0  0  0  0  0  0  0  0  0  0
   -6.5460   -1.9269   12.8590 C   0  0  0  0  0  0  0  0  0  0  0  0
   -6.1955   -3.1555   13.3171 O   0  0  0  0  0  0  0  0  0  0  0  0
   -5.1512   -0.4576   14.4858 N   0  0  0  0  0  0  0  0  0  0  0  0
   -5.0328    0.8985   14.5884 C   0  0  0  0  0  0  0  0  0  0  0  0
   -5.7882    1.5326   13.6670 N   0  0  1  0  0  0  0  0  0  0  0  0
  -10.8225   -2.8967   17.9530 N   0  0  0  0  0  0  0  0  0  0  0  0
  -10.3734    3.6036   14.4869 O   0  5  0  0  0  0  0  0  0  0  0  0
   -9.9030   -2.5091   18.8789 C   0  0  2  0  0  0  0  0  0  0  0  0
   -9.0924   -3.4436   19.4405 N   0  0  0  0  0  0  0  0  0  0  0  0
  -10.7600    6.2617   15.5930 O   0  0  0  0  0  0  0  0  0  0  0  0
   -9.7690   -1.2102   19.2627 N   0  0  0  0  0  0  0  0  0  0  0  0
  -10.5518   -0.2353   18.7442 C   0  0  2  0  0  0  0  0  0  0  0  0
  -11.5610   -0.5915   17.7382 C   0  0  2  0  0  0  0  0  0  0  0  0
  -11.6554   -2.0170   17.3574 C   0  0  0  0  0  0  0  0  0  0  0  0
  -12.5549   -2.4404   16.4353 O   0  0  0  0  0  0  0  0  0  0  0  0
  -12.1798    0.5543   17.3907 N   0  0  0  0  0  0  0  0  0  0  0  0
  -11.6141    1.5619   18.1199 C   0  0  0  0  0  0  0  0  0  0  0  0
  -10.6391    1.0838   18.9259 N   0  0  1  0  0  0  0  0  0  0  0  0
  1  3  1  1  0  0  0
  1  4  2  0  0  0  0
  1  6  1  0  0  0  0
  1 22  1  0  0  0  0
  2 28  1  0  0  0  0
  2 35  1  6  0  0  0
  2 38  2  0  0  0  0
  2 10  1  0  0  0  0
  5  6  1  0  0  0  0
  7  5  1  1  0  0  0
  7  8  1  0  0  0  0
  7  9  1  0  0  0  0
  9 10  1  6  0  0  0
  9 11  1  0  0  0  0
 11 12  1  6  0  0  0
 11 13  1  0  0  0  0
 13  8  1  1  0  0  0
 13 33  1  0  0  0  0
 14 46  1  0  0  0  0
 14 17  1  0  0  0  0
 14 25  1  6  0  0  0
 15 16  1  0  0  0  0
 15 29  1  0  0  0  0
 16 18  1  1  0  0  0
 16 21  1  0  0  0  0
 17 19  1  1  0  0  0
 17 20  1  0  0  0  0
 20 22  1  1  0  0  0
 20 24  1  0  0  0  0
 23 21  1  1  0  0  0
 23 26  1  0  0  0  0
 23 33  1  0  0  0  0
 24 25  1  6  0  0  0
 24 27  1  0  0  0  0
 26 29  1  6  0  0  0
 26 31  1  0  0  0  0
 27 28  1  0  0  0  0
 29 30  2  0  0  0  0
 31 32  1  0  0  0  0
 33 32  1  6  0  0  0
 34 36  1  0  0  0  0
 34 42  1  0  0  0  0
 36 37  1  1  0  0  0
 36 39  1  0  0  0  0
 40 39  1  6  0  0  0
 40 41  1  0  0  0  0
 40 46  1  0  0  0  0
 41 42  1  6  0  0  0
 41 44  1  0  0  0  0
 42 43  2  0  0  0  0
 44 45  1  0  0  0  0
 46 45  1  1  0  0  0
M  CHG  2   3  -1  35  -1
M  END
>  <CHROM.1>
179.76009621,54.48534851,-8.06651755,1.64054046,16.40613474,-2.49459742,-0.96279423
-2.39736751

>  <Name>
ligand

>  <RI>
-1

>  <Rbt.Current_Directory>
/home/itssahil/PROJECTS/Mol_Feturizer/Test_systems_manuscript/rnas/3mum

>  <Rbt.Executable>
rbdock ($Id: //depot/dev/client3/rdock/2013.1/src/exe/rbdock.cxx#4 $)

>  <Rbt.Library>
libRbt.so (2013.1, Build901 2013/11/27)

>  <Rbt.Parameter_File>
/export/apps/rDock/src/rDock_2013.1_src/data/scripts/dock_solv.prm

>  <Rbt.Receptor>
prm/pocket_docking_6.prm

>  <SCORE>
-40.1311

>  <SCORE.INTER>
-40.1228

>  <SCORE.INTER.CONST>
1

>  <SCORE.INTER.POLAR>
0

>  <SCORE.INTER.ROT>
2

>  <SCORE.INTER.SOLV>
39.9661

>  <SCORE.INTER.VDW>
-45.0039

>  <SCORE.INTER.norm>
-0.872234

>  <SCORE.INTRA>
-0.00836405

>  <SCORE.INTRA.DIHEDRAL>
-0.012754

>  <SCORE.INTRA.DIHEDRAL.0>
2.40424

>  <SCORE.INTRA.POLAR>
0

>  <SCORE.INTRA.POLAR.0>
0

>  <SCORE.INTRA.REPUL>
0

>  <SCORE.INTRA.REPUL.0>
0

>  <SCORE.INTRA.SOLV>
0.0108495

>  <SCORE.INTRA.SOLV.lig_0>
-134.169

>  <SCORE.INTRA.VDW>
-0.0074118

>  <SCORE.INTRA.VDW.0>
-2.18386

>  <SCORE.INTRA.norm>
-0.000181827

>  <SCORE.RESTR>
0

>  <SCORE.RESTR.CAVITY>
0

>  <SCORE.RESTR.norm>
0

>  <SCORE.SYSTEM>
0

>  <SCORE.SYSTEM.CONST>
0

>  <SCORE.SYSTEM.DIHEDRAL>
0

>  <SCORE.SYSTEM.SOLV>
0

>  <SCORE.SYSTEM.norm>
0

>  <SCORE.heavy>
46

>  <SCORE.norm>
-0.872416

>  <RMSD>
0.233

$$$$
ligand
 OpenBabel02271912143D
libRbt.so/2013.1/901 2013/11/27
 46 52  0  0  0  0  0  0  0  0999 V2000
   -5.2879    2.5543   18.6902 P   0  0  1  0  0  0  0  0  0  0  0  0
   -9.7655    4.8451   15.6276 P   0  0  2  0  0  0  0  0  0  0  0  0
   -5.4319    0.7890   18.7594 O   0  5  0  0  0  0  0  0  0  0  0  0
   -3.7887    3.1229   19.4701 O   0  0  0  0  0  0  0  0  0  0  0  0
   -5.3265    4.3867   16.7760 C   0  0  0  0  0  0  0  0  0  0  0  0
   -5.3188    3.0070   17.1432 O   0  0  0  0  0  0  0  0  0  0  0  0
   -5.8382    4.5057   15.3531 C   0  0  1  0  0  0  0  0  0  0  0  0
   -5.0743    3.6444   14.4972 O   0  0  0  0  0  0  0  0  0  0  0  0
   -7.2828    4.0598   15.1953 C   0  0  1  0  0  0  0  0  0  0  0  0
   -8.1996    5.1385   15.3653 O   0  0  0  0  0  0  0  0  0  0  0  0
   -7.3188    3.5001   13.7841 C   0  0  1  0  0  0  0  0  0  0  0  0
   -7.6209    4.5409   12.8514 O   0  0  0  0  0  0  0  0  0  0  0  0
   -5.9090    3.0057   13.5185 C   0  0  2  0  0  0  0  0  0  0  0  0
   -9.8340    1.9470   19.8907 C   0  0  1  0  0  0  0  0  0  0  0  0
   -7.4282   -1.8012   11.8515 N   0  0  0  0  0  0  0  0  0  0  0  0
   -7.7769   -0.5769   11.3700 C   0  0  1  0  0  0  0  0  0  0  0  0
   -8.3789    1.6859   19.6229 C   0  0  2  0  0  0  0  0  0  0  0  0
   -8.6292   -0.5213   10.3206 N   0  0  0  0  0  0  0  0  0  0  0  0
   -7.7602    1.5008   20.8973 O   0  0  0  0  0  0  0  0  0  0  0  0
   -7.8839    2.9375   18.9257 C   0  0  2  0  0  0  0  0  0  0  0  0
   -7.3057    0.5893   11.9034 N   0  0  0  0  0  0  0  0  0  0  0  0
   -6.5683    3.2831   19.3369 O   0  0  0  0  0  0  0  0  0  0  0  0
   -6.4475    0.5872   12.9547 C   0  0  2  0  0  0  0  0  0  0  0  0
   -8.8590    4.0232   19.3368 C   0  0  2  0  0  0  0  0  0  0  0  0
  -10.0514    3.3486   19.7347 O   0  0  0  0  0  0  0  0  0  0  0  0
   -6.0401   -0.7123   13.5165 C   0  0  1  0  0  0  0  0  0  0  0  0
   -9.1772    4.9930   18.2042 C   0  0  0  0  0  0  0  0  0  0  0  0
   -9.7927    4.2748   17.1331 O   0  0  0  0  0  0  0  0  0  0  0  0
   -6.5817   -1.9355   12.8979 C   0  0  0  0  0  0  0  0  0  0  0  0
   -6.2422   -3.1603   13.3740 O   0  0  0  0  0  0  0  0  0  0  0  0
   -5.2093   -0.4535   14.5322 N   0  0  0  0  0  0  0  0  0  0  0  0
   -5.0887    0.9033   14.6230 C   0  0  0  0  0  0  0  0  0  0  0  0
   -5.8274    1.5300   13.6833 N   0  0  1  0  0  0  0  0  0  0  0  0
  -10.7080   -2.7855   17.8393 N   0  0  0  0  0  0  0  0  0  0  0  0
  -10.4019    3.6311   14.4866 O   0  5  0  0  0  0  0  0  0  0  0  0
   -9.7657   -2.3854   18.7365 C   0  0  2  0  0  0  0  0  0  0  0  0
   -8.8850   -3.2975   19.2247 N   0  0  0  0  0  0  0  0  0  0  0  0
  -10.7747    6.3030   15.5636 O   0  0  0  0  0  0  0  0  0  0  0  0
   -9.6770   -1.0960   19.1630 N   0  0  0  0  0  0  0  0  0  0  0  0
  -10.5299   -0.1438   18.7181 C   0  0  2  0  0  0  0  0  0  0  0  0
  -11.5671   -0.5142   17.7460 C   0  0  2  0  0  0  0  0  0  0  0  0
  -11.6099   -1.9281   17.3159 C   0  0  0  0  0  0  0  0  0  0  0  0
  -12.5302   -2.3630   16.4202 O   0  0  0  0  0  0  0  0  0  0  0  0
  -12.2566    0.6107   17.4709 N   0  0  0  0  0  0  0  0  0  0  0  0
  -11.7067    1.6188   18.2115 C   0  0  0  0  0  0  0  0  0  0  0  0
  -10.6727    1.1618   18.9536 N   0  0  1  0  0  0  0  0  0  0  0  0
  1  3  1  1  0  0  0
  1  4  2  0  0  0  0
  1  6  1  0  0  0  0
  1 22  1  0  0  0  0
  2 28  1  0  0  0  0
  2 35  1  6  0  0  0
  2 38  2  0  0  0  0
  2 10  1  0  0  0  0
  5  6  1  0  0  0  0
  7  5  1  1  0  0  0
  7  8  1  0  0  0  0
  7  9  1  0  0  0  0
  9 10  1  6  0  0  0
  9 11  1  0  0  0  0
 11 12  1  6  0  0  0
 11 13  1  0  0  0  0
 13  8  1  1  0  0  0
 13 33  1  0  0  0  0
 14 46  1  0  0  0  0
 14 17  1  0  0  0  0
 14 25  1  6  0  0  0
 15 16  1  0  0  0  0
 15 29  1  0  0  0  0
 16 18  1  1  0  0  0
 16 21  1  0  0  0  0
 17 19  1  1  0  0  0
 17 20  1  0  0  0  0
 20 22  1  1  0  0  0
 20 24  1  0  0  0  0
 23 21  1  1  0  0  0
 23 26  1  0  0  0  0
 23 33  1  0  0  0  0
 24 25  1  6  0  0  0
 24 27  1  0  0  0  0
 26 29  1  6  0  0  0
 26 31  1  0  0  0  0
 27 28  1  0  0  0  0
 29 30  2  0  0  0  0
 31 32  1  0  0  0  0
 33 32  1  6  0  0  0
 34 36  1  0  0  0  0
 34 42  1  0  0  0  0
 36 37  1  1  0  0  0
 36 39  1  0  0  0  0
 40 39  1  6  0  0  0
 40 41  1  0  0  0  0
 40 46  1  0  0  0  0
 41 42  1  6  0  0  0
 41 44  1  0  0  0  0
 42 43  2  0  0  0  0
 44 45  1  0  0  0  0
 46 45  1  1  0  0  0
M  CHG  2   3  -1  35  -1
M  END
>  <CHROM.1>
-179.22470652,49.60501382,-8.07868308,1.68329324,16.40042450,-2.33427084
-0.96139396,-2.41608840

>  <Name>
ligand

>  <RI>
-1

>  <Rbt.Current_Directory>
/home/itssahil/PROJECTS/Mol_Feturizer/Test_systems_manuscript/rnas/3mum

>  <Rbt.Executable>
rbdock ($Id: //depot/dev/client3/rdock/2013.1/src/exe/rbdock.cxx#4 $)

>  <Rbt.Library>
libRbt.so (2013.1, Build901 2013/11/27)

>  <Rbt.Parameter_File>
/export/apps/rDock/src/rDock_2013.1_src/data/scripts/dock_solv.prm

>  <Rbt.Receptor>
prm/pocket_docking_8.prm

>  <SCORE>
-40.2938

>  <SCORE.INTER>
-40.362

>  <SCORE.INTER.CONST>
1

>  <SCORE.INTER.POLAR>
0

>  <SCORE.INTER.ROT>
2

>  <SCORE.INTER.SOLV>
39.1134

>  <SCORE.INTER.VDW>
-44.8791

>  <SCORE.INTER.norm>
-0.877435

>  <SCORE.INTRA>
0.0681677

>  <SCORE.INTRA.DIHEDRAL>
-0.0189205

>  <SCORE.INTRA.DIHEDRAL.0>
2.40424

>  <SCORE.INTRA.POLAR>
0

>  <SCORE.INTRA.POLAR.0>
0

>  <SCORE.INTRA.REPUL>
0

>  <SCORE.INTRA.REPUL.0>
0

>  <SCORE.INTRA.SOLV>
0.0172839

>  <SCORE.INTRA.SOLV.lig_0>
-134.169

>  <SCORE.INTRA.VDW>
0.068986

>  <SCORE.INTRA.VDW.0>
-2.18386

>  <SCORE.INTRA.norm>
0.00148191

>  <SCORE.RESTR>
0

>  <SCORE.RESTR.CAVITY>
0

>  <SCORE.RESTR.norm>
0

>  <SCORE.SYSTEM>
0

>  <SCORE.SYSTEM.CONST>
0

>  <SCORE.SYSTEM.DIHEDRAL>
0

>  <SCORE.SYSTEM.SOLV>
0

>  <SCORE.SYSTEM.norm>
0

>  <SCORE.heavy>
46

>  <SCORE.norm>
-0.875953

>  <RMSD>
0.233

$$$$
ligand
 OpenBabel02271912143D
libRbt.so/2013.1/901 2013/11/27
 46 52  0  0  0  0  0  0  0  0999 V2000
   -5.2559    2.7147   18.7015 P   0  0  1  0  0  0  0  0  0  0  0  0
   -9.8172    4.8338   15.6388 P   0  0  2  0  0  0  0  0  0  0  0  0
   -5.3243    0.9444   18.7576 O   0  5  0  0  0  0  0  0  0  0  0  0
   -3.7850    3.3413   19.4909 O   0  0  0  0  0  0  0  0  0  0  0  0
   -5.3666    4.5577   16.8003 C   0  0  0  0  0  0  0  0  0  0  0  0
   -5.3009    3.1769   17.1576 O   0  0  0  0  0  0  0  0  0  0  0  0
   -5.8781    4.6649   15.3763 C   0  0  1  0  0  0  0  0  0  0  0  0
   -5.0751    3.8434   14.5172 O   0  0  0  0  0  0  0  0  0  0  0  0
   -7.3017    4.1587   15.2101 C   0  0  1  0  0  0  0  0  0  0  0  0
   -8.2645    5.1959   15.3844 O   0  0  0  0  0  0  0  0  0  0  0  0
   -7.3089    3.6083   13.7948 C   0  0  1  0  0  0  0  0  0  0  0  0
   -7.6523    4.6419   12.8684 O   0  0  0  0  0  0  0  0  0  0  0  0
   -5.8784    3.1766   13.5308 C   0  0  2  0  0  0  0  0  0  0  0  0
   -9.7757    1.9045   19.8809 C   0  0  1  0  0  0  0  0  0  0  0  0
   -7.4751   -1.6789   12.0931 N   0  0  0  0  0  0  0  0  0  0  0  0
   -7.9199   -0.4672   11.6614 C   0  0  1  0  0  0  0  0  0  0  0  0
   -8.3099    1.7079   19.6167 C   0  0  2  0  0  0  0  0  0  0  0  0
   -8.9077   -0.4406   10.7372 N   0  0  0  0  0  0  0  0  0  0  0  0
   -7.6881    1.5403   20.8919 O   0  0  0  0  0  0  0  0  0  0  0  0
   -7.8667    2.9847   18.9301 C   0  0  2  0  0  0  0  0  0  0  0  0
   -7.4133    0.7143   12.1241 N   0  0  0  0  0  0  0  0  0  0  0  0
   -6.5685    3.3833   19.3487 O   0  0  0  0  0  0  0  0  0  0  0  0
   -6.4208    0.7414   13.0492 C   0  0  2  0  0  0  0  0  0  0  0  0
   -8.8888    4.0246   19.3454 C   0  0  2  0  0  0  0  0  0  0  0  0
  -10.0525    3.2967   19.7341 O   0  0  0  0  0  0  0  0  0  0  0  0
   -5.9050   -0.5435   13.5527 C   0  0  1  0  0  0  0  0  0  0  0  0
   -9.2444    4.9881   18.2186 C   0  0  0  0  0  0  0  0  0  0  0  0
   -9.8250    4.2519   17.1402 O   0  0  0  0  0  0  0  0  0  0  0  0
   -6.4912   -1.7843   13.0152 C   0  0  0  0  0  0  0  0  0  0  0  0
   -6.0563   -2.9968   13.4429 O   0  0  0  0  0  0  0  0  0  0  0  0
   -4.9517   -0.2566   14.4459 N   0  0  0  0  0  0  0  0  0  0  0  0
   -4.8578    1.1035   14.5173 C   0  0  0  0  0  0  0  0  0  0  0  0
   -5.7342    1.7047   13.6854 N   0  0  1  0  0  0  0  0  0  0  0  0
  -10.7897   -2.9319   18.1635 N   0  0  0  0  0  0  0  0  0  0  0  0
  -10.3972    3.6019   14.4869 O   0  5  0  0  0  0  0  0  0  0  0  0
   -9.9096   -2.5112   19.1129 C   0  0  2  0  0  0  0  0  0  0  0  0
   -9.1460   -3.4282   19.7626 N   0  0  0  0  0  0  0  0  0  0  0  0
  -10.8878    6.2475   15.5816 O   0  0  0  0  0  0  0  0  0  0  0  0
   -9.7693   -1.1963   19.4347 N   0  0  0  0  0  0  0  0  0  0  0  0
  -10.5064   -0.2371   18.8273 C   0  0  2  0  0  0  0  0  0  0  0  0
  -11.4716   -0.6292   17.7918 C   0  0  2  0  0  0  0  0  0  0  0  0
  -11.5749   -2.0712   17.4817 C   0  0  0  0  0  0  0  0  0  0  0  0
  -12.4359   -2.5277   16.5389 O   0  0  0  0  0  0  0  0  0  0  0  0
  -12.0500    0.5068   17.3543 N   0  0  0  0  0  0  0  0  0  0  0  0
  -11.5014    1.5420   18.0574 C   0  0  0  0  0  0  0  0  0  0  0  0
  -10.5768    1.0909   18.9352 N   0  0  1  0  0  0  0  0  0  0  0  0
  1  3  1  1  0  0  0
  1  4  2  0  0  0  0
  1  6  1  0  0  0  0
  1 22  1  0  0  0  0
  2 28  1  0  0  0  0
  2 35  1  6  0  0  0
  2 38  2  0  0  0  0
  2 10  1  0  0  0  0
  5  6  1  0  0  0  0
  7  5  1  1  0  0  0
  7  8  1  0  0  0  0
  7  9  1  0  0  0  0
  9 10  1  6  0  0  0
  9 11  1  0  0  0  0
 11 12  1  6  0  0  0
 11 13  1  0  0  0  0
 13  8  1  1  0  0  0
 13 33  1  0  0  0  0
 14 46  1  0  0  0  0
 14 17  1  0  0  0  0
 14 25  1  6  0  0  0
 15 16  1  0  0  0  0
 15 29  1  0  0  0  0
 16 18  1  1  0  0  0
 16 21  1  0  0  0  0
 17 19  1  1  0  0  0
 17 20  1  0  0  0  0
 20 22  1  1  0  0  0
 20 24  1  0  0  0  0
 23 21  1  1  0  0  0
 23 26  1  0  0  0  0
 23 33  1  0  0  0  0
 24 25  1  6  0  0  0
 24 27  1  0  0  0  0
 26 29  1  6  0  0  0
 26 31  1  0  0  0  0
 27 28  1  0  0  0  0
 29 30  2  0  0  0  0
 31 32  1  0  0  0  0
 33 32  1  6  0  0  0
 34 36  1  0  0  0  0
 34 42  1  0  0  0  0
 36 37  1  1  0  0  0
 36 39  1  0  0  0  0
 40 39  1  6  0  0  0
 40 41  1  0  0  0  0
 40 46  1  0  0  0  0
 41 42  1  6  0  0  0
 41 44  1  0  0  0  0
 42 43  2  0  0  0  0
 44 45  1  0  0  0  0
 46 45  1  1  0  0  0
M  CHG  2   3  -1  35  -1
M  END
>  <CHROM.1>
172.70920034,59.55567334,-8.06882533,1.73227114,16.46497197,-0.32061524,0.97935730
0.73643466

>  <Name>
ligand

>  <RI>
-1

>  <Rbt.Current_Directory>
/home/itssahil/PROJECTS/Mol_Feturizer/Test_systems_manuscript/rnas/3mum

>  <Rbt.Executable>
rbdock ($Id: //depot/dev/client3/rdock/2013.1/src/exe/rbdock.cxx#4 $)

>  <Rbt.Library>
libRbt.so (2013.1, Build901 2013/11/27)

>  <Rbt.Parameter_File>
/export/apps/rDock/src/rDock_2013.1_src/data/scripts/dock_solv.prm

>  <Rbt.Receptor>
prm/pocket_docking_4.prm

>  <SCORE>
-39.484

>  <SCORE.INTER>
-39.5076

>  <SCORE.INTER.CONST>
1

>  <SCORE.INTER.POLAR>
0

>  <SCORE.INTER.ROT>
2

>  <SCORE.INTER.SOLV>
39.6198

>  <SCORE.INTER.VDW>
-44.4783

>  <SCORE.INTER.norm>
-0.858861

>  <SCORE.INTRA>
0.0235607

>  <SCORE.INTRA.DIHEDRAL>
-0.0068726

>  <SCORE.INTRA.DIHEDRAL.0>
2.40424

>  <SCORE.INTRA.POLAR>
0

>  <SCORE.INTRA.POLAR.0>
0

>  <SCORE.INTRA.REPUL>
0

>  <SCORE.INTRA.REPUL.0>
0

>  <SCORE.INTRA.SOLV>
0.00583839

>  <SCORE.INTRA.SOLV.lig_0>
-134.169

>  <SCORE.INTRA.VDW>
0.0240778

>  <SCORE.INTRA.VDW.0>
-2.18386

>  <SCORE.INTRA.norm>
0.000512189

>  <SCORE.RESTR>
0

>  <SCORE.RESTR.CAVITY>
0

>  <SCORE.RESTR.norm>
0

>  <SCORE.SYSTEM>
0

>  <SCORE.SYSTEM.CONST>
0

>  <SCORE.SYSTEM.DIHEDRAL>
0

>  <SCORE.SYSTEM.SOLV>
0

>  <SCORE.SYSTEM.norm>
0

>  <SCORE.heavy>
46

>  <SCORE.norm>
-0.858349

>  <RMSD>
0.234

$$$$
ligand
 OpenBabel02271912143D
libRbt.so/2013.1/901 2013/11/27
 46 52  0  0  0  0  0  0  0  0999 V2000
   -5.1577    2.5621   18.6551 P   0  0  1  0  0  0  0  0  0  0  0  0
   -9.6723    4.8512   15.6460 P   0  0  2  0  0  0  0  0  0  0  0  0
   -5.2806    0.7943   18.6948 O   0  5  0  0  0  0  0  0  0  0  0  0
   -3.6627    3.1352   19.4399 O   0  0  0  0  0  0  0  0  0  0  0  0
   -5.2244    4.4262   16.7725 C   0  0  0  0  0  0  0  0  0  0  0  0
   -5.1991    3.0406   17.1161 O   0  0  0  0  0  0  0  0  0  0  0  0
   -5.7423    4.5632   15.3534 C   0  0  1  0  0  0  0  0  0  0  0  0
   -4.9711    3.7256   14.4806 O   0  0  0  0  0  0  0  0  0  0  0  0
   -7.1819    4.1029   15.1926 C   0  0  1  0  0  0  0  0  0  0  0  0
   -8.1109    5.1676   15.3839 O   0  0  0  0  0  0  0  0  0  0  0  0
   -7.2161    3.5669   13.7722 C   0  0  1  0  0  0  0  0  0  0  0  0
   -7.5337    4.6197   12.8583 O   0  0  0  0  0  0  0  0  0  0  0  0
   -5.8015    3.0938   13.4938 C   0  0  2  0  0  0  0  0  0  0  0  0
   -9.6922    1.8806   19.8594 C   0  0  1  0  0  0  0  0  0  0  0  0
   -7.5678   -1.6954   12.0319 N   0  0  0  0  0  0  0  0  0  0  0  0
   -7.9793   -0.4662   11.6168 C   0  0  1  0  0  0  0  0  0  0  0  0
   -8.2350    1.6413   19.5827 C   0  0  2  0  0  0  0  0  0  0  0  0
   -8.9769   -0.3999   10.7052 N   0  0  0  0  0  0  0  0  0  0  0  0
   -7.6099    1.4421   20.8517 O   0  0  0  0  0  0  0  0  0  0  0  0
   -7.7573    2.9104   18.9053 C   0  0  2  0  0  0  0  0  0  0  0  0
   -7.4302    0.6943   12.0839 N   0  0  0  0  0  0  0  0  0  0  0  0
   -6.4445    3.2646   19.3182 O   0  0  0  0  0  0  0  0  0  0  0  0
   -6.4262    0.6814   12.9969 C   0  0  2  0  0  0  0  0  0  0  0  0
   -8.7437    3.9773   19.3379 C   0  0  2  0  0  0  0  0  0  0  0  0
   -9.9268    3.2820   19.7280 O   0  0  0  0  0  0  0  0  0  0  0  0
   -5.9451   -0.6237   13.4822 C   0  0  1  0  0  0  0  0  0  0  0  0
   -9.0771    4.9624   18.2230 C   0  0  0  0  0  0  0  0  0  0  0  0
   -9.6877    4.2551   17.1417 O   0  0  0  0  0  0  0  0  0  0  0  0
   -6.5766   -1.8404   12.9408 C   0  0  0  0  0  0  0  0  0  0  0  0
   -6.1750   -3.0699   13.3520 O   0  0  0  0  0  0  0  0  0  0  0  0
   -4.9725   -0.3754   14.3661 N   0  0  0  0  0  0  0  0  0  0  0  0
   -4.8349    0.9803   14.4487 C   0  0  0  0  0  0  0  0  0  0  0  0
   -5.7019    1.6166   13.6332 N   0  0  1  0  0  0  0  0  0  0  0  0
  -10.8540   -2.9035   18.0900 N   0  0  0  0  0  0  0  0  0  0  0  0
  -10.2982    3.6492   14.4866 O   0  5  0  0  0  0  0  0  0  0  0  0
   -9.9531   -2.5193   19.0353 C   0  0  2  0  0  0  0  0  0  0  0  0
   -9.2079   -3.4651   19.6648 N   0  0  0  0  0  0  0  0  0  0  0  0
  -10.6989    6.2978   15.6101 O   0  0  0  0  0  0  0  0  0  0  0  0
   -9.7741   -1.2130   19.3727 N   0  0  0  0  0  0  0  0  0  0  0  0
  -10.4913   -0.2265   18.7858 C   0  0  2  0  0  0  0  0  0  0  0  0
  -11.4773   -0.5786   17.7556 C   0  0  2  0  0  0  0  0  0  0  0  0
  -11.6227   -2.0130   17.4278 C   0  0  0  0  0  0  0  0  0  0  0  0
  -12.5054   -2.4337   16.4884 O   0  0  0  0  0  0  0  0  0  0  0  0
  -12.0294    0.5782   17.3392 N   0  0  0  0  0  0  0  0  0  0  0  0
  -11.4458    1.5889   18.0498 C   0  0  0  0  0  0  0  0  0  0  0  0
  -10.5247    1.1015   18.9118 N   0  0  1  0  0  0  0  0  0  0  0  0
  1  3  1  1  0  0  0
  1  4  2  0  0  0  0
  1  6  1  0  0  0  0
  1 22  1  0  0  0  0
  2 28  1  0  0  0  0
  2 35  1  6  0  0  0
  2 38  2  0  0  0  0
  2 10  1  0  0  0  0
  5  6  1  0  0  0  0
  7  5  1  1  0  0  0
  7  8  1  0  0  0  0
  7  9  1  0  0  0  0
  9 10  1  6  0  0  0
  9 11  1  0  0  0  0
 11 12  1  6  0  0  0
 11 13  1  0  0  0  0
 13  8  1  1  0  0  0
 13 33  1  0  0  0  0
 14 46  1  0  0  0  0
 14 17  1  0  0  0  0
 14 25  1  6  0  0  0
 15 16  1  0  0  0  0
 15 29  1  0  0  0  0
 16 18  1  1  0  0  0
 16 21  1  0  0  0  0
 17 19  1  1  0  0  0
 17 20  1  0  0  0  0
 20 22  1  1  0  0  0
 20 24  1  0  0  0  0
 23 21  1  1  0  0  0
 23 26  1  0  0  0  0
 23 33  1  0  0  0  0
 24 25  1  6  0  0  0
 24 27  1  0  0  0  0
 26 29  1  6  0  0  0
 26 31  1  0  0  0  0
 27 28  1  0  0  0  0
 29 30  2  0  0  0  0
 31 32  1  0  0  0  0
 33 32  1  6  0  0  0
 34 36  1  0  0  0  0
 34 42  1  0  0  0  0
 36 37  1  1  0  0  0
 36 39  1  0  0  0  0
 40 39  1  6  0  0  0
 40 41  1  0  0  0  0
 40 46  1  0  0  0  0
 41 42  1  6  0  0  0
 41 44  1  0  0  0  0
 42 43  2  0  0  0  0
 44 45  1  0  0  0  0
 46 45  1  1  0  0  0
M  CHG  2   3  -1  35  -1
M  END
>  <CHROM.1>
172.41152602,59.19235283,-8.01481872,1.68933517,16.42943091,-0.36638290,0.96328210
0.78589149

>  <Name>
ligand

>  <RI>
-1

>  <Rbt.Current_Directory>
/home/itssahil/PROJECTS/Mol_Feturizer/Test_systems_manuscript/rnas/3mum

>  <Rbt.Executable>
rbdock ($Id: //depot/dev/client3/rdock/2013.1/src/exe/rbdock.cxx#4 $)

>  <Rbt.Library>
libRbt.so (2013.1, Build901 2013/11/27)

>  <Rbt.Parameter_File>
/export/apps/rDock/src/rDock_2013.1_src/data/scripts/dock_solv.prm

>  <Rbt.Receptor>
prm/pocket_docking_5.prm

>  <SCORE>
-39.6214

>  <SCORE.INTER>
-39.6519

>  <SCORE.INTER.CONST>
1

>  <SCORE.INTER.POLAR>
0

>  <SCORE.INTER.ROT>
2

>  <SCORE.INTER.SOLV>
40.0235

>  <SCORE.INTER.VDW>
-44.7091

>  <SCORE.INTER.norm>
-0.861998

>  <SCORE.INTRA>
0.0305495

>  <SCORE.INTRA.DIHEDRAL>
-0.00744835

>  <SCORE.INTRA.DIHEDRAL.0>
2.40424

>  <SCORE.INTRA.POLAR>
0

>  <SCORE.INTRA.POLAR.0>
0

>  <SCORE.INTRA.REPUL>
0

>  <SCORE.INTRA.REPUL.0>
0

>  <SCORE.INTRA.SOLV>
0.00659362

>  <SCORE.INTRA.SOLV.lig_0>
-134.169

>  <SCORE.INTRA.VDW>
0.0309769

>  <SCORE.INTRA.VDW.0>
-2.18386

>  <SCORE.INTRA.norm>
0.00066412

>  <SCORE.RESTR>
0

>  <SCORE.RESTR.CAVITY>
0

>  <SCORE.RESTR.norm>
0

>  <SCORE.SYSTEM>
0

>  <SCORE.SYSTEM.CONST>
0

>  <SCORE.SYSTEM.DIHEDRAL>
0

>  <SCORE.SYSTEM.SOLV>
0

>  <SCORE.SYSTEM.norm>
0

>  <SCORE.heavy>
46

>  <SCORE.norm>
-0.861334

>  <RMSD>
0.236

$$$$
ligand
 OpenBabel02271912143D
libRbt.so/2013.1/901 2013/11/27
 46 52  0  0  0  0  0  0  0  0999 V2000
   -5.2773    2.5481   18.6830 P   0  0  1  0  0  0  0  0  0  0  0  0
   -9.7600    4.8476   15.6343 P   0  0  2  0  0  0  0  0  0  0  0  0
   -5.4262    0.7834   18.7554 O   0  5  0  0  0  0  0  0  0  0  0  0
   -3.7733    3.1134   19.4562 O   0  0  0  0  0  0  0  0  0  0  0  0
   -5.3180    4.3778   16.7662 C   0  0  0  0  0  0  0  0  0  0  0  0
   -5.3129    2.9986   17.1354 O   0  0  0  0  0  0  0  0  0  0  0  0
   -5.8348    4.4961   15.3451 C   0  0  1  0  0  0  0  0  0  0  0  0
   -5.0768    3.6313   14.4875 O   0  0  0  0  0  0  0  0  0  0  0  0
   -7.2813    4.0543   15.1936 C   0  0  1  0  0  0  0  0  0  0  0  0
   -8.1943    5.1359   15.3656 O   0  0  0  0  0  0  0  0  0  0  0  0
   -7.3245    3.4926   13.7834 C   0  0  1  0  0  0  0  0  0  0  0  0
   -7.6272    4.5329   12.8503 O   0  0  0  0  0  0  0  0  0  0  0  0
   -5.9172    2.9936   13.5130 C   0  0  2  0  0  0  0  0  0  0  0  0
   -9.8204    1.9560   19.9020 C   0  0  1  0  0  0  0  0  0  0  0  0
   -7.4235   -1.8125   11.8322 N   0  0  0  0  0  0  0  0  0  0  0  0
   -7.7652   -0.5881   11.3460 C   0  0  1  0  0  0  0  0  0  0  0  0
   -8.3671    1.6902   19.6290 C   0  0  2  0  0  0  0  0  0  0  0  0
   -8.6055   -0.5322   10.2870 N   0  0  0  0  0  0  0  0  0  0  0  0
   -7.7440    1.5053   20.9012 O   0  0  0  0  0  0  0  0  0  0  0  0
   -7.8712    2.9394   18.9279 C   0  0  2  0  0  0  0  0  0  0  0  0
   -7.2986    0.5779   11.8839 N   0  0  0  0  0  0  0  0  0  0  0  0
   -6.5530    3.2817   19.3336 O   0  0  0  0  0  0  0  0  0  0  0  0
   -6.4524    0.5755   12.9448 C   0  0  2  0  0  0  0  0  0  0  0  0
   -8.8415    4.0286   19.3412 C   0  0  2  0  0  0  0  0  0  0  0  0
  -10.0343    3.3581   19.7448 O   0  0  0  0  0  0  0  0  0  0  0  0
   -6.0530   -0.7242   13.5120 C   0  0  1  0  0  0  0  0  0  0  0  0
   -9.1612    4.9976   18.2085 C   0  0  0  0  0  0  0  0  0  0  0  0
   -9.7830    4.2796   17.1409 O   0  0  0  0  0  0  0  0  0  0  0  0
   -6.5890   -1.9471   12.8882 C   0  0  0  0  0  0  0  0  0  0  0  0
   -6.2564   -3.1720   13.3689 O   0  0  0  0  0  0  0  0  0  0  0  0
   -5.2333   -0.4657   14.5369 N   0  0  0  0  0  0  0  0  0  0  0  0
   -5.1121    0.8910   14.6281 C   0  0  0  0  0  0  0  0  0  0  0  0
   -5.8394    1.5180   13.6797 N   0  0  1  0  0  0  0  0  0  0  0  0
  -10.6795   -2.7647   17.8176 N   0  0  0  0  0  0  0  0  0  0  0  0
  -10.4044    3.6337   14.4977 O   0  5  0  0  0  0  0  0  0  0  0  0
   -9.7283   -2.3643   18.7052 C   0  0  2  0  0  0  0  0  0  0  0  0
   -8.8322   -3.2726   19.1720 N   0  0  0  0  0  0  0  0  0  0  0  0
  -10.7652    6.3083   15.5722 O   0  0  0  0  0  0  0  0  0  0  0  0
   -9.6455   -1.0783   19.1428 N   0  0  0  0  0  0  0  0  0  0  0  0
  -10.5135   -0.1299   18.7193 C   0  0  2  0  0  0  0  0  0  0  0  0
  -11.5610   -0.5008   17.7585 C   0  0  2  0  0  0  0  0  0  0  0  0
  -11.5967   -1.9110   17.3154 C   0  0  0  0  0  0  0  0  0  0  0  0
  -12.5257   -2.3460   16.4287 O   0  0  0  0  0  0  0  0  0  0  0  0
  -12.2648    0.6200   17.5041 N   0  0  0  0  0  0  0  0  0  0  0  0
  -11.7138    1.6262   18.2465 C   0  0  0  0  0  0  0  0  0  0  0  0
  -10.6650    1.1719   18.9694 N   0  0  1  0  0  0  0  0  0  0  0  0
  1  3  1  1  0  0  0
  1  4  2  0  0  0  0
  1  6  1  0  0  0  0
  1 22  1  0  0  0  0
  2 28  1  0  0  0  0
  2 35  1  6  0  0  0
  2 38  2  0  0  0  0
  2 10  1  0  0  0  0
  5  6  1  0  0  0  0
  7  5  1  1  0  0  0
  7  8  1  0  0  0  0
  7  9  1  0  0  0  0
  9 10  1  6  0  0  0
  9 11  1  0  0  0  0
 11 12  1  6  0  0  0
 11 13  1  0  0  0  0
 13  8  1  1  0  0  0
 13 33  1  0  0  0  0
 14 46  1  0  0  0  0
 14 17  1  0  0  0  0
 14 25  1  6  0  0  0
 15 16  1  0  0  0  0
 15 29  1  0  0  0  0
 16 18  1  1  0  0  0
 16 21  1  0  0  0  0
 17 19  1  1  0  0  0
 17 20  1  0  0  0  0
 20 22  1  1  0  0  0
 20 24  1  0  0  0  0
 23 21  1  1  0  0  0
 23 26  1  0  0  0  0
 23 33  1  0  0  0  0
 24 25  1  6  0  0  0
 24 27  1  0  0  0  0
 26 29  1  6  0  0  0
 26 31  1  0  0  0  0
 27 28  1  0  0  0  0
 29 30  2  0  0  0  0
 31 32  1  0  0  0  0
 33 32  1  6  0  0  0
 34 36  1  0  0  0  0
 34 42  1  0  0  0  0
 36 37  1  1  0  0  0
 36 39  1  0  0  0  0
 40 39  1  6  0  0  0
 40 41  1  0  0  0  0
 40 46  1  0  0  0  0
 41 42  1  6  0  0  0
 41 44  1  0  0  0  0
 42 43  2  0  0  0  0
 44 45  1  0  0  0  0
 46 45  1  1  0  0  0
M  CHG  2   3  -1  35  -1
M  END
>  <CHROM.1>
-178.34734276,48.48363421,-8.07184946,1.68313939,16.39768533,-2.29481626
-0.96232017,-2.41643661

>  <Name>
ligand

>  <RI>
-1

>  <Rbt.Current_Directory>
/home/itssahil/PROJECTS/Mol_Feturizer/Test_systems_manuscript/rnas/3mum

>  <Rbt.Executable>
rbdock ($Id: //depot/dev/client3/rdock/2013.1/src/exe/rbdock.cxx#4 $)

>  <Rbt.Library>
libRbt.so (2013.1, Build901 2013/11/27)

>  <Rbt.Parameter_File>
/export/apps/rDock/src/rDock_2013.1_src/data/scripts/dock_solv.prm

>  <Rbt.Receptor>
prm/pocket_docking_5.prm

>  <SCORE>
-40.3326

>  <SCORE.INTER>
-40.4156

>  <SCORE.INTER.CONST>
1

>  <SCORE.INTER.POLAR>
0

>  <SCORE.INTER.ROT>
2

>  <SCORE.INTER.SOLV>
39.146

>  <SCORE.INTER.VDW>
-44.9257

>  <SCORE.INTER.norm>
-0.8786

>  <SCORE.INTRA>
0.0829667

>  <SCORE.INTRA.DIHEDRAL>
-0.0200938

>  <SCORE.INTRA.DIHEDRAL.0>
2.40424

>  <SCORE.INTRA.POLAR>
0

>  <SCORE.INTRA.POLAR.0>
0

>  <SCORE.INTRA.REPUL>
0

>  <SCORE.INTRA.REPUL.0>
0

>  <SCORE.INTRA.SOLV>
0.0183962

>  <SCORE.INTRA.SOLV.lig_0>
-134.169

>  <SCORE.INTRA.VDW>
0.0838155

>  <SCORE.INTRA.VDW.0>
-2.18386

>  <SCORE.INTRA.norm>
0.00180362

>  <SCORE.RESTR>
0

>  <SCORE.RESTR.CAVITY>
0

>  <SCORE.RESTR.norm>
0

>  <SCORE.SYSTEM>
0

>  <SCORE.SYSTEM.CONST>
0

>  <SCORE.SYSTEM.DIHEDRAL>
0

>  <SCORE.SYSTEM.SOLV>
0

>  <SCORE.SYSTEM.norm>
0

>  <SCORE.heavy>
46

>  <SCORE.norm>
-0.876796

>  <RMSD>
0.236

$$$$
ligand
 OpenBabel02271912143D
libRbt.so/2013.1/901 2013/11/27
 46 52  0  0  0  0  0  0  0  0999 V2000
   -5.2674    2.6838   18.7145 P   0  0  1  0  0  0  0  0  0  0  0  0
   -9.8250    4.7961   15.6415 P   0  0  2  0  0  0  0  0  0  0  0  0
   -5.3391    0.9140   18.7794 O   0  5  0  0  0  0  0  0  0  0  0  0
   -3.7953    3.3116   19.5006 O   0  0  0  0  0  0  0  0  0  0  0  0
   -5.3748    4.5175   16.8040 C   0  0  0  0  0  0  0  0  0  0  0  0
   -5.3117    3.1384   17.1683 O   0  0  0  0  0  0  0  0  0  0  0  0
   -5.8862    4.6186   15.3796 C   0  0  1  0  0  0  0  0  0  0  0  0
   -5.0848    3.7913   14.5245 O   0  0  0  0  0  0  0  0  0  0  0  0
   -7.3108    4.1142   15.2160 C   0  0  1  0  0  0  0  0  0  0  0  0
   -8.2716    5.1540   15.3852 O   0  0  0  0  0  0  0  0  0  0  0  0
   -7.3191    3.5567   13.8035 C   0  0  1  0  0  0  0  0  0  0  0  0
   -7.6606    4.5864   12.8720 O   0  0  0  0  0  0  0  0  0  0  0  0
   -5.8894    3.1211   13.5416 C   0  0  2  0  0  0  0  0  0  0  0  0
   -9.7887    1.8879   19.8982 C   0  0  1  0  0  0  0  0  0  0  0  0
   -7.5038   -1.7384   12.1373 N   0  0  0  0  0  0  0  0  0  0  0  0
   -7.9476   -0.5280   11.7010 C   0  0  1  0  0  0  0  0  0  0  0  0
   -8.3232    1.6873   19.6348 C   0  0  2  0  0  0  0  0  0  0  0  0
   -8.9395   -0.5041   10.7810 N   0  0  0  0  0  0  0  0  0  0  0  0
   -7.7017    1.5249   20.9108 O   0  0  0  0  0  0  0  0  0  0  0  0
   -7.8777    2.9598   18.9419 C   0  0  2  0  0  0  0  0  0  0  0  0
   -7.4362    0.6548   12.1550 N   0  0  0  0  0  0  0  0  0  0  0  0
   -6.5788    3.3581   19.3584 O   0  0  0  0  0  0  0  0  0  0  0  0
   -6.4396    0.6846   13.0756 C   0  0  2  0  0  0  0  0  0  0  0  0
   -8.8978    4.0037   19.3520 C   0  0  2  0  0  0  0  0  0  0  0  0
  -10.0629    3.2799   19.7444 O   0  0  0  0  0  0  0  0  0  0  0  0
   -5.9246   -0.5988   13.5837 C   0  0  1  0  0  0  0  0  0  0  0  0
   -9.2518    4.9622   18.2205 C   0  0  0  0  0  0  0  0  0  0  0  0
   -9.8337    4.2217   17.1457 O   0  0  0  0  0  0  0  0  0  0  0  0
   -6.5160   -1.8411   13.0556 C   0  0  0  0  0  0  0  0  0  0  0  0
   -6.0820   -3.0523   13.4879 O   0  0  0  0  0  0  0  0  0  0  0  0
   -4.9666   -0.3093   14.4711 N   0  0  0  0  0  0  0  0  0  0  0  0
   -4.8692    1.0509   14.5348 C   0  0  0  0  0  0  0  0  0  0  0  0
   -5.7479    1.6497   13.7035 N   0  0  1  0  0  0  0  0  0  0  0  0
  -10.7973   -2.9532   18.1910 N   0  0  0  0  0  0  0  0  0  0  0  0
  -10.4073    3.5596   14.4958 O   0  5  0  0  0  0  0  0  0  0  0  0
   -9.9146   -2.5291   19.1365 C   0  0  2  0  0  0  0  0  0  0  0  0
   -9.1463   -3.4434   19.7844 N   0  0  0  0  0  0  0  0  0  0  0  0
  -10.8930    6.2115   15.5772 O   0  0  0  0  0  0  0  0  0  0  0  0
   -9.7763   -1.2134   19.4560 N   0  0  0  0  0  0  0  0  0  0  0  0
  -10.5181   -0.2569   18.8501 C   0  0  2  0  0  0  0  0  0  0  0  0
  -11.4863   -0.6527   17.8188 C   0  0  2  0  0  0  0  0  0  0  0  0
  -11.5872   -2.0953   17.5110 C   0  0  0  0  0  0  0  0  0  0  0  0
  -12.4506   -2.5552   16.5721 O   0  0  0  0  0  0  0  0  0  0  0  0
  -12.0691    0.4813   17.3821 N   0  0  0  0  0  0  0  0  0  0  0  0
  -11.5204    1.5188   18.0817 C   0  0  0  0  0  0  0  0  0  0  0  0
  -10.5914    1.0712   18.9566 N   0  0  1  0  0  0  0  0  0  0  0  0
  1  3  1  1  0  0  0
  1  4  2  0  0  0  0
  1  6  1  0  0  0  0
  1 22  1  0  0  0  0
  2 28  1  0  0  0  0
  2 35  1  6  0  0  0
  2 38  2  0  0  0  0
  2 10  1  0  0  0  0
  5  6  1  0  0  0  0
  7  5  1  1  0  0  0
  7  8  1  0  0  0  0
  7  9  1  0  0  0  0
  9 10  1  6  0  0  0
  9 11  1  0  0  0  0
 11 12  1  6  0  0  0
 11 13  1  0  0  0  0
 13  8  1  1  0  0  0
 13 33  1  0  0  0  0
 14 46  1  0  0  0  0
 14 17  1  0  0  0  0
 14 25  1  6  0  0  0
 15 16  1  0  0  0  0
 15 29  1  0  0  0  0
 16 18  1  1  0  0  0
 16 21  1  0  0  0  0
 17 19  1  1  0  0  0
 17 20  1  0  0  0  0
 20 22  1  1  0  0  0
 20 24  1  0  0  0  0
 23 21  1  1  0  0  0
 23 26  1  0  0  0  0
 23 33  1  0  0  0  0
 24 25  1  6  0  0  0
 24 27  1  0  0  0  0
 26 29  1  6  0  0  0
 26 31  1  0  0  0  0
 27 28  1  0  0  0  0
 29 30  2  0  0  0  0
 31 32  1  0  0  0  0
 33 32  1  6  0  0  0
 34 36  1  0  0  0  0
 34 42  1  0  0  0  0
 36 37  1  1  0  0  0
 36 39  1  0  0  0  0
 40 39  1  6  0  0  0
 40 41  1  0  0  0  0
 40 46  1  0  0  0  0
 41 42  1  6  0  0  0
 41 44  1  0  0  0  0
 42 43  2  0  0  0  0
 44 45  1  0  0  0  0
 46 45  1  1  0  0  0
M  CHG  2   3  -1  35  -1
M  END
>  <CHROM.1>
172.45685162,59.16599374,-8.08167068,1.69569521,16.48246092,-0.32231830,0.97836294
0.73312140

>  <Name>
ligand

>  <RI>
416

>  <Rbt.Current_Directory>
/home/itssahil/PROJECTS/Mol_Feturizer/Test_systems_manuscript/rnas/3mum

>  <Rbt.Executable>
rbdock ($Id: //depot/dev/client3/rdock/2013.1/src/exe/rbdock.cxx#4 $)

>  <Rbt.Library>
libRbt.so (2013.1, Build901 2013/11/27)

>  <Rbt.Parameter_File>
/export/apps/rDock/src/rDock_2013.1_src/data/scripts/dock_solv.prm

>  <Rbt.Receptor>
prm/pocket_docking_2.prm

>  <SCORE>
-39.2195

>  <SCORE.INTER>
-39.25

>  <SCORE.INTER.CONST>
1

>  <SCORE.INTER.POLAR>
0

>  <SCORE.INTER.ROT>
2

>  <SCORE.INTER.SOLV>
39.8865

>  <SCORE.INTER.VDW>
-44.3955

>  <SCORE.INTER.norm>
-0.853261

>  <SCORE.INTRA>
0.0305621

>  <SCORE.INTRA.DIHEDRAL>
-0.00747841

>  <SCORE.INTRA.DIHEDRAL.0>
2.40424

>  <SCORE.INTRA.POLAR>
0

>  <SCORE.INTRA.POLAR.0>
0

>  <SCORE.INTRA.REPUL>
0

>  <SCORE.INTRA.REPUL.0>
0

>  <SCORE.INTRA.SOLV>
0.00661723

>  <SCORE.INTRA.SOLV.lig_0>
-134.169

>  <SCORE.INTRA.VDW>
0.0309927

>  <SCORE.INTRA.VDW.0>
-2.18386

>  <SCORE.INTRA.norm>
0.000664394

>  <SCORE.RESTR>
0

>  <SCORE.RESTR.CAVITY>
0

>  <SCORE.RESTR.norm>
0

>  <SCORE.SYSTEM>
0

>  <SCORE.SYSTEM.CONST>
0

>  <SCORE.SYSTEM.DIHEDRAL>
0

>  <SCORE.SYSTEM.SOLV>
0

>  <SCORE.SYSTEM.norm>
0

>  <SCORE.heavy>
46

>  <SCORE.norm>
-0.852597

>  <RMSD>
0.238

$$$$
ligand
 OpenBabel02271912143D
libRbt.so/2013.1/901 2013/11/27
 46 52  0  0  0  0  0  0  0  0999 V2000
   -5.3039    2.6172   18.7065 P   0  0  1  0  0  0  0  0  0  0  0  0
   -9.8007    4.8366   15.6196 P   0  0  2  0  0  0  0  0  0  0  0  0
   -5.4244    0.8504   18.7816 O   0  5  0  0  0  0  0  0  0  0  0  0
   -3.8152    3.2086   19.4896 O   0  0  0  0  0  0  0  0  0  0  0  0
   -5.3602    4.4420   16.7855 C   0  0  0  0  0  0  0  0  0  0  0  0
   -5.3353    3.0639   17.1577 O   0  0  0  0  0  0  0  0  0  0  0  0
   -5.8683    4.5490   15.3603 C   0  0  1  0  0  0  0  0  0  0  0  0
   -5.0898    3.6949   14.5103 O   0  0  0  0  0  0  0  0  0  0  0  0
   -7.3061    4.0832   15.1990 C   0  0  1  0  0  0  0  0  0  0  0  0
   -8.2380    5.1501   15.3619 O   0  0  0  0  0  0  0  0  0  0  0  0
   -7.3296    3.5180   13.7898 C   0  0  1  0  0  0  0  0  0  0  0  0
   -7.6423    4.5513   12.8522 O   0  0  0  0  0  0  0  0  0  0  0  0
   -5.9124    3.0416   13.5309 C   0  0  2  0  0  0  0  0  0  0  0  0
   -9.8457    1.9532   19.8930 C   0  0  1  0  0  0  0  0  0  0  0  0
   -7.3743   -1.7909   11.8869 N   0  0  0  0  0  0  0  0  0  0  0  0
   -7.7398   -0.5731   11.4014 C   0  0  1  0  0  0  0  0  0  0  0  0
   -8.3862    1.7107   19.6313 C   0  0  2  0  0  0  0  0  0  0  0  0
   -8.5953   -0.5326   10.3540 N   0  0  0  0  0  0  0  0  0  0  0  0
   -7.7697    1.5386   20.9086 O   0  0  0  0  0  0  0  0  0  0  0  0
   -7.9056    2.9664   18.9313 C   0  0  2  0  0  0  0  0  0  0  0  0
   -7.2821    0.6012   11.9290 N   0  0  0  0  0  0  0  0  0  0  0  0
   -6.5963    3.3311   19.3460 O   0  0  0  0  0  0  0  0  0  0  0  0
   -6.4214    0.6142   12.9781 C   0  0  2  0  0  0  0  0  0  0  0  0
   -8.8966    4.0403   19.3350 C   0  0  2  0  0  0  0  0  0  0  0  0
  -10.0813    3.3512   19.7311 O   0  0  0  0  0  0  0  0  0  0  0  0
   -5.9961   -0.6778   13.5441 C   0  0  1  0  0  0  0  0  0  0  0  0
   -9.2237    5.0017   18.1978 C   0  0  0  0  0  0  0  0  0  0  0  0
   -9.8257    4.2714   17.1271 O   0  0  0  0  0  0  0  0  0  0  0  0
   -6.5236   -1.9102   12.9317 C   0  0  0  0  0  0  0  0  0  0  0  0
   -6.1673   -3.1286   13.4118 O   0  0  0  0  0  0  0  0  0  0  0  0
   -5.1661   -0.4043   14.5567 N   0  0  0  0  0  0  0  0  0  0  0  0
   -5.0627    0.9542   14.6418 C   0  0  0  0  0  0  0  0  0  0  0  0
   -5.8116    1.5678   13.7014 N   0  0  1  0  0  0  0  0  0  0  0  0
  -10.5864   -2.7758   17.7821 N   0  0  0  0  0  0  0  0  0  0  0  0
  -10.4167    3.6100   14.4808 O   0  5  0  0  0  0  0  0  0  0  0  0
   -9.6456   -2.3568   18.6721 C   0  0  2  0  0  0  0  0  0  0  0  0
   -8.7271   -3.2450   19.1341 N   0  0  0  0  0  0  0  0  0  0  0  0
  -10.8292    6.2805   15.5468 O   0  0  0  0  0  0  0  0  0  0  0  0
   -9.5950   -1.0715   19.1170 N   0  0  0  0  0  0  0  0  0  0  0  0
  -10.4864   -0.1428   18.6985 C   0  0  2  0  0  0  0  0  0  0  0  0
  -11.5241   -0.5344   17.7354 C   0  0  2  0  0  0  0  0  0  0  0  0
  -11.5246   -1.9425   17.2845 C   0  0  0  0  0  0  0  0  0  0  0  0
  -12.4423   -2.3956   16.3951 O   0  0  0  0  0  0  0  0  0  0  0  0
  -12.2556    0.5699   17.4871 N   0  0  0  0  0  0  0  0  0  0  0  0
  -11.7301    1.5854   18.2352 C   0  0  0  0  0  0  0  0  0  0  0  0
  -10.6703    1.1535   18.9558 N   0  0  1  0  0  0  0  0  0  0  0  0
  1  3  1  1  0  0  0
  1  4  2  0  0  0  0
  1  6  1  0  0  0  0
  1 22  1  0  0  0  0
  2 28  1  0  0  0  0
  2 35  1  6  0  0  0
  2 38  2  0  0  0  0
  2 10  1  0  0  0  0
  5  6  1  0  0  0  0
  7  5  1  1  0  0  0
  7  8  1  0  0  0  0
  7  9  1  0  0  0  0
  9 10  1  6  0  0  0
  9 11  1  0  0  0  0
 11 12  1  6  0  0  0
 11 13  1  0  0  0  0
 13  8  1  1  0  0  0
 13 33  1  0  0  0  0
 14 46  1  0  0  0  0
 14 17  1  0  0  0  0
 14 25  1  6  0  0  0
 15 16  1  0  0  0  0
 15 29  1  0  0  0  0
 16 18  1  1  0  0  0
 16 21  1  0  0  0  0
 17 19  1  1  0  0  0
 17 20  1  0  0  0  0
 20 22  1  1  0  0  0
 20 24  1  0  0  0  0
 23 21  1  1  0  0  0
 23 26  1  0  0  0  0
 23 33  1  0  0  0  0
 24 25  1  6  0  0  0
 24 27  1  0  0  0  0
 26 29  1  6  0  0  0
 26 31  1  0  0  0  0
 27 28  1  0  0  0  0
 29 30  2  0  0  0  0
 31 32  1  0  0  0  0
 33 32  1  6  0  0  0
 34 36  1  0  0  0  0
 34 42  1  0  0  0  0
 36 37  1  1  0  0  0
 36 39  1  0  0  0  0
 40 39  1  6  0  0  0
 40 41  1  0  0  0  0
 40 46  1  0  0  0  0
 41 42  1  6  0  0  0
 41 44  1  0  0  0  0
 42 43  2  0  0  0  0
 44 45  1  0  0  0  0
 46 45  1  1  0  0  0
M  CHG  2   3  -1  35  -1
M  END
>  <CHROM.1>
-179.57546590,47.70357841,-8.06906482,1.70299141,16.40307256,-2.29921753
-0.96624168,-2.43884211

>  <Name>
ligand

>  <RI>
416

>  <Rbt.Current_Directory>
/home/itssahil/PROJECTS/Mol_Feturizer/Test_systems_manuscript/rnas/3mum

>  <Rbt.Executable>
rbdock ($Id: //depot/dev/client3/rdock/2013.1/src/exe/rbdock.cxx#4 $)

>  <Rbt.Library>
libRbt.so (2013.1, Build901 2013/11/27)

>  <Rbt.Parameter_File>
/export/apps/rDock/src/rDock_2013.1_src/data/scripts/dock_solv.prm

>  <Rbt.Receptor>
prm/pocket_docking_3.prm

>  <SCORE>
-40.314

>  <SCORE.INTER>
-40.4029

>  <SCORE.INTER.CONST>
1

>  <SCORE.INTER.POLAR>
0

>  <SCORE.INTER.ROT>
2

>  <SCORE.INTER.SOLV>
38.8203

>  <SCORE.INTER.VDW>
-44.8087

>  <SCORE.INTER.norm>
-0.878324

>  <SCORE.INTRA>
0.0889003

>  <SCORE.INTRA.DIHEDRAL>
-0.0212247

>  <SCORE.INTRA.DIHEDRAL.0>
2.40424

>  <SCORE.INTRA.POLAR>
0

>  <SCORE.INTRA.POLAR.0>
0

>  <SCORE.INTRA.REPUL>
0

>  <SCORE.INTRA.REPUL.0>
0

>  <SCORE.INTRA.SOLV>
0.0197451

>  <SCORE.INTRA.SOLV.lig_0>
-134.169

>  <SCORE.INTRA.VDW>
0.0896401

>  <SCORE.INTRA.VDW.0>
-2.18386

>  <SCORE.INTRA.norm>
0.00193261

>  <SCORE.RESTR>
0

>  <SCORE.RESTR.CAVITY>
0

>  <SCORE.RESTR.norm>
0

>  <SCORE.SYSTEM>
0

>  <SCORE.SYSTEM.CONST>
0

>  <SCORE.SYSTEM.DIHEDRAL>
0

>  <SCORE.SYSTEM.SOLV>
0

>  <SCORE.SYSTEM.norm>
0

>  <SCORE.heavy>
46

>  <SCORE.norm>
-0.876391

>  <RMSD>
0.238

$$$$
ligand
 OpenBabel02271912143D
libRbt.so/2013.1/901 2013/11/27
 46 52  0  0  0  0  0  0  0  0999 V2000
   -5.2524    2.7019   18.6967 P   0  0  1  0  0  0  0  0  0  0  0  0
   -9.8160    4.8342   15.6466 P   0  0  2  0  0  0  0  0  0  0  0  0
   -5.3221    0.9315   18.7473 O   0  5  0  0  0  0  0  0  0  0  0  0
   -3.7800    3.3249   19.4862 O   0  0  0  0  0  0  0  0  0  0  0  0
   -5.3641    4.5509   16.8015 C   0  0  0  0  0  0  0  0  0  0  0  0
   -5.2990    3.1690   17.1544 O   0  0  0  0  0  0  0  0  0  0  0  0
   -5.8773    4.6631   15.3785 C   0  0  1  0  0  0  0  0  0  0  0  0
   -5.0761    3.8436   14.5158 O   0  0  0  0  0  0  0  0  0  0  0  0
   -7.3015    4.1585   15.2125 C   0  0  1  0  0  0  0  0  0  0  0  0
   -8.2633    5.1959   15.3914 O   0  0  0  0  0  0  0  0  0  0  0  0
   -7.3110    3.6126   13.7955 C   0  0  1  0  0  0  0  0  0  0  0  0
   -7.6548    4.6494   12.8729 O   0  0  0  0  0  0  0  0  0  0  0  0
   -5.8812    3.1806   13.5284 C   0  0  2  0  0  0  0  0  0  0  0  0
   -9.7713    1.8915   19.8794 C   0  0  1  0  0  0  0  0  0  0  0  0
   -7.4879   -1.6690   12.0820 N   0  0  0  0  0  0  0  0  0  0  0  0
   -7.9329   -0.4556   11.6554 C   0  0  1  0  0  0  0  0  0  0  0  0
   -8.3060    1.6946   19.6126 C   0  0  2  0  0  0  0  0  0  0  0  0
   -8.9239   -0.4253   10.7348 N   0  0  0  0  0  0  0  0  0  0  0  0
   -7.6827    1.5225   20.8866 O   0  0  0  0  0  0  0  0  0  0  0  0
   -7.8627    2.9732   18.9296 C   0  0  2  0  0  0  0  0  0  0  0  0
   -7.4235    0.7240   12.1198 N   0  0  0  0  0  0  0  0  0  0  0  0
   -6.5637    3.3695   19.3477 O   0  0  0  0  0  0  0  0  0  0  0  0
   -6.4278    0.7473   13.0415 C   0  0  2  0  0  0  0  0  0  0  0  0
   -8.8834    4.0126   19.3494 C   0  0  2  0  0  0  0  0  0  0  0  0
  -10.0472    3.2843   19.7374 O   0  0  0  0  0  0  0  0  0  0  0  0
   -5.9115   -0.5395   13.5394 C   0  0  1  0  0  0  0  0  0  0  0  0
   -9.2397    4.9799   18.2262 C   0  0  0  0  0  0  0  0  0  0  0  0
   -9.8222    4.2476   17.1462 O   0  0  0  0  0  0  0  0  0  0  0  0
   -6.5008   -1.7782   13.0003 C   0  0  0  0  0  0  0  0  0  0  0  0
   -6.0657   -2.9923   13.4229 O   0  0  0  0  0  0  0  0  0  0  0  0
   -4.9548   -0.2562   14.4301 N   0  0  0  0  0  0  0  0  0  0  0  0
   -4.8592    1.1035   14.5051 C   0  0  0  0  0  0  0  0  0  0  0  0
   -5.7379    1.7081   13.6781 N   0  0  1  0  0  0  0  0  0  0  0  0
  -10.8061   -2.9406   18.1622 N   0  0  0  0  0  0  0  0  0  0  0  0
  -10.3984    3.6064   14.4916 O   0  5  0  0  0  0  0  0  0  0  0  0
   -9.9262   -2.5239   19.1135 C   0  0  2  0  0  0  0  0  0  0  0  0
   -9.1689   -3.4445   19.7656 N   0  0  0  0  0  0  0  0  0  0  0  0
  -10.8855    6.2489   15.5952 O   0  0  0  0  0  0  0  0  0  0  0  0
   -9.7798   -1.2095   19.4349 N   0  0  0  0  0  0  0  0  0  0  0  0
  -10.5105   -0.2469   18.8252 C   0  0  2  0  0  0  0  0  0  0  0  0
  -11.4751   -0.6346   17.7875 C   0  0  2  0  0  0  0  0  0  0  0  0
  -11.5851   -2.0762   17.4779 C   0  0  0  0  0  0  0  0  0  0  0  0
  -12.4462   -2.5288   16.5333 O   0  0  0  0  0  0  0  0  0  0  0  0
  -12.0466    0.5041   17.3480 N   0  0  0  0  0  0  0  0  0  0  0  0
  -11.4943    1.5369   18.0518 C   0  0  0  0  0  0  0  0  0  0  0  0
  -10.5743    1.0816   18.9322 N   0  0  1  0  0  0  0  0  0  0  0  0
  1  3  1  1  0  0  0
  1  4  2  0  0  0  0
  1  6  1  0  0  0  0
  1 22  1  0  0  0  0
  2 28  1  0  0  0  0
  2 35  1  6  0  0  0
  2 38  2  0  0  0  0
  2 10  1  0  0  0  0
  5  6  1  0  0  0  0
  7  5  1  1  0  0  0
  7  8  1  0  0  0  0
  7  9  1  0  0  0  0
  9 10  1  6  0  0  0
  9 11  1  0  0  0  0
 11 12  1  6  0  0  0
 11 13  1  0  0  0  0
 13  8  1  1  0  0  0
 13 33  1  0  0  0  0
 14 46  1  0  0  0  0
 14 17  1  0  0  0  0
 14 25  1  6  0  0  0
 15 16  1  0  0  0  0
 15 29  1  0  0  0  0
 16 18  1  1  0  0  0
 16 21  1  0  0  0  0
 17 19  1  1  0  0  0
 17 20  1  0  0  0  0
 20 22  1  1  0  0  0
 20 24  1  0  0  0  0
 23 21  1  1  0  0  0
 23 26  1  0  0  0  0
 23 33  1  0  0  0  0
 24 25  1  6  0  0  0
 24 27  1  0  0  0  0
 26 29  1  6  0  0  0
 26 31  1  0  0  0  0
 27 28  1  0  0  0  0
 29 30  2  0  0  0  0
 31 32  1  0  0  0  0
 33 32  1  6  0  0  0
 34 36  1  0  0  0  0
 34 42  1  0  0  0  0
 36 37  1  1  0  0  0
 36 39  1  0  0  0  0
 40 39  1  6  0  0  0
 40 41  1  0  0  0  0
 40 46  1  0  0  0  0
 41 42  1  6  0  0  0
 41 44  1  0  0  0  0
 42 43  2  0  0  0  0
 44 45  1  0  0  0  0
 46 45  1  1  0  0  0
M  CHG  2   3  -1  35  -1
M  END
>  <CHROM.1>
172.58139423,59.94926174,-8.07104673,1.72851302,16.46277765,-0.31335662,0.97929767
0.74331402

>  <Name>
ligand

>  <RI>
-1

>  <Rbt.Current_Directory>
/home/itssahil/PROJECTS/Mol_Feturizer/Test_systems_manuscript/rnas/3mum

>  <Rbt.Executable>
rbdock ($Id: //depot/dev/client3/rdock/2013.1/src/exe/rbdock.cxx#4 $)

>  <Rbt.Library>
libRbt.so (2013.1, Build901 2013/11/27)

>  <Rbt.Parameter_File>
/export/apps/rDock/src/rDock_2013.1_src/data/scripts/dock_solv.prm

>  <Rbt.Receptor>
prm/pocket_docking_6.prm

>  <SCORE>
-39.4235

>  <SCORE.INTER>
-39.443

>  <SCORE.INTER.CONST>
1

>  <SCORE.INTER.POLAR>
0

>  <SCORE.INTER.ROT>
2

>  <SCORE.INTER.SOLV>
39.7735

>  <SCORE.INTER.VDW>
-44.4865

>  <SCORE.INTER.norm>
-0.857456

>  <SCORE.INTRA>
0.0194701

>  <SCORE.INTRA.DIHEDRAL>
-0.00632716

>  <SCORE.INTRA.DIHEDRAL.0>
2.40424

>  <SCORE.INTRA.POLAR>
0

>  <SCORE.INTRA.POLAR.0>
0

>  <SCORE.INTRA.REPUL>
0

>  <SCORE.INTRA.REPUL.0>
0

>  <SCORE.INTRA.SOLV>
0.00535553

>  <SCORE.INTRA.SOLV.lig_0>
-134.169

>  <SCORE.INTRA.VDW>
0.0199559

>  <SCORE.INTRA.VDW.0>
-2.18386

>  <SCORE.INTRA.norm>
0.000423263

>  <SCORE.RESTR>
0

>  <SCORE.RESTR.CAVITY>
0

>  <SCORE.RESTR.norm>
0

>  <SCORE.SYSTEM>
0

>  <SCORE.SYSTEM.CONST>
0

>  <SCORE.SYSTEM.DIHEDRAL>
0

>  <SCORE.SYSTEM.SOLV>
0

>  <SCORE.SYSTEM.norm>
0

>  <SCORE.heavy>
46

>  <SCORE.norm>
-0.857033

>  <RMSD>
0.238

$$$$
ligand
 OpenBabel02271912143D
libRbt.so/2013.1/901 2013/11/27
 46 52  0  0  0  0  0  0  0  0999 V2000
   -5.2749    2.5545   18.6833 P   0  0  1  0  0  0  0  0  0  0  0  0
   -9.7551    4.8518   15.6293 P   0  0  2  0  0  0  0  0  0  0  0  0
   -5.4256    0.7901   18.7595 O   0  5  0  0  0  0  0  0  0  0  0  0
   -3.7705    3.1201   19.4554 O   0  0  0  0  0  0  0  0  0  0  0  0
   -5.3137    4.3801   16.7626 C   0  0  0  0  0  0  0  0  0  0  0  0
   -5.3099    3.0017   17.1348 O   0  0  0  0  0  0  0  0  0  0  0  0
   -5.8303    4.4959   15.3412 C   0  0  1  0  0  0  0  0  0  0  0  0
   -5.0730    3.6284   14.4856 O   0  0  0  0  0  0  0  0  0  0  0  0
   -7.2772    4.0551   15.1905 C   0  0  1  0  0  0  0  0  0  0  0  0
   -8.1891    5.1380   15.3601 O   0  0  0  0  0  0  0  0  0  0  0  0
   -7.3208    3.4905   13.7815 C   0  0  1  0  0  0  0  0  0  0  0  0
   -7.6224    4.5290   12.8462 O   0  0  0  0  0  0  0  0  0  0  0  0
   -5.9140    2.9895   13.5123 C   0  0  2  0  0  0  0  0  0  0  0  0
   -9.8187    1.9696   19.9033 C   0  0  1  0  0  0  0  0  0  0  0  0
   -7.4417   -1.8181   11.8553 N   0  0  0  0  0  0  0  0  0  0  0  0
   -7.7849   -0.5943   11.3685 C   0  0  1  0  0  0  0  0  0  0  0  0
   -8.3657    1.7017   19.6310 C   0  0  2  0  0  0  0  0  0  0  0  0
   -8.6330   -0.5396   10.3157 N   0  0  0  0  0  0  0  0  0  0  0  0
   -7.7428    1.5189   20.9036 O   0  0  0  0  0  0  0  0  0  0  0  0
   -7.8685    2.9489   18.9272 C   0  0  2  0  0  0  0  0  0  0  0  0
   -7.3120    0.5721   11.8999 N   0  0  0  0  0  0  0  0  0  0  0  0
   -6.5500    3.2908   19.3322 O   0  0  0  0  0  0  0  0  0  0  0  0
   -6.4578    0.5709   12.9544 C   0  0  2  0  0  0  0  0  0  0  0  0
   -8.8377    4.0399   19.3381 C   0  0  2  0  0  0  0  0  0  0  0  0
  -10.0313    3.3715   19.7430 O   0  0  0  0  0  0  0  0  0  0  0  0
   -6.0566   -0.7281   13.5220 C   0  0  1  0  0  0  0  0  0  0  0  0
   -9.1564    5.0068   18.2032 C   0  0  0  0  0  0  0  0  0  0  0  0
   -9.7788    4.2870   17.1371 O   0  0  0  0  0  0  0  0  0  0  0  0
   -6.5996   -1.9516   12.9053 C   0  0  0  0  0  0  0  0  0  0  0  0
   -6.2656   -3.1759   13.3867 O   0  0  0  0  0  0  0  0  0  0  0  0
   -5.2288   -0.4685   14.5400 N   0  0  0  0  0  0  0  0  0  0  0  0
   -5.1044    0.8882   14.6268 C   0  0  0  0  0  0  0  0  0  0  0  0
   -5.8376    1.5141   13.6822 N   0  0  1  0  0  0  0  0  0  0  0  0
  -10.6526   -2.7443   17.7932 N   0  0  0  0  0  0  0  0  0  0  0  0
  -10.4007    3.6361   14.4953 O   0  5  0  0  0  0  0  0  0  0  0  0
   -9.6977   -2.3414   18.6756 C   0  0  2  0  0  0  0  0  0  0  0  0
   -8.7895   -3.2447   19.1286 N   0  0  0  0  0  0  0  0  0  0  0  0
  -10.7589    6.3134   15.5639 O   0  0  0  0  0  0  0  0  0  0  0  0
   -9.6228   -1.0577   19.1215 N   0  0  0  0  0  0  0  0  0  0  0  0
  -10.5029   -0.1144   18.7118 C   0  0  2  0  0  0  0  0  0  0  0  0
  -11.5550   -0.4882   17.7573 C   0  0  2  0  0  0  0  0  0  0  0  0
  -11.5817   -1.8955   17.3047 C   0  0  0  0  0  0  0  0  0  0  0  0
  -12.5141   -2.3328   16.4227 O   0  0  0  0  0  0  0  0  0  0  0  0
  -12.2710    0.6280   17.5166 N   0  0  0  0  0  0  0  0  0  0  0  0
  -11.7230    1.6339   18.2614 C   0  0  0  0  0  0  0  0  0  0  0  0
  -10.6640    1.1843   18.9723 N   0  0  1  0  0  0  0  0  0  0  0  0
  1  3  1  1  0  0  0
  1  4  2  0  0  0  0
  1  6  1  0  0  0  0
  1 22  1  0  0  0  0
  2 28  1  0  0  0  0
  2 35  1  6  0  0  0
  2 38  2  0  0  0  0
  2 10  1  0  0  0  0
  5  6  1  0  0  0  0
  7  5  1  1  0  0  0
  7  8  1  0  0  0  0
  7  9  1  0  0  0  0
  9 10  1  6  0  0  0
  9 11  1  0  0  0  0
 11 12  1  6  0  0  0
 11 13  1  0  0  0  0
 13  8  1  1  0  0  0
 13 33  1  0  0  0  0
 14 46  1  0  0  0  0
 14 17  1  0  0  0  0
 14 25  1  6  0  0  0
 15 16  1  0  0  0  0
 15 29  1  0  0  0  0
 16 18  1  1  0  0  0
 16 21  1  0  0  0  0
 17 19  1  1  0  0  0
 17 20  1  0  0  0  0
 20 22  1  1  0  0  0
 20 24  1  0  0  0  0
 23 21  1  1  0  0  0
 23 26  1  0  0  0  0
 23 33  1  0  0  0  0
 24 25  1  6  0  0  0
 24 27  1  0  0  0  0
 26 29  1  6  0  0  0
 26 31  1  0  0  0  0
 27 28  1  0  0  0  0
 29 30  2  0  0  0  0
 31 32  1  0  0  0  0
 33 32  1  6  0  0  0
 34 36  1  0  0  0  0
 34 42  1  0  0  0  0
 36 37  1  1  0  0  0
 36 39  1  0  0  0  0
 40 39  1  6  0  0  0
 40 41  1  0  0  0  0
 40 46  1  0  0  0  0
 41 42  1  6  0  0  0
 41 44  1  0  0  0  0
 42 43  2  0  0  0  0
 44 45  1  0  0  0  0
 46 45  1  1  0  0  0
M  CHG  2   3  -1  35  -1
M  END
>  <CHROM.1>
-178.78645128,47.56834331,-8.06873028,1.68857571,16.39721532,-2.26676558
-0.96077854,-2.41682032

>  <Name>
ligand

>  <RI>
416

>  <Rbt.Current_Directory>
/home/itssahil/PROJECTS/Mol_Feturizer/Test_systems_manuscript/rnas/3mum

>  <Rbt.Executable>
rbdock ($Id: //depot/dev/client3/rdock/2013.1/src/exe/rbdock.cxx#4 $)

>  <Rbt.Library>
libRbt.so (2013.1, Build901 2013/11/27)

>  <Rbt.Parameter_File>
/export/apps/rDock/src/rDock_2013.1_src/data/scripts/dock_solv.prm

>  <Rbt.Receptor>
prm/pocket_docking_2.prm

>  <SCORE>
-40.3206

>  <SCORE.INTER>
-40.4066

>  <SCORE.INTER.CONST>
1

>  <SCORE.INTER.POLAR>
0

>  <SCORE.INTER.ROT>
2

>  <SCORE.INTER.SOLV>
38.9864

>  <SCORE.INTER.VDW>
-44.8665

>  <SCORE.INTER.norm>
-0.878404

>  <SCORE.INTRA>
0.0859955

>  <SCORE.INTRA.DIHEDRAL>
-0.0212285

>  <SCORE.INTRA.DIHEDRAL.0>
2.40424

>  <SCORE.INTRA.POLAR>
0

>  <SCORE.INTRA.POLAR.0>
0

>  <SCORE.INTRA.REPUL>
0

>  <SCORE.INTRA.REPUL.0>
0

>  <SCORE.INTRA.SOLV>
0.0196428

>  <SCORE.INTRA.SOLV.lig_0>
-134.169

>  <SCORE.INTRA.VDW>
0.0867884

>  <SCORE.INTRA.VDW.0>
-2.18386

>  <SCORE.INTRA.norm>
0.00186947

>  <SCORE.RESTR>
0

>  <SCORE.RESTR.CAVITY>
0

>  <SCORE.RESTR.norm>
0

>  <SCORE.SYSTEM>
0

>  <SCORE.SYSTEM.CONST>
0

>  <SCORE.SYSTEM.DIHEDRAL>
0

>  <SCORE.SYSTEM.SOLV>
0

>  <SCORE.SYSTEM.norm>
0

>  <SCORE.heavy>
46

>  <SCORE.norm>
-0.876534

>  <RMSD>
0.239

$$$$
ligand
 OpenBabel02271912143D
libRbt.so/2013.1/901 2013/11/27
 46 52  0  0  0  0  0  0  0  0999 V2000
   -5.1809    2.5779   18.6672 P   0  0  1  0  0  0  0  0  0  0  0  0
   -9.7098    4.8415   15.6605 P   0  0  2  0  0  0  0  0  0  0  0  0
   -5.2931    0.8093   18.7058 O   0  5  0  0  0  0  0  0  0  0  0  0
   -3.6891    3.1594   19.4520 O   0  0  0  0  0  0  0  0  0  0  0  0
   -5.2592    4.4426   16.7857 C   0  0  0  0  0  0  0  0  0  0  0  0
   -5.2255    3.0570   17.1285 O   0  0  0  0  0  0  0  0  0  0  0  0
   -5.7782    4.5773   15.3669 C   0  0  1  0  0  0  0  0  0  0  0  0
   -5.0022    3.7450   14.4934 O   0  0  0  0  0  0  0  0  0  0  0  0
   -7.2151    4.1085   15.2061 C   0  0  1  0  0  0  0  0  0  0  0  0
   -8.1504    5.1675   15.3982 O   0  0  0  0  0  0  0  0  0  0  0  0
   -7.2464    3.5732   13.7854 C   0  0  1  0  0  0  0  0  0  0  0  0
   -7.5705    4.6245   12.8722 O   0  0  0  0  0  0  0  0  0  0  0  0
   -5.8290    3.1087   13.5064 C   0  0  2  0  0  0  0  0  0  0  0  0
   -9.7109    1.8683   19.8722 C   0  0  1  0  0  0  0  0  0  0  0  0
   -7.5541   -1.6904   12.0282 N   0  0  0  0  0  0  0  0  0  0  0  0
   -7.9711   -0.4636   11.6117 C   0  0  1  0  0  0  0  0  0  0  0  0
   -8.2524    1.6380   19.5949 C   0  0  2  0  0  0  0  0  0  0  0  0
   -8.9633   -0.4029   10.6938 N   0  0  0  0  0  0  0  0  0  0  0  0
   -7.6257    1.4418   20.8637 O   0  0  0  0  0  0  0  0  0  0  0  0
   -7.7824    2.9104   18.9182 C   0  0  2  0  0  0  0  0  0  0  0  0
   -7.4326    0.7001   12.0835 N   0  0  0  0  0  0  0  0  0  0  0  0
   -6.4717    3.2722   19.3310 O   0  0  0  0  0  0  0  0  0  0  0  0
   -6.4345    0.6929   13.0029 C   0  0  2  0  0  0  0  0  0  0  0  0
   -8.7752    3.9710   19.3516 C   0  0  2  0  0  0  0  0  0  0  0  0
   -9.9539    3.2683   19.7416 O   0  0  0  0  0  0  0  0  0  0  0  0
   -5.9479   -0.6096   13.4899 C   0  0  1  0  0  0  0  0  0  0  0  0
   -9.1148    4.9547   18.2374 C   0  0  0  0  0  0  0  0  0  0  0  0
   -9.7213    4.2445   17.1559 O   0  0  0  0  0  0  0  0  0  0  0  0
   -6.5678   -1.8299   12.9432 C   0  0  0  0  0  0  0  0  0  0  0  0
   -6.1606   -3.0571   13.3557 O   0  0  0  0  0  0  0  0  0  0  0  0
   -4.9826   -0.3558   14.3803 N   0  0  0  0  0  0  0  0  0  0  0  0
   -4.8545    1.0007   14.4652 C   0  0  0  0  0  0  0  0  0  0  0  0
   -5.7205    1.6321   13.6449 N   0  0  1  0  0  0  0  0  0  0  0  0
  -10.8897   -2.9267   18.1439 N   0  0  0  0  0  0  0  0  0  0  0  0
  -10.3287    3.6365   14.5005 O   0  5  0  0  0  0  0  0  0  0  0  0
   -9.9963   -2.5386   19.0947 C   0  0  2  0  0  0  0  0  0  0  0  0
   -9.2652   -3.4827   19.7429 N   0  0  0  0  0  0  0  0  0  0  0  0
  -10.7452    6.2820   15.6257 O   0  0  0  0  0  0  0  0  0  0  0  0
   -9.8110   -1.2299   19.4194 N   0  0  0  0  0  0  0  0  0  0  0  0
  -10.5142   -0.2447   18.8135 C   0  0  2  0  0  0  0  0  0  0  0  0
  -11.4916   -0.6011   17.7766 C   0  0  2  0  0  0  0  0  0  0  0  0
  -11.6443   -2.0380   17.4634 C   0  0  0  0  0  0  0  0  0  0  0  0
  -12.5199   -2.4626   16.5191 O   0  0  0  0  0  0  0  0  0  0  0  0
  -12.0302    0.5550   17.3412 N   0  0  0  0  0  0  0  0  0  0  0  0
  -11.4468    1.5693   18.0468 C   0  0  0  0  0  0  0  0  0  0  0  0
  -10.5389    1.0848   18.9242 N   0  0  1  0  0  0  0  0  0  0  0  0
  1  3  1  1  0  0  0
  1  4  2  0  0  0  0
  1  6  1  0  0  0  0
  1 22  1  0  0  0  0
  2 28  1  0  0  0  0
  2 35  1  6  0  0  0
  2 38  2  0  0  0  0
  2 10  1  0  0  0  0
  5  6  1  0  0  0  0
  7  5  1  1  0  0  0
  7  8  1  0  0  0  0
  7  9  1  0  0  0  0
  9 10  1  6  0  0  0
  9 11  1  0  0  0  0
 11 12  1  6  0  0  0
 11 13  1  0  0  0  0
 13  8  1  1  0  0  0
 13 33  1  0  0  0  0
 14 46  1  0  0  0  0
 14 17  1  0  0  0  0
 14 25  1  6  0  0  0
 15 16  1  0  0  0  0
 15 29  1  0  0  0  0
 16 18  1  1  0  0  0
 16 21  1  0  0  0  0
 17 19  1  1  0  0  0
 17 20  1  0  0  0  0
 20 22  1  1  0  0  0
 20 24  1  0  0  0  0
 23 21  1  1  0  0  0
 23 26  1  0  0  0  0
 23 33  1  0  0  0  0
 24 25  1  6  0  0  0
 24 27  1  0  0  0  0
 26 29  1  6  0  0  0
 26 31  1  0  0  0  0
 27 28  1  0  0  0  0
 29 30  2  0  0  0  0
 31 32  1  0  0  0  0
 33 32  1  6  0  0  0
 34 36  1  0  0  0  0
 34 42  1  0  0  0  0
 36 37  1  1  0  0  0
 36 39  1  0  0  0  0
 40 39  1  6  0  0  0
 40 41  1  0  0  0  0
 40 46  1  0  0  0  0
 41 42  1  6  0  0  0
 41 44  1  0  0  0  0
 42 43  2  0  0  0  0
 44 45  1  0  0  0  0
 46 45  1  1  0  0  0
M  CHG  2   3  -1  35  -1
M  END
>  <CHROM.1>
172.79422901,60.40803261,-8.03676875,1.68864626,16.44495866,-0.35105730,0.96664158
0.78302496

>  <Name>
ligand

>  <RI>
416

>  <Rbt.Current_Directory>
/home/itssahil/PROJECTS/Mol_Feturizer/Test_systems_manuscript/rnas/3mum

>  <Rbt.Executable>
rbdock ($Id: //depot/dev/client3/rdock/2013.1/src/exe/rbdock.cxx#4 $)

>  <Rbt.Library>
libRbt.so (2013.1, Build901 2013/11/27)

>  <Rbt.Parameter_File>
/export/apps/rDock/src/rDock_2013.1_src/data/scripts/dock_solv.prm

>  <Rbt.Receptor>
prm/pocket_docking_2.prm

>  <SCORE>
-39.4998

>  <SCORE.INTER>
-39.5119

>  <SCORE.INTER.CONST>
1

>  <SCORE.INTER.POLAR>
0

>  <SCORE.INTER.ROT>
2

>  <SCORE.INTER.SOLV>
40.1897

>  <SCORE.INTER.VDW>
-44.6712

>  <SCORE.INTER.norm>
-0.858954

>  <SCORE.INTRA>
0.0121295

>  <SCORE.INTRA.DIHEDRAL>
-0.0056276

>  <SCORE.INTRA.DIHEDRAL.0>
2.40424

>  <SCORE.INTRA.POLAR>
0

>  <SCORE.INTRA.POLAR.0>
0

>  <SCORE.INTRA.REPUL>
0

>  <SCORE.INTRA.REPUL.0>
0

>  <SCORE.INTRA.SOLV>
0.00463881

>  <SCORE.INTRA.SOLV.lig_0>
-134.169

>  <SCORE.INTRA.VDW>
0.0126238

>  <SCORE.INTRA.VDW.0>
-2.18386

>  <SCORE.INTRA.norm>
0.000263684

>  <SCORE.RESTR>
0

>  <SCORE.RESTR.CAVITY>
0

>  <SCORE.RESTR.norm>
0

>  <SCORE.SYSTEM>
0

>  <SCORE.SYSTEM.CONST>
0

>  <SCORE.SYSTEM.DIHEDRAL>
0

>  <SCORE.SYSTEM.SOLV>
0

>  <SCORE.SYSTEM.norm>
0

>  <SCORE.heavy>
46

>  <SCORE.norm>
-0.858691

>  <RMSD>
0.239

$$$$
ligand
 OpenBabel02271912143D
libRbt.so/2013.1/901 2013/11/27
 46 52  0  0  0  0  0  0  0  0999 V2000
   -5.2712    2.4995   18.7018 P   0  0  1  0  0  0  0  0  0  0  0  0
   -9.7370    4.8259   15.6488 P   0  0  2  0  0  0  0  0  0  0  0  0
   -5.4194    0.7341   18.7561 O   0  5  0  0  0  0  0  0  0  0  0  0
   -3.7723    3.0582   19.4896 O   0  0  0  0  0  0  0  0  0  0  0  0
   -5.3016    4.3478   16.8028 C   0  0  0  0  0  0  0  0  0  0  0  0
   -5.2978    2.9651   17.1585 O   0  0  0  0  0  0  0  0  0  0  0  0
   -5.8100    4.4797   15.3798 C   0  0  1  0  0  0  0  0  0  0  0  0
   -5.0462    3.6237   14.5185 O   0  0  0  0  0  0  0  0  0  0  0  0
   -7.2552    4.0384   15.2153 C   0  0  1  0  0  0  0  0  0  0  0  0
   -8.1700    5.1178   15.3923 O   0  0  0  0  0  0  0  0  0  0  0  0
   -7.2895    3.4906   13.7995 C   0  0  1  0  0  0  0  0  0  0  0  0
   -7.5873    4.5397   12.8748 O   0  0  0  0  0  0  0  0  0  0  0  0
   -5.8803    2.9951   13.5327 C   0  0  2  0  0  0  0  0  0  0  0  0
   -9.8212    1.8928   19.8877 C   0  0  1  0  0  0  0  0  0  0  0  0
   -7.4107   -1.7942   11.8259 N   0  0  0  0  0  0  0  0  0  0  0  0
   -7.7562   -0.5652   11.3543 C   0  0  1  0  0  0  0  0  0  0  0  0
   -8.3661    1.6306   19.6208 C   0  0  2  0  0  0  0  0  0  0  0  0
   -8.6079   -0.4989   10.3050 N   0  0  0  0  0  0  0  0  0  0  0  0
   -7.7505    1.4336   20.8949 O   0  0  0  0  0  0  0  0  0  0  0  0
   -7.8669    2.8868   18.9350 C   0  0  2  0  0  0  0  0  0  0  0  0
   -7.2823    0.5955   11.8974 N   0  0  0  0  0  0  0  0  0  0  0  0
   -6.5514    3.2260   19.3519 O   0  0  0  0  0  0  0  0  0  0  0  0
   -6.4246    0.5827   12.9490 C   0  0  2  0  0  0  0  0  0  0  0  0
   -8.8403    3.9713   19.3530 C   0  0  2  0  0  0  0  0  0  0  0  0
  -10.0351    3.2962   19.7429 O   0  0  0  0  0  0  0  0  0  0  0  0
   -6.0207   -0.7224   13.5003 C   0  0  1  0  0  0  0  0  0  0  0  0
   -9.1539    4.9512   18.2279 C   0  0  0  0  0  0  0  0  0  0  0  0
   -9.7687    4.2432   17.1496 O   0  0  0  0  0  0  0  0  0  0  0  0
   -6.5650   -1.9392   12.8715 C   0  0  0  0  0  0  0  0  0  0  0  0
   -6.2287   -3.1686   13.3377 O   0  0  0  0  0  0  0  0  0  0  0  0
   -5.1896   -0.4740   14.5184 N   0  0  0  0  0  0  0  0  0  0  0  0
   -5.0658    0.8817   14.6204 C   0  0  0  0  0  0  0  0  0  0  0  0
   -5.8025    1.5179   13.6855 N   0  0  1  0  0  0  0  0  0  0  0  0
  -10.8431   -2.8589   17.9523 N   0  0  0  0  0  0  0  0  0  0  0  0
  -10.3738    3.6228   14.4965 O   0  5  0  0  0  0  0  0  0  0  0  0
   -9.9184   -2.4741   18.8742 C   0  0  2  0  0  0  0  0  0  0  0  0
   -9.1028   -3.4100   19.4264 N   0  0  0  0  0  0  0  0  0  0  0  0
  -10.7428    6.2865   15.5949 O   0  0  0  0  0  0  0  0  0  0  0  0
   -9.7839   -1.1768   19.2632 N   0  0  0  0  0  0  0  0  0  0  0  0
  -10.5715   -0.2007   18.7541 C   0  0  2  0  0  0  0  0  0  0  0  0
  -11.5865   -0.5539   17.7527 C   0  0  2  0  0  0  0  0  0  0  0  0
  -11.6811   -1.9778   17.3660 C   0  0  0  0  0  0  0  0  0  0  0  0
  -12.5856   -2.3983   16.4476 O   0  0  0  0  0  0  0  0  0  0  0  0
  -12.2092    0.5925   17.4145 N   0  0  0  0  0  0  0  0  0  0  0  0
  -11.6405    1.5977   18.1448 C   0  0  0  0  0  0  0  0  0  0  0  0
  -10.6597    1.1173   18.9424 N   0  0  1  0  0  0  0  0  0  0  0  0
  1  3  1  1  0  0  0
  1  4  2  0  0  0  0
  1  6  1  0  0  0  0
  1 22  1  0  0  0  0
  2 28  1  0  0  0  0
  2 35  1  6  0  0  0
  2 38  2  0  0  0  0
  2 10  1  0  0  0  0
  5  6  1  0  0  0  0
  7  5  1  1  0  0  0
  7  8  1  0  0  0  0
  7  9  1  0  0  0  0
  9 10  1  6  0  0  0
  9 11  1  0  0  0  0
 11 12  1  6  0  0  0
 11 13  1  0  0  0  0
 13  8  1  1  0  0  0
 13 33  1  0  0  0  0
 14 46  1  0  0  0  0
 14 17  1  0  0  0  0
 14 25  1  6  0  0  0
 15 16  1  0  0  0  0
 15 29  1  0  0  0  0
 16 18  1  1  0  0  0
 16 21  1  0  0  0  0
 17 19  1  1  0  0  0
 17 20  1  0  0  0  0
 20 22  1  1  0  0  0
 20 24  1  0  0  0  0
 23 21  1  1  0  0  0
 23 26  1  0  0  0  0
 23 33  1  0  0  0  0
 24 25  1  6  0  0  0
 24 27  1  0  0  0  0
 26 29  1  6  0  0  0
 26 31  1  0  0  0  0
 27 28  1  0  0  0  0
 29 30  2  0  0  0  0
 31 32  1  0  0  0  0
 33 32  1  6  0  0  0
 34 36  1  0  0  0  0
 34 42  1  0  0  0  0
 36 37  1  1  0  0  0
 36 39  1  0  0  0  0
 40 39  1  6  0  0  0
 40 41  1  0  0  0  0
 40 46  1  0  0  0  0
 41 42  1  6  0  0  0
 41 44  1  0  0  0  0
 42 43  2  0  0  0  0
 44 45  1  0  0  0  0
 46 45  1  1  0  0  0
M  CHG  2   3  -1  35  -1
M  END
>  <CHROM.1>
-179.32244730,53.72956159,-8.07503572,1.64976466,16.41656533,-2.45681709
-0.95838606,-2.39935143

>  <Name>
ligand

>  <RI>
-1

>  <Rbt.Current_Directory>
/home/itssahil/PROJECTS/Mol_Feturizer/Test_systems_manuscript/rnas/3mum

>  <Rbt.Executable>
rbdock ($Id: //depot/dev/client3/rdock/2013.1/src/exe/rbdock.cxx#4 $)

>  <Rbt.Library>
libRbt.so (2013.1, Build901 2013/11/27)

>  <Rbt.Parameter_File>
/export/apps/rDock/src/rDock_2013.1_src/data/scripts/dock_solv.prm

>  <Rbt.Receptor>
prm/pocket_docking_4.prm

>  <SCORE>
-40.1566

>  <SCORE.INTER>
-40.1538

>  <SCORE.INTER.CONST>
1

>  <SCORE.INTER.POLAR>
0

>  <SCORE.INTER.ROT>
2

>  <SCORE.INTER.SOLV>
39.8103

>  <SCORE.INTER.VDW>
-44.9726

>  <SCORE.INTER.norm>
-0.872909

>  <SCORE.INTRA>
-0.00282681

>  <SCORE.INTRA.DIHEDRAL>
-0.013612

>  <SCORE.INTRA.DIHEDRAL.0>
2.40424

>  <SCORE.INTRA.POLAR>
0

>  <SCORE.INTRA.POLAR.0>
0

>  <SCORE.INTRA.REPUL>
0

>  <SCORE.INTRA.REPUL.0>
0

>  <SCORE.INTRA.SOLV>
0.0116609

>  <SCORE.INTRA.SOLV.lig_0>
-134.169

>  <SCORE.INTRA.VDW>
-0.00185127

>  <SCORE.INTRA.VDW.0>
-2.18386

>  <SCORE.INTRA.norm>
-6.14524e-05

>  <SCORE.RESTR>
0

>  <SCORE.RESTR.CAVITY>
0

>  <SCORE.RESTR.norm>
0

>  <SCORE.SYSTEM>
0

>  <SCORE.SYSTEM.CONST>
0

>  <SCORE.SYSTEM.DIHEDRAL>
0

>  <SCORE.SYSTEM.SOLV>
0

>  <SCORE.SYSTEM.norm>
0

>  <SCORE.heavy>
46

>  <SCORE.norm>
-0.87297

>  <RMSD>
0.239

$$$$
ligand
 OpenBabel02271912143D
libRbt.so/2013.1/901 2013/11/27
 46 52  0  0  0  0  0  0  0  0999 V2000
   -5.2340    2.6111   18.6499 P   0  0  1  0  0  0  0  0  0  0  0  0
   -9.7622    4.8424   15.6181 P   0  0  2  0  0  0  0  0  0  0  0  0
   -5.3412    0.8425   18.6995 O   0  5  0  0  0  0  0  0  0  0  0  0
   -3.7458    3.2019   19.4344 O   0  0  0  0  0  0  0  0  0  0  0  0
   -5.3132    4.4635   16.7564 C   0  0  0  0  0  0  0  0  0  0  0  0
   -5.2763    3.0803   17.1081 O   0  0  0  0  0  0  0  0  0  0  0  0
   -5.8292    4.5877   15.3354 C   0  0  1  0  0  0  0  0  0  0  0  0
   -5.0487    3.7521   14.4691 O   0  0  0  0  0  0  0  0  0  0  0  0
   -7.2644    4.1137   15.1743 C   0  0  1  0  0  0  0  0  0  0  0  0
   -8.2032    5.1712   15.3574 O   0  0  0  0  0  0  0  0  0  0  0  0
   -7.2907    3.5692   13.7570 C   0  0  1  0  0  0  0  0  0  0  0  0
   -7.6156    4.6139   12.8363 O   0  0  0  0  0  0  0  0  0  0  0  0
   -5.8713    3.1071   13.4842 C   0  0  2  0  0  0  0  0  0  0  0  0
   -9.7648    1.8961   19.8486 C   0  0  1  0  0  0  0  0  0  0  0  0
   -7.5752   -1.7064   12.0284 N   0  0  0  0  0  0  0  0  0  0  0  0
   -7.9940   -0.4835   11.6025 C   0  0  1  0  0  0  0  0  0  0  0  0
   -8.3050    1.6683   19.5763 C   0  0  2  0  0  0  0  0  0  0  0  0
   -8.9824   -0.4316   10.6798 N   0  0  0  0  0  0  0  0  0  0  0  0
   -7.6808    1.4819   20.8478 O   0  0  0  0  0  0  0  0  0  0  0  0
   -7.8371    2.9377   18.8925 C   0  0  2  0  0  0  0  0  0  0  0  0
   -7.4613    0.6847   12.0694 N   0  0  0  0  0  0  0  0  0  0  0  0
   -6.5284    3.3059   19.3062 O   0  0  0  0  0  0  0  0  0  0  0  0
   -6.4672    0.6863   12.9932 C   0  0  2  0  0  0  0  0  0  0  0  0
   -8.8339    3.9982   19.3169 C   0  0  2  0  0  0  0  0  0  0  0  0
  -10.0115    3.2946   19.7086 O   0  0  0  0  0  0  0  0  0  0  0  0
   -5.9788   -0.6116   13.4904 C   0  0  1  0  0  0  0  0  0  0  0  0
   -9.1736    4.9738   18.1956 C   0  0  0  0  0  0  0  0  0  0  0  0
   -9.7756    4.2549   17.1172 O   0  0  0  0  0  0  0  0  0  0  0  0
   -6.5925   -1.8371   12.9486 C   0  0  0  0  0  0  0  0  0  0  0  0
   -6.1834   -3.0605   13.3705 O   0  0  0  0  0  0  0  0  0  0  0  0
   -5.0182   -0.3492   14.3835 N   0  0  0  0  0  0  0  0  0  0  0  0
   -4.8946    1.0081   14.4605 C   0  0  0  0  0  0  0  0  0  0  0  0
   -5.7589    1.6318   13.6324 N   0  0  1  0  0  0  0  0  0  0  0  0
  -10.9144   -2.9121   18.1374 N   0  0  0  0  0  0  0  0  0  0  0  0
  -10.3749    3.6283   14.4643 O   0  5  0  0  0  0  0  0  0  0  0  0
  -10.0230   -2.5151   19.0865 C   0  0  2  0  0  0  0  0  0  0  0  0
   -9.2858   -3.4524   19.7376 N   0  0  0  0  0  0  0  0  0  0  0  0
  -10.8016    6.2796   15.5716 O   0  0  0  0  0  0  0  0  0  0  0  0
   -9.8458   -1.2042   19.4065 N   0  0  0  0  0  0  0  0  0  0  0  0
  -10.5554   -0.2255   18.7976 C   0  0  2  0  0  0  0  0  0  0  0  0
  -11.5310   -0.5915   17.7623 C   0  0  2  0  0  0  0  0  0  0  0  0
  -11.6748   -2.0304   17.4541 C   0  0  0  0  0  0  0  0  0  0  0  0
  -12.5481   -2.4638   16.5117 O   0  0  0  0  0  0  0  0  0  0  0  0
  -12.0770    0.5597   17.3232 N   0  0  0  0  0  0  0  0  0  0  0  0
  -11.4995    1.5800   18.0250 C   0  0  0  0  0  0  0  0  0  0  0  0
  -10.5883    1.1042   18.9037 N   0  0  1  0  0  0  0  0  0  0  0  0
  1  3  1  1  0  0  0
  1  4  2  0  0  0  0
  1  6  1  0  0  0  0
  1 22  1  0  0  0  0
  2 28  1  0  0  0  0
  2 35  1  6  0  0  0
  2 38  2  0  0  0  0
  2 10  1  0  0  0  0
  5  6  1  0  0  0  0
  7  5  1  1  0  0  0
  7  8  1  0  0  0  0
  7  9  1  0  0  0  0
  9 10  1  6  0  0  0
  9 11  1  0  0  0  0
 11 12  1  6  0  0  0
 11 13  1  0  0  0  0
 13  8  1  1  0  0  0
 13 33  1  0  0  0  0
 14 46  1  0  0  0  0
 14 17  1  0  0  0  0
 14 25  1  6  0  0  0
 15 16  1  0  0  0  0
 15 29  1  0  0  0  0
 16 18  1  1  0  0  0
 16 21  1  0  0  0  0
 17 19  1  1  0  0  0
 17 20  1  0  0  0  0
 20 22  1  1  0  0  0
 20 24  1  0  0  0  0
 23 21  1  1  0  0  0
 23 26  1  0  0  0  0
 23 33  1  0  0  0  0
 24 25  1  6  0  0  0
 24 27  1  0  0  0  0
 26 29  1  6  0  0  0
 26 31  1  0  0  0  0
 27 28  1  0  0  0  0
 29 30  2  0  0  0  0
 31 32  1  0  0  0  0
 33 32  1  6  0  0  0
 34 36  1  0  0  0  0
 34 42  1  0  0  0  0
 36 37  1  1  0  0  0
 36 39  1  0  0  0  0
 40 39  1  6  0  0  0
 40 41  1  0  0  0  0
 40 46  1  0  0  0  0
 41 42  1  6  0  0  0
 41 44  1  0  0  0  0
 42 43  2  0  0  0  0
 44 45  1  0  0  0  0
 46 45  1  1  0  0  0
M  CHG  2   3  -1  35  -1
M  END
>  <CHROM.1>
172.91202182,60.10679878,-8.08034947,1.69956827,16.42495823,-0.35222214,0.96739009
0.77002073

>  <Name>
ligand

>  <RI>
416

>  <Rbt.Current_Directory>
/home/itssahil/PROJECTS/Mol_Feturizer/Test_systems_manuscript/rnas/3mum

>  <Rbt.Executable>
rbdock ($Id: //depot/dev/client3/rdock/2013.1/src/exe/rbdock.cxx#4 $)

>  <Rbt.Library>
libRbt.so (2013.1, Build901 2013/11/27)

>  <Rbt.Parameter_File>
/export/apps/rDock/src/rDock_2013.1_src/data/scripts/dock_solv.prm

>  <Rbt.Receptor>
prm/pocket_docking_3.prm

>  <SCORE>
-39.4979

>  <SCORE.INTER>
-39.5129

>  <SCORE.INTER.CONST>
1

>  <SCORE.INTER.POLAR>
0

>  <SCORE.INTER.ROT>
2

>  <SCORE.INTER.SOLV>
40.2639

>  <SCORE.INTER.VDW>
-44.6966

>  <SCORE.INTER.norm>
-0.858977

>  <SCORE.INTRA>
0.0150325

>  <SCORE.INTRA.DIHEDRAL>
-0.00604173

>  <SCORE.INTRA.DIHEDRAL.0>
2.40424

>  <SCORE.INTRA.POLAR>
0

>  <SCORE.INTRA.POLAR.0>
0

>  <SCORE.INTRA.REPUL>
0

>  <SCORE.INTRA.REPUL.0>
0

>  <SCORE.INTRA.SOLV>
0.004991

>  <SCORE.INTRA.SOLV.lig_0>
-134.169

>  <SCORE.INTRA.VDW>
0.0155578

>  <SCORE.INTRA.VDW.0>
-2.18386

>  <SCORE.INTRA.norm>
0.000326793

>  <SCORE.RESTR>
0

>  <SCORE.RESTR.CAVITY>
0

>  <SCORE.RESTR.norm>
0

>  <SCORE.SYSTEM>
0

>  <SCORE.SYSTEM.CONST>
0

>  <SCORE.SYSTEM.DIHEDRAL>
0

>  <SCORE.SYSTEM.SOLV>
0

>  <SCORE.SYSTEM.norm>
0

>  <SCORE.heavy>
46

>  <SCORE.norm>
-0.85865

>  <RMSD>
0.240

$$$$
ligand
 OpenBabel02271912143D
libRbt.so/2013.1/901 2013/11/27
 46 52  0  0  0  0  0  0  0  0999 V2000
   -5.2836    2.5419   18.6881 P   0  0  1  0  0  0  0  0  0  0  0  0
   -9.7569    4.8502   15.6324 P   0  0  2  0  0  0  0  0  0  0  0  0
   -5.4337    0.7771   18.7565 O   0  5  0  0  0  0  0  0  0  0  0  0
   -3.7814    3.1047   19.4664 O   0  0  0  0  0  0  0  0  0  0  0  0
   -5.3182    4.3755   16.7750 C   0  0  0  0  0  0  0  0  0  0  0  0
   -5.3149    2.9956   17.1414 O   0  0  0  0  0  0  0  0  0  0  0  0
   -5.8312    4.4971   15.3528 C   0  0  1  0  0  0  0  0  0  0  0  0
   -5.0714    3.6336   14.4955 O   0  0  0  0  0  0  0  0  0  0  0  0
   -7.2776    4.0564   15.1966 C   0  0  1  0  0  0  0  0  0  0  0  0
   -8.1904    5.1383   15.3684 O   0  0  0  0  0  0  0  0  0  0  0  0
   -7.3173    3.4977   13.7851 C   0  0  1  0  0  0  0  0  0  0  0  0
   -7.6170    4.5401   12.8534 O   0  0  0  0  0  0  0  0  0  0  0  0
   -5.9097    2.9984   13.5174 C   0  0  2  0  0  0  0  0  0  0  0  0
   -9.8303    1.9499   19.8940 C   0  0  1  0  0  0  0  0  0  0  0  0
   -7.4356   -1.8025   11.8396 N   0  0  0  0  0  0  0  0  0  0  0  0
   -7.7787   -0.5768   11.3577 C   0  0  1  0  0  0  0  0  0  0  0  0
   -8.3765    1.6838   19.6242 C   0  0  2  0  0  0  0  0  0  0  0  0
   -8.6262   -0.5179   10.3047 N   0  0  0  0  0  0  0  0  0  0  0  0
   -7.7568    1.4959   20.8977 O   0  0  0  0  0  0  0  0  0  0  0  0
   -7.8780    2.9341   18.9270 C   0  0  2  0  0  0  0  0  0  0  0  0
   -7.3063    0.5876   11.8942 N   0  0  0  0  0  0  0  0  0  0  0  0
   -6.5607    3.2749   19.3369 O   0  0  0  0  0  0  0  0  0  0  0  0
   -6.4527    0.5821   12.9492 C   0  0  2  0  0  0  0  0  0  0  0  0
   -8.8487    4.0230   19.3400 C   0  0  2  0  0  0  0  0  0  0  0  0
  -10.0430    3.3524   19.7391 O   0  0  0  0  0  0  0  0  0  0  0  0
   -6.0516   -0.7191   13.5116 C   0  0  1  0  0  0  0  0  0  0  0  0
   -9.1649    4.9946   18.2084 C   0  0  0  0  0  0  0  0  0  0  0  0
   -9.7842    4.2791   17.1377 O   0  0  0  0  0  0  0  0  0  0  0  0
   -6.5940   -1.9402   12.8896 C   0  0  0  0  0  0  0  0  0  0  0  0
   -6.2601   -3.1664   13.3661 O   0  0  0  0  0  0  0  0  0  0  0  0
   -5.2244   -0.4636   14.5311 N   0  0  0  0  0  0  0  0  0  0  0  0
   -5.1003    0.8927   14.6236 C   0  0  0  0  0  0  0  0  0  0  0  0
   -5.8331    1.5224   13.6813 N   0  0  1  0  0  0  0  0  0  0  0  0
  -10.6988   -2.7701   17.8119 N   0  0  0  0  0  0  0  0  0  0  0  0
  -10.3991    3.6391   14.4916 O   0  5  0  0  0  0  0  0  0  0  0  0
   -9.7511   -2.3727   18.7046 C   0  0  2  0  0  0  0  0  0  0  0  0
   -8.8621   -3.2844   19.1783 N   0  0  0  0  0  0  0  0  0  0  0  0
  -10.7611    6.3117   15.5706 O   0  0  0  0  0  0  0  0  0  0  0  0
   -9.6650   -1.0864   19.1407 N   0  0  0  0  0  0  0  0  0  0  0  0
  -10.5260   -0.1347   18.7104 C   0  0  2  0  0  0  0  0  0  0  0  0
  -11.5693   -0.5023   17.7439 C   0  0  2  0  0  0  0  0  0  0  0  0
  -11.6089   -1.9130   17.3028 C   0  0  0  0  0  0  0  0  0  0  0  0
  -12.5345   -2.3451   16.4112 O   0  0  0  0  0  0  0  0  0  0  0  0
  -12.2663    0.6214   17.4834 N   0  0  0  0  0  0  0  0  0  0  0  0
  -11.7152    1.6262   18.2275 C   0  0  0  0  0  0  0  0  0  0  0  0
  -10.6729    1.1683   18.9575 N   0  0  1  0  0  0  0  0  0  0  0  0
  1  3  1  1  0  0  0
  1  4  2  0  0  0  0
  1  6  1  0  0  0  0
  1 22  1  0  0  0  0
  2 28  1  0  0  0  0
  2 35  1  6  0  0  0
  2 38  2  0  0  0  0
  2 10  1  0  0  0  0
  5  6  1  0  0  0  0
  7  5  1  1  0  0  0
  7  8  1  0  0  0  0
  7  9  1  0  0  0  0
  9 10  1  6  0  0  0
  9 11  1  0  0  0  0
 11 12  1  6  0  0  0
 11 13  1  0  0  0  0
 13  8  1  1  0  0  0
 13 33  1  0  0  0  0
 14 46  1  0  0  0  0
 14 17  1  0  0  0  0
 14 25  1  6  0  0  0
 15 16  1  0  0  0  0
 15 29  1  0  0  0  0
 16 18  1  1  0  0  0
 16 21  1  0  0  0  0
 17 19  1  1  0  0  0
 17 20  1  0  0  0  0
 20 22  1  1  0  0  0
 20 24  1  0  0  0  0
 23 21  1  1  0  0  0
 23 26  1  0  0  0  0
 23 33  1  0  0  0  0
 24 25  1  6  0  0  0
 24 27  1  0  0  0  0
 26 29  1  6  0  0  0
 26 31  1  0  0  0  0
 27 28  1  0  0  0  0
 29 30  2  0  0  0  0
 31 32  1  0  0  0  0
 33 32  1  6  0  0  0
 34 36  1  0  0  0  0
 34 42  1  0  0  0  0
 36 37  1  1  0  0  0
 36 39  1  0  0  0  0
 40 39  1  6  0  0  0
 40 41  1  0  0  0  0
 40 46  1  0  0  0  0
 41 42  1  6  0  0  0
 41 44  1  0  0  0  0
 42 43  2  0  0  0  0
 44 45  1  0  0  0  0
 46 45  1  1  0  0  0
M  CHG  2   3  -1  35  -1
M  END
>  <CHROM.1>
-178.90226093,48.85506733,-8.07628910,1.68289803,16.39708368,-2.30642752
-0.95984818,-2.41315943

>  <Name>
ligand

>  <RI>
416

>  <Rbt.Current_Directory>
/home/itssahil/PROJECTS/Mol_Feturizer/Test_systems_manuscript/rnas/3mum

>  <Rbt.Executable>
rbdock ($Id: //depot/dev/client3/rdock/2013.1/src/exe/rbdock.cxx#4 $)

>  <Rbt.Library>
libRbt.so (2013.1, Build901 2013/11/27)

>  <Rbt.Parameter_File>
/export/apps/rDock/src/rDock_2013.1_src/data/scripts/dock_solv.prm

>  <Rbt.Receptor>
prm/pocket_docking_2.prm

>  <SCORE>
-40.3313

>  <SCORE.INTER>
-40.4111

>  <SCORE.INTER.CONST>
1

>  <SCORE.INTER.POLAR>
0

>  <SCORE.INTER.ROT>
2

>  <SCORE.INTER.SOLV>
39.1371

>  <SCORE.INTER.VDW>
-44.9198

>  <SCORE.INTER.norm>
-0.878501

>  <SCORE.INTRA>
0.0797897

>  <SCORE.INTRA.DIHEDRAL>
-0.019761

>  <SCORE.INTRA.DIHEDRAL.0>
2.40424

>  <SCORE.INTRA.POLAR>
0

>  <SCORE.INTRA.POLAR.0>
0

>  <SCORE.INTRA.REPUL>
0

>  <SCORE.INTRA.REPUL.0>
0

>  <SCORE.INTRA.SOLV>
0.0181215

>  <SCORE.INTRA.SOLV.lig_0>
-134.169

>  <SCORE.INTRA.VDW>
0.0806094

>  <SCORE.INTRA.VDW.0>
-2.18386

>  <SCORE.INTRA.norm>
0.00173456

>  <SCORE.RESTR>
0

>  <SCORE.RESTR.CAVITY>
0

>  <SCORE.RESTR.norm>
0

>  <SCORE.SYSTEM>
0

>  <SCORE.SYSTEM.CONST>
0

>  <SCORE.SYSTEM.DIHEDRAL>
0

>  <SCORE.SYSTEM.SOLV>
0

>  <SCORE.SYSTEM.norm>
0

>  <SCORE.heavy>
46

>  <SCORE.norm>
-0.876767

>  <RMSD>
0.241

$$$$
ligand
 OpenBabel02271912143D
libRbt.so/2013.1/901 2013/11/27
 46 52  0  0  0  0  0  0  0  0999 V2000
   -5.2889    2.5488   18.6899 P   0  0  1  0  0  0  0  0  0  0  0  0
   -9.7666    4.8425   15.6295 P   0  0  2  0  0  0  0  0  0  0  0  0
   -5.4347    0.7837   18.7601 O   0  5  0  0  0  0  0  0  0  0  0  0
   -3.7885    3.1162   19.4682 O   0  0  0  0  0  0  0  0  0  0  0  0
   -5.3272    4.3802   16.7747 C   0  0  0  0  0  0  0  0  0  0  0  0
   -5.3206    3.0007   17.1426 O   0  0  0  0  0  0  0  0  0  0  0  0
   -5.8399    4.4989   15.3521 C   0  0  1  0  0  0  0  0  0  0  0  0
   -5.0775    3.6363   14.4961 O   0  0  0  0  0  0  0  0  0  0  0  0
   -7.2850    4.0544   15.1957 C   0  0  1  0  0  0  0  0  0  0  0  0
   -8.2006    5.1341   15.3659 O   0  0  0  0  0  0  0  0  0  0  0  0
   -7.3227    3.4940   13.7848 C   0  0  1  0  0  0  0  0  0  0  0  0
   -7.6246    4.5345   12.8518 O   0  0  0  0  0  0  0  0  0  0  0  0
   -5.9137    2.9979   13.5183 C   0  0  2  0  0  0  0  0  0  0  0  0
   -9.8347    1.9468   19.8943 C   0  0  1  0  0  0  0  0  0  0  0  0
   -7.4203   -1.8090   11.8401 N   0  0  0  0  0  0  0  0  0  0  0  0
   -7.7652   -0.5847   11.3558 C   0  0  1  0  0  0  0  0  0  0  0  0
   -8.3800    1.6840   19.6255 C   0  0  2  0  0  0  0  0  0  0  0  0
   -8.6093   -0.5292   10.2998 N   0  0  0  0  0  0  0  0  0  0  0  0
   -7.7605    1.4991   20.8995 O   0  0  0  0  0  0  0  0  0  0  0  0
   -7.8844    2.9348   18.9272 C   0  0  2  0  0  0  0  0  0  0  0  0
   -7.2980    0.5815   11.8928 N   0  0  0  0  0  0  0  0  0  0  0  0
   -6.5681    3.2793   19.3372 O   0  0  0  0  0  0  0  0  0  0  0  0
   -6.4480    0.5795   12.9506 C   0  0  2  0  0  0  0  0  0  0  0  0
   -8.8580    4.0217   19.3385 C   0  0  2  0  0  0  0  0  0  0  0  0
  -10.0508    3.3486   19.7377 O   0  0  0  0  0  0  0  0  0  0  0  0
   -6.0451   -0.7201   13.5157 C   0  0  1  0  0  0  0  0  0  0  0  0
   -9.1761    4.9912   18.2056 C   0  0  0  0  0  0  0  0  0  0  0  0
   -9.7931    4.2730   17.1354 O   0  0  0  0  0  0  0  0  0  0  0  0
   -6.5819   -1.9432   12.8930 C   0  0  0  0  0  0  0  0  0  0  0  0
   -6.2461   -3.1680   13.3718 O   0  0  0  0  0  0  0  0  0  0  0  0
   -5.2221   -0.4612   14.5378 N   0  0  0  0  0  0  0  0  0  0  0  0
   -5.1021    0.8956   14.6294 C   0  0  0  0  0  0  0  0  0  0  0  0
   -5.8335    1.5223   13.6839 N   0  0  1  0  0  0  0  0  0  0  0  0
  -10.6740   -2.7722   17.7977 N   0  0  0  0  0  0  0  0  0  0  0  0
  -10.4052    3.6284   14.4897 O   0  5  0  0  0  0  0  0  0  0  0  0
   -9.7258   -2.3706   18.6880 C   0  0  2  0  0  0  0  0  0  0  0  0
   -8.8276   -3.2769   19.1546 N   0  0  0  0  0  0  0  0  0  0  0  0
  -10.7744    6.3013   15.5656 O   0  0  0  0  0  0  0  0  0  0  0  0
   -9.6482   -1.0853   19.1287 N   0  0  0  0  0  0  0  0  0  0  0  0
  -10.5186   -0.1389   18.7056 C   0  0  2  0  0  0  0  0  0  0  0  0
  -11.5629   -0.5111   17.7420 C   0  0  2  0  0  0  0  0  0  0  0  0
  -11.5931   -1.9204   17.2957 C   0  0  0  0  0  0  0  0  0  0  0  0
  -12.5189   -2.3565   16.4062 O   0  0  0  0  0  0  0  0  0  0  0  0
  -12.2699    0.6079   17.4887 N   0  0  0  0  0  0  0  0  0  0  0  0
  -11.7238    1.6143   18.2344 C   0  0  0  0  0  0  0  0  0  0  0  0
  -10.6749    1.1619   18.9583 N   0  0  1  0  0  0  0  0  0  0  0  0
  1  3  1  1  0  0  0
  1  4  2  0  0  0  0
  1  6  1  0  0  0  0
  1 22  1  0  0  0  0
  2 28  1  0  0  0  0
  2 35  1  6  0  0  0
  2 38  2  0  0  0  0
  2 10  1  0  0  0  0
  5  6  1  0  0  0  0
  7  5  1  1  0  0  0
  7  8  1  0  0  0  0
  7  9  1  0  0  0  0
  9 10  1  6  0  0  0
  9 11  1  0  0  0  0
 11 12  1  6  0  0  0
 11 13  1  0  0  0  0
 13  8  1  1  0  0  0
 13 33  1  0  0  0  0
 14 46  1  0  0  0  0
 14 17  1  0  0  0  0
 14 25  1  6  0  0  0
 15 16  1  0  0  0  0
 15 29  1  0  0  0  0
 16 18  1  1  0  0  0
 16 21  1  0  0  0  0
 17 19  1  1  0  0  0
 17 20  1  0  0  0  0
 20 22  1  1  0  0  0
 20 24  1  0  0  0  0
 23 21  1  1  0  0  0
 23 26  1  0  0  0  0
 23 33  1  0  0  0  0
 24 25  1  6  0  0  0
 24 27  1  0  0  0  0
 26 29  1  6  0  0  0
 26 31  1  0  0  0  0
 27 28  1  0  0  0  0
 29 30  2  0  0  0  0
 31 32  1  0  0  0  0
 33 32  1  6  0  0  0
 34 36  1  0  0  0  0
 34 42  1  0  0  0  0
 36 37  1  1  0  0  0
 36 39  1  0  0  0  0
 40 39  1  6  0  0  0
 40 41  1  0  0  0  0
 40 46  1  0  0  0  0
 41 42  1  6  0  0  0
 41 44  1  0  0  0  0
 42 43  2  0  0  0  0
 44 45  1  0  0  0  0
 46 45  1  1  0  0  0
M  CHG  2   3  -1  35  -1
M  END
>  <CHROM.1>
-178.73197172,48.35607928,-8.07586286,1.68077753,16.39582732,-2.29631682
-0.96098969,-2.41889406

>  <Name>
ligand

>  <RI>
416

>  <Rbt.Current_Directory>
/home/itssahil/PROJECTS/Mol_Feturizer/Test_systems_manuscript/rnas/3mum

>  <Rbt.Executable>
rbdock ($Id: //depot/dev/client3/rdock/2013.1/src/exe/rbdock.cxx#4 $)

>  <Rbt.Library>
libRbt.so (2013.1, Build901 2013/11/27)

>  <Rbt.Parameter_File>
/export/apps/rDock/src/rDock_2013.1_src/data/scripts/dock_solv.prm

>  <Rbt.Receptor>
prm/pocket_docking_2.prm

>  <SCORE>
-40.3412

>  <SCORE.INTER>
-40.4293

>  <SCORE.INTER.CONST>
1

>  <SCORE.INTER.POLAR>
0

>  <SCORE.INTER.ROT>
2

>  <SCORE.INTER.SOLV>
39.1577

>  <SCORE.INTER.VDW>
-44.9387

>  <SCORE.INTER.norm>
-0.878897

>  <SCORE.INTRA>
0.0880574

>  <SCORE.INTRA.DIHEDRAL>
-0.0203152

>  <SCORE.INTRA.DIHEDRAL.0>
2.40424

>  <SCORE.INTRA.POLAR>
0

>  <SCORE.INTRA.POLAR.0>
0

>  <SCORE.INTRA.REPUL>
0

>  <SCORE.INTRA.REPUL.0>
0

>  <SCORE.INTRA.SOLV>
0.0186792

>  <SCORE.INTRA.SOLV.lig_0>
-134.169

>  <SCORE.INTRA.VDW>
0.0888754

>  <SCORE.INTRA.VDW.0>
-2.18386

>  <SCORE.INTRA.norm>
0.00191429

>  <SCORE.RESTR>
0

>  <SCORE.RESTR.CAVITY>
0

>  <SCORE.RESTR.norm>
0

>  <SCORE.SYSTEM>
0

>  <SCORE.SYSTEM.CONST>
0

>  <SCORE.SYSTEM.DIHEDRAL>
0

>  <SCORE.SYSTEM.SOLV>
0

>  <SCORE.SYSTEM.norm>
0

>  <SCORE.heavy>
46

>  <SCORE.norm>
-0.876983

>  <RMSD>
0.242

$$$$
ligand
 OpenBabel02271912143D
libRbt.so/2013.1/901 2013/11/27
 46 52  0  0  0  0  0  0  0  0999 V2000
   -5.2676    2.6453   18.6487 P   0  0  1  0  0  0  0  0  0  0  0  0
   -9.7820    4.8191   15.5549 P   0  0  2  0  0  0  0  0  0  0  0  0
   -5.3670    0.8770   18.7184 O   0  5  0  0  0  0  0  0  0  0  0  0
   -3.7885    3.2525   19.4379 O   0  0  0  0  0  0  0  0  0  0  0  0
   -5.3404    4.4749   16.7328 C   0  0  0  0  0  0  0  0  0  0  0  0
   -5.2999    3.0961   17.1011 O   0  0  0  0  0  0  0  0  0  0  0  0
   -5.8456    4.5798   15.3064 C   0  0  1  0  0  0  0  0  0  0  0  0
   -5.0543    3.7378   14.4563 O   0  0  0  0  0  0  0  0  0  0  0  0
   -7.2772    4.0971   15.1396 C   0  0  1  0  0  0  0  0  0  0  0  0
   -8.2224    5.1522   15.3027 O   0  0  0  0  0  0  0  0  0  0  0  0
   -7.2897    3.5358   13.7286 C   0  0  1  0  0  0  0  0  0  0  0  0
   -7.6122    4.5679   12.7931 O   0  0  0  0  0  0  0  0  0  0  0  0
   -5.8661    3.0773   13.4726 C   0  0  2  0  0  0  0  0  0  0  0  0
   -9.8045    1.9229   19.8198 C   0  0  1  0  0  0  0  0  0  0  0  0
   -7.5630   -1.7601   12.0896 N   0  0  0  0  0  0  0  0  0  0  0  0
   -7.9885   -0.5441   11.6505 C   0  0  1  0  0  0  0  0  0  0  0  0
   -8.3415    1.6989   19.5618 C   0  0  2  0  0  0  0  0  0  0  0  0
   -8.9826   -0.5073   10.7334 N   0  0  0  0  0  0  0  0  0  0  0  0
   -7.7266    1.5305   20.8404 O   0  0  0  0  0  0  0  0  0  0  0  0
   -7.8741    2.9623   18.8668 C   0  0  2  0  0  0  0  0  0  0  0  0
   -7.4567    0.6318   12.0990 N   0  0  0  0  0  0  0  0  0  0  0  0
   -6.5705    3.3416   19.2864 O   0  0  0  0  0  0  0  0  0  0  0  0
   -6.4570    0.6485   13.0166 C   0  0  2  0  0  0  0  0  0  0  0  0
   -8.8792    4.0230   19.2706 C   0  0  2  0  0  0  0  0  0  0  0  0
  -10.0566    3.3185   19.6613 O   0  0  0  0  0  0  0  0  0  0  0  0
   -5.9613   -0.6413   13.5275 C   0  0  1  0  0  0  0  0  0  0  0  0
   -9.2146    4.9837   18.1352 C   0  0  0  0  0  0  0  0  0  0  0  0
   -9.8045    4.2492   17.0607 O   0  0  0  0  0  0  0  0  0  0  0  0
   -6.5743   -1.8757   13.0054 C   0  0  0  0  0  0  0  0  0  0  0  0
   -6.1587   -3.0923   13.4405 O   0  0  0  0  0  0  0  0  0  0  0  0
   -4.9961   -0.3644   14.4111 N   0  0  0  0  0  0  0  0  0  0  0  0
   -4.8766    0.9942   14.4698 C   0  0  0  0  0  0  0  0  0  0  0  0
   -5.7479    1.6044   13.6391 N   0  0  1  0  0  0  0  0  0  0  0  0
  -10.8858   -2.9073   18.1262 N   0  0  0  0  0  0  0  0  0  0  0  0
  -10.3797    3.5884   14.4108 O   0  5  0  0  0  0  0  0  0  0  0  0
  -10.0001   -2.4943   19.0737 C   0  0  2  0  0  0  0  0  0  0  0  0
   -9.2496   -3.4186   19.7282 N   0  0  0  0  0  0  0  0  0  0  0  0
  -10.8277    6.2506   15.4832 O   0  0  0  0  0  0  0  0  0  0  0  0
   -9.8415   -1.1798   19.3890 N   0  0  0  0  0  0  0  0  0  0  0  0
  -10.5649   -0.2135   18.7766 C   0  0  2  0  0  0  0  0  0  0  0  0
  -11.5352   -0.5971   17.7427 C   0  0  2  0  0  0  0  0  0  0  0  0
  -11.6587   -2.0390   17.4398 C   0  0  0  0  0  0  0  0  0  0  0  0
  -12.5258   -2.4881   16.4990 O   0  0  0  0  0  0  0  0  0  0  0  0
  -12.0975    0.5447   17.2995 N   0  0  0  0  0  0  0  0  0  0  0  0
  -11.5346    1.5756   17.9976 C   0  0  0  0  0  0  0  0  0  0  0  0
  -10.6167    1.1160   18.8779 N   0  0  1  0  0  0  0  0  0  0  0  0
  1  3  1  1  0  0  0
  1  4  2  0  0  0  0
  1  6  1  0  0  0  0
  1 22  1  0  0  0  0
  2 28  1  0  0  0  0
  2 35  1  6  0  0  0
  2 38  2  0  0  0  0
  2 10  1  0  0  0  0
  5  6  1  0  0  0  0
  7  5  1  1  0  0  0
  7  8  1  0  0  0  0
  7  9  1  0  0  0  0
  9 10  1  6  0  0  0
  9 11  1  0  0  0  0
 11 12  1  6  0  0  0
 11 13  1  0  0  0  0
 13  8  1  1  0  0  0
 13 33  1  0  0  0  0
 14 46  1  0  0  0  0
 14 17  1  0  0  0  0
 14 25  1  6  0  0  0
 15 16  1  0  0  0  0
 15 29  1  0  0  0  0
 16 18  1  1  0  0  0
 16 21  1  0  0  0  0
 17 19  1  1  0  0  0
 17 20  1  0  0  0  0
 20 22  1  1  0  0  0
 20 24  1  0  0  0  0
 23 21  1  1  0  0  0
 23 26  1  0  0  0  0
 23 33  1  0  0  0  0
 24 25  1  6  0  0  0
 24 27  1  0  0  0  0
 26 29  1  6  0  0  0
 26 31  1  0  0  0  0
 27 28  1  0  0  0  0
 29 30  2  0  0  0  0
 31 32  1  0  0  0  0
 33 32  1  6  0  0  0
 34 36  1  0  0  0  0
 34 42  1  0  0  0  0
 36 37  1  1  0  0  0
 36 39  1  0  0  0  0
 40 39  1  6  0  0  0
 40 41  1  0  0  0  0
 40 46  1  0  0  0  0
 41 42  1  6  0  0  0
 41 44  1  0  0  0  0
 42 43  2  0  0  0  0
 44 45  1  0  0  0  0
 46 45  1  1  0  0  0
M  CHG  2   3  -1  35  -1
M  END
>  <CHROM.1>
172.09708401,59.25483756,-8.09130392,1.69449212,16.41202851,-0.32640272,0.96519407
0.74511863

>  <Name>
ligand

>  <RI>
-1

>  <Rbt.Current_Directory>
/home/itssahil/PROJECTS/Mol_Feturizer/Test_systems_manuscript/rnas/3mum

>  <Rbt.Executable>
rbdock ($Id: //depot/dev/client3/rdock/2013.1/src/exe/rbdock.cxx#4 $)

>  <Rbt.Library>
libRbt.so (2013.1, Build901 2013/11/27)

>  <Rbt.Parameter_File>
/export/apps/rDock/src/rDock_2013.1_src/data/scripts/dock_solv.prm

>  <Rbt.Receptor>
prm/pocket_docking_4.prm

>  <SCORE>
-39.5066

>  <SCORE.INTER>
-39.5386

>  <SCORE.INTER.CONST>
1

>  <SCORE.INTER.POLAR>
0

>  <SCORE.INTER.ROT>
2

>  <SCORE.INTER.SOLV>
40.1441

>  <SCORE.INTER.VDW>
-44.6738

>  <SCORE.INTER.norm>
-0.859535

>  <SCORE.INTRA>
0.0320653

>  <SCORE.INTRA.DIHEDRAL>
-0.00741294

>  <SCORE.INTRA.DIHEDRAL.0>
2.40424

>  <SCORE.INTRA.POLAR>
0

>  <SCORE.INTRA.POLAR.0>
0

>  <SCORE.INTRA.REPUL>
0

>  <SCORE.INTRA.REPUL.0>
0

>  <SCORE.INTRA.SOLV>
0.00663348

>  <SCORE.INTRA.SOLV.lig_0>
-134.169

>  <SCORE.INTRA.VDW>
0.032455

>  <SCORE.INTRA.VDW.0>
-2.18386

>  <SCORE.INTRA.norm>
0.000697071

>  <SCORE.RESTR>
0

>  <SCORE.RESTR.CAVITY>
0

>  <SCORE.RESTR.norm>
0

>  <SCORE.SYSTEM>
0

>  <SCORE.SYSTEM.CONST>
0

>  <SCORE.SYSTEM.DIHEDRAL>
0

>  <SCORE.SYSTEM.SOLV>
0

>  <SCORE.SYSTEM.norm>
0

>  <SCORE.heavy>
46

>  <SCORE.norm>
-0.858838

>  <RMSD>
0.242

$$$$
ligand
 OpenBabel02271912143D
libRbt.so/2013.1/901 2013/11/27
 46 52  0  0  0  0  0  0  0  0999 V2000
   -5.2876    2.5563   18.6225 P   0  0  1  0  0  0  0  0  0  0  0  0
   -9.8082    4.8087   15.5948 P   0  0  2  0  0  0  0  0  0  0  0  0
   -5.4275    0.7916   18.7113 O   0  5  0  0  0  0  0  0  0  0  0  0
   -3.7795    3.1352   19.3773 O   0  0  0  0  0  0  0  0  0  0  0  0
   -5.3541    4.3692   16.6906 C   0  0  0  0  0  0  0  0  0  0  0  0
   -5.3392    2.9933   17.0715 O   0  0  0  0  0  0  0  0  0  0  0  0
   -5.8842    4.4730   15.2732 C   0  0  1  0  0  0  0  0  0  0  0  0
   -5.1298    3.6044   14.4163 O   0  0  0  0  0  0  0  0  0  0  0  0
   -7.3299    4.0232   15.1385 C   0  0  1  0  0  0  0  0  0  0  0  0
   -8.2464    5.1020   15.3095 O   0  0  0  0  0  0  0  0  0  0  0  0
   -7.3830    3.4493   13.7336 C   0  0  1  0  0  0  0  0  0  0  0  0
   -7.6990    4.4801   12.7944 O   0  0  0  0  0  0  0  0  0  0  0  0
   -5.9759    2.9545   13.4548 C   0  0  2  0  0  0  0  0  0  0  0  0
   -9.8168    1.9536   19.8873 C   0  0  1  0  0  0  0  0  0  0  0  0
   -7.4221   -1.8747   11.7875 N   0  0  0  0  0  0  0  0  0  0  0  0
   -7.7658   -0.6565   11.2875 C   0  0  1  0  0  0  0  0  0  0  0  0
   -8.3648    1.6922   19.6035 C   0  0  2  0  0  0  0  0  0  0  0  0
   -8.5910   -0.6145   10.2161 N   0  0  0  0  0  0  0  0  0  0  0  0
   -7.7294    1.5211   20.8716 O   0  0  0  0  0  0  0  0  0  0  0  0
   -7.8811    2.9376   18.8874 C   0  0  2  0  0  0  0  0  0  0  0  0
   -7.3156    0.5168   11.8236 N   0  0  0  0  0  0  0  0  0  0  0  0
   -6.5609    3.2895   19.2782 O   0  0  0  0  0  0  0  0  0  0  0  0
   -6.4849    0.5284   12.8966 C   0  0  2  0  0  0  0  0  0  0  0  0
   -8.8527    4.0258   19.3001 C   0  0  2  0  0  0  0  0  0  0  0  0
  -10.0387    3.3532   19.7201 O   0  0  0  0  0  0  0  0  0  0  0  0
   -6.0842   -0.7642   13.4790 C   0  0  1  0  0  0  0  0  0  0  0  0
   -9.1871    4.9836   18.1620 C   0  0  0  0  0  0  0  0  0  0  0  0
   -9.8151    4.2535   17.1062 O   0  0  0  0  0  0  0  0  0  0  0  0
   -6.6021   -1.9955   12.8564 C   0  0  0  0  0  0  0  0  0  0  0  0
   -6.2675   -3.2144   13.3509 O   0  0  0  0  0  0  0  0  0  0  0  0
   -5.2814   -0.4922   14.5138 N   0  0  0  0  0  0  0  0  0  0  0  0
   -5.1716    0.8660   14.5968 C   0  0  0  0  0  0  0  0  0  0  0  0
   -5.8896    1.4807   13.6334 N   0  0  1  0  0  0  0  0  0  0  0  0
  -10.6376   -2.7763   17.8082 N   0  0  0  0  0  0  0  0  0  0  0  0
  -10.4571    3.5821   14.4743 O   0  5  0  0  0  0  0  0  0  0  0  0
   -9.6763   -2.3621   18.6784 C   0  0  2  0  0  0  0  0  0  0  0  0
   -8.7566   -3.2564   19.1259 N   0  0  0  0  0  0  0  0  0  0  0  0
  -10.8208    6.2641   15.5292 O   0  0  0  0  0  0  0  0  0  0  0  0
   -9.6064   -1.0758   19.1176 N   0  0  0  0  0  0  0  0  0  0  0  0
  -10.4979   -0.1411   18.7129 C   0  0  2  0  0  0  0  0  0  0  0  0
  -11.5572   -0.5272   17.7714 C   0  0  2  0  0  0  0  0  0  0  0  0
  -11.5782   -1.9367   17.3257 C   0  0  0  0  0  0  0  0  0  0  0  0
  -12.5166   -2.3852   16.4557 O   0  0  0  0  0  0  0  0  0  0  0  0
  -12.2841    0.5824   17.5332 N   0  0  0  0  0  0  0  0  0  0  0  0
  -11.7358    1.5960   18.2674 C   0  0  0  0  0  0  0  0  0  0  0  0
  -10.6660    1.1576   18.9690 N   0  0  1  0  0  0  0  0  0  0  0  0
  1  3  1  1  0  0  0
  1  4  2  0  0  0  0
  1  6  1  0  0  0  0
  1 22  1  0  0  0  0
  2 28  1  0  0  0  0
  2 35  1  6  0  0  0
  2 38  2  0  0  0  0
  2 10  1  0  0  0  0
  5  6  1  0  0  0  0
  7  5  1  1  0  0  0
  7  8  1  0  0  0  0
  7  9  1  0  0  0  0
  9 10  1  6  0  0  0
  9 11  1  0  0  0  0
 11 12  1  6  0  0  0
 11 13  1  0  0  0  0
 13  8  1  1  0  0  0
 13 33  1  0  0  0  0
 14 46  1  0  0  0  0
 14 17  1  0  0  0  0
 14 25  1  6  0  0  0
 15 16  1  0  0  0  0
 15 29  1  0  0  0  0
 16 18  1  1  0  0  0
 16 21  1  0  0  0  0
 17 19  1  1  0  0  0
 17 20  1  0  0  0  0
 20 22  1  1  0  0  0
 20 24  1  0  0  0  0
 23 21  1  1  0  0  0
 23 26  1  0  0  0  0
 23 33  1  0  0  0  0
 24 25  1  6  0  0  0
 24 27  1  0  0  0  0
 26 29  1  6  0  0  0
 26 31  1  0  0  0  0
 27 28  1  0  0  0  0
 29 30  2  0  0  0  0
 31 32  1  0  0  0  0
 33 32  1  6  0  0  0
 34 36  1  0  0  0  0
 34 42  1  0  0  0  0
 36 37  1  1  0  0  0
 36 39  1  0  0  0  0
 40 39  1  6  0  0  0
 40 41  1  0  0  0  0
 40 46  1  0  0  0  0
 41 42  1  6  0  0  0
 41 44  1  0  0  0  0
 42 43  2  0  0  0  0
 44 45  1  0  0  0  0
 46 45  1  1  0  0  0
M  CHG  2   3  -1  35  -1
M  END
>  <CHROM.1>
-176.99146872,47.39829975,-8.08896828,1.65994682,16.36072262,-2.26749747
-0.97218346,-2.42955661

>  <Name>
ligand

>  <RI>
-1

>  <Rbt.Current_Directory>
/home/itssahil/PROJECTS/Mol_Feturizer/Test_systems_manuscript/rnas/3mum

>  <Rbt.Executable>
rbdock ($Id: //depot/dev/client3/rdock/2013.1/src/exe/rbdock.cxx#4 $)

>  <Rbt.Library>
libRbt.so (2013.1, Build901 2013/11/27)

>  <Rbt.Parameter_File>
/export/apps/rDock/src/rDock_2013.1_src/data/scripts/dock_solv.prm

>  <Rbt.Receptor>
prm/pocket_docking_6.prm

>  <SCORE>
-40.2179

>  <SCORE.INTER>
-40.2948

>  <SCORE.INTER.CONST>
1

>  <SCORE.INTER.POLAR>
0

>  <SCORE.INTER.ROT>
2

>  <SCORE.INTER.SOLV>
39.6494

>  <SCORE.INTER.VDW>
-45.013

>  <SCORE.INTER.norm>
-0.875973

>  <SCORE.INTRA>
0.0768777

>  <SCORE.INTRA.DIHEDRAL>
-0.021082

>  <SCORE.INTRA.DIHEDRAL.0>
2.40424

>  <SCORE.INTRA.POLAR>
0

>  <SCORE.INTRA.POLAR.0>
0

>  <SCORE.INTRA.REPUL>
0

>  <SCORE.INTRA.REPUL.0>
0

>  <SCORE.INTRA.SOLV>
0.0192539

>  <SCORE.INTRA.SOLV.lig_0>
-134.169

>  <SCORE.INTRA.VDW>
0.0777918

>  <SCORE.INTRA.VDW.0>
-2.18386

>  <SCORE.INTRA.norm>
0.00167125

>  <SCORE.RESTR>
0

>  <SCORE.RESTR.CAVITY>
0

>  <SCORE.RESTR.norm>
0

>  <SCORE.SYSTEM>
0

>  <SCORE.SYSTEM.CONST>
0

>  <SCORE.SYSTEM.DIHEDRAL>
0

>  <SCORE.SYSTEM.SOLV>
0

>  <SCORE.SYSTEM.norm>
0

>  <SCORE.heavy>
46

>  <SCORE.norm>
-0.874302

>  <RMSD>
0.242

$$$$
ligand
 OpenBabel02271912143D
libRbt.so/2013.1/901 2013/11/27
 46 52  0  0  0  0  0  0  0  0999 V2000
   -5.3103    2.5793   18.7173 P   0  0  1  0  0  0  0  0  0  0  0  0
   -9.7857    4.8511   15.6375 P   0  0  2  0  0  0  0  0  0  0  0  0
   -5.4469    0.8134   18.7857 O   0  5  0  0  0  0  0  0  0  0  0  0
   -3.8166    3.1543   19.5031 O   0  0  0  0  0  0  0  0  0  0  0  0
   -5.3494    4.4118   16.8032 C   0  0  0  0  0  0  0  0  0  0  0  0
   -5.3371    3.0321   17.1702 O   0  0  0  0  0  0  0  0  0  0  0  0
   -5.8560    4.5287   15.3783 C   0  0  1  0  0  0  0  0  0  0  0  0
   -5.0850    3.6708   14.5253 O   0  0  0  0  0  0  0  0  0  0  0  0
   -7.2980    4.0766   15.2148 C   0  0  1  0  0  0  0  0  0  0  0  0
   -8.2201    5.1513   15.3814 O   0  0  0  0  0  0  0  0  0  0  0  0
   -7.3261    3.5170   13.8034 C   0  0  1  0  0  0  0  0  0  0  0  0
   -7.6291    4.5566   12.8697 O   0  0  0  0  0  0  0  0  0  0  0  0
   -5.9132    3.0287   13.5432 C   0  0  2  0  0  0  0  0  0  0  0  0
   -9.8584    1.9522   19.9000 C   0  0  1  0  0  0  0  0  0  0  0  0
   -7.4084   -1.7844   11.8725 N   0  0  0  0  0  0  0  0  0  0  0  0
   -7.7611   -0.5615   11.3902 C   0  0  1  0  0  0  0  0  0  0  0  0
   -8.4011    1.6974   19.6378 C   0  0  2  0  0  0  0  0  0  0  0  0
   -8.6111   -0.5095   10.3388 N   0  0  0  0  0  0  0  0  0  0  0  0
   -7.7866    1.5149   20.9146 O   0  0  0  0  0  0  0  0  0  0  0  0
   -7.9089    2.9513   18.9427 C   0  0  2  0  0  0  0  0  0  0  0  0
   -7.2960    0.6066   11.9248 N   0  0  0  0  0  0  0  0  0  0  0  0
   -6.5964    3.3025   19.3591 O   0  0  0  0  0  0  0  0  0  0  0  0
   -6.4403    0.6080   12.9781 C   0  0  2  0  0  0  0  0  0  0  0  0
   -8.8902    4.0327   19.3501 C   0  0  2  0  0  0  0  0  0  0  0  0
  -10.0813    3.3529   19.7433 O   0  0  0  0  0  0  0  0  0  0  0  0
   -6.0289   -0.6898   13.5408 C   0  0  1  0  0  0  0  0  0  0  0  0
   -9.2081    5.0012   18.2164 C   0  0  0  0  0  0  0  0  0  0  0  0
   -9.8163    4.2804   17.1429 O   0  0  0  0  0  0  0  0  0  0  0  0
   -6.5639   -1.9152   12.9209 C   0  0  0  0  0  0  0  0  0  0  0  0
   -6.2204   -3.1386   13.3978 O   0  0  0  0  0  0  0  0  0  0  0  0
   -5.2015   -0.4276   14.5585 N   0  0  0  0  0  0  0  0  0  0  0  0
   -5.0868    0.9297   14.6496 C   0  0  0  0  0  0  0  0  0  0  0  0
   -5.8259    1.5534   13.7082 N   0  0  1  0  0  0  0  0  0  0  0  0
  -10.6763   -2.7746   17.8126 N   0  0  0  0  0  0  0  0  0  0  0  0
  -10.4125    3.6345   14.4939 O   0  5  0  0  0  0  0  0  0  0  0  0
   -9.7361   -2.3692   18.7096 C   0  0  2  0  0  0  0  0  0  0  0  0
   -8.8413   -3.2733   19.1869 N   0  0  0  0  0  0  0  0  0  0  0  0
  -10.8010    6.3046   15.5698 O   0  0  0  0  0  0  0  0  0  0  0  0
   -9.6632   -1.0823   19.1465 N   0  0  0  0  0  0  0  0  0  0  0  0
  -10.5306   -0.1381   18.7126 C   0  0  2  0  0  0  0  0  0  0  0  0
  -11.5663   -0.5144   17.7414 C   0  0  2  0  0  0  0  0  0  0  0  0
  -11.5917   -1.9252   17.2998 C   0  0  0  0  0  0  0  0  0  0  0  0
  -12.5095   -2.3651   16.4039 O   0  0  0  0  0  0  0  0  0  0  0  0
  -12.2720    0.6032   17.4782 N   0  0  0  0  0  0  0  0  0  0  0  0
  -11.7330    1.6125   18.2251 C   0  0  0  0  0  0  0  0  0  0  0  0
  -10.6899    1.1635   18.9595 N   0  0  1  0  0  0  0  0  0  0  0  0
  1  3  1  1  0  0  0
  1  4  2  0  0  0  0
  1  6  1  0  0  0  0
  1 22  1  0  0  0  0
  2 28  1  0  0  0  0
  2 35  1  6  0  0  0
  2 38  2  0  0  0  0
  2 10  1  0  0  0  0
  5  6  1  0  0  0  0
  7  5  1  1  0  0  0
  7  8  1  0  0  0  0
  7  9  1  0  0  0  0
  9 10  1  6  0  0  0
  9 11  1  0  0  0  0
 11 12  1  6  0  0  0
 11 13  1  0  0  0  0
 13  8  1  1  0  0  0
 13 33  1  0  0  0  0
 14 46  1  0  0  0  0
 14 17  1  0  0  0  0
 14 25  1  6  0  0  0
 15 16  1  0  0  0  0
 15 29  1  0  0  0  0
 16 18  1  1  0  0  0
 16 21  1  0  0  0  0
 17 19  1  1  0  0  0
 17 20  1  0  0  0  0
 20 22  1  1  0  0  0
 20 24  1  0  0  0  0
 23 21  1  1  0  0  0
 23 26  1  0  0  0  0
 23 33  1  0  0  0  0
 24 25  1  6  0  0  0
 24 27  1  0  0  0  0
 26 29  1  6  0  0  0
 26 31  1  0  0  0  0
 27 28  1  0  0  0  0
 29 30  2  0  0  0  0
 31 32  1  0  0  0  0
 33 32  1  6  0  0  0
 34 36  1  0  0  0  0
 34 42  1  0  0  0  0
 36 37  1  1  0  0  0
 36 39  1  0  0  0  0
 40 39  1  6  0  0  0
 40 41  1  0  0  0  0
 40 46  1  0  0  0  0
 41 42  1  6  0  0  0
 41 44  1  0  0  0  0
 42 43  2  0  0  0  0
 44 45  1  0  0  0  0
 46 45  1  1  0  0  0
M  CHG  2   3  -1  35  -1
M  END
>  <CHROM.1>
-179.31378215,48.77475703,-8.08567826,1.69753629,16.41334211,-2.31966067
-0.96089751,-2.42516121

>  <Name>
ligand

>  <RI>
416

>  <Rbt.Current_Directory>
/home/itssahil/PROJECTS/Mol_Feturizer/Test_systems_manuscript/rnas/3mum

>  <Rbt.Executable>
rbdock ($Id: //depot/dev/client3/rdock/2013.1/src/exe/rbdock.cxx#4 $)

>  <Rbt.Library>
libRbt.so (2013.1, Build901 2013/11/27)

>  <Rbt.Parameter_File>
/export/apps/rDock/src/rDock_2013.1_src/data/scripts/dock_solv.prm

>  <Rbt.Receptor>
prm/pocket_docking_3.prm

>  <SCORE>
-40.3487

>  <SCORE.INTER>
-40.4328

>  <SCORE.INTER.CONST>
1

>  <SCORE.INTER.POLAR>
0

>  <SCORE.INTER.ROT>
2

>  <SCORE.INTER.SOLV>
38.913

>  <SCORE.INTER.VDW>
-44.8596

>  <SCORE.INTER.norm>
-0.878974

>  <SCORE.INTRA>
0.0841508

>  <SCORE.INTRA.DIHEDRAL>
-0.0199339

>  <SCORE.INTRA.DIHEDRAL.0>
2.40424

>  <SCORE.INTRA.POLAR>
0

>  <SCORE.INTRA.POLAR.0>
0

>  <SCORE.INTRA.REPUL>
0

>  <SCORE.INTRA.REPUL.0>
0

>  <SCORE.INTRA.SOLV>
0.018358

>  <SCORE.INTRA.SOLV.lig_0>
-134.169

>  <SCORE.INTRA.VDW>
0.0849388

>  <SCORE.INTRA.VDW.0>
-2.18386

>  <SCORE.INTRA.norm>
0.00182937

>  <SCORE.RESTR>
0

>  <SCORE.RESTR.CAVITY>
0

>  <SCORE.RESTR.norm>
0

>  <SCORE.SYSTEM>
0

>  <SCORE.SYSTEM.CONST>
0

>  <SCORE.SYSTEM.DIHEDRAL>
0

>  <SCORE.SYSTEM.SOLV>
0

>  <SCORE.SYSTEM.norm>
0

>  <SCORE.heavy>
46

>  <SCORE.norm>
-0.877145

>  <RMSD>
0.243

$$$$
ligand
 OpenBabel02271912143D
libRbt.so/2013.1/901 2013/11/27
 46 52  0  0  0  0  0  0  0  0999 V2000
   -5.2595    2.5288   18.6900 P   0  0  1  0  0  0  0  0  0  0  0  0
   -9.7447    4.8438   15.6569 P   0  0  2  0  0  0  0  0  0  0  0  0
   -5.4117    0.7642   18.7587 O   0  5  0  0  0  0  0  0  0  0  0  0
   -3.7527    3.0894   19.4609 O   0  0  0  0  0  0  0  0  0  0  0  0
   -5.3010    4.3628   16.7774 C   0  0  0  0  0  0  0  0  0  0  0  0
   -5.2978    2.9828   17.1435 O   0  0  0  0  0  0  0  0  0  0  0  0
   -5.8209    4.4854   15.3577 C   0  0  1  0  0  0  0  0  0  0  0  0
   -5.0666    3.6210   14.4965 O   0  0  0  0  0  0  0  0  0  0  0  0
   -7.2686    4.0467   15.2086 C   0  0  1  0  0  0  0  0  0  0  0  0
   -8.1791    5.1298   15.3851 O   0  0  0  0  0  0  0  0  0  0  0  0
   -7.3161    3.4883   13.7972 C   0  0  1  0  0  0  0  0  0  0  0  0
   -7.6190    4.5312   12.8672 O   0  0  0  0  0  0  0  0  0  0  0  0
   -5.9105    2.9871   13.5225 C   0  0  2  0  0  0  0  0  0  0  0  0
   -9.8010    1.9428   19.9182 C   0  0  1  0  0  0  0  0  0  0  0  0
   -7.4393   -1.8119   11.8418 N   0  0  0  0  0  0  0  0  0  0  0  0
   -7.7812   -0.5857   11.3602 C   0  0  1  0  0  0  0  0  0  0  0  0
   -8.3489    1.6748   19.6412 C   0  0  2  0  0  0  0  0  0  0  0  0
   -8.6281   -0.5256   10.3068 N   0  0  0  0  0  0  0  0  0  0  0  0
   -7.7231    1.4858   20.9116 O   0  0  0  0  0  0  0  0  0  0  0  0
   -7.8521    2.9245   18.9418 C   0  0  2  0  0  0  0  0  0  0  0  0
   -7.3082    0.5781   11.8975 N   0  0  0  0  0  0  0  0  0  0  0  0
   -6.5323    3.2634   19.3451 O   0  0  0  0  0  0  0  0  0  0  0  0
   -6.4552    0.5715   12.9529 C   0  0  2  0  0  0  0  0  0  0  0  0
   -8.8193    4.0147   19.3598 C   0  0  2  0  0  0  0  0  0  0  0  0
  -10.0125    3.3457   19.7646 O   0  0  0  0  0  0  0  0  0  0  0  0
   -6.0553   -0.7303   13.5149 C   0  0  1  0  0  0  0  0  0  0  0  0
   -9.1397    4.9869   18.2299 C   0  0  0  0  0  0  0  0  0  0  0  0
   -9.7653    4.2725   17.1621 O   0  0  0  0  0  0  0  0  0  0  0  0
   -6.5983   -1.9507   12.8920 C   0  0  0  0  0  0  0  0  0  0  0  0
   -6.2656   -3.1773   13.3681 O   0  0  0  0  0  0  0  0  0  0  0  0
   -5.2284   -0.4759   14.5350 N   0  0  0  0  0  0  0  0  0  0  0  0
   -5.1033    0.8803   14.6281 C   0  0  0  0  0  0  0  0  0  0  0  0
   -5.8351    1.5110   13.6857 N   0  0  1  0  0  0  0  0  0  0  0  0
  -10.6367   -2.7579   17.7796 N   0  0  0  0  0  0  0  0  0  0  0  0
  -10.3942    3.6338   14.5190 O   0  5  0  0  0  0  0  0  0  0  0  0
   -9.6783   -2.3594   18.6603 C   0  0  2  0  0  0  0  0  0  0  0  0
   -8.7665   -3.2642   19.1029 N   0  0  0  0  0  0  0  0  0  0  0  0
  -10.7472    6.3067   15.6003 O   0  0  0  0  0  0  0  0  0  0  0  0
   -9.6036   -1.0787   19.1147 N   0  0  0  0  0  0  0  0  0  0  0  0
  -10.4872   -0.1341   18.7156 C   0  0  2  0  0  0  0  0  0  0  0  0
  -11.5430   -0.5031   17.7634 C   0  0  2  0  0  0  0  0  0  0  0  0
  -11.5695   -1.9073   17.3013 C   0  0  0  0  0  0  0  0  0  0  0  0
  -12.5052   -2.3402   16.4207 O   0  0  0  0  0  0  0  0  0  0  0  0
  -12.2620    0.6134   17.5337 N   0  0  0  0  0  0  0  0  0  0  0  0
  -11.7123    1.6152   18.2829 C   0  0  0  0  0  0  0  0  0  0  0  0
  -10.6493    1.1625   18.9857 N   0  0  1  0  0  0  0  0  0  0  0  0
  1  3  1  1  0  0  0
  1  4  2  0  0  0  0
  1  6  1  0  0  0  0
  1 22  1  0  0  0  0
  2 28  1  0  0  0  0
  2 35  1  6  0  0  0
  2 38  2  0  0  0  0
  2 10  1  0  0  0  0
  5  6  1  0  0  0  0
  7  5  1  1  0  0  0
  7  8  1  0  0  0  0
  7  9  1  0  0  0  0
  9 10  1  6  0  0  0
  9 11  1  0  0  0  0
 11 12  1  6  0  0  0
 11 13  1  0  0  0  0
 13  8  1  1  0  0  0
 13 33  1  0  0  0  0
 14 46  1  0  0  0  0
 14 17  1  0  0  0  0
 14 25  1  6  0  0  0
 15 16  1  0  0  0  0
 15 29  1  0  0  0  0
 16 18  1  1  0  0  0
 16 21  1  0  0  0  0
 17 19  1  1  0  0  0
 17 20  1  0  0  0  0
 20 22  1  1  0  0  0
 20 24  1  0  0  0  0
 23 21  1  1  0  0  0
 23 26  1  0  0  0  0
 23 33  1  0  0  0  0
 24 25  1  6  0  0  0
 24 27  1  0  0  0  0
 26 29  1  6  0  0  0
 26 31  1  0  0  0  0
 27 28  1  0  0  0  0
 29 30  2  0  0  0  0
 31 32  1  0  0  0  0
 33 32  1  6  0  0  0
 34 36  1  0  0  0  0
 34 42  1  0  0  0  0
 36 37  1  1  0  0  0
 36 39  1  0  0  0  0
 40 39  1  6  0  0  0
 40 41  1  0  0  0  0
 40 46  1  0  0  0  0
 41 42  1  6  0  0  0
 41 44  1  0  0  0  0
 42 43  2  0  0  0  0
 44 45  1  0  0  0  0
 46 45  1  1  0  0  0
M  CHG  2   3  -1  35  -1
M  END
>  <CHROM.1>
-178.58759413,47.32259143,-8.05793078,1.67592247,16.40501846,-2.25680027
-0.96184476,-2.41030705

>  <Name>
ligand

>  <RI>
-1

>  <Rbt.Current_Directory>
/home/itssahil/PROJECTS/Mol_Feturizer/Test_systems_manuscript/rnas/3mum

>  <Rbt.Executable>
rbdock ($Id: //depot/dev/client3/rdock/2013.1/src/exe/rbdock.cxx#4 $)

>  <Rbt.Library>
libRbt.so (2013.1, Build901 2013/11/27)

>  <Rbt.Parameter_File>
/export/apps/rDock/src/rDock_2013.1_src/data/scripts/dock_solv.prm

>  <Rbt.Receptor>
prm/pocket_docking_7.prm

>  <SCORE>
-40.3374

>  <SCORE.INTER>
-40.4267

>  <SCORE.INTER.CONST>
1

>  <SCORE.INTER.POLAR>
0

>  <SCORE.INTER.ROT>
2

>  <SCORE.INTER.SOLV>
39.0909

>  <SCORE.INTER.VDW>
-44.9148

>  <SCORE.INTER.norm>
-0.878842

>  <SCORE.INTRA>
0.0893207

>  <SCORE.INTRA.DIHEDRAL>
-0.0214668

>  <SCORE.INTRA.DIHEDRAL.0>
2.40424

>  <SCORE.INTRA.POLAR>
0

>  <SCORE.INTRA.POLAR.0>
0

>  <SCORE.INTRA.REPUL>
0

>  <SCORE.INTRA.REPUL.0>
0

>  <SCORE.INTRA.SOLV>
0.019866

>  <SCORE.INTRA.SOLV.lig_0>
-134.169

>  <SCORE.INTRA.VDW>
0.0901211

>  <SCORE.INTRA.VDW.0>
-2.18386

>  <SCORE.INTRA.norm>
0.00194175

>  <SCORE.RESTR>
0

>  <SCORE.RESTR.CAVITY>
0

>  <SCORE.RESTR.norm>
0

>  <SCORE.SYSTEM>
0

>  <SCORE.SYSTEM.CONST>
0

>  <SCORE.SYSTEM.DIHEDRAL>
0

>  <SCORE.SYSTEM.SOLV>
0

>  <SCORE.SYSTEM.norm>
0

>  <SCORE.heavy>
46

>  <SCORE.norm>
-0.8769

>  <RMSD>
0.243

$$$$
ligand
 OpenBabel02271912143D
libRbt.so/2013.1/901 2013/11/27
 46 52  0  0  0  0  0  0  0  0999 V2000
   -9.7959    4.8790   15.6648 P   0  0  1  0  0  0  0  0  0  0  0  0
   -5.3916    2.4741   18.7461 P   0  0  2  0  0  0  0  0  0  0  0  0
  -10.5075    3.6779   14.5726 O   0  5  0  0  0  0  0  0  0  0  0  0
  -10.6729    6.4300   15.5977 O   0  0  0  0  0  0  0  0  0  0  0  0
   -9.2220    4.9871   18.2498 C   0  0  0  0  0  0  0  0  0  0  0  0
   -9.8260    4.2850   17.1633 O   0  0  0  0  0  0  0  0  0  0  0  0
   -8.9772    4.0080   19.3821 C   0  0  1  0  0  0  0  0  0  0  0  0
  -10.1987    3.3232   19.6937 O   0  0  0  0  0  0  0  0  0  0  0  0
   -7.9782    2.9184   19.0282 C   0  0  1  0  0  0  0  0  0  0  0  0
   -6.6425    3.2831   19.3688 O   0  0  0  0  0  0  0  0  0  0  0  0
   -8.4659    1.7280   19.8351 C   0  0  1  0  0  0  0  0  0  0  0  0
   -7.8718    1.7406   21.1356 O   0  0  0  0  0  0  0  0  0  0  0  0
   -9.9615    1.9366   19.9836 C   0  0  2  0  0  0  0  0  0  0  0  0
   -5.9692    2.9420   13.6446 C   0  0  1  0  0  0  0  0  0  0  0  0
  -10.8355   -2.8931   17.9582 N   0  0  0  0  0  0  0  0  0  0  0  0
   -9.9670   -2.5180   18.9366 C   0  0  1  0  0  0  0  0  0  0  0  0
   -7.3921    3.3263   13.9359 C   0  0  2  0  0  0  0  0  0  0  0  0
   -9.1932   -3.4713   19.5050 N   0  0  0  0  0  0  0  0  0  0  0  0
   -7.7869    4.2294   12.9017 O   0  0  0  0  0  0  0  0  0  0  0  0
   -7.3399    4.0011   15.2923 C   0  0  2  0  0  0  0  0  0  0  0  0
   -9.8451   -1.2252   19.3615 N   0  0  0  0  0  0  0  0  0  0  0  0
   -8.2314    5.1053   15.3648 O   0  0  0  0  0  0  0  0  0  0  0  0
  -10.5995   -0.2330   18.8250 C   0  0  2  0  0  0  0  0  0  0  0  0
   -5.9081    4.4790   15.4341 C   0  0  2  0  0  0  0  0  0  0  0  0
   -5.1370    3.6765   14.5415 O   0  0  0  0  0  0  0  0  0  0  0  0
  -11.5541   -0.5847   17.7593 C   0  0  1  0  0  0  0  0  0  0  0  0
   -5.3697    4.3231   16.8520 C   0  0  0  0  0  0  0  0  0  0  0  0
   -5.3755    2.9383   17.2044 O   0  0  0  0  0  0  0  0  0  0  0  0
  -11.6404   -1.9961   17.3441 C   0  0  0  0  0  0  0  0  0  0  0  0
  -12.5010   -2.3784   16.3667 O   0  0  0  0  0  0  0  0  0  0  0  0
  -12.1646    0.5482   17.3949 N   0  0  0  0  0  0  0  0  0  0  0  0
  -11.6473    1.5531   18.1604 C   0  0  0  0  0  0  0  0  0  0  0  0
  -10.7109    1.0919   19.0160 N   0  0  1  0  0  0  0  0  0  0  0  0
   -7.4260   -1.7911   11.9584 N   0  0  0  0  0  0  0  0  0  0  0  0
   -5.6298    0.7107   18.8666 O   0  5  0  0  0  0  0  0  0  0  0  0
   -7.8353   -0.5579   11.5530 C   0  0  2  0  0  0  0  0  0  0  0  0
   -8.7564   -0.4580   10.5593 N   0  0  0  0  0  0  0  0  0  0  0  0
   -3.8359    2.9121   19.4782 O   0  0  0  0  0  0  0  0  0  0  0  0
   -7.3493    0.5837   12.1125 N   0  0  0  0  0  0  0  0  0  0  0  0
   -6.4254    0.5489   13.1011 C   0  0  2  0  0  0  0  0  0  0  0  0
   -5.9467   -0.7534   13.5834 C   0  0  2  0  0  0  0  0  0  0  0  0
   -6.5156   -1.9576   12.9412 C   0  0  0  0  0  0  0  0  0  0  0  0
   -6.1366   -3.2027   13.3215 O   0  0  0  0  0  0  0  0  0  0  0  0
   -5.0551   -0.4981   14.5613 N   0  0  0  0  0  0  0  0  0  0  0  0
   -4.9676    0.8594   14.6906 C   0  0  0  0  0  0  0  0  0  0  0  0
   -5.7916    1.4802   13.8162 N   0  0  1  0  0  0  0  0  0  0  0  0
  1  3  1  6  0  0  0
  1  4  2  0  0  0  0
  1  6  1  0  0  0  0
  1 22  1  0  0  0  0
  2 28  1  0  0  0  0
  2 35  1  1  0  0  0
  2 38  2  0  0  0  0
  2 10  1  0  0  0  0
  5  6  1  0  0  0  0
  7  5  1  6  0  0  0
  7  8  1  0  0  0  0
  7  9  1  0  0  0  0
  9 10  1  1  0  0  0
  9 11  1  0  0  0  0
 11 12  1  1  0  0  0
 11 13  1  0  0  0  0
 13  8  1  6  0  0  0
 13 33  1  0  0  0  0
 14 46  1  0  0  0  0
 14 17  1  0  0  0  0
 14 25  1  1  0  0  0
 15 16  1  0  0  0  0
 15 29  1  0  0  0  0
 16 18  1  6  0  0  0
 16 21  1  0  0  0  0
 17 19  1  6  0  0  0
 17 20  1  0  0  0  0
 20 22  1  6  0  0  0
 20 24  1  0  0  0  0
 23 21  1  6  0  0  0
 23 26  1  0  0  0  0
 23 33  1  0  0  0  0
 24 25  1  6  0  0  0
 24 27  1  0  0  0  0
 26 29  1  1  0  0  0
 26 31  1  0  0  0  0
 27 28  1  0  0  0  0
 29 30  2  0  0  0  0
 31 32  1  0  0  0  0
 33 32  1  1  0  0  0
 34 36  1  0  0  0  0
 34 42  1  0  0  0  0
 36 37  1  6  0  0  0
 36 39  1  0  0  0  0
 40 39  1  1  0  0  0
 40 41  1  0  0  0  0
 40 46  1  0  0  0  0
 41 42  1  1  0  0  0
 41 44  1  0  0  0  0
 42 43  2  0  0  0  0
 44 45  1  0  0  0  0
 46 45  1  6  0  0  0
M  CHG  2   3  -1  35  -1
M  END
>  <CHROM.1>
169.30710752,61.97643156,-8.12928293,1.64417332,16.47856073,-2.43701291,-0.96927082
-2.46846095

>  <Name>
ligand

>  <RI>
416

>  <Rbt.Current_Directory>
/home/itssahil/PROJECTS/Mol_Feturizer/Test_systems_manuscript/rnas/3mum

>  <Rbt.Executable>
rbdock ($Id: //depot/dev/client3/rdock/2013.1/src/exe/rbdock.cxx#4 $)

>  <Rbt.Library>
libRbt.so (2013.1, Build901 2013/11/27)

>  <Rbt.Parameter_File>
/export/apps/rDock/src/rDock_2013.1_src/data/scripts/dock_solv.prm

>  <Rbt.Receptor>
prm/pocket_docking_2.prm

>  <SCORE>
-40.1947

>  <SCORE.INTER>
-40.2143

>  <SCORE.INTER.CONST>
1

>  <SCORE.INTER.POLAR>
0

>  <SCORE.INTER.ROT>
2

>  <SCORE.INTER.SOLV>
39.8692

>  <SCORE.INTER.VDW>
-45.0326

>  <SCORE.INTER.norm>
-0.874225

>  <SCORE.INTRA>
0.0196738

>  <SCORE.INTRA.DIHEDRAL>
-0.00395287

>  <SCORE.INTRA.DIHEDRAL.0>
2.40424

>  <SCORE.INTRA.POLAR>
0

>  <SCORE.INTRA.POLAR.0>
0

>  <SCORE.INTRA.REPUL>
0

>  <SCORE.INTRA.REPUL.0>
0

>  <SCORE.INTRA.SOLV>
0.00410837

>  <SCORE.INTRA.SOLV.lig_0>
-134.169

>  <SCORE.INTRA.VDW>
0.0195961

>  <SCORE.INTRA.VDW.0>
-2.18386

>  <SCORE.INTRA.norm>
0.000427692

>  <SCORE.RESTR>
0

>  <SCORE.RESTR.CAVITY>
0

>  <SCORE.RESTR.norm>
0

>  <SCORE.SYSTEM>
0

>  <SCORE.SYSTEM.CONST>
0

>  <SCORE.SYSTEM.DIHEDRAL>
0

>  <SCORE.SYSTEM.SOLV>
0

>  <SCORE.SYSTEM.norm>
0

>  <SCORE.heavy>
46

>  <SCORE.norm>
-0.873797

>  <RMSD>
0.244

$$$$
ligand
 OpenBabel02271912143D
libRbt.so/2013.1/901 2013/11/27
 46 52  0  0  0  0  0  0  0  0999 V2000
   -9.7745    4.9086   15.6432 P   0  0  1  0  0  0  0  0  0  0  0  0
   -5.3733    2.4505   18.6867 P   0  0  2  0  0  0  0  0  0  0  0  0
  -10.5241    3.7107   14.5732 O   0  5  0  0  0  0  0  0  0  0  0  0
  -10.6227    6.4754   15.5728 O   0  0  0  0  0  0  0  0  0  0  0  0
   -9.1620    5.0311   18.2187 C   0  0  0  0  0  0  0  0  0  0  0  0
   -9.7946    4.3300   17.1479 O   0  0  0  0  0  0  0  0  0  0  0  0
   -8.9199    4.0586   19.3572 C   0  0  1  0  0  0  0  0  0  0  0  0
  -10.1495    3.4004   19.6928 O   0  0  0  0  0  0  0  0  0  0  0  0
   -7.9468    2.9468   19.0004 C   0  0  1  0  0  0  0  0  0  0  0  0
   -6.5997    3.2892   19.3186 O   0  0  0  0  0  0  0  0  0  0  0  0
   -8.4454    1.7739   19.8260 C   0  0  1  0  0  0  0  0  0  0  0  0
   -7.8328    1.7879   21.1179 O   0  0  0  0  0  0  0  0  0  0  0  0
   -9.9346    2.0125   19.9933 C   0  0  2  0  0  0  0  0  0  0  0  0
   -6.0141    2.8792   13.5894 C   0  0  1  0  0  0  0  0  0  0  0  0
  -10.7144   -2.7600   17.8007 N   0  0  0  0  0  0  0  0  0  0  0  0
   -9.7917   -2.3826   18.7272 C   0  0  1  0  0  0  0  0  0  0  0  0
   -7.4253    3.2934   13.8966 C   0  0  2  0  0  0  0  0  0  0  0  0
   -8.9267   -3.3165   19.1859 N   0  0  0  0  0  0  0  0  0  0  0  0
   -7.8174    4.1937   12.8590 O   0  0  0  0  0  0  0  0  0  0  0  0
   -7.3410    3.9803   15.2452 C   0  0  2  0  0  0  0  0  0  0  0  0
   -9.7038   -1.1059   19.2060 N   0  0  0  0  0  0  0  0  0  0  0  0
   -8.2103    5.1021   15.3191 O   0  0  0  0  0  0  0  0  0  0  0  0
  -10.5489   -0.1336   18.7795 C   0  0  2  0  0  0  0  0  0  0  0  0
   -5.8986    4.4322   15.3622 C   0  0  2  0  0  0  0  0  0  0  0  0
   -5.1556    3.6064   14.4670 O   0  0  0  0  0  0  0  0  0  0  0  0
  -11.5655   -0.4886   17.7739 C   0  0  1  0  0  0  0  0  0  0  0  0
   -5.3432    4.2800   16.7739 C   0  0  0  0  0  0  0  0  0  0  0  0
   -5.3702    2.8991   17.1403 O   0  0  0  0  0  0  0  0  0  0  0  0
  -11.6110   -1.8820   17.2961 C   0  0  0  0  0  0  0  0  0  0  0  0
  -12.5255   -2.2662   16.3697 O   0  0  0  0  0  0  0  0  0  0  0  0
  -12.2610    0.6241   17.5148 N   0  0  0  0  0  0  0  0  0  0  0  0
  -11.7375    1.6200   18.2879 C   0  0  0  0  0  0  0  0  0  0  0  0
  -10.7135    1.1728   19.0449 N   0  0  1  0  0  0  0  0  0  0  0  0
   -7.4075   -1.8424   11.8192 N   0  0  0  0  0  0  0  0  0  0  0  0
   -5.6431    0.6932   18.8283 O   0  5  0  0  0  0  0  0  0  0  0  0
   -7.7785   -0.6058   11.3876 C   0  0  2  0  0  0  0  0  0  0  0  0
   -8.6342   -0.4987   10.3377 N   0  0  0  0  0  0  0  0  0  0  0  0
   -3.7994    2.8658   19.3926 O   0  0  0  0  0  0  0  0  0  0  0  0
   -7.3177    0.5319   11.9755 N   0  0  0  0  0  0  0  0  0  0  0  0
   -6.4584    0.4897   13.0204 C   0  0  2  0  0  0  0  0  0  0  0  0
   -6.0236   -0.8163   13.5331 C   0  0  2  0  0  0  0  0  0  0  0  0
   -6.5625   -2.0160   12.8575 C   0  0  0  0  0  0  0  0  0  0  0  0
   -6.2204   -3.2641   13.2621 O   0  0  0  0  0  0  0  0  0  0  0  0
   -5.1930   -0.5681   14.5650 N   0  0  0  0  0  0  0  0  0  0  0  0
   -5.1007    0.7887   14.6984 C   0  0  0  0  0  0  0  0  0  0  0  0
   -5.8619    1.4160   13.7732 N   0  0  1  0  0  0  0  0  0  0  0  0
  1  3  1  6  0  0  0
  1  4  2  0  0  0  0
  1  6  1  0  0  0  0
  1 22  1  0  0  0  0
  2 28  1  0  0  0  0
  2 35  1  1  0  0  0
  2 38  2  0  0  0  0
  2 10  1  0  0  0  0
  5  6  1  0  0  0  0
  7  5  1  6  0  0  0
  7  8  1  0  0  0  0
  7  9  1  0  0  0  0
  9 10  1  1  0  0  0
  9 11  1  0  0  0  0
 11 12  1  1  0  0  0
 11 13  1  0  0  0  0
 13  8  1  6  0  0  0
 13 33  1  0  0  0  0
 14 46  1  0  0  0  0
 14 17  1  0  0  0  0
 14 25  1  1  0  0  0
 15 16  1  0  0  0  0
 15 29  1  0  0  0  0
 16 18  1  6  0  0  0
 16 21  1  0  0  0  0
 17 19  1  6  0  0  0
 17 20  1  0  0  0  0
 20 22  1  6  0  0  0
 20 24  1  0  0  0  0
 23 21  1  6  0  0  0
 23 26  1  0  0  0  0
 23 33  1  0  0  0  0
 24 25  1  6  0  0  0
 24 27  1  0  0  0  0
 26 29  1  1  0  0  0
 26 31  1  0  0  0  0
 27 28  1  0  0  0  0
 29 30  2  0  0  0  0
 31 32  1  0  0  0  0
 33 32  1  1  0  0  0
 34 36  1  0  0  0  0
 34 42  1  0  0  0  0
 36 37  1  6  0  0  0
 36 39  1  0  0  0  0
 40 39  1  1  0  0  0
 40 41  1  0  0  0  0
 40 46  1  0  0  0  0
 41 42  1  1  0  0  0
 41 44  1  0  0  0  0
 42 43  2  0  0  0  0
 44 45  1  0  0  0  0
 46 45  1  6  0  0  0
M  CHG  2   3  -1  35  -1
M  END
>  <CHROM.1>
162.81914089,66.45589491,-8.11560168,1.65704564,16.42484404,-2.25263389,-0.97142311
-2.47464026

>  <Name>
ligand

>  <RI>
-1

>  <Rbt.Current_Directory>
/home/itssahil/PROJECTS/Mol_Feturizer/Test_systems_manuscript/rnas/3mum

>  <Rbt.Executable>
rbdock ($Id: //depot/dev/client3/rdock/2013.1/src/exe/rbdock.cxx#4 $)

>  <Rbt.Library>
libRbt.so (2013.1, Build901 2013/11/27)

>  <Rbt.Parameter_File>
/export/apps/rDock/src/rDock_2013.1_src/data/scripts/dock_solv.prm

>  <Rbt.Receptor>
prm/pocket_docking_6.prm

>  <SCORE>
-40.4206

>  <SCORE.INTER>
-40.4057

>  <SCORE.INTER.CONST>
1

>  <SCORE.INTER.POLAR>
0

>  <SCORE.INTER.ROT>
2

>  <SCORE.INTER.SOLV>
39.1731

>  <SCORE.INTER.VDW>
-44.9282

>  <SCORE.INTER.norm>
-0.878385

>  <SCORE.INTRA>
-0.0148703

>  <SCORE.INTRA.DIHEDRAL>
0.00146506

>  <SCORE.INTRA.DIHEDRAL.0>
2.40424

>  <SCORE.INTRA.POLAR>
0

>  <SCORE.INTRA.POLAR.0>
0

>  <SCORE.INTRA.REPUL>
0

>  <SCORE.INTRA.REPUL.0>
0

>  <SCORE.INTRA.SOLV>
0.00104783

>  <SCORE.INTRA.SOLV.lig_0>
-134.169

>  <SCORE.INTRA.VDW>
-0.0161267

>  <SCORE.INTRA.VDW.0>
-2.18386

>  <SCORE.INTRA.norm>
-0.000323267

>  <SCORE.RESTR>
0

>  <SCORE.RESTR.CAVITY>
0

>  <SCORE.RESTR.norm>
0

>  <SCORE.SYSTEM>
0

>  <SCORE.SYSTEM.CONST>
0

>  <SCORE.SYSTEM.DIHEDRAL>
0

>  <SCORE.SYSTEM.SOLV>
0

>  <SCORE.SYSTEM.norm>
0

>  <SCORE.heavy>
46

>  <SCORE.norm>
-0.878709

>  <RMSD>
0.244

$$$$
ligand
 OpenBabel02271912143D
libRbt.so/2013.1/901 2013/11/27
 46 52  0  0  0  0  0  0  0  0999 V2000
   -9.7708    4.9111   15.6346 P   0  0  1  0  0  0  0  0  0  0  0  0
   -5.3787    2.4472   18.6867 P   0  0  2  0  0  0  0  0  0  0  0  0
  -10.5136    3.7166   14.5561 O   0  5  0  0  0  0  0  0  0  0  0  0
  -10.6214    6.4767   15.5674 O   0  0  0  0  0  0  0  0  0  0  0  0
   -9.1698    5.0233   18.2134 C   0  0  0  0  0  0  0  0  0  0  0  0
   -9.7965    4.3258   17.1367 O   0  0  0  0  0  0  0  0  0  0  0  0
   -8.9310    4.0463   19.3487 C   0  0  1  0  0  0  0  0  0  0  0  0
  -10.1610    3.3844   19.6760 O   0  0  0  0  0  0  0  0  0  0  0  0
   -7.9544    2.9377   18.9913 C   0  0  1  0  0  0  0  0  0  0  0  0
   -6.6093    3.2810   19.3169 O   0  0  0  0  0  0  0  0  0  0  0  0
   -8.4546    1.7603   19.8095 C   0  0  1  0  0  0  0  0  0  0  0  0
   -7.8478    1.7697   21.1041 O   0  0  0  0  0  0  0  0  0  0  0  0
   -9.9449    1.9956   19.9712 C   0  0  2  0  0  0  0  0  0  0  0  0
   -5.9979    2.8972   13.5885 C   0  0  1  0  0  0  0  0  0  0  0  0
  -10.7297   -2.7768   17.7800 N   0  0  0  0  0  0  0  0  0  0  0  0
   -9.8153   -2.4031   18.7163 C   0  0  1  0  0  0  0  0  0  0  0  0
   -7.4111    3.3076   13.8914 C   0  0  2  0  0  0  0  0  0  0  0  0
   -8.9616   -3.3414   19.1868 N   0  0  0  0  0  0  0  0  0  0  0  0
   -7.8002    4.2118   12.8560 O   0  0  0  0  0  0  0  0  0  0  0  0
   -7.3340    3.9888   15.2434 C   0  0  2  0  0  0  0  0  0  0  0  0
   -9.7248   -1.1260   19.1933 N   0  0  0  0  0  0  0  0  0  0  0  0
   -8.2056    5.1087   15.3183 O   0  0  0  0  0  0  0  0  0  0  0  0
  -10.5589   -0.1493   18.7551 C   0  0  2  0  0  0  0  0  0  0  0  0
   -5.8928    4.4426   15.3687 C   0  0  2  0  0  0  0  0  0  0  0  0
   -5.1445    3.6221   14.4732 O   0  0  0  0  0  0  0  0  0  0  0  0
  -11.5660   -0.5000   17.7386 C   0  0  1  0  0  0  0  0  0  0  0  0
   -5.3434    4.2852   16.7821 C   0  0  0  0  0  0  0  0  0  0  0  0
   -5.3696    2.9026   17.1423 O   0  0  0  0  0  0  0  0  0  0  0  0
  -11.6149   -1.8942   17.2633 C   0  0  0  0  0  0  0  0  0  0  0  0
  -12.5211   -2.2747   16.3272 O   0  0  0  0  0  0  0  0  0  0  0  0
  -12.2515    0.6164   17.4691 N   0  0  0  0  0  0  0  0  0  0  0  0
  -11.7306    1.6107   18.2461 C   0  0  0  0  0  0  0  0  0  0  0  0
  -10.7182    1.1587   19.0157 N   0  0  1  0  0  0  0  0  0  0  0  0
   -7.3866   -1.8190   11.8005 N   0  0  0  0  0  0  0  0  0  0  0  0
   -5.6461    0.6888   18.8194 O   0  5  0  0  0  0  0  0  0  0  0  0
   -7.7592   -0.5812   11.3739 C   0  0  2  0  0  0  0  0  0  0  0  0
   -8.6155   -0.4710   10.3248 N   0  0  0  0  0  0  0  0  0  0  0  0
   -3.8086    2.8621   19.4013 O   0  0  0  0  0  0  0  0  0  0  0  0
   -7.2995    0.5547   11.9661 N   0  0  0  0  0  0  0  0  0  0  0  0
   -6.4396    0.5095   13.0105 C   0  0  2  0  0  0  0  0  0  0  0  0
   -6.0032   -0.7981   13.5179 C   0  0  2  0  0  0  0  0  0  0  0  0
   -6.5410   -1.9957   12.8378 C   0  0  0  0  0  0  0  0  0  0  0  0
   -6.1973   -3.2450   13.2375 O   0  0  0  0  0  0  0  0  0  0  0  0
   -5.1724   -0.5529   14.5504 N   0  0  0  0  0  0  0  0  0  0  0  0
   -5.0816    0.8035   14.6890 C   0  0  0  0  0  0  0  0  0  0  0  0
   -5.8439    1.4335   13.7666 N   0  0  1  0  0  0  0  0  0  0  0  0
  1  3  1  6  0  0  0
  1  4  2  0  0  0  0
  1  6  1  0  0  0  0
  1 22  1  0  0  0  0
  2 28  1  0  0  0  0
  2 35  1  1  0  0  0
  2 38  2  0  0  0  0
  2 10  1  0  0  0  0
  5  6  1  0  0  0  0
  7  5  1  6  0  0  0
  7  8  1  0  0  0  0
  7  9  1  0  0  0  0
  9 10  1  1  0  0  0
  9 11  1  0  0  0  0
 11 12  1  1  0  0  0
 11 13  1  0  0  0  0
 13  8  1  6  0  0  0
 13 33  1  0  0  0  0
 14 46  1  0  0  0  0
 14 17  1  0  0  0  0
 14 25  1  1  0  0  0
 15 16  1  0  0  0  0
 15 29  1  0  0  0  0
 16 18  1  6  0  0  0
 16 21  1  0  0  0  0
 17 19  1  6  0  0  0
 17 20  1  0  0  0  0
 20 22  1  6  0  0  0
 20 24  1  0  0  0  0
 23 21  1  6  0  0  0
 23 26  1  0  0  0  0
 23 33  1  0  0  0  0
 24 25  1  6  0  0  0
 24 27  1  0  0  0  0
 26 29  1  1  0  0  0
 26 31  1  0  0  0  0
 27 28  1  0  0  0  0
 29 30  2  0  0  0  0
 31 32  1  0  0  0  0
 33 32  1  1  0  0  0
 34 36  1  0  0  0  0
 34 42  1  0  0  0  0
 36 37  1  6  0  0  0
 36 39  1  0  0  0  0
 40 39  1  1  0  0  0
 40 41  1  0  0  0  0
 40 46  1  0  0  0  0
 41 42  1  1  0  0  0
 41 44  1  0  0  0  0
 42 43  2  0  0  0  0
 44 45  1  0  0  0  0
 46 45  1  6  0  0  0
M  CHG  2   3  -1  35  -1
M  END
>  <CHROM.1>
163.53949707,66.17636393,-8.11338848,1.65808526,16.41309331,-2.27188741,-0.96915357
-2.47392929

>  <Name>
ligand

>  <RI>
416

>  <Rbt.Current_Directory>
/home/itssahil/PROJECTS/Mol_Feturizer/Test_systems_manuscript/rnas/3mum

>  <Rbt.Executable>
rbdock ($Id: //depot/dev/client3/rdock/2013.1/src/exe/rbdock.cxx#4 $)

>  <Rbt.Library>
libRbt.so (2013.1, Build901 2013/11/27)

>  <Rbt.Parameter_File>
/export/apps/rDock/src/rDock_2013.1_src/data/scripts/dock_solv.prm

>  <Rbt.Receptor>
prm/pocket_docking_2.prm

>  <SCORE>
-40.4091

>  <SCORE.INTER>
-40.3915

>  <SCORE.INTER.CONST>
1

>  <SCORE.INTER.POLAR>
0

>  <SCORE.INTER.ROT>
2

>  <SCORE.INTER.SOLV>
39.2918

>  <SCORE.INTER.VDW>
-44.9582

>  <SCORE.INTER.norm>
-0.878075

>  <SCORE.INTRA>
-0.0176576

>  <SCORE.INTRA.DIHEDRAL>
0.00116693

>  <SCORE.INTRA.DIHEDRAL.0>
2.40424

>  <SCORE.INTRA.POLAR>
0

>  <SCORE.INTRA.POLAR.0>
0

>  <SCORE.INTRA.REPUL>
0

>  <SCORE.INTRA.REPUL.0>
0

>  <SCORE.INTRA.SOLV>
0.00109502

>  <SCORE.INTRA.SOLV.lig_0>
-134.169

>  <SCORE.INTRA.VDW>
-0.0187885

>  <SCORE.INTRA.VDW.0>
-2.18386

>  <SCORE.INTRA.norm>
-0.00038386

>  <SCORE.RESTR>
0

>  <SCORE.RESTR.CAVITY>
0

>  <SCORE.RESTR.norm>
0

>  <SCORE.SYSTEM>
0

>  <SCORE.SYSTEM.CONST>
0

>  <SCORE.SYSTEM.DIHEDRAL>
0

>  <SCORE.SYSTEM.SOLV>
0

>  <SCORE.SYSTEM.norm>
0

>  <SCORE.heavy>
46

>  <SCORE.norm>
-0.878459

>  <RMSD>
0.246

$$$$
ligand
 OpenBabel02271912143D
libRbt.so/2013.1/901 2013/11/27
 46 52  0  0  0  0  0  0  0  0999 V2000
   -5.2771    2.5594   18.6775 P   0  0  1  0  0  0  0  0  0  0  0  0
   -9.7662    4.8508   15.6323 P   0  0  2  0  0  0  0  0  0  0  0  0
   -5.4243    0.7946   18.7524 O   0  5  0  0  0  0  0  0  0  0  0  0
   -3.7725    3.1271   19.4478 O   0  0  0  0  0  0  0  0  0  0  0  0
   -5.3222    4.3865   16.7584 C   0  0  0  0  0  0  0  0  0  0  0  0
   -5.3153    3.0079   17.1294 O   0  0  0  0  0  0  0  0  0  0  0  0
   -5.8412    4.5025   15.3379 C   0  0  1  0  0  0  0  0  0  0  0  0
   -5.0835    3.6373   14.4804 O   0  0  0  0  0  0  0  0  0  0  0  0
   -7.2874    4.0592   15.1890 C   0  0  1  0  0  0  0  0  0  0  0  0
   -8.2012    5.1402   15.3609 O   0  0  0  0  0  0  0  0  0  0  0  0
   -7.3321    3.4956   13.7796 C   0  0  1  0  0  0  0  0  0  0  0  0
   -7.6371    4.5344   12.8456 O   0  0  0  0  0  0  0  0  0  0  0  0
   -5.9248    2.9975   13.5079 C   0  0  2  0  0  0  0  0  0  0  0  0
   -9.8179    1.9648   19.9038 C   0  0  1  0  0  0  0  0  0  0  0  0
   -7.4235   -1.8124   11.8311 N   0  0  0  0  0  0  0  0  0  0  0  0
   -7.7662   -0.5889   11.3431 C   0  0  1  0  0  0  0  0  0  0  0  0
   -8.3648    1.6999   19.6291 C   0  0  2  0  0  0  0  0  0  0  0  0
   -8.6054   -0.5353   10.2831 N   0  0  0  0  0  0  0  0  0  0  0  0
   -7.7397    1.5172   20.9006 O   0  0  0  0  0  0  0  0  0  0  0  0
   -7.8710    2.9486   18.9257 C   0  0  2  0  0  0  0  0  0  0  0  0
   -7.3015    0.5783   11.8802 N   0  0  0  0  0  0  0  0  0  0  0  0
   -6.5526    3.2927   19.3290 O   0  0  0  0  0  0  0  0  0  0  0  0
   -6.4564    0.5781   12.9420 C   0  0  2  0  0  0  0  0  0  0  0  0
   -8.8417    4.0375   19.3389 C   0  0  2  0  0  0  0  0  0  0  0  0
  -10.0334    3.3664   19.7451 O   0  0  0  0  0  0  0  0  0  0  0  0
   -6.0561   -0.7204   13.5111 C   0  0  1  0  0  0  0  0  0  0  0  0
   -9.1639    5.0047   18.2053 C   0  0  0  0  0  0  0  0  0  0  0  0
   -9.7865    4.2847   17.1395 O   0  0  0  0  0  0  0  0  0  0  0  0
   -6.5900   -1.9447   12.8882 C   0  0  0  0  0  0  0  0  0  0  0  0
   -6.2565   -3.1686   13.3707 O   0  0  0  0  0  0  0  0  0  0  0  0
   -5.2378   -0.4597   14.5366 N   0  0  0  0  0  0  0  0  0  0  0  0
   -5.1183    0.8972   14.6263 C   0  0  0  0  0  0  0  0  0  0  0  0
   -5.8453    1.5222   13.6764 N   0  0  1  0  0  0  0  0  0  0  0  0
  -10.6201   -2.7388   17.7589 N   0  0  0  0  0  0  0  0  0  0  0  0
  -10.4112    3.6348   14.4981 O   0  5  0  0  0  0  0  0  0  0  0  0
   -9.6616   -2.3335   18.6363 C   0  0  2  0  0  0  0  0  0  0  0  0
   -8.7396   -3.2309   19.0729 N   0  0  0  0  0  0  0  0  0  0  0  0
  -10.7728    6.3105   15.5696 O   0  0  0  0  0  0  0  0  0  0  0  0
   -9.5965   -1.0531   19.0931 N   0  0  0  0  0  0  0  0  0  0  0  0
  -10.4904   -0.1158   18.6998 C   0  0  2  0  0  0  0  0  0  0  0  0
  -11.5470   -0.4924   17.7515 C   0  0  2  0  0  0  0  0  0  0  0  0
  -11.5627   -1.8959   17.2864 C   0  0  0  0  0  0  0  0  0  0  0  0
  -12.4983   -2.3354   16.4090 O   0  0  0  0  0  0  0  0  0  0  0  0
  -12.2772    0.6180   17.5273 N   0  0  0  0  0  0  0  0  0  0  0  0
  -11.7333    1.6231   18.2761 C   0  0  0  0  0  0  0  0  0  0  0  0
  -10.6632    1.1787   18.9734 N   0  0  1  0  0  0  0  0  0  0  0  0
  1  3  1  1  0  0  0
  1  4  2  0  0  0  0
  1  6  1  0  0  0  0
  1 22  1  0  0  0  0
  2 28  1  0  0  0  0
  2 35  1  6  0  0  0
  2 38  2  0  0  0  0
  2 10  1  0  0  0  0
  5  6  1  0  0  0  0
  7  5  1  1  0  0  0
  7  8  1  0  0  0  0
  7  9  1  0  0  0  0
  9 10  1  6  0  0  0
  9 11  1  0  0  0  0
 11 12  1  6  0  0  0
 11 13  1  0  0  0  0
 13  8  1  1  0  0  0
 13 33  1  0  0  0  0
 14 46  1  0  0  0  0
 14 17  1  0  0  0  0
 14 25  1  6  0  0  0
 15 16  1  0  0  0  0
 15 29  1  0  0  0  0
 16 18  1  1  0  0  0
 16 21  1  0  0  0  0
 17 19  1  1  0  0  0
 17 20  1  0  0  0  0
 20 22  1  1  0  0  0
 20 24  1  0  0  0  0
 23 21  1  1  0  0  0
 23 26  1  0  0  0  0
 23 33  1  0  0  0  0
 24 25  1  6  0  0  0
 24 27  1  0  0  0  0
 26 29  1  6  0  0  0
 26 31  1  0  0  0  0
 27 28  1  0  0  0  0
 29 30  2  0  0  0  0
 31 32  1  0  0  0  0
 33 32  1  6  0  0  0
 34 36  1  0  0  0  0
 34 42  1  0  0  0  0
 36 37  1  1  0  0  0
 36 39  1  0  0  0  0
 40 39  1  6  0  0  0
 40 41  1  0  0  0  0
 40 46  1  0  0  0  0
 41 42  1  6  0  0  0
 41 44  1  0  0  0  0
 42 43  2  0  0  0  0
 44 45  1  0  0  0  0
 46 45  1  1  0  0  0
M  CHG  2   3  -1  35  -1
M  END
>  <CHROM.1>
-178.20416263,46.75369496,-8.06743058,1.69111390,16.38944067,-2.24835933
-0.96286070,-2.42025185

>  <Name>
ligand

>  <RI>
416

>  <Rbt.Current_Directory>
/home/itssahil/PROJECTS/Mol_Feturizer/Test_systems_manuscript/rnas/3mum

>  <Rbt.Executable>
rbdock ($Id: //depot/dev/client3/rdock/2013.1/src/exe/rbdock.cxx#4 $)

>  <Rbt.Library>
libRbt.so (2013.1, Build901 2013/11/27)

>  <Rbt.Parameter_File>
/export/apps/rDock/src/rDock_2013.1_src/data/scripts/dock_solv.prm

>  <Rbt.Receptor>
prm/pocket_docking_2.prm

>  <SCORE>
-40.3332

>  <SCORE.INTER>
-40.431

>  <SCORE.INTER.CONST>
1

>  <SCORE.INTER.POLAR>
0

>  <SCORE.INTER.ROT>
2

>  <SCORE.INTER.SOLV>
39.0858

>  <SCORE.INTER.VDW>
-44.9159

>  <SCORE.INTER.norm>
-0.878934

>  <SCORE.INTRA>
0.0977255

>  <SCORE.INTRA.DIHEDRAL>
-0.0220217

>  <SCORE.INTRA.DIHEDRAL.0>
2.40424

>  <SCORE.INTRA.POLAR>
0

>  <SCORE.INTRA.POLAR.0>
0

>  <SCORE.INTRA.REPUL>
0

>  <SCORE.INTRA.REPUL.0>
0

>  <SCORE.INTRA.SOLV>
0.0203973

>  <SCORE.INTRA.SOLV.lig_0>
-134.169

>  <SCORE.INTRA.VDW>
0.0985376

>  <SCORE.INTRA.VDW.0>
-2.18386

>  <SCORE.INTRA.norm>
0.00212447

>  <SCORE.RESTR>
0

>  <SCORE.RESTR.CAVITY>
0

>  <SCORE.RESTR.norm>
0

>  <SCORE.SYSTEM>
0

>  <SCORE.SYSTEM.CONST>
0

>  <SCORE.SYSTEM.DIHEDRAL>
0

>  <SCORE.SYSTEM.SOLV>
0

>  <SCORE.SYSTEM.norm>
0

>  <SCORE.heavy>
46

>  <SCORE.norm>
-0.87681

>  <RMSD>
0.246

$$$$
ligand
 OpenBabel02271912143D
libRbt.so/2013.1/901 2013/11/27
 46 52  0  0  0  0  0  0  0  0999 V2000
   -5.3354    2.6235   18.7069 P   0  0  1  0  0  0  0  0  0  0  0  0
   -9.8129    4.8491   15.5964 P   0  0  2  0  0  0  0  0  0  0  0  0
   -5.4579    0.8567   18.7799 O   0  5  0  0  0  0  0  0  0  0  0  0
   -3.8507    3.2131   19.4989 O   0  0  0  0  0  0  0  0  0  0  0  0
   -5.3794    4.4499   16.7871 C   0  0  0  0  0  0  0  0  0  0  0  0
   -5.3577    3.0714   17.1583 O   0  0  0  0  0  0  0  0  0  0  0  0
   -5.8793    4.5584   15.3592 C   0  0  1  0  0  0  0  0  0  0  0  0
   -5.0967    3.7044   14.5129 O   0  0  0  0  0  0  0  0  0  0  0  0
   -7.3166    4.0939   15.1894 C   0  0  1  0  0  0  0  0  0  0  0  0
   -8.2485    5.1615   15.3478 O   0  0  0  0  0  0  0  0  0  0  0  0
   -7.3325    3.5300   13.7795 C   0  0  1  0  0  0  0  0  0  0  0  0
   -7.6391    4.5642   12.8411 O   0  0  0  0  0  0  0  0  0  0  0  0
   -5.9143    3.0525   13.5284 C   0  0  2  0  0  0  0  0  0  0  0  0
   -9.8845    1.9623   19.8671 C   0  0  1  0  0  0  0  0  0  0  0  0
   -7.3895   -1.7769   11.8873 N   0  0  0  0  0  0  0  0  0  0  0  0
   -7.7542   -0.5583   11.4031 C   0  0  1  0  0  0  0  0  0  0  0  0
   -8.4238    1.7188   19.6136 C   0  0  2  0  0  0  0  0  0  0  0  0
   -8.6125   -0.5160   10.3581 N   0  0  0  0  0  0  0  0  0  0  0  0
   -7.8146    1.5451   20.8941 O   0  0  0  0  0  0  0  0  0  0  0  0
   -7.9382    2.9746   18.9173 C   0  0  2  0  0  0  0  0  0  0  0  0
   -7.2929    0.6150   11.9297 N   0  0  0  0  0  0  0  0  0  0  0  0
   -6.6309    3.3379   19.3397 O   0  0  0  0  0  0  0  0  0  0  0  0
   -6.4292    0.6263   12.9764 C   0  0  2  0  0  0  0  0  0  0  0  0
   -8.9305    4.0491   19.3162 C   0  0  2  0  0  0  0  0  0  0  0  0
  -10.1180    3.3607   19.7051 O   0  0  0  0  0  0  0  0  0  0  0  0
   -6.0047   -0.6666   13.5409 C   0  0  1  0  0  0  0  0  0  0  0  0
   -9.2504    5.0117   18.1780 C   0  0  0  0  0  0  0  0  0  0  0  0
   -9.8468    4.2827   17.1033 O   0  0  0  0  0  0  0  0  0  0  0  0
   -6.5361   -1.8980   12.9297 C   0  0  0  0  0  0  0  0  0  0  0  0
   -6.1807   -3.1172   13.4085 O   0  0  0  0  0  0  0  0  0  0  0  0
   -5.1714   -0.3949   14.5512 N   0  0  0  0  0  0  0  0  0  0  0  0
   -5.0652    0.9634   14.6363 C   0  0  0  0  0  0  0  0  0  0  0  0
   -5.8157    1.5785   13.6982 N   0  0  1  0  0  0  0  0  0  0  0  0
  -10.6712   -2.7837   17.8116 N   0  0  0  0  0  0  0  0  0  0  0  0
  -10.4234    3.6240   14.4532 O   0  5  0  0  0  0  0  0  0  0  0  0
   -9.7414   -2.3688   18.7151 C   0  0  2  0  0  0  0  0  0  0  0  0
   -8.8500   -3.2671   19.2097 N   0  0  0  0  0  0  0  0  0  0  0  0
  -10.8398    6.2940   15.5190 O   0  0  0  0  0  0  0  0  0  0  0  0
   -9.6756   -1.0781   19.1418 N   0  0  0  0  0  0  0  0  0  0  0  0
  -10.5400   -0.1393   18.6906 C   0  0  2  0  0  0  0  0  0  0  0  0
  -11.5646   -0.5259   17.7117 C   0  0  2  0  0  0  0  0  0  0  0  0
  -11.5826   -1.9405   17.2818 C   0  0  0  0  0  0  0  0  0  0  0  0
  -12.4900   -2.3898   16.3800 O   0  0  0  0  0  0  0  0  0  0  0  0
  -12.2695    0.5881   17.4314 N   0  0  0  0  0  0  0  0  0  0  0  0
  -11.7404    1.6047   18.1753 C   0  0  0  0  0  0  0  0  0  0  0  0
  -10.7044    1.1640   18.9246 N   0  0  1  0  0  0  0  0  0  0  0  0
  1  3  1  1  0  0  0
  1  4  2  0  0  0  0
  1  6  1  0  0  0  0
  1 22  1  0  0  0  0
  2 28  1  0  0  0  0
  2 35  1  6  0  0  0
  2 38  2  0  0  0  0
  2 10  1  0  0  0  0
  5  6  1  0  0  0  0
  7  5  1  1  0  0  0
  7  8  1  0  0  0  0
  7  9  1  0  0  0  0
  9 10  1  6  0  0  0
  9 11  1  0  0  0  0
 11 12  1  6  0  0  0
 11 13  1  0  0  0  0
 13  8  1  1  0  0  0
 13 33  1  0  0  0  0
 14 46  1  0  0  0  0
 14 17  1  0  0  0  0
 14 25  1  6  0  0  0
 15 16  1  0  0  0  0
 15 29  1  0  0  0  0
 16 18  1  1  0  0  0
 16 21  1  0  0  0  0
 17 19  1  1  0  0  0
 17 20  1  0  0  0  0
 20 22  1  1  0  0  0
 20 24  1  0  0  0  0
 23 21  1  1  0  0  0
 23 26  1  0  0  0  0
 23 33  1  0  0  0  0
 24 25  1  6  0  0  0
 24 27  1  0  0  0  0
 26 29  1  6  0  0  0
 26 31  1  0  0  0  0
 27 28  1  0  0  0  0
 29 30  2  0  0  0  0
 31 32  1  0  0  0  0
 33 32  1  6  0  0  0
 34 36  1  0  0  0  0
 34 42  1  0  0  0  0
 36 37  1  1  0  0  0
 36 39  1  0  0  0  0
 40 39  1  6  0  0  0
 40 41  1  0  0  0  0
 40 46  1  0  0  0  0
 41 42  1  6  0  0  0
 41 44  1  0  0  0  0
 42 43  2  0  0  0  0
 44 45  1  0  0  0  0
 46 45  1  1  0  0  0
M  CHG  2   3  -1  35  -1
M  END
>  <CHROM.1>
179.93555508,49.34704560,-8.09624332,1.71139634,16.39572241,-2.35371056,-0.96210440
-2.43790659

>  <Name>
ligand

>  <RI>
416

>  <Rbt.Current_Directory>
/home/itssahil/PROJECTS/Mol_Feturizer/Test_systems_manuscript/rnas/3mum

>  <Rbt.Executable>
rbdock ($Id: //depot/dev/client3/rdock/2013.1/src/exe/rbdock.cxx#4 $)

>  <Rbt.Library>
libRbt.so (2013.1, Build901 2013/11/27)

>  <Rbt.Parameter_File>
/export/apps/rDock/src/rDock_2013.1_src/data/scripts/dock_solv.prm

>  <Rbt.Receptor>
prm/pocket_docking_2.prm

>  <SCORE>
-40.1895

>  <SCORE.INTER>
-40.2682

>  <SCORE.INTER.CONST>
1

>  <SCORE.INTER.POLAR>
0

>  <SCORE.INTER.ROT>
2

>  <SCORE.INTER.SOLV>
38.881

>  <SCORE.INTER.VDW>
-44.7392

>  <SCORE.INTER.norm>
-0.875396

>  <SCORE.INTRA>
0.0787283

>  <SCORE.INTRA.DIHEDRAL>
-0.0193921

>  <SCORE.INTRA.DIHEDRAL.0>
2.40424

>  <SCORE.INTRA.POLAR>
0

>  <SCORE.INTRA.POLAR.0>
0

>  <SCORE.INTRA.REPUL>
0

>  <SCORE.INTRA.REPUL.0>
0

>  <SCORE.INTRA.SOLV>
0.0178925

>  <SCORE.INTRA.SOLV.lig_0>
-134.169

>  <SCORE.INTRA.VDW>
0.0794781

>  <SCORE.INTRA.VDW.0>
-2.18386

>  <SCORE.INTRA.norm>
0.00171148

>  <SCORE.RESTR>
0

>  <SCORE.RESTR.CAVITY>
0

>  <SCORE.RESTR.norm>
0

>  <SCORE.SYSTEM>
0

>  <SCORE.SYSTEM.CONST>
0

>  <SCORE.SYSTEM.DIHEDRAL>
0

>  <SCORE.SYSTEM.SOLV>
0

>  <SCORE.SYSTEM.norm>
0

>  <SCORE.heavy>
46

>  <SCORE.norm>
-0.873685

>  <RMSD>
0.246

$$$$
ligand
 OpenBabel02271912143D
libRbt.so/2013.1/901 2013/11/27
 46 52  0  0  0  0  0  0  0  0999 V2000
   -5.2656    2.5175   18.6886 P   0  0  1  0  0  0  0  0  0  0  0  0
   -9.7328    4.8294   15.6267 P   0  0  2  0  0  0  0  0  0  0  0  0
   -5.4127    0.7522   18.7497 O   0  5  0  0  0  0  0  0  0  0  0  0
   -3.7670    3.0801   19.4741 O   0  0  0  0  0  0  0  0  0  0  0  0
   -5.2971    4.3584   16.7823 C   0  0  0  0  0  0  0  0  0  0  0  0
   -5.2925    2.9771   17.1435 O   0  0  0  0  0  0  0  0  0  0  0  0
   -5.8056    4.4844   15.3589 C   0  0  1  0  0  0  0  0  0  0  0  0
   -5.0413    3.6256   14.5008 O   0  0  0  0  0  0  0  0  0  0  0  0
   -7.2505    4.0417   15.1961 C   0  0  1  0  0  0  0  0  0  0  0  0
   -8.1659    5.1212   15.3690 O   0  0  0  0  0  0  0  0  0  0  0  0
   -7.2846    3.4883   13.7824 C   0  0  1  0  0  0  0  0  0  0  0  0
   -7.5830    4.5337   12.8537 O   0  0  0  0  0  0  0  0  0  0  0  0
   -5.8751    2.9926   13.5176 C   0  0  2  0  0  0  0  0  0  0  0  0
   -9.8152    1.9127   19.8769 C   0  0  1  0  0  0  0  0  0  0  0  0
   -7.4158   -1.8037   11.8401 N   0  0  0  0  0  0  0  0  0  0  0  0
   -7.7641   -0.5766   11.3654 C   0  0  1  0  0  0  0  0  0  0  0  0
   -8.3600    1.6503   19.6110 C   0  0  2  0  0  0  0  0  0  0  0  0
   -8.6221   -0.5147   10.3210 N   0  0  0  0  0  0  0  0  0  0  0  0
   -7.7442    1.4586   20.8858 O   0  0  0  0  0  0  0  0  0  0  0  0
   -7.8614    2.9041   18.9203 C   0  0  2  0  0  0  0  0  0  0  0  0
   -7.2869    0.5862   11.9008 N   0  0  0  0  0  0  0  0  0  0  0  0
   -6.5461    3.2457   19.3358 O   0  0  0  0  0  0  0  0  0  0  0  0
   -6.4229    0.5778   12.9472 C   0  0  2  0  0  0  0  0  0  0  0  0
   -8.8355    3.9897   19.3341 C   0  0  2  0  0  0  0  0  0  0  0  0
  -10.0299    3.3154   19.7266 O   0  0  0  0  0  0  0  0  0  0  0  0
   -6.0157   -0.7250   13.5016 C   0  0  1  0  0  0  0  0  0  0  0  0
   -9.1496    4.9650   18.2052 C   0  0  0  0  0  0  0  0  0  0  0  0
   -9.7641    4.2525   17.1296 O   0  0  0  0  0  0  0  0  0  0  0  0
   -6.5639   -1.9443   12.8812 C   0  0  0  0  0  0  0  0  0  0  0  0
   -6.2248   -3.1718   13.3505 O   0  0  0  0  0  0  0  0  0  0  0  0
   -5.1786   -0.4723   14.5137 N   0  0  0  0  0  0  0  0  0  0  0  0
   -5.0540    0.8838   14.6092 C   0  0  0  0  0  0  0  0  0  0  0  0
   -5.7964    1.5161   13.6760 N   0  0  1  0  0  0  0  0  0  0  0  0
  -10.6638   -2.7995   17.7690 N   0  0  0  0  0  0  0  0  0  0  0  0
  -10.3689    3.6214   14.4790 O   0  5  0  0  0  0  0  0  0  0  0  0
   -9.7194   -2.4036   18.6658 C   0  0  2  0  0  0  0  0  0  0  0  0
   -8.8284   -3.3148   19.1368 N   0  0  0  0  0  0  0  0  0  0  0  0
  -10.7395    6.2892   15.5670 O   0  0  0  0  0  0  0  0  0  0  0  0
   -9.6384   -1.1192   19.1086 N   0  0  0  0  0  0  0  0  0  0  0  0
  -10.5015   -0.1682   18.6812 C   0  0  2  0  0  0  0  0  0  0  0  0
  -11.5415   -0.5342   17.7106 C   0  0  2  0  0  0  0  0  0  0  0  0
  -11.5756   -1.9427   17.2623 C   0  0  0  0  0  0  0  0  0  0  0  0
  -12.4979   -2.3733   16.3664 O   0  0  0  0  0  0  0  0  0  0  0  0
  -12.2416    0.5886   17.4543 N   0  0  0  0  0  0  0  0  0  0  0  0
  -11.6954    1.5913   18.2047 C   0  0  0  0  0  0  0  0  0  0  0  0
  -10.6532    1.1331   18.9346 N   0  0  1  0  0  0  0  0  0  0  0  0
  1  3  1  1  0  0  0
  1  4  2  0  0  0  0
  1  6  1  0  0  0  0
  1 22  1  0  0  0  0
  2 28  1  0  0  0  0
  2 35  1  6  0  0  0
  2 38  2  0  0  0  0
  2 10  1  0  0  0  0
  5  6  1  0  0  0  0
  7  5  1  1  0  0  0
  7  8  1  0  0  0  0
  7  9  1  0  0  0  0
  9 10  1  6  0  0  0
  9 11  1  0  0  0  0
 11 12  1  6  0  0  0
 11 13  1  0  0  0  0
 13  8  1  1  0  0  0
 13 33  1  0  0  0  0
 14 46  1  0  0  0  0
 14 17  1  0  0  0  0
 14 25  1  6  0  0  0
 15 16  1  0  0  0  0
 15 29  1  0  0  0  0
 16 18  1  1  0  0  0
 16 21  1  0  0  0  0
 17 19  1  1  0  0  0
 17 20  1  0  0  0  0
 20 22  1  1  0  0  0
 20 24  1  0  0  0  0
 23 21  1  1  0  0  0
 23 26  1  0  0  0  0
 23 33  1  0  0  0  0
 24 25  1  6  0  0  0
 24 27  1  0  0  0  0
 26 29  1  6  0  0  0
 26 31  1  0  0  0  0
 27 28  1  0  0  0  0
 29 30  2  0  0  0  0
 31 32  1  0  0  0  0
 33 32  1  6  0  0  0
 34 36  1  0  0  0  0
 34 42  1  0  0  0  0
 36 37  1  1  0  0  0
 36 39  1  0  0  0  0
 40 39  1  6  0  0  0
 40 41  1  0  0  0  0
 40 46  1  0  0  0  0
 41 42  1  6  0  0  0
 41 44  1  0  0  0  0
 42 43  2  0  0  0  0
 44 45  1  0  0  0  0
 46 45  1  1  0  0  0
M  CHG  2   3  -1  35  -1
M  END
>  <CHROM.1>
-179.66790841,48.72696498,-8.05166509,1.66244420,16.38692449,-2.30778582
-0.95805112,-2.41121861

>  <Name>
ligand

>  <RI>
416

>  <Rbt.Current_Directory>
/home/itssahil/PROJECTS/Mol_Feturizer/Test_systems_manuscript/rnas/3mum

>  <Rbt.Executable>
rbdock ($Id: //depot/dev/client3/rdock/2013.1/src/exe/rbdock.cxx#4 $)

>  <Rbt.Library>
libRbt.so (2013.1, Build901 2013/11/27)

>  <Rbt.Parameter_File>
/export/apps/rDock/src/rDock_2013.1_src/data/scripts/dock_solv.prm

>  <Rbt.Receptor>
prm/pocket_docking_3.prm

>  <SCORE>
-40.3557

>  <SCORE.INTER>
-40.4432

>  <SCORE.INTER.CONST>
1

>  <SCORE.INTER.POLAR>
0

>  <SCORE.INTER.ROT>
2

>  <SCORE.INTER.SOLV>
39.247

>  <SCORE.INTER.VDW>
-44.9778

>  <SCORE.INTER.norm>
-0.8792

>  <SCORE.INTRA>
0.0875109

>  <SCORE.INTRA.DIHEDRAL>
-0.0200574

>  <SCORE.INTRA.DIHEDRAL.0>
2.40424

>  <SCORE.INTRA.POLAR>
0

>  <SCORE.INTRA.POLAR.0>
0

>  <SCORE.INTRA.REPUL>
0

>  <SCORE.INTRA.REPUL.0>
0

>  <SCORE.INTRA.SOLV>
0.0185353

>  <SCORE.INTRA.SOLV.lig_0>
-134.169

>  <SCORE.INTRA.VDW>
0.088272

>  <SCORE.INTRA.VDW.0>
-2.18386

>  <SCORE.INTRA.norm>
0.00190241

>  <SCORE.RESTR>
0

>  <SCORE.RESTR.CAVITY>
0

>  <SCORE.RESTR.norm>
0

>  <SCORE.SYSTEM>
0

>  <SCORE.SYSTEM.CONST>
0

>  <SCORE.SYSTEM.DIHEDRAL>
0

>  <SCORE.SYSTEM.SOLV>
0

>  <SCORE.SYSTEM.norm>
0

>  <SCORE.heavy>
46

>  <SCORE.norm>
-0.877297

>  <RMSD>
0.246

$$$$
ligand
 OpenBabel02271912143D
libRbt.so/2013.1/901 2013/11/27
 46 52  0  0  0  0  0  0  0  0999 V2000
   -5.2710    2.5124   18.7006 P   0  0  1  0  0  0  0  0  0  0  0  0
   -9.7307    4.8468   15.6449 P   0  0  2  0  0  0  0  0  0  0  0  0
   -5.4310    0.7484   18.7683 O   0  5  0  0  0  0  0  0  0  0  0  0
   -3.7657    3.0665   19.4794 O   0  0  0  0  0  0  0  0  0  0  0  0
   -5.2949    4.3469   16.7881 C   0  0  0  0  0  0  0  0  0  0  0  0
   -5.2994    2.9668   17.1540 O   0  0  0  0  0  0  0  0  0  0  0  0
   -5.8070    4.4718   15.3659 C   0  0  1  0  0  0  0  0  0  0  0  0
   -5.0519    3.6044   14.5084 O   0  0  0  0  0  0  0  0  0  0  0  0
   -7.2558    4.0393   15.2092 C   0  0  1  0  0  0  0  0  0  0  0  0
   -8.1625    5.1262   15.3813 O   0  0  0  0  0  0  0  0  0  0  0  0
   -7.2984    3.4813   13.7976 C   0  0  1  0  0  0  0  0  0  0  0  0
   -7.5921    4.5257   12.8661 O   0  0  0  0  0  0  0  0  0  0  0  0
   -5.8935    2.9742   13.5299 C   0  0  2  0  0  0  0  0  0  0  0  0
   -9.8211    1.9455   19.9054 C   0  0  1  0  0  0  0  0  0  0  0  0
   -7.4565   -1.8171   11.8587 N   0  0  0  0  0  0  0  0  0  0  0  0
   -7.7943   -0.5892   11.3785 C   0  0  1  0  0  0  0  0  0  0  0  0
   -8.3687    1.6714   19.6358 C   0  0  2  0  0  0  0  0  0  0  0  0
   -8.6463   -0.5249   10.3294 N   0  0  0  0  0  0  0  0  0  0  0  0
   -7.7503    1.4795   20.9094 O   0  0  0  0  0  0  0  0  0  0  0  0
   -7.8631    2.9191   18.9392 C   0  0  2  0  0  0  0  0  0  0  0  0
   -7.3124    0.5722   11.9129 N   0  0  0  0  0  0  0  0  0  0  0  0
   -6.5440    3.2523   19.3494 O   0  0  0  0  0  0  0  0  0  0  0  0
   -6.4540    0.5613   12.9640 C   0  0  2  0  0  0  0  0  0  0  0  0
   -8.8278    4.0133   19.3524 C   0  0  2  0  0  0  0  0  0  0  0  0
  -10.0259    3.3492   19.7510 O   0  0  0  0  0  0  0  0  0  0  0  0
   -6.0582   -0.7424   13.5244 C   0  0  1  0  0  0  0  0  0  0  0  0
   -9.1383    4.9870   18.2211 C   0  0  0  0  0  0  0  0  0  0  0  0
   -9.7615    4.2753   17.1500 O   0  0  0  0  0  0  0  0  0  0  0  0
   -6.6110   -1.9600   12.9048 C   0  0  0  0  0  0  0  0  0  0  0  0
   -6.2824   -3.1883   13.3796 O   0  0  0  0  0  0  0  0  0  0  0  0
   -5.2248   -0.4921   14.5402 N   0  0  0  0  0  0  0  0  0  0  0  0
   -5.0920    0.8635   14.6322 C   0  0  0  0  0  0  0  0  0  0  0  0
   -5.8252    1.4978   13.6933 N   0  0  1  0  0  0  0  0  0  0  0  0
  -10.7085   -2.7665   17.8131 N   0  0  0  0  0  0  0  0  0  0  0  0
  -10.3795    3.6397   14.5035 O   0  5  0  0  0  0  0  0  0  0  0  0
   -9.7579   -2.3744   18.7051 C   0  0  2  0  0  0  0  0  0  0  0  0
   -8.8709   -3.2901   19.1749 N   0  0  0  0  0  0  0  0  0  0  0  0
  -10.7267    6.3139   15.5834 O   0  0  0  0  0  0  0  0  0  0  0  0
   -9.6669   -1.0894   19.1443 N   0  0  0  0  0  0  0  0  0  0  0  0
  -10.5256   -0.1340   18.7179 C   0  0  2  0  0  0  0  0  0  0  0  0
  -11.5718   -0.4957   17.7524 C   0  0  2  0  0  0  0  0  0  0  0  0
  -11.6168   -1.9052   17.3079 C   0  0  0  0  0  0  0  0  0  0  0  0
  -12.5454   -2.3321   16.4168 O   0  0  0  0  0  0  0  0  0  0  0  0
  -12.2657    0.6308   17.4960 N   0  0  0  0  0  0  0  0  0  0  0  0
  -11.7100    1.6320   18.2416 C   0  0  0  0  0  0  0  0  0  0  0  0
  -10.6679    1.1689   18.9685 N   0  0  1  0  0  0  0  0  0  0  0  0
  1  3  1  1  0  0  0
  1  4  2  0  0  0  0
  1  6  1  0  0  0  0
  1 22  1  0  0  0  0
  2 28  1  0  0  0  0
  2 35  1  6  0  0  0
  2 38  2  0  0  0  0
  2 10  1  0  0  0  0
  5  6  1  0  0  0  0
  7  5  1  1  0  0  0
  7  8  1  0  0  0  0
  7  9  1  0  0  0  0
  9 10  1  6  0  0  0
  9 11  1  0  0  0  0
 11 12  1  6  0  0  0
 11 13  1  0  0  0  0
 13  8  1  1  0  0  0
 13 33  1  0  0  0  0
 14 46  1  0  0  0  0
 14 17  1  0  0  0  0
 14 25  1  6  0  0  0
 15 16  1  0  0  0  0
 15 29  1  0  0  0  0
 16 18  1  1  0  0  0
 16 21  1  0  0  0  0
 17 19  1  1  0  0  0
 17 20  1  0  0  0  0
 20 22  1  1  0  0  0
 20 24  1  0  0  0  0
 23 21  1  1  0  0  0
 23 26  1  0  0  0  0
 23 33  1  0  0  0  0
 24 25  1  6  0  0  0
 24 27  1  0  0  0  0
 26 29  1  6  0  0  0
 26 31  1  0  0  0  0
 27 28  1  0  0  0  0
 29 30  2  0  0  0  0
 31 32  1  0  0  0  0
 33 32  1  6  0  0  0
 34 36  1  0  0  0  0
 34 42  1  0  0  0  0
 36 37  1  1  0  0  0
 36 39  1  0  0  0  0
 40 39  1  6  0  0  0
 40 41  1  0  0  0  0
 40 46  1  0  0  0  0
 41 42  1  6  0  0  0
 41 44  1  0  0  0  0
 42 43  2  0  0  0  0
 44 45  1  0  0  0  0
 46 45  1  1  0  0  0
M  CHG  2   3  -1  35  -1
M  END
>  <CHROM.1>
-179.17806054,48.63733599,-8.06834706,1.67015453,16.40876511,-2.29257441
-0.95570083,-2.40611941

>  <Name>
ligand

>  <RI>
-1

>  <Rbt.Current_Directory>
/home/itssahil/PROJECTS/Mol_Feturizer/Test_systems_manuscript/rnas/3mum

>  <Rbt.Executable>
rbdock ($Id: //depot/dev/client3/rdock/2013.1/src/exe/rbdock.cxx#4 $)

>  <Rbt.Library>
libRbt.so (2013.1, Build901 2013/11/27)

>  <Rbt.Parameter_File>
/export/apps/rDock/src/rDock_2013.1_src/data/scripts/dock_solv.prm

>  <Rbt.Receptor>
prm/pocket_docking_5.prm

>  <SCORE>
-40.3108

>  <SCORE.INTER>
-40.3966

>  <SCORE.INTER.CONST>
1

>  <SCORE.INTER.POLAR>
0

>  <SCORE.INTER.ROT>
2

>  <SCORE.INTER.SOLV>
39.0773

>  <SCORE.INTER.VDW>
-44.8902

>  <SCORE.INTER.norm>
-0.878187

>  <SCORE.INTRA>
0.0858005

>  <SCORE.INTRA.DIHEDRAL>
-0.0200703

>  <SCORE.INTRA.DIHEDRAL.0>
2.40424

>  <SCORE.INTRA.POLAR>
0

>  <SCORE.INTRA.POLAR.0>
0

>  <SCORE.INTRA.REPUL>
0

>  <SCORE.INTRA.REPUL.0>
0

>  <SCORE.INTRA.SOLV>
0.0184826

>  <SCORE.INTRA.SOLV.lig_0>
-134.169

>  <SCORE.INTRA.VDW>
0.0865944

>  <SCORE.INTRA.VDW.0>
-2.18386

>  <SCORE.INTRA.norm>
0.00186523

>  <SCORE.RESTR>
0

>  <SCORE.RESTR.CAVITY>
0

>  <SCORE.RESTR.norm>
0

>  <SCORE.SYSTEM>
0

>  <SCORE.SYSTEM.CONST>
0

>  <SCORE.SYSTEM.DIHEDRAL>
0

>  <SCORE.SYSTEM.SOLV>
0

>  <SCORE.SYSTEM.norm>
0

>  <SCORE.heavy>
46

>  <SCORE.norm>
-0.876322

>  <RMSD>
0.246

$$$$
ligand
 OpenBabel02271912143D
libRbt.so/2013.1/901 2013/11/27
 46 52  0  0  0  0  0  0  0  0999 V2000
   -5.2608    2.5088   18.6572 P   0  0  1  0  0  0  0  0  0  0  0  0
   -9.7657    4.8097   15.6425 P   0  0  2  0  0  0  0  0  0  0  0  0
   -5.3923    0.7418   18.7030 O   0  5  0  0  0  0  0  0  0  0  0  0
   -3.7626    3.0772   19.4392 O   0  0  0  0  0  0  0  0  0  0  0  0
   -5.3193    4.3667   16.7682 C   0  0  0  0  0  0  0  0  0  0  0  0
   -5.3007    2.9822   17.1166 O   0  0  0  0  0  0  0  0  0  0  0  0
   -5.8372    4.5013   15.3489 C   0  0  1  0  0  0  0  0  0  0  0  0
   -5.0706    3.6570   14.4786 O   0  0  0  0  0  0  0  0  0  0  0  0
   -7.2792    4.0476   15.1905 C   0  0  1  0  0  0  0  0  0  0  0  0
   -8.2028    5.1175   15.3785 O   0  0  0  0  0  0  0  0  0  0  0  0
   -7.3167    3.5069   13.7719 C   0  0  1  0  0  0  0  0  0  0  0  0
   -7.6296    4.5580   12.8546 O   0  0  0  0  0  0  0  0  0  0  0  0
   -5.9046    3.0259   13.4944 C   0  0  2  0  0  0  0  0  0  0  0  0
   -9.7980    1.8537   19.8661 C   0  0  1  0  0  0  0  0  0  0  0  0
   -7.6020   -1.7632   11.9528 N   0  0  0  0  0  0  0  0  0  0  0  0
   -7.9931   -0.5341   11.5183 C   0  0  1  0  0  0  0  0  0  0  0  0
   -8.3422    1.6063   19.5895 C   0  0  2  0  0  0  0  0  0  0  0  0
   -8.9467   -0.4677   10.5608 N   0  0  0  0  0  0  0  0  0  0  0  0
   -7.7173    1.4084   20.8589 O   0  0  0  0  0  0  0  0  0  0  0  0
   -7.8585    2.8707   18.9074 C   0  0  2  0  0  0  0  0  0  0  0  0
   -7.4661    0.6265   12.0103 N   0  0  0  0  0  0  0  0  0  0  0  0
   -6.5438    3.2199   19.3185 O   0  0  0  0  0  0  0  0  0  0  0  0
   -6.5062    0.6136   12.9695 C   0  0  2  0  0  0  0  0  0  0  0  0
   -8.8395    3.9439   19.3369 C   0  0  2  0  0  0  0  0  0  0  0  0
  -10.0257    3.2558   19.7300 O   0  0  0  0  0  0  0  0  0  0  0  0
   -6.0489   -0.6916   13.4773 C   0  0  1  0  0  0  0  0  0  0  0  0
   -9.1686    4.9268   18.2188 C   0  0  0  0  0  0  0  0  0  0  0  0
   -9.7832    4.2188   17.1403 O   0  0  0  0  0  0  0  0  0  0  0  0
   -6.6547   -1.9082   12.9073 C   0  0  0  0  0  0  0  0  0  0  0  0
   -6.2733   -3.1377   13.3373 O   0  0  0  0  0  0  0  0  0  0  0  0
   -5.1188   -0.4432   14.4059 N   0  0  0  0  0  0  0  0  0  0  0  0
   -4.9847    0.9124   14.4944 C   0  0  0  0  0  0  0  0  0  0  0  0
   -5.8122    1.5487   13.6388 N   0  0  1  0  0  0  0  0  0  0  0  0
  -10.8431   -2.9091   17.9709 N   0  0  0  0  0  0  0  0  0  0  0  0
  -10.3980    3.6068   14.4875 O   0  5  0  0  0  0  0  0  0  0  0  0
   -9.9232   -2.5225   18.8967 C   0  0  2  0  0  0  0  0  0  0  0  0
   -9.1203   -3.4594   19.4656 N   0  0  0  0  0  0  0  0  0  0  0  0
  -10.7852    6.2612   15.6021 O   0  0  0  0  0  0  0  0  0  0  0  0
   -9.7812   -1.2225   19.2735 N   0  0  0  0  0  0  0  0  0  0  0  0
  -10.5560   -0.2452   18.7476 C   0  0  2  0  0  0  0  0  0  0  0  0
  -11.5653   -0.6002   17.7411 C   0  0  2  0  0  0  0  0  0  0  0  0
  -11.6685   -2.0272   17.3682 C   0  0  0  0  0  0  0  0  0  0  0  0
  -12.5686   -2.4497   16.4463 O   0  0  0  0  0  0  0  0  0  0  0  0
  -12.1754    0.5478   17.3857 N   0  0  0  0  0  0  0  0  0  0  0  0
  -11.6046    1.5556   18.1105 C   0  0  0  0  0  0  0  0  0  0  0  0
  -10.6348    1.0754   18.9215 N   0  0  1  0  0  0  0  0  0  0  0  0
  1  3  1  1  0  0  0
  1  4  2  0  0  0  0
  1  6  1  0  0  0  0
  1 22  1  0  0  0  0
  2 28  1  0  0  0  0
  2 35  1  6  0  0  0
  2 38  2  0  0  0  0
  2 10  1  0  0  0  0
  5  6  1  0  0  0  0
  7  5  1  1  0  0  0
  7  8  1  0  0  0  0
  7  9  1  0  0  0  0
  9 10  1  6  0  0  0
  9 11  1  0  0  0  0
 11 12  1  6  0  0  0
 11 13  1  0  0  0  0
 13  8  1  1  0  0  0
 13 33  1  0  0  0  0
 14 46  1  0  0  0  0
 14 17  1  0  0  0  0
 14 25  1  6  0  0  0
 15 16  1  0  0  0  0
 15 29  1  0  0  0  0
 16 18  1  1  0  0  0
 16 21  1  0  0  0  0
 17 19  1  1  0  0  0
 17 20  1  0  0  0  0
 20 22  1  1  0  0  0
 20 24  1  0  0  0  0
 23 21  1  1  0  0  0
 23 26  1  0  0  0  0
 23 33  1  0  0  0  0
 24 25  1  6  0  0  0
 24 27  1  0  0  0  0
 26 29  1  6  0  0  0
 26 31  1  0  0  0  0
 27 28  1  0  0  0  0
 29 30  2  0  0  0  0
 31 32  1  0  0  0  0
 33 32  1  6  0  0  0
 34 36  1  0  0  0  0
 34 42  1  0  0  0  0
 36 37  1  1  0  0  0
 36 39  1  0  0  0  0
 40 39  1  6  0  0  0
 40 41  1  0  0  0  0
 40 46  1  0  0  0  0
 41 42  1  6  0  0  0
 41 44  1  0  0  0  0
 42 43  2  0  0  0  0
 44 45  1  0  0  0  0
 46 45  1  1  0  0  0
M  CHG  2   3  -1  35  -1
M  END
>  <CHROM.1>
175.15284185,55.31239669,-8.09779285,1.64435042,16.40983601,-2.59350331,-0.96502918
-2.37225725

>  <Name>
ligand

>  <RI>
416

>  <Rbt.Current_Directory>
/home/itssahil/PROJECTS/Mol_Feturizer/Test_systems_manuscript/rnas/3mum

>  <Rbt.Executable>
rbdock ($Id: //depot/dev/client3/rdock/2013.1/src/exe/rbdock.cxx#4 $)

>  <Rbt.Library>
libRbt.so (2013.1, Build901 2013/11/27)

>  <Rbt.Parameter_File>
/export/apps/rDock/src/rDock_2013.1_src/data/scripts/dock_solv.prm

>  <Rbt.Receptor>
prm/pocket_docking_2.prm

>  <SCORE>
-40.0618

>  <SCORE.INTER>
-40.0903

>  <SCORE.INTER.CONST>
1

>  <SCORE.INTER.POLAR>
0

>  <SCORE.INTER.ROT>
2

>  <SCORE.INTER.SOLV>
40.4061

>  <SCORE.INTER.VDW>
-45.1289

>  <SCORE.INTER.norm>
-0.871527

>  <SCORE.INTRA>
0.0284511

>  <SCORE.INTRA.DIHEDRAL>
-0.0124718

>  <SCORE.INTRA.DIHEDRAL.0>
2.40424

>  <SCORE.INTRA.POLAR>
0

>  <SCORE.INTRA.POLAR.0>
0

>  <SCORE.INTRA.REPUL>
0

>  <SCORE.INTRA.REPUL.0>
0

>  <SCORE.INTRA.SOLV>
0.0115923

>  <SCORE.INTRA.SOLV.lig_0>
-134.169

>  <SCORE.INTRA.VDW>
0.0288908

>  <SCORE.INTRA.VDW.0>
-2.18386

>  <SCORE.INTRA.norm>
0.000618501

>  <SCORE.RESTR>
0

>  <SCORE.RESTR.CAVITY>
0

>  <SCORE.RESTR.norm>
0

>  <SCORE.SYSTEM>
0

>  <SCORE.SYSTEM.CONST>
0

>  <SCORE.SYSTEM.DIHEDRAL>
0

>  <SCORE.SYSTEM.SOLV>
0

>  <SCORE.SYSTEM.norm>
0

>  <SCORE.heavy>
46

>  <SCORE.norm>
-0.870909

>  <RMSD>
0.247

$$$$
ligand
 OpenBabel02271912143D
libRbt.so/2013.1/901 2013/11/27
 46 52  0  0  0  0  0  0  0  0999 V2000
   -5.2979    2.5565   18.6756 P   0  0  1  0  0  0  0  0  0  0  0  0
   -9.7949    4.8270   15.6263 P   0  0  2  0  0  0  0  0  0  0  0  0
   -5.4355    0.7908   18.7481 O   0  5  0  0  0  0  0  0  0  0  0  0
   -3.7978    3.1315   19.4491 O   0  0  0  0  0  0  0  0  0  0  0  0
   -5.3501    4.3858   16.7588 C   0  0  0  0  0  0  0  0  0  0  0  0
   -5.3362    3.0068   17.1280 O   0  0  0  0  0  0  0  0  0  0  0  0
   -5.8675    4.5008   15.3376 C   0  0  1  0  0  0  0  0  0  0  0  0
   -5.1038    3.6409   14.4802 O   0  0  0  0  0  0  0  0  0  0  0  0
   -7.3111    4.0497   15.1859 C   0  0  1  0  0  0  0  0  0  0  0  0
   -8.2310    5.1254   15.3577 O   0  0  0  0  0  0  0  0  0  0  0  0
   -7.3504    3.4877   13.7757 C   0  0  1  0  0  0  0  0  0  0  0  0
   -7.6597    4.5260   12.8426 O   0  0  0  0  0  0  0  0  0  0  0  0
   -5.9399    2.9978   13.5056 C   0  0  2  0  0  0  0  0  0  0  0  0
   -9.8374    1.9352   19.8940 C   0  0  1  0  0  0  0  0  0  0  0  0
   -7.4512   -1.8168   11.8538 N   0  0  0  0  0  0  0  0  0  0  0  0
   -7.8064   -0.5945   11.3721 C   0  0  1  0  0  0  0  0  0  0  0  0
   -8.3824    1.6787   19.6212 C   0  0  2  0  0  0  0  0  0  0  0  0
   -8.6641   -0.5434   10.3268 N   0  0  0  0  0  0  0  0  0  0  0  0
   -7.7582    1.4978   20.8935 O   0  0  0  0  0  0  0  0  0  0  0  0
   -7.8944    2.9310   18.9202 C   0  0  2  0  0  0  0  0  0  0  0  0
   -7.3364    0.5742   11.9013 N   0  0  0  0  0  0  0  0  0  0  0  0
   -6.5785    3.2819   19.3260 O   0  0  0  0  0  0  0  0  0  0  0  0
   -6.4731    0.5767   12.9483 C   0  0  2  0  0  0  0  0  0  0  0  0
   -8.8717    4.0140   19.3333 C   0  0  2  0  0  0  0  0  0  0  0  0
  -10.0603    3.3358   19.7367 O   0  0  0  0  0  0  0  0  0  0  0  0
   -6.0585   -0.7206   13.5101 C   0  0  1  0  0  0  0  0  0  0  0  0
   -9.1975    4.9809   18.2005 C   0  0  0  0  0  0  0  0  0  0  0  0
   -9.8145    4.2588   17.1328 O   0  0  0  0  0  0  0  0  0  0  0  0
   -6.5991   -1.9466   12.8962 C   0  0  0  0  0  0  0  0  0  0  0  0
   -6.2530   -3.1694   13.3726 O   0  0  0  0  0  0  0  0  0  0  0  0
   -5.2235   -0.4574   14.5213 N   0  0  0  0  0  0  0  0  0  0  0  0
   -5.1071    0.8999   14.6094 C   0  0  0  0  0  0  0  0  0  0  0  0
   -5.8526    1.5227   13.6723 N   0  0  1  0  0  0  0  0  0  0  0  0
  -10.6319   -2.7786   17.7685 N   0  0  0  0  0  0  0  0  0  0  0  0
  -10.4313    3.6090   14.4895 O   0  5  0  0  0  0  0  0  0  0  0  0
   -9.6795   -2.3703   18.6512 C   0  0  2  0  0  0  0  0  0  0  0  0
   -8.7628   -3.2671   19.1001 N   0  0  0  0  0  0  0  0  0  0  0  0
  -10.8095    6.2812   15.5639 O   0  0  0  0  0  0  0  0  0  0  0  0
   -9.6155   -1.0875   19.1015 N   0  0  0  0  0  0  0  0  0  0  0  0
  -10.5044   -0.1507   18.6961 C   0  0  2  0  0  0  0  0  0  0  0  0
  -11.5542   -0.5305   17.7415 C   0  0  2  0  0  0  0  0  0  0  0  0
  -11.5690   -1.9364   17.2840 C   0  0  0  0  0  0  0  0  0  0  0  0
  -12.4985   -2.3789   16.4016 O   0  0  0  0  0  0  0  0  0  0  0  0
  -12.2804    0.5801   17.5054 N   0  0  0  0  0  0  0  0  0  0  0  0
  -11.7404    1.5883   18.2531 C   0  0  0  0  0  0  0  0  0  0  0  0
  -10.6767    1.1456   18.9612 N   0  0  1  0  0  0  0  0  0  0  0  0
  1  3  1  1  0  0  0
  1  4  2  0  0  0  0
  1  6  1  0  0  0  0
  1 22  1  0  0  0  0
  2 28  1  0  0  0  0
  2 35  1  6  0  0  0
  2 38  2  0  0  0  0
  2 10  1  0  0  0  0
  5  6  1  0  0  0  0
  7  5  1  1  0  0  0
  7  8  1  0  0  0  0
  7  9  1  0  0  0  0
  9 10  1  6  0  0  0
  9 11  1  0  0  0  0
 11 12  1  6  0  0  0
 11 13  1  0  0  0  0
 13  8  1  1  0  0  0
 13 33  1  0  0  0  0
 14 46  1  0  0  0  0
 14 17  1  0  0  0  0
 14 25  1  6  0  0  0
 15 16  1  0  0  0  0
 15 29  1  0  0  0  0
 16 18  1  1  0  0  0
 16 21  1  0  0  0  0
 17 19  1  1  0  0  0
 17 20  1  0  0  0  0
 20 22  1  1  0  0  0
 20 24  1  0  0  0  0
 23 21  1  1  0  0  0
 23 26  1  0  0  0  0
 23 33  1  0  0  0  0
 24 25  1  6  0  0  0
 24 27  1  0  0  0  0
 26 29  1  6  0  0  0
 26 31  1  0  0  0  0
 27 28  1  0  0  0  0
 29 30  2  0  0  0  0
 31 32  1  0  0  0  0
 33 32  1  6  0  0  0
 34 36  1  0  0  0  0
 34 42  1  0  0  0  0
 36 37  1  1  0  0  0
 36 39  1  0  0  0  0
 40 39  1  6  0  0  0
 40 41  1  0  0  0  0
 40 46  1  0  0  0  0
 41 42  1  6  0  0  0
 41 44  1  0  0  0  0
 42 43  2  0  0  0  0
 44 45  1  0  0  0  0
 46 45  1  1  0  0  0
M  CHG  2   3  -1  35  -1
M  END
>  <CHROM.1>
-179.29584014,47.43669352,-8.08672812,1.67498430,16.38860149,-2.27091824
-0.96524111,-2.42060227

>  <Name>
ligand

>  <RI>
-1

>  <Rbt.Current_Directory>
/home/itssahil/PROJECTS/Mol_Feturizer/Test_systems_manuscript/rnas/3mum

>  <Rbt.Executable>
rbdock ($Id: //depot/dev/client3/rdock/2013.1/src/exe/rbdock.cxx#4 $)

>  <Rbt.Library>
libRbt.so (2013.1, Build901 2013/11/27)

>  <Rbt.Parameter_File>
/export/apps/rDock/src/rDock_2013.1_src/data/scripts/dock_solv.prm

>  <Rbt.Receptor>
prm/pocket_docking_6.prm

>  <SCORE>
-40.3142

>  <SCORE.INTER>
-40.4063

>  <SCORE.INTER.CONST>
1

>  <SCORE.INTER.POLAR>
0

>  <SCORE.INTER.ROT>
2

>  <SCORE.INTER.SOLV>
39.2546

>  <SCORE.INTER.VDW>
-44.9557

>  <SCORE.INTER.norm>
-0.878397

>  <SCORE.INTRA>
0.0920385

>  <SCORE.INTRA.DIHEDRAL>
-0.0214729

>  <SCORE.INTRA.DIHEDRAL.0>
2.40424

>  <SCORE.INTRA.POLAR>
0

>  <SCORE.INTRA.POLAR.0>
0

>  <SCORE.INTRA.REPUL>
0

>  <SCORE.INTRA.REPUL.0>
0

>  <SCORE.INTRA.SOLV>
0.0199672

>  <SCORE.INTRA.SOLV.lig_0>
-134.169

>  <SCORE.INTRA.VDW>
0.0927913

>  <SCORE.INTRA.VDW.0>
-2.18386

>  <SCORE.INTRA.norm>
0.00200084

>  <SCORE.RESTR>
0

>  <SCORE.RESTR.CAVITY>
0

>  <SCORE.RESTR.norm>
0

>  <SCORE.SYSTEM>
0

>  <SCORE.SYSTEM.CONST>
0

>  <SCORE.SYSTEM.DIHEDRAL>
0

>  <SCORE.SYSTEM.SOLV>
0

>  <SCORE.SYSTEM.norm>
0

>  <SCORE.heavy>
46

>  <SCORE.norm>
-0.876396

>  <RMSD>
0.247

$$$$
ligand
 OpenBabel02271912143D
libRbt.so/2013.1/901 2013/11/27
 46 52  0  0  0  0  0  0  0  0999 V2000
   -5.2689    2.5119   18.7060 P   0  0  1  0  0  0  0  0  0  0  0  0
   -9.7135    4.8166   15.6061 P   0  0  2  0  0  0  0  0  0  0  0  0
   -5.4192    0.7471   18.7743 O   0  5  0  0  0  0  0  0  0  0  0  0
   -3.7742    3.0757   19.4981 O   0  0  0  0  0  0  0  0  0  0  0  0
   -5.2857    4.3440   16.7912 C   0  0  0  0  0  0  0  0  0  0  0  0
   -5.2855    2.9644   17.1587 O   0  0  0  0  0  0  0  0  0  0  0  0
   -5.7853    4.4643   15.3641 C   0  0  1  0  0  0  0  0  0  0  0  0
   -5.0171    3.6004   14.5147 O   0  0  0  0  0  0  0  0  0  0  0  0
   -7.2299    4.0231   15.1945 C   0  0  1  0  0  0  0  0  0  0  0  0
   -8.1446    5.1049   15.3567 O   0  0  0  0  0  0  0  0  0  0  0  0
   -7.2561    3.4633   13.7831 C   0  0  1  0  0  0  0  0  0  0  0  0
   -7.5472    4.5049   12.8478 O   0  0  0  0  0  0  0  0  0  0  0  0
   -5.8458    2.9642   13.5292 C   0  0  2  0  0  0  0  0  0  0  0  0
   -9.8266    1.9197   19.8691 C   0  0  1  0  0  0  0  0  0  0  0  0
   -7.4054   -1.8365   11.8818 N   0  0  0  0  0  0  0  0  0  0  0  0
   -7.7521   -0.6109   11.4021 C   0  0  1  0  0  0  0  0  0  0  0  0
   -8.3702    1.6537   19.6133 C   0  0  2  0  0  0  0  0  0  0  0  0
   -8.6137   -0.5521   10.3606 N   0  0  0  0  0  0  0  0  0  0  0  0
   -7.7626    1.4670   20.8928 O   0  0  0  0  0  0  0  0  0  0  0  0
   -7.8655    2.9036   18.9200 C   0  0  2  0  0  0  0  0  0  0  0  0
   -7.2699    0.5534   11.9299 N   0  0  0  0  0  0  0  0  0  0  0  0
   -6.5522    3.2450   19.3420 O   0  0  0  0  0  0  0  0  0  0  0  0
   -6.4021    0.5480   12.9732 C   0  0  2  0  0  0  0  0  0  0  0  0
   -8.8403    3.9926   19.3228 C   0  0  2  0  0  0  0  0  0  0  0  0
  -10.0382    3.3220   19.7110 O   0  0  0  0  0  0  0  0  0  0  0  0
   -5.9964   -0.7530   13.5327 C   0  0  1  0  0  0  0  0  0  0  0  0
   -9.1460    4.9632   18.1875 C   0  0  0  0  0  0  0  0  0  0  0  0
   -9.7550    4.2467   17.1115 O   0  0  0  0  0  0  0  0  0  0  0  0
   -6.5500   -1.9740   12.9205 C   0  0  0  0  0  0  0  0  0  0  0  0
   -6.2124   -3.2001   13.3949 O   0  0  0  0  0  0  0  0  0  0  0  0
   -5.1549   -0.4974   14.5405 N   0  0  0  0  0  0  0  0  0  0  0  0
   -5.0264    0.8588   14.6286 C   0  0  0  0  0  0  0  0  0  0  0  0
   -5.7704    1.4883   13.6949 N   0  0  1  0  0  0  0  0  0  0  0  0
  -10.6818   -2.8048   17.7915 N   0  0  0  0  0  0  0  0  0  0  0  0
  -10.3445    3.6044   14.4602 O   0  5  0  0  0  0  0  0  0  0  0  0
   -9.7437   -2.4068   18.6940 C   0  0  2  0  0  0  0  0  0  0  0  0
   -8.8623   -3.3191   19.1808 N   0  0  0  0  0  0  0  0  0  0  0  0
  -10.7175    6.2778   15.5336 O   0  0  0  0  0  0  0  0  0  0  0  0
   -9.6596   -1.1194   19.1271 N   0  0  0  0  0  0  0  0  0  0  0  0
  -10.5133   -0.1671   18.6838 C   0  0  2  0  0  0  0  0  0  0  0  0
  -11.5462   -0.5352   17.7064 C   0  0  2  0  0  0  0  0  0  0  0  0
  -11.5840   -1.9471   17.2693 C   0  0  0  0  0  0  0  0  0  0  0  0
  -12.5001   -2.3799   16.3682 O   0  0  0  0  0  0  0  0  0  0  0  0
  -12.2375    0.5893   17.4344 N   0  0  0  0  0  0  0  0  0  0  0  0
  -11.6928    1.5951   18.1818 C   0  0  0  0  0  0  0  0  0  0  0  0
  -10.6601    1.1370   18.9252 N   0  0  1  0  0  0  0  0  0  0  0  0
  1  3  1  1  0  0  0
  1  4  2  0  0  0  0
  1  6  1  0  0  0  0
  1 22  1  0  0  0  0
  2 28  1  0  0  0  0
  2 35  1  6  0  0  0
  2 38  2  0  0  0  0
  2 10  1  0  0  0  0
  5  6  1  0  0  0  0
  7  5  1  1  0  0  0
  7  8  1  0  0  0  0
  7  9  1  0  0  0  0
  9 10  1  6  0  0  0
  9 11  1  0  0  0  0
 11 12  1  6  0  0  0
 11 13  1  0  0  0  0
 13  8  1  1  0  0  0
 13 33  1  0  0  0  0
 14 46  1  0  0  0  0
 14 17  1  0  0  0  0
 14 25  1  6  0  0  0
 15 16  1  0  0  0  0
 15 29  1  0  0  0  0
 16 18  1  1  0  0  0
 16 21  1  0  0  0  0
 17 19  1  1  0  0  0
 17 20  1  0  0  0  0
 20 22  1  1  0  0  0
 20 24  1  0  0  0  0
 23 21  1  1  0  0  0
 23 26  1  0  0  0  0
 23 33  1  0  0  0  0
 24 25  1  6  0  0  0
 24 27  1  0  0  0  0
 26 29  1  6  0  0  0
 26 31  1  0  0  0  0
 27 28  1  0  0  0  0
 29 30  2  0  0  0  0
 31 32  1  0  0  0  0
 33 32  1  6  0  0  0
 34 36  1  0  0  0  0
 34 42  1  0  0  0  0
 36 37  1  1  0  0  0
 36 39  1  0  0  0  0
 40 39  1  6  0  0  0
 40 41  1  0  0  0  0
 40 46  1  0  0  0  0
 41 42  1  6  0  0  0
 41 44  1  0  0  0  0
 42 43  2  0  0  0  0
 44 45  1  0  0  0  0
 46 45  1  1  0  0  0
M  CHG  2   3  -1  35  -1
M  END
>  <CHROM.1>
179.76777550,49.08750818,-8.04574430,1.65028052,16.39462178,-2.32365821,-0.95226433
-2.41693835

>  <Name>
ligand

>  <RI>
416

>  <Rbt.Current_Directory>
/home/itssahil/PROJECTS/Mol_Feturizer/Test_systems_manuscript/rnas/3mum

>  <Rbt.Executable>
rbdock ($Id: //depot/dev/client3/rdock/2013.1/src/exe/rbdock.cxx#4 $)

>  <Rbt.Library>
libRbt.so (2013.1, Build901 2013/11/27)

>  <Rbt.Parameter_File>
/export/apps/rDock/src/rDock_2013.1_src/data/scripts/dock_solv.prm

>  <Rbt.Receptor>
prm/pocket_docking_2.prm

>  <SCORE>
-40.3061

>  <SCORE.INTER>
-40.3908

>  <SCORE.INTER.CONST>
1

>  <SCORE.INTER.POLAR>
0

>  <SCORE.INTER.ROT>
2

>  <SCORE.INTER.SOLV>
39.1068

>  <SCORE.INTER.VDW>
-44.8961

>  <SCORE.INTER.norm>
-0.87806

>  <SCORE.INTRA>
0.0846964

>  <SCORE.INTRA.DIHEDRAL>
-0.0197357

>  <SCORE.INTRA.DIHEDRAL.0>
2.40424

>  <SCORE.INTRA.POLAR>
0

>  <SCORE.INTRA.POLAR.0>
0

>  <SCORE.INTRA.REPUL>
0

>  <SCORE.INTRA.REPUL.0>
0

>  <SCORE.INTRA.SOLV>
0.0182757

>  <SCORE.INTRA.SOLV.lig_0>
-134.169

>  <SCORE.INTRA.VDW>
0.0854264

>  <SCORE.INTRA.VDW.0>
-2.18386

>  <SCORE.INTRA.norm>
0.00184123

>  <SCORE.RESTR>
0

>  <SCORE.RESTR.CAVITY>
0

>  <SCORE.RESTR.norm>
0

>  <SCORE.SYSTEM>
0

>  <SCORE.SYSTEM.CONST>
0

>  <SCORE.SYSTEM.DIHEDRAL>
0

>  <SCORE.SYSTEM.SOLV>
0

>  <SCORE.SYSTEM.norm>
0

>  <SCORE.heavy>
46

>  <SCORE.norm>
-0.876219

>  <RMSD>
0.248

$$$$
ligand
 OpenBabel02271912143D
libRbt.so/2013.1/901 2013/11/27
 46 52  0  0  0  0  0  0  0  0999 V2000
   -5.2982    2.5622   18.6722 P   0  0  1  0  0  0  0  0  0  0  0  0
   -9.7873    4.8326   15.6112 P   0  0  2  0  0  0  0  0  0  0  0  0
   -5.4400    0.7972   18.7508 O   0  5  0  0  0  0  0  0  0  0  0  0
   -3.7973    3.1364   19.4448 O   0  0  0  0  0  0  0  0  0  0  0  0
   -5.3445    4.3849   16.7489 C   0  0  0  0  0  0  0  0  0  0  0  0
   -5.3341    3.0071   17.1230 O   0  0  0  0  0  0  0  0  0  0  0  0
   -5.8605    4.4961   15.3269 C   0  0  1  0  0  0  0  0  0  0  0  0
   -5.0981    3.6313   14.4732 O   0  0  0  0  0  0  0  0  0  0  0  0
   -7.3050    4.0478   15.1756 C   0  0  1  0  0  0  0  0  0  0  0  0
   -8.2225    5.1264   15.3429 O   0  0  0  0  0  0  0  0  0  0  0  0
   -7.3445    3.4810   13.7674 C   0  0  1  0  0  0  0  0  0  0  0  0
   -7.6506    4.5167   12.8303 O   0  0  0  0  0  0  0  0  0  0  0  0
   -5.9350    2.9867   13.5001 C   0  0  2  0  0  0  0  0  0  0  0  0
   -9.8400    1.9561   19.8891 C   0  0  1  0  0  0  0  0  0  0  0  0
   -7.4594   -1.8300   11.8666 N   0  0  0  0  0  0  0  0  0  0  0  0
   -7.8118   -0.6085   11.3806 C   0  0  1  0  0  0  0  0  0  0  0  0
   -8.3854    1.6952   19.6184 C   0  0  2  0  0  0  0  0  0  0  0  0
   -8.6698   -0.5590   10.3356 N   0  0  0  0  0  0  0  0  0  0  0  0
   -7.7628    1.5173   20.8919 O   0  0  0  0  0  0  0  0  0  0  0  0
   -7.8939    2.9438   18.9134 C   0  0  2  0  0  0  0  0  0  0  0  0
   -7.3386    0.5609   11.9054 N   0  0  0  0  0  0  0  0  0  0  0  0
   -6.5775    3.2929   19.3190 O   0  0  0  0  0  0  0  0  0  0  0  0
   -6.4746    0.5650   12.9519 C   0  0  2  0  0  0  0  0  0  0  0  0
   -8.8690    4.0305   19.3219 C   0  0  2  0  0  0  0  0  0  0  0  0
  -10.0595    3.3567   19.7267 O   0  0  0  0  0  0  0  0  0  0  0  0
   -6.0631   -0.7313   13.5182 C   0  0  1  0  0  0  0  0  0  0  0  0
   -9.1915    4.9942   18.1854 C   0  0  0  0  0  0  0  0  0  0  0  0
   -9.8094    4.2699   17.1197 O   0  0  0  0  0  0  0  0  0  0  0  0
   -6.6071   -1.9581   12.9090 C   0  0  0  0  0  0  0  0  0  0  0  0
   -6.2639   -3.1801   13.3896 O   0  0  0  0  0  0  0  0  0  0  0  0
   -5.2269   -0.4665   14.5280 N   0  0  0  0  0  0  0  0  0  0  0  0
   -5.1070    0.8908   14.6110 C   0  0  0  0  0  0  0  0  0  0  0  0
   -5.8513    1.5120   13.6721 N   0  0  1  0  0  0  0  0  0  0  0  0
  -10.6339   -2.7594   17.7672 N   0  0  0  0  0  0  0  0  0  0  0  0
  -10.4257    3.6121   14.4783 O   0  5  0  0  0  0  0  0  0  0  0  0
   -9.6801   -2.3497   18.6477 C   0  0  2  0  0  0  0  0  0  0  0  0
   -8.7615   -3.2453   19.0949 N   0  0  0  0  0  0  0  0  0  0  0  0
  -10.7983    6.2890   15.5429 O   0  0  0  0  0  0  0  0  0  0  0  0
   -9.6166   -1.0667   19.0974 N   0  0  0  0  0  0  0  0  0  0  0  0
  -10.5074   -0.1310   18.6935 C   0  0  2  0  0  0  0  0  0  0  0  0
  -11.5589   -0.5123   17.7413 C   0  0  2  0  0  0  0  0  0  0  0  0
  -11.5731   -1.9184   17.2844 C   0  0  0  0  0  0  0  0  0  0  0  0
  -12.5040   -2.3623   16.4042 O   0  0  0  0  0  0  0  0  0  0  0  0
  -12.2868    0.5974   17.5064 N   0  0  0  0  0  0  0  0  0  0  0  0
  -11.7463    1.6065   18.2525 C   0  0  0  0  0  0  0  0  0  0  0  0
  -10.6806    1.1652   18.9585 N   0  0  1  0  0  0  0  0  0  0  0  0
  1  3  1  1  0  0  0
  1  4  2  0  0  0  0
  1  6  1  0  0  0  0
  1 22  1  0  0  0  0
  2 28  1  0  0  0  0
  2 35  1  6  0  0  0
  2 38  2  0  0  0  0
  2 10  1  0  0  0  0
  5  6  1  0  0  0  0
  7  5  1  1  0  0  0
  7  8  1  0  0  0  0
  7  9  1  0  0  0  0
  9 10  1  6  0  0  0
  9 11  1  0  0  0  0
 11 12  1  6  0  0  0
 11 13  1  0  0  0  0
 13  8  1  1  0  0  0
 13 33  1  0  0  0  0
 14 46  1  0  0  0  0
 14 17  1  0  0  0  0
 14 25  1  6  0  0  0
 15 16  1  0  0  0  0
 15 29  1  0  0  0  0
 16 18  1  1  0  0  0
 16 21  1  0  0  0  0
 17 19  1  1  0  0  0
 17 20  1  0  0  0  0
 20 22  1  1  0  0  0
 20 24  1  0  0  0  0
 23 21  1  1  0  0  0
 23 26  1  0  0  0  0
 23 33  1  0  0  0  0
 24 25  1  6  0  0  0
 24 27  1  0  0  0  0
 26 29  1  6  0  0  0
 26 31  1  0  0  0  0
 27 28  1  0  0  0  0
 29 30  2  0  0  0  0
 31 32  1  0  0  0  0
 33 32  1  6  0  0  0
 34 36  1  0  0  0  0
 34 42  1  0  0  0  0
 36 37  1  1  0  0  0
 36 39  1  0  0  0  0
 40 39  1  6  0  0  0
 40 41  1  0  0  0  0
 40 46  1  0  0  0  0
 41 42  1  6  0  0  0
 41 44  1  0  0  0  0
 42 43  2  0  0  0  0
 44 45  1  0  0  0  0
 46 45  1  1  0  0  0
M  CHG  2   3  -1  35  -1
M  END
>  <CHROM.1>
-179.37240269,47.11807593,-8.08646356,1.67970223,16.38497409,-2.25934605
-0.96276936,-2.42236230

>  <Name>
ligand

>  <RI>
416

>  <Rbt.Current_Directory>
/home/itssahil/PROJECTS/Mol_Feturizer/Test_systems_manuscript/rnas/3mum

>  <Rbt.Executable>
rbdock ($Id: //depot/dev/client3/rdock/2013.1/src/exe/rbdock.cxx#4 $)

>  <Rbt.Library>
libRbt.so (2013.1, Build901 2013/11/27)

>  <Rbt.Parameter_File>
/export/apps/rDock/src/rDock_2013.1_src/data/scripts/dock_solv.prm

>  <Rbt.Receptor>
prm/pocket_docking_3.prm

>  <SCORE>
-40.3262

>  <SCORE.INTER>
-40.4249

>  <SCORE.INTER.CONST>
1

>  <SCORE.INTER.POLAR>
0

>  <SCORE.INTER.ROT>
2

>  <SCORE.INTER.SOLV>
39.1573

>  <SCORE.INTER.VDW>
-44.9357

>  <SCORE.INTER.norm>
-0.878803

>  <SCORE.INTRA>
0.0987038

>  <SCORE.INTRA.DIHEDRAL>
-0.0218424

>  <SCORE.INTRA.DIHEDRAL.0>
2.40424

>  <SCORE.INTRA.POLAR>
0

>  <SCORE.INTRA.POLAR.0>
0

>  <SCORE.INTRA.REPUL>
0

>  <SCORE.INTRA.REPUL.0>
0

>  <SCORE.INTRA.SOLV>
0.0203648

>  <SCORE.INTRA.SOLV.lig_0>
-134.169

>  <SCORE.INTRA.VDW>
0.0994426

>  <SCORE.INTRA.VDW.0>
-2.18386

>  <SCORE.INTRA.norm>
0.00214574

>  <SCORE.RESTR>
0

>  <SCORE.RESTR.CAVITY>
0

>  <SCORE.RESTR.norm>
0

>  <SCORE.SYSTEM>
0

>  <SCORE.SYSTEM.CONST>
0

>  <SCORE.SYSTEM.DIHEDRAL>
0

>  <SCORE.SYSTEM.SOLV>
0

>  <SCORE.SYSTEM.norm>
0

>  <SCORE.heavy>
46

>  <SCORE.norm>
-0.876657

>  <RMSD>
0.248

$$$$
ligand
 OpenBabel02271912143D
libRbt.so/2013.1/901 2013/11/27
 46 52  0  0  0  0  0  0  0  0999 V2000
   -5.2243    2.4714   18.6281 P   0  0  1  0  0  0  0  0  0  0  0  0
   -9.7002    4.8316   15.6161 P   0  0  2  0  0  0  0  0  0  0  0  0
   -5.3968    0.7089   18.7022 O   0  5  0  0  0  0  0  0  0  0  0  0
   -3.7064    3.0162   19.3886 O   0  0  0  0  0  0  0  0  0  0  0  0
   -5.2558    4.3011   16.7111 C   0  0  0  0  0  0  0  0  0  0  0  0
   -5.2666    2.9221   17.0807 O   0  0  0  0  0  0  0  0  0  0  0  0
   -5.7828    4.4263   15.2943 C   0  0  1  0  0  0  0  0  0  0  0  0
   -5.0439    3.5510   14.4308 O   0  0  0  0  0  0  0  0  0  0  0  0
   -7.2364    4.0043   15.1550 C   0  0  1  0  0  0  0  0  0  0  0  0
   -8.1330    5.0984   15.3342 O   0  0  0  0  0  0  0  0  0  0  0  0
   -7.2990    3.4431   13.7454 C   0  0  1  0  0  0  0  0  0  0  0  0
   -7.5952    4.4872   12.8145 O   0  0  0  0  0  0  0  0  0  0  0  0
   -5.9010    2.9247   13.4635 C   0  0  2  0  0  0  0  0  0  0  0  0
   -9.7649    1.9420   19.8850 C   0  0  1  0  0  0  0  0  0  0  0  0
   -7.4813   -1.8609   11.7920 N   0  0  0  0  0  0  0  0  0  0  0  0
   -7.8093   -0.6320   11.3076 C   0  0  1  0  0  0  0  0  0  0  0  0
   -8.3177    1.6562   19.6000 C   0  0  2  0  0  0  0  0  0  0  0  0
   -8.6548   -0.5649   10.2534 N   0  0  0  0  0  0  0  0  0  0  0  0
   -7.6866    1.4629   20.8670 O   0  0  0  0  0  0  0  0  0  0  0  0
   -7.8106    2.8983   18.8945 C   0  0  2  0  0  0  0  0  0  0  0  0
   -7.3240    0.5276   11.8427 N   0  0  0  0  0  0  0  0  0  0  0  0
   -6.4844    3.2226   19.2890 O   0  0  0  0  0  0  0  0  0  0  0  0
   -6.4718    0.5139   12.8987 C   0  0  2  0  0  0  0  0  0  0  0  0
   -8.7623    4.0007   19.3155 C   0  0  2  0  0  0  0  0  0  0  0  0
   -9.9608    3.3468   19.7291 O   0  0  0  0  0  0  0  0  0  0  0  0
   -6.0867   -0.7909   13.4638 C   0  0  1  0  0  0  0  0  0  0  0  0
   -9.0781    4.9739   18.1851 C   0  0  0  0  0  0  0  0  0  0  0  0
   -9.7185    4.2642   17.1229 O   0  0  0  0  0  0  0  0  0  0  0  0
   -6.6427   -2.0066   12.8433 C   0  0  0  0  0  0  0  0  0  0  0  0
   -6.3238   -3.2358   13.3223 O   0  0  0  0  0  0  0  0  0  0  0  0
   -5.2578   -0.5434   14.4840 N   0  0  0  0  0  0  0  0  0  0  0  0
   -5.1179    0.8116   14.5743 C   0  0  0  0  0  0  0  0  0  0  0  0
   -5.8420    1.4482   13.6299 N   0  0  1  0  0  0  0  0  0  0  0  0
  -10.7014   -2.7654   17.8036 N   0  0  0  0  0  0  0  0  0  0  0  0
  -10.3707    3.6265   14.4852 O   0  5  0  0  0  0  0  0  0  0  0  0
   -9.7369   -2.3777   18.6825 C   0  0  2  0  0  0  0  0  0  0  0  0
   -8.8475   -3.2974   19.1397 N   0  0  0  0  0  0  0  0  0  0  0  0
  -10.6858    6.3060   15.5618 O   0  0  0  0  0  0  0  0  0  0  0  0
   -9.6343   -1.0933   19.1208 N   0  0  0  0  0  0  0  0  0  0  0  0
  -10.4947   -0.1340   18.7066 C   0  0  2  0  0  0  0  0  0  0  0  0
  -11.5557   -0.4909   17.7556 C   0  0  2  0  0  0  0  0  0  0  0  0
  -11.6129   -1.8999   17.3113 C   0  0  0  0  0  0  0  0  0  0  0  0
  -12.5555   -2.3225   16.4330 O   0  0  0  0  0  0  0  0  0  0  0  0
  -12.2482    0.6388   17.5092 N   0  0  0  0  0  0  0  0  0  0  0  0
  -11.6780    1.6372   18.2474 C   0  0  0  0  0  0  0  0  0  0  0  0
  -10.6279    1.1693   18.9596 N   0  0  1  0  0  0  0  0  0  0  0  0
  1  3  1  1  0  0  0
  1  4  2  0  0  0  0
  1  6  1  0  0  0  0
  1 22  1  0  0  0  0
  2 28  1  0  0  0  0
  2 35  1  6  0  0  0
  2 38  2  0  0  0  0
  2 10  1  0  0  0  0
  5  6  1  0  0  0  0
  7  5  1  1  0  0  0
  7  8  1  0  0  0  0
  7  9  1  0  0  0  0
  9 10  1  6  0  0  0
  9 11  1  0  0  0  0
 11 12  1  6  0  0  0
 11 13  1  0  0  0  0
 13  8  1  1  0  0  0
 13 33  1  0  0  0  0
 14 46  1  0  0  0  0
 14 17  1  0  0  0  0
 14 25  1  6  0  0  0
 15 16  1  0  0  0  0
 15 29  1  0  0  0  0
 16 18  1  1  0  0  0
 16 21  1  0  0  0  0
 17 19  1  1  0  0  0
 17 20  1  0  0  0  0
 20 22  1  1  0  0  0
 20 24  1  0  0  0  0
 23 21  1  1  0  0  0
 23 26  1  0  0  0  0
 23 33  1  0  0  0  0
 24 25  1  6  0  0  0
 24 27  1  0  0  0  0
 26 29  1  6  0  0  0
 26 31  1  0  0  0  0
 27 28  1  0  0  0  0
 29 30  2  0  0  0  0
 31 32  1  0  0  0  0
 33 32  1  6  0  0  0
 34 36  1  0  0  0  0
 34 42  1  0  0  0  0
 36 37  1  1  0  0  0
 36 39  1  0  0  0  0
 40 39  1  6  0  0  0
 40 41  1  0  0  0  0
 40 46  1  0  0  0  0
 41 42  1  6  0  0  0
 41 44  1  0  0  0  0
 42 43  2  0  0  0  0
 44 45  1  0  0  0  0
 46 45  1  1  0  0  0
M  CHG  2   3  -1  35  -1
M  END
>  <CHROM.1>
-178.19788847,48.34326471,-8.04828222,1.64459793,16.36522351,-2.26389598
-0.95927876,-2.39504661

>  <Name>
ligand

>  <RI>
416

>  <Rbt.Current_Directory>
/home/itssahil/PROJECTS/Mol_Feturizer/Test_systems_manuscript/rnas/3mum

>  <Rbt.Executable>
rbdock ($Id: //depot/dev/client3/rdock/2013.1/src/exe/rbdock.cxx#4 $)

>  <Rbt.Library>
libRbt.so (2013.1, Build901 2013/11/27)

>  <Rbt.Parameter_File>
/export/apps/rDock/src/rDock_2013.1_src/data/scripts/dock_solv.prm

>  <Rbt.Receptor>
prm/pocket_docking_2.prm

>  <SCORE>
-40.358

>  <SCORE.INTER>
-40.4426

>  <SCORE.INTER.CONST>
1

>  <SCORE.INTER.POLAR>
0

>  <SCORE.INTER.ROT>
2

>  <SCORE.INTER.SOLV>
39.535

>  <SCORE.INTER.VDW>
-45.0734

>  <SCORE.INTER.norm>
-0.879187

>  <SCORE.INTRA>
0.0846123

>  <SCORE.INTRA.DIHEDRAL>
-0.0202294

>  <SCORE.INTRA.DIHEDRAL.0>
2.40424

>  <SCORE.INTRA.POLAR>
0

>  <SCORE.INTRA.POLAR.0>
0

>  <SCORE.INTRA.REPUL>
0

>  <SCORE.INTRA.REPUL.0>
0

>  <SCORE.INTRA.SOLV>
0.0185184

>  <SCORE.INTRA.SOLV.lig_0>
-134.169

>  <SCORE.INTRA.VDW>
0.0854678

>  <SCORE.INTRA.VDW.0>
-2.18386

>  <SCORE.INTRA.norm>
0.0018394

>  <SCORE.RESTR>
0

>  <SCORE.RESTR.CAVITY>
0

>  <SCORE.RESTR.norm>
0

>  <SCORE.SYSTEM>
0

>  <SCORE.SYSTEM.CONST>
0

>  <SCORE.SYSTEM.DIHEDRAL>
0

>  <SCORE.SYSTEM.SOLV>
0

>  <SCORE.SYSTEM.norm>
0

>  <SCORE.heavy>
46

>  <SCORE.norm>
-0.877348

>  <RMSD>
0.249

$$$$
ligand
 OpenBabel02271912143D
libRbt.so/2013.1/901 2013/11/27
 46 52  0  0  0  0  0  0  0  0999 V2000
   -5.2478    2.4993   18.6289 P   0  0  1  0  0  0  0  0  0  0  0  0
   -9.7304    4.8222   15.5979 P   0  0  2  0  0  0  0  0  0  0  0  0
   -5.4101    0.7361   18.7091 O   0  5  0  0  0  0  0  0  0  0  0  0
   -3.7349    3.0558   19.3909 O   0  0  0  0  0  0  0  0  0  0  0  0
   -5.2855    4.3218   16.7052 C   0  0  0  0  0  0  0  0  0  0  0  0
   -5.2891    2.9441   17.0798 O   0  0  0  0  0  0  0  0  0  0  0  0
   -5.8099    4.4388   15.2868 C   0  0  1  0  0  0  0  0  0  0  0  0
   -5.0638    3.5647   14.4281 O   0  0  0  0  0  0  0  0  0  0  0  0
   -7.2607    4.0077   15.1456 C   0  0  1  0  0  0  0  0  0  0  0  0
   -8.1641    5.0972   15.3187 O   0  0  0  0  0  0  0  0  0  0  0  0
   -7.3167    3.4410   13.7379 C   0  0  1  0  0  0  0  0  0  0  0  0
   -7.6168    4.4800   12.8025 O   0  0  0  0  0  0  0  0  0  0  0  0
   -5.9150    2.9298   13.4611 C   0  0  2  0  0  0  0  0  0  0  0  0
   -9.7881    1.9478   19.8772 C   0  0  1  0  0  0  0  0  0  0  0  0
   -7.4342   -1.8723   11.7807 N   0  0  0  0  0  0  0  0  0  0  0  0
   -7.7638   -0.6474   11.2874 C   0  0  1  0  0  0  0  0  0  0  0  0
   -8.3386    1.6695   19.5966 C   0  0  2  0  0  0  0  0  0  0  0  0
   -8.5935   -0.5898   10.2202 N   0  0  0  0  0  0  0  0  0  0  0  0
   -7.7094    1.4846   20.8658 O   0  0  0  0  0  0  0  0  0  0  0  0
   -7.8371    2.9120   18.8877 C   0  0  2  0  0  0  0  0  0  0  0  0
   -7.2953    0.5174   11.8262 N   0  0  0  0  0  0  0  0  0  0  0  0
   -6.5138    3.2455   19.2842 O   0  0  0  0  0  0  0  0  0  0  0  0
   -6.4594    0.5132   12.8953 C   0  0  2  0  0  0  0  0  0  0  0  0
   -8.7963    4.0104   19.3025 C   0  0  2  0  0  0  0  0  0  0  0  0
   -9.9919    3.3509   19.7157 O   0  0  0  0  0  0  0  0  0  0  0  0
   -6.0734   -0.7871   13.4703 C   0  0  1  0  0  0  0  0  0  0  0  0
   -9.1151    4.9775   18.1678 C   0  0  0  0  0  0  0  0  0  0  0  0
   -9.7489    4.2602   17.1067 O   0  0  0  0  0  0  0  0  0  0  0  0
   -6.6109   -2.0087   12.8451 C   0  0  0  0  0  0  0  0  0  0  0  0
   -6.2904   -3.2340   13.3328 O   0  0  0  0  0  0  0  0  0  0  0  0
   -5.2621   -0.5303   14.5023 N   0  0  0  0  0  0  0  0  0  0  0  0
   -5.1335    0.8259   14.5905 C   0  0  0  0  0  0  0  0  0  0  0  0
   -5.8478    1.4543   13.6331 N   0  0  1  0  0  0  0  0  0  0  0  0
  -10.6688   -2.7644   17.7824 N   0  0  0  0  0  0  0  0  0  0  0  0
  -10.3911    3.6091   14.4699 O   0  5  0  0  0  0  0  0  0  0  0  0
   -9.7059   -2.3667   18.6586 C   0  0  2  0  0  0  0  0  0  0  0  0
   -8.8020   -3.2757   19.1085 N   0  0  0  0  0  0  0  0  0  0  0  0
  -10.7244    6.2906   15.5360 O   0  0  0  0  0  0  0  0  0  0  0  0
   -9.6191   -1.0826   19.1012 N   0  0  0  0  0  0  0  0  0  0  0  0
  -10.4944   -0.1337   18.6942 C   0  0  2  0  0  0  0  0  0  0  0  0
  -11.5545   -0.5017   17.7464 C   0  0  2  0  0  0  0  0  0  0  0  0
  -11.5942   -1.9097   17.2971 C   0  0  0  0  0  0  0  0  0  0  0  0
  -12.5348   -2.3420   16.4213 O   0  0  0  0  0  0  0  0  0  0  0  0
  -12.2635    0.6192   17.5072 N   0  0  0  0  0  0  0  0  0  0  0  0
  -11.7039    1.6227   18.2466 C   0  0  0  0  0  0  0  0  0  0  0  0
  -10.6444    1.1668   18.9526 N   0  0  1  0  0  0  0  0  0  0  0  0
  1  3  1  1  0  0  0
  1  4  2  0  0  0  0
  1  6  1  0  0  0  0
  1 22  1  0  0  0  0
  2 28  1  0  0  0  0
  2 35  1  6  0  0  0
  2 38  2  0  0  0  0
  2 10  1  0  0  0  0
  5  6  1  0  0  0  0
  7  5  1  1  0  0  0
  7  8  1  0  0  0  0
  7  9  1  0  0  0  0
  9 10  1  6  0  0  0
  9 11  1  0  0  0  0
 11 12  1  6  0  0  0
 11 13  1  0  0  0  0
 13  8  1  1  0  0  0
 13 33  1  0  0  0  0
 14 46  1  0  0  0  0
 14 17  1  0  0  0  0
 14 25  1  6  0  0  0
 15 16  1  0  0  0  0
 15 29  1  0  0  0  0
 16 18  1  1  0  0  0
 16 21  1  0  0  0  0
 17 19  1  1  0  0  0
 17 20  1  0  0  0  0
 20 22  1  1  0  0  0
 20 24  1  0  0  0  0
 23 21  1  1  0  0  0
 23 26  1  0  0  0  0
 23 33  1  0  0  0  0
 24 25  1  6  0  0  0
 24 27  1  0  0  0  0
 26 29  1  6  0  0  0
 26 31  1  0  0  0  0
 27 28  1  0  0  0  0
 29 30  2  0  0  0  0
 31 32  1  0  0  0  0
 33 32  1  6  0  0  0
 34 36  1  0  0  0  0
 34 42  1  0  0  0  0
 36 37  1  1  0  0  0
 36 39  1  0  0  0  0
 40 39  1  6  0  0  0
 40 41  1  0  0  0  0
 40 46  1  0  0  0  0
 41 42  1  6  0  0  0
 41 44  1  0  0  0  0
 42 43  2  0  0  0  0
 44 45  1  0  0  0  0
 46 45  1  1  0  0  0
M  CHG  2   3  -1  35  -1
M  END
>  <CHROM.1>
-177.44657976,47.61946662,-8.05584692,1.64845139,16.35695242,-2.25784447
-0.96149886,-2.41169120

>  <Name>
ligand

>  <RI>
-1

>  <Rbt.Current_Directory>
/home/itssahil/PROJECTS/Mol_Feturizer/Test_systems_manuscript/rnas/3mum

>  <Rbt.Executable>
rbdock ($Id: //depot/dev/client3/rdock/2013.1/src/exe/rbdock.cxx#4 $)

>  <Rbt.Library>
libRbt.so (2013.1, Build901 2013/11/27)

>  <Rbt.Parameter_File>
/export/apps/rDock/src/rDock_2013.1_src/data/scripts/dock_solv.prm

>  <Rbt.Receptor>
prm/pocket_docking_7.prm

>  <SCORE>
-40.2948

>  <SCORE.INTER>
-40.3705

>  <SCORE.INTER.CONST>
1

>  <SCORE.INTER.POLAR>
0

>  <SCORE.INTER.ROT>
2

>  <SCORE.INTER.SOLV>
39.5908

>  <SCORE.INTER.VDW>
-45.044

>  <SCORE.INTER.norm>
-0.877621

>  <SCORE.INTRA>
0.0757824

>  <SCORE.INTRA.DIHEDRAL>
-0.0209184

>  <SCORE.INTRA.DIHEDRAL.0>
2.40424

>  <SCORE.INTRA.POLAR>
0

>  <SCORE.INTRA.POLAR.0>
0

>  <SCORE.INTRA.REPUL>
0

>  <SCORE.INTRA.REPUL.0>
0

>  <SCORE.INTRA.SOLV>
0.0191415

>  <SCORE.INTRA.SOLV.lig_0>
-134.169

>  <SCORE.INTRA.VDW>
0.0766709

>  <SCORE.INTRA.VDW.0>
-2.18386

>  <SCORE.INTRA.norm>
0.00164744

>  <SCORE.RESTR>
0

>  <SCORE.RESTR.CAVITY>
0

>  <SCORE.RESTR.norm>
0

>  <SCORE.SYSTEM>
0

>  <SCORE.SYSTEM.CONST>
0

>  <SCORE.SYSTEM.DIHEDRAL>
0

>  <SCORE.SYSTEM.SOLV>
0

>  <SCORE.SYSTEM.norm>
0

>  <SCORE.heavy>
46

>  <SCORE.norm>
-0.875973

>  <RMSD>
0.249

$$$$
ligand
 OpenBabel02271912143D
libRbt.so/2013.1/901 2013/11/27
 46 52  0  0  0  0  0  0  0  0999 V2000
   -5.2523    2.4869   18.6591 P   0  0  1  0  0  0  0  0  0  0  0  0
   -9.7172    4.8256   15.6141 P   0  0  2  0  0  0  0  0  0  0  0  0
   -5.4165    0.7235   18.7315 O   0  5  0  0  0  0  0  0  0  0  0  0
   -3.7429    3.0391   19.4312 O   0  0  0  0  0  0  0  0  0  0  0  0
   -5.2786    4.3170   16.7425 C   0  0  0  0  0  0  0  0  0  0  0  0
   -5.2852    2.9379   17.1116 O   0  0  0  0  0  0  0  0  0  0  0  0
   -5.7955    4.4400   15.3218 C   0  0  1  0  0  0  0  0  0  0  0  0
   -5.0456    3.5687   14.4636 O   0  0  0  0  0  0  0  0  0  0  0  0
   -7.2458    4.0108   15.1714 C   0  0  1  0  0  0  0  0  0  0  0  0
   -8.1492    5.1003   15.3442 O   0  0  0  0  0  0  0  0  0  0  0  0
   -7.2950    3.4497   13.7612 C   0  0  1  0  0  0  0  0  0  0  0  0
   -7.5893    4.4926   12.8284 O   0  0  0  0  0  0  0  0  0  0  0  0
   -5.8923    2.9384   13.4897 C   0  0  2  0  0  0  0  0  0  0  0  0
   -9.7995    1.9343   19.8816 C   0  0  1  0  0  0  0  0  0  0  0  0
   -7.4774   -1.8526   11.8385 N   0  0  0  0  0  0  0  0  0  0  0  0
   -7.8145   -0.6249   11.3572 C   0  0  1  0  0  0  0  0  0  0  0  0
   -8.3488    1.6559   19.6074 C   0  0  2  0  0  0  0  0  0  0  0  0
   -8.6720   -0.5608   10.3126 N   0  0  0  0  0  0  0  0  0  0  0  0
   -7.7263    1.4654   20.8792 O   0  0  0  0  0  0  0  0  0  0  0  0
   -7.8426    2.9007   18.9061 C   0  0  2  0  0  0  0  0  0  0  0  0
   -7.3265    0.5364   11.8862 N   0  0  0  0  0  0  0  0  0  0  0  0
   -6.5211    3.2315   19.3107 O   0  0  0  0  0  0  0  0  0  0  0  0
   -6.4624    0.5257   12.9326 C   0  0  2  0  0  0  0  0  0  0  0  0
   -8.8030    3.9983   19.3202 C   0  0  2  0  0  0  0  0  0  0  0  0
  -10.0014    3.3382   19.7246 O   0  0  0  0  0  0  0  0  0  0  0  0
   -6.0672   -0.7777   13.4939 C   0  0  1  0  0  0  0  0  0  0  0  0
   -9.1151    4.9702   18.1878 C   0  0  0  0  0  0  0  0  0  0  0  0
   -9.7440    4.2576   17.1206 O   0  0  0  0  0  0  0  0  0  0  0  0
   -6.6266   -1.9953   12.8803 C   0  0  0  0  0  0  0  0  0  0  0  0
   -6.2988   -3.2233   13.3562 O   0  0  0  0  0  0  0  0  0  0  0  0
   -5.2276   -0.5273   14.5046 N   0  0  0  0  0  0  0  0  0  0  0  0
   -5.0905    0.8281   14.5926 C   0  0  0  0  0  0  0  0  0  0  0  0
   -5.8272    1.4622   13.6562 N   0  0  1  0  0  0  0  0  0  0  0  0
  -10.6964   -2.7770   17.7917 N   0  0  0  0  0  0  0  0  0  0  0  0
  -10.3730    3.6175   14.4778 O   0  5  0  0  0  0  0  0  0  0  0  0
   -9.7405   -2.3847   18.6779 C   0  0  2  0  0  0  0  0  0  0  0  0
   -8.8499   -3.3001   19.1414 N   0  0  0  0  0  0  0  0  0  0  0  0
  -10.7097    6.2950   15.5528 O   0  0  0  0  0  0  0  0  0  0  0  0
   -9.6477   -1.1000   19.1173 N   0  0  0  0  0  0  0  0  0  0  0  0
  -10.5099   -0.1449   18.6971 C   0  0  2  0  0  0  0  0  0  0  0  0
  -11.5620   -0.5068   17.7380 C   0  0  2  0  0  0  0  0  0  0  0  0
  -11.6086   -1.9160   17.2928 C   0  0  0  0  0  0  0  0  0  0  0  0
  -12.5425   -2.3430   16.4073 O   0  0  0  0  0  0  0  0  0  0  0  0
  -12.2583    0.6194   17.4868 N   0  0  0  0  0  0  0  0  0  0  0  0
  -11.6987    1.6204   18.2296 C   0  0  0  0  0  0  0  0  0  0  0  0
  -10.6516    1.1576   18.9495 N   0  0  1  0  0  0  0  0  0  0  0  0
  1  3  1  1  0  0  0
  1  4  2  0  0  0  0
  1  6  1  0  0  0  0
  1 22  1  0  0  0  0
  2 28  1  0  0  0  0
  2 35  1  6  0  0  0
  2 38  2  0  0  0  0
  2 10  1  0  0  0  0
  5  6  1  0  0  0  0
  7  5  1  1  0  0  0
  7  8  1  0  0  0  0
  7  9  1  0  0  0  0
  9 10  1  6  0  0  0
  9 11  1  0  0  0  0
 11 12  1  6  0  0  0
 11 13  1  0  0  0  0
 13  8  1  1  0  0  0
 13 33  1  0  0  0  0
 14 46  1  0  0  0  0
 14 17  1  0  0  0  0
 14 25  1  6  0  0  0
 15 16  1  0  0  0  0
 15 29  1  0  0  0  0
 16 18  1  1  0  0  0
 16 21  1  0  0  0  0
 17 19  1  1  0  0  0
 17 20  1  0  0  0  0
 20 22  1  1  0  0  0
 20 24  1  0  0  0  0
 23 21  1  1  0  0  0
 23 26  1  0  0  0  0
 23 33  1  0  0  0  0
 24 25  1  6  0  0  0
 24 27  1  0  0  0  0
 26 29  1  6  0  0  0
 26 31  1  0  0  0  0
 27 28  1  0  0  0  0
 29 30  2  0  0  0  0
 31 32  1  0  0  0  0
 33 32  1  6  0  0  0
 34 36  1  0  0  0  0
 34 42  1  0  0  0  0
 36 37  1  1  0  0  0
 36 39  1  0  0  0  0
 40 39  1  6  0  0  0
 40 41  1  0  0  0  0
 40 46  1  0  0  0  0
 41 42  1  6  0  0  0
 41 44  1  0  0  0  0
 42 43  2  0  0  0  0
 44 45  1  0  0  0  0
 46 45  1  1  0  0  0
M  CHG  2   3  -1  35  -1
M  END
>  <CHROM.1>
-179.28452865,48.33705589,-8.05941209,1.64685871,16.37838437,-2.27615141
-0.95643655,-2.40231364

>  <Name>
ligand

>  <RI>
416

>  <Rbt.Current_Directory>
/home/itssahil/PROJECTS/Mol_Feturizer/Test_systems_manuscript/rnas/3mum

>  <Rbt.Executable>
rbdock ($Id: //depot/dev/client3/rdock/2013.1/src/exe/rbdock.cxx#4 $)

>  <Rbt.Library>
libRbt.so (2013.1, Build901 2013/11/27)

>  <Rbt.Parameter_File>
/export/apps/rDock/src/rDock_2013.1_src/data/scripts/dock_solv.prm

>  <Rbt.Receptor>
prm/pocket_docking_2.prm

>  <SCORE>
-40.3247

>  <SCORE.INTER>
-40.417

>  <SCORE.INTER.CONST>
1

>  <SCORE.INTER.POLAR>
0

>  <SCORE.INTER.ROT>
2

>  <SCORE.INTER.SOLV>
39.3749

>  <SCORE.INTER.VDW>
-45.0029

>  <SCORE.INTER.norm>
-0.87863

>  <SCORE.INTRA>
0.0922499

>  <SCORE.INTRA.DIHEDRAL>
-0.0204418

>  <SCORE.INTRA.DIHEDRAL.0>
2.40424

>  <SCORE.INTRA.POLAR>
0

>  <SCORE.INTRA.POLAR.0>
0

>  <SCORE.INTRA.REPUL>
0

>  <SCORE.INTRA.REPUL.0>
0

>  <SCORE.INTRA.SOLV>
0.0188859

>  <SCORE.INTRA.SOLV.lig_0>
-134.169

>  <SCORE.INTRA.VDW>
0.0930279

>  <SCORE.INTRA.VDW.0>
-2.18386

>  <SCORE.INTRA.norm>
0.00200543

>  <SCORE.RESTR>
0

>  <SCORE.RESTR.CAVITY>
0

>  <SCORE.RESTR.norm>
0

>  <SCORE.SYSTEM>
0

>  <SCORE.SYSTEM.CONST>
0

>  <SCORE.SYSTEM.DIHEDRAL>
0

>  <SCORE.SYSTEM.SOLV>
0

>  <SCORE.SYSTEM.norm>
0

>  <SCORE.heavy>
46

>  <SCORE.norm>
-0.876624

>  <RMSD>
0.250

$$$$
ligand
 OpenBabel02271912143D
libRbt.so/2013.1/901 2013/11/27
 46 52  0  0  0  0  0  0  0  0999 V2000
   -9.7447    4.9132   15.6505 P   0  0  1  0  0  0  0  0  0  0  0  0
   -5.3613    2.4235   18.6941 P   0  0  2  0  0  0  0  0  0  0  0  0
  -10.4967    3.7230   14.5735 O   0  5  0  0  0  0  0  0  0  0  0  0
  -10.5862    6.4837   15.5849 O   0  0  0  0  0  0  0  0  0  0  0  0
   -9.1380    5.0220   18.2280 C   0  0  0  0  0  0  0  0  0  0  0  0
   -9.7709    4.3281   17.1526 O   0  0  0  0  0  0  0  0  0  0  0  0
   -8.9027    4.0435   19.3629 C   0  0  1  0  0  0  0  0  0  0  0  0
  -10.1359    3.3890   19.6927 O   0  0  0  0  0  0  0  0  0  0  0  0
   -7.9334    2.9292   19.0037 C   0  0  1  0  0  0  0  0  0  0  0  0
   -6.5857    3.2646   19.3266 O   0  0  0  0  0  0  0  0  0  0  0  0
   -8.4389    1.7548   19.8229 C   0  0  1  0  0  0  0  0  0  0  0  0
   -7.8295    1.7607   21.1164 O   0  0  0  0  0  0  0  0  0  0  0  0
   -9.9275    1.9989   19.9876 C   0  0  2  0  0  0  0  0  0  0  0  0
   -5.9878    2.8770   13.5971 C   0  0  1  0  0  0  0  0  0  0  0  0
  -10.7350   -2.7655   17.7873 N   0  0  0  0  0  0  0  0  0  0  0  0
   -9.8150   -2.3966   18.7200 C   0  0  1  0  0  0  0  0  0  0  0  0
   -7.3979    3.2957   13.9027 C   0  0  2  0  0  0  0  0  0  0  0  0
   -8.9613   -3.3383   19.1838 N   0  0  0  0  0  0  0  0  0  0  0  0
   -7.7838    4.2021   12.8681 O   0  0  0  0  0  0  0  0  0  0  0  0
   -7.3141    3.9765   15.2545 C   0  0  2  0  0  0  0  0  0  0  0  0
   -9.7190   -1.1210   19.2001 N   0  0  0  0  0  0  0  0  0  0  0  0
   -8.1790    5.1015   15.3311 O   0  0  0  0  0  0  0  0  0  0  0  0
  -10.5528   -0.1411   18.7686 C   0  0  2  0  0  0  0  0  0  0  0  0
   -5.8701    4.4218   15.3770 C   0  0  2  0  0  0  0  0  0  0  0  0
   -5.1284    3.5968   14.4800 O   0  0  0  0  0  0  0  0  0  0  0  0
  -11.5658   -0.4866   17.7563 C   0  0  1  0  0  0  0  0  0  0  0  0
   -5.3188    4.2612   16.7893 C   0  0  0  0  0  0  0  0  0  0  0  0
   -5.3525    2.8788   17.1496 O   0  0  0  0  0  0  0  0  0  0  0  0
  -11.6205   -1.8793   17.2774 C   0  0  0  0  0  0  0  0  0  0  0  0
  -12.5323   -2.2550   16.3448 O   0  0  0  0  0  0  0  0  0  0  0  0
  -12.2499    0.6323   17.4932 N   0  0  0  0  0  0  0  0  0  0  0  0
  -11.7227    1.6231   18.2703 C   0  0  0  0  0  0  0  0  0  0  0  0
  -10.7075    1.1666   19.0337 N   0  0  1  0  0  0  0  0  0  0  0  0
   -7.4043   -1.8310   11.8093 N   0  0  0  0  0  0  0  0  0  0  0  0
   -5.6387    0.6668   18.8274 O   0  5  0  0  0  0  0  0  0  0  0  0
   -7.7700   -0.5911   11.3830 C   0  0  2  0  0  0  0  0  0  0  0  0
   -8.6262   -0.4759   10.3343 N   0  0  0  0  0  0  0  0  0  0  0  0
   -3.7873    2.8292   19.4055 O   0  0  0  0  0  0  0  0  0  0  0  0
   -7.3035    0.5421   11.9750 N   0  0  0  0  0  0  0  0  0  0  0  0
   -6.4435    0.4918   13.0190 C   0  0  2  0  0  0  0  0  0  0  0  0
   -6.0143   -0.8182   13.5261 C   0  0  2  0  0  0  0  0  0  0  0  0
   -6.5592   -2.0127   12.8462 C   0  0  0  0  0  0  0  0  0  0  0  0
   -6.2225   -3.2640   13.2455 O   0  0  0  0  0  0  0  0  0  0  0  0
   -5.1816   -0.5779   14.5582 N   0  0  0  0  0  0  0  0  0  0  0  0
   -5.0830    0.7779   14.6969 C   0  0  0  0  0  0  0  0  0  0  0  0
   -5.8421    1.4124   13.7749 N   0  0  1  0  0  0  0  0  0  0  0  0
  1  3  1  6  0  0  0
  1  4  2  0  0  0  0
  1  6  1  0  0  0  0
  1 22  1  0  0  0  0
  2 28  1  0  0  0  0
  2 35  1  1  0  0  0
  2 38  2  0  0  0  0
  2 10  1  0  0  0  0
  5  6  1  0  0  0  0
  7  5  1  6  0  0  0
  7  8  1  0  0  0  0
  7  9  1  0  0  0  0
  9 10  1  1  0  0  0
  9 11  1  0  0  0  0
 11 12  1  1  0  0  0
 11 13  1  0  0  0  0
 13  8  1  6  0  0  0
 13 33  1  0  0  0  0
 14 46  1  0  0  0  0
 14 17  1  0  0  0  0
 14 25  1  1  0  0  0
 15 16  1  0  0  0  0
 15 29  1  0  0  0  0
 16 18  1  6  0  0  0
 16 21  1  0  0  0  0
 17 19  1  6  0  0  0
 17 20  1  0  0  0  0
 20 22  1  6  0  0  0
 20 24  1  0  0  0  0
 23 21  1  6  0  0  0
 23 26  1  0  0  0  0
 23 33  1  0  0  0  0
 24 25  1  6  0  0  0
 24 27  1  0  0  0  0
 26 29  1  1  0  0  0
 26 31  1  0  0  0  0
 27 28  1  0  0  0  0
 29 30  2  0  0  0  0
 31 32  1  0  0  0  0
 33 32  1  1  0  0  0
 34 36  1  0  0  0  0
 34 42  1  0  0  0  0
 36 37  1  6  0  0  0
 36 39  1  0  0  0  0
 40 39  1  1  0  0  0
 40 41  1  0  0  0  0
 40 46  1  0  0  0  0
 41 42  1  1  0  0  0
 41 44  1  0  0  0  0
 42 43  2  0  0  0  0
 44 45  1  0  0  0  0
 46 45  1  6  0  0  0
M  CHG  2   3  -1  35  -1
M  END
>  <CHROM.1>
163.23408968,66.26343019,-8.10354907,1.65082276,16.42438825,-2.25615300,-0.96697033
-2.46631072

>  <Name>
ligand

>  <RI>
416

>  <Rbt.Current_Directory>
/home/itssahil/PROJECTS/Mol_Feturizer/Test_systems_manuscript/rnas/3mum

>  <Rbt.Executable>
rbdock ($Id: //depot/dev/client3/rdock/2013.1/src/exe/rbdock.cxx#4 $)

>  <Rbt.Library>
libRbt.so (2013.1, Build901 2013/11/27)

>  <Rbt.Parameter_File>
/export/apps/rDock/src/rDock_2013.1_src/data/scripts/dock_solv.prm

>  <Rbt.Receptor>
prm/pocket_docking_2.prm

>  <SCORE>
-40.4552

>  <SCORE.INTER>
-40.439

>  <SCORE.INTER.CONST>
1

>  <SCORE.INTER.POLAR>
0

>  <SCORE.INTER.ROT>
2

>  <SCORE.INTER.SOLV>
39.2106

>  <SCORE.INTER.VDW>
-44.9629

>  <SCORE.INTER.norm>
-0.879109

>  <SCORE.INTRA>
-0.0161788

>  <SCORE.INTRA.DIHEDRAL>
0.00124977

>  <SCORE.INTRA.DIHEDRAL.0>
2.40424

>  <SCORE.INTRA.POLAR>
0

>  <SCORE.INTRA.POLAR.0>
0

>  <SCORE.INTRA.REPUL>
0

>  <SCORE.INTRA.REPUL.0>
0

>  <SCORE.INTRA.SOLV>
0.00111898

>  <SCORE.INTRA.SOLV.lig_0>
-134.169

>  <SCORE.INTRA.VDW>
-0.0173632

>  <SCORE.INTRA.VDW.0>
-2.18386

>  <SCORE.INTRA.norm>
-0.000351714

>  <SCORE.RESTR>
0

>  <SCORE.RESTR.CAVITY>
0

>  <SCORE.RESTR.norm>
0

>  <SCORE.SYSTEM>
0

>  <SCORE.SYSTEM.CONST>
0

>  <SCORE.SYSTEM.DIHEDRAL>
0

>  <SCORE.SYSTEM.SOLV>
0

>  <SCORE.SYSTEM.norm>
0

>  <SCORE.heavy>
46

>  <SCORE.norm>
-0.87946

>  <RMSD>
0.250

$$$$
ligand
 OpenBabel02271912143D
libRbt.so/2013.1/901 2013/11/27
 46 52  0  0  0  0  0  0  0  0999 V2000
   -9.8225    4.9158   15.6714 P   0  0  1  0  0  0  0  0  0  0  0  0
   -5.3478    2.5959   18.7162 P   0  0  2  0  0  0  0  0  0  0  0  0
  -10.4973    3.7115   14.5595 O   0  5  0  0  0  0  0  0  0  0  0  0
  -10.7460    6.4405   15.6289 O   0  0  0  0  0  0  0  0  0  0  0  0
   -9.2524    4.9995   18.2582 C   0  0  0  0  0  0  0  0  0  0  0  0
   -9.8348    4.2970   17.1601 O   0  0  0  0  0  0  0  0  0  0  0  0
   -8.9783    4.0100   19.3747 C   0  0  1  0  0  0  0  0  0  0  0  0
  -10.1784    3.2837   19.6745 O   0  0  0  0  0  0  0  0  0  0  0  0
   -7.9466    2.9571   19.0038 C   0  0  1  0  0  0  0  0  0  0  0  0
   -6.6226    3.3564   19.3511 O   0  0  0  0  0  0  0  0  0  0  0  0
   -8.3982    1.7396   19.7911 C   0  0  1  0  0  0  0  0  0  0  0  0
   -7.8049    1.7491   21.0920 O   0  0  0  0  0  0  0  0  0  0  0  0
   -9.8994    1.9004   19.9420 C   0  0  2  0  0  0  0  0  0  0  0  0
   -5.9386    3.1284   13.6226 C   0  0  1  0  0  0  0  0  0  0  0  0
  -10.8611   -2.9675   18.0523 N   0  0  0  0  0  0  0  0  0  0  0  0
  -10.0412   -2.5896   19.0707 C   0  0  1  0  0  0  0  0  0  0  0  0
   -7.3726    3.4646   13.9192 C   0  0  2  0  0  0  0  0  0  0  0  0
   -9.3500   -3.5509   19.7257 N   0  0  0  0  0  0  0  0  0  0  0  0
   -7.7943    4.3720   12.8995 O   0  0  0  0  0  0  0  0  0  0  0  0
   -7.3409    4.1187   15.2863 C   0  0  2  0  0  0  0  0  0  0  0  0
   -9.8879   -1.2867   19.4523 N   0  0  0  0  0  0  0  0  0  0  0  0
   -8.2655    5.1941   15.3761 O   0  0  0  0  0  0  0  0  0  0  0  0
  -10.5601   -0.2861   18.8289 C   0  0  2  0  0  0  0  0  0  0  0  0
   -5.9243    4.6374   15.4367 C   0  0  2  0  0  0  0  0  0  0  0  0
   -5.1292    3.8731   14.5317 O   0  0  0  0  0  0  0  0  0  0  0  0
  -11.4591   -0.6406   17.7169 C   0  0  1  0  0  0  0  0  0  0  0  0
   -5.3816    4.4751   16.8522 C   0  0  0  0  0  0  0  0  0  0  0  0
   -5.3455    3.0851   17.1822 O   0  0  0  0  0  0  0  0  0  0  0  0
  -11.5829   -2.0631   17.3519 C   0  0  0  0  0  0  0  0  0  0  0  0
  -12.3954   -2.4483   16.3352 O   0  0  0  0  0  0  0  0  0  0  0  0
  -11.9924    0.5014   17.2690 N   0  0  0  0  0  0  0  0  0  0  0  0
  -11.4801    1.5141   18.0276 C   0  0  0  0  0  0  0  0  0  0  0  0
  -10.6228    1.0491   18.9605 N   0  0  1  0  0  0  0  0  0  0  0  0
   -7.4321   -1.6283   12.0376 N   0  0  0  0  0  0  0  0  0  0  0  0
   -5.5324    0.8244   18.8081 O   0  5  0  0  0  0  0  0  0  0  0  0
   -7.8994   -0.4024   11.6745 C   0  0  2  0  0  0  0  0  0  0  0  0
   -8.9022   -0.3184   10.7617 N   0  0  0  0  0  0  0  0  0  0  0  0
   -3.8061    3.0688   19.4562 O   0  0  0  0  0  0  0  0  0  0  0  0
   -7.3924    0.7471   12.1978 N   0  0  0  0  0  0  0  0  0  0  0  0
   -6.3887    0.7282   13.1058 C   0  0  2  0  0  0  0  0  0  0  0  0
   -5.8443   -0.5655   13.5392 C   0  0  2  0  0  0  0  0  0  0  0  0
   -6.4396   -1.7790   12.9401 C   0  0  0  0  0  0  0  0  0  0  0  0
   -6.0043   -3.0172   13.2805 O   0  0  0  0  0  0  0  0  0  0  0  0
   -4.8797   -0.2949   14.4408 N   0  0  0  0  0  0  0  0  0  0  0  0
   -4.8100    1.0636   14.5699 C   0  0  0  0  0  0  0  0  0  0  0  0
   -5.7169    1.6700   13.7707 N   0  0  1  0  0  0  0  0  0  0  0  0
  1  3  1  6  0  0  0
  1  4  2  0  0  0  0
  1  6  1  0  0  0  0
  1 22  1  0  0  0  0
  2 28  1  0  0  0  0
  2 35  1  1  0  0  0
  2 38  2  0  0  0  0
  2 10  1  0  0  0  0
  5  6  1  0  0  0  0
  7  5  1  6  0  0  0
  7  8  1  0  0  0  0
  7  9  1  0  0  0  0
  9 10  1  1  0  0  0
  9 11  1  0  0  0  0
 11 12  1  1  0  0  0
 11 13  1  0  0  0  0
 13  8  1  6  0  0  0
 13 33  1  0  0  0  0
 14 46  1  0  0  0  0
 14 17  1  0  0  0  0
 14 25  1  1  0  0  0
 15 16  1  0  0  0  0
 15 29  1  0  0  0  0
 16 18  1  6  0  0  0
 16 21  1  0  0  0  0
 17 19  1  6  0  0  0
 17 20  1  0  0  0  0
 20 22  1  6  0  0  0
 20 24  1  0  0  0  0
 23 21  1  6  0  0  0
 23 26  1  0  0  0  0
 23 33  1  0  0  0  0
 24 25  1  6  0  0  0
 24 27  1  0  0  0  0
 26 29  1  1  0  0  0
 26 31  1  0  0  0  0
 27 28  1  0  0  0  0
 29 30  2  0  0  0  0
 31 32  1  0  0  0  0
 33 32  1  1  0  0  0
 34 36  1  0  0  0  0
 34 42  1  0  0  0  0
 36 37  1  6  0  0  0
 36 39  1  0  0  0  0
 40 39  1  1  0  0  0
 40 41  1  0  0  0  0
 40 46  1  0  0  0  0
 41 42  1  1  0  0  0
 41 44  1  0  0  0  0
 42 43  2  0  0  0  0
 44 45  1  0  0  0  0
 46 45  1  6  0  0  0
M  CHG  2   3  -1  35  -1
M  END
>  <CHROM.1>
175.84062085,57.09573815,-8.10392757,1.71402979,16.47646965,-0.40229457,0.97918231
0.68800185

>  <Name>
ligand

>  <RI>
-1

>  <Rbt.Current_Directory>
/home/itssahil/PROJECTS/Mol_Feturizer/Test_systems_manuscript/rnas/3mum

>  <Rbt.Executable>
rbdock ($Id: //depot/dev/client3/rdock/2013.1/src/exe/rbdock.cxx#4 $)

>  <Rbt.Library>
libRbt.so (2013.1, Build901 2013/11/27)

>  <Rbt.Parameter_File>
/export/apps/rDock/src/rDock_2013.1_src/data/scripts/dock_solv.prm

>  <Rbt.Receptor>
prm/pocket_docking_4.prm

>  <SCORE>
-39.2571

>  <SCORE.INTER>
-39.2547

>  <SCORE.INTER.CONST>
1

>  <SCORE.INTER.POLAR>
0

>  <SCORE.INTER.ROT>
2

>  <SCORE.INTER.SOLV>
40.1656

>  <SCORE.INTER.VDW>
-44.4917

>  <SCORE.INTER.norm>
-0.853363

>  <SCORE.INTRA>
-0.0024046

>  <SCORE.INTRA.DIHEDRAL>
-0.0098347

>  <SCORE.INTRA.DIHEDRAL.0>
2.40424

>  <SCORE.INTRA.POLAR>
0

>  <SCORE.INTRA.POLAR.0>
0

>  <SCORE.INTRA.REPUL>
0

>  <SCORE.INTRA.REPUL.0>
0

>  <SCORE.INTRA.SOLV>
0.00848011

>  <SCORE.INTRA.SOLV.lig_0>
-134.169

>  <SCORE.INTRA.VDW>
-0.0017273

>  <SCORE.INTRA.VDW.0>
-2.18386

>  <SCORE.INTRA.norm>
-5.22739e-05

>  <SCORE.RESTR>
0

>  <SCORE.RESTR.CAVITY>
0

>  <SCORE.RESTR.norm>
0

>  <SCORE.SYSTEM>
0

>  <SCORE.SYSTEM.CONST>
0

>  <SCORE.SYSTEM.DIHEDRAL>
0

>  <SCORE.SYSTEM.SOLV>
0

>  <SCORE.SYSTEM.norm>
0

>  <SCORE.heavy>
46

>  <SCORE.norm>
-0.853415

>  <RMSD>
0.251

$$$$
ligand
 OpenBabel02271912143D
libRbt.so/2013.1/901 2013/11/27
 46 52  0  0  0  0  0  0  0  0999 V2000
   -5.3184    2.6403   18.6978 P   0  0  1  0  0  0  0  0  0  0  0  0
   -9.8422    4.8158   15.6191 P   0  0  2  0  0  0  0  0  0  0  0  0
   -5.4063    0.8707   18.7496 O   0  5  0  0  0  0  0  0  0  0  0  0
   -3.8444    3.2491   19.4953 O   0  0  0  0  0  0  0  0  0  0  0  0
   -5.4002    4.4885   16.8002 C   0  0  0  0  0  0  0  0  0  0  0  0
   -5.3513    3.1064   17.1548 O   0  0  0  0  0  0  0  0  0  0  0  0
   -5.9040    4.6045   15.3742 C   0  0  1  0  0  0  0  0  0  0  0  0
   -5.1060    3.7762   14.5169 O   0  0  0  0  0  0  0  0  0  0  0  0
   -7.3322    4.1142   15.2004 C   0  0  1  0  0  0  0  0  0  0  0  0
   -8.2844    5.1615   15.3726 O   0  0  0  0  0  0  0  0  0  0  0  0
   -7.3390    3.5671   13.7838 C   0  0  1  0  0  0  0  0  0  0  0  0
   -7.6668    4.6064   12.8582 O   0  0  0  0  0  0  0  0  0  0  0  0
   -5.9120    3.1204   13.5254 C   0  0  2  0  0  0  0  0  0  0  0  0
   -9.8522    1.8769   19.8547 C   0  0  1  0  0  0  0  0  0  0  0  0
   -7.5227   -1.7149   12.0360 N   0  0  0  0  0  0  0  0  0  0  0  0
   -7.9472   -0.4975   11.5997 C   0  0  1  0  0  0  0  0  0  0  0  0
   -8.3873    1.6649   19.5967 C   0  0  2  0  0  0  0  0  0  0  0  0
   -8.9152   -0.4585   10.6552 N   0  0  0  0  0  0  0  0  0  0  0  0
   -7.7733    1.4877   20.8744 O   0  0  0  0  0  0  0  0  0  0  0  0
   -7.9271    2.9382   18.9151 C   0  0  2  0  0  0  0  0  0  0  0  0
   -7.4396    0.6775   12.0774 N   0  0  0  0  0  0  0  0  0  0  0  0
   -6.6266    3.3217   19.3405 O   0  0  0  0  0  0  0  0  0  0  0  0
   -6.4665    0.6921   13.0232 C   0  0  2  0  0  0  0  0  0  0  0  0
   -8.9397    3.9883   19.3280 C   0  0  2  0  0  0  0  0  0  0  0  0
  -10.1131    3.2723   19.7098 O   0  0  0  0  0  0  0  0  0  0  0  0
   -5.9732   -0.5994   13.5324 C   0  0  1  0  0  0  0  0  0  0  0  0
   -9.2796    4.9581   18.2018 C   0  0  0  0  0  0  0  0  0  0  0  0
   -9.8632    4.2307   17.1191 O   0  0  0  0  0  0  0  0  0  0  0  0
   -6.5593   -1.8328   12.9781 C   0  0  0  0  0  0  0  0  0  0  0  0
   -6.1446   -3.0507   13.4100 O   0  0  0  0  0  0  0  0  0  0  0  0
   -5.0362   -0.3245   14.4465 N   0  0  0  0  0  0  0  0  0  0  0  0
   -4.9313    1.0343   14.5250 C   0  0  0  0  0  0  0  0  0  0  0  0
   -5.7846    1.6466   13.6773 N   0  0  1  0  0  0  0  0  0  0  0  0
  -10.8354   -2.9335   18.0486 N   0  0  0  0  0  0  0  0  0  0  0  0
  -10.4303    3.5929   14.4618 O   0  5  0  0  0  0  0  0  0  0  0  0
   -9.9462   -2.5228   18.9939 C   0  0  2  0  0  0  0  0  0  0  0  0
   -9.1625   -3.4442   19.6124 N   0  0  0  0  0  0  0  0  0  0  0  0
  -10.8970    6.2412   15.5601 O   0  0  0  0  0  0  0  0  0  0  0  0
   -9.8164   -1.2134   19.3418 N   0  0  0  0  0  0  0  0  0  0  0  0
  -10.5735   -0.2504   18.7660 C   0  0  2  0  0  0  0  0  0  0  0  0
  -11.5494   -0.6317   17.7365 C   0  0  2  0  0  0  0  0  0  0  0  0
  -11.6405   -2.0679   17.3970 C   0  0  0  0  0  0  0  0  0  0  0  0
  -12.5101   -2.5144   16.4573 O   0  0  0  0  0  0  0  0  0  0  0  0
  -12.1474    0.5064   17.3321 N   0  0  0  0  0  0  0  0  0  0  0  0
  -11.6004    1.5328   18.0492 C   0  0  0  0  0  0  0  0  0  0  0  0
  -10.6577    1.0742   18.9035 N   0  0  1  0  0  0  0  0  0  0  0  0
  1  3  1  1  0  0  0
  1  4  2  0  0  0  0
  1  6  1  0  0  0  0
  1 22  1  0  0  0  0
  2 28  1  0  0  0  0
  2 35  1  6  0  0  0
  2 38  2  0  0  0  0
  2 10  1  0  0  0  0
  5  6  1  0  0  0  0
  7  5  1  1  0  0  0
  7  8  1  0  0  0  0
  7  9  1  0  0  0  0
  9 10  1  6  0  0  0
  9 11  1  0  0  0  0
 11 12  1  6  0  0  0
 11 13  1  0  0  0  0
 13  8  1  1  0  0  0
 13 33  1  0  0  0  0
 14 46  1  0  0  0  0
 14 17  1  0  0  0  0
 14 25  1  6  0  0  0
 15 16  1  0  0  0  0
 15 29  1  0  0  0  0
 16 18  1  1  0  0  0
 16 21  1  0  0  0  0
 17 19  1  1  0  0  0
 17 20  1  0  0  0  0
 20 22  1  1  0  0  0
 20 24  1  0  0  0  0
 23 21  1  1  0  0  0
 23 26  1  0  0  0  0
 23 33  1  0  0  0  0
 24 25  1  6  0  0  0
 24 27  1  0  0  0  0
 26 29  1  6  0  0  0
 26 31  1  0  0  0  0
 27 28  1  0  0  0  0
 29 30  2  0  0  0  0
 31 32  1  0  0  0  0
 33 32  1  6  0  0  0
 34 36  1  0  0  0  0
 34 42  1  0  0  0  0
 36 37  1  1  0  0  0
 36 39  1  0  0  0  0
 40 39  1  6  0  0  0
 40 41  1  0  0  0  0
 40 46  1  0  0  0  0
 41 42  1  6  0  0  0
 41 44  1  0  0  0  0
 42 43  2  0  0  0  0
 44 45  1  0  0  0  0
 46 45  1  1  0  0  0
M  CHG  2   3  -1  35  -1
M  END
>  <CHROM.1>
173.65505069,57.52546201,-8.11979526,1.69465014,16.43459286,-2.74364652,-0.97096113
-2.40431600

>  <Name>
ligand

>  <RI>
-1

>  <Rbt.Current_Directory>
/home/itssahil/PROJECTS/Mol_Feturizer/Test_systems_manuscript/rnas/3mum

>  <Rbt.Executable>
rbdock ($Id: //depot/dev/client3/rdock/2013.1/src/exe/rbdock.cxx#4 $)

>  <Rbt.Library>
libRbt.so (2013.1, Build901 2013/11/27)

>  <Rbt.Parameter_File>
/export/apps/rDock/src/rDock_2013.1_src/data/scripts/dock_solv.prm

>  <Rbt.Receptor>
prm/pocket_docking_5.prm

>  <SCORE>
-39.9207

>  <SCORE.INTER>
-39.9281

>  <SCORE.INTER.CONST>
1

>  <SCORE.INTER.POLAR>
0

>  <SCORE.INTER.ROT>
2

>  <SCORE.INTER.SOLV>
40.0999

>  <SCORE.INTER.VDW>
-44.9187

>  <SCORE.INTER.norm>
-0.868002

>  <SCORE.INTRA>
0.00738837

>  <SCORE.INTRA.DIHEDRAL>
-0.00962019

>  <SCORE.INTRA.DIHEDRAL.0>
2.40424

>  <SCORE.INTRA.POLAR>
0

>  <SCORE.INTRA.POLAR.0>
0

>  <SCORE.INTRA.REPUL>
0

>  <SCORE.INTRA.REPUL.0>
0

>  <SCORE.INTRA.SOLV>
0.0087847

>  <SCORE.INTRA.SOLV.lig_0>
-134.169

>  <SCORE.INTRA.VDW>
0.00780612

>  <SCORE.INTRA.VDW.0>
-2.18386

>  <SCORE.INTRA.norm>
0.000160617

>  <SCORE.RESTR>
0

>  <SCORE.RESTR.CAVITY>
0

>  <SCORE.RESTR.norm>
0

>  <SCORE.SYSTEM>
0

>  <SCORE.SYSTEM.CONST>
0

>  <SCORE.SYSTEM.DIHEDRAL>
0

>  <SCORE.SYSTEM.SOLV>
0

>  <SCORE.SYSTEM.norm>
0

>  <SCORE.heavy>
46

>  <SCORE.norm>
-0.867842

>  <RMSD>
0.251

$$$$
ligand
 OpenBabel02271912143D
libRbt.so/2013.1/901 2013/11/27
 46 52  0  0  0  0  0  0  0  0999 V2000
   -5.2444    2.4905   18.6491 P   0  0  1  0  0  0  0  0  0  0  0  0
   -9.7160    4.8286   15.6136 P   0  0  2  0  0  0  0  0  0  0  0  0
   -5.4082    0.7271   18.7216 O   0  5  0  0  0  0  0  0  0  0  0  0
   -3.7335    3.0429   19.4181 O   0  0  0  0  0  0  0  0  0  0  0  0
   -5.2750    4.3208   16.7327 C   0  0  0  0  0  0  0  0  0  0  0  0
   -5.2806    2.9416   17.1016 O   0  0  0  0  0  0  0  0  0  0  0  0
   -5.7949    4.4438   15.3131 C   0  0  1  0  0  0  0  0  0  0  0  0
   -5.0466    3.5727   14.4532 O   0  0  0  0  0  0  0  0  0  0  0  0
   -7.2455    4.0143   15.1657 C   0  0  1  0  0  0  0  0  0  0  0  0
   -8.1487    5.1037   15.3404 O   0  0  0  0  0  0  0  0  0  0  0  0
   -7.2974    3.4534   13.7555 C   0  0  1  0  0  0  0  0  0  0  0  0
   -7.5939    4.4963   12.8234 O   0  0  0  0  0  0  0  0  0  0  0  0
   -5.8953    2.9424   13.4810 C   0  0  2  0  0  0  0  0  0  0  0  0
   -9.7890    1.9369   19.8810 C   0  0  1  0  0  0  0  0  0  0  0  0
   -7.4751   -1.8491   11.8263 N   0  0  0  0  0  0  0  0  0  0  0  0
   -7.8122   -0.6215   11.3447 C   0  0  1  0  0  0  0  0  0  0  0  0
   -8.3388    1.6588   19.6037 C   0  0  2  0  0  0  0  0  0  0  0  0
   -8.6682   -0.5577   10.2989 N   0  0  0  0  0  0  0  0  0  0  0  0
   -7.7136    1.4683   20.8741 O   0  0  0  0  0  0  0  0  0  0  0  0
   -7.8342    2.9038   18.9015 C   0  0  2  0  0  0  0  0  0  0  0  0
   -7.3257    0.5399   11.8748 N   0  0  0  0  0  0  0  0  0  0  0  0
   -6.5120    3.2348   19.3034 O   0  0  0  0  0  0  0  0  0  0  0  0
   -6.4632    0.5295   12.9224 C   0  0  2  0  0  0  0  0  0  0  0  0
   -8.7940    4.0011   19.3177 C   0  0  2  0  0  0  0  0  0  0  0  0
   -9.9914    3.3408   19.7246 O   0  0  0  0  0  0  0  0  0  0  0  0
   -6.0680   -0.7739   13.4841 C   0  0  1  0  0  0  0  0  0  0  0  0
   -9.1087    4.9731   18.1860 C   0  0  0  0  0  0  0  0  0  0  0  0
   -9.7396    4.2606   17.1200 O   0  0  0  0  0  0  0  0  0  0  0  0
   -6.6258   -1.9916   12.8692 C   0  0  0  0  0  0  0  0  0  0  0  0
   -6.2979   -3.2196   13.3454 O   0  0  0  0  0  0  0  0  0  0  0  0
   -5.2300   -0.5232   14.4960 N   0  0  0  0  0  0  0  0  0  0  0  0
   -5.0939    0.8323   14.5846 C   0  0  0  0  0  0  0  0  0  0  0  0
   -5.8295    1.4661   13.6472 N   0  0  1  0  0  0  0  0  0  0  0  0
  -10.6627   -2.7648   17.7601 N   0  0  0  0  0  0  0  0  0  0  0  0
  -10.3740    3.6205   14.4786 O   0  5  0  0  0  0  0  0  0  0  0  0
   -9.7019   -2.3711   18.6403 C   0  0  2  0  0  0  0  0  0  0  0  0
   -8.7985   -3.2820   19.0875 N   0  0  0  0  0  0  0  0  0  0  0  0
  -10.7089    6.2979   15.5545 O   0  0  0  0  0  0  0  0  0  0  0  0
   -9.6167   -1.0893   19.0897 N   0  0  0  0  0  0  0  0  0  0  0  0
  -10.4916   -0.1388   18.6858 C   0  0  2  0  0  0  0  0  0  0  0  0
  -11.5495   -0.5025   17.7338 C   0  0  2  0  0  0  0  0  0  0  0  0
  -11.5876   -1.9082   17.2772 C   0  0  0  0  0  0  0  0  0  0  0  0
  -12.5260   -2.3365   16.3972 O   0  0  0  0  0  0  0  0  0  0  0  0
  -12.2586    0.6193   17.4989 N   0  0  0  0  0  0  0  0  0  0  0  0
  -11.7011    1.6193   18.2447 C   0  0  0  0  0  0  0  0  0  0  0  0
  -10.6429    1.1602   18.9506 N   0  0  1  0  0  0  0  0  0  0  0  0
  1  3  1  1  0  0  0
  1  4  2  0  0  0  0
  1  6  1  0  0  0  0
  1 22  1  0  0  0  0
  2 28  1  0  0  0  0
  2 35  1  6  0  0  0
  2 38  2  0  0  0  0
  2 10  1  0  0  0  0
  5  6  1  0  0  0  0
  7  5  1  1  0  0  0
  7  8  1  0  0  0  0
  7  9  1  0  0  0  0
  9 10  1  6  0  0  0
  9 11  1  0  0  0  0
 11 12  1  6  0  0  0
 11 13  1  0  0  0  0
 13  8  1  1  0  0  0
 13 33  1  0  0  0  0
 14 46  1  0  0  0  0
 14 17  1  0  0  0  0
 14 25  1  6  0  0  0
 15 16  1  0  0  0  0
 15 29  1  0  0  0  0
 16 18  1  1  0  0  0
 16 21  1  0  0  0  0
 17 19  1  1  0  0  0
 17 20  1  0  0  0  0
 20 22  1  1  0  0  0
 20 24  1  0  0  0  0
 23 21  1  1  0  0  0
 23 26  1  0  0  0  0
 23 33  1  0  0  0  0
 24 25  1  6  0  0  0
 24 27  1  0  0  0  0
 26 29  1  6  0  0  0
 26 31  1  0  0  0  0
 27 28  1  0  0  0  0
 29 30  2  0  0  0  0
 31 32  1  0  0  0  0
 33 32  1  6  0  0  0
 34 36  1  0  0  0  0
 34 42  1  0  0  0  0
 36 37  1  1  0  0  0
 36 39  1  0  0  0  0
 40 39  1  6  0  0  0
 40 41  1  0  0  0  0
 40 46  1  0  0  0  0
 41 42  1  6  0  0  0
 41 44  1  0  0  0  0
 42 43  2  0  0  0  0
 44 45  1  0  0  0  0
 46 45  1  1  0  0  0
M  CHG  2   3  -1  35  -1
M  END
>  <CHROM.1>
-179.07846752,47.51089285,-8.05232935,1.65114582,16.36985838,-2.25085949
-0.95768792,-2.40244533

>  <Name>
ligand

>  <RI>
416

>  <Rbt.Current_Directory>
/home/itssahil/PROJECTS/Mol_Feturizer/Test_systems_manuscript/rnas/3mum

>  <Rbt.Executable>
rbdock ($Id: //depot/dev/client3/rdock/2013.1/src/exe/rbdock.cxx#4 $)

>  <Rbt.Library>
libRbt.so (2013.1, Build901 2013/11/27)

>  <Rbt.Parameter_File>
/export/apps/rDock/src/rDock_2013.1_src/data/scripts/dock_solv.prm

>  <Rbt.Receptor>
prm/pocket_docking_2.prm

>  <SCORE>
-40.3703

>  <SCORE.INTER>
-40.4594

>  <SCORE.INTER.CONST>
1

>  <SCORE.INTER.POLAR>
0

>  <SCORE.INTER.ROT>
2

>  <SCORE.INTER.SOLV>
39.3749

>  <SCORE.INTER.VDW>
-45.0313

>  <SCORE.INTER.norm>
-0.879553

>  <SCORE.INTRA>
0.0891131

>  <SCORE.INTRA.DIHEDRAL>
-0.0213484

>  <SCORE.INTRA.DIHEDRAL.0>
2.40424

>  <SCORE.INTRA.POLAR>
0

>  <SCORE.INTRA.POLAR.0>
0

>  <SCORE.INTRA.REPUL>
0

>  <SCORE.INTRA.REPUL.0>
0

>  <SCORE.INTRA.SOLV>
0.0198075

>  <SCORE.INTRA.SOLV.lig_0>
-134.169

>  <SCORE.INTRA.VDW>
0.0898835

>  <SCORE.INTRA.VDW.0>
-2.18386

>  <SCORE.INTRA.norm>
0.00193724

>  <SCORE.RESTR>
0

>  <SCORE.RESTR.CAVITY>
0

>  <SCORE.RESTR.norm>
0

>  <SCORE.SYSTEM>
0

>  <SCORE.SYSTEM.CONST>
0

>  <SCORE.SYSTEM.DIHEDRAL>
0

>  <SCORE.SYSTEM.SOLV>
0

>  <SCORE.SYSTEM.norm>
0

>  <SCORE.heavy>
46

>  <SCORE.norm>
-0.877616

>  <RMSD>
0.253

$$$$
ligand
 OpenBabel02271912143D
libRbt.so/2013.1/901 2013/11/27
 46 52  0  0  0  0  0  0  0  0999 V2000
   -5.2294    2.4675   18.6215 P   0  0  1  0  0  0  0  0  0  0  0  0
   -9.7038    4.8319   15.6106 P   0  0  2  0  0  0  0  0  0  0  0  0
   -5.4026    0.7049   18.6941 O   0  5  0  0  0  0  0  0  0  0  0  0
   -3.7114    3.0110   19.3827 O   0  0  0  0  0  0  0  0  0  0  0  0
   -5.2599    4.2988   16.7061 C   0  0  0  0  0  0  0  0  0  0  0  0
   -5.2712    2.9195   17.0745 O   0  0  0  0  0  0  0  0  0  0  0  0
   -5.7865    4.4254   15.2893 C   0  0  1  0  0  0  0  0  0  0  0  0
   -5.0477    3.5506   14.4252 O   0  0  0  0  0  0  0  0  0  0  0  0
   -7.2402    4.0041   15.1493 C   0  0  1  0  0  0  0  0  0  0  0  0
   -8.1364    5.0984   15.3293 O   0  0  0  0  0  0  0  0  0  0  0  0
   -7.3027    3.4441   13.7392 C   0  0  1  0  0  0  0  0  0  0  0  0
   -7.5983    4.4891   12.8092 O   0  0  0  0  0  0  0  0  0  0  0  0
   -5.9049    2.9255   13.4571 C   0  0  2  0  0  0  0  0  0  0  0  0
   -9.7704    1.9386   19.8770 C   0  0  1  0  0  0  0  0  0  0  0  0
   -7.4848   -1.8582   11.7798 N   0  0  0  0  0  0  0  0  0  0  0  0
   -7.8120   -0.6288   11.2961 C   0  0  1  0  0  0  0  0  0  0  0  0
   -8.3233    1.6526   19.5920 C   0  0  2  0  0  0  0  0  0  0  0  0
   -8.6564   -0.5605   10.2411 N   0  0  0  0  0  0  0  0  0  0  0  0
   -7.6925    1.4580   20.8590 O   0  0  0  0  0  0  0  0  0  0  0  0
   -7.8155    2.8951   18.8877 C   0  0  2  0  0  0  0  0  0  0  0  0
   -7.3269    0.5302   11.8327 N   0  0  0  0  0  0  0  0  0  0  0  0
   -6.4894    3.2185   19.2828 O   0  0  0  0  0  0  0  0  0  0  0  0
   -6.4758    0.5154   12.8896 C   0  0  2  0  0  0  0  0  0  0  0  0
   -8.7669    3.9975   19.3095 C   0  0  2  0  0  0  0  0  0  0  0  0
   -9.9658    3.3437   19.7223 O   0  0  0  0  0  0  0  0  0  0  0  0
   -6.0916   -0.7901   13.4540 C   0  0  1  0  0  0  0  0  0  0  0  0
   -9.0821    4.9718   18.1799 C   0  0  0  0  0  0  0  0  0  0  0  0
   -9.7226    4.2633   17.1169 O   0  0  0  0  0  0  0  0  0  0  0  0
   -6.6473   -2.0051   12.8317 C   0  0  0  0  0  0  0  0  0  0  0  0
   -6.3293   -3.2348   13.3100 O   0  0  0  0  0  0  0  0  0  0  0  0
   -5.2637   -0.5437   14.4752 N   0  0  0  0  0  0  0  0  0  0  0  0
   -5.1235    0.8111   14.5669 C   0  0  0  0  0  0  0  0  0  0  0  0
   -5.8465    1.4488   13.6223 N   0  0  1  0  0  0  0  0  0  0  0  0
  -10.7171   -2.7695   17.8021 N   0  0  0  0  0  0  0  0  0  0  0  0
  -10.3745    3.6281   14.4785 O   0  5  0  0  0  0  0  0  0  0  0  0
   -9.7537   -2.3834   18.6828 C   0  0  2  0  0  0  0  0  0  0  0  0
   -8.8686   -3.3052   19.1442 N   0  0  0  0  0  0  0  0  0  0  0  0
  -10.6888    6.3067   15.5574 O   0  0  0  0  0  0  0  0  0  0  0  0
   -9.6480   -1.0985   19.1189 N   0  0  0  0  0  0  0  0  0  0  0  0
  -10.5040   -0.1371   18.7006 C   0  0  2  0  0  0  0  0  0  0  0  0
  -11.5637   -0.4923   17.7474 C   0  0  2  0  0  0  0  0  0  0  0  0
  -11.6244   -1.9020   17.3056 C   0  0  0  0  0  0  0  0  0  0  0  0
  -12.5661   -2.3231   16.4256 O   0  0  0  0  0  0  0  0  0  0  0  0
  -12.2517    0.6392   17.4970 N   0  0  0  0  0  0  0  0  0  0  0  0
  -11.6801    1.6371   18.2348 C   0  0  0  0  0  0  0  0  0  0  0  0
  -10.6335    1.1671   18.9508 N   0  0  1  0  0  0  0  0  0  0  0  0
  1  3  1  1  0  0  0
  1  4  2  0  0  0  0
  1  6  1  0  0  0  0
  1 22  1  0  0  0  0
  2 28  1  0  0  0  0
  2 35  1  6  0  0  0
  2 38  2  0  0  0  0
  2 10  1  0  0  0  0
  5  6  1  0  0  0  0
  7  5  1  1  0  0  0
  7  8  1  0  0  0  0
  7  9  1  0  0  0  0
  9 10  1  6  0  0  0
  9 11  1  0  0  0  0
 11 12  1  6  0  0  0
 11 13  1  0  0  0  0
 13  8  1  1  0  0  0
 13 33  1  0  0  0  0
 14 46  1  0  0  0  0
 14 17  1  0  0  0  0
 14 25  1  6  0  0  0
 15 16  1  0  0  0  0
 15 29  1  0  0  0  0
 16 18  1  1  0  0  0
 16 21  1  0  0  0  0
 17 19  1  1  0  0  0
 17 20  1  0  0  0  0
 20 22  1  1  0  0  0
 20 24  1  0  0  0  0
 23 21  1  1  0  0  0
 23 26  1  0  0  0  0
 23 33  1  0  0  0  0
 24 25  1  6  0  0  0
 24 27  1  0  0  0  0
 26 29  1  6  0  0  0
 26 31  1  0  0  0  0
 27 28  1  0  0  0  0
 29 30  2  0  0  0  0
 31 32  1  0  0  0  0
 33 32  1  6  0  0  0
 34 36  1  0  0  0  0
 34 42  1  0  0  0  0
 36 37  1  1  0  0  0
 36 39  1  0  0  0  0
 40 39  1  6  0  0  0
 40 41  1  0  0  0  0
 40 46  1  0  0  0  0
 41 42  1  6  0  0  0
 41 44  1  0  0  0  0
 42 43  2  0  0  0  0
 44 45  1  0  0  0  0
 46 45  1  1  0  0  0
M  CHG  2   3  -1  35  -1
M  END
>  <CHROM.1>
-178.15030305,48.61677252,-8.05400161,1.64331782,16.35834412,-2.27130348
-0.95904373,-2.39382590

>  <Name>
ligand

>  <RI>
416

>  <Rbt.Current_Directory>
/home/itssahil/PROJECTS/Mol_Feturizer/Test_systems_manuscript/rnas/3mum

>  <Rbt.Executable>
rbdock ($Id: //depot/dev/client3/rdock/2013.1/src/exe/rbdock.cxx#4 $)

>  <Rbt.Library>
libRbt.so (2013.1, Build901 2013/11/27)

>  <Rbt.Parameter_File>
/export/apps/rDock/src/rDock_2013.1_src/data/scripts/dock_solv.prm

>  <Rbt.Receptor>
prm/pocket_docking_2.prm

>  <SCORE>
-40.3834

>  <SCORE.INTER>
-40.4625

>  <SCORE.INTER.CONST>
1

>  <SCORE.INTER.POLAR>
0

>  <SCORE.INTER.ROT>
2

>  <SCORE.INTER.SOLV>
39.6298

>  <SCORE.INTER.VDW>
-45.1182

>  <SCORE.INTER.norm>
-0.879619

>  <SCORE.INTRA>
0.079081

>  <SCORE.INTRA.DIHEDRAL>
-0.0199005

>  <SCORE.INTRA.DIHEDRAL.0>
2.40424

>  <SCORE.INTRA.POLAR>
0

>  <SCORE.INTRA.POLAR.0>
0

>  <SCORE.INTRA.REPUL>
0

>  <SCORE.INTRA.REPUL.0>
0

>  <SCORE.INTRA.SOLV>
0.0181678

>  <SCORE.INTRA.SOLV.lig_0>
-134.169

>  <SCORE.INTRA.VDW>
0.0799474

>  <SCORE.INTRA.VDW.0>
-2.18386

>  <SCORE.INTRA.norm>
0.00171915

>  <SCORE.RESTR>
0

>  <SCORE.RESTR.CAVITY>
0

>  <SCORE.RESTR.norm>
0

>  <SCORE.SYSTEM>
0

>  <SCORE.SYSTEM.CONST>
0

>  <SCORE.SYSTEM.DIHEDRAL>
0

>  <SCORE.SYSTEM.SOLV>
0

>  <SCORE.SYSTEM.norm>
0

>  <SCORE.heavy>
46

>  <SCORE.norm>
-0.8779

>  <RMSD>
0.253

$$$$
ligand
 OpenBabel02271912143D
libRbt.so/2013.1/901 2013/11/27
 46 52  0  0  0  0  0  0  0  0999 V2000
   -5.1594    2.5309   18.6326 P   0  0  1  0  0  0  0  0  0  0  0  0
   -9.6665    4.8691   15.6502 P   0  0  2  0  0  0  0  0  0  0  0  0
   -5.2988    0.7643   18.6691 O   0  5  0  0  0  0  0  0  0  0  0  0
   -3.6553    3.0881   19.4113 O   0  0  0  0  0  0  0  0  0  0  0  0
   -5.2175    4.3995   16.7543 C   0  0  0  0  0  0  0  0  0  0  0  0
   -5.2037    3.0131   17.0948 O   0  0  0  0  0  0  0  0  0  0  0  0
   -5.7408    4.5445   15.3380 C   0  0  1  0  0  0  0  0  0  0  0  0
   -4.9818    3.7016   14.4597 O   0  0  0  0  0  0  0  0  0  0  0  0
   -7.1856    4.0982   15.1832 C   0  0  1  0  0  0  0  0  0  0  0  0
   -8.1035    5.1712   15.3812 O   0  0  0  0  0  0  0  0  0  0  0  0
   -7.2316    3.5656   13.7619 C   0  0  1  0  0  0  0  0  0  0  0  0
   -7.5436    4.6233   12.8517 O   0  0  0  0  0  0  0  0  0  0  0  0
   -5.8229    3.0797   13.4756 C   0  0  2  0  0  0  0  0  0  0  0  0
   -9.6943    1.8897   19.8574 C   0  0  1  0  0  0  0  0  0  0  0  0
   -7.6068   -1.6908   11.9745 N   0  0  0  0  0  0  0  0  0  0  0  0
   -8.0032   -0.4572   11.5580 C   0  0  1  0  0  0  0  0  0  0  0  0
   -8.2408    1.6373   19.5731 C   0  0  2  0  0  0  0  0  0  0  0  0
   -8.9880   -0.3801   10.6335 N   0  0  0  0  0  0  0  0  0  0  0  0
   -7.6115    1.4294   20.8387 O   0  0  0  0  0  0  0  0  0  0  0  0
   -7.7543    2.9033   18.8960 C   0  0  2  0  0  0  0  0  0  0  0  0
   -7.4513    0.6976   12.0362 N   0  0  0  0  0  0  0  0  0  0  0  0
   -6.4363    3.2441   19.3034 O   0  0  0  0  0  0  0  0  0  0  0  0
   -6.4597    0.6739   12.9624 C   0  0  2  0  0  0  0  0  0  0  0  0
   -8.7285    3.9785   19.3356 C   0  0  2  0  0  0  0  0  0  0  0  0
   -9.9162    3.2936   19.7300 O   0  0  0  0  0  0  0  0  0  0  0  0
   -5.9953   -0.6365   13.4497 C   0  0  1  0  0  0  0  0  0  0  0  0
   -9.0579    4.9691   18.2245 C   0  0  0  0  0  0  0  0  0  0  0  0
   -9.6804    4.2699   17.1447 O   0  0  0  0  0  0  0  0  0  0  0  0
   -6.6289   -1.8464   12.8960 C   0  0  0  0  0  0  0  0  0  0  0  0
   -6.2424   -3.0804   13.3084 O   0  0  0  0  0  0  0  0  0  0  0  0
   -5.0326   -0.3986   14.3473 N   0  0  0  0  0  0  0  0  0  0  0  0
   -4.8856    0.9557   14.4362 C   0  0  0  0  0  0  0  0  0  0  0  0
   -5.7367    1.6014   13.6114 N   0  0  1  0  0  0  0  0  0  0  0  0
  -10.9663   -2.8847   18.1381 N   0  0  0  0  0  0  0  0  0  0  0  0
  -10.3093    3.6756   14.4913 O   0  5  0  0  0  0  0  0  0  0  0  0
  -10.0639   -2.5121   19.0867 C   0  0  2  0  0  0  0  0  0  0  0  0
   -9.3494   -3.4689   19.7348 N   0  0  0  0  0  0  0  0  0  0  0  0
  -10.6796    6.3254   15.6223 O   0  0  0  0  0  0  0  0  0  0  0  0
   -9.8534   -1.2067   19.4091 N   0  0  0  0  0  0  0  0  0  0  0  0
  -10.5392   -0.2093   18.8033 C   0  0  2  0  0  0  0  0  0  0  0  0
  -11.5251   -0.5487   17.7687 C   0  0  2  0  0  0  0  0  0  0  0  0
  -11.7053   -1.9829   17.4578 C   0  0  0  0  0  0  0  0  0  0  0  0
  -12.5905   -2.3923   16.5158 O   0  0  0  0  0  0  0  0  0  0  0  0
  -12.0428    0.6167   17.3327 N   0  0  0  0  0  0  0  0  0  0  0  0
  -11.4390    1.6208   18.0357 C   0  0  0  0  0  0  0  0  0  0  0  0
  -10.5387    1.1206   18.9121 N   0  0  1  0  0  0  0  0  0  0  0  0
  1  3  1  1  0  0  0
  1  4  2  0  0  0  0
  1  6  1  0  0  0  0
  1 22  1  0  0  0  0
  2 28  1  0  0  0  0
  2 35  1  6  0  0  0
  2 38  2  0  0  0  0
  2 10  1  0  0  0  0
  5  6  1  0  0  0  0
  7  5  1  1  0  0  0
  7  8  1  0  0  0  0
  7  9  1  0  0  0  0
  9 10  1  6  0  0  0
  9 11  1  0  0  0  0
 11 12  1  6  0  0  0
 11 13  1  0  0  0  0
 13  8  1  1  0  0  0
 13 33  1  0  0  0  0
 14 46  1  0  0  0  0
 14 17  1  0  0  0  0
 14 25  1  6  0  0  0
 15 16  1  0  0  0  0
 15 29  1  0  0  0  0
 16 18  1  1  0  0  0
 16 21  1  0  0  0  0
 17 19  1  1  0  0  0
 17 20  1  0  0  0  0
 20 22  1  1  0  0  0
 20 24  1  0  0  0  0
 23 21  1  1  0  0  0
 23 26  1  0  0  0  0
 23 33  1  0  0  0  0
 24 25  1  6  0  0  0
 24 27  1  0  0  0  0
 26 29  1  6  0  0  0
 26 31  1  0  0  0  0
 27 28  1  0  0  0  0
 29 30  2  0  0  0  0
 31 32  1  0  0  0  0
 33 32  1  6  0  0  0
 34 36  1  0  0  0  0
 34 42  1  0  0  0  0
 36 37  1  1  0  0  0
 36 39  1  0  0  0  0
 40 39  1  6  0  0  0
 40 41  1  0  0  0  0
 40 46  1  0  0  0  0
 41 42  1  6  0  0  0
 41 44  1  0  0  0  0
 42 43  2  0  0  0  0
 44 45  1  0  0  0  0
 46 45  1  1  0  0  0
M  CHG  2   3  -1  35  -1
M  END
>  <CHROM.1>
173.45635165,60.70250194,-8.03775310,1.68925442,16.42083354,-0.38924603,0.95893091
0.80375190

>  <Name>
ligand

>  <RI>
-1

>  <Rbt.Current_Directory>
/home/itssahil/PROJECTS/Mol_Feturizer/Test_systems_manuscript/rnas/3mum

>  <Rbt.Executable>
rbdock ($Id: //depot/dev/client3/rdock/2013.1/src/exe/rbdock.cxx#4 $)

>  <Rbt.Library>
libRbt.so (2013.1, Build901 2013/11/27)

>  <Rbt.Parameter_File>
/export/apps/rDock/src/rDock_2013.1_src/data/scripts/dock_solv.prm

>  <Rbt.Receptor>
prm/pocket_docking_4.prm

>  <SCORE>
-39.394

>  <SCORE.INTER>
-39.3977

>  <SCORE.INTER.CONST>
1

>  <SCORE.INTER.POLAR>
0

>  <SCORE.INTER.ROT>
2

>  <SCORE.INTER.SOLV>
40.3837

>  <SCORE.INTER.VDW>
-44.6597

>  <SCORE.INTER.norm>
-0.856471

>  <SCORE.INTRA>
0.00360984

>  <SCORE.INTRA.DIHEDRAL>
-0.00508535

>  <SCORE.INTRA.DIHEDRAL.0>
2.40424

>  <SCORE.INTRA.POLAR>
0

>  <SCORE.INTRA.POLAR.0>
0

>  <SCORE.INTRA.REPUL>
0

>  <SCORE.INTRA.REPUL.0>
0

>  <SCORE.INTRA.SOLV>
0.00393362

>  <SCORE.INTRA.SOLV.lig_0>
-134.169

>  <SCORE.INTRA.VDW>
0.00418571

>  <SCORE.INTRA.VDW.0>
-2.18386

>  <SCORE.INTRA.norm>
7.84748e-05

>  <SCORE.RESTR>
0

>  <SCORE.RESTR.CAVITY>
0

>  <SCORE.RESTR.norm>
0

>  <SCORE.SYSTEM>
0

>  <SCORE.SYSTEM.CONST>
0

>  <SCORE.SYSTEM.DIHEDRAL>
0

>  <SCORE.SYSTEM.SOLV>
0

>  <SCORE.SYSTEM.norm>
0

>  <SCORE.heavy>
46

>  <SCORE.norm>
-0.856392

>  <RMSD>
0.253

$$$$
ligand
 OpenBabel02271912143D
libRbt.so/2013.1/901 2013/11/27
 46 52  0  0  0  0  0  0  0  0999 V2000
   -5.2461    2.4734   18.6445 P   0  0  1  0  0  0  0  0  0  0  0  0
   -9.7053    4.8373   15.6108 P   0  0  2  0  0  0  0  0  0  0  0  0
   -5.4203    0.7110   18.7176 O   0  5  0  0  0  0  0  0  0  0  0  0
   -3.7315    3.0170   19.4125 O   0  0  0  0  0  0  0  0  0  0  0  0
   -5.2668    4.3033   16.7276 C   0  0  0  0  0  0  0  0  0  0  0  0
   -5.2804    2.9243   17.0970 O   0  0  0  0  0  0  0  0  0  0  0  0
   -5.7867    4.4291   15.3083 C   0  0  1  0  0  0  0  0  0  0  0  0
   -5.0442    3.5533   14.4483 O   0  0  0  0  0  0  0  0  0  0  0  0
   -7.2399    4.0082   15.1618 C   0  0  1  0  0  0  0  0  0  0  0  0
   -8.1365    5.1030   15.3367 O   0  0  0  0  0  0  0  0  0  0  0  0
   -7.2960    3.4471   13.7518 C   0  0  1  0  0  0  0  0  0  0  0  0
   -7.5868    4.4916   12.8196 O   0  0  0  0  0  0  0  0  0  0  0  0
   -5.8970    2.9277   13.4767 C   0  0  2  0  0  0  0  0  0  0  0  0
   -9.7932    1.9473   19.8790 C   0  0  1  0  0  0  0  0  0  0  0  0
   -7.4783   -1.8562   11.8015 N   0  0  0  0  0  0  0  0  0  0  0  0
   -7.8039   -0.6270   11.3162 C   0  0  1  0  0  0  0  0  0  0  0  0
   -8.3448    1.6604   19.6011 C   0  0  2  0  0  0  0  0  0  0  0  0
   -8.6468   -0.5590   10.2600 N   0  0  0  0  0  0  0  0  0  0  0  0
   -7.7201    1.4666   20.8712 O   0  0  0  0  0  0  0  0  0  0  0  0
   -7.8333    2.9022   18.8982 C   0  0  2  0  0  0  0  0  0  0  0  0
   -7.3186    0.5321   11.8525 N   0  0  0  0  0  0  0  0  0  0  0  0
   -6.5089    3.2255   19.2993 O   0  0  0  0  0  0  0  0  0  0  0  0
   -6.4690    0.5176   12.9106 C   0  0  2  0  0  0  0  0  0  0  0  0
   -8.7862    4.0054   19.3147 C   0  0  2  0  0  0  0  0  0  0  0  0
   -9.9873    3.3523   19.7224 O   0  0  0  0  0  0  0  0  0  0  0  0
   -6.0866   -0.7877   13.4766 C   0  0  1  0  0  0  0  0  0  0  0  0
   -9.0957    4.9789   18.1829 C   0  0  0  0  0  0  0  0  0  0  0  0
   -9.7314    4.2698   17.1175 O   0  0  0  0  0  0  0  0  0  0  0  0
   -6.6424   -2.0028   12.8547 C   0  0  0  0  0  0  0  0  0  0  0  0
   -6.3259   -3.2323   13.3345 O   0  0  0  0  0  0  0  0  0  0  0  0
   -5.2599   -0.5410   14.4987 N   0  0  0  0  0  0  0  0  0  0  0  0
   -5.1187    0.8137   14.5894 C   0  0  0  0  0  0  0  0  0  0  0  0
   -5.8400    1.4512   13.6433 N   0  0  1  0  0  0  0  0  0  0  0  0
  -10.7363   -2.7635   17.8085 N   0  0  0  0  0  0  0  0  0  0  0  0
  -10.3712    3.6328   14.4765 O   0  5  0  0  0  0  0  0  0  0  0  0
   -9.7774   -2.3773   18.6941 C   0  0  2  0  0  0  0  0  0  0  0  0
   -8.8967   -3.2998   19.1626 N   0  0  0  0  0  0  0  0  0  0  0  0
  -10.6895    6.3124   15.5518 O   0  0  0  0  0  0  0  0  0  0  0  0
   -9.6718   -1.0917   19.1281 N   0  0  0  0  0  0  0  0  0  0  0  0
  -10.5236   -0.1296   18.7027 C   0  0  2  0  0  0  0  0  0  0  0  0
  -11.5783   -0.4848   17.7440 C   0  0  2  0  0  0  0  0  0  0  0  0
  -11.6390   -1.8953   17.3048 C   0  0  0  0  0  0  0  0  0  0  0  0
  -12.5763   -2.3166   16.4201 O   0  0  0  0  0  0  0  0  0  0  0  0
  -12.2627    0.6474   17.4871 N   0  0  0  0  0  0  0  0  0  0  0  0
  -11.6937    1.6458   18.2262 C   0  0  0  0  0  0  0  0  0  0  0  0
  -10.6522    1.1754   18.9494 N   0  0  1  0  0  0  0  0  0  0  0  0
  1  3  1  1  0  0  0
  1  4  2  0  0  0  0
  1  6  1  0  0  0  0
  1 22  1  0  0  0  0
  2 28  1  0  0  0  0
  2 35  1  6  0  0  0
  2 38  2  0  0  0  0
  2 10  1  0  0  0  0
  5  6  1  0  0  0  0
  7  5  1  1  0  0  0
  7  8  1  0  0  0  0
  7  9  1  0  0  0  0
  9 10  1  6  0  0  0
  9 11  1  0  0  0  0
 11 12  1  6  0  0  0
 11 13  1  0  0  0  0
 13  8  1  1  0  0  0
 13 33  1  0  0  0  0
 14 46  1  0  0  0  0
 14 17  1  0  0  0  0
 14 25  1  6  0  0  0
 15 16  1  0  0  0  0
 15 29  1  0  0  0  0
 16 18  1  1  0  0  0
 16 21  1  0  0  0  0
 17 19  1  1  0  0  0
 17 20  1  0  0  0  0
 20 22  1  1  0  0  0
 20 24  1  0  0  0  0
 23 21  1  1  0  0  0
 23 26  1  0  0  0  0
 23 33  1  0  0  0  0
 24 25  1  6  0  0  0
 24 27  1  0  0  0  0
 26 29  1  6  0  0  0
 26 31  1  0  0  0  0
 27 28  1  0  0  0  0
 29 30  2  0  0  0  0
 31 32  1  0  0  0  0
 33 32  1  6  0  0  0
 34 36  1  0  0  0  0
 34 42  1  0  0  0  0
 36 37  1  1  0  0  0
 36 39  1  0  0  0  0
 40 39  1  6  0  0  0
 40 41  1  0  0  0  0
 40 46  1  0  0  0  0
 41 42  1  6  0  0  0
 41 44  1  0  0  0  0
 42 43  2  0  0  0  0
 44 45  1  0  0  0  0
 46 45  1  1  0  0  0
M  CHG  2   3  -1  35  -1
M  END
>  <CHROM.1>
-178.34335367,48.74963545,-8.06157216,1.64851936,16.36994219,-2.27957671
-0.95526567,-2.39763214

>  <Name>
ligand

>  <RI>
416

>  <Rbt.Current_Directory>
/home/itssahil/PROJECTS/Mol_Feturizer/Test_systems_manuscript/rnas/3mum

>  <Rbt.Executable>
rbdock ($Id: //depot/dev/client3/rdock/2013.1/src/exe/rbdock.cxx#4 $)

>  <Rbt.Library>
libRbt.so (2013.1, Build901 2013/11/27)

>  <Rbt.Parameter_File>
/export/apps/rDock/src/rDock_2013.1_src/data/scripts/dock_solv.prm

>  <Rbt.Receptor>
prm/pocket_docking_2.prm

>  <SCORE>
-40.3433

>  <SCORE.INTER>
-40.4212

>  <SCORE.INTER.CONST>
1

>  <SCORE.INTER.POLAR>
0

>  <SCORE.INTER.ROT>
2

>  <SCORE.INTER.SOLV>
39.4822

>  <SCORE.INTER.VDW>
-45.0415

>  <SCORE.INTER.norm>
-0.878721

>  <SCORE.INTRA>
0.0779056

>  <SCORE.INTRA.DIHEDRAL>
-0.0197803

>  <SCORE.INTRA.DIHEDRAL.0>
2.40424

>  <SCORE.INTRA.POLAR>
0

>  <SCORE.INTRA.POLAR.0>
0

>  <SCORE.INTRA.REPUL>
0

>  <SCORE.INTRA.REPUL.0>
0

>  <SCORE.INTRA.SOLV>
0.0180674

>  <SCORE.INTRA.SOLV.lig_0>
-134.169

>  <SCORE.INTRA.VDW>
0.0787621

>  <SCORE.INTRA.VDW.0>
-2.18386

>  <SCORE.INTRA.norm>
0.0016936

>  <SCORE.RESTR>
0

>  <SCORE.RESTR.CAVITY>
0

>  <SCORE.RESTR.norm>
0

>  <SCORE.SYSTEM>
0

>  <SCORE.SYSTEM.CONST>
0

>  <SCORE.SYSTEM.DIHEDRAL>
0

>  <SCORE.SYSTEM.SOLV>
0

>  <SCORE.SYSTEM.norm>
0

>  <SCORE.heavy>
46

>  <SCORE.norm>
-0.877027

>  <RMSD>
0.254

$$$$
ligand
 OpenBabel02271912143D
libRbt.so/2013.1/901 2013/11/27
 46 52  0  0  0  0  0  0  0  0999 V2000
   -5.2548    2.4942   18.6957 P   0  0  1  0  0  0  0  0  0  0  0  0
   -9.7133    4.8389   15.6461 P   0  0  2  0  0  0  0  0  0  0  0  0
   -5.4206    0.7309   18.7666 O   0  5  0  0  0  0  0  0  0  0  0  0
   -3.7460    3.0445   19.4703 O   0  0  0  0  0  0  0  0  0  0  0  0
   -5.2767    4.3257   16.7804 C   0  0  0  0  0  0  0  0  0  0  0  0
   -5.2850    2.9462   17.1485 O   0  0  0  0  0  0  0  0  0  0  0  0
   -5.7915    4.4501   15.3590 C   0  0  1  0  0  0  0  0  0  0  0  0
   -5.0412    3.5787   14.5013 O   0  0  0  0  0  0  0  0  0  0  0  0
   -7.2420    4.0222   15.2063 C   0  0  1  0  0  0  0  0  0  0  0  0
   -8.1447    5.1125   15.3785 O   0  0  0  0  0  0  0  0  0  0  0  0
   -7.2897    3.4622   13.7956 C   0  0  1  0  0  0  0  0  0  0  0  0
   -7.5818    4.5060   12.8631 O   0  0  0  0  0  0  0  0  0  0  0  0
   -5.8871    2.9499   13.5257 C   0  0  2  0  0  0  0  0  0  0  0  0
   -9.8042    1.9447   19.9114 C   0  0  1  0  0  0  0  0  0  0  0  0
   -7.4626   -1.8391   11.8596 N   0  0  0  0  0  0  0  0  0  0  0  0
   -7.7962   -0.6109   11.3772 C   0  0  1  0  0  0  0  0  0  0  0  0
   -8.3533    1.6652   19.6391 C   0  0  2  0  0  0  0  0  0  0  0  0
   -8.6467   -0.5456   10.3270 N   0  0  0  0  0  0  0  0  0  0  0  0
   -7.7328    1.4733   20.9116 O   0  0  0  0  0  0  0  0  0  0  0  0
   -7.8450    2.9101   18.9394 C   0  0  2  0  0  0  0  0  0  0  0  0
   -7.3113    0.5498   11.9105 N   0  0  0  0  0  0  0  0  0  0  0  0
   -6.5238    3.2394   19.3461 O   0  0  0  0  0  0  0  0  0  0  0  0
   -6.4542    0.5379   12.9626 C   0  0  2  0  0  0  0  0  0  0  0  0
   -8.8050    4.0082   19.3529 C   0  0  2  0  0  0  0  0  0  0  0  0
  -10.0045    3.3488   19.7552 O   0  0  0  0  0  0  0  0  0  0  0  0
   -6.0631   -0.7662   13.5254 C   0  0  1  0  0  0  0  0  0  0  0  0
   -9.1147    4.9811   18.2207 C   0  0  0  0  0  0  0  0  0  0  0  0
   -9.7427    4.2699   17.1521 O   0  0  0  0  0  0  0  0  0  0  0  0
   -6.6188   -1.9831   12.9069 C   0  0  0  0  0  0  0  0  0  0  0  0
   -6.2944   -3.2117   13.3838 O   0  0  0  0  0  0  0  0  0  0  0  0
   -5.2301   -0.5170   14.5417 N   0  0  0  0  0  0  0  0  0  0  0  0
   -5.0932    0.8383   14.6320 C   0  0  0  0  0  0  0  0  0  0  0  0
   -5.8235    1.4735   13.6913 N   0  0  1  0  0  0  0  0  0  0  0  0
  -10.6691   -2.7526   17.7769 N   0  0  0  0  0  0  0  0  0  0  0  0
  -10.3686    3.6321   14.5080 O   0  5  0  0  0  0  0  0  0  0  0  0
   -9.7103   -2.3601   18.6598 C   0  0  2  0  0  0  0  0  0  0  0  0
   -8.8065   -3.2711   19.1062 N   0  0  0  0  0  0  0  0  0  0  0  0
  -10.7044    6.3092   15.5844 O   0  0  0  0  0  0  0  0  0  0  0  0
   -9.6272   -1.0793   19.1127 N   0  0  0  0  0  0  0  0  0  0  0  0
  -10.5025   -0.1287   18.7097 C   0  0  2  0  0  0  0  0  0  0  0  0
  -11.5584   -0.4911   17.7551 C   0  0  2  0  0  0  0  0  0  0  0  0
  -11.5941   -1.8957   17.2948 C   0  0  0  0  0  0  0  0  0  0  0  0
  -12.5306   -2.3227   16.4120 O   0  0  0  0  0  0  0  0  0  0  0  0
  -12.2683    0.6305   17.5218 N   0  0  0  0  0  0  0  0  0  0  0  0
  -11.7132    1.6291   18.2711 C   0  0  0  0  0  0  0  0  0  0  0  0
  -10.6556    1.1694   18.9776 N   0  0  1  0  0  0  0  0  0  0  0  0
  1  3  1  1  0  0  0
  1  4  2  0  0  0  0
  1  6  1  0  0  0  0
  1 22  1  0  0  0  0
  2 28  1  0  0  0  0
  2 35  1  6  0  0  0
  2 38  2  0  0  0  0
  2 10  1  0  0  0  0
  5  6  1  0  0  0  0
  7  5  1  1  0  0  0
  7  8  1  0  0  0  0
  7  9  1  0  0  0  0
  9 10  1  6  0  0  0
  9 11  1  0  0  0  0
 11 12  1  6  0  0  0
 11 13  1  0  0  0  0
 13  8  1  1  0  0  0
 13 33  1  0  0  0  0
 14 46  1  0  0  0  0
 14 17  1  0  0  0  0
 14 25  1  6  0  0  0
 15 16  1  0  0  0  0
 15 29  1  0  0  0  0
 16 18  1  1  0  0  0
 16 21  1  0  0  0  0
 17 19  1  1  0  0  0
 17 20  1  0  0  0  0
 20 22  1  1  0  0  0
 20 24  1  0  0  0  0
 23 21  1  1  0  0  0
 23 26  1  0  0  0  0
 23 33  1  0  0  0  0
 24 25  1  6  0  0  0
 24 27  1  0  0  0  0
 26 29  1  6  0  0  0
 26 31  1  0  0  0  0
 27 28  1  0  0  0  0
 29 30  2  0  0  0  0
 31 32  1  0  0  0  0
 33 32  1  6  0  0  0
 34 36  1  0  0  0  0
 34 42  1  0  0  0  0
 36 37  1  1  0  0  0
 36 39  1  0  0  0  0
 40 39  1  6  0  0  0
 40 41  1  0  0  0  0
 40 46  1  0  0  0  0
 41 42  1  6  0  0  0
 41 44  1  0  0  0  0
 42 43  2  0  0  0  0
 44 45  1  0  0  0  0
 46 45  1  1  0  0  0
M  CHG  2   3  -1  35  -1
M  END
>  <CHROM.1>
-178.98365666,47.31371168,-8.05450961,1.65940261,16.40507559,-2.24843767
-0.95431115,-2.40473115

>  <Name>
ligand

>  <RI>
-1

>  <Rbt.Current_Directory>
/home/itssahil/PROJECTS/Mol_Feturizer/Test_systems_manuscript/rnas/3mum

>  <Rbt.Executable>
rbdock ($Id: //depot/dev/client3/rdock/2013.1/src/exe/rbdock.cxx#4 $)

>  <Rbt.Library>
libRbt.so (2013.1, Build901 2013/11/27)

>  <Rbt.Parameter_File>
/export/apps/rDock/src/rDock_2013.1_src/data/scripts/dock_solv.prm

>  <Rbt.Receptor>
prm/pocket_docking_5.prm

>  <SCORE>
-40.2883

>  <SCORE.INTER>
-40.3805

>  <SCORE.INTER.CONST>
1

>  <SCORE.INTER.POLAR>
0

>  <SCORE.INTER.ROT>
2

>  <SCORE.INTER.SOLV>
39.0819

>  <SCORE.INTER.VDW>
-44.881

>  <SCORE.INTER.norm>
-0.877837

>  <SCORE.INTRA>
0.0922324

>  <SCORE.INTRA.DIHEDRAL>
-0.0215515

>  <SCORE.INTRA.DIHEDRAL.0>
2.40424

>  <SCORE.INTRA.POLAR>
0

>  <SCORE.INTRA.POLAR.0>
0

>  <SCORE.INTRA.REPUL>
0

>  <SCORE.INTRA.REPUL.0>
0

>  <SCORE.INTRA.SOLV>
0.0200076

>  <SCORE.INTRA.SOLV.lig_0>
-134.169

>  <SCORE.INTRA.VDW>
0.0930044

>  <SCORE.INTRA.VDW.0>
-2.18386

>  <SCORE.INTRA.norm>
0.00200505

>  <SCORE.RESTR>
0

>  <SCORE.RESTR.CAVITY>
0

>  <SCORE.RESTR.norm>
0

>  <SCORE.SYSTEM>
0

>  <SCORE.SYSTEM.CONST>
0

>  <SCORE.SYSTEM.DIHEDRAL>
0

>  <SCORE.SYSTEM.SOLV>
0

>  <SCORE.SYSTEM.norm>
0

>  <SCORE.heavy>
46

>  <SCORE.norm>
-0.875832

>  <RMSD>
0.254

$$$$
ligand
 OpenBabel02271912143D
libRbt.so/2013.1/901 2013/11/27
 46 52  0  0  0  0  0  0  0  0999 V2000
   -9.7329    4.8954   15.6381 P   0  0  1  0  0  0  0  0  0  0  0  0
   -5.3547    2.4036   18.6875 P   0  0  2  0  0  0  0  0  0  0  0  0
  -10.4890    3.7037   14.5658 O   0  5  0  0  0  0  0  0  0  0  0  0
  -10.5699    6.4682   15.5676 O   0  0  0  0  0  0  0  0  0  0  0  0
   -9.1242    5.0114   18.2149 C   0  0  0  0  0  0  0  0  0  0  0  0
   -9.7598    4.3157   17.1423 O   0  0  0  0  0  0  0  0  0  0  0  0
   -8.8910    4.0363   19.3530 C   0  0  1  0  0  0  0  0  0  0  0  0
  -10.1259    3.3865   19.6858 O   0  0  0  0  0  0  0  0  0  0  0  0
   -7.9251    2.9179   18.9970 C   0  0  1  0  0  0  0  0  0  0  0  0
   -6.5762    3.2505   19.3179 O   0  0  0  0  0  0  0  0  0  0  0  0
   -8.4336    1.7478   19.8207 C   0  0  1  0  0  0  0  0  0  0  0  0
   -7.8232    1.7564   21.1137 O   0  0  0  0  0  0  0  0  0  0  0  0
   -9.9213    1.9968   19.9855 C   0  0  2  0  0  0  0  0  0  0  0  0
   -5.9833    2.8412   13.5894 C   0  0  1  0  0  0  0  0  0  0  0  0
  -10.7392   -2.7712   17.7969 N   0  0  0  0  0  0  0  0  0  0  0  0
   -9.8168   -2.4014   18.7269 C   0  0  1  0  0  0  0  0  0  0  0  0
   -7.3920    3.2651   13.8945 C   0  0  2  0  0  0  0  0  0  0  0  0
   -8.9632   -3.3432   19.1907 N   0  0  0  0  0  0  0  0  0  0  0  0
   -7.7759    4.1690   12.8569 O   0  0  0  0  0  0  0  0  0  0  0  0
   -7.3053    3.9503   15.2438 C   0  0  2  0  0  0  0  0  0  0  0  0
   -9.7182   -1.1250   19.2040 N   0  0  0  0  0  0  0  0  0  0  0  0
   -8.1668    5.0780   15.3171 O   0  0  0  0  0  0  0  0  0  0  0  0
  -10.5518   -0.1450   18.7723 C   0  0  2  0  0  0  0  0  0  0  0  0
   -5.8600    4.3918   15.3638 C   0  0  2  0  0  0  0  0  0  0  0  0
   -5.1212    3.5616   14.4692 O   0  0  0  0  0  0  0  0  0  0  0  0
  -11.5674   -0.4913   17.7629 C   0  0  1  0  0  0  0  0  0  0  0  0
   -5.3082    4.2346   16.7763 C   0  0  0  0  0  0  0  0  0  0  0  0
   -5.3456    2.8535   17.1415 O   0  0  0  0  0  0  0  0  0  0  0  0
  -11.6248   -1.8850   17.2870 C   0  0  0  0  0  0  0  0  0  0  0  0
  -12.5390   -2.2615   16.3571 O   0  0  0  0  0  0  0  0  0  0  0  0
  -12.2507    0.6278   17.4990 N   0  0  0  0  0  0  0  0  0  0  0  0
  -11.7206    1.6196   18.2729 C   0  0  0  0  0  0  0  0  0  0  0  0
  -10.7044    1.1634   19.0350 N   0  0  1  0  0  0  0  0  0  0  0  0
   -7.4054   -1.8689   11.8115 N   0  0  0  0  0  0  0  0  0  0  0  0
   -5.6372    0.6482   18.8271 O   0  5  0  0  0  0  0  0  0  0  0  0
   -7.7667   -0.6295   11.3802 C   0  0  2  0  0  0  0  0  0  0  0  0
   -8.6191   -0.5154   10.3284 N   0  0  0  0  0  0  0  0  0  0  0  0
   -3.7791    2.8072   19.3965 O   0  0  0  0  0  0  0  0  0  0  0  0
   -7.2994    0.5045   11.9702 N   0  0  0  0  0  0  0  0  0  0  0  0
   -6.4428    0.4554   13.0172 C   0  0  2  0  0  0  0  0  0  0  0  0
   -6.0185   -0.8542   13.5297 C   0  0  2  0  0  0  0  0  0  0  0  0
   -6.5641   -2.0494   12.8517 C   0  0  0  0  0  0  0  0  0  0  0  0
   -6.2317   -3.3002   13.2560 O   0  0  0  0  0  0  0  0  0  0  0  0
   -5.1886   -0.6126   14.5638 N   0  0  0  0  0  0  0  0  0  0  0  0
   -5.0872    0.7433   14.6986 C   0  0  0  0  0  0  0  0  0  0  0  0
   -5.8417    1.3768   13.7722 N   0  0  1  0  0  0  0  0  0  0  0  0
  1  3  1  6  0  0  0
  1  4  2  0  0  0  0
  1  6  1  0  0  0  0
  1 22  1  0  0  0  0
  2 28  1  0  0  0  0
  2 35  1  1  0  0  0
  2 38  2  0  0  0  0
  2 10  1  0  0  0  0
  5  6  1  0  0  0  0
  7  5  1  6  0  0  0
  7  8  1  0  0  0  0
  7  9  1  0  0  0  0
  9 10  1  1  0  0  0
  9 11  1  0  0  0  0
 11 12  1  1  0  0  0
 11 13  1  0  0  0  0
 13  8  1  6  0  0  0
 13 33  1  0  0  0  0
 14 46  1  0  0  0  0
 14 17  1  0  0  0  0
 14 25  1  1  0  0  0
 15 16  1  0  0  0  0
 15 29  1  0  0  0  0
 16 18  1  6  0  0  0
 16 21  1  0  0  0  0
 17 19  1  6  0  0  0
 17 20  1  0  0  0  0
 20 22  1  6  0  0  0
 20 24  1  0  0  0  0
 23 21  1  6  0  0  0
 23 26  1  0  0  0  0
 23 33  1  0  0  0  0
 24 25  1  6  0  0  0
 24 27  1  0  0  0  0
 26 29  1  1  0  0  0
 26 31  1  0  0  0  0
 27 28  1  0  0  0  0
 29 30  2  0  0  0  0
 31 32  1  0  0  0  0
 33 32  1  1  0  0  0
 34 36  1  0  0  0  0
 34 42  1  0  0  0  0
 36 37  1  6  0  0  0
 36 39  1  0  0  0  0
 40 39  1  1  0  0  0
 40 41  1  0  0  0  0
 40 46  1  0  0  0  0
 41 42  1  1  0  0  0
 41 44  1  0  0  0  0
 42 43  2  0  0  0  0
 44 45  1  0  0  0  0
 46 45  1  6  0  0  0
M  CHG  2   3  -1  35  -1
M  END
>  <CHROM.1>
163.08172403,66.49054148,-8.09918319,1.63120452,16.42091869,-2.25014996,-0.96575456
-2.46718109

>  <Name>
ligand

>  <RI>
416

>  <Rbt.Current_Directory>
/home/itssahil/PROJECTS/Mol_Feturizer/Test_systems_manuscript/rnas/3mum

>  <Rbt.Executable>
rbdock ($Id: //depot/dev/client3/rdock/2013.1/src/exe/rbdock.cxx#4 $)

>  <Rbt.Library>
libRbt.so (2013.1, Build901 2013/11/27)

>  <Rbt.Parameter_File>
/export/apps/rDock/src/rDock_2013.1_src/data/scripts/dock_solv.prm

>  <Rbt.Receptor>
prm/pocket_docking_2.prm

>  <SCORE>
-40.4346

>  <SCORE.INTER>
-40.4174

>  <SCORE.INTER.CONST>
1

>  <SCORE.INTER.POLAR>
0

>  <SCORE.INTER.ROT>
2

>  <SCORE.INTER.SOLV>
39.3152

>  <SCORE.INTER.VDW>
-44.9833

>  <SCORE.INTER.norm>
-0.878638

>  <SCORE.INTRA>
-0.017249

>  <SCORE.INTRA.DIHEDRAL>
0.00154366

>  <SCORE.INTRA.DIHEDRAL.0>
2.40424

>  <SCORE.INTRA.POLAR>
0

>  <SCORE.INTRA.POLAR.0>
0

>  <SCORE.INTRA.REPUL>
0

>  <SCORE.INTRA.REPUL.0>
0

>  <SCORE.INTRA.SOLV>
0.000874716

>  <SCORE.INTRA.SOLV.lig_0>
-134.169

>  <SCORE.INTRA.VDW>
-0.0184581

>  <SCORE.INTRA.VDW.0>
-2.18386

>  <SCORE.INTRA.norm>
-0.000374977

>  <SCORE.RESTR>
0

>  <SCORE.RESTR.CAVITY>
0

>  <SCORE.RESTR.norm>
0

>  <SCORE.SYSTEM>
0

>  <SCORE.SYSTEM.CONST>
0

>  <SCORE.SYSTEM.DIHEDRAL>
0

>  <SCORE.SYSTEM.SOLV>
0

>  <SCORE.SYSTEM.norm>
0

>  <SCORE.heavy>
46

>  <SCORE.norm>
-0.879013

>  <RMSD>
0.255

$$$$
ligand
 OpenBabel02271912143D
libRbt.so/2013.1/901 2013/11/27
 46 52  0  0  0  0  0  0  0  0999 V2000
   -5.2783    2.6979   18.7054 P   0  0  1  0  0  0  0  0  0  0  0  0
   -9.8060    4.8004   15.5819 P   0  0  2  0  0  0  0  0  0  0  0  0
   -5.3443    0.9276   18.7655 O   0  5  0  0  0  0  0  0  0  0  0  0
   -3.8182    3.3293   19.5108 O   0  0  0  0  0  0  0  0  0  0  0  0
   -5.3693    4.5354   16.7979 C   0  0  0  0  0  0  0  0  0  0  0  0
   -5.3055    3.1558   17.1598 O   0  0  0  0  0  0  0  0  0  0  0  0
   -5.8637    4.6379   15.3676 C   0  0  1  0  0  0  0  0  0  0  0  0
   -5.0489    3.8155   14.5205 O   0  0  0  0  0  0  0  0  0  0  0  0
   -7.2842    4.1287   15.1855 C   0  0  1  0  0  0  0  0  0  0  0  0
   -8.2509    5.1646   15.3453 O   0  0  0  0  0  0  0  0  0  0  0  0
   -7.2734    3.5744   13.7718 C   0  0  1  0  0  0  0  0  0  0  0  0
   -7.6073    4.6049   12.8385 O   0  0  0  0  0  0  0  0  0  0  0  0
   -5.8390    3.1446   13.5263 C   0  0  2  0  0  0  0  0  0  0  0  0
   -9.8107    1.8827   19.8322 C   0  0  1  0  0  0  0  0  0  0  0  0
   -7.4806   -1.7163   12.1593 N   0  0  0  0  0  0  0  0  0  0  0  0
   -7.9334   -0.5064   11.7309 C   0  0  1  0  0  0  0  0  0  0  0  0
   -8.3414    1.6881   19.5862 C   0  0  2  0  0  0  0  0  0  0  0  0
   -8.9436   -0.4835   10.8311 N   0  0  0  0  0  0  0  0  0  0  0  0
   -7.7348    1.5250   20.8694 O   0  0  0  0  0  0  0  0  0  0  0  0
   -7.8922    2.9637   18.9017 C   0  0  2  0  0  0  0  0  0  0  0  0
   -7.4131    0.6769   12.1735 N   0  0  0  0  0  0  0  0  0  0  0  0
   -6.5999    3.3659   19.3348 O   0  0  0  0  0  0  0  0  0  0  0  0
   -6.3981    0.7076   13.0737 C   0  0  2  0  0  0  0  0  0  0  0  0
   -8.9211    4.0029   19.3017 C   0  0  2  0  0  0  0  0  0  0  0  0
  -10.0882    3.2739   19.6783 O   0  0  0  0  0  0  0  0  0  0  0  0
   -5.8728   -0.5752   13.5725 C   0  0  1  0  0  0  0  0  0  0  0  0
   -9.2648    4.9627   18.1680 C   0  0  0  0  0  0  0  0  0  0  0  0
   -9.8309    4.2225   17.0846 O   0  0  0  0  0  0  0  0  0  0  0  0
   -6.4745   -1.8181   13.0575 C   0  0  0  0  0  0  0  0  0  0  0  0
   -6.0317   -3.0288   13.4820 O   0  0  0  0  0  0  0  0  0  0  0  0
   -4.8971   -0.2848   14.4401 N   0  0  0  0  0  0  0  0  0  0  0  0
   -4.7987    1.0754   14.5005 C   0  0  0  0  0  0  0  0  0  0  0  0
   -5.6940    1.6734   13.6867 N   0  0  1  0  0  0  0  0  0  0  0  0
  -10.7603   -2.9553   18.0829 N   0  0  0  0  0  0  0  0  0  0  0  0
  -10.3698    3.5643   14.4264 O   0  5  0  0  0  0  0  0  0  0  0  0
   -9.8884   -2.5297   19.0376 C   0  0  2  0  0  0  0  0  0  0  0  0
   -9.1158   -3.4412   19.6843 N   0  0  0  0  0  0  0  0  0  0  0  0
  -10.8783    6.2120   15.5078 O   0  0  0  0  0  0  0  0  0  0  0  0
   -9.7651   -1.2151   19.3676 N   0  0  0  0  0  0  0  0  0  0  0  0
  -10.5119   -0.2613   18.7635 C   0  0  2  0  0  0  0  0  0  0  0  0
  -11.4690   -0.6589   17.7226 C   0  0  2  0  0  0  0  0  0  0  0  0
  -11.5538   -2.1001   17.4036 C   0  0  0  0  0  0  0  0  0  0  0  0
  -12.4062   -2.5615   16.4554 O   0  0  0  0  0  0  0  0  0  0  0  0
  -12.0598    0.4725   17.2900 N   0  0  0  0  0  0  0  0  0  0  0  0
  -11.5261    1.5102   18.0010 C   0  0  0  0  0  0  0  0  0  0  0  0
  -10.5988    1.0651   18.8791 N   0  0  1  0  0  0  0  0  0  0  0  0
  1  3  1  1  0  0  0
  1  4  2  0  0  0  0
  1  6  1  0  0  0  0
  1 22  1  0  0  0  0
  2 28  1  0  0  0  0
  2 35  1  6  0  0  0
  2 38  2  0  0  0  0
  2 10  1  0  0  0  0
  5  6  1  0  0  0  0
  7  5  1  1  0  0  0
  7  8  1  0  0  0  0
  7  9  1  0  0  0  0
  9 10  1  6  0  0  0
  9 11  1  0  0  0  0
 11 12  1  6  0  0  0
 11 13  1  0  0  0  0
 13  8  1  1  0  0  0
 13 33  1  0  0  0  0
 14 46  1  0  0  0  0
 14 17  1  0  0  0  0
 14 25  1  6  0  0  0
 15 16  1  0  0  0  0
 15 29  1  0  0  0  0
 16 18  1  1  0  0  0
 16 21  1  0  0  0  0
 17 19  1  1  0  0  0
 17 20  1  0  0  0  0
 20 22  1  1  0  0  0
 20 24  1  0  0  0  0
 23 21  1  1  0  0  0
 23 26  1  0  0  0  0
 23 33  1  0  0  0  0
 24 25  1  6  0  0  0
 24 27  1  0  0  0  0
 26 29  1  6  0  0  0
 26 31  1  0  0  0  0
 27 28  1  0  0  0  0
 29 30  2  0  0  0  0
 31 32  1  0  0  0  0
 33 32  1  6  0  0  0
 34 36  1  0  0  0  0
 34 42  1  0  0  0  0
 36 37  1  1  0  0  0
 36 39  1  0  0  0  0
 40 39  1  6  0  0  0
 40 41  1  0  0  0  0
 40 46  1  0  0  0  0
 41 42  1  6  0  0  0
 41 44  1  0  0  0  0
 42 43  2  0  0  0  0
 44 45  1  0  0  0  0
 46 45  1  1  0  0  0
M  CHG  2   3  -1  35  -1
M  END
>  <CHROM.1>
170.58329416,58.62767305,-8.06608887,1.70493279,16.44230920,-0.25165118,0.97090523
0.72272049

>  <Name>
ligand

>  <RI>
-1

>  <Rbt.Current_Directory>
/home/itssahil/PROJECTS/Mol_Feturizer/Test_systems_manuscript/rnas/3mum

>  <Rbt.Executable>
rbdock ($Id: //depot/dev/client3/rdock/2013.1/src/exe/rbdock.cxx#4 $)

>  <Rbt.Library>
libRbt.so (2013.1, Build901 2013/11/27)

>  <Rbt.Parameter_File>
/export/apps/rDock/src/rDock_2013.1_src/data/scripts/dock_solv.prm

>  <Rbt.Receptor>
prm/pocket_docking_5.prm

>  <SCORE>
-39.22

>  <SCORE.INTER>
-39.2719

>  <SCORE.INTER.CONST>
1

>  <SCORE.INTER.POLAR>
0

>  <SCORE.INTER.ROT>
2

>  <SCORE.INTER.SOLV>
39.8435

>  <SCORE.INTER.VDW>
-44.3958

>  <SCORE.INTER.norm>
-0.853737

>  <SCORE.INTRA>
0.0518925

>  <SCORE.INTRA.DIHEDRAL>
-0.00857264

>  <SCORE.INTRA.DIHEDRAL.0>
2.40424

>  <SCORE.INTRA.POLAR>
0

>  <SCORE.INTRA.POLAR.0>
0

>  <SCORE.INTRA.REPUL>
0

>  <SCORE.INTRA.REPUL.0>
0

>  <SCORE.INTRA.SOLV>
0.00839287

>  <SCORE.INTRA.SOLV.lig_0>
-134.169

>  <SCORE.INTRA.VDW>
0.0519824

>  <SCORE.INTRA.VDW.0>
-2.18386

>  <SCORE.INTRA.norm>
0.0011281

>  <SCORE.RESTR>
0

>  <SCORE.RESTR.CAVITY>
0

>  <SCORE.RESTR.norm>
0

>  <SCORE.SYSTEM>
0

>  <SCORE.SYSTEM.CONST>
0

>  <SCORE.SYSTEM.DIHEDRAL>
0

>  <SCORE.SYSTEM.SOLV>
0

>  <SCORE.SYSTEM.norm>
0

>  <SCORE.heavy>
46

>  <SCORE.norm>
-0.852609

>  <RMSD>
0.255

$$$$
ligand
 OpenBabel02271912143D
libRbt.so/2013.1/901 2013/11/27
 46 52  0  0  0  0  0  0  0  0999 V2000
   -5.3021    2.5374   18.7311 P   0  0  1  0  0  0  0  0  0  0  0  0
   -9.7367    4.8517   15.6240 P   0  0  2  0  0  0  0  0  0  0  0  0
   -5.4596    0.7734   18.8043 O   0  5  0  0  0  0  0  0  0  0  0  0
   -3.8053    3.0974   19.5220 O   0  0  0  0  0  0  0  0  0  0  0  0
   -5.3111    4.3643   16.8112 C   0  0  0  0  0  0  0  0  0  0  0  0
   -5.3166    2.9857   17.1825 O   0  0  0  0  0  0  0  0  0  0  0  0
   -5.8099    4.4827   15.3837 C   0  0  1  0  0  0  0  0  0  0  0  0
   -5.0451    3.6132   14.5369 O   0  0  0  0  0  0  0  0  0  0  0  0
   -7.2563    4.0469   15.2150 C   0  0  1  0  0  0  0  0  0  0  0  0
   -8.1666    5.1328   15.3741 O   0  0  0  0  0  0  0  0  0  0  0  0
   -7.2845    3.4833   13.8052 C   0  0  1  0  0  0  0  0  0  0  0  0
   -7.5712    4.5234   12.8669 O   0  0  0  0  0  0  0  0  0  0  0  0
   -5.8763    2.9777   13.5530 C   0  0  2  0  0  0  0  0  0  0  0  0
   -9.8624    1.9671   19.8949 C   0  0  1  0  0  0  0  0  0  0  0  0
   -7.4224   -1.8227   11.8921 N   0  0  0  0  0  0  0  0  0  0  0  0
   -7.7589   -0.5973   11.4047 C   0  0  1  0  0  0  0  0  0  0  0  0
   -8.4071    1.6945   19.6402 C   0  0  2  0  0  0  0  0  0  0  0  0
   -8.6046   -0.5385   10.3502 N   0  0  0  0  0  0  0  0  0  0  0  0
   -7.8005    1.5088   20.9203 O   0  0  0  0  0  0  0  0  0  0  0  0
   -7.8971    2.9404   18.9435 C   0  0  2  0  0  0  0  0  0  0  0  0
   -7.2819    0.5670   11.9373 N   0  0  0  0  0  0  0  0  0  0  0  0
   -6.5825    3.2776   19.3648 O   0  0  0  0  0  0  0  0  0  0  0  0
   -6.4299    0.5617   12.9936 C   0  0  2  0  0  0  0  0  0  0  0  0
   -8.8676    4.0344   19.3431 C   0  0  2  0  0  0  0  0  0  0  0  0
  -10.0683    3.3698   19.7330 O   0  0  0  0  0  0  0  0  0  0  0  0
   -6.0358   -0.7392   13.5618 C   0  0  1  0  0  0  0  0  0  0  0  0
   -9.1690    5.0031   18.2051 C   0  0  0  0  0  0  0  0  0  0  0  0
   -9.7808    4.2861   17.1309 O   0  0  0  0  0  0  0  0  0  0  0  0
   -6.5831   -1.9601   12.9438 C   0  0  0  0  0  0  0  0  0  0  0  0
   -6.2557   -3.1860   13.4257 O   0  0  0  0  0  0  0  0  0  0  0  0
   -5.2089   -0.4835   14.5816 N   0  0  0  0  0  0  0  0  0  0  0  0
   -5.0785    0.8726   14.6688 C   0  0  0  0  0  0  0  0  0  0  0  0
   -5.8069    1.5020   13.7228 N   0  0  1  0  0  0  0  0  0  0  0  0
  -10.7265   -2.7564   17.8188 N   0  0  0  0  0  0  0  0  0  0  0  0
  -10.3724    3.6389   14.4813 O   0  5  0  0  0  0  0  0  0  0  0  0
   -9.7858   -2.3593   18.7189 C   0  0  2  0  0  0  0  0  0  0  0  0
   -8.9039   -3.2723   19.2033 N   0  0  0  0  0  0  0  0  0  0  0  0
  -10.7346    6.3167   15.5472 O   0  0  0  0  0  0  0  0  0  0  0  0
   -9.6997   -1.0719   19.1521 N   0  0  0  0  0  0  0  0  0  0  0  0
  -10.5538   -0.1189   18.7111 C   0  0  2  0  0  0  0  0  0  0  0  0
  -11.5894   -0.4861   17.7363 C   0  0  2  0  0  0  0  0  0  0  0  0
  -11.6294   -1.8980   17.2990 C   0  0  0  0  0  0  0  0  0  0  0  0
  -12.5482   -2.3299   16.4003 O   0  0  0  0  0  0  0  0  0  0  0  0
  -12.2806    0.6389   17.4663 N   0  0  0  0  0  0  0  0  0  0  0  0
  -11.7331    1.6442   18.2124 C   0  0  0  0  0  0  0  0  0  0  0  0
  -10.6989    1.1852   18.9531 N   0  0  1  0  0  0  0  0  0  0  0  0
  1  3  1  1  0  0  0
  1  4  2  0  0  0  0
  1  6  1  0  0  0  0
  1 22  1  0  0  0  0
  2 28  1  0  0  0  0
  2 35  1  6  0  0  0
  2 38  2  0  0  0  0
  2 10  1  0  0  0  0
  5  6  1  0  0  0  0
  7  5  1  1  0  0  0
  7  8  1  0  0  0  0
  7  9  1  0  0  0  0
  9 10  1  6  0  0  0
  9 11  1  0  0  0  0
 11 12  1  6  0  0  0
 11 13  1  0  0  0  0
 13  8  1  1  0  0  0
 13 33  1  0  0  0  0
 14 46  1  0  0  0  0
 14 17  1  0  0  0  0
 14 25  1  6  0  0  0
 15 16  1  0  0  0  0
 15 29  1  0  0  0  0
 16 18  1  1  0  0  0
 16 21  1  0  0  0  0
 17 19  1  1  0  0  0
 17 20  1  0  0  0  0
 20 22  1  1  0  0  0
 20 24  1  0  0  0  0
 23 21  1  1  0  0  0
 23 26  1  0  0  0  0
 23 33  1  0  0  0  0
 24 25  1  6  0  0  0
 24 27  1  0  0  0  0
 26 29  1  6  0  0  0
 26 31  1  0  0  0  0
 27 28  1  0  0  0  0
 29 30  2  0  0  0  0
 31 32  1  0  0  0  0
 33 32  1  6  0  0  0
 34 36  1  0  0  0  0
 34 42  1  0  0  0  0
 36 37  1  1  0  0  0
 36 39  1  0  0  0  0
 40 39  1  6  0  0  0
 40 41  1  0  0  0  0
 40 46  1  0  0  0  0
 41 42  1  6  0  0  0
 41 44  1  0  0  0  0
 42 43  2  0  0  0  0
 44 45  1  0  0  0  0
 46 45  1  1  0  0  0
M  CHG  2   3  -1  35  -1
M  END
>  <CHROM.1>
-179.37406687,48.78780985,-8.07740680,1.68092678,16.41747286,-2.30993010
-0.94976677,-2.41976791

>  <Name>
ligand

>  <RI>
-1

>  <Rbt.Current_Directory>
/home/itssahil/PROJECTS/Mol_Feturizer/Test_systems_manuscript/rnas/3mum

>  <Rbt.Executable>
rbdock ($Id: //depot/dev/client3/rdock/2013.1/src/exe/rbdock.cxx#4 $)

>  <Rbt.Library>
libRbt.so (2013.1, Build901 2013/11/27)

>  <Rbt.Parameter_File>
/export/apps/rDock/src/rDock_2013.1_src/data/scripts/dock_solv.prm

>  <Rbt.Receptor>
prm/pocket_docking_5.prm

>  <SCORE>
-40.3008

>  <SCORE.INTER>
-40.3851

>  <SCORE.INTER.CONST>
1

>  <SCORE.INTER.POLAR>
0

>  <SCORE.INTER.ROT>
2

>  <SCORE.INTER.SOLV>
38.8207

>  <SCORE.INTER.VDW>
-44.797

>  <SCORE.INTER.norm>
-0.877937

>  <SCORE.INTRA>
0.0843239

>  <SCORE.INTRA.DIHEDRAL>
-0.0199299

>  <SCORE.INTRA.DIHEDRAL.0>
2.40424

>  <SCORE.INTRA.POLAR>
0

>  <SCORE.INTRA.POLAR.0>
0

>  <SCORE.INTRA.REPUL>
0

>  <SCORE.INTRA.REPUL.0>
0

>  <SCORE.INTRA.SOLV>
0.0183619

>  <SCORE.INTRA.SOLV.lig_0>
-134.169

>  <SCORE.INTRA.VDW>
0.0851079

>  <SCORE.INTRA.VDW.0>
-2.18386

>  <SCORE.INTRA.norm>
0.00183313

>  <SCORE.RESTR>
0

>  <SCORE.RESTR.CAVITY>
0

>  <SCORE.RESTR.norm>
0

>  <SCORE.SYSTEM>
0

>  <SCORE.SYSTEM.CONST>
0

>  <SCORE.SYSTEM.DIHEDRAL>
0

>  <SCORE.SYSTEM.SOLV>
0

>  <SCORE.SYSTEM.norm>
0

>  <SCORE.heavy>
46

>  <SCORE.norm>
-0.876104

>  <RMSD>
0.255

$$$$
ligand
 OpenBabel02271912143D
libRbt.so/2013.1/901 2013/11/27
 46 52  0  0  0  0  0  0  0  0999 V2000
   -5.2851    2.5267   18.7082 P   0  0  1  0  0  0  0  0  0  0  0  0
   -9.7542    4.8269   15.6402 P   0  0  2  0  0  0  0  0  0  0  0  0
   -5.4322    0.7616   18.7760 O   0  5  0  0  0  0  0  0  0  0  0  0
   -3.7861    3.0923   19.4908 O   0  0  0  0  0  0  0  0  0  0  0  0
   -5.3178    4.3604   16.7952 C   0  0  0  0  0  0  0  0  0  0  0  0
   -5.3129    2.9805   17.1614 O   0  0  0  0  0  0  0  0  0  0  0  0
   -5.8271    4.4812   15.3716 C   0  0  1  0  0  0  0  0  0  0  0  0
   -5.0633    3.6192   14.5163 O   0  0  0  0  0  0  0  0  0  0  0  0
   -7.2721    4.0378   15.2113 C   0  0  1  0  0  0  0  0  0  0  0  0
   -8.1874    5.1179   15.3806 O   0  0  0  0  0  0  0  0  0  0  0  0
   -7.3069    3.4791   13.7996 C   0  0  1  0  0  0  0  0  0  0  0  0
   -7.6059    4.5210   12.8672 O   0  0  0  0  0  0  0  0  0  0  0  0
   -5.8976    2.9825   13.5358 C   0  0  2  0  0  0  0  0  0  0  0  0
   -9.8341    1.9262   19.9013 C   0  0  1  0  0  0  0  0  0  0  0  0
   -7.4392   -1.8201   11.8773 N   0  0  0  0  0  0  0  0  0  0  0  0
   -7.7879   -0.5948   11.3982 C   0  0  1  0  0  0  0  0  0  0  0  0
   -8.3790    1.6628   19.6356 C   0  0  2  0  0  0  0  0  0  0  0  0
   -8.6465   -0.5368   10.3541 N   0  0  0  0  0  0  0  0  0  0  0  0
   -7.7625    1.4759   20.9108 O   0  0  0  0  0  0  0  0  0  0  0  0
   -7.8809    2.9141   18.9400 C   0  0  2  0  0  0  0  0  0  0  0  0
   -7.3103    0.5701   11.9290 N   0  0  0  0  0  0  0  0  0  0  0  0
   -6.5653    3.2572   19.3535 O   0  0  0  0  0  0  0  0  0  0  0  0
   -6.4457    0.5656   12.9749 C   0  0  2  0  0  0  0  0  0  0  0  0
   -8.8548    4.0011   19.3503 C   0  0  2  0  0  0  0  0  0  0  0  0
  -10.0489    3.3283   19.7459 O   0  0  0  0  0  0  0  0  0  0  0  0
   -6.0381   -0.7351   13.5338 C   0  0  1  0  0  0  0  0  0  0  0  0
   -9.1696    4.9722   18.2179 C   0  0  0  0  0  0  0  0  0  0  0  0
   -9.7846    4.2557   17.1454 O   0  0  0  0  0  0  0  0  0  0  0  0
   -6.5866   -1.9568   12.9183 C   0  0  0  0  0  0  0  0  0  0  0  0
   -6.2472   -3.1825   13.3920 O   0  0  0  0  0  0  0  0  0  0  0  0
   -5.2003   -0.4787   14.5444 N   0  0  0  0  0  0  0  0  0  0  0  0
   -5.0758    0.8778   14.6348 C   0  0  0  0  0  0  0  0  0  0  0  0
   -5.8187    1.5066   13.6998 N   0  0  1  0  0  0  0  0  0  0  0  0
  -10.6358   -2.7766   17.7543 N   0  0  0  0  0  0  0  0  0  0  0  0
  -10.3909    3.6147   14.4975 O   0  5  0  0  0  0  0  0  0  0  0  0
   -9.6853   -2.3748   18.6420 C   0  0  2  0  0  0  0  0  0  0  0  0
   -8.7731   -3.2763   19.0906 N   0  0  0  0  0  0  0  0  0  0  0  0
  -10.7609    6.2865   15.5757 O   0  0  0  0  0  0  0  0  0  0  0  0
   -9.6189   -1.0941   19.0977 N   0  0  0  0  0  0  0  0  0  0  0  0
  -10.5034   -0.1528   18.6928 C   0  0  2  0  0  0  0  0  0  0  0  0
  -11.5510   -0.5255   17.7329 C   0  0  2  0  0  0  0  0  0  0  0  0
  -11.5685   -1.9295   17.2698 C   0  0  0  0  0  0  0  0  0  0  0  0
  -12.4963   -2.3656   16.3823 O   0  0  0  0  0  0  0  0  0  0  0  0
  -12.2728    0.5883   17.4987 N   0  0  0  0  0  0  0  0  0  0  0  0
  -11.7323    1.5918   18.2522 C   0  0  0  0  0  0  0  0  0  0  0  0
  -10.6726    1.1430   18.9624 N   0  0  1  0  0  0  0  0  0  0  0  0
  1  3  1  1  0  0  0
  1  4  2  0  0  0  0
  1  6  1  0  0  0  0
  1 22  1  0  0  0  0
  2 28  1  0  0  0  0
  2 35  1  6  0  0  0
  2 38  2  0  0  0  0
  2 10  1  0  0  0  0
  5  6  1  0  0  0  0
  7  5  1  1  0  0  0
  7  8  1  0  0  0  0
  7  9  1  0  0  0  0
  9 10  1  6  0  0  0
  9 11  1  0  0  0  0
 11 12  1  6  0  0  0
 11 13  1  0  0  0  0
 13  8  1  1  0  0  0
 13 33  1  0  0  0  0
 14 46  1  0  0  0  0
 14 17  1  0  0  0  0
 14 25  1  6  0  0  0
 15 16  1  0  0  0  0
 15 29  1  0  0  0  0
 16 18  1  1  0  0  0
 16 21  1  0  0  0  0
 17 19  1  1  0  0  0
 17 20  1  0  0  0  0
 20 22  1  1  0  0  0
 20 24  1  0  0  0  0
 23 21  1  1  0  0  0
 23 26  1  0  0  0  0
 23 33  1  0  0  0  0
 24 25  1  6  0  0  0
 24 27  1  0  0  0  0
 26 29  1  6  0  0  0
 26 31  1  0  0  0  0
 27 28  1  0  0  0  0
 29 30  2  0  0  0  0
 31 32  1  0  0  0  0
 33 32  1  6  0  0  0
 34 36  1  0  0  0  0
 34 42  1  0  0  0  0
 36 37  1  1  0  0  0
 36 39  1  0  0  0  0
 40 39  1  6  0  0  0
 40 41  1  0  0  0  0
 40 46  1  0  0  0  0
 41 42  1  6  0  0  0
 41 44  1  0  0  0  0
 42 43  2  0  0  0  0
 44 45  1  0  0  0  0
 46 45  1  1  0  0  0
M  CHG  2   3  -1  35  -1
M  END
>  <CHROM.1>
-179.67241670,47.25647758,-8.06724942,1.66483215,16.40511676,-2.26361543
-0.95750947,-2.41642575

>  <Name>
ligand

>  <RI>
-1

>  <Rbt.Current_Directory>
/home/itssahil/PROJECTS/Mol_Feturizer/Test_systems_manuscript/rnas/3mum

>  <Rbt.Executable>
rbdock ($Id: //depot/dev/client3/rdock/2013.1/src/exe/rbdock.cxx#4 $)

>  <Rbt.Library>
libRbt.so (2013.1, Build901 2013/11/27)

>  <Rbt.Parameter_File>
/export/apps/rDock/src/rDock_2013.1_src/data/scripts/dock_solv.prm

>  <Rbt.Receptor>
prm/pocket_docking_8.prm

>  <SCORE>
-40.3363

>  <SCORE.INTER>
-40.4344

>  <SCORE.INTER.CONST>
1

>  <SCORE.INTER.POLAR>
0

>  <SCORE.INTER.ROT>
2

>  <SCORE.INTER.SOLV>
39.1055

>  <SCORE.INTER.VDW>
-44.9248

>  <SCORE.INTER.norm>
-0.87901

>  <SCORE.INTRA>
0.0981151

>  <SCORE.INTRA.DIHEDRAL>
-0.0217456

>  <SCORE.INTRA.DIHEDRAL.0>
2.40424

>  <SCORE.INTRA.POLAR>
0

>  <SCORE.INTRA.POLAR.0>
0

>  <SCORE.INTRA.REPUL>
0

>  <SCORE.INTRA.REPUL.0>
0

>  <SCORE.INTRA.SOLV>
0.020304

>  <SCORE.INTRA.SOLV.lig_0>
-134.169

>  <SCORE.INTRA.VDW>
0.0988359

>  <SCORE.INTRA.VDW.0>
-2.18386

>  <SCORE.INTRA.norm>
0.00213294

>  <SCORE.RESTR>
0

>  <SCORE.RESTR.CAVITY>
0

>  <SCORE.RESTR.norm>
0

>  <SCORE.SYSTEM>
0

>  <SCORE.SYSTEM.CONST>
0

>  <SCORE.SYSTEM.DIHEDRAL>
0

>  <SCORE.SYSTEM.SOLV>
0

>  <SCORE.SYSTEM.norm>
0

>  <SCORE.heavy>
46

>  <SCORE.norm>
-0.876877

>  <RMSD>
0.255

$$$$
ligand
 OpenBabel02271912143D
libRbt.so/2013.1/901 2013/11/27
 46 52  0  0  0  0  0  0  0  0999 V2000
   -5.2721    2.5139   18.6802 P   0  0  1  0  0  0  0  0  0  0  0  0
   -9.7480    4.8319   15.6357 P   0  0  2  0  0  0  0  0  0  0  0  0
   -5.4250    0.7493   18.7476 O   0  5  0  0  0  0  0  0  0  0  0  0
   -3.7673    3.0736   19.4558 O   0  0  0  0  0  0  0  0  0  0  0  0
   -5.3076    4.3490   16.7686 C   0  0  0  0  0  0  0  0  0  0  0  0
   -5.3058    2.9688   17.1339 O   0  0  0  0  0  0  0  0  0  0  0  0
   -5.8235    4.4725   15.3475 C   0  0  1  0  0  0  0  0  0  0  0  0
   -5.0669    3.6084   14.4880 O   0  0  0  0  0  0  0  0  0  0  0  0
   -7.2708    4.0343   15.1940 C   0  0  1  0  0  0  0  0  0  0  0  0
   -8.1815    5.1176   15.3686 O   0  0  0  0  0  0  0  0  0  0  0  0
   -7.3145    3.4768   13.7822 C   0  0  1  0  0  0  0  0  0  0  0  0
   -7.6144    4.5203   12.8519 O   0  0  0  0  0  0  0  0  0  0  0  0
   -5.9083    2.9754   13.5112 C   0  0  2  0  0  0  0  0  0  0  0  0
   -9.8172    1.9285   19.8952 C   0  0  1  0  0  0  0  0  0  0  0  0
   -7.4553   -1.8214   11.8408 N   0  0  0  0  0  0  0  0  0  0  0  0
   -7.7989   -0.5947   11.3618 C   0  0  1  0  0  0  0  0  0  0  0  0
   -8.3643    1.6603   19.6222 C   0  0  2  0  0  0  0  0  0  0  0  0
   -8.6531   -0.5334   10.3143 N   0  0  0  0  0  0  0  0  0  0  0  0
   -7.7423    1.4703   20.8942 O   0  0  0  0  0  0  0  0  0  0  0  0
   -7.8653    2.9103   18.9249 C   0  0  2  0  0  0  0  0  0  0  0  0
   -7.3206    0.5683   11.8958 N   0  0  0  0  0  0  0  0  0  0  0  0
   -6.5465    3.2485   19.3322 O   0  0  0  0  0  0  0  0  0  0  0  0
   -6.4602    0.5605   12.9452 C   0  0  2  0  0  0  0  0  0  0  0  0
   -8.8333    4.0004   19.3408 C   0  0  2  0  0  0  0  0  0  0  0  0
  -10.0279    3.3315   19.7418 O   0  0  0  0  0  0  0  0  0  0  0  0
   -6.0582   -0.7419   13.5043 C   0  0  1  0  0  0  0  0  0  0  0  0
   -9.1502    4.9734   18.2106 C   0  0  0  0  0  0  0  0  0  0  0  0
   -9.7731    4.2597   17.1406 O   0  0  0  0  0  0  0  0  0  0  0  0
   -6.6072   -1.9615   12.8852 C   0  0  0  0  0  0  0  0  0  0  0  0
   -6.2729   -3.1886   13.3589 O   0  0  0  0  0  0  0  0  0  0  0  0
   -5.2238   -0.4887   14.5186 N   0  0  0  0  0  0  0  0  0  0  0  0
   -5.0962    0.8673   14.6110 C   0  0  0  0  0  0  0  0  0  0  0  0
   -5.8338    1.4991   13.6738 N   0  0  1  0  0  0  0  0  0  0  0  0
  -10.6372   -2.7665   17.7382 N   0  0  0  0  0  0  0  0  0  0  0  0
  -10.3946    3.6227   14.4953 O   0  5  0  0  0  0  0  0  0  0  0  0
   -9.6799   -2.3682   18.6202 C   0  0  2  0  0  0  0  0  0  0  0  0
   -8.7648   -3.2716   19.0589 N   0  0  0  0  0  0  0  0  0  0  0  0
  -10.7499    6.2951   15.5771 O   0  0  0  0  0  0  0  0  0  0  0  0
   -9.6095   -1.0890   19.0797 N   0  0  0  0  0  0  0  0  0  0  0  0
  -10.4965   -0.1460   18.6846 C   0  0  2  0  0  0  0  0  0  0  0  0
  -11.5514   -0.5149   17.7313 C   0  0  2  0  0  0  0  0  0  0  0  0
  -11.5731   -1.9173   17.2635 C   0  0  0  0  0  0  0  0  0  0  0  0
  -12.5076   -2.3499   16.3815 O   0  0  0  0  0  0  0  0  0  0  0  0
  -12.2743    0.6000   17.5062 N   0  0  0  0  0  0  0  0  0  0  0  0
  -11.7278    1.6007   18.2592 C   0  0  0  0  0  0  0  0  0  0  0  0
  -10.6630    1.1490   18.9599 N   0  0  1  0  0  0  0  0  0  0  0  0
  1  3  1  1  0  0  0
  1  4  2  0  0  0  0
  1  6  1  0  0  0  0
  1 22  1  0  0  0  0
  2 28  1  0  0  0  0
  2 35  1  6  0  0  0
  2 38  2  0  0  0  0
  2 10  1  0  0  0  0
  5  6  1  0  0  0  0
  7  5  1  1  0  0  0
  7  8  1  0  0  0  0
  7  9  1  0  0  0  0
  9 10  1  6  0  0  0
  9 11  1  0  0  0  0
 11 12  1  6  0  0  0
 11 13  1  0  0  0  0
 13  8  1  1  0  0  0
 13 33  1  0  0  0  0
 14 46  1  0  0  0  0
 14 17  1  0  0  0  0
 14 25  1  6  0  0  0
 15 16  1  0  0  0  0
 15 29  1  0  0  0  0
 16 18  1  1  0  0  0
 16 21  1  0  0  0  0
 17 19  1  1  0  0  0
 17 20  1  0  0  0  0
 20 22  1  1  0  0  0
 20 24  1  0  0  0  0
 23 21  1  1  0  0  0
 23 26  1  0  0  0  0
 23 33  1  0  0  0  0
 24 25  1  6  0  0  0
 24 27  1  0  0  0  0
 26 29  1  6  0  0  0
 26 31  1  0  0  0  0
 27 28  1  0  0  0  0
 29 30  2  0  0  0  0
 31 32  1  0  0  0  0
 33 32  1  6  0  0  0
 34 36  1  0  0  0  0
 34 42  1  0  0  0  0
 36 37  1  1  0  0  0
 36 39  1  0  0  0  0
 40 39  1  6  0  0  0
 40 41  1  0  0  0  0
 40 46  1  0  0  0  0
 41 42  1  6  0  0  0
 41 44  1  0  0  0  0
 42 43  2  0  0  0  0
 44 45  1  0  0  0  0
 46 45  1  1  0  0  0
M  CHG  2   3  -1  35  -1
M  END
>  <CHROM.1>
-179.15403173,46.97993873,-8.06537071,1.66367683,16.38727029,-2.24776597
-0.95892558,-2.40999183

>  <Name>
ligand

>  <RI>
-1

>  <Rbt.Current_Directory>
/home/itssahil/PROJECTS/Mol_Feturizer/Test_systems_manuscript/rnas/3mum

>  <Rbt.Executable>
rbdock ($Id: //depot/dev/client3/rdock/2013.1/src/exe/rbdock.cxx#4 $)

>  <Rbt.Library>
libRbt.so (2013.1, Build901 2013/11/27)

>  <Rbt.Parameter_File>
/export/apps/rDock/src/rDock_2013.1_src/data/scripts/dock_solv.prm

>  <Rbt.Receptor>
prm/pocket_docking_6.prm

>  <SCORE>
-40.2655

>  <SCORE.INTER>
-40.3654

>  <SCORE.INTER.CONST>
1

>  <SCORE.INTER.POLAR>
0

>  <SCORE.INTER.ROT>
2

>  <SCORE.INTER.SOLV>
39.2628

>  <SCORE.INTER.VDW>
-44.9312

>  <SCORE.INTER.norm>
-0.877508

>  <SCORE.INTRA>
0.0998713

>  <SCORE.INTRA.DIHEDRAL>
-0.0219535

>  <SCORE.INTRA.DIHEDRAL.0>
2.40424

>  <SCORE.INTRA.POLAR>
0

>  <SCORE.INTRA.POLAR.0>
0

>  <SCORE.INTRA.REPUL>
0

>  <SCORE.INTRA.REPUL.0>
0

>  <SCORE.INTRA.SOLV>
0.020452

>  <SCORE.INTRA.SOLV.lig_0>
-134.169

>  <SCORE.INTRA.VDW>
0.100622

>  <SCORE.INTRA.VDW.0>
-2.18386

>  <SCORE.INTRA.norm>
0.00217111

>  <SCORE.RESTR>
0

>  <SCORE.RESTR.CAVITY>
0

>  <SCORE.RESTR.norm>
0

>  <SCORE.SYSTEM>
0

>  <SCORE.SYSTEM.CONST>
0

>  <SCORE.SYSTEM.DIHEDRAL>
0

>  <SCORE.SYSTEM.SOLV>
0

>  <SCORE.SYSTEM.norm>
0

>  <SCORE.heavy>
46

>  <SCORE.norm>
-0.875337

>  <RMSD>
0.256

$$$$
ligand
 OpenBabel02271912143D
libRbt.so/2013.1/901 2013/11/27
 46 52  0  0  0  0  0  0  0  0999 V2000
   -5.2338    2.4498   18.6433 P   0  0  1  0  0  0  0  0  0  0  0  0
   -9.6901    4.8314   15.6192 P   0  0  2  0  0  0  0  0  0  0  0  0
   -5.4123    0.6877   18.7128 O   0  5  0  0  0  0  0  0  0  0  0  0
   -3.7170    2.9879   19.4109 O   0  0  0  0  0  0  0  0  0  0  0  0
   -5.2518    4.2839   16.7303 C   0  0  0  0  0  0  0  0  0  0  0  0
   -5.2685    2.9040   17.0968 O   0  0  0  0  0  0  0  0  0  0  0  0
   -5.7729    4.4139   15.3118 C   0  0  1  0  0  0  0  0  0  0  0  0
   -5.0334    3.5381   14.4492 O   0  0  0  0  0  0  0  0  0  0  0  0
   -7.2273    3.9970   15.1659 C   0  0  1  0  0  0  0  0  0  0  0  0
   -8.1210    5.0937   15.3441 O   0  0  0  0  0  0  0  0  0  0  0  0
   -7.2862    3.4391   13.7547 C   0  0  1  0  0  0  0  0  0  0  0  0
   -7.5753    4.4862   12.8251 O   0  0  0  0  0  0  0  0  0  0  0  0
   -5.8889    2.9168   13.4771 C   0  0  2  0  0  0  0  0  0  0  0  0
   -9.7809    1.9325   19.8814 C   0  0  1  0  0  0  0  0  0  0  0  0
   -7.4811   -1.8597   11.7912 N   0  0  0  0  0  0  0  0  0  0  0  0
   -7.8037   -0.6287   11.3085 C   0  0  1  0  0  0  0  0  0  0  0  0
   -8.3335    1.6426   19.6014 C   0  0  2  0  0  0  0  0  0  0  0  0
   -8.6462   -0.5565   10.2523 N   0  0  0  0  0  0  0  0  0  0  0  0
   -7.7080    1.4445   20.8704 O   0  0  0  0  0  0  0  0  0  0  0  0
   -7.8196    2.8846   18.9006 C   0  0  2  0  0  0  0  0  0  0  0  0
   -7.3158    0.5281   11.8474 N   0  0  0  0  0  0  0  0  0  0  0  0
   -6.4940    3.2036   19.3010 O   0  0  0  0  0  0  0  0  0  0  0  0
   -6.4664    0.5092   12.9056 C   0  0  2  0  0  0  0  0  0  0  0  0
   -8.7693    3.9892   19.3204 C   0  0  2  0  0  0  0  0  0  0  0  0
   -9.9716    3.3383   19.7279 O   0  0  0  0  0  0  0  0  0  0  0  0
   -6.0872   -0.7982   13.4689 C   0  0  1  0  0  0  0  0  0  0  0  0
   -9.0775    4.9659   18.1910 C   0  0  0  0  0  0  0  0  0  0  0  0
   -9.7161    4.2607   17.1247 O   0  0  0  0  0  0  0  0  0  0  0  0
   -6.6458   -2.0106   12.8442 C   0  0  0  0  0  0  0  0  0  0  0  0
   -6.3323   -3.2419   13.3214 O   0  0  0  0  0  0  0  0  0  0  0  0
   -5.2602   -0.5557   14.4918 N   0  0  0  0  0  0  0  0  0  0  0  0
   -5.1159    0.7985   14.5854 C   0  0  0  0  0  0  0  0  0  0  0  0
   -5.8354    1.4397   13.6405 N   0  0  1  0  0  0  0  0  0  0  0  0
  -10.7513   -2.7758   17.8177 N   0  0  0  0  0  0  0  0  0  0  0  0
  -10.3602    3.6310   14.4830 O   0  5  0  0  0  0  0  0  0  0  0  0
   -9.7921   -2.3945   18.7051 C   0  0  2  0  0  0  0  0  0  0  0  0
   -8.9192   -3.3221   19.1778 N   0  0  0  0  0  0  0  0  0  0  0  0
  -10.6706    6.3091   15.5644 O   0  0  0  0  0  0  0  0  0  0  0  0
   -9.6788   -1.1088   19.1369 N   0  0  0  0  0  0  0  0  0  0  0  0
  -10.5227   -0.1416   18.7073 C   0  0  2  0  0  0  0  0  0  0  0  0
  -11.5773   -0.4914   17.7464 C   0  0  2  0  0  0  0  0  0  0  0  0
  -11.6466   -1.9023   17.3099 C   0  0  0  0  0  0  0  0  0  0  0  0
  -12.5845   -2.3188   16.4236 O   0  0  0  0  0  0  0  0  0  0  0  0
  -12.2531    0.6450   17.4855 N   0  0  0  0  0  0  0  0  0  0  0  0
  -11.6790    1.6410   18.2241 C   0  0  0  0  0  0  0  0  0  0  0  0
  -10.6428    1.1648   18.9510 N   0  0  1  0  0  0  0  0  0  0  0  0
  1  3  1  1  0  0  0
  1  4  2  0  0  0  0
  1  6  1  0  0  0  0
  1 22  1  0  0  0  0
  2 28  1  0  0  0  0
  2 35  1  6  0  0  0
  2 38  2  0  0  0  0
  2 10  1  0  0  0  0
  5  6  1  0  0  0  0
  7  5  1  1  0  0  0
  7  8  1  0  0  0  0
  7  9  1  0  0  0  0
  9 10  1  6  0  0  0
  9 11  1  0  0  0  0
 11 12  1  6  0  0  0
 11 13  1  0  0  0  0
 13  8  1  1  0  0  0
 13 33  1  0  0  0  0
 14 46  1  0  0  0  0
 14 17  1  0  0  0  0
 14 25  1  6  0  0  0
 15 16  1  0  0  0  0
 15 29  1  0  0  0  0
 16 18  1  1  0  0  0
 16 21  1  0  0  0  0
 17 19  1  1  0  0  0
 17 20  1  0  0  0  0
 20 22  1  1  0  0  0
 20 24  1  0  0  0  0
 23 21  1  1  0  0  0
 23 26  1  0  0  0  0
 23 33  1  0  0  0  0
 24 25  1  6  0  0  0
 24 27  1  0  0  0  0
 26 29  1  6  0  0  0
 26 31  1  0  0  0  0
 27 28  1  0  0  0  0
 29 30  2  0  0  0  0
 31 32  1  0  0  0  0
 33 32  1  6  0  0  0
 34 36  1  0  0  0  0
 34 42  1  0  0  0  0
 36 37  1  1  0  0  0
 36 39  1  0  0  0  0
 40 39  1  6  0  0  0
 40 41  1  0  0  0  0
 40 46  1  0  0  0  0
 41 42  1  6  0  0  0
 41 44  1  0  0  0  0
 42 43  2  0  0  0  0
 44 45  1  0  0  0  0
 46 45  1  1  0  0  0
M  CHG  2   3  -1  35  -1
M  END
>  <CHROM.1>
-178.27106414,49.15750424,-8.05480702,1.63636354,16.37138408,-2.28671966
-0.95453921,-2.39164335

>  <Name>
ligand

>  <RI>
416

>  <Rbt.Current_Directory>
/home/itssahil/PROJECTS/Mol_Feturizer/Test_systems_manuscript/rnas/3mum

>  <Rbt.Executable>
rbdock ($Id: //depot/dev/client3/rdock/2013.1/src/exe/rbdock.cxx#4 $)

>  <Rbt.Library>
libRbt.so (2013.1, Build901 2013/11/27)

>  <Rbt.Parameter_File>
/export/apps/rDock/src/rDock_2013.1_src/data/scripts/dock_solv.prm

>  <Rbt.Receptor>
prm/pocket_docking_2.prm

>  <SCORE>
-40.3669

>  <SCORE.INTER>
-40.4367

>  <SCORE.INTER.CONST>
1

>  <SCORE.INTER.POLAR>
0

>  <SCORE.INTER.ROT>
2

>  <SCORE.INTER.SOLV>
39.576

>  <SCORE.INTER.VDW>
-45.0831

>  <SCORE.INTER.norm>
-0.879059

>  <SCORE.INTRA>
0.0697888

>  <SCORE.INTRA.DIHEDRAL>
-0.0192811

>  <SCORE.INTRA.DIHEDRAL.0>
2.40424

>  <SCORE.INTRA.POLAR>
0

>  <SCORE.INTRA.POLAR.0>
0

>  <SCORE.INTRA.REPUL>
0

>  <SCORE.INTRA.REPUL.0>
0

>  <SCORE.INTRA.SOLV>
0.0175349

>  <SCORE.INTRA.SOLV.lig_0>
-134.169

>  <SCORE.INTRA.VDW>
0.0706619

>  <SCORE.INTRA.VDW.0>
-2.18386

>  <SCORE.INTRA.norm>
0.00151715

>  <SCORE.RESTR>
0

>  <SCORE.RESTR.CAVITY>
0

>  <SCORE.RESTR.norm>
0

>  <SCORE.SYSTEM>
0

>  <SCORE.SYSTEM.CONST>
0

>  <SCORE.SYSTEM.DIHEDRAL>
0

>  <SCORE.SYSTEM.SOLV>
0

>  <SCORE.SYSTEM.norm>
0

>  <SCORE.heavy>
46

>  <SCORE.norm>
-0.877542

>  <RMSD>
0.258

$$$$
ligand
 OpenBabel02271912143D
libRbt.so/2013.1/901 2013/11/27
 46 52  0  0  0  0  0  0  0  0999 V2000
   -9.7500    4.9071   15.6549 P   0  0  1  0  0  0  0  0  0  0  0  0
   -5.3656    2.4107   18.6916 P   0  0  2  0  0  0  0  0  0  0  0  0
  -10.5077    3.7173   14.5816 O   0  5  0  0  0  0  0  0  0  0  0  0
  -10.5877    6.4797   15.5890 O   0  0  0  0  0  0  0  0  0  0  0  0
   -9.1368    5.0182   18.2308 C   0  0  0  0  0  0  0  0  0  0  0  0
   -9.7741    4.3243   17.1580 O   0  0  0  0  0  0  0  0  0  0  0  0
   -8.9013    4.0408   19.3666 C   0  0  1  0  0  0  0  0  0  0  0  0
  -10.1353    3.3899   19.7003 O   0  0  0  0  0  0  0  0  0  0  0  0
   -7.9357    2.9235   19.0066 C   0  0  1  0  0  0  0  0  0  0  0  0
   -6.5863    3.2559   19.3259 O   0  0  0  0  0  0  0  0  0  0  0  0
   -8.4422    1.7516   19.8289 C   0  0  1  0  0  0  0  0  0  0  0  0
   -7.8296    1.7579   21.1208 O   0  0  0  0  0  0  0  0  0  0  0  0
   -9.9298    1.9998   19.9968 C   0  0  2  0  0  0  0  0  0  0  0  0
   -6.0034    2.8583   13.5954 C   0  0  1  0  0  0  0  0  0  0  0  0
  -10.7415   -2.7612   17.7906 N   0  0  0  0  0  0  0  0  0  0  0  0
   -9.8163   -2.3925   18.7182 C   0  0  1  0  0  0  0  0  0  0  0  0
   -7.4117    3.2810   13.9039 C   0  0  2  0  0  0  0  0  0  0  0  0
   -8.9576   -3.3335   19.1742 N   0  0  0  0  0  0  0  0  0  0  0  0
   -7.7977    4.1869   12.8688 O   0  0  0  0  0  0  0  0  0  0  0  0
   -7.3229    3.9636   15.2544 C   0  0  2  0  0  0  0  0  0  0  0  0
   -9.7198   -1.1179   19.2006 N   0  0  0  0  0  0  0  0  0  0  0  0
   -8.1846    5.0909   15.3315 O   0  0  0  0  0  0  0  0  0  0  0  0
  -10.5585   -0.1387   18.7769 C   0  0  2  0  0  0  0  0  0  0  0  0
   -5.8774    4.4054   15.3727 C   0  0  2  0  0  0  0  0  0  0  0  0
   -5.1400    3.5772   14.4752 O   0  0  0  0  0  0  0  0  0  0  0  0
  -11.5773   -0.4840   17.7704 C   0  0  1  0  0  0  0  0  0  0  0  0
   -5.3231    4.2455   16.7840 C   0  0  0  0  0  0  0  0  0  0  0  0
   -5.3594    2.8637   17.1464 O   0  0  0  0  0  0  0  0  0  0  0  0
  -11.6322   -1.8757   17.2885 C   0  0  0  0  0  0  0  0  0  0  0  0
  -12.5492   -2.2511   16.3610 O   0  0  0  0  0  0  0  0  0  0  0  0
  -12.2654    0.6341   17.5144 N   0  0  0  0  0  0  0  0  0  0  0  0
  -11.7353    1.6242   18.2904 C   0  0  0  0  0  0  0  0  0  0  0  0
  -10.7142    1.1680   19.0460 N   0  0  1  0  0  0  0  0  0  0  0  0
   -7.4300   -1.8488   11.8131 N   0  0  0  0  0  0  0  0  0  0  0  0
   -5.6472    0.6549   18.8281 O   0  5  0  0  0  0  0  0  0  0  0  0
   -7.7928   -0.6086   11.3851 C   0  0  2  0  0  0  0  0  0  0  0  0
   -8.6484   -0.4927   10.3361 N   0  0  0  0  0  0  0  0  0  0  0  0
   -3.7889    2.8135   19.3986 O   0  0  0  0  0  0  0  0  0  0  0  0
   -7.3239    0.5243   11.9759 N   0  0  0  0  0  0  0  0  0  0  0  0
   -6.4642    0.4734   13.0202 C   0  0  2  0  0  0  0  0  0  0  0  0
   -6.0381   -0.8370   13.5290 C   0  0  2  0  0  0  0  0  0  0  0  0
   -6.5855   -2.0311   12.8504 C   0  0  0  0  0  0  0  0  0  0  0  0
   -6.2516   -3.2826   13.2513 O   0  0  0  0  0  0  0  0  0  0  0  0
   -5.2051   -0.5972   14.5610 N   0  0  0  0  0  0  0  0  0  0  0  0
   -5.1035    0.7585   14.6981 C   0  0  0  0  0  0  0  0  0  0  0  0
   -5.8610    1.3935   13.7751 N   0  0  1  0  0  0  0  0  0  0  0  0
  1  3  1  6  0  0  0
  1  4  2  0  0  0  0
  1  6  1  0  0  0  0
  1 22  1  0  0  0  0
  2 28  1  0  0  0  0
  2 35  1  1  0  0  0
  2 38  2  0  0  0  0
  2 10  1  0  0  0  0
  5  6  1  0  0  0  0
  7  5  1  6  0  0  0
  7  8  1  0  0  0  0
  7  9  1  0  0  0  0
  9 10  1  1  0  0  0
  9 11  1  0  0  0  0
 11 12  1  1  0  0  0
 11 13  1  0  0  0  0
 13  8  1  6  0  0  0
 13 33  1  0  0  0  0
 14 46  1  0  0  0  0
 14 17  1  0  0  0  0
 14 25  1  1  0  0  0
 15 16  1  0  0  0  0
 15 29  1  0  0  0  0
 16 18  1  6  0  0  0
 16 21  1  0  0  0  0
 17 19  1  6  0  0  0
 17 20  1  0  0  0  0
 20 22  1  6  0  0  0
 20 24  1  0  0  0  0
 23 21  1  6  0  0  0
 23 26  1  0  0  0  0
 23 33  1  0  0  0  0
 24 25  1  6  0  0  0
 24 27  1  0  0  0  0
 26 29  1  1  0  0  0
 26 31  1  0  0  0  0
 27 28  1  0  0  0  0
 29 30  2  0  0  0  0
 31 32  1  0  0  0  0
 33 32  1  1  0  0  0
 34 36  1  0  0  0  0
 34 42  1  0  0  0  0
 36 37  1  6  0  0  0
 36 39  1  0  0  0  0
 40 39  1  1  0  0  0
 40 41  1  0  0  0  0
 40 46  1  0  0  0  0
 41 42  1  1  0  0  0
 41 44  1  0  0  0  0
 42 43  2  0  0  0  0
 44 45  1  0  0  0  0
 46 45  1  6  0  0  0
M  CHG  2   3  -1  35  -1
M  END
>  <CHROM.1>
162.81651470,66.41818498,-8.11325032,1.64221703,16.42753362,-2.24301637,-0.96719223
-2.46398137

>  <Name>
ligand

>  <RI>
416

>  <Rbt.Current_Directory>
/home/itssahil/PROJECTS/Mol_Feturizer/Test_systems_manuscript/rnas/3mum

>  <Rbt.Executable>
rbdock ($Id: //depot/dev/client3/rdock/2013.1/src/exe/rbdock.cxx#4 $)

>  <Rbt.Library>
libRbt.so (2013.1, Build901 2013/11/27)

>  <Rbt.Parameter_File>
/export/apps/rDock/src/rDock_2013.1_src/data/scripts/dock_solv.prm

>  <Rbt.Receptor>
prm/pocket_docking_3.prm

>  <SCORE>
-40.4143

>  <SCORE.INTER>
-40.3999

>  <SCORE.INTER.CONST>
1

>  <SCORE.INTER.POLAR>
0

>  <SCORE.INTER.ROT>
2

>  <SCORE.INTER.SOLV>
39.2739

>  <SCORE.INTER.VDW>
-44.9579

>  <SCORE.INTER.norm>
-0.878258

>  <SCORE.INTRA>
-0.0144777

>  <SCORE.INTRA.DIHEDRAL>
0.00141297

>  <SCORE.INTRA.DIHEDRAL.0>
2.40424

>  <SCORE.INTRA.POLAR>
0

>  <SCORE.INTRA.POLAR.0>
0

>  <SCORE.INTRA.REPUL>
0

>  <SCORE.INTRA.REPUL.0>
0

>  <SCORE.INTRA.SOLV>
0.0011017

>  <SCORE.INTRA.SOLV.lig_0>
-134.169

>  <SCORE.INTRA.VDW>
-0.0157351

>  <SCORE.INTRA.VDW.0>
-2.18386

>  <SCORE.INTRA.norm>
-0.000314733

>  <SCORE.RESTR>
0

>  <SCORE.RESTR.CAVITY>
0

>  <SCORE.RESTR.norm>
0

>  <SCORE.SYSTEM>
0

>  <SCORE.SYSTEM.CONST>
0

>  <SCORE.SYSTEM.DIHEDRAL>
0

>  <SCORE.SYSTEM.SOLV>
0

>  <SCORE.SYSTEM.norm>
0

>  <SCORE.heavy>
46

>  <SCORE.norm>
-0.878573

>  <RMSD>
0.258

$$$$
ligand
 OpenBabel02271912143D
libRbt.so/2013.1/901 2013/11/27
 46 52  0  0  0  0  0  0  0  0999 V2000
   -5.2551    2.5017   18.6971 P   0  0  1  0  0  0  0  0  0  0  0  0
   -9.7112    4.8270   15.6292 P   0  0  2  0  0  0  0  0  0  0  0  0
   -5.4194    0.7386   18.7765 O   0  5  0  0  0  0  0  0  0  0  0  0
   -3.7480    3.0572   19.4711 O   0  0  0  0  0  0  0  0  0  0  0  0
   -5.2759    4.3236   16.7726 C   0  0  0  0  0  0  0  0  0  0  0  0
   -5.2835    2.9460   17.1475 O   0  0  0  0  0  0  0  0  0  0  0  0
   -5.7887    4.4405   15.3499 C   0  0  1  0  0  0  0  0  0  0  0  0
   -5.0363    3.5655   14.4976 O   0  0  0  0  0  0  0  0  0  0  0  0
   -7.2386    4.0105   15.1971 C   0  0  1  0  0  0  0  0  0  0  0  0
   -8.1425    5.1007   15.3626 O   0  0  0  0  0  0  0  0  0  0  0  0
   -7.2836    3.4433   13.7891 C   0  0  1  0  0  0  0  0  0  0  0  0
   -7.5753    4.4823   12.8511 O   0  0  0  0  0  0  0  0  0  0  0  0
   -5.8802    2.9310   13.5239 C   0  0  2  0  0  0  0  0  0  0  0  0
   -9.8058    1.9540   19.9087 C   0  0  1  0  0  0  0  0  0  0  0  0
   -7.4418   -1.8680   11.8738 N   0  0  0  0  0  0  0  0  0  0  0  0
   -7.7747   -0.6426   11.3839 C   0  0  1  0  0  0  0  0  0  0  0  0
   -8.3543    1.6745   19.6400 C   0  0  2  0  0  0  0  0  0  0  0  0
   -8.6205   -0.5835   10.3295 N   0  0  0  0  0  0  0  0  0  0  0  0
   -7.7355    1.4895   20.9143 O   0  0  0  0  0  0  0  0  0  0  0  0
   -7.8461    2.9164   18.9348 C   0  0  2  0  0  0  0  0  0  0  0  0
   -7.2939    0.5213   11.9138 N   0  0  0  0  0  0  0  0  0  0  0  0
   -6.5258    3.2490   19.3418 O   0  0  0  0  0  0  0  0  0  0  0  0
   -6.4416    0.5156   12.9699 C   0  0  2  0  0  0  0  0  0  0  0  0
   -8.8078    4.0156   19.3414 C   0  0  2  0  0  0  0  0  0  0  0  0
  -10.0072    3.3572   19.7452 O   0  0  0  0  0  0  0  0  0  0  0  0
   -6.0513   -0.7853   13.5407 C   0  0  1  0  0  0  0  0  0  0  0  0
   -9.1167    4.9826   18.2039 C   0  0  0  0  0  0  0  0  0  0  0  0
   -9.7424    4.2655   17.1380 O   0  0  0  0  0  0  0  0  0  0  0  0
   -6.6026   -2.0058   12.9256 C   0  0  0  0  0  0  0  0  0  0  0  0
   -6.2790   -3.2316   13.4100 O   0  0  0  0  0  0  0  0  0  0  0  0
   -5.2234   -0.5300   14.5597 N   0  0  0  0  0  0  0  0  0  0  0  0
   -5.0887    0.8259   14.6440 C   0  0  0  0  0  0  0  0  0  0  0  0
   -5.8154    1.4555   13.6969 N   0  0  1  0  0  0  0  0  0  0  0  0
  -10.6270   -2.7409   17.7518 N   0  0  0  0  0  0  0  0  0  0  0  0
  -10.3638    3.6140   14.4962 O   0  5  0  0  0  0  0  0  0  0  0  0
   -9.6656   -2.3412   18.6287 C   0  0  2  0  0  0  0  0  0  0  0  0
   -8.7459   -3.2428   19.0612 N   0  0  0  0  0  0  0  0  0  0  0  0
  -10.7036    6.2961   15.5587 O   0  0  0  0  0  0  0  0  0  0  0  0
   -9.5956   -1.0623   19.0890 N   0  0  0  0  0  0  0  0  0  0  0  0
  -10.4871   -0.1210   18.7000 C   0  0  2  0  0  0  0  0  0  0  0  0
  -11.5466   -0.4914   17.7524 C   0  0  2  0  0  0  0  0  0  0  0  0
  -11.5676   -1.8935   17.2834 C   0  0  0  0  0  0  0  0  0  0  0  0
  -12.5062   -2.3274   16.4063 O   0  0  0  0  0  0  0  0  0  0  0  0
  -12.2735    0.6220   17.5326 N   0  0  0  0  0  0  0  0  0  0  0  0
  -11.7250    1.6232   18.2834 C   0  0  0  0  0  0  0  0  0  0  0  0
  -10.6551    1.1733   18.9775 N   0  0  1  0  0  0  0  0  0  0  0  0
  1  3  1  1  0  0  0
  1  4  2  0  0  0  0
  1  6  1  0  0  0  0
  1 22  1  0  0  0  0
  2 28  1  0  0  0  0
  2 35  1  6  0  0  0
  2 38  2  0  0  0  0
  2 10  1  0  0  0  0
  5  6  1  0  0  0  0
  7  5  1  1  0  0  0
  7  8  1  0  0  0  0
  7  9  1  0  0  0  0
  9 10  1  6  0  0  0
  9 11  1  0  0  0  0
 11 12  1  6  0  0  0
 11 13  1  0  0  0  0
 13  8  1  1  0  0  0
 13 33  1  0  0  0  0
 14 46  1  0  0  0  0
 14 17  1  0  0  0  0
 14 25  1  6  0  0  0
 15 16  1  0  0  0  0
 15 29  1  0  0  0  0
 16 18  1  1  0  0  0
 16 21  1  0  0  0  0
 17 19  1  1  0  0  0
 17 20  1  0  0  0  0
 20 22  1  1  0  0  0
 20 24  1  0  0  0  0
 23 21  1  1  0  0  0
 23 26  1  0  0  0  0
 23 33  1  0  0  0  0
 24 25  1  6  0  0  0
 24 27  1  0  0  0  0
 26 29  1  6  0  0  0
 26 31  1  0  0  0  0
 27 28  1  0  0  0  0
 29 30  2  0  0  0  0
 31 32  1  0  0  0  0
 33 32  1  6  0  0  0
 34 36  1  0  0  0  0
 34 42  1  0  0  0  0
 36 37  1  1  0  0  0
 36 39  1  0  0  0  0
 40 39  1  6  0  0  0
 40 41  1  0  0  0  0
 40 46  1  0  0  0  0
 41 42  1  6  0  0  0
 41 44  1  0  0  0  0
 42 43  2  0  0  0  0
 44 45  1  0  0  0  0
 46 45  1  1  0  0  0
M  CHG  2   3  -1  35  -1
M  END
>  <CHROM.1>
-178.80313509,46.18044124,-8.04593598,1.65435790,16.40096679,-2.22164814
-0.95296615,-2.41421215

>  <Name>
ligand

>  <RI>
-1

>  <Rbt.Current_Directory>
/home/itssahil/PROJECTS/Mol_Feturizer/Test_systems_manuscript/rnas/3mum

>  <Rbt.Executable>
rbdock ($Id: //depot/dev/client3/rdock/2013.1/src/exe/rbdock.cxx#4 $)

>  <Rbt.Library>
libRbt.so (2013.1, Build901 2013/11/27)

>  <Rbt.Parameter_File>
/export/apps/rDock/src/rDock_2013.1_src/data/scripts/dock_solv.prm

>  <Rbt.Receptor>
prm/pocket_docking_8.prm

>  <SCORE>
-40.2595

>  <SCORE.INTER>
-40.3728

>  <SCORE.INTER.CONST>
1

>  <SCORE.INTER.POLAR>
0

>  <SCORE.INTER.ROT>
2

>  <SCORE.INTER.SOLV>
39.0084

>  <SCORE.INTER.VDW>
-44.8513

>  <SCORE.INTER.norm>
-0.877669

>  <SCORE.INTRA>
0.113247

>  <SCORE.INTRA.DIHEDRAL>
-0.0227505

>  <SCORE.INTRA.DIHEDRAL.0>
2.40424

>  <SCORE.INTRA.POLAR>
0

>  <SCORE.INTRA.POLAR.0>
0

>  <SCORE.INTRA.REPUL>
0

>  <SCORE.INTRA.REPUL.0>
0

>  <SCORE.INTRA.SOLV>
0.0212425

>  <SCORE.INTRA.SOLV.lig_0>
-134.169

>  <SCORE.INTRA.VDW>
0.114001

>  <SCORE.INTRA.VDW.0>
-2.18386

>  <SCORE.INTRA.norm>
0.00246189

>  <SCORE.RESTR>
0

>  <SCORE.RESTR.CAVITY>
0

>  <SCORE.RESTR.norm>
0

>  <SCORE.SYSTEM>
0

>  <SCORE.SYSTEM.CONST>
0

>  <SCORE.SYSTEM.DIHEDRAL>
0

>  <SCORE.SYSTEM.SOLV>
0

>  <SCORE.SYSTEM.norm>
0

>  <SCORE.heavy>
46

>  <SCORE.norm>
-0.875207

>  <RMSD>
0.258

$$$$
ligand
 OpenBabel02271912143D
libRbt.so/2013.1/901 2013/11/27
 46 52  0  0  0  0  0  0  0  0999 V2000
   -5.2237    2.4578   18.6251 P   0  0  1  0  0  0  0  0  0  0  0  0
   -9.6982    4.8321   15.6221 P   0  0  2  0  0  0  0  0  0  0  0  0
   -5.4003    0.6956   18.6975 O   0  5  0  0  0  0  0  0  0  0  0  0
   -3.7034    2.9981   19.3842 O   0  0  0  0  0  0  0  0  0  0  0  0
   -5.2536    4.2898   16.7104 C   0  0  0  0  0  0  0  0  0  0  0  0
   -5.2671    2.9103   17.0783 O   0  0  0  0  0  0  0  0  0  0  0  0
   -5.7822    4.4178   15.2945 C   0  0  1  0  0  0  0  0  0  0  0  0
   -5.0465    3.5418   14.4289 O   0  0  0  0  0  0  0  0  0  0  0  0
   -7.2370    3.9994   15.1567 C   0  0  1  0  0  0  0  0  0  0  0  0
   -8.1307    5.0955   15.3384 O   0  0  0  0  0  0  0  0  0  0  0  0
   -7.3029    3.4400   13.7465 C   0  0  1  0  0  0  0  0  0  0  0  0
   -7.5979    4.4859   12.8172 O   0  0  0  0  0  0  0  0  0  0  0  0
   -5.9065    2.9186   13.4620 C   0  0  2  0  0  0  0  0  0  0  0  0
   -9.7638    1.9377   19.8878 C   0  0  1  0  0  0  0  0  0  0  0  0
   -7.4934   -1.8616   11.7816 N   0  0  0  0  0  0  0  0  0  0  0  0
   -7.8181   -0.6315   11.2981 C   0  0  1  0  0  0  0  0  0  0  0  0
   -8.3177    1.6488   19.6004 C   0  0  2  0  0  0  0  0  0  0  0  0
   -8.6615   -0.5613   10.2425 N   0  0  0  0  0  0  0  0  0  0  0  0
   -7.6853    1.4526   20.8664 O   0  0  0  0  0  0  0  0  0  0  0  0
   -7.8086    2.8905   18.8956 C   0  0  2  0  0  0  0  0  0  0  0  0
   -7.3314    0.5265   11.8356 N   0  0  0  0  0  0  0  0  0  0  0  0
   -6.4811    3.2111   19.2887 O   0  0  0  0  0  0  0  0  0  0  0  0
   -6.4812    0.5097   12.8931 C   0  0  2  0  0  0  0  0  0  0  0  0
   -8.7571    3.9947   19.3192 C   0  0  2  0  0  0  0  0  0  0  0  0
   -9.9566    3.3431   19.7338 O   0  0  0  0  0  0  0  0  0  0  0  0
   -6.0997   -0.7966   13.4573 C   0  0  1  0  0  0  0  0  0  0  0  0
   -9.0721    4.9699   18.1904 C   0  0  0  0  0  0  0  0  0  0  0  0
   -9.7157    4.2630   17.1283 O   0  0  0  0  0  0  0  0  0  0  0  0
   -6.6570   -2.0104   12.8342 C   0  0  0  0  0  0  0  0  0  0  0  0
   -6.3415   -3.2408   13.3122 O   0  0  0  0  0  0  0  0  0  0  0  0
   -5.2721   -0.5521   14.4793 N   0  0  0  0  0  0  0  0  0  0  0  0
   -5.1296    0.8025   14.5716 C   0  0  0  0  0  0  0  0  0  0  0  0
   -5.8508    1.4418   13.6267 N   0  0  1  0  0  0  0  0  0  0  0  0
  -10.6985   -2.7596   17.7829 N   0  0  0  0  0  0  0  0  0  0  0  0
  -10.3731    3.6299   14.4908 O   0  5  0  0  0  0  0  0  0  0  0  0
   -9.7300   -2.3744   18.6585 C   0  0  2  0  0  0  0  0  0  0  0  0
   -8.8352   -3.2943   19.1048 N   0  0  0  0  0  0  0  0  0  0  0  0
  -10.6803    6.3088   15.5709 O   0  0  0  0  0  0  0  0  0  0  0  0
   -9.6286   -1.0925   19.1041 N   0  0  0  0  0  0  0  0  0  0  0  0
  -10.4943   -0.1332   18.7009 C   0  0  2  0  0  0  0  0  0  0  0  0
  -11.5599   -0.4874   17.7539 C   0  0  2  0  0  0  0  0  0  0  0  0
  -11.6155   -1.8939   17.3012 C   0  0  0  0  0  0  0  0  0  0  0  0
  -12.5620   -2.3138   16.4259 O   0  0  0  0  0  0  0  0  0  0  0  0
  -12.2571    0.6416   17.5185 N   0  0  0  0  0  0  0  0  0  0  0  0
  -11.6855    1.6372   18.2596 C   0  0  0  0  0  0  0  0  0  0  0  0
  -10.6299    1.1682   18.9627 N   0  0  1  0  0  0  0  0  0  0  0  0
  1  3  1  1  0  0  0
  1  4  2  0  0  0  0
  1  6  1  0  0  0  0
  1 22  1  0  0  0  0
  2 28  1  0  0  0  0
  2 35  1  6  0  0  0
  2 38  2  0  0  0  0
  2 10  1  0  0  0  0
  5  6  1  0  0  0  0
  7  5  1  1  0  0  0
  7  8  1  0  0  0  0
  7  9  1  0  0  0  0
  9 10  1  6  0  0  0
  9 11  1  0  0  0  0
 11 12  1  6  0  0  0
 11 13  1  0  0  0  0
 13  8  1  1  0  0  0
 13 33  1  0  0  0  0
 14 46  1  0  0  0  0
 14 17  1  0  0  0  0
 14 25  1  6  0  0  0
 15 16  1  0  0  0  0
 15 29  1  0  0  0  0
 16 18  1  1  0  0  0
 16 21  1  0  0  0  0
 17 19  1  1  0  0  0
 17 20  1  0  0  0  0
 20 22  1  1  0  0  0
 20 24  1  0  0  0  0
 23 21  1  1  0  0  0
 23 26  1  0  0  0  0
 23 33  1  0  0  0  0
 24 25  1  6  0  0  0
 24 27  1  0  0  0  0
 26 29  1  6  0  0  0
 26 31  1  0  0  0  0
 27 28  1  0  0  0  0
 29 30  2  0  0  0  0
 31 32  1  0  0  0  0
 33 32  1  6  0  0  0
 34 36  1  0  0  0  0
 34 42  1  0  0  0  0
 36 37  1  1  0  0  0
 36 39  1  0  0  0  0
 40 39  1  6  0  0  0
 40 41  1  0  0  0  0
 40 46  1  0  0  0  0
 41 42  1  6  0  0  0
 41 44  1  0  0  0  0
 42 43  2  0  0  0  0
 44 45  1  0  0  0  0
 46 45  1  1  0  0  0
M  CHG  2   3  -1  35  -1
M  END
>  <CHROM.1>
-178.01296931,47.85101026,-8.05028049,1.64083126,16.36255242,-2.24652103
-0.95850506,-2.39159559

>  <Name>
ligand

>  <RI>
416

>  <Rbt.Current_Directory>
/home/itssahil/PROJECTS/Mol_Feturizer/Test_systems_manuscript/rnas/3mum

>  <Rbt.Executable>
rbdock ($Id: //depot/dev/client3/rdock/2013.1/src/exe/rbdock.cxx#4 $)

>  <Rbt.Library>
libRbt.so (2013.1, Build901 2013/11/27)

>  <Rbt.Parameter_File>
/export/apps/rDock/src/rDock_2013.1_src/data/scripts/dock_solv.prm

>  <Rbt.Receptor>
prm/pocket_docking_3.prm

>  <SCORE>
-40.3226

>  <SCORE.INTER>
-40.4154

>  <SCORE.INTER.CONST>
1

>  <SCORE.INTER.POLAR>
0

>  <SCORE.INTER.ROT>
2

>  <SCORE.INTER.SOLV>
39.5991

>  <SCORE.INTER.VDW>
-45.0766

>  <SCORE.INTER.norm>
-0.878597

>  <SCORE.INTRA>
0.092841

>  <SCORE.INTRA.DIHEDRAL>
-0.0207619

>  <SCORE.INTRA.DIHEDRAL.0>
2.40424

>  <SCORE.INTRA.POLAR>
0

>  <SCORE.INTRA.POLAR.0>
0

>  <SCORE.INTRA.REPUL>
0

>  <SCORE.INTRA.REPUL.0>
0

>  <SCORE.INTRA.SOLV>
0.0190516

>  <SCORE.INTRA.SOLV.lig_0>
-134.169

>  <SCORE.INTRA.VDW>
0.0936962

>  <SCORE.INTRA.VDW.0>
-2.18386

>  <SCORE.INTRA.norm>
0.00201828

>  <SCORE.RESTR>
0

>  <SCORE.RESTR.CAVITY>
0

>  <SCORE.RESTR.norm>
0

>  <SCORE.SYSTEM>
0

>  <SCORE.SYSTEM.CONST>
0

>  <SCORE.SYSTEM.DIHEDRAL>
0

>  <SCORE.SYSTEM.SOLV>
0

>  <SCORE.SYSTEM.norm>
0

>  <SCORE.heavy>
46

>  <SCORE.norm>
-0.876578

>  <RMSD>
0.259

$$$$
ligand
 OpenBabel02271912143D
libRbt.so/2013.1/901 2013/11/27
 46 52  0  0  0  0  0  0  0  0999 V2000
   -9.6839    4.8447   15.3768 P   0  0  1  0  0  0  0  0  0  0  0  0
   -5.1927    2.5669   18.4291 P   0  0  2  0  0  0  0  0  0  0  0  0
  -10.4599    3.5876   14.3974 O   0  5  0  0  0  0  0  0  0  0  0  0
  -10.5381    6.4040   15.2423 O   0  0  0  0  0  0  0  0  0  0  0  0
   -9.0000    5.1127   17.9232 C   0  0  0  0  0  0  0  0  0  0  0  0
   -9.6604    4.3517   16.9117 O   0  0  0  0  0  0  0  0  0  0  0  0
   -8.7234    4.2062   19.1074 C   0  0  1  0  0  0  0  0  0  0  0  0
   -9.9414    3.5665   19.5139 O   0  0  0  0  0  0  0  0  0  0  0  0
   -7.7577    3.0771   18.7865 C   0  0  1  0  0  0  0  0  0  0  0  0
   -6.4032    3.4385   19.0470 O   0  0  0  0  0  0  0  0  0  0  0  0
   -8.2298    1.9520   19.6904 C   0  0  1  0  0  0  0  0  0  0  0  0
   -7.5814    2.0394   20.9618 O   0  0  0  0  0  0  0  0  0  0  0  0
   -9.7144    2.1979   19.8858 C   0  0  2  0  0  0  0  0  0  0  0  0
   -5.9770    2.7072   13.3356 C   0  0  1  0  0  0  0  0  0  0  0  0
  -10.5701   -2.6996   18.0217 N   0  0  0  0  0  0  0  0  0  0  0  0
   -9.6271   -2.2708   18.9045 C   0  0  1  0  0  0  0  0  0  0  0  0
   -7.3801    3.1364   13.6587 C   0  0  2  0  0  0  0  0  0  0  0  0
   -8.7603   -3.1803   19.4066 N   0  0  0  0  0  0  0  0  0  0  0  0
   -7.8036    3.9764   12.5834 O   0  0  0  0  0  0  0  0  0  0  0  0
   -7.2600    3.8983   14.9636 C   0  0  2  0  0  0  0  0  0  0  0  0
   -9.5210   -0.9667   19.2979 N   0  0  0  0  0  0  0  0  0  0  0  0
   -8.1300    5.0214   14.9986 O   0  0  0  0  0  0  0  0  0  0  0  0
  -10.3671   -0.0169   18.8251 C   0  0  2  0  0  0  0  0  0  0  0  0
   -5.8161    4.3576   15.0144 C   0  0  2  0  0  0  0  0  0  0  0  0
   -5.0962    3.4836   14.1466 O   0  0  0  0  0  0  0  0  0  0  0  0
  -11.4051   -0.4275   17.8637 C   0  0  1  0  0  0  0  0  0  0  0  0
   -5.2211    4.2859   16.4163 C   0  0  0  0  0  0  0  0  0  0  0  0
   -5.2340    2.9277   16.8604 O   0  0  0  0  0  0  0  0  0  0  0  0
  -11.4698   -1.8485   17.4780 C   0  0  0  0  0  0  0  0  0  0  0  0
  -12.4045   -2.2841   16.5955 O   0  0  0  0  0  0  0  0  0  0  0  0
  -12.0976    0.6718   17.5460 N   0  0  0  0  0  0  0  0  0  0  0  0
  -11.5523    1.7112   18.2432 C   0  0  0  0  0  0  0  0  0  0  0  0
  -10.5172    1.3053   19.0083 N   0  0  1  0  0  0  0  0  0  0  0  0
   -7.4723   -2.1052   11.9308 N   0  0  0  0  0  0  0  0  0  0  0  0
   -5.4536    0.8200   18.6768 O   0  5  0  0  0  0  0  0  0  0  0  0
   -7.8662   -0.8949   11.4483 C   0  0  2  0  0  0  0  0  0  0  0  0
   -8.7801   -0.8466   10.4440 N   0  0  0  0  0  0  0  0  0  0  0  0
   -3.6007    3.0231   19.0659 O   0  0  0  0  0  0  0  0  0  0  0  0
   -7.3719    0.2737   11.9405 N   0  0  0  0  0  0  0  0  0  0  0  0
   -6.4547    0.2900   12.9357 C   0  0  2  0  0  0  0  0  0  0  0  0
   -5.9925   -0.9852   13.4997 C   0  0  2  0  0  0  0  0  0  0  0  0
   -6.5698   -2.2205   12.9281 C   0  0  0  0  0  0  0  0  0  0  0  0
   -6.2062   -3.4438   13.3861 O   0  0  0  0  0  0  0  0  0  0  0  0
   -5.1044   -0.6796   14.4663 N   0  0  0  0  0  0  0  0  0  0  0  0
   -5.0037    0.6823   14.5134 C   0  0  0  0  0  0  0  0  0  0  0  0
   -5.8157    1.2568   13.5971 N   0  0  1  0  0  0  0  0  0  0  0  0
  1  3  1  6  0  0  0
  1  4  2  0  0  0  0
  1  6  1  0  0  0  0
  1 22  1  0  0  0  0
  2 28  1  0  0  0  0
  2 35  1  1  0  0  0
  2 38  2  0  0  0  0
  2 10  1  0  0  0  0
  5  6  1  0  0  0  0
  7  5  1  6  0  0  0
  7  8  1  0  0  0  0
  7  9  1  0  0  0  0
  9 10  1  1  0  0  0
  9 11  1  0  0  0  0
 11 12  1  1  0  0  0
 11 13  1  0  0  0  0
 13  8  1  6  0  0  0
 13 33  1  0  0  0  0
 14 46  1  0  0  0  0
 14 17  1  0  0  0  0
 14 25  1  1  0  0  0
 15 16  1  0  0  0  0
 15 29  1  0  0  0  0
 16 18  1  6  0  0  0
 16 21  1  0  0  0  0
 17 19  1  6  0  0  0
 17 20  1  0  0  0  0
 20 22  1  6  0  0  0
 20 24  1  0  0  0  0
 23 21  1  6  0  0  0
 23 26  1  0  0  0  0
 23 33  1  0  0  0  0
 24 25  1  6  0  0  0
 24 27  1  0  0  0  0
 26 29  1  1  0  0  0
 26 31  1  0  0  0  0
 27 28  1  0  0  0  0
 29 30  2  0  0  0  0
 31 32  1  0  0  0  0
 33 32  1  1  0  0  0
 34 36  1  0  0  0  0
 34 42  1  0  0  0  0
 36 37  1  6  0  0  0
 36 39  1  0  0  0  0
 40 39  1  1  0  0  0
 40 41  1  0  0  0  0
 40 46  1  0  0  0  0
 41 42  1  1  0  0  0
 41 44  1  0  0  0  0
 42 43  2  0  0  0  0
 44 45  1  0  0  0  0
 46 45  1  6  0  0  0
M  CHG  2   3  -1  35  -1
M  END
>  <CHROM.1>
163.72505519,64.78173795,-8.00519067,1.64363028,16.30317991,-2.23087718,-0.99401470
-2.49868449

>  <Name>
ligand

>  <RI>
-1

>  <Rbt.Current_Directory>
/home/itssahil/PROJECTS/Mol_Feturizer/Test_systems_manuscript/rnas/3mum

>  <Rbt.Executable>
rbdock ($Id: //depot/dev/client3/rdock/2013.1/src/exe/rbdock.cxx#4 $)

>  <Rbt.Library>
libRbt.so (2013.1, Build901 2013/11/27)

>  <Rbt.Parameter_File>
/export/apps/rDock/src/rDock_2013.1_src/data/scripts/dock_solv.prm

>  <Rbt.Receptor>
prm/pocket_docking_4.prm

>  <SCORE>
-40.323

>  <SCORE.INTER>
-40.3182

>  <SCORE.INTER.CONST>
1

>  <SCORE.INTER.POLAR>
0

>  <SCORE.INTER.ROT>
2

>  <SCORE.INTER.SOLV>
39.3158

>  <SCORE.INTER.VDW>
-44.9174

>  <SCORE.INTER.norm>
-0.876483

>  <SCORE.INTRA>
-0.00478941

>  <SCORE.INTRA.DIHEDRAL>
-0.000753413

>  <SCORE.INTRA.DIHEDRAL.0>
2.40424

>  <SCORE.INTRA.POLAR>
0

>  <SCORE.INTRA.POLAR.0>
0

>  <SCORE.INTRA.REPUL>
0

>  <SCORE.INTRA.REPUL.0>
0

>  <SCORE.INTRA.SOLV>
0.00292259

>  <SCORE.INTRA.SOLV.lig_0>
-134.169

>  <SCORE.INTRA.VDW>
-0.005874

>  <SCORE.INTRA.VDW.0>
-2.18386

>  <SCORE.INTRA.norm>
-0.000104118

>  <SCORE.RESTR>
0

>  <SCORE.RESTR.CAVITY>
0

>  <SCORE.RESTR.norm>
0

>  <SCORE.SYSTEM>
0

>  <SCORE.SYSTEM.CONST>
0

>  <SCORE.SYSTEM.DIHEDRAL>
0

>  <SCORE.SYSTEM.SOLV>
0

>  <SCORE.SYSTEM.norm>
0

>  <SCORE.heavy>
46

>  <SCORE.norm>
-0.876587

>  <RMSD>
0.259

$$$$
ligand
 OpenBabel02271912143D
libRbt.so/2013.1/901 2013/11/27
 46 52  0  0  0  0  0  0  0  0999 V2000
   -5.3148    2.6864   18.6974 P   0  0  1  0  0  0  0  0  0  0  0  0
   -9.8392    4.8312   15.5981 P   0  0  2  0  0  0  0  0  0  0  0  0
   -5.3943    0.9166   18.7537 O   0  5  0  0  0  0  0  0  0  0  0  0
   -3.8464    3.3046   19.4980 O   0  0  0  0  0  0  0  0  0  0  0  0
   -5.3996    4.5290   16.7945 C   0  0  0  0  0  0  0  0  0  0  0  0
   -5.3450    3.1481   17.1530 O   0  0  0  0  0  0  0  0  0  0  0  0
   -5.8993    4.6386   15.3665 C   0  0  1  0  0  0  0  0  0  0  0  0
   -5.0945    3.8118   14.5141 O   0  0  0  0  0  0  0  0  0  0  0  0
   -7.3245    4.1408   15.1894 C   0  0  1  0  0  0  0  0  0  0  0  0
   -8.2824    5.1839   15.3557 O   0  0  0  0  0  0  0  0  0  0  0  0
   -7.3240    3.5898   13.7743 C   0  0  1  0  0  0  0  0  0  0  0  0
   -7.6539    4.6249   12.8448 O   0  0  0  0  0  0  0  0  0  0  0  0
   -5.8940    3.1494   13.5218 C   0  0  2  0  0  0  0  0  0  0  0  0
   -9.8486    1.9039   19.8417 C   0  0  1  0  0  0  0  0  0  0  0  0
   -7.5221   -1.6969   12.0881 N   0  0  0  0  0  0  0  0  0  0  0  0
   -7.9583   -0.4828   11.6546 C   0  0  1  0  0  0  0  0  0  0  0  0
   -8.3819    1.6984   19.5890 C   0  0  2  0  0  0  0  0  0  0  0  0
   -8.9451   -0.4506   10.7295 N   0  0  0  0  0  0  0  0  0  0  0  0
   -7.7711    1.5277   20.8692 O   0  0  0  0  0  0  0  0  0  0  0  0
   -7.9257    2.9721   18.9054 C   0  0  2  0  0  0  0  0  0  0  0  0
   -7.4442    0.6959   12.1164 N   0  0  0  0  0  0  0  0  0  0  0  0
   -6.6285    3.3632   19.3339 O   0  0  0  0  0  0  0  0  0  0  0  0
   -6.4524    0.7173   13.0424 C   0  0  2  0  0  0  0  0  0  0  0  0
   -8.9447    4.0183   19.3122 C   0  0  2  0  0  0  0  0  0  0  0  0
  -10.1159    3.2976   19.6921 O   0  0  0  0  0  0  0  0  0  0  0  0
   -5.9457   -0.5705   13.5478 C   0  0  1  0  0  0  0  0  0  0  0  0
   -9.2858    4.9834   18.1822 C   0  0  0  0  0  0  0  0  0  0  0  0
   -9.8622    4.2501   17.0996 O   0  0  0  0  0  0  0  0  0  0  0  0
   -6.5397   -1.8079   13.0113 C   0  0  0  0  0  0  0  0  0  0  0  0
   -6.1134   -3.0228   13.4407 O   0  0  0  0  0  0  0  0  0  0  0  0
   -4.9913   -0.2889   14.4416 N   0  0  0  0  0  0  0  0  0  0  0  0
   -4.8883    1.0705   14.5115 C   0  0  0  0  0  0  0  0  0  0  0  0
   -5.7599    1.6767   13.6782 N   0  0  1  0  0  0  0  0  0  0  0  0
  -10.8677   -2.9259   18.1088 N   0  0  0  0  0  0  0  0  0  0  0  0
  -10.4175    3.6022   14.4422 O   0  5  0  0  0  0  0  0  0  0  0  0
   -9.9913   -2.5098   19.0637 C   0  0  2  0  0  0  0  0  0  0  0  0
   -9.2338   -3.4304   19.7153 N   0  0  0  0  0  0  0  0  0  0  0  0
  -10.9009    6.2513   15.5318 O   0  0  0  0  0  0  0  0  0  0  0  0
   -9.8488   -1.1960   19.3889 N   0  0  0  0  0  0  0  0  0  0  0  0
  -10.5800   -0.2334   18.7798 C   0  0  2  0  0  0  0  0  0  0  0  0
  -11.5409   -0.6205   17.7384 C   0  0  2  0  0  0  0  0  0  0  0  0
  -11.6468   -2.0615   17.4247 C   0  0  0  0  0  0  0  0  0  0  0  0
  -12.5042   -2.5135   16.4765 O   0  0  0  0  0  0  0  0  0  0  0  0
  -12.1137    0.5181   17.3004 N   0  0  0  0  0  0  0  0  0  0  0  0
  -11.5658    1.5503   18.0085 C   0  0  0  0  0  0  0  0  0  0  0  0
  -10.6471    1.0946   18.8901 N   0  0  1  0  0  0  0  0  0  0  0  0
  1  3  1  1  0  0  0
  1  4  2  0  0  0  0
  1  6  1  0  0  0  0
  1 22  1  0  0  0  0
  2 28  1  0  0  0  0
  2 35  1  6  0  0  0
  2 38  2  0  0  0  0
  2 10  1  0  0  0  0
  5  6  1  0  0  0  0
  7  5  1  1  0  0  0
  7  8  1  0  0  0  0
  7  9  1  0  0  0  0
  9 10  1  6  0  0  0
  9 11  1  0  0  0  0
 11 12  1  6  0  0  0
 11 13  1  0  0  0  0
 13  8  1  1  0  0  0
 13 33  1  0  0  0  0
 14 46  1  0  0  0  0
 14 17  1  0  0  0  0
 14 25  1  6  0  0  0
 15 16  1  0  0  0  0
 15 29  1  0  0  0  0
 16 18  1  1  0  0  0
 16 21  1  0  0  0  0
 17 19  1  1  0  0  0
 17 20  1  0  0  0  0
 20 22  1  1  0  0  0
 20 24  1  0  0  0  0
 23 21  1  1  0  0  0
 23 26  1  0  0  0  0
 23 33  1  0  0  0  0
 24 25  1  6  0  0  0
 24 27  1  0  0  0  0
 26 29  1  6  0  0  0
 26 31  1  0  0  0  0
 27 28  1  0  0  0  0
 29 30  2  0  0  0  0
 31 32  1  0  0  0  0
 33 32  1  6  0  0  0
 34 36  1  0  0  0  0
 34 42  1  0  0  0  0
 36 37  1  1  0  0  0
 36 39  1  0  0  0  0
 40 39  1  6  0  0  0
 40 41  1  0  0  0  0
 40 46  1  0  0  0  0
 41 42  1  6  0  0  0
 41 44  1  0  0  0  0
 42 43  2  0  0  0  0
 44 45  1  0  0  0  0
 46 45  1  1  0  0  0
M  CHG  2   3  -1  35  -1
M  END
>  <CHROM.1>
172.30945613,59.27962804,-8.11634554,1.71984059,16.43977984,-0.31199854,0.96953121
0.73507820

>  <Name>
ligand

>  <RI>
416

>  <Rbt.Current_Directory>
/home/itssahil/PROJECTS/Mol_Feturizer/Test_systems_manuscript/rnas/3mum

>  <Rbt.Executable>
rbdock ($Id: //depot/dev/client3/rdock/2013.1/src/exe/rbdock.cxx#4 $)

>  <Rbt.Library>
libRbt.so (2013.1, Build901 2013/11/27)

>  <Rbt.Parameter_File>
/export/apps/rDock/src/rDock_2013.1_src/data/scripts/dock_solv.prm

>  <Rbt.Receptor>
prm/pocket_docking_3.prm

>  <SCORE>
-39.5921

>  <SCORE.INTER>
-39.6223

>  <SCORE.INTER.CONST>
1

>  <SCORE.INTER.POLAR>
0

>  <SCORE.INTER.ROT>
2

>  <SCORE.INTER.SOLV>
39.9784

>  <SCORE.INTER.VDW>
-44.6743

>  <SCORE.INTER.norm>
-0.861354

>  <SCORE.INTRA>
0.0301543

>  <SCORE.INTRA.DIHEDRAL>
-0.00734037

>  <SCORE.INTRA.DIHEDRAL.0>
2.40424

>  <SCORE.INTRA.POLAR>
0

>  <SCORE.INTRA.POLAR.0>
0

>  <SCORE.INTRA.REPUL>
0

>  <SCORE.INTRA.REPUL.0>
0

>  <SCORE.INTRA.SOLV>
0.00649303

>  <SCORE.INTRA.SOLV.lig_0>
-134.169

>  <SCORE.INTRA.VDW>
0.030578

>  <SCORE.INTRA.VDW.0>
-2.18386

>  <SCORE.INTRA.norm>
0.000655529

>  <SCORE.RESTR>
0

>  <SCORE.RESTR.CAVITY>
0

>  <SCORE.RESTR.norm>
0

>  <SCORE.SYSTEM>
0

>  <SCORE.SYSTEM.CONST>
0

>  <SCORE.SYSTEM.DIHEDRAL>
0

>  <SCORE.SYSTEM.SOLV>
0

>  <SCORE.SYSTEM.norm>
0

>  <SCORE.heavy>
46

>  <SCORE.norm>
-0.860698

>  <RMSD>
0.261

$$$$
ligand
 OpenBabel02271912143D
libRbt.so/2013.1/901 2013/11/27
 46 52  0  0  0  0  0  0  0  0999 V2000
   -5.3568    2.6368   18.6949 P   0  0  1  0  0  0  0  0  0  0  0  0
   -9.8746    4.8360   15.6242 P   0  0  2  0  0  0  0  0  0  0  0  0
   -5.4679    0.8694   18.7686 O   0  5  0  0  0  0  0  0  0  0  0  0
   -3.8687    3.2352   19.4740 O   0  0  0  0  0  0  0  0  0  0  0  0
   -5.4285    4.4632   16.7759 C   0  0  0  0  0  0  0  0  0  0  0  0
   -5.3953    3.0849   17.1466 O   0  0  0  0  0  0  0  0  0  0  0  0
   -5.9415    4.5690   15.3524 C   0  0  1  0  0  0  0  0  0  0  0  0
   -5.1613    3.7198   14.4992 O   0  0  0  0  0  0  0  0  0  0  0  0
   -7.3775    4.0959   15.1951 C   0  0  1  0  0  0  0  0  0  0  0  0
   -8.3143    5.1578   15.3619 O   0  0  0  0  0  0  0  0  0  0  0  0
   -7.4023    3.5320   13.7854 C   0  0  1  0  0  0  0  0  0  0  0  0
   -7.7233    4.5646   12.8498 O   0  0  0  0  0  0  0  0  0  0  0  0
   -5.9835    3.0632   13.5217 C   0  0  2  0  0  0  0  0  0  0  0  0
   -9.8914    1.9482   19.8948 C   0  0  1  0  0  0  0  0  0  0  0  0
   -7.4170   -1.7753   11.8704 N   0  0  0  0  0  0  0  0  0  0  0  0
   -7.7889   -0.5590   11.3862 C   0  0  1  0  0  0  0  0  0  0  0  0
   -8.4315    1.7135   19.6284 C   0  0  2  0  0  0  0  0  0  0  0  0
   -8.6438   -0.5219   10.3381 N   0  0  0  0  0  0  0  0  0  0  0  0
   -7.8101    1.5433   20.9035 O   0  0  0  0  0  0  0  0  0  0  0  0
   -7.9596    2.9723   18.9281 C   0  0  2  0  0  0  0  0  0  0  0  0
   -7.3383    0.6172   11.9156 N   0  0  0  0  0  0  0  0  0  0  0  0
   -6.6508    3.3434   19.3391 O   0  0  0  0  0  0  0  0  0  0  0  0
   -6.4785    0.6337   12.9654 C   0  0  2  0  0  0  0  0  0  0  0  0
   -8.9549    4.0408   19.3360 C   0  0  2  0  0  0  0  0  0  0  0  0
  -10.1348    3.3452   19.7351 O   0  0  0  0  0  0  0  0  0  0  0  0
   -6.0464   -0.6566   13.5301 C   0  0  1  0  0  0  0  0  0  0  0  0
   -9.2904    5.0016   18.2007 C   0  0  0  0  0  0  0  0  0  0  0  0
   -9.8919    4.2692   17.1312 O   0  0  0  0  0  0  0  0  0  0  0  0
   -6.5664   -1.8912   12.9157 C   0  0  0  0  0  0  0  0  0  0  0  0
   -6.2037   -3.1082   13.3946 O   0  0  0  0  0  0  0  0  0  0  0  0
   -5.2187   -0.3797   14.5437 N   0  0  0  0  0  0  0  0  0  0  0  0
   -5.1229    0.9792   14.6305 C   0  0  0  0  0  0  0  0  0  0  0  0
   -5.8746    1.5897   13.6904 N   0  0  1  0  0  0  0  0  0  0  0  0
  -10.6019   -2.7777   17.7666 N   0  0  0  0  0  0  0  0  0  0  0  0
  -10.4877    3.6074   14.4861 O   0  5  0  0  0  0  0  0  0  0  0  0
   -9.6591   -2.3539   18.6523 C   0  0  2  0  0  0  0  0  0  0  0  0
   -8.7293   -3.2357   19.1039 N   0  0  0  0  0  0  0  0  0  0  0  0
  -10.9107    6.2747   15.5560 O   0  0  0  0  0  0  0  0  0  0  0  0
   -9.6176   -1.0704   19.1028 N   0  0  0  0  0  0  0  0  0  0  0  0
  -10.5204   -0.1482   18.6947 C   0  0  2  0  0  0  0  0  0  0  0  0
  -11.5609   -0.5449   17.7368 C   0  0  2  0  0  0  0  0  0  0  0  0
  -11.5512   -1.9509   17.2792 C   0  0  0  0  0  0  0  0  0  0  0  0
  -12.4706   -2.4084   16.3938 O   0  0  0  0  0  0  0  0  0  0  0  0
  -12.3044    0.5536   17.4985 N   0  0  0  0  0  0  0  0  0  0  0  0
  -11.7834    1.5704   18.2479 C   0  0  0  0  0  0  0  0  0  0  0  0
  -10.7148    1.1451   18.9594 N   0  0  1  0  0  0  0  0  0  0  0  0
  1  3  1  1  0  0  0
  1  4  2  0  0  0  0
  1  6  1  0  0  0  0
  1 22  1  0  0  0  0
  2 28  1  0  0  0  0
  2 35  1  6  0  0  0
  2 38  2  0  0  0  0
  2 10  1  0  0  0  0
  5  6  1  0  0  0  0
  7  5  1  1  0  0  0
  7  8  1  0  0  0  0
  7  9  1  0  0  0  0
  9 10  1  6  0  0  0
  9 11  1  0  0  0  0
 11 12  1  6  0  0  0
 11 13  1  0  0  0  0
 13  8  1  1  0  0  0
 13 33  1  0  0  0  0
 14 46  1  0  0  0  0
 14 17  1  0  0  0  0
 14 25  1  6  0  0  0
 15 16  1  0  0  0  0
 15 29  1  0  0  0  0
 16 18  1  1  0  0  0
 16 21  1  0  0  0  0
 17 19  1  1  0  0  0
 17 20  1  0  0  0  0
 20 22  1  1  0  0  0
 20 24  1  0  0  0  0
 23 21  1  1  0  0  0
 23 26  1  0  0  0  0
 23 33  1  0  0  0  0
 24 25  1  6  0  0  0
 24 27  1  0  0  0  0
 26 29  1  6  0  0  0
 26 31  1  0  0  0  0
 27 28  1  0  0  0  0
 29 30  2  0  0  0  0
 31 32  1  0  0  0  0
 33 32  1  6  0  0  0
 34 36  1  0  0  0  0
 34 42  1  0  0  0  0
 36 37  1  1  0  0  0
 36 39  1  0  0  0  0
 40 39  1  6  0  0  0
 40 41  1  0  0  0  0
 40 46  1  0  0  0  0
 41 42  1  6  0  0  0
 41 44  1  0  0  0  0
 42 43  2  0  0  0  0
 44 45  1  0  0  0  0
 46 45  1  1  0  0  0
M  CHG  2   3  -1  35  -1
M  END
>  <CHROM.1>
-179.35080222,47.32206718,-8.12205648,1.71114075,16.39676970,-2.29250609
-0.97177728,-2.44218807

>  <Name>
ligand

>  <RI>
-1

>  <Rbt.Current_Directory>
/home/itssahil/PROJECTS/Mol_Feturizer/Test_systems_manuscript/rnas/3mum

>  <Rbt.Executable>
rbdock ($Id: //depot/dev/client3/rdock/2013.1/src/exe/rbdock.cxx#4 $)

>  <Rbt.Library>
libRbt.so (2013.1, Build901 2013/11/27)

>  <Rbt.Parameter_File>
/export/apps/rDock/src/rDock_2013.1_src/data/scripts/dock_solv.prm

>  <Rbt.Receptor>
prm/pocket_docking_7.prm

>  <SCORE>
-40.211

>  <SCORE.INTER>
-40.3056

>  <SCORE.INTER.CONST>
1

>  <SCORE.INTER.POLAR>
0

>  <SCORE.INTER.ROT>
2

>  <SCORE.INTER.SOLV>
39.093

>  <SCORE.INTER.VDW>
-44.8348

>  <SCORE.INTER.norm>
-0.876209

>  <SCORE.INTRA>
0.0946181

>  <SCORE.INTRA.DIHEDRAL>
-0.0216116

>  <SCORE.INTRA.DIHEDRAL.0>
2.40424

>  <SCORE.INTRA.POLAR>
0

>  <SCORE.INTRA.POLAR.0>
0

>  <SCORE.INTRA.REPUL>
0

>  <SCORE.INTRA.REPUL.0>
0

>  <SCORE.INTRA.SOLV>
0.02012

>  <SCORE.INTRA.SOLV.lig_0>
-134.169

>  <SCORE.INTRA.VDW>
0.0953639

>  <SCORE.INTRA.VDW.0>
-2.18386

>  <SCORE.INTRA.norm>
0.00205692

>  <SCORE.RESTR>
0

>  <SCORE.RESTR.CAVITY>
0

>  <SCORE.RESTR.norm>
0

>  <SCORE.SYSTEM>
0

>  <SCORE.SYSTEM.CONST>
0

>  <SCORE.SYSTEM.DIHEDRAL>
0

>  <SCORE.SYSTEM.SOLV>
0

>  <SCORE.SYSTEM.norm>
0

>  <SCORE.heavy>
46

>  <SCORE.norm>
-0.874152

>  <RMSD>
0.262

$$$$
ligand
 OpenBabel02271912143D
libRbt.so/2013.1/901 2013/11/27
 46 52  0  0  0  0  0  0  0  0999 V2000
   -9.9059    4.8401   15.6145 P   0  0  1  0  0  0  0  0  0  0  0  0
   -5.4140    2.6512   18.7302 P   0  0  2  0  0  0  0  0  0  0  0  0
  -10.5484    3.6069   14.5154 O   0  5  0  0  0  0  0  0  0  0  0  0
  -10.8577    6.3461   15.5416 O   0  0  0  0  0  0  0  0  0  0  0  0
   -9.3593    4.9730   18.2043 C   0  0  0  0  0  0  0  0  0  0  0  0
   -9.9190    4.2433   17.1122 O   0  0  0  0  0  0  0  0  0  0  0  0
   -9.0760    4.0056   19.3377 C   0  0  1  0  0  0  0  0  0  0  0  0
  -10.2647    3.2610   19.6386 O   0  0  0  0  0  0  0  0  0  0  0  0
   -8.0216    2.9671   18.9912 C   0  0  1  0  0  0  0  0  0  0  0  0
   -6.7083    3.3967   19.3432 O   0  0  0  0  0  0  0  0  0  0  0  0
   -8.4566    1.7530   19.7929 C   0  0  1  0  0  0  0  0  0  0  0  0
   -7.8746    1.7932   21.0983 O   0  0  0  0  0  0  0  0  0  0  0  0
   -9.9619    1.8875   19.9291 C   0  0  2  0  0  0  0  0  0  0  0  0
   -5.9717    3.0968   13.6245 C   0  0  1  0  0  0  0  0  0  0  0  0
  -10.7693   -3.0184   18.0655 N   0  0  0  0  0  0  0  0  0  0  0  0
   -9.9581   -2.6088   19.0787 C   0  0  1  0  0  0  0  0  0  0  0  0
   -7.4143    3.4100   13.9044 C   0  0  2  0  0  0  0  0  0  0  0  0
   -9.2327   -3.5435   19.7349 N   0  0  0  0  0  0  0  0  0  0  0  0
   -7.8445    4.2940   12.8677 O   0  0  0  0  0  0  0  0  0  0  0  0
   -7.4065    4.0848   15.2617 C   0  0  2  0  0  0  0  0  0  0  0  0
   -9.8466   -1.2997   19.4537 N   0  0  0  0  0  0  0  0  0  0  0  0
   -8.3520    5.1436   15.3278 O   0  0  0  0  0  0  0  0  0  0  0  0
  -10.5542   -0.3249   18.8287 C   0  0  2  0  0  0  0  0  0  0  0  0
   -6.0013    4.6325   15.4159 C   0  0  2  0  0  0  0  0  0  0  0  0
   -5.1843    3.8702   14.5289 O   0  0  0  0  0  0  0  0  0  0  0  0
  -11.4456   -0.7141   17.7222 C   0  0  1  0  0  0  0  0  0  0  0  0
   -5.4676    4.5016   16.8380 C   0  0  0  0  0  0  0  0  0  0  0  0
   -5.4080    3.1176   17.1891 O   0  0  0  0  0  0  0  0  0  0  0  0
  -11.5237   -2.1416   17.3642 C   0  0  0  0  0  0  0  0  0  0  0  0
  -12.3272   -2.5584   16.3528 O   0  0  0  0  0  0  0  0  0  0  0  0
  -12.0185    0.4074   17.2716 N   0  0  0  0  0  0  0  0  0  0  0  0
  -11.5368    1.4401   18.0233 C   0  0  0  0  0  0  0  0  0  0  0  0
  -10.6607    1.0081   18.9546 N   0  0  1  0  0  0  0  0  0  0  0  0
   -7.3503   -1.7099   12.0870 N   0  0  0  0  0  0  0  0  0  0  0  0
   -5.5659    0.8781   18.8471 O   0  5  0  0  0  0  0  0  0  0  0  0
   -7.8364   -0.4987   11.7004 C   0  0  2  0  0  0  0  0  0  0  0  0
   -8.8279   -0.4471   10.7729 N   0  0  0  0  0  0  0  0  0  0  0  0
   -3.8878    3.1644   19.4756 O   0  0  0  0  0  0  0  0  0  0  0  0
   -7.3591    0.6678   12.2141 N   0  0  0  0  0  0  0  0  0  0  0  0
   -6.3678    0.6812   13.1357 C   0  0  2  0  0  0  0  0  0  0  0  0
   -5.8044   -0.5953   13.5948 C   0  0  2  0  0  0  0  0  0  0  0  0
   -6.3676   -1.8285   13.0049 C   0  0  0  0  0  0  0  0  0  0  0  0
   -5.9131   -3.0531   13.3688 O   0  0  0  0  0  0  0  0  0  0  0  0
   -4.8578   -0.2934   14.5054 N   0  0  0  0  0  0  0  0  0  0  0  0
   -4.8164    1.0679   14.6162 C   0  0  0  0  0  0  0  0  0  0  0  0
   -5.7237    1.6452   13.7963 N   0  0  1  0  0  0  0  0  0  0  0  0
  1  3  1  6  0  0  0
  1  4  2  0  0  0  0
  1  6  1  0  0  0  0
  1 22  1  0  0  0  0
  2 28  1  0  0  0  0
  2 35  1  1  0  0  0
  2 38  2  0  0  0  0
  2 10  1  0  0  0  0
  5  6  1  0  0  0  0
  7  5  1  6  0  0  0
  7  8  1  0  0  0  0
  7  9  1  0  0  0  0
  9 10  1  1  0  0  0
  9 11  1  0  0  0  0
 11 12  1  1  0  0  0
 11 13  1  0  0  0  0
 13  8  1  6  0  0  0
 13 33  1  0  0  0  0
 14 46  1  0  0  0  0
 14 17  1  0  0  0  0
 14 25  1  1  0  0  0
 15 16  1  0  0  0  0
 15 29  1  0  0  0  0
 16 18  1  6  0  0  0
 16 21  1  0  0  0  0
 17 19  1  6  0  0  0
 17 20  1  0  0  0  0
 20 22  1  6  0  0  0
 20 24  1  0  0  0  0
 23 21  1  6  0  0  0
 23 26  1  0  0  0  0
 23 33  1  0  0  0  0
 24 25  1  6  0  0  0
 24 27  1  0  0  0  0
 26 29  1  1  0  0  0
 26 31  1  0  0  0  0
 27 28  1  0  0  0  0
 29 30  2  0  0  0  0
 31 32  1  0  0  0  0
 33 32  1  1  0  0  0
 34 36  1  0  0  0  0
 34 42  1  0  0  0  0
 36 37  1  6  0  0  0
 36 39  1  0  0  0  0
 40 39  1  1  0  0  0
 40 41  1  0  0  0  0
 40 46  1  0  0  0  0
 41 42  1  1  0  0  0
 41 44  1  0  0  0  0
 42 43  2  0  0  0  0
 44 45  1  0  0  0  0
 46 45  1  6  0  0  0
M  CHG  2   3  -1  35  -1
M  END
>  <CHROM.1>
174.60230464,57.40900165,-8.12775293,1.68475030,16.47599580,-0.40469785,0.98591339
0.63823383

>  <Name>
ligand

>  <RI>
416

>  <Rbt.Current_Directory>
/home/itssahil/PROJECTS/Mol_Feturizer/Test_systems_manuscript/rnas/3mum

>  <Rbt.Executable>
rbdock ($Id: //depot/dev/client3/rdock/2013.1/src/exe/rbdock.cxx#4 $)

>  <Rbt.Library>
libRbt.so (2013.1, Build901 2013/11/27)

>  <Rbt.Parameter_File>
/export/apps/rDock/src/rDock_2013.1_src/data/scripts/dock_solv.prm

>  <Rbt.Receptor>
prm/pocket_docking_3.prm

>  <SCORE>
-39.3767

>  <SCORE.INTER>
-39.3788

>  <SCORE.INTER.CONST>
1

>  <SCORE.INTER.POLAR>
0

>  <SCORE.INTER.ROT>
2

>  <SCORE.INTER.SOLV>
40.109

>  <SCORE.INTER.VDW>
-44.5555

>  <SCORE.INTER.norm>
-0.856061

>  <SCORE.INTRA>
0.00211455

>  <SCORE.INTRA.DIHEDRAL>
-0.0096156

>  <SCORE.INTRA.DIHEDRAL.0>
2.40424

>  <SCORE.INTRA.POLAR>
0

>  <SCORE.INTRA.POLAR.0>
0

>  <SCORE.INTRA.REPUL>
0

>  <SCORE.INTRA.REPUL.0>
0

>  <SCORE.INTRA.SOLV>
0.00853906

>  <SCORE.INTRA.SOLV.lig_0>
-134.169

>  <SCORE.INTRA.VDW>
0.00265282

>  <SCORE.INTRA.VDW.0>
-2.18386

>  <SCORE.INTRA.norm>
4.59685e-05

>  <SCORE.RESTR>
0

>  <SCORE.RESTR.CAVITY>
0

>  <SCORE.RESTR.norm>
0

>  <SCORE.SYSTEM>
0

>  <SCORE.SYSTEM.CONST>
0

>  <SCORE.SYSTEM.DIHEDRAL>
0

>  <SCORE.SYSTEM.SOLV>
0

>  <SCORE.SYSTEM.norm>
0

>  <SCORE.heavy>
46

>  <SCORE.norm>
-0.856015

>  <RMSD>
0.264

$$$$
ligand
 OpenBabel02271912143D
libRbt.so/2013.1/901 2013/11/27
 46 52  0  0  0  0  0  0  0  0999 V2000
   -5.3193    2.6687   18.7176 P   0  0  1  0  0  0  0  0  0  0  0  0
   -9.8393    4.7936   15.5983 P   0  0  2  0  0  0  0  0  0  0  0  0
   -5.3949    0.8988   18.7792 O   0  5  0  0  0  0  0  0  0  0  0  0
   -3.8547    3.2927   19.5206 O   0  0  0  0  0  0  0  0  0  0  0  0
   -5.4026    4.5052   16.8087 C   0  0  0  0  0  0  0  0  0  0  0  0
   -5.3460    3.1255   17.1717 O   0  0  0  0  0  0  0  0  0  0  0  0
   -5.8983    4.6093   15.3790 C   0  0  1  0  0  0  0  0  0  0  0  0
   -5.0891    3.7817   14.5315 O   0  0  0  0  0  0  0  0  0  0  0  0
   -7.3219    4.1077   15.1992 C   0  0  1  0  0  0  0  0  0  0  0  0
   -8.2826    5.1491   15.3594 O   0  0  0  0  0  0  0  0  0  0  0  0
   -7.3159    3.5523   13.7859 C   0  0  1  0  0  0  0  0  0  0  0  0
   -7.6454    4.5838   12.8522 O   0  0  0  0  0  0  0  0  0  0  0  0
   -5.8842    3.1144   13.5389 C   0  0  2  0  0  0  0  0  0  0  0  0
   -9.8546    1.8794   19.8509 C   0  0  1  0  0  0  0  0  0  0  0  0
   -7.5063   -1.7398   12.1253 N   0  0  0  0  0  0  0  0  0  0  0  0
   -7.9454   -0.5279   11.6883 C   0  0  1  0  0  0  0  0  0  0  0  0
   -8.3867    1.6764   19.6032 C   0  0  2  0  0  0  0  0  0  0  0  0
   -8.9340   -0.5008   10.7648 N   0  0  0  0  0  0  0  0  0  0  0  0
   -7.7794    1.5111   20.8857 O   0  0  0  0  0  0  0  0  0  0  0  0
   -7.9314    2.9491   18.9170 C   0  0  2  0  0  0  0  0  0  0  0  0
   -7.4326    0.6532   12.1450 N   0  0  0  0  0  0  0  0  0  0  0  0
   -6.6363    3.3444   19.3482 O   0  0  0  0  0  0  0  0  0  0  0  0
   -6.4392    0.6796   13.0691 C   0  0  2  0  0  0  0  0  0  0  0  0
   -8.9540    3.9942   19.3175 C   0  0  2  0  0  0  0  0  0  0  0  0
  -10.1246    3.2720   19.6962 O   0  0  0  0  0  0  0  0  0  0  0  0
   -5.9293   -0.6054   13.5781 C   0  0  1  0  0  0  0  0  0  0  0  0
   -9.2939    4.9550   18.1836 C   0  0  0  0  0  0  0  0  0  0  0  0
   -9.8655    4.2171   17.1015 O   0  0  0  0  0  0  0  0  0  0  0  0
   -6.5221   -1.8458   13.0470 C   0  0  0  0  0  0  0  0  0  0  0  0
   -6.0929   -3.0584   13.4799 O   0  0  0  0  0  0  0  0  0  0  0  0
   -4.9738   -0.3191   14.4692 N   0  0  0  0  0  0  0  0  0  0  0  0
   -4.8730    1.0408   14.5341 C   0  0  0  0  0  0  0  0  0  0  0  0
   -5.7472    1.6425   13.7002 N   0  0  1  0  0  0  0  0  0  0  0  0
  -10.8516   -2.9572   18.1242 N   0  0  0  0  0  0  0  0  0  0  0  0
  -10.4114    3.5598   14.4445 O   0  5  0  0  0  0  0  0  0  0  0  0
   -9.9782   -2.5361   19.0796 C   0  0  2  0  0  0  0  0  0  0  0  0
   -9.2179   -3.4525   19.7338 N   0  0  0  0  0  0  0  0  0  0  0  0
  -10.9040    6.2111   15.5245 O   0  0  0  0  0  0  0  0  0  0  0  0
   -9.8416   -1.2211   19.4031 N   0  0  0  0  0  0  0  0  0  0  0  0
  -10.5758   -0.2625   18.7913 C   0  0  2  0  0  0  0  0  0  0  0  0
  -11.5337   -0.6551   17.7492 C   0  0  2  0  0  0  0  0  0  0  0  0
  -11.6332   -2.0970   17.4377 C   0  0  0  0  0  0  0  0  0  0  0  0
  -12.4875   -2.5540   16.4890 O   0  0  0  0  0  0  0  0  0  0  0  0
  -12.1105    0.4804   17.3086 N   0  0  0  0  0  0  0  0  0  0  0  0
  -11.5678    1.5159   18.0158 C   0  0  0  0  0  0  0  0  0  0  0  0
  -10.6485    1.0654   18.8995 N   0  0  1  0  0  0  0  0  0  0  0  0
  1  3  1  1  0  0  0
  1  4  2  0  0  0  0
  1  6  1  0  0  0  0
  1 22  1  0  0  0  0
  2 28  1  0  0  0  0
  2 35  1  6  0  0  0
  2 38  2  0  0  0  0
  2 10  1  0  0  0  0
  5  6  1  0  0  0  0
  7  5  1  1  0  0  0
  7  8  1  0  0  0  0
  7  9  1  0  0  0  0
  9 10  1  6  0  0  0
  9 11  1  0  0  0  0
 11 12  1  6  0  0  0
 11 13  1  0  0  0  0
 13  8  1  1  0  0  0
 13 33  1  0  0  0  0
 14 46  1  0  0  0  0
 14 17  1  0  0  0  0
 14 25  1  6  0  0  0
 15 16  1  0  0  0  0
 15 29  1  0  0  0  0
 16 18  1  1  0  0  0
 16 21  1  0  0  0  0
 17 19  1  1  0  0  0
 17 20  1  0  0  0  0
 20 22  1  1  0  0  0
 20 24  1  0  0  0  0
 23 21  1  1  0  0  0
 23 26  1  0  0  0  0
 23 33  1  0  0  0  0
 24 25  1  6  0  0  0
 24 27  1  0  0  0  0
 26 29  1  6  0  0  0
 26 31  1  0  0  0  0
 27 28  1  0  0  0  0
 29 30  2  0  0  0  0
 31 32  1  0  0  0  0
 33 32  1  6  0  0  0
 34 36  1  0  0  0  0
 34 42  1  0  0  0  0
 36 37  1  1  0  0  0
 36 39  1  0  0  0  0
 40 39  1  6  0  0  0
 40 41  1  0  0  0  0
 40 46  1  0  0  0  0
 41 42  1  6  0  0  0
 41 44  1  0  0  0  0
 42 43  2  0  0  0  0
 44 45  1  0  0  0  0
 46 45  1  1  0  0  0
M  CHG  2   3  -1  35  -1
M  END
>  <CHROM.1>
172.03353820,59.11803316,-8.11225364,1.68890721,16.45515572,-0.29983819,0.96880882
0.72694271

>  <Name>
ligand

>  <RI>
416

>  <Rbt.Current_Directory>
/home/itssahil/PROJECTS/Mol_Feturizer/Test_systems_manuscript/rnas/3mum

>  <Rbt.Executable>
rbdock ($Id: //depot/dev/client3/rdock/2013.1/src/exe/rbdock.cxx#4 $)

>  <Rbt.Library>
libRbt.so (2013.1, Build901 2013/11/27)

>  <Rbt.Parameter_File>
/export/apps/rDock/src/rDock_2013.1_src/data/scripts/dock_solv.prm

>  <Rbt.Receptor>
prm/pocket_docking_3.prm

>  <SCORE>
-39.477

>  <SCORE.INTER>
-39.5114

>  <SCORE.INTER.CONST>
1

>  <SCORE.INTER.POLAR>
0

>  <SCORE.INTER.ROT>
2

>  <SCORE.INTER.SOLV>
40.0953

>  <SCORE.INTER.VDW>
-44.6394

>  <SCORE.INTER.norm>
-0.858944

>  <SCORE.INTRA>
0.0343532

>  <SCORE.INTRA.DIHEDRAL>
-0.007621

>  <SCORE.INTRA.DIHEDRAL.0>
2.40424

>  <SCORE.INTRA.POLAR>
0

>  <SCORE.INTRA.POLAR.0>
0

>  <SCORE.INTRA.REPUL>
0

>  <SCORE.INTRA.REPUL.0>
0

>  <SCORE.INTRA.SOLV>
0.00689445

>  <SCORE.INTRA.SOLV.lig_0>
-134.169

>  <SCORE.INTRA.VDW>
0.0347165

>  <SCORE.INTRA.VDW.0>
-2.18386

>  <SCORE.INTRA.norm>
0.000746808

>  <SCORE.RESTR>
0

>  <SCORE.RESTR.CAVITY>
0

>  <SCORE.RESTR.norm>
0

>  <SCORE.SYSTEM>
0

>  <SCORE.SYSTEM.CONST>
0

>  <SCORE.SYSTEM.DIHEDRAL>
0

>  <SCORE.SYSTEM.SOLV>
0

>  <SCORE.SYSTEM.norm>
0

>  <SCORE.heavy>
46

>  <SCORE.norm>
-0.858197

>  <RMSD>
0.264

$$$$
ligand
 OpenBabel02271912143D
libRbt.so/2013.1/901 2013/11/27
 46 52  0  0  0  0  0  0  0  0999 V2000
   -5.3154    2.6458   18.6963 P   0  0  1  0  0  0  0  0  0  0  0  0
   -9.8178    4.8079   15.5772 P   0  0  2  0  0  0  0  0  0  0  0  0
   -5.4091    0.8770   18.7634 O   0  5  0  0  0  0  0  0  0  0  0  0
   -3.8432    3.2570   19.4954 O   0  0  0  0  0  0  0  0  0  0  0  0
   -5.3825    4.4773   16.7821 C   0  0  0  0  0  0  0  0  0  0  0  0
   -5.3396    3.0982   17.1491 O   0  0  0  0  0  0  0  0  0  0  0  0
   -5.8792    4.5823   15.3528 C   0  0  1  0  0  0  0  0  0  0  0  0
   -5.0799    3.7438   14.5066 O   0  0  0  0  0  0  0  0  0  0  0  0
   -7.3081    4.0949   15.1765 C   0  0  1  0  0  0  0  0  0  0  0  0
   -8.2579    5.1466   15.3350 O   0  0  0  0  0  0  0  0  0  0  0  0
   -7.3100    3.5352   13.7649 C   0  0  1  0  0  0  0  0  0  0  0  0
   -7.6302    4.5673   12.8286 O   0  0  0  0  0  0  0  0  0  0  0  0
   -5.8833    3.0818   13.5172 C   0  0  2  0  0  0  0  0  0  0  0  0
   -9.8569    1.9067   19.8386 C   0  0  1  0  0  0  0  0  0  0  0  0
   -7.5594   -1.7595   12.1225 N   0  0  0  0  0  0  0  0  0  0  0  0
   -7.9869   -0.5444   11.6828 C   0  0  1  0  0  0  0  0  0  0  0  0
   -8.3916    1.6879   19.5894 C   0  0  2  0  0  0  0  0  0  0  0  0
   -8.9773   -0.5098   10.7617 N   0  0  0  0  0  0  0  0  0  0  0  0
   -7.7841    1.5201   20.8715 O   0  0  0  0  0  0  0  0  0  0  0  0
   -7.9242    2.9537   18.8987 C   0  0  2  0  0  0  0  0  0  0  0  0
   -7.4606    0.6327   12.1346 N   0  0  0  0  0  0  0  0  0  0  0  0
   -6.6244    3.3370   19.3268 O   0  0  0  0  0  0  0  0  0  0  0  0
   -6.4647    0.6516   13.0563 C   0  0  2  0  0  0  0  0  0  0  0  0
   -8.9353    4.0106   19.2975 C   0  0  2  0  0  0  0  0  0  0  0  0
  -10.1128    3.3016   19.6801 O   0  0  0  0  0  0  0  0  0  0  0  0
   -5.9671   -0.6372   13.5680 C   0  0  1  0  0  0  0  0  0  0  0  0
   -9.2669    4.9714   18.1612 C   0  0  0  0  0  0  0  0  0  0  0  0
   -9.8477    4.2362   17.0822 O   0  0  0  0  0  0  0  0  0  0  0  0
   -6.5741   -1.8729   13.0422 C   0  0  0  0  0  0  0  0  0  0  0  0
   -6.1564   -3.0886   13.4778 O   0  0  0  0  0  0  0  0  0  0  0  0
   -5.0064   -0.3581   14.4558 N   0  0  0  0  0  0  0  0  0  0  0  0
   -4.8913    1.0009   14.5163 C   0  0  0  0  0  0  0  0  0  0  0  0
   -5.7612    1.6091   13.6827 N   0  0  1  0  0  0  0  0  0  0  0  0
  -10.9015   -2.9239   18.1233 N   0  0  0  0  0  0  0  0  0  0  0  0
  -10.4043    3.5766   14.4280 O   0  5  0  0  0  0  0  0  0  0  0  0
  -10.0219   -2.5088   19.0756 C   0  0  2  0  0  0  0  0  0  0  0  0
   -9.2680   -3.4308   19.7294 N   0  0  0  0  0  0  0  0  0  0  0  0
  -10.8679    6.2361   15.5007 O   0  0  0  0  0  0  0  0  0  0  0  0
   -9.8727   -1.1946   19.3963 N   0  0  0  0  0  0  0  0  0  0  0  0
  -10.6000   -0.2306   18.7848 C   0  0  2  0  0  0  0  0  0  0  0  0
  -11.5641   -0.6165   17.7459 C   0  0  2  0  0  0  0  0  0  0  0  0
  -11.6773   -2.0580   17.4372 C   0  0  0  0  0  0  0  0  0  0  0  0
  -12.5381   -2.5091   16.4916 O   0  0  0  0  0  0  0  0  0  0  0  0
  -12.1320    0.5234   17.3048 N   0  0  0  0  0  0  0  0  0  0  0  0
  -11.5781    1.5552   18.0087 C   0  0  0  0  0  0  0  0  0  0  0  0
  -10.6605    1.0982   18.8907 N   0  0  1  0  0  0  0  0  0  0  0  0
  1  3  1  1  0  0  0
  1  4  2  0  0  0  0
  1  6  1  0  0  0  0
  1 22  1  0  0  0  0
  2 28  1  0  0  0  0
  2 35  1  6  0  0  0
  2 38  2  0  0  0  0
  2 10  1  0  0  0  0
  5  6  1  0  0  0  0
  7  5  1  1  0  0  0
  7  8  1  0  0  0  0
  7  9  1  0  0  0  0
  9 10  1  6  0  0  0
  9 11  1  0  0  0  0
 11 12  1  6  0  0  0
 11 13  1  0  0  0  0
 13  8  1  1  0  0  0
 13 33  1  0  0  0  0
 14 46  1  0  0  0  0
 14 17  1  0  0  0  0
 14 25  1  6  0  0  0
 15 16  1  0  0  0  0
 15 29  1  0  0  0  0
 16 18  1  1  0  0  0
 16 21  1  0  0  0  0
 17 19  1  1  0  0  0
 17 20  1  0  0  0  0
 20 22  1  1  0  0  0
 20 24  1  0  0  0  0
 23 21  1  1  0  0  0
 23 26  1  0  0  0  0
 23 33  1  0  0  0  0
 24 25  1  6  0  0  0
 24 27  1  0  0  0  0
 26 29  1  6  0  0  0
 26 31  1  0  0  0  0
 27 28  1  0  0  0  0
 29 30  2  0  0  0  0
 31 32  1  0  0  0  0
 33 32  1  6  0  0  0
 34 36  1  0  0  0  0
 34 42  1  0  0  0  0
 36 37  1  1  0  0  0
 36 39  1  0  0  0  0
 40 39  1  6  0  0  0
 40 41  1  0  0  0  0
 40 46  1  0  0  0  0
 41 42  1  6  0  0  0
 41 44  1  0  0  0  0
 42 43  2  0  0  0  0
 44 45  1  0  0  0  0
 46 45  1  1  0  0  0
M  CHG  2   3  -1  35  -1
M  END
>  <CHROM.1>
171.97625183,58.99109955,-8.12128566,1.68821360,16.44060545,-0.31541814,0.96307202
0.73625337

>  <Name>
ligand

>  <RI>
-1

>  <Rbt.Current_Directory>
/home/itssahil/PROJECTS/Mol_Feturizer/Test_systems_manuscript/rnas/3mum

>  <Rbt.Executable>
rbdock ($Id: //depot/dev/client3/rdock/2013.1/src/exe/rbdock.cxx#4 $)

>  <Rbt.Library>
libRbt.so (2013.1, Build901 2013/11/27)

>  <Rbt.Parameter_File>
/export/apps/rDock/src/rDock_2013.1_src/data/scripts/dock_solv.prm

>  <Rbt.Receptor>
prm/pocket_docking_5.prm

>  <SCORE>
-39.5441

>  <SCORE.INTER>
-39.5806

>  <SCORE.INTER.CONST>
1

>  <SCORE.INTER.POLAR>
0

>  <SCORE.INTER.ROT>
2

>  <SCORE.INTER.SOLV>
40.1777

>  <SCORE.INTER.VDW>
-44.713

>  <SCORE.INTER.norm>
-0.860448

>  <SCORE.INTRA>
0.0364725

>  <SCORE.INTRA.DIHEDRAL>
-0.00781366

>  <SCORE.INTRA.DIHEDRAL.0>
2.40424

>  <SCORE.INTRA.POLAR>
0

>  <SCORE.INTRA.POLAR.0>
0

>  <SCORE.INTRA.REPUL>
0

>  <SCORE.INTRA.REPUL.0>
0

>  <SCORE.INTRA.SOLV>
0.00713514

>  <SCORE.INTRA.SOLV.lig_0>
-134.169

>  <SCORE.INTRA.VDW>
0.0368117

>  <SCORE.INTRA.VDW.0>
-2.18386

>  <SCORE.INTRA.norm>
0.000792879

>  <SCORE.RESTR>
0

>  <SCORE.RESTR.CAVITY>
0

>  <SCORE.RESTR.norm>
0

>  <SCORE.SYSTEM>
0

>  <SCORE.SYSTEM.CONST>
0

>  <SCORE.SYSTEM.DIHEDRAL>
0

>  <SCORE.SYSTEM.SOLV>
0

>  <SCORE.SYSTEM.norm>
0

>  <SCORE.heavy>
46

>  <SCORE.norm>
-0.859655

>  <RMSD>
0.264

$$$$
ligand
 OpenBabel02271912143D
libRbt.so/2013.1/901 2013/11/27
 46 52  0  0  0  0  0  0  0  0999 V2000
   -9.7361    4.9084   15.6652 P   0  0  1  0  0  0  0  0  0  0  0  0
   -5.3514    2.3848   18.6788 P   0  0  2  0  0  0  0  0  0  0  0  0
  -10.5060    3.7237   14.5950 O   0  5  0  0  0  0  0  0  0  0  0  0
  -10.5649    6.4860   15.6042 O   0  0  0  0  0  0  0  0  0  0  0  0
   -9.1095    5.0145   18.2381 C   0  0  0  0  0  0  0  0  0  0  0  0
   -9.7561    4.3250   17.1681 O   0  0  0  0  0  0  0  0  0  0  0  0
   -8.8741    4.0352   19.3722 C   0  0  1  0  0  0  0  0  0  0  0  0
  -10.1103    3.3914   19.7117 O   0  0  0  0  0  0  0  0  0  0  0  0
   -7.9168    2.9124   19.0069 C   0  0  1  0  0  0  0  0  0  0  0  0
   -6.5640    3.2368   19.3196 O   0  0  0  0  0  0  0  0  0  0  0  0
   -8.4262    1.7431   19.8310 C   0  0  1  0  0  0  0  0  0  0  0  0
   -7.8071    1.7450   21.1199 O   0  0  0  0  0  0  0  0  0  0  0  0
   -9.9114    1.9999   20.0064 C   0  0  2  0  0  0  0  0  0  0  0  0
   -6.0118    2.8388   13.5861 C   0  0  1  0  0  0  0  0  0  0  0  0
  -10.7571   -2.7532   17.7962 N   0  0  0  0  0  0  0  0  0  0  0  0
   -9.8243   -2.3903   18.7185 C   0  0  1  0  0  0  0  0  0  0  0  0
   -7.4160    3.2697   13.9018 C   0  0  2  0  0  0  0  0  0  0  0  0
   -8.9666   -3.3357   19.1670 N   0  0  0  0  0  0  0  0  0  0  0  0
   -7.8019    4.1783   12.8691 O   0  0  0  0  0  0  0  0  0  0  0  0
   -7.3165    3.9509   15.2522 C   0  0  2  0  0  0  0  0  0  0  0  0
   -9.7195   -1.1170   19.2027 N   0  0  0  0  0  0  0  0  0  0  0  0
   -8.1713    5.0833   15.3341 O   0  0  0  0  0  0  0  0  0  0  0  0
  -10.5568   -0.1335   18.7864 C   0  0  2  0  0  0  0  0  0  0  0  0
   -5.8679    4.3842   15.3636 C   0  0  2  0  0  0  0  0  0  0  0  0
   -5.1398    3.5522   14.4619 O   0  0  0  0  0  0  0  0  0  0  0  0
  -11.5836   -0.4726   17.7858 C   0  0  1  0  0  0  0  0  0  0  0  0
   -5.3076    4.2203   16.7720 C   0  0  0  0  0  0  0  0  0  0  0  0
   -5.3502    2.8385   17.1339 O   0  0  0  0  0  0  0  0  0  0  0  0
  -11.6473   -1.8631   17.3016 C   0  0  0  0  0  0  0  0  0  0  0  0
  -12.5719   -2.2329   16.3793 O   0  0  0  0  0  0  0  0  0  0  0  0
  -12.2687    0.6488   17.5366 N   0  0  0  0  0  0  0  0  0  0  0  0
  -11.7294    1.6352   18.3110 C   0  0  0  0  0  0  0  0  0  0  0  0
  -10.7054    1.1733   19.0591 N   0  0  1  0  0  0  0  0  0  0  0  0
   -7.4305   -1.8590   11.7734 N   0  0  0  0  0  0  0  0  0  0  0  0
   -5.6427    0.6306   18.8159 O   0  5  0  0  0  0  0  0  0  0  0  0
   -7.7830   -0.6166   11.3434 C   0  0  2  0  0  0  0  0  0  0  0  0
   -8.6236   -0.4952   10.2830 N   0  0  0  0  0  0  0  0  0  0  0  0
   -3.7689    2.7779   19.3782 O   0  0  0  0  0  0  0  0  0  0  0  0
   -7.3182    0.5133   11.9432 N   0  0  0  0  0  0  0  0  0  0  0  0
   -6.4731    0.4569   12.9990 C   0  0  2  0  0  0  0  0  0  0  0  0
   -6.0587   -0.8561   13.5106 C   0  0  2  0  0  0  0  0  0  0  0  0
   -6.6011   -2.0467   12.8218 C   0  0  0  0  0  0  0  0  0  0  0  0
   -6.2772   -3.3003   13.2244 O   0  0  0  0  0  0  0  0  0  0  0  0
   -5.2392   -0.6217   14.5546 N   0  0  0  0  0  0  0  0  0  0  0  0
   -5.1347    0.7333   14.6962 C   0  0  0  0  0  0  0  0  0  0  0  0
   -5.8771    1.3731   13.7643 N   0  0  1  0  0  0  0  0  0  0  0  0
  1  3  1  6  0  0  0
  1  4  2  0  0  0  0
  1  6  1  0  0  0  0
  1 22  1  0  0  0  0
  2 28  1  0  0  0  0
  2 35  1  1  0  0  0
  2 38  2  0  0  0  0
  2 10  1  0  0  0  0
  5  6  1  0  0  0  0
  7  5  1  6  0  0  0
  7  8  1  0  0  0  0
  7  9  1  0  0  0  0
  9 10  1  1  0  0  0
  9 11  1  0  0  0  0
 11 12  1  1  0  0  0
 11 13  1  0  0  0  0
 13  8  1  6  0  0  0
 13 33  1  0  0  0  0
 14 46  1  0  0  0  0
 14 17  1  0  0  0  0
 14 25  1  1  0  0  0
 15 16  1  0  0  0  0
 15 29  1  0  0  0  0
 16 18  1  6  0  0  0
 16 21  1  0  0  0  0
 17 19  1  6  0  0  0
 17 20  1  0  0  0  0
 20 22  1  6  0  0  0
 20 24  1  0  0  0  0
 23 21  1  6  0  0  0
 23 26  1  0  0  0  0
 23 33  1  0  0  0  0
 24 25  1  6  0  0  0
 24 27  1  0  0  0  0
 26 29  1  1  0  0  0
 26 31  1  0  0  0  0
 27 28  1  0  0  0  0
 29 30  2  0  0  0  0
 31 32  1  0  0  0  0
 33 32  1  1  0  0  0
 34 36  1  0  0  0  0
 34 42  1  0  0  0  0
 36 37  1  6  0  0  0
 36 39  1  0  0  0  0
 40 39  1  1  0  0  0
 40 41  1  0  0  0  0
 40 46  1  0  0  0  0
 41 42  1  1  0  0  0
 41 44  1  0  0  0  0
 42 43  2  0  0  0  0
 44 45  1  0  0  0  0
 46 45  1  6  0  0  0
M  CHG  2   3  -1  35  -1
M  END
>  <CHROM.1>
162.65887790,67.50333711,-8.10930929,1.63377944,16.42357931,-2.23505920,-0.96797643
-2.45768846

>  <Name>
ligand

>  <RI>
416

>  <Rbt.Current_Directory>
/home/itssahil/PROJECTS/Mol_Feturizer/Test_systems_manuscript/rnas/3mum

>  <Rbt.Executable>
rbdock ($Id: //depot/dev/client3/rdock/2013.1/src/exe/rbdock.cxx#4 $)

>  <Rbt.Library>
libRbt.so (2013.1, Build901 2013/11/27)

>  <Rbt.Parameter_File>
/export/apps/rDock/src/rDock_2013.1_src/data/scripts/dock_solv.prm

>  <Rbt.Receptor>
prm/pocket_docking_2.prm

>  <SCORE>
-40.4367

>  <SCORE.INTER>
-40.4306

>  <SCORE.INTER.CONST>
1

>  <SCORE.INTER.POLAR>
0

>  <SCORE.INTER.ROT>
2

>  <SCORE.INTER.SOLV>
39.4286

>  <SCORE.INTER.VDW>
-45.0299

>  <SCORE.INTER.norm>
-0.878925

>  <SCORE.INTRA>
-0.00614174

>  <SCORE.INTRA.DIHEDRAL>
0.00287054

>  <SCORE.INTRA.DIHEDRAL.0>
2.40424

>  <SCORE.INTRA.POLAR>
0

>  <SCORE.INTRA.POLAR.0>
0

>  <SCORE.INTRA.REPUL>
0

>  <SCORE.INTRA.REPUL.0>
0

>  <SCORE.INTRA.SOLV>
-0.000350373

>  <SCORE.INTRA.SOLV.lig_0>
-134.169

>  <SCORE.INTRA.VDW>
-0.00740183

>  <SCORE.INTRA.VDW.0>
-2.18386

>  <SCORE.INTRA.norm>
-0.000133516

>  <SCORE.RESTR>
0

>  <SCORE.RESTR.CAVITY>
0

>  <SCORE.RESTR.norm>
0

>  <SCORE.SYSTEM>
0

>  <SCORE.SYSTEM.CONST>
0

>  <SCORE.SYSTEM.DIHEDRAL>
0

>  <SCORE.SYSTEM.SOLV>
0

>  <SCORE.SYSTEM.norm>
0

>  <SCORE.heavy>
46

>  <SCORE.norm>
-0.879059

>  <RMSD>
0.265

$$$$
ligand
 OpenBabel02271912143D
libRbt.so/2013.1/901 2013/11/27
 46 52  0  0  0  0  0  0  0  0999 V2000
   -5.2925    2.7102   18.7011 P   0  0  1  0  0  0  0  0  0  0  0  0
   -9.8344    4.8204   15.6035 P   0  0  2  0  0  0  0  0  0  0  0  0
   -5.3548    0.9396   18.7520 O   0  5  0  0  0  0  0  0  0  0  0  0
   -3.8310    3.3402   19.5052 O   0  0  0  0  0  0  0  0  0  0  0  0
   -5.3932    4.5578   16.8037 C   0  0  0  0  0  0  0  0  0  0  0  0
   -5.3256    3.1764   17.1581 O   0  0  0  0  0  0  0  0  0  0  0  0
   -5.8925    4.6669   15.3756 C   0  0  1  0  0  0  0  0  0  0  0  0
   -5.0788    3.8506   14.5215 O   0  0  0  0  0  0  0  0  0  0  0  0
   -7.3126    4.1558   15.1954 C   0  0  1  0  0  0  0  0  0  0  0  0
   -8.2808    5.1890   15.3639 O   0  0  0  0  0  0  0  0  0  0  0  0
   -7.3052    3.6092   13.7787 C   0  0  1  0  0  0  0  0  0  0  0  0
   -7.6442    4.6439   12.8520 O   0  0  0  0  0  0  0  0  0  0  0  0
   -5.8708    3.1835   13.5263 C   0  0  2  0  0  0  0  0  0  0  0  0
   -9.8196    1.8801   19.8382 C   0  0  1  0  0  0  0  0  0  0  0  0
   -7.4835   -1.6737   12.1121 N   0  0  0  0  0  0  0  0  0  0  0  0
   -7.9363   -0.4624   11.6875 C   0  0  1  0  0  0  0  0  0  0  0  0
   -8.3507    1.6897   19.5864 C   0  0  2  0  0  0  0  0  0  0  0  0
   -8.9382   -0.4368   10.7786 N   0  0  0  0  0  0  0  0  0  0  0  0
   -7.7396    1.5210   20.8667 O   0  0  0  0  0  0  0  0  0  0  0  0
   -7.9063    2.9699   18.9072 C   0  0  2  0  0  0  0  0  0  0  0  0
   -7.4241    0.7196   12.1427 N   0  0  0  0  0  0  0  0  0  0  0  0
   -6.6133    3.3723   19.3383 O   0  0  0  0  0  0  0  0  0  0  0  0
   -6.4176    0.7477   13.0525 C   0  0  2  0  0  0  0  0  0  0  0  0
   -8.9359    4.0049   19.3161 C   0  0  2  0  0  0  0  0  0  0  0  0
  -10.1003    3.2716   19.6926 O   0  0  0  0  0  0  0  0  0  0  0  0
   -5.8926   -0.5367   13.5477 C   0  0  1  0  0  0  0  0  0  0  0  0
   -9.2851    4.9700   18.1887 C   0  0  0  0  0  0  0  0  0  0  0  0
   -9.8533    4.2345   17.1032 O   0  0  0  0  0  0  0  0  0  0  0  0
   -6.4855   -1.7781   13.0190 C   0  0  0  0  0  0  0  0  0  0  0  0
   -6.0426   -2.9901   13.4397 O   0  0  0  0  0  0  0  0  0  0  0  0
   -4.9261   -0.2488   14.4263 N   0  0  0  0  0  0  0  0  0  0  0  0
   -4.8327    1.1113   14.4966 C   0  0  0  0  0  0  0  0  0  0  0  0
   -5.7225    1.7117   13.6784 N   0  0  1  0  0  0  0  0  0  0  0  0
  -10.8387   -2.9603   18.1352 N   0  0  0  0  0  0  0  0  0  0  0  0
  -10.3995    3.5894   14.4433 O   0  5  0  0  0  0  0  0  0  0  0  0
   -9.9732   -2.5397   19.0980 C   0  0  2  0  0  0  0  0  0  0  0  0
   -9.2289   -3.4579   19.7680 N   0  0  0  0  0  0  0  0  0  0  0  0
  -10.9097    6.2303   15.5405 O   0  0  0  0  0  0  0  0  0  0  0  0
   -9.8288   -1.2237   19.4133 N   0  0  0  0  0  0  0  0  0  0  0  0
  -10.5470   -0.2632   18.7857 C   0  0  2  0  0  0  0  0  0  0  0  0
  -11.4958   -0.6551   17.7351 C   0  0  2  0  0  0  0  0  0  0  0  0
  -11.6044   -2.0984   17.4330 C   0  0  0  0  0  0  0  0  0  0  0  0
  -12.4513   -2.5549   16.4775 O   0  0  0  0  0  0  0  0  0  0  0  0
  -12.0572    0.4821   17.2792 N   0  0  0  0  0  0  0  0  0  0  0  0
  -11.5138    1.5180   17.9853 C   0  0  0  0  0  0  0  0  0  0  0  0
  -10.6092    1.0661   18.8832 N   0  0  1  0  0  0  0  0  0  0  0  0
  1  3  1  1  0  0  0
  1  4  2  0  0  0  0
  1  6  1  0  0  0  0
  1 22  1  0  0  0  0
  2 28  1  0  0  0  0
  2 35  1  6  0  0  0
  2 38  2  0  0  0  0
  2 10  1  0  0  0  0
  5  6  1  0  0  0  0
  7  5  1  1  0  0  0
  7  8  1  0  0  0  0
  7  9  1  0  0  0  0
  9 10  1  6  0  0  0
  9 11  1  0  0  0  0
 11 12  1  6  0  0  0
 11 13  1  0  0  0  0
 13  8  1  1  0  0  0
 13 33  1  0  0  0  0
 14 46  1  0  0  0  0
 14 17  1  0  0  0  0
 14 25  1  6  0  0  0
 15 16  1  0  0  0  0
 15 29  1  0  0  0  0
 16 18  1  1  0  0  0
 16 21  1  0  0  0  0
 17 19  1  1  0  0  0
 17 20  1  0  0  0  0
 20 22  1  1  0  0  0
 20 24  1  0  0  0  0
 23 21  1  1  0  0  0
 23 26  1  0  0  0  0
 23 33  1  0  0  0  0
 24 25  1  6  0  0  0
 24 27  1  0  0  0  0
 26 29  1  6  0  0  0
 26 31  1  0  0  0  0
 27 28  1  0  0  0  0
 29 30  2  0  0  0  0
 31 32  1  0  0  0  0
 33 32  1  6  0  0  0
 34 36  1  0  0  0  0
 34 42  1  0  0  0  0
 36 37  1  1  0  0  0
 36 39  1  0  0  0  0
 40 39  1  6  0  0  0
 40 41  1  0  0  0  0
 40 46  1  0  0  0  0
 41 42  1  6  0  0  0
 41 44  1  0  0  0  0
 42 43  2  0  0  0  0
 44 45  1  0  0  0  0
 46 45  1  1  0  0  0
M  CHG  2   3  -1  35  -1
M  END
>  <CHROM.1>
171.30878293,60.57253242,-8.09109407,1.72278278,16.44645849,-0.25007075,0.97331226
0.73319820

>  <Name>
ligand

>  <RI>
416

>  <Rbt.Current_Directory>
/home/itssahil/PROJECTS/Mol_Feturizer/Test_systems_manuscript/rnas/3mum

>  <Rbt.Executable>
rbdock ($Id: //depot/dev/client3/rdock/2013.1/src/exe/rbdock.cxx#4 $)

>  <Rbt.Library>
libRbt.so (2013.1, Build901 2013/11/27)

>  <Rbt.Parameter_File>
/export/apps/rDock/src/rDock_2013.1_src/data/scripts/dock_solv.prm

>  <Rbt.Receptor>
prm/pocket_docking_3.prm

>  <SCORE>
-39.2602

>  <SCORE.INTER>
-39.2814

>  <SCORE.INTER.CONST>
1

>  <SCORE.INTER.POLAR>
0

>  <SCORE.INTER.ROT>
2

>  <SCORE.INTER.SOLV>
39.9972

>  <SCORE.INTER.VDW>
-44.4534

>  <SCORE.INTER.norm>
-0.853944

>  <SCORE.INTRA>
0.0211892

>  <SCORE.INTRA.DIHEDRAL>
-0.00564685

>  <SCORE.INTRA.DIHEDRAL.0>
2.40424

>  <SCORE.INTRA.POLAR>
0

>  <SCORE.INTRA.POLAR.0>
0

>  <SCORE.INTRA.REPUL>
0

>  <SCORE.INTRA.REPUL.0>
0

>  <SCORE.INTRA.SOLV>
0.00510465

>  <SCORE.INTRA.SOLV.lig_0>
-134.169

>  <SCORE.INTRA.VDW>
0.0214603

>  <SCORE.INTRA.VDW.0>
-2.18386

>  <SCORE.INTRA.norm>
0.000460634

>  <SCORE.RESTR>
0

>  <SCORE.RESTR.CAVITY>
0

>  <SCORE.RESTR.norm>
0

>  <SCORE.SYSTEM>
0

>  <SCORE.SYSTEM.CONST>
0

>  <SCORE.SYSTEM.DIHEDRAL>
0

>  <SCORE.SYSTEM.SOLV>
0

>  <SCORE.SYSTEM.norm>
0

>  <SCORE.heavy>
46

>  <SCORE.norm>
-0.853483

>  <RMSD>
0.266

$$$$
ligand
 OpenBabel02271912143D
libRbt.so/2013.1/901 2013/11/27
 46 52  0  0  0  0  0  0  0  0999 V2000
   -9.7503    4.9030   15.6412 P   0  0  1  0  0  0  0  0  0  0  0  0
   -5.3627    2.3949   18.6636 P   0  0  2  0  0  0  0  0  0  0  0  0
  -10.5187    3.7137   14.5750 O   0  5  0  0  0  0  0  0  0  0  0  0
  -10.5810    6.4794   15.5748 O   0  0  0  0  0  0  0  0  0  0  0  0
   -9.1240    5.0186   18.2137 C   0  0  0  0  0  0  0  0  0  0  0  0
   -9.7697    4.3247   17.1460 O   0  0  0  0  0  0  0  0  0  0  0  0
   -8.8874    4.0434   19.3512 C   0  0  1  0  0  0  0  0  0  0  0  0
  -10.1229    3.3992   19.6928 O   0  0  0  0  0  0  0  0  0  0  0  0
   -7.9288    2.9206   18.9897 C   0  0  1  0  0  0  0  0  0  0  0  0
   -6.5764    3.2476   19.3014 O   0  0  0  0  0  0  0  0  0  0  0  0
   -8.4368    1.7534   19.8178 C   0  0  1  0  0  0  0  0  0  0  0  0
   -7.8178    1.7605   21.1067 O   0  0  0  0  0  0  0  0  0  0  0  0
   -9.9223    2.0090   19.9923 C   0  0  2  0  0  0  0  0  0  0  0  0
   -6.0233    2.8309   13.5694 C   0  0  1  0  0  0  0  0  0  0  0  0
  -10.7614   -2.7524   17.7973 N   0  0  0  0  0  0  0  0  0  0  0  0
   -9.8290   -2.3851   18.7183 C   0  0  1  0  0  0  0  0  0  0  0  0
   -7.4281    3.2611   13.8835 C   0  0  2  0  0  0  0  0  0  0  0  0
   -8.9699   -3.3279   19.1697 N   0  0  0  0  0  0  0  0  0  0  0  0
   -7.8150    4.1658   12.8477 O   0  0  0  0  0  0  0  0  0  0  0  0
   -7.3295    3.9471   15.2316 C   0  0  2  0  0  0  0  0  0  0  0  0
   -9.7260   -1.1102   19.1985 N   0  0  0  0  0  0  0  0  0  0  0  0
   -8.1856    5.0786   15.3096 O   0  0  0  0  0  0  0  0  0  0  0  0
  -10.5648   -0.1293   18.7791 C   0  0  2  0  0  0  0  0  0  0  0  0
   -5.8815    4.3824   15.3416 C   0  0  2  0  0  0  0  0  0  0  0  0
   -5.1523    3.5483   14.4428 O   0  0  0  0  0  0  0  0  0  0  0  0
  -11.5912   -0.4730   17.7798 C   0  0  1  0  0  0  0  0  0  0  0  0
   -5.3210    4.2240   16.7506 C   0  0  0  0  0  0  0  0  0  0  0  0
   -5.3620    2.8434   17.1172 O   0  0  0  0  0  0  0  0  0  0  0  0
  -11.6530   -1.8652   17.3000 C   0  0  0  0  0  0  0  0  0  0  0  0
  -12.5771   -2.2392   16.3790 O   0  0  0  0  0  0  0  0  0  0  0  0
  -12.2780    0.6466   17.5270 N   0  0  0  0  0  0  0  0  0  0  0  0
  -11.7401    1.6362   18.2982 C   0  0  0  0  0  0  0  0  0  0  0  0
  -10.7153    1.1782   19.0477 N   0  0  1  0  0  0  0  0  0  0  0  0
   -7.4282   -1.8748   11.7663 N   0  0  0  0  0  0  0  0  0  0  0  0
   -5.6518    0.6408   18.8066 O   0  5  0  0  0  0  0  0  0  0  0  0
   -7.7812   -0.6342   11.3313 C   0  0  2  0  0  0  0  0  0  0  0  0
   -8.6185   -0.5175   10.2676 N   0  0  0  0  0  0  0  0  0  0  0  0
   -3.7807    2.7923   19.3618 O   0  0  0  0  0  0  0  0  0  0  0  0
   -7.3203    0.4982   11.9292 N   0  0  0  0  0  0  0  0  0  0  0  0
   -6.4788    0.4465   12.9881 C   0  0  2  0  0  0  0  0  0  0  0  0
   -6.0640   -0.8643   13.5051 C   0  0  2  0  0  0  0  0  0  0  0  0
   -6.6020   -2.0579   12.8181 C   0  0  0  0  0  0  0  0  0  0  0  0
   -6.2775   -3.3097   13.2256 O   0  0  0  0  0  0  0  0  0  0  0  0
   -5.2484   -0.6254   14.5511 N   0  0  0  0  0  0  0  0  0  0  0  0
   -5.1465    0.7302   14.6889 C   0  0  0  0  0  0  0  0  0  0  0  0
   -5.8868    1.3660   13.7526 N   0  0  1  0  0  0  0  0  0  0  0  0
  1  3  1  6  0  0  0
  1  4  2  0  0  0  0
  1  6  1  0  0  0  0
  1 22  1  0  0  0  0
  2 28  1  0  0  0  0
  2 35  1  1  0  0  0
  2 38  2  0  0  0  0
  2 10  1  0  0  0  0
  5  6  1  0  0  0  0
  7  5  1  6  0  0  0
  7  8  1  0  0  0  0
  7  9  1  0  0  0  0
  9 10  1  1  0  0  0
  9 11  1  0  0  0  0
 11 12  1  1  0  0  0
 11 13  1  0  0  0  0
 13  8  1  6  0  0  0
 13 33  1  0  0  0  0
 14 46  1  0  0  0  0
 14 17  1  0  0  0  0
 14 25  1  1  0  0  0
 15 16  1  0  0  0  0
 15 29  1  0  0  0  0
 16 18  1  6  0  0  0
 16 21  1  0  0  0  0
 17 19  1  6  0  0  0
 17 20  1  0  0  0  0
 20 22  1  6  0  0  0
 20 24  1  0  0  0  0
 23 21  1  6  0  0  0
 23 26  1  0  0  0  0
 23 33  1  0  0  0  0
 24 25  1  6  0  0  0
 24 27  1  0  0  0  0
 26 29  1  1  0  0  0
 26 31  1  0  0  0  0
 27 28  1  0  0  0  0
 29 30  2  0  0  0  0
 31 32  1  0  0  0  0
 33 32  1  1  0  0  0
 34 36  1  0  0  0  0
 34 42  1  0  0  0  0
 36 37  1  6  0  0  0
 36 39  1  0  0  0  0
 40 39  1  1  0  0  0
 40 41  1  0  0  0  0
 40 46  1  0  0  0  0
 41 42  1  1  0  0  0
 41 44  1  0  0  0  0
 42 43  2  0  0  0  0
 44 45  1  0  0  0  0
 46 45  1  6  0  0  0
M  CHG  2   3  -1  35  -1
M  END
>  <CHROM.1>
162.63819432,67.69642802,-8.11860445,1.63295201,16.41000991,-2.23798461,-0.96880407
-2.46348960

>  <Name>
ligand

>  <RI>
416

>  <Rbt.Current_Directory>
/home/itssahil/PROJECTS/Mol_Feturizer/Test_systems_manuscript/rnas/3mum

>  <Rbt.Executable>
rbdock ($Id: //depot/dev/client3/rdock/2013.1/src/exe/rbdock.cxx#4 $)

>  <Rbt.Library>
libRbt.so (2013.1, Build901 2013/11/27)

>  <Rbt.Parameter_File>
/export/apps/rDock/src/rDock_2013.1_src/data/scripts/dock_solv.prm

>  <Rbt.Receptor>
prm/pocket_docking_3.prm

>  <SCORE>
-40.4511

>  <SCORE.INTER>
-40.4433

>  <SCORE.INTER.CONST>
1

>  <SCORE.INTER.POLAR>
0

>  <SCORE.INTER.ROT>
2

>  <SCORE.INTER.SOLV>
39.5225

>  <SCORE.INTER.VDW>
-45.0697

>  <SCORE.INTER.norm>
-0.879202

>  <SCORE.INTRA>
-0.00780743

>  <SCORE.INTRA.DIHEDRAL>
0.00312754

>  <SCORE.INTRA.DIHEDRAL.0>
2.40424

>  <SCORE.INTRA.POLAR>
0

>  <SCORE.INTRA.POLAR.0>
0

>  <SCORE.INTRA.REPUL>
0

>  <SCORE.INTRA.REPUL.0>
0

>  <SCORE.INTRA.SOLV>
-0.00061496

>  <SCORE.INTRA.SOLV.lig_0>
-134.169

>  <SCORE.INTRA.VDW>
-0.00906372

>  <SCORE.INTRA.VDW.0>
-2.18386

>  <SCORE.INTRA.norm>
-0.000169727

>  <SCORE.RESTR>
0

>  <SCORE.RESTR.CAVITY>
0

>  <SCORE.RESTR.norm>
0

>  <SCORE.SYSTEM>
0

>  <SCORE.SYSTEM.CONST>
0

>  <SCORE.SYSTEM.DIHEDRAL>
0

>  <SCORE.SYSTEM.SOLV>
0

>  <SCORE.SYSTEM.norm>
0

>  <SCORE.heavy>
46

>  <SCORE.norm>
-0.879372

>  <RMSD>
0.266

$$$$
ligand
 OpenBabel02271912143D
libRbt.so/2013.1/901 2013/11/27
 46 52  0  0  0  0  0  0  0  0999 V2000
   -9.7307    4.9002   15.6562 P   0  0  1  0  0  0  0  0  0  0  0  0
   -5.3522    2.4049   18.7023 P   0  0  2  0  0  0  0  0  0  0  0  0
  -10.4884    3.7092   14.5842 O   0  5  0  0  0  0  0  0  0  0  0  0
  -10.5666    6.4736   15.5864 O   0  0  0  0  0  0  0  0  0  0  0  0
   -9.1202    5.0154   18.2325 C   0  0  0  0  0  0  0  0  0  0  0  0
   -9.7570    4.3203   17.1603 O   0  0  0  0  0  0  0  0  0  0  0  0
   -8.8869    4.0400   19.3704 C   0  0  1  0  0  0  0  0  0  0  0  0
  -10.1220    3.3910   19.7040 O   0  0  0  0  0  0  0  0  0  0  0  0
   -7.9221    2.9209   19.0136 C   0  0  1  0  0  0  0  0  0  0  0  0
   -6.5728    3.2525   19.3337 O   0  0  0  0  0  0  0  0  0  0  0  0
   -8.4308    1.7511   19.8375 C   0  0  1  0  0  0  0  0  0  0  0  0
   -7.8196    1.7591   21.1301 O   0  0  0  0  0  0  0  0  0  0  0  0
   -9.9183    2.0012   20.0033 C   0  0  2  0  0  0  0  0  0  0  0  0
   -5.9839    2.8436   13.6047 C   0  0  1  0  0  0  0  0  0  0  0  0
  -10.6669   -2.7379   17.7288 N   0  0  0  0  0  0  0  0  0  0  0  0
   -9.7320   -2.3646   18.6448 C   0  0  1  0  0  0  0  0  0  0  0  0
   -7.3921    3.2684   13.9108 C   0  0  2  0  0  0  0  0  0  0  0  0
   -8.8437   -3.2936   19.0673 N   0  0  0  0  0  0  0  0  0  0  0  0
   -7.7761    4.1728   12.8736 O   0  0  0  0  0  0  0  0  0  0  0  0
   -7.3041    3.9534   15.2601 C   0  0  2  0  0  0  0  0  0  0  0  0
   -9.6545   -1.0967   19.1478 N   0  0  0  0  0  0  0  0  0  0  0  0
   -8.1647    5.0818   15.3341 O   0  0  0  0  0  0  0  0  0  0  0  0
  -10.5230   -0.1295   18.7579 C   0  0  2  0  0  0  0  0  0  0  0  0
   -5.8583    4.3939   15.3792 C   0  0  2  0  0  0  0  0  0  0  0  0
   -5.1207    3.5632   14.4840 O   0  0  0  0  0  0  0  0  0  0  0  0
  -11.5535   -0.4803   17.7652 C   0  0  1  0  0  0  0  0  0  0  0  0
   -5.3057    4.2360   16.7914 C   0  0  0  0  0  0  0  0  0  0  0  0
   -5.3439    2.8550   17.1564 O   0  0  0  0  0  0  0  0  0  0  0  0
  -11.5869   -1.8643   17.2599 C   0  0  0  0  0  0  0  0  0  0  0  0
  -12.5134   -2.2442   16.3437 O   0  0  0  0  0  0  0  0  0  0  0  0
  -12.2714    0.6262   17.5425 N   0  0  0  0  0  0  0  0  0  0  0  0
  -11.7482    1.6144   18.3256 C   0  0  0  0  0  0  0  0  0  0  0  0
  -10.7026    1.1684   19.0532 N   0  0  1  0  0  0  0  0  0  0  0  0
   -7.4031   -1.8653   11.8212 N   0  0  0  0  0  0  0  0  0  0  0  0
   -5.6359    0.6496   18.8419 O   0  5  0  0  0  0  0  0  0  0  0  0
   -7.7629   -0.6255   11.3895 C   0  0  2  0  0  0  0  0  0  0  0  0
   -8.6127   -0.5107   10.3356 N   0  0  0  0  0  0  0  0  0  0  0  0
   -3.7759    2.8073   19.4104 O   0  0  0  0  0  0  0  0  0  0  0  0
   -7.2967    0.5080   11.9812 N   0  0  0  0  0  0  0  0  0  0  0  0
   -6.4428    0.4582   13.0303 C   0  0  2  0  0  0  0  0  0  0  0  0
   -6.0201   -0.8517   13.5433 C   0  0  2  0  0  0  0  0  0  0  0  0
   -6.5645   -2.0465   12.8634 C   0  0  0  0  0  0  0  0  0  0  0  0
   -6.2334   -3.2976   13.2680 O   0  0  0  0  0  0  0  0  0  0  0  0
   -5.1928   -0.6109   14.5796 N   0  0  0  0  0  0  0  0  0  0  0  0
   -5.0912    0.7449   14.7152 C   0  0  0  0  0  0  0  0  0  0  0  0
   -5.8432    1.3790   13.7872 N   0  0  1  0  0  0  0  0  0  0  0  0
  1  3  1  6  0  0  0
  1  4  2  0  0  0  0
  1  6  1  0  0  0  0
  1 22  1  0  0  0  0
  2 28  1  0  0  0  0
  2 35  1  1  0  0  0
  2 38  2  0  0  0  0
  2 10  1  0  0  0  0
  5  6  1  0  0  0  0
  7  5  1  6  0  0  0
  7  8  1  0  0  0  0
  7  9  1  0  0  0  0
  9 10  1  1  0  0  0
  9 11  1  0  0  0  0
 11 12  1  1  0  0  0
 11 13  1  0  0  0  0
 13  8  1  6  0  0  0
 13 33  1  0  0  0  0
 14 46  1  0  0  0  0
 14 17  1  0  0  0  0
 14 25  1  1  0  0  0
 15 16  1  0  0  0  0
 15 29  1  0  0  0  0
 16 18  1  6  0  0  0
 16 21  1  0  0  0  0
 17 19  1  6  0  0  0
 17 20  1  0  0  0  0
 20 22  1  6  0  0  0
 20 24  1  0  0  0  0
 23 21  1  6  0  0  0
 23 26  1  0  0  0  0
 23 33  1  0  0  0  0
 24 25  1  6  0  0  0
 24 27  1  0  0  0  0
 26 29  1  1  0  0  0
 26 31  1  0  0  0  0
 27 28  1  0  0  0  0
 29 30  2  0  0  0  0
 31 32  1  0  0  0  0
 33 32  1  1  0  0  0
 34 36  1  0  0  0  0
 34 42  1  0  0  0  0
 36 37  1  6  0  0  0
 36 39  1  0  0  0  0
 40 39  1  1  0  0  0
 40 41  1  0  0  0  0
 40 46  1  0  0  0  0
 41 42  1  1  0  0  0
 41 44  1  0  0  0  0
 42 43  2  0  0  0  0
 44 45  1  0  0  0  0
 46 45  1  6  0  0  0
M  CHG  2   3  -1  35  -1
M  END
>  <CHROM.1>
160.70549566,66.67328628,-8.08995378,1.63774444,16.42755210,-2.20640526,-0.96452328
-2.46922001

>  <Name>
ligand

>  <RI>
416

>  <Rbt.Current_Directory>
/home/itssahil/PROJECTS/Mol_Feturizer/Test_systems_manuscript/rnas/3mum

>  <Rbt.Executable>
rbdock ($Id: //depot/dev/client3/rdock/2013.1/src/exe/rbdock.cxx#4 $)

>  <Rbt.Library>
libRbt.so (2013.1, Build901 2013/11/27)

>  <Rbt.Parameter_File>
/export/apps/rDock/src/rDock_2013.1_src/data/scripts/dock_solv.prm

>  <Rbt.Receptor>
prm/pocket_docking_2.prm

>  <SCORE>
-40.3811

>  <SCORE.INTER>
-40.3981

>  <SCORE.INTER.CONST>
1

>  <SCORE.INTER.POLAR>
0

>  <SCORE.INTER.ROT>
2

>  <SCORE.INTER.SOLV>
39.1332

>  <SCORE.INTER.VDW>
-44.9098

>  <SCORE.INTER.norm>
-0.878219

>  <SCORE.INTRA>
0.0169655

>  <SCORE.INTRA.DIHEDRAL>
0.00153291

>  <SCORE.INTRA.DIHEDRAL.0>
2.40424

>  <SCORE.INTRA.POLAR>
0

>  <SCORE.INTRA.POLAR.0>
0

>  <SCORE.INTRA.REPUL>
0

>  <SCORE.INTRA.REPUL.0>
0

>  <SCORE.INTRA.SOLV>
0.00174833

>  <SCORE.INTRA.SOLV.lig_0>
-134.169

>  <SCORE.INTRA.VDW>
0.0153249

>  <SCORE.INTRA.VDW.0>
-2.18386

>  <SCORE.INTRA.norm>
0.000368816

>  <SCORE.RESTR>
0

>  <SCORE.RESTR.CAVITY>
0

>  <SCORE.RESTR.norm>
0

>  <SCORE.SYSTEM>
0

>  <SCORE.SYSTEM.CONST>
0

>  <SCORE.SYSTEM.DIHEDRAL>
0

>  <SCORE.SYSTEM.SOLV>
0

>  <SCORE.SYSTEM.norm>
0

>  <SCORE.heavy>
46

>  <SCORE.norm>
-0.87785

>  <RMSD>
0.268

$$$$
ligand
 OpenBabel02271912143D
libRbt.so/2013.1/901 2013/11/27
 46 52  0  0  0  0  0  0  0  0999 V2000
   -9.7288    4.9101   15.6560 P   0  0  1  0  0  0  0  0  0  0  0  0
   -5.3587    2.3878   18.6918 P   0  0  2  0  0  0  0  0  0  0  0  0
  -10.4959    3.7240   14.5853 O   0  5  0  0  0  0  0  0  0  0  0  0
  -10.5555    6.4885   15.5885 O   0  0  0  0  0  0  0  0  0  0  0  0
   -9.1120    5.0208   18.2310 C   0  0  0  0  0  0  0  0  0  0  0  0
   -9.7553    4.3299   17.1600 O   0  0  0  0  0  0  0  0  0  0  0  0
   -8.8821    4.0436   19.3681 C   0  0  1  0  0  0  0  0  0  0  0  0
  -10.1203    3.4019   19.7041 O   0  0  0  0  0  0  0  0  0  0  0  0
   -7.9247    2.9190   19.0088 C   0  0  1  0  0  0  0  0  0  0  0  0
   -6.5727    3.2425   19.3261 O   0  0  0  0  0  0  0  0  0  0  0  0
   -8.4386    1.7520   19.8334 C   0  0  1  0  0  0  0  0  0  0  0  0
   -7.8245    1.7559   21.1247 O   0  0  0  0  0  0  0  0  0  0  0  0
   -9.9242    2.0108   20.0026 C   0  0  2  0  0  0  0  0  0  0  0  0
   -5.9988    2.8319   13.5956 C   0  0  1  0  0  0  0  0  0  0  0  0
  -10.7420   -2.7370   17.7706 N   0  0  0  0  0  0  0  0  0  0  0  0
   -9.8086   -2.3718   18.6913 C   0  0  1  0  0  0  0  0  0  0  0  0
   -7.4038    3.2650   13.9049 C   0  0  2  0  0  0  0  0  0  0  0  0
   -8.9420   -3.3130   19.1316 N   0  0  0  0  0  0  0  0  0  0  0  0
   -7.7846    4.1720   12.8689 O   0  0  0  0  0  0  0  0  0  0  0  0
   -7.3087    3.9490   15.2543 C   0  0  2  0  0  0  0  0  0  0  0  0
   -9.7116   -1.1003   19.1818 N   0  0  0  0  0  0  0  0  0  0  0  0
   -8.1625    5.0825   15.3306 O   0  0  0  0  0  0  0  0  0  0  0  0
  -10.5579   -0.1211   18.7738 C   0  0  2  0  0  0  0  0  0  0  0  0
   -5.8601    4.3808   15.3704 C   0  0  2  0  0  0  0  0  0  0  0  0
   -5.1294    3.5461   14.4733 O   0  0  0  0  0  0  0  0  0  0  0  0
  -11.5859   -0.4627   17.7753 C   0  0  1  0  0  0  0  0  0  0  0  0
   -5.3054    4.2192   16.7813 C   0  0  0  0  0  0  0  0  0  0  0  0
   -5.3510    2.8383   17.1459 O   0  0  0  0  0  0  0  0  0  0  0  0
  -11.6409   -1.8512   17.2840 C   0  0  0  0  0  0  0  0  0  0  0  0
  -12.5661   -2.2232   16.3633 O   0  0  0  0  0  0  0  0  0  0  0  0
  -12.2805    0.6547   17.5345 N   0  0  0  0  0  0  0  0  0  0  0  0
  -11.7458    1.6411   18.3121 C   0  0  0  0  0  0  0  0  0  0  0  0
  -10.7155    1.1831   19.0539 N   0  0  1  0  0  0  0  0  0  0  0  0
   -7.4264   -1.8680   11.7954 N   0  0  0  0  0  0  0  0  0  0  0  0
   -5.6524    0.6342   18.8314 O   0  5  0  0  0  0  0  0  0  0  0  0
   -7.7771   -0.6260   11.3625 C   0  0  2  0  0  0  0  0  0  0  0  0
   -8.6182   -0.5059   10.3023 N   0  0  0  0  0  0  0  0  0  0  0  0
   -3.7784    2.7805   19.3965 O   0  0  0  0  0  0  0  0  0  0  0  0
   -7.3101    0.5045   11.9592 N   0  0  0  0  0  0  0  0  0  0  0  0
   -6.4645    0.4494   13.0147 C   0  0  2  0  0  0  0  0  0  0  0  0
   -6.0520   -0.8631   13.5294 C   0  0  2  0  0  0  0  0  0  0  0  0
   -6.5967   -2.0545   12.8438 C   0  0  0  0  0  0  0  0  0  0  0  0
   -6.2747   -3.3076   13.2493 O   0  0  0  0  0  0  0  0  0  0  0  0
   -5.2315   -0.6275   14.5723 N   0  0  0  0  0  0  0  0  0  0  0  0
   -5.1246    0.7277   14.7104 C   0  0  0  0  0  0  0  0  0  0  0  0
   -5.8665    1.3665   13.7774 N   0  0  1  0  0  0  0  0  0  0  0  0
  1  3  1  6  0  0  0
  1  4  2  0  0  0  0
  1  6  1  0  0  0  0
  1 22  1  0  0  0  0
  2 28  1  0  0  0  0
  2 35  1  1  0  0  0
  2 38  2  0  0  0  0
  2 10  1  0  0  0  0
  5  6  1  0  0  0  0
  7  5  1  6  0  0  0
  7  8  1  0  0  0  0
  7  9  1  0  0  0  0
  9 10  1  1  0  0  0
  9 11  1  0  0  0  0
 11 12  1  1  0  0  0
 11 13  1  0  0  0  0
 13  8  1  6  0  0  0
 13 33  1  0  0  0  0
 14 46  1  0  0  0  0
 14 17  1  0  0  0  0
 14 25  1  1  0  0  0
 15 16  1  0  0  0  0
 15 29  1  0  0  0  0
 16 18  1  6  0  0  0
 16 21  1  0  0  0  0
 17 19  1  6  0  0  0
 17 20  1  0  0  0  0
 20 22  1  6  0  0  0
 20 24  1  0  0  0  0
 23 21  1  6  0  0  0
 23 26  1  0  0  0  0
 23 33  1  0  0  0  0
 24 25  1  6  0  0  0
 24 27  1  0  0  0  0
 26 29  1  1  0  0  0
 26 31  1  0  0  0  0
 27 28  1  0  0  0  0
 29 30  2  0  0  0  0
 31 32  1  0  0  0  0
 33 32  1  1  0  0  0
 34 36  1  0  0  0  0
 34 42  1  0  0  0  0
 36 37  1  6  0  0  0
 36 39  1  0  0  0  0
 40 39  1  1  0  0  0
 40 41  1  0  0  0  0
 40 46  1  0  0  0  0
 41 42  1  1  0  0  0
 41 44  1  0  0  0  0
 42 43  2  0  0  0  0
 44 45  1  0  0  0  0
 46 45  1  6  0  0  0
M  CHG  2   3  -1  35  -1
M  END
>  <CHROM.1>
161.87295610,67.24575262,-8.10717149,1.63615932,16.42529649,-2.22151693,-0.96369447
-2.46172371

>  <Name>
ligand

>  <RI>
416

>  <Rbt.Current_Directory>
/home/itssahil/PROJECTS/Mol_Feturizer/Test_systems_manuscript/rnas/3mum

>  <Rbt.Executable>
rbdock ($Id: //depot/dev/client3/rdock/2013.1/src/exe/rbdock.cxx#4 $)

>  <Rbt.Library>
libRbt.so (2013.1, Build901 2013/11/27)

>  <Rbt.Parameter_File>
/export/apps/rDock/src/rDock_2013.1_src/data/scripts/dock_solv.prm

>  <Rbt.Receptor>
prm/pocket_docking_2.prm

>  <SCORE>
-40.4266

>  <SCORE.INTER>
-40.4289

>  <SCORE.INTER.CONST>
1

>  <SCORE.INTER.POLAR>
0

>  <SCORE.INTER.ROT>
2

>  <SCORE.INTER.SOLV>
39.2682

>  <SCORE.INTER.VDW>
-44.9754

>  <SCORE.INTER.norm>
-0.87889

>  <SCORE.INTRA>
0.00230122

>  <SCORE.INTRA.DIHEDRAL>
0.0024342

>  <SCORE.INTRA.DIHEDRAL.0>
2.40424

>  <SCORE.INTRA.POLAR>
0

>  <SCORE.INTRA.POLAR.0>
0

>  <SCORE.INTRA.REPUL>
0

>  <SCORE.INTRA.REPUL.0>
0

>  <SCORE.INTRA.SOLV>
0.000387911

>  <SCORE.INTRA.SOLV.lig_0>
-134.169

>  <SCORE.INTRA.VDW>
0.000890163

>  <SCORE.INTRA.VDW.0>
-2.18386

>  <SCORE.INTRA.norm>
5.00265e-05

>  <SCORE.RESTR>
0

>  <SCORE.RESTR.CAVITY>
0

>  <SCORE.RESTR.norm>
0

>  <SCORE.SYSTEM>
0

>  <SCORE.SYSTEM.CONST>
0

>  <SCORE.SYSTEM.DIHEDRAL>
0

>  <SCORE.SYSTEM.SOLV>
0

>  <SCORE.SYSTEM.norm>
0

>  <SCORE.heavy>
46

>  <SCORE.norm>
-0.87884

>  <RMSD>
0.273

$$$$
ligand
 OpenBabel02271912143D
libRbt.so/2013.1/901 2013/11/27
 46 52  0  0  0  0  0  0  0  0999 V2000
   -5.2310    2.4177   18.6676 P   0  0  1  0  0  0  0  0  0  0  0  0
   -9.6743    4.8379   15.6549 P   0  0  2  0  0  0  0  0  0  0  0  0
   -5.4160    0.6558   18.7236 O   0  5  0  0  0  0  0  0  0  0  0  0
   -3.7135    2.9446   19.4415 O   0  0  0  0  0  0  0  0  0  0  0  0
   -5.2396    4.2661   16.7684 C   0  0  0  0  0  0  0  0  0  0  0  0
   -5.2618    2.8836   17.1245 O   0  0  0  0  0  0  0  0  0  0  0  0
   -5.7580    4.4087   15.3501 C   0  0  1  0  0  0  0  0  0  0  0  0
   -5.0204    3.5367   14.4820 O   0  0  0  0  0  0  0  0  0  0  0  0
   -7.2137    3.9981   15.1989 C   0  0  1  0  0  0  0  0  0  0  0  0
   -8.1037    5.0966   15.3840 O   0  0  0  0  0  0  0  0  0  0  0  0
   -7.2725    3.4510   13.7836 C   0  0  1  0  0  0  0  0  0  0  0  0
   -7.5565    4.5061   12.8614 O   0  0  0  0  0  0  0  0  0  0  0  0
   -5.8766    2.9258   13.5041 C   0  0  2  0  0  0  0  0  0  0  0  0
   -9.7818    1.9074   19.8950 C   0  0  1  0  0  0  0  0  0  0  0  0
   -7.4893   -1.8319   11.7846 N   0  0  0  0  0  0  0  0  0  0  0  0
   -7.8076   -0.5961   11.3115 C   0  0  1  0  0  0  0  0  0  0  0  0
   -8.3351    1.6145   19.6150 C   0  0  2  0  0  0  0  0  0  0  0  0
   -8.6511   -0.5127   10.2568 N   0  0  0  0  0  0  0  0  0  0  0  0
   -7.7122    1.4046   20.8834 O   0  0  0  0  0  0  0  0  0  0  0  0
   -7.8156    2.8598   18.9243 C   0  0  2  0  0  0  0  0  0  0  0  0
   -7.3146    0.5548   11.8584 N   0  0  0  0  0  0  0  0  0  0  0  0
   -6.4895    3.1711   19.3291 O   0  0  0  0  0  0  0  0  0  0  0  0
   -6.4642    0.5247   12.9154 C   0  0  2  0  0  0  0  0  0  0  0  0
   -8.7621    3.9647   19.3509 C   0  0  2  0  0  0  0  0  0  0  0  0
   -9.9673    3.3150   19.7518 O   0  0  0  0  0  0  0  0  0  0  0  0
   -6.0894   -0.7883   13.4686 C   0  0  1  0  0  0  0  0  0  0  0  0
   -9.0650    4.9509   18.2284 C   0  0  0  0  0  0  0  0  0  0  0  0
   -9.7046    4.2560   17.1560 O   0  0  0  0  0  0  0  0  0  0  0  0
   -6.6533   -1.9938   12.8356 C   0  0  0  0  0  0  0  0  0  0  0  0
   -6.3442   -3.2299   13.3032 O   0  0  0  0  0  0  0  0  0  0  0  0
   -5.2603   -0.5566   14.4922 N   0  0  0  0  0  0  0  0  0  0  0  0
   -5.1106    0.7964   14.5957 C   0  0  0  0  0  0  0  0  0  0  0  0
   -5.8287    1.4473   13.6565 N   0  0  1  0  0  0  0  0  0  0  0  0
  -10.7571   -2.7788   17.7840 N   0  0  0  0  0  0  0  0  0  0  0  0
  -10.3469    3.6485   14.5087 O   0  5  0  0  0  0  0  0  0  0  0  0
   -9.7968   -2.4072   18.6744 C   0  0  2  0  0  0  0  0  0  0  0  0
   -8.9240   -3.3402   19.1367 N   0  0  0  0  0  0  0  0  0  0  0  0
  -10.6494    6.3195   15.6097 O   0  0  0  0  0  0  0  0  0  0  0  0
   -9.6822   -1.1261   19.1192 N   0  0  0  0  0  0  0  0  0  0  0  0
  -10.5260   -0.1540   18.7003 C   0  0  2  0  0  0  0  0  0  0  0  0
  -11.5817   -0.4933   17.7370 C   0  0  2  0  0  0  0  0  0  0  0  0
  -11.6523   -1.8997   17.2861 C   0  0  0  0  0  0  0  0  0  0  0  0
  -12.5912   -2.3064   16.3964 O   0  0  0  0  0  0  0  0  0  0  0  0
  -12.2571    0.6461   17.4883 N   0  0  0  0  0  0  0  0  0  0  0  0
  -11.6817    1.6341   18.2366 C   0  0  0  0  0  0  0  0  0  0  0  0
  -10.6451    1.1498   18.9576 N   0  0  1  0  0  0  0  0  0  0  0  0
  1  3  1  1  0  0  0
  1  4  2  0  0  0  0
  1  6  1  0  0  0  0
  1 22  1  0  0  0  0
  2 28  1  0  0  0  0
  2 35  1  6  0  0  0
  2 38  2  0  0  0  0
  2 10  1  0  0  0  0
  5  6  1  0  0  0  0
  7  5  1  1  0  0  0
  7  8  1  0  0  0  0
  7  9  1  0  0  0  0
  9 10  1  6  0  0  0
  9 11  1  0  0  0  0
 11 12  1  6  0  0  0
 11 13  1  0  0  0  0
 13  8  1  1  0  0  0
 13 33  1  0  0  0  0
 14 46  1  0  0  0  0
 14 17  1  0  0  0  0
 14 25  1  6  0  0  0
 15 16  1  0  0  0  0
 15 29  1  0  0  0  0
 16 18  1  1  0  0  0
 16 21  1  0  0  0  0
 17 19  1  1  0  0  0
 17 20  1  0  0  0  0
 20 22  1  1  0  0  0
 20 24  1  0  0  0  0
 23 21  1  1  0  0  0
 23 26  1  0  0  0  0
 23 33  1  0  0  0  0
 24 25  1  6  0  0  0
 24 27  1  0  0  0  0
 26 29  1  6  0  0  0
 26 31  1  0  0  0  0
 27 28  1  0  0  0  0
 29 30  2  0  0  0  0
 31 32  1  0  0  0  0
 33 32  1  6  0  0  0
 34 36  1  0  0  0  0
 34 42  1  0  0  0  0
 36 37  1  1  0  0  0
 36 39  1  0  0  0  0
 40 39  1  6  0  0  0
 40 41  1  0  0  0  0
 40 46  1  0  0  0  0
 41 42  1  6  0  0  0
 41 44  1  0  0  0  0
 42 43  2  0  0  0  0
 44 45  1  0  0  0  0
 46 45  1  1  0  0  0
M  CHG  2   3  -1  35  -1
M  END
>  <CHROM.1>
-178.42430899,48.88606118,-8.05116728,1.63180824,16.38478757,-2.27608568
-0.95077790,-2.38159611

>  <Name>
ligand

>  <RI>
416

>  <Rbt.Current_Directory>
/home/itssahil/PROJECTS/Mol_Feturizer/Test_systems_manuscript/rnas/3mum

>  <Rbt.Executable>
rbdock ($Id: //depot/dev/client3/rdock/2013.1/src/exe/rbdock.cxx#4 $)

>  <Rbt.Library>
libRbt.so (2013.1, Build901 2013/11/27)

>  <Rbt.Parameter_File>
/export/apps/rDock/src/rDock_2013.1_src/data/scripts/dock_solv.prm

>  <Rbt.Receptor>
prm/pocket_docking_3.prm

>  <SCORE>
-40.35

>  <SCORE.INTER>
-40.4259

>  <SCORE.INTER.CONST>
1

>  <SCORE.INTER.POLAR>
0

>  <SCORE.INTER.ROT>
2

>  <SCORE.INTER.SOLV>
39.5833

>  <SCORE.INTER.VDW>
-45.0784

>  <SCORE.INTER.norm>
-0.878824

>  <SCORE.INTRA>
0.0759032

>  <SCORE.INTRA.DIHEDRAL>
-0.0196339

>  <SCORE.INTRA.DIHEDRAL.0>
2.40424

>  <SCORE.INTRA.POLAR>
0

>  <SCORE.INTRA.POLAR.0>
0

>  <SCORE.INTRA.REPUL>
0

>  <SCORE.INTRA.REPUL.0>
0

>  <SCORE.INTRA.SOLV>
0.0179248

>  <SCORE.INTRA.SOLV.lig_0>
-134.169

>  <SCORE.INTRA.VDW>
0.0767578

>  <SCORE.INTRA.VDW.0>
-2.18386

>  <SCORE.INTRA.norm>
0.00165007

>  <SCORE.RESTR>
0

>  <SCORE.RESTR.CAVITY>
0

>  <SCORE.RESTR.norm>
0

>  <SCORE.SYSTEM>
0

>  <SCORE.SYSTEM.CONST>
0

>  <SCORE.SYSTEM.DIHEDRAL>
0

>  <SCORE.SYSTEM.SOLV>
0

>  <SCORE.SYSTEM.norm>
0

>  <SCORE.heavy>
46

>  <SCORE.norm>
-0.877174

>  <RMSD>
0.274

$$$$
ligand
 OpenBabel02271912143D
libRbt.so/2013.1/901 2013/11/27
 46 52  0  0  0  0  0  0  0  0999 V2000
   -9.6822    4.8228   15.3732 P   0  0  1  0  0  0  0  0  0  0  0  0
   -5.2129    2.5328   18.4485 P   0  0  2  0  0  0  0  0  0  0  0  0
  -10.4543    3.5686   14.3870 O   0  5  0  0  0  0  0  0  0  0  0  0
  -10.5332    6.3837   15.2362 O   0  0  0  0  0  0  0  0  0  0  0  0
   -9.0132    5.0854   17.9241 C   0  0  0  0  0  0  0  0  0  0  0  0
   -9.6686    4.3272   16.9073 O   0  0  0  0  0  0  0  0  0  0  0  0
   -8.7452    4.1764   19.1084 C   0  0  1  0  0  0  0  0  0  0  0  0
   -9.9665    3.5379   19.5064 O   0  0  0  0  0  0  0  0  0  0  0  0
   -7.7792    3.0464   18.7913 C   0  0  1  0  0  0  0  0  0  0  0  0
   -6.4257    3.4052   19.0606 O   0  0  0  0  0  0  0  0  0  0  0  0
   -8.2585    1.9205   19.6905 C   0  0  1  0  0  0  0  0  0  0  0  0
   -7.6176    2.0048   20.9658 O   0  0  0  0  0  0  0  0  0  0  0  0
   -9.7438    2.1684   19.8773 C   0  0  2  0  0  0  0  0  0  0  0  0
   -5.9664    2.6830   13.3507 C   0  0  1  0  0  0  0  0  0  0  0  0
  -10.5580   -2.7133   17.9542 N   0  0  0  0  0  0  0  0  0  0  0  0
   -9.6138   -2.2857   18.8362 C   0  0  1  0  0  0  0  0  0  0  0  0
   -7.3707    3.1139   13.6660 C   0  0  2  0  0  0  0  0  0  0  0  0
   -8.7334   -3.1920   19.3203 N   0  0  0  0  0  0  0  0  0  0  0  0
   -7.7865    3.9564   12.5897 O   0  0  0  0  0  0  0  0  0  0  0  0
   -7.2574    3.8733   14.9729 C   0  0  2  0  0  0  0  0  0  0  0  0
   -9.5194   -0.9858   19.2462 N   0  0  0  0  0  0  0  0  0  0  0  0
   -8.1258    4.9977   15.0046 O   0  0  0  0  0  0  0  0  0  0  0  0
  -10.3793   -0.0394   18.7918 C   0  0  2  0  0  0  0  0  0  0  0  0
   -5.8131    4.3304   15.0332 C   0  0  2  0  0  0  0  0  0  0  0  0
   -5.0893    3.4568   14.1682 O   0  0  0  0  0  0  0  0  0  0  0  0
  -11.4193   -0.4489   17.8320 C   0  0  1  0  0  0  0  0  0  0  0  0
   -5.2265    4.2553   16.4385 C   0  0  0  0  0  0  0  0  0  0  0  0
   -5.2443    2.8964   16.8802 O   0  0  0  0  0  0  0  0  0  0  0  0
  -11.4708   -1.8653   17.4279 C   0  0  0  0  0  0  0  0  0  0  0  0
  -12.4067   -2.2996   16.5461 O   0  0  0  0  0  0  0  0  0  0  0  0
  -12.1260    0.6468   17.5336 N   0  0  0  0  0  0  0  0  0  0  0  0
  -11.5875    1.6828   18.2409 C   0  0  0  0  0  0  0  0  0  0  0  0
  -10.5427    1.2785   18.9936 N   0  0  1  0  0  0  0  0  0  0  0  0
   -7.4942   -2.1229   11.9587 N   0  0  0  0  0  0  0  0  0  0  0  0
   -5.4780    0.7860   18.6916 O   0  5  0  0  0  0  0  0  0  0  0  0
   -7.8873   -0.9109   11.4797 C   0  0  2  0  0  0  0  0  0  0  0  0
   -8.8097   -0.8586   10.4836 N   0  0  0  0  0  0  0  0  0  0  0  0
   -3.6241    2.9855   19.0956 O   0  0  0  0  0  0  0  0  0  0  0  0
   -7.3838    0.2556   11.9677 N   0  0  0  0  0  0  0  0  0  0  0  0
   -6.4577    0.2680   12.9548 C   0  0  2  0  0  0  0  0  0  0  0  0
   -5.9960   -1.0092   13.5146 C   0  0  2  0  0  0  0  0  0  0  0  0
   -6.5835   -2.2421   12.9480 C   0  0  0  0  0  0  0  0  0  0  0  0
   -6.2210   -3.4670   13.4027 O   0  0  0  0  0  0  0  0  0  0  0  0
   -5.0982   -0.7075   14.4733 N   0  0  0  0  0  0  0  0  0  0  0  0
   -4.9912    0.6539   14.5196 C   0  0  0  0  0  0  0  0  0  0  0  0
   -5.8089    1.2320   13.6106 N   0  0  1  0  0  0  0  0  0  0  0  0
  1  3  1  6  0  0  0
  1  4  2  0  0  0  0
  1  6  1  0  0  0  0
  1 22  1  0  0  0  0
  2 28  1  0  0  0  0
  2 35  1  1  0  0  0
  2 38  2  0  0  0  0
  2 10  1  0  0  0  0
  5  6  1  0  0  0  0
  7  5  1  6  0  0  0
  7  8  1  0  0  0  0
  7  9  1  0  0  0  0
  9 10  1  1  0  0  0
  9 11  1  0  0  0  0
 11 12  1  1  0  0  0
 11 13  1  0  0  0  0
 13  8  1  6  0  0  0
 13 33  1  0  0  0  0
 14 46  1  0  0  0  0
 14 17  1  0  0  0  0
 14 25  1  1  0  0  0
 15 16  1  0  0  0  0
 15 29  1  0  0  0  0
 16 18  1  6  0  0  0
 16 21  1  0  0  0  0
 17 19  1  6  0  0  0
 17 20  1  0  0  0  0
 20 22  1  6  0  0  0
 20 24  1  0  0  0  0
 23 21  1  6  0  0  0
 23 26  1  0  0  0  0
 23 33  1  0  0  0  0
 24 25  1  6  0  0  0
 24 27  1  0  0  0  0
 26 29  1  1  0  0  0
 26 31  1  0  0  0  0
 27 28  1  0  0  0  0
 29 30  2  0  0  0  0
 31 32  1  0  0  0  0
 33 32  1  1  0  0  0
 34 36  1  0  0  0  0
 34 42  1  0  0  0  0
 36 37  1  6  0  0  0
 36 39  1  0  0  0  0
 40 39  1  1  0  0  0
 40 41  1  0  0  0  0
 40 46  1  0  0  0  0
 41 42  1  1  0  0  0
 41 44  1  0  0  0  0
 42 43  2  0  0  0  0
 44 45  1  0  0  0  0
 46 45  1  6  0  0  0
M  CHG  2   3  -1  35  -1
M  END
>  <CHROM.1>
162.49755160,63.91474658,-8.01360094,1.61897804,16.30249722,-2.20274675,-0.98705495
-2.49861888

>  <Name>
ligand

>  <RI>
-1

>  <Rbt.Current_Directory>
/home/itssahil/PROJECTS/Mol_Feturizer/Test_systems_manuscript/rnas/3mum

>  <Rbt.Executable>
rbdock ($Id: //depot/dev/client3/rdock/2013.1/src/exe/rbdock.cxx#4 $)

>  <Rbt.Library>
libRbt.so (2013.1, Build901 2013/11/27)

>  <Rbt.Parameter_File>
/export/apps/rDock/src/rDock_2013.1_src/data/scripts/dock_solv.prm

>  <Rbt.Receptor>
prm/pocket_docking_5.prm

>  <SCORE>
-40.3023

>  <SCORE.INTER>
-40.3159

>  <SCORE.INTER.CONST>
1

>  <SCORE.INTER.POLAR>
0

>  <SCORE.INTER.ROT>
2

>  <SCORE.INTER.SOLV>
39.4678

>  <SCORE.INTER.VDW>
-44.9665

>  <SCORE.INTER.norm>
-0.876432

>  <SCORE.INTRA>
0.0135635

>  <SCORE.INTRA.DIHEDRAL>
-0.00212552

>  <SCORE.INTRA.DIHEDRAL.0>
2.40424

>  <SCORE.INTRA.POLAR>
0

>  <SCORE.INTRA.POLAR.0>
0

>  <SCORE.INTRA.REPUL>
0

>  <SCORE.INTRA.REPUL.0>
0

>  <SCORE.INTRA.SOLV>
0.00467352

>  <SCORE.INTRA.SOLV.lig_0>
-134.169

>  <SCORE.INTRA.VDW>
0.0122895

>  <SCORE.INTRA.VDW.0>
-2.18386

>  <SCORE.INTRA.norm>
0.000294859

>  <SCORE.RESTR>
0

>  <SCORE.RESTR.CAVITY>
0

>  <SCORE.RESTR.norm>
0

>  <SCORE.SYSTEM>
0

>  <SCORE.SYSTEM.CONST>
0

>  <SCORE.SYSTEM.DIHEDRAL>
0

>  <SCORE.SYSTEM.SOLV>
0

>  <SCORE.SYSTEM.norm>
0

>  <SCORE.heavy>
46

>  <SCORE.norm>
-0.876137

>  <RMSD>
0.274

$$$$
ligand
 OpenBabel02271912143D
libRbt.so/2013.1/901 2013/11/27
 46 52  0  0  0  0  0  0  0  0999 V2000
   -5.2325    2.5796   18.7345 P   0  0  1  0  0  0  0  0  0  0  0  0
   -9.7519    4.8427   15.7131 P   0  0  2  0  0  0  0  0  0  0  0  0
   -5.3324    0.8100   18.7538 O   0  5  0  0  0  0  0  0  0  0  0  0
   -3.7516    3.1634   19.5379 O   0  0  0  0  0  0  0  0  0  0  0  0
   -5.3082    4.4633   16.8719 C   0  0  0  0  0  0  0  0  0  0  0  0
   -5.2676    3.0745   17.2005 O   0  0  0  0  0  0  0  0  0  0  0  0
   -5.8161    4.6092   15.4501 C   0  0  1  0  0  0  0  0  0  0  0  0
   -5.0269    3.7915   14.5747 O   0  0  0  0  0  0  0  0  0  0  0  0
   -7.2483    4.1320   15.2723 C   0  0  1  0  0  0  0  0  0  0  0  0
   -8.1927    5.1823   15.4675 O   0  0  0  0  0  0  0  0  0  0  0  0
   -7.2638    3.6113   13.8459 C   0  0  1  0  0  0  0  0  0  0  0  0
   -7.5876    4.6699   12.9410 O   0  0  0  0  0  0  0  0  0  0  0  0
   -5.8408    3.1598   13.5741 C   0  0  2  0  0  0  0  0  0  0  0  0
   -9.7674    1.8257   19.8934 C   0  0  1  0  0  0  0  0  0  0  0  0
   -7.5170   -1.6357   12.0292 N   0  0  0  0  0  0  0  0  0  0  0  0
   -7.9388   -0.4075   11.6215 C   0  0  1  0  0  0  0  0  0  0  0  0
   -8.3049    1.6086   19.6262 C   0  0  2  0  0  0  0  0  0  0  0  0
   -8.9225   -0.3442   10.6947 N   0  0  0  0  0  0  0  0  0  0  0  0
   -7.6877    1.4035   20.8982 O   0  0  0  0  0  0  0  0  0  0  0  0
   -7.8384    2.8912   18.9667 C   0  0  2  0  0  0  0  0  0  0  0  0
   -7.4133    0.7549   12.1107 N   0  0  0  0  0  0  0  0  0  0  0  0
   -6.5337    3.2579   19.3945 O   0  0  0  0  0  0  0  0  0  0  0  0
   -6.4240    0.7451   13.0395 C   0  0  2  0  0  0  0  0  0  0  0  0
   -8.8422    3.9403   19.4028 C   0  0  2  0  0  0  0  0  0  0  0  0
  -10.0192    3.2253   19.7754 O   0  0  0  0  0  0  0  0  0  0  0  0
   -5.9327   -0.5589   13.5176 C   0  0  1  0  0  0  0  0  0  0  0  0
   -9.1794    4.9332   18.2960 C   0  0  0  0  0  0  0  0  0  0  0  0
   -9.7717    4.2300   17.2020 O   0  0  0  0  0  0  0  0  0  0  0  0
   -6.5385   -1.7777   12.9522 C   0  0  0  0  0  0  0  0  0  0  0  0
   -6.1265   -3.0063   13.3557 O   0  0  0  0  0  0  0  0  0  0  0  0
   -4.9779   -0.3076   14.4199 N   0  0  0  0  0  0  0  0  0  0  0  0
   -4.8604    1.0487   14.5202 C   0  0  0  0  0  0  0  0  0  0  0  0
   -5.7230    1.6826   13.6982 N   0  0  1  0  0  0  0  0  0  0  0  0
  -10.9353   -2.9630   18.1407 N   0  0  0  0  0  0  0  0  0  0  0  0
  -10.3524    3.6456   14.5354 O   0  5  0  0  0  0  0  0  0  0  0  0
  -10.0572   -2.5793   19.1074 C   0  0  2  0  0  0  0  0  0  0  0  0
   -9.3415   -3.5270   19.7676 N   0  0  0  0  0  0  0  0  0  0  0  0
  -10.7971    6.2762   15.6844 O   0  0  0  0  0  0  0  0  0  0  0  0
   -9.8722   -1.2717   19.4364 N   0  0  0  0  0  0  0  0  0  0  0  0
  -10.5606   -0.2831   18.8191 C   0  0  2  0  0  0  0  0  0  0  0  0
  -11.5210   -0.6347   17.7647 C   0  0  2  0  0  0  0  0  0  0  0  0
  -11.6741   -2.0707   17.4477 C   0  0  0  0  0  0  0  0  0  0  0  0
  -12.5347   -2.4910   16.4878 O   0  0  0  0  0  0  0  0  0  0  0  0
  -12.0471    0.5240   17.3209 N   0  0  0  0  0  0  0  0  0  0  0  0
  -11.4720    1.5353   18.0375 C   0  0  0  0  0  0  0  0  0  0  0  0
  -10.5817    1.0464   18.9304 N   0  0  1  0  0  0  0  0  0  0  0  0
  1  3  1  1  0  0  0
  1  4  2  0  0  0  0
  1  6  1  0  0  0  0
  1 22  1  0  0  0  0
  2 28  1  0  0  0  0
  2 35  1  6  0  0  0
  2 38  2  0  0  0  0
  2 10  1  0  0  0  0
  5  6  1  0  0  0  0
  7  5  1  1  0  0  0
  7  8  1  0  0  0  0
  7  9  1  0  0  0  0
  9 10  1  6  0  0  0
  9 11  1  0  0  0  0
 11 12  1  6  0  0  0
 11 13  1  0  0  0  0
 13  8  1  1  0  0  0
 13 33  1  0  0  0  0
 14 46  1  0  0  0  0
 14 17  1  0  0  0  0
 14 25  1  6  0  0  0
 15 16  1  0  0  0  0
 15 29  1  0  0  0  0
 16 18  1  1  0  0  0
 16 21  1  0  0  0  0
 17 19  1  1  0  0  0
 17 20  1  0  0  0  0
 20 22  1  1  0  0  0
 20 24  1  0  0  0  0
 23 21  1  1  0  0  0
 23 26  1  0  0  0  0
 23 33  1  0  0  0  0
 24 25  1  6  0  0  0
 24 27  1  0  0  0  0
 26 29  1  6  0  0  0
 26 31  1  0  0  0  0
 27 28  1  0  0  0  0
 29 30  2  0  0  0  0
 31 32  1  0  0  0  0
 33 32  1  6  0  0  0
 34 36  1  0  0  0  0
 34 42  1  0  0  0  0
 36 37  1  1  0  0  0
 36 39  1  0  0  0  0
 40 39  1  6  0  0  0
 40 41  1  0  0  0  0
 40 46  1  0  0  0  0
 41 42  1  6  0  0  0
 41 44  1  0  0  0  0
 42 43  2  0  0  0  0
 44 45  1  0  0  0  0
 46 45  1  1  0  0  0
M  CHG  2   3  -1  35  -1
M  END
>  <CHROM.1>
172.86162892,61.40305625,-8.06705335,1.69321309,16.48250956,-0.32043318,0.96442262
0.78038314

>  <Name>
ligand

>  <RI>
416

>  <Rbt.Current_Directory>
/home/itssahil/PROJECTS/Mol_Feturizer/Test_systems_manuscript/rnas/3mum

>  <Rbt.Executable>
rbdock ($Id: //depot/dev/client3/rdock/2013.1/src/exe/rbdock.cxx#4 $)

>  <Rbt.Library>
libRbt.so (2013.1, Build901 2013/11/27)

>  <Rbt.Parameter_File>
/export/apps/rDock/src/rDock_2013.1_src/data/scripts/dock_solv.prm

>  <Rbt.Receptor>
prm/pocket_docking_3.prm

>  <SCORE>
-39.3681

>  <SCORE.INTER>
-39.3675

>  <SCORE.INTER.CONST>
1

>  <SCORE.INTER.POLAR>
0

>  <SCORE.INTER.ROT>
2

>  <SCORE.INTER.SOLV>
40.4251

>  <SCORE.INTER.VDW>
-44.6534

>  <SCORE.INTER.norm>
-0.855816

>  <SCORE.INTRA>
-0.000518272

>  <SCORE.INTRA.DIHEDRAL>
-0.00417985

>  <SCORE.INTRA.DIHEDRAL.0>
2.40424

>  <SCORE.INTRA.POLAR>
0

>  <SCORE.INTRA.POLAR.0>
0

>  <SCORE.INTRA.REPUL>
0

>  <SCORE.INTRA.REPUL.0>
0

>  <SCORE.INTRA.SOLV>
0.003248

>  <SCORE.INTRA.SOLV.lig_0>
-134.169

>  <SCORE.INTRA.VDW>
-5.23467e-05

>  <SCORE.INTRA.VDW.0>
-2.18386

>  <SCORE.INTRA.norm>
-1.12668e-05

>  <SCORE.RESTR>
0

>  <SCORE.RESTR.CAVITY>
0

>  <SCORE.RESTR.norm>
0

>  <SCORE.SYSTEM>
0

>  <SCORE.SYSTEM.CONST>
0

>  <SCORE.SYSTEM.DIHEDRAL>
0

>  <SCORE.SYSTEM.SOLV>
0

>  <SCORE.SYSTEM.norm>
0

>  <SCORE.heavy>
46

>  <SCORE.norm>
-0.855827

>  <RMSD>
0.277

$$$$
ligand
 OpenBabel02271912143D
libRbt.so/2013.1/901 2013/11/27
 46 52  0  0  0  0  0  0  0  0999 V2000
   -5.3416    2.6909   18.7320 P   0  0  1  0  0  0  0  0  0  0  0  0
   -9.8591    4.8213   15.6127 P   0  0  2  0  0  0  0  0  0  0  0  0
   -5.4123    0.9205   18.7830 O   0  5  0  0  0  0  0  0  0  0  0  0
   -3.8810    3.3143   19.5427 O   0  0  0  0  0  0  0  0  0  0  0  0
   -5.4249    4.5384   16.8337 C   0  0  0  0  0  0  0  0  0  0  0  0
   -5.3653    3.1568   17.1887 O   0  0  0  0  0  0  0  0  0  0  0  0
   -5.9170    4.6495   15.4033 C   0  0  1  0  0  0  0  0  0  0  0  0
   -5.1031    3.8292   14.5531 O   0  0  0  0  0  0  0  0  0  0  0  0
   -7.3386    4.1449   15.2166 C   0  0  1  0  0  0  0  0  0  0  0  0
   -8.3028    5.1826   15.3803 O   0  0  0  0  0  0  0  0  0  0  0  0
   -7.3272    3.5978   13.8000 C   0  0  1  0  0  0  0  0  0  0  0  0
   -7.6570    4.6339   12.8715 O   0  0  0  0  0  0  0  0  0  0  0  0
   -5.8936    3.1655   13.5544 C   0  0  2  0  0  0  0  0  0  0  0  0
   -9.8778    1.8820   19.8481 C   0  0  1  0  0  0  0  0  0  0  0  0
   -7.4954   -1.6849   12.1052 N   0  0  0  0  0  0  0  0  0  0  0  0
   -7.9364   -0.4718   11.6737 C   0  0  1  0  0  0  0  0  0  0  0  0
   -8.4086    1.6847   19.6033 C   0  0  2  0  0  0  0  0  0  0  0  0
   -8.9213   -0.4420   10.7465 N   0  0  0  0  0  0  0  0  0  0  0  0
   -7.8043    1.5136   20.8864 O   0  0  0  0  0  0  0  0  0  0  0  0
   -7.9551    2.9627   18.9258 C   0  0  2  0  0  0  0  0  0  0  0  0
   -7.4289    0.7081   12.1396 N   0  0  0  0  0  0  0  0  0  0  0  0
   -6.6623    3.3592   19.3628 O   0  0  0  0  0  0  0  0  0  0  0  0
   -6.4393    0.7320   13.0679 C   0  0  2  0  0  0  0  0  0  0  0  0
   -8.9818    4.0025   19.3296 C   0  0  2  0  0  0  0  0  0  0  0  0
  -10.1513    3.2748   19.7008 O   0  0  0  0  0  0  0  0  0  0  0  0
   -5.9277   -0.5546   13.5712 C   0  0  1  0  0  0  0  0  0  0  0  0
   -9.3213    4.9690   18.2004 C   0  0  0  0  0  0  0  0  0  0  0  0
   -9.8878    4.2359   17.1125 O   0  0  0  0  0  0  0  0  0  0  0  0
   -6.5146   -1.7936   13.0303 C   0  0  0  0  0  0  0  0  0  0  0  0
   -6.0834   -3.0074   13.4576 O   0  0  0  0  0  0  0  0  0  0  0  0
   -4.9766   -0.2708   14.4678 N   0  0  0  0  0  0  0  0  0  0  0  0
   -4.8801    1.0890   14.5413 C   0  0  0  0  0  0  0  0  0  0  0  0
   -5.7528    1.6931   13.7075 N   0  0  1  0  0  0  0  0  0  0  0  0
  -10.8376   -2.9445   18.0727 N   0  0  0  0  0  0  0  0  0  0  0  0
  -10.4245    3.5926   14.4502 O   0  5  0  0  0  0  0  0  0  0  0  0
   -9.9659   -2.5260   19.0308 C   0  0  2  0  0  0  0  0  0  0  0  0
   -9.1966   -3.4428   19.6740 N   0  0  0  0  0  0  0  0  0  0  0  0
  -10.9276    6.2361   15.5443 O   0  0  0  0  0  0  0  0  0  0  0  0
   -9.8397   -1.2134   19.3677 N   0  0  0  0  0  0  0  0  0  0  0  0
  -10.5831   -0.2547   18.7675 C   0  0  2  0  0  0  0  0  0  0  0  0
  -11.5397   -0.6444   17.7231 C   0  0  2  0  0  0  0  0  0  0  0  0
  -11.6278   -2.0837   17.3967 C   0  0  0  0  0  0  0  0  0  0  0  0
  -12.4800   -2.5380   16.4449 O   0  0  0  0  0  0  0  0  0  0  0  0
  -12.1269    0.4908   17.2955 N   0  0  0  0  0  0  0  0  0  0  0  0
  -11.5914    1.5234   18.0126 C   0  0  0  0  0  0  0  0  0  0  0  0
  -10.6667    1.0714   18.8897 N   0  0  1  0  0  0  0  0  0  0  0  0
  1  3  1  1  0  0  0
  1  4  2  0  0  0  0
  1  6  1  0  0  0  0
  1 22  1  0  0  0  0
  2 28  1  0  0  0  0
  2 35  1  6  0  0  0
  2 38  2  0  0  0  0
  2 10  1  0  0  0  0
  5  6  1  0  0  0  0
  7  5  1  1  0  0  0
  7  8  1  0  0  0  0
  7  9  1  0  0  0  0
  9 10  1  6  0  0  0
  9 11  1  0  0  0  0
 11 12  1  6  0  0  0
 11 13  1  0  0  0  0
 13  8  1  1  0  0  0
 13 33  1  0  0  0  0
 14 46  1  0  0  0  0
 14 17  1  0  0  0  0
 14 25  1  6  0  0  0
 15 16  1  0  0  0  0
 15 29  1  0  0  0  0
 16 18  1  1  0  0  0
 16 21  1  0  0  0  0
 17 19  1  1  0  0  0
 17 20  1  0  0  0  0
 20 22  1  1  0  0  0
 20 24  1  0  0  0  0
 23 21  1  1  0  0  0
 23 26  1  0  0  0  0
 23 33  1  0  0  0  0
 24 25  1  6  0  0  0
 24 27  1  0  0  0  0
 26 29  1  6  0  0  0
 26 31  1  0  0  0  0
 27 28  1  0  0  0  0
 29 30  2  0  0  0  0
 31 32  1  0  0  0  0
 33 32  1  6  0  0  0
 34 36  1  0  0  0  0
 34 42  1  0  0  0  0
 36 37  1  1  0  0  0
 36 39  1  0  0  0  0
 40 39  1  6  0  0  0
 40 41  1  0  0  0  0
 40 46  1  0  0  0  0
 41 42  1  6  0  0  0
 41 44  1  0  0  0  0
 42 43  2  0  0  0  0
 44 45  1  0  0  0  0
 46 45  1  1  0  0  0
M  CHG  2   3  -1  35  -1
M  END
>  <CHROM.1>
172.10600201,58.62623571,-8.12322986,1.71680964,16.45389649,-0.30368886,0.96911515
0.72539852

>  <Name>
ligand

>  <RI>
-1

>  <Rbt.Current_Directory>
/home/itssahil/PROJECTS/Mol_Feturizer/Test_systems_manuscript/rnas/3mum

>  <Rbt.Executable>
rbdock ($Id: //depot/dev/client3/rdock/2013.1/src/exe/rbdock.cxx#4 $)

>  <Rbt.Library>
libRbt.so (2013.1, Build901 2013/11/27)

>  <Rbt.Parameter_File>
/export/apps/rDock/src/rDock_2013.1_src/data/scripts/dock_solv.prm

>  <Rbt.Receptor>
prm/pocket_docking_6.prm

>  <SCORE>
-39.5745

>  <SCORE.INTER>
-39.6149

>  <SCORE.INTER.CONST>
1

>  <SCORE.INTER.POLAR>
0

>  <SCORE.INTER.ROT>
2

>  <SCORE.INTER.SOLV>
39.9307

>  <SCORE.INTER.VDW>
-44.6535

>  <SCORE.INTER.norm>
-0.861194

>  <SCORE.INTRA>
0.0404096

>  <SCORE.INTRA.DIHEDRAL>
-0.00831605

>  <SCORE.INTRA.DIHEDRAL.0>
2.40424

>  <SCORE.INTRA.POLAR>
0

>  <SCORE.INTRA.POLAR.0>
0

>  <SCORE.INTRA.REPUL>
0

>  <SCORE.INTRA.REPUL.0>
0

>  <SCORE.INTRA.SOLV>
0.00768685

>  <SCORE.INTRA.SOLV.lig_0>
-134.169

>  <SCORE.INTRA.VDW>
0.0407242

>  <SCORE.INTRA.VDW.0>
-2.18386

>  <SCORE.INTRA.norm>
0.000878469

>  <SCORE.RESTR>
0

>  <SCORE.RESTR.CAVITY>
0

>  <SCORE.RESTR.norm>
0

>  <SCORE.SYSTEM>
0

>  <SCORE.SYSTEM.CONST>
0

>  <SCORE.SYSTEM.DIHEDRAL>
0

>  <SCORE.SYSTEM.SOLV>
0

>  <SCORE.SYSTEM.norm>
0

>  <SCORE.heavy>
46

>  <SCORE.norm>
-0.860315

>  <RMSD>
0.277

$$$$
ligand
 OpenBabel02271912143D
libRbt.so/2013.1/901 2013/11/27
 46 52  0  0  0  0  0  0  0  0999 V2000
   -5.3288    2.6423   18.7154 P   0  0  1  0  0  0  0  0  0  0  0  0
   -9.8512    4.8096   15.6288 P   0  0  2  0  0  0  0  0  0  0  0  0
   -5.4088    0.8722   18.7597 O   0  5  0  0  0  0  0  0  0  0  0  0
   -3.8607    3.2546   19.5209 O   0  0  0  0  0  0  0  0  0  0  0  0
   -5.4122    4.4979   16.8251 C   0  0  0  0  0  0  0  0  0  0  0  0
   -5.3582    3.1146   17.1742 O   0  0  0  0  0  0  0  0  0  0  0  0
   -5.9112    4.6174   15.3977 C   0  0  1  0  0  0  0  0  0  0  0  0
   -5.1062    3.7962   14.5400 O   0  0  0  0  0  0  0  0  0  0  0  0
   -7.3365    4.1213   15.2165 C   0  0  1  0  0  0  0  0  0  0  0  0
   -8.2942    5.1634   15.3895 O   0  0  0  0  0  0  0  0  0  0  0  0
   -7.3355    3.5799   13.7978 C   0  0  1  0  0  0  0  0  0  0  0  0
   -7.6646    4.6215   12.8752 O   0  0  0  0  0  0  0  0  0  0  0  0
   -5.9055    3.1408   13.5429 C   0  0  2  0  0  0  0  0  0  0  0  0
   -9.8634    1.8533   19.8523 C   0  0  1  0  0  0  0  0  0  0  0  0
   -7.5255   -1.6952   12.0661 N   0  0  0  0  0  0  0  0  0  0  0  0
   -7.9598   -0.4780   11.6392 C   0  0  1  0  0  0  0  0  0  0  0  0
   -8.3966    1.6491   19.5989 C   0  0  2  0  0  0  0  0  0  0  0  0
   -8.9420   -0.4393   10.7094 N   0  0  0  0  0  0  0  0  0  0  0  0
   -7.7865    1.4695   20.8782 O   0  0  0  0  0  0  0  0  0  0  0  0
   -7.9398    2.9274   18.9242 C   0  0  2  0  0  0  0  0  0  0  0  0
   -7.4482    0.6973   12.1121 N   0  0  0  0  0  0  0  0  0  0  0  0
   -6.6426    3.3151   19.3560 O   0  0  0  0  0  0  0  0  0  0  0  0
   -6.4610    0.7122   13.0432 C   0  0  2  0  0  0  0  0  0  0  0  0
   -8.9587    3.9711   19.3376 C   0  0  2  0  0  0  0  0  0  0  0  0
  -10.1302    3.2481   19.7121 O   0  0  0  0  0  0  0  0  0  0  0  0
   -5.9566   -0.5791   13.5417 C   0  0  1  0  0  0  0  0  0  0  0  0
   -9.2989    4.9439   18.2141 C   0  0  0  0  0  0  0  0  0  0  0  0
   -9.8751    4.2182   17.1263 O   0  0  0  0  0  0  0  0  0  0  0  0
   -6.5477   -1.8127   12.9932 C   0  0  0  0  0  0  0  0  0  0  0  0
   -6.1233   -3.0306   13.4159 O   0  0  0  0  0  0  0  0  0  0  0  0
   -5.0067   -0.3039   14.4422 N   0  0  0  0  0  0  0  0  0  0  0  0
   -4.9043    1.0550   14.5225 C   0  0  0  0  0  0  0  0  0  0  0  0
   -5.7718    1.6671   13.6892 N   0  0  1  0  0  0  0  0  0  0  0  0
  -10.9040   -2.9669   18.1057 N   0  0  0  0  0  0  0  0  0  0  0  0
  -10.4293    3.5887   14.4643 O   0  5  0  0  0  0  0  0  0  0  0  0
  -10.0303   -2.5581   19.0662 C   0  0  2  0  0  0  0  0  0  0  0  0
   -9.2826   -3.4846   19.7207 N   0  0  0  0  0  0  0  0  0  0  0  0
  -10.9124    6.2304   15.5717 O   0  0  0  0  0  0  0  0  0  0  0  0
   -9.8812   -1.2457   19.3944 N   0  0  0  0  0  0  0  0  0  0  0  0
  -10.6026   -0.2774   18.7827 C   0  0  2  0  0  0  0  0  0  0  0  0
  -11.5600   -0.6566   17.7352 C   0  0  2  0  0  0  0  0  0  0  0  0
  -11.6735   -2.0963   17.4185 C   0  0  0  0  0  0  0  0  0  0  0  0
  -12.5284   -2.5412   16.4647 O   0  0  0  0  0  0  0  0  0  0  0  0
  -12.1229    0.4864   17.2958 N   0  0  0  0  0  0  0  0  0  0  0  0
  -11.5723    1.5139   18.0087 C   0  0  0  0  0  0  0  0  0  0  0  0
  -10.6616    1.0508   18.8948 N   0  0  1  0  0  0  0  0  0  0  0  0
  1  3  1  1  0  0  0
  1  4  2  0  0  0  0
  1  6  1  0  0  0  0
  1 22  1  0  0  0  0
  2 28  1  0  0  0  0
  2 35  1  6  0  0  0
  2 38  2  0  0  0  0
  2 10  1  0  0  0  0
  5  6  1  0  0  0  0
  7  5  1  1  0  0  0
  7  8  1  0  0  0  0
  7  9  1  0  0  0  0
  9 10  1  6  0  0  0
  9 11  1  0  0  0  0
 11 12  1  6  0  0  0
 11 13  1  0  0  0  0
 13  8  1  1  0  0  0
 13 33  1  0  0  0  0
 14 46  1  0  0  0  0
 14 17  1  0  0  0  0
 14 25  1  6  0  0  0
 15 16  1  0  0  0  0
 15 29  1  0  0  0  0
 16 18  1  1  0  0  0
 16 21  1  0  0  0  0
 17 19  1  1  0  0  0
 17 20  1  0  0  0  0
 20 22  1  1  0  0  0
 20 24  1  0  0  0  0
 23 21  1  1  0  0  0
 23 26  1  0  0  0  0
 23 33  1  0  0  0  0
 24 25  1  6  0  0  0
 24 27  1  0  0  0  0
 26 29  1  6  0  0  0
 26 31  1  0  0  0  0
 27 28  1  0  0  0  0
 29 30  2  0  0  0  0
 31 32  1  0  0  0  0
 33 32  1  6  0  0  0
 34 36  1  0  0  0  0
 34 42  1  0  0  0  0
 36 37  1  1  0  0  0
 36 39  1  0  0  0  0
 40 39  1  6  0  0  0
 40 41  1  0  0  0  0
 40 46  1  0  0  0  0
 41 42  1  6  0  0  0
 41 44  1  0  0  0  0
 42 43  2  0  0  0  0
 44 45  1  0  0  0  0
 46 45  1  1  0  0  0
M  CHG  2   3  -1  35  -1
M  END
>  <CHROM.1>
172.56947739,59.83393541,-8.13093617,1.69172868,16.45114192,-0.31053821,0.96862063
0.74267456

>  <Name>
ligand

>  <RI>
-1

>  <Rbt.Current_Directory>
/home/itssahil/PROJECTS/Mol_Feturizer/Test_systems_manuscript/rnas/3mum

>  <Rbt.Executable>
rbdock ($Id: //depot/dev/client3/rdock/2013.1/src/exe/rbdock.cxx#4 $)

>  <Rbt.Library>
libRbt.so (2013.1, Build901 2013/11/27)

>  <Rbt.Parameter_File>
/export/apps/rDock/src/rDock_2013.1_src/data/scripts/dock_solv.prm

>  <Rbt.Receptor>
prm/pocket_docking_4.prm

>  <SCORE>
-39.5594

>  <SCORE.INTER>
-39.5804

>  <SCORE.INTER.CONST>
1

>  <SCORE.INTER.POLAR>
0

>  <SCORE.INTER.ROT>
2

>  <SCORE.INTER.SOLV>
40.3701

>  <SCORE.INTER.VDW>
-44.777

>  <SCORE.INTER.norm>
-0.860444

>  <SCORE.INTRA>
0.0210241

>  <SCORE.INTRA.DIHEDRAL>
-0.00649567

>  <SCORE.INTRA.DIHEDRAL.0>
2.40424

>  <SCORE.INTRA.POLAR>
0

>  <SCORE.INTRA.POLAR.0>
0

>  <SCORE.INTRA.REPUL>
0

>  <SCORE.INTRA.REPUL.0>
0

>  <SCORE.INTRA.SOLV>
0.00551561

>  <SCORE.INTRA.SOLV.lig_0>
-134.169

>  <SCORE.INTRA.VDW>
0.0215141

>  <SCORE.INTRA.VDW.0>
-2.18386

>  <SCORE.INTRA.norm>
0.000457046

>  <SCORE.RESTR>
0

>  <SCORE.RESTR.CAVITY>
0

>  <SCORE.RESTR.norm>
0

>  <SCORE.SYSTEM>
0

>  <SCORE.SYSTEM.CONST>
0

>  <SCORE.SYSTEM.DIHEDRAL>
0

>  <SCORE.SYSTEM.SOLV>
0

>  <SCORE.SYSTEM.norm>
0

>  <SCORE.heavy>
46

>  <SCORE.norm>
-0.859987

>  <RMSD>
0.278

$$$$
ligand
 OpenBabel02271912143D
libRbt.so/2013.1/901 2013/11/27
 46 52  0  0  0  0  0  0  0  0999 V2000
   -9.6607    4.8413   15.3709 P   0  0  1  0  0  0  0  0  0  0  0  0
   -5.2262    2.4863   18.4474 P   0  0  2  0  0  0  0  0  0  0  0  0
  -10.4389    3.6024   14.3703 O   0  5  0  0  0  0  0  0  0  0  0  0
  -10.4975    6.4107   15.2433 O   0  0  0  0  0  0  0  0  0  0  0  0
   -9.0017    5.0763   17.9271 C   0  0  0  0  0  0  0  0  0  0  0  0
   -9.6588    4.3325   16.9008 O   0  0  0  0  0  0  0  0  0  0  0  0
   -8.7472    4.1549   19.1048 C   0  0  1  0  0  0  0  0  0  0  0  0
   -9.9760    3.5236   19.4916 O   0  0  0  0  0  0  0  0  0  0  0  0
   -7.7896    3.0193   18.7826 C   0  0  1  0  0  0  0  0  0  0  0  0
   -6.4344    3.3639   19.0613 O   0  0  0  0  0  0  0  0  0  0  0  0
   -8.2830    1.8899   19.6698 C   0  0  1  0  0  0  0  0  0  0  0  0
   -7.6475    1.9576   20.9488 O   0  0  0  0  0  0  0  0  0  0  0  0
   -9.7670    2.1491   19.8517 C   0  0  2  0  0  0  0  0  0  0  0  0
   -5.9539    2.6867   13.3476 C   0  0  1  0  0  0  0  0  0  0  0  0
  -10.6416   -2.7170   17.9155 N   0  0  0  0  0  0  0  0  0  0  0  0
   -9.7022   -2.3065   18.8107 C   0  0  1  0  0  0  0  0  0  0  0  0
   -7.3560    3.1270   13.6600 C   0  0  2  0  0  0  0  0  0  0  0  0
   -8.8451   -3.2285   19.3066 N   0  0  0  0  0  0  0  0  0  0  0  0
   -7.7592    3.9823   12.5890 O   0  0  0  0  0  0  0  0  0  0  0  0
   -7.2423    3.8743   14.9739 C   0  0  2  0  0  0  0  0  0  0  0  0
   -9.5903   -1.0085   19.2225 N   0  0  0  0  0  0  0  0  0  0  0  0
   -8.1011    5.0059   15.0112 O   0  0  0  0  0  0  0  0  0  0  0  0
  -10.4267   -0.0468   18.7565 C   0  0  2  0  0  0  0  0  0  0  0  0
   -5.7944    4.3182   15.0450 C   0  0  2  0  0  0  0  0  0  0  0  0
   -5.0741    3.4457   14.1759 O   0  0  0  0  0  0  0  0  0  0  0  0
  -11.4604   -0.4374   17.7822 C   0  0  1  0  0  0  0  0  0  0  0  0
   -5.2153    4.2260   16.4523 C   0  0  0  0  0  0  0  0  0  0  0  0
   -5.2470    2.8635   16.8822 O   0  0  0  0  0  0  0  0  0  0  0  0
  -11.5317   -1.8526   17.3769 C   0  0  0  0  0  0  0  0  0  0  0  0
  -12.4628   -2.2699   16.4819 O   0  0  0  0  0  0  0  0  0  0  0  0
  -12.1432    0.6708   17.4745 N   0  0  0  0  0  0  0  0  0  0  0  0
  -11.5961    1.6969   18.1896 C   0  0  0  0  0  0  0  0  0  0  0  0
  -10.5693    1.2738   18.9566 N   0  0  1  0  0  0  0  0  0  0  0  0
   -7.4938   -2.0948   11.8867 N   0  0  0  0  0  0  0  0  0  0  0  0
   -5.5076    0.7398   18.6743 O   0  5  0  0  0  0  0  0  0  0  0  0
   -7.8714   -0.8756   11.4137 C   0  0  2  0  0  0  0  0  0  0  0  0
   -8.7785   -0.8074   10.4046 N   0  0  0  0  0  0  0  0  0  0  0  0
   -3.6367    2.9195   19.1060 O   0  0  0  0  0  0  0  0  0  0  0  0
   -7.3672    0.2826   11.9203 N   0  0  0  0  0  0  0  0  0  0  0  0
   -6.4559    0.2790   12.9211 C   0  0  2  0  0  0  0  0  0  0  0  0
   -6.0113   -1.0066   13.4753 C   0  0  2  0  0  0  0  0  0  0  0  0
   -6.5987   -2.2299   12.8882 C   0  0  0  0  0  0  0  0  0  0  0  0
   -6.2515   -3.4616   13.3364 O   0  0  0  0  0  0  0  0  0  0  0  0
   -5.1258   -0.7204   14.4502 N   0  0  0  0  0  0  0  0  0  0  0  0
   -5.0102    0.6397   14.5112 C   0  0  0  0  0  0  0  0  0  0  0  0
   -5.8103    1.2321   13.5958 N   0  0  1  0  0  0  0  0  0  0  0  0
  1  3  1  6  0  0  0
  1  4  2  0  0  0  0
  1  6  1  0  0  0  0
  1 22  1  0  0  0  0
  2 28  1  0  0  0  0
  2 35  1  1  0  0  0
  2 38  2  0  0  0  0
  2 10  1  0  0  0  0
  5  6  1  0  0  0  0
  7  5  1  6  0  0  0
  7  8  1  0  0  0  0
  7  9  1  0  0  0  0
  9 10  1  1  0  0  0
  9 11  1  0  0  0  0
 11 12  1  1  0  0  0
 11 13  1  0  0  0  0
 13  8  1  6  0  0  0
 13 33  1  0  0  0  0
 14 46  1  0  0  0  0
 14 17  1  0  0  0  0
 14 25  1  1  0  0  0
 15 16  1  0  0  0  0
 15 29  1  0  0  0  0
 16 18  1  6  0  0  0
 16 21  1  0  0  0  0
 17 19  1  6  0  0  0
 17 20  1  0  0  0  0
 20 22  1  6  0  0  0
 20 24  1  0  0  0  0
 23 21  1  6  0  0  0
 23 26  1  0  0  0  0
 23 33  1  0  0  0  0
 24 25  1  6  0  0  0
 24 27  1  0  0  0  0
 26 29  1  1  0  0  0
 26 31  1  0  0  0  0
 27 28  1  0  0  0  0
 29 30  2  0  0  0  0
 31 32  1  0  0  0  0
 33 32  1  1  0  0  0
 34 36  1  0  0  0  0
 34 42  1  0  0  0  0
 36 37  1  6  0  0  0
 36 39  1  0  0  0  0
 40 39  1  1  0  0  0
 40 41  1  0  0  0  0
 40 46  1  0  0  0  0
 41 42  1  1  0  0  0
 41 44  1  0  0  0  0
 42 43  2  0  0  0  0
 44 45  1  0  0  0  0
 46 45  1  6  0  0  0
M  CHG  2   3  -1  35  -1
M  END
>  <CHROM.1>
163.38150016,64.50443852,-8.02489327,1.61424584,16.28178164,-2.21864533,-0.97890135
-2.48521278

>  <Name>
ligand

>  <RI>
-1

>  <Rbt.Current_Directory>
/home/itssahil/PROJECTS/Mol_Feturizer/Test_systems_manuscript/rnas/3mum

>  <Rbt.Executable>
rbdock ($Id: //depot/dev/client3/rdock/2013.1/src/exe/rbdock.cxx#4 $)

>  <Rbt.Library>
libRbt.so (2013.1, Build901 2013/11/27)

>  <Rbt.Parameter_File>
/export/apps/rDock/src/rDock_2013.1_src/data/scripts/dock_solv.prm

>  <Rbt.Receptor>
prm/pocket_docking_4.prm

>  <SCORE>
-40.2852

>  <SCORE.INTER>
-40.286

>  <SCORE.INTER.CONST>
1

>  <SCORE.INTER.POLAR>
0

>  <SCORE.INTER.ROT>
2

>  <SCORE.INTER.SOLV>
39.6946

>  <SCORE.INTER.VDW>
-45.0222

>  <SCORE.INTER.norm>
-0.875782

>  <SCORE.INTRA>
0.000772209

>  <SCORE.INTRA.DIHEDRAL>
-0.0011863

>  <SCORE.INTRA.DIHEDRAL.0>
2.40424

>  <SCORE.INTRA.POLAR>
0

>  <SCORE.INTRA.POLAR.0>
0

>  <SCORE.INTRA.REPUL>
0

>  <SCORE.INTRA.REPUL.0>
0

>  <SCORE.INTRA.SOLV>
0.00346121

>  <SCORE.INTRA.SOLV.lig_0>
-134.169

>  <SCORE.INTRA.VDW>
-0.000365247

>  <SCORE.INTRA.VDW.0>
-2.18386

>  <SCORE.INTRA.norm>
1.67872e-05

>  <SCORE.RESTR>
0

>  <SCORE.RESTR.CAVITY>
0

>  <SCORE.RESTR.norm>
0

>  <SCORE.SYSTEM>
0

>  <SCORE.SYSTEM.CONST>
0

>  <SCORE.SYSTEM.DIHEDRAL>
0

>  <SCORE.SYSTEM.SOLV>
0

>  <SCORE.SYSTEM.norm>
0

>  <SCORE.heavy>
46

>  <SCORE.norm>
-0.875765

>  <RMSD>
0.280

$$$$
ligand
 OpenBabel02271912143D
libRbt.so/2013.1/901 2013/11/27
 46 52  0  0  0  0  0  0  0  0999 V2000
   -5.3890    2.5813   18.7128 P   0  0  1  0  0  0  0  0  0  0  0  0
   -9.8498    4.8375   15.6004 P   0  0  2  0  0  0  0  0  0  0  0  0
   -5.5252    0.8157   18.7883 O   0  5  0  0  0  0  0  0  0  0  0  0
   -3.8995    3.1604   19.5035 O   0  0  0  0  0  0  0  0  0  0  0  0
   -5.4192    4.4053   16.7904 C   0  0  0  0  0  0  0  0  0  0  0  0
   -5.4082    3.0272   17.1635 O   0  0  0  0  0  0  0  0  0  0  0  0
   -5.9187    4.5157   15.3624 C   0  0  1  0  0  0  0  0  0  0  0  0
   -5.1431    3.6544   14.5171 O   0  0  0  0  0  0  0  0  0  0  0  0
   -7.3597    4.0622   15.1937 C   0  0  1  0  0  0  0  0  0  0  0  0
   -8.2831    5.1372   15.3509 O   0  0  0  0  0  0  0  0  0  0  0  0
   -7.3804    3.4964   13.7847 C   0  0  1  0  0  0  0  0  0  0  0  0
   -7.6792    4.5317   12.8448 O   0  0  0  0  0  0  0  0  0  0  0  0
   -5.9660    3.0075   13.5338 C   0  0  2  0  0  0  0  0  0  0  0  0
   -9.9427    1.9574   19.8753 C   0  0  1  0  0  0  0  0  0  0  0  0
   -7.4163   -1.8147   11.8498 N   0  0  0  0  0  0  0  0  0  0  0  0
   -7.7617   -0.5943   11.3561 C   0  0  1  0  0  0  0  0  0  0  0  0
   -8.4840    1.7021   19.6216 C   0  0  2  0  0  0  0  0  0  0  0  0
   -8.5901   -0.5478   10.2873 N   0  0  0  0  0  0  0  0  0  0  0  0
   -7.8758    1.5255   20.9022 O   0  0  0  0  0  0  0  0  0  0  0  0
   -7.9888    2.9531   18.9234 C   0  0  2  0  0  0  0  0  0  0  0  0
   -7.3101    0.5767   11.8959 N   0  0  0  0  0  0  0  0  0  0  0  0
   -6.6786    3.3068   19.3449 O   0  0  0  0  0  0  0  0  0  0  0  0
   -6.4762    0.5838   12.9665 C   0  0  2  0  0  0  0  0  0  0  0  0
   -8.9726    4.0359   19.3211 C   0  0  2  0  0  0  0  0  0  0  0  0
  -10.1654    3.3573   19.7113 O   0  0  0  0  0  0  0  0  0  0  0  0
   -6.0736   -0.7112   13.5421 C   0  0  1  0  0  0  0  0  0  0  0  0
   -9.2853    4.9993   18.1816 C   0  0  0  0  0  0  0  0  0  0  0  0
   -9.8878    4.2735   17.1081 O   0  0  0  0  0  0  0  0  0  0  0  0
   -6.5931   -1.9399   12.9157 C   0  0  0  0  0  0  0  0  0  0  0  0
   -6.2568   -3.1609   13.4038 O   0  0  0  0  0  0  0  0  0  0  0  0
   -5.2678   -0.4436   14.5756 N   0  0  0  0  0  0  0  0  0  0  0  0
   -5.1579    0.9142   14.6643 C   0  0  0  0  0  0  0  0  0  0  0  0
   -5.8789    1.5330   13.7057 N   0  0  1  0  0  0  0  0  0  0  0  0
  -10.7381   -2.7755   17.7930 N   0  0  0  0  0  0  0  0  0  0  0  0
  -10.4703    3.6155   14.4591 O   0  5  0  0  0  0  0  0  0  0  0  0
   -9.8014   -2.3652   18.6915 C   0  0  2  0  0  0  0  0  0  0  0  0
   -8.9041   -3.2652   19.1721 N   0  0  0  0  0  0  0  0  0  0  0  0
  -10.8654    6.2902   15.5212 O   0  0  0  0  0  0  0  0  0  0  0  0
   -9.7343   -1.0774   19.1266 N   0  0  0  0  0  0  0  0  0  0  0  0
  -10.6043   -0.1371   18.6895 C   0  0  2  0  0  0  0  0  0  0  0  0
  -11.6365   -0.5188   17.7166 C   0  0  2  0  0  0  0  0  0  0  0  0
  -11.6555   -1.9303   17.2769 C   0  0  0  0  0  0  0  0  0  0  0  0
  -12.5697   -2.3750   16.3797 O   0  0  0  0  0  0  0  0  0  0  0  0
  -12.3458    0.5958   17.4502 N   0  0  0  0  0  0  0  0  0  0  0  0
  -11.8123    1.6082   18.1968 C   0  0  0  0  0  0  0  0  0  0  0  0
  -10.7692    1.1642   18.9341 N   0  0  1  0  0  0  0  0  0  0  0  0
  1  3  1  1  0  0  0
  1  4  2  0  0  0  0
  1  6  1  0  0  0  0
  1 22  1  0  0  0  0
  2 28  1  0  0  0  0
  2 35  1  6  0  0  0
  2 38  2  0  0  0  0
  2 10  1  0  0  0  0
  5  6  1  0  0  0  0
  7  5  1  1  0  0  0
  7  8  1  0  0  0  0
  7  9  1  0  0  0  0
  9 10  1  6  0  0  0
  9 11  1  0  0  0  0
 11 12  1  6  0  0  0
 11 13  1  0  0  0  0
 13  8  1  1  0  0  0
 13 33  1  0  0  0  0
 14 46  1  0  0  0  0
 14 17  1  0  0  0  0
 14 25  1  6  0  0  0
 15 16  1  0  0  0  0
 15 29  1  0  0  0  0
 16 18  1  1  0  0  0
 16 21  1  0  0  0  0
 17 19  1  1  0  0  0
 17 20  1  0  0  0  0
 20 22  1  1  0  0  0
 20 24  1  0  0  0  0
 23 21  1  1  0  0  0
 23 26  1  0  0  0  0
 23 33  1  0  0  0  0
 24 25  1  6  0  0  0
 24 27  1  0  0  0  0
 26 29  1  6  0  0  0
 26 31  1  0  0  0  0
 27 28  1  0  0  0  0
 29 30  2  0  0  0  0
 31 32  1  0  0  0  0
 33 32  1  6  0  0  0
 34 36  1  0  0  0  0
 34 42  1  0  0  0  0
 36 37  1  1  0  0  0
 36 39  1  0  0  0  0
 40 39  1  6  0  0  0
 40 41  1  0  0  0  0
 40 46  1  0  0  0  0
 41 42  1  6  0  0  0
 41 44  1  0  0  0  0
 42 43  2  0  0  0  0
 44 45  1  0  0  0  0
 46 45  1  1  0  0  0
M  CHG  2   3  -1  35  -1
M  END
>  <CHROM.1>
-178.42054126,48.47044155,-8.14752716,1.68838978,16.39455457,-2.31907089
-0.95765449,-2.43926086

>  <Name>
ligand

>  <RI>
416

>  <Rbt.Current_Directory>
/home/itssahil/PROJECTS/Mol_Feturizer/Test_systems_manuscript/rnas/3mum

>  <Rbt.Executable>
rbdock ($Id: //depot/dev/client3/rdock/2013.1/src/exe/rbdock.cxx#4 $)

>  <Rbt.Library>
libRbt.so (2013.1, Build901 2013/11/27)

>  <Rbt.Parameter_File>
/export/apps/rDock/src/rDock_2013.1_src/data/scripts/dock_solv.prm

>  <Rbt.Receptor>
prm/pocket_docking_3.prm

>  <SCORE>
-40.3356

>  <SCORE.INTER>
-40.4193

>  <SCORE.INTER.CONST>
1

>  <SCORE.INTER.POLAR>
0

>  <SCORE.INTER.ROT>
2

>  <SCORE.INTER.SOLV>
39.2853

>  <SCORE.INTER.VDW>
-44.9746

>  <SCORE.INTER.norm>
-0.878681

>  <SCORE.INTRA>
0.0837232

>  <SCORE.INTRA.DIHEDRAL>
-0.020123

>  <SCORE.INTRA.DIHEDRAL.0>
2.40424

>  <SCORE.INTRA.POLAR>
0

>  <SCORE.INTRA.POLAR.0>
0

>  <SCORE.INTRA.REPUL>
0

>  <SCORE.INTRA.REPUL.0>
0

>  <SCORE.INTRA.SOLV>
0.0184365

>  <SCORE.INTRA.SOLV.lig_0>
-134.169

>  <SCORE.INTRA.VDW>
0.0845665

>  <SCORE.INTRA.VDW.0>
-2.18386

>  <SCORE.INTRA.norm>
0.00182007

>  <SCORE.RESTR>
0

>  <SCORE.RESTR.CAVITY>
0

>  <SCORE.RESTR.norm>
0

>  <SCORE.SYSTEM>
0

>  <SCORE.SYSTEM.CONST>
0

>  <SCORE.SYSTEM.DIHEDRAL>
0

>  <SCORE.SYSTEM.SOLV>
0

>  <SCORE.SYSTEM.norm>
0

>  <SCORE.heavy>
46

>  <SCORE.norm>
-0.876861

>  <RMSD>
0.283

$$$$
ligand
 OpenBabel02271912143D
libRbt.so/2013.1/901 2013/11/27
 46 52  0  0  0  0  0  0  0  0999 V2000
   -9.7596    4.8989   15.6383 P   0  0  1  0  0  0  0  0  0  0  0  0
   -5.3651    2.3773   18.6393 P   0  0  2  0  0  0  0  0  0  0  0  0
  -10.5368    3.7120   14.5758 O   0  5  0  0  0  0  0  0  0  0  0  0
  -10.5858    6.4778   15.5760 O   0  0  0  0  0  0  0  0  0  0  0  0
   -9.1205    5.0125   18.2078 C   0  0  0  0  0  0  0  0  0  0  0  0
   -9.7734    4.3206   17.1432 O   0  0  0  0  0  0  0  0  0  0  0  0
   -8.8814    4.0365   19.3440 C   0  0  1  0  0  0  0  0  0  0  0  0
  -10.1171    3.3961   19.6916 O   0  0  0  0  0  0  0  0  0  0  0  0
   -7.9279    2.9108   18.9779 C   0  0  1  0  0  0  0  0  0  0  0  0
   -6.5730    3.2337   19.2830 O   0  0  0  0  0  0  0  0  0  0  0  0
   -8.4355    1.7451   19.8084 C   0  0  1  0  0  0  0  0  0  0  0  0
   -7.8102    1.7502   21.0943 O   0  0  0  0  0  0  0  0  0  0  0  0
   -9.9193    2.0052   19.9901 C   0  0  2  0  0  0  0  0  0  0  0  0
   -6.0490    2.8155   13.5484 C   0  0  1  0  0  0  0  0  0  0  0  0
  -10.7463   -2.7397   17.7553 N   0  0  0  0  0  0  0  0  0  0  0  0
   -9.8025   -2.3731   18.6648 C   0  0  1  0  0  0  0  0  0  0  0  0
   -7.4510    3.2500   13.8693 C   0  0  2  0  0  0  0  0  0  0  0  0
   -8.9264   -3.3119   19.0913 N   0  0  0  0  0  0  0  0  0  0  0  0
   -7.8401    4.1559   12.8354 O   0  0  0  0  0  0  0  0  0  0  0  0
   -7.3438    3.9356   15.2169 C   0  0  2  0  0  0  0  0  0  0  0  0
   -9.7045   -1.1026   19.1577 N   0  0  0  0  0  0  0  0  0  0  0  0
   -8.1960    5.0698   15.2991 O   0  0  0  0  0  0  0  0  0  0  0  0
  -10.5601   -0.1259   18.7635 C   0  0  2  0  0  0  0  0  0  0  0  0
   -5.8939    4.3666   15.3199 C   0  0  2  0  0  0  0  0  0  0  0  0
   -5.1716    3.5302   14.4176 O   0  0  0  0  0  0  0  0  0  0  0  0
  -11.5994   -0.4690   17.7774 C   0  0  1  0  0  0  0  0  0  0  0  0
   -5.3271    4.2064   16.7261 C   0  0  0  0  0  0  0  0  0  0  0  0
   -5.3705    2.8259   17.0929 O   0  0  0  0  0  0  0  0  0  0  0  0
  -11.6551   -1.8562   17.2829 C   0  0  0  0  0  0  0  0  0  0  0  0
  -12.5905   -2.2295   16.3731 O   0  0  0  0  0  0  0  0  0  0  0  0
  -12.3017    0.6462   17.5487 N   0  0  0  0  0  0  0  0  0  0  0  0
  -11.7611    1.6326   18.3222 C   0  0  0  0  0  0  0  0  0  0  0  0
  -10.7194    1.1769   19.0493 N   0  0  1  0  0  0  0  0  0  0  0  0
   -7.5452   -1.8852   11.8067 N   0  0  0  0  0  0  0  0  0  0  0  0
   -5.6588    0.6241   18.7837 O   0  5  0  0  0  0  0  0  0  0  0  0
   -7.9046   -0.6434   11.3805 C   0  0  2  0  0  0  0  0  0  0  0  0
   -8.7766   -0.5237   10.3455 N   0  0  0  0  0  0  0  0  0  0  0  0
   -3.7785    2.7699   19.3298 O   0  0  0  0  0  0  0  0  0  0  0  0
   -7.4163    0.4875   11.9594 N   0  0  0  0  0  0  0  0  0  0  0  0
   -6.5397    0.4328   12.9893 C   0  0  2  0  0  0  0  0  0  0  0  0
   -6.1163   -0.8795   13.4956 C   0  0  2  0  0  0  0  0  0  0  0  0
   -6.6852   -2.0712   12.8305 C   0  0  0  0  0  0  0  0  0  0  0  0
   -6.3554   -3.3241   13.2303 O   0  0  0  0  0  0  0  0  0  0  0  0
   -5.2643   -0.6434   14.5128 N   0  0  0  0  0  0  0  0  0  0  0  0
   -5.1488    0.7118   14.6433 C   0  0  0  0  0  0  0  0  0  0  0  0
   -5.9161    1.3502   13.7309 N   0  0  1  0  0  0  0  0  0  0  0  0
  1  3  1  6  0  0  0
  1  4  2  0  0  0  0
  1  6  1  0  0  0  0
  1 22  1  0  0  0  0
  2 28  1  0  0  0  0
  2 35  1  1  0  0  0
  2 38  2  0  0  0  0
  2 10  1  0  0  0  0
  5  6  1  0  0  0  0
  7  5  1  6  0  0  0
  7  8  1  0  0  0  0
  7  9  1  0  0  0  0
  9 10  1  1  0  0  0
  9 11  1  0  0  0  0
 11 12  1  1  0  0  0
 11 13  1  0  0  0  0
 13  8  1  6  0  0  0
 13 33  1  0  0  0  0
 14 46  1  0  0  0  0
 14 17  1  0  0  0  0
 14 25  1  1  0  0  0
 15 16  1  0  0  0  0
 15 29  1  0  0  0  0
 16 18  1  6  0  0  0
 16 21  1  0  0  0  0
 17 19  1  6  0  0  0
 17 20  1  0  0  0  0
 20 22  1  6  0  0  0
 20 24  1  0  0  0  0
 23 21  1  6  0  0  0
 23 26  1  0  0  0  0
 23 33  1  0  0  0  0
 24 25  1  6  0  0  0
 24 27  1  0  0  0  0
 26 29  1  1  0  0  0
 26 31  1  0  0  0  0
 27 28  1  0  0  0  0
 29 30  2  0  0  0  0
 31 32  1  0  0  0  0
 33 32  1  1  0  0  0
 34 36  1  0  0  0  0
 34 42  1  0  0  0  0
 36 37  1  6  0  0  0
 36 39  1  0  0  0  0
 40 39  1  1  0  0  0
 40 41  1  0  0  0  0
 40 46  1  0  0  0  0
 41 42  1  1  0  0  0
 41 44  1  0  0  0  0
 42 43  2  0  0  0  0
 44 45  1  0  0  0  0
 46 45  1  6  0  0  0
M  CHG  2   3  -1  35  -1
M  END
>  <CHROM.1>
161.43429164,66.01602049,-8.13763572,1.62540780,16.40034986,-2.19232888,-0.96879439
-2.44902225

>  <Name>
ligand

>  <RI>
-1

>  <Rbt.Current_Directory>
/home/itssahil/PROJECTS/Mol_Feturizer/Test_systems_manuscript/rnas/3mum

>  <Rbt.Executable>
rbdock ($Id: //depot/dev/client3/rdock/2013.1/src/exe/rbdock.cxx#4 $)

>  <Rbt.Library>
libRbt.so (2013.1, Build901 2013/11/27)

>  <Rbt.Parameter_File>
/export/apps/rDock/src/rDock_2013.1_src/data/scripts/dock_solv.prm

>  <Rbt.Receptor>
prm/pocket_docking_7.prm

>  <SCORE>
-40.4342

>  <SCORE.INTER>
-40.452

>  <SCORE.INTER.CONST>
1

>  <SCORE.INTER.POLAR>
0

>  <SCORE.INTER.ROT>
2

>  <SCORE.INTER.SOLV>
39.653

>  <SCORE.INTER.VDW>
-45.119

>  <SCORE.INTER.norm>
-0.879391

>  <SCORE.INTRA>
0.0177444

>  <SCORE.INTRA.DIHEDRAL>
0.000704274

>  <SCORE.INTRA.DIHEDRAL.0>
2.40424

>  <SCORE.INTRA.POLAR>
0

>  <SCORE.INTRA.POLAR.0>
0

>  <SCORE.INTRA.REPUL>
0

>  <SCORE.INTRA.REPUL.0>
0

>  <SCORE.INTRA.SOLV>
0.00231779

>  <SCORE.INTRA.SOLV.lig_0>
-134.169

>  <SCORE.INTRA.VDW>
0.0162333

>  <SCORE.INTRA.VDW.0>
-2.18386

>  <SCORE.INTRA.norm>
0.000385747

>  <SCORE.RESTR>
0

>  <SCORE.RESTR.CAVITY>
0

>  <SCORE.RESTR.norm>
0

>  <SCORE.SYSTEM>
0

>  <SCORE.SYSTEM.CONST>
0

>  <SCORE.SYSTEM.DIHEDRAL>
0

>  <SCORE.SYSTEM.SOLV>
0

>  <SCORE.SYSTEM.norm>
0

>  <SCORE.heavy>
46

>  <SCORE.norm>
-0.879005

>  <RMSD>
0.285

$$$$
ligand
 OpenBabel02271912143D
libRbt.so/2013.1/901 2013/11/27
 46 52  0  0  0  0  0  0  0  0999 V2000
   -5.3112    2.5967   18.7398 P   0  0  1  0  0  0  0  0  0  0  0  0
   -9.8089    4.8237   15.6598 P   0  0  2  0  0  0  0  0  0  0  0  0
   -5.4079    0.8272   18.7740 O   0  5  0  0  0  0  0  0  0  0  0  0
   -3.8383    3.1906   19.5506 O   0  0  0  0  0  0  0  0  0  0  0  0
   -5.3746    4.4636   16.8599 C   0  0  0  0  0  0  0  0  0  0  0  0
   -5.3340    3.0778   17.2012 O   0  0  0  0  0  0  0  0  0  0  0  0
   -5.8706    4.5958   15.4326 C   0  0  1  0  0  0  0  0  0  0  0  0
   -5.0723    3.7719   14.5712 O   0  0  0  0  0  0  0  0  0  0  0  0
   -7.3002    4.1141   15.2468 C   0  0  1  0  0  0  0  0  0  0  0  0
   -8.2483    5.1643   15.4244 O   0  0  0  0  0  0  0  0  0  0  0  0
   -7.3025    3.5807   13.8250 C   0  0  1  0  0  0  0  0  0  0  0  0
   -7.6206    4.6305   12.9079 O   0  0  0  0  0  0  0  0  0  0  0  0
   -5.8764    3.1296   13.5694 C   0  0  2  0  0  0  0  0  0  0  0  0
   -9.8544    1.8441   19.8666 C   0  0  1  0  0  0  0  0  0  0  0  0
   -7.5373   -1.6826   12.0608 N   0  0  0  0  0  0  0  0  0  0  0  0
   -7.9591   -0.4590   11.6398 C   0  0  1  0  0  0  0  0  0  0  0  0
   -8.3893    1.6275   19.6139 C   0  0  2  0  0  0  0  0  0  0  0  0
   -8.9385   -0.4059   10.7077 N   0  0  0  0  0  0  0  0  0  0  0  0
   -7.7825    1.4350   20.8929 O   0  0  0  0  0  0  0  0  0  0  0  0
   -7.9195    2.9052   18.9470 C   0  0  2  0  0  0  0  0  0  0  0  0
   -7.4379    0.7088   12.1207 N   0  0  0  0  0  0  0  0  0  0  0  0
   -6.6193    3.2783   19.3825 O   0  0  0  0  0  0  0  0  0  0  0  0
   -6.4531    0.7092   13.0544 C   0  0  2  0  0  0  0  0  0  0  0  0
   -8.9291    3.9561   19.3650 C   0  0  2  0  0  0  0  0  0  0  0  0
  -10.1079    3.2421   19.7339 O   0  0  0  0  0  0  0  0  0  0  0  0
   -5.9620   -0.5896   13.5468 C   0  0  1  0  0  0  0  0  0  0  0  0
   -9.2587    4.9384   18.2465 C   0  0  0  0  0  0  0  0  0  0  0  0
   -9.8403    4.2243   17.1539 O   0  0  0  0  0  0  0  0  0  0  0  0
   -6.5631   -1.8145   12.9898 C   0  0  0  0  0  0  0  0  0  0  0  0
   -6.1511   -3.0387   13.4066 O   0  0  0  0  0  0  0  0  0  0  0  0
   -5.0119   -0.3284   14.4513 N   0  0  0  0  0  0  0  0  0  0  0  0
   -4.8971    1.0290   14.5397 C   0  0  0  0  0  0  0  0  0  0  0  0
   -5.7568    1.6539   13.7077 N   0  0  1  0  0  0  0  0  0  0  0  0
  -10.9438   -2.9569   18.0971 N   0  0  0  0  0  0  0  0  0  0  0  0
  -10.3970    3.6149   14.4877 O   0  5  0  0  0  0  0  0  0  0  0  0
  -10.0683   -2.5618   19.0616 C   0  0  2  0  0  0  0  0  0  0  0  0
   -9.3327   -3.4994   19.7142 N   0  0  0  0  0  0  0  0  0  0  0  0
  -10.8566    6.2548   15.6093 O   0  0  0  0  0  0  0  0  0  0  0  0
   -9.9055   -1.2526   19.3957 N   0  0  0  0  0  0  0  0  0  0  0  0
  -10.6143   -0.2738   18.7861 C   0  0  2  0  0  0  0  0  0  0  0  0
  -11.5731   -0.6379   17.7345 C   0  0  2  0  0  0  0  0  0  0  0  0
  -11.7017   -2.0750   17.4115 C   0  0  0  0  0  0  0  0  0  0  0  0
  -12.5589   -2.5063   16.4536 O   0  0  0  0  0  0  0  0  0  0  0  0
  -12.1220    0.5131   17.2983 N   0  0  0  0  0  0  0  0  0  0  0  0
  -11.5619    1.5314   18.0170 C   0  0  0  0  0  0  0  0  0  0  0  0
  -10.6589    1.0546   18.9036 N   0  0  1  0  0  0  0  0  0  0  0  0
  1  3  1  1  0  0  0
  1  4  2  0  0  0  0
  1  6  1  0  0  0  0
  1 22  1  0  0  0  0
  2 28  1  0  0  0  0
  2 35  1  6  0  0  0
  2 38  2  0  0  0  0
  2 10  1  0  0  0  0
  5  6  1  0  0  0  0
  7  5  1  1  0  0  0
  7  8  1  0  0  0  0
  7  9  1  0  0  0  0
  9 10  1  6  0  0  0
  9 11  1  0  0  0  0
 11 12  1  6  0  0  0
 11 13  1  0  0  0  0
 13  8  1  1  0  0  0
 13 33  1  0  0  0  0
 14 46  1  0  0  0  0
 14 17  1  0  0  0  0
 14 25  1  6  0  0  0
 15 16  1  0  0  0  0
 15 29  1  0  0  0  0
 16 18  1  1  0  0  0
 16 21  1  0  0  0  0
 17 19  1  1  0  0  0
 17 20  1  0  0  0  0
 20 22  1  1  0  0  0
 20 24  1  0  0  0  0
 23 21  1  1  0  0  0
 23 26  1  0  0  0  0
 23 33  1  0  0  0  0
 24 25  1  6  0  0  0
 24 27  1  0  0  0  0
 26 29  1  6  0  0  0
 26 31  1  0  0  0  0
 27 28  1  0  0  0  0
 29 30  2  0  0  0  0
 31 32  1  0  0  0  0
 33 32  1  6  0  0  0
 34 36  1  0  0  0  0
 34 42  1  0  0  0  0
 36 37  1  1  0  0  0
 36 39  1  0  0  0  0
 40 39  1  6  0  0  0
 40 41  1  0  0  0  0
 40 46  1  0  0  0  0
 41 42  1  6  0  0  0
 41 44  1  0  0  0  0
 42 43  2  0  0  0  0
 44 45  1  0  0  0  0
 46 45  1  1  0  0  0
M  CHG  2   3  -1  35  -1
M  END
>  <CHROM.1>
172.64619434,59.98606906,-8.11947542,1.68520070,16.46705698,-0.32096586,0.96116271
0.75721245

>  <Name>
ligand

>  <RI>
-1

>  <Rbt.Current_Directory>
/home/itssahil/PROJECTS/Mol_Feturizer/Test_systems_manuscript/rnas/3mum

>  <Rbt.Executable>
rbdock ($Id: //depot/dev/client3/rdock/2013.1/src/exe/rbdock.cxx#4 $)

>  <Rbt.Library>
libRbt.so (2013.1, Build901 2013/11/27)

>  <Rbt.Parameter_File>
/export/apps/rDock/src/rDock_2013.1_src/data/scripts/dock_solv.prm

>  <Rbt.Receptor>
prm/pocket_docking_4.prm

>  <SCORE>
-39.5324

>  <SCORE.INTER>
-39.5509

>  <SCORE.INTER.CONST>
1

>  <SCORE.INTER.POLAR>
0

>  <SCORE.INTER.ROT>
2

>  <SCORE.INTER.SOLV>
40.3785

>  <SCORE.INTER.VDW>
-44.7601

>  <SCORE.INTER.norm>
-0.859803

>  <SCORE.INTRA>
0.0185234

>  <SCORE.INTRA.DIHEDRAL>
-0.00626269

>  <SCORE.INTRA.DIHEDRAL.0>
2.40424

>  <SCORE.INTRA.POLAR>
0

>  <SCORE.INTRA.POLAR.0>
0

>  <SCORE.INTRA.REPUL>
0

>  <SCORE.INTRA.REPUL.0>
0

>  <SCORE.INTRA.SOLV>
0.00527615

>  <SCORE.INTRA.SOLV.lig_0>
-134.169

>  <SCORE.INTRA.VDW>
0.0190167

>  <SCORE.INTRA.VDW.0>
-2.18386

>  <SCORE.INTRA.norm>
0.000402682

>  <SCORE.RESTR>
0

>  <SCORE.RESTR.CAVITY>
0

>  <SCORE.RESTR.norm>
0

>  <SCORE.SYSTEM>
0

>  <SCORE.SYSTEM.CONST>
0

>  <SCORE.SYSTEM.DIHEDRAL>
0

>  <SCORE.SYSTEM.SOLV>
0

>  <SCORE.SYSTEM.norm>
0

>  <SCORE.heavy>
46

>  <SCORE.norm>
-0.8594

>  <RMSD>
0.287

$$$$
ligand
 OpenBabel02271912143D
libRbt.so/2013.1/901 2013/11/27
 46 52  0  0  0  0  0  0  0  0999 V2000
   -5.3987    2.6082   18.7845 P   0  0  1  0  0  0  0  0  0  0  0  0
   -9.8990    4.8068   15.6877 P   0  0  2  0  0  0  0  0  0  0  0  0
   -5.4954    0.8390   18.8351 O   0  5  0  0  0  0  0  0  0  0  0  0
   -3.9252    3.2095   19.5885 O   0  0  0  0  0  0  0  0  0  0  0  0
   -5.4637    4.4576   16.8874 C   0  0  0  0  0  0  0  0  0  0  0  0
   -5.4229    3.0751   17.2415 O   0  0  0  0  0  0  0  0  0  0  0  0
   -5.9609    4.5767   15.4594 C   0  0  1  0  0  0  0  0  0  0  0  0
   -5.1633    3.7449   14.6050 O   0  0  0  0  0  0  0  0  0  0  0  0
   -7.3907    4.0934   15.2793 C   0  0  1  0  0  0  0  0  0  0  0  0
   -8.3386    5.1451   15.4480 O   0  0  0  0  0  0  0  0  0  0  0  0
   -7.3941    3.5469   13.8624 C   0  0  1  0  0  0  0  0  0  0  0  0
   -7.7130    4.5882   12.9360 O   0  0  0  0  0  0  0  0  0  0  0  0
   -5.9683    3.0934   13.6098 C   0  0  2  0  0  0  0  0  0  0  0  0
   -9.9410    1.8661   19.9219 C   0  0  1  0  0  0  0  0  0  0  0  0
   -7.5354   -1.7345   12.0519 N   0  0  0  0  0  0  0  0  0  0  0  0
   -7.9427   -0.5152   11.6050 C   0  0  1  0  0  0  0  0  0  0  0  0
   -8.4762    1.6472   19.6700 C   0  0  2  0  0  0  0  0  0  0  0  0
   -8.8778   -0.4716   10.6281 N   0  0  0  0  0  0  0  0  0  0  0  0
   -7.8683    1.4665   20.9502 O   0  0  0  0  0  0  0  0  0  0  0  0
   -8.0069    2.9186   18.9909 C   0  0  2  0  0  0  0  0  0  0  0  0
   -7.4497    0.6576   12.1033 N   0  0  0  0  0  0  0  0  0  0  0  0
   -6.7064    3.2957   19.4219 O   0  0  0  0  0  0  0  0  0  0  0  0
   -6.5094    0.6676   13.0818 C   0  0  2  0  0  0  0  0  0  0  0  0
   -9.0162    3.9734   19.4001 C   0  0  2  0  0  0  0  0  0  0  0  0
  -10.1946    3.2628   19.7766 O   0  0  0  0  0  0  0  0  0  0  0  0
   -6.0360   -0.6262   13.6036 C   0  0  1  0  0  0  0  0  0  0  0  0
   -9.3467    4.9453   18.2729 C   0  0  0  0  0  0  0  0  0  0  0  0
   -9.9292    4.2212   17.1873 O   0  0  0  0  0  0  0  0  0  0  0  0
   -6.6049   -1.8569   13.0259 C   0  0  0  0  0  0  0  0  0  0  0  0
   -6.2072   -3.0769   13.4681 O   0  0  0  0  0  0  0  0  0  0  0  0
   -5.1302   -0.3557   14.5499 N   0  0  0  0  0  0  0  0  0  0  0  0
   -5.0258    1.0027   14.6361 C   0  0  0  0  0  0  0  0  0  0  0  0
   -5.8486    1.6190   13.7616 N   0  0  1  0  0  0  0  0  0  0  0  0
  -10.6559   -2.8662   17.8096 N   0  0  0  0  0  0  0  0  0  0  0  0
  -10.4881    3.5873   14.5274 O   0  5  0  0  0  0  0  0  0  0  0  0
   -9.7355   -2.4494   18.7217 C   0  0  2  0  0  0  0  0  0  0  0  0
   -8.8343   -3.3412   19.2099 N   0  0  0  0  0  0  0  0  0  0  0  0
  -10.9467    6.2374   15.6250 O   0  0  0  0  0  0  0  0  0  0  0  0
   -9.6886   -1.1628   19.1631 N   0  0  0  0  0  0  0  0  0  0  0  0
  -10.5636   -0.2305   18.7189 C   0  0  2  0  0  0  0  0  0  0  0  0
  -11.5789   -0.6196   17.7313 C   0  0  2  0  0  0  0  0  0  0  0  0
  -11.5763   -2.0293   17.2854 C   0  0  0  0  0  0  0  0  0  0  0  0
  -12.4739   -2.4803   16.3746 O   0  0  0  0  0  0  0  0  0  0  0  0
  -12.2974    0.4881   17.4606 N   0  0  0  0  0  0  0  0  0  0  0  0
  -11.7850    1.5032   18.2182 C   0  0  0  0  0  0  0  0  0  0  0  0
  -10.7464    1.0678   18.9669 N   0  0  1  0  0  0  0  0  0  0  0  0
  1  3  1  1  0  0  0
  1  4  2  0  0  0  0
  1  6  1  0  0  0  0
  1 22  1  0  0  0  0
  2 28  1  0  0  0  0
  2 35  1  6  0  0  0
  2 38  2  0  0  0  0
  2 10  1  0  0  0  0
  5  6  1  0  0  0  0
  7  5  1  1  0  0  0
  7  8  1  0  0  0  0
  7  9  1  0  0  0  0
  9 10  1  6  0  0  0
  9 11  1  0  0  0  0
 11 12  1  6  0  0  0
 11 13  1  0  0  0  0
 13  8  1  1  0  0  0
 13 33  1  0  0  0  0
 14 46  1  0  0  0  0
 14 17  1  0  0  0  0
 14 25  1  6  0  0  0
 15 16  1  0  0  0  0
 15 29  1  0  0  0  0
 16 18  1  1  0  0  0
 16 21  1  0  0  0  0
 17 19  1  1  0  0  0
 17 20  1  0  0  0  0
 20 22  1  1  0  0  0
 20 24  1  0  0  0  0
 23 21  1  1  0  0  0
 23 26  1  0  0  0  0
 23 33  1  0  0  0  0
 24 25  1  6  0  0  0
 24 27  1  0  0  0  0
 26 29  1  6  0  0  0
 26 31  1  0  0  0  0
 27 28  1  0  0  0  0
 29 30  2  0  0  0  0
 31 32  1  0  0  0  0
 33 32  1  6  0  0  0
 34 36  1  0  0  0  0
 34 42  1  0  0  0  0
 36 37  1  1  0  0  0
 36 39  1  0  0  0  0
 40 39  1  6  0  0  0
 40 41  1  0  0  0  0
 40 46  1  0  0  0  0
 41 42  1  6  0  0  0
 41 44  1  0  0  0  0
 42 43  2  0  0  0  0
 44 45  1  0  0  0  0
 46 45  1  1  0  0  0
M  CHG  2   3  -1  35  -1
M  END
>  <CHROM.1>
175.38408560,49.46708310,-8.15748012,1.68481526,16.46979869,-2.39943426,-0.96652933
-2.42643403

>  <Name>
ligand

>  <RI>
-1

>  <Rbt.Current_Directory>
/home/itssahil/PROJECTS/Mol_Feturizer/Test_systems_manuscript/rnas/3mum

>  <Rbt.Executable>
rbdock ($Id: //depot/dev/client3/rdock/2013.1/src/exe/rbdock.cxx#4 $)

>  <Rbt.Library>
libRbt.so (2013.1, Build901 2013/11/27)

>  <Rbt.Parameter_File>
/export/apps/rDock/src/rDock_2013.1_src/data/scripts/dock_solv.prm

>  <Rbt.Receptor>
prm/pocket_docking_4.prm

>  <SCORE>
-39.9882

>  <SCORE.INTER>
-40.1138

>  <SCORE.INTER.CONST>
1

>  <SCORE.INTER.POLAR>
0

>  <SCORE.INTER.ROT>
2

>  <SCORE.INTER.SOLV>
39.5267

>  <SCORE.INTER.VDW>
-44.8514

>  <SCORE.INTER.norm>
-0.872038

>  <SCORE.INTRA>
0.125556

>  <SCORE.INTRA.DIHEDRAL>
-0.0200996

>  <SCORE.INTRA.DIHEDRAL.0>
2.40424

>  <SCORE.INTRA.POLAR>
0

>  <SCORE.INTRA.POLAR.0>
0

>  <SCORE.INTRA.REPUL>
0

>  <SCORE.INTRA.REPUL.0>
0

>  <SCORE.INTRA.SOLV>
0.0196889

>  <SCORE.INTRA.SOLV.lig_0>
-134.169

>  <SCORE.INTRA.VDW>
0.125762

>  <SCORE.INTRA.VDW.0>
-2.18386

>  <SCORE.INTRA.norm>
0.00272948

>  <SCORE.RESTR>
0

>  <SCORE.RESTR.CAVITY>
0

>  <SCORE.RESTR.norm>
0

>  <SCORE.SYSTEM>
0

>  <SCORE.SYSTEM.CONST>
0

>  <SCORE.SYSTEM.DIHEDRAL>
0

>  <SCORE.SYSTEM.SOLV>
0

>  <SCORE.SYSTEM.norm>
0

>  <SCORE.heavy>
46

>  <SCORE.norm>
-0.869309

>  <RMSD>
0.305

$$$$
ligand
 OpenBabel02271912143D
libRbt.so/2013.1/901 2013/11/27
 46 52  0  0  0  0  0  0  0  0999 V2000
   -9.7023    4.8121   15.3508 P   0  0  1  0  0  0  0  0  0  0  0  0
   -5.2540    2.4916   18.4335 P   0  0  2  0  0  0  0  0  0  0  0  0
  -10.4778    3.5643   14.3592 O   0  5  0  0  0  0  0  0  0  0  0  0
  -10.5449    6.3777   15.2152 O   0  0  0  0  0  0  0  0  0  0  0  0
   -9.0396    5.0649   17.9043 C   0  0  0  0  0  0  0  0  0  0  0  0
   -9.6959    4.3125   16.8837 O   0  0  0  0  0  0  0  0  0  0  0  0
   -8.7797    4.1516   19.0871 C   0  0  1  0  0  0  0  0  0  0  0  0
  -10.0056    3.5183   19.4799 O   0  0  0  0  0  0  0  0  0  0  0  0
   -7.8186    3.0175   18.7701 C   0  0  1  0  0  0  0  0  0  0  0  0
   -6.4642    3.3686   19.0443 O   0  0  0  0  0  0  0  0  0  0  0  0
   -8.3064    1.8917   19.6650 C   0  0  1  0  0  0  0  0  0  0  0  0
   -7.6688    1.9695   20.9424 O   0  0  0  0  0  0  0  0  0  0  0  0
   -9.7910    2.1468   19.8480 C   0  0  2  0  0  0  0  0  0  0  0  0
   -5.9915    2.6584   13.3339 C   0  0  1  0  0  0  0  0  0  0  0  0
  -10.5801   -2.7114   17.8559 N   0  0  0  0  0  0  0  0  0  0  0  0
   -9.6294   -2.2884   18.7333 C   0  0  1  0  0  0  0  0  0  0  0  0
   -7.3945    3.0956   13.6462 C   0  0  2  0  0  0  0  0  0  0  0  0
   -8.7343   -3.1935   19.1918 N   0  0  0  0  0  0  0  0  0  0  0  0
   -7.8027    3.9429   12.5708 O   0  0  0  0  0  0  0  0  0  0  0  0
   -7.2812    3.8513   14.9553 C   0  0  2  0  0  0  0  0  0  0  0  0
   -9.5429   -0.9944   19.1631 N   0  0  0  0  0  0  0  0  0  0  0  0
   -8.1440    4.9800   14.9873 O   0  0  0  0  0  0  0  0  0  0  0  0
  -10.4177   -0.0496   18.7345 C   0  0  2  0  0  0  0  0  0  0  0  0
   -5.8348    4.3007   15.0211 C   0  0  2  0  0  0  0  0  0  0  0  0
   -5.1129    3.4256   14.1560 O   0  0  0  0  0  0  0  0  0  0  0  0
  -11.4653   -0.4541   17.7809 C   0  0  1  0  0  0  0  0  0  0  0  0
   -5.2528    4.2191   16.4279 C   0  0  0  0  0  0  0  0  0  0  0  0
   -5.2788    2.8592   16.8661 O   0  0  0  0  0  0  0  0  0  0  0  0
  -11.5077   -1.8642   17.3545 C   0  0  0  0  0  0  0  0  0  0  0  0
  -12.4499   -2.2937   16.4771 O   0  0  0  0  0  0  0  0  0  0  0  0
  -12.1865    0.6391   17.5089 N   0  0  0  0  0  0  0  0  0  0  0  0
  -11.6496    1.6690   18.2263 C   0  0  0  0  0  0  0  0  0  0  0  0
  -10.5917    1.2631   18.9597 N   0  0  1  0  0  0  0  0  0  0  0  0
   -7.4456   -2.1409   11.8437 N   0  0  0  0  0  0  0  0  0  0  0  0
   -5.5287    0.7455   18.6715 O   0  5  0  0  0  0  0  0  0  0  0  0
   -7.8201   -0.9264   11.3562 C   0  0  2  0  0  0  0  0  0  0  0  0
   -8.6981   -0.8692   10.3209 N   0  0  0  0  0  0  0  0  0  0  0  0
   -3.6648    2.9345   19.0866 O   0  0  0  0  0  0  0  0  0  0  0  0
   -7.3412    0.2377   11.8736 N   0  0  0  0  0  0  0  0  0  0  0  0
   -6.4593    0.2451   12.9005 C   0  0  2  0  0  0  0  0  0  0  0  0
   -6.0196   -1.0349   13.4713 C   0  0  2  0  0  0  0  0  0  0  0  0
   -6.5789   -2.2650   12.8712 C   0  0  0  0  0  0  0  0  0  0  0  0
   -6.2338   -3.4923   13.3330 O   0  0  0  0  0  0  0  0  0  0  0  0
   -5.1654   -0.7380   14.4706 N   0  0  0  0  0  0  0  0  0  0  0  0
   -5.0638    0.6233   14.5308 C   0  0  0  0  0  0  0  0  0  0  0  0
   -5.8421    1.2059   13.5907 N   0  0  1  0  0  0  0  0  0  0  0  0
  1  3  1  6  0  0  0
  1  4  2  0  0  0  0
  1  6  1  0  0  0  0
  1 22  1  0  0  0  0
  2 28  1  0  0  0  0
  2 35  1  1  0  0  0
  2 38  2  0  0  0  0
  2 10  1  0  0  0  0
  5  6  1  0  0  0  0
  7  5  1  6  0  0  0
  7  8  1  0  0  0  0
  7  9  1  0  0  0  0
  9 10  1  1  0  0  0
  9 11  1  0  0  0  0
 11 12  1  1  0  0  0
 11 13  1  0  0  0  0
 13  8  1  6  0  0  0
 13 33  1  0  0  0  0
 14 46  1  0  0  0  0
 14 17  1  0  0  0  0
 14 25  1  1  0  0  0
 15 16  1  0  0  0  0
 15 29  1  0  0  0  0
 16 18  1  6  0  0  0
 16 21  1  0  0  0  0
 17 19  1  6  0  0  0
 17 20  1  0  0  0  0
 20 22  1  6  0  0  0
 20 24  1  0  0  0  0
 23 21  1  6  0  0  0
 23 26  1  0  0  0  0
 23 33  1  0  0  0  0
 24 25  1  6  0  0  0
 24 27  1  0  0  0  0
 26 29  1  1  0  0  0
 26 31  1  0  0  0  0
 27 28  1  0  0  0  0
 29 30  2  0  0  0  0
 31 32  1  0  0  0  0
 33 32  1  1  0  0  0
 34 36  1  0  0  0  0
 34 42  1  0  0  0  0
 36 37  1  6  0  0  0
 36 39  1  0  0  0  0
 40 39  1  1  0  0  0
 40 41  1  0  0  0  0
 40 46  1  0  0  0  0
 41 42  1  1  0  0  0
 41 44  1  0  0  0  0
 42 43  2  0  0  0  0
 44 45  1  0  0  0  0
 46 45  1  6  0  0  0
M  CHG  2   3  -1  35  -1
M  END
>  <CHROM.1>
161.04216395,66.30798348,-8.03780359,1.59851752,16.26219899,-2.19067054,-0.98258528
-2.50499565

>  <Name>
ligand

>  <RI>
416

>  <Rbt.Current_Directory>
/home/itssahil/PROJECTS/Mol_Feturizer/Test_systems_manuscript/rnas/3mum

>  <Rbt.Executable>
rbdock ($Id: //depot/dev/client3/rdock/2013.1/src/exe/rbdock.cxx#4 $)

>  <Rbt.Library>
libRbt.so (2013.1, Build901 2013/11/27)

>  <Rbt.Parameter_File>
/export/apps/rDock/src/rDock_2013.1_src/data/scripts/dock_solv.prm

>  <Rbt.Receptor>
prm/pocket_docking_3.prm

>  <SCORE>
-40.3635

>  <SCORE.INTER>
-40.3814

>  <SCORE.INTER.CONST>
1

>  <SCORE.INTER.POLAR>
0

>  <SCORE.INTER.ROT>
2

>  <SCORE.INTER.SOLV>
39.8733

>  <SCORE.INTER.VDW>
-45.1454

>  <SCORE.INTER.norm>
-0.877857

>  <SCORE.INTRA>
0.0179021

>  <SCORE.INTRA.DIHEDRAL>
0.00106598

>  <SCORE.INTRA.DIHEDRAL.0>
2.40424

>  <SCORE.INTRA.POLAR>
0

>  <SCORE.INTRA.POLAR.0>
0

>  <SCORE.INTRA.REPUL>
0

>  <SCORE.INTRA.REPUL.0>
0

>  <SCORE.INTRA.SOLV>
0.00209854

>  <SCORE.INTRA.SOLV.lig_0>
-134.169

>  <SCORE.INTRA.VDW>
0.0163198

>  <SCORE.INTRA.VDW.0>
-2.18386

>  <SCORE.INTRA.norm>
0.000389175

>  <SCORE.RESTR>
0

>  <SCORE.RESTR.CAVITY>
0

>  <SCORE.RESTR.norm>
0

>  <SCORE.SYSTEM>
0

>  <SCORE.SYSTEM.CONST>
0

>  <SCORE.SYSTEM.DIHEDRAL>
0

>  <SCORE.SYSTEM.SOLV>
0

>  <SCORE.SYSTEM.norm>
0

>  <SCORE.heavy>
46

>  <SCORE.norm>
-0.877468

>  <RMSD>
0.307

$$$$
ligand
 OpenBabel02271912143D
libRbt.so/2013.1/901 2013/11/27
 46 52  0  0  0  0  0  0  0  0999 V2000
   -5.4076    2.5547   18.7277 P   0  0  1  0  0  0  0  0  0  0  0  0
   -9.8603    4.8317   15.6189 P   0  0  2  0  0  0  0  0  0  0  0  0
   -5.5464    0.7889   18.7947 O   0  5  0  0  0  0  0  0  0  0  0  0
   -3.9186    3.1280   19.5236 O   0  0  0  0  0  0  0  0  0  0  0  0
   -5.4322    4.3877   16.8139 C   0  0  0  0  0  0  0  0  0  0  0  0
   -5.4237    3.0079   17.1806 O   0  0  0  0  0  0  0  0  0  0  0  0
   -5.9292    4.5056   15.3857 C   0  0  1  0  0  0  0  0  0  0  0  0
   -5.1534    3.6472   14.5376 O   0  0  0  0  0  0  0  0  0  0  0  0
   -7.3705    4.0549   15.2125 C   0  0  1  0  0  0  0  0  0  0  0  0
   -8.2927    5.1305   15.3733 O   0  0  0  0  0  0  0  0  0  0  0  0
   -7.3898    3.4957   13.8008 C   0  0  1  0  0  0  0  0  0  0  0  0
   -7.6856    4.5359   12.8654 O   0  0  0  0  0  0  0  0  0  0  0  0
   -5.9756    3.0061   13.5499 C   0  0  2  0  0  0  0  0  0  0  0  0
   -9.9640    1.9316   19.8799 C   0  0  1  0  0  0  0  0  0  0  0  0
   -7.4052   -1.8068   11.8220 N   0  0  0  0  0  0  0  0  0  0  0  0
   -7.7442   -0.5837   11.3305 C   0  0  1  0  0  0  0  0  0  0  0  0
   -8.5053    1.6755   19.6274 C   0  0  2  0  0  0  0  0  0  0  0  0
   -8.5591   -0.5313   10.2517 N   0  0  0  0  0  0  0  0  0  0  0  0
   -7.8994    1.4920   20.9082 O   0  0  0  0  0  0  0  0  0  0  0  0
   -8.0072    2.9291   18.9359 C   0  0  2  0  0  0  0  0  0  0  0  0
   -7.2993    0.5843   11.8823 N   0  0  0  0  0  0  0  0  0  0  0  0
   -6.6972    3.2789   19.3612 O   0  0  0  0  0  0  0  0  0  0  0  0
   -6.4789    0.5855   12.9633 C   0  0  2  0  0  0  0  0  0  0  0  0
   -8.9902    4.0114   19.3371 C   0  0  2  0  0  0  0  0  0  0  0  0
  -10.1845    3.3326   19.7222 O   0  0  0  0  0  0  0  0  0  0  0  0
   -6.0837   -0.7126   13.5370 C   0  0  1  0  0  0  0  0  0  0  0  0
   -9.2997    4.9806   18.2017 C   0  0  0  0  0  0  0  0  0  0  0  0
   -9.9014    4.2607   17.1239 O   0  0  0  0  0  0  0  0  0  0  0  0
   -6.5955   -1.9379   12.8975 C   0  0  0  0  0  0  0  0  0  0  0  0
   -6.2654   -3.1615   13.3833 O   0  0  0  0  0  0  0  0  0  0  0  0
   -5.2909   -0.4506   14.5820 N   0  0  0  0  0  0  0  0  0  0  0  0
   -5.1820    0.9066   14.6792 C   0  0  0  0  0  0  0  0  0  0  0  0
   -5.8908    1.5307   13.7150 N   0  0  1  0  0  0  0  0  0  0  0  0
  -10.7300   -2.7784   17.7358 N   0  0  0  0  0  0  0  0  0  0  0  0
  -10.4806    3.6160   14.4708 O   0  5  0  0  0  0  0  0  0  0  0  0
   -9.7905   -2.3720   18.6330 C   0  0  2  0  0  0  0  0  0  0  0  0
   -8.8810   -3.2700   19.0938 N   0  0  0  0  0  0  0  0  0  0  0  0
  -10.8737    6.2862   15.5449 O   0  0  0  0  0  0  0  0  0  0  0  0
   -9.7324   -1.0900   19.0862 N   0  0  0  0  0  0  0  0  0  0  0  0
  -10.6147   -0.1520   18.6692 C   0  0  2  0  0  0  0  0  0  0  0  0
  -11.6506   -0.5296   17.6987 C   0  0  2  0  0  0  0  0  0  0  0  0
  -11.6595   -1.9348   17.2389 C   0  0  0  0  0  0  0  0  0  0  0  0
  -12.5762   -2.3754   16.3422 O   0  0  0  0  0  0  0  0  0  0  0  0
  -12.3726    0.5817   17.4537 N   0  0  0  0  0  0  0  0  0  0  0  0
  -11.8430    1.5885   18.2108 C   0  0  0  0  0  0  0  0  0  0  0  0
  -10.7901    1.1440   18.9337 N   0  0  1  0  0  0  0  0  0  0  0  0
  1  3  1  1  0  0  0
  1  4  2  0  0  0  0
  1  6  1  0  0  0  0
  1 22  1  0  0  0  0
  2 28  1  0  0  0  0
  2 35  1  6  0  0  0
  2 38  2  0  0  0  0
  2 10  1  0  0  0  0
  5  6  1  0  0  0  0
  7  5  1  1  0  0  0
  7  8  1  0  0  0  0
  7  9  1  0  0  0  0
  9 10  1  6  0  0  0
  9 11  1  0  0  0  0
 11 12  1  6  0  0  0
 11 13  1  0  0  0  0
 13  8  1  1  0  0  0
 13 33  1  0  0  0  0
 14 46  1  0  0  0  0
 14 17  1  0  0  0  0
 14 25  1  6  0  0  0
 15 16  1  0  0  0  0
 15 29  1  0  0  0  0
 16 18  1  1  0  0  0
 16 21  1  0  0  0  0
 17 19  1  1  0  0  0
 17 20  1  0  0  0  0
 20 22  1  1  0  0  0
 20 24  1  0  0  0  0
 23 21  1  1  0  0  0
 23 26  1  0  0  0  0
 23 33  1  0  0  0  0
 24 25  1  6  0  0  0
 24 27  1  0  0  0  0
 26 29  1  6  0  0  0
 26 31  1  0  0  0  0
 27 28  1  0  0  0  0
 29 30  2  0  0  0  0
 31 32  1  0  0  0  0
 33 32  1  6  0  0  0
 34 36  1  0  0  0  0
 34 42  1  0  0  0  0
 36 37  1  1  0  0  0
 36 39  1  0  0  0  0
 40 39  1  6  0  0  0
 40 41  1  0  0  0  0
 40 46  1  0  0  0  0
 41 42  1  6  0  0  0
 41 44  1  0  0  0  0
 42 43  2  0  0  0  0
 44 45  1  0  0  0  0
 46 45  1  1  0  0  0
M  CHG  2   3  -1  35  -1
M  END
>  <CHROM.1>
-177.78829784,47.47852543,-8.15737758,1.67776157,16.39467999,-2.29453838
-0.95517435,-2.43877808

>  <Name>
ligand

>  <RI>
-1

>  <Rbt.Current_Directory>
/home/itssahil/PROJECTS/Mol_Feturizer/Test_systems_manuscript/rnas/3mum

>  <Rbt.Executable>
rbdock ($Id: //depot/dev/client3/rdock/2013.1/src/exe/rbdock.cxx#4 $)

>  <Rbt.Library>
libRbt.so (2013.1, Build901 2013/11/27)

>  <Rbt.Parameter_File>
/export/apps/rDock/src/rDock_2013.1_src/data/scripts/dock_solv.prm

>  <Rbt.Receptor>
prm/pocket_docking_6.prm

>  <SCORE>
-40.3126

>  <SCORE.INTER>
-40.3935

>  <SCORE.INTER.CONST>
1

>  <SCORE.INTER.POLAR>
0

>  <SCORE.INTER.ROT>
2

>  <SCORE.INTER.SOLV>
39.5284

>  <SCORE.INTER.VDW>
-45.0384

>  <SCORE.INTER.norm>
-0.878119

>  <SCORE.INTRA>
0.0808184

>  <SCORE.INTRA.DIHEDRAL>
-0.0211415

>  <SCORE.INTRA.DIHEDRAL.0>
2.40424

>  <SCORE.INTRA.POLAR>
0

>  <SCORE.INTRA.POLAR.0>
0

>  <SCORE.INTRA.REPUL>
0

>  <SCORE.INTRA.REPUL.0>
0

>  <SCORE.INTRA.SOLV>
0.0194197

>  <SCORE.INTRA.SOLV.lig_0>
-134.169

>  <SCORE.INTRA.VDW>
0.0816792

>  <SCORE.INTRA.VDW.0>
-2.18386

>  <SCORE.INTRA.norm>
0.00175692

>  <SCORE.RESTR>
0

>  <SCORE.RESTR.CAVITY>
0

>  <SCORE.RESTR.norm>
0

>  <SCORE.SYSTEM>
0

>  <SCORE.SYSTEM.CONST>
0

>  <SCORE.SYSTEM.DIHEDRAL>
0

>  <SCORE.SYSTEM.SOLV>
0

>  <SCORE.SYSTEM.norm>
0

>  <SCORE.heavy>
46

>  <SCORE.norm>
-0.876362

>  <RMSD>
0.307

$$$$
ligand
 OpenBabel02271912143D
libRbt.so/2013.1/901 2013/11/27
 46 52  0  0  0  0  0  0  0  0999 V2000
   -5.2255    2.5603   18.4603 P   0  0  1  0  0  0  0  0  0  0  0  0
   -9.7415    4.7652   15.3910 P   0  0  2  0  0  0  0  0  0  0  0  0
   -5.3783    0.7997   18.5969 O   0  5  0  0  0  0  0  0  0  0  0  0
   -3.7099    3.1477   19.1933 O   0  0  0  0  0  0  0  0  0  0  0  0
   -5.2863    4.3213   16.4807 C   0  0  0  0  0  0  0  0  0  0  0  0
   -5.2802    2.9560   16.8983 O   0  0  0  0  0  0  0  0  0  0  0  0
   -5.8215    4.3911   15.0632 C   0  0  1  0  0  0  0  0  0  0  0  0
   -5.0772    3.4941   14.2269 O   0  0  0  0  0  0  0  0  0  0  0  0
   -7.2710    3.9489   14.9463 C   0  0  1  0  0  0  0  0  0  0  0  0
   -8.1787    5.0389   15.0918 O   0  0  0  0  0  0  0  0  0  0  0  0
   -7.3343    3.3379   13.5575 C   0  0  1  0  0  0  0  0  0  0  0  0
   -7.6464    4.3456   12.5922 O   0  0  0  0  0  0  0  0  0  0  0  0
   -5.9321    2.8251   13.2866 C   0  0  2  0  0  0  0  0  0  0  0  0
   -9.7538    2.0264   19.7587 C   0  0  1  0  0  0  0  0  0  0  0  0
   -7.2390   -2.0457   11.6252 N   0  0  0  0  0  0  0  0  0  0  0  0
   -7.5470   -0.8402   11.0735 C   0  0  1  0  0  0  0  0  0  0  0  0
   -8.3050    1.7464   19.4762 C   0  0  2  0  0  0  0  0  0  0  0  0
   -8.2899   -0.8253    9.9428 N   0  0  0  0  0  0  0  0  0  0  0  0
   -7.6657    1.6045   20.7460 O   0  0  0  0  0  0  0  0  0  0  0  0
   -7.8149    2.9684   18.7251 C   0  0  2  0  0  0  0  0  0  0  0  0
   -7.1407    0.3465   11.6152 N   0  0  0  0  0  0  0  0  0  0  0  0
   -6.4905    3.3206   19.1011 O   0  0  0  0  0  0  0  0  0  0  0  0
   -6.3926    0.3852   12.7467 C   0  0  2  0  0  0  0  0  0  0  0  0
   -8.7766    4.0746   19.1122 C   0  0  2  0  0  0  0  0  0  0  0  0
   -9.9659    3.4227   19.5548 O   0  0  0  0  0  0  0  0  0  0  0  0
   -6.0338   -0.8925   13.3865 C   0  0  1  0  0  0  0  0  0  0  0  0
   -9.1085    5.0041   17.9502 C   0  0  0  0  0  0  0  0  0  0  0  0
   -9.7462    4.2508   16.9168 O   0  0  0  0  0  0  0  0  0  0  0  0
   -6.5010   -2.1394   12.7548 C   0  0  0  0  0  0  0  0  0  0  0  0
   -6.2016   -3.3456   13.3002 O   0  0  0  0  0  0  0  0  0  0  0  0
   -5.3113   -0.5943   14.4719 N   0  0  0  0  0  0  0  0  0  0  0  0
   -5.2109    0.7658   14.5323 C   0  0  0  0  0  0  0  0  0  0  0  0
   -5.8562    1.3560   13.5043 N   0  0  1  0  0  0  0  0  0  0  0  0
  -10.6435   -2.7591   17.8415 N   0  0  0  0  0  0  0  0  0  0  0  0
  -10.4042    3.5141   14.3065 O   0  5  0  0  0  0  0  0  0  0  0  0
   -9.6785   -2.3303   18.7004 C   0  0  2  0  0  0  0  0  0  0  0  0
   -8.7745   -3.2231   19.1819 N   0  0  0  0  0  0  0  0  0  0  0  0
  -10.7434    6.2261   15.2903 O   0  0  0  0  0  0  0  0  0  0  0  0
   -9.5894   -1.0308   19.0950 N   0  0  0  0  0  0  0  0  0  0  0  0
  -10.4646   -0.0967   18.6550 C   0  0  2  0  0  0  0  0  0  0  0  0
  -11.5271   -0.4984   17.7236 C   0  0  2  0  0  0  0  0  0  0  0  0
  -11.5691   -1.9221   17.3268 C   0  0  0  0  0  0  0  0  0  0  0  0
  -12.5119   -2.3855   16.4695 O   0  0  0  0  0  0  0  0  0  0  0  0
  -12.2355    0.6137   17.4445 N   0  0  0  0  0  0  0  0  0  0  0  0
  -11.6733    1.6432   18.1451 C   0  0  0  0  0  0  0  0  0  0  0  0
  -10.6128    1.2126   18.8654 N   0  0  1  0  0  0  0  0  0  0  0  0
  1  3  1  1  0  0  0
  1  4  2  0  0  0  0
  1  6  1  0  0  0  0
  1 22  1  0  0  0  0
  2 28  1  0  0  0  0
  2 35  1  6  0  0  0
  2 38  2  0  0  0  0
  2 10  1  0  0  0  0
  5  6  1  0  0  0  0
  7  5  1  1  0  0  0
  7  8  1  0  0  0  0
  7  9  1  0  0  0  0
  9 10  1  6  0  0  0
  9 11  1  0  0  0  0
 11 12  1  6  0  0  0
 11 13  1  0  0  0  0
 13  8  1  1  0  0  0
 13 33  1  0  0  0  0
 14 46  1  0  0  0  0
 14 17  1  0  0  0  0
 14 25  1  6  0  0  0
 15 16  1  0  0  0  0
 15 29  1  0  0  0  0
 16 18  1  1  0  0  0
 16 21  1  0  0  0  0
 17 19  1  1  0  0  0
 17 20  1  0  0  0  0
 20 22  1  1  0  0  0
 20 24  1  0  0  0  0
 23 21  1  1  0  0  0
 23 26  1  0  0  0  0
 23 33  1  0  0  0  0
 24 25  1  6  0  0  0
 24 27  1  0  0  0  0
 26 29  1  6  0  0  0
 26 31  1  0  0  0  0
 27 28  1  0  0  0  0
 29 30  2  0  0  0  0
 31 32  1  0  0  0  0
 33 32  1  6  0  0  0
 34 36  1  0  0  0  0
 34 42  1  0  0  0  0
 36 37  1  1  0  0  0
 36 39  1  0  0  0  0
 40 39  1  6  0  0  0
 40 41  1  0  0  0  0
 40 46  1  0  0  0  0
 41 42  1  6  0  0  0
 41 44  1  0  0  0  0
 42 43  2  0  0  0  0
 44 45  1  0  0  0  0
 46 45  1  1  0  0  0
M  CHG  2   3  -1  35  -1
M  END
>  <CHROM.1>
-172.42587811,48.17698415,-8.02585874,1.62317636,16.22378741,-2.29606907
-0.97270216,-2.46812197

>  <Name>
ligand

>  <RI>
416

>  <Rbt.Current_Directory>
/home/itssahil/PROJECTS/Mol_Feturizer/Test_systems_manuscript/rnas/3mum

>  <Rbt.Executable>
rbdock ($Id: //depot/dev/client3/rdock/2013.1/src/exe/rbdock.cxx#4 $)

>  <Rbt.Library>
libRbt.so (2013.1, Build901 2013/11/27)

>  <Rbt.Parameter_File>
/export/apps/rDock/src/rDock_2013.1_src/data/scripts/dock_solv.prm

>  <Rbt.Receptor>
prm/pocket_docking_3.prm

>  <SCORE>
-40.1065

>  <SCORE.INTER>
-40.1605

>  <SCORE.INTER.CONST>
1

>  <SCORE.INTER.POLAR>
0

>  <SCORE.INTER.ROT>
2

>  <SCORE.INTER.SOLV>
40.6824

>  <SCORE.INTER.VDW>
-45.2678

>  <SCORE.INTER.norm>
-0.873055

>  <SCORE.INTRA>
0.0540003

>  <SCORE.INTRA.DIHEDRAL>
-0.0193658

>  <SCORE.INTRA.DIHEDRAL.0>
2.40424

>  <SCORE.INTRA.POLAR>
0

>  <SCORE.INTRA.POLAR.0>
0

>  <SCORE.INTRA.REPUL>
0

>  <SCORE.INTRA.REPUL.0>
0

>  <SCORE.INTRA.SOLV>
0.0278321

>  <SCORE.INTRA.SOLV.lig_0>
-134.169

>  <SCORE.INTRA.VDW>
0.0497671

>  <SCORE.INTRA.VDW.0>
-2.18386

>  <SCORE.INTRA.norm>
0.00117392

>  <SCORE.RESTR>
0

>  <SCORE.RESTR.CAVITY>
0

>  <SCORE.RESTR.norm>
0

>  <SCORE.SYSTEM>
0

>  <SCORE.SYSTEM.CONST>
0

>  <SCORE.SYSTEM.DIHEDRAL>
0

>  <SCORE.SYSTEM.SOLV>
0

>  <SCORE.SYSTEM.norm>
0

>  <SCORE.heavy>
46

>  <SCORE.norm>
-0.871881

>  <RMSD>
0.310

$$$$
ligand
 OpenBabel02271912143D
libRbt.so/2013.1/901 2013/11/27
 46 52  0  0  0  0  0  0  0  0999 V2000
   -9.6599    4.8620   15.3587 P   0  0  1  0  0  0  0  0  0  0  0  0
   -5.2649    2.4575   18.4537 P   0  0  2  0  0  0  0  0  0  0  0  0
  -10.4491    3.6313   14.3566 O   0  5  0  0  0  0  0  0  0  0  0  0
  -10.4774    6.4411   15.2265 O   0  0  0  0  0  0  0  0  0  0  0  0
   -9.0073    5.0918   17.9170 C   0  0  0  0  0  0  0  0  0  0  0  0
   -9.6695    4.3547   16.8891 O   0  0  0  0  0  0  0  0  0  0  0  0
   -8.7681    4.1686   19.0966 C   0  0  1  0  0  0  0  0  0  0  0  0
  -10.0057    3.5525   19.4795 O   0  0  0  0  0  0  0  0  0  0  0  0
   -7.8229    3.0214   18.7790 C   0  0  1  0  0  0  0  0  0  0  0  0
   -6.4647    3.3502   19.0623 O   0  0  0  0  0  0  0  0  0  0  0  0
   -8.3329    1.8989   19.6655 C   0  0  1  0  0  0  0  0  0  0  0  0
   -7.7013    1.9604   20.9468 O   0  0  0  0  0  0  0  0  0  0  0  0
   -9.8144    2.1759   19.8418 C   0  0  2  0  0  0  0  0  0  0  0  0
   -5.9717    2.6612   13.3511 C   0  0  1  0  0  0  0  0  0  0  0  0
  -10.6653   -2.6586   17.8181 N   0  0  0  0  0  0  0  0  0  0  0  0
   -9.7127   -2.2547   18.7023 C   0  0  1  0  0  0  0  0  0  0  0  0
   -7.3695    3.1185   13.6579 C   0  0  2  0  0  0  0  0  0  0  0  0
   -8.8331   -3.1755   19.1598 N   0  0  0  0  0  0  0  0  0  0  0  0
   -7.7587    3.9774   12.5846 O   0  0  0  0  0  0  0  0  0  0  0  0
   -7.2517    3.8658   14.9715 C   0  0  2  0  0  0  0  0  0  0  0  0
   -9.6092   -0.9646   19.1400 N   0  0  0  0  0  0  0  0  0  0  0  0
   -8.0971    5.0075   15.0045 O   0  0  0  0  0  0  0  0  0  0  0  0
  -10.4680   -0.0046   18.7128 C   0  0  2  0  0  0  0  0  0  0  0  0
   -5.7989    4.2925   15.0473 C   0  0  2  0  0  0  0  0  0  0  0  0
   -5.0859    3.4106   14.1818 O   0  0  0  0  0  0  0  0  0  0  0  0
  -11.5169   -0.3882   17.7520 C   0  0  1  0  0  0  0  0  0  0  0  0
   -5.2260    4.1949   16.4569 C   0  0  0  0  0  0  0  0  0  0  0  0
   -5.2754    2.8333   16.8880 O   0  0  0  0  0  0  0  0  0  0  0  0
  -11.5780   -1.7951   17.3173 C   0  0  0  0  0  0  0  0  0  0  0  0
  -12.5222   -2.2056   16.4331 O   0  0  0  0  0  0  0  0  0  0  0  0
  -12.2206    0.7170   17.4830 N   0  0  0  0  0  0  0  0  0  0  0  0
  -11.6721    1.7348   18.2088 C   0  0  0  0  0  0  0  0  0  0  0  0
  -10.6238    1.3093   18.9447 N   0  0  1  0  0  0  0  0  0  0  0  0
   -7.4917   -2.1075   11.8288 N   0  0  0  0  0  0  0  0  0  0  0  0
   -5.5679    0.7148   18.6813 O   0  5  0  0  0  0  0  0  0  0  0  0
   -7.8448   -0.8850   11.3454 C   0  0  2  0  0  0  0  0  0  0  0  0
   -8.7161   -0.8090   10.3057 N   0  0  0  0  0  0  0  0  0  0  0  0
   -3.6727    2.8725   19.1176 O   0  0  0  0  0  0  0  0  0  0  0  0
   -7.3507    0.2690   11.8713 N   0  0  0  0  0  0  0  0  0  0  0  0
   -6.4745    0.2576   12.9029 C   0  0  2  0  0  0  0  0  0  0  0  0
   -6.0577   -1.0319   13.4696 C   0  0  2  0  0  0  0  0  0  0  0  0
   -6.6326   -2.2502   12.8603 C   0  0  0  0  0  0  0  0  0  0  0  0
   -6.3091   -3.4849   13.3177 O   0  0  0  0  0  0  0  0  0  0  0  0
   -5.2045   -0.7532   14.4750 N   0  0  0  0  0  0  0  0  0  0  0  0
   -5.0822    0.6060   14.5426 C   0  0  0  0  0  0  0  0  0  0  0  0
   -5.8462    1.2053   13.6013 N   0  0  1  0  0  0  0  0  0  0  0  0
  1  3  1  6  0  0  0
  1  4  2  0  0  0  0
  1  6  1  0  0  0  0
  1 22  1  0  0  0  0
  2 28  1  0  0  0  0
  2 35  1  1  0  0  0
  2 38  2  0  0  0  0
  2 10  1  0  0  0  0
  5  6  1  0  0  0  0
  7  5  1  6  0  0  0
  7  8  1  0  0  0  0
  7  9  1  0  0  0  0
  9 10  1  1  0  0  0
  9 11  1  0  0  0  0
 11 12  1  1  0  0  0
 11 13  1  0  0  0  0
 13  8  1  6  0  0  0
 13 33  1  0  0  0  0
 14 46  1  0  0  0  0
 14 17  1  0  0  0  0
 14 25  1  1  0  0  0
 15 16  1  0  0  0  0
 15 29  1  0  0  0  0
 16 18  1  6  0  0  0
 16 21  1  0  0  0  0
 17 19  1  6  0  0  0
 17 20  1  0  0  0  0
 20 22  1  6  0  0  0
 20 24  1  0  0  0  0
 23 21  1  6  0  0  0
 23 26  1  0  0  0  0
 23 33  1  0  0  0  0
 24 25  1  6  0  0  0
 24 27  1  0  0  0  0
 26 29  1  1  0  0  0
 26 31  1  0  0  0  0
 27 28  1  0  0  0  0
 29 30  2  0  0  0  0
 31 32  1  0  0  0  0
 33 32  1  1  0  0  0
 34 36  1  0  0  0  0
 34 42  1  0  0  0  0
 36 37  1  6  0  0  0
 36 39  1  0  0  0  0
 40 39  1  1  0  0  0
 40 41  1  0  0  0  0
 40 46  1  0  0  0  0
 41 42  1  1  0  0  0
 41 44  1  0  0  0  0
 42 43  2  0  0  0  0
 44 45  1  0  0  0  0
 46 45  1  6  0  0  0
M  CHG  2   3  -1  35  -1
M  END
>  <CHROM.1>
160.96813788,66.30552752,-8.05000168,1.61859296,16.26252596,-2.17314829,-0.96886153
-2.48663342

>  <Name>
ligand

>  <RI>
-1

>  <Rbt.Current_Directory>
/home/itssahil/PROJECTS/Mol_Feturizer/Test_systems_manuscript/rnas/3mum

>  <Rbt.Executable>
rbdock ($Id: //depot/dev/client3/rdock/2013.1/src/exe/rbdock.cxx#4 $)

>  <Rbt.Library>
libRbt.so (2013.1, Build901 2013/11/27)

>  <Rbt.Parameter_File>
/export/apps/rDock/src/rDock_2013.1_src/data/scripts/dock_solv.prm

>  <Rbt.Receptor>
prm/pocket_docking_4.prm

>  <SCORE>
-40.3216

>  <SCORE.INTER>
-40.3401

>  <SCORE.INTER.CONST>
1

>  <SCORE.INTER.POLAR>
0

>  <SCORE.INTER.ROT>
2

>  <SCORE.INTER.SOLV>
39.7176

>  <SCORE.INTER.VDW>
-45.0659

>  <SCORE.INTER.norm>
-0.876958

>  <SCORE.INTRA>
0.0185095

>  <SCORE.INTRA.DIHEDRAL>
0.001055

>  <SCORE.INTRA.DIHEDRAL.0>
2.40424

>  <SCORE.INTRA.POLAR>
0

>  <SCORE.INTRA.POLAR.0>
0

>  <SCORE.INTRA.REPUL>
0

>  <SCORE.INTRA.REPUL.0>
0

>  <SCORE.INTRA.SOLV>
0.00213715

>  <SCORE.INTRA.SOLV.lig_0>
-134.169

>  <SCORE.INTRA.VDW>
0.0169134

>  <SCORE.INTRA.VDW.0>
-2.18386

>  <SCORE.INTRA.norm>
0.00040238

>  <SCORE.RESTR>
0

>  <SCORE.RESTR.CAVITY>
0

>  <SCORE.RESTR.norm>
0

>  <SCORE.SYSTEM>
0

>  <SCORE.SYSTEM.CONST>
0

>  <SCORE.SYSTEM.DIHEDRAL>
0

>  <SCORE.SYSTEM.SOLV>
0

>  <SCORE.SYSTEM.norm>
0

>  <SCORE.heavy>
46

>  <SCORE.norm>
-0.876556

>  <RMSD>
0.323

$$$$
ligand
 OpenBabel02271912143D
libRbt.so/2013.1/901 2013/11/27
 46 52  0  0  0  0  0  0  0  0999 V2000
   -9.6911    4.7652   15.3790 P   0  0  1  0  0  0  0  0  0  0  0  0
   -5.2592    2.4059   18.4560 P   0  0  2  0  0  0  0  0  0  0  0  0
  -10.4664    3.5283   14.3737 O   0  5  0  0  0  0  0  0  0  0  0  0
  -10.5292    6.3341   15.2545 O   0  0  0  0  0  0  0  0  0  0  0  0
   -9.0364    4.9936   17.9369 C   0  0  0  0  0  0  0  0  0  0  0  0
   -9.6911    4.2520   16.9074 O   0  0  0  0  0  0  0  0  0  0  0  0
   -8.7829    4.0691   19.1124 C   0  0  1  0  0  0  0  0  0  0  0  0
  -10.0117    3.4356   19.4954 O   0  0  0  0  0  0  0  0  0  0  0  0
   -7.8236    2.9354   18.7885 C   0  0  1  0  0  0  0  0  0  0  0  0
   -6.4692    3.2806   19.0704 O   0  0  0  0  0  0  0  0  0  0  0  0
   -8.3173    1.8030   19.6717 C   0  0  1  0  0  0  0  0  0  0  0  0
   -7.6839    1.8678   20.9520 O   0  0  0  0  0  0  0  0  0  0  0  0
   -9.8018    2.0603   19.8520 C   0  0  2  0  0  0  0  0  0  0  0  0
   -5.9789    2.6200   13.3556 C   0  0  1  0  0  0  0  0  0  0  0  0
  -10.6047   -2.7808   17.8240 N   0  0  0  0  0  0  0  0  0  0  0  0
   -9.6572   -2.3686   18.7099 C   0  0  1  0  0  0  0  0  0  0  0  0
   -7.3819    3.0580   13.6670 C   0  0  2  0  0  0  0  0  0  0  0  0
   -8.7698   -3.2814   19.1682 N   0  0  0  0  0  0  0  0  0  0  0  0
   -7.7842    3.9159   12.5978 O   0  0  0  0  0  0  0  0  0  0  0  0
   -7.2710    3.8017   14.9832 C   0  0  2  0  0  0  0  0  0  0  0  0
   -9.5664   -1.0778   19.1485 N   0  0  0  0  0  0  0  0  0  0  0  0
   -8.1310    4.9323   15.0223 O   0  0  0  0  0  0  0  0  0  0  0  0
  -10.4334   -0.1255   18.7207 C   0  0  2  0  0  0  0  0  0  0  0  0
   -5.8237    4.2468   15.0578 C   0  0  2  0  0  0  0  0  0  0  0  0
   -5.1011    3.3775   14.1874 O   0  0  0  0  0  0  0  0  0  0  0  0
  -11.4773   -0.5183   17.7581 C   0  0  1  0  0  0  0  0  0  0  0  0
   -5.2468    4.1512   16.4658 C   0  0  0  0  0  0  0  0  0  0  0  0
   -5.2777    2.7875   16.8918 O   0  0  0  0  0  0  0  0  0  0  0  0
  -11.5246   -1.9254   17.3224 C   0  0  0  0  0  0  0  0  0  0  0  0
  -12.4637   -2.3442   16.4365 O   0  0  0  0  0  0  0  0  0  0  0  0
  -12.1909    0.5804   17.4886 N   0  0  0  0  0  0  0  0  0  0  0  0
  -11.6530    1.6029   18.2159 C   0  0  0  0  0  0  0  0  0  0  0  0
  -10.6018    1.1866   18.9531 N   0  0  1  0  0  0  0  0  0  0  0  0
   -7.4941   -2.1598   11.8635 N   0  0  0  0  0  0  0  0  0  0  0  0
   -5.5392    0.6585   18.6774 O   0  5  0  0  0  0  0  0  0  0  0  0
   -7.8702   -0.9397   11.3914 C   0  0  2  0  0  0  0  0  0  0  0  0
   -8.7681   -0.8699   10.3742 N   0  0  0  0  0  0  0  0  0  0  0  0
   -3.6711    2.8389   19.1183 O   0  0  0  0  0  0  0  0  0  0  0  0
   -7.3734    0.2178   11.9068 N   0  0  0  0  0  0  0  0  0  0  0  0
   -6.4713    0.2127   12.9159 C   0  0  2  0  0  0  0  0  0  0  0  0
   -6.0289   -1.0739   13.4696 C   0  0  2  0  0  0  0  0  0  0  0  0
   -6.6081   -2.2964   12.8727 C   0  0  0  0  0  0  0  0  0  0  0  0
   -6.2621   -3.5289   13.3197 O   0  0  0  0  0  0  0  0  0  0  0  0
   -5.1531   -0.7892   14.4536 N   0  0  0  0  0  0  0  0  0  0  0  0
   -5.0412    0.5710   14.5205 C   0  0  0  0  0  0  0  0  0  0  0  0
   -5.8341    1.1649   13.5999 N   0  0  1  0  0  0  0  0  0  0  0  0
  1  3  1  6  0  0  0
  1  4  2  0  0  0  0
  1  6  1  0  0  0  0
  1 22  1  0  0  0  0
  2 28  1  0  0  0  0
  2 35  1  1  0  0  0
  2 38  2  0  0  0  0
  2 10  1  0  0  0  0
  5  6  1  0  0  0  0
  7  5  1  6  0  0  0
  7  8  1  0  0  0  0
  7  9  1  0  0  0  0
  9 10  1  1  0  0  0
  9 11  1  0  0  0  0
 11 12  1  1  0  0  0
 11 13  1  0  0  0  0
 13  8  1  6  0  0  0
 13 33  1  0  0  0  0
 14 46  1  0  0  0  0
 14 17  1  0  0  0  0
 14 25  1  1  0  0  0
 15 16  1  0  0  0  0
 15 29  1  0  0  0  0
 16 18  1  6  0  0  0
 16 21  1  0  0  0  0
 17 19  1  6  0  0  0
 17 20  1  0  0  0  0
 20 22  1  6  0  0  0
 20 24  1  0  0  0  0
 23 21  1  6  0  0  0
 23 26  1  0  0  0  0
 23 33  1  0  0  0  0
 24 25  1  6  0  0  0
 24 27  1  0  0  0  0
 26 29  1  1  0  0  0
 26 31  1  0  0  0  0
 27 28  1  0  0  0  0
 29 30  2  0  0  0  0
 31 32  1  0  0  0  0
 33 32  1  1  0  0  0
 34 36  1  0  0  0  0
 34 42  1  0  0  0  0
 36 37  1  6  0  0  0
 36 39  1  0  0  0  0
 40 39  1  1  0  0  0
 40 41  1  0  0  0  0
 40 46  1  0  0  0  0
 41 42  1  1  0  0  0
 41 44  1  0  0  0  0
 42 43  2  0  0  0  0
 44 45  1  0  0  0  0
 46 45  1  6  0  0  0
M  CHG  2   3  -1  35  -1
M  END
>  <CHROM.1>
161.31093789,64.94964656,-8.04466865,1.53931775,16.27345210,-2.18329481,-0.97745361
-2.48964271

>  <Name>
ligand

>  <RI>
-1

>  <Rbt.Current_Directory>
/home/itssahil/PROJECTS/Mol_Feturizer/Test_systems_manuscript/rnas/3mum

>  <Rbt.Executable>
rbdock ($Id: //depot/dev/client3/rdock/2013.1/src/exe/rbdock.cxx#4 $)

>  <Rbt.Library>
libRbt.so (2013.1, Build901 2013/11/27)

>  <Rbt.Parameter_File>
/export/apps/rDock/src/rDock_2013.1_src/data/scripts/dock_solv.prm

>  <Rbt.Receptor>
prm/pocket_docking_4.prm

>  <SCORE>
-40.2345

>  <SCORE.INTER>
-40.2642

>  <SCORE.INTER.CONST>
1

>  <SCORE.INTER.POLAR>
0

>  <SCORE.INTER.ROT>
2

>  <SCORE.INTER.SOLV>
40.3165

>  <SCORE.INTER.VDW>
-45.2149

>  <SCORE.INTER.norm>
-0.875308

>  <SCORE.INTRA>
0.0296271

>  <SCORE.INTRA.DIHEDRAL>
-0.000794694

>  <SCORE.INTRA.DIHEDRAL.0>
2.40424

>  <SCORE.INTRA.POLAR>
0

>  <SCORE.INTRA.POLAR.0>
0

>  <SCORE.INTRA.REPUL>
0

>  <SCORE.INTRA.REPUL.0>
0

>  <SCORE.INTRA.SOLV>
0.00384132

>  <SCORE.INTRA.SOLV.lig_0>
-134.169

>  <SCORE.INTRA.VDW>
0.0281038

>  <SCORE.INTRA.VDW.0>
-2.18386

>  <SCORE.INTRA.norm>
0.000644068

>  <SCORE.RESTR>
0

>  <SCORE.RESTR.CAVITY>
0

>  <SCORE.RESTR.norm>
0

>  <SCORE.SYSTEM>
0

>  <SCORE.SYSTEM.CONST>
0

>  <SCORE.SYSTEM.DIHEDRAL>
0

>  <SCORE.SYSTEM.SOLV>
0

>  <SCORE.SYSTEM.norm>
0

>  <SCORE.heavy>
46

>  <SCORE.norm>
-0.874664

>  <RMSD>
0.324

$$$$
ligand
 OpenBabel02271912143D
libRbt.so/2013.1/901 2013/11/27
 46 52  0  0  0  0  0  0  0  0999 V2000
   -9.6542    4.8857   15.3142 P   0  0  1  0  0  0  0  0  0  0  0  0
   -5.2401    2.5235   18.4146 P   0  0  2  0  0  0  0  0  0  0  0  0
  -10.4459    3.6426   14.3295 O   0  5  0  0  0  0  0  0  0  0  0  0
  -10.4752    6.4618   15.1684 O   0  0  0  0  0  0  0  0  0  0  0  0
   -8.9899    5.1450   17.8666 C   0  0  0  0  0  0  0  0  0  0  0  0
   -9.6556    4.3954   16.8500 O   0  0  0  0  0  0  0  0  0  0  0  0
   -8.7434    4.2354   19.0551 C   0  0  1  0  0  0  0  0  0  0  0  0
   -9.9781    3.6213   19.4508 O   0  0  0  0  0  0  0  0  0  0  0  0
   -7.7977    3.0864   18.7458 C   0  0  1  0  0  0  0  0  0  0  0  0
   -6.4387    3.4207   19.0190 O   0  0  0  0  0  0  0  0  0  0  0  0
   -8.3014    1.9729   19.6471 C   0  0  1  0  0  0  0  0  0  0  0  0
   -7.6638    2.0497   20.9246 O   0  0  0  0  0  0  0  0  0  0  0  0
   -9.7825    2.2492   19.8274 C   0  0  2  0  0  0  0  0  0  0  0  0
   -5.9715    2.6694   13.3134 C   0  0  1  0  0  0  0  0  0  0  0  0
  -10.6250   -2.6060   17.8499 N   0  0  0  0  0  0  0  0  0  0  0  0
   -9.6675   -2.1901   18.7233 C   0  0  1  0  0  0  0  0  0  0  0  0
   -7.3687    3.1276   13.6218 C   0  0  2  0  0  0  0  0  0  0  0  0
   -8.7798   -3.1027   19.1814 N   0  0  0  0  0  0  0  0  0  0  0  0
   -7.7645    3.9739   12.5410 O   0  0  0  0  0  0  0  0  0  0  0  0
   -7.2460    3.8896   14.9265 C   0  0  2  0  0  0  0  0  0  0  0  0
   -9.5671   -0.8959   19.1496 N   0  0  0  0  0  0  0  0  0  0  0  0
   -8.0934    5.0301   14.9509 O   0  0  0  0  0  0  0  0  0  0  0  0
  -10.4340    0.0563   18.7214 C   0  0  2  0  0  0  0  0  0  0  0  0
   -5.7937    4.3197   14.9907 C   0  0  2  0  0  0  0  0  0  0  0  0
   -5.0832    3.4295   14.1316 O   0  0  0  0  0  0  0  0  0  0  0  0
  -11.4884   -0.3403   17.7720 C   0  0  1  0  0  0  0  0  0  0  0  0
   -5.2140    4.2387   16.3985 C   0  0  0  0  0  0  0  0  0  0  0  0
   -5.2588    2.8819   16.8449 O   0  0  0  0  0  0  0  0  0  0  0  0
  -11.5459   -1.7511   17.3493 C   0  0  0  0  0  0  0  0  0  0  0  0
  -12.4950   -2.1735   16.4759 O   0  0  0  0  0  0  0  0  0  0  0  0
  -12.1998    0.7591   17.4995 N   0  0  0  0  0  0  0  0  0  0  0  0
  -11.6507    1.7855   18.2127 C   0  0  0  0  0  0  0  0  0  0  0  0
  -10.5946    1.3712   18.9437 N   0  0  1  0  0  0  0  0  0  0  0  0
   -7.4493   -2.1210   11.8180 N   0  0  0  0  0  0  0  0  0  0  0  0
   -5.5389    0.7828   18.6629 O   0  5  0  0  0  0  0  0  0  0  0  0
   -7.8022   -0.9049   11.3186 C   0  0  2  0  0  0  0  0  0  0  0  0
   -8.6608   -0.8431   10.2674 N   0  0  0  0  0  0  0  0  0  0  0  0
   -3.6456    2.9487   19.0662 O   0  0  0  0  0  0  0  0  0  0  0  0
   -7.3203    0.2565   11.8395 N   0  0  0  0  0  0  0  0  0  0  0  0
   -6.4571    0.2592   12.8821 C   0  0  2  0  0  0  0  0  0  0  0  0
   -6.0413   -1.0227   13.4663 C   0  0  2  0  0  0  0  0  0  0  0  0
   -6.6026   -2.2496   12.8615 C   0  0  0  0  0  0  0  0  0  0  0  0
   -6.2789   -3.4783   13.3348 O   0  0  0  0  0  0  0  0  0  0  0  0
   -5.2021   -0.7303   14.4795 N   0  0  0  0  0  0  0  0  0  0  0  0
   -5.0871    0.6301   14.5356 C   0  0  0  0  0  0  0  0  0  0  0  0
   -5.8422    1.2166   13.5791 N   0  0  1  0  0  0  0  0  0  0  0  0
  1  3  1  6  0  0  0
  1  4  2  0  0  0  0
  1  6  1  0  0  0  0
  1 22  1  0  0  0  0
  2 28  1  0  0  0  0
  2 35  1  1  0  0  0
  2 38  2  0  0  0  0
  2 10  1  0  0  0  0
  5  6  1  0  0  0  0
  7  5  1  6  0  0  0
  7  8  1  0  0  0  0
  7  9  1  0  0  0  0
  9 10  1  1  0  0  0
  9 11  1  0  0  0  0
 11 12  1  1  0  0  0
 11 13  1  0  0  0  0
 13  8  1  6  0  0  0
 13 33  1  0  0  0  0
 14 46  1  0  0  0  0
 14 17  1  0  0  0  0
 14 25  1  1  0  0  0
 15 16  1  0  0  0  0
 15 29  1  0  0  0  0
 16 18  1  6  0  0  0
 16 21  1  0  0  0  0
 17 19  1  6  0  0  0
 17 20  1  0  0  0  0
 20 22  1  6  0  0  0
 20 24  1  0  0  0  0
 23 21  1  6  0  0  0
 23 26  1  0  0  0  0
 23 33  1  0  0  0  0
 24 25  1  6  0  0  0
 24 27  1  0  0  0  0
 26 29  1  1  0  0  0
 26 31  1  0  0  0  0
 27 28  1  0  0  0  0
 29 30  2  0  0  0  0
 31 32  1  0  0  0  0
 33 32  1  1  0  0  0
 34 36  1  0  0  0  0
 34 42  1  0  0  0  0
 36 37  1  6  0  0  0
 36 39  1  0  0  0  0
 40 39  1  1  0  0  0
 40 41  1  0  0  0  0
 40 46  1  0  0  0  0
 41 42  1  1  0  0  0
 41 44  1  0  0  0  0
 42 43  2  0  0  0  0
 44 45  1  0  0  0  0
 46 45  1  6  0  0  0
M  CHG  2   3  -1  35  -1
M  END
>  <CHROM.1>
160.66530460,67.31472680,-8.02864216,1.65546338,16.24123907,-2.17475336,-0.97429945
-2.50066472

>  <Name>
ligand

>  <RI>
416

>  <Rbt.Current_Directory>
/home/itssahil/PROJECTS/Mol_Feturizer/Test_systems_manuscript/rnas/3mum

>  <Rbt.Executable>
rbdock ($Id: //depot/dev/client3/rdock/2013.1/src/exe/rbdock.cxx#4 $)

>  <Rbt.Library>
libRbt.so (2013.1, Build901 2013/11/27)

>  <Rbt.Parameter_File>
/export/apps/rDock/src/rDock_2013.1_src/data/scripts/dock_solv.prm

>  <Rbt.Receptor>
prm/pocket_docking_3.prm

>  <SCORE>
-40.224

>  <SCORE.INTER>
-40.2351

>  <SCORE.INTER.CONST>
1

>  <SCORE.INTER.POLAR>
0

>  <SCORE.INTER.ROT>
2

>  <SCORE.INTER.SOLV>
39.4686

>  <SCORE.INTER.VDW>
-44.9129

>  <SCORE.INTER.norm>
-0.874675

>  <SCORE.INTRA>
0.0110894

>  <SCORE.INTRA.DIHEDRAL>
0.00240088

>  <SCORE.INTRA.DIHEDRAL.0>
2.40424

>  <SCORE.INTRA.POLAR>
0

>  <SCORE.INTRA.POLAR.0>
0

>  <SCORE.INTRA.REPUL>
0

>  <SCORE.INTRA.REPUL.0>
0

>  <SCORE.INTRA.SOLV>
0.000864349

>  <SCORE.INTRA.SOLV.lig_0>
-134.169

>  <SCORE.INTRA.VDW>
0.00945681

>  <SCORE.INTRA.VDW.0>
-2.18386

>  <SCORE.INTRA.norm>
0.000241074

>  <SCORE.RESTR>
0

>  <SCORE.RESTR.CAVITY>
0

>  <SCORE.RESTR.norm>
0

>  <SCORE.SYSTEM>
0

>  <SCORE.SYSTEM.CONST>
0

>  <SCORE.SYSTEM.DIHEDRAL>
0

>  <SCORE.SYSTEM.SOLV>
0

>  <SCORE.SYSTEM.norm>
0

>  <SCORE.heavy>
46

>  <SCORE.norm>
-0.874434

>  <RMSD>
0.333

$$$$
ligand
 OpenBabel02271912143D
libRbt.so/2013.1/901 2013/11/27
 46 52  0  0  0  0  0  0  0  0999 V2000
   -9.6535    4.8351   15.3526 P   0  0  1  0  0  0  0  0  0  0  0  0
   -5.2323    2.4318   18.4108 P   0  0  2  0  0  0  0  0  0  0  0  0
  -10.4562    3.6025   14.3636 O   0  5  0  0  0  0  0  0  0  0  0  0
  -10.4684    6.4157   15.2227 O   0  0  0  0  0  0  0  0  0  0  0  0
   -8.9736    5.0733   17.9030 C   0  0  0  0  0  0  0  0  0  0  0  0
   -9.6484    4.3339   16.8849 O   0  0  0  0  0  0  0  0  0  0  0  0
   -8.7243    4.1542   19.0836 C   0  0  1  0  0  0  0  0  0  0  0  0
   -9.9594    3.5426   19.4819 O   0  0  0  0  0  0  0  0  0  0  0  0
   -7.7854    3.0033   18.7607 C   0  0  1  0  0  0  0  0  0  0  0  0
   -6.4235    3.3298   19.0284 O   0  0  0  0  0  0  0  0  0  0  0  0
   -8.2888    1.8856   19.6569 C   0  0  1  0  0  0  0  0  0  0  0  0
   -7.6436    1.9505   20.9312 O   0  0  0  0  0  0  0  0  0  0  0  0
   -9.7677    2.1671   19.8476 C   0  0  2  0  0  0  0  0  0  0  0  0
   -5.9920    2.6173   13.3151 C   0  0  1  0  0  0  0  0  0  0  0  0
  -10.7055   -2.6900   17.9182 N   0  0  0  0  0  0  0  0  0  0  0  0
   -9.7511   -2.2877   18.8013 C   0  0  1  0  0  0  0  0  0  0  0  0
   -7.3854    3.0793   13.6348 C   0  0  2  0  0  0  0  0  0  0  0  0
   -8.8946   -3.2169   19.2847 N   0  0  0  0  0  0  0  0  0  0  0  0
   -7.7836    3.9350   12.5622 O   0  0  0  0  0  0  0  0  0  0  0  0
   -7.2520    3.8314   14.9441 C   0  0  2  0  0  0  0  0  0  0  0  0
   -9.6237   -0.9911   19.2128 N   0  0  0  0  0  0  0  0  0  0  0  0
   -8.0941    4.9754   14.9815 O   0  0  0  0  0  0  0  0  0  0  0  0
  -10.4588   -0.0225   18.7591 C   0  0  2  0  0  0  0  0  0  0  0  0
   -5.7974    4.2547   15.0031 C   0  0  2  0  0  0  0  0  0  0  0  0
   -5.0957    3.3677   14.1336 O   0  0  0  0  0  0  0  0  0  0  0  0
  -11.5084   -0.4041   17.7983 C   0  0  1  0  0  0  0  0  0  0  0  0
   -5.2100    4.1612   16.4069 C   0  0  0  0  0  0  0  0  0  0  0  0
   -5.2583    2.8015   16.8439 O   0  0  0  0  0  0  0  0  0  0  0  0
  -11.5960   -1.8182   17.3925 C   0  0  0  0  0  0  0  0  0  0  0  0
  -12.5422   -2.2273   16.5097 O   0  0  0  0  0  0  0  0  0  0  0  0
  -12.1867    0.7097   17.5008 N   0  0  0  0  0  0  0  0  0  0  0  0
  -11.6222    1.7308   18.2096 C   0  0  0  0  0  0  0  0  0  0  0  0
  -10.5886    1.2989   18.9623 N   0  0  1  0  0  0  0  0  0  0  0  0
   -7.5119   -2.1551   11.8046 N   0  0  0  0  0  0  0  0  0  0  0  0
   -5.5372    0.6907   18.6484 O   0  5  0  0  0  0  0  0  0  0  0  0
   -7.8638   -0.9339   11.3172 C   0  0  2  0  0  0  0  0  0  0  0  0
   -8.7337   -0.8606   10.2761 N   0  0  0  0  0  0  0  0  0  0  0  0
   -3.6322    2.8454   19.0564 O   0  0  0  0  0  0  0  0  0  0  0  0
   -7.3700    0.2214   11.8404 N   0  0  0  0  0  0  0  0  0  0  0  0
   -6.4951    0.2127   12.8733 C   0  0  2  0  0  0  0  0  0  0  0  0
   -6.0798   -1.0754   13.4443 C   0  0  2  0  0  0  0  0  0  0  0  0
   -6.6544   -2.2952   12.8377 C   0  0  0  0  0  0  0  0  0  0  0  0
   -6.3320   -3.5288   13.2992 O   0  0  0  0  0  0  0  0  0  0  0  0
   -5.2278   -0.7942   14.4500 N   0  0  0  0  0  0  0  0  0  0  0  0
   -5.1050    0.5652   14.5138 C   0  0  0  0  0  0  0  0  0  0  0  0
   -5.8675    1.1621   13.5697 N   0  0  1  0  0  0  0  0  0  0  0  0
  1  3  1  6  0  0  0
  1  4  2  0  0  0  0
  1  6  1  0  0  0  0
  1 22  1  0  0  0  0
  2 28  1  0  0  0  0
  2 35  1  1  0  0  0
  2 38  2  0  0  0  0
  2 10  1  0  0  0  0
  5  6  1  0  0  0  0
  7  5  1  6  0  0  0
  7  8  1  0  0  0  0
  7  9  1  0  0  0  0
  9 10  1  1  0  0  0
  9 11  1  0  0  0  0
 11 12  1  1  0  0  0
 11 13  1  0  0  0  0
 13  8  1  6  0  0  0
 13 33  1  0  0  0  0
 14 46  1  0  0  0  0
 14 17  1  0  0  0  0
 14 25  1  1  0  0  0
 15 16  1  0  0  0  0
 15 29  1  0  0  0  0
 16 18  1  6  0  0  0
 16 21  1  0  0  0  0
 17 19  1  6  0  0  0
 17 20  1  0  0  0  0
 20 22  1  6  0  0  0
 20 24  1  0  0  0  0
 23 21  1  6  0  0  0
 23 26  1  0  0  0  0
 23 33  1  0  0  0  0
 24 25  1  6  0  0  0
 24 27  1  0  0  0  0
 26 29  1  1  0  0  0
 26 31  1  0  0  0  0
 27 28  1  0  0  0  0
 29 30  2  0  0  0  0
 31 32  1  0  0  0  0
 33 32  1  1  0  0  0
 34 36  1  0  0  0  0
 34 42  1  0  0  0  0
 36 37  1  6  0  0  0
 36 39  1  0  0  0  0
 40 39  1  1  0  0  0
 40 41  1  0  0  0  0
 40 46  1  0  0  0  0
 41 42  1  1  0  0  0
 41 44  1  0  0  0  0
 42 43  2  0  0  0  0
 44 45  1  0  0  0  0
 46 45  1  6  0  0  0
M  CHG  2   3  -1  35  -1
M  END
>  <CHROM.1>
162.74126380,66.99661883,-8.04501724,1.58929987,16.25687766,-2.19642979,-0.97717734
-2.47936908

>  <Name>
ligand

>  <RI>
-1

>  <Rbt.Current_Directory>
/home/itssahil/PROJECTS/Mol_Feturizer/Test_systems_manuscript/rnas/3mum

>  <Rbt.Executable>
rbdock ($Id: //depot/dev/client3/rdock/2013.1/src/exe/rbdock.cxx#4 $)

>  <Rbt.Library>
libRbt.so (2013.1, Build901 2013/11/27)

>  <Rbt.Parameter_File>
/export/apps/rDock/src/rDock_2013.1_src/data/scripts/dock_solv.prm

>  <Rbt.Receptor>
prm/pocket_docking_4.prm

>  <SCORE>
-40.2651

>  <SCORE.INTER>
-40.2455

>  <SCORE.INTER.CONST>
1

>  <SCORE.INTER.POLAR>
0

>  <SCORE.INTER.ROT>
2

>  <SCORE.INTER.SOLV>
40.0729

>  <SCORE.INTER.VDW>
-45.1213

>  <SCORE.INTER.norm>
-0.874902

>  <SCORE.INTRA>
-0.0195405

>  <SCORE.INTRA.DIHEDRAL>
0.00219464

>  <SCORE.INTRA.DIHEDRAL.0>
2.40424

>  <SCORE.INTRA.POLAR>
0

>  <SCORE.INTRA.POLAR.0>
0

>  <SCORE.INTRA.REPUL>
0

>  <SCORE.INTRA.REPUL.0>
0

>  <SCORE.INTRA.SOLV>
0.000326751

>  <SCORE.INTRA.SOLV.lig_0>
-134.169

>  <SCORE.INTRA.VDW>
-0.0208012

>  <SCORE.INTRA.VDW.0>
-2.18386

>  <SCORE.INTRA.norm>
-0.000424793

>  <SCORE.RESTR>
0

>  <SCORE.RESTR.CAVITY>
0

>  <SCORE.RESTR.norm>
0

>  <SCORE.SYSTEM>
0

>  <SCORE.SYSTEM.CONST>
0

>  <SCORE.SYSTEM.DIHEDRAL>
0

>  <SCORE.SYSTEM.SOLV>
0

>  <SCORE.SYSTEM.norm>
0

>  <SCORE.heavy>
46

>  <SCORE.norm>
-0.875327

>  <RMSD>
0.335

$$$$
ligand
 OpenBabel02271912143D
libRbt.so/2013.1/901 2013/11/27
 46 52  0  0  0  0  0  0  0  0999 V2000
  -10.2024    4.8956   15.9395 P   0  0  1  0  0  0  0  0  0  0  0  0
   -5.5484    3.0077   19.0140 P   0  0  2  0  0  0  0  0  0  0  0  0
  -10.7281    3.6484   14.7950 O   0  5  0  0  0  0  0  0  0  0  0  0
  -11.2835    6.3132   15.9099 O   0  0  0  0  0  0  0  0  0  0  0  0
   -9.6815    4.9882   18.5364 C   0  0  0  0  0  0  0  0  0  0  0  0
  -10.1694    4.2495   17.4163 O   0  0  0  0  0  0  0  0  0  0  0  0
   -9.3187    4.0117   19.6389 C   0  0  1  0  0  0  0  0  0  0  0  0
  -10.4382    3.1552   19.9058 O   0  0  0  0  0  0  0  0  0  0  0  0
   -8.1749    3.0828   19.2657 C   0  0  1  0  0  0  0  0  0  0  0  0
   -6.9064    3.6146   19.6418 O   0  0  0  0  0  0  0  0  0  0  0  0
   -8.5043    1.8085   20.0231 C   0  0  1  0  0  0  0  0  0  0  0  0
   -7.9340    1.8556   21.3335 O   0  0  0  0  0  0  0  0  0  0  0  0
  -10.0161    1.8047   20.1525 C   0  0  2  0  0  0  0  0  0  0  0  0
   -6.1204    3.5753   13.9220 C   0  0  1  0  0  0  0  0  0  0  0  0
  -10.5557   -3.1291   18.2660 N   0  0  0  0  0  0  0  0  0  0  0  0
   -9.8165   -2.6907   19.3213 C   0  0  1  0  0  0  0  0  0  0  0  0
   -7.5862    3.7502   14.2013 C   0  0  2  0  0  0  0  0  0  0  0  0
   -9.0985   -3.5995   20.0207 N   0  0  0  0  0  0  0  0  0  0  0  0
   -8.0883    4.6273   13.1916 O   0  0  0  0  0  0  0  0  0  0  0  0
   -7.6444    4.3765   15.5804 C   0  0  2  0  0  0  0  0  0  0  0  0
   -9.7694   -1.3779   19.6968 N   0  0  0  0  0  0  0  0  0  0  0  0
   -8.6803    5.3448   15.6748 O   0  0  0  0  0  0  0  0  0  0  0  0
  -10.4726   -0.4284   19.0294 C   0  0  2  0  0  0  0  0  0  0  0  0
   -6.2939    5.0407   15.7634 C   0  0  2  0  0  0  0  0  0  0  0  0
   -5.4086    4.3842   14.8576 O   0  0  0  0  0  0  0  0  0  0  0  0
  -11.2873   -0.8493   17.8763 C   0  0  1  0  0  0  0  0  0  0  0  0
   -5.7572    4.9092   17.1843 C   0  0  0  0  0  0  0  0  0  0  0  0
   -5.5768    3.5249   17.4894 O   0  0  0  0  0  0  0  0  0  0  0  0
  -11.2981   -2.2793   17.5201 C   0  0  0  0  0  0  0  0  0  0  0  0
  -12.0296   -2.7245   16.4671 O   0  0  0  0  0  0  0  0  0  0  0  0
  -11.8707    0.2517   17.3900 N   0  0  0  0  0  0  0  0  0  0  0  0
  -11.4663    1.3014   18.1634 C   0  0  0  0  0  0  0  0  0  0  0  0
  -10.6299    0.9007   19.1439 N   0  0  1  0  0  0  0  0  0  0  0  0
   -7.0655   -1.2802   12.2193 N   0  0  0  0  0  0  0  0  0  0  0  0
   -5.5432    1.2251   19.0704 O   0  5  0  0  0  0  0  0  0  0  0  0
   -7.6558   -0.1043   11.8703 C   0  0  2  0  0  0  0  0  0  0  0  0
   -8.6459   -0.1094   10.9399 N   0  0  0  0  0  0  0  0  0  0  0  0
   -4.0771    3.6281   19.7876 O   0  0  0  0  0  0  0  0  0  0  0  0
   -7.2845    1.0819   12.4248 N   0  0  0  0  0  0  0  0  0  0  0  0
   -6.3004    1.1519   13.3516 C   0  0  2  0  0  0  0  0  0  0  0  0
   -5.6275   -0.0845   13.7712 C   0  0  2  0  0  0  0  0  0  0  0  0
   -6.0783   -1.3423   13.1379 C   0  0  0  0  0  0  0  0  0  0  0  0
   -5.5182   -2.5334   13.4635 O   0  0  0  0  0  0  0  0  0  0  0  0
   -4.7134    0.2692   14.6962 N   0  0  0  0  0  0  0  0  0  0  0  0
   -4.7926    1.6243   14.8521 C   0  0  0  0  0  0  0  0  0  0  0  0
   -5.7455    2.1464   14.0470 N   0  0  1  0  0  0  0  0  0  0  0  0
  1  3  1  6  0  0  0
  1  4  2  0  0  0  0
  1  6  1  0  0  0  0
  1 22  1  0  0  0  0
  2 28  1  0  0  0  0
  2 35  1  1  0  0  0
  2 38  2  0  0  0  0
  2 10  1  0  0  0  0
  5  6  1  0  0  0  0
  7  5  1  6  0  0  0
  7  8  1  0  0  0  0
  7  9  1  0  0  0  0
  9 10  1  1  0  0  0
  9 11  1  0  0  0  0
 11 12  1  1  0  0  0
 11 13  1  0  0  0  0
 13  8  1  6  0  0  0
 13 33  1  0  0  0  0
 14 46  1  0  0  0  0
 14 17  1  0  0  0  0
 14 25  1  1  0  0  0
 15 16  1  0  0  0  0
 15 29  1  0  0  0  0
 16 18  1  6  0  0  0
 16 21  1  0  0  0  0
 17 19  1  6  0  0  0
 17 20  1  0  0  0  0
 20 22  1  6  0  0  0
 20 24  1  0  0  0  0
 23 21  1  6  0  0  0
 23 26  1  0  0  0  0
 23 33  1  0  0  0  0
 24 25  1  6  0  0  0
 24 27  1  0  0  0  0
 26 29  1  1  0  0  0
 26 31  1  0  0  0  0
 27 28  1  0  0  0  0
 29 30  2  0  0  0  0
 31 32  1  0  0  0  0
 33 32  1  1  0  0  0
 34 36  1  0  0  0  0
 34 42  1  0  0  0  0
 36 37  1  6  0  0  0
 36 39  1  0  0  0  0
 40 39  1  1  0  0  0
 40 41  1  0  0  0  0
 40 46  1  0  0  0  0
 41 42  1  1  0  0  0
 41 44  1  0  0  0  0
 42 43  2  0  0  0  0
 44 45  1  0  0  0  0
 46 45  1  6  0  0  0
M  CHG  2   3  -1  35  -1
M  END
>  <CHROM.1>
179.37159236,57.27605136,-8.17545115,1.87765109,16.72468681,-0.16454036,1.02564298
0.56928347

>  <Name>
ligand

>  <RI>
-1

>  <Rbt.Current_Directory>
/home/itssahil/PROJECTS/Mol_Feturizer/Test_systems_manuscript/rnas/3mum

>  <Rbt.Executable>
rbdock ($Id: //depot/dev/client3/rdock/2013.1/src/exe/rbdock.cxx#4 $)

>  <Rbt.Library>
libRbt.so (2013.1, Build901 2013/11/27)

>  <Rbt.Parameter_File>
/export/apps/rDock/src/rDock_2013.1_src/data/scripts/dock_solv.prm

>  <Rbt.Receptor>
prm/pocket_docking_8.prm

>  <SCORE>
-37.3762

>  <SCORE.INTER>
-37.3294

>  <SCORE.INTER.CONST>
1

>  <SCORE.INTER.POLAR>
0

>  <SCORE.INTER.ROT>
2

>  <SCORE.INTER.SOLV>
39.9565

>  <SCORE.INTER.VDW>
-43.1385

>  <SCORE.INTER.norm>
-0.811509

>  <SCORE.INTRA>
-0.0467553

>  <SCORE.INTRA.DIHEDRAL>
-0.0089163

>  <SCORE.INTRA.DIHEDRAL.0>
2.40424

>  <SCORE.INTRA.POLAR>
0

>  <SCORE.INTRA.POLAR.0>
0

>  <SCORE.INTRA.REPUL>
0

>  <SCORE.INTRA.REPUL.0>
0

>  <SCORE.INTRA.SOLV>
0.00663837

>  <SCORE.INTRA.SOLV.lig_0>
-134.169

>  <SCORE.INTRA.VDW>
-0.0456163

>  <SCORE.INTRA.VDW.0>
-2.18386

>  <SCORE.INTRA.norm>
-0.00101642

>  <SCORE.RESTR>
0

>  <SCORE.RESTR.CAVITY>
0

>  <SCORE.RESTR.norm>
0

>  <SCORE.SYSTEM>
0

>  <SCORE.SYSTEM.CONST>
0

>  <SCORE.SYSTEM.DIHEDRAL>
0

>  <SCORE.SYSTEM.SOLV>
0

>  <SCORE.SYSTEM.norm>
0

>  <SCORE.heavy>
46

>  <SCORE.norm>
-0.812526

>  <RMSD>
0.611

$$$$
ligand
 OpenBabel02271912143D
libRbt.so/2013.1/901 2013/11/27
 46 52  0  0  0  0  0  0  0  0999 V2000
   -5.3034    2.8143   18.0116 P   0  0  1  0  0  0  0  0  0  0  0  0
  -10.1196    5.7939   16.3984 P   0  0  2  0  0  0  0  0  0  0  0  0
   -5.5284    1.0806   17.7196 O   0  5  0  0  0  0  0  0  0  0  0  0
   -3.6616    3.1732   18.6076 O   0  0  0  0  0  0  0  0  0  0  0  0
   -5.5792    5.0297   16.5834 C   0  0  0  0  0  0  0  0  0  0  0  0
   -5.5817    3.6028   16.6332 O   0  0  0  0  0  0  0  0  0  0  0  0
   -6.3263    5.4716   15.3395 C   0  0  1  0  0  0  0  0  0  0  0  0
   -5.7729    4.8138   14.1911 O   0  0  0  0  0  0  0  0  0  0  0  0
   -7.7981    5.0920   15.3566 C   0  0  1  0  0  0  0  0  0  0  0  0
   -8.6108    6.1174   15.9232 O   0  0  0  0  0  0  0  0  0  0  0  0
   -8.1124    4.8636   13.8886 C   0  0  1  0  0  0  0  0  0  0  0  0
   -8.5173    6.0910   13.2770 O   0  0  0  0  0  0  0  0  0  0  0  0
   -6.8003    4.4222   13.2671 C   0  0  2  0  0  0  0  0  0  0  0  0
   -9.5931    2.0149   19.8654 C   0  0  1  0  0  0  0  0  0  0  0  0
   -4.4127   -0.1965   14.3438 N   0  0  0  0  0  0  0  0  0  0  0  0
   -4.0766    1.0579   14.7511 C   0  0  1  0  0  0  0  0  0  0  0  0
   -8.2242    1.8008   19.2844 C   0  0  2  0  0  0  0  0  0  0  0  0
   -2.9884    1.2035   15.5420 N   0  0  0  0  0  0  0  0  0  0  0  0
   -7.4016    1.3264   20.3518 O   0  0  0  0  0  0  0  0  0  0  0  0
   -7.7927    3.1701   18.7980 C   0  0  2  0  0  0  0  0  0  0  0  0
   -4.7883    2.1676   14.3923 N   0  0  0  0  0  0  0  0  0  0  0  0
   -6.4085    3.3969   19.0257 O   0  0  0  0  0  0  0  0  0  0  0  0
   -5.8881    2.0745   13.6027 C   0  0  2  0  0  0  0  0  0  0  0  0
   -8.6199    4.1491   19.6079 C   0  0  2  0  0  0  0  0  0  0  0  0
   -9.7583    3.4187   20.0614 O   0  0  0  0  0  0  0  0  0  0  0  0
   -6.2938    0.7391   13.1312 C   0  0  1  0  0  0  0  0  0  0  0  0
   -9.0795    5.3524   18.7922 C   0  0  0  0  0  0  0  0  0  0  0  0
   -9.9120    4.9010   17.7221 O   0  0  0  0  0  0  0  0  0  0  0  0
   -5.4864   -0.4198   13.5521 C   0  0  0  0  0  0  0  0  0  0  0  0
   -5.8122   -1.6737   13.1476 O   0  0  0  0  0  0  0  0  0  0  0  0
   -7.3847    0.9083   12.3759 N   0  0  0  0  0  0  0  0  0  0  0  0
   -7.6630    2.2447   12.3577 C   0  0  0  0  0  0  0  0  0  0  0  0
   -6.7711    2.9462   13.0884 N   0  0  1  0  0  0  0  0  0  0  0  0
  -11.3513   -2.2689   17.4310 N   0  0  0  0  0  0  0  0  0  0  0  0
  -11.0119    4.8754   15.1571 O   0  5  0  0  0  0  0  0  0  0  0  0
  -10.2783   -2.1131   18.2540 C   0  0  2  0  0  0  0  0  0  0  0  0
   -9.4994   -3.1891   18.5395 N   0  0  0  0  0  0  0  0  0  0  0  0
  -11.0438    7.2425   16.8404 O   0  0  0  0  0  0  0  0  0  0  0  0
   -9.9591   -0.9095   18.8033 N   0  0  0  0  0  0  0  0  0  0  0  0
  -10.7005    0.1970   18.5617 C   0  0  2  0  0  0  0  0  0  0  0  0
  -11.8697    0.0924   17.6787 C   0  0  2  0  0  0  0  0  0  0  0  0
  -12.1625   -1.2395   17.1074 C   0  0  0  0  0  0  0  0  0  0  0  0
  -13.2189   -1.4327   16.2797 O   0  0  0  0  0  0  0  0  0  0  0  0
  -12.4083    1.3256   17.6050 N   0  0  0  0  0  0  0  0  0  0  0  0
  -11.6466    2.1517   18.3825 C   0  0  0  0  0  0  0  0  0  0  0  0
  -10.6250    1.4713   18.9501 N   0  0  1  0  0  0  0  0  0  0  0  0
  1  3  1  6  0  0  0
  1  4  2  0  0  0  0
  1  6  1  0  0  0  0
  1 22  1  0  0  0  0
  2 28  1  0  0  0  0
  2 35  1  6  0  0  0
  2 38  2  0  0  0  0
  2 10  1  0  0  0  0
  5  6  1  0  0  0  0
  7  5  1  1  0  0  0
  7  8  1  0  0  0  0
  7  9  1  0  0  0  0
  9 10  1  6  0  0  0
  9 11  1  0  0  0  0
 11 12  1  6  0  0  0
 11 13  1  0  0  0  0
 13  8  1  1  0  0  0
 13 33  1  0  0  0  0
 14 46  1  0  0  0  0
 14 17  1  0  0  0  0
 14 25  1  6  0  0  0
 15 16  1  0  0  0  0
 15 29  1  0  0  0  0
 16 18  1  6  0  0  0
 16 21  1  0  0  0  0
 17 19  1  1  0  0  0
 17 20  1  0  0  0  0
 20 22  1  1  0  0  0
 20 24  1  0  0  0  0
 23 21  1  6  0  0  0
 23 26  1  0  0  0  0
 23 33  1  0  0  0  0
 24 25  1  6  0  0  0
 24 27  1  0  0  0  0
 26 29  1  1  0  0  0
 26 31  1  0  0  0  0
 27 28  1  0  0  0  0
 29 30  2  0  0  0  0
 31 32  1  0  0  0  0
 33 32  1  1  0  0  0
 34 36  1  0  0  0  0
 34 42  1  0  0  0  0
 36 37  1  1  0  0  0
 36 39  1  0  0  0  0
 40 39  1  6  0  0  0
 40 41  1  0  0  0  0
 40 46  1  0  0  0  0
 41 42  1  6  0  0  0
 41 44  1  0  0  0  0
 42 43  2  0  0  0  0
 44 45  1  0  0  0  0
 46 45  1  1  0  0  0
M  CHG  2   3  -1  35  -1
M  END
>  <CHROM.1>
-4.63432369,59.45377344,-8.04879910,2.46559978,16.55571868,-0.43884476,-0.59960674
3.09412226

>  <Name>
ligand

>  <RI>
-1

>  <Rbt.Current_Directory>
/home/itssahil/PROJECTS/Mol_Feturizer/Test_systems_manuscript/rnas/3mum

>  <Rbt.Executable>
rbdock ($Id: //depot/dev/client3/rdock/2013.1/src/exe/rbdock.cxx#4 $)

>  <Rbt.Library>
libRbt.so (2013.1, Build901 2013/11/27)

>  <Rbt.Parameter_File>
/export/apps/rDock/src/rDock_2013.1_src/data/scripts/dock_solv.prm

>  <Rbt.Receptor>
prm/pocket_docking_7.prm

>  <SCORE>
-36.793

>  <SCORE.INTER>
-38.1215

>  <SCORE.INTER.CONST>
1

>  <SCORE.INTER.POLAR>
0

>  <SCORE.INTER.ROT>
2

>  <SCORE.INTER.SOLV>
29.4949

>  <SCORE.INTER.VDW>
-40.1793

>  <SCORE.INTER.norm>
-0.828728

>  <SCORE.INTRA>
1.32851

>  <SCORE.INTRA.DIHEDRAL>
-0.00478347

>  <SCORE.INTRA.DIHEDRAL.0>
2.40424

>  <SCORE.INTRA.POLAR>
0

>  <SCORE.INTRA.POLAR.0>
0

>  <SCORE.INTRA.REPUL>
0

>  <SCORE.INTRA.REPUL.0>
0

>  <SCORE.INTRA.SOLV>
5.43822

>  <SCORE.INTRA.SOLV.lig_0>
-134.169

>  <SCORE.INTRA.VDW>
-1.38821

>  <SCORE.INTRA.VDW.0>
-2.18386

>  <SCORE.INTRA.norm>
0.0288806

>  <SCORE.RESTR>
0

>  <SCORE.RESTR.CAVITY>
0

>  <SCORE.RESTR.norm>
0

>  <SCORE.SYSTEM>
0

>  <SCORE.SYSTEM.CONST>
0

>  <SCORE.SYSTEM.DIHEDRAL>
0

>  <SCORE.SYSTEM.SOLV>
0

>  <SCORE.SYSTEM.norm>
0

>  <SCORE.heavy>
46

>  <SCORE.norm>
-0.799847

>  <RMSD>
2.074

$$$$
ligand
 OpenBabel02271912143D
libRbt.so/2013.1/901 2013/11/27
 46 52  0  0  0  0  0  0  0  0999 V2000
   -5.2841    2.8205   18.0413 P   0  0  1  0  0  0  0  0  0  0  0  0
  -10.0976    5.8003   16.4205 P   0  0  2  0  0  0  0  0  0  0  0  0
   -5.5082    1.0870   17.7477 O   0  5  0  0  0  0  0  0  0  0  0  0
   -3.6435    3.1793   18.6406 O   0  0  0  0  0  0  0  0  0  0  0  0
   -5.5575    5.0367   16.6139 C   0  0  0  0  0  0  0  0  0  0  0  0
   -5.5598    3.6098   16.6628 O   0  0  0  0  0  0  0  0  0  0  0  0
   -6.3022    5.4793   15.3689 C   0  0  1  0  0  0  0  0  0  0  0  0
   -5.7464    4.8224   14.2210 O   0  0  0  0  0  0  0  0  0  0  0  0
   -7.7740    5.0995   15.3828 C   0  0  1  0  0  0  0  0  0  0  0  0
   -8.5880    6.1244   15.9485 O   0  0  0  0  0  0  0  0  0  0  0  0
   -8.0854    4.8719   13.9141 C   0  0  1  0  0  0  0  0  0  0  0  0
   -8.4892    6.0996   13.3025 O   0  0  0  0  0  0  0  0  0  0  0  0
   -6.7720    4.4311   13.2948 C   0  0  2  0  0  0  0  0  0  0  0  0
   -9.5772    2.0193   19.8861 C   0  0  1  0  0  0  0  0  0  0  0  0
   -4.3678   -0.1844   14.3480 N   0  0  0  0  0  0  0  0  0  0  0  0
   -4.0299    1.0703   14.7528 C   0  0  1  0  0  0  0  0  0  0  0  0
   -8.2072    1.8058   19.3077 C   0  0  2  0  0  0  0  0  0  0  0  0
   -2.9349    1.2173   15.5338 N   0  0  0  0  0  0  0  0  0  0  0  0
   -7.3866    1.3308   20.3764 O   0  0  0  0  0  0  0  0  0  0  0  0
   -7.7750    3.1754   18.8230 C   0  0  2  0  0  0  0  0  0  0  0  0
   -4.7465    2.1791   14.4009 N   0  0  0  0  0  0  0  0  0  0  0  0
   -6.3912    3.4023   19.0535 O   0  0  0  0  0  0  0  0  0  0  0  0
   -5.8532    2.0847   13.6212 C   0  0  2  0  0  0  0  0  0  0  0  0
   -8.6039    4.1538   19.6319 C   0  0  2  0  0  0  0  0  0  0  0  0
   -9.7431    3.4229   20.0827 O   0  0  0  0  0  0  0  0  0  0  0  0
   -6.2613    0.7488   13.1528 C   0  0  1  0  0  0  0  0  0  0  0  0
   -9.0621    5.3575   18.8161 C   0  0  0  0  0  0  0  0  0  0  0  0
   -9.8925    4.9066   17.7441 O   0  0  0  0  0  0  0  0  0  0  0  0
   -5.4483   -0.4090   13.5660 C   0  0  0  0  0  0  0  0  0  0  0  0
   -5.7759   -1.6632   13.1639 O   0  0  0  0  0  0  0  0  0  0  0  0
   -7.3592    0.9168   12.4075 N   0  0  0  0  0  0  0  0  0  0  0  0
   -7.6396    2.2527   12.3924 C   0  0  0  0  0  0  0  0  0  0  0  0
   -6.7422    2.9553   13.1153 N   0  0  1  0  0  0  0  0  0  0  0  0
  -11.3285   -2.2628   17.4437 N   0  0  0  0  0  0  0  0  0  0  0  0
  -10.9873    4.8824   15.1769 O   0  5  0  0  0  0  0  0  0  0  0  0
  -10.2570   -2.1073   18.2686 C   0  0  2  0  0  0  0  0  0  0  0  0
   -9.4778   -3.1831   18.5541 N   0  0  0  0  0  0  0  0  0  0  0  0
  -11.0230    7.2485   16.8616 O   0  0  0  0  0  0  0  0  0  0  0  0
   -9.9395   -0.9041   18.8199 N   0  0  0  0  0  0  0  0  0  0  0  0
  -10.6812    0.2021   18.5785 C   0  0  2  0  0  0  0  0  0  0  0  0
  -11.8489    0.0978   17.6934 C   0  0  2  0  0  0  0  0  0  0  0  0
  -12.1399   -1.2336   17.1200 C   0  0  0  0  0  0  0  0  0  0  0  0
  -13.1948   -1.4265   16.2903 O   0  0  0  0  0  0  0  0  0  0  0  0
  -12.3882    1.3308   17.6203 N   0  0  0  0  0  0  0  0  0  0  0  0
  -11.6284    2.1564   18.4000 C   0  0  0  0  0  0  0  0  0  0  0  0
  -10.6072    1.4760   18.9685 N   0  0  1  0  0  0  0  0  0  0  0  0
  1  3  1  6  0  0  0
  1  4  2  0  0  0  0
  1  6  1  0  0  0  0
  1 22  1  0  0  0  0
  2 28  1  0  0  0  0
  2 35  1  6  0  0  0
  2 38  2  0  0  0  0
  2 10  1  0  0  0  0
  5  6  1  0  0  0  0
  7  5  1  1  0  0  0
  7  8  1  0  0  0  0
  7  9  1  0  0  0  0
  9 10  1  6  0  0  0
  9 11  1  0  0  0  0
 11 12  1  6  0  0  0
 11 13  1  0  0  0  0
 13  8  1  1  0  0  0
 13 33  1  0  0  0  0
 14 46  1  0  0  0  0
 14 17  1  0  0  0  0
 14 25  1  6  0  0  0
 15 16  1  0  0  0  0
 15 29  1  0  0  0  0
 16 18  1  6  0  0  0
 16 21  1  0  0  0  0
 17 19  1  1  0  0  0
 17 20  1  0  0  0  0
 20 22  1  1  0  0  0
 20 24  1  0  0  0  0
 23 21  1  6  0  0  0
 23 26  1  0  0  0  0
 23 33  1  0  0  0  0
 24 25  1  6  0  0  0
 24 27  1  0  0  0  0
 26 29  1  1  0  0  0
 26 31  1  0  0  0  0
 27 28  1  0  0  0  0
 29 30  2  0  0  0  0
 31 32  1  0  0  0  0
 33 32  1  1  0  0  0
 34 36  1  0  0  0  0
 34 42  1  0  0  0  0
 36 37  1  1  0  0  0
 36 39  1  0  0  0  0
 40 39  1  6  0  0  0
 40 41  1  0  0  0  0
 40 46  1  0  0  0  0
 41 42  1  6  0  0  0
 41 44  1  0  0  0  0
 42 43  2  0  0  0  0
 44 45  1  0  0  0  0
 46 45  1  1  0  0  0
M  CHG  2   3  -1  35  -1
M  END
>  <CHROM.1>
-5.26948954,59.40601626,-8.02447336,2.47268379,16.57683179,-0.43104162,-0.59851278
3.09617299

>  <Name>
ligand

>  <RI>
-1

>  <Rbt.Current_Directory>
/home/itssahil/PROJECTS/Mol_Feturizer/Test_systems_manuscript/rnas/3mum

>  <Rbt.Executable>
rbdock ($Id: //depot/dev/client3/rdock/2013.1/src/exe/rbdock.cxx#4 $)

>  <Rbt.Library>
libRbt.so (2013.1, Build901 2013/11/27)

>  <Rbt.Parameter_File>
/export/apps/rDock/src/rDock_2013.1_src/data/scripts/dock_solv.prm

>  <Rbt.Receptor>
prm/pocket_docking_5.prm

>  <SCORE>
-36.7684

>  <SCORE.INTER>
-38.0056

>  <SCORE.INTER.CONST>
1

>  <SCORE.INTER.POLAR>
0

>  <SCORE.INTER.ROT>
2

>  <SCORE.INTER.SOLV>
29.4075

>  <SCORE.INTER.VDW>
-40.0729

>  <SCORE.INTER.norm>
-0.82621

>  <SCORE.INTRA>
1.23723

>  <SCORE.INTRA.DIHEDRAL>
-0.00473622

>  <SCORE.INTRA.DIHEDRAL.0>
2.40424

>  <SCORE.INTRA.POLAR>
0

>  <SCORE.INTRA.POLAR.0>
0

>  <SCORE.INTRA.REPUL>
0

>  <SCORE.INTRA.REPUL.0>
0

>  <SCORE.INTRA.SOLV>
5.19116

>  <SCORE.INTRA.SOLV.lig_0>
-134.169

>  <SCORE.INTRA.VDW>
-1.35598

>  <SCORE.INTRA.VDW.0>
-2.18386

>  <SCORE.INTRA.norm>
0.0268963

>  <SCORE.RESTR>
0

>  <SCORE.RESTR.CAVITY>
0

>  <SCORE.RESTR.norm>
0

>  <SCORE.SYSTEM>
0

>  <SCORE.SYSTEM.CONST>
0

>  <SCORE.SYSTEM.DIHEDRAL>
0

>  <SCORE.SYSTEM.SOLV>
0

>  <SCORE.SYSTEM.norm>
0

>  <SCORE.heavy>
46

>  <SCORE.norm>
-0.799313

>  <RMSD>
2.078

$$$$
ligand
 OpenBabel02271912143D
libRbt.so/2013.1/901 2013/11/27
 46 52  0  0  0  0  0  0  0  0999 V2000
   -5.2872    2.8204   18.0074 P   0  0  1  0  0  0  0  0  0  0  0  0
  -10.1047    5.8038   16.4051 P   0  0  2  0  0  0  0  0  0  0  0  0
   -5.5116    1.0876   17.7093 O   0  5  0  0  0  0  0  0  0  0  0  0
   -3.6456    3.1778   18.6045 O   0  0  0  0  0  0  0  0  0  0  0  0
   -5.5641    5.0406   16.5870 C   0  0  0  0  0  0  0  0  0  0  0  0
   -5.5660    3.6136   16.6318 O   0  0  0  0  0  0  0  0  0  0  0  0
   -6.3114    5.4866   15.3448 C   0  0  1  0  0  0  0  0  0  0  0  0
   -5.7578    4.8331   14.1939 O   0  0  0  0  0  0  0  0  0  0  0  0
   -7.7830    5.1064   15.3606 C   0  0  1  0  0  0  0  0  0  0  0  0
   -8.5961    6.1295   15.9309 O   0  0  0  0  0  0  0  0  0  0  0  0
   -8.0974    4.8830   13.8919 C   0  0  1  0  0  0  0  0  0  0  0  0
   -8.5028    6.1124   13.2846 O   0  0  0  0  0  0  0  0  0  0  0  0
   -6.7852    4.4443   13.2687 C   0  0  2  0  0  0  0  0  0  0  0  0
   -9.5765    2.0129   19.8587 C   0  0  1  0  0  0  0  0  0  0  0  0
   -4.4174   -0.1814   14.3590 N   0  0  0  0  0  0  0  0  0  0  0  0
   -4.0851    1.0710   14.7754 C   0  0  1  0  0  0  0  0  0  0  0  0
   -8.2075    1.8013   19.2769 C   0  0  2  0  0  0  0  0  0  0  0  0
   -3.0073    1.2123   15.5810 N   0  0  0  0  0  0  0  0  0  0  0  0
   -7.3847    1.3235   20.3425 O   0  0  0  0  0  0  0  0  0  0  0  0
   -7.7766    3.1725   18.7952 C   0  0  2  0  0  0  0  0  0  0  0  0
   -4.7908    2.1829   14.4116 N   0  0  0  0  0  0  0  0  0  0  0  0
   -6.3925    3.3990   19.0236 O   0  0  0  0  0  0  0  0  0  0  0  0
   -5.8803    2.0942   13.6073 C   0  0  2  0  0  0  0  0  0  0  0  0
   -8.6040    4.1483   19.6086 C   0  0  2  0  0  0  0  0  0  0  0  0
   -9.7422    3.4159   20.0597 O   0  0  0  0  0  0  0  0  0  0  0  0
   -6.2815    0.7611   13.1255 C   0  0  1  0  0  0  0  0  0  0  0  0
   -9.0642    5.3543   18.7973 C   0  0  0  0  0  0  0  0  0  0  0  0
   -9.8967    4.9063   17.7256 O   0  0  0  0  0  0  0  0  0  0  0  0
   -5.4810   -0.4004   13.5526 C   0  0  0  0  0  0  0  0  0  0  0  0
   -5.8030   -1.6523   13.1391 O   0  0  0  0  0  0  0  0  0  0  0  0
   -7.3622    0.9346   12.3567 N   0  0  0  0  0  0  0  0  0  0  0  0
   -7.6386    2.2713   12.3399 C   0  0  0  0  0  0  0  0  0  0  0  0
   -6.7554    2.9690   13.0848 N   0  0  1  0  0  0  0  0  0  0  0  0
  -11.3421   -2.2661   17.4213 N   0  0  0  0  0  0  0  0  0  0  0  0
  -10.9968    4.8893   15.1606 O   0  5  0  0  0  0  0  0  0  0  0  0
  -10.2701   -2.1132   18.2461 C   0  0  2  0  0  0  0  0  0  0  0  0
   -9.4947   -3.1913   18.5330 N   0  0  0  0  0  0  0  0  0  0  0  0
  -11.0295    7.2505   16.8523 O   0  0  0  0  0  0  0  0  0  0  0  0
   -9.9486   -0.9105   18.7960 N   0  0  0  0  0  0  0  0  0  0  0  0
  -10.6865    0.1980   18.5531 C   0  0  2  0  0  0  0  0  0  0  0  0
  -11.8544    0.0966   17.6681 C   0  0  2  0  0  0  0  0  0  0  0  0
  -12.1499   -1.2345   17.0962 C   0  0  0  0  0  0  0  0  0  0  0  0
  -13.2054   -1.4248   16.2667 O   0  0  0  0  0  0  0  0  0  0  0  0
  -12.3896    1.3313   17.5934 N   0  0  0  0  0  0  0  0  0  0  0  0
  -11.6270    2.1552   18.3723 C   0  0  0  0  0  0  0  0  0  0  0  0
  -10.6082    1.4721   18.9417 N   0  0  1  0  0  0  0  0  0  0  0  0
  1  3  1  6  0  0  0
  1  4  2  0  0  0  0
  1  6  1  0  0  0  0
  1 22  1  0  0  0  0
  2 28  1  0  0  0  0
  2 35  1  6  0  0  0
  2 38  2  0  0  0  0
  2 10  1  0  0  0  0
  5  6  1  0  0  0  0
  7  5  1  1  0  0  0
  7  8  1  0  0  0  0
  7  9  1  0  0  0  0
  9 10  1  6  0  0  0
  9 11  1  0  0  0  0
 11 12  1  6  0  0  0
 11 13  1  0  0  0  0
 13  8  1  1  0  0  0
 13 33  1  0  0  0  0
 14 46  1  0  0  0  0
 14 17  1  0  0  0  0
 14 25  1  6  0  0  0
 15 16  1  0  0  0  0
 15 29  1  0  0  0  0
 16 18  1  6  0  0  0
 16 21  1  0  0  0  0
 17 19  1  1  0  0  0
 17 20  1  0  0  0  0
 20 22  1  1  0  0  0
 20 24  1  0  0  0  0
 23 21  1  6  0  0  0
 23 26  1  0  0  0  0
 23 33  1  0  0  0  0
 24 25  1  6  0  0  0
 24 27  1  0  0  0  0
 26 29  1  1  0  0  0
 26 31  1  0  0  0  0
 27 28  1  0  0  0  0
 29 30  2  0  0  0  0
 31 32  1  0  0  0  0
 33 32  1  1  0  0  0
 34 36  1  0  0  0  0
 34 42  1  0  0  0  0
 36 37  1  1  0  0  0
 36 39  1  0  0  0  0
 40 39  1  6  0  0  0
 40 41  1  0  0  0  0
 40 46  1  0  0  0  0
 41 42  1  6  0  0  0
 41 44  1  0  0  0  0
 42 43  2  0  0  0  0
 44 45  1  0  0  0  0
 46 45  1  1  0  0  0
M  CHG  2   3  -1  35  -1
M  END
>  <CHROM.1>
-3.87513607,59.74118134,-8.03595239,2.47493973,16.55507163,-0.45069682,-0.59873492
3.09486306

>  <Name>
ligand

>  <RI>
-1

>  <Rbt.Current_Directory>
/home/itssahil/PROJECTS/Mol_Feturizer/Test_systems_manuscript/rnas/3mum

>  <Rbt.Executable>
rbdock ($Id: //depot/dev/client3/rdock/2013.1/src/exe/rbdock.cxx#4 $)

>  <Rbt.Library>
libRbt.so (2013.1, Build901 2013/11/27)

>  <Rbt.Parameter_File>
/export/apps/rDock/src/rDock_2013.1_src/data/scripts/dock_solv.prm

>  <Rbt.Receptor>
prm/pocket_docking_8.prm

>  <SCORE>
-36.7959

>  <SCORE.INTER>
-38.2322

>  <SCORE.INTER.CONST>
1

>  <SCORE.INTER.POLAR>
0

>  <SCORE.INTER.ROT>
2

>  <SCORE.INTER.SOLV>
29.1951

>  <SCORE.INTER.VDW>
-40.1532

>  <SCORE.INTER.norm>
-0.831136

>  <SCORE.INTRA>
1.43638

>  <SCORE.INTRA.DIHEDRAL>
-0.00450899

>  <SCORE.INTRA.DIHEDRAL.0>
2.40424

>  <SCORE.INTRA.POLAR>
0

>  <SCORE.INTRA.POLAR.0>
0

>  <SCORE.INTRA.REPUL>
0

>  <SCORE.INTRA.REPUL.0>
0

>  <SCORE.INTRA.SOLV>
5.73015

>  <SCORE.INTRA.SOLV.lig_0>
-134.169

>  <SCORE.INTRA.VDW>
-1.42644

>  <SCORE.INTRA.VDW.0>
-2.18386

>  <SCORE.INTRA.norm>
0.0312257

>  <SCORE.RESTR>
0

>  <SCORE.RESTR.CAVITY>
0

>  <SCORE.RESTR.norm>
0

>  <SCORE.SYSTEM>
0

>  <SCORE.SYSTEM.CONST>
0

>  <SCORE.SYSTEM.DIHEDRAL>
0

>  <SCORE.SYSTEM.SOLV>
0

>  <SCORE.SYSTEM.norm>
0

>  <SCORE.heavy>
46

>  <SCORE.norm>
-0.79991

>  <RMSD>
2.080

$$$$
ligand
 OpenBabel02271912143D
libRbt.so/2013.1/901 2013/11/27
 46 52  0  0  0  0  0  0  0  0999 V2000
   -5.3421    2.8532   18.0392 P   0  0  1  0  0  0  0  0  0  0  0  0
  -10.2406    5.7008   16.4354 P   0  0  2  0  0  0  0  0  0  0  0  0
   -5.5167    1.1152   17.7384 O   0  5  0  0  0  0  0  0  0  0  0  0
   -3.7119    3.2563   18.6386 O   0  0  0  0  0  0  0  0  0  0  0  0
   -5.6803    5.0667   16.6216 C   0  0  0  0  0  0  0  0  0  0  0  0
   -5.6417    3.6401   16.6643 O   0  0  0  0  0  0  0  0  0  0  0  0
   -6.4386    5.4930   15.3791 C   0  0  1  0  0  0  0  0  0  0  0  0
   -5.8654    4.8572   14.2280 O   0  0  0  0  0  0  0  0  0  0  0  0
   -7.8989    5.0711   15.3927 C   0  0  1  0  0  0  0  0  0  0  0  0
   -8.7413    6.0699   15.9634 O   0  0  0  0  0  0  0  0  0  0  0  0
   -8.2051    4.8410   13.9232 C   0  0  1  0  0  0  0  0  0  0  0  0
   -8.6446    6.0592   13.3172 O   0  0  0  0  0  0  0  0  0  0  0  0
   -6.8803    4.4407   13.3010 C   0  0  2  0  0  0  0  0  0  0  0  0
   -9.6087    1.9214   19.8843 C   0  0  1  0  0  0  0  0  0  0  0  0
   -4.3710   -0.1147   14.3709 N   0  0  0  0  0  0  0  0  0  0  0  0
   -4.0731    1.1465   14.7869 C   0  0  1  0  0  0  0  0  0  0  0  0
   -8.2337    1.7497   19.3038 C   0  0  2  0  0  0  0  0  0  0  0  0
   -2.9949    1.3185   15.5859 N   0  0  0  0  0  0  0  0  0  0  0  0
   -7.3988    1.2939   20.3697 O   0  0  0  0  0  0  0  0  0  0  0  0
   -7.8414    3.1333   18.8245 C   0  0  2  0  0  0  0  0  0  0  0  0
   -4.8133    2.2376   14.4287 N   0  0  0  0  0  0  0  0  0  0  0  0
   -6.4644    3.3987   19.0549 O   0  0  0  0  0  0  0  0  0  0  0  0
   -5.9046    2.1178   13.6311 C   0  0  2  0  0  0  0  0  0  0  0  0
   -8.6971    4.0840   19.6384 C   0  0  2  0  0  0  0  0  0  0  0  0
   -9.8145    3.3189   20.0871 O   0  0  0  0  0  0  0  0  0  0  0  0
   -6.2695    0.7740   13.1501 C   0  0  1  0  0  0  0  0  0  0  0  0
   -9.1905    5.2775   18.8281 C   0  0  0  0  0  0  0  0  0  0  0  0
  -10.0086    4.8076   17.7549 O   0  0  0  0  0  0  0  0  0  0  0  0
   -5.4327   -0.3639   13.5708 C   0  0  0  0  0  0  0  0  0  0  0  0
   -5.7204   -1.6244   13.1577 O   0  0  0  0  0  0  0  0  0  0  0  0
   -7.3596    0.9165   12.3882 N   0  0  0  0  0  0  0  0  0  0  0  0
   -7.6752    2.2446   12.3747 C   0  0  0  0  0  0  0  0  0  0  0  0
   -6.8083    2.9671   13.1151 N   0  0  1  0  0  0  0  0  0  0  0  0
  -11.2558   -2.4050   17.4477 N   0  0  0  0  0  0  0  0  0  0  0  0
  -11.1049    4.7630   15.1886 O   0  5  0  0  0  0  0  0  0  0  0  0
  -10.1903   -2.2232   18.2751 C   0  0  2  0  0  0  0  0  0  0  0  0
   -9.3878   -3.2804   18.5652 N   0  0  0  0  0  0  0  0  0  0  0  0
  -11.2066    7.1199   16.8835 O   0  0  0  0  0  0  0  0  0  0  0  0
   -9.9017   -1.0119   18.8243 N   0  0  0  0  0  0  0  0  0  0  0  0
  -10.6676    0.0766   18.5782 C   0  0  2  0  0  0  0  0  0  0  0  0
  -11.8302   -0.0562   17.6903 C   0  0  2  0  0  0  0  0  0  0  0  0
  -12.0894   -1.3952   17.1193 C   0  0  0  0  0  0  0  0  0  0  0  0
  -13.1375   -1.6139   16.2873 O   0  0  0  0  0  0  0  0  0  0  0  0
  -12.3972    1.1640   17.6127 N   0  0  0  0  0  0  0  0  0  0  0  0
  -11.6584    2.0085   18.3924 C   0  0  0  0  0  0  0  0  0  0  0  0
  -10.6236    1.3528   18.9653 N   0  0  1  0  0  0  0  0  0  0  0  0
  1  3  1  6  0  0  0
  1  4  2  0  0  0  0
  1  6  1  0  0  0  0
  1 22  1  0  0  0  0
  2 28  1  0  0  0  0
  2 35  1  6  0  0  0
  2 38  2  0  0  0  0
  2 10  1  0  0  0  0
  5  6  1  0  0  0  0
  7  5  1  1  0  0  0
  7  8  1  0  0  0  0
  7  9  1  0  0  0  0
  9 10  1  6  0  0  0
  9 11  1  0  0  0  0
 11 12  1  6  0  0  0
 11 13  1  0  0  0  0
 13  8  1  1  0  0  0
 13 33  1  0  0  0  0
 14 46  1  0  0  0  0
 14 17  1  0  0  0  0
 14 25  1  6  0  0  0
 15 16  1  0  0  0  0
 15 29  1  0  0  0  0
 16 18  1  6  0  0  0
 16 21  1  0  0  0  0
 17 19  1  1  0  0  0
 17 20  1  0  0  0  0
 20 22  1  1  0  0  0
 20 24  1  0  0  0  0
 23 21  1  6  0  0  0
 23 26  1  0  0  0  0
 23 33  1  0  0  0  0
 24 25  1  6  0  0  0
 24 27  1  0  0  0  0
 26 29  1  1  0  0  0
 26 31  1  0  0  0  0
 27 28  1  0  0  0  0
 29 30  2  0  0  0  0
 31 32  1  0  0  0  0
 33 32  1  1  0  0  0
 34 36  1  0  0  0  0
 34 42  1  0  0  0  0
 36 37  1  1  0  0  0
 36 39  1  0  0  0  0
 40 39  1  6  0  0  0
 40 41  1  0  0  0  0
 40 46  1  0  0  0  0
 41 42  1  6  0  0  0
 41 44  1  0  0  0  0
 42 43  2  0  0  0  0
 44 45  1  0  0  0  0
 46 45  1  1  0  0  0
M  CHG  2   3  -1  35  -1
M  END
>  <CHROM.1>
-4.29811182,59.95866758,-8.07762885,2.43185132,16.58229919,-0.48168423,-0.59655799
3.07708396

>  <Name>
ligand

>  <RI>
-1

>  <Rbt.Current_Directory>
/home/itssahil/PROJECTS/Mol_Feturizer/Test_systems_manuscript/rnas/3mum

>  <Rbt.Executable>
rbdock ($Id: //depot/dev/client3/rdock/2013.1/src/exe/rbdock.cxx#4 $)

>  <Rbt.Library>
libRbt.so (2013.1, Build901 2013/11/27)

>  <Rbt.Parameter_File>
/export/apps/rDock/src/rDock_2013.1_src/data/scripts/dock_solv.prm

>  <Rbt.Receptor>
prm/pocket_docking_7.prm

>  <SCORE>
-36.6705

>  <SCORE.INTER>
-38.0416

>  <SCORE.INTER.CONST>
1

>  <SCORE.INTER.POLAR>
0

>  <SCORE.INTER.ROT>
2

>  <SCORE.INTER.SOLV>
29.8139

>  <SCORE.INTER.VDW>
-40.2324

>  <SCORE.INTER.norm>
-0.826992

>  <SCORE.INTRA>
1.37115

>  <SCORE.INTRA.DIHEDRAL>
-0.00411698

>  <SCORE.INTRA.DIHEDRAL.0>
2.40424

>  <SCORE.INTRA.POLAR>
0

>  <SCORE.INTRA.POLAR.0>
0

>  <SCORE.INTRA.REPUL>
0

>  <SCORE.INTRA.REPUL.0>
0

>  <SCORE.INTRA.SOLV>
5.56738

>  <SCORE.INTRA.SOLV.lig_0>
-134.169

>  <SCORE.INTRA.VDW>
-1.41048

>  <SCORE.INTRA.VDW.0>
-2.18386

>  <SCORE.INTRA.norm>
0.0298076

>  <SCORE.RESTR>
0

>  <SCORE.RESTR.CAVITY>
0

>  <SCORE.RESTR.norm>
0

>  <SCORE.SYSTEM>
0

>  <SCORE.SYSTEM.CONST>
0

>  <SCORE.SYSTEM.DIHEDRAL>
0

>  <SCORE.SYSTEM.SOLV>
0

>  <SCORE.SYSTEM.norm>
0

>  <SCORE.heavy>
46

>  <SCORE.norm>
-0.797184

>  <RMSD>
2.082

$$$$
ligand
 OpenBabel02271912143D
libRbt.so/2013.1/901 2013/11/27
 46 52  0  0  0  0  0  0  0  0999 V2000
   -5.2950    2.8385   18.0196 P   0  0  1  0  0  0  0  0  0  0  0  0
  -10.1139    5.8118   16.4028 P   0  0  2  0  0  0  0  0  0  0  0  0
   -5.5143    1.1053   17.7196 O   0  5  0  0  0  0  0  0  0  0  0  0
   -3.6562    3.1993   18.6224 O   0  0  0  0  0  0  0  0  0  0  0  0
   -5.5721    5.0589   16.5997 C   0  0  0  0  0  0  0  0  0  0  0  0
   -5.5709    3.6319   16.6435 O   0  0  0  0  0  0  0  0  0  0  0  0
   -6.3163    5.5040   15.3551 C   0  0  1  0  0  0  0  0  0  0  0  0
   -5.7573    4.8525   14.2058 O   0  0  0  0  0  0  0  0  0  0  0  0
   -7.7871    5.1204   15.3658 C   0  0  1  0  0  0  0  0  0  0  0  0
   -8.6044    6.1413   15.9340 O   0  0  0  0  0  0  0  0  0  0  0  0
   -8.0959    4.8972   13.8958 C   0  0  1  0  0  0  0  0  0  0  0  0
   -8.5021    6.1260   13.2880 O   0  0  0  0  0  0  0  0  0  0  0  0
   -6.7807    4.4619   13.2768 C   0  0  2  0  0  0  0  0  0  0  0  0
   -9.5886    2.0199   19.8558 C   0  0  1  0  0  0  0  0  0  0  0  0
   -4.3870   -0.1553   14.3464 N   0  0  0  0  0  0  0  0  0  0  0  0
   -4.0561    1.0982   14.7606 C   0  0  1  0  0  0  0  0  0  0  0  0
   -8.2172    1.8118   19.2785 C   0  0  2  0  0  0  0  0  0  0  0  0
   -2.9724    1.2432   15.5576 N   0  0  0  0  0  0  0  0  0  0  0  0
   -7.3969    1.3352   20.3466 O   0  0  0  0  0  0  0  0  0  0  0  0
   -7.7878    3.1843   18.7991 C   0  0  2  0  0  0  0  0  0  0  0  0
   -4.7688    2.2076   14.4028 N   0  0  0  0  0  0  0  0  0  0  0  0
   -6.4050    3.4138   19.0324 O   0  0  0  0  0  0  0  0  0  0  0  0
   -5.8643    2.1151   13.6073 C   0  0  2  0  0  0  0  0  0  0  0  0
   -8.6203    4.1577   19.6104 C   0  0  2  0  0  0  0  0  0  0  0  0
   -9.7582    3.4223   20.0571 O   0  0  0  0  0  0  0  0  0  0  0  0
   -6.2644    0.7807   13.1281 C   0  0  1  0  0  0  0  0  0  0  0  0
   -9.0805    5.3631   18.7982 C   0  0  0  0  0  0  0  0  0  0  0  0
   -9.9083    4.9139   17.7235 O   0  0  0  0  0  0  0  0  0  0  0  0
   -5.4562   -0.3779   13.5483 C   0  0  0  0  0  0  0  0  0  0  0  0
   -5.7768   -1.6309   13.1369 O   0  0  0  0  0  0  0  0  0  0  0  0
   -7.3518    0.9504   12.3680 N   0  0  0  0  0  0  0  0  0  0  0  0
   -7.6333    2.2861   12.3540 C   0  0  0  0  0  0  0  0  0  0  0  0
   -6.7469    2.9868   13.0921 N   0  0  1  0  0  0  0  0  0  0  0  0
  -11.3422   -2.2637   17.4177 N   0  0  0  0  0  0  0  0  0  0  0  0
  -10.9996    4.8959   15.1548 O   0  5  0  0  0  0  0  0  0  0  0  0
  -10.2741   -2.1092   18.2473 C   0  0  2  0  0  0  0  0  0  0  0  0
   -9.4998   -3.1867   18.5396 N   0  0  0  0  0  0  0  0  0  0  0  0
  -11.0435    7.2560   16.8478 O   0  0  0  0  0  0  0  0  0  0  0  0
   -9.9553   -0.9055   18.7965 N   0  0  0  0  0  0  0  0  0  0  0  0
  -10.6922    0.2024   18.5483 C   0  0  2  0  0  0  0  0  0  0  0  0
  -11.8560    0.0993   17.6580 C   0  0  2  0  0  0  0  0  0  0  0  0
  -12.1486   -1.2328   17.0871 C   0  0  0  0  0  0  0  0  0  0  0  0
  -13.2003   -1.4248   16.2530 O   0  0  0  0  0  0  0  0  0  0  0  0
  -12.3910    1.3338   17.5787 N   0  0  0  0  0  0  0  0  0  0  0  0
  -11.6322    2.1592   18.3596 C   0  0  0  0  0  0  0  0  0  0  0  0
  -10.6160    1.4772   18.9350 N   0  0  1  0  0  0  0  0  0  0  0  0
  1  3  1  6  0  0  0
  1  4  2  0  0  0  0
  1  6  1  0  0  0  0
  1 22  1  0  0  0  0
  2 28  1  0  0  0  0
  2 35  1  6  0  0  0
  2 38  2  0  0  0  0
  2 10  1  0  0  0  0
  5  6  1  0  0  0  0
  7  5  1  1  0  0  0
  7  8  1  0  0  0  0
  7  9  1  0  0  0  0
  9 10  1  6  0  0  0
  9 11  1  0  0  0  0
 11 12  1  6  0  0  0
 11 13  1  0  0  0  0
 13  8  1  1  0  0  0
 13 33  1  0  0  0  0
 14 46  1  0  0  0  0
 14 17  1  0  0  0  0
 14 25  1  6  0  0  0
 15 16  1  0  0  0  0
 15 29  1  0  0  0  0
 16 18  1  6  0  0  0
 16 21  1  0  0  0  0
 17 19  1  1  0  0  0
 17 20  1  0  0  0  0
 20 22  1  1  0  0  0
 20 24  1  0  0  0  0
 23 21  1  6  0  0  0
 23 26  1  0  0  0  0
 23 33  1  0  0  0  0
 24 25  1  6  0  0  0
 24 27  1  0  0  0  0
 26 29  1  1  0  0  0
 26 31  1  0  0  0  0
 27 28  1  0  0  0  0
 29 30  2  0  0  0  0
 31 32  1  0  0  0  0
 33 32  1  1  0  0  0
 34 36  1  0  0  0  0
 34 42  1  0  0  0  0
 36 37  1  1  0  0  0
 36 39  1  0  0  0  0
 40 39  1  6  0  0  0
 40 41  1  0  0  0  0
 40 46  1  0  0  0  0
 41 42  1  6  0  0  0
 41 44  1  0  0  0  0
 42 43  2  0  0  0  0
 44 45  1  0  0  0  0
 46 45  1  1  0  0  0
M  CHG  2   3  -1  35  -1
M  END
>  <CHROM.1>
-4.53086858,59.93907080,-8.03659968,2.48774681,16.55578825,-0.44711134,-0.59610143
3.09466987

>  <Name>
ligand

>  <RI>
-1

>  <Rbt.Current_Directory>
/home/itssahil/PROJECTS/Mol_Feturizer/Test_systems_manuscript/rnas/3mum

>  <Rbt.Executable>
rbdock ($Id: //depot/dev/client3/rdock/2013.1/src/exe/rbdock.cxx#4 $)

>  <Rbt.Library>
libRbt.so (2013.1, Build901 2013/11/27)

>  <Rbt.Parameter_File>
/export/apps/rDock/src/rDock_2013.1_src/data/scripts/dock_solv.prm

>  <Rbt.Receptor>
prm/pocket_docking_6.prm

>  <SCORE>
-36.8165

>  <SCORE.INTER>
-38.1538

>  <SCORE.INTER.CONST>
1

>  <SCORE.INTER.POLAR>
0

>  <SCORE.INTER.ROT>
2

>  <SCORE.INTER.SOLV>
29.2094

>  <SCORE.INTER.VDW>
-40.1057

>  <SCORE.INTER.norm>
-0.82943

>  <SCORE.INTRA>
1.33734

>  <SCORE.INTRA.DIHEDRAL>
-0.00410241

>  <SCORE.INTRA.DIHEDRAL.0>
2.40424

>  <SCORE.INTRA.POLAR>
0

>  <SCORE.INTRA.POLAR.0>
0

>  <SCORE.INTRA.REPUL>
0

>  <SCORE.INTRA.REPUL.0>
0

>  <SCORE.INTRA.SOLV>
5.47756

>  <SCORE.INTRA.SOLV.lig_0>
-134.169

>  <SCORE.INTRA.VDW>
-1.39939

>  <SCORE.INTRA.VDW.0>
-2.18386

>  <SCORE.INTRA.norm>
0.0290726

>  <SCORE.RESTR>
0

>  <SCORE.RESTR.CAVITY>
0

>  <SCORE.RESTR.norm>
0

>  <SCORE.SYSTEM>
0

>  <SCORE.SYSTEM.CONST>
0

>  <SCORE.SYSTEM.DIHEDRAL>
0

>  <SCORE.SYSTEM.SOLV>
0

>  <SCORE.SYSTEM.norm>
0

>  <SCORE.heavy>
46

>  <SCORE.norm>
-0.800358

>  <RMSD>
2.088

$$$$
ligand
 OpenBabel02271912143D
libRbt.so/2013.1/901 2013/11/27
 46 52  0  0  0  0  0  0  0  0999 V2000
   -5.5414    2.9015   18.3368 P   0  0  1  0  0  0  0  0  0  0  0  0
  -10.3159    5.7376   16.3781 P   0  0  2  0  0  0  0  0  0  0  0  0
   -5.7227    1.1551   18.0938 O   0  5  0  0  0  0  0  0  0  0  0  0
   -3.9386    3.3098   19.0028 O   0  0  0  0  0  0  0  0  0  0  0  0
   -5.7793    5.0621   16.8206 C   0  0  0  0  0  0  0  0  0  0  0  0
   -5.7611    3.6379   16.9195 O   0  0  0  0  0  0  0  0  0  0  0  0
   -6.4684    5.4483   15.5257 C   0  0  1  0  0  0  0  0  0  0  0  0
   -5.8458    4.7623   14.4304 O   0  0  0  0  0  0  0  0  0  0  0  0
   -7.9327    5.0430   15.4809 C   0  0  1  0  0  0  0  0  0  0  0  0
   -8.7902    6.0721   15.9696 O   0  0  0  0  0  0  0  0  0  0  0  0
   -8.1671    4.7596   14.0076 C   0  0  1  0  0  0  0  0  0  0  0  0
   -8.5599    5.9581   13.3341 O   0  0  0  0  0  0  0  0  0  0  0  0
   -6.8178    4.3213   13.4694 C   0  0  2  0  0  0  0  0  0  0  0  0
   -9.9073    2.0877   19.9960 C   0  0  1  0  0  0  0  0  0  0  0  0
   -4.1452   -0.1684   14.4143 N   0  0  0  0  0  0  0  0  0  0  0  0
   -3.8091    1.1121   14.7300 C   0  0  1  0  0  0  0  0  0  0  0  0
   -8.5070    1.8789   19.4933 C   0  0  2  0  0  0  0  0  0  0  0  0
   -2.6388    1.3259   15.3744 N   0  0  0  0  0  0  0  0  0  0  0  0
   -7.7329    1.4557   20.6170 O   0  0  0  0  0  0  0  0  0  0  0  0
   -8.0734    3.2386   18.9824 C   0  0  2  0  0  0  0  0  0  0  0  0
   -4.6004    2.1821   14.4207 N   0  0  0  0  0  0  0  0  0  0  0  0
   -6.7066    3.4978   19.2725 O   0  0  0  0  0  0  0  0  0  0  0  0
   -5.7841    2.0205   13.7770 C   0  0  2  0  0  0  0  0  0  0  0  0
   -8.9570    4.2292   19.7148 C   0  0  2  0  0  0  0  0  0  0  0  0
  -10.1053    3.4941   20.1347 O   0  0  0  0  0  0  0  0  0  0  0  0
   -6.1941    0.6541   13.4093 C   0  0  1  0  0  0  0  0  0  0  0  0
   -9.3936    5.3958   18.8357 C   0  0  0  0  0  0  0  0  0  0  0  0
  -10.1624    4.8936   17.7408 O   0  0  0  0  0  0  0  0  0  0  0  0
   -5.2985   -0.4593   13.7702 C   0  0  0  0  0  0  0  0  0  0  0  0
   -5.6240   -1.7389   13.4560 O   0  0  0  0  0  0  0  0  0  0  0  0
   -7.3746    0.7562   12.7887 N   0  0  0  0  0  0  0  0  0  0  0  0
   -7.7029    2.0808   12.7552 C   0  0  0  0  0  0  0  0  0  0  0  0
   -6.7553    2.8409   13.3435 N   0  0  1  0  0  0  0  0  0  0  0  0
  -11.2443   -2.2151   17.3377 N   0  0  0  0  0  0  0  0  0  0  0  0
  -11.1280    4.7618   15.1255 O   0  5  0  0  0  0  0  0  0  0  0  0
  -10.1917   -1.9993   18.1734 C   0  0  2  0  0  0  0  0  0  0  0  0
   -9.3131   -3.0087   18.4081 N   0  0  0  0  0  0  0  0  0  0  0  0
  -11.2852    7.1834   16.7221 O   0  0  0  0  0  0  0  0  0  0  0  0
   -9.9899   -0.8002   18.7849 N   0  0  0  0  0  0  0  0  0  0  0  0
  -10.8341    0.2408   18.5957 C   0  0  2  0  0  0  0  0  0  0  0  0
  -11.9873    0.0698   17.7022 C   0  0  2  0  0  0  0  0  0  0  0  0
  -12.1504   -1.2532   17.0624 C   0  0  0  0  0  0  0  0  0  0  0  0
  -13.1830   -1.5043   16.2202 O   0  0  0  0  0  0  0  0  0  0  0  0
  -12.6420    1.2477   17.6882 N   0  0  0  0  0  0  0  0  0  0  0  0
  -11.9636    2.1023   18.5108 C   0  0  0  0  0  0  0  0  0  0  0  0
  -10.8817    1.4950   19.0488 N   0  0  1  0  0  0  0  0  0  0  0  0
  1  3  1  6  0  0  0
  1  4  2  0  0  0  0
  1  6  1  0  0  0  0
  1 22  1  0  0  0  0
  2 28  1  0  0  0  0
  2 35  1  6  0  0  0
  2 38  2  0  0  0  0
  2 10  1  0  0  0  0
  5  6  1  0  0  0  0
  7  5  1  1  0  0  0
  7  8  1  0  0  0  0
  7  9  1  0  0  0  0
  9 10  1  6  0  0  0
  9 11  1  0  0  0  0
 11 12  1  6  0  0  0
 11 13  1  0  0  0  0
 13  8  1  1  0  0  0
 13 33  1  0  0  0  0
 14 46  1  0  0  0  0
 14 17  1  0  0  0  0
 14 25  1  6  0  0  0
 15 16  1  0  0  0  0
 15 29  1  0  0  0  0
 16 18  1  6  0  0  0
 16 21  1  0  0  0  0
 17 19  1  1  0  0  0
 17 20  1  0  0  0  0
 20 22  1  1  0  0  0
 20 24  1  0  0  0  0
 23 21  1  6  0  0  0
 23 26  1  0  0  0  0
 23 33  1  0  0  0  0
 24 25  1  6  0  0  0
 24 27  1  0  0  0  0
 26 29  1  1  0  0  0
 26 31  1  0  0  0  0
 27 28  1  0  0  0  0
 29 30  2  0  0  0  0
 31 32  1  0  0  0  0
 33 32  1  1  0  0  0
 34 36  1  0  0  0  0
 34 42  1  0  0  0  0
 36 37  1  1  0  0  0
 36 39  1  0  0  0  0
 40 39  1  6  0  0  0
 40 41  1  0  0  0  0
 40 46  1  0  0  0  0
 41 42  1  6  0  0  0
 41 44  1  0  0  0  0
 42 43  2  0  0  0  0
 44 45  1  0  0  0  0
 46 45  1  1  0  0  0
M  CHG  2   3  -1  35  -1
M  END
>  <CHROM.1>
-14.68644652,52.24387985,-8.14855535,2.46935522,16.67995688,0.26467907,0.56500065
-0.04196426

>  <Name>
ligand

>  <RI>
-1

>  <Rbt.Current_Directory>
/home/itssahil/PROJECTS/Mol_Feturizer/Test_systems_manuscript/rnas/3mum

>  <Rbt.Executable>
rbdock ($Id: //depot/dev/client3/rdock/2013.1/src/exe/rbdock.cxx#4 $)

>  <Rbt.Library>
libRbt.so (2013.1, Build901 2013/11/27)

>  <Rbt.Parameter_File>
/export/apps/rDock/src/rDock_2013.1_src/data/scripts/dock_solv.prm

>  <Rbt.Receptor>
prm/pocket_docking_7.prm

>  <SCORE>
-34.5816

>  <SCORE.INTER>
-34.5994

>  <SCORE.INTER.CONST>
1

>  <SCORE.INTER.POLAR>
0

>  <SCORE.INTER.ROT>
2

>  <SCORE.INTER.SOLV>
31.619

>  <SCORE.INTER.VDW>
-38.5393

>  <SCORE.INTER.norm>
-0.752162

>  <SCORE.INTRA>
0.0178206

>  <SCORE.INTRA.DIHEDRAL>
-0.0131907

>  <SCORE.INTRA.DIHEDRAL.0>
2.40424

>  <SCORE.INTRA.POLAR>
0

>  <SCORE.INTRA.POLAR.0>
0

>  <SCORE.INTRA.REPUL>
0

>  <SCORE.INTRA.REPUL.0>
0

>  <SCORE.INTRA.SOLV>
1.39615

>  <SCORE.INTRA.SOLV.lig_0>
-134.169

>  <SCORE.INTRA.VDW>
-0.673657

>  <SCORE.INTRA.VDW.0>
-2.18386

>  <SCORE.INTRA.norm>
0.000387405

>  <SCORE.RESTR>
0

>  <SCORE.RESTR.CAVITY>
0

>  <SCORE.RESTR.norm>
0

>  <SCORE.SYSTEM>
0

>  <SCORE.SYSTEM.CONST>
0

>  <SCORE.SYSTEM.DIHEDRAL>
0

>  <SCORE.SYSTEM.SOLV>
0

>  <SCORE.SYSTEM.norm>
0

>  <SCORE.heavy>
46

>  <SCORE.norm>
-0.751774

>  <RMSD>
2.097

$$$$
ligand
 OpenBabel02271912143D
libRbt.so/2013.1/901 2013/11/27
 46 52  0  0  0  0  0  0  0  0999 V2000
   -5.2538    2.8032   17.8962 P   0  0  1  0  0  0  0  0  0  0  0  0
  -10.0849    5.8620   16.4889 P   0  0  2  0  0  0  0  0  0  0  0  0
   -5.5002    1.0799   17.5626 O   0  5  0  0  0  0  0  0  0  0  0  0
   -3.5946    3.1333   18.4596 O   0  0  0  0  0  0  0  0  0  0  0  0
   -5.5477    5.0591   16.5368 C   0  0  0  0  0  0  0  0  0  0  0  0
   -5.5605    3.6314   16.5474 O   0  0  0  0  0  0  0  0  0  0  0  0
   -6.3225    5.5407   15.3249 C   0  0  1  0  0  0  0  0  0  0  0  0
   -5.8037    4.9108   14.1451 O   0  0  0  0  0  0  0  0  0  0  0  0
   -7.7964    5.1718   15.3692 C   0  0  1  0  0  0  0  0  0  0  0  0
   -8.5861    6.1872   15.9843 O   0  0  0  0  0  0  0  0  0  0  0  0
   -8.1496    4.9863   13.9040 C   0  0  1  0  0  0  0  0  0  0  0  0
   -8.5599    6.2330   13.3369 O   0  0  0  0  0  0  0  0  0  0  0  0
   -6.8574    4.5524   13.2373 C   0  0  2  0  0  0  0  0  0  0  0  0
   -9.5014    1.9850   19.8365 C   0  0  1  0  0  0  0  0  0  0  0  0
   -4.6730   -0.1510   14.3768 N   0  0  0  0  0  0  0  0  0  0  0  0
   -4.3464    1.0830   14.8490 C   0  0  1  0  0  0  0  0  0  0  0  0
   -8.1495    1.7768   19.2150 C   0  0  2  0  0  0  0  0  0  0  0  0
   -3.3283    1.1800   15.7348 N   0  0  0  0  0  0  0  0  0  0  0  0
   -7.3040    1.2670   20.2476 O   0  0  0  0  0  0  0  0  0  0  0  0
   -7.7194    3.1557   18.7554 C   0  0  2  0  0  0  0  0  0  0  0  0
   -5.0001    2.2191   14.4637 N   0  0  0  0  0  0  0  0  0  0  0  0
   -6.3280    3.3658   18.9538 O   0  0  0  0  0  0  0  0  0  0  0  0
   -6.0288    2.1749   13.5797 C   0  0  2  0  0  0  0  0  0  0  0  0
   -8.5177    4.1181   19.6127 C   0  0  2  0  0  0  0  0  0  0  0  0
   -9.6502    3.3840   20.0750 O   0  0  0  0  0  0  0  0  0  0  0  0
   -6.4209    0.8634   13.0351 C   0  0  1  0  0  0  0  0  0  0  0  0
   -8.9881    5.3468   18.8423 C   0  0  0  0  0  0  0  0  0  0  0  0
   -9.8511    4.9313   17.7819 O   0  0  0  0  0  0  0  0  0  0  0  0
   -5.6785   -0.3260   13.4891 C   0  0  0  0  0  0  0  0  0  0  0  0
   -5.9950   -1.5598   13.0205 O   0  0  0  0  0  0  0  0  0  0  0  0
   -7.4381    1.0801   12.1940 N   0  0  0  0  0  0  0  0  0  0  0  0
   -7.6847    2.4228   12.1920 C   0  0  0  0  0  0  0  0  0  0  0  0
   -6.8447    3.0818   13.0176 N   0  0  1  0  0  0  0  0  0  0  0  0
  -11.4278   -2.2421   17.4303 N   0  0  0  0  0  0  0  0  0  0  0  0
  -11.0158    4.9847   15.2461 O   0  5  0  0  0  0  0  0  0  0  0  0
  -10.3416   -2.1208   18.2416 C   0  0  2  0  0  0  0  0  0  0  0  0
   -9.5961   -3.2218   18.5213 N   0  0  0  0  0  0  0  0  0  0  0  0
  -10.9858    7.3047   16.9939 O   0  0  0  0  0  0  0  0  0  0  0  0
   -9.9764   -0.9275   18.7848 N   0  0  0  0  0  0  0  0  0  0  0  0
  -10.6828    0.2027   18.5486 C   0  0  2  0  0  0  0  0  0  0  0  0
  -11.8642    0.1357   17.6782 C   0  0  2  0  0  0  0  0  0  0  0  0
  -12.2075   -1.1867   17.1130 C   0  0  0  0  0  0  0  0  0  0  0  0
  -13.2785   -1.3460   16.2969 O   0  0  0  0  0  0  0  0  0  0  0  0
  -12.3619    1.3861   17.6074 N   0  0  0  0  0  0  0  0  0  0  0  0
  -11.5648    2.1876   18.3750 C   0  0  0  0  0  0  0  0  0  0  0  0
  -10.5606    1.4745   18.9334 N   0  0  1  0  0  0  0  0  0  0  0  0
  1  3  1  6  0  0  0
  1  4  2  0  0  0  0
  1  6  1  0  0  0  0
  1 22  1  0  0  0  0
  2 28  1  0  0  0  0
  2 35  1  6  0  0  0
  2 38  2  0  0  0  0
  2 10  1  0  0  0  0
  5  6  1  0  0  0  0
  7  5  1  1  0  0  0
  7  8  1  0  0  0  0
  7  9  1  0  0  0  0
  9 10  1  6  0  0  0
  9 11  1  0  0  0  0
 11 12  1  6  0  0  0
 11 13  1  0  0  0  0
 13  8  1  1  0  0  0
 13 33  1  0  0  0  0
 14 46  1  0  0  0  0
 14 17  1  0  0  0  0
 14 25  1  6  0  0  0
 15 16  1  0  0  0  0
 15 29  1  0  0  0  0
 16 18  1  6  0  0  0
 16 21  1  0  0  0  0
 17 19  1  1  0  0  0
 17 20  1  0  0  0  0
 20 22  1  1  0  0  0
 20 24  1  0  0  0  0
 23 21  1  6  0  0  0
 23 26  1  0  0  0  0
 23 33  1  0  0  0  0
 24 25  1  6  0  0  0
 24 27  1  0  0  0  0
 26 29  1  1  0  0  0
 26 31  1  0  0  0  0
 27 28  1  0  0  0  0
 29 30  2  0  0  0  0
 31 32  1  0  0  0  0
 33 32  1  1  0  0  0
 34 36  1  0  0  0  0
 34 42  1  0  0  0  0
 36 37  1  1  0  0  0
 36 39  1  0  0  0  0
 40 39  1  6  0  0  0
 40 41  1  0  0  0  0
 40 46  1  0  0  0  0
 41 42  1  6  0  0  0
 41 44  1  0  0  0  0
 42 43  2  0  0  0  0
 44 45  1  0  0  0  0
 46 45  1  1  0  0  0
M  CHG  2   3  -1  35  -1
M  END
>  <CHROM.1>
1.85134343,61.85395818,-8.06660423,2.50824504,16.53991484,-0.52522522,-0.61952081
3.10686433

>  <Name>
ligand

>  <RI>
416

>  <Rbt.Current_Directory>
/home/itssahil/PROJECTS/Mol_Feturizer/Test_systems_manuscript/rnas/3mum

>  <Rbt.Executable>
rbdock ($Id: //depot/dev/client3/rdock/2013.1/src/exe/rbdock.cxx#4 $)

>  <Rbt.Library>
libRbt.so (2013.1, Build901 2013/11/27)

>  <Rbt.Parameter_File>
/export/apps/rDock/src/rDock_2013.1_src/data/scripts/dock_solv.prm

>  <Rbt.Receptor>
prm/pocket_docking_3.prm

>  <SCORE>
-35.7656

>  <SCORE.INTER>
-38.396

>  <SCORE.INTER.CONST>
1

>  <SCORE.INTER.POLAR>
0

>  <SCORE.INTER.ROT>
2

>  <SCORE.INTER.SOLV>
28.1712

>  <SCORE.INTER.VDW>
-39.9211

>  <SCORE.INTER.norm>
-0.834697

>  <SCORE.INTRA>
2.55871

>  <SCORE.INTRA.DIHEDRAL>
-0.002539

>  <SCORE.INTRA.DIHEDRAL.0>
2.40424

>  <SCORE.INTRA.POLAR>
0

>  <SCORE.INTRA.POLAR.0>
0

>  <SCORE.INTRA.REPUL>
0

>  <SCORE.INTRA.REPUL.0>
0

>  <SCORE.INTRA.SOLV>
7.96534

>  <SCORE.INTRA.SOLV.lig_0>
-134.169

>  <SCORE.INTRA.VDW>
-1.42269

>  <SCORE.INTRA.VDW.0>
-2.18386

>  <SCORE.INTRA.norm>
0.0556241

>  <SCORE.RESTR>
0.071738

>  <SCORE.RESTR.CAVITY>
0.071738

>  <SCORE.RESTR.norm>
0.00155952

>  <SCORE.SYSTEM>
0

>  <SCORE.SYSTEM.CONST>
0

>  <SCORE.SYSTEM.DIHEDRAL>
0

>  <SCORE.SYSTEM.SOLV>
0

>  <SCORE.SYSTEM.norm>
0

>  <SCORE.heavy>
46

>  <SCORE.norm>
-0.777513

>  <RMSD>
2.104

$$$$
ligand
 OpenBabel02271912143D
libRbt.so/2013.1/901 2013/11/27
 46 52  0  0  0  0  0  0  0  0999 V2000
   -5.2816    2.8215   17.9420 P   0  0  1  0  0  0  0  0  0  0  0  0
  -10.1415    5.8260   16.5172 P   0  0  2  0  0  0  0  0  0  0  0  0
   -5.5052    1.0964   17.6013 O   0  5  0  0  0  0  0  0  0  0  0  0
   -3.6297    3.1698   18.5158 O   0  0  0  0  0  0  0  0  0  0  0  0
   -5.5952    5.0781   16.5882 C   0  0  0  0  0  0  0  0  0  0  0  0
   -5.5908    3.6504   16.5942 O   0  0  0  0  0  0  0  0  0  0  0  0
   -6.3689    5.5543   15.3736 C   0  0  1  0  0  0  0  0  0  0  0  0
   -5.8359    4.9347   14.1947 O   0  0  0  0  0  0  0  0  0  0  0  0
   -7.8385    5.1674   15.4083 C   0  0  1  0  0  0  0  0  0  0  0  0
   -8.6440    6.1711   16.0222 O   0  0  0  0  0  0  0  0  0  0  0  0
   -8.1812    4.9825   13.9405 C   0  0  1  0  0  0  0  0  0  0  0  0
   -8.6033    6.2261   13.3751 O   0  0  0  0  0  0  0  0  0  0  0  0
   -6.8800    4.5667   13.2798 C   0  0  2  0  0  0  0  0  0  0  0  0
   -9.5299    1.9452   19.8553 C   0  0  1  0  0  0  0  0  0  0  0  0
   -4.6345   -0.1116   14.4040 N   0  0  0  0  0  0  0  0  0  0  0  0
   -4.3240    1.1250   14.8802 C   0  0  1  0  0  0  0  0  0  0  0  0
   -8.1721    1.7555   19.2409 C   0  0  2  0  0  0  0  0  0  0  0  0
   -3.3071    1.2324   15.7663 N   0  0  0  0  0  0  0  0  0  0  0  0
   -7.3263    1.2526   20.2766 O   0  0  0  0  0  0  0  0  0  0  0  0
   -7.7561    3.1411   18.7882 C   0  0  2  0  0  0  0  0  0  0  0  0
   -4.9924    2.2538   14.4985 N   0  0  0  0  0  0  0  0  0  0  0  0
   -6.3686    3.3674   18.9952 O   0  0  0  0  0  0  0  0  0  0  0  0
   -6.0205    2.1990   13.6145 C   0  0  2  0  0  0  0  0  0  0  0  0
   -8.5709    4.0909   19.6441 C   0  0  2  0  0  0  0  0  0  0  0  0
   -9.6970    3.3415   20.0976 O   0  0  0  0  0  0  0  0  0  0  0  0
   -6.3956    0.8843   13.0656 C   0  0  1  0  0  0  0  0  0  0  0  0
   -9.0518    5.3164   18.8751 C   0  0  0  0  0  0  0  0  0  0  0  0
   -9.9038    4.8939   17.8085 O   0  0  0  0  0  0  0  0  0  0  0  0
   -5.6376   -0.2968   13.5158 C   0  0  0  0  0  0  0  0  0  0  0  0
   -5.9381   -1.5331   13.0432 O   0  0  0  0  0  0  0  0  0  0  0  0
   -7.4156    1.0904   12.2253 N   0  0  0  0  0  0  0  0  0  0  0  0
   -7.6796    2.4298   12.2276 C   0  0  0  0  0  0  0  0  0  0  0  0
   -6.8482    3.0970   13.0553 N   0  0  1  0  0  0  0  0  0  0  0  0
  -11.3738   -2.2910   17.4011 N   0  0  0  0  0  0  0  0  0  0  0  0
  -11.0547    4.9416   15.2662 O   0  5  0  0  0  0  0  0  0  0  0  0
  -10.2916   -2.1584   18.2161 C   0  0  2  0  0  0  0  0  0  0  0  0
   -9.5268   -3.2484   18.4861 N   0  0  0  0  0  0  0  0  0  0  0  0
  -11.0628    7.2560   17.0218 O   0  0  0  0  0  0  0  0  0  0  0  0
   -9.9494   -0.9644   18.7725 N   0  0  0  0  0  0  0  0  0  0  0  0
  -10.6758    0.1552   18.5464 C   0  0  2  0  0  0  0  0  0  0  0  0
  -11.8539    0.0757   17.6726 C   0  0  2  0  0  0  0  0  0  0  0  0
  -12.1718   -1.2468   17.0929 C   0  0  0  0  0  0  0  0  0  0  0  0
  -13.2381   -1.4171   16.2727 O   0  0  0  0  0  0  0  0  0  0  0  0
  -12.3743    1.3175   17.6135 N   0  0  0  0  0  0  0  0  0  0  0  0
  -11.5935    2.1254   18.3912 C   0  0  0  0  0  0  0  0  0  0  0  0
  -10.5777    1.4249   18.9445 N   0  0  1  0  0  0  0  0  0  0  0  0
  1  3  1  6  0  0  0
  1  4  2  0  0  0  0
  1  6  1  0  0  0  0
  1 22  1  0  0  0  0
  2 28  1  0  0  0  0
  2 35  1  6  0  0  0
  2 38  2  0  0  0  0
  2 10  1  0  0  0  0
  5  6  1  0  0  0  0
  7  5  1  1  0  0  0
  7  8  1  0  0  0  0
  7  9  1  0  0  0  0
  9 10  1  6  0  0  0
  9 11  1  0  0  0  0
 11 12  1  6  0  0  0
 11 13  1  0  0  0  0
 13  8  1  1  0  0  0
 13 33  1  0  0  0  0
 14 46  1  0  0  0  0
 14 17  1  0  0  0  0
 14 25  1  6  0  0  0
 15 16  1  0  0  0  0
 15 29  1  0  0  0  0
 16 18  1  6  0  0  0
 16 21  1  0  0  0  0
 17 19  1  1  0  0  0
 17 20  1  0  0  0  0
 20 22  1  1  0  0  0
 20 24  1  0  0  0  0
 23 21  1  6  0  0  0
 23 26  1  0  0  0  0
 23 33  1  0  0  0  0
 24 25  1  6  0  0  0
 24 27  1  0  0  0  0
 26 29  1  1  0  0  0
 26 31  1  0  0  0  0
 27 28  1  0  0  0  0
 29 30  2  0  0  0  0
 31 32  1  0  0  0  0
 33 32  1  1  0  0  0
 34 36  1  0  0  0  0
 34 42  1  0  0  0  0
 36 37  1  1  0  0  0
 36 39  1  0  0  0  0
 40 39  1  6  0  0  0
 40 41  1  0  0  0  0
 40 46  1  0  0  0  0
 41 42  1  6  0  0  0
 41 44  1  0  0  0  0
 42 43  2  0  0  0  0
 44 45  1  0  0  0  0
 46 45  1  1  0  0  0
M  CHG  2   3  -1  35  -1
M  END
>  <CHROM.1>
1.51946228,61.28485880,-8.07988102,2.49775873,16.56483405,-0.53273979,-0.61360154
3.10411748

>  <Name>
ligand

>  <RI>
416

>  <Rbt.Current_Directory>
/home/itssahil/PROJECTS/Mol_Feturizer/Test_systems_manuscript/rnas/3mum

>  <Rbt.Executable>
rbdock ($Id: //depot/dev/client3/rdock/2013.1/src/exe/rbdock.cxx#4 $)

>  <Rbt.Library>
libRbt.so (2013.1, Build901 2013/11/27)

>  <Rbt.Parameter_File>
/export/apps/rDock/src/rDock_2013.1_src/data/scripts/dock_solv.prm

>  <Rbt.Receptor>
prm/pocket_docking_3.prm

>  <SCORE>
-35.8817

>  <SCORE.INTER>
-38.4503

>  <SCORE.INTER.CONST>
1

>  <SCORE.INTER.POLAR>
0

>  <SCORE.INTER.ROT>
2

>  <SCORE.INTER.SOLV>
28.2747

>  <SCORE.INTER.VDW>
-39.9918

>  <SCORE.INTER.norm>
-0.835875

>  <SCORE.INTRA>
2.47566

>  <SCORE.INTRA.DIHEDRAL>
-0.00329654

>  <SCORE.INTRA.DIHEDRAL.0>
2.40424

>  <SCORE.INTRA.POLAR>
0

>  <SCORE.INTRA.POLAR.0>
0

>  <SCORE.INTRA.REPUL>
0

>  <SCORE.INTRA.REPUL.0>
0

>  <SCORE.INTRA.SOLV>
7.84259

>  <SCORE.INTRA.SOLV.lig_0>
-134.169

>  <SCORE.INTRA.VDW>
-1.44399

>  <SCORE.INTRA.VDW.0>
-2.18386

>  <SCORE.INTRA.norm>
0.0538187

>  <SCORE.RESTR>
0.0929119

>  <SCORE.RESTR.CAVITY>
0.0929119

>  <SCORE.RESTR.norm>
0.00201982

>  <SCORE.SYSTEM>
0

>  <SCORE.SYSTEM.CONST>
0

>  <SCORE.SYSTEM.DIHEDRAL>
0

>  <SCORE.SYSTEM.SOLV>
0

>  <SCORE.SYSTEM.norm>
0

>  <SCORE.heavy>
46

>  <SCORE.norm>
-0.780037

>  <RMSD>
2.112

$$$$
ligand
 OpenBabel02271912143D
libRbt.so/2013.1/901 2013/11/27
 46 52  0  0  0  0  0  0  0  0999 V2000
   -5.3103    2.8449   17.9557 P   0  0  1  0  0  0  0  0  0  0  0  0
  -10.1822    5.8221   16.5148 P   0  0  2  0  0  0  0  0  0  0  0  0
   -5.5221    1.1190   17.6119 O   0  5  0  0  0  0  0  0  0  0  0  0
   -3.6629    3.2023   18.5368 O   0  0  0  0  0  0  0  0  0  0  0  0
   -5.6319    5.1014   16.6036 C   0  0  0  0  0  0  0  0  0  0  0  0
   -5.6189    3.6737   16.6077 O   0  0  0  0  0  0  0  0  0  0  0  0
   -6.4034    5.5746   15.3865 C   0  0  1  0  0  0  0  0  0  0  0  0
   -5.8618    4.9597   14.2089 O   0  0  0  0  0  0  0  0  0  0  0  0
   -7.8707    5.1788   15.4146 C   0  0  1  0  0  0  0  0  0  0  0  0
   -8.6847    6.1768   16.0265 O   0  0  0  0  0  0  0  0  0  0  0  0
   -8.2063    4.9938   13.9452 C   0  0  1  0  0  0  0  0  0  0  0  0
   -8.6336    6.2356   13.3796 O   0  0  0  0  0  0  0  0  0  0  0  0
   -6.9000    4.5866   13.2892 C   0  0  2  0  0  0  0  0  0  0  0  0
   -9.5611    1.9406   19.8504 C   0  0  1  0  0  0  0  0  0  0  0  0
   -4.6456   -0.0826   14.4333 N   0  0  0  0  0  0  0  0  0  0  0  0
   -4.3467    1.1548   14.9150 C   0  0  1  0  0  0  0  0  0  0  0  0
   -8.1996    1.7599   19.2413 C   0  0  2  0  0  0  0  0  0  0  0  0
   -3.3410    1.2657   15.8133 N   0  0  0  0  0  0  0  0  0  0  0  0
   -7.3551    1.2607   20.2799 O   0  0  0  0  0  0  0  0  0  0  0  0
   -7.7901    3.1486   18.7922 C   0  0  2  0  0  0  0  0  0  0  0  0
   -5.0160    2.2810   14.5271 N   0  0  0  0  0  0  0  0  0  0  0  0
   -6.4048    3.3829   19.0052 O   0  0  0  0  0  0  0  0  0  0  0  0
   -6.0332    2.2226   13.6307 C   0  0  2  0  0  0  0  0  0  0  0  0
   -8.6141    4.0923   19.6460 C   0  0  2  0  0  0  0  0  0  0  0  0
   -9.7375    3.3356   20.0938 O   0  0  0  0  0  0  0  0  0  0  0  0
   -6.3953    0.9069   13.0754 C   0  0  1  0  0  0  0  0  0  0  0  0
   -9.0992    5.3159   18.8766 C   0  0  0  0  0  0  0  0  0  0  0  0
   -9.9442    4.8898   17.8059 O   0  0  0  0  0  0  0  0  0  0  0  0
   -5.6372   -0.2712   13.5329 C   0  0  0  0  0  0  0  0  0  0  0  0
   -5.9260   -1.5082   13.0550 O   0  0  0  0  0  0  0  0  0  0  0  0
   -7.4062    1.1095   12.2233 N   0  0  0  0  0  0  0  0  0  0  0  0
   -7.6767    2.4476   12.2244 C   0  0  0  0  0  0  0  0  0  0  0  0
   -6.8584    3.1175   13.0630 N   0  0  1  0  0  0  0  0  0  0  0  0
  -11.3665   -2.3023   17.3793 N   0  0  0  0  0  0  0  0  0  0  0  0
  -11.0849    4.9339   15.2590 O   0  5  0  0  0  0  0  0  0  0  0  0
  -10.2882   -2.1641   18.1985 C   0  0  2  0  0  0  0  0  0  0  0  0
   -9.5167   -3.2494   18.4685 N   0  0  0  0  0  0  0  0  0  0  0  0
  -11.1141    7.2459   17.0175 O   0  0  0  0  0  0  0  0  0  0  0  0
   -9.9563   -0.9691   18.7590 N   0  0  0  0  0  0  0  0  0  0  0  0
  -10.6898    0.1459   18.5330 C   0  0  2  0  0  0  0  0  0  0  0  0
  -11.8642    0.0603   17.6549 C   0  0  2  0  0  0  0  0  0  0  0  0
  -12.1708   -1.2629   17.0708 C   0  0  0  0  0  0  0  0  0  0  0  0
  -13.2329   -1.4386   16.2465 O   0  0  0  0  0  0  0  0  0  0  0  0
  -12.3930    1.2986   17.5971 N   0  0  0  0  0  0  0  0  0  0  0  0
  -11.6207    2.1100   18.3795 C   0  0  0  0  0  0  0  0  0  0  0  0
  -10.6019    1.4153   18.9346 N   0  0  1  0  0  0  0  0  0  0  0  0
  1  3  1  6  0  0  0
  1  4  2  0  0  0  0
  1  6  1  0  0  0  0
  1 22  1  0  0  0  0
  2 28  1  0  0  0  0
  2 35  1  6  0  0  0
  2 38  2  0  0  0  0
  2 10  1  0  0  0  0
  5  6  1  0  0  0  0
  7  5  1  1  0  0  0
  7  8  1  0  0  0  0
  7  9  1  0  0  0  0
  9 10  1  6  0  0  0
  9 11  1  0  0  0  0
 11 12  1  6  0  0  0
 11 13  1  0  0  0  0
 13  8  1  1  0  0  0
 13 33  1  0  0  0  0
 14 46  1  0  0  0  0
 14 17  1  0  0  0  0
 14 25  1  6  0  0  0
 15 16  1  0  0  0  0
 15 29  1  0  0  0  0
 16 18  1  6  0  0  0
 16 21  1  0  0  0  0
 17 19  1  1  0  0  0
 17 20  1  0  0  0  0
 20 22  1  1  0  0  0
 20 24  1  0  0  0  0
 23 21  1  6  0  0  0
 23 26  1  0  0  0  0
 23 33  1  0  0  0  0
 24 25  1  6  0  0  0
 24 27  1  0  0  0  0
 26 29  1  1  0  0  0
 26 31  1  0  0  0  0
 27 28  1  0  0  0  0
 29 30  2  0  0  0  0
 31 32  1  0  0  0  0
 33 32  1  1  0  0  0
 34 36  1  0  0  0  0
 34 42  1  0  0  0  0
 36 37  1  1  0  0  0
 36 39  1  0  0  0  0
 40 39  1  6  0  0  0
 40 41  1  0  0  0  0
 40 46  1  0  0  0  0
 41 42  1  6  0  0  0
 41 44  1  0  0  0  0
 42 43  2  0  0  0  0
 44 45  1  0  0  0  0
 46 45  1  1  0  0  0
M  CHG  2   3  -1  35  -1
M  END
>  <CHROM.1>
1.97435984,61.19056418,-8.10212760,2.50600930,16.56803742,-0.54487803,-0.60903178
3.10102774

>  <Name>
ligand

>  <RI>
416

>  <Rbt.Current_Directory>
/home/itssahil/PROJECTS/Mol_Feturizer/Test_systems_manuscript/rnas/3mum

>  <Rbt.Executable>
rbdock ($Id: //depot/dev/client3/rdock/2013.1/src/exe/rbdock.cxx#4 $)

>  <Rbt.Library>
libRbt.so (2013.1, Build901 2013/11/27)

>  <Rbt.Parameter_File>
/export/apps/rDock/src/rDock_2013.1_src/data/scripts/dock_solv.prm

>  <Rbt.Receptor>
prm/pocket_docking_3.prm

>  <SCORE>
-35.8051

>  <SCORE.INTER>
-38.4652

>  <SCORE.INTER.CONST>
1

>  <SCORE.INTER.POLAR>
0

>  <SCORE.INTER.ROT>
2

>  <SCORE.INTER.SOLV>
28.1737

>  <SCORE.INTER.VDW>
-39.9681

>  <SCORE.INTER.norm>
-0.836201

>  <SCORE.INTRA>
2.60123

>  <SCORE.INTRA.DIHEDRAL>
-0.00351831

>  <SCORE.INTRA.DIHEDRAL.0>
2.40424

>  <SCORE.INTRA.POLAR>
0

>  <SCORE.INTRA.POLAR.0>
0

>  <SCORE.INTRA.REPUL>
0

>  <SCORE.INTRA.REPUL.0>
0

>  <SCORE.INTRA.SOLV>
8.01183

>  <SCORE.INTRA.SOLV.lig_0>
-134.169

>  <SCORE.INTRA.VDW>
-1.40293

>  <SCORE.INTRA.VDW.0>
-2.18386

>  <SCORE.INTRA.norm>
0.0565484

>  <SCORE.RESTR>
0.0589582

>  <SCORE.RESTR.CAVITY>
0.0589582

>  <SCORE.RESTR.norm>
0.0012817

>  <SCORE.SYSTEM>
0

>  <SCORE.SYSTEM.CONST>
0

>  <SCORE.SYSTEM.DIHEDRAL>
0

>  <SCORE.SYSTEM.SOLV>
0

>  <SCORE.SYSTEM.norm>
0

>  <SCORE.heavy>
46

>  <SCORE.norm>
-0.778371

>  <RMSD>
2.121

$$$$
ligand
 OpenBabel02271912143D
libRbt.so/2013.1/901 2013/11/27
 46 52  0  0  0  0  0  0  0  0999 V2000
   -5.1926    2.8595   17.9018 P   0  0  1  0  0  0  0  0  0  0  0  0
   -9.9998    5.9429   16.4664 P   0  0  2  0  0  0  0  0  0  0  0  0
   -5.4478    1.1368   17.5717 O   0  5  0  0  0  0  0  0  0  0  0  0
   -3.5338    3.1813   18.4711 O   0  0  0  0  0  0  0  0  0  0  0  0
   -5.4676    5.1135   16.5352 C   0  0  0  0  0  0  0  0  0  0  0  0
   -5.4889    3.6860   16.5496 O   0  0  0  0  0  0  0  0  0  0  0  0
   -6.2345    5.5964   15.3189 C   0  0  1  0  0  0  0  0  0  0  0  0
   -5.7146    4.9604   14.1429 O   0  0  0  0  0  0  0  0  0  0  0  0
   -7.7108    5.2363   15.3581 C   0  0  1  0  0  0  0  0  0  0  0  0
   -8.4970    6.2580   15.9672 O   0  0  0  0  0  0  0  0  0  0  0  0
   -8.0591    5.0490   13.8919 C   0  0  1  0  0  0  0  0  0  0  0  0
   -8.4596    6.2967   13.3198 O   0  0  0  0  0  0  0  0  0  0  0  0
   -6.7667    4.6058   13.2317 C   0  0  2  0  0  0  0  0  0  0  0  0
   -9.4530    2.0714   19.8265 C   0  0  1  0  0  0  0  0  0  0  0  0
   -4.4772   -0.0817   14.2207 N   0  0  0  0  0  0  0  0  0  0  0  0
   -4.1239    1.1556   14.6641 C   0  0  1  0  0  0  0  0  0  0  0  0
   -8.0998    1.8536   19.2112 C   0  0  2  0  0  0  0  0  0  0  0  0
   -3.0438    1.2612   15.4721 N   0  0  0  0  0  0  0  0  0  0  0  0
   -7.2616    1.3416   20.2487 O   0  0  0  0  0  0  0  0  0  0  0  0
   -7.6597    3.2288   18.7498 C   0  0  2  0  0  0  0  0  0  0  0  0
   -4.8107    2.2869   14.3246 N   0  0  0  0  0  0  0  0  0  0  0  0
   -6.2679    3.4312   18.9534 O   0  0  0  0  0  0  0  0  0  0  0  0
   -5.9015    2.2340   13.5190 C   0  0  2  0  0  0  0  0  0  0  0  0
   -8.4558    4.1981   19.6013 C   0  0  2  0  0  0  0  0  0  0  0  0
   -9.5945    3.4719   20.0608 O   0  0  0  0  0  0  0  0  0  0  0  0
   -6.3251    0.9186   13.0085 C   0  0  1  0  0  0  0  0  0  0  0  0
   -8.9157    5.4275   18.8258 C   0  0  0  0  0  0  0  0  0  0  0  0
   -9.7768    5.0143   17.7629 O   0  0  0  0  0  0  0  0  0  0  0  0
   -5.5443   -0.2652   13.4100 C   0  0  0  0  0  0  0  0  0  0  0  0
   -5.8874   -1.5022   12.9696 O   0  0  0  0  0  0  0  0  0  0  0  0
   -7.4027    1.1269   12.2440 N   0  0  0  0  0  0  0  0  0  0  0  0
   -7.6565    2.4682   12.2563 C   0  0  0  0  0  0  0  0  0  0  0  0
   -6.7618    3.1346   13.0159 N   0  0  1  0  0  0  0  0  0  0  0  0
  -11.4542   -2.1669   17.5025 N   0  0  0  0  0  0  0  0  0  0  0  0
  -10.9307    5.0678   15.2221 O   0  5  0  0  0  0  0  0  0  0  0  0
  -10.3776   -2.0523   18.3276 C   0  0  2  0  0  0  0  0  0  0  0  0
   -9.6661   -3.1645   18.6482 N   0  0  0  0  0  0  0  0  0  0  0  0
  -10.8943    7.3922   16.9639 O   0  0  0  0  0  0  0  0  0  0  0  0
   -9.9892   -0.8549   18.8449 N   0  0  0  0  0  0  0  0  0  0  0  0
  -10.6615    0.2867   18.5675 C   0  0  2  0  0  0  0  0  0  0  0  0
  -11.8308    0.2273   17.6804 C   0  0  2  0  0  0  0  0  0  0  0  0
  -12.2005   -1.1003   17.1449 C   0  0  0  0  0  0  0  0  0  0  0  0
  -13.2628   -1.2533   16.3162 O   0  0  0  0  0  0  0  0  0  0  0  0
  -12.2940    1.4880   17.5685 N   0  0  0  0  0  0  0  0  0  0  0  0
  -11.4877    2.2887   18.3273 C   0  0  0  0  0  0  0  0  0  0  0  0
  -10.5114    1.5647   18.9204 N   0  0  1  0  0  0  0  0  0  0  0  0
  1  3  1  6  0  0  0
  1  4  2  0  0  0  0
  1  6  1  0  0  0  0
  1 22  1  0  0  0  0
  2 28  1  0  0  0  0
  2 35  1  6  0  0  0
  2 38  2  0  0  0  0
  2 10  1  0  0  0  0
  5  6  1  0  0  0  0
  7  5  1  1  0  0  0
  7  8  1  0  0  0  0
  7  9  1  0  0  0  0
  9 10  1  6  0  0  0
  9 11  1  0  0  0  0
 11 12  1  6  0  0  0
 11 13  1  0  0  0  0
 13  8  1  1  0  0  0
 13 33  1  0  0  0  0
 14 46  1  0  0  0  0
 14 17  1  0  0  0  0
 14 25  1  6  0  0  0
 15 16  1  0  0  0  0
 15 29  1  0  0  0  0
 16 18  1  6  0  0  0
 16 21  1  0  0  0  0
 17 19  1  1  0  0  0
 17 20  1  0  0  0  0
 20 22  1  1  0  0  0
 20 24  1  0  0  0  0
 23 21  1  6  0  0  0
 23 26  1  0  0  0  0
 23 33  1  0  0  0  0
 24 25  1  6  0  0  0
 24 27  1  0  0  0  0
 26 29  1  1  0  0  0
 26 31  1  0  0  0  0
 27 28  1  0  0  0  0
 29 30  2  0  0  0  0
 31 32  1  0  0  0  0
 33 32  1  1  0  0  0
 34 36  1  0  0  0  0
 34 42  1  0  0  0  0
 36 37  1  1  0  0  0
 36 39  1  0  0  0  0
 40 39  1  6  0  0  0
 40 41  1  0  0  0  0
 40 46  1  0  0  0  0
 41 42  1  6  0  0  0
 41 44  1  0  0  0  0
 42 43  2  0  0  0  0
 44 45  1  0  0  0  0
 46 45  1  1  0  0  0
M  CHG  2   3  -1  35  -1
M  END
>  <CHROM.1>
-2.65882068,63.78195937,-7.99323665,2.57852617,16.52470283,-0.47572052,-0.61925661
3.10958341

>  <Name>
ligand

>  <RI>
-1

>  <Rbt.Current_Directory>
/home/itssahil/PROJECTS/Mol_Feturizer/Test_systems_manuscript/rnas/3mum

>  <Rbt.Executable>
rbdock ($Id: //depot/dev/client3/rdock/2013.1/src/exe/rbdock.cxx#4 $)

>  <Rbt.Library>
libRbt.so (2013.1, Build901 2013/11/27)

>  <Rbt.Parameter_File>
/export/apps/rDock/src/rDock_2013.1_src/data/scripts/dock_solv.prm

>  <Rbt.Receptor>
prm/pocket_docking_6.prm

>  <SCORE>
-36.5524

>  <SCORE.INTER>
-38.1391

>  <SCORE.INTER.CONST>
1

>  <SCORE.INTER.POLAR>
0

>  <SCORE.INTER.ROT>
2

>  <SCORE.INTER.SOLV>
28.3537

>  <SCORE.INTER.VDW>
-39.8106

>  <SCORE.INTER.norm>
-0.829111

>  <SCORE.INTRA>
1.58672

>  <SCORE.INTRA.DIHEDRAL>
0.00107306

>  <SCORE.INTRA.DIHEDRAL.0>
2.40424

>  <SCORE.INTRA.POLAR>
0

>  <SCORE.INTRA.POLAR.0>
0

>  <SCORE.INTRA.REPUL>
0

>  <SCORE.INTRA.REPUL.0>
0

>  <SCORE.INTRA.SOLV>
6.21118

>  <SCORE.INTRA.SOLV.lig_0>
-134.169

>  <SCORE.INTRA.VDW>
-1.51941

>  <SCORE.INTRA.VDW.0>
-2.18386

>  <SCORE.INTRA.norm>
0.0344939

>  <SCORE.RESTR>
0

>  <SCORE.RESTR.CAVITY>
0

>  <SCORE.RESTR.norm>
0

>  <SCORE.SYSTEM>
0

>  <SCORE.SYSTEM.CONST>
0

>  <SCORE.SYSTEM.DIHEDRAL>
0

>  <SCORE.SYSTEM.SOLV>
0

>  <SCORE.SYSTEM.norm>
0

>  <SCORE.heavy>
46

>  <SCORE.norm>
-0.794617

>  <RMSD>
2.124

$$$$
ligand
 OpenBabel02271912143D
libRbt.so/2013.1/901 2013/11/27
 46 52  0  0  0  0  0  0  0  0999 V2000
   -5.3472    2.8756   17.9743 P   0  0  1  0  0  0  0  0  0  0  0  0
  -10.2177    5.8410   16.5042 P   0  0  2  0  0  0  0  0  0  0  0  0
   -5.5546    1.1485   17.6340 O   0  5  0  0  0  0  0  0  0  0  0  0
   -3.7031    3.2373   18.5618 O   0  0  0  0  0  0  0  0  0  0  0  0
   -5.6666    5.1281   16.6151 C   0  0  0  0  0  0  0  0  0  0  0  0
   -5.6512    3.7005   16.6229 O   0  0  0  0  0  0  0  0  0  0  0  0
   -6.4335    5.5969   15.3933 C   0  0  1  0  0  0  0  0  0  0  0  0
   -5.8856    4.9800   14.2197 O   0  0  0  0  0  0  0  0  0  0  0  0
   -7.9002    5.1987   15.4159 C   0  0  1  0  0  0  0  0  0  0  0  0
   -8.7186    6.1970   16.0216 O   0  0  0  0  0  0  0  0  0  0  0  0
   -8.2289    5.0095   13.9455 C   0  0  1  0  0  0  0  0  0  0  0  0
   -8.6558    6.2491   13.3749 O   0  0  0  0  0  0  0  0  0  0  0  0
   -6.9190    4.6028   13.2964 C   0  0  2  0  0  0  0  0  0  0  0  0
   -9.6049    1.9690   19.8523 C   0  0  1  0  0  0  0  0  0  0  0  0
   -4.6804   -0.0634   14.4830 N   0  0  0  0  0  0  0  0  0  0  0  0
   -4.3887    1.1751   14.9662 C   0  0  1  0  0  0  0  0  0  0  0  0
   -8.2404    1.7890   19.2498 C   0  0  2  0  0  0  0  0  0  0  0  0
   -3.3959    1.2883   15.8785 N   0  0  0  0  0  0  0  0  0  0  0  0
   -7.3997    1.2939   20.2934 O   0  0  0  0  0  0  0  0  0  0  0  0
   -7.8313    3.1772   18.7990 C   0  0  2  0  0  0  0  0  0  0  0  0
   -5.0525    2.3003   14.5662 N   0  0  0  0  0  0  0  0  0  0  0  0
   -6.4473    3.4144   19.0175 O   0  0  0  0  0  0  0  0  0  0  0  0
   -6.0568    2.2397   13.6555 C   0  0  2  0  0  0  0  0  0  0  0  0
   -8.6606    4.1217   19.6467 C   0  0  2  0  0  0  0  0  0  0  0  0
   -9.7848    3.3642   20.0914 O   0  0  0  0  0  0  0  0  0  0  0  0
   -6.4108    0.9228   13.0981 C   0  0  1  0  0  0  0  0  0  0  0  0
   -9.1443    5.3425   18.8720 C   0  0  0  0  0  0  0  0  0  0  0  0
   -9.9838    4.9123   17.7986 O   0  0  0  0  0  0  0  0  0  0  0  0
   -5.6590   -0.2542   13.5690 C   0  0  0  0  0  0  0  0  0  0  0  0
   -5.9408   -1.4923   13.0898 O   0  0  0  0  0  0  0  0  0  0  0  0
   -7.4094    1.1232   12.2312 N   0  0  0  0  0  0  0  0  0  0  0  0
   -7.6801    2.4612   12.2254 C   0  0  0  0  0  0  0  0  0  0  0  0
   -6.8740    3.1332   13.0741 N   0  0  1  0  0  0  0  0  0  0  0  0
  -11.4113   -2.2897   17.4092 N   0  0  0  0  0  0  0  0  0  0  0  0
  -11.1133    4.9481   15.2466 O   0  5  0  0  0  0  0  0  0  0  0  0
  -10.3391   -2.1486   18.2359 C   0  0  2  0  0  0  0  0  0  0  0  0
   -9.5754   -3.2350   18.5233 N   0  0  0  0  0  0  0  0  0  0  0  0
  -11.1541    7.2644   16.9991 O   0  0  0  0  0  0  0  0  0  0  0  0
  -10.0058   -0.9497   18.7871 N   0  0  0  0  0  0  0  0  0  0  0  0
  -10.7318    0.1666   18.5438 C   0  0  2  0  0  0  0  0  0  0  0  0
  -11.8993    0.0780   17.6568 C   0  0  2  0  0  0  0  0  0  0  0  0
  -12.2077   -1.2496   17.0836 C   0  0  0  0  0  0  0  0  0  0  0  0
  -13.2638   -1.4283   16.2523 O   0  0  0  0  0  0  0  0  0  0  0  0
  -12.4213    1.3182   17.5821 N   0  0  0  0  0  0  0  0  0  0  0  0
  -11.6515    2.1337   18.3627 C   0  0  0  0  0  0  0  0  0  0  0  0
  -10.6408    1.4396   18.9333 N   0  0  1  0  0  0  0  0  0  0  0  0
  1  3  1  6  0  0  0
  1  4  2  0  0  0  0
  1  6  1  0  0  0  0
  1 22  1  0  0  0  0
  2 28  1  0  0  0  0
  2 35  1  6  0  0  0
  2 38  2  0  0  0  0
  2 10  1  0  0  0  0
  5  6  1  0  0  0  0
  7  5  1  1  0  0  0
  7  8  1  0  0  0  0
  7  9  1  0  0  0  0
  9 10  1  6  0  0  0
  9 11  1  0  0  0  0
 11 12  1  6  0  0  0
 11 13  1  0  0  0  0
 13  8  1  1  0  0  0
 13 33  1  0  0  0  0
 14 46  1  0  0  0  0
 14 17  1  0  0  0  0
 14 25  1  6  0  0  0
 15 16  1  0  0  0  0
 15 29  1  0  0  0  0
 16 18  1  6  0  0  0
 16 21  1  0  0  0  0
 17 19  1  1  0  0  0
 17 20  1  0  0  0  0
 20 22  1  1  0  0  0
 20 24  1  0  0  0  0
 23 21  1  6  0  0  0
 23 26  1  0  0  0  0
 23 33  1  0  0  0  0
 24 25  1  6  0  0  0
 24 27  1  0  0  0  0
 26 29  1  1  0  0  0
 26 31  1  0  0  0  0
 27 28  1  0  0  0  0
 29 30  2  0  0  0  0
 31 32  1  0  0  0  0
 33 32  1  1  0  0  0
 34 36  1  0  0  0  0
 34 42  1  0  0  0  0
 36 37  1  1  0  0  0
 36 39  1  0  0  0  0
 40 39  1  6  0  0  0
 40 41  1  0  0  0  0
 40 46  1  0  0  0  0
 41 42  1  6  0  0  0
 41 44  1  0  0  0  0
 42 43  2  0  0  0  0
 44 45  1  0  0  0  0
 46 45  1  1  0  0  0
M  CHG  2   3  -1  35  -1
M  END
>  <CHROM.1>
2.54326031,61.81005731,-8.13638241,2.52740017,16.58007312,-0.55684803,-0.60419596
3.09460626

>  <Name>
ligand

>  <RI>
416

>  <Rbt.Current_Directory>
/home/itssahil/PROJECTS/Mol_Feturizer/Test_systems_manuscript/rnas/3mum

>  <Rbt.Executable>
rbdock ($Id: //depot/dev/client3/rdock/2013.1/src/exe/rbdock.cxx#4 $)

>  <Rbt.Library>
libRbt.so (2013.1, Build901 2013/11/27)

>  <Rbt.Parameter_File>
/export/apps/rDock/src/rDock_2013.1_src/data/scripts/dock_solv.prm

>  <Rbt.Receptor>
prm/pocket_docking_3.prm

>  <SCORE>
-35.5733

>  <SCORE.INTER>
-38.3418

>  <SCORE.INTER.CONST>
1

>  <SCORE.INTER.POLAR>
0

>  <SCORE.INTER.ROT>
2

>  <SCORE.INTER.SOLV>
27.7926

>  <SCORE.INTER.VDW>
-39.7587

>  <SCORE.INTER.norm>
-0.833518

>  <SCORE.INTRA>
2.76443

>  <SCORE.INTRA.DIHEDRAL>
-0.00273234

>  <SCORE.INTRA.DIHEDRAL.0>
2.40424

>  <SCORE.INTRA.POLAR>
0

>  <SCORE.INTRA.POLAR.0>
0

>  <SCORE.INTRA.REPUL>
0

>  <SCORE.INTRA.REPUL.0>
0

>  <SCORE.INTRA.SOLV>
8.2201

>  <SCORE.INTRA.SOLV.lig_0>
-134.169

>  <SCORE.INTRA.VDW>
-1.34425

>  <SCORE.INTRA.VDW.0>
-2.18386

>  <SCORE.INTRA.norm>
0.0600963

>  <SCORE.RESTR>
0.00407854

>  <SCORE.RESTR.CAVITY>
0.00407854

>  <SCORE.RESTR.norm>
8.8664e-05

>  <SCORE.SYSTEM>
0

>  <SCORE.SYSTEM.CONST>
0

>  <SCORE.SYSTEM.DIHEDRAL>
0

>  <SCORE.SYSTEM.SOLV>
0

>  <SCORE.SYSTEM.norm>
0

>  <SCORE.heavy>
46

>  <SCORE.norm>
-0.773333

>  <RMSD>
2.131

$$$$
ligand
 OpenBabel02271912143D
libRbt.so/2013.1/901 2013/11/27
 46 52  0  0  0  0  0  0  0  0999 V2000
  -10.1915    5.9132   16.5448 P   0  0  1  0  0  0  0  0  0  0  0  0
   -5.4089    2.7933   17.9833 P   0  0  2  0  0  0  0  0  0  0  0  0
  -11.1883    5.0102   15.3903 O   0  5  0  0  0  0  0  0  0  0  0  0
  -10.9626    7.4494   17.0187 O   0  0  0  0  0  0  0  0  0  0  0  0
   -9.0909    5.4072   18.9019 C   0  0  0  0  0  0  0  0  0  0  0  0
   -9.9497    4.9865   17.8418 O   0  0  0  0  0  0  0  0  0  0  0  0
   -8.6808    4.1876   19.7051 C   0  0  1  0  0  0  0  0  0  0  0  0
   -9.8528    3.4665   20.1106 O   0  0  0  0  0  0  0  0  0  0  0  0
   -7.8479    3.1965   18.9086 C   0  0  1  0  0  0  0  0  0  0  0  0
   -6.4502    3.4525   19.0264 O   0  0  0  0  0  0  0  0  0  0  0  0
   -8.2336    1.8578   19.5129 C   0  0  1  0  0  0  0  0  0  0  0  0
   -7.3844    1.5582   20.6236 O   0  0  0  0  0  0  0  0  0  0  0  0
   -9.6500    2.0474   20.0232 C   0  0  2  0  0  0  0  0  0  0  0  0
   -6.9955    4.4463   13.3651 C   0  0  1  0  0  0  0  0  0  0  0  0
  -11.4205   -2.2471   17.4512 N   0  0  0  0  0  0  0  0  0  0  0  0
  -10.3765   -2.1361   18.3173 C   0  0  1  0  0  0  0  0  0  0  0  0
   -8.3003    4.7723   14.0349 C   0  0  2  0  0  0  0  0  0  0  0  0
   -9.6550   -3.2465   18.5949 N   0  0  0  0  0  0  0  0  0  0  0  0
   -8.8414    5.8973   13.3402 O   0  0  0  0  0  0  0  0  0  0  0  0
   -7.9263    5.1113   15.4642 C   0  0  2  0  0  0  0  0  0  0  0  0
  -10.0298   -0.9551   18.9103 N   0  0  0  0  0  0  0  0  0  0  0  0
   -8.7114    6.1808   15.9735 O   0  0  0  0  0  0  0  0  0  0  0  0
  -10.7227    0.1860   18.6664 C   0  0  2  0  0  0  0  0  0  0  0  0
   -6.4686    5.5225   15.3979 C   0  0  2  0  0  0  0  0  0  0  0  0
   -5.9511    4.9394   14.2031 O   0  0  0  0  0  0  0  0  0  0  0  0
  -11.8609    0.1217   17.7333 C   0  0  1  0  0  0  0  0  0  0  0  0
   -5.6603    5.0326   16.5942 C   0  0  0  0  0  0  0  0  0  0  0  0
   -5.6816    3.6040   16.6190 O   0  0  0  0  0  0  0  0  0  0  0  0
  -12.1865   -1.1809   17.1255 C   0  0  0  0  0  0  0  0  0  0  0  0
  -13.2234   -1.2998   16.2579 O   0  0  0  0  0  0  0  0  0  0  0  0
  -12.3694    1.3563   17.6547 N   0  0  0  0  0  0  0  0  0  0  0  0
  -11.6212    2.1566   18.4692 C   0  0  0  0  0  0  0  0  0  0  0  0
  -10.6352    1.4624   19.0754 N   0  0  1  0  0  0  0  0  0  0  0  0
   -4.2642    0.1447   14.5501 N   0  0  0  0  0  0  0  0  0  0  0  0
   -5.7292    1.0540   17.7527 O   0  5  0  0  0  0  0  0  0  0  0  0
   -4.0651    1.4359   14.9324 C   0  0  2  0  0  0  0  0  0  0  0  0
   -3.0220    1.7321   15.7511 N   0  0  0  0  0  0  0  0  0  0  0  0
   -3.7109    3.0262   18.4422 O   0  0  0  0  0  0  0  0  0  0  0  0
   -4.8809    2.4443   14.5202 N   0  0  0  0  0  0  0  0  0  0  0  0
   -5.9397    2.2109   13.7100 C   0  0  2  0  0  0  0  0  0  0  0  0
   -6.2044    0.8375   13.2612 C   0  0  2  0  0  0  0  0  0  0  0  0
   -5.2804   -0.2141   13.7373 C   0  0  0  0  0  0  0  0  0  0  0  0
   -5.4432   -1.5102   13.3738 O   0  0  0  0  0  0  0  0  0  0  0  0
   -7.2932    0.8941   12.4691 N   0  0  0  0  0  0  0  0  0  0  0  0
   -7.6952    2.1990   12.4191 C   0  0  0  0  0  0  0  0  0  0  0  0
   -6.8801    2.9823   13.1613 N   0  0  1  0  0  0  0  0  0  0  0  0
  1  3  1  6  0  0  0
  1  4  2  0  0  0  0
  1  6  1  0  0  0  0
  1 22  1  0  0  0  0
  2 28  1  0  0  0  0
  2 35  1  6  0  0  0
  2 38  2  0  0  0  0
  2 10  1  0  0  0  0
  5  6  1  0  0  0  0
  7  5  1  6  0  0  0
  7  8  1  0  0  0  0
  7  9  1  0  0  0  0
  9 10  1  1  0  0  0
  9 11  1  0  0  0  0
 11 12  1  1  0  0  0
 11 13  1  0  0  0  0
 13  8  1  6  0  0  0
 13 33  1  0  0  0  0
 14 46  1  0  0  0  0
 14 17  1  0  0  0  0
 14 25  1  1  0  0  0
 15 16  1  0  0  0  0
 15 29  1  0  0  0  0
 16 18  1  6  0  0  0
 16 21  1  0  0  0  0
 17 19  1  6  0  0  0
 17 20  1  0  0  0  0
 20 22  1  6  0  0  0
 20 24  1  0  0  0  0
 23 21  1  6  0  0  0
 23 26  1  0  0  0  0
 23 33  1  0  0  0  0
 24 25  1  6  0  0  0
 24 27  1  0  0  0  0
 26 29  1  1  0  0  0
 26 31  1  0  0  0  0
 27 28  1  0  0  0  0
 29 30  2  0  0  0  0
 31 32  1  0  0  0  0
 33 32  1  1  0  0  0
 34 36  1  0  0  0  0
 34 42  1  0  0  0  0
 36 37  1  1  0  0  0
 36 39  1  0  0  0  0
 40 39  1  6  0  0  0
 40 41  1  0  0  0  0
 40 46  1  0  0  0  0
 41 42  1  6  0  0  0
 41 44  1  0  0  0  0
 42 43  2  0  0  0  0
 44 45  1  0  0  0  0
 46 45  1  1  0  0  0
M  CHG  2   3  -1  35  -1
M  END
>  <CHROM.1>
175.93242585,-117.68204889,-8.09808384,2.53271418,16.64692955,2.69944885
-0.58742297,3.06560165

>  <Name>
ligand

>  <RI>
416

>  <Rbt.Current_Directory>
/home/itssahil/PROJECTS/Mol_Feturizer/Test_systems_manuscript/rnas/3mum

>  <Rbt.Executable>
rbdock ($Id: //depot/dev/client3/rdock/2013.1/src/exe/rbdock.cxx#4 $)

>  <Rbt.Library>
libRbt.so (2013.1, Build901 2013/11/27)

>  <Rbt.Parameter_File>
/export/apps/rDock/src/rDock_2013.1_src/data/scripts/dock_solv.prm

>  <Rbt.Receptor>
prm/pocket_docking_3.prm

>  <SCORE>
-33.7767

>  <SCORE.INTER>
-36.7084

>  <SCORE.INTER.CONST>
1

>  <SCORE.INTER.POLAR>
0

>  <SCORE.INTER.ROT>
2

>  <SCORE.INTER.SOLV>
28.6709

>  <SCORE.INTER.VDW>
-38.9626

>  <SCORE.INTER.norm>
-0.798009

>  <SCORE.INTRA>
2.4516

>  <SCORE.INTRA.DIHEDRAL>
-0.00772325

>  <SCORE.INTRA.DIHEDRAL.0>
2.40424

>  <SCORE.INTRA.POLAR>
0

>  <SCORE.INTRA.POLAR.0>
0

>  <SCORE.INTRA.REPUL>
0

>  <SCORE.INTRA.REPUL.0>
0

>  <SCORE.INTRA.SOLV>
7.55267

>  <SCORE.INTRA.SOLV.lig_0>
-134.169

>  <SCORE.INTRA.VDW>
-1.32087

>  <SCORE.INTRA.VDW.0>
-2.18386

>  <SCORE.INTRA.norm>
0.0532957

>  <SCORE.RESTR>
0.480101

>  <SCORE.RESTR.CAVITY>
0.480101

>  <SCORE.RESTR.norm>
0.010437

>  <SCORE.SYSTEM>
0

>  <SCORE.SYSTEM.CONST>
0

>  <SCORE.SYSTEM.DIHEDRAL>
0

>  <SCORE.SYSTEM.SOLV>
0

>  <SCORE.SYSTEM.norm>
0

>  <SCORE.heavy>
46

>  <SCORE.norm>
-0.734276

>  <RMSD>
2.164

$$$$
ligand
 OpenBabel02271912143D
libRbt.so/2013.1/901 2013/11/27
 46 52  0  0  0  0  0  0  0  0999 V2000
  -10.1319    5.9037   16.5543 P   0  0  1  0  0  0  0  0  0  0  0  0
   -5.3135    2.8166   17.9433 P   0  0  2  0  0  0  0  0  0  0  0  0
  -11.1274    4.9999   15.3993 O   0  5  0  0  0  0  0  0  0  0  0  0
  -10.9138    7.4297   17.0434 O   0  0  0  0  0  0  0  0  0  0  0  0
   -9.0131    5.3912   18.9014 C   0  0  0  0  0  0  0  0  0  0  0  0
   -9.8743    4.9702   17.8433 O   0  0  0  0  0  0  0  0  0  0  0  0
   -8.5875    4.1698   19.6937 C   0  0  1  0  0  0  0  0  0  0  0  0
   -9.7507    3.4355   20.1008 O   0  0  0  0  0  0  0  0  0  0  0  0
   -7.7505    3.1916   18.8855 C   0  0  1  0  0  0  0  0  0  0  0  0
   -6.3545    3.4593   18.9970 O   0  0  0  0  0  0  0  0  0  0  0  0
   -8.1208    1.8454   19.4826 C   0  0  1  0  0  0  0  0  0  0  0  0
   -7.2625    1.5457   20.5862 O   0  0  0  0  0  0  0  0  0  0  0  0
   -9.5358    2.0189   20.0024 C   0  0  2  0  0  0  0  0  0  0  0  0
   -6.9417    4.4874   13.3460 C   0  0  1  0  0  0  0  0  0  0  0  0
  -11.4868   -2.3261   17.6555 N   0  0  0  0  0  0  0  0  0  0  0  0
  -10.4707   -2.2203   18.5548 C   0  0  1  0  0  0  0  0  0  0  0  0
   -8.2453    4.7971   14.0256 C   0  0  2  0  0  0  0  0  0  0  0  0
   -9.8341   -3.3515   18.9367 N   0  0  0  0  0  0  0  0  0  0  0  0
   -8.8004    5.9220   13.3419 O   0  0  0  0  0  0  0  0  0  0  0  0
   -7.8661    5.1295   15.4551 C   0  0  2  0  0  0  0  0  0  0  0  0
  -10.0697   -1.0246   19.0804 N   0  0  0  0  0  0  0  0  0  0  0  0
   -8.6576    6.1884   15.9763 O   0  0  0  0  0  0  0  0  0  0  0  0
  -10.6769    0.1377   18.7313 C   0  0  2  0  0  0  0  0  0  0  0  0
   -6.4124    5.5541   15.3832 C   0  0  2  0  0  0  0  0  0  0  0  0
   -5.8968    4.9839   14.1814 O   0  0  0  0  0  0  0  0  0  0  0  0
  -11.7815    0.0796   17.7582 C   0  0  1  0  0  0  0  0  0  0  0  0
   -5.5929    5.0632   16.5713 C   0  0  0  0  0  0  0  0  0  0  0  0
   -5.6014    3.6343   16.5863 O   0  0  0  0  0  0  0  0  0  0  0  0
  -12.1687   -1.2395   17.2269 C   0  0  0  0  0  0  0  0  0  0  0  0
  -13.1783   -1.3537   16.3271 O   0  0  0  0  0  0  0  0  0  0  0  0
  -12.2049    1.3351   17.5752 N   0  0  0  0  0  0  0  0  0  0  0  0
  -11.4367    2.1420   18.3640 C   0  0  0  0  0  0  0  0  0  0  0  0
  -10.5213    1.4317   19.0562 N   0  0  1  0  0  0  0  0  0  0  0  0
   -4.2001    0.1924   14.5313 N   0  0  0  0  0  0  0  0  0  0  0  0
   -5.6197    1.0762   17.7024 O   0  5  0  0  0  0  0  0  0  0  0  0
   -4.0142    1.4814   14.9273 C   0  0  2  0  0  0  0  0  0  0  0  0
   -2.9842    1.7769   15.7625 N   0  0  0  0  0  0  0  0  0  0  0  0
   -3.6150    3.0614   18.3940 O   0  0  0  0  0  0  0  0  0  0  0  0
   -4.8305    2.4884   14.5126 N   0  0  0  0  0  0  0  0  0  0  0  0
   -5.8769    2.2555   13.6861 C   0  0  2  0  0  0  0  0  0  0  0  0
   -6.1269    0.8845   13.2221 C   0  0  2  0  0  0  0  0  0  0  0  0
   -5.2030   -0.1656   13.7017 C   0  0  0  0  0  0  0  0  0  0  0  0
   -5.3528   -1.4595   13.3250 O   0  0  0  0  0  0  0  0  0  0  0  0
   -7.2053    0.9413   12.4157 N   0  0  0  0  0  0  0  0  0  0  0  0
   -7.6146    2.2442   12.3714 C   0  0  0  0  0  0  0  0  0  0  0  0
   -6.8144    3.0260   13.1313 N   0  0  1  0  0  0  0  0  0  0  0  0
  1  3  1  6  0  0  0
  1  4  2  0  0  0  0
  1  6  1  0  0  0  0
  1 22  1  0  0  0  0
  2 28  1  0  0  0  0
  2 35  1  6  0  0  0
  2 38  2  0  0  0  0
  2 10  1  0  0  0  0
  5  6  1  0  0  0  0
  7  5  1  6  0  0  0
  7  8  1  0  0  0  0
  7  9  1  0  0  0  0
  9 10  1  1  0  0  0
  9 11  1  0  0  0  0
 11 12  1  1  0  0  0
 11 13  1  0  0  0  0
 13  8  1  6  0  0  0
 13 33  1  0  0  0  0
 14 46  1  0  0  0  0
 14 17  1  0  0  0  0
 14 25  1  1  0  0  0
 15 16  1  0  0  0  0
 15 29  1  0  0  0  0
 16 18  1  6  0  0  0
 16 21  1  0  0  0  0
 17 19  1  6  0  0  0
 17 20  1  0  0  0  0
 20 22  1  6  0  0  0
 20 24  1  0  0  0  0
 23 21  1  6  0  0  0
 23 26  1  0  0  0  0
 23 33  1  0  0  0  0
 24 25  1  6  0  0  0
 24 27  1  0  0  0  0
 26 29  1  1  0  0  0
 26 31  1  0  0  0  0
 27 28  1  0  0  0  0
 29 30  2  0  0  0  0
 31 32  1  0  0  0  0
 33 32  1  1  0  0  0
 34 36  1  0  0  0  0
 34 42  1  0  0  0  0
 36 37  1  1  0  0  0
 36 39  1  0  0  0  0
 40 39  1  6  0  0  0
 40 41  1  0  0  0  0
 40 46  1  0  0  0  0
 41 42  1  6  0  0  0
 41 44  1  0  0  0  0
 42 43  2  0  0  0  0
 44 45  1  0  0  0  0
 46 45  1  1  0  0  0
M  CHG  2   3  -1  35  -1
M  END
>  <CHROM.1>
-177.49517048,-116.55718191,-8.03381966,2.53458351,16.65217999,0.50727325
0.59003919,-0.09578438

>  <Name>
ligand

>  <RI>
-1

>  <Rbt.Current_Directory>
/home/itssahil/PROJECTS/Mol_Feturizer/Test_systems_manuscript/rnas/3mum

>  <Rbt.Executable>
rbdock ($Id: //depot/dev/client3/rdock/2013.1/src/exe/rbdock.cxx#4 $)

>  <Rbt.Library>
libRbt.so (2013.1, Build901 2013/11/27)

>  <Rbt.Parameter_File>
/export/apps/rDock/src/rDock_2013.1_src/data/scripts/dock_solv.prm

>  <Rbt.Receptor>
prm/pocket_docking_4.prm

>  <SCORE>
-34.0842

>  <SCORE.INTER>
-36.798

>  <SCORE.INTER.CONST>
1

>  <SCORE.INTER.POLAR>
0

>  <SCORE.INTER.ROT>
2

>  <SCORE.INTER.SOLV>
28.2593

>  <SCORE.INTER.VDW>
-38.8851

>  <SCORE.INTER.norm>
-0.799956

>  <SCORE.INTRA>
2.71372

>  <SCORE.INTRA.DIHEDRAL>
-0.0080971

>  <SCORE.INTRA.DIHEDRAL.0>
2.40424

>  <SCORE.INTRA.POLAR>
0

>  <SCORE.INTRA.POLAR.0>
0

>  <SCORE.INTRA.REPUL>
0

>  <SCORE.INTRA.REPUL.0>
0

>  <SCORE.INTRA.SOLV>
8.0299

>  <SCORE.INTRA.SOLV.lig_0>
-134.169

>  <SCORE.INTRA.VDW>
-1.29718

>  <SCORE.INTRA.VDW.0>
-2.18386

>  <SCORE.INTRA.norm>
0.0589939

>  <SCORE.RESTR>
0

>  <SCORE.RESTR.CAVITY>
0

>  <SCORE.RESTR.norm>
0

>  <SCORE.SYSTEM>
0

>  <SCORE.SYSTEM.CONST>
0

>  <SCORE.SYSTEM.DIHEDRAL>
0

>  <SCORE.SYSTEM.SOLV>
0

>  <SCORE.SYSTEM.norm>
0

>  <SCORE.heavy>
46

>  <SCORE.norm>
-0.740962

>  <RMSD>
2.169

$$$$
ligand
 OpenBabel02271912143D
libRbt.so/2013.1/901 2013/11/27
 46 52  0  0  0  0  0  0  0  0999 V2000
  -10.1819    5.9492   16.5499 P   0  0  1  0  0  0  0  0  0  0  0  0
   -5.4302    2.7798   17.9825 P   0  0  2  0  0  0  0  0  0  0  0  0
  -11.1873    5.0585   15.3934 O   0  5  0  0  0  0  0  0  0  0  0  0
  -10.9380    7.4919   17.0270 O   0  0  0  0  0  0  0  0  0  0  0  0
   -9.0866    5.4275   18.9061 C   0  0  0  0  0  0  0  0  0  0  0  0
   -9.9493    5.0175   17.8450 O   0  0  0  0  0  0  0  0  0  0  0  0
   -8.6886    4.2022   19.7068 C   0  0  1  0  0  0  0  0  0  0  0  0
   -9.8677    3.4918   20.1105 O   0  0  0  0  0  0  0  0  0  0  0  0
   -7.8653    3.2047   18.9083 C   0  0  1  0  0  0  0  0  0  0  0  0
   -6.4651    3.4469   19.0268 O   0  0  0  0  0  0  0  0  0  0  0  0
   -8.2641    1.8686   19.5097 C   0  0  1  0  0  0  0  0  0  0  0  0
   -7.4180    1.5584   20.6198 O   0  0  0  0  0  0  0  0  0  0  0  0
   -9.6786    2.0709   20.0202 C   0  0  2  0  0  0  0  0  0  0  0  0
   -6.9998    4.4580   13.3675 C   0  0  1  0  0  0  0  0  0  0  0  0
  -11.4564   -2.1889   17.3961 N   0  0  0  0  0  0  0  0  0  0  0  0
  -10.4062   -2.0881   18.2559 C   0  0  1  0  0  0  0  0  0  0  0  0
   -8.3014    4.7952   14.0379 C   0  0  2  0  0  0  0  0  0  0  0  0
   -9.6794   -3.2005   18.5110 N   0  0  0  0  0  0  0  0  0  0  0  0
   -8.8314    5.9269   13.3455 O   0  0  0  0  0  0  0  0  0  0  0  0
   -7.9244    5.1276   15.4680 C   0  0  2  0  0  0  0  0  0  0  0  0
  -10.0584   -0.9153   18.8642 N   0  0  0  0  0  0  0  0  0  0  0  0
   -8.6991    6.2036   15.9794 O   0  0  0  0  0  0  0  0  0  0  0  0
  -10.7564    0.2273   18.6432 C   0  0  2  0  0  0  0  0  0  0  0  0
   -6.4627    5.5246   15.4027 C   0  0  2  0  0  0  0  0  0  0  0  0
   -5.9508    4.9391   14.2068 O   0  0  0  0  0  0  0  0  0  0  0  0
  -11.9014    0.1739   17.7178 C   0  0  1  0  0  0  0  0  0  0  0  0
   -5.6595    5.0243   16.5981 C   0  0  0  0  0  0  0  0  0  0  0  0
   -5.6947    3.5959   16.6199 O   0  0  0  0  0  0  0  0  0  0  0  0
  -12.2279   -1.1201   17.0926 C   0  0  0  0  0  0  0  0  0  0  0  0
  -13.2711   -1.2288   16.2311 O   0  0  0  0  0  0  0  0  0  0  0  0
  -12.4140    1.4081   17.6620 N   0  0  0  0  0  0  0  0  0  0  0  0
  -11.6620    2.1980   18.4829 C   0  0  0  0  0  0  0  0  0  0  0  0
  -10.6694    1.4976   19.0710 N   0  0  1  0  0  0  0  0  0  0  0  0
   -4.3022    0.1297   14.5323 N   0  0  0  0  0  0  0  0  0  0  0  0
   -5.7673    1.0442   17.7482 O   0  5  0  0  0  0  0  0  0  0  0  0
   -4.0896    1.4183   14.9159 C   0  0  2  0  0  0  0  0  0  0  0  0
   -3.0401    1.7036   15.7302 N   0  0  0  0  0  0  0  0  0  0  0  0
   -3.7301    2.9951   18.4421 O   0  0  0  0  0  0  0  0  0  0  0  0
   -4.8981    2.4348   14.5093 N   0  0  0  0  0  0  0  0  0  0  0  0
   -5.9628    2.2124   13.7036 C   0  0  2  0  0  0  0  0  0  0  0  0
   -6.2420    0.8423   13.2537 C   0  0  2  0  0  0  0  0  0  0  0  0
   -5.3254   -0.2185   13.7236 C   0  0  0  0  0  0  0  0  0  0  0  0
   -5.5016   -1.5124   13.3586 O   0  0  0  0  0  0  0  0  0  0  0  0
   -7.3339    0.9102   12.4667 N   0  0  0  0  0  0  0  0  0  0  0  0
   -7.7242    2.2188   12.4209 C   0  0  0  0  0  0  0  0  0  0  0  0
   -6.8986    2.9934   13.1607 N   0  0  1  0  0  0  0  0  0  0  0  0
  1  3  1  6  0  0  0
  1  4  2  0  0  0  0
  1  6  1  0  0  0  0
  1 22  1  0  0  0  0
  2 28  1  0  0  0  0
  2 35  1  6  0  0  0
  2 38  2  0  0  0  0
  2 10  1  0  0  0  0
  5  6  1  0  0  0  0
  7  5  1  6  0  0  0
  7  8  1  0  0  0  0
  7  9  1  0  0  0  0
  9 10  1  1  0  0  0
  9 11  1  0  0  0  0
 11 12  1  1  0  0  0
 11 13  1  0  0  0  0
 13  8  1  6  0  0  0
 13 33  1  0  0  0  0
 14 46  1  0  0  0  0
 14 17  1  0  0  0  0
 14 25  1  1  0  0  0
 15 16  1  0  0  0  0
 15 29  1  0  0  0  0
 16 18  1  6  0  0  0
 16 21  1  0  0  0  0
 17 19  1  6  0  0  0
 17 20  1  0  0  0  0
 20 22  1  6  0  0  0
 20 24  1  0  0  0  0
 23 21  1  6  0  0  0
 23 26  1  0  0  0  0
 23 33  1  0  0  0  0
 24 25  1  6  0  0  0
 24 27  1  0  0  0  0
 26 29  1  1  0  0  0
 26 31  1  0  0  0  0
 27 28  1  0  0  0  0
 29 30  2  0  0  0  0
 31 32  1  0  0  0  0
 33 32  1  1  0  0  0
 34 36  1  0  0  0  0
 34 42  1  0  0  0  0
 36 37  1  1  0  0  0
 36 39  1  0  0  0  0
 40 39  1  6  0  0  0
 40 41  1  0  0  0  0
 40 46  1  0  0  0  0
 41 42  1  6  0  0  0
 41 44  1  0  0  0  0
 42 43  2  0  0  0  0
 44 45  1  0  0  0  0
 46 45  1  1  0  0  0
M  CHG  2   3  -1  35  -1
M  END
>  <CHROM.1>
174.79506331,-117.96152736,-8.11690851,2.54975728,16.63928817,2.72417315
-0.58838820,3.07813399

>  <Name>
ligand

>  <RI>
416

>  <Rbt.Current_Directory>
/home/itssahil/PROJECTS/Mol_Feturizer/Test_systems_manuscript/rnas/3mum

>  <Rbt.Executable>
rbdock ($Id: //depot/dev/client3/rdock/2013.1/src/exe/rbdock.cxx#4 $)

>  <Rbt.Library>
libRbt.so (2013.1, Build901 2013/11/27)

>  <Rbt.Parameter_File>
/export/apps/rDock/src/rDock_2013.1_src/data/scripts/dock_solv.prm

>  <Rbt.Receptor>
prm/pocket_docking_3.prm

>  <SCORE>
-33.6682

>  <SCORE.INTER>
-36.5072

>  <SCORE.INTER.CONST>
1

>  <SCORE.INTER.POLAR>
0

>  <SCORE.INTER.ROT>
2

>  <SCORE.INTER.SOLV>
28.7927

>  <SCORE.INTER.VDW>
-38.869

>  <SCORE.INTER.norm>
-0.793634

>  <SCORE.INTRA>
2.38517

>  <SCORE.INTRA.DIHEDRAL>
-0.00753022

>  <SCORE.INTRA.DIHEDRAL.0>
2.40424

>  <SCORE.INTRA.POLAR>
0

>  <SCORE.INTRA.POLAR.0>
0

>  <SCORE.INTRA.REPUL>
0

>  <SCORE.INTRA.REPUL.0>
0

>  <SCORE.INTRA.SOLV>
7.43247

>  <SCORE.INTRA.SOLV.lig_0>
-134.169

>  <SCORE.INTRA.VDW>
-1.3273

>  <SCORE.INTRA.VDW.0>
-2.18386

>  <SCORE.INTRA.norm>
0.0518515

>  <SCORE.RESTR>
0.453788

>  <SCORE.RESTR.CAVITY>
0.453788

>  <SCORE.RESTR.norm>
0.00986496

>  <SCORE.SYSTEM>
0

>  <SCORE.SYSTEM.CONST>
0

>  <SCORE.SYSTEM.DIHEDRAL>
0

>  <SCORE.SYSTEM.SOLV>
0

>  <SCORE.SYSTEM.norm>
0

>  <SCORE.heavy>
46

>  <SCORE.norm>
-0.731917

>  <RMSD>
2.170

$$$$
ligand
 OpenBabel02271912143D
libRbt.so/2013.1/901 2013/11/27
 46 52  0  0  0  0  0  0  0  0999 V2000
  -10.2832    5.8536   16.5234 P   0  0  1  0  0  0  0  0  0  0  0  0
   -5.4573    2.8670   18.0942 P   0  0  2  0  0  0  0  0  0  0  0  0
  -11.2373    4.9114   15.3642 O   0  5  0  0  0  0  0  0  0  0  0  0
  -11.0982    7.3780   16.9608 O   0  0  0  0  0  0  0  0  0  0  0  0
   -9.2151    5.4068   18.9073 C   0  0  0  0  0  0  0  0  0  0  0  0
  -10.0441    4.9513   17.8379 O   0  0  0  0  0  0  0  0  0  0  0  0
   -8.7920    4.2086   19.7355 C   0  0  1  0  0  0  0  0  0  0  0  0
   -9.9544    3.4661   20.1299 O   0  0  0  0  0  0  0  0  0  0  0  0
   -7.9218    3.2261   18.9688 C   0  0  1  0  0  0  0  0  0  0  0  0
   -6.5328    3.5163   19.1084 O   0  0  0  0  0  0  0  0  0  0  0  0
   -8.2876    1.8874   19.5854 C   0  0  1  0  0  0  0  0  0  0  0  0
   -7.4525    1.6235   20.7156 O   0  0  0  0  0  0  0  0  0  0  0  0
   -9.7172    2.0510   20.0670 C   0  0  2  0  0  0  0  0  0  0  0  0
   -6.9956    4.4171   13.4242 C   0  0  1  0  0  0  0  0  0  0  0  0
  -11.4427   -2.3490   17.6473 N   0  0  0  0  0  0  0  0  0  0  0  0
  -10.4339   -2.2062   18.5498 C   0  0  1  0  0  0  0  0  0  0  0  0
   -8.3198    4.7219   14.0653 C   0  0  2  0  0  0  0  0  0  0  0  0
   -9.7409   -3.3096   18.9143 N   0  0  0  0  0  0  0  0  0  0  0  0
   -8.8737    5.8240   13.3445 O   0  0  0  0  0  0  0  0  0  0  0  0
   -7.9804    5.0898   15.4961 C   0  0  2  0  0  0  0  0  0  0  0  0
  -10.0947   -1.0003   19.0951 N   0  0  0  0  0  0  0  0  0  0  0  0
   -8.7993    6.1477   15.9754 O   0  0  0  0  0  0  0  0  0  0  0  0
  -10.7601    0.1351   18.7639 C   0  0  2  0  0  0  0  0  0  0  0  0
   -6.5315    5.5338   15.4505 C   0  0  2  0  0  0  0  0  0  0  0  0
   -5.9786    4.9462   14.2739 O   0  0  0  0  0  0  0  0  0  0  0  0
  -11.8596    0.0365   17.7883 C   0  0  1  0  0  0  0  0  0  0  0  0
   -5.7345    5.0799   16.6683 C   0  0  0  0  0  0  0  0  0  0  0  0
   -5.7233    3.6517   16.7135 O   0  0  0  0  0  0  0  0  0  0  0  0
  -12.1788   -1.2918   17.2352 C   0  0  0  0  0  0  0  0  0  0  0  0
  -13.1806   -1.4427   16.3321 O   0  0  0  0  0  0  0  0  0  0  0  0
  -12.3463    1.2716   17.6249 N   0  0  0  0  0  0  0  0  0  0  0  0
  -11.6207    2.1038   18.4278 C   0  0  0  0  0  0  0  0  0  0  0  0
  -10.6709    1.4299   19.1099 N   0  0  1  0  0  0  0  0  0  0  0  0
   -4.0921    0.2240   14.5888 N   0  0  0  0  0  0  0  0  0  0  0  0
   -5.7330    1.1176   17.8831 O   0  5  0  0  0  0  0  0  0  0  0  0
   -3.9192    1.5280   14.9392 C   0  0  2  0  0  0  0  0  0  0  0  0
   -2.8568    1.8717   15.7132 N   0  0  0  0  0  0  0  0  0  0  0  0
   -3.7740    3.1459   18.5805 O   0  0  0  0  0  0  0  0  0  0  0  0
   -4.7800    2.5030   14.5383 N   0  0  0  0  0  0  0  0  0  0  0  0
   -5.8598    2.2218   13.7721 C   0  0  2  0  0  0  0  0  0  0  0  0
   -6.0981    0.8323   13.3592 C   0  0  2  0  0  0  0  0  0  0  0  0
   -5.1256   -0.1813   13.8207 C   0  0  0  0  0  0  0  0  0  0  0  0
   -5.2614   -1.4887   13.4878 O   0  0  0  0  0  0  0  0  0  0  0  0
   -7.2161    0.8404   12.6067 N   0  0  0  0  0  0  0  0  0  0  0  0
   -7.6595    2.1314   12.5469 C   0  0  0  0  0  0  0  0  0  0  0  0
   -6.8426    2.9535   13.2439 N   0  0  1  0  0  0  0  0  0  0  0  0
  1  3  1  6  0  0  0
  1  4  2  0  0  0  0
  1  6  1  0  0  0  0
  1 22  1  0  0  0  0
  2 28  1  0  0  0  0
  2 35  1  6  0  0  0
  2 38  2  0  0  0  0
  2 10  1  0  0  0  0
  5  6  1  0  0  0  0
  7  5  1  6  0  0  0
  7  8  1  0  0  0  0
  7  9  1  0  0  0  0
  9 10  1  1  0  0  0
  9 11  1  0  0  0  0
 11 12  1  1  0  0  0
 11 13  1  0  0  0  0
 13  8  1  6  0  0  0
 13 33  1  0  0  0  0
 14 46  1  0  0  0  0
 14 17  1  0  0  0  0
 14 25  1  1  0  0  0
 15 16  1  0  0  0  0
 15 29  1  0  0  0  0
 16 18  1  6  0  0  0
 16 21  1  0  0  0  0
 17 19  1  6  0  0  0
 17 20  1  0  0  0  0
 20 22  1  6  0  0  0
 20 24  1  0  0  0  0
 23 21  1  6  0  0  0
 23 26  1  0  0  0  0
 23 33  1  0  0  0  0
 24 25  1  6  0  0  0
 24 27  1  0  0  0  0
 26 29  1  1  0  0  0
 26 31  1  0  0  0  0
 27 28  1  0  0  0  0
 29 30  2  0  0  0  0
 31 32  1  0  0  0  0
 33 32  1  1  0  0  0
 34 36  1  0  0  0  0
 34 42  1  0  0  0  0
 36 37  1  1  0  0  0
 36 39  1  0  0  0  0
 40 39  1  6  0  0  0
 40 41  1  0  0  0  0
 40 46  1  0  0  0  0
 41 42  1  6  0  0  0
 41 44  1  0  0  0  0
 42 43  2  0  0  0  0
 44 45  1  0  0  0  0
 46 45  1  1  0  0  0
M  CHG  2   3  -1  35  -1
M  END
>  <CHROM.1>
179.22770188,-120.86657052,-8.11504323,2.52446950,16.71150432,2.68280267
-0.57164564,3.03425381

>  <Name>
ligand

>  <RI>
-1

>  <Rbt.Current_Directory>
/home/itssahil/PROJECTS/Mol_Feturizer/Test_systems_manuscript/rnas/3mum

>  <Rbt.Executable>
rbdock ($Id: //depot/dev/client3/rdock/2013.1/src/exe/rbdock.cxx#4 $)

>  <Rbt.Library>
libRbt.so (2013.1, Build901 2013/11/27)

>  <Rbt.Parameter_File>
/export/apps/rDock/src/rDock_2013.1_src/data/scripts/dock_solv.prm

>  <Rbt.Receptor>
prm/pocket_docking_4.prm

>  <SCORE>
-34.6637

>  <SCORE.INTER>
-36.3725

>  <SCORE.INTER.CONST>
1

>  <SCORE.INTER.POLAR>
0

>  <SCORE.INTER.ROT>
2

>  <SCORE.INTER.SOLV>
28.8303

>  <SCORE.INTER.VDW>
-38.7917

>  <SCORE.INTER.norm>
-0.790706

>  <SCORE.INTRA>
1.70879

>  <SCORE.INTRA.DIHEDRAL>
-0.00251401

>  <SCORE.INTRA.DIHEDRAL.0>
2.40424

>  <SCORE.INTRA.POLAR>
0

>  <SCORE.INTRA.POLAR.0>
0

>  <SCORE.INTRA.REPUL>
0

>  <SCORE.INTRA.REPUL.0>
0

>  <SCORE.INTRA.SOLV>
6.14168

>  <SCORE.INTRA.SOLV.lig_0>
-134.169

>  <SCORE.INTRA.VDW>
-1.3608

>  <SCORE.INTRA.VDW.0>
-2.18386

>  <SCORE.INTRA.norm>
0.0371475

>  <SCORE.RESTR>
0

>  <SCORE.RESTR.CAVITY>
0

>  <SCORE.RESTR.norm>
0

>  <SCORE.SYSTEM>
0

>  <SCORE.SYSTEM.CONST>
0

>  <SCORE.SYSTEM.DIHEDRAL>
0

>  <SCORE.SYSTEM.SOLV>
0

>  <SCORE.SYSTEM.norm>
0

>  <SCORE.heavy>
46

>  <SCORE.norm>
-0.753558

>  <RMSD>
2.173

$$$$
ligand
 OpenBabel02271912143D
libRbt.so/2013.1/901 2013/11/27
 46 52  0  0  0  0  0  0  0  0999 V2000
  -10.2792    5.8653   16.5102 P   0  0  1  0  0  0  0  0  0  0  0  0
   -5.4575    2.8680   18.0733 P   0  0  2  0  0  0  0  0  0  0  0  0
  -11.2356    4.9265   15.3501 O   0  5  0  0  0  0  0  0  0  0  0  0
  -11.0913    7.3904   16.9504 O   0  0  0  0  0  0  0  0  0  0  0  0
   -9.2104    5.4131   18.8927 C   0  0  0  0  0  0  0  0  0  0  0  0
  -10.0408    4.9606   17.8231 O   0  0  0  0  0  0  0  0  0  0  0  0
   -8.7887    4.2129   19.7188 C   0  0  1  0  0  0  0  0  0  0  0  0
   -9.9521    3.4719   20.1129 O   0  0  0  0  0  0  0  0  0  0  0  0
   -7.9207    3.2301   18.9501 C   0  0  1  0  0  0  0  0  0  0  0  0
   -6.5311    3.5177   19.0892 O   0  0  0  0  0  0  0  0  0  0  0  0
   -8.2884    1.8911   19.5649 C   0  0  1  0  0  0  0  0  0  0  0  0
   -7.4530    1.6240   20.6941 O   0  0  0  0  0  0  0  0  0  0  0  0
   -9.7174    2.0565   20.0476 C   0  0  2  0  0  0  0  0  0  0  0  0
   -6.9961    4.4278   13.4066 C   0  0  1  0  0  0  0  0  0  0  0  0
  -11.2616   -2.2743   17.3920 N   0  0  0  0  0  0  0  0  0  0  0  0
  -10.2222   -2.1246   18.2578 C   0  0  1  0  0  0  0  0  0  0  0  0
   -8.3193    4.7340   14.0491 C   0  0  2  0  0  0  0  0  0  0  0  0
   -9.4406   -3.1997   18.5108 N   0  0  0  0  0  0  0  0  0  0  0  0
   -8.8719    5.8381   13.3303 O   0  0  0  0  0  0  0  0  0  0  0  0
   -7.9784    5.0991   15.4802 C   0  0  2  0  0  0  0  0  0  0  0  0
   -9.9379   -0.9389   18.8741 N   0  0  0  0  0  0  0  0  0  0  0  0
   -8.7951    6.1577   15.9616 O   0  0  0  0  0  0  0  0  0  0  0  0
  -10.6925    0.1677   18.6553 C   0  0  2  0  0  0  0  0  0  0  0  0
   -6.5288    5.5407   15.4342 C   0  0  2  0  0  0  0  0  0  0  0  0
   -5.9777    4.9539   14.2564 O   0  0  0  0  0  0  0  0  0  0  0  0
  -11.8287    0.0608   17.7237 C   0  0  1  0  0  0  0  0  0  0  0  0
   -5.7318    5.0836   16.6509 C   0  0  0  0  0  0  0  0  0  0  0  0
   -5.7230    3.6553   16.6940 O   0  0  0  0  0  0  0  0  0  0  0  0
  -12.0853   -1.2448   17.0901 C   0  0  0  0  0  0  0  0  0  0  0  0
  -13.1173   -1.4020   16.2227 O   0  0  0  0  0  0  0  0  0  0  0  0
  -12.4036    1.2674   17.6718 N   0  0  0  0  0  0  0  0  0  0  0  0
  -11.6970    2.0902   18.5007 C   0  0  0  0  0  0  0  0  0  0  0  0
  -10.6728    1.4384   19.0903 N   0  0  1  0  0  0  0  0  0  0  0  0
   -4.1155    0.2234   14.5868 N   0  0  0  0  0  0  0  0  0  0  0  0
   -5.7362    1.1195   17.8598 O   0  5  0  0  0  0  0  0  0  0  0  0
   -3.9420    1.5259   14.9421 C   0  0  2  0  0  0  0  0  0  0  0  0
   -2.8856    1.8646   15.7266 N   0  0  0  0  0  0  0  0  0  0  0  0
   -3.7733    3.1434   18.5589 O   0  0  0  0  0  0  0  0  0  0  0  0
   -4.7962    2.5045   14.5359 N   0  0  0  0  0  0  0  0  0  0  0  0
   -5.8698    2.2283   13.7592 C   0  0  2  0  0  0  0  0  0  0  0  0
   -6.1084    0.8406   13.3407 C   0  0  2  0  0  0  0  0  0  0  0  0
   -5.1431   -0.1770   13.8084 C   0  0  0  0  0  0  0  0  0  0  0  0
   -5.2797   -1.4832   13.4710 O   0  0  0  0  0  0  0  0  0  0  0  0
   -7.2195    0.8538   12.5781 N   0  0  0  0  0  0  0  0  0  0  0  0
   -7.6587    2.1463   12.5176 C   0  0  0  0  0  0  0  0  0  0  0  0
   -6.8457    2.9643   13.2240 N   0  0  1  0  0  0  0  0  0  0  0  0
  1  3  1  6  0  0  0
  1  4  2  0  0  0  0
  1  6  1  0  0  0  0
  1 22  1  0  0  0  0
  2 28  1  0  0  0  0
  2 35  1  6  0  0  0
  2 38  2  0  0  0  0
  2 10  1  0  0  0  0
  5  6  1  0  0  0  0
  7  5  1  6  0  0  0
  7  8  1  0  0  0  0
  7  9  1  0  0  0  0
  9 10  1  1  0  0  0
  9 11  1  0  0  0  0
 11 12  1  1  0  0  0
 11 13  1  0  0  0  0
 13  8  1  6  0  0  0
 13 33  1  0  0  0  0
 14 46  1  0  0  0  0
 14 17  1  0  0  0  0
 14 25  1  1  0  0  0
 15 16  1  0  0  0  0
 15 29  1  0  0  0  0
 16 18  1  6  0  0  0
 16 21  1  0  0  0  0
 17 19  1  6  0  0  0
 17 20  1  0  0  0  0
 20 22  1  6  0  0  0
 20 24  1  0  0  0  0
 23 21  1  6  0  0  0
 23 26  1  0  0  0  0
 23 33  1  0  0  0  0
 24 25  1  6  0  0  0
 24 27  1  0  0  0  0
 26 29  1  1  0  0  0
 26 31  1  0  0  0  0
 27 28  1  0  0  0  0
 29 30  2  0  0  0  0
 31 32  1  0  0  0  0
 33 32  1  1  0  0  0
 34 36  1  0  0  0  0
 34 42  1  0  0  0  0
 36 37  1  1  0  0  0
 36 39  1  0  0  0  0
 40 39  1  6  0  0  0
 40 41  1  0  0  0  0
 40 46  1  0  0  0  0
 41 42  1  6  0  0  0
 41 44  1  0  0  0  0
 42 43  2  0  0  0  0
 44 45  1  0  0  0  0
 46 45  1  1  0  0  0
M  CHG  2   3  -1  35  -1
M  END
>  <CHROM.1>
173.00716179,-120.30335721,-8.09788235,2.53845162,16.66952772,2.73189344
-0.57215041,3.05356392

>  <Name>
ligand

>  <RI>
-1

>  <Rbt.Current_Directory>
/home/itssahil/PROJECTS/Mol_Feturizer/Test_systems_manuscript/rnas/3mum

>  <Rbt.Executable>
rbdock ($Id: //depot/dev/client3/rdock/2013.1/src/exe/rbdock.cxx#4 $)

>  <Rbt.Library>
libRbt.so (2013.1, Build901 2013/11/27)

>  <Rbt.Parameter_File>
/export/apps/rDock/src/rDock_2013.1_src/data/scripts/dock_solv.prm

>  <Rbt.Receptor>
prm/pocket_docking_6.prm

>  <SCORE>
-34.7813

>  <SCORE.INTER>
-36.6416

>  <SCORE.INTER.CONST>
1

>  <SCORE.INTER.POLAR>
0

>  <SCORE.INTER.ROT>
2

>  <SCORE.INTER.SOLV>
28.8263

>  <SCORE.INTER.VDW>
-38.9699

>  <SCORE.INTER.norm>
-0.796557

>  <SCORE.INTRA>
1.86035

>  <SCORE.INTRA.DIHEDRAL>
-0.00447319

>  <SCORE.INTRA.DIHEDRAL.0>
2.40424

>  <SCORE.INTRA.POLAR>
0

>  <SCORE.INTRA.POLAR.0>
0

>  <SCORE.INTRA.REPUL>
0

>  <SCORE.INTRA.REPUL.0>
0

>  <SCORE.INTRA.SOLV>
6.39899

>  <SCORE.INTRA.SOLV.lig_0>
-134.169

>  <SCORE.INTRA.VDW>
-1.33691

>  <SCORE.INTRA.VDW.0>
-2.18386

>  <SCORE.INTRA.norm>
0.0404423

>  <SCORE.RESTR>
0

>  <SCORE.RESTR.CAVITY>
0

>  <SCORE.RESTR.norm>
0

>  <SCORE.SYSTEM>
0

>  <SCORE.SYSTEM.CONST>
0

>  <SCORE.SYSTEM.DIHEDRAL>
0

>  <SCORE.SYSTEM.SOLV>
0

>  <SCORE.SYSTEM.norm>
0

>  <SCORE.heavy>
46

>  <SCORE.norm>
-0.756115

>  <RMSD>
2.177

$$$$
ligand
 OpenBabel02271912143D
libRbt.so/2013.1/901 2013/11/27
 46 52  0  0  0  0  0  0  0  0999 V2000
  -10.2837    5.8550   16.5264 P   0  0  1  0  0  0  0  0  0  0  0  0
   -5.4685    2.8499   18.0947 P   0  0  2  0  0  0  0  0  0  0  0  0
  -11.2354    4.9219   15.3578 O   0  5  0  0  0  0  0  0  0  0  0  0
  -11.0977    7.3779   16.9707 O   0  0  0  0  0  0  0  0  0  0  0  0
   -9.2248    5.3911   18.9111 C   0  0  0  0  0  0  0  0  0  0  0  0
  -10.0508    4.9438   17.8359 O   0  0  0  0  0  0  0  0  0  0  0  0
   -8.8066    4.1868   19.7330 C   0  0  1  0  0  0  0  0  0  0  0  0
   -9.9716    3.4439   20.1187 O   0  0  0  0  0  0  0  0  0  0  0  0
   -7.9354    3.2077   18.9631 C   0  0  1  0  0  0  0  0  0  0  0  0
   -6.5464    3.4946   19.1094 O   0  0  0  0  0  0  0  0  0  0  0  0
   -8.3056    1.8657   19.5698 C   0  0  1  0  0  0  0  0  0  0  0  0
   -7.4749    1.5931   20.7012 O   0  0  0  0  0  0  0  0  0  0  0  0
   -9.7366    2.0288   20.0474 C   0  0  2  0  0  0  0  0  0  0  0  0
   -6.9879    4.4326   13.4295 C   0  0  1  0  0  0  0  0  0  0  0  0
  -11.2998   -2.3012   17.4016 N   0  0  0  0  0  0  0  0  0  0  0  0
  -10.2687   -2.1577   18.2783 C   0  0  1  0  0  0  0  0  0  0  0  0
   -8.3137    4.7356   14.0679 C   0  0  2  0  0  0  0  0  0  0  0  0
   -9.5024   -3.2400   18.5471 N   0  0  0  0  0  0  0  0  0  0  0  0
   -8.8633    5.8433   13.3523 O   0  0  0  0  0  0  0  0  0  0  0  0
   -7.9787    5.0937   15.5022 C   0  0  2  0  0  0  0  0  0  0  0  0
   -9.9779   -0.9713   18.8904 N   0  0  0  0  0  0  0  0  0  0  0  0
   -8.7974    6.1500   15.9854 O   0  0  0  0  0  0  0  0  0  0  0  0
  -10.7173    0.1423   18.6560 C   0  0  2  0  0  0  0  0  0  0  0  0
   -6.5289    5.5356   15.4644 C   0  0  2  0  0  0  0  0  0  0  0  0
   -5.9729    4.9545   14.2861 O   0  0  0  0  0  0  0  0  0  0  0  0
  -11.8440    0.0423   17.7122 C   0  0  1  0  0  0  0  0  0  0  0  0
   -5.7370    5.0725   16.6821 C   0  0  0  0  0  0  0  0  0  0  0  0
   -5.7283    3.6439   16.7182 O   0  0  0  0  0  0  0  0  0  0  0  0
  -12.1083   -1.2644   17.0838 C   0  0  0  0  0  0  0  0  0  0  0  0
  -13.1320   -1.4155   16.2057 O   0  0  0  0  0  0  0  0  0  0  0  0
  -12.4045    1.2550   17.6460 N   0  0  0  0  0  0  0  0  0  0  0  0
  -11.6980    2.0751   18.4778 C   0  0  0  0  0  0  0  0  0  0  0  0
  -10.6880    1.4154   19.0831 N   0  0  1  0  0  0  0  0  0  0  0  0
   -4.0947    0.2274   14.5758 N   0  0  0  0  0  0  0  0  0  0  0  0
   -5.7465    1.1024   17.8715 O   0  5  0  0  0  0  0  0  0  0  0  0
   -3.9207    1.5288   14.9350 C   0  0  2  0  0  0  0  0  0  0  0  0
   -2.8600    1.8658   15.7143 N   0  0  0  0  0  0  0  0  0  0  0  0
   -3.7864    3.1228   18.5887 O   0  0  0  0  0  0  0  0  0  0  0  0
   -4.7787    2.5078   14.5378 N   0  0  0  0  0  0  0  0  0  0  0  0
   -5.8567    2.2332   13.7667 C   0  0  2  0  0  0  0  0  0  0  0  0
   -6.0960    0.8469   13.3443 C   0  0  2  0  0  0  0  0  0  0  0  0
   -5.1266   -0.1713   13.8022 C   0  0  0  0  0  0  0  0  0  0  0  0
   -5.2636   -1.4764   13.4606 O   0  0  0  0  0  0  0  0  0  0  0  0
   -7.2118    0.8615   12.5886 N   0  0  0  0  0  0  0  0  0  0  0  0
   -7.6530    2.1537   12.5358 C   0  0  0  0  0  0  0  0  0  0  0  0
   -6.8368    2.9700   13.2403 N   0  0  1  0  0  0  0  0  0  0  0  0
  1  3  1  6  0  0  0
  1  4  2  0  0  0  0
  1  6  1  0  0  0  0
  1 22  1  0  0  0  0
  2 28  1  0  0  0  0
  2 35  1  6  0  0  0
  2 38  2  0  0  0  0
  2 10  1  0  0  0  0
  5  6  1  0  0  0  0
  7  5  1  6  0  0  0
  7  8  1  0  0  0  0
  7  9  1  0  0  0  0
  9 10  1  1  0  0  0
  9 11  1  0  0  0  0
 11 12  1  1  0  0  0
 11 13  1  0  0  0  0
 13  8  1  6  0  0  0
 13 33  1  0  0  0  0
 14 46  1  0  0  0  0
 14 17  1  0  0  0  0
 14 25  1  1  0  0  0
 15 16  1  0  0  0  0
 15 29  1  0  0  0  0
 16 18  1  6  0  0  0
 16 21  1  0  0  0  0
 17 19  1  6  0  0  0
 17 20  1  0  0  0  0
 20 22  1  6  0  0  0
 20 24  1  0  0  0  0
 23 21  1  6  0  0  0
 23 26  1  0  0  0  0
 23 33  1  0  0  0  0
 24 25  1  6  0  0  0
 24 27  1  0  0  0  0
 26 29  1  1  0  0  0
 26 31  1  0  0  0  0
 27 28  1  0  0  0  0
 29 30  2  0  0  0  0
 31 32  1  0  0  0  0
 33 32  1  1  0  0  0
 34 36  1  0  0  0  0
 34 42  1  0  0  0  0
 36 37  1  1  0  0  0
 36 39  1  0  0  0  0
 40 39  1  6  0  0  0
 40 41  1  0  0  0  0
 40 46  1  0  0  0  0
 41 42  1  6  0  0  0
 41 44  1  0  0  0  0
 42 43  2  0  0  0  0
 44 45  1  0  0  0  0
 46 45  1  1  0  0  0
M  CHG  2   3  -1  35  -1
M  END
>  <CHROM.1>
174.01411164,-120.89900915,-8.10445791,2.52651854,16.67977268,2.72855534
-0.56899041,3.05690238

>  <Name>
ligand

>  <RI>
-1

>  <Rbt.Current_Directory>
/home/itssahil/PROJECTS/Mol_Feturizer/Test_systems_manuscript/rnas/3mum

>  <Rbt.Executable>
rbdock ($Id: //depot/dev/client3/rdock/2013.1/src/exe/rbdock.cxx#4 $)

>  <Rbt.Library>
libRbt.so (2013.1, Build901 2013/11/27)

>  <Rbt.Parameter_File>
/export/apps/rDock/src/rDock_2013.1_src/data/scripts/dock_solv.prm

>  <Rbt.Receptor>
prm/pocket_docking_4.prm

>  <SCORE>
-34.791

>  <SCORE.INTER>
-36.5469

>  <SCORE.INTER.CONST>
1

>  <SCORE.INTER.POLAR>
0

>  <SCORE.INTER.ROT>
2

>  <SCORE.INTER.SOLV>
29.0467

>  <SCORE.INTER.VDW>
-38.9802

>  <SCORE.INTER.norm>
-0.794498

>  <SCORE.INTRA>
1.75591

>  <SCORE.INTRA.DIHEDRAL>
-0.0034351

>  <SCORE.INTRA.DIHEDRAL.0>
2.40424

>  <SCORE.INTRA.POLAR>
0

>  <SCORE.INTRA.POLAR.0>
0

>  <SCORE.INTRA.REPUL>
0

>  <SCORE.INTRA.REPUL.0>
0

>  <SCORE.INTRA.SOLV>
6.12929

>  <SCORE.INTRA.SOLV.lig_0>
-134.169

>  <SCORE.INTRA.VDW>
-1.30702

>  <SCORE.INTRA.VDW.0>
-2.18386

>  <SCORE.INTRA.norm>
0.0381719

>  <SCORE.RESTR>
0

>  <SCORE.RESTR.CAVITY>
0

>  <SCORE.RESTR.norm>
0

>  <SCORE.SYSTEM>
0

>  <SCORE.SYSTEM.CONST>
0

>  <SCORE.SYSTEM.DIHEDRAL>
0

>  <SCORE.SYSTEM.SOLV>
0

>  <SCORE.SYSTEM.norm>
0

>  <SCORE.heavy>
46

>  <SCORE.norm>
-0.756326

>  <RMSD>
2.180

$$$$
ligand
 OpenBabel02271912143D
libRbt.so/2013.1/901 2013/11/27
 46 52  0  0  0  0  0  0  0  0999 V2000
  -10.3025    5.8567   16.5455 P   0  0  1  0  0  0  0  0  0  0  0  0
   -5.4705    2.8715   18.0999 P   0  0  2  0  0  0  0  0  0  0  0  0
  -11.2552    4.9184   15.3820 O   0  5  0  0  0  0  0  0  0  0  0  0
  -11.1202    7.3774   16.9906 O   0  0  0  0  0  0  0  0  0  0  0  0
   -9.2327    5.4003   18.9268 C   0  0  0  0  0  0  0  0  0  0  0  0
  -10.0612    4.9484   17.8555 O   0  0  0  0  0  0  0  0  0  0  0  0
   -8.8070    4.1988   19.7490 C   0  0  1  0  0  0  0  0  0  0  0  0
   -9.9678    3.4523   20.1402 O   0  0  0  0  0  0  0  0  0  0  0  0
   -7.9352    3.2217   18.9772 C   0  0  1  0  0  0  0  0  0  0  0  0
   -6.5467    3.5139   19.1177 O   0  0  0  0  0  0  0  0  0  0  0  0
   -8.2983    1.8794   19.5874 C   0  0  1  0  0  0  0  0  0  0  0  0
   -7.4622    1.6115   20.7160 O   0  0  0  0  0  0  0  0  0  0  0  0
   -9.7280    2.0380   20.0702 C   0  0  2  0  0  0  0  0  0  0  0  0
   -7.0134    4.4415   13.4381 C   0  0  1  0  0  0  0  0  0  0  0  0
  -11.4264   -2.3483   17.6068 N   0  0  0  0  0  0  0  0  0  0  0  0
  -10.4145   -2.2072   18.5060 C   0  0  1  0  0  0  0  0  0  0  0  0
   -8.3379    4.7407   14.0812 C   0  0  2  0  0  0  0  0  0  0  0  0
   -9.7098   -3.3086   18.8540 N   0  0  0  0  0  0  0  0  0  0  0  0
   -8.8942    5.8453   13.3660 O   0  0  0  0  0  0  0  0  0  0  0  0
   -7.9987    5.1022   15.5136 C   0  0  2  0  0  0  0  0  0  0  0  0
  -10.0833   -1.0049   19.0640 N   0  0  0  0  0  0  0  0  0  0  0  0
   -8.8193    6.1562   15.9984 O   0  0  0  0  0  0  0  0  0  0  0  0
  -10.7604    0.1283   18.7496 C   0  0  2  0  0  0  0  0  0  0  0  0
   -6.5507    5.5492   15.4696 C   0  0  2  0  0  0  0  0  0  0  0  0
   -5.9971    4.9684   14.2900 O   0  0  0  0  0  0  0  0  0  0  0  0
  -11.8638    0.0315   17.7782 C   0  0  1  0  0  0  0  0  0  0  0  0
   -5.7523    5.0909   16.6849 C   0  0  0  0  0  0  0  0  0  0  0  0
   -5.7384    3.6625   16.7232 O   0  0  0  0  0  0  0  0  0  0  0  0
  -12.1739   -1.2929   17.2109 C   0  0  0  0  0  0  0  0  0  0  0  0
  -13.1789   -1.4420   16.3110 O   0  0  0  0  0  0  0  0  0  0  0  0
  -12.3622    1.2641   17.6319 N   0  0  0  0  0  0  0  0  0  0  0  0
  -11.6401    2.0931   18.4411 C   0  0  0  0  0  0  0  0  0  0  0  0
  -10.6809    1.4197   19.1105 N   0  0  1  0  0  0  0  0  0  0  0  0
   -4.0988    0.2491   14.5770 N   0  0  0  0  0  0  0  0  0  0  0  0
   -5.7429    1.1227   17.8804 O   0  5  0  0  0  0  0  0  0  0  0  0
   -3.9279    1.5517   14.9332 C   0  0  2  0  0  0  0  0  0  0  0  0
   -2.8647    1.8940   15.7067 N   0  0  0  0  0  0  0  0  0  0  0  0
   -3.7874    3.1512   18.5870 O   0  0  0  0  0  0  0  0  0  0  0  0
   -4.7915    2.5268   14.5387 N   0  0  0  0  0  0  0  0  0  0  0  0
   -5.8723    2.2469   13.7733 C   0  0  2  0  0  0  0  0  0  0  0  0
   -6.1085    0.8590   13.3544 C   0  0  2  0  0  0  0  0  0  0  0  0
   -5.1330   -0.1548   13.8091 C   0  0  0  0  0  0  0  0  0  0  0  0
   -5.2668   -1.4609   13.4704 O   0  0  0  0  0  0  0  0  0  0  0  0
   -7.2281    0.8682   12.6042 N   0  0  0  0  0  0  0  0  0  0  0  0
   -7.6743    2.1586   12.5514 C   0  0  0  0  0  0  0  0  0  0  0  0
   -6.8577    2.9791   13.2506 N   0  0  1  0  0  0  0  0  0  0  0  0
  1  3  1  6  0  0  0
  1  4  2  0  0  0  0
  1  6  1  0  0  0  0
  1 22  1  0  0  0  0
  2 28  1  0  0  0  0
  2 35  1  6  0  0  0
  2 38  2  0  0  0  0
  2 10  1  0  0  0  0
  5  6  1  0  0  0  0
  7  5  1  6  0  0  0
  7  8  1  0  0  0  0
  7  9  1  0  0  0  0
  9 10  1  1  0  0  0
  9 11  1  0  0  0  0
 11 12  1  1  0  0  0
 11 13  1  0  0  0  0
 13  8  1  6  0  0  0
 13 33  1  0  0  0  0
 14 46  1  0  0  0  0
 14 17  1  0  0  0  0
 14 25  1  1  0  0  0
 15 16  1  0  0  0  0
 15 29  1  0  0  0  0
 16 18  1  6  0  0  0
 16 21  1  0  0  0  0
 17 19  1  6  0  0  0
 17 20  1  0  0  0  0
 20 22  1  6  0  0  0
 20 24  1  0  0  0  0
 23 21  1  6  0  0  0
 23 26  1  0  0  0  0
 23 33  1  0  0  0  0
 24 25  1  6  0  0  0
 24 27  1  0  0  0  0
 26 29  1  1  0  0  0
 26 31  1  0  0  0  0
 27 28  1  0  0  0  0
 29 30  2  0  0  0  0
 31 32  1  0  0  0  0
 33 32  1  1  0  0  0
 34 36  1  0  0  0  0
 34 42  1  0  0  0  0
 36 37  1  1  0  0  0
 36 39  1  0  0  0  0
 40 39  1  6  0  0  0
 40 41  1  0  0  0  0
 40 46  1  0  0  0  0
 41 42  1  6  0  0  0
 41 44  1  0  0  0  0
 42 43  2  0  0  0  0
 44 45  1  0  0  0  0
 46 45  1  1  0  0  0
M  CHG  2   3  -1  35  -1
M  END
>  <CHROM.1>
178.60189946,-120.96344746,-8.12558799,2.53142026,16.71360062,2.68587265
-0.57209176,3.03982577

>  <Name>
ligand

>  <RI>
-1

>  <Rbt.Current_Directory>
/home/itssahil/PROJECTS/Mol_Feturizer/Test_systems_manuscript/rnas/3mum

>  <Rbt.Executable>
rbdock ($Id: //depot/dev/client3/rdock/2013.1/src/exe/rbdock.cxx#4 $)

>  <Rbt.Library>
libRbt.so (2013.1, Build901 2013/11/27)

>  <Rbt.Parameter_File>
/export/apps/rDock/src/rDock_2013.1_src/data/scripts/dock_solv.prm

>  <Rbt.Receptor>
prm/pocket_docking_5.prm

>  <SCORE>
-34.7014

>  <SCORE.INTER>
-36.3941

>  <SCORE.INTER.CONST>
1

>  <SCORE.INTER.POLAR>
0

>  <SCORE.INTER.ROT>
2

>  <SCORE.INTER.SOLV>
28.8953

>  <SCORE.INTER.VDW>
-38.8279

>  <SCORE.INTER.norm>
-0.791177

>  <SCORE.INTRA>
1.69276

>  <SCORE.INTRA.DIHEDRAL>
-0.00249273

>  <SCORE.INTRA.DIHEDRAL.0>
2.40424

>  <SCORE.INTRA.POLAR>
0

>  <SCORE.INTRA.POLAR.0>
0

>  <SCORE.INTRA.REPUL>
0

>  <SCORE.INTRA.REPUL.0>
0

>  <SCORE.INTRA.SOLV>
6.09794

>  <SCORE.INTRA.SOLV.lig_0>
-134.169

>  <SCORE.INTRA.VDW>
-1.35496

>  <SCORE.INTRA.VDW.0>
-2.18386

>  <SCORE.INTRA.norm>
0.0367991

>  <SCORE.RESTR>
0

>  <SCORE.RESTR.CAVITY>
0

>  <SCORE.RESTR.norm>
0

>  <SCORE.SYSTEM>
0

>  <SCORE.SYSTEM.CONST>
0

>  <SCORE.SYSTEM.DIHEDRAL>
0

>  <SCORE.SYSTEM.SOLV>
0

>  <SCORE.SYSTEM.norm>
0

>  <SCORE.heavy>
46

>  <SCORE.norm>
-0.754378

>  <RMSD>
2.182

$$$$
ligand
 OpenBabel02271912143D
libRbt.so/2013.1/901 2013/11/27
 46 52  0  0  0  0  0  0  0  0999 V2000
  -10.2920    5.8552   16.5342 P   0  0  1  0  0  0  0  0  0  0  0  0
   -5.4680    2.8574   18.0895 P   0  0  2  0  0  0  0  0  0  0  0  0
  -11.2444    4.9215   15.3668 O   0  5  0  0  0  0  0  0  0  0  0  0
  -11.1077    7.3763   16.9817 O   0  0  0  0  0  0  0  0  0  0  0  0
   -9.2271    5.3910   18.9162 C   0  0  0  0  0  0  0  0  0  0  0  0
  -10.0546    4.9433   17.8424 O   0  0  0  0  0  0  0  0  0  0  0  0
   -8.8050    4.1867   19.7361 C   0  0  1  0  0  0  0  0  0  0  0  0
   -9.9678    3.4413   20.1235 O   0  0  0  0  0  0  0  0  0  0  0  0
   -7.9336    3.2099   18.9634 C   0  0  1  0  0  0  0  0  0  0  0  0
   -6.5448    3.4992   19.1070 O   0  0  0  0  0  0  0  0  0  0  0  0
   -8.3002    1.8667   19.5697 C   0  0  1  0  0  0  0  0  0  0  0  0
   -7.4665    1.5946   20.6990 O   0  0  0  0  0  0  0  0  0  0  0  0
   -9.7304    2.0268   20.0505 C   0  0  2  0  0  0  0  0  0  0  0  0
   -7.0001    4.4417   13.4289 C   0  0  1  0  0  0  0  0  0  0  0  0
  -11.2905   -2.3032   17.4028 N   0  0  0  0  0  0  0  0  0  0  0  0
  -10.2577   -2.1586   18.2773 C   0  0  1  0  0  0  0  0  0  0  0  0
   -8.3251    4.7417   14.0705 C   0  0  2  0  0  0  0  0  0  0  0  0
   -9.4884   -3.2395   18.5428 N   0  0  0  0  0  0  0  0  0  0  0  0
   -8.8782    5.8491   13.3571 O   0  0  0  0  0  0  0  0  0  0  0  0
   -7.9877    5.0991   15.5044 C   0  0  2  0  0  0  0  0  0  0  0  0
   -9.9680   -0.9724   18.8901 N   0  0  0  0  0  0  0  0  0  0  0  0
   -8.8073    6.1534   15.9903 O   0  0  0  0  0  0  0  0  0  0  0  0
  -10.7103    0.1399   18.6590 C   0  0  2  0  0  0  0  0  0  0  0  0
   -6.5388    5.5436   15.4639 C   0  0  2  0  0  0  0  0  0  0  0  0
   -5.9843    4.9646   14.2838 O   0  0  0  0  0  0  0  0  0  0  0  0
  -11.8390    0.0387   17.7176 C   0  0  1  0  0  0  0  0  0  0  0  0
   -5.7434    5.0808   16.6795 C   0  0  0  0  0  0  0  0  0  0  0  0
   -5.7322    3.6522   16.7143 O   0  0  0  0  0  0  0  0  0  0  0  0
  -12.1019   -1.2677   17.0883 C   0  0  0  0  0  0  0  0  0  0  0  0
  -13.1275   -1.4199   16.2123 O   0  0  0  0  0  0  0  0  0  0  0  0
  -12.4022    1.2502   17.6544 N   0  0  0  0  0  0  0  0  0  0  0  0
  -11.6956    2.0708   18.4856 C   0  0  0  0  0  0  0  0  0  0  0  0
  -10.6828    1.4126   19.0876 N   0  0  1  0  0  0  0  0  0  0  0  0
   -4.1217    0.2334   14.6008 N   0  0  0  0  0  0  0  0  0  0  0  0
   -5.7432    1.1096   17.8652 O   0  5  0  0  0  0  0  0  0  0  0  0
   -3.9521    1.5339   14.9653 C   0  0  2  0  0  0  0  0  0  0  0  0
   -2.9011    1.8689   15.7585 N   0  0  0  0  0  0  0  0  0  0  0  0
   -3.7853    3.1329   18.5801 O   0  0  0  0  0  0  0  0  0  0  0  0
   -4.8050    2.5140   14.5599 N   0  0  0  0  0  0  0  0  0  0  0  0
   -5.8733    2.2414   13.7748 C   0  0  2  0  0  0  0  0  0  0  0  0
   -6.1076    0.8561   13.3461 C   0  0  2  0  0  0  0  0  0  0  0  0
   -5.1440   -0.1633   13.8135 C   0  0  0  0  0  0  0  0  0  0  0  0
   -5.2768   -1.4675   13.4670 O   0  0  0  0  0  0  0  0  0  0  0  0
   -7.2139    0.8727   12.5766 N   0  0  0  0  0  0  0  0  0  0  0  0
   -7.6542    2.1650   12.5215 C   0  0  0  0  0  0  0  0  0  0  0  0
   -6.8468    2.9795   13.2381 N   0  0  1  0  0  0  0  0  0  0  0  0
  1  3  1  6  0  0  0
  1  4  2  0  0  0  0
  1  6  1  0  0  0  0
  1 22  1  0  0  0  0
  2 28  1  0  0  0  0
  2 35  1  6  0  0  0
  2 38  2  0  0  0  0
  2 10  1  0  0  0  0
  5  6  1  0  0  0  0
  7  5  1  6  0  0  0
  7  8  1  0  0  0  0
  7  9  1  0  0  0  0
  9 10  1  1  0  0  0
  9 11  1  0  0  0  0
 11 12  1  1  0  0  0
 11 13  1  0  0  0  0
 13  8  1  6  0  0  0
 13 33  1  0  0  0  0
 14 46  1  0  0  0  0
 14 17  1  0  0  0  0
 14 25  1  1  0  0  0
 15 16  1  0  0  0  0
 15 29  1  0  0  0  0
 16 18  1  6  0  0  0
 16 21  1  0  0  0  0
 17 19  1  6  0  0  0
 17 20  1  0  0  0  0
 20 22  1  6  0  0  0
 20 24  1  0  0  0  0
 23 21  1  6  0  0  0
 23 26  1  0  0  0  0
 23 33  1  0  0  0  0
 24 25  1  6  0  0  0
 24 27  1  0  0  0  0
 26 29  1  1  0  0  0
 26 31  1  0  0  0  0
 27 28  1  0  0  0  0
 29 30  2  0  0  0  0
 31 32  1  0  0  0  0
 33 32  1  1  0  0  0
 34 36  1  0  0  0  0
 34 42  1  0  0  0  0
 36 37  1  1  0  0  0
 36 39  1  0  0  0  0
 40 39  1  6  0  0  0
 40 41  1  0  0  0  0
 40 46  1  0  0  0  0
 41 42  1  6  0  0  0
 41 44  1  0  0  0  0
 42 43  2  0  0  0  0
 44 45  1  0  0  0  0
 46 45  1  1  0  0  0
M  CHG  2   3  -1  35  -1
M  END
>  <CHROM.1>
173.98255784,-120.05427977,-8.10895792,2.52981029,16.68359737,2.71752029
-0.56950605,3.05494241

>  <Name>
ligand

>  <RI>
-1

>  <Rbt.Current_Directory>
/home/itssahil/PROJECTS/Mol_Feturizer/Test_systems_manuscript/rnas/3mum

>  <Rbt.Executable>
rbdock ($Id: //depot/dev/client3/rdock/2013.1/src/exe/rbdock.cxx#4 $)

>  <Rbt.Library>
libRbt.so (2013.1, Build901 2013/11/27)

>  <Rbt.Parameter_File>
/export/apps/rDock/src/rDock_2013.1_src/data/scripts/dock_solv.prm

>  <Rbt.Receptor>
prm/pocket_docking_5.prm

>  <SCORE>
-34.808

>  <SCORE.INTER>
-36.6971

>  <SCORE.INTER.CONST>
1

>  <SCORE.INTER.POLAR>
0

>  <SCORE.INTER.ROT>
2

>  <SCORE.INTER.SOLV>
28.8443

>  <SCORE.INTER.VDW>
-39.0128

>  <SCORE.INTER.norm>
-0.797764

>  <SCORE.INTRA>
1.88913

>  <SCORE.INTRA.DIHEDRAL>
-0.00465879

>  <SCORE.INTRA.DIHEDRAL.0>
2.40424

>  <SCORE.INTRA.POLAR>
0

>  <SCORE.INTRA.POLAR.0>
0

>  <SCORE.INTRA.REPUL>
0

>  <SCORE.INTRA.REPUL.0>
0

>  <SCORE.INTRA.SOLV>
6.5104

>  <SCORE.INTRA.SOLV.lig_0>
-134.169

>  <SCORE.INTRA.VDW>
-1.36374

>  <SCORE.INTRA.VDW.0>
-2.18386

>  <SCORE.INTRA.norm>
0.0410681

>  <SCORE.RESTR>
0

>  <SCORE.RESTR.CAVITY>
0

>  <SCORE.RESTR.norm>
0

>  <SCORE.SYSTEM>
0

>  <SCORE.SYSTEM.CONST>
0

>  <SCORE.SYSTEM.DIHEDRAL>
0

>  <SCORE.SYSTEM.SOLV>
0

>  <SCORE.SYSTEM.norm>
0

>  <SCORE.heavy>
46

>  <SCORE.norm>
-0.756696

>  <RMSD>
2.183

$$$$
ligand
 OpenBabel02271912143D
libRbt.so/2013.1/901 2013/11/27
 46 52  0  0  0  0  0  0  0  0999 V2000
  -10.2985    5.8583   16.5338 P   0  0  1  0  0  0  0  0  0  0  0  0
   -5.4717    2.8650   18.0890 P   0  0  2  0  0  0  0  0  0  0  0  0
  -11.2510    4.9229   15.3678 O   0  5  0  0  0  0  0  0  0  0  0  0
  -11.1150    7.3792   16.9804 O   0  0  0  0  0  0  0  0  0  0  0  0
   -9.2319    5.3969   18.9156 C   0  0  0  0  0  0  0  0  0  0  0  0
  -10.0598    4.9477   17.8427 O   0  0  0  0  0  0  0  0  0  0  0  0
   -8.8086    4.1937   19.7364 C   0  0  1  0  0  0  0  0  0  0  0  0
   -9.9707    3.4479   20.1252 O   0  0  0  0  0  0  0  0  0  0  0  0
   -7.9370    3.2168   18.9641 C   0  0  1  0  0  0  0  0  0  0  0  0
   -6.5483    3.5071   19.1066 O   0  0  0  0  0  0  0  0  0  0  0  0
   -8.3023    1.8739   19.5718 C   0  0  1  0  0  0  0  0  0  0  0  0
   -7.4679    1.6033   20.7009 O   0  0  0  0  0  0  0  0  0  0  0  0
   -9.7324    2.0334   20.0533 C   0  0  2  0  0  0  0  0  0  0  0  0
   -7.0076    4.4440   13.4279 C   0  0  1  0  0  0  0  0  0  0  0  0
  -11.2828   -2.2966   17.3999 N   0  0  0  0  0  0  0  0  0  0  0  0
  -10.2481   -2.1500   18.2719 C   0  0  1  0  0  0  0  0  0  0  0  0
   -8.3324    4.7438   14.0700 C   0  0  2  0  0  0  0  0  0  0  0  0
   -9.4739   -3.2285   18.5330 N   0  0  0  0  0  0  0  0  0  0  0  0
   -8.8867    5.8501   13.3559 O   0  0  0  0  0  0  0  0  0  0  0  0
   -7.9944    5.1027   15.5034 C   0  0  2  0  0  0  0  0  0  0  0  0
   -9.9614   -0.9640   18.8867 N   0  0  0  0  0  0  0  0  0  0  0  0
   -8.8144    6.1569   15.9888 O   0  0  0  0  0  0  0  0  0  0  0  0
  -10.7086    0.1459   18.6601 C   0  0  2  0  0  0  0  0  0  0  0  0
   -6.5458    5.5481   15.4616 C   0  0  2  0  0  0  0  0  0  0  0  0
   -5.9916    4.9684   14.2817 O   0  0  0  0  0  0  0  0  0  0  0  0
  -11.8395    0.0425   17.7215 C   0  0  1  0  0  0  0  0  0  0  0  0
   -5.7494    5.0869   16.6772 C   0  0  0  0  0  0  0  0  0  0  0  0
   -5.7372    3.6584   16.7132 O   0  0  0  0  0  0  0  0  0  0  0  0
  -12.0990   -1.2635   17.0898 C   0  0  0  0  0  0  0  0  0  0  0  0
  -13.1262   -1.4177   16.2163 O   0  0  0  0  0  0  0  0  0  0  0  0
  -12.4076    1.2520   17.6625 N   0  0  0  0  0  0  0  0  0  0  0  0
  -11.7019    2.0734   18.4937 C   0  0  0  0  0  0  0  0  0  0  0  0
  -10.6850    1.4177   19.0916 N   0  0  1  0  0  0  0  0  0  0  0  0
   -4.1187    0.2408   14.5919 N   0  0  0  0  0  0  0  0  0  0  0  0
   -5.7459    1.1169   17.8665 O   0  5  0  0  0  0  0  0  0  0  0  0
   -3.9488    1.5420   14.9538 C   0  0  2  0  0  0  0  0  0  0  0  0
   -2.8946    1.8793   15.7416 N   0  0  0  0  0  0  0  0  0  0  0  0
   -3.7889    3.1421   18.5784 O   0  0  0  0  0  0  0  0  0  0  0  0
   -4.8048    2.5205   14.5511 N   0  0  0  0  0  0  0  0  0  0  0  0
   -5.8766    2.2455   13.7714 C   0  0  2  0  0  0  0  0  0  0  0  0
   -6.1112    0.8594   13.3457 C   0  0  2  0  0  0  0  0  0  0  0  0
   -5.1441   -0.1582   13.8099 C   0  0  0  0  0  0  0  0  0  0  0  0
   -5.2770   -1.4630   13.4658 O   0  0  0  0  0  0  0  0  0  0  0  0
   -7.2211    0.8736   12.5814 N   0  0  0  0  0  0  0  0  0  0  0  0
   -7.6633    2.1654   12.5266 C   0  0  0  0  0  0  0  0  0  0  0  0
   -6.8534    2.9818   13.2383 N   0  0  1  0  0  0  0  0  0  0  0  0
  1  3  1  6  0  0  0
  1  4  2  0  0  0  0
  1  6  1  0  0  0  0
  1 22  1  0  0  0  0
  2 28  1  0  0  0  0
  2 35  1  6  0  0  0
  2 38  2  0  0  0  0
  2 10  1  0  0  0  0
  5  6  1  0  0  0  0
  7  5  1  6  0  0  0
  7  8  1  0  0  0  0
  7  9  1  0  0  0  0
  9 10  1  1  0  0  0
  9 11  1  0  0  0  0
 11 12  1  1  0  0  0
 11 13  1  0  0  0  0
 13  8  1  6  0  0  0
 13 33  1  0  0  0  0
 14 46  1  0  0  0  0
 14 17  1  0  0  0  0
 14 25  1  1  0  0  0
 15 16  1  0  0  0  0
 15 29  1  0  0  0  0
 16 18  1  6  0  0  0
 16 21  1  0  0  0  0
 17 19  1  6  0  0  0
 17 20  1  0  0  0  0
 20 22  1  6  0  0  0
 20 24  1  0  0  0  0
 23 21  1  6  0  0  0
 23 26  1  0  0  0  0
 23 33  1  0  0  0  0
 24 25  1  6  0  0  0
 24 27  1  0  0  0  0
 26 29  1  1  0  0  0
 26 31  1  0  0  0  0
 27 28  1  0  0  0  0
 29 30  2  0  0  0  0
 31 32  1  0  0  0  0
 33 32  1  1  0  0  0
 34 36  1  0  0  0  0
 34 42  1  0  0  0  0
 36 37  1  1  0  0  0
 36 39  1  0  0  0  0
 40 39  1  6  0  0  0
 40 41  1  0  0  0  0
 40 46  1  0  0  0  0
 41 42  1  6  0  0  0
 41 44  1  0  0  0  0
 42 43  2  0  0  0  0
 44 45  1  0  0  0  0
 46 45  1  1  0  0  0
M  CHG  2   3  -1  35  -1
M  END
>  <CHROM.1>
173.69706326,-120.29463511,-8.11157242,2.53502222,16.68273560,2.72207213
-0.57046742,3.05490899

>  <Name>
ligand

>  <RI>
-1

>  <Rbt.Current_Directory>
/home/itssahil/PROJECTS/Mol_Feturizer/Test_systems_manuscript/rnas/3mum

>  <Rbt.Executable>
rbdock ($Id: //depot/dev/client3/rdock/2013.1/src/exe/rbdock.cxx#4 $)

>  <Rbt.Library>
libRbt.so (2013.1, Build901 2013/11/27)

>  <Rbt.Parameter_File>
/export/apps/rDock/src/rDock_2013.1_src/data/scripts/dock_solv.prm

>  <Rbt.Receptor>
prm/pocket_docking_6.prm

>  <SCORE>
-34.8056

>  <SCORE.INTER>
-36.6628

>  <SCORE.INTER.CONST>
1

>  <SCORE.INTER.POLAR>
0

>  <SCORE.INTER.ROT>
2

>  <SCORE.INTER.SOLV>
28.8791

>  <SCORE.INTER.VDW>
-39.0016

>  <SCORE.INTER.norm>
-0.797018

>  <SCORE.INTRA>
1.85718

>  <SCORE.INTRA.DIHEDRAL>
-0.00436317

>  <SCORE.INTRA.DIHEDRAL.0>
2.40424

>  <SCORE.INTRA.POLAR>
0

>  <SCORE.INTRA.POLAR.0>
0

>  <SCORE.INTRA.REPUL>
0

>  <SCORE.INTRA.REPUL.0>
0

>  <SCORE.INTRA.SOLV>
6.4026

>  <SCORE.INTRA.SOLV.lig_0>
-134.169

>  <SCORE.INTRA.VDW>
-1.34193

>  <SCORE.INTRA.VDW.0>
-2.18386

>  <SCORE.INTRA.norm>
0.0403736

>  <SCORE.RESTR>
0

>  <SCORE.RESTR.CAVITY>
0

>  <SCORE.RESTR.norm>
0

>  <SCORE.SYSTEM>
0

>  <SCORE.SYSTEM.CONST>
0

>  <SCORE.SYSTEM.DIHEDRAL>
0

>  <SCORE.SYSTEM.SOLV>
0

>  <SCORE.SYSTEM.norm>
0

>  <SCORE.heavy>
46

>  <SCORE.norm>
-0.756644

>  <RMSD>
2.184

$$$$
ligand
 OpenBabel02271912143D
libRbt.so/2013.1/901 2013/11/27
 46 52  0  0  0  0  0  0  0  0999 V2000
  -10.2007    5.9517   16.5471 P   0  0  1  0  0  0  0  0  0  0  0  0
   -5.4424    2.8059   18.0091 P   0  0  2  0  0  0  0  0  0  0  0  0
  -11.1923    5.0579   15.3810 O   0  5  0  0  0  0  0  0  0  0  0  0
  -10.9692    7.4891   17.0216 O   0  0  0  0  0  0  0  0  0  0  0  0
   -9.1205    5.4311   18.9104 C   0  0  0  0  0  0  0  0  0  0  0  0
   -9.9728    5.0185   17.8418 O   0  0  0  0  0  0  0  0  0  0  0  0
   -8.7218    4.2063   19.7115 C   0  0  1  0  0  0  0  0  0  0  0  0
   -9.8999    3.4884   20.1047 O   0  0  0  0  0  0  0  0  0  0  0  0
   -7.8868    3.2152   18.9171 C   0  0  1  0  0  0  0  0  0  0  0  0
   -6.4890    3.4649   19.0469 O   0  0  0  0  0  0  0  0  0  0  0  0
   -8.2827    1.8755   19.5127 C   0  0  1  0  0  0  0  0  0  0  0  0
   -7.4433    1.5677   20.6285 O   0  0  0  0  0  0  0  0  0  0  0  0
   -9.7022    2.0688   20.0128 C   0  0  2  0  0  0  0  0  0  0  0  0
   -6.9862    4.4853   13.3859 C   0  0  1  0  0  0  0  0  0  0  0  0
  -11.4132   -2.1866   17.3377 N   0  0  0  0  0  0  0  0  0  0  0  0
  -10.3666   -2.0805   18.2013 C   0  0  1  0  0  0  0  0  0  0  0  0
   -8.2948    4.8138   14.0470 C   0  0  2  0  0  0  0  0  0  0  0  0
   -9.6248   -3.1852   18.4461 N   0  0  0  0  0  0  0  0  0  0  0  0
   -8.8258    5.9440   13.3530 O   0  0  0  0  0  0  0  0  0  0  0  0
   -7.9306    5.1451   15.4806 C   0  0  2  0  0  0  0  0  0  0  0  0
  -10.0369   -0.9096   18.8233 N   0  0  0  0  0  0  0  0  0  0  0  0
   -8.7151    6.2157   15.9884 O   0  0  0  0  0  0  0  0  0  0  0  0
  -10.7504    0.2254   18.6129 C   0  0  2  0  0  0  0  0  0  0  0  0
   -6.4706    5.5505   15.4273 C   0  0  2  0  0  0  0  0  0  0  0  0
   -5.9463    4.9704   14.2341 O   0  0  0  0  0  0  0  0  0  0  0  0
  -11.8924    0.1660   17.6841 C   0  0  1  0  0  0  0  0  0  0  0  0
   -5.6737    5.0521   16.6278 C   0  0  0  0  0  0  0  0  0  0  0  0
   -5.7011    3.6235   16.6463 O   0  0  0  0  0  0  0  0  0  0  0  0
  -12.1990   -1.1256   17.0439 C   0  0  0  0  0  0  0  0  0  0  0  0
  -13.2385   -1.2395   16.1787 O   0  0  0  0  0  0  0  0  0  0  0  0
  -12.4223    1.3934   17.6405 N   0  0  0  0  0  0  0  0  0  0  0  0
  -11.6834    2.1848   18.4719 C   0  0  0  0  0  0  0  0  0  0  0  0
  -10.6824    1.4920   19.0548 N   0  0  1  0  0  0  0  0  0  0  0  0
   -4.2942    0.1641   14.5895 N   0  0  0  0  0  0  0  0  0  0  0  0
   -5.7680    1.0689   17.7685 O   0  5  0  0  0  0  0  0  0  0  0  0
   -4.0942    1.4524   14.9809 C   0  0  2  0  0  0  0  0  0  0  0  0
   -3.0616    1.7393   15.8160 N   0  0  0  0  0  0  0  0  0  0  0  0
   -3.7470    3.0297   18.4821 O   0  0  0  0  0  0  0  0  0  0  0  0
   -4.8987    2.4670   14.5618 N   0  0  0  0  0  0  0  0  0  0  0  0
   -5.9469    2.2428   13.7352 C   0  0  2  0  0  0  0  0  0  0  0  0
   -6.2119    0.8730   13.2759 C   0  0  2  0  0  0  0  0  0  0  0  0
   -5.3003   -0.1856   13.7602 C   0  0  0  0  0  0  0  0  0  0  0  0
   -5.4643   -1.4791   13.3880 O   0  0  0  0  0  0  0  0  0  0  0  0
   -7.2888    0.9389   12.4683 N   0  0  0  0  0  0  0  0  0  0  0  0
   -7.6834    2.2462   12.4189 C   0  0  0  0  0  0  0  0  0  0  0  0
   -6.8752    3.0217   13.1766 N   0  0  1  0  0  0  0  0  0  0  0  0
  1  3  1  6  0  0  0
  1  4  2  0  0  0  0
  1  6  1  0  0  0  0
  1 22  1  0  0  0  0
  2 28  1  0  0  0  0
  2 35  1  6  0  0  0
  2 38  2  0  0  0  0
  2 10  1  0  0  0  0
  5  6  1  0  0  0  0
  7  5  1  6  0  0  0
  7  8  1  0  0  0  0
  7  9  1  0  0  0  0
  9 10  1  1  0  0  0
  9 11  1  0  0  0  0
 11 12  1  1  0  0  0
 11 13  1  0  0  0  0
 13  8  1  6  0  0  0
 13 33  1  0  0  0  0
 14 46  1  0  0  0  0
 14 17  1  0  0  0  0
 14 25  1  1  0  0  0
 15 16  1  0  0  0  0
 15 29  1  0  0  0  0
 16 18  1  6  0  0  0
 16 21  1  0  0  0  0
 17 19  1  6  0  0  0
 17 20  1  0  0  0  0
 20 22  1  6  0  0  0
 20 24  1  0  0  0  0
 23 21  1  6  0  0  0
 23 26  1  0  0  0  0
 23 33  1  0  0  0  0
 24 25  1  6  0  0  0
 24 27  1  0  0  0  0
 26 29  1  1  0  0  0
 26 31  1  0  0  0  0
 27 28  1  0  0  0  0
 29 30  2  0  0  0  0
 31 32  1  0  0  0  0
 33 32  1  1  0  0  0
 34 36  1  0  0  0  0
 34 42  1  0  0  0  0
 36 37  1  1  0  0  0
 36 39  1  0  0  0  0
 40 39  1  6  0  0  0
 40 41  1  0  0  0  0
 40 46  1  0  0  0  0
 41 42  1  6  0  0  0
 41 44  1  0  0  0  0
 42 43  2  0  0  0  0
 44 45  1  0  0  0  0
 46 45  1  1  0  0  0
M  CHG  2   3  -1  35  -1
M  END
>  <CHROM.1>
174.03413983,-117.28957355,-8.11729670,2.56405840,16.64486858,2.71730674
-0.57957294,3.07791655

>  <Name>
ligand

>  <RI>
416

>  <Rbt.Current_Directory>
/home/itssahil/PROJECTS/Mol_Feturizer/Test_systems_manuscript/rnas/3mum

>  <Rbt.Executable>
rbdock ($Id: //depot/dev/client3/rdock/2013.1/src/exe/rbdock.cxx#4 $)

>  <Rbt.Library>
libRbt.so (2013.1, Build901 2013/11/27)

>  <Rbt.Parameter_File>
/export/apps/rDock/src/rDock_2013.1_src/data/scripts/dock_solv.prm

>  <Rbt.Receptor>
prm/pocket_docking_3.prm

>  <SCORE>
-33.6342

>  <SCORE.INTER>
-36.6629

>  <SCORE.INTER.CONST>
1

>  <SCORE.INTER.POLAR>
0

>  <SCORE.INTER.ROT>
2

>  <SCORE.INTER.SOLV>
28.4561

>  <SCORE.INTER.VDW>
-38.8606

>  <SCORE.INTER.norm>
-0.797019

>  <SCORE.INTRA>
2.57388

>  <SCORE.INTRA.DIHEDRAL>
-0.00863304

>  <SCORE.INTRA.DIHEDRAL.0>
2.40424

>  <SCORE.INTRA.POLAR>
0

>  <SCORE.INTRA.POLAR.0>
0

>  <SCORE.INTRA.REPUL>
0

>  <SCORE.INTRA.REPUL.0>
0

>  <SCORE.INTRA.SOLV>
7.72206

>  <SCORE.INTRA.SOLV.lig_0>
-134.169

>  <SCORE.INTRA.VDW>
-1.28284

>  <SCORE.INTRA.VDW.0>
-2.18386

>  <SCORE.INTRA.norm>
0.0559538

>  <SCORE.RESTR>
0.454792

>  <SCORE.RESTR.CAVITY>
0.454792

>  <SCORE.RESTR.norm>
0.00988677

>  <SCORE.SYSTEM>
0

>  <SCORE.SYSTEM.CONST>
0

>  <SCORE.SYSTEM.DIHEDRAL>
0

>  <SCORE.SYSTEM.SOLV>
0

>  <SCORE.SYSTEM.norm>
0

>  <SCORE.heavy>
46

>  <SCORE.norm>
-0.731179

>  <RMSD>
2.185

$$$$
ligand
 OpenBabel02271912143D
libRbt.so/2013.1/901 2013/11/27
 46 52  0  0  0  0  0  0  0  0999 V2000
  -10.3273    5.8744   16.5314 P   0  0  1  0  0  0  0  0  0  0  0  0
   -5.5125    2.8747   18.1109 P   0  0  2  0  0  0  0  0  0  0  0  0
  -11.2776    4.9383   15.3642 O   0  5  0  0  0  0  0  0  0  0  0  0
  -11.1422    7.3981   16.9714 O   0  0  0  0  0  0  0  0  0  0  0  0
   -9.2703    5.4165   18.9181 C   0  0  0  0  0  0  0  0  0  0  0  0
  -10.0952    4.9664   17.8432 O   0  0  0  0  0  0  0  0  0  0  0  0
   -8.8524    4.2143   19.7432 C   0  0  1  0  0  0  0  0  0  0  0  0
  -10.0175    3.4719   20.1295 O   0  0  0  0  0  0  0  0  0  0  0  0
   -7.9802    3.2337   18.9763 C   0  0  1  0  0  0  0  0  0  0  0  0
   -6.5914    3.5214   19.1231 O   0  0  0  0  0  0  0  0  0  0  0  0
   -8.3505    1.8930   19.5858 C   0  0  1  0  0  0  0  0  0  0  0  0
   -7.5207    1.6233   20.7186 O   0  0  0  0  0  0  0  0  0  0  0  0
   -9.7820    2.0567   20.0618 C   0  0  2  0  0  0  0  0  0  0  0  0
   -7.0283    4.4459   13.4406 C   0  0  1  0  0  0  0  0  0  0  0  0
  -11.3067   -2.2657   17.3814 N   0  0  0  0  0  0  0  0  0  0  0  0
  -10.2709   -2.1176   18.2518 C   0  0  1  0  0  0  0  0  0  0  0  0
   -8.3548    4.7500   14.0772 C   0  0  2  0  0  0  0  0  0  0  0  0
   -9.4880   -3.1921   18.5031 N   0  0  0  0  0  0  0  0  0  0  0  0
   -8.9041    5.8558   13.3585 O   0  0  0  0  0  0  0  0  0  0  0  0
   -8.0211    5.1115   15.5110 C   0  0  2  0  0  0  0  0  0  0  0  0
   -9.9915   -0.9339   18.8744 N   0  0  0  0  0  0  0  0  0  0  0  0
   -8.8406    6.1686   15.9910 O   0  0  0  0  0  0  0  0  0  0  0  0
  -10.7476    0.1719   18.6576 C   0  0  2  0  0  0  0  0  0  0  0  0
   -6.5715    5.5538   15.4734 C   0  0  2  0  0  0  0  0  0  0  0  0
   -6.0143    4.9701   14.2969 O   0  0  0  0  0  0  0  0  0  0  0  0
  -11.8801    0.0667   17.7212 C   0  0  1  0  0  0  0  0  0  0  0  0
   -5.7804    5.0938   16.6928 C   0  0  0  0  0  0  0  0  0  0  0  0
   -5.7713    3.6654   16.7323 O   0  0  0  0  0  0  0  0  0  0  0  0
  -12.1314   -1.2367   17.0808 C   0  0  0  0  0  0  0  0  0  0  0  0
  -13.1598   -1.3923   16.2088 O   0  0  0  0  0  0  0  0  0  0  0  0
  -12.4574    1.2723   17.6723 N   0  0  0  0  0  0  0  0  0  0  0  0
  -11.7558    2.0930   18.5076 C   0  0  0  0  0  0  0  0  0  0  0  0
  -10.7324    1.4408   19.0981 N   0  0  1  0  0  0  0  0  0  0  0  0
   -4.0890    0.2578   14.5308 N   0  0  0  0  0  0  0  0  0  0  0  0
   -5.7896    1.1266   17.8915 O   0  5  0  0  0  0  0  0  0  0  0  0
   -3.9105    1.5617   14.8785 C   0  0  2  0  0  0  0  0  0  0  0  0
   -2.8307    1.9068   15.6274 N   0  0  0  0  0  0  0  0  0  0  0  0
   -3.8309    3.1493   18.6057 O   0  0  0  0  0  0  0  0  0  0  0  0
   -4.7827    2.5353   14.4994 N   0  0  0  0  0  0  0  0  0  0  0  0
   -5.8798    2.2526   13.7588 C   0  0  2  0  0  0  0  0  0  0  0  0
   -6.1249    0.8631   13.3501 C   0  0  2  0  0  0  0  0  0  0  0  0
   -5.1396   -0.1489   13.7871 C   0  0  0  0  0  0  0  0  0  0  0  0
   -5.2805   -1.4562   13.4561 O   0  0  0  0  0  0  0  0  0  0  0  0
   -7.2606    0.8696   12.6244 N   0  0  0  0  0  0  0  0  0  0  0  0
   -7.7081    2.1598   12.5768 C   0  0  0  0  0  0  0  0  0  0  0  0
   -6.8765    2.9828   13.2550 N   0  0  1  0  0  0  0  0  0  0  0  0
  1  3  1  6  0  0  0
  1  4  2  0  0  0  0
  1  6  1  0  0  0  0
  1 22  1  0  0  0  0
  2 28  1  0  0  0  0
  2 35  1  6  0  0  0
  2 38  2  0  0  0  0
  2 10  1  0  0  0  0
  5  6  1  0  0  0  0
  7  5  1  6  0  0  0
  7  8  1  0  0  0  0
  7  9  1  0  0  0  0
  9 10  1  1  0  0  0
  9 11  1  0  0  0  0
 11 12  1  1  0  0  0
 11 13  1  0  0  0  0
 13  8  1  6  0  0  0
 13 33  1  0  0  0  0
 14 46  1  0  0  0  0
 14 17  1  0  0  0  0
 14 25  1  1  0  0  0
 15 16  1  0  0  0  0
 15 29  1  0  0  0  0
 16 18  1  6  0  0  0
 16 21  1  0  0  0  0
 17 19  1  6  0  0  0
 17 20  1  0  0  0  0
 20 22  1  6  0  0  0
 20 24  1  0  0  0  0
 23 21  1  6  0  0  0
 23 26  1  0  0  0  0
 23 33  1  0  0  0  0
 24 25  1  6  0  0  0
 24 27  1  0  0  0  0
 26 29  1  1  0  0  0
 26 31  1  0  0  0  0
 27 28  1  0  0  0  0
 29 30  2  0  0  0  0
 31 32  1  0  0  0  0
 33 32  1  1  0  0  0
 34 36  1  0  0  0  0
 34 42  1  0  0  0  0
 36 37  1  1  0  0  0
 36 39  1  0  0  0  0
 40 39  1  6  0  0  0
 40 41  1  0  0  0  0
 40 46  1  0  0  0  0
 41 42  1  6  0  0  0
 41 44  1  0  0  0  0
 42 43  2  0  0  0  0
 44 45  1  0  0  0  0
 46 45  1  1  0  0  0
M  CHG  2   3  -1  35  -1
M  END
>  <CHROM.1>
172.84379577,-122.50236548,-8.13828506,2.55007729,16.68223969,2.75665832
-0.57115617,3.06128861

>  <Name>
ligand

>  <RI>
-1

>  <Rbt.Current_Directory>
/home/itssahil/PROJECTS/Mol_Feturizer/Test_systems_manuscript/rnas/3mum

>  <Rbt.Executable>
rbdock ($Id: //depot/dev/client3/rdock/2013.1/src/exe/rbdock.cxx#4 $)

>  <Rbt.Library>
libRbt.so (2013.1, Build901 2013/11/27)

>  <Rbt.Parameter_File>
/export/apps/rDock/src/rDock_2013.1_src/data/scripts/dock_solv.prm

>  <Rbt.Receptor>
prm/pocket_docking_4.prm

>  <SCORE>
-34.8138

>  <SCORE.INTER>
-36.2502

>  <SCORE.INTER.CONST>
1

>  <SCORE.INTER.POLAR>
0

>  <SCORE.INTER.ROT>
2

>  <SCORE.INTER.SOLV>
29.3803

>  <SCORE.INTER.VDW>
-38.8936

>  <SCORE.INTER.norm>
-0.788048

>  <SCORE.INTRA>
1.43634

>  <SCORE.INTRA.DIHEDRAL>
-0.00134383

>  <SCORE.INTRA.DIHEDRAL.0>
2.40424

>  <SCORE.INTRA.POLAR>
0

>  <SCORE.INTRA.POLAR.0>
0

>  <SCORE.INTRA.REPUL>
0

>  <SCORE.INTRA.REPUL.0>
0

>  <SCORE.INTRA.SOLV>
5.39273

>  <SCORE.INTRA.SOLV.lig_0>
-134.169

>  <SCORE.INTRA.VDW>
-1.25935

>  <SCORE.INTRA.VDW.0>
-2.18386

>  <SCORE.INTRA.norm>
0.0312248

>  <SCORE.RESTR>
0

>  <SCORE.RESTR.CAVITY>
0

>  <SCORE.RESTR.norm>
0

>  <SCORE.SYSTEM>
0

>  <SCORE.SYSTEM.CONST>
0

>  <SCORE.SYSTEM.DIHEDRAL>
0

>  <SCORE.SYSTEM.SOLV>
0

>  <SCORE.SYSTEM.norm>
0

>  <SCORE.heavy>
46

>  <SCORE.norm>
-0.756823

>  <RMSD>
2.189

$$$$
ligand
 OpenBabel02271912143D
libRbt.so/2013.1/901 2013/11/27
 46 52  0  0  0  0  0  0  0  0999 V2000
  -10.3148    5.8782   16.5146 P   0  0  1  0  0  0  0  0  0  0  0  0
   -5.4979    2.8945   18.1179 P   0  0  2  0  0  0  0  0  0  0  0  0
  -11.2615    4.9347   15.3504 O   0  5  0  0  0  0  0  0  0  0  0  0
  -11.1330    7.4028   16.9456 O   0  0  0  0  0  0  0  0  0  0  0  0
   -9.2614    5.4340   18.9055 C   0  0  0  0  0  0  0  0  0  0  0  0
  -10.0836    4.9772   17.8314 O   0  0  0  0  0  0  0  0  0  0  0  0
   -8.8430    4.2366   19.7374 C   0  0  1  0  0  0  0  0  0  0  0  0
  -10.0076    3.4941   20.1253 O   0  0  0  0  0  0  0  0  0  0  0  0
   -7.9678    3.2536   18.9770 C   0  0  1  0  0  0  0  0  0  0  0  0
   -6.5797    3.5444   19.1248 O   0  0  0  0  0  0  0  0  0  0  0  0
   -8.3370    1.9154   19.5925 C   0  0  1  0  0  0  0  0  0  0  0  0
   -7.5088    1.6528   20.7281 O   0  0  0  0  0  0  0  0  0  0  0  0
   -9.7696    2.0791   20.0651 C   0  0  2  0  0  0  0  0  0  0  0  0
   -7.0078    4.4399   13.4371 C   0  0  1  0  0  0  0  0  0  0  0  0
  -11.2730   -2.2552   17.3918 N   0  0  0  0  0  0  0  0  0  0  0  0
  -10.2376   -2.1004   18.2616 C   0  0  1  0  0  0  0  0  0  0  0  0
   -8.3360    4.7449   14.0697 C   0  0  2  0  0  0  0  0  0  0  0  0
   -9.4490   -3.1704   18.5141 N   0  0  0  0  0  0  0  0  0  0  0  0
   -8.8858    5.8462   13.3445 O   0  0  0  0  0  0  0  0  0  0  0  0
   -8.0055    5.1141   15.5023 C   0  0  2  0  0  0  0  0  0  0  0  0
   -9.9641   -0.9144   18.8822 N   0  0  0  0  0  0  0  0  0  0  0  0
   -8.8276    6.1722   15.9755 O   0  0  0  0  0  0  0  0  0  0  0  0
  -10.7260    0.1872   18.6641 C   0  0  2  0  0  0  0  0  0  0  0  0
   -6.5566    5.5586   15.4651 C   0  0  2  0  0  0  0  0  0  0  0  0
   -5.9962    4.9701   14.2925 O   0  0  0  0  0  0  0  0  0  0  0  0
  -11.8584    0.0747   17.7284 C   0  0  1  0  0  0  0  0  0  0  0  0
   -5.7669    5.1060   16.6883 C   0  0  0  0  0  0  0  0  0  0  0  0
   -5.7556    3.6778   16.7349 O   0  0  0  0  0  0  0  0  0  0  0  0
  -12.1032   -1.2310   17.0901 C   0  0  0  0  0  0  0  0  0  0  0  0
  -13.1311   -1.3932   16.2188 O   0  0  0  0  0  0  0  0  0  0  0  0
  -12.4420    1.2771   17.6779 N   0  0  0  0  0  0  0  0  0  0  0  0
  -11.7443    2.1028   18.5117 C   0  0  0  0  0  0  0  0  0  0  0  0
  -10.7172    1.4567   19.1028 N   0  0  1  0  0  0  0  0  0  0  0  0
   -4.0769    0.2583   14.5738 N   0  0  0  0  0  0  0  0  0  0  0  0
   -5.7717    1.1448   17.9067 O   0  5  0  0  0  0  0  0  0  0  0  0
   -3.9027    1.5637   14.9179 C   0  0  2  0  0  0  0  0  0  0  0  0
   -2.8307    1.9127   15.6761 N   0  0  0  0  0  0  0  0  0  0  0  0
   -3.8177    3.1743   18.6143 O   0  0  0  0  0  0  0  0  0  0  0  0
   -4.7717    2.5352   14.5261 N   0  0  0  0  0  0  0  0  0  0  0  0
   -5.8612    2.2487   13.7757 C   0  0  2  0  0  0  0  0  0  0  0  0
   -6.1013    0.8574   13.3704 C   0  0  2  0  0  0  0  0  0  0  0  0
   -5.1198   -0.1522   13.8214 C   0  0  0  0  0  0  0  0  0  0  0  0
   -5.2565   -1.4610   13.4943 O   0  0  0  0  0  0  0  0  0  0  0  0
   -7.2297    0.8601   12.6334 N   0  0  0  0  0  0  0  0  0  0  0  0
   -7.6775    2.1497   12.5760 C   0  0  0  0  0  0  0  0  0  0  0  0
   -6.8533    2.9762   13.2590 N   0  0  1  0  0  0  0  0  0  0  0  0
  1  3  1  6  0  0  0
  1  4  2  0  0  0  0
  1  6  1  0  0  0  0
  1 22  1  0  0  0  0
  2 28  1  0  0  0  0
  2 35  1  6  0  0  0
  2 38  2  0  0  0  0
  2 10  1  0  0  0  0
  5  6  1  0  0  0  0
  7  5  1  6  0  0  0
  7  8  1  0  0  0  0
  7  9  1  0  0  0  0
  9 10  1  1  0  0  0
  9 11  1  0  0  0  0
 11 12  1  1  0  0  0
 11 13  1  0  0  0  0
 13  8  1  6  0  0  0
 13 33  1  0  0  0  0
 14 46  1  0  0  0  0
 14 17  1  0  0  0  0
 14 25  1  1  0  0  0
 15 16  1  0  0  0  0
 15 29  1  0  0  0  0
 16 18  1  6  0  0  0
 16 21  1  0  0  0  0
 17 19  1  6  0  0  0
 17 20  1  0  0  0  0
 20 22  1  6  0  0  0
 20 24  1  0  0  0  0
 23 21  1  6  0  0  0
 23 26  1  0  0  0  0
 23 33  1  0  0  0  0
 24 25  1  6  0  0  0
 24 27  1  0  0  0  0
 26 29  1  1  0  0  0
 26 31  1  0  0  0  0
 27 28  1  0  0  0  0
 29 30  2  0  0  0  0
 31 32  1  0  0  0  0
 33 32  1  1  0  0  0
 34 36  1  0  0  0  0
 34 42  1  0  0  0  0
 36 37  1  1  0  0  0
 36 39  1  0  0  0  0
 40 39  1  6  0  0  0
 40 41  1  0  0  0  0
 40 46  1  0  0  0  0
 41 42  1  6  0  0  0
 41 44  1  0  0  0  0
 42 43  2  0  0  0  0
 44 45  1  0  0  0  0
 46 45  1  1  0  0  0
M  CHG  2   3  -1  35  -1
M  END
>  <CHROM.1>
172.53149241,-122.02906663,-8.12102711,2.55835593,16.68704058,2.75338216
-0.56830441,3.05526787

>  <Name>
ligand

>  <RI>
-1

>  <Rbt.Current_Directory>
/home/itssahil/PROJECTS/Mol_Feturizer/Test_systems_manuscript/rnas/3mum

>  <Rbt.Executable>
rbdock ($Id: //depot/dev/client3/rdock/2013.1/src/exe/rbdock.cxx#4 $)

>  <Rbt.Library>
libRbt.so (2013.1, Build901 2013/11/27)

>  <Rbt.Parameter_File>
/export/apps/rDock/src/rDock_2013.1_src/data/scripts/dock_solv.prm

>  <Rbt.Receptor>
prm/pocket_docking_5.prm

>  <SCORE>
-34.8078

>  <SCORE.INTER>
-36.3412

>  <SCORE.INTER.CONST>
1

>  <SCORE.INTER.POLAR>
0

>  <SCORE.INTER.ROT>
2

>  <SCORE.INTER.SOLV>
28.9912

>  <SCORE.INTER.VDW>
-38.8245

>  <SCORE.INTER.norm>
-0.790026

>  <SCORE.INTRA>
1.53335

>  <SCORE.INTRA.DIHEDRAL>
-0.00207502

>  <SCORE.INTRA.DIHEDRAL.0>
2.40424

>  <SCORE.INTRA.POLAR>
0

>  <SCORE.INTRA.POLAR.0>
0

>  <SCORE.INTRA.REPUL>
0

>  <SCORE.INTRA.REPUL.0>
0

>  <SCORE.INTRA.SOLV>
5.61232

>  <SCORE.INTRA.SOLV.lig_0>
-134.169

>  <SCORE.INTRA.VDW>
-1.27177

>  <SCORE.INTRA.VDW.0>
-2.18386

>  <SCORE.INTRA.norm>
0.0333338

>  <SCORE.RESTR>
0

>  <SCORE.RESTR.CAVITY>
0

>  <SCORE.RESTR.norm>
0

>  <SCORE.SYSTEM>
0

>  <SCORE.SYSTEM.CONST>
0

>  <SCORE.SYSTEM.DIHEDRAL>
0

>  <SCORE.SYSTEM.SOLV>
0

>  <SCORE.SYSTEM.norm>
0

>  <SCORE.heavy>
46

>  <SCORE.norm>
-0.756692

>  <RMSD>
2.190

$$$$
ligand
 OpenBabel02271912143D
libRbt.so/2013.1/901 2013/11/27
 46 52  0  0  0  0  0  0  0  0999 V2000
  -10.2840    5.8940   16.5332 P   0  0  1  0  0  0  0  0  0  0  0  0
   -5.4767    2.8750   18.0990 P   0  0  2  0  0  0  0  0  0  0  0  0
  -11.2405    4.9624   15.3674 O   0  5  0  0  0  0  0  0  0  0  0  0
  -11.0922    7.4203   16.9764 O   0  0  0  0  0  0  0  0  0  0  0  0
   -9.2232    5.4300   18.9170 C   0  0  0  0  0  0  0  0  0  0  0  0
  -10.0523    4.9840   17.8437 O   0  0  0  0  0  0  0  0  0  0  0  0
   -8.8079    4.2256   19.7401 C   0  0  1  0  0  0  0  0  0  0  0  0
   -9.9748    3.4871   20.1285 O   0  0  0  0  0  0  0  0  0  0  0  0
   -7.9411    3.2424   18.9704 C   0  0  1  0  0  0  0  0  0  0  0  0
   -6.5509    3.5249   19.1142 O   0  0  0  0  0  0  0  0  0  0  0  0
   -8.3149    1.9026   19.5796 C   0  0  1  0  0  0  0  0  0  0  0  0
   -7.4835    1.6288   20.7102 O   0  0  0  0  0  0  0  0  0  0  0  0
   -9.7447    2.0711   20.0590 C   0  0  2  0  0  0  0  0  0  0  0  0
   -6.9974    4.4560   13.4336 C   0  0  1  0  0  0  0  0  0  0  0  0
  -11.3186   -2.2544   17.4123 N   0  0  0  0  0  0  0  0  0  0  0  0
  -10.2845   -2.1126   18.2858 C   0  0  1  0  0  0  0  0  0  0  0  0
   -8.3213    4.7644   14.0735 C   0  0  2  0  0  0  0  0  0  0  0  0
   -9.5178   -3.1956   18.5505 N   0  0  0  0  0  0  0  0  0  0  0  0
   -8.8682    5.8729   13.3571 O   0  0  0  0  0  0  0  0  0  0  0  0
   -7.9830    5.1235   15.5068 C   0  0  2  0  0  0  0  0  0  0  0  0
   -9.9912   -0.9272   18.8985 N   0  0  0  0  0  0  0  0  0  0  0  0
   -8.7975    6.1832   15.9896 O   0  0  0  0  0  0  0  0  0  0  0  0
  -10.7308    0.1870   18.6682 C   0  0  2  0  0  0  0  0  0  0  0  0
   -6.5318    5.5604   15.4663 C   0  0  2  0  0  0  0  0  0  0  0  0
   -5.9795    4.9757   14.2880 O   0  0  0  0  0  0  0  0  0  0  0  0
  -11.8607    0.0889   17.7279 C   0  0  1  0  0  0  0  0  0  0  0  0
   -5.7397    5.0964   16.6835 C   0  0  0  0  0  0  0  0  0  0  0  0
   -5.7358    3.6679   16.7217 O   0  0  0  0  0  0  0  0  0  0  0  0
  -12.1276   -1.2168   17.0986 C   0  0  0  0  0  0  0  0  0  0  0  0
  -13.1543   -1.3661   16.2236 O   0  0  0  0  0  0  0  0  0  0  0  0
  -12.4208    1.3019   17.6653 N   0  0  0  0  0  0  0  0  0  0  0  0
  -11.7112    2.1205   18.4960 C   0  0  0  0  0  0  0  0  0  0  0  0
  -10.6996    1.4596   19.0970 N   0  0  1  0  0  0  0  0  0  0  0  0
   -4.1179    0.2424   14.5836 N   0  0  0  0  0  0  0  0  0  0  0  0
   -5.7608    1.1282   17.8787 O   0  5  0  0  0  0  0  0  0  0  0  0
   -3.9391    1.5437   14.9408 C   0  0  2  0  0  0  0  0  0  0  0  0
   -2.8766    1.8782   15.7188 N   0  0  0  0  0  0  0  0  0  0  0  0
   -3.7929    3.1430   18.5901 O   0  0  0  0  0  0  0  0  0  0  0  0
   -4.7940    2.5251   14.5429 N   0  0  0  0  0  0  0  0  0  0  0  0
   -5.8735    2.2532   13.7730 C   0  0  2  0  0  0  0  0  0  0  0  0
   -6.1180    0.8671   13.3528 C   0  0  2  0  0  0  0  0  0  0  0  0
   -5.1518   -0.1538   13.8113 C   0  0  0  0  0  0  0  0  0  0  0  0
   -5.2935   -1.4588   13.4717 O   0  0  0  0  0  0  0  0  0  0  0  0
   -7.2344    0.8845   12.5979 N   0  0  0  0  0  0  0  0  0  0  0  0
   -7.6711    2.1781   12.5436 C   0  0  0  0  0  0  0  0  0  0  0  0
   -6.8515    2.9926   13.2464 N   0  0  1  0  0  0  0  0  0  0  0  0
  1  3  1  6  0  0  0
  1  4  2  0  0  0  0
  1  6  1  0  0  0  0
  1 22  1  0  0  0  0
  2 28  1  0  0  0  0
  2 35  1  6  0  0  0
  2 38  2  0  0  0  0
  2 10  1  0  0  0  0
  5  6  1  0  0  0  0
  7  5  1  6  0  0  0
  7  8  1  0  0  0  0
  7  9  1  0  0  0  0
  9 10  1  1  0  0  0
  9 11  1  0  0  0  0
 11 12  1  1  0  0  0
 11 13  1  0  0  0  0
 13  8  1  6  0  0  0
 13 33  1  0  0  0  0
 14 46  1  0  0  0  0
 14 17  1  0  0  0  0
 14 25  1  1  0  0  0
 15 16  1  0  0  0  0
 15 29  1  0  0  0  0
 16 18  1  6  0  0  0
 16 21  1  0  0  0  0
 17 19  1  6  0  0  0
 17 20  1  0  0  0  0
 20 22  1  6  0  0  0
 20 24  1  0  0  0  0
 23 21  1  6  0  0  0
 23 26  1  0  0  0  0
 23 33  1  0  0  0  0
 24 25  1  6  0  0  0
 24 27  1  0  0  0  0
 26 29  1  1  0  0  0
 26 31  1  0  0  0  0
 27 28  1  0  0  0  0
 29 30  2  0  0  0  0
 31 32  1  0  0  0  0
 33 32  1  1  0  0  0
 34 36  1  0  0  0  0
 34 42  1  0  0  0  0
 36 37  1  1  0  0  0
 36 39  1  0  0  0  0
 40 39  1  6  0  0  0
 40 41  1  0  0  0  0
 40 46  1  0  0  0  0
 41 42  1  6  0  0  0
 41 44  1  0  0  0  0
 42 43  2  0  0  0  0
 44 45  1  0  0  0  0
 46 45  1  1  0  0  0
M  CHG  2   3  -1  35  -1
M  END
>  <CHROM.1>
173.75636366,-120.86099052,-8.11501184,2.55873048,16.68745162,2.73453325
-0.57065956,3.05819607

>  <Name>
ligand

>  <RI>
-1

>  <Rbt.Current_Directory>
/home/itssahil/PROJECTS/Mol_Feturizer/Test_systems_manuscript/rnas/3mum

>  <Rbt.Executable>
rbdock ($Id: //depot/dev/client3/rdock/2013.1/src/exe/rbdock.cxx#4 $)

>  <Rbt.Library>
libRbt.so (2013.1, Build901 2013/11/27)

>  <Rbt.Parameter_File>
/export/apps/rDock/src/rDock_2013.1_src/data/scripts/dock_solv.prm

>  <Rbt.Receptor>
prm/pocket_docking_6.prm

>  <SCORE>
-34.7586

>  <SCORE.INTER>
-36.5244

>  <SCORE.INTER.CONST>
1

>  <SCORE.INTER.POLAR>
0

>  <SCORE.INTER.ROT>
2

>  <SCORE.INTER.SOLV>
28.7434

>  <SCORE.INTER.VDW>
-38.8641

>  <SCORE.INTER.norm>
-0.794009

>  <SCORE.INTRA>
1.76582

>  <SCORE.INTRA.DIHEDRAL>
-0.00353612

>  <SCORE.INTRA.DIHEDRAL.0>
2.40424

>  <SCORE.INTRA.POLAR>
0

>  <SCORE.INTRA.POLAR.0>
0

>  <SCORE.INTRA.REPUL>
0

>  <SCORE.INTRA.REPUL.0>
0

>  <SCORE.INTRA.SOLV>
6.14667

>  <SCORE.INTRA.SOLV.lig_0>
-134.169

>  <SCORE.INTRA.VDW>
-1.30574

>  <SCORE.INTRA.VDW.0>
-2.18386

>  <SCORE.INTRA.norm>
0.0383875

>  <SCORE.RESTR>
0

>  <SCORE.RESTR.CAVITY>
0

>  <SCORE.RESTR.norm>
0

>  <SCORE.SYSTEM>
0

>  <SCORE.SYSTEM.CONST>
0

>  <SCORE.SYSTEM.DIHEDRAL>
0

>  <SCORE.SYSTEM.SOLV>
0

>  <SCORE.SYSTEM.norm>
0

>  <SCORE.heavy>
46

>  <SCORE.norm>
-0.755622

>  <RMSD>
2.190

$$$$
ligand
 OpenBabel02271912143D
libRbt.so/2013.1/901 2013/11/27
 46 52  0  0  0  0  0  0  0  0999 V2000
  -10.2867    5.8872   16.5396 P   0  0  1  0  0  0  0  0  0  0  0  0
   -5.4611    2.8866   18.0845 P   0  0  2  0  0  0  0  0  0  0  0  0
  -11.2419    4.9542   15.3739 O   0  5  0  0  0  0  0  0  0  0  0  0
  -11.1007    7.4086   16.9890 O   0  0  0  0  0  0  0  0  0  0  0  0
   -9.2172    5.4219   18.9194 C   0  0  0  0  0  0  0  0  0  0  0  0
  -10.0471    4.9748   17.8471 O   0  0  0  0  0  0  0  0  0  0  0  0
   -8.7941    4.2173   19.7382 C   0  0  1  0  0  0  0  0  0  0  0  0
   -9.9565    3.4724   20.1278 O   0  0  0  0  0  0  0  0  0  0  0  0
   -7.9248    3.2402   18.9635 C   0  0  1  0  0  0  0  0  0  0  0  0
   -6.5356    3.5288   19.1043 O   0  0  0  0  0  0  0  0  0  0  0  0
   -8.2908    1.8971   19.5702 C   0  0  1  0  0  0  0  0  0  0  0  0
   -7.4550    1.6243   20.6978 O   0  0  0  0  0  0  0  0  0  0  0  0
   -9.7200    2.0577   20.0540 C   0  0  2  0  0  0  0  0  0  0  0  0
   -7.0018    4.4726   13.4274 C   0  0  1  0  0  0  0  0  0  0  0  0
  -11.3232   -2.2846   17.4526 N   0  0  0  0  0  0  0  0  0  0  0  0
  -10.2941   -2.1429   18.3319 C   0  0  1  0  0  0  0  0  0  0  0  0
   -8.3254    4.7732   14.0717 C   0  0  2  0  0  0  0  0  0  0  0  0
   -9.5417   -3.2308   18.6166 N   0  0  0  0  0  0  0  0  0  0  0  0
   -8.8794    5.8809   13.3596 O   0  0  0  0  0  0  0  0  0  0  0  0
   -7.9849    5.1301   15.5050 C   0  0  2  0  0  0  0  0  0  0  0  0
   -9.9919   -0.9528   18.9312 N   0  0  0  0  0  0  0  0  0  0  0  0
   -8.8030    6.1847   15.9928 O   0  0  0  0  0  0  0  0  0  0  0  0
  -10.7171    0.1665   18.6807 C   0  0  2  0  0  0  0  0  0  0  0  0
   -6.5359    5.5738   15.4617 C   0  0  2  0  0  0  0  0  0  0  0  0
   -5.9840    4.9949   14.2804 O   0  0  0  0  0  0  0  0  0  0  0  0
  -11.8410    0.0687   17.7333 C   0  0  1  0  0  0  0  0  0  0  0  0
   -5.7383    5.1104   16.6756 C   0  0  0  0  0  0  0  0  0  0  0  0
   -5.7276    3.6819   16.7100 O   0  0  0  0  0  0  0  0  0  0  0  0
  -12.1181   -1.2422   17.1192 C   0  0  0  0  0  0  0  0  0  0  0  0
  -13.1400   -1.3916   16.2386 O   0  0  0  0  0  0  0  0  0  0  0  0
  -12.3869    1.2869   17.6505 N   0  0  0  0  0  0  0  0  0  0  0  0
  -11.6743    2.1085   18.4756 C   0  0  0  0  0  0  0  0  0  0  0  0
  -10.6746    1.4442   19.0929 N   0  0  1  0  0  0  0  0  0  0  0  0
   -4.1212    0.2632   14.5899 N   0  0  0  0  0  0  0  0  0  0  0  0
   -5.7377    1.1390   17.8605 O   0  5  0  0  0  0  0  0  0  0  0  0
   -3.9500    1.5636   14.9539 C   0  0  2  0  0  0  0  0  0  0  0  0
   -2.8964    1.8981   15.7439 N   0  0  0  0  0  0  0  0  0  0  0  0
   -3.7773    3.1611   18.5718 O   0  0  0  0  0  0  0  0  0  0  0  0
   -4.8038    2.5440   14.5513 N   0  0  0  0  0  0  0  0  0  0  0  0
   -5.8748    2.2718   13.7695 C   0  0  2  0  0  0  0  0  0  0  0  0
   -6.1108    0.8867   13.3415 C   0  0  2  0  0  0  0  0  0  0  0  0
   -5.1461   -0.1331   13.8057 C   0  0  0  0  0  0  0  0  0  0  0  0
   -5.2805   -1.4372   13.4596 O   0  0  0  0  0  0  0  0  0  0  0  0
   -7.2195    0.9038   12.5755 N   0  0  0  0  0  0  0  0  0  0  0  0
   -7.6596    2.1962   12.5218 C   0  0  0  0  0  0  0  0  0  0  0  0
   -6.8496    3.0104   13.2359 N   0  0  1  0  0  0  0  0  0  0  0  0
  1  3  1  6  0  0  0
  1  4  2  0  0  0  0
  1  6  1  0  0  0  0
  1 22  1  0  0  0  0
  2 28  1  0  0  0  0
  2 35  1  6  0  0  0
  2 38  2  0  0  0  0
  2 10  1  0  0  0  0
  5  6  1  0  0  0  0
  7  5  1  6  0  0  0
  7  8  1  0  0  0  0
  7  9  1  0  0  0  0
  9 10  1  1  0  0  0
  9 11  1  0  0  0  0
 11 12  1  1  0  0  0
 11 13  1  0  0  0  0
 13  8  1  6  0  0  0
 13 33  1  0  0  0  0
 14 46  1  0  0  0  0
 14 17  1  0  0  0  0
 14 25  1  1  0  0  0
 15 16  1  0  0  0  0
 15 29  1  0  0  0  0
 16 18  1  6  0  0  0
 16 21  1  0  0  0  0
 17 19  1  6  0  0  0
 17 20  1  0  0  0  0
 20 22  1  6  0  0  0
 20 24  1  0  0  0  0
 23 21  1  6  0  0  0
 23 26  1  0  0  0  0
 23 33  1  0  0  0  0
 24 25  1  6  0  0  0
 24 27  1  0  0  0  0
 26 29  1  1  0  0  0
 26 31  1  0  0  0  0
 27 28  1  0  0  0  0
 29 30  2  0  0  0  0
 31 32  1  0  0  0  0
 33 32  1  1  0  0  0
 34 36  1  0  0  0  0
 34 42  1  0  0  0  0
 36 37  1  1  0  0  0
 36 39  1  0  0  0  0
 40 39  1  6  0  0  0
 40 41  1  0  0  0  0
 40 46  1  0  0  0  0
 41 42  1  6  0  0  0
 41 44  1  0  0  0  0
 42 43  2  0  0  0  0
 44 45  1  0  0  0  0
 46 45  1  1  0  0  0
M  CHG  2   3  -1  35  -1
M  END
>  <CHROM.1>
175.16850953,-120.12004650,-8.10870032,2.55921400,16.68837037,2.70751708
-0.57155072,3.05198509

>  <Name>
ligand

>  <RI>
-1

>  <Rbt.Current_Directory>
/home/itssahil/PROJECTS/Mol_Feturizer/Test_systems_manuscript/rnas/3mum

>  <Rbt.Executable>
rbdock ($Id: //depot/dev/client3/rdock/2013.1/src/exe/rbdock.cxx#4 $)

>  <Rbt.Library>
libRbt.so (2013.1, Build901 2013/11/27)

>  <Rbt.Parameter_File>
/export/apps/rDock/src/rDock_2013.1_src/data/scripts/dock_solv.prm

>  <Rbt.Receptor>
prm/pocket_docking_4.prm

>  <SCORE>
-34.6144

>  <SCORE.INTER>
-36.4804

>  <SCORE.INTER.CONST>
1

>  <SCORE.INTER.POLAR>
0

>  <SCORE.INTER.ROT>
2

>  <SCORE.INTER.SOLV>
28.5222

>  <SCORE.INTER.VDW>
-38.761

>  <SCORE.INTER.norm>
-0.793053

>  <SCORE.INTRA>
1.86606

>  <SCORE.INTRA.DIHEDRAL>
-0.00434864

>  <SCORE.INTRA.DIHEDRAL.0>
2.40424

>  <SCORE.INTRA.POLAR>
0

>  <SCORE.INTRA.POLAR.0>
0

>  <SCORE.INTRA.REPUL>
0

>  <SCORE.INTRA.REPUL.0>
0

>  <SCORE.INTRA.SOLV>
6.48037

>  <SCORE.INTRA.SOLV.lig_0>
-134.169

>  <SCORE.INTRA.VDW>
-1.37195

>  <SCORE.INTRA.VDW.0>
-2.18386

>  <SCORE.INTRA.norm>
0.0405665

>  <SCORE.RESTR>
0

>  <SCORE.RESTR.CAVITY>
0

>  <SCORE.RESTR.norm>
0

>  <SCORE.SYSTEM>
0

>  <SCORE.SYSTEM.CONST>
0

>  <SCORE.SYSTEM.DIHEDRAL>
0

>  <SCORE.SYSTEM.SOLV>
0

>  <SCORE.SYSTEM.norm>
0

>  <SCORE.heavy>
46

>  <SCORE.norm>
-0.752486

>  <RMSD>
2.192

$$$$
ligand
 OpenBabel02271912143D
libRbt.so/2013.1/901 2013/11/27
 46 52  0  0  0  0  0  0  0  0999 V2000
  -10.3281    5.8733   16.5211 P   0  0  1  0  0  0  0  0  0  0  0  0
   -5.5142    2.8797   18.1150 P   0  0  2  0  0  0  0  0  0  0  0  0
  -11.2742    4.9356   15.3517 O   0  5  0  0  0  0  0  0  0  0  0  0
  -11.1459    7.3962   16.9583 O   0  0  0  0  0  0  0  0  0  0  0  0
   -9.2771    5.4175   18.9109 C   0  0  0  0  0  0  0  0  0  0  0  0
  -10.0986    4.9660   17.8339 O   0  0  0  0  0  0  0  0  0  0  0  0
   -8.8601    4.2161   19.7376 C   0  0  1  0  0  0  0  0  0  0  0  0
  -10.0254    3.4724   20.1210 O   0  0  0  0  0  0  0  0  0  0  0  0
   -7.9847    3.2362   18.9735 C   0  0  1  0  0  0  0  0  0  0  0  0
   -6.5966    3.5256   19.1239 O   0  0  0  0  0  0  0  0  0  0  0  0
   -8.3551    1.8953   19.5825 C   0  0  1  0  0  0  0  0  0  0  0  0
   -7.5281    1.6270   20.7176 O   0  0  0  0  0  0  0  0  0  0  0  0
   -9.7881    2.0575   20.0545 C   0  0  2  0  0  0  0  0  0  0  0  0
   -7.0190    4.4474   13.4400 C   0  0  1  0  0  0  0  0  0  0  0  0
  -11.3313   -2.2804   17.4100 N   0  0  0  0  0  0  0  0  0  0  0  0
  -10.3029   -2.1328   18.2892 C   0  0  1  0  0  0  0  0  0  0  0  0
   -8.3476    4.7502   14.0728 C   0  0  2  0  0  0  0  0  0  0  0  0
   -9.5341   -3.2123   18.5613 N   0  0  0  0  0  0  0  0  0  0  0  0
   -8.8962    5.8551   13.3522 O   0  0  0  0  0  0  0  0  0  0  0  0
   -8.0183    5.1127   15.5074 C   0  0  2  0  0  0  0  0  0  0  0  0
  -10.0173   -0.9447   18.9005 N   0  0  0  0  0  0  0  0  0  0  0  0
   -8.8403    6.1690   15.9847 O   0  0  0  0  0  0  0  0  0  0  0  0
  -10.7593    0.1663   18.6629 C   0  0  2  0  0  0  0  0  0  0  0  0
   -6.5690    5.5566   15.4736 C   0  0  2  0  0  0  0  0  0  0  0  0
   -6.0079    4.9732   14.2988 O   0  0  0  0  0  0  0  0  0  0  0  0
  -11.8833    0.0618   17.7161 C   0  0  1  0  0  0  0  0  0  0  0  0
   -5.7808    5.0980   16.6954 C   0  0  0  0  0  0  0  0  0  0  0  0
   -5.7702    3.6696   16.7354 O   0  0  0  0  0  0  0  0  0  0  0  0
  -12.1420   -1.2464   17.0887 C   0  0  0  0  0  0  0  0  0  0  0  0
  -13.1629   -1.4016   16.2081 O   0  0  0  0  0  0  0  0  0  0  0  0
  -12.4472    1.2727   17.6470 N   0  0  0  0  0  0  0  0  0  0  0  0
  -11.7454    2.0960   18.4797 C   0  0  0  0  0  0  0  0  0  0  0  0
  -10.7351    1.4401   19.0885 N   0  0  1  0  0  0  0  0  0  0  0  0
   -4.1106    0.2535   14.5890 N   0  0  0  0  0  0  0  0  0  0  0  0
   -5.7887    1.1312   17.8955 O   0  5  0  0  0  0  0  0  0  0  0  0
   -3.9383    1.5566   14.9429 C   0  0  2  0  0  0  0  0  0  0  0  0
   -2.8752    1.8990   15.7165 N   0  0  0  0  0  0  0  0  0  0  0  0
   -3.8343    3.1565   18.6143 O   0  0  0  0  0  0  0  0  0  0  0  0
   -4.8004    2.5320   14.5459 N   0  0  0  0  0  0  0  0  0  0  0  0
   -5.8809    2.2520   13.7802 C   0  0  2  0  0  0  0  0  0  0  0  0
   -6.1186    0.8636   13.3638 C   0  0  2  0  0  0  0  0  0  0  0  0
   -5.1447   -0.1505   13.8211 C   0  0  0  0  0  0  0  0  0  0  0  0
   -5.2799   -1.4571   13.4848 O   0  0  0  0  0  0  0  0  0  0  0  0
   -7.2376    0.8729   12.6127 N   0  0  0  0  0  0  0  0  0  0  0  0
   -7.6821    2.1637   12.5571 C   0  0  0  0  0  0  0  0  0  0  0  0
   -6.8650    2.9845   13.2553 N   0  0  1  0  0  0  0  0  0  0  0  0
  1  3  1  6  0  0  0
  1  4  2  0  0  0  0
  1  6  1  0  0  0  0
  1 22  1  0  0  0  0
  2 28  1  0  0  0  0
  2 35  1  6  0  0  0
  2 38  2  0  0  0  0
  2 10  1  0  0  0  0
  5  6  1  0  0  0  0
  7  5  1  6  0  0  0
  7  8  1  0  0  0  0
  7  9  1  0  0  0  0
  9 10  1  1  0  0  0
  9 11  1  0  0  0  0
 11 12  1  1  0  0  0
 11 13  1  0  0  0  0
 13  8  1  6  0  0  0
 13 33  1  0  0  0  0
 14 46  1  0  0  0  0
 14 17  1  0  0  0  0
 14 25  1  1  0  0  0
 15 16  1  0  0  0  0
 15 29  1  0  0  0  0
 16 18  1  6  0  0  0
 16 21  1  0  0  0  0
 17 19  1  6  0  0  0
 17 20  1  0  0  0  0
 20 22  1  6  0  0  0
 20 24  1  0  0  0  0
 23 21  1  6  0  0  0
 23 26  1  0  0  0  0
 23 33  1  0  0  0  0
 24 25  1  6  0  0  0
 24 27  1  0  0  0  0
 26 29  1  1  0  0  0
 26 31  1  0  0  0  0
 27 28  1  0  0  0  0
 29 30  2  0  0  0  0
 31 32  1  0  0  0  0
 33 32  1  1  0  0  0
 34 36  1  0  0  0  0
 34 42  1  0  0  0  0
 36 37  1  1  0  0  0
 36 39  1  0  0  0  0
 40 39  1  6  0  0  0
 40 41  1  0  0  0  0
 40 46  1  0  0  0  0
 41 42  1  6  0  0  0
 41 44  1  0  0  0  0
 42 43  2  0  0  0  0
 44 45  1  0  0  0  0
 46 45  1  1  0  0  0
M  CHG  2   3  -1  35  -1
M  END
>  <CHROM.1>
173.88092752,-121.35201831,-8.14260109,2.54910851,16.68878018,2.73319900
-0.56609010,3.05476403

>  <Name>
ligand

>  <RI>
-1

>  <Rbt.Current_Directory>
/home/itssahil/PROJECTS/Mol_Feturizer/Test_systems_manuscript/rnas/3mum

>  <Rbt.Executable>
rbdock ($Id: //depot/dev/client3/rdock/2013.1/src/exe/rbdock.cxx#4 $)

>  <Rbt.Library>
libRbt.so (2013.1, Build901 2013/11/27)

>  <Rbt.Parameter_File>
/export/apps/rDock/src/rDock_2013.1_src/data/scripts/dock_solv.prm

>  <Rbt.Receptor>
prm/pocket_docking_5.prm

>  <SCORE>
-34.7481

>  <SCORE.INTER>
-36.4103

>  <SCORE.INTER.CONST>
1

>  <SCORE.INTER.POLAR>
0

>  <SCORE.INTER.ROT>
2

>  <SCORE.INTER.SOLV>
28.9436

>  <SCORE.INTER.VDW>
-38.8547

>  <SCORE.INTER.norm>
-0.791529

>  <SCORE.INTRA>
1.66225

>  <SCORE.INTRA.DIHEDRAL>
-0.00280725

>  <SCORE.INTRA.DIHEDRAL.0>
2.40424

>  <SCORE.INTRA.POLAR>
0

>  <SCORE.INTRA.POLAR.0>
0

>  <SCORE.INTRA.REPUL>
0

>  <SCORE.INTRA.REPUL.0>
0

>  <SCORE.INTRA.SOLV>
5.92292

>  <SCORE.INTRA.SOLV.lig_0>
-134.169

>  <SCORE.INTRA.VDW>
-1.2978

>  <SCORE.INTRA.VDW.0>
-2.18386

>  <SCORE.INTRA.norm>
0.0361359

>  <SCORE.RESTR>
0

>  <SCORE.RESTR.CAVITY>
0

>  <SCORE.RESTR.norm>
0

>  <SCORE.SYSTEM>
0

>  <SCORE.SYSTEM.CONST>
0

>  <SCORE.SYSTEM.DIHEDRAL>
0

>  <SCORE.SYSTEM.SOLV>
0

>  <SCORE.SYSTEM.norm>
0

>  <SCORE.heavy>
46

>  <SCORE.norm>
-0.755393

>  <RMSD>
2.192

$$$$
ligand
 OpenBabel02271912143D
libRbt.so/2013.1/901 2013/11/27
 46 52  0  0  0  0  0  0  0  0999 V2000
  -10.3178    5.8834   16.5112 P   0  0  1  0  0  0  0  0  0  0  0  0
   -5.5081    2.8852   18.1092 P   0  0  2  0  0  0  0  0  0  0  0  0
  -11.2644    4.9462   15.3419 O   0  5  0  0  0  0  0  0  0  0  0  0
  -11.1340    7.4076   16.9470 O   0  0  0  0  0  0  0  0  0  0  0  0
   -9.2684    5.4279   18.9017 C   0  0  0  0  0  0  0  0  0  0  0  0
  -10.0899    4.9768   17.8247 O   0  0  0  0  0  0  0  0  0  0  0  0
   -8.8532    4.2266   19.7294 C   0  0  1  0  0  0  0  0  0  0  0  0
  -10.0196    3.4846   20.1128 O   0  0  0  0  0  0  0  0  0  0  0  0
   -7.9786    3.2452   18.9663 C   0  0  1  0  0  0  0  0  0  0  0  0
   -6.5902    3.5330   19.1172 O   0  0  0  0  0  0  0  0  0  0  0  0
   -8.3509    1.9051   19.5760 C   0  0  1  0  0  0  0  0  0  0  0  0
   -7.5247    1.6366   20.7117 O   0  0  0  0  0  0  0  0  0  0  0  0
   -9.7839    2.0694   20.0473 C   0  0  2  0  0  0  0  0  0  0  0  0
   -7.0090    4.4517   13.4325 C   0  0  1  0  0  0  0  0  0  0  0  0
  -11.3011   -2.2562   17.3677 N   0  0  0  0  0  0  0  0  0  0  0  0
  -10.2683   -2.1073   18.2415 C   0  0  1  0  0  0  0  0  0  0  0  0
   -8.3375    4.7564   14.0645 C   0  0  2  0  0  0  0  0  0  0  0  0
   -9.4867   -3.1818   18.4971 N   0  0  0  0  0  0  0  0  0  0  0  0
   -8.8845    5.8615   13.3429 O   0  0  0  0  0  0  0  0  0  0  0  0
   -8.0084    5.1194   15.4990 C   0  0  2  0  0  0  0  0  0  0  0  0
   -9.9906   -0.9229   18.8634 N   0  0  0  0  0  0  0  0  0  0  0  0
   -8.8294    6.1771   15.9752 O   0  0  0  0  0  0  0  0  0  0  0  0
  -10.7454    0.1830   18.6424 C   0  0  2  0  0  0  0  0  0  0  0  0
   -6.5586    5.5616   15.4655 C   0  0  2  0  0  0  0  0  0  0  0  0
   -5.9977    4.9768   14.2914 O   0  0  0  0  0  0  0  0  0  0  0  0
  -11.8747    0.0769   17.7023 C   0  0  1  0  0  0  0  0  0  0  0  0
   -5.7715    5.1029   16.6880 C   0  0  0  0  0  0  0  0  0  0  0  0
   -5.7626    3.6745   16.7289 O   0  0  0  0  0  0  0  0  0  0  0  0
  -12.1244   -1.2273   17.0629 C   0  0  0  0  0  0  0  0  0  0  0  0
  -13.1498   -1.3837   16.1876 O   0  0  0  0  0  0  0  0  0  0  0  0
  -12.4513    1.2827   17.6497 N   0  0  0  0  0  0  0  0  0  0  0  0
  -11.7523    2.1043   18.4862 C   0  0  0  0  0  0  0  0  0  0  0  0
  -10.7312    1.4524   19.0812 N   0  0  1  0  0  0  0  0  0  0  0  0
   -4.1005    0.2566   14.5774 N   0  0  0  0  0  0  0  0  0  0  0  0
   -5.7846    1.1369   17.8907 O   0  5  0  0  0  0  0  0  0  0  0  0
   -3.9262    1.5599   14.9294 C   0  0  2  0  0  0  0  0  0  0  0  0
   -2.8606    1.9023   15.6997 N   0  0  0  0  0  0  0  0  0  0  0  0
   -3.8281    3.1603   18.6091 O   0  0  0  0  0  0  0  0  0  0  0  0
   -4.7887    2.5357   14.5339 N   0  0  0  0  0  0  0  0  0  0  0  0
   -5.8716    2.2557   13.7716 C   0  0  2  0  0  0  0  0  0  0  0  0
   -6.1115    0.8671   13.3573 C   0  0  2  0  0  0  0  0  0  0  0  0
   -5.1371   -0.1473   13.8129 C   0  0  0  0  0  0  0  0  0  0  0  0
   -5.2743   -1.4542   13.4782 O   0  0  0  0  0  0  0  0  0  0  0  0
   -7.2326    0.8764   12.6093 N   0  0  0  0  0  0  0  0  0  0  0  0
   -7.6764    2.1676   12.5538 C   0  0  0  0  0  0  0  0  0  0  0  0
   -6.8566    2.9884   13.2488 N   0  0  1  0  0  0  0  0  0  0  0  0
  1  3  1  6  0  0  0
  1  4  2  0  0  0  0
  1  6  1  0  0  0  0
  1 22  1  0  0  0  0
  2 28  1  0  0  0  0
  2 35  1  6  0  0  0
  2 38  2  0  0  0  0
  2 10  1  0  0  0  0
  5  6  1  0  0  0  0
  7  5  1  6  0  0  0
  7  8  1  0  0  0  0
  7  9  1  0  0  0  0
  9 10  1  1  0  0  0
  9 11  1  0  0  0  0
 11 12  1  1  0  0  0
 11 13  1  0  0  0  0
 13  8  1  6  0  0  0
 13 33  1  0  0  0  0
 14 46  1  0  0  0  0
 14 17  1  0  0  0  0
 14 25  1  1  0  0  0
 15 16  1  0  0  0  0
 15 29  1  0  0  0  0
 16 18  1  6  0  0  0
 16 21  1  0  0  0  0
 17 19  1  6  0  0  0
 17 20  1  0  0  0  0
 20 22  1  6  0  0  0
 20 24  1  0  0  0  0
 23 21  1  6  0  0  0
 23 26  1  0  0  0  0
 23 33  1  0  0  0  0
 24 25  1  6  0  0  0
 24 27  1  0  0  0  0
 26 29  1  1  0  0  0
 26 31  1  0  0  0  0
 27 28  1  0  0  0  0
 29 30  2  0  0  0  0
 31 32  1  0  0  0  0
 33 32  1  1  0  0  0
 34 36  1  0  0  0  0
 34 42  1  0  0  0  0
 36 37  1  1  0  0  0
 36 39  1  0  0  0  0
 40 39  1  6  0  0  0
 40 41  1  0  0  0  0
 40 46  1  0  0  0  0
 41 42  1  6  0  0  0
 41 44  1  0  0  0  0
 42 43  2  0  0  0  0
 44 45  1  0  0  0  0
 46 45  1  1  0  0  0
M  CHG  2   3  -1  35  -1
M  END
>  <CHROM.1>
172.87921708,-121.54418185,-8.13245528,2.55829295,16.67709249,2.74683176
-0.56615474,3.05829081

>  <Name>
ligand

>  <RI>
-1

>  <Rbt.Current_Directory>
/home/itssahil/PROJECTS/Mol_Feturizer/Test_systems_manuscript/rnas/3mum

>  <Rbt.Executable>
rbdock ($Id: //depot/dev/client3/rdock/2013.1/src/exe/rbdock.cxx#4 $)

>  <Rbt.Library>
libRbt.so (2013.1, Build901 2013/11/27)

>  <Rbt.Parameter_File>
/export/apps/rDock/src/rDock_2013.1_src/data/scripts/dock_solv.prm

>  <Rbt.Receptor>
prm/pocket_docking_4.prm

>  <SCORE>
-34.7727

>  <SCORE.INTER>
-36.4028

>  <SCORE.INTER.CONST>
1

>  <SCORE.INTER.POLAR>
0

>  <SCORE.INTER.ROT>
2

>  <SCORE.INTER.SOLV>
28.9639

>  <SCORE.INTER.VDW>
-38.8565

>  <SCORE.INTER.norm>
-0.791365

>  <SCORE.INTRA>
1.63004

>  <SCORE.INTRA.DIHEDRAL>
-0.00270928

>  <SCORE.INTRA.DIHEDRAL.0>
2.40424

>  <SCORE.INTRA.POLAR>
0

>  <SCORE.INTRA.POLAR.0>
0

>  <SCORE.INTRA.REPUL>
0

>  <SCORE.INTRA.REPUL.0>
0

>  <SCORE.INTRA.SOLV>
5.83537

>  <SCORE.INTRA.SOLV.lig_0>
-134.169

>  <SCORE.INTRA.VDW>
-1.28629

>  <SCORE.INTRA.VDW.0>
-2.18386

>  <SCORE.INTRA.norm>
0.0354357

>  <SCORE.RESTR>
0

>  <SCORE.RESTR.CAVITY>
0

>  <SCORE.RESTR.norm>
0

>  <SCORE.SYSTEM>
0

>  <SCORE.SYSTEM.CONST>
0

>  <SCORE.SYSTEM.DIHEDRAL>
0

>  <SCORE.SYSTEM.SOLV>
0

>  <SCORE.SYSTEM.norm>
0

>  <SCORE.heavy>
46

>  <SCORE.norm>
-0.755929

>  <RMSD>
2.193

$$$$
ligand
 OpenBabel02271912143D
libRbt.so/2013.1/901 2013/11/27
 46 52  0  0  0  0  0  0  0  0999 V2000
  -10.3226    5.8666   16.5330 P   0  0  1  0  0  0  0  0  0  0  0  0
   -5.5150    2.8655   18.1321 P   0  0  2  0  0  0  0  0  0  0  0  0
  -11.2660    4.9327   15.3584 O   0  5  0  0  0  0  0  0  0  0  0  0
  -11.1405    7.3889   16.9720 O   0  0  0  0  0  0  0  0  0  0  0  0
   -9.2784    5.4036   18.9244 C   0  0  0  0  0  0  0  0  0  0  0  0
  -10.0972    4.9557   17.8440 O   0  0  0  0  0  0  0  0  0  0  0  0
   -8.8645    4.1997   19.7490 C   0  0  1  0  0  0  0  0  0  0  0  0
  -10.0314    3.4559   20.1273 O   0  0  0  0  0  0  0  0  0  0  0  0
   -7.9877    3.2213   18.9847 C   0  0  1  0  0  0  0  0  0  0  0  0
   -6.5998    3.5094   19.1398 O   0  0  0  0  0  0  0  0  0  0  0  0
   -8.3607    1.8791   19.5891 C   0  0  1  0  0  0  0  0  0  0  0  0
   -7.5370    1.6072   20.7258 O   0  0  0  0  0  0  0  0  0  0  0  0
   -9.7948    2.0410   20.0576 C   0  0  2  0  0  0  0  0  0  0  0  0
   -7.0058    4.4468   13.4572 C   0  0  1  0  0  0  0  0  0  0  0  0
  -11.3190   -2.2829   17.3791 N   0  0  0  0  0  0  0  0  0  0  0  0
  -10.2907   -2.1373   18.2588 C   0  0  1  0  0  0  0  0  0  0  0  0
   -8.3360    4.7488   14.0872 C   0  0  2  0  0  0  0  0  0  0  0  0
   -9.5164   -3.2153   18.5216 N   0  0  0  0  0  0  0  0  0  0  0  0
   -8.8818    5.8560   13.3680 O   0  0  0  0  0  0  0  0  0  0  0  0
   -8.0104    5.1072   15.5236 C   0  0  2  0  0  0  0  0  0  0  0  0
  -10.0104   -0.9529   18.8795 N   0  0  0  0  0  0  0  0  0  0  0  0
   -8.8330    6.1628   16.0015 O   0  0  0  0  0  0  0  0  0  0  0  0
  -10.7580    0.1564   18.6514 C   0  0  2  0  0  0  0  0  0  0  0  0
   -6.5608    5.5502   15.4950 C   0  0  2  0  0  0  0  0  0  0  0  0
   -5.9968    4.9696   14.3202 O   0  0  0  0  0  0  0  0  0  0  0  0
  -11.8821    0.0541   17.7047 C   0  0  1  0  0  0  0  0  0  0  0  0
   -5.7762    5.0878   16.7178 C   0  0  0  0  0  0  0  0  0  0  0  0
   -5.7667    3.6593   16.7540 O   0  0  0  0  0  0  0  0  0  0  0  0
  -12.1349   -1.2503   17.0669 C   0  0  0  0  0  0  0  0  0  0  0  0
  -13.1558   -1.4033   16.1857 O   0  0  0  0  0  0  0  0  0  0  0  0
  -12.4520    1.2628   17.6457 N   0  0  0  0  0  0  0  0  0  0  0  0
  -11.7536    2.0827   18.4845 C   0  0  0  0  0  0  0  0  0  0  0  0
  -10.7396    1.4268   19.0872 N   0  0  1  0  0  0  0  0  0  0  0  0
   -4.0945    0.2504   14.5899 N   0  0  0  0  0  0  0  0  0  0  0  0
   -5.7901    1.1178   17.9072 O   0  5  0  0  0  0  0  0  0  0  0  0
   -3.9214    1.5528   14.9461 C   0  0  2  0  0  0  0  0  0  0  0  0
   -2.8563    1.8935   15.7179 N   0  0  0  0  0  0  0  0  0  0  0  0
   -3.8363    3.1398   18.6368 O   0  0  0  0  0  0  0  0  0  0  0  0
   -4.7844    2.5291   14.5534 N   0  0  0  0  0  0  0  0  0  0  0  0
   -5.8669    2.2507   13.7899 C   0  0  2  0  0  0  0  0  0  0  0  0
   -6.1056    0.8632   13.3711 C   0  0  2  0  0  0  0  0  0  0  0  0
   -5.1306   -0.1519   13.8238 C   0  0  0  0  0  0  0  0  0  0  0  0
   -5.2666   -1.4578   13.4850 O   0  0  0  0  0  0  0  0  0  0  0  0
   -7.2265    0.8740   12.6228 N   0  0  0  0  0  0  0  0  0  0  0  0
   -7.6712    2.1650   12.5712 C   0  0  0  0  0  0  0  0  0  0  0  0
   -6.8523    2.9843   13.2691 N   0  0  1  0  0  0  0  0  0  0  0  0
  1  3  1  6  0  0  0
  1  4  2  0  0  0  0
  1  6  1  0  0  0  0
  1 22  1  0  0  0  0
  2 28  1  0  0  0  0
  2 35  1  6  0  0  0
  2 38  2  0  0  0  0
  2 10  1  0  0  0  0
  5  6  1  0  0  0  0
  7  5  1  6  0  0  0
  7  8  1  0  0  0  0
  7  9  1  0  0  0  0
  9 10  1  1  0  0  0
  9 11  1  0  0  0  0
 11 12  1  1  0  0  0
 11 13  1  0  0  0  0
 13  8  1  6  0  0  0
 13 33  1  0  0  0  0
 14 46  1  0  0  0  0
 14 17  1  0  0  0  0
 14 25  1  1  0  0  0
 15 16  1  0  0  0  0
 15 29  1  0  0  0  0
 16 18  1  6  0  0  0
 16 21  1  0  0  0  0
 17 19  1  6  0  0  0
 17 20  1  0  0  0  0
 20 22  1  6  0  0  0
 20 24  1  0  0  0  0
 23 21  1  6  0  0  0
 23 26  1  0  0  0  0
 23 33  1  0  0  0  0
 24 25  1  6  0  0  0
 24 27  1  0  0  0  0
 26 29  1  1  0  0  0
 26 31  1  0  0  0  0
 27 28  1  0  0  0  0
 29 30  2  0  0  0  0
 31 32  1  0  0  0  0
 33 32  1  1  0  0  0
 34 36  1  0  0  0  0
 34 42  1  0  0  0  0
 36 37  1  1  0  0  0
 36 39  1  0  0  0  0
 40 39  1  6  0  0  0
 40 41  1  0  0  0  0
 40 46  1  0  0  0  0
 41 42  1  6  0  0  0
 41 44  1  0  0  0  0
 42 43  2  0  0  0  0
 44 45  1  0  0  0  0
 46 45  1  1  0  0  0
M  CHG  2   3  -1  35  -1
M  END
>  <CHROM.1>
173.39466695,-121.65942190,-8.13716007,2.54143303,16.69439476,2.74231640
-0.56398350,3.06012270

>  <Name>
ligand

>  <RI>
-1

>  <Rbt.Current_Directory>
/home/itssahil/PROJECTS/Mol_Feturizer/Test_systems_manuscript/rnas/3mum

>  <Rbt.Executable>
rbdock ($Id: //depot/dev/client3/rdock/2013.1/src/exe/rbdock.cxx#4 $)

>  <Rbt.Library>
libRbt.so (2013.1, Build901 2013/11/27)

>  <Rbt.Parameter_File>
/export/apps/rDock/src/rDock_2013.1_src/data/scripts/dock_solv.prm

>  <Rbt.Receptor>
prm/pocket_docking_5.prm

>  <SCORE>
-34.7789

>  <SCORE.INTER>
-36.3816

>  <SCORE.INTER.CONST>
1

>  <SCORE.INTER.POLAR>
0

>  <SCORE.INTER.ROT>
2

>  <SCORE.INTER.SOLV>
29.1097

>  <SCORE.INTER.VDW>
-38.891

>  <SCORE.INTER.norm>
-0.790905

>  <SCORE.INTRA>
1.60267

>  <SCORE.INTRA.DIHEDRAL>
-0.00245264

>  <SCORE.INTRA.DIHEDRAL.0>
2.40424

>  <SCORE.INTRA.POLAR>
0

>  <SCORE.INTRA.POLAR.0>
0

>  <SCORE.INTRA.REPUL>
0

>  <SCORE.INTRA.REPUL.0>
0

>  <SCORE.INTRA.SOLV>
5.78224

>  <SCORE.INTRA.SOLV.lig_0>
-134.169

>  <SCORE.INTRA.VDW>
-1.28722

>  <SCORE.INTRA.VDW.0>
-2.18386

>  <SCORE.INTRA.norm>
0.0348407

>  <SCORE.RESTR>
0

>  <SCORE.RESTR.CAVITY>
0

>  <SCORE.RESTR.norm>
0

>  <SCORE.SYSTEM>
0

>  <SCORE.SYSTEM.CONST>
0

>  <SCORE.SYSTEM.DIHEDRAL>
0

>  <SCORE.SYSTEM.SOLV>
0

>  <SCORE.SYSTEM.norm>
0

>  <SCORE.heavy>
46

>  <SCORE.norm>
-0.756064

>  <RMSD>
2.193

$$$$
ligand
 OpenBabel02271912143D
libRbt.so/2013.1/901 2013/11/27
 46 52  0  0  0  0  0  0  0  0999 V2000
  -10.2392    5.9242   16.5479 P   0  0  1  0  0  0  0  0  0  0  0  0
   -5.4240    2.8842   18.0475 P   0  0  2  0  0  0  0  0  0  0  0  0
  -11.2084    5.0029   15.3845 O   0  5  0  0  0  0  0  0  0  0  0  0
  -11.0399    7.4490   17.0095 O   0  0  0  0  0  0  0  0  0  0  0  0
   -9.1572    5.4411   18.9185 C   0  0  0  0  0  0  0  0  0  0  0  0
   -9.9972    5.0044   17.8498 O   0  0  0  0  0  0  0  0  0  0  0  0
   -8.7369    4.2300   19.7291 C   0  0  1  0  0  0  0  0  0  0  0  0
   -9.9017    3.4912   20.1231 O   0  0  0  0  0  0  0  0  0  0  0  0
   -7.8794    3.2505   18.9444 C   0  0  1  0  0  0  0  0  0  0  0  0
   -6.4873    3.5291   19.0773 O   0  0  0  0  0  0  0  0  0  0  0  0
   -8.2504    1.9072   19.5475 C   0  0  1  0  0  0  0  0  0  0  0  0
   -7.4091    1.6237   20.6684 O   0  0  0  0  0  0  0  0  0  0  0  0
   -9.6753    2.0753   20.0415 C   0  0  2  0  0  0  0  0  0  0  0  0
   -6.9846    4.5014   13.4078 C   0  0  1  0  0  0  0  0  0  0  0  0
  -11.3431   -2.2509   17.4539 N   0  0  0  0  0  0  0  0  0  0  0  0
  -10.3101   -2.1211   18.3305 C   0  0  1  0  0  0  0  0  0  0  0  0
   -8.3018    4.8080   14.0622 C   0  0  2  0  0  0  0  0  0  0  0  0
   -9.5718   -3.2184   18.6159 N   0  0  0  0  0  0  0  0  0  0  0  0
   -8.8530    5.9227   13.3587 O   0  0  0  0  0  0  0  0  0  0  0  0
   -7.9495    5.1562   15.4948 C   0  0  2  0  0  0  0  0  0  0  0  0
   -9.9904   -0.9338   18.9263 N   0  0  0  0  0  0  0  0  0  0  0  0
   -8.7571    6.2141   15.9926 O   0  0  0  0  0  0  0  0  0  0  0  0
  -10.7010    0.1946   18.6749 C   0  0  2  0  0  0  0  0  0  0  0  0
   -6.4978    5.5904   15.4438 C   0  0  2  0  0  0  0  0  0  0  0  0
   -5.9577    5.0130   14.2563 O   0  0  0  0  0  0  0  0  0  0  0  0
  -11.8285    0.1098   17.7303 C   0  0  1  0  0  0  0  0  0  0  0  0
   -5.6953    5.1161   16.6503 C   0  0  0  0  0  0  0  0  0  0  0  0
   -5.6942    3.6874   16.6783 O   0  0  0  0  0  0  0  0  0  0  0  0
  -12.1246   -1.1986   17.1199 C   0  0  0  0  0  0  0  0  0  0  0  0
  -13.1505   -1.3362   16.2420 O   0  0  0  0  0  0  0  0  0  0  0  0
  -12.3580    1.3351   17.6460 N   0  0  0  0  0  0  0  0  0  0  0  0
  -11.6324    2.1488   18.4675 C   0  0  0  0  0  0  0  0  0  0  0  0
  -10.6404    1.4725   19.0840 N   0  0  1  0  0  0  0  0  0  0  0  0
   -4.1486    0.2607   14.5659 N   0  0  0  0  0  0  0  0  0  0  0  0
   -5.7139    1.1396   17.8175 O   0  5  0  0  0  0  0  0  0  0  0  0
   -3.9688    1.5574   14.9388 C   0  0  2  0  0  0  0  0  0  0  0  0
   -2.9181    1.8783   15.7382 N   0  0  0  0  0  0  0  0  0  0  0  0
   -3.7352    3.1452   18.5249 O   0  0  0  0  0  0  0  0  0  0  0  0
   -4.8113    2.5475   14.5359 N   0  0  0  0  0  0  0  0  0  0  0  0
   -5.8789    2.2891   13.7450 C   0  0  2  0  0  0  0  0  0  0  0  0
   -6.1238    0.9085   13.3072 C   0  0  2  0  0  0  0  0  0  0  0  0
   -5.1712   -0.1222   13.7722 C   0  0  0  0  0  0  0  0  0  0  0  0
   -5.3143   -1.4231   13.4175 O   0  0  0  0  0  0  0  0  0  0  0  0
   -7.2268    0.9396   12.5334 N   0  0  0  0  0  0  0  0  0  0  0  0
   -7.6554    2.2361   12.4843 C   0  0  0  0  0  0  0  0  0  0  0  0
   -6.8436    3.0391   13.2088 N   0  0  1  0  0  0  0  0  0  0  0  0
  1  3  1  6  0  0  0
  1  4  2  0  0  0  0
  1  6  1  0  0  0  0
  1 22  1  0  0  0  0
  2 28  1  0  0  0  0
  2 35  1  6  0  0  0
  2 38  2  0  0  0  0
  2 10  1  0  0  0  0
  5  6  1  0  0  0  0
  7  5  1  6  0  0  0
  7  8  1  0  0  0  0
  7  9  1  0  0  0  0
  9 10  1  1  0  0  0
  9 11  1  0  0  0  0
 11 12  1  1  0  0  0
 11 13  1  0  0  0  0
 13  8  1  6  0  0  0
 13 33  1  0  0  0  0
 14 46  1  0  0  0  0
 14 17  1  0  0  0  0
 14 25  1  1  0  0  0
 15 16  1  0  0  0  0
 15 29  1  0  0  0  0
 16 18  1  6  0  0  0
 16 21  1  0  0  0  0
 17 19  1  6  0  0  0
 17 20  1  0  0  0  0
 20 22  1  6  0  0  0
 20 24  1  0  0  0  0
 23 21  1  6  0  0  0
 23 26  1  0  0  0  0
 23 33  1  0  0  0  0
 24 25  1  6  0  0  0
 24 27  1  0  0  0  0
 26 29  1  1  0  0  0
 26 31  1  0  0  0  0
 27 28  1  0  0  0  0
 29 30  2  0  0  0  0
 31 32  1  0  0  0  0
 33 32  1  1  0  0  0
 34 36  1  0  0  0  0
 34 42  1  0  0  0  0
 36 37  1  1  0  0  0
 36 39  1  0  0  0  0
 40 39  1  6  0  0  0
 40 41  1  0  0  0  0
 40 46  1  0  0  0  0
 41 42  1  6  0  0  0
 41 44  1  0  0  0  0
 42 43  2  0  0  0  0
 44 45  1  0  0  0  0
 46 45  1  1  0  0  0
M  CHG  2   3  -1  35  -1
M  END
>  <CHROM.1>
175.76753834,-119.32287522,-8.08741972,2.57952415,16.67357906,2.70103532
-0.57735939,3.05708748

>  <Name>
ligand

>  <RI>
-1

>  <Rbt.Current_Directory>
/home/itssahil/PROJECTS/Mol_Feturizer/Test_systems_manuscript/rnas/3mum

>  <Rbt.Executable>
rbdock ($Id: //depot/dev/client3/rdock/2013.1/src/exe/rbdock.cxx#4 $)

>  <Rbt.Library>
libRbt.so (2013.1, Build901 2013/11/27)

>  <Rbt.Parameter_File>
/export/apps/rDock/src/rDock_2013.1_src/data/scripts/dock_solv.prm

>  <Rbt.Receptor>
prm/pocket_docking_8.prm

>  <SCORE>
-34.5699

>  <SCORE.INTER>
-36.6119

>  <SCORE.INTER.CONST>
1

>  <SCORE.INTER.POLAR>
0

>  <SCORE.INTER.ROT>
2

>  <SCORE.INTER.SOLV>
28.2572

>  <SCORE.INTER.VDW>
-38.7603

>  <SCORE.INTER.norm>
-0.795911

>  <SCORE.INTRA>
2.04203

>  <SCORE.INTRA.DIHEDRAL>
-0.00538925

>  <SCORE.INTRA.DIHEDRAL.0>
2.40424

>  <SCORE.INTRA.POLAR>
0

>  <SCORE.INTRA.POLAR.0>
0

>  <SCORE.INTRA.REPUL>
0

>  <SCORE.INTRA.REPUL.0>
0

>  <SCORE.INTRA.SOLV>
6.83556

>  <SCORE.INTRA.SOLV.lig_0>
-134.169

>  <SCORE.INTRA.VDW>
-1.37306

>  <SCORE.INTRA.VDW.0>
-2.18386

>  <SCORE.INTRA.norm>
0.0443919

>  <SCORE.RESTR>
0

>  <SCORE.RESTR.CAVITY>
0

>  <SCORE.RESTR.norm>
0

>  <SCORE.SYSTEM>
0

>  <SCORE.SYSTEM.CONST>
0

>  <SCORE.SYSTEM.DIHEDRAL>
0

>  <SCORE.SYSTEM.SOLV>
0

>  <SCORE.SYSTEM.norm>
0

>  <SCORE.heavy>
46

>  <SCORE.norm>
-0.751519

>  <RMSD>
2.195

$$$$
ligand
 OpenBabel02271912143D
libRbt.so/2013.1/901 2013/11/27
 46 52  0  0  0  0  0  0  0  0999 V2000
   -5.9940    3.5016   18.3654 P   0  0  1  0  0  0  0  0  0  0  0  0
  -11.2587    5.2769   16.4139 P   0  0  2  0  0  0  0  0  0  0  0  0
   -5.7833    1.7668   18.0691 O   0  5  0  0  0  0  0  0  0  0  0  0
   -4.5270    4.2316   19.0683 O   0  0  0  0  0  0  0  0  0  0  0  0
   -6.6890    5.6037   16.9088 C   0  0  0  0  0  0  0  0  0  0  0  0
   -6.3579    4.2161   16.9666 O   0  0  0  0  0  0  0  0  0  0  0  0
   -7.4345    5.8694   15.6148 C   0  0  1  0  0  0  0  0  0  0  0  0
   -6.6659    5.3725   14.5101 O   0  0  0  0  0  0  0  0  0  0  0  0
   -8.7728    5.1532   15.5350 C   0  0  1  0  0  0  0  0  0  0  0  0
   -9.8406    5.9521   16.0395 O   0  0  0  0  0  0  0  0  0  0  0  0
   -8.9255    4.8720   14.0505 C   0  0  1  0  0  0  0  0  0  0  0  0
   -9.5669    5.9753   13.4058 O   0  0  0  0  0  0  0  0  0  0  0  0
   -7.5078    4.7590   13.5214 C   0  0  2  0  0  0  0  0  0  0  0  0
  -10.0877    1.6938   19.9308 C   0  0  1  0  0  0  0  0  0  0  0  0
   -4.3667    0.7445   15.0082 N   0  0  0  0  0  0  0  0  0  0  0  0
   -4.3943    2.0263   15.4652 C   0  0  1  0  0  0  0  0  0  0  0  0
   -8.6713    1.8147   19.4445 C   0  0  2  0  0  0  0  0  0  0  0  0
   -3.5175    2.3792   16.4334 N   0  0  0  0  0  0  0  0  0  0  0  0
   -7.8332    1.5369   20.5677 O   0  0  0  0  0  0  0  0  0  0  0  0
   -8.5438    3.2520   18.9802 C   0  0  2  0  0  0  0  0  0  0  0  0
   -5.2644    2.9640   14.9853 N   0  0  0  0  0  0  0  0  0  0  0  0
   -7.2707    3.7966   19.2993 O   0  0  0  0  0  0  0  0  0  0  0  0
   -6.1643    2.6597   14.0162 C   0  0  2  0  0  0  0  0  0  0  0  0
   -9.6309    3.9999   19.7268 C   0  0  2  0  0  0  0  0  0  0  0  0
  -10.5924    3.0169   20.1069 O   0  0  0  0  0  0  0  0  0  0  0  0
   -6.1745    1.2860   13.4840 C   0  0  1  0  0  0  0  0  0  0  0  0
  -10.3061    5.0689   18.8749 C   0  0  0  0  0  0  0  0  0  0  0  0
  -10.9351    4.4447   17.7539 O   0  0  0  0  0  0  0  0  0  0  0  0
   -5.2122    0.3192   14.0419 C   0  0  0  0  0  0  0  0  0  0  0  0
   -5.1754   -0.9599   13.5896 O   0  0  0  0  0  0  0  0  0  0  0  0
   -7.1305    1.2381   12.5497 N   0  0  0  0  0  0  0  0  0  0  0  0
   -7.6934    2.4798   12.4803 C   0  0  0  0  0  0  0  0  0  0  0  0
   -7.1190    3.3335   13.3538 N   0  0  1  0  0  0  0  0  0  0  0  0
  -10.8611   -2.9746   17.7001 N   0  0  0  0  0  0  0  0  0  0  0  0
  -11.8239    4.1864   15.1208 O   0  5  0  0  0  0  0  0  0  0  0  0
   -9.9409   -2.5943   18.6283 C   0  0  2  0  0  0  0  0  0  0  0  0
   -9.0572   -3.5117   19.1010 N   0  0  0  0  0  0  0  0  0  0  0  0
  -12.5262    6.4620   16.7841 O   0  0  0  0  0  0  0  0  0  0  0  0
   -9.8771   -1.3197   19.1009 N   0  0  0  0  0  0  0  0  0  0  0  0
  -10.7343   -0.3633   18.6734 C   0  0  2  0  0  0  0  0  0  0  0  0
  -11.7484   -0.7125   17.6697 C   0  0  2  0  0  0  0  0  0  0  0  0
  -11.7645   -2.1110   17.1901 C   0  0  0  0  0  0  0  0  0  0  0  0
  -12.6625   -2.5258   16.2626 O   0  0  0  0  0  0  0  0  0  0  0  0
  -12.4476    0.4125   17.4209 N   0  0  0  0  0  0  0  0  0  0  0  0
  -11.9249    1.4009   18.2063 C   0  0  0  0  0  0  0  0  0  0  0  0
  -10.8986    0.9314   18.9513 N   0  0  1  0  0  0  0  0  0  0  0  0
  1  3  1  6  0  0  0
  1  4  2  0  0  0  0
  1  6  1  0  0  0  0
  1 22  1  0  0  0  0
  2 28  1  0  0  0  0
  2 35  1  6  0  0  0
  2 38  2  0  0  0  0
  2 10  1  0  0  0  0
  5  6  1  0  0  0  0
  7  5  1  1  0  0  0
  7  8  1  0  0  0  0
  7  9  1  0  0  0  0
  9 10  1  6  0  0  0
  9 11  1  0  0  0  0
 11 12  1  6  0  0  0
 11 13  1  0  0  0  0
 13  8  1  1  0  0  0
 13 33  1  0  0  0  0
 14 46  1  0  0  0  0
 14 17  1  0  0  0  0
 14 25  1  6  0  0  0
 15 16  1  0  0  0  0
 15 29  1  0  0  0  0
 16 18  1  6  0  0  0
 16 21  1  0  0  0  0
 17 19  1  1  0  0  0
 17 20  1  0  0  0  0
 20 22  1  1  0  0  0
 20 24  1  0  0  0  0
 23 21  1  6  0  0  0
 23 26  1  0  0  0  0
 23 33  1  0  0  0  0
 24 25  1  6  0  0  0
 24 27  1  0  0  0  0
 26 29  1  1  0  0  0
 26 31  1  0  0  0  0
 27 28  1  0  0  0  0
 29 30  2  0  0  0  0
 31 32  1  0  0  0  0
 33 32  1  1  0  0  0
 34 36  1  0  0  0  0
 34 42  1  0  0  0  0
 36 37  1  1  0  0  0
 36 39  1  0  0  0  0
 40 39  1  6  0  0  0
 40 41  1  0  0  0  0
 40 46  1  0  0  0  0
 41 42  1  6  0  0  0
 41 44  1  0  0  0  0
 42 43  2  0  0  0  0
 44 45  1  0  0  0  0
 46 45  1  1  0  0  0
M  CHG  2   3  -1  35  -1
M  END
>  <CHROM.1>
1.59285309,67.07351658,-8.52326707,2.50860094,16.78611221,-0.81397787,-0.49000653
2.92397622

>  <Name>
ligand

>  <RI>
416

>  <Rbt.Current_Directory>
/home/itssahil/PROJECTS/Mol_Feturizer/Test_systems_manuscript/rnas/3mum

>  <Rbt.Executable>
rbdock ($Id: //depot/dev/client3/rdock/2013.1/src/exe/rbdock.cxx#4 $)

>  <Rbt.Library>
libRbt.so (2013.1, Build901 2013/11/27)

>  <Rbt.Parameter_File>
/export/apps/rDock/src/rDock_2013.1_src/data/scripts/dock_solv.prm

>  <Rbt.Receptor>
prm/pocket_docking_3.prm

>  <SCORE>
-31.5766

>  <SCORE.INTER>
-34.0926

>  <SCORE.INTER.CONST>
1

>  <SCORE.INTER.POLAR>
0

>  <SCORE.INTER.ROT>
2

>  <SCORE.INTER.SOLV>
30.2896

>  <SCORE.INTER.VDW>
-37.7583

>  <SCORE.INTER.norm>
-0.741144

>  <SCORE.INTRA>
2.45071

>  <SCORE.INTRA.DIHEDRAL>
0.00485547

>  <SCORE.INTRA.DIHEDRAL.0>
2.40424

>  <SCORE.INTRA.POLAR>
0

>  <SCORE.INTRA.POLAR.0>
0

>  <SCORE.INTRA.REPUL>
0

>  <SCORE.INTRA.REPUL.0>
0

>  <SCORE.INTRA.SOLV>
7.86203

>  <SCORE.INTRA.SOLV.lig_0>
-134.169

>  <SCORE.INTRA.VDW>
-1.48274

>  <SCORE.INTRA.VDW.0>
-2.18386

>  <SCORE.INTRA.norm>
0.0532762

>  <SCORE.RESTR>
0.0653543

>  <SCORE.RESTR.CAVITY>
0.0653543

>  <SCORE.RESTR.norm>
0.00142074

>  <SCORE.SYSTEM>
0

>  <SCORE.SYSTEM.CONST>
0

>  <SCORE.SYSTEM.DIHEDRAL>
0

>  <SCORE.SYSTEM.SOLV>
0

>  <SCORE.SYSTEM.norm>
0

>  <SCORE.heavy>
46

>  <SCORE.norm>
-0.686447

>  <RMSD>
2.414

$$$$
ligand
 OpenBabel02271912143D
libRbt.so/2013.1/901 2013/11/27
 46 52  0  0  0  0  0  0  0  0999 V2000
   -8.3048    4.9800   16.7592 P   0  0  1  0  0  0  0  0  0  0  0  0
   -3.5326    1.8837   18.2808 P   0  0  2  0  0  0  0  0  0  0  0  0
   -9.4691    3.9396   15.9204 O   0  5  0  0  0  0  0  0  0  0  0  0
   -8.9453    6.6273   16.9946 O   0  0  0  0  0  0  0  0  0  0  0  0
   -6.9607    4.8677   19.0405 C   0  0  0  0  0  0  0  0  0  0  0  0
   -7.9553    4.3082   18.1825 O   0  0  0  0  0  0  0  0  0  0  0  0
   -6.5152    3.8021   20.0237 C   0  0  1  0  0  0  0  0  0  0  0  0
   -7.6632    3.2538   20.6865 O   0  0  0  0  0  0  0  0  0  0  0  0
   -5.8264    2.6217   19.3585 C   0  0  1  0  0  0  0  0  0  0  0  0
   -4.4143    2.8011   19.2747 O   0  0  0  0  0  0  0  0  0  0  0  0
   -6.1989    1.4546   20.2557 C   0  0  1  0  0  0  0  0  0  0  0  0
   -5.2403    1.3195   21.3080 O   0  0  0  0  0  0  0  0  0  0  0  0
   -7.5361    1.8343   20.8641 C   0  0  2  0  0  0  0  0  0  0  0  0
   -5.5708    2.7130   13.6186 C   0  0  1  0  0  0  0  0  0  0  0  0
  -11.8421    2.2239   17.7820 N   0  0  0  0  0  0  0  0  0  0  0  0
  -11.0243    3.2101   18.2413 C   0  0  1  0  0  0  0  0  0  0  0  0
   -6.7725    3.2497   14.3434 C   0  0  2  0  0  0  0  0  0  0  0  0
  -11.3049    4.4873   17.8936 N   0  0  0  0  0  0  0  0  0  0  0  0
   -7.3397    4.2525   13.4985 O   0  0  0  0  0  0  0  0  0  0  0  0
   -6.2195    3.8334   15.6284 C   0  0  2  0  0  0  0  0  0  0  0  0
   -9.9412    2.9624   19.0363 N   0  0  0  0  0  0  0  0  0  0  0  0
   -6.8908    5.0317   15.9931 O   0  0  0  0  0  0  0  0  0  0  0  0
   -9.6163    1.6993   19.4111 C   0  0  2  0  0  0  0  0  0  0  0  0
   -4.7624    4.1249   15.3278 C   0  0  2  0  0  0  0  0  0  0  0  0
   -4.4146    3.2878   14.2262 O   0  0  0  0  0  0  0  0  0  0  0  0
  -10.4712    0.5942   18.9436 C   0  0  1  0  0  0  0  0  0  0  0  0
   -3.8430    3.8230   16.5060 C   0  0  0  0  0  0  0  0  0  0  0  0
   -3.9257    2.4310   16.8184 O   0  0  0  0  0  0  0  0  0  0  0  0
  -11.6250    0.9244   18.0882 C   0  0  0  0  0  0  0  0  0  0  0  0
  -12.4477   -0.0524   17.6289 O   0  0  0  0  0  0  0  0  0  0  0  0
   -9.9559   -0.5342   19.4437 N   0  0  0  0  0  0  0  0  0  0  0  0
   -8.8574   -0.1893   20.1771 C   0  0  0  0  0  0  0  0  0  0  0  0
   -8.6505    1.1443   20.1618 N   0  0  1  0  0  0  0  0  0  0  0  0
   -7.4873   -1.7339   11.6387 N   0  0  0  0  0  0  0  0  0  0  0  0
   -3.9556    0.1583   18.4381 O   0  5  0  0  0  0  0  0  0  0  0  0
   -7.7636   -0.4427   11.3079 C   0  0  2  0  0  0  0  0  0  0  0  0
   -8.6589   -0.1884   10.3181 N   0  0  0  0  0  0  0  0  0  0  0  0
   -1.7839    2.0863   18.5022 O   0  0  0  0  0  0  0  0  0  0  0  0
   -7.1691    0.6067   11.9385 N   0  0  0  0  0  0  0  0  0  0  0  0
   -6.2643    0.4170   12.9272 C   0  0  2  0  0  0  0  0  0  0  0  0
   -5.9270   -0.9545   13.3308 C   0  0  2  0  0  0  0  0  0  0  0  0
   -6.6094   -2.0525   12.6134 C   0  0  0  0  0  0  0  0  0  0  0  0
   -6.3644   -3.3508   12.9183 O   0  0  0  0  0  0  0  0  0  0  0  0
   -5.0244   -0.8521   14.3265 N   0  0  0  0  0  0  0  0  0  0  0  0
   -4.7995    0.4787   14.5393 C   0  0  0  0  0  0  0  0  0  0  0  0
   -5.5460    1.2330   13.7010 N   0  0  1  0  0  0  0  0  0  0  0  0
  1  3  1  6  0  0  0
  1  4  2  0  0  0  0
  1  6  1  0  0  0  0
  1 22  1  0  0  0  0
  2 28  1  0  0  0  0
  2 35  1  1  0  0  0
  2 38  2  0  0  0  0
  2 10  1  0  0  0  0
  5  6  1  0  0  0  0
  7  5  1  6  0  0  0
  7  8  1  0  0  0  0
  7  9  1  0  0  0  0
  9 10  1  1  0  0  0
  9 11  1  0  0  0  0
 11 12  1  1  0  0  0
 11 13  1  0  0  0  0
 13  8  1  6  0  0  0
 13 33  1  0  0  0  0
 14 46  1  0  0  0  0
 14 17  1  0  0  0  0
 14 25  1  1  0  0  0
 15 16  1  0  0  0  0
 15 29  1  0  0  0  0
 16 18  1  1  0  0  0
 16 21  1  0  0  0  0
 17 19  1  6  0  0  0
 17 20  1  0  0  0  0
 20 22  1  6  0  0  0
 20 24  1  0  0  0  0
 23 21  1  1  0  0  0
 23 26  1  0  0  0  0
 23 33  1  0  0  0  0
 24 25  1  6  0  0  0
 24 27  1  0  0  0  0
 26 29  1  6  0  0  0
 26 31  1  0  0  0  0
 27 28  1  0  0  0  0
 29 30  2  0  0  0  0
 31 32  1  0  0  0  0
 33 32  1  6  0  0  0
 34 36  1  0  0  0  0
 34 42  1  0  0  0  0
 36 37  1  6  0  0  0
 36 39  1  0  0  0  0
 40 39  1  1  0  0  0
 40 41  1  0  0  0  0
 40 46  1  0  0  0  0
 41 42  1  1  0  0  0
 41 44  1  0  0  0  0
 42 43  2  0  0  0  0
 44 45  1  0  0  0  0
 46 45  1  6  0  0  0
M  CHG  2   3  -1  35  -1
M  END
>  <CHROM.1>
2.99553624,80.47582963,-7.09009190,2.05635940,16.73286238,1.83757586,0.05466695
1.15097404

>  <Name>
ligand

>  <RI>
-1

>  <Rbt.Current_Directory>
/home/itssahil/PROJECTS/Mol_Feturizer/Test_systems_manuscript/rnas/3mum

>  <Rbt.Executable>
rbdock ($Id: //depot/dev/client3/rdock/2013.1/src/exe/rbdock.cxx#4 $)

>  <Rbt.Library>
libRbt.so (2013.1, Build901 2013/11/27)

>  <Rbt.Parameter_File>
/export/apps/rDock/src/rDock_2013.1_src/data/scripts/dock_solv.prm

>  <Rbt.Receptor>
prm/pocket_docking_5.prm

>  <SCORE>
-26.4673

>  <SCORE.INTER>
-29.246

>  <SCORE.INTER.CONST>
1

>  <SCORE.INTER.POLAR>
0

>  <SCORE.INTER.ROT>
2

>  <SCORE.INTER.SOLV>
28.6145

>  <SCORE.INTER.VDW>
-33.9688

>  <SCORE.INTER.norm>
-0.635783

>  <SCORE.INTRA>
2.77868

>  <SCORE.INTRA.DIHEDRAL>
0.0191101

>  <SCORE.INTRA.DIHEDRAL.0>
2.40424

>  <SCORE.INTRA.POLAR>
0

>  <SCORE.INTRA.POLAR.0>
0

>  <SCORE.INTRA.REPUL>
0

>  <SCORE.INTRA.REPUL.0>
0

>  <SCORE.INTRA.SOLV>
8.39803

>  <SCORE.INTRA.SOLV.lig_0>
-134.169

>  <SCORE.INTRA.VDW>
-1.42989

>  <SCORE.INTRA.VDW.0>
-2.18386

>  <SCORE.INTRA.norm>
0.0604061

>  <SCORE.RESTR>
0

>  <SCORE.RESTR.CAVITY>
0

>  <SCORE.RESTR.norm>
0

>  <SCORE.SYSTEM>
0

>  <SCORE.SYSTEM.CONST>
0

>  <SCORE.SYSTEM.DIHEDRAL>
0

>  <SCORE.SYSTEM.SOLV>
0

>  <SCORE.SYSTEM.norm>
0

>  <SCORE.heavy>
46

>  <SCORE.norm>
-0.575377

>  <RMSD>
2.472

$$$$
ligand
 OpenBabel02271912143D
libRbt.so/2013.1/901 2013/11/27
 46 52  0  0  0  0  0  0  0  0999 V2000
   -8.0897    5.0669   16.9038 P   0  0  1  0  0  0  0  0  0  0  0  0
   -3.3117    1.9310   18.3224 P   0  0  2  0  0  0  0  0  0  0  0  0
   -9.2388    4.0608   16.0043 O   0  5  0  0  0  0  0  0  0  0  0  0
   -8.7436    6.6969   17.2119 O   0  0  0  0  0  0  0  0  0  0  0  0
   -6.7672    4.8532   19.1905 C   0  0  0  0  0  0  0  0  0  0  0  0
   -7.7496    4.3295   18.2966 O   0  0  0  0  0  0  0  0  0  0  0  0
   -6.3240    3.7443   20.1257 C   0  0  1  0  0  0  0  0  0  0  0  0
   -7.4747    3.1574   20.7497 O   0  0  0  0  0  0  0  0  0  0  0  0
   -5.6208    2.6017   19.4113 C   0  0  1  0  0  0  0  0  0  0  0  0
   -4.2092    2.7938   19.3504 O   0  0  0  0  0  0  0  0  0  0  0  0
   -5.9941    1.3903   20.2475 C   0  0  1  0  0  0  0  0  0  0  0  0
   -5.0449    1.2107   21.3016 O   0  0  0  0  0  0  0  0  0  0  0  0
   -7.3397    1.7318   20.8600 C   0  0  2  0  0  0  0  0  0  0  0  0
   -5.3100    2.9714   13.6854 C   0  0  1  0  0  0  0  0  0  0  0  0
  -12.1258    2.1413   18.5976 N   0  0  0  0  0  0  0  0  0  0  0  0
  -11.3987    3.0931   19.2440 C   0  0  1  0  0  0  0  0  0  0  0  0
   -6.5223    3.4649   14.4230 C   0  0  2  0  0  0  0  0  0  0  0  0
  -11.9248    4.3348   19.3543 N   0  0  0  0  0  0  0  0  0  0  0  0
   -7.0880    4.5036   13.6218 O   0  0  0  0  0  0  0  0  0  0  0  0
   -5.9858    3.9894   15.7401 C   0  0  2  0  0  0  0  0  0  0  0  0
  -10.1687    2.8442   19.7843 N   0  0  0  0  0  0  0  0  0  0  0  0
   -6.6687    5.1644   16.1554 O   0  0  0  0  0  0  0  0  0  0  0  0
   -9.5968    1.6165   19.6987 C   0  0  2  0  0  0  0  0  0  0  0  0
   -4.5279    4.3042   15.4686 C   0  0  2  0  0  0  0  0  0  0  0  0
   -4.1637    3.5235   14.3314 O   0  0  0  0  0  0  0  0  0  0  0  0
  -10.3436    0.5485   19.0115 C   0  0  1  0  0  0  0  0  0  0  0  0
   -3.6180    3.9516   16.6400 C   0  0  0  0  0  0  0  0  0  0  0  0
   -3.6942    2.5457   16.8842 O   0  0  0  0  0  0  0  0  0  0  0  0
  -11.6652    0.8783   18.4488 C   0  0  0  0  0  0  0  0  0  0  0  0
  -12.3987   -0.0656   17.8060 O   0  0  0  0  0  0  0  0  0  0  0  0
   -9.5849   -0.5518   19.0636 N   0  0  0  0  0  0  0  0  0  0  0  0
   -8.4401   -0.2248   19.7315 C   0  0  0  0  0  0  0  0  0  0  0  0
   -8.4425    1.0695   20.1141 N   0  0  1  0  0  0  0  0  0  0  0  0
   -7.3465   -1.3895   11.6351 N   0  0  0  0  0  0  0  0  0  0  0  0
   -3.7245    0.1974   18.3921 O   0  5  0  0  0  0  0  0  0  0  0  0
   -7.6479   -0.0860   11.3847 C   0  0  2  0  0  0  0  0  0  0  0  0
   -8.6095    0.2089   10.4712 N   0  0  0  0  0  0  0  0  0  0  0  0
   -1.5666    2.1338   18.5709 O   0  0  0  0  0  0  0  0  0  0  0  0
   -7.0143    0.9363   12.0216 N   0  0  0  0  0  0  0  0  0  0  0  0
   -6.0435    0.7061   12.9364 C   0  0  2  0  0  0  0  0  0  0  0  0
   -5.6760   -0.6808   13.2514 C   0  0  2  0  0  0  0  0  0  0  0  0
   -6.4032   -1.7481   12.5318 C   0  0  0  0  0  0  0  0  0  0  0  0
   -6.1346   -3.0577   12.7582 O   0  0  0  0  0  0  0  0  0  0  0  0
   -4.7077   -0.6196   14.1869 N   0  0  0  0  0  0  0  0  0  0  0  0
   -4.4720    0.7011   14.4458 C   0  0  0  0  0  0  0  0  0  0  0  0
   -5.2760    1.4892   13.6966 N   0  0  1  0  0  0  0  0  0  0  0  0
  1  3  1  6  0  0  0
  1  4  2  0  0  0  0
  1  6  1  0  0  0  0
  1 22  1  0  0  0  0
  2 28  1  0  0  0  0
  2 35  1  1  0  0  0
  2 38  2  0  0  0  0
  2 10  1  0  0  0  0
  5  6  1  0  0  0  0
  7  5  1  6  0  0  0
  7  8  1  0  0  0  0
  7  9  1  0  0  0  0
  9 10  1  1  0  0  0
  9 11  1  0  0  0  0
 11 12  1  1  0  0  0
 11 13  1  0  0  0  0
 13  8  1  6  0  0  0
 13 33  1  0  0  0  0
 14 46  1  0  0  0  0
 14 17  1  0  0  0  0
 14 25  1  1  0  0  0
 15 16  1  0  0  0  0
 15 29  1  0  0  0  0
 16 18  1  1  0  0  0
 16 21  1  0  0  0  0
 17 19  1  6  0  0  0
 17 20  1  0  0  0  0
 20 22  1  6  0  0  0
 20 24  1  0  0  0  0
 23 21  1  1  0  0  0
 23 26  1  0  0  0  0
 23 33  1  0  0  0  0
 24 25  1  6  0  0  0
 24 27  1  0  0  0  0
 26 29  1  6  0  0  0
 26 31  1  0  0  0  0
 27 28  1  0  0  0  0
 29 30  2  0  0  0  0
 31 32  1  0  0  0  0
 33 32  1  6  0  0  0
 34 36  1  0  0  0  0
 34 42  1  0  0  0  0
 36 37  1  6  0  0  0
 36 39  1  0  0  0  0
 40 39  1  1  0  0  0
 40 41  1  0  0  0  0
 40 46  1  0  0  0  0
 41 42  1  1  0  0  0
 41 44  1  0  0  0  0
 42 43  2  0  0  0  0
 44 45  1  0  0  0  0
 46 45  1  6  0  0  0
M  CHG  2   3  -1  35  -1
M  END
>  <CHROM.1>
-17.19887153,75.98706019,-6.92844226,2.14446079,16.85725534,1.98215912,0.11814683
1.18606570

>  <Name>
ligand

>  <RI>
-1

>  <Rbt.Current_Directory>
/home/itssahil/PROJECTS/Mol_Feturizer/Test_systems_manuscript/rnas/3mum

>  <Rbt.Executable>
rbdock ($Id: //depot/dev/client3/rdock/2013.1/src/exe/rbdock.cxx#4 $)

>  <Rbt.Library>
libRbt.so (2013.1, Build901 2013/11/27)

>  <Rbt.Parameter_File>
/export/apps/rDock/src/rDock_2013.1_src/data/scripts/dock_solv.prm

>  <Rbt.Receptor>
prm/pocket_docking_4.prm

>  <SCORE>
-25.623

>  <SCORE.INTER>
-25.0798

>  <SCORE.INTER.CONST>
1

>  <SCORE.INTER.POLAR>
0

>  <SCORE.INTER.ROT>
2

>  <SCORE.INTER.SOLV>
32.7766

>  <SCORE.INTER.VDW>
-32.5787

>  <SCORE.INTER.norm>
-0.545213

>  <SCORE.INTRA>
-0.5432

>  <SCORE.INTRA.DIHEDRAL>
0.0186465

>  <SCORE.INTRA.DIHEDRAL.0>
2.40424

>  <SCORE.INTRA.POLAR>
0

>  <SCORE.INTRA.POLAR.0>
0

>  <SCORE.INTRA.REPUL>
0

>  <SCORE.INTRA.REPUL.0>
0

>  <SCORE.INTRA.SOLV>
0.372084

>  <SCORE.INTRA.SOLV.lig_0>
-134.169

>  <SCORE.INTRA.VDW>
-0.738565

>  <SCORE.INTRA.VDW.0>
-2.18386

>  <SCORE.INTRA.norm>
-0.0118087

>  <SCORE.RESTR>
0

>  <SCORE.RESTR.CAVITY>
0

>  <SCORE.RESTR.norm>
0

>  <SCORE.SYSTEM>
0

>  <SCORE.SYSTEM.CONST>
0

>  <SCORE.SYSTEM.DIHEDRAL>
0

>  <SCORE.SYSTEM.SOLV>
0

>  <SCORE.SYSTEM.norm>
0

>  <SCORE.heavy>
46

>  <SCORE.norm>
-0.557022

>  <RMSD>
2.556

$$$$
ligand
 OpenBabel02271912143D
libRbt.so/2013.1/901 2013/11/27
 46 52  0  0  0  0  0  0  0  0999 V2000
   -3.3380    2.6399   18.8954 P   0  0  1  0  0  0  0  0  0  0  0  0
   -8.3704    5.1605   17.1641 P   0  0  2  0  0  0  0  0  0  0  0  0
   -3.4726    0.8749   18.8030 O   0  5  0  0  0  0  0  0  0  0  0  0
   -1.7001    3.1499   19.3818 O   0  0  0  0  0  0  0  0  0  0  0  0
   -3.7899    4.6653   17.2471 C   0  0  0  0  0  0  0  0  0  0  0  0
   -3.7084    3.2547   17.4518 O   0  0  0  0  0  0  0  0  0  0  0  0
   -4.6035    4.9260   15.9938 C   0  0  1  0  0  0  0  0  0  0  0  0
   -4.0529    4.1755   14.9022 O   0  0  0  0  0  0  0  0  0  0  0  0
   -6.0495    4.4725   16.1116 C   0  0  1  0  0  0  0  0  0  0  0  0
   -6.9000    5.5095   16.5958 O   0  0  0  0  0  0  0  0  0  0  0  0
   -6.4004    4.0663   14.6911 C   0  0  1  0  0  0  0  0  0  0  0  0
   -6.8961    5.1949   13.9666 O   0  0  0  0  0  0  0  0  0  0  0  0
   -5.0872    3.6295   14.0687 C   0  0  2  0  0  0  0  0  0  0  0  0
   -7.5082    1.8227   20.9973 C   0  0  1  0  0  0  0  0  0  0  0  0
   -6.8459   -0.9890   12.1273 N   0  0  0  0  0  0  0  0  0  0  0  0
   -7.2675    0.2746   11.8482 C   0  0  1  0  0  0  0  0  0  0  0  0
   -6.1501    1.6190   20.3881 C   0  0  2  0  0  0  0  0  0  0  0  0
   -8.2749    0.4309   10.9585 N   0  0  0  0  0  0  0  0  0  0  0  0
   -5.2653    1.3105   21.4666 O   0  0  0  0  0  0  0  0  0  0  0  0
   -5.8152    2.9471   19.7385 C   0  0  2  0  0  0  0  0  0  0  0  0
   -6.7191    1.3826   12.4297 N   0  0  0  0  0  0  0  0  0  0  0  0
   -4.4393    3.2713   19.8840 O   0  0  0  0  0  0  0  0  0  0  0  0
   -5.7056    1.2794   13.3263 C   0  0  2  0  0  0  0  0  0  0  0  0
   -6.6689    3.9642   20.4700 C   0  0  2  0  0  0  0  0  0  0  0  0
   -7.7472    3.2287   21.0460 O   0  0  0  0  0  0  0  0  0  0  0  0
   -5.2133   -0.0668   13.6664 C   0  0  1  0  0  0  0  0  0  0  0  0
   -7.2249    5.0433   19.5476 C   0  0  0  0  0  0  0  0  0  0  0  0
   -8.0663    4.4321   18.5675 O   0  0  0  0  0  0  0  0  0  0  0  0
   -5.8446   -1.2233   13.0060 C   0  0  0  0  0  0  0  0  0  0  0  0
   -5.4329   -2.4869   13.2812 O   0  0  0  0  0  0  0  0  0  0  0  0
   -4.2327    0.0927   14.5620 N   0  0  0  0  0  0  0  0  0  0  0  0
   -4.1007    1.4328   14.7857 C   0  0  0  0  0  0  0  0  0  0  0  0
   -4.9792    2.1465   14.0505 N   0  0  1  0  0  0  0  0  0  0  0  0
  -12.1734    2.2699   18.6726 N   0  0  0  0  0  0  0  0  0  0  0  0
   -9.2504    4.0636   16.0672 O   0  5  0  0  0  0  0  0  0  0  0  0
  -11.4739    3.1799   19.4044 C   0  0  2  0  0  0  0  0  0  0  0  0
  -11.9986    4.4178   19.6006 N   0  0  0  0  0  0  0  0  0  0  0  0
   -9.3608    6.5976   17.4829 O   0  0  0  0  0  0  0  0  0  0  0  0
  -10.2604    2.8894   19.9478 N   0  0  0  0  0  0  0  0  0  0  0  0
   -9.6833    1.6764   19.7815 C   0  0  2  0  0  0  0  0  0  0  0  0
  -10.3914    0.6511   19.0035 C   0  0  2  0  0  0  0  0  0  0  0  0
  -11.7080    1.0237   18.4433 C   0  0  0  0  0  0  0  0  0  0  0  0
  -12.4364    0.1428   17.7138 O   0  0  0  0  0  0  0  0  0  0  0  0
   -9.6073   -0.4451   19.0072 N   0  0  0  0  0  0  0  0  0  0  0  0
   -8.4855   -0.1431   19.7264 C   0  0  0  0  0  0  0  0  0  0  0  0
   -8.5379    1.1266   20.1892 N   0  0  1  0  0  0  0  0  0  0  0  0
  1  3  1  6  0  0  0
  1  4  2  0  0  0  0
  1  6  1  0  0  0  0
  1 22  1  0  0  0  0
  2 28  1  0  0  0  0
  2 35  1  6  0  0  0
  2 38  2  0  0  0  0
  2 10  1  0  0  0  0
  5  6  1  0  0  0  0
  7  5  1  1  0  0  0
  7  8  1  0  0  0  0
  7  9  1  0  0  0  0
  9 10  1  6  0  0  0
  9 11  1  0  0  0  0
 11 12  1  6  0  0  0
 11 13  1  0  0  0  0
 13  8  1  1  0  0  0
 13 33  1  0  0  0  0
 14 46  1  0  0  0  0
 14 17  1  0  0  0  0
 14 25  1  6  0  0  0
 15 16  1  0  0  0  0
 15 29  1  0  0  0  0
 16 18  1  1  0  0  0
 16 21  1  0  0  0  0
 17 19  1  1  0  0  0
 17 20  1  0  0  0  0
 20 22  1  1  0  0  0
 20 24  1  0  0  0  0
 23 21  1  1  0  0  0
 23 26  1  0  0  0  0
 23 33  1  0  0  0  0
 24 25  1  6  0  0  0
 24 27  1  0  0  0  0
 26 29  1  6  0  0  0
 26 31  1  0  0  0  0
 27 28  1  0  0  0  0
 29 30  2  0  0  0  0
 31 32  1  0  0  0  0
 33 32  1  6  0  0  0
 34 36  1  0  0  0  0
 34 42  1  0  0  0  0
 36 37  1  6  0  0  0
 36 39  1  0  0  0  0
 40 39  1  1  0  0  0
 40 41  1  0  0  0  0
 40 46  1  0  0  0  0
 41 42  1  1  0  0  0
 41 44  1  0  0  0  0
 42 43  2  0  0  0  0
 44 45  1  0  0  0  0
 46 45  1  6  0  0  0
M  CHG  2   3  -1  35  -1
M  END
>  <CHROM.1>
-175.48136398,-131.59134441,-6.92310357,2.50959684,17.18022327,-1.00786336
0.16720811,1.19609723

>  <Name>
ligand

>  <RI>
416

>  <Rbt.Current_Directory>
/home/itssahil/PROJECTS/Mol_Feturizer/Test_systems_manuscript/rnas/3mum

>  <Rbt.Executable>
rbdock ($Id: //depot/dev/client3/rdock/2013.1/src/exe/rbdock.cxx#4 $)

>  <Rbt.Library>
libRbt.so (2013.1, Build901 2013/11/27)

>  <Rbt.Parameter_File>
/export/apps/rDock/src/rDock_2013.1_src/data/scripts/dock_solv.prm

>  <Rbt.Receptor>
prm/pocket_docking_3.prm

>  <SCORE>
-25.6757

>  <SCORE.INTER>
-25.4597

>  <SCORE.INTER.CONST>
1

>  <SCORE.INTER.POLAR>
0

>  <SCORE.INTER.ROT>
2

>  <SCORE.INTER.SOLV>
30.9962

>  <SCORE.INTER.VDW>
-32.2385

>  <SCORE.INTER.norm>
-0.553472

>  <SCORE.INTRA>
-0.215976

>  <SCORE.INTRA.DIHEDRAL>
0.0128382

>  <SCORE.INTRA.DIHEDRAL.0>
2.40424

>  <SCORE.INTRA.POLAR>
0

>  <SCORE.INTRA.POLAR.0>
0

>  <SCORE.INTRA.REPUL>
0

>  <SCORE.INTRA.REPUL.0>
0

>  <SCORE.INTRA.SOLV>
1.29494

>  <SCORE.INTRA.SOLV.lig_0>
-134.169

>  <SCORE.INTRA.VDW>
-0.869867

>  <SCORE.INTRA.VDW.0>
-2.18386

>  <SCORE.INTRA.norm>
-0.00469513

>  <SCORE.RESTR>
0

>  <SCORE.RESTR.CAVITY>
0

>  <SCORE.RESTR.norm>
0

>  <SCORE.SYSTEM>
0

>  <SCORE.SYSTEM.CONST>
0

>  <SCORE.SYSTEM.DIHEDRAL>
0

>  <SCORE.SYSTEM.SOLV>
0

>  <SCORE.SYSTEM.norm>
0

>  <SCORE.heavy>
46

>  <SCORE.norm>
-0.558167

>  <RMSD>
2.599

$$$$
ligand
 OpenBabel02271912143D
libRbt.so/2013.1/901 2013/11/27
 46 52  0  0  0  0  0  0  0  0999 V2000
   -3.3610    2.7891   19.0472 P   0  0  1  0  0  0  0  0  0  0  0  0
   -8.4059    5.2288   17.2382 P   0  0  2  0  0  0  0  0  0  0  0  0
   -3.4633    1.0224   18.9463 O   0  5  0  0  0  0  0  0  0  0  0  0
   -1.7409    3.3255   19.5636 O   0  0  0  0  0  0  0  0  0  0  0  0
   -3.8196    4.8127   17.3986 C   0  0  0  0  0  0  0  0  0  0  0  0
   -3.7172    3.4029   17.5996 O   0  0  0  0  0  0  0  0  0  0  0  0
   -4.6160    5.0641   16.1323 C   0  0  1  0  0  0  0  0  0  0  0  0
   -4.0337    4.3275   15.0477 O   0  0  0  0  0  0  0  0  0  0  0  0
   -6.0557    4.5852   16.2236 C   0  0  1  0  0  0  0  0  0  0  0  0
   -6.9323    5.6054   16.6966 O   0  0  0  0  0  0  0  0  0  0  0  0
   -6.3749    4.1784   14.7958 C   0  0  1  0  0  0  0  0  0  0  0  0
   -6.8776    5.3010   14.0668 O   0  0  0  0  0  0  0  0  0  0  0  0
   -5.0439    3.7669   14.1946 C   0  0  2  0  0  0  0  0  0  0  0  0
   -7.5520    1.8917   21.0738 C   0  0  1  0  0  0  0  0  0  0  0  0
   -6.7524   -0.8808   12.2780 N   0  0  0  0  0  0  0  0  0  0  0  0
   -7.2011    0.3753   12.0074 C   0  0  1  0  0  0  0  0  0  0  0  0
   -6.1802    1.7139   20.4874 C   0  0  2  0  0  0  0  0  0  0  0  0
   -8.2259    0.5143   11.1350 N   0  0  0  0  0  0  0  0  0  0  0  0
   -5.3089    1.4166   21.5800 O   0  0  0  0  0  0  0  0  0  0  0  0
   -5.8573    3.0500   19.8485 C   0  0  2  0  0  0  0  0  0  0  0  0
   -6.6628    1.4925   12.5808 N   0  0  0  0  0  0  0  0  0  0  0  0
   -4.4900    3.3975   20.0189 O   0  0  0  0  0  0  0  0  0  0  0  0
   -5.6327    1.4067   13.4601 C   0  0  2  0  0  0  0  0  0  0  0  0
   -6.7411    4.0493   20.5687 C   0  0  2  0  0  0  0  0  0  0  0  0
   -7.8162    3.2931   21.1234 O   0  0  0  0  0  0  0  0  0  0  0  0
   -5.1109    0.0692   13.7905 C   0  0  1  0  0  0  0  0  0  0  0  0
   -7.2998    5.1222   19.6407 C   0  0  0  0  0  0  0  0  0  0  0  0
   -8.1135    4.5004   18.6441 O   0  0  0  0  0  0  0  0  0  0  0  0
   -5.7325   -1.0978   13.1395 C   0  0  0  0  0  0  0  0  0  0  0  0
   -5.2938   -2.3541   13.4064 O   0  0  0  0  0  0  0  0  0  0  0  0
   -4.1184    0.2454   14.6696 N   0  0  0  0  0  0  0  0  0  0  0  0
   -4.0065    1.5876   14.8926 C   0  0  0  0  0  0  0  0  0  0  0  0
   -4.9098    2.2861   14.1730 N   0  0  1  0  0  0  0  0  0  0  0  0
  -12.2141    2.2444   18.7267 N   0  0  0  0  0  0  0  0  0  0  0  0
   -9.2478    4.1210   16.1224 O   0  5  0  0  0  0  0  0  0  0  0  0
  -11.5467    3.1606   19.4806 C   0  0  2  0  0  0  0  0  0  0  0  0
  -12.1094    4.3782   19.6969 N   0  0  0  0  0  0  0  0  0  0  0  0
   -9.4265    6.6473   17.5450 O   0  0  0  0  0  0  0  0  0  0  0  0
  -10.3284    2.8959   20.0265 N   0  0  0  0  0  0  0  0  0  0  0  0
   -9.7142    1.7041   19.8408 C   0  0  2  0  0  0  0  0  0  0  0  0
  -10.3864    0.6735   19.0385 C   0  0  2  0  0  0  0  0  0  0  0  0
  -11.7101    1.0173   18.4767 C   0  0  0  0  0  0  0  0  0  0  0  0
  -12.4073    0.1295   17.7256 O   0  0  0  0  0  0  0  0  0  0  0  0
   -9.5699   -0.3987   19.0264 N   0  0  0  0  0  0  0  0  0  0  0  0
   -8.4621   -0.0774   19.7588 C   0  0  0  0  0  0  0  0  0  0  0  0
   -8.5554    1.1809   20.2456 N   0  0  1  0  0  0  0  0  0  0  0  0
  1  3  1  6  0  0  0
  1  4  2  0  0  0  0
  1  6  1  0  0  0  0
  1 22  1  0  0  0  0
  2 28  1  0  0  0  0
  2 35  1  6  0  0  0
  2 38  2  0  0  0  0
  2 10  1  0  0  0  0
  5  6  1  0  0  0  0
  7  5  1  1  0  0  0
  7  8  1  0  0  0  0
  7  9  1  0  0  0  0
  9 10  1  6  0  0  0
  9 11  1  0  0  0  0
 11 12  1  6  0  0  0
 11 13  1  0  0  0  0
 13  8  1  1  0  0  0
 13 33  1  0  0  0  0
 14 46  1  0  0  0  0
 14 17  1  0  0  0  0
 14 25  1  6  0  0  0
 15 16  1  0  0  0  0
 15 29  1  0  0  0  0
 16 18  1  1  0  0  0
 16 21  1  0  0  0  0
 17 19  1  1  0  0  0
 17 20  1  0  0  0  0
 20 22  1  1  0  0  0
 20 24  1  0  0  0  0
 23 21  1  1  0  0  0
 23 26  1  0  0  0  0
 23 33  1  0  0  0  0
 24 25  1  6  0  0  0
 24 27  1  0  0  0  0
 26 29  1  6  0  0  0
 26 31  1  0  0  0  0
 27 28  1  0  0  0  0
 29 30  2  0  0  0  0
 31 32  1  0  0  0  0
 33 32  1  6  0  0  0
 34 36  1  0  0  0  0
 34 42  1  0  0  0  0
 36 37  1  6  0  0  0
 36 39  1  0  0  0  0
 40 39  1  1  0  0  0
 40 41  1  0  0  0  0
 40 46  1  0  0  0  0
 41 42  1  1  0  0  0
 41 44  1  0  0  0  0
 42 43  2  0  0  0  0
 44 45  1  0  0  0  0
 46 45  1  6  0  0  0
M  CHG  2   3  -1  35  -1
M  END
>  <CHROM.1>
-177.43947742,-132.89401682,-6.92356075,2.60012307,17.28376805,-0.96832908
0.18435046,1.19238291

>  <Name>
ligand

>  <RI>
-1

>  <Rbt.Current_Directory>
/home/itssahil/PROJECTS/Mol_Feturizer/Test_systems_manuscript/rnas/3mum

>  <Rbt.Executable>
rbdock ($Id: //depot/dev/client3/rdock/2013.1/src/exe/rbdock.cxx#4 $)

>  <Rbt.Library>
libRbt.so (2013.1, Build901 2013/11/27)

>  <Rbt.Parameter_File>
/export/apps/rDock/src/rDock_2013.1_src/data/scripts/dock_solv.prm

>  <Rbt.Receptor>
prm/pocket_docking_6.prm

>  <SCORE>
-25.9403

>  <SCORE.INTER>
-25.6437

>  <SCORE.INTER.CONST>
1

>  <SCORE.INTER.POLAR>
0

>  <SCORE.INTER.ROT>
2

>  <SCORE.INTER.SOLV>
31.0381

>  <SCORE.INTER.VDW>
-32.3752

>  <SCORE.INTER.norm>
-0.557471

>  <SCORE.INTRA>
-0.296596

>  <SCORE.INTRA.DIHEDRAL>
0.0139546

>  <SCORE.INTRA.DIHEDRAL.0>
2.40424

>  <SCORE.INTRA.POLAR>
0

>  <SCORE.INTRA.POLAR.0>
0

>  <SCORE.INTRA.REPUL>
0

>  <SCORE.INTRA.REPUL.0>
0

>  <SCORE.INTRA.SOLV>
0.914934

>  <SCORE.INTRA.SOLV.lig_0>
-134.169

>  <SCORE.INTRA.VDW>
-0.76104

>  <SCORE.INTRA.VDW.0>
-2.18386

>  <SCORE.INTRA.norm>
-0.00644773

>  <SCORE.RESTR>
0

>  <SCORE.RESTR.CAVITY>
0

>  <SCORE.RESTR.norm>
0

>  <SCORE.SYSTEM>
0

>  <SCORE.SYSTEM.CONST>
0

>  <SCORE.SYSTEM.DIHEDRAL>
0

>  <SCORE.SYSTEM.SOLV>
0

>  <SCORE.SYSTEM.norm>
0

>  <SCORE.heavy>
46

>  <SCORE.norm>
-0.563919

>  <RMSD>
2.634

$$$$
ligand
 OpenBabel02271912143D
libRbt.so/2013.1/901 2013/11/27
 46 52  0  0  0  0  0  0  0  0999 V2000
   -3.3508    2.8120   19.0257 P   0  0  1  0  0  0  0  0  0  0  0  0
   -8.4165    5.2245   17.2383 P   0  0  2  0  0  0  0  0  0  0  0  0
   -3.4466    1.0446   18.9319 O   0  5  0  0  0  0  0  0  0  0  0  0
   -1.7298    3.3569   19.5302 O   0  0  0  0  0  0  0  0  0  0  0  0
   -3.8277    4.8276   17.3723 C   0  0  0  0  0  0  0  0  0  0  0  0
   -3.7183    3.4190   17.5780 O   0  0  0  0  0  0  0  0  0  0  0  0
   -4.6327    5.0710   16.1100 C   0  0  1  0  0  0  0  0  0  0  0  0
   -4.0541    4.3326   15.0246 O   0  0  0  0  0  0  0  0  0  0  0  0
   -6.0699    4.5866   16.2118 C   0  0  1  0  0  0  0  0  0  0  0  0
   -6.9477    5.6051   16.6864 O   0  0  0  0  0  0  0  0  0  0  0  0
   -6.3962    4.1732   14.7875 C   0  0  1  0  0  0  0  0  0  0  0  0
   -6.9078    5.2910   14.0574 O   0  0  0  0  0  0  0  0  0  0  0  0
   -5.0672    3.7647   14.1797 C   0  0  2  0  0  0  0  0  0  0  0  0
   -7.5257    1.9054   21.0812 C   0  0  1  0  0  0  0  0  0  0  0  0
   -6.7479   -0.8947   12.2674 N   0  0  0  0  0  0  0  0  0  0  0  0
   -7.2001    0.3589   11.9910 C   0  0  1  0  0  0  0  0  0  0  0  0
   -6.1568    1.7309   20.4871 C   0  0  2  0  0  0  0  0  0  0  0  0
   -8.2211    0.4915   11.1131 N   0  0  0  0  0  0  0  0  0  0  0  0
   -5.2777    1.4413   21.5753 O   0  0  0  0  0  0  0  0  0  0  0  0
   -5.8432    3.0659   19.8412 C   0  0  2  0  0  0  0  0  0  0  0  0
   -6.6690    1.4797   12.5640 N   0  0  0  0  0  0  0  0  0  0  0  0
   -4.4763    3.4196   20.0019 O   0  0  0  0  0  0  0  0  0  0  0  0
   -5.6431    1.4003   13.4488 C   0  0  2  0  0  0  0  0  0  0  0  0
   -6.7267    4.0644   20.5631 C   0  0  2  0  0  0  0  0  0  0  0  0
   -7.7953    3.3059   21.1271 O   0  0  0  0  0  0  0  0  0  0  0  0
   -5.1177    0.0657   13.7855 C   0  0  1  0  0  0  0  0  0  0  0  0
   -7.2954    5.1315   19.6344 C   0  0  0  0  0  0  0  0  0  0  0  0
   -8.1126    4.5026   18.6451 O   0  0  0  0  0  0  0  0  0  0  0  0
   -5.7315   -1.1055   13.1346 C   0  0  0  0  0  0  0  0  0  0  0  0
   -5.2892   -2.3593   13.4071 O   0  0  0  0  0  0  0  0  0  0  0  0
   -4.1303    0.2482   14.6691 N   0  0  0  0  0  0  0  0  0  0  0  0
   -4.0248    1.5914   14.8889 C   0  0  0  0  0  0  0  0  0  0  0  0
   -4.9272    2.2844   14.1629 N   0  0  1  0  0  0  0  0  0  0  0  0
  -12.1812    2.2472   18.7194 N   0  0  0  0  0  0  0  0  0  0  0  0
   -9.2606    4.1092   16.1318 O   0  5  0  0  0  0  0  0  0  0  0  0
  -11.5104    3.1711   19.4606 C   0  0  2  0  0  0  0  0  0  0  0  0
  -12.0670    4.3948   19.6573 N   0  0  0  0  0  0  0  0  0  0  0  0
   -9.4410    6.6401   17.5461 O   0  0  0  0  0  0  0  0  0  0  0  0
  -10.2947    2.9083   20.0130 N   0  0  0  0  0  0  0  0  0  0  0  0
   -9.6864    1.7106   19.8467 C   0  0  2  0  0  0  0  0  0  0  0  0
  -10.3625    0.6715   19.0587 C   0  0  2  0  0  0  0  0  0  0  0  0
  -11.6833    1.0138   18.4890 C   0  0  0  0  0  0  0  0  0  0  0  0
  -12.3837    0.1183   17.7500 O   0  0  0  0  0  0  0  0  0  0  0  0
   -9.5517   -0.4051   19.0645 N   0  0  0  0  0  0  0  0  0  0  0  0
   -8.4437   -0.0785   19.7943 C   0  0  0  0  0  0  0  0  0  0  0  0
   -8.5312    1.1874   20.2617 N   0  0  1  0  0  0  0  0  0  0  0  0
  1  3  1  6  0  0  0
  1  4  2  0  0  0  0
  1  6  1  0  0  0  0
  1 22  1  0  0  0  0
  2 28  1  0  0  0  0
  2 35  1  6  0  0  0
  2 38  2  0  0  0  0
  2 10  1  0  0  0  0
  5  6  1  0  0  0  0
  7  5  1  1  0  0  0
  7  8  1  0  0  0  0
  7  9  1  0  0  0  0
  9 10  1  6  0  0  0
  9 11  1  0  0  0  0
 11 12  1  6  0  0  0
 11 13  1  0  0  0  0
 13  8  1  1  0  0  0
 13 33  1  0  0  0  0
 14 46  1  0  0  0  0
 14 17  1  0  0  0  0
 14 25  1  6  0  0  0
 15 16  1  0  0  0  0
 15 29  1  0  0  0  0
 16 18  1  1  0  0  0
 16 21  1  0  0  0  0
 17 19  1  1  0  0  0
 17 20  1  0  0  0  0
 20 22  1  1  0  0  0
 20 24  1  0  0  0  0
 23 21  1  1  0  0  0
 23 26  1  0  0  0  0
 23 33  1  0  0  0  0
 24 25  1  6  0  0  0
 24 27  1  0  0  0  0
 26 29  1  6  0  0  0
 26 31  1  0  0  0  0
 27 28  1  0  0  0  0
 29 30  2  0  0  0  0
 31 32  1  0  0  0  0
 33 32  1  6  0  0  0
 34 36  1  0  0  0  0
 34 42  1  0  0  0  0
 36 37  1  6  0  0  0
 36 39  1  0  0  0  0
 40 39  1  1  0  0  0
 40 41  1  0  0  0  0
 40 46  1  0  0  0  0
 41 42  1  1  0  0  0
 41 44  1  0  0  0  0
 42 43  2  0  0  0  0
 44 45  1  0  0  0  0
 46 45  1  6  0  0  0
M  CHG  2   3  -1  35  -1
M  END
>  <CHROM.1>
-176.79962300,-131.92873605,-6.91858685,2.60412146,17.27755395,-0.98135591
0.18587261,1.19073382

>  <Name>
ligand

>  <RI>
-1

>  <Rbt.Current_Directory>
/home/itssahil/PROJECTS/Mol_Feturizer/Test_systems_manuscript/rnas/3mum

>  <Rbt.Executable>
rbdock ($Id: //depot/dev/client3/rdock/2013.1/src/exe/rbdock.cxx#4 $)

>  <Rbt.Library>
libRbt.so (2013.1, Build901 2013/11/27)

>  <Rbt.Parameter_File>
/export/apps/rDock/src/rDock_2013.1_src/data/scripts/dock_solv.prm

>  <Rbt.Receptor>
prm/pocket_docking_4.prm

>  <SCORE>
-25.9487

>  <SCORE.INTER>
-25.7053

>  <SCORE.INTER.CONST>
1

>  <SCORE.INTER.POLAR>
0

>  <SCORE.INTER.ROT>
2

>  <SCORE.INTER.SOLV>
30.7026

>  <SCORE.INTER.VDW>
-32.3044

>  <SCORE.INTER.norm>
-0.558812

>  <SCORE.INTRA>
-0.243377

>  <SCORE.INTRA.DIHEDRAL>
0.0129847

>  <SCORE.INTRA.DIHEDRAL.0>
2.40424

>  <SCORE.INTRA.POLAR>
0

>  <SCORE.INTRA.POLAR.0>
0

>  <SCORE.INTRA.REPUL>
0

>  <SCORE.INTRA.REPUL.0>
0

>  <SCORE.INTRA.SOLV>
1.1867

>  <SCORE.INTRA.SOLV.lig_0>
-134.169

>  <SCORE.INTRA.VDW>
-0.843221

>  <SCORE.INTRA.VDW.0>
-2.18386

>  <SCORE.INTRA.norm>
-0.00529081

>  <SCORE.RESTR>
0

>  <SCORE.RESTR.CAVITY>
0

>  <SCORE.RESTR.norm>
0

>  <SCORE.SYSTEM>
0

>  <SCORE.SYSTEM.CONST>
0

>  <SCORE.SYSTEM.DIHEDRAL>
0

>  <SCORE.SYSTEM.SOLV>
0

>  <SCORE.SYSTEM.norm>
0

>  <SCORE.heavy>
46

>  <SCORE.norm>
-0.564102

>  <RMSD>
2.635

$$$$
ligand
 OpenBabel02271912143D
libRbt.so/2013.1/901 2013/11/27
 46 52  0  0  0  0  0  0  0  0999 V2000
   -3.3696    2.7881   19.0542 P   0  0  1  0  0  0  0  0  0  0  0  0
   -8.4059    5.2429   17.2417 P   0  0  2  0  0  0  0  0  0  0  0  0
   -3.4736    1.0221   18.9440 O   0  5  0  0  0  0  0  0  0  0  0  0
   -1.7504    3.3200   19.5784 O   0  0  0  0  0  0  0  0  0  0  0  0
   -3.8206    4.8206   17.4144 C   0  0  0  0  0  0  0  0  0  0  0  0
   -3.7205    3.4097   17.6086 O   0  0  0  0  0  0  0  0  0  0  0  0
   -4.6127    5.0793   16.1470 C   0  0  1  0  0  0  0  0  0  0  0  0
   -4.0279    4.3476   15.0605 O   0  0  0  0  0  0  0  0  0  0  0  0
   -6.0532    4.6017   16.2313 C   0  0  1  0  0  0  0  0  0  0  0  0
   -6.9301    5.6205   16.7068 O   0  0  0  0  0  0  0  0  0  0  0  0
   -6.3685    4.2025   14.8004 C   0  0  1  0  0  0  0  0  0  0  0  0
   -6.8676    5.3294   14.0756 O   0  0  0  0  0  0  0  0  0  0  0  0
   -5.0360    3.7925   14.2013 C   0  0  2  0  0  0  0  0  0  0  0  0
   -7.5679    1.8854   21.0631 C   0  0  1  0  0  0  0  0  0  0  0  0
   -6.7437   -0.8433   12.2556 N   0  0  0  0  0  0  0  0  0  0  0  0
   -7.1901    0.4147   11.9899 C   0  0  1  0  0  0  0  0  0  0  0  0
   -6.1945    1.7090   20.4801 C   0  0  2  0  0  0  0  0  0  0  0  0
   -8.2118    0.5593   11.1148 N   0  0  0  0  0  0  0  0  0  0  0  0
   -5.3270    1.4051   21.5738 O   0  0  0  0  0  0  0  0  0  0  0  0
   -5.8681    3.0479   19.8490 C   0  0  2  0  0  0  0  0  0  0  0  0
   -6.6523    1.5283   12.5707 N   0  0  0  0  0  0  0  0  0  0  0  0
   -4.5009    3.3930   20.0254 O   0  0  0  0  0  0  0  0  0  0  0  0
   -5.6252    1.4368   13.4529 C   0  0  2  0  0  0  0  0  0  0  0  0
   -6.7530    4.0446   20.5715 C   0  0  2  0  0  0  0  0  0  0  0  0
   -7.8306    3.2868   21.1189 O   0  0  0  0  0  0  0  0  0  0  0  0
   -5.1060    0.0970   13.7782 C   0  0  1  0  0  0  0  0  0  0  0  0
   -7.3075    5.1229   19.6472 C   0  0  0  0  0  0  0  0  0  0  0  0
   -8.1188    4.5070   18.6449 O   0  0  0  0  0  0  0  0  0  0  0  0
   -5.7269   -1.0660   13.1193 C   0  0  0  0  0  0  0  0  0  0  0  0
   -5.2905   -2.3242   13.3812 O   0  0  0  0  0  0  0  0  0  0  0  0
   -4.1162    0.2676   14.6615 N   0  0  0  0  0  0  0  0  0  0  0  0
   -4.0035    1.6084   14.8916 C   0  0  0  0  0  0  0  0  0  0  0  0
   -4.9036    2.3116   14.1727 N   0  0  1  0  0  0  0  0  0  0  0  0
  -12.2217    2.2559   18.7024 N   0  0  0  0  0  0  0  0  0  0  0  0
   -9.2455    4.1418   16.1177 O   0  5  0  0  0  0  0  0  0  0  0  0
  -11.5556    3.1675   19.4628 C   0  0  2  0  0  0  0  0  0  0  0  0
  -12.1174    4.3848   19.6832 N   0  0  0  0  0  0  0  0  0  0  0  0
   -9.4258    6.6611   17.5526 O   0  0  0  0  0  0  0  0  0  0  0  0
  -10.3395    2.8985   20.0115 N   0  0  0  0  0  0  0  0  0  0  0  0
   -9.7263    1.7067   19.8220 C   0  0  2  0  0  0  0  0  0  0  0  0
  -10.3972    0.6809   19.0126 C   0  0  2  0  0  0  0  0  0  0  0  0
  -11.7186    1.0293   18.4481 C   0  0  0  0  0  0  0  0  0  0  0  0
  -12.4145    0.1461   17.6903 O   0  0  0  0  0  0  0  0  0  0  0  0
   -9.5822   -0.3923   18.9979 N   0  0  0  0  0  0  0  0  0  0  0  0
   -8.4763   -0.0760   19.7356 C   0  0  0  0  0  0  0  0  0  0  0  0
   -8.5695    1.1800   20.2281 N   0  0  1  0  0  0  0  0  0  0  0  0
  1  3  1  6  0  0  0
  1  4  2  0  0  0  0
  1  6  1  0  0  0  0
  1 22  1  0  0  0  0
  2 28  1  0  0  0  0
  2 35  1  6  0  0  0
  2 38  2  0  0  0  0
  2 10  1  0  0  0  0
  5  6  1  0  0  0  0
  7  5  1  1  0  0  0
  7  8  1  0  0  0  0
  7  9  1  0  0  0  0
  9 10  1  6  0  0  0
  9 11  1  0  0  0  0
 11 12  1  6  0  0  0
 11 13  1  0  0  0  0
 13  8  1  1  0  0  0
 13 33  1  0  0  0  0
 14 46  1  0  0  0  0
 14 17  1  0  0  0  0
 14 25  1  6  0  0  0
 15 16  1  0  0  0  0
 15 29  1  0  0  0  0
 16 18  1  1  0  0  0
 16 21  1  0  0  0  0
 17 19  1  1  0  0  0
 17 20  1  0  0  0  0
 20 22  1  1  0  0  0
 20 24  1  0  0  0  0
 23 21  1  1  0  0  0
 23 26  1  0  0  0  0
 23 33  1  0  0  0  0
 24 25  1  6  0  0  0
 24 27  1  0  0  0  0
 26 29  1  6  0  0  0
 26 31  1  0  0  0  0
 27 28  1  0  0  0  0
 29 30  2  0  0  0  0
 31 32  1  0  0  0  0
 33 32  1  6  0  0  0
 34 36  1  0  0  0  0
 34 42  1  0  0  0  0
 36 37  1  6  0  0  0
 36 39  1  0  0  0  0
 40 39  1  1  0  0  0
 40 41  1  0  0  0  0
 40 46  1  0  0  0  0
 41 42  1  1  0  0  0
 41 44  1  0  0  0  0
 42 43  2  0  0  0  0
 44 45  1  0  0  0  0
 46 45  1  6  0  0  0
M  CHG  2   3  -1  35  -1
M  END
>  <CHROM.1>
-177.43194323,-132.87451008,-6.92668849,2.61233840,17.27853283,-0.96595018
0.18201850,1.19701491

>  <Name>
ligand

>  <RI>
-1

>  <Rbt.Current_Directory>
/home/itssahil/PROJECTS/Mol_Feturizer/Test_systems_manuscript/rnas/3mum

>  <Rbt.Executable>
rbdock ($Id: //depot/dev/client3/rdock/2013.1/src/exe/rbdock.cxx#4 $)

>  <Rbt.Library>
libRbt.so (2013.1, Build901 2013/11/27)

>  <Rbt.Parameter_File>
/export/apps/rDock/src/rDock_2013.1_src/data/scripts/dock_solv.prm

>  <Rbt.Receptor>
prm/pocket_docking_4.prm

>  <SCORE>
-25.9442

>  <SCORE.INTER>
-25.6493

>  <SCORE.INTER.CONST>
1

>  <SCORE.INTER.POLAR>
0

>  <SCORE.INTER.ROT>
2

>  <SCORE.INTER.SOLV>
31.2432

>  <SCORE.INTER.VDW>
-32.4473

>  <SCORE.INTER.norm>
-0.557593

>  <SCORE.INTRA>
-0.294877

>  <SCORE.INTRA.DIHEDRAL>
0.0139344

>  <SCORE.INTRA.DIHEDRAL.0>
2.40424

>  <SCORE.INTRA.POLAR>
0

>  <SCORE.INTRA.POLAR.0>
0

>  <SCORE.INTRA.REPUL>
0

>  <SCORE.INTRA.REPUL.0>
0

>  <SCORE.INTRA.SOLV>
0.920444

>  <SCORE.INTRA.SOLV.lig_0>
-134.169

>  <SCORE.INTRA.VDW>
-0.762066

>  <SCORE.INTRA.VDW.0>
-2.18386

>  <SCORE.INTRA.norm>
-0.00641037

>  <SCORE.RESTR>
0

>  <SCORE.RESTR.CAVITY>
0

>  <SCORE.RESTR.norm>
0

>  <SCORE.SYSTEM>
0

>  <SCORE.SYSTEM.CONST>
0

>  <SCORE.SYSTEM.DIHEDRAL>
0

>  <SCORE.SYSTEM.SOLV>
0

>  <SCORE.SYSTEM.norm>
0

>  <SCORE.heavy>
46

>  <SCORE.norm>
-0.564003

>  <RMSD>
2.637

$$$$
ligand
 OpenBabel02271912143D
libRbt.so/2013.1/901 2013/11/27
 46 52  0  0  0  0  0  0  0  0999 V2000
   -7.9705    5.6484   17.2269 P   0  0  1  0  0  0  0  0  0  0  0  0
   -3.1514    2.8036   19.0597 P   0  0  2  0  0  0  0  0  0  0  0  0
   -8.9688    4.5808   16.2242 O   0  5  0  0  0  0  0  0  0  0  0  0
   -8.7505    7.2317   17.4800 O   0  0  0  0  0  0  0  0  0  0  0  0
   -6.8475    5.4972   19.6226 C   0  0  0  0  0  0  0  0  0  0  0  0
   -7.7110    4.9213   18.6422 O   0  0  0  0  0  0  0  0  0  0  0  0
   -6.4212    4.4097   20.5903 C   0  0  1  0  0  0  0  0  0  0  0  0
   -7.5841    3.7468   21.1063 O   0  0  0  0  0  0  0  0  0  0  0  0
   -5.5864    3.3195   19.9384 C   0  0  1  0  0  0  0  0  0  0  0  0
   -4.1900    3.5997   20.0055 O   0  0  0  0  0  0  0  0  0  0  0  0
   -5.9564    2.0799   20.7337 C   0  0  1  0  0  0  0  0  0  0  0  0
   -5.0962    1.9504   21.8684 O   0  0  0  0  0  0  0  0  0  0  0  0
   -7.3703    2.3315   21.2236 C   0  0  2  0  0  0  0  0  0  0  0  0
   -4.7873    3.7586   14.2650 C   0  0  1  0  0  0  0  0  0  0  0  0
  -12.2204    2.2179   19.0659 N   0  0  0  0  0  0  0  0  0  0  0  0
  -11.6575    3.1688   19.8605 C   0  0  1  0  0  0  0  0  0  0  0  0
   -6.0894    4.1691   14.8921 C   0  0  2  0  0  0  0  0  0  0  0  0
  -12.3960    4.2578   20.1761 N   0  0  0  0  0  0  0  0  0  0  0  0
   -6.6452    5.1777   14.0465 O   0  0  0  0  0  0  0  0  0  0  0  0
   -5.7072    4.7143   16.2538 C   0  0  2  0  0  0  0  0  0  0  0  0
  -10.3864    3.0654   20.3507 N   0  0  0  0  0  0  0  0  0  0  0  0
   -6.4971    5.8408   16.6097 O   0  0  0  0  0  0  0  0  0  0  0  0
   -9.6048    1.9943   20.0618 C   0  0  2  0  0  0  0  0  0  0  0  0
   -4.2535    5.1217   16.1157 C   0  0  2  0  0  0  0  0  0  0  0  0
   -3.7405    4.3753   15.0134 O   0  0  0  0  0  0  0  0  0  0  0  0
  -10.1672    0.9339   19.2076 C   0  0  1  0  0  0  0  0  0  0  0  0
   -3.4320    4.8161   17.3632 C   0  0  0  0  0  0  0  0  0  0  0  0
   -3.4413    3.4060   17.5949 O   0  0  0  0  0  0  0  0  0  0  0  0
  -11.5438    1.1025   18.7090 C   0  0  0  0  0  0  0  0  0  0  0  0
  -12.1142    0.1575   17.9192 O   0  0  0  0  0  0  0  0  0  0  0  0
   -9.2207   -0.0018   19.0755 N   0  0  0  0  0  0  0  0  0  0  0  0
   -8.1334    0.4166   19.7871 C   0  0  0  0  0  0  0  0  0  0  0  0
   -8.3580    1.6084   20.3793 N   0  0  1  0  0  0  0  0  0  0  0  0
   -6.6721   -0.7274   12.3436 N   0  0  0  0  0  0  0  0  0  0  0  0
   -3.4592    1.0470   19.0864 O   0  5  0  0  0  0  0  0  0  0  0  0
   -7.0680    0.5542   12.1117 C   0  0  2  0  0  0  0  0  0  0  0  0
   -8.0997    0.7858   11.2585 N   0  0  0  0  0  0  0  0  0  0  0  0
   -1.4519    3.1124   19.4650 O   0  0  0  0  0  0  0  0  0  0  0  0
   -6.4610    1.6161   12.7086 N   0  0  0  0  0  0  0  0  0  0  0  0
   -5.4240    1.4495   13.5626 C   0  0  2  0  0  0  0  0  0  0  0  0
   -4.9532    0.0892   13.8550 C   0  0  2  0  0  0  0  0  0  0  0  0
   -5.6558   -1.0237   13.1811 C   0  0  0  0  0  0  0  0  0  0  0  0
   -5.2937   -2.3134   13.3911 O   0  0  0  0  0  0  0  0  0  0  0  0
   -3.9355    0.2134   14.7297 N   0  0  0  0  0  0  0  0  0  0  0  0
   -3.7664    1.5472   14.9735 C   0  0  0  0  0  0  0  0  0  0  0  0
   -4.6614    2.2814   14.2744 N   0  0  1  0  0  0  0  0  0  0  0  0
  1  3  1  6  0  0  0
  1  4  2  0  0  0  0
  1  6  1  0  0  0  0
  1 22  1  0  0  0  0
  2 28  1  0  0  0  0
  2 35  1  1  0  0  0
  2 38  2  0  0  0  0
  2 10  1  0  0  0  0
  5  6  1  0  0  0  0
  7  5  1  6  0  0  0
  7  8  1  0  0  0  0
  7  9  1  0  0  0  0
  9 10  1  1  0  0  0
  9 11  1  0  0  0  0
 11 12  1  1  0  0  0
 11 13  1  0  0  0  0
 13  8  1  6  0  0  0
 13 33  1  0  0  0  0
 14 46  1  0  0  0  0
 14 17  1  0  0  0  0
 14 25  1  1  0  0  0
 15 16  1  0  0  0  0
 15 29  1  0  0  0  0
 16 18  1  1  0  0  0
 16 21  1  0  0  0  0
 17 19  1  6  0  0  0
 17 20  1  0  0  0  0
 20 22  1  6  0  0  0
 20 24  1  0  0  0  0
 23 21  1  1  0  0  0
 23 26  1  0  0  0  0
 23 33  1  0  0  0  0
 24 25  1  6  0  0  0
 24 27  1  0  0  0  0
 26 29  1  6  0  0  0
 26 31  1  0  0  0  0
 27 28  1  0  0  0  0
 29 30  2  0  0  0  0
 31 32  1  0  0  0  0
 33 32  1  6  0  0  0
 34 36  1  0  0  0  0
 34 42  1  0  0  0  0
 36 37  1  6  0  0  0
 36 39  1  0  0  0  0
 40 39  1  1  0  0  0
 40 41  1  0  0  0  0
 40 46  1  0  0  0  0
 41 42  1  1  0  0  0
 41 44  1  0  0  0  0
 42 43  2  0  0  0  0
 44 45  1  0  0  0  0
 46 45  1  6  0  0  0
M  CHG  2   3  -1  35  -1
M  END
>  <CHROM.1>
-30.23162886,67.32476739,-6.69253037,2.77528935,17.36702598,-2.18739543,-0.20925414
-1.98213437

>  <Name>
ligand

>  <RI>
-1

>  <Rbt.Current_Directory>
/home/itssahil/PROJECTS/Mol_Feturizer/Test_systems_manuscript/rnas/3mum

>  <Rbt.Executable>
rbdock ($Id: //depot/dev/client3/rdock/2013.1/src/exe/rbdock.cxx#4 $)

>  <Rbt.Library>
libRbt.so (2013.1, Build901 2013/11/27)

>  <Rbt.Parameter_File>
/export/apps/rDock/src/rDock_2013.1_src/data/scripts/dock_solv.prm

>  <Rbt.Receptor>
prm/pocket_docking_4.prm

>  <SCORE>
-23.4488

>  <SCORE.INTER>
-23.3937

>  <SCORE.INTER.CONST>
1

>  <SCORE.INTER.POLAR>
0

>  <SCORE.INTER.ROT>
2

>  <SCORE.INTER.SOLV>
31.8561

>  <SCORE.INTER.VDW>
-31.1479

>  <SCORE.INTER.norm>
-0.508559

>  <SCORE.INTRA>
-0.0550498

>  <SCORE.INTRA.DIHEDRAL>
0.00910018

>  <SCORE.INTRA.DIHEDRAL.0>
2.40424

>  <SCORE.INTRA.POLAR>
0

>  <SCORE.INTRA.POLAR.0>
0

>  <SCORE.INTRA.REPUL>
0

>  <SCORE.INTRA.REPUL.0>
0

>  <SCORE.INTRA.SOLV>
0.0313567

>  <SCORE.INTRA.SOLV.lig_0>
-134.169

>  <SCORE.INTRA.VDW>
-0.0752782

>  <SCORE.INTRA.VDW.0>
-2.18386

>  <SCORE.INTRA.norm>
-0.00119674

>  <SCORE.RESTR>
0

>  <SCORE.RESTR.CAVITY>
0

>  <SCORE.RESTR.norm>
0

>  <SCORE.SYSTEM>
0

>  <SCORE.SYSTEM.CONST>
0

>  <SCORE.SYSTEM.DIHEDRAL>
0

>  <SCORE.SYSTEM.SOLV>
0

>  <SCORE.SYSTEM.norm>
0

>  <SCORE.heavy>
46

>  <SCORE.norm>
-0.509756

>  <RMSD>
2.819

$$$$
ligand
 OpenBabel02271912143D
libRbt.so/2013.1/901 2013/11/27
 46 52  0  0  0  0  0  0  0  0999 V2000
   -8.8247    6.7759   15.9043 P   0  0  1  0  0  0  0  0  0  0  0  0
   -3.3427    5.3375   17.5027 P   0  0  2  0  0  0  0  0  0  0  0  0
   -9.7519    5.3170   15.5123 O   0  5  0  0  0  0  0  0  0  0  0  0
   -9.8336    8.2427   15.8053 O   0  0  0  0  0  0  0  0  0  0  0  0
   -7.3394    7.5882   17.9432 C   0  0  0  0  0  0  0  0  0  0  0  0
   -8.2225    6.6118   17.3908 O   0  0  0  0  0  0  0  0  0  0  0  0
   -6.5778    6.9562   19.0927 C   0  0  1  0  0  0  0  0  0  0  0  0
   -7.5063    6.3718   20.0169 O   0  0  0  0  0  0  0  0  0  0  0  0
   -5.6671    5.8200   18.6568 C   0  0  1  0  0  0  0  0  0  0  0  0
   -4.3522    6.2748   18.3449 O   0  0  0  0  0  0  0  0  0  0  0  0
   -5.6772    4.8900   19.8572 C   0  0  1  0  0  0  0  0  0  0  0  0
   -4.6442    5.2610   20.7736 O   0  0  0  0  0  0  0  0  0  0  0  0
   -7.0212    5.1185   20.5235 C   0  0  2  0  0  0  0  0  0  0  0  0
   -5.8411    4.3946   13.0928 C   0  0  1  0  0  0  0  0  0  0  0  0
   -7.7657    0.0560   19.1063 N   0  0  0  0  0  0  0  0  0  0  0  0
   -6.6009    0.7134   19.3583 C   0  0  1  0  0  0  0  0  0  0  0  0
   -7.0846    4.8316   13.8138 C   0  0  2  0  0  0  0  0  0  0  0  0
   -5.4410    0.0261   19.2445 N   0  0  0  0  0  0  0  0  0  0  0  0
   -7.9388    5.4158   12.8289 O   0  0  0  0  0  0  0  0  0  0  0  0
   -6.6048    5.8505   14.8284 C   0  0  2  0  0  0  0  0  0  0  0  0
   -6.5580    2.0313   19.7160 N   0  0  0  0  0  0  0  0  0  0  0  0
   -7.5238    6.9252   14.9693 O   0  0  0  0  0  0  0  0  0  0  0  0
   -7.6931    2.7636   19.8456 C   0  0  2  0  0  0  0  0  0  0  0  0
   -5.2891    6.3610   14.2747 C   0  0  2  0  0  0  0  0  0  0  0  0
   -4.8230    5.3524   13.3798 O   0  0  0  0  0  0  0  0  0  0  0  0
   -8.9817    2.1005   19.5810 C   0  0  1  0  0  0  0  0  0  0  0  0
   -4.2441    6.6014   15.3586 C   0  0  0  0  0  0  0  0  0  0  0  0
   -3.9592    5.3647   16.0154 O   0  0  0  0  0  0  0  0  0  0  0  0
   -8.9636    0.6771   19.1993 C   0  0  0  0  0  0  0  0  0  0  0  0
  -10.1201    0.0148   18.9426 O   0  0  0  0  0  0  0  0  0  0  0  0
   -9.9366    3.0186   19.7664 N   0  0  0  0  0  0  0  0  0  0  0  0
   -9.3179    4.1827   20.1208 C   0  0  0  0  0  0  0  0  0  0  0  0
   -7.9770    4.0361   20.1687 N   0  0  1  0  0  0  0  0  0  0  0  0
   -6.6610   -0.7352   12.4758 N   0  0  0  0  0  0  0  0  0  0  0  0
   -3.3153    3.6715   18.1387 O   0  5  0  0  0  0  0  0  0  0  0  0
   -7.2608    0.3226   11.8642 C   0  0  2  0  0  0  0  0  0  0  0  0
   -8.2255    0.0924   10.9355 N   0  0  0  0  0  0  0  0  0  0  0  0
   -1.6869    5.9713   17.4334 O   0  0  0  0  0  0  0  0  0  0  0  0
   -6.9239    1.6092   12.1532 N   0  0  0  0  0  0  0  0  0  0  0  0
   -5.9663    1.9018   13.0640 C   0  0  2  0  0  0  0  0  0  0  0  0
   -5.2848    0.8021   13.7596 C   0  0  2  0  0  0  0  0  0  0  0  0
   -5.6979   -0.5733   13.4077 C   0  0  0  0  0  0  0  0  0  0  0  0
   -5.1274   -1.6518   13.9991 O   0  0  0  0  0  0  0  0  0  0  0  0
   -4.4016    1.3694   14.6049 N   0  0  0  0  0  0  0  0  0  0  0  0
   -4.5070    2.7238   14.4579 C   0  0  0  0  0  0  0  0  0  0  0  0
   -5.4465    3.0362   13.5366 N   0  0  1  0  0  0  0  0  0  0  0  0
  1  3  1  6  0  0  0
  1  4  2  0  0  0  0
  1  6  1  0  0  0  0
  1 22  1  0  0  0  0
  2 28  1  0  0  0  0
  2 35  1  1  0  0  0
  2 38  2  0  0  0  0
  2 10  1  0  0  0  0
  5  6  1  0  0  0  0
  7  5  1  6  0  0  0
  7  8  1  0  0  0  0
  7  9  1  0  0  0  0
  9 10  1  1  0  0  0
  9 11  1  0  0  0  0
 11 12  1  1  0  0  0
 11 13  1  0  0  0  0
 13  8  1  6  0  0  0
 13 33  1  0  0  0  0
 14 46  1  0  0  0  0
 14 17  1  0  0  0  0
 14 25  1  1  0  0  0
 15 16  1  0  0  0  0
 15 29  1  0  0  0  0
 16 18  1  6  0  0  0
 16 21  1  0  0  0  0
 17 19  1  6  0  0  0
 17 20  1  0  0  0  0
 20 22  1  6  0  0  0
 20 24  1  0  0  0  0
 23 21  1  6  0  0  0
 23 26  1  0  0  0  0
 23 33  1  0  0  0  0
 24 25  1  6  0  0  0
 24 27  1  0  0  0  0
 26 29  1  1  0  0  0
 26 31  1  0  0  0  0
 27 28  1  0  0  0  0
 29 30  2  0  0  0  0
 31 32  1  0  0  0  0
 33 32  1  1  0  0  0
 34 36  1  0  0  0  0
 34 42  1  0  0  0  0
 36 37  1  6  0  0  0
 36 39  1  0  0  0  0
 40 39  1  1  0  0  0
 40 41  1  0  0  0  0
 40 46  1  0  0  0  0
 41 42  1  1  0  0  0
 41 44  1  0  0  0  0
 42 43  2  0  0  0  0
 44 45  1  0  0  0  0
 46 45  1  6  0  0  0
M  CHG  2   3  -1  35  -1
M  END
>  <CHROM.1>
144.73706875,82.51961127,-6.52092098,3.90289300,16.55203924,-1.84985322,-1.31088390
-2.47738710

>  <Name>
ligand

>  <RI>
-1

>  <Rbt.Current_Directory>
/home/itssahil/PROJECTS/Mol_Feturizer/Test_systems_manuscript/rnas/3mum

>  <Rbt.Executable>
rbdock ($Id: //depot/dev/client3/rdock/2013.1/src/exe/rbdock.cxx#4 $)

>  <Rbt.Library>
libRbt.so (2013.1, Build901 2013/11/27)

>  <Rbt.Parameter_File>
/export/apps/rDock/src/rDock_2013.1_src/data/scripts/dock_solv.prm

>  <Rbt.Receptor>
prm/pocket_docking_4.prm

>  <SCORE>
-13.3764

>  <SCORE.INTER>
-14.1145

>  <SCORE.INTER.CONST>
1

>  <SCORE.INTER.POLAR>
0

>  <SCORE.INTER.ROT>
2

>  <SCORE.INTER.SOLV>
25.3991

>  <SCORE.INTER.VDW>
-22.8094

>  <SCORE.INTER.norm>
-0.306838

>  <SCORE.INTRA>
0.106531

>  <SCORE.INTRA.DIHEDRAL>
0.0175194

>  <SCORE.INTRA.DIHEDRAL.0>
2.40424

>  <SCORE.INTRA.POLAR>
0

>  <SCORE.INTRA.POLAR.0>
0

>  <SCORE.INTRA.REPUL>
0

>  <SCORE.INTRA.REPUL.0>
0

>  <SCORE.INTRA.SOLV>
0.297768

>  <SCORE.INTRA.SOLV.lig_0>
-134.169

>  <SCORE.INTRA.VDW>
-0.0511132

>  <SCORE.INTRA.VDW.0>
-2.18386

>  <SCORE.INTRA.norm>
0.00231588

>  <SCORE.RESTR>
0.631578

>  <SCORE.RESTR.CAVITY>
0.631578

>  <SCORE.RESTR.norm>
0.01373

>  <SCORE.SYSTEM>
0

>  <SCORE.SYSTEM.CONST>
0

>  <SCORE.SYSTEM.DIHEDRAL>
0

>  <SCORE.SYSTEM.SOLV>
0

>  <SCORE.SYSTEM.norm>
0

>  <SCORE.heavy>
46

>  <SCORE.norm>
-0.290792

>  <RMSD>
3.035

$$$$
ligand
 OpenBabel02271912143D
libRbt.so/2013.1/901 2013/11/27
 46 52  0  0  0  0  0  0  0  0999 V2000
   -3.4563    2.9159   19.0256 P   0  0  1  0  0  0  0  0  0  0  0  0
   -7.5578    7.0842   18.3334 P   0  0  2  0  0  0  0  0  0  0  0  0
   -4.0684    1.3528   18.4567 O   0  5  0  0  0  0  0  0  0  0  0  0
   -1.7540    2.8061   19.5445 O   0  0  0  0  0  0  0  0  0  0  0  0
   -3.2932    5.3657   18.0280 C   0  0  0  0  0  0  0  0  0  0  0  0
   -3.6076    3.9871   17.8303 O   0  0  0  0  0  0  0  0  0  0  0  0
   -3.9725    6.1774   16.9416 C   0  0  1  0  0  0  0  0  0  0  0  0
   -3.6224    5.6434   15.6569 O   0  0  0  0  0  0  0  0  0  0  0  0
   -5.4899    6.1179   17.0077 C   0  0  1  0  0  0  0  0  0  0  0  0
   -6.0344    7.1672   17.8049 O   0  0  0  0  0  0  0  0  0  0  0  0
   -5.9035    6.2371   15.5514 C   0  0  1  0  0  0  0  0  0  0  0  0
   -6.0518    7.6138   15.1949 O   0  0  0  0  0  0  0  0  0  0  0  0
   -4.7459    5.6541   14.7624 C   0  0  2  0  0  0  0  0  0  0  0  0
   -7.7415    2.7020   21.0427 C   0  0  1  0  0  0  0  0  0  0  0  0
   -8.3954    2.1009   13.2630 N   0  0  0  0  0  0  0  0  0  0  0  0
   -8.5615    3.4065   13.6097 C   0  0  1  0  0  0  0  0  0  0  0  0
   -6.4769    2.3178   20.3283 C   0  0  2  0  0  0  0  0  0  0  0  0
   -9.8131    3.9200   13.5870 N   0  0  0  0  0  0  0  0  0  0  0  0
   -5.7380    1.4919   21.2299 O   0  0  0  0  0  0  0  0  0  0  0  0
   -5.7739    3.6325   20.0537 C   0  0  2  0  0  0  0  0  0  0  0  0
   -7.5216    4.2115   13.9799 N   0  0  0  0  0  0  0  0  0  0  0  0
   -4.3659    3.5181   20.2084 O   0  0  0  0  0  0  0  0  0  0  0  0
   -6.2478    3.7449   14.0168 C   0  0  2  0  0  0  0  0  0  0  0  0
   -6.3332    4.5950   21.0829 C   0  0  2  0  0  0  0  0  0  0  0  0
   -7.5860    4.0478   21.4908 O   0  0  0  0  0  0  0  0  0  0  0  0
   -6.0129    2.3366   13.6537 C   0  0  1  0  0  0  0  0  0  0  0  0
   -6.5482    5.9979   20.5261 C   0  0  0  0  0  0  0  0  0  0  0  0
   -7.5006    5.9376   19.4624 O   0  0  0  0  0  0  0  0  0  0  0  0
   -7.1746    1.5184   13.2626 C   0  0  0  0  0  0  0  0  0  0  0  0
   -7.0185    0.2147   12.9190 O   0  0  0  0  0  0  0  0  0  0  0  0
   -4.6986    2.1185   13.7724 N   0  0  0  0  0  0  0  0  0  0  0  0
   -4.1276    3.2893   14.1808 C   0  0  0  0  0  0  0  0  0  0  0  0
   -5.0491    4.2642   14.3294 N   0  0  1  0  0  0  0  0  0  0  0  0
  -10.8451   -0.6619   18.5088 N   0  0  0  0  0  0  0  0  0  0  0  0
   -8.6778    6.6197   17.0255 O   0  5  0  0  0  0  0  0  0  0  0  0
   -9.7753   -0.9018   19.3156 C   0  0  2  0  0  0  0  0  0  0  0  0
   -9.3973   -2.1852   19.5521 N   0  0  0  0  0  0  0  0  0  0  0  0
   -8.1227    8.5863   19.0901 O   0  0  0  0  0  0  0  0  0  0  0  0
   -9.0691    0.1064   19.8963 N   0  0  0  0  0  0  0  0  0  0  0  0
   -9.4012    1.4044   19.7039 C   0  0  2  0  0  0  0  0  0  0  0  0
  -10.5450    1.7268   18.8406 C   0  0  2  0  0  0  0  0  0  0  0  0
  -11.2693    0.5897   18.2334 C   0  0  0  0  0  0  0  0  0  0  0  0
  -12.3360    0.7891   17.4204 O   0  0  0  0  0  0  0  0  0  0  0  0
  -10.6425    3.0707   18.8161 N   0  0  0  0  0  0  0  0  0  0  0  0
   -9.6432    3.5676   19.6044 C   0  0  0  0  0  0  0  0  0  0  0  0
   -8.9024    2.5661   20.1307 N   0  0  1  0  0  0  0  0  0  0  0  0
  1  3  1  6  0  0  0
  1  4  2  0  0  0  0
  1  6  1  0  0  0  0
  1 22  1  0  0  0  0
  2 28  1  0  0  0  0
  2 35  1  6  0  0  0
  2 38  2  0  0  0  0
  2 10  1  0  0  0  0
  5  6  1  0  0  0  0
  7  5  1  1  0  0  0
  7  8  1  0  0  0  0
  7  9  1  0  0  0  0
  9 10  1  1  0  0  0
  9 11  1  0  0  0  0
 11 12  1  6  0  0  0
 11 13  1  0  0  0  0
 13  8  1  1  0  0  0
 13 33  1  0  0  0  0
 14 46  1  0  0  0  0
 14 17  1  0  0  0  0
 14 25  1  6  0  0  0
 15 16  1  0  0  0  0
 15 29  1  0  0  0  0
 16 18  1  1  0  0  0
 16 21  1  0  0  0  0
 17 19  1  1  0  0  0
 17 20  1  0  0  0  0
 20 22  1  1  0  0  0
 20 24  1  0  0  0  0
 23 21  1  1  0  0  0
 23 26  1  0  0  0  0
 23 33  1  0  0  0  0
 24 25  1  6  0  0  0
 24 27  1  0  0  0  0
 26 29  1  6  0  0  0
 26 31  1  0  0  0  0
 27 28  1  0  0  0  0
 29 30  2  0  0  0  0
 31 32  1  0  0  0  0
 33 32  1  6  0  0  0
 34 36  1  0  0  0  0
 34 42  1  0  0  0  0
 36 37  1  1  0  0  0
 36 39  1  0  0  0  0
 40 39  1  6  0  0  0
 40 41  1  0  0  0  0
 40 46  1  0  0  0  0
 41 42  1  6  0  0  0
 41 44  1  0  0  0  0
 42 43  2  0  0  0  0
 44 45  1  0  0  0  0
 46 45  1  1  0  0  0
M  CHG  2   3  -1  35  -1
M  END
>  <CHROM.1>
148.48975432,70.68167881,-6.84439841,3.58909929,17.63120896,-0.37200229,0.77234631
1.55616983

>  <Name>
ligand

>  <RI>
-1

>  <Rbt.Current_Directory>
/home/itssahil/PROJECTS/Mol_Feturizer/Test_systems_manuscript/rnas/3mum

>  <Rbt.Executable>
rbdock ($Id: //depot/dev/client3/rdock/2013.1/src/exe/rbdock.cxx#4 $)

>  <Rbt.Library>
libRbt.so (2013.1, Build901 2013/11/27)

>  <Rbt.Parameter_File>
/export/apps/rDock/src/rDock_2013.1_src/data/scripts/dock_solv.prm

>  <Rbt.Receptor>
prm/pocket_docking_4.prm

>  <SCORE>
-5.66902

>  <SCORE.INTER>
-6.57862

>  <SCORE.INTER.CONST>
1

>  <SCORE.INTER.POLAR>
0

>  <SCORE.INTER.ROT>
2

>  <SCORE.INTER.SOLV>
30.4276

>  <SCORE.INTER.VDW>
-19.4616

>  <SCORE.INTER.norm>
-0.143013

>  <SCORE.INTRA>
0.0275657

>  <SCORE.INTRA.DIHEDRAL>
0.00624486

>  <SCORE.INTRA.DIHEDRAL.0>
2.40424

>  <SCORE.INTRA.POLAR>
0

>  <SCORE.INTRA.POLAR.0>
0

>  <SCORE.INTRA.REPUL>
0

>  <SCORE.INTRA.REPUL.0>
0

>  <SCORE.INTRA.SOLV>
0.0225592

>  <SCORE.INTRA.SOLV.lig_0>
-134.169

>  <SCORE.INTRA.VDW>
0.0131636

>  <SCORE.INTRA.VDW.0>
-2.18386

>  <SCORE.INTRA.norm>
0.000599253

>  <SCORE.RESTR>
0.882034

>  <SCORE.RESTR.CAVITY>
0.882034

>  <SCORE.RESTR.norm>
0.0191746

>  <SCORE.SYSTEM>
0

>  <SCORE.SYSTEM.CONST>
0

>  <SCORE.SYSTEM.DIHEDRAL>
0

>  <SCORE.SYSTEM.SOLV>
0

>  <SCORE.SYSTEM.norm>
0

>  <SCORE.heavy>
46

>  <SCORE.norm>
-0.123239

>  <RMSD>
3.135

$$$$
ligand
 OpenBabel02271912143D
libRbt.so/2013.1/901 2013/11/27
 46 52  0  0  0  0  0  0  0  0999 V2000
   -3.3788    5.6593   17.3059 P   0  0  1  0  0  0  0  0  0  0  0  0
   -8.9763    6.8690   15.9347 P   0  0  2  0  0  0  0  0  0  0  0  0
   -3.2250    3.9706   17.8220 O   0  5  0  0  0  0  0  0  0  0  0  0
   -1.7949    6.4763   17.2488 O   0  0  0  0  0  0  0  0  0  0  0  0
   -4.4243    6.9175   15.2209 C   0  0  0  0  0  0  0  0  0  0  0  0
   -4.0732    5.6855   15.8511 O   0  0  0  0  0  0  0  0  0  0  0  0
   -5.4593    6.6347   14.1488 C   0  0  1  0  0  0  0  0  0  0  0  0
   -4.9703    5.6108   13.2711 O   0  0  0  0  0  0  0  0  0  0  0  0
   -6.7699    6.1026   14.7052 C   0  0  1  0  0  0  0  0  0  0  0  0
   -7.6959    7.1483   14.9917 O   0  0  0  0  0  0  0  0  0  0  0  0
   -7.2684    5.1890   13.5993 C   0  0  1  0  0  0  0  0  0  0  0  0
   -8.0573    5.9327   12.6671 O   0  0  0  0  0  0  0  0  0  0  0  0
   -6.0163    4.7017   12.8942 C   0  0  2  0  0  0  0  0  0  0  0  0
   -6.9614    5.2000   20.3768 C   0  0  1  0  0  0  0  0  0  0  0  0
   -6.8172   -0.5259   12.4212 N   0  0  0  0  0  0  0  0  0  0  0  0
   -7.4181    0.4974   11.7546 C   0  0  1  0  0  0  0  0  0  0  0  0
   -5.7029    4.9389   19.5988 C   0  0  2  0  0  0  0  0  0  0  0  0
   -8.3602    0.1940   10.8321 N   0  0  0  0  0  0  0  0  0  0  0  0
   -4.6184    5.1233   20.5104 O   0  0  0  0  0  0  0  0  0  0  0  0
   -5.7059    5.9815   18.4985 C   0  0  2  0  0  0  0  0  0  0  0  0
   -7.1112    1.8092   11.9817 N   0  0  0  0  0  0  0  0  0  0  0  0
   -4.3996    6.4785   18.2416 O   0  0  0  0  0  0  0  0  0  0  0  0
   -6.1725    2.1655   12.8947 C   0  0  2  0  0  0  0  0  0  0  0  0
   -6.5924    7.0952   19.0204 C   0  0  2  0  0  0  0  0  0  0  0  0
   -7.4246    6.5002   20.0147 O   0  0  0  0  0  0  0  0  0  0  0  0
   -5.4935    1.0960   13.6467 C   0  0  1  0  0  0  0  0  0  0  0  0
   -7.4630    7.7171   17.9342 C   0  0  0  0  0  0  0  0  0  0  0  0
   -8.3337    6.7161   17.4032 O   0  0  0  0  0  0  0  0  0  0  0  0
   -5.8672   -0.2999   13.3571 C   0  0  0  0  0  0  0  0  0  0  0  0
   -5.2757   -1.3262   14.0196 O   0  0  0  0  0  0  0  0  0  0  0  0
   -4.6305    1.6920   14.4768 N   0  0  0  0  0  0  0  0  0  0  0  0
   -4.7417    3.0384   14.2805 C   0  0  0  0  0  0  0  0  0  0  0  0
   -5.6625    3.3268   13.3368 N   0  0  1  0  0  0  0  0  0  0  0  0
   -7.7226    0.1682   19.1642 N   0  0  0  0  0  0  0  0  0  0  0  0
   -9.8207    5.3710   15.4618 O   0  5  0  0  0  0  0  0  0  0  0  0
   -6.5622    0.8469   19.3782 C   0  0  2  0  0  0  0  0  0  0  0  0
   -5.3796    0.1842   19.2868 N   0  0  0  0  0  0  0  0  0  0  0  0
  -10.1326    8.2143   15.9678 O   0  0  0  0  0  0  0  0  0  0  0  0
   -6.5477    2.1732   19.6830 N   0  0  0  0  0  0  0  0  0  0  0  0
   -7.6932    2.8856   19.7947 C   0  0  2  0  0  0  0  0  0  0  0  0
   -8.9777    2.2088   19.5720 C   0  0  2  0  0  0  0  0  0  0  0  0
   -8.9291    0.7692   19.2384 C   0  0  0  0  0  0  0  0  0  0  0  0
  -10.0632    0.0610   19.0133 O   0  0  0  0  0  0  0  0  0  0  0  0
   -9.9374    3.1413   19.7328 N   0  0  0  0  0  0  0  0  0  0  0  0
   -9.3160    4.3193   20.0382 C   0  0  0  0  0  0  0  0  0  0  0  0
   -7.9734    4.1605   20.0712 N   0  0  1  0  0  0  0  0  0  0  0  0
  1  3  1  1  0  0  0
  1  4  2  0  0  0  0
  1  6  1  0  0  0  0
  1 22  1  0  0  0  0
  2 28  1  0  0  0  0
  2 35  1  6  0  0  0
  2 38  2  0  0  0  0
  2 10  1  0  0  0  0
  5  6  1  0  0  0  0
  7  5  1  1  0  0  0
  7  8  1  0  0  0  0
  7  9  1  0  0  0  0
  9 10  1  6  0  0  0
  9 11  1  0  0  0  0
 11 12  1  6  0  0  0
 11 13  1  0  0  0  0
 13  8  1  1  0  0  0
 13 33  1  0  0  0  0
 14 46  1  0  0  0  0
 14 17  1  0  0  0  0
 14 25  1  6  0  0  0
 15 16  1  0  0  0  0
 15 29  1  0  0  0  0
 16 18  1  1  0  0  0
 16 21  1  0  0  0  0
 17 19  1  1  0  0  0
 17 20  1  0  0  0  0
 20 22  1  1  0  0  0
 20 24  1  0  0  0  0
 23 21  1  1  0  0  0
 23 26  1  0  0  0  0
 23 33  1  0  0  0  0
 24 25  1  1  0  0  0
 24 27  1  0  0  0  0
 26 29  1  6  0  0  0
 26 31  1  0  0  0  0
 27 28  1  0  0  0  0
 29 30  2  0  0  0  0
 31 32  1  0  0  0  0
 33 32  1  6  0  0  0
 34 36  1  0  0  0  0
 34 42  1  0  0  0  0
 36 37  1  1  0  0  0
 36 39  1  0  0  0  0
 40 39  1  6  0  0  0
 40 41  1  0  0  0  0
 40 46  1  0  0  0  0
 41 42  1  6  0  0  0
 41 44  1  0  0  0  0
 42 43  2  0  0  0  0
 44 45  1  0  0  0  0
 46 45  1  1  0  0  0
M  CHG  2   3  -1  35  -1
M  END
>  <CHROM.1>
-161.15419298,33.40607616,-6.60745556,4.09934551,16.46398630,-1.76386045
-1.32782505,-2.35347042

>  <Name>
ligand

>  <RI>
-1

>  <Rbt.Current_Directory>
/home/itssahil/PROJECTS/Mol_Feturizer/Test_systems_manuscript/rnas/3mum

>  <Rbt.Executable>
rbdock ($Id: //depot/dev/client3/rdock/2013.1/src/exe/rbdock.cxx#4 $)

>  <Rbt.Library>
libRbt.so (2013.1, Build901 2013/11/27)

>  <Rbt.Parameter_File>
/export/apps/rDock/src/rDock_2013.1_src/data/scripts/dock_solv.prm

>  <Rbt.Receptor>
prm/pocket_docking_4.prm

>  <SCORE>
-15.4524

>  <SCORE.INTER>
-16.5923

>  <SCORE.INTER.CONST>
1

>  <SCORE.INTER.POLAR>
0

>  <SCORE.INTER.ROT>
2

>  <SCORE.INTER.SOLV>
24.777

>  <SCORE.INTER.VDW>
-24.2539

>  <SCORE.INTER.norm>
-0.360702

>  <SCORE.INTRA>
0.286305

>  <SCORE.INTRA.DIHEDRAL>
-0.0284712

>  <SCORE.INTRA.DIHEDRAL.0>
2.40424

>  <SCORE.INTRA.POLAR>
0

>  <SCORE.INTRA.POLAR.0>
0

>  <SCORE.INTRA.REPUL>
0

>  <SCORE.INTRA.REPUL.0>
0

>  <SCORE.INTRA.SOLV>
0.0757914

>  <SCORE.INTRA.SOLV.lig_0>
-134.169

>  <SCORE.INTRA.VDW>
0.262645

>  <SCORE.INTRA.VDW.0>
-2.18386

>  <SCORE.INTRA.norm>
0.00622401

>  <SCORE.RESTR>
0.853567

>  <SCORE.RESTR.CAVITY>
0.853567

>  <SCORE.RESTR.norm>
0.0185558

>  <SCORE.SYSTEM>
0

>  <SCORE.SYSTEM.CONST>
0

>  <SCORE.SYSTEM.DIHEDRAL>
0

>  <SCORE.SYSTEM.SOLV>
0

>  <SCORE.SYSTEM.norm>
0

>  <SCORE.heavy>
46

>  <SCORE.norm>
-0.335922

>  <RMSD>
3.170

$$$$
ligand
 OpenBabel02271912143D
libRbt.so/2013.1/901 2013/11/27
 46 52  0  0  0  0  0  0  0  0999 V2000
   -3.4541    5.7858   17.3571 P   0  0  1  0  0  0  0  0  0  0  0  0
   -9.0850    6.8222   15.9808 P   0  0  2  0  0  0  0  0  0  0  0  0
   -3.2453    4.0977   17.8558 O   0  5  0  0  0  0  0  0  0  0  0  0
   -1.8983    6.6558   17.3138 O   0  0  0  0  0  0  0  0  0  0  0  0
   -4.5351    7.0305   15.2822 C   0  0  0  0  0  0  0  0  0  0  0  0
   -4.1448    5.8042   15.9005 O   0  0  0  0  0  0  0  0  0  0  0  0
   -5.5570    6.7246   14.2039 C   0  0  1  0  0  0  0  0  0  0  0  0
   -5.0315    5.7271   13.3169 O   0  0  0  0  0  0  0  0  0  0  0  0
   -6.8507    6.1431   14.7503 C   0  0  1  0  0  0  0  0  0  0  0  0
   -7.8120    7.1542   15.0449 O   0  0  0  0  0  0  0  0  0  0  0  0
   -7.3152    5.2252   13.6333 C   0  0  1  0  0  0  0  0  0  0  0  0
   -8.1258    5.9520   12.7065 O   0  0  0  0  0  0  0  0  0  0  0  0
   -6.0454    4.7876   12.9271 C   0  0  2  0  0  0  0  0  0  0  0  0
   -7.0280    5.1742   20.4115 C   0  0  1  0  0  0  0  0  0  0  0  0
   -6.6703   -0.4585   12.3970 N   0  0  0  0  0  0  0  0  0  0  0  0
   -7.3033    0.5511   11.7395 C   0  0  1  0  0  0  0  0  0  0  0  0
   -5.7593    4.9636   19.6348 C   0  0  2  0  0  0  0  0  0  0  0  0
   -8.2324    0.2263   10.8112 N   0  0  0  0  0  0  0  0  0  0  0  0
   -4.6842    5.1745   20.5518 O   0  0  0  0  0  0  0  0  0  0  0  0
   -5.7941    6.0172   18.5456 C   0  0  2  0  0  0  0  0  0  0  0  0
   -7.0409    1.8700   11.9812 N   0  0  0  0  0  0  0  0  0  0  0  0
   -4.5044    6.5604   18.2982 O   0  0  0  0  0  0  0  0  0  0  0  0
   -6.1169    2.2477   12.9005 C   0  0  2  0  0  0  0  0  0  0  0  0
   -6.7188    7.0951   19.0763 C   0  0  2  0  0  0  0  0  0  0  0  0
   -7.5335    6.4619   20.0616 O   0  0  0  0  0  0  0  0  0  0  0  0
   -5.4045    1.1936   13.6433 C   0  0  1  0  0  0  0  0  0  0  0  0
   -7.6066    7.6990   17.9940 C   0  0  0  0  0  0  0  0  0  0  0  0
   -8.4418    6.6752   17.4497 O   0  0  0  0  0  0  0  0  0  0  0  0
   -5.7307   -0.2109   13.3380 C   0  0  0  0  0  0  0  0  0  0  0  0
   -5.1070   -1.2238   13.9914 O   0  0  0  0  0  0  0  0  0  0  0  0
   -4.5640    1.8092   14.4821 N   0  0  0  0  0  0  0  0  0  0  0  0
   -4.7196    3.1531   14.2995 C   0  0  0  0  0  0  0  0  0  0  0  0
   -5.6471    3.4207   13.3563 N   0  0  1  0  0  0  0  0  0  0  0  0
   -7.6167    0.1339   19.1396 N   0  0  0  0  0  0  0  0  0  0  0  0
   -9.8775    5.3019   15.4894 O   0  5  0  0  0  0  0  0  0  0  0  0
   -6.4803    0.8488   19.3641 C   0  0  2  0  0  0  0  0  0  0  0  0
   -5.2758    0.2275   19.2678 N   0  0  0  0  0  0  0  0  0  0  0  0
  -10.2858    8.1277   16.0244 O   0  0  0  0  0  0  0  0  0  0  0  0
   -6.5111    2.1713   19.6840 N   0  0  0  0  0  0  0  0  0  0  0  0
   -7.6802    2.8433   19.8012 C   0  0  2  0  0  0  0  0  0  0  0  0
   -8.9407    2.1262   19.5679 C   0  0  2  0  0  0  0  0  0  0  0  0
   -8.8429    0.6930   19.2179 C   0  0  0  0  0  0  0  0  0  0  0  0
   -9.9521   -0.0504   18.9821 O   0  0  0  0  0  0  0  0  0  0  0  0
   -9.9317    3.0239   19.7370 N   0  0  0  0  0  0  0  0  0  0  0  0
   -9.3509    4.2185   20.0573 C   0  0  0  0  0  0  0  0  0  0  0  0
   -8.0038    4.1048   20.0917 N   0  0  1  0  0  0  0  0  0  0  0  0
  1  3  1  1  0  0  0
  1  4  2  0  0  0  0
  1  6  1  0  0  0  0
  1 22  1  0  0  0  0
  2 28  1  0  0  0  0
  2 35  1  6  0  0  0
  2 38  2  0  0  0  0
  2 10  1  0  0  0  0
  5  6  1  0  0  0  0
  7  5  1  1  0  0  0
  7  8  1  0  0  0  0
  7  9  1  0  0  0  0
  9 10  1  6  0  0  0
  9 11  1  0  0  0  0
 11 12  1  6  0  0  0
 11 13  1  0  0  0  0
 13  8  1  1  0  0  0
 13 33  1  0  0  0  0
 14 46  1  0  0  0  0
 14 17  1  0  0  0  0
 14 25  1  6  0  0  0
 15 16  1  0  0  0  0
 15 29  1  0  0  0  0
 16 18  1  1  0  0  0
 16 21  1  0  0  0  0
 17 19  1  1  0  0  0
 17 20  1  0  0  0  0
 20 22  1  1  0  0  0
 20 24  1  0  0  0  0
 23 21  1  1  0  0  0
 23 26  1  0  0  0  0
 23 33  1  0  0  0  0
 24 25  1  1  0  0  0
 24 27  1  0  0  0  0
 26 29  1  6  0  0  0
 26 31  1  0  0  0  0
 27 28  1  0  0  0  0
 29 30  2  0  0  0  0
 31 32  1  0  0  0  0
 33 32  1  6  0  0  0
 34 36  1  0  0  0  0
 34 42  1  0  0  0  0
 36 37  1  1  0  0  0
 36 39  1  0  0  0  0
 40 39  1  6  0  0  0
 40 41  1  0  0  0  0
 40 46  1  0  0  0  0
 41 42  1  6  0  0  0
 41 44  1  0  0  0  0
 42 43  2  0  0  0  0
 44 45  1  0  0  0  0
 46 45  1  1  0  0  0
M  CHG  2   3  -1  35  -1
M  END
>  <CHROM.1>
-161.17496577,33.33193185,-6.62635084,4.12787996,16.48807972,-1.87900441
-1.34783336,-2.45559767

>  <Name>
ligand

>  <RI>
-1

>  <Rbt.Current_Directory>
/home/itssahil/PROJECTS/Mol_Feturizer/Test_systems_manuscript/rnas/3mum

>  <Rbt.Executable>
rbdock ($Id: //depot/dev/client3/rdock/2013.1/src/exe/rbdock.cxx#4 $)

>  <Rbt.Library>
libRbt.so (2013.1, Build901 2013/11/27)

>  <Rbt.Parameter_File>
/export/apps/rDock/src/rDock_2013.1_src/data/scripts/dock_solv.prm

>  <Rbt.Receptor>
prm/pocket_docking_4.prm

>  <SCORE>
-15.3137

>  <SCORE.INTER>
-16.4718

>  <SCORE.INTER.CONST>
1

>  <SCORE.INTER.POLAR>
0

>  <SCORE.INTER.ROT>
2

>  <SCORE.INTER.SOLV>
24.7083

>  <SCORE.INTER.VDW>
-24.1506

>  <SCORE.INTER.norm>
-0.358082

>  <SCORE.INTRA>
0.28852

>  <SCORE.INTRA.DIHEDRAL>
-0.0284897

>  <SCORE.INTRA.DIHEDRAL.0>
2.40424

>  <SCORE.INTRA.POLAR>
0

>  <SCORE.INTRA.POLAR.0>
0

>  <SCORE.INTRA.REPUL>
0

>  <SCORE.INTRA.REPUL.0>
0

>  <SCORE.INTRA.SOLV>
0.0758205

>  <SCORE.INTRA.SOLV.lig_0>
-134.169

>  <SCORE.INTRA.VDW>
0.264854

>  <SCORE.INTRA.VDW.0>
-2.18386

>  <SCORE.INTRA.norm>
0.00627217

>  <SCORE.RESTR>
0.869518

>  <SCORE.RESTR.CAVITY>
0.869518

>  <SCORE.RESTR.norm>
0.0189026

>  <SCORE.SYSTEM>
0

>  <SCORE.SYSTEM.CONST>
0

>  <SCORE.SYSTEM.DIHEDRAL>
0

>  <SCORE.SYSTEM.SOLV>
0

>  <SCORE.SYSTEM.norm>
0

>  <SCORE.heavy>
46

>  <SCORE.norm>
-0.332907

>  <RMSD>
3.180

$$$$
ligand
 OpenBabel02271912143D
libRbt.so/2013.1/901 2013/11/27
 46 52  0  0  0  0  0  0  0  0999 V2000
   -8.8752    6.9846   15.8838 P   0  0  1  0  0  0  0  0  0  0  0  0
   -3.3401    5.5956   17.3360 P   0  0  2  0  0  0  0  0  0  0  0  0
   -9.7979    5.5178   15.5111 O   0  5  0  0  0  0  0  0  0  0  0  0
   -9.9006    8.4417   15.8154 O   0  0  0  0  0  0  0  0  0  0  0  0
   -7.3459    7.8056   17.8864 C   0  0  0  0  0  0  0  0  0  0  0  0
   -8.2333    6.8221   17.3537 O   0  0  0  0  0  0  0  0  0  0  0  0
   -6.5487    7.1778   19.0138 C   0  0  1  0  0  0  0  0  0  0  0  0
   -7.4474    6.5816   19.9598 O   0  0  0  0  0  0  0  0  0  0  0  0
   -5.6386    6.0518   18.5510 C   0  0  1  0  0  0  0  0  0  0  0  0
   -4.3366    6.5205   18.2069 O   0  0  0  0  0  0  0  0  0  0  0  0
   -5.6086    5.1183   19.7484 C   0  0  1  0  0  0  0  0  0  0  0  0
   -4.5561    5.4968   20.6391 O   0  0  0  0  0  0  0  0  0  0  0  0
   -6.9372    5.3316   20.4498 C   0  0  2  0  0  0  0  0  0  0  0  0
   -5.9419    4.6410   12.9889 C   0  0  1  0  0  0  0  0  0  0  0  0
   -7.6772    0.2279   19.1862 N   0  0  0  0  0  0  0  0  0  0  0  0
   -6.5141    0.8899   19.4338 C   0  0  1  0  0  0  0  0  0  0  0  0
   -7.1707    5.0636   13.7430 C   0  0  2  0  0  0  0  0  0  0  0  0
   -5.3549    0.1962   19.3592 N   0  0  0  0  0  0  0  0  0  0  0  0
   -8.0556    5.6423   12.7823 O   0  0  0  0  0  0  0  0  0  0  0  0
   -6.6749    6.0842   14.7482 C   0  0  2  0  0  0  0  0  0  0  0  0
   -6.4722    2.2186   19.7493 N   0  0  0  0  0  0  0  0  0  0  0  0
   -7.6004    7.1494   14.9160 O   0  0  0  0  0  0  0  0  0  0  0  0
   -7.6067    2.9579   19.8387 C   0  0  2  0  0  0  0  0  0  0  0  0
   -5.3788    6.6093   14.1625 C   0  0  2  0  0  0  0  0  0  0  0  0
   -4.9261    5.6080   13.2527 O   0  0  0  0  0  0  0  0  0  0  0  0
   -8.8935    2.2901   19.5769 C   0  0  1  0  0  0  0  0  0  0  0  0
   -4.3087    6.8568   15.2198 C   0  0  0  0  0  0  0  0  0  0  0  0
   -3.9949    5.6211   15.8652 O   0  0  0  0  0  0  0  0  0  0  0  0
   -8.8744    0.8550   19.2417 C   0  0  0  0  0  0  0  0  0  0  0  0
  -10.0291    0.1879   18.9897 O   0  0  0  0  0  0  0  0  0  0  0  0
   -9.8481    3.2162   19.7185 N   0  0  0  0  0  0  0  0  0  0  0  0
   -9.2308    4.3895   20.0441 C   0  0  0  0  0  0  0  0  0  0  0  0
   -7.8913    4.2409   20.1162 N   0  0  1  0  0  0  0  0  0  0  0  0
   -6.7090   -0.4953   12.3576 N   0  0  0  0  0  0  0  0  0  0  0  0
   -3.2800    3.9281   17.9658 O   0  5  0  0  0  0  0  0  0  0  0  0
   -7.3325    0.5583   11.7626 C   0  0  2  0  0  0  0  0  0  0  0  0
   -8.3104    0.3211   10.8497 N   0  0  0  0  0  0  0  0  0  0  0  0
   -1.6929    6.2458   17.2261 O   0  0  0  0  0  0  0  0  0  0  0  0
   -7.0065    1.8474   12.0529 N   0  0  0  0  0  0  0  0  0  0  0  0
   -6.0367    2.1470   12.9483 C   0  0  2  0  0  0  0  0  0  0  0  0
   -5.3295    1.0522   13.6257 C   0  0  2  0  0  0  0  0  0  0  0  0
   -5.7317   -0.3263   13.2734 C   0  0  0  0  0  0  0  0  0  0  0  0
   -5.1375   -1.4008   13.8487 O   0  0  0  0  0  0  0  0  0  0  0  0
   -4.4387    1.6260   14.4585 N   0  0  0  0  0  0  0  0  0  0  0  0
   -4.5635    2.9797   14.3210 C   0  0  0  0  0  0  0  0  0  0  0  0
   -5.5227    3.2852   13.4181 N   0  0  1  0  0  0  0  0  0  0  0  0
  1  3  1  6  0  0  0
  1  4  2  0  0  0  0
  1  6  1  0  0  0  0
  1 22  1  0  0  0  0
  2 28  1  0  0  0  0
  2 35  1  1  0  0  0
  2 38  2  0  0  0  0
  2 10  1  0  0  0  0
  5  6  1  0  0  0  0
  7  5  1  6  0  0  0
  7  8  1  0  0  0  0
  7  9  1  0  0  0  0
  9 10  1  1  0  0  0
  9 11  1  0  0  0  0
 11 12  1  1  0  0  0
 11 13  1  0  0  0  0
 13  8  1  6  0  0  0
 13 33  1  0  0  0  0
 14 46  1  0  0  0  0
 14 17  1  0  0  0  0
 14 25  1  1  0  0  0
 15 16  1  0  0  0  0
 15 29  1  0  0  0  0
 16 18  1  6  0  0  0
 16 21  1  0  0  0  0
 17 19  1  6  0  0  0
 17 20  1  0  0  0  0
 20 22  1  6  0  0  0
 20 24  1  0  0  0  0
 23 21  1  6  0  0  0
 23 26  1  0  0  0  0
 23 33  1  0  0  0  0
 24 25  1  6  0  0  0
 24 27  1  0  0  0  0
 26 29  1  1  0  0  0
 26 31  1  0  0  0  0
 27 28  1  0  0  0  0
 29 30  2  0  0  0  0
 31 32  1  0  0  0  0
 33 32  1  1  0  0  0
 34 36  1  0  0  0  0
 34 42  1  0  0  0  0
 36 37  1  6  0  0  0
 36 39  1  0  0  0  0
 40 39  1  1  0  0  0
 40 41  1  0  0  0  0
 40 46  1  0  0  0  0
 41 42  1  1  0  0  0
 41 44  1  0  0  0  0
 42 43  2  0  0  0  0
 44 45  1  0  0  0  0
 46 45  1  6  0  0  0
M  CHG  2   3  -1  35  -1
M  END
>  <CHROM.1>
147.89553844,83.03137455,-6.52649540,4.12837924,16.47700805,-1.84805498,-1.34852515
-2.45143975

>  <Name>
ligand

>  <RI>
-1

>  <Rbt.Current_Directory>
/home/itssahil/PROJECTS/Mol_Feturizer/Test_systems_manuscript/rnas/3mum

>  <Rbt.Executable>
rbdock ($Id: //depot/dev/client3/rdock/2013.1/src/exe/rbdock.cxx#4 $)

>  <Rbt.Library>
libRbt.so (2013.1, Build901 2013/11/27)

>  <Rbt.Parameter_File>
/export/apps/rDock/src/rDock_2013.1_src/data/scripts/dock_solv.prm

>  <Rbt.Receptor>
prm/pocket_docking_7.prm

>  <SCORE>
-15.0421

>  <SCORE.INTER>
-15.0009

>  <SCORE.INTER.CONST>
1

>  <SCORE.INTER.POLAR>
0

>  <SCORE.INTER.ROT>
2

>  <SCORE.INTER.SOLV>
25.051

>  <SCORE.INTER.VDW>
-23.2843

>  <SCORE.INTER.norm>
-0.326107

>  <SCORE.INTRA>
-0.0411435

>  <SCORE.INTRA.DIHEDRAL>
0.0176917

>  <SCORE.INTRA.DIHEDRAL.0>
2.40424

>  <SCORE.INTRA.POLAR>
0

>  <SCORE.INTRA.POLAR.0>
0

>  <SCORE.INTRA.REPUL>
0

>  <SCORE.INTRA.REPUL.0>
0

>  <SCORE.INTRA.SOLV>
0.0802155

>  <SCORE.INTRA.SOLV.lig_0>
-134.169

>  <SCORE.INTRA.VDW>
-0.0900971

>  <SCORE.INTRA.VDW.0>
-2.18386

>  <SCORE.INTRA.norm>
-0.000894424

>  <SCORE.RESTR>
0

>  <SCORE.RESTR.CAVITY>
0

>  <SCORE.RESTR.norm>
0

>  <SCORE.SYSTEM>
0

>  <SCORE.SYSTEM.CONST>
0

>  <SCORE.SYSTEM.DIHEDRAL>
0

>  <SCORE.SYSTEM.SOLV>
0

>  <SCORE.SYSTEM.norm>
0

>  <SCORE.heavy>
46

>  <SCORE.norm>
-0.327001

>  <RMSD>
3.224

$$$$
ligand
 OpenBabel02271912143D
libRbt.so/2013.1/901 2013/11/27
 46 52  0  0  0  0  0  0  0  0999 V2000
   -4.7525    5.9511   16.3673 P   0  0  1  0  0  0  0  0  0  0  0  0
  -10.6205    5.5666   16.6757 P   0  0  2  0  0  0  0  0  0  0  0  0
   -4.0094    4.4360   16.9093 O   0  5  0  0  0  0  0  0  0  0  0  0
   -3.5300    7.1135   15.7898 O   0  0  0  0  0  0  0  0  0  0  0  0
   -6.6322    6.6245   14.6246 C   0  0  0  0  0  0  0  0  0  0  0  0
   -5.7999    5.6113   15.1897 O   0  0  0  0  0  0  0  0  0  0  0  0
   -7.8044    5.9565   13.9314 C   0  0  1  0  0  0  0  0  0  0  0  0
   -7.3160    4.9737   13.0075 O   0  0  0  0  0  0  0  0  0  0  0  0
   -8.7153    5.2015   14.8857 C   0  0  1  0  0  0  0  0  0  0  0  0
   -9.7750    6.0193   15.3768 O   0  0  0  0  0  0  0  0  0  0  0  0
   -9.2303    4.0537   14.0353 C   0  0  1  0  0  0  0  0  0  0  0  0
  -10.4164    4.4505   13.3423 O   0  0  0  0  0  0  0  0  0  0  0  0
   -8.1368    3.7952   13.0154 C   0  0  2  0  0  0  0  0  0  0  0  0
   -7.0872    5.0522   20.3944 C   0  0  1  0  0  0  0  0  0  0  0  0
   -7.0312   -1.3544   12.3432 N   0  0  0  0  0  0  0  0  0  0  0  0
   -7.9607   -0.5873   11.7107 C   0  0  1  0  0  0  0  0  0  0  0  0
   -6.0695    5.0027   19.2903 C   0  0  2  0  0  0  0  0  0  0  0  0
   -8.7395   -1.1711   10.7708 N   0  0  0  0  0  0  0  0  0  0  0  0
   -4.8690    5.5665   19.8214 O   0  0  0  0  0  0  0  0  0  0  0  0
   -6.6584    5.8552   18.1839 C   0  0  2  0  0  0  0  0  0  0  0  0
   -8.1385    0.7385   11.9885 N   0  0  0  0  0  0  0  0  0  0  0  0
   -5.6596    6.6158   17.5181 O   0  0  0  0  0  0  0  0  0  0  0  0
   -7.3817    1.3709   12.9207 C   0  0  2  0  0  0  0  0  0  0  0  0
   -7.6355    6.7796   18.8833 C   0  0  2  0  0  0  0  0  0  0  0  0
   -7.9677    6.1396   20.1143 O   0  0  0  0  0  0  0  0  0  0  0  0
   -6.3622    0.5852   13.6375 C   0  0  1  0  0  0  0  0  0  0  0  0
   -8.9061    7.0188   18.0754 C   0  0  0  0  0  0  0  0  0  0  0  0
   -9.5826    5.7739   17.8892 O   0  0  0  0  0  0  0  0  0  0  0  0
   -6.2174   -0.8406   13.2936 C   0  0  0  0  0  0  0  0  0  0  0  0
   -5.2956   -1.6137   13.9219 O   0  0  0  0  0  0  0  0  0  0  0  0
   -5.7620    1.4176   14.4953 N   0  0  0  0  0  0  0  0  0  0  0  0
   -6.3456    2.6429   14.3482 C   0  0  0  0  0  0  0  0  0  0  0  0
   -7.3148    2.6203   13.4093 N   0  0  1  0  0  0  0  0  0  0  0  0
   -6.9787   -0.0340   19.1749 N   0  0  0  0  0  0  0  0  0  0  0  0
  -11.1216    3.8585   16.5653 O   0  5  0  0  0  0  0  0  0  0  0  0
   -6.0646    0.9423   18.9214 C   0  0  2  0  0  0  0  0  0  0  0  0
   -4.9210    0.6249   18.2601 N   0  0  0  0  0  0  0  0  0  0  0  0
  -12.0438    6.5820   16.9776 O   0  0  0  0  0  0  0  0  0  0  0  0
   -6.2594    2.2317   19.3110 N   0  0  0  0  0  0  0  0  0  0  0  0
   -7.3751    2.6078   19.9787 C   0  0  2  0  0  0  0  0  0  0  0  0
   -8.3998    1.5990   20.2790 C   0  0  2  0  0  0  0  0  0  0  0  0
   -8.1345    0.2170   19.8254 C   0  0  0  0  0  0  0  0  0  0  0  0
   -9.0233   -0.7810   20.0547 O   0  0  0  0  0  0  0  0  0  0  0  0
   -9.3914    2.2390   20.9297 N   0  0  0  0  0  0  0  0  0  0  0  0
   -9.0275    3.5514   21.0405 C   0  0  0  0  0  0  0  0  0  0  0  0
   -7.8216    3.7663   20.4674 N   0  0  1  0  0  0  0  0  0  0  0  0
  1  3  1  1  0  0  0
  1  4  2  0  0  0  0
  1  6  1  0  0  0  0
  1 22  1  0  0  0  0
  2 28  1  0  0  0  0
  2 35  1  6  0  0  0
  2 38  2  0  0  0  0
  2 10  1  0  0  0  0
  5  6  1  0  0  0  0
  7  5  1  1  0  0  0
  7  8  1  0  0  0  0
  7  9  1  0  0  0  0
  9 10  1  6  0  0  0
  9 11  1  0  0  0  0
 11 12  1  6  0  0  0
 11 13  1  0  0  0  0
 13  8  1  1  0  0  0
 13 33  1  0  0  0  0
 14 46  1  0  0  0  0
 14 17  1  0  0  0  0
 14 25  1  6  0  0  0
 15 16  1  0  0  0  0
 15 29  1  0  0  0  0
 16 18  1  1  0  0  0
 16 21  1  0  0  0  0
 17 19  1  1  0  0  0
 17 20  1  0  0  0  0
 20 22  1  1  0  0  0
 20 24  1  0  0  0  0
 23 21  1  1  0  0  0
 23 26  1  0  0  0  0
 23 33  1  0  0  0  0
 24 25  1  1  0  0  0
 24 27  1  0  0  0  0
 26 29  1  6  0  0  0
 26 31  1  0  0  0  0
 27 28  1  0  0  0  0
 29 30  2  0  0  0  0
 31 32  1  0  0  0  0
 33 32  1  6  0  0  0
 34 36  1  0  0  0  0
 34 42  1  0  0  0  0
 36 37  1  1  0  0  0
 36 39  1  0  0  0  0
 40 39  1  6  0  0  0
 40 41  1  0  0  0  0
 40 46  1  0  0  0  0
 41 42  1  6  0  0  0
 41 44  1  0  0  0  0
 42 43  2  0  0  0  0
 44 45  1  0  0  0  0
 46 45  1  1  0  0  0
M  CHG  2   3  -1  35  -1
M  END
>  <CHROM.1>
-141.71958771,21.24361643,-7.50188554,3.57830412,16.47994529,1.88319060,-1.42173857
1.23216661

>  <Name>
ligand

>  <RI>
-1

>  <Rbt.Current_Directory>
/home/itssahil/PROJECTS/Mol_Feturizer/Test_systems_manuscript/rnas/3mum

>  <Rbt.Executable>
rbdock ($Id: //depot/dev/client3/rdock/2013.1/src/exe/rbdock.cxx#4 $)

>  <Rbt.Library>
libRbt.so (2013.1, Build901 2013/11/27)

>  <Rbt.Parameter_File>
/export/apps/rDock/src/rDock_2013.1_src/data/scripts/dock_solv.prm

>  <Rbt.Receptor>
prm/pocket_docking_4.prm

>  <SCORE>
-11.8783

>  <SCORE.INTER>
-12.6488

>  <SCORE.INTER.CONST>
1

>  <SCORE.INTER.POLAR>
0

>  <SCORE.INTER.ROT>
2

>  <SCORE.INTER.SOLV>
29.2874

>  <SCORE.INTER.VDW>
-23.1284

>  <SCORE.INTER.norm>
-0.274975

>  <SCORE.INTRA>
0.715487

>  <SCORE.INTRA.DIHEDRAL>
-0.0253931

>  <SCORE.INTRA.DIHEDRAL.0>
2.40424

>  <SCORE.INTRA.POLAR>
0

>  <SCORE.INTRA.POLAR.0>
0

>  <SCORE.INTRA.REPUL>
0

>  <SCORE.INTRA.REPUL.0>
0

>  <SCORE.INTRA.SOLV>
0.73814

>  <SCORE.INTRA.SOLV.lig_0>
-134.169

>  <SCORE.INTRA.VDW>
0.359113

>  <SCORE.INTRA.VDW.0>
-2.18386

>  <SCORE.INTRA.norm>
0.0155541

>  <SCORE.RESTR>
0.0550663

>  <SCORE.RESTR.CAVITY>
0.0550663

>  <SCORE.RESTR.norm>
0.00119709

>  <SCORE.SYSTEM>
0

>  <SCORE.SYSTEM.CONST>
0

>  <SCORE.SYSTEM.DIHEDRAL>
0

>  <SCORE.SYSTEM.SOLV>
0

>  <SCORE.SYSTEM.norm>
0

>  <SCORE.heavy>
46

>  <SCORE.norm>
-0.258224

>  <RMSD>
3.277

$$$$
ligand
 OpenBabel02271912143D
libRbt.so/2013.1/901 2013/11/27
 46 52  0  0  0  0  0  0  0  0999 V2000
   -9.7737    5.5333   16.8171 P   0  0  1  0  0  0  0  0  0  0  0  0
   -3.9266    5.2044   16.2018 P   0  0  2  0  0  0  0  0  0  0  0  0
  -10.4829    3.9088   16.8150 O   0  5  0  0  0  0  0  0  0  0  0  0
  -11.0065    6.7887   17.1062 O   0  0  0  0  0  0  0  0  0  0  0  0
   -7.8172    6.7469   18.1296 C   0  0  0  0  0  0  0  0  0  0  0  0
   -8.6388    5.5915   17.9607 O   0  0  0  0  0  0  0  0  0  0  0  0
   -6.5746    6.3480   18.9025 C   0  0  1  0  0  0  0  0  0  0  0  0
   -6.9587    5.6824   20.1139 O   0  0  0  0  0  0  0  0  0  0  0  0
   -5.6947    5.3589   18.1555 C   0  0  1  0  0  0  0  0  0  0  0  0
   -4.7058    6.0119   17.3626 O   0  0  0  0  0  0  0  0  0  0  0  0
   -5.0760    4.5362   19.2719 C   0  0  1  0  0  0  0  0  0  0  0  0
   -3.8664    5.1515   19.7221 O   0  0  0  0  0  0  0  0  0  0  0  0
   -6.0891    4.5760   20.4009 C   0  0  2  0  0  0  0  0  0  0  0  0
   -7.6659    3.5038   13.0868 C   0  0  1  0  0  0  0  0  0  0  0  0
  -10.8485    2.2433   20.0863 N   0  0  0  0  0  0  0  0  0  0  0  0
  -10.5319    3.5629   19.9822 C   0  0  1  0  0  0  0  0  0  0  0  0
   -8.6072    3.7699   14.2271 C   0  0  2  0  0  0  0  0  0  0  0  0
  -11.5343    4.4464   19.7699 N   0  0  0  0  0  0  0  0  0  0  0  0
   -9.8630    4.1184   13.6417 O   0  0  0  0  0  0  0  0  0  0  0  0
   -7.9864    4.9317   14.9772 C   0  0  2  0  0  0  0  0  0  0  0  0
   -9.2509    4.0265   20.0861 N   0  0  0  0  0  0  0  0  0  0  0  0
   -8.9727    5.8363   15.4549 O   0  0  0  0  0  0  0  0  0  0  0  0
   -8.2104    3.1811   20.2968 C   0  0  2  0  0  0  0  0  0  0  0  0
   -7.0980    5.6210   13.9603 C   0  0  2  0  0  0  0  0  0  0  0  0
   -6.8179    4.6443   12.9589 O   0  0  0  0  0  0  0  0  0  0  0  0
   -8.4988    1.7416   20.4202 C   0  0  1  0  0  0  0  0  0  0  0  0
   -5.7897    6.1230   14.5610 C   0  0  0  0  0  0  0  0  0  0  0  0
   -5.0485    5.0093   15.0634 O   0  0  0  0  0  0  0  0  0  0  0  0
   -9.9004    1.3024   20.2987 C   0  0  0  0  0  0  0  0  0  0  0  0
  -10.2255   -0.0110   20.4050 O   0  0  0  0  0  0  0  0  0  0  0  0
   -7.3289    1.1271   20.6273 N   0  0  0  0  0  0  0  0  0  0  0  0
   -6.3608    2.0895   20.6389 C   0  0  0  0  0  0  0  0  0  0  0  0
   -6.8823    3.3189   20.4428 N   0  0  1  0  0  0  0  0  0  0  0  0
   -7.2290   -1.6119   12.0832 N   0  0  0  0  0  0  0  0  0  0  0  0
   -3.3448    3.6226   16.7851 O   0  5  0  0  0  0  0  0  0  0  0  0
   -8.1558   -0.7149   11.6482 C   0  0  2  0  0  0  0  0  0  0  0  0
   -9.1472   -1.1344   10.8193 N   0  0  0  0  0  0  0  0  0  0  0  0
   -2.5717    6.1114   15.5019 O   0  0  0  0  0  0  0  0  0  0  0  0
   -8.1214    0.5946   12.0176 N   0  0  0  0  0  0  0  0  0  0  0  0
   -7.1551    1.0734   12.8355 C   0  0  2  0  0  0  0  0  0  0  0  0
   -6.1280    0.1525   13.3402 C   0  0  2  0  0  0  0  0  0  0  0  0
   -6.2212   -1.2587   12.9090 C   0  0  0  0  0  0  0  0  0  0  0  0
   -5.3199   -2.1822   13.3254 O   0  0  0  0  0  0  0  0  0  0  0  0
   -5.3118    0.8801   14.1281 N   0  0  0  0  0  0  0  0  0  0  0  0
   -5.7775    2.1646   14.1238 C   0  0  0  0  0  0  0  0  0  0  0  0
   -6.8819    2.2735   13.3509 N   0  0  1  0  0  0  0  0  0  0  0  0
  1  3  1  6  0  0  0
  1  4  2  0  0  0  0
  1  6  1  0  0  0  0
  1 22  1  0  0  0  0
  2 28  1  0  0  0  0
  2 35  1  1  0  0  0
  2 38  2  0  0  0  0
  2 10  1  0  0  0  0
  5  6  1  0  0  0  0
  7  5  1  6  0  0  0
  7  8  1  0  0  0  0
  7  9  1  0  0  0  0
  9 10  1  1  0  0  0
  9 11  1  0  0  0  0
 11 12  1  1  0  0  0
 11 13  1  0  0  0  0
 13  8  1  6  0  0  0
 13 33  1  0  0  0  0
 14 46  1  0  0  0  0
 14 17  1  0  0  0  0
 14 25  1  1  0  0  0
 15 16  1  0  0  0  0
 15 29  1  0  0  0  0
 16 18  1  1  0  0  0
 16 21  1  0  0  0  0
 17 19  1  6  0  0  0
 17 20  1  0  0  0  0
 20 22  1  6  0  0  0
 20 24  1  0  0  0  0
 23 21  1  1  0  0  0
 23 26  1  0  0  0  0
 23 33  1  0  0  0  0
 24 25  1  6  0  0  0
 24 27  1  0  0  0  0
 26 29  1  6  0  0  0
 26 31  1  0  0  0  0
 27 28  1  0  0  0  0
 29 30  2  0  0  0  0
 31 32  1  0  0  0  0
 33 32  1  6  0  0  0
 34 36  1  0  0  0  0
 34 42  1  0  0  0  0
 36 37  1  6  0  0  0
 36 39  1  0  0  0  0
 40 39  1  1  0  0  0
 40 41  1  0  0  0  0
 40 46  1  0  0  0  0
 41 42  1  1  0  0  0
 41 44  1  0  0  0  0
 42 43  2  0  0  0  0
 44 45  1  0  0  0  0
 46 45  1  6  0  0  0
M  CHG  2   3  -1  35  -1
M  END
>  <CHROM.1>
-2.50331776,99.60241976,-7.33257360,3.48924113,16.53566159,1.74131944,0.67904916
0.96297694

>  <Name>
ligand

>  <RI>
-1

>  <Rbt.Current_Directory>
/home/itssahil/PROJECTS/Mol_Feturizer/Test_systems_manuscript/rnas/3mum

>  <Rbt.Executable>
rbdock ($Id: //depot/dev/client3/rdock/2013.1/src/exe/rbdock.cxx#4 $)

>  <Rbt.Library>
libRbt.so (2013.1, Build901 2013/11/27)

>  <Rbt.Parameter_File>
/export/apps/rDock/src/rDock_2013.1_src/data/scripts/dock_solv.prm

>  <Rbt.Receptor>
prm/pocket_docking_8.prm

>  <SCORE>
-22.8741

>  <SCORE.INTER>
-24.3524

>  <SCORE.INTER.CONST>
1

>  <SCORE.INTER.POLAR>
0

>  <SCORE.INTER.ROT>
2

>  <SCORE.INTER.SOLV>
25.4469

>  <SCORE.INTER.VDW>
-29.6506

>  <SCORE.INTER.norm>
-0.5294

>  <SCORE.INTRA>
1.43825

>  <SCORE.INTRA.DIHEDRAL>
0.0207018

>  <SCORE.INTRA.DIHEDRAL.0>
2.40424

>  <SCORE.INTRA.POLAR>
0

>  <SCORE.INTRA.POLAR.0>
0

>  <SCORE.INTRA.REPUL>
0

>  <SCORE.INTRA.REPUL.0>
0

>  <SCORE.INTRA.SOLV>
6.34997

>  <SCORE.INTRA.SOLV.lig_0>
-134.169

>  <SCORE.INTRA.VDW>
-1.74709

>  <SCORE.INTRA.VDW.0>
-2.18386

>  <SCORE.INTRA.norm>
0.0312663

>  <SCORE.RESTR>
0.0400826

>  <SCORE.RESTR.CAVITY>
0.0400826

>  <SCORE.RESTR.norm>
0.00087136

>  <SCORE.SYSTEM>
0

>  <SCORE.SYSTEM.CONST>
0

>  <SCORE.SYSTEM.DIHEDRAL>
0

>  <SCORE.SYSTEM.SOLV>
0

>  <SCORE.SYSTEM.norm>
0

>  <SCORE.heavy>
46

>  <SCORE.norm>
-0.497262

>  <RMSD>
3.474

$$$$
ligand
 OpenBabel02271912143D
libRbt.so/2013.1/901 2013/11/27
 46 52  0  0  0  0  0  0  0  0999 V2000
   -9.9636    5.5266   16.8248 P   0  0  1  0  0  0  0  0  0  0  0  0
   -4.1137    5.3785   16.1672 P   0  0  2  0  0  0  0  0  0  0  0  0
  -10.6202    3.8804   16.8463 O   0  5  0  0  0  0  0  0  0  0  0  0
  -11.2339    6.7450   17.1098 O   0  0  0  0  0  0  0  0  0  0  0  0
   -8.0374    6.8171   18.1084 C   0  0  0  0  0  0  0  0  0  0  0  0
   -8.8226    5.6341   17.9587 O   0  0  0  0  0  0  0  0  0  0  0  0
   -6.7768    6.4670   18.8759 C   0  0  1  0  0  0  0  0  0  0  0  0
   -7.1302    5.8031   20.0975 O   0  0  0  0  0  0  0  0  0  0  0  0
   -5.8712    5.4983   18.1330 C   0  0  1  0  0  0  0  0  0  0  0  0
   -4.9097    6.1736   17.3252 O   0  0  0  0  0  0  0  0  0  0  0  0
   -5.2180    4.7084   19.2535 C   0  0  1  0  0  0  0  0  0  0  0  0
   -4.0254    5.3672   19.6873 O   0  0  0  0  0  0  0  0  0  0  0  0
   -6.2233    4.7284   20.3899 C   0  0  2  0  0  0  0  0  0  0  0  0
   -7.8197    3.5237   13.1007 C   0  0  1  0  0  0  0  0  0  0  0  0
  -10.9095    2.2429   20.1554 N   0  0  0  0  0  0  0  0  0  0  0  0
  -10.6364    3.5710   20.0368 C   0  0  1  0  0  0  0  0  0  0  0  0
   -8.7606    3.7724   14.2454 C   0  0  2  0  0  0  0  0  0  0  0  0
  -11.6693    4.4204   19.8307 N   0  0  0  0  0  0  0  0  0  0  0  0
  -10.0313    4.0738   13.6661 O   0  0  0  0  0  0  0  0  0  0  0  0
   -8.1718    4.9619   14.9777 C   0  0  2  0  0  0  0  0  0  0  0  0
   -9.3697    4.0760   20.1205 N   0  0  0  0  0  0  0  0  0  0  0  0
   -9.1830    5.8398   15.4531 O   0  0  0  0  0  0  0  0  0  0  0  0
   -8.3002    3.2659   20.3242 C   0  0  2  0  0  0  0  0  0  0  0  0
   -7.3136    5.6678   13.9463 C   0  0  2  0  0  0  0  0  0  0  0  0
   -7.0098    4.6893   12.9536 O   0  0  0  0  0  0  0  0  0  0  0  0
   -8.5408    1.8191   20.4627 C   0  0  1  0  0  0  0  0  0  0  0  0
   -6.0177    6.2183   14.5311 C   0  0  0  0  0  0  0  0  0  0  0  0
   -5.2373    5.1347   15.0399 O   0  0  0  0  0  0  0  0  0  0  0  0
   -9.9291    1.3344   20.3628 C   0  0  0  0  0  0  0  0  0  0  0  0
  -10.2107    0.0123   20.4835 O   0  0  0  0  0  0  0  0  0  0  0  0
   -7.3494    1.2439   20.6593 N   0  0  0  0  0  0  0  0  0  0  0  0
   -6.4125    2.2367   20.6508 C   0  0  0  0  0  0  0  0  0  0  0  0
   -6.9754    3.4471   20.4519 N   0  0  1  0  0  0  0  0  0  0  0  0
   -7.1369   -1.5517   12.0320 N   0  0  0  0  0  0  0  0  0  0  0  0
   -3.4770    3.8228   16.7633 O   0  5  0  0  0  0  0  0  0  0  0  0
   -8.0850   -0.6860   11.5796 C   0  0  2  0  0  0  0  0  0  0  0  0
   -9.0295   -1.1315   10.7105 N   0  0  0  0  0  0  0  0  0  0  0  0
   -2.7940    6.3204   15.4467 O   0  0  0  0  0  0  0  0  0  0  0  0
   -8.1176    0.6172   11.9706 N   0  0  0  0  0  0  0  0  0  0  0  0
   -7.2001    1.1211   12.8288 C   0  0  2  0  0  0  0  0  0  0  0  0
   -6.1533    0.2345   13.3540 C   0  0  2  0  0  0  0  0  0  0  0  0
   -6.1732   -1.1717   12.8975 C   0  0  0  0  0  0  0  0  0  0  0  0
   -5.2489   -2.0645   13.3301 O   0  0  0  0  0  0  0  0  0  0  0  0
   -5.3951    0.9813   14.1809 N   0  0  0  0  0  0  0  0  0  0  0  0
   -5.9134    2.2455   14.1809 C   0  0  0  0  0  0  0  0  0  0  0  0
   -6.9946    2.3223   13.3722 N   0  0  1  0  0  0  0  0  0  0  0  0
  1  3  1  6  0  0  0
  1  4  2  0  0  0  0
  1  6  1  0  0  0  0
  1 22  1  0  0  0  0
  2 28  1  0  0  0  0
  2 35  1  1  0  0  0
  2 38  2  0  0  0  0
  2 10  1  0  0  0  0
  5  6  1  0  0  0  0
  7  5  1  6  0  0  0
  7  8  1  0  0  0  0
  7  9  1  0  0  0  0
  9 10  1  1  0  0  0
  9 11  1  0  0  0  0
 11 12  1  1  0  0  0
 11 13  1  0  0  0  0
 13  8  1  6  0  0  0
 13 33  1  0  0  0  0
 14 46  1  0  0  0  0
 14 17  1  0  0  0  0
 14 25  1  1  0  0  0
 15 16  1  0  0  0  0
 15 29  1  0  0  0  0
 16 18  1  1  0  0  0
 16 21  1  0  0  0  0
 17 19  1  6  0  0  0
 17 20  1  0  0  0  0
 20 22  1  6  0  0  0
 20 24  1  0  0  0  0
 23 21  1  1  0  0  0
 23 26  1  0  0  0  0
 23 33  1  0  0  0  0
 24 25  1  6  0  0  0
 24 27  1  0  0  0  0
 26 29  1  6  0  0  0
 26 31  1  0  0  0  0
 27 28  1  0  0  0  0
 29 30  2  0  0  0  0
 31 32  1  0  0  0  0
 33 32  1  6  0  0  0
 34 36  1  0  0  0  0
 34 42  1  0  0  0  0
 36 37  1  6  0  0  0
 36 39  1  0  0  0  0
 40 39  1  1  0  0  0
 40 41  1  0  0  0  0
 40 46  1  0  0  0  0
 41 42  1  1  0  0  0
 41 44  1  0  0  0  0
 42 43  2  0  0  0  0
 44 45  1  0  0  0  0
 46 45  1  6  0  0  0
M  CHG  2   3  -1  35  -1
M  END
>  <CHROM.1>
-2.85070048,102.52377095,-7.45064891,3.56286288,16.53568082,1.76922346,0.70596662
0.94410006

>  <Name>
ligand

>  <RI>
-1

>  <Rbt.Current_Directory>
/home/itssahil/PROJECTS/Mol_Feturizer/Test_systems_manuscript/rnas/3mum

>  <Rbt.Executable>
rbdock ($Id: //depot/dev/client3/rdock/2013.1/src/exe/rbdock.cxx#4 $)

>  <Rbt.Library>
libRbt.so (2013.1, Build901 2013/11/27)

>  <Rbt.Parameter_File>
/export/apps/rDock/src/rDock_2013.1_src/data/scripts/dock_solv.prm

>  <Rbt.Receptor>
prm/pocket_docking_5.prm

>  <SCORE>
-22.9174

>  <SCORE.INTER>
-24.3715

>  <SCORE.INTER.CONST>
1

>  <SCORE.INTER.POLAR>
0

>  <SCORE.INTER.ROT>
2

>  <SCORE.INTER.SOLV>
26.2255

>  <SCORE.INTER.VDW>
-29.9228

>  <SCORE.INTER.norm>
-0.529815

>  <SCORE.INTRA>
1.37728

>  <SCORE.INTRA.DIHEDRAL>
0.0185422

>  <SCORE.INTRA.DIHEDRAL.0>
2.40424

>  <SCORE.INTRA.POLAR>
0

>  <SCORE.INTRA.POLAR.0>
0

>  <SCORE.INTRA.REPUL>
0

>  <SCORE.INTRA.REPUL.0>
0

>  <SCORE.INTRA.SOLV>
6.20955

>  <SCORE.INTRA.SOLV.lig_0>
-134.169

>  <SCORE.INTRA.VDW>
-1.73677

>  <SCORE.INTRA.VDW.0>
-2.18386

>  <SCORE.INTRA.norm>
0.0299409

>  <SCORE.RESTR>
0.0768055

>  <SCORE.RESTR.CAVITY>
0.0768055

>  <SCORE.RESTR.norm>
0.00166968

>  <SCORE.SYSTEM>
0

>  <SCORE.SYSTEM.CONST>
0

>  <SCORE.SYSTEM.DIHEDRAL>
0

>  <SCORE.SYSTEM.SOLV>
0

>  <SCORE.SYSTEM.norm>
0

>  <SCORE.heavy>
46

>  <SCORE.norm>
-0.498204

>  <RMSD>
3.512

$$$$
ligand
 OpenBabel02271912143D
libRbt.so/2013.1/901 2013/11/27
 46 52  0  0  0  0  0  0  0  0999 V2000
   -4.1285    5.9717   16.5642 P   0  0  1  0  0  0  0  0  0  0  0  0
   -9.9646    5.8656   17.3424 P   0  0  2  0  0  0  0  0  0  0  0  0
   -3.4207    4.4117   17.0191 O   0  5  0  0  0  0  0  0  0  0  0  0
   -2.8999    7.0851   15.9083 O   0  0  0  0  0  0  0  0  0  0  0  0
   -6.1063    6.7705   14.9913 C   0  0  0  0  0  0  0  0  0  0  0  0
   -5.2829    5.7070   15.4702 O   0  0  0  0  0  0  0  0  0  0  0  0
   -7.3623    6.1744   14.3850 C   0  0  1  0  0  0  0  0  0  0  0  0
   -6.9995    5.1881   13.4085 O   0  0  0  0  0  0  0  0  0  0  0  0
   -8.2300    5.4451   15.3977 C   0  0  1  0  0  0  0  0  0  0  0  0
   -9.2047    6.3031   15.9867 O   0  0  0  0  0  0  0  0  0  0  0  0
   -8.8684    4.3411   14.5733 C   0  0  1  0  0  0  0  0  0  0  0  0
  -10.0851    4.8088   13.9857 O   0  0  0  0  0  0  0  0  0  0  0  0
   -7.8748    4.0507   13.4639 C   0  0  2  0  0  0  0  0  0  0  0  0
   -6.1737    5.1052   20.7526 C   0  0  1  0  0  0  0  0  0  0  0  0
   -6.8718   -1.0513   12.3888 N   0  0  0  0  0  0  0  0  0  0  0  0
   -7.7763   -0.2150   11.8104 C   0  0  1  0  0  0  0  0  0  0  0  0
   -5.2519    5.0289   19.5688 C   0  0  2  0  0  0  0  0  0  0  0  0
   -8.5553   -0.7032   10.8177 N   0  0  0  0  0  0  0  0  0  0  0  0
   -3.9860    5.5231   20.0096 O   0  0  0  0  0  0  0  0  0  0  0  0
   -5.8846    5.9313   18.5280 C   0  0  2  0  0  0  0  0  0  0  0  0
   -7.9290    1.0878   12.1927 N   0  0  0  0  0  0  0  0  0  0  0  0
   -4.9059    6.6560   17.7956 O   0  0  0  0  0  0  0  0  0  0  0  0
   -7.1709    1.6256   13.1814 C   0  0  2  0  0  0  0  0  0  0  0  0
   -6.7549    6.8875   19.3196 C   0  0  2  0  0  0  0  0  0  0  0  0
   -7.0186    6.2394   20.5628 O   0  0  0  0  0  0  0  0  0  0  0  0
   -6.1779    0.7618   13.8434 C   0  0  1  0  0  0  0  0  0  0  0  0
   -8.0728    7.2043   18.6216 C   0  0  0  0  0  0  0  0  0  0  0  0
   -8.8234    5.9977   18.4707 O   0  0  0  0  0  0  0  0  0  0  0  0
   -6.0594   -0.6345   13.3868 C   0  0  0  0  0  0  0  0  0  0  0  0
   -5.1627   -1.4763   13.9606 O   0  0  0  0  0  0  0  0  0  0  0  0
   -5.5710    1.5085   14.7725 N   0  0  0  0  0  0  0  0  0  0  0  0
   -6.1261    2.7545   14.7187 C   0  0  0  0  0  0  0  0  0  0  0  0
   -7.0834    2.8296   13.7703 N   0  0  1  0  0  0  0  0  0  0  0  0
   -7.0891    0.3995   18.6582 N   0  0  0  0  0  0  0  0  0  0  0  0
  -10.5575    4.1863   17.2453 O   0  5  0  0  0  0  0  0  0  0  0  0
   -6.2361    1.3811   18.2560 C   0  0  2  0  0  0  0  0  0  0  0  0
   -5.4666    1.1809   17.1543 N   0  0  0  0  0  0  0  0  0  0  0  0
  -11.3065    6.9424   17.7757 O   0  0  0  0  0  0  0  0  0  0  0  0
   -6.1277    2.5615   18.9247 N   0  0  0  0  0  0  0  0  0  0  0  0
   -6.8627    2.8167   20.0324 C   0  0  2  0  0  0  0  0  0  0  0  0
   -7.8035    1.7965   20.5139 C   0  0  2  0  0  0  0  0  0  0  0  0
   -7.8812    0.5375   19.7426 C   0  0  0  0  0  0  0  0  0  0  0  0
   -8.7224   -0.4608   20.1091 O   0  0  0  0  0  0  0  0  0  0  0  0
   -8.4017    2.3095   21.6072 N   0  0  0  0  0  0  0  0  0  0  0  0
   -7.8814    3.5565   21.8109 C   0  0  0  0  0  0  0  0  0  0  0  0
   -6.9632    3.8552   20.8641 N   0  0  1  0  0  0  0  0  0  0  0  0
  1  3  1  1  0  0  0
  1  4  2  0  0  0  0
  1  6  1  0  0  0  0
  1 22  1  0  0  0  0
  2 28  1  0  0  0  0
  2 35  1  6  0  0  0
  2 38  2  0  0  0  0
  2 10  1  0  0  0  0
  5  6  1  0  0  0  0
  7  5  1  1  0  0  0
  7  8  1  0  0  0  0
  7  9  1  0  0  0  0
  9 10  1  6  0  0  0
  9 11  1  0  0  0  0
 11 12  1  6  0  0  0
 11 13  1  0  0  0  0
 13  8  1  1  0  0  0
 13 33  1  0  0  0  0
 14 46  1  0  0  0  0
 14 17  1  0  0  0  0
 14 25  1  6  0  0  0
 15 16  1  0  0  0  0
 15 29  1  0  0  0  0
 16 18  1  1  0  0  0
 16 21  1  0  0  0  0
 17 19  1  1  0  0  0
 17 20  1  0  0  0  0
 20 22  1  1  0  0  0
 20 24  1  0  0  0  0
 23 21  1  1  0  0  0
 23 26  1  0  0  0  0
 23 33  1  0  0  0  0
 24 25  1  1  0  0  0
 24 27  1  0  0  0  0
 26 29  1  6  0  0  0
 26 31  1  0  0  0  0
 27 28  1  0  0  0  0
 29 30  2  0  0  0  0
 31 32  1  0  0  0  0
 33 32  1  6  0  0  0
 34 36  1  0  0  0  0
 34 42  1  0  0  0  0
 36 37  1  1  0  0  0
 36 39  1  0  0  0  0
 40 39  1  6  0  0  0
 40 41  1  0  0  0  0
 40 46  1  0  0  0  0
 41 42  1  6  0  0  0
 41 44  1  0  0  0  0
 42 43  2  0  0  0  0
 44 45  1  0  0  0  0
 46 45  1  1  0  0  0
M  CHG  2   3  -1  35  -1
M  END
>  <CHROM.1>
-135.10985100,0.12245891,-7.02528942,3.78032644,16.75002745,-0.55499049,-1.55108942
-1.19170710

>  <Name>
ligand

>  <RI>
-1

>  <Rbt.Current_Directory>
/home/itssahil/PROJECTS/Mol_Feturizer/Test_systems_manuscript/rnas/3mum

>  <Rbt.Executable>
rbdock ($Id: //depot/dev/client3/rdock/2013.1/src/exe/rbdock.cxx#4 $)

>  <Rbt.Library>
libRbt.so (2013.1, Build901 2013/11/27)

>  <Rbt.Parameter_File>
/export/apps/rDock/src/rDock_2013.1_src/data/scripts/dock_solv.prm

>  <Rbt.Receptor>
prm/pocket_docking_4.prm

>  <SCORE>
-13.0244

>  <SCORE.INTER>
-16.2673

>  <SCORE.INTER.CONST>
1

>  <SCORE.INTER.POLAR>
0

>  <SCORE.INTER.ROT>
2

>  <SCORE.INTER.SOLV>
26.4379

>  <SCORE.INTER.VDW>
-24.5909

>  <SCORE.INTER.norm>
-0.353638

>  <SCORE.INTRA>
3.22907

>  <SCORE.INTRA.DIHEDRAL>
-0.00120488

>  <SCORE.INTRA.DIHEDRAL.0>
2.40424

>  <SCORE.INTRA.POLAR>
0

>  <SCORE.INTRA.POLAR.0>
0

>  <SCORE.INTRA.REPUL>
0

>  <SCORE.INTRA.REPUL.0>
0

>  <SCORE.INTRA.SOLV>
4.13701

>  <SCORE.INTRA.SOLV.lig_0>
-134.169

>  <SCORE.INTRA.VDW>
1.16116

>  <SCORE.INTRA.VDW.0>
-2.18386

>  <SCORE.INTRA.norm>
0.0701971

>  <SCORE.RESTR>
0.0138702

>  <SCORE.RESTR.CAVITY>
0.0138702

>  <SCORE.RESTR.norm>
0.000301526

>  <SCORE.SYSTEM>
0

>  <SCORE.SYSTEM.CONST>
0

>  <SCORE.SYSTEM.DIHEDRAL>
0

>  <SCORE.SYSTEM.SOLV>
0

>  <SCORE.SYSTEM.norm>
0

>  <SCORE.heavy>
46

>  <SCORE.norm>
-0.283139

>  <RMSD>
3.572

$$$$
ligand
 OpenBabel02271912143D
libRbt.so/2013.1/901 2013/11/27
 46 52  0  0  0  0  0  0  0  0999 V2000
   -4.0441    6.5823   17.2541 P   0  0  1  0  0  0  0  0  0  0  0  0
   -9.2250    7.7078   14.6913 P   0  0  2  0  0  0  0  0  0  0  0  0
   -4.0527    4.9600   17.9681 O   0  5  0  0  0  0  0  0  0  0  0  0
   -2.4513    7.3660   17.4214 O   0  0  0  0  0  0  0  0  0  0  0  0
   -4.6220    7.6136   14.8822 C   0  0  0  0  0  0  0  0  0  0  0  0
   -4.4430    6.4551   15.6972 O   0  0  0  0  0  0  0  0  0  0  0  0
   -5.4396    7.2269   13.6647 C   0  0  1  0  0  0  0  0  0  0  0  0
   -4.8267    6.1046   13.0145 O   0  0  0  0  0  0  0  0  0  0  0  0
   -6.8510    6.7784   14.0071 C   0  0  1  0  0  0  0  0  0  0  0  0
   -7.7774    7.8622   13.9930 O   0  0  0  0  0  0  0  0  0  0  0  0
   -7.1584    5.7537   12.9293 C   0  0  1  0  0  0  0  0  0  0  0  0
   -7.7255    6.3992   11.7864 O   0  0  0  0  0  0  0  0  0  0  0  0
   -5.8116    5.1734   12.5395 C   0  0  2  0  0  0  0  0  0  0  0  0
   -8.1666    6.5187   19.5947 C   0  0  1  0  0  0  0  0  0  0  0  0
   -6.8904   -0.0248   12.6242 N   0  0  0  0  0  0  0  0  0  0  0  0
   -7.3460    0.9316   11.7698 C   0  0  1  0  0  0  0  0  0  0  0  0
   -6.7915    6.1549   19.1109 C   0  0  2  0  0  0  0  0  0  0  0  0
   -8.1971    0.5580   10.7865 N   0  0  0  0  0  0  0  0  0  0  0  0
   -5.8978    6.4253   20.1922 O   0  0  0  0  0  0  0  0  0  0  0  0
   -6.5450    7.0679   17.9262 C   0  0  2  0  0  0  0  0  0  0  0  0
   -6.9823    2.2450   11.8679 N   0  0  0  0  0  0  0  0  0  0  0  0
   -5.1970    7.5151   17.8785 O   0  0  0  0  0  0  0  0  0  0  0  0
   -6.1301    2.6699   12.8347 C   0  0  2  0  0  0  0  0  0  0  0  0
   -7.4757    8.2450   18.1419 C   0  0  2  0  0  0  0  0  0  0  0  0
   -8.5049    7.7764   19.0117 O   0  0  0  0  0  0  0  0  0  0  0  0
   -5.6096    1.6749   13.7884 C   0  0  1  0  0  0  0  0  0  0  0  0
   -8.0975    8.7534   16.8460 C   0  0  0  0  0  0  0  0  0  0  0  0
   -8.8840    7.7113   16.2649 O   0  0  0  0  0  0  0  0  0  0  0  0
   -6.0380    0.2735   13.6312 C   0  0  0  0  0  0  0  0  0  0  0  0
   -5.5915   -0.6860   14.4809 O   0  0  0  0  0  0  0  0  0  0  0  0
   -4.8079    2.3302   14.6350 N   0  0  0  0  0  0  0  0  0  0  0  0
   -4.8094    3.6434   14.2621 C   0  0  0  0  0  0  0  0  0  0  0  0
   -5.5988    3.8520   13.1874 N   0  0  1  0  0  0  0  0  0  0  0  0
   -9.4940    1.4889   20.1488 N   0  0  0  0  0  0  0  0  0  0  0  0
  -10.0145    6.1780   14.2251 O   0  5  0  0  0  0  0  0  0  0  0  0
   -8.4456    2.1766   20.6787 C   0  0  2  0  0  0  0  0  0  0  0  0
   -7.5694    1.5288   21.4902 N   0  0  0  0  0  0  0  0  0  0  0  0
  -10.3176    9.0641   14.3529 O   0  0  0  0  0  0  0  0  0  0  0  0
   -8.2459    3.4981   20.4216 N   0  0  0  0  0  0  0  0  0  0  0  0
   -9.0879    4.1990   19.6267 C   0  0  2  0  0  0  0  0  0  0  0  0
  -10.2365    3.5105   19.0232 C   0  0  2  0  0  0  0  0  0  0  0  0
  -10.3977    2.0741   19.3345 C   0  0  0  0  0  0  0  0  0  0  0  0
  -11.4260    1.3546   18.8213 O   0  0  0  0  0  0  0  0  0  0  0  0
  -10.8898    4.4277   18.2826 N   0  0  0  0  0  0  0  0  0  0  0  0
  -10.2150    5.6093   18.4065 C   0  0  0  0  0  0  0  0  0  0  0  0
   -9.1365    5.4656   19.2097 N   0  0  1  0  0  0  0  0  0  0  0  0
  1  3  1  1  0  0  0
  1  4  2  0  0  0  0
  1  6  1  0  0  0  0
  1 22  1  0  0  0  0
  2 28  1  0  0  0  0
  2 35  1  6  0  0  0
  2 38  2  0  0  0  0
  2 10  1  0  0  0  0
  5  6  1  0  0  0  0
  7  5  1  1  0  0  0
  7  8  1  0  0  0  0
  7  9  1  0  0  0  0
  9 10  1  6  0  0  0
  9 11  1  0  0  0  0
 11 12  1  6  0  0  0
 11 13  1  0  0  0  0
 13  8  1  1  0  0  0
 13 33  1  0  0  0  0
 14 46  1  0  0  0  0
 14 17  1  0  0  0  0
 14 25  1  6  0  0  0
 15 16  1  0  0  0  0
 15 29  1  0  0  0  0
 16 18  1  1  0  0  0
 16 21  1  0  0  0  0
 17 19  1  1  0  0  0
 17 20  1  0  0  0  0
 20 22  1  1  0  0  0
 20 24  1  0  0  0  0
 23 21  1  1  0  0  0
 23 26  1  0  0  0  0
 23 33  1  0  0  0  0
 24 25  1  1  0  0  0
 24 27  1  0  0  0  0
 26 29  1  6  0  0  0
 26 31  1  0  0  0  0
 27 28  1  0  0  0  0
 29 30  2  0  0  0  0
 31 32  1  0  0  0  0
 33 32  1  6  0  0  0
 34 36  1  0  0  0  0
 34 42  1  0  0  0  0
 36 37  1  1  0  0  0
 36 39  1  0  0  0  0
 40 39  1  6  0  0  0
 40 41  1  0  0  0  0
 40 46  1  0  0  0  0
 41 42  1  6  0  0  0
 41 44  1  0  0  0  0
 42 43  2  0  0  0  0
 44 45  1  0  0  0  0
 46 45  1  1  0  0  0
M  CHG  2   3  -1  35  -1
M  END
>  <CHROM.1>
-166.22636230,62.38851962,-7.19391951,4.99713396,16.13060122,-2.36523109
-1.16102559,-2.63871004

>  <Name>
ligand

>  <RI>
-1

>  <Rbt.Current_Directory>
/home/itssahil/PROJECTS/Mol_Feturizer/Test_systems_manuscript/rnas/3mum

>  <Rbt.Executable>
rbdock ($Id: //depot/dev/client3/rdock/2013.1/src/exe/rbdock.cxx#4 $)

>  <Rbt.Library>
libRbt.so (2013.1, Build901 2013/11/27)

>  <Rbt.Parameter_File>
/export/apps/rDock/src/rDock_2013.1_src/data/scripts/dock_solv.prm

>  <Rbt.Receptor>
prm/pocket_docking_5.prm

>  <SCORE>
-16.9345

>  <SCORE.INTER>
-16.7962

>  <SCORE.INTER.CONST>
1

>  <SCORE.INTER.POLAR>
0

>  <SCORE.INTER.ROT>
2

>  <SCORE.INTER.SOLV>
26.8232

>  <SCORE.INTER.VDW>
-25.0719

>  <SCORE.INTER.norm>
-0.365135

>  <SCORE.INTRA>
-0.13827

>  <SCORE.INTRA.DIHEDRAL>
0.000947049

>  <SCORE.INTRA.DIHEDRAL.0>
2.40424

>  <SCORE.INTRA.POLAR>
0

>  <SCORE.INTRA.POLAR.0>
0

>  <SCORE.INTRA.REPUL>
0

>  <SCORE.INTRA.REPUL.0>
0

>  <SCORE.INTRA.SOLV>
0.0271777

>  <SCORE.INTRA.SOLV.lig_0>
-134.169

>  <SCORE.INTRA.VDW>
-0.152332

>  <SCORE.INTRA.VDW.0>
-2.18386

>  <SCORE.INTRA.norm>
-0.00300587

>  <SCORE.RESTR>
0

>  <SCORE.RESTR.CAVITY>
0

>  <SCORE.RESTR.norm>
0

>  <SCORE.SYSTEM>
0

>  <SCORE.SYSTEM.CONST>
0

>  <SCORE.SYSTEM.DIHEDRAL>
0

>  <SCORE.SYSTEM.SOLV>
0

>  <SCORE.SYSTEM.norm>
0

>  <SCORE.heavy>
46

>  <SCORE.norm>
-0.368141

>  <RMSD>
3.711

$$$$
ligand
 OpenBabel02271912143D
libRbt.so/2013.1/901 2013/11/27
 46 52  0  0  0  0  0  0  0  0999 V2000
   -8.5538    7.5685   15.6725 P   0  0  1  0  0  0  0  0  0  0  0  0
   -3.0869    5.8744   17.0580 P   0  0  2  0  0  0  0  0  0  0  0  0
   -9.6047    6.1538   15.4829 O   0  5  0  0  0  0  0  0  0  0  0  0
   -9.4632    9.0918   15.4945 O   0  0  0  0  0  0  0  0  0  0  0  0
   -6.8781    8.4514   17.5261 C   0  0  0  0  0  0  0  0  0  0  0  0
   -7.8628    7.4976   17.1274 O   0  0  0  0  0  0  0  0  0  0  0  0
   -6.0842    7.8728   18.6818 C   0  0  1  0  0  0  0  0  0  0  0  0
   -6.9847    7.4481   19.7146 O   0  0  0  0  0  0  0  0  0  0  0  0
   -5.2868    6.6356   18.3025 C   0  0  1  0  0  0  0  0  0  0  0  0
   -3.9683    6.9591   17.8664 O   0  0  0  0  0  0  0  0  0  0  0  0
   -5.2780    5.8240   19.5860 C   0  0  1  0  0  0  0  0  0  0  0  0
   -4.1608    6.1992   20.3957 O   0  0  0  0  0  0  0  0  0  0  0  0
   -6.5535    6.2140   20.3094 C   0  0  2  0  0  0  0  0  0  0  0  0
   -5.9442    4.7190   12.9253 C   0  0  1  0  0  0  0  0  0  0  0  0
   -8.1597    1.2247   21.1574 N   0  0  0  0  0  0  0  0  0  0  0  0
   -7.0023    1.8297   21.5406 C   0  0  1  0  0  0  0  0  0  0  0  0
   -7.1015    5.3135   13.6766 C   0  0  2  0  0  0  0  0  0  0  0  0
   -6.0996    1.1008   22.2367 N   0  0  0  0  0  0  0  0  0  0  0  0
   -7.9794    5.8669   12.6947 O   0  0  0  0  0  0  0  0  0  0  0  0
   -6.4832    6.3826   14.5554 C   0  0  2  0  0  0  0  0  0  0  0  0
   -6.7177    3.1337   21.2488 N   0  0  0  0  0  0  0  0  0  0  0  0
   -7.3136    7.5321   14.6481 O   0  0  0  0  0  0  0  0  0  0  0  0
   -7.5905    3.9073   20.5552 C   0  0  2  0  0  0  0  0  0  0  0  0
   -5.1768    6.7389   13.8736 C   0  0  2  0  0  0  0  0  0  0  0  0
   -4.8448    5.6197   13.0537 O   0  0  0  0  0  0  0  0  0  0  0  0
   -8.8580    3.3000   20.1136 C   0  0  1  0  0  0  0  0  0  0  0  0
   -4.0451    6.9990   14.8616 C   0  0  0  0  0  0  0  0  0  0  0  0
   -3.8016    5.8104   15.6166 O   0  0  0  0  0  0  0  0  0  0  0  0
   -9.1083    1.8893   20.4589 C   0  0  0  0  0  0  0  0  0  0  0  0
  -10.2580    1.2771   20.0776 O   0  0  0  0  0  0  0  0  0  0  0  0
   -9.5343    4.2475   19.4546 N   0  0  0  0  0  0  0  0  0  0  0  0
   -8.7674    5.3767   19.4664 C   0  0  0  0  0  0  0  0  0  0  0  0
   -7.6043    5.1787   20.1219 N   0  0  1  0  0  0  0  0  0  0  0  0
   -6.8379   -0.4214   12.5432 N   0  0  0  0  0  0  0  0  0  0  0  0
   -3.1309    4.2770   17.8501 O   0  5  0  0  0  0  0  0  0  0  0  0
   -7.3669    0.6102   11.8298 C   0  0  2  0  0  0  0  0  0  0  0  0
   -8.2671    0.3447   10.8474 N   0  0  0  0  0  0  0  0  0  0  0  0
   -1.4001    6.3722   16.8242 O   0  0  0  0  0  0  0  0  0  0  0  0
   -7.0216    1.9048   12.0690 N   0  0  0  0  0  0  0  0  0  0  0  0
   -6.1256    2.2317   13.0295 C   0  0  2  0  0  0  0  0  0  0  0  0
   -5.5222    1.1617   13.8349 C   0  0  2  0  0  0  0  0  0  0  0  0
   -5.9410   -0.2237   13.5325 C   0  0  0  0  0  0  0  0  0  0  0  0
   -5.4403   -1.2766   14.2249 O   0  0  0  0  0  0  0  0  0  0  0  0
   -4.6893    1.7604   14.7091 N   0  0  0  0  0  0  0  0  0  0  0  0
   -4.7519    3.1056   14.4778 C   0  0  0  0  0  0  0  0  0  0  0  0
   -5.6147    3.3815   13.4736 N   0  0  1  0  0  0  0  0  0  0  0  0
  1  3  1  6  0  0  0
  1  4  2  0  0  0  0
  1  6  1  0  0  0  0
  1 22  1  0  0  0  0
  2 28  1  0  0  0  0
  2 35  1  1  0  0  0
  2 38  2  0  0  0  0
  2 10  1  0  0  0  0
  5  6  1  0  0  0  0
  7  5  1  6  0  0  0
  7  8  1  0  0  0  0
  7  9  1  0  0  0  0
  9 10  1  1  0  0  0
  9 11  1  0  0  0  0
 11 12  1  1  0  0  0
 11 13  1  0  0  0  0
 13  8  1  6  0  0  0
 13 33  1  0  0  0  0
 14 46  1  0  0  0  0
 14 17  1  0  0  0  0
 14 25  1  1  0  0  0
 15 16  1  0  0  0  0
 15 29  1  0  0  0  0
 16 18  1  6  0  0  0
 16 21  1  0  0  0  0
 17 19  1  6  0  0  0
 17 20  1  0  0  0  0
 20 22  1  6  0  0  0
 20 24  1  0  0  0  0
 23 21  1  6  0  0  0
 23 26  1  0  0  0  0
 23 33  1  0  0  0  0
 24 25  1  6  0  0  0
 24 27  1  0  0  0  0
 26 29  1  1  0  0  0
 26 31  1  0  0  0  0
 27 28  1  0  0  0  0
 29 30  2  0  0  0  0
 31 32  1  0  0  0  0
 33 32  1  1  0  0  0
 34 36  1  0  0  0  0
 34 42  1  0  0  0  0
 36 37  1  6  0  0  0
 36 39  1  0  0  0  0
 40 39  1  1  0  0  0
 40 41  1  0  0  0  0
 40 46  1  0  0  0  0
 41 42  1  1  0  0  0
 41 44  1  0  0  0  0
 42 43  2  0  0  0  0
 44 45  1  0  0  0  0
 46 45  1  6  0  0  0
M  CHG  2   3  -1  35  -1
M  END
>  <CHROM.1>
-178.61392073,91.26950666,-6.42491825,4.60843137,16.60207283,-1.90682870
-1.32559772,-2.25816680

>  <Name>
ligand

>  <RI>
-1

>  <Rbt.Current_Directory>
/home/itssahil/PROJECTS/Mol_Feturizer/Test_systems_manuscript/rnas/3mum

>  <Rbt.Executable>
rbdock ($Id: //depot/dev/client3/rdock/2013.1/src/exe/rbdock.cxx#4 $)

>  <Rbt.Library>
libRbt.so (2013.1, Build901 2013/11/27)

>  <Rbt.Parameter_File>
/export/apps/rDock/src/rDock_2013.1_src/data/scripts/dock_solv.prm

>  <Rbt.Receptor>
prm/pocket_docking_5.prm

>  <SCORE>
-18.2146

>  <SCORE.INTER>
-17.9446

>  <SCORE.INTER.CONST>
1

>  <SCORE.INTER.POLAR>
0

>  <SCORE.INTER.ROT>
2

>  <SCORE.INTER.SOLV>
25.9361

>  <SCORE.INTER.VDW>
-25.5418

>  <SCORE.INTER.norm>
-0.3901

>  <SCORE.INTRA>
-0.270002

>  <SCORE.INTRA.DIHEDRAL>
0.0235566

>  <SCORE.INTRA.DIHEDRAL.0>
2.40424

>  <SCORE.INTRA.POLAR>
0

>  <SCORE.INTRA.POLAR.0>
0

>  <SCORE.INTRA.REPUL>
0

>  <SCORE.INTRA.REPUL.0>
0

>  <SCORE.INTRA.SOLV>
0.0581454

>  <SCORE.INTRA.SOLV.lig_0>
-134.169

>  <SCORE.INTRA.VDW>
-0.310853

>  <SCORE.INTRA.VDW.0>
-2.18386

>  <SCORE.INTRA.norm>
-0.00586962

>  <SCORE.RESTR>
0

>  <SCORE.RESTR.CAVITY>
0

>  <SCORE.RESTR.norm>
0

>  <SCORE.SYSTEM>
0

>  <SCORE.SYSTEM.CONST>
0

>  <SCORE.SYSTEM.DIHEDRAL>
0

>  <SCORE.SYSTEM.SOLV>
0

>  <SCORE.SYSTEM.norm>
0

>  <SCORE.heavy>
46

>  <SCORE.norm>
-0.395969

>  <RMSD>
3.848

$$$$
ligand
 OpenBabel02271912143D
libRbt.so/2013.1/901 2013/11/27
 46 52  0  0  0  0  0  0  0  0999 V2000
   -8.5684    7.5734   15.6748 P   0  0  1  0  0  0  0  0  0  0  0  0
   -3.0939    5.9002   17.0556 P   0  0  2  0  0  0  0  0  0  0  0  0
   -9.6138    6.1546   15.4850 O   0  5  0  0  0  0  0  0  0  0  0  0
   -9.4840    9.0932   15.4982 O   0  0  0  0  0  0  0  0  0  0  0  0
   -6.8950    8.4619   17.5278 C   0  0  0  0  0  0  0  0  0  0  0  0
   -7.8762    7.5044   17.1292 O   0  0  0  0  0  0  0  0  0  0  0  0
   -6.0980    7.8857   18.6826 C   0  0  1  0  0  0  0  0  0  0  0  0
   -6.9961    7.4569   19.7158 O   0  0  0  0  0  0  0  0  0  0  0  0
   -5.2959    6.6519   18.3020 C   0  0  1  0  0  0  0  0  0  0  0  0
   -3.9791    6.9809   17.8652 O   0  0  0  0  0  0  0  0  0  0  0  0
   -5.2830    5.8397   19.5850 C   0  0  1  0  0  0  0  0  0  0  0  0
   -4.1668    6.2188   20.3942 O   0  0  0  0  0  0  0  0  0  0  0  0
   -6.5596    6.2242   20.3096 C   0  0  2  0  0  0  0  0  0  0  0  0
   -5.9493    4.7359   12.9242 C   0  0  1  0  0  0  0  0  0  0  0  0
   -8.1461    1.2284   21.1571 N   0  0  0  0  0  0  0  0  0  0  0  0
   -6.9910    1.8379   21.5401 C   0  0  1  0  0  0  0  0  0  0  0  0
   -7.1086    5.3253   13.6765 C   0  0  2  0  0  0  0  0  0  0  0  0
   -6.0852    1.1124   22.2358 N   0  0  0  0  0  0  0  0  0  0  0  0
   -7.9893    5.8758   12.6956 O   0  0  0  0  0  0  0  0  0  0  0  0
   -6.4939    6.3964   14.5555 C   0  0  2  0  0  0  0  0  0  0  0  0
   -6.7115    3.1431   21.2485 N   0  0  0  0  0  0  0  0  0  0  0  0
   -7.3288    7.5425   14.6495 O   0  0  0  0  0  0  0  0  0  0  0  0
   -7.5876    3.9134   20.5552 C   0  0  2  0  0  0  0  0  0  0  0  0
   -5.1893    6.7583   13.8731 C   0  0  2  0  0  0  0  0  0  0  0  0
   -4.8534    5.6408   13.0523 O   0  0  0  0  0  0  0  0  0  0  0  0
   -8.8528    3.3013   20.1138 C   0  0  1  0  0  0  0  0  0  0  0  0
   -4.0581    7.0223   14.8605 C   0  0  0  0  0  0  0  0  0  0  0  0
   -3.8093    5.8342   15.6146 O   0  0  0  0  0  0  0  0  0  0  0  0
   -9.0975    1.8895   20.4589 C   0  0  0  0  0  0  0  0  0  0  0  0
  -10.2449    1.2729   20.0779 O   0  0  0  0  0  0  0  0  0  0  0  0
   -9.5329    4.2461   19.4552 N   0  0  0  0  0  0  0  0  0  0  0  0
   -8.7704    5.3784   19.4670 C   0  0  0  0  0  0  0  0  0  0  0  0
   -7.6064    5.1848   20.1221 N   0  0  1  0  0  0  0  0  0  0  0  0
   -6.8368   -0.4063   12.5517 N   0  0  0  0  0  0  0  0  0  0  0  0
   -3.1310    4.3022   17.8468 O   0  5  0  0  0  0  0  0  0  0  0  0
   -7.3720    0.6238   11.8409 C   0  0  2  0  0  0  0  0  0  0  0  0
   -8.2778    0.3560   10.8643 N   0  0  0  0  0  0  0  0  0  0  0  0
   -1.4092    6.4048   16.8209 O   0  0  0  0  0  0  0  0  0  0  0  0
   -7.0273    1.9191   12.0769 N   0  0  0  0  0  0  0  0  0  0  0  0
   -6.1259    2.2483   13.0315 C   0  0  2  0  0  0  0  0  0  0  0  0
   -5.5157    1.1800   13.8340 C   0  0  2  0  0  0  0  0  0  0  0  0
   -5.9341   -0.2063   13.5353 C   0  0  0  0  0  0  0  0  0  0  0  0
   -5.4272   -1.2578   14.2253 O   0  0  0  0  0  0  0  0  0  0  0  0
   -4.6783    1.7808   14.7024 N   0  0  0  0  0  0  0  0  0  0  0  0
   -4.7447    3.1258   14.4704 C   0  0  0  0  0  0  0  0  0  0  0  0
   -5.6142    3.3994   13.4715 N   0  0  1  0  0  0  0  0  0  0  0  0
  1  3  1  6  0  0  0
  1  4  2  0  0  0  0
  1  6  1  0  0  0  0
  1 22  1  0  0  0  0
  2 28  1  0  0  0  0
  2 35  1  1  0  0  0
  2 38  2  0  0  0  0
  2 10  1  0  0  0  0
  5  6  1  0  0  0  0
  7  5  1  6  0  0  0
  7  8  1  0  0  0  0
  7  9  1  0  0  0  0
  9 10  1  1  0  0  0
  9 11  1  0  0  0  0
 11 12  1  1  0  0  0
 11 13  1  0  0  0  0
 13  8  1  6  0  0  0
 13 33  1  0  0  0  0
 14 46  1  0  0  0  0
 14 17  1  0  0  0  0
 14 25  1  1  0  0  0
 15 16  1  0  0  0  0
 15 29  1  0  0  0  0
 16 18  1  6  0  0  0
 16 21  1  0  0  0  0
 17 19  1  6  0  0  0
 17 20  1  0  0  0  0
 20 22  1  6  0  0  0
 20 24  1  0  0  0  0
 23 21  1  6  0  0  0
 23 26  1  0  0  0  0
 23 33  1  0  0  0  0
 24 25  1  6  0  0  0
 24 27  1  0  0  0  0
 26 29  1  1  0  0  0
 26 31  1  0  0  0  0
 27 28  1  0  0  0  0
 29 30  2  0  0  0  0
 31 32  1  0  0  0  0
 33 32  1  1  0  0  0
 34 36  1  0  0  0  0
 34 42  1  0  0  0  0
 36 37  1  6  0  0  0
 36 39  1  0  0  0  0
 40 39  1  1  0  0  0
 40 41  1  0  0  0  0
 40 46  1  0  0  0  0
 41 42  1  1  0  0  0
 41 44  1  0  0  0  0
 42 43  2  0  0  0  0
 44 45  1  0  0  0  0
 46 45  1  6  0  0  0
M  CHG  2   3  -1  35  -1
M  END
>  <CHROM.1>
-178.58132464,90.91476684,-6.42875482,4.62146680,16.60265159,-1.90937987
-1.32809314,-2.25932602

>  <Name>
ligand

>  <RI>
-1

>  <Rbt.Current_Directory>
/home/itssahil/PROJECTS/Mol_Feturizer/Test_systems_manuscript/rnas/3mum

>  <Rbt.Executable>
rbdock ($Id: //depot/dev/client3/rdock/2013.1/src/exe/rbdock.cxx#4 $)

>  <Rbt.Library>
libRbt.so (2013.1, Build901 2013/11/27)

>  <Rbt.Parameter_File>
/export/apps/rDock/src/rDock_2013.1_src/data/scripts/dock_solv.prm

>  <Rbt.Receptor>
prm/pocket_docking_5.prm

>  <SCORE>
-18.1992

>  <SCORE.INTER>
-17.9296

>  <SCORE.INTER.CONST>
1

>  <SCORE.INTER.POLAR>
0

>  <SCORE.INTER.ROT>
2

>  <SCORE.INTER.SOLV>
25.8846

>  <SCORE.INTER.VDW>
-25.5146

>  <SCORE.INTER.norm>
-0.389775

>  <SCORE.INTRA>
-0.269605

>  <SCORE.INTRA.DIHEDRAL>
0.0235802

>  <SCORE.INTRA.DIHEDRAL.0>
2.40424

>  <SCORE.INTRA.POLAR>
0

>  <SCORE.INTRA.POLAR.0>
0

>  <SCORE.INTRA.REPUL>
0

>  <SCORE.INTRA.REPUL.0>
0

>  <SCORE.INTRA.SOLV>
0.0571206

>  <SCORE.INTRA.SOLV.lig_0>
-134.169

>  <SCORE.INTRA.VDW>
-0.309955

>  <SCORE.INTRA.VDW.0>
-2.18386

>  <SCORE.INTRA.norm>
-0.00586097

>  <SCORE.RESTR>
0

>  <SCORE.RESTR.CAVITY>
0

>  <SCORE.RESTR.norm>
0

>  <SCORE.SYSTEM>
0

>  <SCORE.SYSTEM.CONST>
0

>  <SCORE.SYSTEM.DIHEDRAL>
0

>  <SCORE.SYSTEM.SOLV>
0

>  <SCORE.SYSTEM.norm>
0

>  <SCORE.heavy>
46

>  <SCORE.norm>
-0.395636

>  <RMSD>
3.856

$$$$
ligand
 OpenBabel02271912143D
libRbt.so/2013.1/901 2013/11/27
 46 52  0  0  0  0  0  0  0  0999 V2000
   -4.2198    1.3018   19.8097 P   0  0  1  0  0  0  0  0  0  0  0  0
   -6.2986    6.3379   17.5753 P   0  0  2  0  0  0  0  0  0  0  0  0
   -5.1856   -0.0689   19.2350 O   0  5  0  0  0  0  0  0  0  0  0  0
   -2.8435    0.7640   20.8076 O   0  0  0  0  0  0  0  0  0  0  0  0
   -2.9709    3.3480   18.6798 C   0  0  0  0  0  0  0  0  0  0  0  0
   -3.6921    2.1252   18.5280 O   0  0  0  0  0  0  0  0  0  0  0  0
   -3.0382    4.1147   17.3728 C   0  0  1  0  0  0  0  0  0  0  0  0
   -2.5993    3.2694   16.3000 O   0  0  0  0  0  0  0  0  0  0  0  0
   -4.4478    4.5455   17.0014 C   0  0  1  0  0  0  0  0  0  0  0  0
   -4.7639    5.8412   17.5057 O   0  0  0  0  0  0  0  0  0  0  0  0
   -4.4289    4.5154   15.4833 C   0  0  1  0  0  0  0  0  0  0  0  0
   -3.9934    5.7781   14.9731 O   0  0  0  0  0  0  0  0  0  0  0  0
   -3.3963    3.4642   15.1212 C   0  0  2  0  0  0  0  0  0  0  0  0
   -8.6579    2.8155   20.5087 C   0  0  1  0  0  0  0  0  0  0  0  0
   -7.4142    1.0160   12.6605 N   0  0  0  0  0  0  0  0  0  0  0  0
   -7.1627    2.3487   12.7739 C   0  0  1  0  0  0  0  0  0  0  0  0
   -7.4766    1.9300   20.2303 C   0  0  2  0  0  0  0  0  0  0  0  0
   -8.0284    3.2143   12.1978 N   0  0  0  0  0  0  0  0  0  0  0  0
   -7.3159    1.0971   21.3799 O   0  0  0  0  0  0  0  0  0  0  0  0
   -6.3126    2.8842   20.0508 C   0  0  2  0  0  0  0  0  0  0  0  0
   -6.0797    2.8425   13.4448 N   0  0  0  0  0  0  0  0  0  0  0  0
   -5.1163    2.3665   20.6169 O   0  0  0  0  0  0  0  0  0  0  0  0
   -5.1814    2.0163   14.0379 C   0  0  2  0  0  0  0  0  0  0  0  0
   -6.7285    4.1467   20.7799 C   0  0  2  0  0  0  0  0  0  0  0  0
   -8.1525    4.1040   20.8560 O   0  0  0  0  0  0  0  0  0  0  0  0
   -5.4085    0.5635   13.9477 C   0  0  1  0  0  0  0  0  0  0  0  0
   -6.2957    5.4175   20.0572 C   0  0  0  0  0  0  0  0  0  0  0  0
   -6.9220    5.4613   18.7735 O   0  0  0  0  0  0  0  0  0  0  0  0
   -6.5941    0.0915   13.2104 C   0  0  0  0  0  0  0  0  0  0  0  0
   -6.8545   -1.2355   13.0955 O   0  0  0  0  0  0  0  0  0  0  0  0
   -4.4057   -0.0284   14.6058 N   0  0  0  0  0  0  0  0  0  0  0  0
   -3.5950    0.9598   15.0852 C   0  0  0  0  0  0  0  0  0  0  0  0
   -4.0545    2.1837   14.7496 N   0  0  1  0  0  0  0  0  0  0  0  0
  -10.7576    5.9544   16.8883 N   0  0  0  0  0  0  0  0  0  0  0  0
   -7.1598    6.0122   16.0478 O   0  5  0  0  0  0  0  0  0  0  0  0
   -9.9400    6.2556   17.9341 C   0  0  2  0  0  0  0  0  0  0  0  0
   -9.5623    7.5458   18.1307 N   0  0  0  0  0  0  0  0  0  0  0  0
   -6.4644    8.0542   17.9932 O   0  0  0  0  0  0  0  0  0  0  0  0
   -9.4859    5.3023   18.7928 N   0  0  0  0  0  0  0  0  0  0  0  0
   -9.8219    3.9995   18.6448 C   0  0  2  0  0  0  0  0  0  0  0  0
  -10.7043    3.6128   17.5359 C   0  0  2  0  0  0  0  0  0  0  0  0
  -11.1698    4.6931   16.6403 C   0  0  0  0  0  0  0  0  0  0  0  0
  -11.9889    4.4329   15.5915 O   0  0  0  0  0  0  0  0  0  0  0  0
  -10.8813    2.2801   17.6312 N   0  0  0  0  0  0  0  0  0  0  0  0
  -10.1655    1.8488   18.7123 C   0  0  0  0  0  0  0  0  0  0  0  0
   -9.5360    2.8823   19.3160 N   0  0  1  0  0  0  0  0  0  0  0  0
  1  3  1  6  0  0  0
  1  4  2  0  0  0  0
  1  6  1  0  0  0  0
  1 22  1  0  0  0  0
  2 28  1  0  0  0  0
  2 35  1  6  0  0  0
  2 38  2  0  0  0  0
  2 10  1  0  0  0  0
  5  6  1  0  0  0  0
  7  5  1  1  0  0  0
  7  8  1  0  0  0  0
  7  9  1  0  0  0  0
  9 10  1  6  0  0  0
  9 11  1  0  0  0  0
 11 12  1  6  0  0  0
 11 13  1  0  0  0  0
 13  8  1  1  0  0  0
 13 33  1  0  0  0  0
 14 46  1  0  0  0  0
 14 17  1  0  0  0  0
 14 25  1  6  0  0  0
 15 16  1  0  0  0  0
 15 29  1  0  0  0  0
 16 18  1  1  0  0  0
 16 21  1  0  0  0  0
 17 19  1  1  0  0  0
 17 20  1  0  0  0  0
 20 22  1  1  0  0  0
 20 24  1  0  0  0  0
 23 21  1  1  0  0  0
 23 26  1  0  0  0  0
 23 33  1  0  0  0  0
 24 25  1  6  0  0  0
 24 27  1  0  0  0  0
 26 29  1  6  0  0  0
 26 31  1  0  0  0  0
 27 28  1  0  0  0  0
 29 30  2  0  0  0  0
 31 32  1  0  0  0  0
 33 32  1  6  0  0  0
 34 36  1  0  0  0  0
 34 42  1  0  0  0  0
 36 37  1  6  0  0  0
 36 39  1  0  0  0  0
 40 39  1  1  0  0  0
 40 41  1  0  0  0  0
 40 46  1  0  0  0  0
 41 42  1  1  0  0  0
 41 44  1  0  0  0  0
 42 43  2  0  0  0  0
 44 45  1  0  0  0  0
 46 45  1  6  0  0  0
M  CHG  2   3  -1  35  -1
M  END
>  <CHROM.1>
155.58144193,-118.91703475,-6.55285607,3.36038390,17.33580062,-0.66794833
-0.47980668,1.34374354

>  <Name>
ligand

>  <RI>
-1

>  <Rbt.Current_Directory>
/home/itssahil/PROJECTS/Mol_Feturizer/Test_systems_manuscript/rnas/3mum

>  <Rbt.Executable>
rbdock ($Id: //depot/dev/client3/rdock/2013.1/src/exe/rbdock.cxx#4 $)

>  <Rbt.Library>
libRbt.so (2013.1, Build901 2013/11/27)

>  <Rbt.Parameter_File>
/export/apps/rDock/src/rDock_2013.1_src/data/scripts/dock_solv.prm

>  <Rbt.Receptor>
prm/pocket_docking_4.prm

>  <SCORE>
-11.4986

>  <SCORE.INTER>
-13.777

>  <SCORE.INTER.CONST>
1

>  <SCORE.INTER.POLAR>
0

>  <SCORE.INTER.ROT>
2

>  <SCORE.INTER.SOLV>
25.8215

>  <SCORE.INTER.VDW>
-22.7252

>  <SCORE.INTER.norm>
-0.299501

>  <SCORE.INTRA>
2.27845

>  <SCORE.INTRA.DIHEDRAL>
-0.00863435

>  <SCORE.INTRA.DIHEDRAL.0>
2.40424

>  <SCORE.INTRA.POLAR>
0

>  <SCORE.INTRA.POLAR.0>
0

>  <SCORE.INTRA.REPUL>
0

>  <SCORE.INTRA.REPUL.0>
0

>  <SCORE.INTRA.SOLV>
7.02538

>  <SCORE.INTRA.SOLV.lig_0>
-134.169

>  <SCORE.INTRA.VDW>
-1.22993

>  <SCORE.INTRA.VDW.0>
-2.18386

>  <SCORE.INTRA.norm>
0.0495314

>  <SCORE.RESTR>
0

>  <SCORE.RESTR.CAVITY>
0

>  <SCORE.RESTR.norm>
0

>  <SCORE.SYSTEM>
0

>  <SCORE.SYSTEM.CONST>
0

>  <SCORE.SYSTEM.DIHEDRAL>
0

>  <SCORE.SYSTEM.SOLV>
0

>  <SCORE.SYSTEM.norm>
0

>  <SCORE.heavy>
46

>  <SCORE.norm>
-0.24997

>  <RMSD>
4.077

$$$$
ligand
 OpenBabel02271912143D
libRbt.so/2013.1/901 2013/11/27
 46 52  0  0  0  0  0  0  0  0999 V2000
   -3.8852    5.7296   14.8061 P   0  0  1  0  0  0  0  0  0  0  0  0
   -9.5131    6.2812   16.4487 P   0  0  2  0  0  0  0  0  0  0  0  0
   -3.1762    4.2731   15.5257 O   0  5  0  0  0  0  0  0  0  0  0  0
   -2.7369    6.5505   13.7167 O   0  0  0  0  0  0  0  0  0  0  0  0
   -6.0605    6.2825   13.3970 C   0  0  0  0  0  0  0  0  0  0  0  0
   -5.2135    5.3029   13.9982 O   0  0  0  0  0  0  0  0  0  0  0  0
   -7.4224    5.6606   13.1536 C   0  0  1  0  0  0  0  0  0  0  0  0
   -7.2656    4.4427   12.4119 O   0  0  0  0  0  0  0  0  0  0  0  0
   -8.1406    5.2681   14.4344 C   0  0  1  0  0  0  0  0  0  0  0  0
   -8.9694    6.3177   14.9288 O   0  0  0  0  0  0  0  0  0  0  0  0
   -8.9503    4.0530   14.0172 C   0  0  1  0  0  0  0  0  0  0  0  0
  -10.2270    4.4616   13.5198 O   0  0  0  0  0  0  0  0  0  0  0  0
   -8.1654    3.4258   12.8801 C   0  0  2  0  0  0  0  0  0  0  0  0
   -5.2471    6.0619   19.3350 C   0  0  1  0  0  0  0  0  0  0  0  0
   -6.9873   -1.7241   12.3483 N   0  0  0  0  0  0  0  0  0  0  0  0
   -7.8501   -0.9624   11.6218 C   0  0  1  0  0  0  0  0  0  0  0  0
   -4.5364    5.6298   18.0839 C   0  0  2  0  0  0  0  0  0  0  0  0
   -8.5294   -1.5527   10.6113 N   0  0  0  0  0  0  0  0  0  0  0  0
   -3.1962    6.1124   18.1930 O   0  0  0  0  0  0  0  0  0  0  0  0
   -5.2944    6.3031   16.9571 C   0  0  2  0  0  0  0  0  0  0  0  0
   -8.0576    0.3643   11.8736 N   0  0  0  0  0  0  0  0  0  0  0  0
   -4.4208    6.7498   15.9291 O   0  0  0  0  0  0  0  0  0  0  0  0
   -7.3997    1.0030   12.8740 C   0  0  2  0  0  0  0  0  0  0  0  0
   -5.9830    7.4881   17.6051 C   0  0  2  0  0  0  0  0  0  0  0  0
   -6.0648    7.1812   18.9960 O   0  0  0  0  0  0  0  0  0  0  0  0
   -6.4558    0.2233   13.6935 C   0  0  1  0  0  0  0  0  0  0  0  0
   -7.3838    7.7323   17.0551 C   0  0  0  0  0  0  0  0  0  0  0  0
   -8.1975    6.5889   17.3246 O   0  0  0  0  0  0  0  0  0  0  0  0
   -6.2743   -1.2037   13.3731 C   0  0  0  0  0  0  0  0  0  0  0  0
   -5.4187   -1.9715   14.0947 O   0  0  0  0  0  0  0  0  0  0  0  0
   -5.9465    1.0613   14.6031 N   0  0  0  0  0  0  0  0  0  0  0  0
   -6.5148    2.2845   14.3920 C   0  0  0  0  0  0  0  0  0  0  0  0
   -7.3847    2.2549   13.3605 N   0  0  1  0  0  0  0  0  0  0  0  0
   -6.1788    0.9205   19.0778 N   0  0  0  0  0  0  0  0  0  0  0  0
  -10.1818    4.6809   16.8643 O   0  5  0  0  0  0  0  0  0  0  0  0
   -5.3013    1.6833   18.3699 C   0  0  2  0  0  0  0  0  0  0  0  0
   -4.5071    1.0909   17.4403 N   0  0  0  0  0  0  0  0  0  0  0  0
  -10.7206    7.5344   16.7942 O   0  0  0  0  0  0  0  0  0  0  0  0
   -5.1924    3.0260   18.5643 N   0  0  0  0  0  0  0  0  0  0  0  0
   -5.9515    3.6717   19.4804 C   0  0  2  0  0  0  0  0  0  0  0  0
   -6.9193    2.9023   20.2735 C   0  0  2  0  0  0  0  0  0  0  0  0
   -6.9961    1.4489   20.0133 C   0  0  0  0  0  0  0  0  0  0  0  0
   -7.8612    0.6574   20.6943 O   0  0  0  0  0  0  0  0  0  0  0  0
   -7.5375    3.7821   21.0861 N   0  0  0  0  0  0  0  0  0  0  0  0
   -7.0040    5.0148   20.8355 C   0  0  0  0  0  0  0  0  0  0  0  0
   -6.0576    4.9427   19.8722 N   0  0  1  0  0  0  0  0  0  0  0  0
  1  3  1  1  0  0  0
  1  4  2  0  0  0  0
  1  6  1  0  0  0  0
  1 22  1  0  0  0  0
  2 28  1  0  0  0  0
  2 35  1  1  0  0  0
  2 38  2  0  0  0  0
  2 10  1  0  0  0  0
  5  6  1  0  0  0  0
  7  5  1  1  0  0  0
  7  8  1  0  0  0  0
  7  9  1  0  0  0  0
  9 10  1  6  0  0  0
  9 11  1  0  0  0  0
 11 12  1  6  0  0  0
 11 13  1  0  0  0  0
 13  8  1  1  0  0  0
 13 33  1  0  0  0  0
 14 46  1  0  0  0  0
 14 17  1  0  0  0  0
 14 25  1  6  0  0  0
 15 16  1  0  0  0  0
 15 29  1  0  0  0  0
 16 18  1  1  0  0  0
 16 21  1  0  0  0  0
 17 19  1  1  0  0  0
 17 20  1  0  0  0  0
 20 22  1  6  0  0  0
 20 24  1  0  0  0  0
 23 21  1  1  0  0  0
 23 26  1  0  0  0  0
 23 33  1  0  0  0  0
 24 25  1  1  0  0  0
 24 27  1  0  0  0  0
 26 29  1  6  0  0  0
 26 31  1  0  0  0  0
 27 28  1  0  0  0  0
 29 30  2  0  0  0  0
 31 32  1  0  0  0  0
 33 32  1  6  0  0  0
 34 36  1  0  0  0  0
 34 42  1  0  0  0  0
 36 37  1  1  0  0  0
 36 39  1  0  0  0  0
 40 39  1  6  0  0  0
 40 41  1  0  0  0  0
 40 46  1  0  0  0  0
 41 42  1  6  0  0  0
 41 44  1  0  0  0  0
 42 43  2  0  0  0  0
 44 45  1  0  0  0  0
 46 45  1  1  0  0  0
M  CHG  2   3  -1  35  -1
M  END
>  <CHROM.1>
-117.51861717,13.30376169,-6.68125810,3.88232603,15.94397058,1.08300928,-1.34285016
0.30540051

>  <Name>
ligand

>  <RI>
-1

>  <Rbt.Current_Directory>
/home/itssahil/PROJECTS/Mol_Feturizer/Test_systems_manuscript/rnas/3mum

>  <Rbt.Executable>
rbdock ($Id: //depot/dev/client3/rdock/2013.1/src/exe/rbdock.cxx#4 $)

>  <Rbt.Library>
libRbt.so (2013.1, Build901 2013/11/27)

>  <Rbt.Parameter_File>
/export/apps/rDock/src/rDock_2013.1_src/data/scripts/dock_solv.prm

>  <Rbt.Receptor>
prm/pocket_docking_4.prm

>  <SCORE>
-17.7404

>  <SCORE.INTER>
-20.6331

>  <SCORE.INTER.CONST>
1

>  <SCORE.INTER.POLAR>
0

>  <SCORE.INTER.ROT>
2

>  <SCORE.INTER.SOLV>
20.1265

>  <SCORE.INTER.VDW>
-25.3975

>  <SCORE.INTER.norm>
-0.448545

>  <SCORE.INTRA>
1.38733

>  <SCORE.INTRA.DIHEDRAL>
-0.0218972

>  <SCORE.INTRA.DIHEDRAL.0>
2.40424

>  <SCORE.INTRA.POLAR>
0

>  <SCORE.INTRA.POLAR.0>
0

>  <SCORE.INTRA.REPUL>
0

>  <SCORE.INTRA.REPUL.0>
0

>  <SCORE.INTRA.SOLV>
1.87438

>  <SCORE.INTRA.SOLV.lig_0>
-134.169

>  <SCORE.INTRA.VDW>
0.461094

>  <SCORE.INTRA.VDW.0>
-2.18386

>  <SCORE.INTRA.norm>
0.0301594

>  <SCORE.RESTR>
1.50536

>  <SCORE.RESTR.CAVITY>
1.50536

>  <SCORE.RESTR.norm>
0.0327251

>  <SCORE.SYSTEM>
0

>  <SCORE.SYSTEM.CONST>
0

>  <SCORE.SYSTEM.DIHEDRAL>
0

>  <SCORE.SYSTEM.SOLV>
0

>  <SCORE.SYSTEM.norm>
0

>  <SCORE.heavy>
46

>  <SCORE.norm>
-0.385661

>  <RMSD>
4.269

$$$$
ligand
 OpenBabel02271912143D
libRbt.so/2013.1/901 2013/11/27
 46 52  0  0  0  0  0  0  0  0999 V2000
   -5.1643    2.6220   19.8893 P   0  0  1  0  0  0  0  0  0  0  0  0
   -6.3363    7.2411   16.4301 P   0  0  2  0  0  0  0  0  0  0  0  0
   -6.1382    1.2250   19.3978 O   0  5  0  0  0  0  0  0  0  0  0  0
   -4.0414    2.2085   21.2112 O   0  0  0  0  0  0  0  0  0  0  0  0
   -3.5499    4.3325   18.6681 C   0  0  0  0  0  0  0  0  0  0  0  0
   -4.3445    3.1481   18.6046 O   0  0  0  0  0  0  0  0  0  0  0  0
   -3.3141    4.8331   17.2559 C   0  0  1  0  0  0  0  0  0  0  0  0
   -2.7747    3.7711   16.4565 O   0  0  0  0  0  0  0  0  0  0  0  0
   -4.5897    5.2657   16.5515 C   0  0  1  0  0  0  0  0  0  0  0  0
   -4.8667    6.6511   16.7446 O   0  0  0  0  0  0  0  0  0  0  0  0
   -4.3071    4.9401   15.0955 C   0  0  1  0  0  0  0  0  0  0  0  0
   -3.6722    6.0517   14.4586 O   0  0  0  0  0  0  0  0  0  0  0  0
   -3.3300    3.7797   15.1320 C   0  0  2  0  0  0  0  0  0  0  0  0
   -9.4943    4.5011   19.4462 C   0  0  1  0  0  0  0  0  0  0  0  0
   -7.3116    1.2165   12.7299 N   0  0  0  0  0  0  0  0  0  0  0  0
   -6.9988    2.5406   12.6938 C   0  0  1  0  0  0  0  0  0  0  0  0
   -8.3708    3.5104   19.5620 C   0  0  2  0  0  0  0  0  0  0  0  0
   -7.7817    3.3630   11.9579 N   0  0  0  0  0  0  0  0  0  0  0  0
   -8.4935    2.9089   20.8520 O   0  0  0  0  0  0  0  0  0  0  0  0
   -7.1091    4.3414   19.4385 C   0  0  2  0  0  0  0  0  0  0  0  0
   -5.9347    3.0679   13.3693 N   0  0  0  0  0  0  0  0  0  0  0  0
   -6.0849    3.8742   20.3058 O   0  0  0  0  0  0  0  0  0  0  0  0
   -5.1182    2.2852   14.1193 C   0  0  2  0  0  0  0  0  0  0  0  0
   -7.5265    5.7438   19.8355 C   0  0  2  0  0  0  0  0  0  0  0  0
   -8.9393    5.8005   19.6455 O   0  0  0  0  0  0  0  0  0  0  0  0
   -5.4144    0.8440   14.1950 C   0  0  1  0  0  0  0  0  0  0  0  0
   -6.8562    6.8222   18.9916 C   0  0  0  0  0  0  0  0  0  0  0  0
   -7.2401    6.6524   17.6256 O   0  0  0  0  0  0  0  0  0  0  0  0
   -6.5756    0.3345   13.4439 C   0  0  0  0  0  0  0  0  0  0  0  0
   -6.8969   -0.9837   13.4773 O   0  0  0  0  0  0  0  0  0  0  0  0
   -4.4856    0.2974   14.9872 N   0  0  0  0  0  0  0  0  0  0  0  0
   -3.6557    1.3021   15.3937 C   0  0  0  0  0  0  0  0  0  0  0  0
   -4.0298    2.4923   14.8787 N   0  0  1  0  0  0  0  0  0  0  0  0
  -11.5531    7.1410   15.4262 N   0  0  0  0  0  0  0  0  0  0  0  0
   -6.9421    6.6760   14.8507 O   0  5  0  0  0  0  0  0  0  0  0  0
  -11.0214    7.6031   16.5909 C   0  0  2  0  0  0  0  0  0  0  0  0
  -10.9776    8.9424   16.8150 N   0  0  0  0  0  0  0  0  0  0  0  0
   -6.4113    9.0127   16.4927 O   0  0  0  0  0  0  0  0  0  0  0  0
  -10.5293    6.7636   17.5425 N   0  0  0  0  0  0  0  0  0  0  0  0
  -10.5390    5.4206   17.3740 C   0  0  2  0  0  0  0  0  0  0  0  0
  -11.1029    4.8616   16.1382 C   0  0  2  0  0  0  0  0  0  0  0  0
  -11.6273    5.8229   15.1447 C   0  0  0  0  0  0  0  0  0  0  0  0
  -12.1690    5.4005   13.9756 O   0  0  0  0  0  0  0  0  0  0  0  0
  -10.9969    3.5218   16.2379 N   0  0  0  0  0  0  0  0  0  0  0  0
  -10.4081    3.2465   17.4398 C   0  0  0  0  0  0  0  0  0  0  0  0
  -10.1389    4.3863   18.1160 N   0  0  1  0  0  0  0  0  0  0  0  0
  1  3  1  6  0  0  0
  1  4  2  0  0  0  0
  1  6  1  0  0  0  0
  1 22  1  0  0  0  0
  2 28  1  0  0  0  0
  2 35  1  6  0  0  0
  2 38  2  0  0  0  0
  2 10  1  0  0  0  0
  5  6  1  0  0  0  0
  7  5  1  1  0  0  0
  7  8  1  0  0  0  0
  7  9  1  0  0  0  0
  9 10  1  6  0  0  0
  9 11  1  0  0  0  0
 11 12  1  1  0  0  0
 11 13  1  0  0  0  0
 13  8  1  1  0  0  0
 13 33  1  0  0  0  0
 14 46  1  0  0  0  0
 14 17  1  0  0  0  0
 14 25  1  6  0  0  0
 15 16  1  0  0  0  0
 15 29  1  0  0  0  0
 16 18  1  1  0  0  0
 16 21  1  0  0  0  0
 17 19  1  1  0  0  0
 17 20  1  0  0  0  0
 20 22  1  1  0  0  0
 20 24  1  0  0  0  0
 23 21  1  1  0  0  0
 23 26  1  0  0  0  0
 23 33  1  0  0  0  0
 24 25  1  6  0  0  0
 24 27  1  0  0  0  0
 26 29  1  6  0  0  0
 26 31  1  0  0  0  0
 27 28  1  0  0  0  0
 29 30  2  0  0  0  0
 31 32  1  0  0  0  0
 33 32  1  6  0  0  0
 34 36  1  0  0  0  0
 34 42  1  0  0  0  0
 36 37  1  6  0  0  0
 36 39  1  0  0  0  0
 40 39  1  1  0  0  0
 40 41  1  0  0  0  0
 40 46  1  0  0  0  0
 41 42  1  1  0  0  0
 41 44  1  0  0  0  0
 42 43  2  0  0  0  0
 44 45  1  0  0  0  0
 46 45  1  6  0  0  0
M  CHG  2   3  -1  35  -1
M  END
>  <CHROM.1>
147.56627909,-139.00749916,-6.95121721,4.31853762,16.76696300,-0.36244190
-0.53659756,1.18863280

>  <Name>
ligand

>  <RI>
-1

>  <Rbt.Current_Directory>
/home/itssahil/PROJECTS/Mol_Feturizer/Test_systems_manuscript/rnas/3mum

>  <Rbt.Executable>
rbdock ($Id: //depot/dev/client3/rdock/2013.1/src/exe/rbdock.cxx#4 $)

>  <Rbt.Library>
libRbt.so (2013.1, Build901 2013/11/27)

>  <Rbt.Parameter_File>
/export/apps/rDock/src/rDock_2013.1_src/data/scripts/dock_solv.prm

>  <Rbt.Receptor>
prm/pocket_docking_5.prm

>  <SCORE>
-15.314

>  <SCORE.INTER>
-15.1277

>  <SCORE.INTER.CONST>
1

>  <SCORE.INTER.POLAR>
0

>  <SCORE.INTER.ROT>
2

>  <SCORE.INTER.SOLV>
21.0606

>  <SCORE.INTER.VDW>
-22.0387

>  <SCORE.INTER.norm>
-0.328862

>  <SCORE.INTRA>
-0.186358

>  <SCORE.INTRA.DIHEDRAL>
0.0156442

>  <SCORE.INTRA.DIHEDRAL.0>
2.40424

>  <SCORE.INTRA.POLAR>
0

>  <SCORE.INTRA.POLAR.0>
0

>  <SCORE.INTRA.REPUL>
0

>  <SCORE.INTRA.REPUL.0>
0

>  <SCORE.INTRA.SOLV>
0.0971685

>  <SCORE.INTRA.SOLV.lig_0>
-134.169

>  <SCORE.INTRA.VDW>
-0.242765

>  <SCORE.INTRA.VDW.0>
-2.18386

>  <SCORE.INTRA.norm>
-0.00405127

>  <SCORE.RESTR>
6.22277e-05

>  <SCORE.RESTR.CAVITY>
6.22277e-05

>  <SCORE.RESTR.norm>
1.35278e-06

>  <SCORE.SYSTEM>
0

>  <SCORE.SYSTEM.CONST>
0

>  <SCORE.SYSTEM.DIHEDRAL>
0

>  <SCORE.SYSTEM.SOLV>
0

>  <SCORE.SYSTEM.norm>
0

>  <SCORE.heavy>
46

>  <SCORE.norm>
-0.332912

>  <RMSD>
4.618

$$$$
ligand
 OpenBabel02271912143D
libRbt.so/2013.1/901 2013/11/27
 46 52  0  0  0  0  0  0  0  0999 V2000
   -9.0839    6.6864   16.1701 P   0  0  1  0  0  0  0  0  0  0  0  0
   -3.4747    5.4678   14.8554 P   0  0  2  0  0  0  0  0  0  0  0  0
   -9.9076    5.2293   16.7533 O   0  5  0  0  0  0  0  0  0  0  0  0
  -10.1463    8.1165   16.2441 O   0  0  0  0  0  0  0  0  0  0  0  0
   -6.8413    7.9654   16.7688 C   0  0  0  0  0  0  0  0  0  0  0  0
   -7.7675    6.9216   17.0706 O   0  0  0  0  0  0  0  0  0  0  0  0
   -5.5189    7.6479   17.4404 C   0  0  1  0  0  0  0  0  0  0  0  0
   -5.7389    7.4038   18.8368 O   0  0  0  0  0  0  0  0  0  0  0  0
   -4.8613    6.3864   16.9050 C   0  0  1  0  0  0  0  0  0  0  0  0
   -3.9762    6.6605   15.8212 O   0  0  0  0  0  0  0  0  0  0  0  0
   -4.1254    5.8405   18.1159 C   0  0  1  0  0  0  0  0  0  0  0  0
   -2.8118    6.4011   18.1853 O   0  0  0  0  0  0  0  0  0  0  0  0
   -4.9220    6.3232   19.3138 C   0  0  2  0  0  0  0  0  0  0  0  0
   -7.8172    3.4413   12.9543 C   0  0  1  0  0  0  0  0  0  0  0  0
   -5.2737    1.5128   21.5340 N   0  0  0  0  0  0  0  0  0  0  0  0
   -4.1628    2.2119   21.1743 C   0  0  1  0  0  0  0  0  0  0  0  0
   -8.5237    4.1335   14.0851 C   0  0  2  0  0  0  0  0  0  0  0  0
   -2.9530    1.6458   21.3900 N   0  0  0  0  0  0  0  0  0  0  0  0
   -9.8306    4.4575   13.6074 O   0  0  0  0  0  0  0  0  0  0  0  0
   -7.6938    5.3721   14.3585 C   0  0  2  0  0  0  0  0  0  0  0  0
   -4.2218    3.4526   20.6051 N   0  0  0  0  0  0  0  0  0  0  0  0
   -8.5090    6.4908   14.6801 O   0  0  0  0  0  0  0  0  0  0  0  0
   -5.4102    4.0642   20.3699 C   0  0  2  0  0  0  0  0  0  0  0  0
   -6.9432    5.6303   13.0668 C   0  0  2  0  0  0  0  0  0  0  0  0
   -6.9175    4.3840   12.3729 O   0  0  0  0  0  0  0  0  0  0  0  0
   -6.6445    3.3491   20.7380 C   0  0  1  0  0  0  0  0  0  0  0  0
   -5.5156    6.1132   13.2980 C   0  0  0  0  0  0  0  0  0  0  0  0
   -4.7882    5.1023   13.9987 O   0  0  0  0  0  0  0  0  0  0  0  0
   -6.5163    2.0139   21.3487 C   0  0  0  0  0  0  0  0  0  0  0  0
   -7.6189    1.3082   21.7071 O   0  0  0  0  0  0  0  0  0  0  0  0
   -7.6679    4.1439   20.4065 N   0  0  0  0  0  0  0  0  0  0  0  0
   -7.1406    5.2813   19.8661 C   0  0  0  0  0  0  0  0  0  0  0  0
   -5.7919    5.2384   19.8410 N   0  0  1  0  0  0  0  0  0  0  0  0
   -7.0293   -1.6904   12.3116 N   0  0  0  0  0  0  0  0  0  0  0  0
   -2.9265    4.0543   15.7946 O   0  5  0  0  0  0  0  0  0  0  0  0
   -7.8363   -0.8397   11.6204 C   0  0  2  0  0  0  0  0  0  0  0  0
   -8.5777   -1.3202   10.5882 N   0  0  0  0  0  0  0  0  0  0  0  0
   -2.1944    5.9638   13.7316 O   0  0  0  0  0  0  0  0  0  0  0  0
   -7.9248    0.4826   11.9303 N   0  0  0  0  0  0  0  0  0  0  0  0
   -7.2062    1.0211   12.9431 C   0  0  2  0  0  0  0  0  0  0  0  0
   -6.3191    0.1523   13.7279 C   0  0  2  0  0  0  0  0  0  0  0  0
   -6.2698   -1.2757   13.3477 C   0  0  0  0  0  0  0  0  0  0  0  0
   -5.4822   -2.1543   14.0158 O   0  0  0  0  0  0  0  0  0  0  0  0
   -5.7437    0.9334   14.6634 N   0  0  0  0  0  0  0  0  0  0  0  0
   -6.2215    2.2014   14.4876 C   0  0  0  0  0  0  0  0  0  0  0  0
   -7.0979    2.2470   13.4587 N   0  0  1  0  0  0  0  0  0  0  0  0
  1  3  1  1  0  0  0
  1  4  2  0  0  0  0
  1  6  1  0  0  0  0
  1 22  1  0  0  0  0
  2 28  1  0  0  0  0
  2 35  1  1  0  0  0
  2 38  2  0  0  0  0
  2 10  1  0  0  0  0
  5  6  1  0  0  0  0
  7  5  1  6  0  0  0
  7  8  1  0  0  0  0
  7  9  1  0  0  0  0
  9 10  1  6  0  0  0
  9 11  1  0  0  0  0
 11 12  1  1  0  0  0
 11 13  1  0  0  0  0
 13  8  1  6  0  0  0
 13 33  1  0  0  0  0
 14 46  1  0  0  0  0
 14 17  1  0  0  0  0
 14 25  1  1  0  0  0
 15 16  1  0  0  0  0
 15 29  1  0  0  0  0
 16 18  1  6  0  0  0
 16 21  1  0  0  0  0
 17 19  1  6  0  0  0
 17 20  1  0  0  0  0
 20 22  1  6  0  0  0
 20 24  1  0  0  0  0
 23 21  1  6  0  0  0
 23 26  1  0  0  0  0
 23 33  1  0  0  0  0
 24 25  1  6  0  0  0
 24 27  1  0  0  0  0
 26 29  1  1  0  0  0
 26 31  1  0  0  0  0
 27 28  1  0  0  0  0
 29 30  2  0  0  0  0
 31 32  1  0  0  0  0
 33 32  1  1  0  0  0
 34 36  1  0  0  0  0
 34 42  1  0  0  0  0
 36 37  1  6  0  0  0
 36 39  1  0  0  0  0
 40 39  1  1  0  0  0
 40 41  1  0  0  0  0
 40 46  1  0  0  0  0
 41 42  1  1  0  0  0
 41 44  1  0  0  0  0
 42 43  2  0  0  0  0
 44 45  1  0  0  0  0
 46 45  1  6  0  0  0
M  CHG  2   3  -1  35  -1
M  END
>  <CHROM.1>
179.81553182,128.49291669,-6.30103632,4.03020574,16.16324440,0.81925040,-1.26517309
0.30906295

>  <Name>
ligand

>  <RI>
-1

>  <Rbt.Current_Directory>
/home/itssahil/PROJECTS/Mol_Feturizer/Test_systems_manuscript/rnas/3mum

>  <Rbt.Executable>
rbdock ($Id: //depot/dev/client3/rdock/2013.1/src/exe/rbdock.cxx#4 $)

>  <Rbt.Library>
libRbt.so (2013.1, Build901 2013/11/27)

>  <Rbt.Parameter_File>
/export/apps/rDock/src/rDock_2013.1_src/data/scripts/dock_solv.prm

>  <Rbt.Receptor>
prm/pocket_docking_8.prm

>  <SCORE>
-25.9519

>  <SCORE.INTER>
-25.8266

>  <SCORE.INTER.CONST>
1

>  <SCORE.INTER.POLAR>
0

>  <SCORE.INTER.ROT>
2

>  <SCORE.INTER.SOLV>
16.8916

>  <SCORE.INTER.VDW>
-27.7816

>  <SCORE.INTER.norm>
-0.561449

>  <SCORE.INTRA>
-0.125214

>  <SCORE.INTRA.DIHEDRAL>
-0.0155718

>  <SCORE.INTRA.DIHEDRAL.0>
2.40424

>  <SCORE.INTRA.POLAR>
0

>  <SCORE.INTRA.POLAR.0>
0

>  <SCORE.INTRA.REPUL>
0

>  <SCORE.INTRA.REPUL.0>
0

>  <SCORE.INTRA.SOLV>
0.00812315

>  <SCORE.INTRA.SOLV.lig_0>
-134.169

>  <SCORE.INTRA.VDW>
-0.121489

>  <SCORE.INTRA.VDW.0>
-2.18386

>  <SCORE.INTRA.norm>
-0.00272204

>  <SCORE.RESTR>
0

>  <SCORE.RESTR.CAVITY>
0

>  <SCORE.RESTR.norm>
0

>  <SCORE.SYSTEM>
0

>  <SCORE.SYSTEM.CONST>
0

>  <SCORE.SYSTEM.DIHEDRAL>
0

>  <SCORE.SYSTEM.SOLV>
0

>  <SCORE.SYSTEM.norm>
0

>  <SCORE.heavy>
46

>  <SCORE.norm>
-0.564171

>  <RMSD>
4.635

$$$$
ligand
 OpenBabel02271912143D
libRbt.so/2013.1/901 2013/11/27
 46 52  0  0  0  0  0  0  0  0999 V2000
   -9.0976    6.6084   16.1431 P   0  0  1  0  0  0  0  0  0  0  0  0
   -3.4914    5.4303   14.7799 P   0  0  2  0  0  0  0  0  0  0  0  0
   -9.9084    5.1432   16.7241 O   0  5  0  0  0  0  0  0  0  0  0  0
  -10.1677    8.0318   16.2331 O   0  0  0  0  0  0  0  0  0  0  0  0
   -6.8582    7.8973   16.7323 C   0  0  0  0  0  0  0  0  0  0  0  0
   -7.7759    6.8463   17.0351 O   0  0  0  0  0  0  0  0  0  0  0  0
   -5.5290    7.5838   17.3923 C   0  0  1  0  0  0  0  0  0  0  0  0
   -5.7371    7.3306   18.7889 O   0  0  0  0  0  0  0  0  0  0  0  0
   -4.8680    6.3292   16.8449 C   0  0  1  0  0  0  0  0  0  0  0  0
   -3.9926    6.6146   15.7562 O   0  0  0  0  0  0  0  0  0  0  0  0
   -4.1198    5.7809   18.0473 C   0  0  1  0  0  0  0  0  0  0  0  0
   -2.8091    6.3488   18.1100 O   0  0  0  0  0  0  0  0  0  0  0  0
   -4.9103    6.2521   19.2538 C   0  0  2  0  0  0  0  0  0  0  0  0
   -7.8359    3.3889   12.8997 C   0  0  1  0  0  0  0  0  0  0  0  0
   -5.2225    1.5801   21.7572 N   0  0  0  0  0  0  0  0  0  0  0  0
   -4.1191    2.3116   21.4415 C   0  0  1  0  0  0  0  0  0  0  0  0
   -8.5381    4.0706   14.0397 C   0  0  2  0  0  0  0  0  0  0  0  0
   -2.9065    1.8236   21.7912 N   0  0  0  0  0  0  0  0  0  0  0  0
   -9.8503    4.3895   13.5735 O   0  0  0  0  0  0  0  0  0  0  0  0
   -7.7134    5.3125   14.3138 C   0  0  2  0  0  0  0  0  0  0  0  0
   -4.1879    3.5091   20.7873 N   0  0  0  0  0  0  0  0  0  0  0  0
   -8.5327    6.4246   14.6478 O   0  0  0  0  0  0  0  0  0  0  0  0
   -5.3796    4.0423   20.4169 C   0  0  2  0  0  0  0  0  0  0  0  0
   -6.9739    5.5823   13.0181 C   0  0  2  0  0  0  0  0  0  0  0  0
   -6.9461    4.3402   12.3170 O   0  0  0  0  0  0  0  0  0  0  0  0
   -6.6058    3.2889   20.7320 C   0  0  1  0  0  0  0  0  0  0  0  0
   -5.5476    6.0723   13.2414 C   0  0  0  0  0  0  0  0  0  0  0  0
   -4.8090    5.0618   13.9310 O   0  0  0  0  0  0  0  0  0  0  0  0
   -6.4672    2.0035   21.4395 C   0  0  0  0  0  0  0  0  0  0  0  0
   -7.5619    1.2658   21.7549 O   0  0  0  0  0  0  0  0  0  0  0  0
   -7.6337    4.0072   20.2668 N   0  0  0  0  0  0  0  0  0  0  0  0
   -7.1166    5.1338   19.6951 C   0  0  0  0  0  0  0  0  0  0  0  0
   -5.7699    5.1593   19.7812 N   0  0  1  0  0  0  0  0  0  0  0  0
   -7.0824   -1.7500   12.2730 N   0  0  0  0  0  0  0  0  0  0  0  0
   -2.9278    4.0149   15.7071 O   0  5  0  0  0  0  0  0  0  0  0  0
   -7.9066   -0.9018   11.5991 C   0  0  2  0  0  0  0  0  0  0  0  0
   -8.6790   -1.3875   10.5924 N   0  0  0  0  0  0  0  0  0  0  0  0
   -2.2224    5.9401   13.6495 O   0  0  0  0  0  0  0  0  0  0  0  0
   -7.9821    0.4230   11.9015 N   0  0  0  0  0  0  0  0  0  0  0  0
   -7.2328    0.9667   12.8890 C   0  0  2  0  0  0  0  0  0  0  0  0
   -6.3260    0.1009   13.6542 C   0  0  2  0  0  0  0  0  0  0  0  0
   -6.2920   -1.3300   13.2835 C   0  0  0  0  0  0  0  0  0  0  0  0
   -5.4880   -2.2062   13.9351 O   0  0  0  0  0  0  0  0  0  0  0  0
   -5.7213    0.8871   14.5668 N   0  0  0  0  0  0  0  0  0  0  0  0
   -6.2002    2.1553   14.3954 C   0  0  0  0  0  0  0  0  0  0  0  0
   -7.1060    2.1961   13.3920 N   0  0  1  0  0  0  0  0  0  0  0  0
  1  3  1  1  0  0  0
  1  4  2  0  0  0  0
  1  6  1  0  0  0  0
  1 22  1  0  0  0  0
  2 28  1  0  0  0  0
  2 35  1  1  0  0  0
  2 38  2  0  0  0  0
  2 10  1  0  0  0  0
  5  6  1  0  0  0  0
  7  5  1  6  0  0  0
  7  8  1  0  0  0  0
  7  9  1  0  0  0  0
  9 10  1  6  0  0  0
  9 11  1  0  0  0  0
 11 12  1  1  0  0  0
 11 13  1  0  0  0  0
 13  8  1  6  0  0  0
 13 33  1  0  0  0  0
 14 46  1  0  0  0  0
 14 17  1  0  0  0  0
 14 25  1  1  0  0  0
 15 16  1  0  0  0  0
 15 29  1  0  0  0  0
 16 18  1  6  0  0  0
 16 21  1  0  0  0  0
 17 19  1  6  0  0  0
 17 20  1  0  0  0  0
 20 22  1  6  0  0  0
 20 24  1  0  0  0  0
 23 21  1  6  0  0  0
 23 26  1  0  0  0  0
 23 33  1  0  0  0  0
 24 25  1  6  0  0  0
 24 27  1  0  0  0  0
 26 29  1  1  0  0  0
 26 31  1  0  0  0  0
 27 28  1  0  0  0  0
 29 30  2  0  0  0  0
 31 32  1  0  0  0  0
 33 32  1  1  0  0  0
 34 36  1  0  0  0  0
 34 42  1  0  0  0  0
 36 37  1  6  0  0  0
 36 39  1  0  0  0  0
 40 39  1  1  0  0  0
 40 41  1  0  0  0  0
 40 46  1  0  0  0  0
 41 42  1  1  0  0  0
 41 44  1  0  0  0  0
 42 43  2  0  0  0  0
 44 45  1  0  0  0  0
 46 45  1  6  0  0  0
M  CHG  2   3  -1  35  -1
M  END
>  <CHROM.1>
-173.18469584,126.95902104,-6.30646165,3.98352362,16.13939707,0.74033865
-1.26878263,0.26702045

>  <Name>
ligand

>  <RI>
-1

>  <Rbt.Current_Directory>
/home/itssahil/PROJECTS/Mol_Feturizer/Test_systems_manuscript/rnas/3mum

>  <Rbt.Executable>
rbdock ($Id: //depot/dev/client3/rdock/2013.1/src/exe/rbdock.cxx#4 $)

>  <Rbt.Library>
libRbt.so (2013.1, Build901 2013/11/27)

>  <Rbt.Parameter_File>
/export/apps/rDock/src/rDock_2013.1_src/data/scripts/dock_solv.prm

>  <Rbt.Receptor>
prm/pocket_docking_8.prm

>  <SCORE>
-26.0417

>  <SCORE.INTER>
-25.8586

>  <SCORE.INTER.CONST>
1

>  <SCORE.INTER.POLAR>
0

>  <SCORE.INTER.ROT>
2

>  <SCORE.INTER.SOLV>
18.0609

>  <SCORE.INTER.VDW>
-28.1927

>  <SCORE.INTER.norm>
-0.562144

>  <SCORE.INTRA>
-0.183115

>  <SCORE.INTRA.DIHEDRAL>
-0.0122189

>  <SCORE.INTRA.DIHEDRAL.0>
2.40424

>  <SCORE.INTRA.POLAR>
0

>  <SCORE.INTRA.POLAR.0>
0

>  <SCORE.INTRA.REPUL>
0

>  <SCORE.INTRA.REPUL.0>
0

>  <SCORE.INTRA.SOLV>
0.0182449

>  <SCORE.INTRA.SOLV.lig_0>
-134.169

>  <SCORE.INTRA.VDW>
-0.186128

>  <SCORE.INTRA.VDW.0>
-2.18386

>  <SCORE.INTRA.norm>
-0.00398076

>  <SCORE.RESTR>
0

>  <SCORE.RESTR.CAVITY>
0

>  <SCORE.RESTR.norm>
0

>  <SCORE.SYSTEM>
0

>  <SCORE.SYSTEM.CONST>
0

>  <SCORE.SYSTEM.DIHEDRAL>
0

>  <SCORE.SYSTEM.SOLV>
0

>  <SCORE.SYSTEM.norm>
0

>  <SCORE.heavy>
46

>  <SCORE.norm>
-0.566125

>  <RMSD>
4.651

$$$$
ligand
 OpenBabel02271912143D
libRbt.so/2013.1/901 2013/11/27
 46 52  0  0  0  0  0  0  0  0999 V2000
   -8.9472    6.6182   16.2216 P   0  0  1  0  0  0  0  0  0  0  0  0
   -3.3816    5.3248   14.7979 P   0  0  2  0  0  0  0  0  0  0  0  0
   -9.7836    5.1686   16.8053 O   0  5  0  0  0  0  0  0  0  0  0  0
   -9.9854    8.0640   16.3276 O   0  0  0  0  0  0  0  0  0  0  0  0
   -6.6747    7.8562   16.7931 C   0  0  0  0  0  0  0  0  0  0  0  0
   -7.6119    6.8241   17.1012 O   0  0  0  0  0  0  0  0  0  0  0  0
   -5.3461    7.5115   17.4386 C   0  0  1  0  0  0  0  0  0  0  0  0
   -5.5458    7.2574   18.8363 O   0  0  0  0  0  0  0  0  0  0  0  0
   -4.7178    6.2451   16.8800 C   0  0  1  0  0  0  0  0  0  0  0  0
   -3.8474    6.5158   15.7836 O   0  0  0  0  0  0  0  0  0  0  0  0
   -3.9698    5.6761   18.0727 C   0  0  1  0  0  0  0  0  0  0  0  0
   -2.6466    6.2153   18.1244 O   0  0  0  0  0  0  0  0  0  0  0  0
   -4.7379    6.1595   19.2888 C   0  0  2  0  0  0  0  0  0  0  0  0
   -7.7877    3.3850   12.9538 C   0  0  1  0  0  0  0  0  0  0  0  0
   -5.1252    1.4763   21.7608 N   0  0  0  0  0  0  0  0  0  0  0  0
   -4.0093    2.1837   21.4341 C   0  0  1  0  0  0  0  0  0  0  0  0
   -8.4636    4.0772   14.1033 C   0  0  2  0  0  0  0  0  0  0  0  0
   -2.8038    1.6640   21.7617 N   0  0  0  0  0  0  0  0  0  0  0  0
   -9.7732    4.4262   13.6515 O   0  0  0  0  0  0  0  0  0  0  0  0
   -7.6096    5.3000   14.3737 C   0  0  2  0  0  0  0  0  0  0  0  0
   -4.0590    3.3877   20.7902 N   0  0  0  0  0  0  0  0  0  0  0  0
   -8.4013    6.4281   14.7200 O   0  0  0  0  0  0  0  0  0  0  0  0
   -5.2429    3.9523   20.4419 C   0  0  2  0  0  0  0  0  0  0  0  0
   -6.8774    5.5589   13.0717 C   0  0  2  0  0  0  0  0  0  0  0  0
   -6.8834    4.3191   12.3657 O   0  0  0  0  0  0  0  0  0  0  0  0
   -6.4821    3.2260   20.7697 C   0  0  1  0  0  0  0  0  0  0  0  0
   -5.4386    6.0171   13.2825 C   0  0  0  0  0  0  0  0  0  0  0  0
   -4.7153    4.9882   13.9609 O   0  0  0  0  0  0  0  0  0  0  0  0
   -6.3640    1.9320   21.4652 C   0  0  0  0  0  0  0  0  0  0  0  0
   -7.4713    1.2183   21.7915 O   0  0  0  0  0  0  0  0  0  0  0  0
   -7.4992    3.9725   20.3256 N   0  0  0  0  0  0  0  0  0  0  0  0
   -6.9636    5.0909   19.7549 C   0  0  0  0  0  0  0  0  0  0  0  0
   -5.6156    5.0834   19.8208 N   0  0  1  0  0  0  0  0  0  0  0  0
   -7.1078   -1.7558   12.2624 N   0  0  0  0  0  0  0  0  0  0  0  0
   -2.8396    3.8939   15.7142 O   0  5  0  0  0  0  0  0  0  0  0  0
   -7.9150   -0.8863   11.5951 C   0  0  2  0  0  0  0  0  0  0  0  0
   -8.6884   -1.3468   10.5774 N   0  0  0  0  0  0  0  0  0  0  0  0
   -2.1132    5.8116   13.6568 O   0  0  0  0  0  0  0  0  0  0  0  0
   -7.9724    0.4353   11.9149 N   0  0  0  0  0  0  0  0  0  0  0  0
   -7.2211    0.9544   12.9140 C   0  0  2  0  0  0  0  0  0  0  0  0
   -6.3321    0.0647   13.6730 C   0  0  2  0  0  0  0  0  0  0  0  0
   -6.3174   -1.3614   13.2832 C   0  0  0  0  0  0  0  0  0  0  0  0
   -5.5307   -2.2583   13.9277 O   0  0  0  0  0  0  0  0  0  0  0  0
   -5.7214    0.8294   14.5996 N   0  0  0  0  0  0  0  0  0  0  0  0
   -6.1801    2.1068   14.4425 C   0  0  0  0  0  0  0  0  0  0  0  0
   -7.0789    2.1748   13.4343 N   0  0  1  0  0  0  0  0  0  0  0  0
  1  3  1  1  0  0  0
  1  4  2  0  0  0  0
  1  6  1  0  0  0  0
  1 22  1  0  0  0  0
  2 28  1  0  0  0  0
  2 35  1  1  0  0  0
  2 38  2  0  0  0  0
  2 10  1  0  0  0  0
  5  6  1  0  0  0  0
  7  5  1  6  0  0  0
  7  8  1  0  0  0  0
  7  9  1  0  0  0  0
  9 10  1  6  0  0  0
  9 11  1  0  0  0  0
 11 12  1  1  0  0  0
 11 13  1  0  0  0  0
 13  8  1  6  0  0  0
 13 33  1  0  0  0  0
 14 46  1  0  0  0  0
 14 17  1  0  0  0  0
 14 25  1  1  0  0  0
 15 16  1  0  0  0  0
 15 29  1  0  0  0  0
 16 18  1  6  0  0  0
 16 21  1  0  0  0  0
 17 19  1  6  0  0  0
 17 20  1  0  0  0  0
 20 22  1  6  0  0  0
 20 24  1  0  0  0  0
 23 21  1  6  0  0  0
 23 26  1  0  0  0  0
 23 33  1  0  0  0  0
 24 25  1  6  0  0  0
 24 27  1  0  0  0  0
 26 29  1  1  0  0  0
 26 31  1  0  0  0  0
 27 28  1  0  0  0  0
 29 30  2  0  0  0  0
 31 32  1  0  0  0  0
 33 32  1  1  0  0  0
 34 36  1  0  0  0  0
 34 42  1  0  0  0  0
 36 37  1  6  0  0  0
 36 39  1  0  0  0  0
 40 39  1  1  0  0  0
 40 41  1  0  0  0  0
 40 46  1  0  0  0  0
 41 42  1  1  0  0  0
 41 44  1  0  0  0  0
 42 43  2  0  0  0  0
 44 45  1  0  0  0  0
 46 45  1  6  0  0  0
M  CHG  2   3  -1  35  -1
M  END
>  <CHROM.1>
-173.57905989,128.09444022,-6.20872071,3.93396201,16.17417829,0.68789490
-1.26377280,0.22298417

>  <Name>
ligand

>  <RI>
-1

>  <Rbt.Current_Directory>
/home/itssahil/PROJECTS/Mol_Feturizer/Test_systems_manuscript/rnas/3mum

>  <Rbt.Executable>
rbdock ($Id: //depot/dev/client3/rdock/2013.1/src/exe/rbdock.cxx#4 $)

>  <Rbt.Library>
libRbt.so (2013.1, Build901 2013/11/27)

>  <Rbt.Parameter_File>
/export/apps/rDock/src/rDock_2013.1_src/data/scripts/dock_solv.prm

>  <Rbt.Receptor>
prm/pocket_docking_7.prm

>  <SCORE>
-26.0833

>  <SCORE.INTER>
-25.9123

>  <SCORE.INTER.CONST>
1

>  <SCORE.INTER.POLAR>
0

>  <SCORE.INTER.ROT>
2

>  <SCORE.INTER.SOLV>
18.1634

>  <SCORE.INTER.VDW>
-28.2627

>  <SCORE.INTER.norm>
-0.563311

>  <SCORE.INTRA>
-0.171027

>  <SCORE.INTRA.DIHEDRAL>
-0.0138165

>  <SCORE.INTRA.DIHEDRAL.0>
2.40424

>  <SCORE.INTRA.POLAR>
0

>  <SCORE.INTRA.POLAR.0>
0

>  <SCORE.INTRA.REPUL>
0

>  <SCORE.INTRA.REPUL.0>
0

>  <SCORE.INTRA.SOLV>
0.0135517

>  <SCORE.INTRA.SOLV.lig_0>
-134.169

>  <SCORE.INTRA.VDW>
-0.170895

>  <SCORE.INTRA.VDW.0>
-2.18386

>  <SCORE.INTRA.norm>
-0.00371798

>  <SCORE.RESTR>
0

>  <SCORE.RESTR.CAVITY>
0

>  <SCORE.RESTR.norm>
0

>  <SCORE.SYSTEM>
0

>  <SCORE.SYSTEM.CONST>
0

>  <SCORE.SYSTEM.DIHEDRAL>
0

>  <SCORE.SYSTEM.SOLV>
0

>  <SCORE.SYSTEM.norm>
0

>  <SCORE.heavy>
46

>  <SCORE.norm>
-0.567029

>  <RMSD>
4.669

$$$$
ligand
 OpenBabel02271912143D
libRbt.so/2013.1/901 2013/11/27
 46 52  0  0  0  0  0  0  0  0999 V2000
   -8.9574    6.6434   16.2176 P   0  0  1  0  0  0  0  0  0  0  0  0
   -3.3829    5.3494   14.8296 P   0  0  2  0  0  0  0  0  0  0  0  0
   -9.7975    5.1940   16.7966 O   0  5  0  0  0  0  0  0  0  0  0  0
   -9.9962    8.0892   16.3165 O   0  0  0  0  0  0  0  0  0  0  0  0
   -6.6885    7.8815   16.8030 C   0  0  0  0  0  0  0  0  0  0  0  0
   -7.6277    6.8496   17.1056 O   0  0  0  0  0  0  0  0  0  0  0  0
   -5.3640    7.5371   17.4570 C   0  0  1  0  0  0  0  0  0  0  0  0
   -5.5725    7.2835   18.8535 O   0  0  0  0  0  0  0  0  0  0  0  0
   -4.7323    6.2705   16.9028 C   0  0  1  0  0  0  0  0  0  0  0  0
   -3.8549    6.5407   15.8118 O   0  0  0  0  0  0  0  0  0  0  0  0
   -3.9918    5.7019   18.1005 C   0  0  1  0  0  0  0  0  0  0  0  0
   -2.6689    6.2411   18.1603 O   0  0  0  0  0  0  0  0  0  0  0  0
   -4.7676    6.1858   19.3115 C   0  0  2  0  0  0  0  0  0  0  0  0
   -7.7773    3.4089   12.9584 C   0  0  1  0  0  0  0  0  0  0  0  0
   -5.1753    1.5429   21.8551 N   0  0  0  0  0  0  0  0  0  0  0  0
   -4.0581    2.2563   21.5465 C   0  0  1  0  0  0  0  0  0  0  0  0
   -8.4605    4.1015   14.1034 C   0  0  2  0  0  0  0  0  0  0  0  0
   -2.8568    1.7552   21.9163 N   0  0  0  0  0  0  0  0  0  0  0  0
   -9.7672    4.4504   13.6432 O   0  0  0  0  0  0  0  0  0  0  0  0
   -7.6081    5.3244   14.3788 C   0  0  2  0  0  0  0  0  0  0  0  0
   -4.1022    3.4482   20.8801 N   0  0  0  0  0  0  0  0  0  0  0  0
   -8.4020    6.4527   14.7196 O   0  0  0  0  0  0  0  0  0  0  0  0
   -5.2817    3.9939   20.4896 C   0  0  2  0  0  0  0  0  0  0  0  0
   -6.8677    5.5827   13.0812 C   0  0  2  0  0  0  0  0  0  0  0  0
   -6.8693    4.3427   12.3757 O   0  0  0  0  0  0  0  0  0  0  0  0
   -6.5220    3.2604   20.7962 C   0  0  1  0  0  0  0  0  0  0  0  0
   -5.4303    6.0410   13.3010 C   0  0  0  0  0  0  0  0  0  0  0  0
   -4.7113    5.0124   13.9843 O   0  0  0  0  0  0  0  0  0  0  0  0
   -6.4100    1.9801   21.5176 C   0  0  0  0  0  0  0  0  0  0  0  0
   -7.5186    1.2605   21.8261 O   0  0  0  0  0  0  0  0  0  0  0  0
   -7.5341    3.9880   20.3111 N   0  0  0  0  0  0  0  0  0  0  0  0
   -6.9943    5.1019   19.7354 C   0  0  0  0  0  0  0  0  0  0  0  0
   -5.6486    5.1099   19.8384 N   0  0  1  0  0  0  0  0  0  0  0  0
   -7.1350   -1.7423   12.3093 N   0  0  0  0  0  0  0  0  0  0  0  0
   -2.8467    3.9188   15.7498 O   0  5  0  0  0  0  0  0  0  0  0  0
   -7.9428   -0.8741   11.6410 C   0  0  2  0  0  0  0  0  0  0  0  0
   -8.7282   -1.3392   10.6347 N   0  0  0  0  0  0  0  0  0  0  0  0
   -2.1073    5.8356   13.6963 O   0  0  0  0  0  0  0  0  0  0  0  0
   -7.9893    0.4508   11.9489 N   0  0  0  0  0  0  0  0  0  0  0  0
   -7.2259    0.9745   12.9364 C   0  0  2  0  0  0  0  0  0  0  0  0
   -6.3355    0.0865   13.6956 C   0  0  2  0  0  0  0  0  0  0  0  0
   -6.3330   -1.3433   13.3192 C   0  0  0  0  0  0  0  0  0  0  0  0
   -5.5460   -2.2390   13.9649 O   0  0  0  0  0  0  0  0  0  0  0  0
   -5.7118    0.8560   14.6095 N   0  0  0  0  0  0  0  0  0  0  0  0
   -6.1641    2.1347   14.4446 C   0  0  0  0  0  0  0  0  0  0  0  0
   -7.0716    2.1988   13.4439 N   0  0  1  0  0  0  0  0  0  0  0  0
  1  3  1  1  0  0  0
  1  4  2  0  0  0  0
  1  6  1  0  0  0  0
  1 22  1  0  0  0  0
  2 28  1  0  0  0  0
  2 35  1  1  0  0  0
  2 38  2  0  0  0  0
  2 10  1  0  0  0  0
  5  6  1  0  0  0  0
  7  5  1  6  0  0  0
  7  8  1  0  0  0  0
  7  9  1  0  0  0  0
  9 10  1  6  0  0  0
  9 11  1  0  0  0  0
 11 12  1  1  0  0  0
 11 13  1  0  0  0  0
 13  8  1  6  0  0  0
 13 33  1  0  0  0  0
 14 46  1  0  0  0  0
 14 17  1  0  0  0  0
 14 25  1  1  0  0  0
 15 16  1  0  0  0  0
 15 29  1  0  0  0  0
 16 18  1  6  0  0  0
 16 21  1  0  0  0  0
 17 19  1  6  0  0  0
 17 20  1  0  0  0  0
 20 22  1  6  0  0  0
 20 24  1  0  0  0  0
 23 21  1  6  0  0  0
 23 26  1  0  0  0  0
 23 33  1  0  0  0  0
 24 25  1  6  0  0  0
 24 27  1  0  0  0  0
 26 29  1  1  0  0  0
 26 31  1  0  0  0  0
 27 28  1  0  0  0  0
 29 30  2  0  0  0  0
 31 32  1  0  0  0  0
 33 32  1  1  0  0  0
 34 36  1  0  0  0  0
 34 42  1  0  0  0  0
 36 37  1  6  0  0  0
 36 39  1  0  0  0  0
 40 39  1  1  0  0  0
 40 41  1  0  0  0  0
 40 46  1  0  0  0  0
 41 42  1  1  0  0  0
 41 44  1  0  0  0  0
 42 43  2  0  0  0  0
 44 45  1  0  0  0  0
 46 45  1  6  0  0  0
M  CHG  2   3  -1  35  -1
M  END
>  <CHROM.1>
-171.90262231,127.01918850,-6.22381444,3.96219135,16.20025319,0.65572601
-1.27285064,0.19494864

>  <Name>
ligand

>  <RI>
-1

>  <Rbt.Current_Directory>
/home/itssahil/PROJECTS/Mol_Feturizer/Test_systems_manuscript/rnas/3mum

>  <Rbt.Executable>
rbdock ($Id: //depot/dev/client3/rdock/2013.1/src/exe/rbdock.cxx#4 $)

>  <Rbt.Library>
libRbt.so (2013.1, Build901 2013/11/27)

>  <Rbt.Parameter_File>
/export/apps/rDock/src/rDock_2013.1_src/data/scripts/dock_solv.prm

>  <Rbt.Receptor>
prm/pocket_docking_5.prm

>  <SCORE>
-26.0751

>  <SCORE.INTER>
-25.8864

>  <SCORE.INTER.CONST>
1

>  <SCORE.INTER.POLAR>
0

>  <SCORE.INTER.ROT>
2

>  <SCORE.INTER.SOLV>
18.1023

>  <SCORE.INTER.VDW>
-28.225

>  <SCORE.INTER.norm>
-0.562747

>  <SCORE.INTRA>
-0.188699

>  <SCORE.INTRA.DIHEDRAL>
-0.012076

>  <SCORE.INTRA.DIHEDRAL.0>
2.40424

>  <SCORE.INTRA.POLAR>
0

>  <SCORE.INTRA.POLAR.0>
0

>  <SCORE.INTRA.REPUL>
0

>  <SCORE.INTRA.REPUL.0>
0

>  <SCORE.INTRA.SOLV>
0.0226755

>  <SCORE.INTRA.SOLV.lig_0>
-134.169

>  <SCORE.INTRA.VDW>
-0.193998

>  <SCORE.INTRA.VDW.0>
-2.18386

>  <SCORE.INTRA.norm>
-0.00410215

>  <SCORE.RESTR>
0

>  <SCORE.RESTR.CAVITY>
0

>  <SCORE.RESTR.norm>
0

>  <SCORE.SYSTEM>
0

>  <SCORE.SYSTEM.CONST>
0

>  <SCORE.SYSTEM.DIHEDRAL>
0

>  <SCORE.SYSTEM.SOLV>
0

>  <SCORE.SYSTEM.norm>
0

>  <SCORE.heavy>
46

>  <SCORE.norm>
-0.566849

>  <RMSD>
4.674

$$$$
ligand
 OpenBabel02271912143D
libRbt.so/2013.1/901 2013/11/27
 46 52  0  0  0  0  0  0  0  0999 V2000
   -9.3816    6.5971   16.3726 P   0  0  1  0  0  0  0  0  0  0  0  0
   -3.7349    5.8127   14.8974 P   0  0  2  0  0  0  0  0  0  0  0  0
  -10.0864    5.0709   16.9342 O   0  5  0  0  0  0  0  0  0  0  0  0
  -10.5394    7.9461   16.5101 O   0  0  0  0  0  0  0  0  0  0  0  0
   -7.2201    8.0158   16.9549 C   0  0  0  0  0  0  0  0  0  0  0  0
   -8.0630    6.9016   17.2490 O   0  0  0  0  0  0  0  0  0  0  0  0
   -5.8625    7.7754   17.5872 C   0  0  1  0  0  0  0  0  0  0  0  0
   -6.0303    7.4805   18.9811 O   0  0  0  0  0  0  0  0  0  0  0  0
   -5.1315    6.5778   17.0026 C   0  0  1  0  0  0  0  0  0  0  0  0
   -4.2948    6.9417   15.9068 O   0  0  0  0  0  0  0  0  0  0  0  0
   -4.3294    6.0543   18.1810 C   0  0  1  0  0  0  0  0  0  0  0  0
   -3.0571    6.7045   18.2357 O   0  0  0  0  0  0  0  0  0  0  0  0
   -5.1281    6.4484   19.4095 C   0  0  2  0  0  0  0  0  0  0  0  0
   -7.9701    3.5337   13.0409 C   0  0  1  0  0  0  0  0  0  0  0  0
   -5.0859    1.5949   21.5622 N   0  0  0  0  0  0  0  0  0  0  0  0
   -4.0358    2.3839   21.2057 C   0  0  1  0  0  0  0  0  0  0  0  0
   -8.6954    4.1448   14.2062 C   0  0  2  0  0  0  0  0  0  0  0  0
   -2.7838    1.9113   21.4057 N   0  0  0  0  0  0  0  0  0  0  0  0
  -10.0331    4.3878   13.7674 O   0  0  0  0  0  0  0  0  0  0  0  0
   -7.9478    5.4316   14.4944 C   0  0  2  0  0  0  0  0  0  0  0  0
   -4.1959    3.6239   20.6549 N   0  0  0  0  0  0  0  0  0  0  0  0
   -8.8313    6.4812   14.8651 O   0  0  0  0  0  0  0  0  0  0  0  0
   -5.4302    4.1437   20.4360 C   0  0  2  0  0  0  0  0  0  0  0  0
   -7.2493    5.7754   13.1935 C   0  0  2  0  0  0  0  0  0  0  0  0
   -7.1534    4.5524   12.4652 O   0  0  0  0  0  0  0  0  0  0  0  0
   -6.6020    3.3289   20.8013 C   0  0  1  0  0  0  0  0  0  0  0  0
   -5.8538    6.3520   13.4053 C   0  0  0  0  0  0  0  0  0  0  0  0
   -5.0403    5.3774   14.0612 O   0  0  0  0  0  0  0  0  0  0  0  0
   -6.3653    1.9996   21.3920 C   0  0  0  0  0  0  0  0  0  0  0  0
   -7.4066    1.2048   21.7470 O   0  0  0  0  0  0  0  0  0  0  0  0
   -7.6869    4.0457   20.4878 N   0  0  0  0  0  0  0  0  0  0  0  0
   -7.2543    5.2282   19.9606 C   0  0  0  0  0  0  0  0  0  0  0  0
   -5.9065    5.2916   19.9264 N   0  0  1  0  0  0  0  0  0  0  0  0
   -6.9605   -1.5526   12.3495 N   0  0  0  0  0  0  0  0  0  0  0  0
   -3.0658    4.4179   15.7848 O   0  5  0  0  0  0  0  0  0  0  0  0
   -7.8562   -0.7481   11.7144 C   0  0  2  0  0  0  0  0  0  0  0  0
   -8.6401   -1.2709   10.7355 N   0  0  0  0  0  0  0  0  0  0  0  0
   -2.5206    6.4269   13.7588 O   0  0  0  0  0  0  0  0  0  0  0  0
   -7.9925    0.5691   12.0287 N   0  0  0  0  0  0  0  0  0  0  0  0
   -7.2356    1.1487   12.9897 C   0  0  2  0  0  0  0  0  0  0  0  0
   -6.2529    0.3306   13.7126 C   0  0  2  0  0  0  0  0  0  0  0  0
   -6.1549   -1.0945   13.3310 C   0  0  0  0  0  0  0  0  0  0  0  0
   -5.2787   -1.9280   13.9443 O   0  0  0  0  0  0  0  0  0  0  0  0
   -5.6566    1.1446   14.6061 N   0  0  0  0  0  0  0  0  0  0  0  0
   -6.2110    2.3852   14.4625 C   0  0  0  0  0  0  0  0  0  0  0  0
   -7.1567    2.3807   13.4958 N   0  0  1  0  0  0  0  0  0  0  0  0
  1  3  1  1  0  0  0
  1  4  2  0  0  0  0
  1  6  1  0  0  0  0
  1 22  1  0  0  0  0
  2 28  1  0  0  0  0
  2 35  1  1  0  0  0
  2 38  2  0  0  0  0
  2 10  1  0  0  0  0
  5  6  1  0  0  0  0
  7  5  1  6  0  0  0
  7  8  1  0  0  0  0
  7  9  1  0  0  0  0
  9 10  1  6  0  0  0
  9 11  1  0  0  0  0
 11 12  1  1  0  0  0
 11 13  1  0  0  0  0
 13  8  1  6  0  0  0
 13 33  1  0  0  0  0
 14 46  1  0  0  0  0
 14 17  1  0  0  0  0
 14 25  1  1  0  0  0
 15 16  1  0  0  0  0
 15 29  1  0  0  0  0
 16 18  1  6  0  0  0
 16 21  1  0  0  0  0
 17 19  1  6  0  0  0
 17 20  1  0  0  0  0
 20 22  1  6  0  0  0
 20 24  1  0  0  0  0
 23 21  1  6  0  0  0
 23 26  1  0  0  0  0
 23 33  1  0  0  0  0
 24 25  1  6  0  0  0
 24 27  1  0  0  0  0
 26 29  1  1  0  0  0
 26 31  1  0  0  0  0
 27 28  1  0  0  0  0
 29 30  2  0  0  0  0
 31 32  1  0  0  0  0
 33 32  1  1  0  0  0
 34 36  1  0  0  0  0
 34 42  1  0  0  0  0
 36 37  1  6  0  0  0
 36 39  1  0  0  0  0
 40 39  1  1  0  0  0
 40 41  1  0  0  0  0
 40 46  1  0  0  0  0
 41 42  1  1  0  0  0
 41 44  1  0  0  0  0
 42 43  2  0  0  0  0
 44 45  1  0  0  0  0
 46 45  1  6  0  0  0
M  CHG  2   3  -1  35  -1
M  END
>  <CHROM.1>
-178.89697499,125.26978448,-6.43337462,4.14371201,16.24767213,0.93033660
-1.22077363,0.43595498

>  <Name>
ligand

>  <RI>
-1

>  <Rbt.Current_Directory>
/home/itssahil/PROJECTS/Mol_Feturizer/Test_systems_manuscript/rnas/3mum

>  <Rbt.Executable>
rbdock ($Id: //depot/dev/client3/rdock/2013.1/src/exe/rbdock.cxx#4 $)

>  <Rbt.Library>
libRbt.so (2013.1, Build901 2013/11/27)

>  <Rbt.Parameter_File>
/export/apps/rDock/src/rDock_2013.1_src/data/scripts/dock_solv.prm

>  <Rbt.Receptor>
prm/pocket_docking_6.prm

>  <SCORE>
-26.0894

>  <SCORE.INTER>
-25.9271

>  <SCORE.INTER.CONST>
1

>  <SCORE.INTER.POLAR>
0

>  <SCORE.INTER.ROT>
2

>  <SCORE.INTER.SOLV>
15.9849

>  <SCORE.INTER.VDW>
-27.5464

>  <SCORE.INTER.norm>
-0.563634

>  <SCORE.INTRA>
-0.162262

>  <SCORE.INTRA.DIHEDRAL>
-0.0109425

>  <SCORE.INTRA.DIHEDRAL.0>
2.40424

>  <SCORE.INTRA.POLAR>
0

>  <SCORE.INTRA.POLAR.0>
0

>  <SCORE.INTRA.REPUL>
0

>  <SCORE.INTRA.REPUL.0>
0

>  <SCORE.INTRA.SOLV>
0.0166469

>  <SCORE.INTRA.SOLV.lig_0>
-134.169

>  <SCORE.INTRA.VDW>
-0.165114

>  <SCORE.INTRA.VDW.0>
-2.18386

>  <SCORE.INTRA.norm>
-0.00352744

>  <SCORE.RESTR>
0

>  <SCORE.RESTR.CAVITY>
0

>  <SCORE.RESTR.norm>
0

>  <SCORE.SYSTEM>
0

>  <SCORE.SYSTEM.CONST>
0

>  <SCORE.SYSTEM.DIHEDRAL>
0

>  <SCORE.SYSTEM.SOLV>
0

>  <SCORE.SYSTEM.norm>
0

>  <SCORE.heavy>
46

>  <SCORE.norm>
-0.567161

>  <RMSD>
4.680

$$$$
ligand
 OpenBabel02271912143D
libRbt.so/2013.1/901 2013/11/27
 46 52  0  0  0  0  0  0  0  0999 V2000
   -8.9785    6.6444   16.2372 P   0  0  1  0  0  0  0  0  0  0  0  0
   -3.4053    5.4006   14.7989 P   0  0  2  0  0  0  0  0  0  0  0  0
   -9.7989    5.1885   16.8282 O   0  5  0  0  0  0  0  0  0  0  0  0
  -10.0303    8.0803   16.3422 O   0  0  0  0  0  0  0  0  0  0  0  0
   -6.7163    7.9061   16.7973 C   0  0  0  0  0  0  0  0  0  0  0  0
   -7.6424    6.8659   17.1117 O   0  0  0  0  0  0  0  0  0  0  0  0
   -5.3822    7.5763   17.4394 C   0  0  1  0  0  0  0  0  0  0  0  0
   -5.5748    7.3247   18.8385 O   0  0  0  0  0  0  0  0  0  0  0  0
   -4.7436    6.3144   16.8825 C   0  0  1  0  0  0  0  0  0  0  0  0
   -3.8794    6.5901   15.7824 O   0  0  0  0  0  0  0  0  0  0  0  0
   -3.9861    5.7564   18.0745 C   0  0  1  0  0  0  0  0  0  0  0  0
   -2.6680    6.3086   18.1201 O   0  0  0  0  0  0  0  0  0  0  0  0
   -4.7548    6.2361   19.2917 C   0  0  2  0  0  0  0  0  0  0  0  0
   -7.7985    3.4124   12.9755 C   0  0  1  0  0  0  0  0  0  0  0  0
   -5.0859    1.4638   21.5955 N   0  0  0  0  0  0  0  0  0  0  0  0
   -3.9777    2.1663   21.2340 C   0  0  1  0  0  0  0  0  0  0  0  0
   -8.4773    4.1015   14.1251 C   0  0  2  0  0  0  0  0  0  0  0  0
   -2.7651    1.6152   21.4719 N   0  0  0  0  0  0  0  0  0  0  0  0
   -9.7917    4.4364   13.6766 O   0  0  0  0  0  0  0  0  0  0  0  0
   -7.6342    5.3334   14.3889 C   0  0  2  0  0  0  0  0  0  0  0  0
   -4.0420    3.3959   20.6418 N   0  0  0  0  0  0  0  0  0  0  0  0
   -8.4357    6.4549   14.7344 O   0  0  0  0  0  0  0  0  0  0  0  0
   -5.2334    3.9923   20.3839 C   0  0  2  0  0  0  0  0  0  0  0  0
   -6.9090    5.5953   13.0836 C   0  0  2  0  0  0  0  0  0  0  0  0
   -6.9052    4.3534   12.3815 O   0  0  0  0  0  0  0  0  0  0  0  0
   -6.4649    3.2728   20.7528 C   0  0  1  0  0  0  0  0  0  0  0  0
   -5.4740    6.0681   13.2882 C   0  0  0  0  0  0  0  0  0  0  0  0
   -4.7385    5.0484   13.9674 O   0  0  0  0  0  0  0  0  0  0  0  0
   -6.3310    1.9502   21.3890 C   0  0  0  0  0  0  0  0  0  0  0  0
   -7.4308    1.2411   21.7493 O   0  0  0  0  0  0  0  0  0  0  0  0
   -7.4920    4.0522   20.3969 N   0  0  0  0  0  0  0  0  0  0  0  0
   -6.9695    5.1843   19.8410 C   0  0  0  0  0  0  0  0  0  0  0  0
   -5.6202    5.1532   19.8299 N   0  0  1  0  0  0  0  0  0  0  0  0
   -7.0479   -1.7178   12.2782 N   0  0  0  0  0  0  0  0  0  0  0  0
   -2.8464    3.9779   15.7177 O   0  5  0  0  0  0  0  0  0  0  0  0
   -7.8630   -0.8577   11.6083 C   0  0  2  0  0  0  0  0  0  0  0  0
   -8.6251   -1.3262   10.5858 N   0  0  0  0  0  0  0  0  0  0  0  0
   -2.1455    5.8961   13.6520 O   0  0  0  0  0  0  0  0  0  0  0  0
   -7.9393    0.4625   11.9302 N   0  0  0  0  0  0  0  0  0  0  0  0
   -7.1999    0.9894   12.9342 C   0  0  2  0  0  0  0  0  0  0  0  0
   -6.3033    0.1100   13.6960 C   0  0  2  0  0  0  0  0  0  0  0  0
   -6.2679   -1.3151   13.3037 C   0  0  0  0  0  0  0  0  0  0  0  0
   -5.4729   -2.2029   13.9505 O   0  0  0  0  0  0  0  0  0  0  0  0
   -5.7073    0.8808   14.6271 N   0  0  0  0  0  0  0  0  0  0  0  0
   -6.1818    2.1525   14.4701 C   0  0  0  0  0  0  0  0  0  0  0  0
   -7.0763    2.2106   13.4574 N   0  0  1  0  0  0  0  0  0  0  0  0
  1  3  1  1  0  0  0
  1  4  2  0  0  0  0
  1  6  1  0  0  0  0
  1 22  1  0  0  0  0
  2 28  1  0  0  0  0
  2 35  1  1  0  0  0
  2 38  2  0  0  0  0
  2 10  1  0  0  0  0
  5  6  1  0  0  0  0
  7  5  1  6  0  0  0
  7  8  1  0  0  0  0
  7  9  1  0  0  0  0
  9 10  1  6  0  0  0
  9 11  1  0  0  0  0
 11 12  1  1  0  0  0
 11 13  1  0  0  0  0
 13  8  1  6  0  0  0
 13 33  1  0  0  0  0
 14 46  1  0  0  0  0
 14 17  1  0  0  0  0
 14 25  1  1  0  0  0
 15 16  1  0  0  0  0
 15 29  1  0  0  0  0
 16 18  1  6  0  0  0
 16 21  1  0  0  0  0
 17 19  1  6  0  0  0
 17 20  1  0  0  0  0
 20 22  1  6  0  0  0
 20 24  1  0  0  0  0
 23 21  1  6  0  0  0
 23 26  1  0  0  0  0
 23 33  1  0  0  0  0
 24 25  1  6  0  0  0
 24 27  1  0  0  0  0
 26 29  1  1  0  0  0
 26 31  1  0  0  0  0
 27 28  1  0  0  0  0
 29 30  2  0  0  0  0
 31 32  1  0  0  0  0
 33 32  1  1  0  0  0
 34 36  1  0  0  0  0
 34 42  1  0  0  0  0
 36 37  1  6  0  0  0
 36 39  1  0  0  0  0
 40 39  1  1  0  0  0
 40 41  1  0  0  0  0
 40 46  1  0  0  0  0
 41 42  1  1  0  0  0
 41 44  1  0  0  0  0
 42 43  2  0  0  0  0
 44 45  1  0  0  0  0
 46 45  1  6  0  0  0
M  CHG  2   3  -1  35  -1
M  END
>  <CHROM.1>
-177.77860585,128.68713778,-6.21145156,3.97724285,16.16688941,0.76381752
-1.25080892,0.27545272

>  <Name>
ligand

>  <RI>
-1

>  <Rbt.Current_Directory>
/home/itssahil/PROJECTS/Mol_Feturizer/Test_systems_manuscript/rnas/3mum

>  <Rbt.Executable>
rbdock ($Id: //depot/dev/client3/rdock/2013.1/src/exe/rbdock.cxx#4 $)

>  <Rbt.Library>
libRbt.so (2013.1, Build901 2013/11/27)

>  <Rbt.Parameter_File>
/export/apps/rDock/src/rDock_2013.1_src/data/scripts/dock_solv.prm

>  <Rbt.Receptor>
prm/pocket_docking_6.prm

>  <SCORE>
-26.0925

>  <SCORE.INTER>
-25.9525

>  <SCORE.INTER.CONST>
1

>  <SCORE.INTER.POLAR>
0

>  <SCORE.INTER.ROT>
2

>  <SCORE.INTER.SOLV>
17.2938

>  <SCORE.INTER.VDW>
-27.9996

>  <SCORE.INTER.norm>
-0.564185

>  <SCORE.INTRA>
-0.140049

>  <SCORE.INTRA.DIHEDRAL>
-0.0153726

>  <SCORE.INTRA.DIHEDRAL.0>
2.40424

>  <SCORE.INTRA.POLAR>
0

>  <SCORE.INTRA.POLAR.0>
0

>  <SCORE.INTRA.REPUL>
0

>  <SCORE.INTRA.REPUL.0>
0

>  <SCORE.INTRA.SOLV>
0.00674571

>  <SCORE.INTRA.SOLV.lig_0>
-134.169

>  <SCORE.INTRA.VDW>
-0.135736

>  <SCORE.INTRA.VDW.0>
-2.18386

>  <SCORE.INTRA.norm>
-0.00304454

>  <SCORE.RESTR>
0

>  <SCORE.RESTR.CAVITY>
0

>  <SCORE.RESTR.norm>
0

>  <SCORE.SYSTEM>
0

>  <SCORE.SYSTEM.CONST>
0

>  <SCORE.SYSTEM.DIHEDRAL>
0

>  <SCORE.SYSTEM.SOLV>
0

>  <SCORE.SYSTEM.norm>
0

>  <SCORE.heavy>
46

>  <SCORE.norm>
-0.567229

>  <RMSD>
4.682

$$$$
ligand
 OpenBabel02271912143D
libRbt.so/2013.1/901 2013/11/27
 46 52  0  0  0  0  0  0  0  0999 V2000
   -8.9674    6.6586   16.2189 P   0  0  1  0  0  0  0  0  0  0  0  0
   -3.3857    5.3912   14.8353 P   0  0  2  0  0  0  0  0  0  0  0  0
   -9.8005    5.2056   16.7989 O   0  5  0  0  0  0  0  0  0  0  0  0
  -10.0135    8.0993   16.3158 O   0  0  0  0  0  0  0  0  0  0  0  0
   -6.7051    7.9087   16.8043 C   0  0  0  0  0  0  0  0  0  0  0  0
   -7.6392    6.8723   17.1074 O   0  0  0  0  0  0  0  0  0  0  0  0
   -5.3792    7.5716   17.4594 C   0  0  1  0  0  0  0  0  0  0  0  0
   -5.5872    7.3184   18.8560 O   0  0  0  0  0  0  0  0  0  0  0  0
   -4.7408    6.3076   16.9068 C   0  0  1  0  0  0  0  0  0  0  0  0
   -3.8642    6.5812   15.8161 O   0  0  0  0  0  0  0  0  0  0  0  0
   -3.9982    5.7440   18.1055 C   0  0  1  0  0  0  0  0  0  0  0  0
   -2.6780    6.2899   18.1655 O   0  0  0  0  0  0  0  0  0  0  0  0
   -4.7770    6.2252   19.3156 C   0  0  2  0  0  0  0  0  0  0  0  0
   -7.7693    3.4268   12.9637 C   0  0  1  0  0  0  0  0  0  0  0  0
   -5.1611    1.5712   21.8425 N   0  0  0  0  0  0  0  0  0  0  0  0
   -4.0471    2.2880   21.5305 C   0  0  1  0  0  0  0  0  0  0  0  0
   -8.4565    4.1171   14.1076 C   0  0  2  0  0  0  0  0  0  0  0  0
   -2.8428    1.7879   21.8913 N   0  0  0  0  0  0  0  0  0  0  0  0
   -9.7647    4.4589   13.6463 O   0  0  0  0  0  0  0  0  0  0  0  0
   -7.6105    5.3445   14.3822 C   0  0  2  0  0  0  0  0  0  0  0  0
   -4.0974    3.4825   20.8692 N   0  0  0  0  0  0  0  0  0  0  0  0
   -8.4102    6.4692   14.7214 O   0  0  0  0  0  0  0  0  0  0  0  0
   -5.2801    4.0275   20.4876 C   0  0  2  0  0  0  0  0  0  0  0  0
   -6.8707    5.6053   13.0848 C   0  0  2  0  0  0  0  0  0  0  0  0
   -6.8656    4.3646   12.3805 O   0  0  0  0  0  0  0  0  0  0  0  0
   -6.5172    3.2903   20.7983 C   0  0  1  0  0  0  0  0  0  0  0  0
   -5.4357    6.0710   13.3048 C   0  0  0  0  0  0  0  0  0  0  0  0
   -4.7119    5.0467   13.9896 O   0  0  0  0  0  0  0  0  0  0  0  0
   -6.3986    2.0073   21.5138 C   0  0  0  0  0  0  0  0  0  0  0  0
   -7.5040    1.2842   21.8257 O   0  0  0  0  0  0  0  0  0  0  0  0
   -7.5334    4.0179   20.3220 N   0  0  0  0  0  0  0  0  0  0  0  0
   -6.9992    5.1352   19.7477 C   0  0  0  0  0  0  0  0  0  0  0  0
   -5.6529    5.1454   19.8431 N   0  0  1  0  0  0  0  0  0  0  0  0
   -7.0532   -1.7101   12.2795 N   0  0  0  0  0  0  0  0  0  0  0  0
   -2.8428    3.9643   15.7573 O   0  5  0  0  0  0  0  0  0  0  0  0
   -7.8594   -0.8454   11.6048 C   0  0  2  0  0  0  0  0  0  0  0  0
   -8.6209   -1.3106   10.5803 N   0  0  0  0  0  0  0  0  0  0  0  0
   -2.1119    5.8828   13.7022 O   0  0  0  0  0  0  0  0  0  0  0  0
   -7.9274    0.4759   11.9238 N   0  0  0  0  0  0  0  0  0  0  0  0
   -7.1881    0.9995   12.9295 C   0  0  2  0  0  0  0  0  0  0  0  0
   -6.3008    0.1151   13.6965 C   0  0  2  0  0  0  0  0  0  0  0  0
   -6.2742   -1.3110   13.3072 C   0  0  0  0  0  0  0  0  0  0  0  0
   -5.4881   -2.2032   13.9589 O   0  0  0  0  0  0  0  0  0  0  0  0
   -5.7028    0.8835   14.6284 N   0  0  0  0  0  0  0  0  0  0  0  0
   -6.1675    2.1582   14.4670 C   0  0  0  0  0  0  0  0  0  0  0  0
   -7.0577    2.2208   13.4508 N   0  0  1  0  0  0  0  0  0  0  0  0
  1  3  1  1  0  0  0
  1  4  2  0  0  0  0
  1  6  1  0  0  0  0
  1 22  1  0  0  0  0
  2 28  1  0  0  0  0
  2 35  1  1  0  0  0
  2 38  2  0  0  0  0
  2 10  1  0  0  0  0
  5  6  1  0  0  0  0
  7  5  1  6  0  0  0
  7  8  1  0  0  0  0
  7  9  1  0  0  0  0
  9 10  1  6  0  0  0
  9 11  1  0  0  0  0
 11 12  1  1  0  0  0
 11 13  1  0  0  0  0
 13  8  1  6  0  0  0
 13 33  1  0  0  0  0
 14 46  1  0  0  0  0
 14 17  1  0  0  0  0
 14 25  1  1  0  0  0
 15 16  1  0  0  0  0
 15 29  1  0  0  0  0
 16 18  1  6  0  0  0
 16 21  1  0  0  0  0
 17 19  1  6  0  0  0
 17 20  1  0  0  0  0
 20 22  1  6  0  0  0
 20 24  1  0  0  0  0
 23 21  1  6  0  0  0
 23 26  1  0  0  0  0
 23 33  1  0  0  0  0
 24 25  1  6  0  0  0
 24 27  1  0  0  0  0
 26 29  1  1  0  0  0
 26 31  1  0  0  0  0
 27 28  1  0  0  0  0
 29 30  2  0  0  0  0
 31 32  1  0  0  0  0
 33 32  1  1  0  0  0
 34 36  1  0  0  0  0
 34 42  1  0  0  0  0
 36 37  1  6  0  0  0
 36 39  1  0  0  0  0
 40 39  1  1  0  0  0
 40 41  1  0  0  0  0
 40 46  1  0  0  0  0
 41 42  1  1  0  0  0
 41 44  1  0  0  0  0
 42 43  2  0  0  0  0
 44 45  1  0  0  0  0
 46 45  1  6  0  0  0
M  CHG  2   3  -1  35  -1
M  END
>  <CHROM.1>
-172.39666767,128.24008230,-6.21494837,3.99117643,16.19907809,0.70167902
-1.27172184,0.23995374

>  <Name>
ligand

>  <RI>
-1

>  <Rbt.Current_Directory>
/home/itssahil/PROJECTS/Mol_Feturizer/Test_systems_manuscript/rnas/3mum

>  <Rbt.Executable>
rbdock ($Id: //depot/dev/client3/rdock/2013.1/src/exe/rbdock.cxx#4 $)

>  <Rbt.Library>
libRbt.so (2013.1, Build901 2013/11/27)

>  <Rbt.Parameter_File>
/export/apps/rDock/src/rDock_2013.1_src/data/scripts/dock_solv.prm

>  <Rbt.Receptor>
prm/pocket_docking_6.prm

>  <SCORE>
-26.1131

>  <SCORE.INTER>
-25.9378

>  <SCORE.INTER.CONST>
1

>  <SCORE.INTER.POLAR>
0

>  <SCORE.INTER.ROT>
2

>  <SCORE.INTER.SOLV>
17.5955

>  <SCORE.INTER.VDW>
-28.0904

>  <SCORE.INTER.norm>
-0.563866

>  <SCORE.INTRA>
-0.175301

>  <SCORE.INTRA.DIHEDRAL>
-0.0138007

>  <SCORE.INTRA.DIHEDRAL.0>
2.40424

>  <SCORE.INTRA.POLAR>
0

>  <SCORE.INTRA.POLAR.0>
0

>  <SCORE.INTRA.REPUL>
0

>  <SCORE.INTRA.REPUL.0>
0

>  <SCORE.INTRA.SOLV>
0.0174251

>  <SCORE.INTRA.SOLV.lig_0>
-134.169

>  <SCORE.INTRA.VDW>
-0.177113

>  <SCORE.INTRA.VDW.0>
-2.18386

>  <SCORE.INTRA.norm>
-0.00381089

>  <SCORE.RESTR>
0

>  <SCORE.RESTR.CAVITY>
0

>  <SCORE.RESTR.norm>
0

>  <SCORE.SYSTEM>
0

>  <SCORE.SYSTEM.CONST>
0

>  <SCORE.SYSTEM.DIHEDRAL>
0

>  <SCORE.SYSTEM.SOLV>
0

>  <SCORE.SYSTEM.norm>
0

>  <SCORE.heavy>
46

>  <SCORE.norm>
-0.567676

>  <RMSD>
4.688

$$$$
ligand
 OpenBabel02271912143D
libRbt.so/2013.1/901 2013/11/27
 46 52  0  0  0  0  0  0  0  0999 V2000
   -9.4738    6.4700   16.3629 P   0  0  1  0  0  0  0  0  0  0  0  0
   -3.7989    5.9111   14.8936 P   0  0  2  0  0  0  0  0  0  0  0  0
  -10.1239    4.9117   16.9024 O   0  5  0  0  0  0  0  0  0  0  0  0
  -10.6803    7.7740   16.5149 O   0  0  0  0  0  0  0  0  0  0  0  0
   -7.3668    7.9584   16.9700 C   0  0  0  0  0  0  0  0  0  0  0  0
   -8.1693    6.8105   17.2470 O   0  0  0  0  0  0  0  0  0  0  0  0
   -6.0028    7.7591   17.6030 C   0  0  1  0  0  0  0  0  0  0  0  0
   -6.1631    7.4398   18.9924 O   0  0  0  0  0  0  0  0  0  0  0  0
   -5.2273    6.5968   17.0046 C   0  0  1  0  0  0  0  0  0  0  0  0
   -4.4018    7.0054   15.9162 O   0  0  0  0  0  0  0  0  0  0  0  0
   -4.4095    6.0872   18.1783 C   0  0  1  0  0  0  0  0  0  0  0  0
   -3.1618    6.7824   18.2452 O   0  0  0  0  0  0  0  0  0  0  0  0
   -5.2249    6.4356   19.4097 C   0  0  2  0  0  0  0  0  0  0  0  0
   -7.9440    3.5045   12.9951 C   0  0  1  0  0  0  0  0  0  0  0  0
   -5.0295    1.6863   21.7759 N   0  0  0  0  0  0  0  0  0  0  0  0
   -4.0106    2.5376   21.4764 C   0  0  1  0  0  0  0  0  0  0  0  0
   -8.6937    4.0732   14.1663 C   0  0  2  0  0  0  0  0  0  0  0  0
   -2.7512    2.1687   21.8054 N   0  0  0  0  0  0  0  0  0  0  0  0
  -10.0384    4.2732   13.7270 O   0  0  0  0  0  0  0  0  0  0  0  0
   -7.9942    5.3824   14.4736 C   0  0  2  0  0  0  0  0  0  0  0  0
   -4.2089    3.7398   20.8580 N   0  0  0  0  0  0  0  0  0  0  0  0
   -8.9161    6.3941   14.8556 O   0  0  0  0  0  0  0  0  0  0  0  0
   -5.4525    4.1563   20.5095 C   0  0  2  0  0  0  0  0  0  0  0  0
   -7.3055    5.7687   13.1793 C   0  0  2  0  0  0  0  0  0  0  0  0
   -7.1635    4.5597   12.4353 O   0  0  0  0  0  0  0  0  0  0  0  0
   -6.5911    3.2706   20.8085 C   0  0  1  0  0  0  0  0  0  0  0  0
   -5.9325    6.3927   13.4026 C   0  0  0  0  0  0  0  0  0  0  0  0
   -5.0855    5.4397   14.0480 O   0  0  0  0  0  0  0  0  0  0  0  0
   -6.3140    1.9868   21.4771 C   0  0  0  0  0  0  0  0  0  0  0  0
   -7.3235    1.1303   21.7762 O   0  0  0  0  0  0  0  0  0  0  0  0
   -7.6919    3.8910   20.3698 N   0  0  0  0  0  0  0  0  0  0  0  0
   -7.2993    5.0814   19.8290 C   0  0  0  0  0  0  0  0  0  0  0  0
   -5.9619    5.2445   19.9090 N   0  0  1  0  0  0  0  0  0  0  0  0
   -6.8289   -1.5619   12.3193 N   0  0  0  0  0  0  0  0  0  0  0  0
   -3.0816    4.5298   15.7644 O   0  5  0  0  0  0  0  0  0  0  0  0
   -7.7613   -0.7853   11.7025 C   0  0  2  0  0  0  0  0  0  0  0  0
   -8.5587   -1.3361   10.7503 N   0  0  0  0  0  0  0  0  0  0  0  0
   -2.6051    6.5840   13.7666 O   0  0  0  0  0  0  0  0  0  0  0  0
   -7.9212    0.5310   12.0092 N   0  0  0  0  0  0  0  0  0  0  0  0
   -7.1526    1.1376   12.9438 C   0  0  2  0  0  0  0  0  0  0  0  0
   -6.1305    0.3504   13.6462 C   0  0  2  0  0  0  0  0  0  0  0  0
   -6.0081   -1.0753   13.2741 C   0  0  0  0  0  0  0  0  0  0  0  0
   -5.0951   -1.8815   13.8699 O   0  0  0  0  0  0  0  0  0  0  0  0
   -5.5301    1.1869   14.5158 N   0  0  0  0  0  0  0  0  0  0  0  0
   -6.1186    2.4123   14.3771 C   0  0  0  0  0  0  0  0  0  0  0  0
   -7.0902    2.3759   13.4371 N   0  0  1  0  0  0  0  0  0  0  0  0
  1  3  1  1  0  0  0
  1  4  2  0  0  0  0
  1  6  1  0  0  0  0
  1 22  1  0  0  0  0
  2 28  1  0  0  0  0
  2 35  1  1  0  0  0
  2 38  2  0  0  0  0
  2 10  1  0  0  0  0
  5  6  1  0  0  0  0
  7  5  1  6  0  0  0
  7  8  1  0  0  0  0
  7  9  1  0  0  0  0
  9 10  1  6  0  0  0
  9 11  1  0  0  0  0
 11 12  1  1  0  0  0
 11 13  1  0  0  0  0
 13  8  1  6  0  0  0
 13 33  1  0  0  0  0
 14 46  1  0  0  0  0
 14 17  1  0  0  0  0
 14 25  1  1  0  0  0
 15 16  1  0  0  0  0
 15 29  1  0  0  0  0
 16 18  1  6  0  0  0
 16 21  1  0  0  0  0
 17 19  1  6  0  0  0
 17 20  1  0  0  0  0
 20 22  1  6  0  0  0
 20 24  1  0  0  0  0
 23 21  1  6  0  0  0
 23 26  1  0  0  0  0
 23 33  1  0  0  0  0
 24 25  1  6  0  0  0
 24 27  1  0  0  0  0
 26 29  1  1  0  0  0
 26 31  1  0  0  0  0
 27 28  1  0  0  0  0
 29 30  2  0  0  0  0
 31 32  1  0  0  0  0
 33 32  1  1  0  0  0
 34 36  1  0  0  0  0
 34 42  1  0  0  0  0
 36 37  1  6  0  0  0
 36 39  1  0  0  0  0
 40 39  1  1  0  0  0
 40 41  1  0  0  0  0
 40 46  1  0  0  0  0
 41 42  1  1  0  0  0
 41 44  1  0  0  0  0
 42 43  2  0  0  0  0
 44 45  1  0  0  0  0
 46 45  1  6  0  0  0
M  CHG  2   3  -1  35  -1
M  END
>  <CHROM.1>
-172.66362728,123.01683821,-6.44879069,4.13774522,16.25271468,0.94533529
-1.22274903,0.48434403

>  <Name>
ligand

>  <RI>
-1

>  <Rbt.Current_Directory>
/home/itssahil/PROJECTS/Mol_Feturizer/Test_systems_manuscript/rnas/3mum

>  <Rbt.Executable>
rbdock ($Id: //depot/dev/client3/rdock/2013.1/src/exe/rbdock.cxx#4 $)

>  <Rbt.Library>
libRbt.so (2013.1, Build901 2013/11/27)

>  <Rbt.Parameter_File>
/export/apps/rDock/src/rDock_2013.1_src/data/scripts/dock_solv.prm

>  <Rbt.Receptor>
prm/pocket_docking_7.prm

>  <SCORE>
-26.3964

>  <SCORE.INTER>
-26.1974

>  <SCORE.INTER.CONST>
1

>  <SCORE.INTER.POLAR>
0

>  <SCORE.INTER.ROT>
2

>  <SCORE.INTER.SOLV>
15.7899

>  <SCORE.INTER.VDW>
-27.6616

>  <SCORE.INTER.norm>
-0.569509

>  <SCORE.INTRA>
-0.199018

>  <SCORE.INTRA.DIHEDRAL>
-0.00660607

>  <SCORE.INTRA.DIHEDRAL.0>
2.40424

>  <SCORE.INTRA.POLAR>
0

>  <SCORE.INTRA.POLAR.0>
0

>  <SCORE.INTRA.REPUL>
0

>  <SCORE.INTRA.REPUL.0>
0

>  <SCORE.INTRA.SOLV>
0.030189

>  <SCORE.INTRA.SOLV.lig_0>
-134.169

>  <SCORE.INTRA.VDW>
-0.210809

>  <SCORE.INTRA.VDW.0>
-2.18386

>  <SCORE.INTRA.norm>
-0.00432648

>  <SCORE.RESTR>
0

>  <SCORE.RESTR.CAVITY>
0

>  <SCORE.RESTR.norm>
0

>  <SCORE.SYSTEM>
0

>  <SCORE.SYSTEM.CONST>
0

>  <SCORE.SYSTEM.DIHEDRAL>
0

>  <SCORE.SYSTEM.SOLV>
0

>  <SCORE.SYSTEM.norm>
0

>  <SCORE.heavy>
46

>  <SCORE.norm>
-0.573835

>  <RMSD>
4.689

$$$$
ligand
 OpenBabel02271912143D
libRbt.so/2013.1/901 2013/11/27
 46 52  0  0  0  0  0  0  0  0999 V2000
   -9.3562    6.6855   16.3719 P   0  0  1  0  0  0  0  0  0  0  0  0
   -3.7083    5.8401   14.9355 P   0  0  2  0  0  0  0  0  0  0  0  0
  -10.0855    5.1636   16.9139 O   0  5  0  0  0  0  0  0  0  0  0  0
  -10.4974    8.0483   16.5123 O   0  0  0  0  0  0  0  0  0  0  0  0
   -7.1812    8.0703   16.9846 C   0  0  0  0  0  0  0  0  0  0  0  0
   -8.0411    6.9647   17.2617 O   0  0  0  0  0  0  0  0  0  0  0  0
   -5.8322    7.8064   17.6257 C   0  0  1  0  0  0  0  0  0  0  0  0
   -6.0153    7.5012   19.0154 O   0  0  0  0  0  0  0  0  0  0  0  0
   -5.1121    6.6046   17.0361 C   0  0  1  0  0  0  0  0  0  0  0  0
   -4.2617    6.9672   15.9505 O   0  0  0  0  0  0  0  0  0  0  0  0
   -4.3266    6.0601   18.2162 C   0  0  1  0  0  0  0  0  0  0  0  0
   -3.0464    6.6929   18.2871 O   0  0  0  0  0  0  0  0  0  0  0  0
   -5.1302    6.4535   19.4417 C   0  0  2  0  0  0  0  0  0  0  0  0
   -7.9576    3.6338   13.0241 C   0  0  1  0  0  0  0  0  0  0  0  0
   -5.1768    1.6781   21.7625 N   0  0  0  0  0  0  0  0  0  0  0  0
   -4.1147    2.4716   21.4549 C   0  0  1  0  0  0  0  0  0  0  0  0
   -8.6844    4.2439   14.1889 C   0  0  2  0  0  0  0  0  0  0  0  0
   -2.8741    2.0269   21.7614 N   0  0  0  0  0  0  0  0  0  0  0  0
  -10.0152    4.5083   13.7416 O   0  0  0  0  0  0  0  0  0  0  0  0
   -7.9224    5.5181   14.4949 C   0  0  2  0  0  0  0  0  0  0  0  0
   -4.2516    3.6892   20.8504 N   0  0  0  0  0  0  0  0  0  0  0  0
   -8.7951    6.5758   14.8679 O   0  0  0  0  0  0  0  0  0  0  0  0
   -5.4739    4.1807   20.5247 C   0  0  2  0  0  0  0  0  0  0  0  0
   -7.2088    5.8643   13.2029 C   0  0  2  0  0  0  0  0  0  0  0  0
   -7.1229    4.6468   12.4643 O   0  0  0  0  0  0  0  0  0  0  0  0
   -6.6577    3.3598   20.8332 C   0  0  1  0  0  0  0  0  0  0  0  0
   -5.8077    6.4206   13.4312 C   0  0  0  0  0  0  0  0  0  0  0  0
   -5.0124    5.4295   14.0848 O   0  0  0  0  0  0  0  0  0  0  0  0
   -6.4459    2.0556   21.4861 C   0  0  0  0  0  0  0  0  0  0  0  0
   -7.4991    1.2564   21.7930 O   0  0  0  0  0  0  0  0  0  0  0  0
   -7.7268    4.0474   20.4170 N   0  0  0  0  0  0  0  0  0  0  0  0
   -7.2735    5.2181   19.8808 C   0  0  0  0  0  0  0  0  0  0  0  0
   -5.9279    5.3024   19.9417 N   0  0  1  0  0  0  0  0  0  0  0  0
   -7.0384   -1.4683   12.3224 N   0  0  0  0  0  0  0  0  0  0  0  0
   -3.0649    4.4287   15.8156 O   0  5  0  0  0  0  0  0  0  0  0  0
   -7.9217   -0.6473   11.6910 C   0  0  2  0  0  0  0  0  0  0  0  0
   -8.7171   -1.1551   10.7135 N   0  0  0  0  0  0  0  0  0  0  0  0
   -2.4768    6.4484   13.8124 O   0  0  0  0  0  0  0  0  0  0  0  0
   -8.0341    0.6715   12.0076 N   0  0  0  0  0  0  0  0  0  0  0  0
   -7.2647    1.2364   12.9674 C   0  0  2  0  0  0  0  0  0  0  0  0
   -6.2944    0.4003   13.6864 C   0  0  2  0  0  0  0  0  0  0  0  0
   -6.2222   -1.0257   13.3024 C   0  0  0  0  0  0  0  0  0  0  0  0
   -5.3590   -1.8752   13.9121 O   0  0  0  0  0  0  0  0  0  0  0  0
   -5.6817    1.2025   14.5794 N   0  0  0  0  0  0  0  0  0  0  0  0
   -6.2149    2.4528   14.4392 C   0  0  0  0  0  0  0  0  0  0  0  0
   -7.1631    2.4661   13.4751 N   0  0  1  0  0  0  0  0  0  0  0  0
  1  3  1  1  0  0  0
  1  4  2  0  0  0  0
  1  6  1  0  0  0  0
  1 22  1  0  0  0  0
  2 28  1  0  0  0  0
  2 35  1  1  0  0  0
  2 38  2  0  0  0  0
  2 10  1  0  0  0  0
  5  6  1  0  0  0  0
  7  5  1  6  0  0  0
  7  8  1  0  0  0  0
  7  9  1  0  0  0  0
  9 10  1  6  0  0  0
  9 11  1  0  0  0  0
 11 12  1  1  0  0  0
 11 13  1  0  0  0  0
 13  8  1  6  0  0  0
 13 33  1  0  0  0  0
 14 46  1  0  0  0  0
 14 17  1  0  0  0  0
 14 25  1  1  0  0  0
 15 16  1  0  0  0  0
 15 29  1  0  0  0  0
 16 18  1  6  0  0  0
 16 21  1  0  0  0  0
 17 19  1  6  0  0  0
 17 20  1  0  0  0  0
 20 22  1  6  0  0  0
 20 24  1  0  0  0  0
 23 21  1  6  0  0  0
 23 26  1  0  0  0  0
 23 33  1  0  0  0  0
 24 25  1  6  0  0  0
 24 27  1  0  0  0  0
 26 29  1  1  0  0  0
 26 31  1  0  0  0  0
 27 28  1  0  0  0  0
 29 30  2  0  0  0  0
 31 32  1  0  0  0  0
 33 32  1  1  0  0  0
 34 36  1  0  0  0  0
 34 42  1  0  0  0  0
 36 37  1  6  0  0  0
 36 39  1  0  0  0  0
 40 39  1  1  0  0  0
 40 41  1  0  0  0  0
 40 46  1  0  0  0  0
 41 42  1  1  0  0  0
 41 44  1  0  0  0  0
 42 43  2  0  0  0  0
 44 45  1  0  0  0  0
 46 45  1  6  0  0  0
M  CHG  2   3  -1  35  -1
M  END
>  <CHROM.1>
-174.14620098,124.47380228,-6.44347027,4.20418041,16.27454098,0.85257212
-1.24361146,0.39140249

>  <Name>
ligand

>  <RI>
-1

>  <Rbt.Current_Directory>
/home/itssahil/PROJECTS/Mol_Feturizer/Test_systems_manuscript/rnas/3mum

>  <Rbt.Executable>
rbdock ($Id: //depot/dev/client3/rdock/2013.1/src/exe/rbdock.cxx#4 $)

>  <Rbt.Library>
libRbt.so (2013.1, Build901 2013/11/27)

>  <Rbt.Parameter_File>
/export/apps/rDock/src/rDock_2013.1_src/data/scripts/dock_solv.prm

>  <Rbt.Receptor>
prm/pocket_docking_5.prm

>  <SCORE>
-25.8765

>  <SCORE.INTER>
-25.7012

>  <SCORE.INTER.CONST>
1

>  <SCORE.INTER.POLAR>
0

>  <SCORE.INTER.ROT>
2

>  <SCORE.INTER.SOLV>
16.4745

>  <SCORE.INTER.VDW>
-27.559

>  <SCORE.INTER.norm>
-0.558722

>  <SCORE.INTRA>
-0.181102

>  <SCORE.INTRA.DIHEDRAL>
-0.00894177

>  <SCORE.INTRA.DIHEDRAL.0>
2.40424

>  <SCORE.INTRA.POLAR>
0

>  <SCORE.INTRA.POLAR.0>
0

>  <SCORE.INTRA.REPUL>
0

>  <SCORE.INTRA.REPUL.0>
0

>  <SCORE.INTRA.SOLV>
0.0212332

>  <SCORE.INTRA.SOLV.lig_0>
-134.169

>  <SCORE.INTRA.VDW>
-0.187247

>  <SCORE.INTRA.VDW.0>
-2.18386

>  <SCORE.INTRA.norm>
-0.00393699

>  <SCORE.RESTR>
0.00579128

>  <SCORE.RESTR.CAVITY>
0.00579128

>  <SCORE.RESTR.norm>
0.000125897

>  <SCORE.SYSTEM>
0

>  <SCORE.SYSTEM.CONST>
0

>  <SCORE.SYSTEM.DIHEDRAL>
0

>  <SCORE.SYSTEM.SOLV>
0

>  <SCORE.SYSTEM.norm>
0

>  <SCORE.heavy>
46

>  <SCORE.norm>
-0.562533

>  <RMSD>
4.695

$$$$
ligand
 OpenBabel02271912143D
libRbt.so/2013.1/901 2013/11/27
 46 52  0  0  0  0  0  0  0  0999 V2000
   -9.4382    6.4617   16.3717 P   0  0  1  0  0  0  0  0  0  0  0  0
   -3.7620    5.9043   14.9067 P   0  0  2  0  0  0  0  0  0  0  0  0
  -10.0895    4.9024   16.9066 O   0  5  0  0  0  0  0  0  0  0  0  0
  -10.6444    7.7659   16.5257 O   0  0  0  0  0  0  0  0  0  0  0  0
   -7.3313    7.9478   16.9846 C   0  0  0  0  0  0  0  0  0  0  0  0
   -8.1345    6.7995   17.2580 O   0  0  0  0  0  0  0  0  0  0  0  0
   -5.9681    7.7464   17.6185 C   0  0  1  0  0  0  0  0  0  0  0  0
   -6.1299    7.4237   19.0069 O   0  0  0  0  0  0  0  0  0  0  0  0
   -5.1924    6.5853   17.0180 C   0  0  1  0  0  0  0  0  0  0  0  0
   -4.3656    6.9963   15.9314 O   0  0  0  0  0  0  0  0  0  0  0  0
   -4.3760    6.0725   18.1913 C   0  0  1  0  0  0  0  0  0  0  0  0
   -3.1281    6.7670   18.2612 O   0  0  0  0  0  0  0  0  0  0  0  0
   -5.1925    6.4181   19.4227 C   0  0  2  0  0  0  0  0  0  0  0  0
   -7.9061    3.5040   12.9980 C   0  0  1  0  0  0  0  0  0  0  0  0
   -5.0066    1.6831   21.8181 N   0  0  0  0  0  0  0  0  0  0  0  0
   -3.9879    2.5379   21.5282 C   0  0  1  0  0  0  0  0  0  0  0  0
   -8.6568    4.0702   14.1698 C   0  0  2  0  0  0  0  0  0  0  0  0
   -2.7314    2.1773   21.8771 N   0  0  0  0  0  0  0  0  0  0  0  0
  -10.0010    4.2717   13.7297 O   0  0  0  0  0  0  0  0  0  0  0  0
   -7.9571    5.3783   14.4811 C   0  0  2  0  0  0  0  0  0  0  0  0
   -4.1835    3.7356   20.9004 N   0  0  0  0  0  0  0  0  0  0  0  0
   -8.8790    6.3894   14.8647 O   0  0  0  0  0  0  0  0  0  0  0  0
   -5.4241    4.1438   20.5321 C   0  0  2  0  0  0  0  0  0  0  0  0
   -7.2670    5.7675   13.1886 C   0  0  2  0  0  0  0  0  0  0  0  0
   -7.1246    4.5604   12.4416 O   0  0  0  0  0  0  0  0  0  0  0  0
   -6.5624    3.2540   20.8199 C   0  0  1  0  0  0  0  0  0  0  0  0
   -5.8940    6.3904   13.4148 C   0  0  0  0  0  0  0  0  0  0  0  0
   -5.0480    5.4355   14.0586 O   0  0  0  0  0  0  0  0  0  0  0  0
   -6.2883    1.9753   21.4996 C   0  0  0  0  0  0  0  0  0  0  0  0
   -7.2976    1.1154   21.7892 O   0  0  0  0  0  0  0  0  0  0  0  0
   -7.6600    3.8663   20.3623 N   0  0  0  0  0  0  0  0  0  0  0  0
   -7.2658    5.0556   19.8204 C   0  0  0  0  0  0  0  0  0  0  0  0
   -5.9305    5.2260   19.9183 N   0  0  1  0  0  0  0  0  0  0  0  0
   -6.7581   -1.5486   12.2762 N   0  0  0  0  0  0  0  0  0  0  0  0
   -3.0462    4.5205   15.7748 O   0  5  0  0  0  0  0  0  0  0  0  0
   -7.6855   -0.7688   11.6561 C   0  0  2  0  0  0  0  0  0  0  0  0
   -8.4671   -1.3115   10.6863 N   0  0  0  0  0  0  0  0  0  0  0  0
   -2.5668    6.5796   13.7827 O   0  0  0  0  0  0  0  0  0  0  0  0
   -7.8558    0.5429   11.9765 N   0  0  0  0  0  0  0  0  0  0  0  0
   -7.1030    1.1416   12.9290 C   0  0  2  0  0  0  0  0  0  0  0  0
   -6.0870    0.3505   13.6358 C   0  0  2  0  0  0  0  0  0  0  0  0
   -5.9528   -1.0700   13.2482 C   0  0  0  0  0  0  0  0  0  0  0  0
   -5.0444   -1.8793   13.8468 O   0  0  0  0  0  0  0  0  0  0  0  0
   -5.5027    1.1791   14.5237 N   0  0  0  0  0  0  0  0  0  0  0  0
   -6.0949    2.4033   14.3918 C   0  0  0  0  0  0  0  0  0  0  0  0
   -7.0532    2.3740   13.4381 N   0  0  1  0  0  0  0  0  0  0  0  0
  1  3  1  1  0  0  0
  1  4  2  0  0  0  0
  1  6  1  0  0  0  0
  1 22  1  0  0  0  0
  2 28  1  0  0  0  0
  2 35  1  1  0  0  0
  2 38  2  0  0  0  0
  2 10  1  0  0  0  0
  5  6  1  0  0  0  0
  7  5  1  6  0  0  0
  7  8  1  0  0  0  0
  7  9  1  0  0  0  0
  9 10  1  6  0  0  0
  9 11  1  0  0  0  0
 11 12  1  1  0  0  0
 11 13  1  0  0  0  0
 13  8  1  6  0  0  0
 13 33  1  0  0  0  0
 14 46  1  0  0  0  0
 14 17  1  0  0  0  0
 14 25  1  1  0  0  0
 15 16  1  0  0  0  0
 15 29  1  0  0  0  0
 16 18  1  6  0  0  0
 16 21  1  0  0  0  0
 17 19  1  6  0  0  0
 17 20  1  0  0  0  0
 20 22  1  6  0  0  0
 20 24  1  0  0  0  0
 23 21  1  6  0  0  0
 23 26  1  0  0  0  0
 23 33  1  0  0  0  0
 24 25  1  6  0  0  0
 24 27  1  0  0  0  0
 26 29  1  1  0  0  0
 26 31  1  0  0  0  0
 27 28  1  0  0  0  0
 29 30  2  0  0  0  0
 31 32  1  0  0  0  0
 33 32  1  1  0  0  0
 34 36  1  0  0  0  0
 34 42  1  0  0  0  0
 36 37  1  6  0  0  0
 36 39  1  0  0  0  0
 40 39  1  1  0  0  0
 40 41  1  0  0  0  0
 40 46  1  0  0  0  0
 41 42  1  1  0  0  0
 41 44  1  0  0  0  0
 42 43  2  0  0  0  0
 44 45  1  0  0  0  0
 46 45  1  6  0  0  0
M  CHG  2   3  -1  35  -1
M  END
>  <CHROM.1>
-171.72826775,123.98119027,-6.41084258,4.13215460,16.25937906,0.95452362
-1.22482303,0.50259630

>  <Name>
ligand

>  <RI>
-1

>  <Rbt.Current_Directory>
/home/itssahil/PROJECTS/Mol_Feturizer/Test_systems_manuscript/rnas/3mum

>  <Rbt.Executable>
rbdock ($Id: //depot/dev/client3/rdock/2013.1/src/exe/rbdock.cxx#4 $)

>  <Rbt.Library>
libRbt.so (2013.1, Build901 2013/11/27)

>  <Rbt.Parameter_File>
/export/apps/rDock/src/rDock_2013.1_src/data/scripts/dock_solv.prm

>  <Rbt.Receptor>
prm/pocket_docking_7.prm

>  <SCORE>
-26.4387

>  <SCORE.INTER>
-26.2423

>  <SCORE.INTER.CONST>
1

>  <SCORE.INTER.POLAR>
0

>  <SCORE.INTER.ROT>
2

>  <SCORE.INTER.SOLV>
15.5808

>  <SCORE.INTER.VDW>
-27.6218

>  <SCORE.INTER.norm>
-0.570484

>  <SCORE.INTRA>
-0.196389

>  <SCORE.INTRA.DIHEDRAL>
-0.00781765

>  <SCORE.INTRA.DIHEDRAL.0>
2.40424

>  <SCORE.INTRA.POLAR>
0

>  <SCORE.INTRA.POLAR.0>
0

>  <SCORE.INTRA.REPUL>
0

>  <SCORE.INTRA.REPUL.0>
0

>  <SCORE.INTRA.SOLV>
0.0312231

>  <SCORE.INTRA.SOLV.lig_0>
-134.169

>  <SCORE.INTRA.VDW>
-0.208092

>  <SCORE.INTRA.VDW.0>
-2.18386

>  <SCORE.INTRA.norm>
-0.00426933

>  <SCORE.RESTR>
0

>  <SCORE.RESTR.CAVITY>
0

>  <SCORE.RESTR.norm>
0

>  <SCORE.SYSTEM>
0

>  <SCORE.SYSTEM.CONST>
0

>  <SCORE.SYSTEM.DIHEDRAL>
0

>  <SCORE.SYSTEM.SOLV>
0

>  <SCORE.SYSTEM.norm>
0

>  <SCORE.heavy>
46

>  <SCORE.norm>
-0.574754

>  <RMSD>
4.695

$$$$
ligand
 OpenBabel02271912143D
libRbt.so/2013.1/901 2013/11/27
 46 52  0  0  0  0  0  0  0  0999 V2000
   -9.4631    6.4994   16.3715 P   0  0  1  0  0  0  0  0  0  0  0  0
   -3.7935    5.9016   14.8969 P   0  0  2  0  0  0  0  0  0  0  0  0
  -10.1215    4.9472   16.9183 O   0  5  0  0  0  0  0  0  0  0  0  0
  -10.6619    7.8111   16.5198 O   0  0  0  0  0  0  0  0  0  0  0  0
   -7.3467    7.9781   16.9697 C   0  0  0  0  0  0  0  0  0  0  0  0
   -8.1555    6.8360   17.2525 O   0  0  0  0  0  0  0  0  0  0  0  0
   -5.9831    7.7735   17.6017 C   0  0  1  0  0  0  0  0  0  0  0  0
   -6.1433    7.4608   18.9926 O   0  0  0  0  0  0  0  0  0  0  0  0
   -5.2151    6.6043   17.0071 C   0  0  1  0  0  0  0  0  0  0  0  0
   -4.3888    7.0036   15.9158 O   0  0  0  0  0  0  0  0  0  0  0  0
   -4.3987    6.0948   18.1817 C   0  0  1  0  0  0  0  0  0  0  0  0
   -3.1469    6.7830   18.2441 O   0  0  0  0  0  0  0  0  0  0  0  0
   -5.2104    6.4529   19.4127 C   0  0  2  0  0  0  0  0  0  0  0  0
   -7.9551    3.5113   13.0139 C   0  0  1  0  0  0  0  0  0  0  0  0
   -5.0335    1.6851   21.7428 N   0  0  0  0  0  0  0  0  0  0  0  0
   -4.0093    2.5250   21.4298 C   0  0  1  0  0  0  0  0  0  0  0  0
   -8.6999    4.0892   14.1837 C   0  0  2  0  0  0  0  0  0  0  0  0
   -2.7488    2.1372   21.7324 N   0  0  0  0  0  0  0  0  0  0  0  0
  -10.0440    4.2952   13.7454 O   0  0  0  0  0  0  0  0  0  0  0  0
   -7.9924    5.3956   14.4847 C   0  0  2  0  0  0  0  0  0  0  0  0
   -4.2031    3.7339   20.8234 N   0  0  0  0  0  0  0  0  0  0  0  0
   -8.9079    6.4142   14.8638 O   0  0  0  0  0  0  0  0  0  0  0  0
   -5.4475    4.1692   20.5014 C   0  0  2  0  0  0  0  0  0  0  0  0
   -7.3033    5.7725   13.1880 C   0  0  2  0  0  0  0  0  0  0  0  0
   -7.1692    4.5598   12.4487 O   0  0  0  0  0  0  0  0  0  0  0  0
   -6.5919    3.2965   20.8159 C   0  0  1  0  0  0  0  0  0  0  0  0
   -5.9264    6.3895   13.4069 C   0  0  0  0  0  0  0  0  0  0  0  0
   -5.0841    5.4342   14.0550 O   0  0  0  0  0  0  0  0  0  0  0  0
   -6.3193    2.0045   21.4705 C   0  0  0  0  0  0  0  0  0  0  0  0
   -7.3343    1.1593   21.7829 O   0  0  0  0  0  0  0  0  0  0  0  0
   -7.6925    3.9344   20.4024 N   0  0  0  0  0  0  0  0  0  0  0  0
   -7.2943    5.1232   19.8623 C   0  0  0  0  0  0  0  0  0  0  0  0
   -5.9536    5.2681   19.9180 N   0  0  1  0  0  0  0  0  0  0  0  0
   -6.8576   -1.5597   12.3444 N   0  0  0  0  0  0  0  0  0  0  0  0
   -3.0831    4.5197   15.7724 O   0  5  0  0  0  0  0  0  0  0  0  0
   -7.7848   -0.7798   11.7241 C   0  0  2  0  0  0  0  0  0  0  0  0
   -8.5811   -1.3279   10.7694 N   0  0  0  0  0  0  0  0  0  0  0  0
   -2.5974    6.5630   13.7656 O   0  0  0  0  0  0  0  0  0  0  0  0
   -7.9406    0.5373   12.0296 N   0  0  0  0  0  0  0  0  0  0  0  0
   -7.1729    1.1414   12.9665 C   0  0  2  0  0  0  0  0  0  0  0  0
   -6.1563    0.3506   13.6728 C   0  0  2  0  0  0  0  0  0  0  0  0
   -6.0382   -1.0758   13.3018 C   0  0  0  0  0  0  0  0  0  0  0  0
   -5.1304   -1.8853   13.9012 O   0  0  0  0  0  0  0  0  0  0  0  0
   -5.5556    1.1851   14.5440 N   0  0  0  0  0  0  0  0  0  0  0  0
   -6.1388    2.4127   14.4027 C   0  0  0  0  0  0  0  0  0  0  0  0
   -7.1073    2.3796   13.4594 N   0  0  1  0  0  0  0  0  0  0  0  0
  1  3  1  1  0  0  0
  1  4  2  0  0  0  0
  1  6  1  0  0  0  0
  1 22  1  0  0  0  0
  2 28  1  0  0  0  0
  2 35  1  1  0  0  0
  2 38  2  0  0  0  0
  2 10  1  0  0  0  0
  5  6  1  0  0  0  0
  7  5  1  6  0  0  0
  7  8  1  0  0  0  0
  7  9  1  0  0  0  0
  9 10  1  6  0  0  0
  9 11  1  0  0  0  0
 11 12  1  1  0  0  0
 11 13  1  0  0  0  0
 13  8  1  6  0  0  0
 13 33  1  0  0  0  0
 14 46  1  0  0  0  0
 14 17  1  0  0  0  0
 14 25  1  1  0  0  0
 15 16  1  0  0  0  0
 15 29  1  0  0  0  0
 16 18  1  6  0  0  0
 16 21  1  0  0  0  0
 17 19  1  6  0  0  0
 17 20  1  0  0  0  0
 20 22  1  6  0  0  0
 20 24  1  0  0  0  0
 23 21  1  6  0  0  0
 23 26  1  0  0  0  0
 23 33  1  0  0  0  0
 24 25  1  6  0  0  0
 24 27  1  0  0  0  0
 26 29  1  1  0  0  0
 26 31  1  0  0  0  0
 27 28  1  0  0  0  0
 29 30  2  0  0  0  0
 31 32  1  0  0  0  0
 33 32  1  1  0  0  0
 34 36  1  0  0  0  0
 34 42  1  0  0  0  0
 36 37  1  6  0  0  0
 36 39  1  0  0  0  0
 40 39  1  1  0  0  0
 40 41  1  0  0  0  0
 40 46  1  0  0  0  0
 41 42  1  1  0  0  0
 41 44  1  0  0  0  0
 42 43  2  0  0  0  0
 44 45  1  0  0  0  0
 46 45  1  6  0  0  0
M  CHG  2   3  -1  35  -1
M  END
>  <CHROM.1>
-173.92483440,123.37675463,-6.44983620,4.14682472,16.25948738,0.94353880
-1.22069661,0.47439686

>  <Name>
ligand

>  <RI>
-1

>  <Rbt.Current_Directory>
/home/itssahil/PROJECTS/Mol_Feturizer/Test_systems_manuscript/rnas/3mum

>  <Rbt.Executable>
rbdock ($Id: //depot/dev/client3/rdock/2013.1/src/exe/rbdock.cxx#4 $)

>  <Rbt.Library>
libRbt.so (2013.1, Build901 2013/11/27)

>  <Rbt.Parameter_File>
/export/apps/rDock/src/rDock_2013.1_src/data/scripts/dock_solv.prm

>  <Rbt.Receptor>
prm/pocket_docking_7.prm

>  <SCORE>
-26.3639

>  <SCORE.INTER>
-26.1735

>  <SCORE.INTER.CONST>
1

>  <SCORE.INTER.POLAR>
0

>  <SCORE.INTER.ROT>
2

>  <SCORE.INTER.SOLV>
15.7529

>  <SCORE.INTER.VDW>
-27.6333

>  <SCORE.INTER.norm>
-0.568988

>  <SCORE.INTRA>
-0.190429

>  <SCORE.INTRA.DIHEDRAL>
-0.00734461

>  <SCORE.INTRA.DIHEDRAL.0>
2.40424

>  <SCORE.INTRA.POLAR>
0

>  <SCORE.INTRA.POLAR.0>
0

>  <SCORE.INTRA.REPUL>
0

>  <SCORE.INTRA.REPUL.0>
0

>  <SCORE.INTRA.SOLV>
0.02472

>  <SCORE.INTRA.SOLV.lig_0>
-134.169

>  <SCORE.INTRA.VDW>
-0.199117

>  <SCORE.INTRA.VDW.0>
-2.18386

>  <SCORE.INTRA.norm>
-0.00413977

>  <SCORE.RESTR>
0

>  <SCORE.RESTR.CAVITY>
0

>  <SCORE.RESTR.norm>
0

>  <SCORE.SYSTEM>
0

>  <SCORE.SYSTEM.CONST>
0

>  <SCORE.SYSTEM.DIHEDRAL>
0

>  <SCORE.SYSTEM.SOLV>
0

>  <SCORE.SYSTEM.norm>
0

>  <SCORE.heavy>
46

>  <SCORE.norm>
-0.573128

>  <RMSD>
4.695

$$$$
ligand
 OpenBabel02271912143D
libRbt.so/2013.1/901 2013/11/27
 46 52  0  0  0  0  0  0  0  0999 V2000
   -9.4709    6.4716   16.3613 P   0  0  1  0  0  0  0  0  0  0  0  0
   -3.7975    5.9202   14.8833 P   0  0  2  0  0  0  0  0  0  0  0  0
  -10.1184    4.9123   16.9008 O   0  5  0  0  0  0  0  0  0  0  0  0
  -10.6787    7.7741   16.5157 O   0  0  0  0  0  0  0  0  0  0  0  0
   -7.3648    7.9622   16.9661 C   0  0  0  0  0  0  0  0  0  0  0  0
   -8.1655    6.8132   17.2436 O   0  0  0  0  0  0  0  0  0  0  0  0
   -5.9997    7.7642   17.5970 C   0  0  1  0  0  0  0  0  0  0  0  0
   -6.1575    7.4439   18.9864 O   0  0  0  0  0  0  0  0  0  0  0  0
   -5.2237    6.6031   16.9969 C   0  0  1  0  0  0  0  0  0  0  0  0
   -4.4003    7.0132   15.9074 O   0  0  0  0  0  0  0  0  0  0  0  0
   -4.4035    6.0939   18.1691 C   0  0  1  0  0  0  0  0  0  0  0  0
   -3.1566    6.7905   18.2345 O   0  0  0  0  0  0  0  0  0  0  0  0
   -5.2176    6.4406   19.4018 C   0  0  2  0  0  0  0  0  0  0  0  0
   -7.9425    3.5097   12.9896 C   0  0  1  0  0  0  0  0  0  0  0  0
   -5.0148    1.6973   21.7792 N   0  0  0  0  0  0  0  0  0  0  0  0
   -3.9976    2.5510   21.4809 C   0  0  1  0  0  0  0  0  0  0  0  0
   -8.6912    4.0769   14.1622 C   0  0  2  0  0  0  0  0  0  0  0  0
   -2.7381    2.1867   21.8146 N   0  0  0  0  0  0  0  0  0  0  0  0
  -10.0367    4.2755   13.7250 O   0  0  0  0  0  0  0  0  0  0  0  0
   -7.9928    5.3868   14.4692 C   0  0  2  0  0  0  0  0  0  0  0  0
   -4.1977    3.7511   20.8593 N   0  0  0  0  0  0  0  0  0  0  0  0
   -8.9153    6.3972   14.8530 O   0  0  0  0  0  0  0  0  0  0  0  0
   -5.4415    4.1631   20.5061 C   0  0  2  0  0  0  0  0  0  0  0  0
   -7.3065    5.7745   13.1741 C   0  0  2  0  0  0  0  0  0  0  0  0
   -7.1640    4.5662   12.4292 O   0  0  0  0  0  0  0  0  0  0  0  0
   -6.5783    3.2746   20.8036 C   0  0  1  0  0  0  0  0  0  0  0  0
   -5.9339    6.4001   13.3958 C   0  0  0  0  0  0  0  0  0  0  0  0
   -5.0848    5.4477   14.0394 O   0  0  0  0  0  0  0  0  0  0  0  0
   -6.2993    1.9931   21.4759 C   0  0  0  0  0  0  0  0  0  0  0  0
   -7.3071    1.1342   21.7738 O   0  0  0  0  0  0  0  0  0  0  0  0
   -7.6797    3.8906   20.3602 N   0  0  0  0  0  0  0  0  0  0  0  0
   -7.2891    5.0810   19.8179 C   0  0  0  0  0  0  0  0  0  0  0  0
   -5.9524    5.2484   19.9016 N   0  0  1  0  0  0  0  0  0  0  0  0
   -6.8259   -1.5562   12.3130 N   0  0  0  0  0  0  0  0  0  0  0  0
   -3.0773    4.5393   15.7523 O   0  5  0  0  0  0  0  0  0  0  0  0
   -7.7605   -0.7805   11.6984 C   0  0  2  0  0  0  0  0  0  0  0  0
   -8.5601   -1.3323   10.7486 N   0  0  0  0  0  0  0  0  0  0  0  0
   -2.6061    6.5951   13.7550 O   0  0  0  0  0  0  0  0  0  0  0  0
   -7.9204    0.5358   12.0050 N   0  0  0  0  0  0  0  0  0  0  0  0
   -7.1497    1.1434   12.9372 C   0  0  2  0  0  0  0  0  0  0  0  0
   -6.1251    0.3572   13.6371 C   0  0  2  0  0  0  0  0  0  0  0  0
   -6.0027   -1.0686   13.2653 C   0  0  0  0  0  0  0  0  0  0  0  0
   -5.0876   -1.8740   13.8590 O   0  0  0  0  0  0  0  0  0  0  0  0
   -5.5229    1.1945   14.5047 N   0  0  0  0  0  0  0  0  0  0  0  0
   -6.1126    2.4194   14.3671 C   0  0  0  0  0  0  0  0  0  0  0  0
   -7.0867    2.3819   13.4298 N   0  0  1  0  0  0  0  0  0  0  0  0
  1  3  1  1  0  0  0
  1  4  2  0  0  0  0
  1  6  1  0  0  0  0
  1 22  1  0  0  0  0
  2 28  1  0  0  0  0
  2 35  1  1  0  0  0
  2 38  2  0  0  0  0
  2 10  1  0  0  0  0
  5  6  1  0  0  0  0
  7  5  1  6  0  0  0
  7  8  1  0  0  0  0
  7  9  1  0  0  0  0
  9 10  1  6  0  0  0
  9 11  1  0  0  0  0
 11 12  1  1  0  0  0
 11 13  1  0  0  0  0
 13  8  1  6  0  0  0
 13 33  1  0  0  0  0
 14 46  1  0  0  0  0
 14 17  1  0  0  0  0
 14 25  1  1  0  0  0
 15 16  1  0  0  0  0
 15 29  1  0  0  0  0
 16 18  1  6  0  0  0
 16 21  1  0  0  0  0
 17 19  1  6  0  0  0
 17 20  1  0  0  0  0
 20 22  1  6  0  0  0
 20 24  1  0  0  0  0
 23 21  1  6  0  0  0
 23 26  1  0  0  0  0
 23 33  1  0  0  0  0
 24 25  1  6  0  0  0
 24 27  1  0  0  0  0
 26 29  1  1  0  0  0
 26 31  1  0  0  0  0
 27 28  1  0  0  0  0
 29 30  2  0  0  0  0
 31 32  1  0  0  0  0
 33 32  1  1  0  0  0
 34 36  1  0  0  0  0
 34 42  1  0  0  0  0
 36 37  1  6  0  0  0
 36 39  1  0  0  0  0
 40 39  1  1  0  0  0
 40 41  1  0  0  0  0
 40 46  1  0  0  0  0
 41 42  1  1  0  0  0
 41 44  1  0  0  0  0
 42 43  2  0  0  0  0
 44 45  1  0  0  0  0
 46 45  1  6  0  0  0
M  CHG  2   3  -1  35  -1
M  END
>  <CHROM.1>
-172.34299090,122.92064290,-6.44387770,4.14361779,16.24728870,0.94253065
-1.22184745,0.48324511

>  <Name>
ligand

>  <RI>
-1

>  <Rbt.Current_Directory>
/home/itssahil/PROJECTS/Mol_Feturizer/Test_systems_manuscript/rnas/3mum

>  <Rbt.Executable>
rbdock ($Id: //depot/dev/client3/rdock/2013.1/src/exe/rbdock.cxx#4 $)

>  <Rbt.Library>
libRbt.so (2013.1, Build901 2013/11/27)

>  <Rbt.Parameter_File>
/export/apps/rDock/src/rDock_2013.1_src/data/scripts/dock_solv.prm

>  <Rbt.Receptor>
prm/pocket_docking_6.prm

>  <SCORE>
-26.4194

>  <SCORE.INTER>
-26.2181

>  <SCORE.INTER.CONST>
1

>  <SCORE.INTER.POLAR>
0

>  <SCORE.INTER.ROT>
2

>  <SCORE.INTER.SOLV>
15.8101

>  <SCORE.INTER.VDW>
-27.6821

>  <SCORE.INTER.norm>
-0.569959

>  <SCORE.INTRA>
-0.201232

>  <SCORE.INTRA.DIHEDRAL>
-0.00641227

>  <SCORE.INTRA.DIHEDRAL.0>
2.40424

>  <SCORE.INTRA.POLAR>
0

>  <SCORE.INTRA.POLAR.0>
0

>  <SCORE.INTRA.REPUL>
0

>  <SCORE.INTRA.REPUL.0>
0

>  <SCORE.INTRA.SOLV>
0.0315592

>  <SCORE.INTRA.SOLV.lig_0>
-134.169

>  <SCORE.INTRA.VDW>
-0.213805

>  <SCORE.INTRA.VDW.0>
-2.18386

>  <SCORE.INTRA.norm>
-0.0043746

>  <SCORE.RESTR>
0

>  <SCORE.RESTR.CAVITY>
0

>  <SCORE.RESTR.norm>
0

>  <SCORE.SYSTEM>
0

>  <SCORE.SYSTEM.CONST>
0

>  <SCORE.SYSTEM.DIHEDRAL>
0

>  <SCORE.SYSTEM.SOLV>
0

>  <SCORE.SYSTEM.norm>
0

>  <SCORE.heavy>
46

>  <SCORE.norm>
-0.574334

>  <RMSD>
4.698

$$$$
ligand
 OpenBabel02271912143D
libRbt.so/2013.1/901 2013/11/27
 46 52  0  0  0  0  0  0  0  0999 V2000
   -9.0000    6.7217   16.1229 P   0  0  1  0  0  0  0  0  0  0  0  0
   -3.4149    5.4351   14.7707 P   0  0  2  0  0  0  0  0  0  0  0  0
   -9.8329    5.2782   16.7265 O   0  5  0  0  0  0  0  0  0  0  0  0
  -10.0473    8.1630   16.1932 O   0  0  0  0  0  0  0  0  0  0  0  0
   -6.7396    7.9835   16.6905 C   0  0  0  0  0  0  0  0  0  0  0  0
   -7.6734    6.9518   17.0098 O   0  0  0  0  0  0  0  0  0  0  0  0
   -5.4146    7.6588   17.3535 C   0  0  1  0  0  0  0  0  0  0  0  0
   -5.6248    7.4295   18.7539 O   0  0  0  0  0  0  0  0  0  0  0  0
   -4.7743    6.3860   16.8239 C   0  0  1  0  0  0  0  0  0  0  0  0
   -3.8960    6.6414   15.7300 O   0  0  0  0  0  0  0  0  0  0  0  0
   -4.0332    5.8437   18.0333 C   0  0  1  0  0  0  0  0  0  0  0  0
   -2.7136    6.3916   18.0862 O   0  0  0  0  0  0  0  0  0  0  0  0
   -4.8145    6.3450   19.2336 C   0  0  2  0  0  0  0  0  0  0  0  0
   -7.7938    3.4352   12.9259 C   0  0  1  0  0  0  0  0  0  0  0  0
   -5.1920    1.5971   21.5805 N   0  0  0  0  0  0  0  0  0  0  0  0
   -4.0769    2.2879   21.2174 C   0  0  1  0  0  0  0  0  0  0  0  0
   -8.4835    4.1446   14.0565 C   0  0  2  0  0  0  0  0  0  0  0  0
   -2.8696    1.7298   21.4658 N   0  0  0  0  0  0  0  0  0  0  0  0
   -9.7912    4.4774   13.5872 O   0  0  0  0  0  0  0  0  0  0  0  0
   -7.6389    5.3773   14.3114 C   0  0  2  0  0  0  0  0  0  0  0  0
   -4.1293    3.5123   20.6134 N   0  0  0  0  0  0  0  0  0  0  0  0
   -8.4401    6.5069   14.6298 O   0  0  0  0  0  0  0  0  0  0  0  0
   -5.3149    4.1153   20.3447 C   0  0  2  0  0  0  0  0  0  0  0  0
   -6.8971    5.6163   13.0109 C   0  0  2  0  0  0  0  0  0  0  0  0
   -6.8899    4.3636   12.3282 O   0  0  0  0  0  0  0  0  0  0  0  0
   -6.5535    3.4086   20.7148 C   0  0  1  0  0  0  0  0  0  0  0  0
   -5.4629    6.0868   13.2253 C   0  0  0  0  0  0  0  0  0  0  0  0
   -4.7395    5.0751   13.9289 O   0  0  0  0  0  0  0  0  0  0  0  0
   -6.4324    2.0910   21.3639 C   0  0  0  0  0  0  0  0  0  0  0  0
   -7.5391    1.3937   21.7259 O   0  0  0  0  0  0  0  0  0  0  0  0
   -7.5730    4.1924   20.3470 N   0  0  0  0  0  0  0  0  0  0  0  0
   -7.0395    5.3152   19.7830 C   0  0  0  0  0  0  0  0  0  0  0  0
   -5.6905    5.2738   19.7781 N   0  0  1  0  0  0  0  0  0  0  0  0
   -7.0369   -1.7034   12.3018 N   0  0  0  0  0  0  0  0  0  0  0  0
   -2.8726    4.0247   15.7180 O   0  5  0  0  0  0  0  0  0  0  0  0
   -7.8385   -0.8503   11.6072 C   0  0  2  0  0  0  0  0  0  0  0  0
   -8.5823   -1.3299   10.5763 N   0  0  0  0  0  0  0  0  0  0  0  0
   -2.1397    5.9081   13.6315 O   0  0  0  0  0  0  0  0  0  0  0  0
   -7.9191    0.4736   11.9123 N   0  0  0  0  0  0  0  0  0  0  0  0
   -7.1976    1.0113   12.9235 C   0  0  2  0  0  0  0  0  0  0  0  0
   -6.3162    0.1399   13.7118 C   0  0  2  0  0  0  0  0  0  0  0  0
   -6.2754   -1.2897   13.3368 C   0  0  0  0  0  0  0  0  0  0  0  0
   -5.4935   -2.1707   14.0083 O   0  0  0  0  0  0  0  0  0  0  0  0
   -5.7365    0.9208   14.6448 N   0  0  0  0  0  0  0  0  0  0  0  0
   -6.2065    2.1911   14.4644 C   0  0  0  0  0  0  0  0  0  0  0  0
   -7.0821    2.2384   13.4349 N   0  0  1  0  0  0  0  0  0  0  0  0
  1  3  1  1  0  0  0
  1  4  2  0  0  0  0
  1  6  1  0  0  0  0
  1 22  1  0  0  0  0
  2 28  1  0  0  0  0
  2 35  1  1  0  0  0
  2 38  2  0  0  0  0
  2 10  1  0  0  0  0
  5  6  1  0  0  0  0
  7  5  1  6  0  0  0
  7  8  1  0  0  0  0
  7  9  1  0  0  0  0
  9 10  1  6  0  0  0
  9 11  1  0  0  0  0
 11 12  1  1  0  0  0
 11 13  1  0  0  0  0
 13  8  1  6  0  0  0
 13 33  1  0  0  0  0
 14 46  1  0  0  0  0
 14 17  1  0  0  0  0
 14 25  1  1  0  0  0
 15 16  1  0  0  0  0
 15 29  1  0  0  0  0
 16 18  1  6  0  0  0
 16 21  1  0  0  0  0
 17 19  1  6  0  0  0
 17 20  1  0  0  0  0
 20 22  1  6  0  0  0
 20 24  1  0  0  0  0
 23 21  1  6  0  0  0
 23 26  1  0  0  0  0
 23 33  1  0  0  0  0
 24 25  1  1  0  0  0
 24 27  1  0  0  0  0
 26 29  1  1  0  0  0
 26 31  1  0  0  0  0
 27 28  1  0  0  0  0
 29 30  2  0  0  0  0
 31 32  1  0  0  0  0
 33 32  1  1  0  0  0
 34 36  1  0  0  0  0
 34 42  1  0  0  0  0
 36 37  1  6  0  0  0
 36 39  1  0  0  0  0
 40 39  1  1  0  0  0
 40 41  1  0  0  0  0
 40 46  1  0  0  0  0
 41 42  1  1  0  0  0
 41 44  1  0  0  0  0
 42 43  2  0  0  0  0
 44 45  1  0  0  0  0
 46 45  1  6  0  0  0
M  CHG  2   3  -1  35  -1
M  END
>  <CHROM.1>
-178.37392468,129.14593048,-6.24073577,4.04259965,16.12242086,0.77589707
-1.26244794,0.27021419

>  <Name>
ligand

>  <RI>
-1

>  <Rbt.Current_Directory>
/home/itssahil/PROJECTS/Mol_Feturizer/Test_systems_manuscript/rnas/3mum

>  <Rbt.Executable>
rbdock ($Id: //depot/dev/client3/rdock/2013.1/src/exe/rbdock.cxx#4 $)

>  <Rbt.Library>
libRbt.so (2013.1, Build901 2013/11/27)

>  <Rbt.Parameter_File>
/export/apps/rDock/src/rDock_2013.1_src/data/scripts/dock_solv.prm

>  <Rbt.Receptor>
prm/pocket_docking_5.prm

>  <SCORE>
-26.0117

>  <SCORE.INTER>
-25.8802

>  <SCORE.INTER.CONST>
1

>  <SCORE.INTER.POLAR>
0

>  <SCORE.INTER.ROT>
2

>  <SCORE.INTER.SOLV>
17.1925

>  <SCORE.INTER.VDW>
-27.9176

>  <SCORE.INTER.norm>
-0.562613

>  <SCORE.INTRA>
-0.131547

>  <SCORE.INTRA.DIHEDRAL>
-0.0160829

>  <SCORE.INTRA.DIHEDRAL.0>
2.40424

>  <SCORE.INTRA.POLAR>
0

>  <SCORE.INTRA.POLAR.0>
0

>  <SCORE.INTRA.REPUL>
0

>  <SCORE.INTRA.REPUL.0>
0

>  <SCORE.INTRA.SOLV>
0.00555705

>  <SCORE.INTRA.SOLV.lig_0>
-134.169

>  <SCORE.INTRA.VDW>
-0.126284

>  <SCORE.INTRA.VDW.0>
-2.18386

>  <SCORE.INTRA.norm>
-0.00285972

>  <SCORE.RESTR>
0

>  <SCORE.RESTR.CAVITY>
0

>  <SCORE.RESTR.norm>
0

>  <SCORE.SYSTEM>
0

>  <SCORE.SYSTEM.CONST>
0

>  <SCORE.SYSTEM.DIHEDRAL>
0

>  <SCORE.SYSTEM.SOLV>
0

>  <SCORE.SYSTEM.norm>
0

>  <SCORE.heavy>
46

>  <SCORE.norm>
-0.565472

>  <RMSD>
4.701

$$$$
ligand
 OpenBabel02271912143D
libRbt.so/2013.1/901 2013/11/27
 46 52  0  0  0  0  0  0  0  0999 V2000
   -9.0149    6.6762   16.1725 P   0  0  1  0  0  0  0  0  0  0  0  0
   -3.4328    5.4399   14.7627 P   0  0  2  0  0  0  0  0  0  0  0  0
   -9.8320    5.2226   16.7735 O   0  5  0  0  0  0  0  0  0  0  0  0
  -10.0721    8.1093   16.2618 O   0  0  0  0  0  0  0  0  0  0  0  0
   -6.7589    7.9507   16.7288 C   0  0  0  0  0  0  0  0  0  0  0  0
   -7.6823    6.9101   17.0493 O   0  0  0  0  0  0  0  0  0  0  0  0
   -5.4258    7.6313   17.3780 C   0  0  1  0  0  0  0  0  0  0  0  0
   -5.6219    7.3911   18.7786 O   0  0  0  0  0  0  0  0  0  0  0  0
   -4.7809    6.3669   16.8341 C   0  0  1  0  0  0  0  0  0  0  0  0
   -3.9142    6.6361   15.7343 O   0  0  0  0  0  0  0  0  0  0  0  0
   -4.0252    5.8219   18.0332 C   0  0  1  0  0  0  0  0  0  0  0  0
   -2.7092    6.3792   18.0783 O   0  0  0  0  0  0  0  0  0  0  0  0
   -4.7995    6.3094   19.2438 C   0  0  2  0  0  0  0  0  0  0  0  0
   -7.8130    3.4204   12.9427 C   0  0  1  0  0  0  0  0  0  0  0  0
   -5.1211    1.5569   21.5896 N   0  0  0  0  0  0  0  0  0  0  0  0
   -4.0142    2.2604   21.2259 C   0  0  1  0  0  0  0  0  0  0  0  0
   -8.4979    4.1170   14.0841 C   0  0  2  0  0  0  0  0  0  0  0  0
   -2.8005    1.7161   21.4733 N   0  0  0  0  0  0  0  0  0  0  0  0
   -9.8121    4.4433   13.6286 O   0  0  0  0  0  0  0  0  0  0  0  0
   -7.6601    5.3541   14.3399 C   0  0  2  0  0  0  0  0  0  0  0  0
   -4.0810    3.4843   20.6223 N   0  0  0  0  0  0  0  0  0  0  0  0
   -8.4667    6.4757   14.6731 O   0  0  0  0  0  0  0  0  0  0  0  0
   -5.2737    4.0738   20.3546 C   0  0  2  0  0  0  0  0  0  0  0  0
   -6.9316    5.6073   13.0347 C   0  0  2  0  0  0  0  0  0  0  0  0
   -6.9212    4.3594   12.3434 O   0  0  0  0  0  0  0  0  0  0  0  0
   -6.5038    3.3529   20.7254 C   0  0  1  0  0  0  0  0  0  0  0  0
   -5.4990    6.0870   13.2397 C   0  0  0  0  0  0  0  0  0  0  0  0
   -4.7620    5.0758   13.9300 O   0  0  0  0  0  0  0  0  0  0  0  0
   -6.3672    2.0366   21.3741 C   0  0  0  0  0  0  0  0  0  0  0  0
   -7.4657    1.3267   21.7367 O   0  0  0  0  0  0  0  0  0  0  0  0
   -7.5325    4.1251   20.3586 N   0  0  0  0  0  0  0  0  0  0  0  0
   -7.0122    5.2541   19.7945 C   0  0  0  0  0  0  0  0  0  0  0  0
   -5.6628    5.2281   19.7886 N   0  0  1  0  0  0  0  0  0  0  0  0
   -7.0432   -1.7132   12.2929 N   0  0  0  0  0  0  0  0  0  0  0  0
   -2.8718    4.0272   15.6955 O   0  5  0  0  0  0  0  0  0  0  0  0
   -7.8592   -0.8618   11.6132 C   0  0  2  0  0  0  0  0  0  0  0  0
   -8.6169   -1.3420   10.5928 N   0  0  0  0  0  0  0  0  0  0  0  0
   -2.1711    5.9300   13.6155 O   0  0  0  0  0  0  0  0  0  0  0  0
   -7.9409    0.4609   11.9232 N   0  0  0  0  0  0  0  0  0  0  0  0
   -7.2062    0.9992   12.9245 C   0  0  2  0  0  0  0  0  0  0  0  0
   -6.3087    0.1296   13.6965 C   0  0  2  0  0  0  0  0  0  0  0  0
   -6.2674   -1.2988   13.3170 C   0  0  0  0  0  0  0  0  0  0  0  0
   -5.4712   -2.1781   13.9739 O   0  0  0  0  0  0  0  0  0  0  0  0
   -5.7179    0.9107   14.6225 N   0  0  0  0  0  0  0  0  0  0  0  0
   -6.1963    2.1793   14.4528 C   0  0  0  0  0  0  0  0  0  0  0  0
   -7.0882    2.2254   13.4372 N   0  0  1  0  0  0  0  0  0  0  0  0
  1  3  1  1  0  0  0
  1  4  2  0  0  0  0
  1  6  1  0  0  0  0
  1 22  1  0  0  0  0
  2 28  1  0  0  0  0
  2 35  1  1  0  0  0
  2 38  2  0  0  0  0
  2 10  1  0  0  0  0
  5  6  1  0  0  0  0
  7  5  1  6  0  0  0
  7  8  1  0  0  0  0
  7  9  1  0  0  0  0
  9 10  1  6  0  0  0
  9 11  1  0  0  0  0
 11 12  1  1  0  0  0
 11 13  1  0  0  0  0
 13  8  1  6  0  0  0
 13 33  1  0  0  0  0
 14 46  1  0  0  0  0
 14 17  1  0  0  0  0
 14 25  1  1  0  0  0
 15 16  1  0  0  0  0
 15 29  1  0  0  0  0
 16 18  1  6  0  0  0
 16 21  1  0  0  0  0
 17 19  1  6  0  0  0
 17 20  1  0  0  0  0
 20 22  1  6  0  0  0
 20 24  1  0  0  0  0
 23 21  1  6  0  0  0
 23 26  1  0  0  0  0
 23 33  1  0  0  0  0
 24 25  1  6  0  0  0
 24 27  1  0  0  0  0
 26 29  1  1  0  0  0
 26 31  1  0  0  0  0
 27 28  1  0  0  0  0
 29 30  2  0  0  0  0
 31 32  1  0  0  0  0
 33 32  1  1  0  0  0
 34 36  1  0  0  0  0
 34 42  1  0  0  0  0
 36 37  1  6  0  0  0
 36 39  1  0  0  0  0
 40 39  1  1  0  0  0
 40 41  1  0  0  0  0
 40 46  1  0  0  0  0
 41 42  1  1  0  0  0
 41 44  1  0  0  0  0
 42 43  2  0  0  0  0
 44 45  1  0  0  0  0
 46 45  1  6  0  0  0
M  CHG  2   3  -1  35  -1
M  END
>  <CHROM.1>
-177.73562374,128.66005998,-6.23831661,4.01850604,16.13433415,0.77662021
-1.25296358,0.27908125

>  <Name>
ligand

>  <RI>
-1

>  <Rbt.Current_Directory>
/home/itssahil/PROJECTS/Mol_Feturizer/Test_systems_manuscript/rnas/3mum

>  <Rbt.Executable>
rbdock ($Id: //depot/dev/client3/rdock/2013.1/src/exe/rbdock.cxx#4 $)

>  <Rbt.Library>
libRbt.so (2013.1, Build901 2013/11/27)

>  <Rbt.Parameter_File>
/export/apps/rDock/src/rDock_2013.1_src/data/scripts/dock_solv.prm

>  <Rbt.Receptor>
prm/pocket_docking_5.prm

>  <SCORE>
-26.0575

>  <SCORE.INTER>
-25.9169

>  <SCORE.INTER.CONST>
1

>  <SCORE.INTER.POLAR>
0

>  <SCORE.INTER.ROT>
2

>  <SCORE.INTER.SOLV>
17.2797

>  <SCORE.INTER.VDW>
-27.9712

>  <SCORE.INTER.norm>
-0.563412

>  <SCORE.INTRA>
-0.140602

>  <SCORE.INTRA.DIHEDRAL>
-0.015329

>  <SCORE.INTRA.DIHEDRAL.0>
2.40424

>  <SCORE.INTRA.POLAR>
0

>  <SCORE.INTRA.POLAR.0>
0

>  <SCORE.INTRA.REPUL>
0

>  <SCORE.INTRA.REPUL.0>
0

>  <SCORE.INTRA.SOLV>
0.00681256

>  <SCORE.INTRA.SOLV.lig_0>
-134.169

>  <SCORE.INTRA.VDW>
-0.136343

>  <SCORE.INTRA.VDW.0>
-2.18386

>  <SCORE.INTRA.norm>
-0.00305656

>  <SCORE.RESTR>
0

>  <SCORE.RESTR.CAVITY>
0

>  <SCORE.RESTR.norm>
0

>  <SCORE.SYSTEM>
0

>  <SCORE.SYSTEM.CONST>
0

>  <SCORE.SYSTEM.DIHEDRAL>
0

>  <SCORE.SYSTEM.SOLV>
0

>  <SCORE.SYSTEM.norm>
0

>  <SCORE.heavy>
46

>  <SCORE.norm>
-0.566468

>  <RMSD>
4.701

$$$$
ligand
 OpenBabel02271912143D
libRbt.so/2013.1/901 2013/11/27
 46 52  0  0  0  0  0  0  0  0999 V2000
   -9.4691    6.5081   16.3683 P   0  0  1  0  0  0  0  0  0  0  0  0
   -3.8015    5.9077   14.8869 P   0  0  2  0  0  0  0  0  0  0  0  0
  -10.1263    4.9572   16.9200 O   0  5  0  0  0  0  0  0  0  0  0  0
  -10.6679    7.8199   16.5149 O   0  0  0  0  0  0  0  0  0  0  0  0
   -7.3521    7.9888   16.9595 C   0  0  0  0  0  0  0  0  0  0  0  0
   -8.1602    6.8473   17.2464 O   0  0  0  0  0  0  0  0  0  0  0  0
   -5.9875    7.7862   17.5900 C   0  0  1  0  0  0  0  0  0  0  0  0
   -6.1456    7.4771   18.9819 O   0  0  0  0  0  0  0  0  0  0  0  0
   -5.2202    6.6155   16.9973 C   0  0  1  0  0  0  0  0  0  0  0  0
   -4.3955    7.0122   15.9038 O   0  0  0  0  0  0  0  0  0  0  0  0
   -4.4019    6.1093   18.1721 C   0  0  1  0  0  0  0  0  0  0  0  0
   -3.1502    6.7979   18.2308 O   0  0  0  0  0  0  0  0  0  0  0  0
   -5.2119    6.4704   19.4033 C   0  0  2  0  0  0  0  0  0  0  0  0
   -7.9653    3.5116   13.0162 C   0  0  1  0  0  0  0  0  0  0  0  0
   -5.0338    1.7252   21.7790 N   0  0  0  0  0  0  0  0  0  0  0  0
   -4.0107    2.5671   21.4675 C   0  0  1  0  0  0  0  0  0  0  0  0
   -8.7086    4.0924   14.1856 C   0  0  2  0  0  0  0  0  0  0  0  0
   -2.7513    2.1881   21.7851 N   0  0  0  0  0  0  0  0  0  0  0  0
  -10.0533    4.2969   13.7488 O   0  0  0  0  0  0  0  0  0  0  0  0
   -8.0009    5.3997   14.4822 C   0  0  2  0  0  0  0  0  0  0  0  0
   -4.2047    3.7694   20.8482 N   0  0  0  0  0  0  0  0  0  0  0  0
   -8.9161    6.4191   14.8599 O   0  0  0  0  0  0  0  0  0  0  0  0
   -5.4481    4.1958   20.5109 C   0  0  2  0  0  0  0  0  0  0  0  0
   -7.3138    5.7734   13.1834 C   0  0  2  0  0  0  0  0  0  0  0  0
   -7.1805    4.5587   12.4471 O   0  0  0  0  0  0  0  0  0  0  0  0
   -6.5913    3.3205   20.8230 C   0  0  1  0  0  0  0  0  0  0  0  0
   -5.9367    6.3912   13.3987 C   0  0  0  0  0  0  0  0  0  0  0  0
   -5.0932    5.4378   14.0481 O   0  0  0  0  0  0  0  0  0  0  0  0
   -6.3186    2.0359   21.4920 C   0  0  0  0  0  0  0  0  0  0  0  0
   -7.3324    1.1888   21.8030 O   0  0  0  0  0  0  0  0  0  0  0  0
   -7.6910    3.9493   20.3937 N   0  0  0  0  0  0  0  0  0  0  0  0
   -7.2935    5.1350   19.8462 C   0  0  0  0  0  0  0  0  0  0  0  0
   -5.9541    5.2868   19.9127 N   0  0  1  0  0  0  0  0  0  0  0  0
   -6.8510   -1.5551   12.3414 N   0  0  0  0  0  0  0  0  0  0  0  0
   -3.0895    4.5283   15.7649 O   0  5  0  0  0  0  0  0  0  0  0  0
   -7.7773   -0.7763   11.7182 C   0  0  2  0  0  0  0  0  0  0  0  0
   -8.5675   -1.3246   10.7585 N   0  0  0  0  0  0  0  0  0  0  0  0
   -2.6072    6.5664   13.7521 O   0  0  0  0  0  0  0  0  0  0  0  0
   -7.9381    0.5397   12.0257 N   0  0  0  0  0  0  0  0  0  0  0  0
   -7.1765    1.1439   12.9676 C   0  0  2  0  0  0  0  0  0  0  0  0
   -6.1612    0.3543   13.6771 C   0  0  2  0  0  0  0  0  0  0  0  0
   -6.0375   -1.0710   13.3037 C   0  0  0  0  0  0  0  0  0  0  0  0
   -5.1304   -1.8793   13.9057 O   0  0  0  0  0  0  0  0  0  0  0  0
   -5.5670    1.1887   14.5529 N   0  0  0  0  0  0  0  0  0  0  0  0
   -6.1528    2.4150   14.4114 C   0  0  0  0  0  0  0  0  0  0  0  0
   -7.1166    2.3812   13.4634 N   0  0  1  0  0  0  0  0  0  0  0  0
  1  3  1  1  0  0  0
  1  4  2  0  0  0  0
  1  6  1  0  0  0  0
  1 22  1  0  0  0  0
  2 28  1  0  0  0  0
  2 35  1  1  0  0  0
  2 38  2  0  0  0  0
  2 10  1  0  0  0  0
  5  6  1  0  0  0  0
  7  5  1  6  0  0  0
  7  8  1  0  0  0  0
  7  9  1  0  0  0  0
  9 10  1  6  0  0  0
  9 11  1  0  0  0  0
 11 12  1  1  0  0  0
 11 13  1  0  0  0  0
 13  8  1  6  0  0  0
 13 33  1  0  0  0  0
 14 46  1  0  0  0  0
 14 17  1  0  0  0  0
 14 25  1  1  0  0  0
 15 16  1  0  0  0  0
 15 29  1  0  0  0  0
 16 18  1  6  0  0  0
 16 21  1  0  0  0  0
 17 19  1  6  0  0  0
 17 20  1  0  0  0  0
 20 22  1  6  0  0  0
 20 24  1  0  0  0  0
 23 21  1  6  0  0  0
 23 26  1  0  0  0  0
 23 33  1  0  0  0  0
 24 25  1  6  0  0  0
 24 27  1  0  0  0  0
 26 29  1  1  0  0  0
 26 31  1  0  0  0  0
 27 28  1  0  0  0  0
 29 30  2  0  0  0  0
 31 32  1  0  0  0  0
 33 32  1  1  0  0  0
 34 36  1  0  0  0  0
 34 42  1  0  0  0  0
 36 37  1  6  0  0  0
 36 39  1  0  0  0  0
 40 39  1  1  0  0  0
 40 41  1  0  0  0  0
 40 46  1  0  0  0  0
 41 42  1  1  0  0  0
 41 44  1  0  0  0  0
 42 43  2  0  0  0  0
 44 45  1  0  0  0  0
 46 45  1  6  0  0  0
M  CHG  2   3  -1  35  -1
M  END
>  <CHROM.1>
-173.16324021,123.84819551,-6.45395260,4.15831047,16.25966084,0.94398322
-1.22049129,0.47712883

>  <Name>
ligand

>  <RI>
-1

>  <Rbt.Current_Directory>
/home/itssahil/PROJECTS/Mol_Feturizer/Test_systems_manuscript/rnas/3mum

>  <Rbt.Executable>
rbdock ($Id: //depot/dev/client3/rdock/2013.1/src/exe/rbdock.cxx#4 $)

>  <Rbt.Library>
libRbt.so (2013.1, Build901 2013/11/27)

>  <Rbt.Parameter_File>
/export/apps/rDock/src/rDock_2013.1_src/data/scripts/dock_solv.prm

>  <Rbt.Receptor>
prm/pocket_docking_6.prm

>  <SCORE>
-26.3802

>  <SCORE.INTER>
-26.1896

>  <SCORE.INTER.CONST>
1

>  <SCORE.INTER.POLAR>
0

>  <SCORE.INTER.ROT>
2

>  <SCORE.INTER.SOLV>
15.7522

>  <SCORE.INTER.VDW>
-27.6438

>  <SCORE.INTER.norm>
-0.569339

>  <SCORE.INTRA>
-0.190549

>  <SCORE.INTRA.DIHEDRAL>
-0.0078797

>  <SCORE.INTRA.DIHEDRAL.0>
2.40424

>  <SCORE.INTRA.POLAR>
0

>  <SCORE.INTRA.POLAR.0>
0

>  <SCORE.INTRA.REPUL>
0

>  <SCORE.INTRA.REPUL.0>
0

>  <SCORE.INTRA.SOLV>
0.0264139

>  <SCORE.INTRA.SOLV.lig_0>
-134.169

>  <SCORE.INTRA.VDW>
-0.199816

>  <SCORE.INTRA.VDW.0>
-2.18386

>  <SCORE.INTRA.norm>
-0.00414237

>  <SCORE.RESTR>
0

>  <SCORE.RESTR.CAVITY>
0

>  <SCORE.RESTR.norm>
0

>  <SCORE.SYSTEM>
0

>  <SCORE.SYSTEM.CONST>
0

>  <SCORE.SYSTEM.DIHEDRAL>
0

>  <SCORE.SYSTEM.SOLV>
0

>  <SCORE.SYSTEM.norm>
0

>  <SCORE.heavy>
46

>  <SCORE.norm>
-0.573482

>  <RMSD>
4.708

$$$$
ligand
 OpenBabel02271912143D
libRbt.so/2013.1/901 2013/11/27
 46 52  0  0  0  0  0  0  0  0999 V2000
   -9.4774    6.5001   16.3680 P   0  0  1  0  0  0  0  0  0  0  0  0
   -3.8121    5.9096   14.8739 P   0  0  2  0  0  0  0  0  0  0  0  0
  -10.1316    4.9473   16.9182 O   0  5  0  0  0  0  0  0  0  0  0  0
  -10.6776    7.8100   16.5194 O   0  0  0  0  0  0  0  0  0  0  0  0
   -7.3611    7.9823   16.9576 C   0  0  0  0  0  0  0  0  0  0  0  0
   -8.1672    6.8393   17.2441 O   0  0  0  0  0  0  0  0  0  0  0  0
   -5.9950    7.7803   17.5849 C   0  0  1  0  0  0  0  0  0  0  0  0
   -6.1498    7.4684   18.9766 O   0  0  0  0  0  0  0  0  0  0  0  0
   -5.2274    6.6117   16.9885 C   0  0  1  0  0  0  0  0  0  0  0  0
   -4.4054    7.0114   15.8941 O   0  0  0  0  0  0  0  0  0  0  0  0
   -4.4060    6.1044   18.1607 C   0  0  1  0  0  0  0  0  0  0  0  0
   -3.1551    6.7945   18.2182 O   0  0  0  0  0  0  0  0  0  0  0  0
   -5.2140    6.4623   19.3942 C   0  0  2  0  0  0  0  0  0  0  0  0
   -7.9767    3.5116   13.0073 C   0  0  1  0  0  0  0  0  0  0  0  0
   -5.0267    1.7209   21.7769 N   0  0  0  0  0  0  0  0  0  0  0  0
   -4.0056    2.5659   21.4674 C   0  0  1  0  0  0  0  0  0  0  0  0
   -8.7183    4.0893   14.1793 C   0  0  2  0  0  0  0  0  0  0  0  0
   -2.7459    2.1918   21.7894 N   0  0  0  0  0  0  0  0  0  0  0  0
  -10.0642    4.2929   13.7456 O   0  0  0  0  0  0  0  0  0  0  0  0
   -8.0116    5.3970   14.4768 C   0  0  2  0  0  0  0  0  0  0  0  0
   -4.2019    3.7667   20.8459 N   0  0  0  0  0  0  0  0  0  0  0  0
   -8.9274    6.4145   14.8583 O   0  0  0  0  0  0  0  0  0  0  0  0
   -5.4457    4.1883   20.5042 C   0  0  2  0  0  0  0  0  0  0  0  0
   -7.3276    5.7739   13.1774 C   0  0  2  0  0  0  0  0  0  0  0  0
   -7.1944    4.5608   12.4386 O   0  0  0  0  0  0  0  0  0  0  0  0
   -6.5868    3.3095   20.8140 C   0  0  1  0  0  0  0  0  0  0  0  0
   -5.9509    6.3931   13.3910 C   0  0  0  0  0  0  0  0  0  0  0  0
   -5.1049    5.4396   14.0369 O   0  0  0  0  0  0  0  0  0  0  0  0
   -6.3117    2.0268   21.4856 C   0  0  0  0  0  0  0  0  0  0  0  0
   -7.3235    1.1766   21.7946 O   0  0  0  0  0  0  0  0  0  0  0  0
   -7.6873    3.9338   20.3804 N   0  0  0  0  0  0  0  0  0  0  0  0
   -7.2923    5.1202   19.8325 C   0  0  0  0  0  0  0  0  0  0  0  0
   -5.9536    5.2768   19.9030 N   0  0  1  0  0  0  0  0  0  0  0  0
   -6.8707   -1.5572   12.3346 N   0  0  0  0  0  0  0  0  0  0  0  0
   -3.0965    4.5294   15.7480 O   0  5  0  0  0  0  0  0  0  0  0  0
   -7.8009   -0.7790   11.7165 C   0  0  2  0  0  0  0  0  0  0  0  0
   -8.5983   -1.3286   10.7635 N   0  0  0  0  0  0  0  0  0  0  0  0
   -2.6210    6.5719   13.7379 O   0  0  0  0  0  0  0  0  0  0  0  0
   -7.9585    0.5377   12.0226 N   0  0  0  0  0  0  0  0  0  0  0  0
   -7.1899    1.1432   12.9578 C   0  0  2  0  0  0  0  0  0  0  0  0
   -6.1701    0.3543   13.6616 C   0  0  2  0  0  0  0  0  0  0  0  0
   -6.0500   -1.0718   13.2902 C   0  0  0  0  0  0  0  0  0  0  0  0
   -5.1393   -1.8796   13.8874 O   0  0  0  0  0  0  0  0  0  0  0  0
   -5.5691    1.1899   14.5316 N   0  0  0  0  0  0  0  0  0  0  0  0
   -6.1551    2.4164   14.3918 C   0  0  0  0  0  0  0  0  0  0  0  0
   -7.1256    2.3815   13.4507 N   0  0  1  0  0  0  0  0  0  0  0  0
  1  3  1  1  0  0  0
  1  4  2  0  0  0  0
  1  6  1  0  0  0  0
  1 22  1  0  0  0  0
  2 28  1  0  0  0  0
  2 35  1  1  0  0  0
  2 38  2  0  0  0  0
  2 10  1  0  0  0  0
  5  6  1  0  0  0  0
  7  5  1  6  0  0  0
  7  8  1  0  0  0  0
  7  9  1  0  0  0  0
  9 10  1  6  0  0  0
  9 11  1  0  0  0  0
 11 12  1  1  0  0  0
 11 13  1  0  0  0  0
 13  8  1  6  0  0  0
 13 33  1  0  0  0  0
 14 46  1  0  0  0  0
 14 17  1  0  0  0  0
 14 25  1  1  0  0  0
 15 16  1  0  0  0  0
 15 29  1  0  0  0  0
 16 18  1  6  0  0  0
 16 21  1  0  0  0  0
 17 19  1  6  0  0  0
 17 20  1  0  0  0  0
 20 22  1  6  0  0  0
 20 24  1  0  0  0  0
 23 21  1  6  0  0  0
 23 26  1  0  0  0  0
 23 33  1  0  0  0  0
 24 25  1  6  0  0  0
 24 27  1  0  0  0  0
 26 29  1  1  0  0  0
 26 31  1  0  0  0  0
 27 28  1  0  0  0  0
 29 30  2  0  0  0  0
 31 32  1  0  0  0  0
 33 32  1  1  0  0  0
 34 36  1  0  0  0  0
 34 42  1  0  0  0  0
 36 37  1  6  0  0  0
 36 39  1  0  0  0  0
 40 39  1  1  0  0  0
 40 41  1  0  0  0  0
 40 46  1  0  0  0  0
 41 42  1  1  0  0  0
 41 44  1  0  0  0  0
 42 43  2  0  0  0  0
 44 45  1  0  0  0  0
 46 45  1  6  0  0  0
M  CHG  2   3  -1  35  -1
M  END
>  <CHROM.1>
-172.79606453,123.46889686,-6.46117333,4.15463250,16.25212678,0.93586095
-1.21949042,0.47155851

>  <Name>
ligand

>  <RI>
-1

>  <Rbt.Current_Directory>
/home/itssahil/PROJECTS/Mol_Feturizer/Test_systems_manuscript/rnas/3mum

>  <Rbt.Executable>
rbdock ($Id: //depot/dev/client3/rdock/2013.1/src/exe/rbdock.cxx#4 $)

>  <Rbt.Library>
libRbt.so (2013.1, Build901 2013/11/27)

>  <Rbt.Parameter_File>
/export/apps/rDock/src/rDock_2013.1_src/data/scripts/dock_solv.prm

>  <Rbt.Receptor>
prm/pocket_docking_7.prm

>  <SCORE>
-26.383

>  <SCORE.INTER>
-26.1879

>  <SCORE.INTER.CONST>
1

>  <SCORE.INTER.POLAR>
0

>  <SCORE.INTER.ROT>
2

>  <SCORE.INTER.SOLV>
15.9379

>  <SCORE.INTER.VDW>
-27.7045

>  <SCORE.INTER.norm>
-0.569302

>  <SCORE.INTRA>
-0.195113

>  <SCORE.INTRA.DIHEDRAL>
-0.00727496

>  <SCORE.INTRA.DIHEDRAL.0>
2.40424

>  <SCORE.INTRA.POLAR>
0

>  <SCORE.INTRA.POLAR.0>
0

>  <SCORE.INTRA.REPUL>
0

>  <SCORE.INTRA.REPUL.0>
0

>  <SCORE.INTRA.SOLV>
0.0286548

>  <SCORE.INTRA.SOLV.lig_0>
-134.169

>  <SCORE.INTRA.VDW>
-0.205803

>  <SCORE.INTRA.VDW.0>
-2.18386

>  <SCORE.INTRA.norm>
-0.00424159

>  <SCORE.RESTR>
0

>  <SCORE.RESTR.CAVITY>
0

>  <SCORE.RESTR.norm>
0

>  <SCORE.SYSTEM>
0

>  <SCORE.SYSTEM.CONST>
0

>  <SCORE.SYSTEM.DIHEDRAL>
0

>  <SCORE.SYSTEM.SOLV>
0

>  <SCORE.SYSTEM.norm>
0

>  <SCORE.heavy>
46

>  <SCORE.norm>
-0.573543

>  <RMSD>
4.708

$$$$
ligand
 OpenBabel02271912143D
libRbt.so/2013.1/901 2013/11/27
 46 52  0  0  0  0  0  0  0  0999 V2000
   -8.8871    6.6726   16.1418 P   0  0  1  0  0  0  0  0  0  0  0  0
   -3.3417    5.3045   14.7092 P   0  0  2  0  0  0  0  0  0  0  0  0
   -9.7348    5.2396   16.7497 O   0  5  0  0  0  0  0  0  0  0  0  0
   -9.9105    8.1299   16.2328 O   0  0  0  0  0  0  0  0  0  0  0  0
   -6.5997    7.8957   16.6850 C   0  0  0  0  0  0  0  0  0  0  0  0
   -7.5455    6.8774   17.0120 O   0  0  0  0  0  0  0  0  0  0  0  0
   -5.2713    7.5469   17.3288 C   0  0  1  0  0  0  0  0  0  0  0  0
   -5.4665    7.3141   18.7308 O   0  0  0  0  0  0  0  0  0  0  0  0
   -4.6584    6.2667   16.7847 C   0  0  1  0  0  0  0  0  0  0  0  0
   -3.7908    6.5136   15.6804 O   0  0  0  0  0  0  0  0  0  0  0  0
   -3.9100    5.7069   17.9816 C   0  0  1  0  0  0  0  0  0  0  0  0
   -2.5813    6.2336   18.0194 O   0  0  0  0  0  0  0  0  0  0  0  0
   -4.6673    6.2147   19.1946 C   0  0  2  0  0  0  0  0  0  0  0  0
   -7.7758    3.3831   12.9136 C   0  0  1  0  0  0  0  0  0  0  0  0
   -5.0870    1.4936   21.5879 N   0  0  0  0  0  0  0  0  0  0  0  0
   -3.9657    2.1733   21.2231 C   0  0  1  0  0  0  0  0  0  0  0  0
   -8.4391    4.0978   14.0567 C   0  0  2  0  0  0  0  0  0  0  0  0
   -2.7633    1.6100   21.4830 N   0  0  0  0  0  0  0  0  0  0  0  0
   -9.7475    4.4535   13.6064 O   0  0  0  0  0  0  0  0  0  0  0  0
   -7.5718    5.3157   14.3060 C   0  0  2  0  0  0  0  0  0  0  0  0
   -4.0072    3.3918   20.6065 N   0  0  0  0  0  0  0  0  0  0  0  0
   -8.3506    6.4563   14.6404 O   0  0  0  0  0  0  0  0  0  0  0  0
   -5.1876    3.9997   20.3258 C   0  0  2  0  0  0  0  0  0  0  0  0
   -6.8436    5.5492   12.9969 C   0  0  2  0  0  0  0  0  0  0  0  0
   -6.8653    4.3000   12.3083 O   0  0  0  0  0  0  0  0  0  0  0  0
   -6.4325    3.3049   20.6971 C   0  0  1  0  0  0  0  0  0  0  0  0
   -5.3994    5.9960   13.1943 C   0  0  0  0  0  0  0  0  0  0  0  0
   -4.6828    4.9695   13.8834 O   0  0  0  0  0  0  0  0  0  0  0  0
   -6.3232    1.9933   21.3602 C   0  0  0  0  0  0  0  0  0  0  0  0
   -7.4361    1.3070   21.7240 O   0  0  0  0  0  0  0  0  0  0  0  0
   -7.4451    4.0915   20.3165 N   0  0  0  0  0  0  0  0  0  0  0  0
   -6.9015    5.2051   19.7436 C   0  0  0  0  0  0  0  0  0  0  0  0
   -5.5528    5.1548   19.7457 N   0  0  1  0  0  0  0  0  0  0  0  0
   -7.1318   -1.7692   12.2749 N   0  0  0  0  0  0  0  0  0  0  0  0
   -2.8092    3.8811   15.6426 O   0  5  0  0  0  0  0  0  0  0  0  0
   -7.9315   -0.9006   11.5975 C   0  0  2  0  0  0  0  0  0  0  0  0
   -8.7065   -1.3656   10.5830 N   0  0  0  0  0  0  0  0  0  0  0  0
   -2.0743    5.7628   13.5552 O   0  0  0  0  0  0  0  0  0  0  0  0
   -7.9800    0.4246   11.9039 N   0  0  0  0  0  0  0  0  0  0  0  0
   -7.2266    0.9482   12.8992 C   0  0  2  0  0  0  0  0  0  0  0  0
   -6.3454    0.0598   13.6685 C   0  0  2  0  0  0  0  0  0  0  0  0
   -6.3403   -1.3703   13.2931 C   0  0  0  0  0  0  0  0  0  0  0  0
   -5.5612   -2.2663   13.9479 O   0  0  0  0  0  0  0  0  0  0  0  0
   -5.7308    0.8292   14.5886 N   0  0  0  0  0  0  0  0  0  0  0  0
   -6.1800    2.1084   14.4179 C   0  0  0  0  0  0  0  0  0  0  0  0
   -7.0765    2.1727   13.4075 N   0  0  1  0  0  0  0  0  0  0  0  0
  1  3  1  1  0  0  0
  1  4  2  0  0  0  0
  1  6  1  0  0  0  0
  1 22  1  0  0  0  0
  2 28  1  0  0  0  0
  2 35  1  1  0  0  0
  2 38  2  0  0  0  0
  2 10  1  0  0  0  0
  5  6  1  0  0  0  0
  7  5  1  6  0  0  0
  7  8  1  0  0  0  0
  7  9  1  0  0  0  0
  9 10  1  6  0  0  0
  9 11  1  0  0  0  0
 11 12  1  1  0  0  0
 11 13  1  0  0  0  0
 13  8  1  6  0  0  0
 13 33  1  0  0  0  0
 14 46  1  0  0  0  0
 14 17  1  0  0  0  0
 14 25  1  1  0  0  0
 15 16  1  0  0  0  0
 15 29  1  0  0  0  0
 16 18  1  6  0  0  0
 16 21  1  0  0  0  0
 17 19  1  6  0  0  0
 17 20  1  0  0  0  0
 20 22  1  6  0  0  0
 20 24  1  0  0  0  0
 23 21  1  6  0  0  0
 23 26  1  0  0  0  0
 23 33  1  0  0  0  0
 24 25  1  6  0  0  0
 24 27  1  0  0  0  0
 26 29  1  1  0  0  0
 26 31  1  0  0  0  0
 27 28  1  0  0  0  0
 29 30  2  0  0  0  0
 31 32  1  0  0  0  0
 33 32  1  1  0  0  0
 34 36  1  0  0  0  0
 34 42  1  0  0  0  0
 36 37  1  6  0  0  0
 36 39  1  0  0  0  0
 40 39  1  1  0  0  0
 40 41  1  0  0  0  0
 40 46  1  0  0  0  0
 41 42  1  1  0  0  0
 41 44  1  0  0  0  0
 42 43  2  0  0  0  0
 44 45  1  0  0  0  0
 46 45  1  6  0  0  0
M  CHG  2   3  -1  35  -1
M  END
>  <CHROM.1>
-176.92590040,128.56275019,-6.17332136,3.95308744,16.10096944,0.69200031
-1.25528979,0.20001172

>  <Name>
ligand

>  <RI>
-1

>  <Rbt.Current_Directory>
/home/itssahil/PROJECTS/Mol_Feturizer/Test_systems_manuscript/rnas/3mum

>  <Rbt.Executable>
rbdock ($Id: //depot/dev/client3/rdock/2013.1/src/exe/rbdock.cxx#4 $)

>  <Rbt.Library>
libRbt.so (2013.1, Build901 2013/11/27)

>  <Rbt.Parameter_File>
/export/apps/rDock/src/rDock_2013.1_src/data/scripts/dock_solv.prm

>  <Rbt.Receptor>
prm/pocket_docking_8.prm

>  <SCORE>
-25.9351

>  <SCORE.INTER>
-25.788

>  <SCORE.INTER.CONST>
1

>  <SCORE.INTER.POLAR>
0

>  <SCORE.INTER.ROT>
2

>  <SCORE.INTER.SOLV>
18.1747

>  <SCORE.INTER.VDW>
-28.1836

>  <SCORE.INTER.norm>
-0.560609

>  <SCORE.INTRA>
-0.147084

>  <SCORE.INTRA.DIHEDRAL>
-0.0150494

>  <SCORE.INTRA.DIHEDRAL.0>
2.40424

>  <SCORE.INTRA.POLAR>
0

>  <SCORE.INTRA.POLAR.0>
0

>  <SCORE.INTRA.REPUL>
0

>  <SCORE.INTRA.REPUL.0>
0

>  <SCORE.INTRA.SOLV>
0.0068386

>  <SCORE.INTRA.SOLV.lig_0>
-134.169

>  <SCORE.INTRA.VDW>
-0.142979

>  <SCORE.INTRA.VDW.0>
-2.18386

>  <SCORE.INTRA.norm>
-0.00319749

>  <SCORE.RESTR>
0

>  <SCORE.RESTR.CAVITY>
0

>  <SCORE.RESTR.norm>
0

>  <SCORE.SYSTEM>
0

>  <SCORE.SYSTEM.CONST>
0

>  <SCORE.SYSTEM.DIHEDRAL>
0

>  <SCORE.SYSTEM.SOLV>
0

>  <SCORE.SYSTEM.norm>
0

>  <SCORE.heavy>
46

>  <SCORE.norm>
-0.563806

>  <RMSD>
4.708

$$$$
ligand
 OpenBabel02271912143D
libRbt.so/2013.1/901 2013/11/27
 46 52  0  0  0  0  0  0  0  0999 V2000
   -9.0546    6.7057   16.1138 P   0  0  1  0  0  0  0  0  0  0  0  0
   -3.4588    5.4955   14.7358 P   0  0  2  0  0  0  0  0  0  0  0  0
   -9.8647    5.2512   16.7220 O   0  5  0  0  0  0  0  0  0  0  0  0
  -10.1214    8.1325   16.1884 O   0  0  0  0  0  0  0  0  0  0  0  0
   -6.8092    7.9988   16.6701 C   0  0  0  0  0  0  0  0  0  0  0  0
   -7.7272    6.9545   16.9943 O   0  0  0  0  0  0  0  0  0  0  0  0
   -5.4767    7.6927   17.3270 C   0  0  1  0  0  0  0  0  0  0  0  0
   -5.6771    7.4614   18.7285 O   0  0  0  0  0  0  0  0  0  0  0  0
   -4.8214    6.4286   16.7949 C   0  0  1  0  0  0  0  0  0  0  0  0
   -3.9519    6.6955   15.6968 O   0  0  0  0  0  0  0  0  0  0  0  0
   -4.0672    5.8972   18.0011 C   0  0  1  0  0  0  0  0  0  0  0  0
   -2.7551    6.4633   18.0474 O   0  0  0  0  0  0  0  0  0  0  0  0
   -4.8497    6.3884   19.2049 C   0  0  2  0  0  0  0  0  0  0  0  0
   -7.8184    3.4344   12.9126 C   0  0  1  0  0  0  0  0  0  0  0  0
   -5.1520    1.6101   21.5003 N   0  0  0  0  0  0  0  0  0  0  0  0
   -4.0486    2.3117   21.1228 C   0  0  1  0  0  0  0  0  0  0  0  0
   -8.5124    4.1349   14.0462 C   0  0  2  0  0  0  0  0  0  0  0  0
   -2.8333    1.7577   21.3395 N   0  0  0  0  0  0  0  0  0  0  0  0
   -9.8268    4.4493   13.5830 O   0  0  0  0  0  0  0  0  0  0  0  0
   -7.6837    5.3792   14.2965 C   0  0  2  0  0  0  0  0  0  0  0  0
   -4.1203    3.5431   20.5352 N   0  0  0  0  0  0  0  0  0  0  0  0
   -8.4989    6.4979   14.6182 O   0  0  0  0  0  0  0  0  0  0  0  0
   -5.3146    4.1424   20.2984 C   0  0  2  0  0  0  0  0  0  0  0  0
   -6.9514    5.6277   12.9924 C   0  0  2  0  0  0  0  0  0  0  0  0
   -6.9302    4.3749   12.3102 O   0  0  0  0  0  0  0  0  0  0  0  0
   -6.5413    3.4240   20.6851 C   0  0  1  0  0  0  0  0  0  0  0  0
   -5.5228    6.1181   13.1998 C   0  0  0  0  0  0  0  0  0  0  0  0
   -4.7822    5.1167   13.9004 O   0  0  0  0  0  0  0  0  0  0  0  0
   -6.3994    2.0993   21.3153 C   0  0  0  0  0  0  0  0  0  0  0  0
   -7.4945    1.3912   21.6914 O   0  0  0  0  0  0  0  0  0  0  0  0
   -7.5725    4.2063   20.3481 N   0  0  0  0  0  0  0  0  0  0  0  0
   -7.0570    5.3390   19.7871 C   0  0  0  0  0  0  0  0  0  0  0  0
   -5.7082    5.3055   19.7540 N   0  0  1  0  0  0  0  0  0  0  0  0
   -7.0261   -1.7020   12.3147 N   0  0  0  0  0  0  0  0  0  0  0  0
   -2.8925    4.0932   15.6812 O   0  5  0  0  0  0  0  0  0  0  0  0
   -7.8464   -0.8612   11.6269 C   0  0  2  0  0  0  0  0  0  0  0  0
   -8.6026   -1.3551   10.6119 N   0  0  0  0  0  0  0  0  0  0  0  0
   -2.1956    5.9854   13.5903 O   0  0  0  0  0  0  0  0  0  0  0  0
   -7.9338    0.4642   11.9235 N   0  0  0  0  0  0  0  0  0  0  0  0
   -7.2007    1.0159   12.9187 C   0  0  2  0  0  0  0  0  0  0  0  0
   -6.2989    0.1583   13.6989 C   0  0  2  0  0  0  0  0  0  0  0  0
   -6.2515   -1.2737   13.3339 C   0  0  0  0  0  0  0  0  0  0  0  0
   -5.4509   -2.1427   13.9991 O   0  0  0  0  0  0  0  0  0  0  0  0
   -5.7110    0.9513   14.6164 N   0  0  0  0  0  0  0  0  0  0  0  0
   -6.1952    2.2160   14.4342 C   0  0  0  0  0  0  0  0  0  0  0  0
   -7.0879    2.2478   13.4188 N   0  0  1  0  0  0  0  0  0  0  0  0
  1  3  1  1  0  0  0
  1  4  2  0  0  0  0
  1  6  1  0  0  0  0
  1 22  1  0  0  0  0
  2 28  1  0  0  0  0
  2 35  1  1  0  0  0
  2 38  2  0  0  0  0
  2 10  1  0  0  0  0
  5  6  1  0  0  0  0
  7  5  1  6  0  0  0
  7  8  1  0  0  0  0
  7  9  1  0  0  0  0
  9 10  1  6  0  0  0
  9 11  1  0  0  0  0
 11 12  1  1  0  0  0
 11 13  1  0  0  0  0
 13  8  1  6  0  0  0
 13 33  1  0  0  0  0
 14 46  1  0  0  0  0
 14 17  1  0  0  0  0
 14 25  1  1  0  0  0
 15 16  1  0  0  0  0
 15 29  1  0  0  0  0
 16 18  1  6  0  0  0
 16 21  1  0  0  0  0
 17 19  1  6  0  0  0
 17 20  1  0  0  0  0
 20 22  1  6  0  0  0
 20 24  1  0  0  0  0
 23 21  1  6  0  0  0
 23 26  1  0  0  0  0
 23 33  1  0  0  0  0
 24 25  1  1  0  0  0
 24 27  1  0  0  0  0
 26 29  1  1  0  0  0
 26 31  1  0  0  0  0
 27 28  1  0  0  0  0
 29 30  2  0  0  0  0
 31 32  1  0  0  0  0
 33 32  1  1  0  0  0
 34 36  1  0  0  0  0
 34 42  1  0  0  0  0
 36 37  1  6  0  0  0
 36 39  1  0  0  0  0
 40 39  1  1  0  0  0
 40 41  1  0  0  0  0
 40 46  1  0  0  0  0
 41 42  1  1  0  0  0
 41 44  1  0  0  0  0
 42 43  2  0  0  0  0
 44 45  1  0  0  0  0
 46 45  1  6  0  0  0
M  CHG  2   3  -1  35  -1
M  END
>  <CHROM.1>
-179.62989310,128.31741225,-6.26242720,4.06105476,16.09850819,0.81020237
-1.25208150,0.29307970

>  <Name>
ligand

>  <RI>
-1

>  <Rbt.Current_Directory>
/home/itssahil/PROJECTS/Mol_Feturizer/Test_systems_manuscript/rnas/3mum

>  <Rbt.Executable>
rbdock ($Id: //depot/dev/client3/rdock/2013.1/src/exe/rbdock.cxx#4 $)

>  <Rbt.Library>
libRbt.so (2013.1, Build901 2013/11/27)

>  <Rbt.Parameter_File>
/export/apps/rDock/src/rDock_2013.1_src/data/scripts/dock_solv.prm

>  <Rbt.Receptor>
prm/pocket_docking_8.prm

>  <SCORE>
-25.9792

>  <SCORE.INTER>
-25.8485

>  <SCORE.INTER.CONST>
1

>  <SCORE.INTER.POLAR>
0

>  <SCORE.INTER.ROT>
2

>  <SCORE.INTER.SOLV>
17.0364

>  <SCORE.INTER.VDW>
-27.8445

>  <SCORE.INTER.norm>
-0.561923

>  <SCORE.INTRA>
-0.130721

>  <SCORE.INTRA.DIHEDRAL>
-0.0152352

>  <SCORE.INTRA.DIHEDRAL.0>
2.40424

>  <SCORE.INTRA.POLAR>
0

>  <SCORE.INTRA.POLAR.0>
0

>  <SCORE.INTRA.REPUL>
0

>  <SCORE.INTRA.REPUL.0>
0

>  <SCORE.INTRA.SOLV>
0.00845649

>  <SCORE.INTRA.SOLV.lig_0>
-134.169

>  <SCORE.INTRA.VDW>
-0.127331

>  <SCORE.INTRA.VDW.0>
-2.18386

>  <SCORE.INTRA.norm>
-0.00284176

>  <SCORE.RESTR>
0

>  <SCORE.RESTR.CAVITY>
0

>  <SCORE.RESTR.norm>
0

>  <SCORE.SYSTEM>
0

>  <SCORE.SYSTEM.CONST>
0

>  <SCORE.SYSTEM.DIHEDRAL>
0

>  <SCORE.SYSTEM.SOLV>
0

>  <SCORE.SYSTEM.norm>
0

>  <SCORE.heavy>
46

>  <SCORE.norm>
-0.564765

>  <RMSD>
4.712

$$$$
ligand
 OpenBabel02271912143D
libRbt.so/2013.1/901 2013/11/27
 46 52  0  0  0  0  0  0  0  0999 V2000
   -9.4850    6.5048   16.3761 P   0  0  1  0  0  0  0  0  0  0  0  0
   -3.8229    5.9190   14.8684 P   0  0  2  0  0  0  0  0  0  0  0  0
  -10.1359    4.9520   16.9303 O   0  5  0  0  0  0  0  0  0  0  0  0
  -10.6864    7.8135   16.5288 O   0  0  0  0  0  0  0  0  0  0  0  0
   -7.3690    7.9905   16.9581 C   0  0  0  0  0  0  0  0  0  0  0  0
   -8.1730    6.8469   17.2484 O   0  0  0  0  0  0  0  0  0  0  0  0
   -6.0010    7.7910   17.5822 C   0  0  1  0  0  0  0  0  0  0  0  0
   -6.1519    7.4810   18.9747 O   0  0  0  0  0  0  0  0  0  0  0  0
   -5.2335    6.6225   16.9855 C   0  0  1  0  0  0  0  0  0  0  0  0
   -4.4149    7.0216   15.8884 O   0  0  0  0  0  0  0  0  0  0  0  0
   -4.4086    6.1179   18.1564 C   0  0  1  0  0  0  0  0  0  0  0  0
   -3.1583    6.8096   18.2096 O   0  0  0  0  0  0  0  0  0  0  0  0
   -5.2138    6.4766   19.3915 C   0  0  2  0  0  0  0  0  0  0  0  0
   -7.9893    3.5132   13.0161 C   0  0  1  0  0  0  0  0  0  0  0  0
   -5.0150    1.7409   21.7846 N   0  0  0  0  0  0  0  0  0  0  0  0
   -3.9958    2.5870   21.4718 C   0  0  1  0  0  0  0  0  0  0  0  0
   -8.7286    4.0917   14.1891 C   0  0  2  0  0  0  0  0  0  0  0  0
   -2.7350    2.2158   21.7930 N   0  0  0  0  0  0  0  0  0  0  0  0
  -10.0759    4.2930   13.7585 O   0  0  0  0  0  0  0  0  0  0  0  0
   -8.0228    5.4007   14.4829 C   0  0  2  0  0  0  0  0  0  0  0  0
   -4.1950    3.7861   20.8479 N   0  0  0  0  0  0  0  0  0  0  0  0
   -8.9388    6.4176   14.8652 O   0  0  0  0  0  0  0  0  0  0  0  0
   -5.4400    4.2047   20.5068 C   0  0  2  0  0  0  0  0  0  0  0  0
   -7.3426    5.7765   13.1811 C   0  0  2  0  0  0  0  0  0  0  0  0
   -7.2098    4.5625   12.4437 O   0  0  0  0  0  0  0  0  0  0  0  0
   -6.5792    3.3246   20.8202 C   0  0  1  0  0  0  0  0  0  0  0  0
   -5.9661    6.3977   13.3903 C   0  0  0  0  0  0  0  0  0  0  0  0
   -5.1172    5.4462   14.0354 O   0  0  0  0  0  0  0  0  0  0  0  0
   -6.3009    2.0439   21.4943 C   0  0  0  0  0  0  0  0  0  0  0  0
   -7.3108    1.1926   21.8065 O   0  0  0  0  0  0  0  0  0  0  0  0
   -7.6814    3.9461   20.3866 N   0  0  0  0  0  0  0  0  0  0  0  0
   -7.2892    5.1318   19.8355 C   0  0  0  0  0  0  0  0  0  0  0  0
   -5.9507    5.2909   19.9039 N   0  0  1  0  0  0  0  0  0  0  0  0
   -6.8682   -1.5514   12.3370 N   0  0  0  0  0  0  0  0  0  0  0  0
   -3.1034    4.5410   15.7426 O   0  5  0  0  0  0  0  0  0  0  0  0
   -7.7996   -0.7748   11.7187 C   0  0  2  0  0  0  0  0  0  0  0  0
   -8.5941   -1.3251   10.7637 N   0  0  0  0  0  0  0  0  0  0  0  0
   -2.6355    6.5810   13.7283 O   0  0  0  0  0  0  0  0  0  0  0  0
   -7.9614    0.5410   12.0266 N   0  0  0  0  0  0  0  0  0  0  0  0
   -7.1958    1.1471   12.9639 C   0  0  2  0  0  0  0  0  0  0  0  0
   -6.1749    0.3599   13.6680 C   0  0  2  0  0  0  0  0  0  0  0  0
   -6.0503   -1.0652   13.2945 C   0  0  0  0  0  0  0  0  0  0  0  0
   -5.1381   -1.8714   13.8917 O   0  0  0  0  0  0  0  0  0  0  0  0
   -5.5775    1.1959   14.5402 N   0  0  0  0  0  0  0  0  0  0  0  0
   -6.1667    2.4209   14.4015 C   0  0  0  0  0  0  0  0  0  0  0  0
   -7.1357    2.3848   13.4589 N   0  0  1  0  0  0  0  0  0  0  0  0
  1  3  1  1  0  0  0
  1  4  2  0  0  0  0
  1  6  1  0  0  0  0
  1 22  1  0  0  0  0
  2 28  1  0  0  0  0
  2 35  1  1  0  0  0
  2 38  2  0  0  0  0
  2 10  1  0  0  0  0
  5  6  1  0  0  0  0
  7  5  1  6  0  0  0
  7  8  1  0  0  0  0
  7  9  1  0  0  0  0
  9 10  1  6  0  0  0
  9 11  1  0  0  0  0
 11 12  1  1  0  0  0
 11 13  1  0  0  0  0
 13  8  1  6  0  0  0
 13 33  1  0  0  0  0
 14 46  1  0  0  0  0
 14 17  1  0  0  0  0
 14 25  1  1  0  0  0
 15 16  1  0  0  0  0
 15 29  1  0  0  0  0
 16 18  1  6  0  0  0
 16 21  1  0  0  0  0
 17 19  1  6  0  0  0
 17 20  1  0  0  0  0
 20 22  1  6  0  0  0
 20 24  1  0  0  0  0
 23 21  1  6  0  0  0
 23 26  1  0  0  0  0
 23 33  1  0  0  0  0
 24 25  1  6  0  0  0
 24 27  1  0  0  0  0
 26 29  1  1  0  0  0
 26 31  1  0  0  0  0
 27 28  1  0  0  0  0
 29 30  2  0  0  0  0
 31 32  1  0  0  0  0
 33 32  1  1  0  0  0
 34 36  1  0  0  0  0
 34 42  1  0  0  0  0
 36 37  1  6  0  0  0
 36 39  1  0  0  0  0
 40 39  1  1  0  0  0
 40 41  1  0  0  0  0
 40 46  1  0  0  0  0
 41 42  1  1  0  0  0
 41 44  1  0  0  0  0
 42 43  2  0  0  0  0
 44 45  1  0  0  0  0
 46 45  1  6  0  0  0
M  CHG  2   3  -1  35  -1
M  END
>  <CHROM.1>
-172.70565844,123.77222198,-6.46511306,4.16346971,16.25519424,0.93973011
-1.21646123,0.47515285

>  <Name>
ligand

>  <RI>
-1

>  <Rbt.Current_Directory>
/home/itssahil/PROJECTS/Mol_Feturizer/Test_systems_manuscript/rnas/3mum

>  <Rbt.Executable>
rbdock ($Id: //depot/dev/client3/rdock/2013.1/src/exe/rbdock.cxx#4 $)

>  <Rbt.Library>
libRbt.so (2013.1, Build901 2013/11/27)

>  <Rbt.Parameter_File>
/export/apps/rDock/src/rDock_2013.1_src/data/scripts/dock_solv.prm

>  <Rbt.Receptor>
prm/pocket_docking_6.prm

>  <SCORE>
-26.3601

>  <SCORE.INTER>
-26.1668

>  <SCORE.INTER.CONST>
1

>  <SCORE.INTER.POLAR>
0

>  <SCORE.INTER.ROT>
2

>  <SCORE.INTER.SOLV>
15.9182

>  <SCORE.INTER.VDW>
-27.6839

>  <SCORE.INTER.norm>
-0.568843

>  <SCORE.INTRA>
-0.193296

>  <SCORE.INTRA.DIHEDRAL>
-0.00769089

>  <SCORE.INTRA.DIHEDRAL.0>
2.40424

>  <SCORE.INTRA.POLAR>
0

>  <SCORE.INTRA.POLAR.0>
0

>  <SCORE.INTRA.REPUL>
0

>  <SCORE.INTRA.REPUL.0>
0

>  <SCORE.INTRA.SOLV>
0.0282581

>  <SCORE.INTRA.SOLV.lig_0>
-134.169

>  <SCORE.INTRA.VDW>
-0.203579

>  <SCORE.INTRA.VDW.0>
-2.18386

>  <SCORE.INTRA.norm>
-0.00420208

>  <SCORE.RESTR>
0

>  <SCORE.RESTR.CAVITY>
0

>  <SCORE.RESTR.norm>
0

>  <SCORE.SYSTEM>
0

>  <SCORE.SYSTEM.CONST>
0

>  <SCORE.SYSTEM.DIHEDRAL>
0

>  <SCORE.SYSTEM.SOLV>
0

>  <SCORE.SYSTEM.norm>
0

>  <SCORE.heavy>
46

>  <SCORE.norm>
-0.573045

>  <RMSD>
4.718

$$$$
ligand
 OpenBabel02271912143D
libRbt.so/2013.1/901 2013/11/27
 46 52  0  0  0  0  0  0  0  0999 V2000
   -9.1050    6.7102   16.2523 P   0  0  1  0  0  0  0  0  0  0  0  0
   -3.5122    5.5722   14.8028 P   0  0  2  0  0  0  0  0  0  0  0  0
   -9.8937    5.2412   16.8539 O   0  5  0  0  0  0  0  0  0  0  0  0
  -10.1855    8.1250   16.3528 O   0  0  0  0  0  0  0  0  0  0  0  0
   -6.8672    8.0207   16.7981 C   0  0  0  0  0  0  0  0  0  0  0  0
   -7.7709    6.9637   17.1212 O   0  0  0  0  0  0  0  0  0  0  0  0
   -5.5247    7.7218   17.4377 C   0  0  1  0  0  0  0  0  0  0  0  0
   -5.7077    7.4740   18.8388 O   0  0  0  0  0  0  0  0  0  0  0  0
   -4.8622    6.4700   16.8857 C   0  0  1  0  0  0  0  0  0  0  0  0
   -4.0073    6.7572   15.7813 O   0  0  0  0  0  0  0  0  0  0  0  0
   -4.0898    5.9342   18.0783 C   0  0  1  0  0  0  0  0  0  0  0  0
   -2.7831    6.5133   18.1166 O   0  0  0  0  0  0  0  0  0  0  0  0
   -4.8643    6.4049   19.2952 C   0  0  2  0  0  0  0  0  0  0  0  0
   -7.8696    3.4848   13.0045 C   0  0  1  0  0  0  0  0  0  0  0  0
   -5.0958    1.5766   21.4922 N   0  0  0  0  0  0  0  0  0  0  0  0
   -4.0041    2.2897   21.1022 C   0  0  1  0  0  0  0  0  0  0  0  0
   -8.5586    4.1664   14.1525 C   0  0  2  0  0  0  0  0  0  0  0  0
   -2.7823    1.7348   21.2755 N   0  0  0  0  0  0  0  0  0  0  0  0
   -9.8810    4.4719   13.7065 O   0  0  0  0  0  0  0  0  0  0  0  0
   -7.7401    5.4166   14.4069 C   0  0  2  0  0  0  0  0  0  0  0  0
   -4.0940    3.5334   20.5438 N   0  0  0  0  0  0  0  0  0  0  0  0
   -8.5632    6.5234   14.7488 O   0  0  0  0  0  0  0  0  0  0  0  0
   -5.2954    4.1340   20.3507 C   0  0  2  0  0  0  0  0  0  0  0  0
   -7.0244    5.6860   13.0978 C   0  0  2  0  0  0  0  0  0  0  0  0
   -6.9975    4.4405   12.4025 O   0  0  0  0  0  0  0  0  0  0  0  0
   -6.5100    3.4036   20.7527 C   0  0  1  0  0  0  0  0  0  0  0  0
   -5.5987    6.1890   13.2952 C   0  0  0  0  0  0  0  0  0  0  0  0
   -4.8404    5.1883   13.9775 O   0  0  0  0  0  0  0  0  0  0  0  0
   -6.3488    2.0658   21.3499 C   0  0  0  0  0  0  0  0  0  0  0  0
   -7.4321    1.3463   21.7382 O   0  0  0  0  0  0  0  0  0  0  0  0
   -7.5515    4.1898   20.4594 N   0  0  0  0  0  0  0  0  0  0  0  0
   -7.0534    5.3362   19.9105 C   0  0  0  0  0  0  0  0  0  0  0  0
   -5.7058    5.3076   19.8422 N   0  0  1  0  0  0  0  0  0  0  0  0
   -7.0066   -1.6299   12.3241 N   0  0  0  0  0  0  0  0  0  0  0  0
   -2.9215    4.1662   15.7276 O   0  5  0  0  0  0  0  0  0  0  0  0
   -7.8399   -0.7900   11.6511 C   0  0  2  0  0  0  0  0  0  0  0  0
   -8.5911   -1.2784   10.6298 N   0  0  0  0  0  0  0  0  0  0  0  0
   -2.2663    6.0868   13.6491 O   0  0  0  0  0  0  0  0  0  0  0  0
   -7.9453    0.5293   11.9687 N   0  0  0  0  0  0  0  0  0  0  0  0
   -7.2181    1.0754   12.9713 C   0  0  2  0  0  0  0  0  0  0  0  0
   -6.3029    0.2183   13.7364 C   0  0  2  0  0  0  0  0  0  0  0  0
   -6.2361   -1.2070   13.3487 C   0  0  0  0  0  0  0  0  0  0  0  0
   -5.4222   -2.0750   13.9988 O   0  0  0  0  0  0  0  0  0  0  0  0
   -5.7244    1.0049   14.6653 N   0  0  0  0  0  0  0  0  0  0  0  0
   -6.2266    2.2654   14.5039 C   0  0  0  0  0  0  0  0  0  0  0  0
   -7.1216    2.3007   13.4907 N   0  0  1  0  0  0  0  0  0  0  0  0
  1  3  1  1  0  0  0
  1  4  2  0  0  0  0
  1  6  1  0  0  0  0
  1 22  1  0  0  0  0
  2 28  1  0  0  0  0
  2 35  1  1  0  0  0
  2 38  2  0  0  0  0
  2 10  1  0  0  0  0
  5  6  1  0  0  0  0
  7  5  1  6  0  0  0
  7  8  1  0  0  0  0
  7  9  1  0  0  0  0
  9 10  1  6  0  0  0
  9 11  1  0  0  0  0
 11 12  1  1  0  0  0
 11 13  1  0  0  0  0
 13  8  1  6  0  0  0
 13 33  1  0  0  0  0
 14 46  1  0  0  0  0
 14 17  1  0  0  0  0
 14 25  1  1  0  0  0
 15 16  1  0  0  0  0
 15 29  1  0  0  0  0
 16 18  1  6  0  0  0
 16 21  1  0  0  0  0
 17 19  1  6  0  0  0
 17 20  1  0  0  0  0
 20 22  1  6  0  0  0
 20 24  1  0  0  0  0
 23 21  1  6  0  0  0
 23 26  1  0  0  0  0
 23 33  1  0  0  0  0
 24 25  1  6  0  0  0
 24 27  1  0  0  0  0
 26 29  1  1  0  0  0
 26 31  1  0  0  0  0
 27 28  1  0  0  0  0
 29 30  2  0  0  0  0
 31 32  1  0  0  0  0
 33 32  1  1  0  0  0
 34 36  1  0  0  0  0
 34 42  1  0  0  0  0
 36 37  1  6  0  0  0
 36 39  1  0  0  0  0
 40 39  1  1  0  0  0
 40 41  1  0  0  0  0
 40 46  1  0  0  0  0
 41 42  1  1  0  0  0
 41 44  1  0  0  0  0
 42 43  2  0  0  0  0
 44 45  1  0  0  0  0
 46 45  1  6  0  0  0
M  CHG  2   3  -1  35  -1
M  END
>  <CHROM.1>
179.20378329,128.95064136,-6.28381962,4.09306930,16.17218408,0.85123687,-1.23703301
0.33846409

>  <Name>
ligand

>  <RI>
-1

>  <Rbt.Current_Directory>
/home/itssahil/PROJECTS/Mol_Feturizer/Test_systems_manuscript/rnas/3mum

>  <Rbt.Executable>
rbdock ($Id: //depot/dev/client3/rdock/2013.1/src/exe/rbdock.cxx#4 $)

>  <Rbt.Library>
libRbt.so (2013.1, Build901 2013/11/27)

>  <Rbt.Parameter_File>
/export/apps/rDock/src/rDock_2013.1_src/data/scripts/dock_solv.prm

>  <Rbt.Receptor>
prm/pocket_docking_8.prm

>  <SCORE>
-25.9211

>  <SCORE.INTER>
-25.8045

>  <SCORE.INTER.CONST>
1

>  <SCORE.INTER.POLAR>
0

>  <SCORE.INTER.ROT>
2

>  <SCORE.INTER.SOLV>
16.5417

>  <SCORE.INTER.VDW>
-27.6502

>  <SCORE.INTER.norm>
-0.560967

>  <SCORE.INTRA>
-0.116588

>  <SCORE.INTRA.DIHEDRAL>
-0.0162872

>  <SCORE.INTRA.DIHEDRAL.0>
2.40424

>  <SCORE.INTRA.POLAR>
0

>  <SCORE.INTRA.POLAR.0>
0

>  <SCORE.INTRA.REPUL>
0

>  <SCORE.INTRA.REPUL.0>
0

>  <SCORE.INTRA.SOLV>
0.00695836

>  <SCORE.INTRA.SOLV.lig_0>
-134.169

>  <SCORE.INTRA.VDW>
-0.111923

>  <SCORE.INTRA.VDW.0>
-2.18386

>  <SCORE.INTRA.norm>
-0.00253452

>  <SCORE.RESTR>
0

>  <SCORE.RESTR.CAVITY>
0

>  <SCORE.RESTR.norm>
0

>  <SCORE.SYSTEM>
0

>  <SCORE.SYSTEM.CONST>
0

>  <SCORE.SYSTEM.DIHEDRAL>
0

>  <SCORE.SYSTEM.SOLV>
0

>  <SCORE.SYSTEM.norm>
0

>  <SCORE.heavy>
46

>  <SCORE.norm>
-0.563502

>  <RMSD>
4.718

$$$$
ligand
 OpenBabel02271912143D
libRbt.so/2013.1/901 2013/11/27
 46 52  0  0  0  0  0  0  0  0999 V2000
   -9.0883    6.6647   16.1665 P   0  0  1  0  0  0  0  0  0  0  0  0
   -3.4756    5.5411   14.7843 P   0  0  2  0  0  0  0  0  0  0  0  0
   -9.8814    5.1929   16.7551 O   0  5  0  0  0  0  0  0  0  0  0  0
  -10.1729    8.0772   16.2567 O   0  0  0  0  0  0  0  0  0  0  0  0
   -6.8601    7.9786   16.7430 C   0  0  0  0  0  0  0  0  0  0  0  0
   -7.7656    6.9190   17.0526 O   0  0  0  0  0  0  0  0  0  0  0  0
   -5.5251    7.6809   17.3986 C   0  0  1  0  0  0  0  0  0  0  0  0
   -5.7250    7.4297   18.7968 O   0  0  0  0  0  0  0  0  0  0  0  0
   -4.8533    6.4317   16.8522 C   0  0  1  0  0  0  0  0  0  0  0  0
   -3.9852    6.7229   15.7592 O   0  0  0  0  0  0  0  0  0  0  0  0
   -4.0947    5.8947   18.0532 C   0  0  1  0  0  0  0  0  0  0  0  0
   -2.7897    6.4764   18.1090 O   0  0  0  0  0  0  0  0  0  0  0  0
   -4.8852    6.3612   19.2614 C   0  0  2  0  0  0  0  0  0  0  0  0
   -7.8060    3.4490   12.9275 C   0  0  1  0  0  0  0  0  0  0  0  0
   -5.1397    1.7003   21.7920 N   0  0  0  0  0  0  0  0  0  0  0  0
   -4.0453    2.4434   21.4717 C   0  0  1  0  0  0  0  0  0  0  0  0
   -8.5107    4.1266   14.0683 C   0  0  2  0  0  0  0  0  0  0  0  0
   -2.8268    1.9723   21.8238 N   0  0  0  0  0  0  0  0  0  0  0  0
   -9.8281    4.4305   13.6065 O   0  0  0  0  0  0  0  0  0  0  0  0
   -7.6979    5.3779   14.3355 C   0  0  2  0  0  0  0  0  0  0  0  0
   -4.1289    3.6362   20.8105 N   0  0  0  0  0  0  0  0  0  0  0  0
   -8.5274    6.4824   14.6695 O   0  0  0  0  0  0  0  0  0  0  0  0
   -5.3272    4.1526   20.4375 C   0  0  2  0  0  0  0  0  0  0  0  0
   -6.9665    5.6516   13.0360 C   0  0  2  0  0  0  0  0  0  0  0  0
   -6.9285    4.4077   12.3384 O   0  0  0  0  0  0  0  0  0  0  0  0
   -6.5440    3.3862   20.7574 C   0  0  1  0  0  0  0  0  0  0  0  0
   -5.5445    6.1571   13.2522 C   0  0  0  0  0  0  0  0  0  0  0  0
   -4.7927    5.1564   13.9418 O   0  0  0  0  0  0  0  0  0  0  0  0
   -6.3895    2.1067   21.4723 C   0  0  0  0  0  0  0  0  0  0  0  0
   -7.4751    1.3575   21.7924 O   0  0  0  0  0  0  0  0  0  0  0  0
   -7.5807    4.0892   20.2884 N   0  0  0  0  0  0  0  0  0  0  0  0
   -7.0775    5.2187   19.7101 C   0  0  0  0  0  0  0  0  0  0  0  0
   -5.7312    5.2611   19.7955 N   0  0  1  0  0  0  0  0  0  0  0  0
   -6.9866   -1.6796   12.2997 N   0  0  0  0  0  0  0  0  0  0  0  0
   -2.8936    4.1343   15.7134 O   0  5  0  0  0  0  0  0  0  0  0  0
   -7.8205   -0.8417   11.6249 C   0  0  2  0  0  0  0  0  0  0  0  0
   -8.5852   -1.3367   10.6169 N   0  0  0  0  0  0  0  0  0  0  0  0
   -2.2165    6.0607   13.6474 O   0  0  0  0  0  0  0  0  0  0  0  0
   -7.9132    0.4820   11.9278 N   0  0  0  0  0  0  0  0  0  0  0  0
   -7.1722    1.0347   12.9166 C   0  0  2  0  0  0  0  0  0  0  0  0
   -6.2556    0.1800   13.6828 C   0  0  2  0  0  0  0  0  0  0  0  0
   -6.2030   -1.2502   13.3115 C   0  0  0  0  0  0  0  0  0  0  0  0
   -5.3889   -2.1164   13.9639 O   0  0  0  0  0  0  0  0  0  0  0  0
   -5.6623    0.9734   14.5965 N   0  0  0  0  0  0  0  0  0  0  0  0
   -6.1570    2.2355   14.4251 C   0  0  0  0  0  0  0  0  0  0  0  0
   -7.0617    2.2653   13.4203 N   0  0  1  0  0  0  0  0  0  0  0  0
  1  3  1  1  0  0  0
  1  4  2  0  0  0  0
  1  6  1  0  0  0  0
  1 22  1  0  0  0  0
  2 28  1  0  0  0  0
  2 35  1  1  0  0  0
  2 38  2  0  0  0  0
  2 10  1  0  0  0  0
  5  6  1  0  0  0  0
  7  5  1  6  0  0  0
  7  8  1  0  0  0  0
  7  9  1  0  0  0  0
  9 10  1  6  0  0  0
  9 11  1  0  0  0  0
 11 12  1  1  0  0  0
 11 13  1  0  0  0  0
 13  8  1  6  0  0  0
 13 33  1  0  0  0  0
 14 46  1  0  0  0  0
 14 17  1  0  0  0  0
 14 25  1  1  0  0  0
 15 16  1  0  0  0  0
 15 29  1  0  0  0  0
 16 18  1  6  0  0  0
 16 21  1  0  0  0  0
 17 19  1  6  0  0  0
 17 20  1  0  0  0  0
 20 22  1  6  0  0  0
 20 24  1  0  0  0  0
 23 21  1  6  0  0  0
 23 26  1  0  0  0  0
 23 33  1  0  0  0  0
 24 25  1  6  0  0  0
 24 27  1  0  0  0  0
 26 29  1  1  0  0  0
 26 31  1  0  0  0  0
 27 28  1  0  0  0  0
 29 30  2  0  0  0  0
 31 32  1  0  0  0  0
 33 32  1  1  0  0  0
 34 36  1  0  0  0  0
 34 42  1  0  0  0  0
 36 37  1  6  0  0  0
 36 39  1  0  0  0  0
 40 39  1  1  0  0  0
 40 41  1  0  0  0  0
 40 46  1  0  0  0  0
 41 42  1  1  0  0  0
 41 44  1  0  0  0  0
 42 43  2  0  0  0  0
 44 45  1  0  0  0  0
 46 45  1  6  0  0  0
M  CHG  2   3  -1  35  -1
M  END
>  <CHROM.1>
-172.89947541,127.34824960,-6.26845813,4.07020095,16.15919444,0.77495361
-1.26259887,0.29956121

>  <Name>
ligand

>  <RI>
-1

>  <Rbt.Current_Directory>
/home/itssahil/PROJECTS/Mol_Feturizer/Test_systems_manuscript/rnas/3mum

>  <Rbt.Executable>
rbdock ($Id: //depot/dev/client3/rdock/2013.1/src/exe/rbdock.cxx#4 $)

>  <Rbt.Library>
libRbt.so (2013.1, Build901 2013/11/27)

>  <Rbt.Parameter_File>
/export/apps/rDock/src/rDock_2013.1_src/data/scripts/dock_solv.prm

>  <Rbt.Receptor>
prm/pocket_docking_7.prm

>  <SCORE>
-26.0176

>  <SCORE.INTER>
-25.8366

>  <SCORE.INTER.CONST>
1

>  <SCORE.INTER.POLAR>
0

>  <SCORE.INTER.ROT>
2

>  <SCORE.INTER.SOLV>
16.9275

>  <SCORE.INTER.VDW>
-27.8002

>  <SCORE.INTER.norm>
-0.561664

>  <SCORE.INTRA>
-0.181031

>  <SCORE.INTRA.DIHEDRAL>
-0.0126959

>  <SCORE.INTRA.DIHEDRAL.0>
2.40424

>  <SCORE.INTRA.POLAR>
0

>  <SCORE.INTRA.POLAR.0>
0

>  <SCORE.INTRA.REPUL>
0

>  <SCORE.INTRA.REPUL.0>
0

>  <SCORE.INTRA.SOLV>
0.0181899

>  <SCORE.INTRA.SOLV.lig_0>
-134.169

>  <SCORE.INTRA.VDW>
-0.183778

>  <SCORE.INTRA.VDW.0>
-2.18386

>  <SCORE.INTRA.norm>
-0.00393546

>  <SCORE.RESTR>
0

>  <SCORE.RESTR.CAVITY>
0

>  <SCORE.RESTR.norm>
0

>  <SCORE.SYSTEM>
0

>  <SCORE.SYSTEM.CONST>
0

>  <SCORE.SYSTEM.DIHEDRAL>
0

>  <SCORE.SYSTEM.SOLV>
0

>  <SCORE.SYSTEM.norm>
0

>  <SCORE.heavy>
46

>  <SCORE.norm>
-0.5656

>  <RMSD>
4.723

$$$$
ligand
 OpenBabel02271912143D
libRbt.so/2013.1/901 2013/11/27
 46 52  0  0  0  0  0  0  0  0999 V2000
   -9.0219    6.6826   16.1658 P   0  0  1  0  0  0  0  0  0  0  0  0
   -3.4341    5.4839   14.7462 P   0  0  2  0  0  0  0  0  0  0  0  0
   -9.8283    5.2234   16.7677 O   0  5  0  0  0  0  0  0  0  0  0  0
  -10.0885    8.1085   16.2573 O   0  0  0  0  0  0  0  0  0  0  0  0
   -6.7735    7.9719   16.7188 C   0  0  0  0  0  0  0  0  0  0  0  0
   -7.6894    6.9250   17.0404 O   0  0  0  0  0  0  0  0  0  0  0  0
   -5.4372    7.6611   17.3656 C   0  0  1  0  0  0  0  0  0  0  0  0
   -5.6294    7.4191   18.7664 O   0  0  0  0  0  0  0  0  0  0  0  0
   -4.7848    6.4012   16.8202 C   0  0  1  0  0  0  0  0  0  0  0  0
   -3.9218    6.6766   15.7191 O   0  0  0  0  0  0  0  0  0  0  0  0
   -4.0236    5.8609   18.0179 C   0  0  1  0  0  0  0  0  0  0  0  0
   -2.7112    6.4269   18.0609 O   0  0  0  0  0  0  0  0  0  0  0  0
   -4.7991    6.3428   19.2299 C   0  0  2  0  0  0  0  0  0  0  0  0
   -7.8038    3.4358   12.9329 C   0  0  1  0  0  0  0  0  0  0  0  0
   -5.0849    1.5962   21.5923 N   0  0  0  0  0  0  0  0  0  0  0  0
   -3.9833    2.3086   21.2297 C   0  0  1  0  0  0  0  0  0  0  0  0
   -8.4914    4.1275   14.0757 C   0  0  2  0  0  0  0  0  0  0  0  0
   -2.7654    1.7764   21.4832 N   0  0  0  0  0  0  0  0  0  0  0  0
   -9.8085    4.4452   13.6225 O   0  0  0  0  0  0  0  0  0  0  0  0
   -7.6614    5.3701   14.3305 C   0  0  2  0  0  0  0  0  0  0  0  0
   -4.0593    3.5296   20.6213 N   0  0  0  0  0  0  0  0  0  0  0  0
   -8.4749    6.4861   14.6654 O   0  0  0  0  0  0  0  0  0  0  0  0
   -5.2564    4.1071   20.3474 C   0  0  2  0  0  0  0  0  0  0  0  0
   -6.9368    5.6285   13.0242 C   0  0  2  0  0  0  0  0  0  0  0  0
   -6.9193    4.3810   12.3324 O   0  0  0  0  0  0  0  0  0  0  0  0
   -6.4811    3.3762   20.7167 C   0  0  1  0  0  0  0  0  0  0  0  0
   -5.5071    6.1177   13.2270 C   0  0  0  0  0  0  0  0  0  0  0  0
   -4.7622    5.1112   13.9157 O   0  0  0  0  0  0  0  0  0  0  0  0
   -6.3347    2.0637   21.3707 C   0  0  0  0  0  0  0  0  0  0  0  0
   -7.4278    1.3450   21.7323 O   0  0  0  0  0  0  0  0  0  0  0  0
   -7.5156    4.1376   20.3436 N   0  0  0  0  0  0  0  0  0  0  0  0
   -7.0038    5.2692   19.7770 C   0  0  0  0  0  0  0  0  0  0  0  0
   -5.6542    5.2556   19.7758 N   0  0  1  0  0  0  0  0  0  0  0  0
   -7.0125   -1.6954   12.2901 N   0  0  0  0  0  0  0  0  0  0  0  0
   -2.8621    4.0746   15.6777 O   0  5  0  0  0  0  0  0  0  0  0  0
   -7.8368   -0.8495   11.6133 C   0  0  2  0  0  0  0  0  0  0  0  0
   -8.5981   -1.3358   10.5984 N   0  0  0  0  0  0  0  0  0  0  0  0
   -2.1776    5.9827   13.5971 O   0  0  0  0  0  0  0  0  0  0  0  0
   -7.9231    0.4735   11.9208 N   0  0  0  0  0  0  0  0  0  0  0  0
   -7.1851    1.0176   12.9165 C   0  0  2  0  0  0  0  0  0  0  0  0
   -6.2789    0.1542   13.6853 C   0  0  2  0  0  0  0  0  0  0  0  0
   -6.2328   -1.2748   13.3087 C   0  0  0  0  0  0  0  0  0  0  0  0
   -5.4284   -2.1487   13.9628 O   0  0  0  0  0  0  0  0  0  0  0  0
   -5.6866    0.9402   14.6059 N   0  0  0  0  0  0  0  0  0  0  0  0
   -6.1722    2.2061   14.4363 C   0  0  0  0  0  0  0  0  0  0  0  0
   -7.0702    2.2455   13.4259 N   0  0  1  0  0  0  0  0  0  0  0  0
  1  3  1  1  0  0  0
  1  4  2  0  0  0  0
  1  6  1  0  0  0  0
  1 22  1  0  0  0  0
  2 28  1  0  0  0  0
  2 35  1  1  0  0  0
  2 38  2  0  0  0  0
  2 10  1  0  0  0  0
  5  6  1  0  0  0  0
  7  5  1  6  0  0  0
  7  8  1  0  0  0  0
  7  9  1  0  0  0  0
  9 10  1  6  0  0  0
  9 11  1  0  0  0  0
 11 12  1  1  0  0  0
 11 13  1  0  0  0  0
 13  8  1  6  0  0  0
 13 33  1  0  0  0  0
 14 46  1  0  0  0  0
 14 17  1  0  0  0  0
 14 25  1  1  0  0  0
 15 16  1  0  0  0  0
 15 29  1  0  0  0  0
 16 18  1  6  0  0  0
 16 21  1  0  0  0  0
 17 19  1  6  0  0  0
 17 20  1  0  0  0  0
 20 22  1  6  0  0  0
 20 24  1  0  0  0  0
 23 21  1  6  0  0  0
 23 26  1  0  0  0  0
 23 33  1  0  0  0  0
 24 25  1  6  0  0  0
 24 27  1  0  0  0  0
 26 29  1  1  0  0  0
 26 31  1  0  0  0  0
 27 28  1  0  0  0  0
 29 30  2  0  0  0  0
 31 32  1  0  0  0  0
 33 32  1  1  0  0  0
 34 36  1  0  0  0  0
 34 42  1  0  0  0  0
 36 37  1  6  0  0  0
 36 39  1  0  0  0  0
 40 39  1  1  0  0  0
 40 41  1  0  0  0  0
 40 46  1  0  0  0  0
 41 42  1  1  0  0  0
 41 44  1  0  0  0  0
 42 43  2  0  0  0  0
 44 45  1  0  0  0  0
 46 45  1  6  0  0  0
M  CHG  2   3  -1  35  -1
M  END
>  <CHROM.1>
-177.33668621,128.36054803,-6.22903177,4.04401511,16.12509915,0.78666867
-1.25014157,0.28979481

>  <Name>
ligand

>  <RI>
-1

>  <Rbt.Current_Directory>
/home/itssahil/PROJECTS/Mol_Feturizer/Test_systems_manuscript/rnas/3mum

>  <Rbt.Executable>
rbdock ($Id: //depot/dev/client3/rdock/2013.1/src/exe/rbdock.cxx#4 $)

>  <Rbt.Library>
libRbt.so (2013.1, Build901 2013/11/27)

>  <Rbt.Parameter_File>
/export/apps/rDock/src/rDock_2013.1_src/data/scripts/dock_solv.prm

>  <Rbt.Receptor>
prm/pocket_docking_5.prm

>  <SCORE>
-26.034

>  <SCORE.INTER>
-25.8878

>  <SCORE.INTER.CONST>
1

>  <SCORE.INTER.POLAR>
0

>  <SCORE.INTER.ROT>
2

>  <SCORE.INTER.SOLV>
17.0914

>  <SCORE.INTER.VDW>
-27.889

>  <SCORE.INTER.norm>
-0.562778

>  <SCORE.INTRA>
-0.146165

>  <SCORE.INTRA.DIHEDRAL>
-0.0148597

>  <SCORE.INTRA.DIHEDRAL.0>
2.40424

>  <SCORE.INTRA.POLAR>
0

>  <SCORE.INTRA.POLAR.0>
0

>  <SCORE.INTRA.REPUL>
0

>  <SCORE.INTRA.REPUL.0>
0

>  <SCORE.INTRA.SOLV>
0.00757178

>  <SCORE.INTRA.SOLV.lig_0>
-134.169

>  <SCORE.INTRA.VDW>
-0.142521

>  <SCORE.INTRA.VDW.0>
-2.18386

>  <SCORE.INTRA.norm>
-0.00317749

>  <SCORE.RESTR>
0

>  <SCORE.RESTR.CAVITY>
0

>  <SCORE.RESTR.norm>
0

>  <SCORE.SYSTEM>
0

>  <SCORE.SYSTEM.CONST>
0

>  <SCORE.SYSTEM.DIHEDRAL>
0

>  <SCORE.SYSTEM.SOLV>
0

>  <SCORE.SYSTEM.norm>
0

>  <SCORE.heavy>
46

>  <SCORE.norm>
-0.565956

>  <RMSD>
4.724

$$$$
ligand
 OpenBabel02271912143D
libRbt.so/2013.1/901 2013/11/27
 46 52  0  0  0  0  0  0  0  0999 V2000
   -9.1175    6.6372   16.1386 P   0  0  1  0  0  0  0  0  0  0  0  0
   -3.5035    5.5406   14.7398 P   0  0  2  0  0  0  0  0  0  0  0  0
   -9.9015    5.1617   16.7302 O   0  5  0  0  0  0  0  0  0  0  0  0
  -10.2087    8.0443   16.2316 O   0  0  0  0  0  0  0  0  0  0  0  0
   -6.8940    7.9622   16.7078 C   0  0  0  0  0  0  0  0  0  0  0  0
   -7.7934    6.8984   17.0206 O   0  0  0  0  0  0  0  0  0  0  0  0
   -5.5556    7.6713   17.3595 C   0  0  1  0  0  0  0  0  0  0  0  0
   -5.7500    7.4197   18.7583 O   0  0  0  0  0  0  0  0  0  0  0  0
   -4.8793    6.4252   16.8115 C   0  0  1  0  0  0  0  0  0  0  0  0
   -4.0160    6.7203   15.7157 O   0  0  0  0  0  0  0  0  0  0  0  0
   -4.1144    5.8925   18.0103 C   0  0  1  0  0  0  0  0  0  0  0  0
   -2.8121    6.4806   18.0620 O   0  0  0  0  0  0  0  0  0  0  0  0
   -4.9035    6.3556   19.2208 C   0  0  2  0  0  0  0  0  0  0  0  0
   -7.8293    3.4265   12.8969 C   0  0  1  0  0  0  0  0  0  0  0  0
   -5.1322    1.7240   21.8071 N   0  0  0  0  0  0  0  0  0  0  0  0
   -4.0432    2.4770   21.4916 C   0  0  1  0  0  0  0  0  0  0  0  0
   -8.5338    4.1012   14.0396 C   0  0  2  0  0  0  0  0  0  0  0  0
   -2.8236    2.0260   21.8654 N   0  0  0  0  0  0  0  0  0  0  0  0
   -9.8540    4.3984   13.5817 O   0  0  0  0  0  0  0  0  0  0  0  0
   -7.7264    5.3565   14.3039 C   0  0  2  0  0  0  0  0  0  0  0  0
   -4.1332    3.6602   20.8142 N   0  0  0  0  0  0  0  0  0  0  0  0
   -8.5603    6.4570   14.6400 O   0  0  0  0  0  0  0  0  0  0  0  0
   -5.3329    4.1565   20.4192 C   0  0  2  0  0  0  0  0  0  0  0  0
   -7.0003    5.6333   13.0021 C   0  0  2  0  0  0  0  0  0  0  0  0
   -6.9583    4.3893   12.3048 O   0  0  0  0  0  0  0  0  0  0  0  0
   -6.5440    3.3786   20.7330 C   0  0  1  0  0  0  0  0  0  0  0  0
   -5.5801    6.1458   13.2137 C   0  0  0  0  0  0  0  0  0  0  0  0
   -4.8213    5.1491   13.9014 O   0  0  0  0  0  0  0  0  0  0  0  0
   -6.3828    2.1103   21.4661 C   0  0  0  0  0  0  0  0  0  0  0  0
   -7.4629    1.3514   21.7817 O   0  0  0  0  0  0  0  0  0  0  0  0
   -7.5834    4.0623   20.2417 N   0  0  0  0  0  0  0  0  0  0  0  0
   -7.0869    5.1908   19.6556 C   0  0  0  0  0  0  0  0  0  0  0  0
   -5.7425    5.2515   19.7579 N   0  0  1  0  0  0  0  0  0  0  0  0
   -7.0023   -1.7025   12.2825 N   0  0  0  0  0  0  0  0  0  0  0  0
   -2.9118    4.1370   15.6676 O   0  5  0  0  0  0  0  0  0  0  0  0
   -7.8442   -0.8694   11.6117 C   0  0  2  0  0  0  0  0  0  0  0  0
   -8.6165   -1.3704   10.6125 N   0  0  0  0  0  0  0  0  0  0  0  0
   -2.2505    6.0660   13.5988 O   0  0  0  0  0  0  0  0  0  0  0  0
   -7.9376    0.4552   11.9101 N   0  0  0  0  0  0  0  0  0  0  0  0
   -7.1895    1.0138   12.8901 C   0  0  2  0  0  0  0  0  0  0  0  0
   -6.2640    0.1645   13.6517 C   0  0  2  0  0  0  0  0  0  0  0  0
   -6.2109   -1.2670   13.2857 C   0  0  0  0  0  0  0  0  0  0  0  0
   -5.3890   -2.1286   13.9343 O   0  0  0  0  0  0  0  0  0  0  0  0
   -5.6647    0.9630   14.5570 N   0  0  0  0  0  0  0  0  0  0  0  0
   -6.1641    2.2232   14.3848 C   0  0  0  0  0  0  0  0  0  0  0  0
   -7.0777    2.2467   13.3880 N   0  0  1  0  0  0  0  0  0  0  0  0
  1  3  1  1  0  0  0
  1  4  2  0  0  0  0
  1  6  1  0  0  0  0
  1 22  1  0  0  0  0
  2 28  1  0  0  0  0
  2 35  1  1  0  0  0
  2 38  2  0  0  0  0
  2 10  1  0  0  0  0
  5  6  1  0  0  0  0
  7  5  1  6  0  0  0
  7  8  1  0  0  0  0
  7  9  1  0  0  0  0
  9 10  1  6  0  0  0
  9 11  1  0  0  0  0
 11 12  1  1  0  0  0
 11 13  1  0  0  0  0
 13  8  1  6  0  0  0
 13 33  1  0  0  0  0
 14 46  1  0  0  0  0
 14 17  1  0  0  0  0
 14 25  1  1  0  0  0
 15 16  1  0  0  0  0
 15 29  1  0  0  0  0
 16 18  1  6  0  0  0
 16 21  1  0  0  0  0
 17 19  1  6  0  0  0
 17 20  1  0  0  0  0
 20 22  1  6  0  0  0
 20 24  1  0  0  0  0
 23 21  1  6  0  0  0
 23 26  1  0  0  0  0
 23 33  1  0  0  0  0
 24 25  1  6  0  0  0
 24 27  1  0  0  0  0
 26 29  1  1  0  0  0
 26 31  1  0  0  0  0
 27 28  1  0  0  0  0
 29 30  2  0  0  0  0
 31 32  1  0  0  0  0
 33 32  1  1  0  0  0
 34 36  1  0  0  0  0
 34 42  1  0  0  0  0
 36 37  1  6  0  0  0
 36 39  1  0  0  0  0
 40 39  1  1  0  0  0
 40 41  1  0  0  0  0
 40 46  1  0  0  0  0
 41 42  1  1  0  0  0
 41 44  1  0  0  0  0
 42 43  2  0  0  0  0
 44 45  1  0  0  0  0
 46 45  1  6  0  0  0
M  CHG  2   3  -1  35  -1
M  END
>  <CHROM.1>
-171.65675059,126.93691340,-6.28718269,4.05928601,16.13096458,0.76901721
-1.26108147,0.29702483

>  <Name>
ligand

>  <RI>
-1

>  <Rbt.Current_Directory>
/home/itssahil/PROJECTS/Mol_Feturizer/Test_systems_manuscript/rnas/3mum

>  <Rbt.Executable>
rbdock ($Id: //depot/dev/client3/rdock/2013.1/src/exe/rbdock.cxx#4 $)

>  <Rbt.Library>
libRbt.so (2013.1, Build901 2013/11/27)

>  <Rbt.Parameter_File>
/export/apps/rDock/src/rDock_2013.1_src/data/scripts/dock_solv.prm

>  <Rbt.Receptor>
prm/pocket_docking_6.prm

>  <SCORE>
-26.0422

>  <SCORE.INTER>
-25.8516

>  <SCORE.INTER.CONST>
1

>  <SCORE.INTER.POLAR>
0

>  <SCORE.INTER.ROT>
2

>  <SCORE.INTER.SOLV>
17.3457

>  <SCORE.INTER.VDW>
-27.9497

>  <SCORE.INTER.norm>
-0.561992

>  <SCORE.INTRA>
-0.190596

>  <SCORE.INTRA.DIHEDRAL>
-0.0119218

>  <SCORE.INTRA.DIHEDRAL.0>
2.40424

>  <SCORE.INTRA.POLAR>
0

>  <SCORE.INTRA.POLAR.0>
0

>  <SCORE.INTRA.REPUL>
0

>  <SCORE.INTRA.REPUL.0>
0

>  <SCORE.INTRA.SOLV>
0.0237656

>  <SCORE.INTRA.SOLV.lig_0>
-134.169

>  <SCORE.INTRA.VDW>
-0.196518

>  <SCORE.INTRA.VDW.0>
-2.18386

>  <SCORE.INTRA.norm>
-0.00414339

>  <SCORE.RESTR>
0

>  <SCORE.RESTR.CAVITY>
0

>  <SCORE.RESTR.norm>
0

>  <SCORE.SYSTEM>
0

>  <SCORE.SYSTEM.CONST>
0

>  <SCORE.SYSTEM.DIHEDRAL>
0

>  <SCORE.SYSTEM.SOLV>
0

>  <SCORE.SYSTEM.norm>
0

>  <SCORE.heavy>
46

>  <SCORE.norm>
-0.566135

>  <RMSD>
4.725

$$$$
ligand
 OpenBabel02271912143D
libRbt.so/2013.1/901 2013/11/27
 46 52  0  0  0  0  0  0  0  0999 V2000
   -9.4777    6.4676   16.3736 P   0  0  1  0  0  0  0  0  0  0  0  0
   -3.8156    5.9431   14.8434 P   0  0  2  0  0  0  0  0  0  0  0  0
  -10.1126    4.9054   16.9199 O   0  5  0  0  0  0  0  0  0  0  0  0
  -10.6904    7.7643   16.5387 O   0  0  0  0  0  0  0  0  0  0  0  0
   -7.3733    7.9687   16.9582 C   0  0  0  0  0  0  0  0  0  0  0  0
   -8.1659    6.8160   17.2437 O   0  0  0  0  0  0  0  0  0  0  0  0
   -6.0015    7.7777   17.5765 C   0  0  1  0  0  0  0  0  0  0  0  0
   -6.1449    7.4573   18.9675 O   0  0  0  0  0  0  0  0  0  0  0  0
   -5.2255    6.6201   16.9697 C   0  0  1  0  0  0  0  0  0  0  0  0
   -4.4142    7.0337   15.8725 O   0  0  0  0  0  0  0  0  0  0  0  0
   -4.3920    6.1154   18.1345 C   0  0  1  0  0  0  0  0  0  0  0  0
   -3.1479    6.8181   18.1881 O   0  0  0  0  0  0  0  0  0  0  0  0
   -5.1963    6.4588   19.3746 C   0  0  2  0  0  0  0  0  0  0  0  0
   -7.9662    3.5115   12.9893 C   0  0  1  0  0  0  0  0  0  0  0  0
   -4.9502    1.7255   21.7679 N   0  0  0  0  0  0  0  0  0  0  0  0
   -3.9404    2.5852   21.4622 C   0  0  1  0  0  0  0  0  0  0  0  0
   -8.7068    4.0757   14.1685 C   0  0  2  0  0  0  0  0  0  0  0  0
   -2.6768    2.2309   21.7918 N   0  0  0  0  0  0  0  0  0  0  0  0
  -10.0573    4.2675   13.7437 O   0  0  0  0  0  0  0  0  0  0  0  0
   -8.0119    5.3891   14.4684 C   0  0  2  0  0  0  0  0  0  0  0  0
   -4.1514    3.7817   20.8372 N   0  0  0  0  0  0  0  0  0  0  0  0
   -8.9358    6.3952   14.8604 O   0  0  0  0  0  0  0  0  0  0  0  0
   -5.3996    4.1838   20.4878 C   0  0  2  0  0  0  0  0  0  0  0  0
   -7.3395    5.7795   13.1669 C   0  0  2  0  0  0  0  0  0  0  0  0
   -7.1982    4.5715   12.4212 O   0  0  0  0  0  0  0  0  0  0  0  0
   -6.5289    3.2883   20.7933 C   0  0  1  0  0  0  0  0  0  0  0  0
   -5.9680    6.4118   13.3755 C   0  0  0  0  0  0  0  0  0  0  0  0
   -5.1084    5.4639   14.0116 O   0  0  0  0  0  0  0  0  0  0  0  0
   -6.2380    2.0113   21.4690 C   0  0  0  0  0  0  0  0  0  0  0  0
   -7.2385    1.1464   21.7742 O   0  0  0  0  0  0  0  0  0  0  0  0
   -7.6364    3.8951   20.3524 N   0  0  0  0  0  0  0  0  0  0  0  0
   -7.2564    5.0862   19.8043 C   0  0  0  0  0  0  0  0  0  0  0  0
   -5.9206    5.2632   19.8817 N   0  0  1  0  0  0  0  0  0  0  0  0
   -6.8826   -1.5676   12.3595 N   0  0  0  0  0  0  0  0  0  0  0  0
   -3.0807    4.5661   15.7063 O   0  5  0  0  0  0  0  0  0  0  0  0
   -7.8326   -0.7987   11.7602 C   0  0  2  0  0  0  0  0  0  0  0  0
   -8.6608   -1.3627   10.8427 N   0  0  0  0  0  0  0  0  0  0  0  0
   -2.6381    6.6233   13.7037 O   0  0  0  0  0  0  0  0  0  0  0  0
   -7.9802    0.5227   12.0508 N   0  0  0  0  0  0  0  0  0  0  0  0
   -7.1813    1.1423   12.9508 C   0  0  2  0  0  0  0  0  0  0  0  0
   -6.1389    0.3640   13.6329 C   0  0  2  0  0  0  0  0  0  0  0  0
   -6.0309   -1.0678   13.2799 C   0  0  0  0  0  0  0  0  0  0  0  0
   -5.1010   -1.8666   13.8593 O   0  0  0  0  0  0  0  0  0  0  0  0
   -5.5097    1.2128   14.4695 N   0  0  0  0  0  0  0  0  0  0  0  0
   -6.1000    2.4372   14.3300 C   0  0  0  0  0  0  0  0  0  0  0  0
   -7.1010    2.3881   13.4220 N   0  0  1  0  0  0  0  0  0  0  0  0
  1  3  1  1  0  0  0
  1  4  2  0  0  0  0
  1  6  1  0  0  0  0
  1 22  1  0  0  0  0
  2 28  1  0  0  0  0
  2 35  1  1  0  0  0
  2 38  2  0  0  0  0
  2 10  1  0  0  0  0
  5  6  1  0  0  0  0
  7  5  1  6  0  0  0
  7  8  1  0  0  0  0
  7  9  1  0  0  0  0
  9 10  1  6  0  0  0
  9 11  1  0  0  0  0
 11 12  1  1  0  0  0
 11 13  1  0  0  0  0
 13  8  1  6  0  0  0
 13 33  1  0  0  0  0
 14 46  1  0  0  0  0
 14 17  1  0  0  0  0
 14 25  1  1  0  0  0
 15 16  1  0  0  0  0
 15 29  1  0  0  0  0
 16 18  1  6  0  0  0
 16 21  1  0  0  0  0
 17 19  1  6  0  0  0
 17 20  1  0  0  0  0
 20 22  1  6  0  0  0
 20 24  1  0  0  0  0
 23 21  1  6  0  0  0
 23 26  1  0  0  0  0
 23 33  1  0  0  0  0
 24 25  1  6  0  0  0
 24 27  1  0  0  0  0
 26 29  1  1  0  0  0
 26 31  1  0  0  0  0
 27 28  1  0  0  0  0
 29 30  2  0  0  0  0
 31 32  1  0  0  0  0
 33 32  1  1  0  0  0
 34 36  1  0  0  0  0
 34 42  1  0  0  0  0
 36 37  1  6  0  0  0
 36 39  1  0  0  0  0
 40 39  1  1  0  0  0
 40 41  1  0  0  0  0
 40 46  1  0  0  0  0
 41 42  1  1  0  0  0
 41 44  1  0  0  0  0
 42 43  2  0  0  0  0
 44 45  1  0  0  0  0
 46 45  1  6  0  0  0
M  CHG  2   3  -1  35  -1
M  END
>  <CHROM.1>
-171.98379168,121.43507737,-6.44638839,4.15314858,16.24032107,0.91684846
-1.21424150,0.45506704

>  <Name>
ligand

>  <RI>
-1

>  <Rbt.Current_Directory>
/home/itssahil/PROJECTS/Mol_Feturizer/Test_systems_manuscript/rnas/3mum

>  <Rbt.Executable>
rbdock ($Id: //depot/dev/client3/rdock/2013.1/src/exe/rbdock.cxx#4 $)

>  <Rbt.Library>
libRbt.so (2013.1, Build901 2013/11/27)

>  <Rbt.Parameter_File>
/export/apps/rDock/src/rDock_2013.1_src/data/scripts/dock_solv.prm

>  <Rbt.Receptor>
prm/pocket_docking_6.prm

>  <SCORE>
-26.3431

>  <SCORE.INTER>
-26.1125

>  <SCORE.INTER.CONST>
1

>  <SCORE.INTER.POLAR>
0

>  <SCORE.INTER.ROT>
2

>  <SCORE.INTER.SOLV>
16.1181

>  <SCORE.INTER.VDW>
-27.7144

>  <SCORE.INTER.norm>
-0.567663

>  <SCORE.INTRA>
-0.230622

>  <SCORE.INTRA.DIHEDRAL>
-0.0042146

>  <SCORE.INTRA.DIHEDRAL.0>
2.40424

>  <SCORE.INTRA.POLAR>
0

>  <SCORE.INTRA.POLAR.0>
0

>  <SCORE.INTRA.REPUL>
0

>  <SCORE.INTRA.REPUL.0>
0

>  <SCORE.INTRA.SOLV>
0.0361131

>  <SCORE.INTRA.SOLV.lig_0>
-134.169

>  <SCORE.INTRA.VDW>
-0.246571

>  <SCORE.INTRA.VDW.0>
-2.18386

>  <SCORE.INTRA.norm>
-0.00501352

>  <SCORE.RESTR>
0

>  <SCORE.RESTR.CAVITY>
0

>  <SCORE.RESTR.norm>
0

>  <SCORE.SYSTEM>
0

>  <SCORE.SYSTEM.CONST>
0

>  <SCORE.SYSTEM.DIHEDRAL>
0

>  <SCORE.SYSTEM.SOLV>
0

>  <SCORE.SYSTEM.norm>
0

>  <SCORE.heavy>
46

>  <SCORE.norm>
-0.572676

>  <RMSD>
4.727

$$$$
ligand
 OpenBabel02271912143D
libRbt.so/2013.1/901 2013/11/27
 46 52  0  0  0  0  0  0  0  0999 V2000
   -9.5069    6.5179   16.3720 P   0  0  1  0  0  0  0  0  0  0  0  0
   -3.8506    5.9691   14.8288 P   0  0  2  0  0  0  0  0  0  0  0  0
  -10.1405    4.9638   16.9423 O   0  5  0  0  0  0  0  0  0  0  0  0
  -10.7183    7.8174   16.5234 O   0  0  0  0  0  0  0  0  0  0  0  0
   -7.3997    8.0259   16.9280 C   0  0  0  0  0  0  0  0  0  0  0  0
   -8.1918    6.8777   17.2324 O   0  0  0  0  0  0  0  0  0  0  0  0
   -6.0257    7.8428   17.5439 C   0  0  1  0  0  0  0  0  0  0  0  0
   -6.1642    7.5420   18.9398 O   0  0  0  0  0  0  0  0  0  0  0  0
   -5.2524    6.6765   16.9506 C   0  0  1  0  0  0  0  0  0  0  0  0
   -4.4449    7.0743   15.8448 O   0  0  0  0  0  0  0  0  0  0  0  0
   -4.4150    6.1877   18.1193 C   0  0  1  0  0  0  0  0  0  0  0  0
   -3.1704    6.8904   18.1586 O   0  0  0  0  0  0  0  0  0  0  0  0
   -5.2146    6.5488   19.3573 C   0  0  2  0  0  0  0  0  0  0  0  0
   -8.0090    3.5140   13.0239 C   0  0  1  0  0  0  0  0  0  0  0  0
   -4.9442    1.7227   21.5547 N   0  0  0  0  0  0  0  0  0  0  0  0
   -3.9323    2.5578   21.1924 C   0  0  1  0  0  0  0  0  0  0  0  0
   -8.7451    4.0950   14.1977 C   0  0  2  0  0  0  0  0  0  0  0  0
   -2.6596    2.1475   21.3985 N   0  0  0  0  0  0  0  0  0  0  0  0
  -10.0970    4.2816   13.7752 O   0  0  0  0  0  0  0  0  0  0  0  0
   -8.0485    5.4121   14.4768 C   0  0  2  0  0  0  0  0  0  0  0  0
   -4.1506    3.7836   20.6300 N   0  0  0  0  0  0  0  0  0  0  0  0
   -8.9704    6.4241   14.8580 O   0  0  0  0  0  0  0  0  0  0  0  0
   -5.4080    4.2417   20.4045 C   0  0  2  0  0  0  0  0  0  0  0  0
   -7.3806    5.7840   13.1675 C   0  0  2  0  0  0  0  0  0  0  0  0
   -7.2425    4.5656   12.4383 O   0  0  0  0  0  0  0  0  0  0  0  0
   -6.5401    3.3752   20.7757 C   0  0  1  0  0  0  0  0  0  0  0  0
   -6.0081    6.4184   13.3623 C   0  0  0  0  0  0  0  0  0  0  0  0
   -5.1466    5.4791   14.0085 O   0  0  0  0  0  0  0  0  0  0  0  0
   -6.2411    2.0641   21.3789 C   0  0  0  0  0  0  0  0  0  0  0  0
   -7.2438    1.2236   21.7397 O   0  0  0  0  0  0  0  0  0  0  0  0
   -7.6575    4.0363   20.4540 N   0  0  0  0  0  0  0  0  0  0  0  0
   -7.2809    5.2333   19.9166 C   0  0  0  0  0  0  0  0  0  0  0  0
   -5.9377    5.3608   19.8837 N   0  0  1  0  0  0  0  0  0  0  0  0
   -6.7740   -1.5176   12.2990 N   0  0  0  0  0  0  0  0  0  0  0  0
   -3.1132    4.6039   15.7082 O   0  5  0  0  0  0  0  0  0  0  0  0
   -7.7075   -0.7506   11.6719 C   0  0  2  0  0  0  0  0  0  0  0  0
   -8.4709   -1.3027   10.6928 N   0  0  0  0  0  0  0  0  0  0  0  0
   -2.6769    6.6327   13.6755 O   0  0  0  0  0  0  0  0  0  0  0  0
   -7.9017    0.5572   11.9944 N   0  0  0  0  0  0  0  0  0  0  0  0
   -7.1680    1.1648   12.9560 C   0  0  2  0  0  0  0  0  0  0  0  0
   -6.1466    0.3878   13.6706 C   0  0  2  0  0  0  0  0  0  0  0  0
   -5.9860   -1.0292   13.2802 C   0  0  0  0  0  0  0  0  0  0  0  0
   -5.0708   -1.8259   13.8854 O   0  0  0  0  0  0  0  0  0  0  0  0
   -5.5842    1.2228   14.5666 N   0  0  0  0  0  0  0  0  0  0  0  0
   -6.1944    2.4379   14.4323 C   0  0  0  0  0  0  0  0  0  0  0  0
   -7.1427    2.3963   13.4691 N   0  0  1  0  0  0  0  0  0  0  0  0
  1  3  1  1  0  0  0
  1  4  2  0  0  0  0
  1  6  1  0  0  0  0
  1 22  1  0  0  0  0
  2 28  1  0  0  0  0
  2 35  1  1  0  0  0
  2 38  2  0  0  0  0
  2 10  1  0  0  0  0
  5  6  1  0  0  0  0
  7  5  1  6  0  0  0
  7  8  1  0  0  0  0
  7  9  1  0  0  0  0
  9 10  1  6  0  0  0
  9 11  1  0  0  0  0
 11 12  1  1  0  0  0
 11 13  1  0  0  0  0
 13  8  1  6  0  0  0
 13 33  1  0  0  0  0
 14 46  1  0  0  0  0
 14 17  1  0  0  0  0
 14 25  1  1  0  0  0
 15 16  1  0  0  0  0
 15 29  1  0  0  0  0
 16 18  1  6  0  0  0
 16 21  1  0  0  0  0
 17 19  1  6  0  0  0
 17 20  1  0  0  0  0
 20 22  1  6  0  0  0
 20 24  1  0  0  0  0
 23 21  1  6  0  0  0
 23 26  1  0  0  0  0
 23 33  1  0  0  0  0
 24 25  1  6  0  0  0
 24 27  1  0  0  0  0
 26 29  1  1  0  0  0
 26 31  1  0  0  0  0
 27 28  1  0  0  0  0
 29 30  2  0  0  0  0
 31 32  1  0  0  0  0
 33 32  1  1  0  0  0
 34 36  1  0  0  0  0
 34 42  1  0  0  0  0
 36 37  1  6  0  0  0
 36 39  1  0  0  0  0
 40 39  1  1  0  0  0
 40 41  1  0  0  0  0
 40 46  1  0  0  0  0
 41 42  1  1  0  0  0
 41 44  1  0  0  0  0
 42 43  2  0  0  0  0
 44 45  1  0  0  0  0
 46 45  1  6  0  0  0
M  CHG  2   3  -1  35  -1
M  END
>  <CHROM.1>
-177.89955650,125.89140262,-6.45811932,4.19276090,16.21421386,1.02027753
-1.19181286,0.52697504

>  <Name>
ligand

>  <RI>
-1

>  <Rbt.Current_Directory>
/home/itssahil/PROJECTS/Mol_Feturizer/Test_systems_manuscript/rnas/3mum

>  <Rbt.Executable>
rbdock ($Id: //depot/dev/client3/rdock/2013.1/src/exe/rbdock.cxx#4 $)

>  <Rbt.Library>
libRbt.so (2013.1, Build901 2013/11/27)

>  <Rbt.Parameter_File>
/export/apps/rDock/src/rDock_2013.1_src/data/scripts/dock_solv.prm

>  <Rbt.Receptor>
prm/pocket_docking_7.prm

>  <SCORE>
-26.2307

>  <SCORE.INTER>
-26.0666

>  <SCORE.INTER.CONST>
1

>  <SCORE.INTER.POLAR>
0

>  <SCORE.INTER.ROT>
2

>  <SCORE.INTER.SOLV>
15.4154

>  <SCORE.INTER.VDW>
-27.4495

>  <SCORE.INTER.norm>
-0.566666

>  <SCORE.INTRA>
-0.164081

>  <SCORE.INTRA.DIHEDRAL>
-0.0116194

>  <SCORE.INTRA.DIHEDRAL.0>
2.40424

>  <SCORE.INTRA.POLAR>
0

>  <SCORE.INTRA.POLAR.0>
0

>  <SCORE.INTRA.REPUL>
0

>  <SCORE.INTRA.REPUL.0>
0

>  <SCORE.INTRA.SOLV>
0.0146875

>  <SCORE.INTRA.SOLV.lig_0>
-134.169

>  <SCORE.INTRA.VDW>
-0.165616

>  <SCORE.INTRA.VDW.0>
-2.18386

>  <SCORE.INTRA.norm>
-0.00356699

>  <SCORE.RESTR>
0

>  <SCORE.RESTR.CAVITY>
0

>  <SCORE.RESTR.norm>
0

>  <SCORE.SYSTEM>
0

>  <SCORE.SYSTEM.CONST>
0

>  <SCORE.SYSTEM.DIHEDRAL>
0

>  <SCORE.SYSTEM.SOLV>
0

>  <SCORE.SYSTEM.norm>
0

>  <SCORE.heavy>
46

>  <SCORE.norm>
-0.570233

>  <RMSD>
4.739

$$$$
ligand
 OpenBabel02271912143D
libRbt.so/2013.1/901 2013/11/27
 46 52  0  0  0  0  0  0  0  0999 V2000
   -3.7743    5.8756   14.7143 P   0  0  1  0  0  0  0  0  0  0  0  0
   -9.3716    6.4461   16.4524 P   0  0  2  0  0  0  0  0  0  0  0  0
   -3.0482    4.4347   15.4480 O   0  5  0  0  0  0  0  0  0  0  0  0
   -2.6489    6.6781   13.5879 O   0  0  0  0  0  0  0  0  0  0  0  0
   -5.9773    6.3968   13.3364 C   0  0  0  0  0  0  0  0  0  0  0  0
   -5.1166    5.4307   13.9399 O   0  0  0  0  0  0  0  0  0  0  0  0
   -7.3419    5.7673   13.1307 C   0  0  1  0  0  0  0  0  0  0  0  0
   -7.1961    4.5358   12.4095 O   0  0  0  0  0  0  0  0  0  0  0  0
   -8.0349    5.3977   14.4321 C   0  0  1  0  0  0  0  0  0  0  0  0
   -8.8569    6.4548   14.9221 O   0  0  0  0  0  0  0  0  0  0  0  0
   -8.8492    4.1731   14.0536 C   0  0  1  0  0  0  0  0  0  0  0  0
  -10.1361    4.5694   13.5727 O   0  0  0  0  0  0  0  0  0  0  0  0
   -8.0842    3.5262   12.9139 C   0  0  2  0  0  0  0  0  0  0  0  0
   -5.0513    6.2914   19.2611 C   0  0  1  0  0  0  0  0  0  0  0  0
   -6.8210   -1.6041   12.3869 N   0  0  0  0  0  0  0  0  0  0  0  0
   -7.6864   -0.8542   11.6513 C   0  0  1  0  0  0  0  0  0  0  0  0
   -4.3633    5.8370   18.0052 C   0  0  2  0  0  0  0  0  0  0  0  0
   -8.3441   -1.4527   10.6315 N   0  0  0  0  0  0  0  0  0  0  0  0
   -3.0224    6.3246   18.0797 O   0  0  0  0  0  0  0  0  0  0  0  0
   -5.1442    6.4870   16.8803 C   0  0  2  0  0  0  0  0  0  0  0  0
   -7.9173    0.4687   11.9031 N   0  0  0  0  0  0  0  0  0  0  0  0
   -4.2913    6.9159   15.8276 O   0  0  0  0  0  0  0  0  0  0  0  0
   -7.2815    1.1153   12.9127 C   0  0  2  0  0  0  0  0  0  0  0  0
   -5.8235    7.6827   17.5186 C   0  0  2  0  0  0  0  0  0  0  0  0
   -5.8781    7.4021   18.9163 O   0  0  0  0  0  0  0  0  0  0  0  0
   -6.3358    0.3485   13.7422 C   0  0  1  0  0  0  0  0  0  0  0  0
   -7.2350    7.9132   16.9906 C   0  0  0  0  0  0  0  0  0  0  0  0
   -8.0405    6.7733   17.2972 O   0  0  0  0  0  0  0  0  0  0  0  0
   -6.1286   -1.0750   13.4214 C   0  0  0  0  0  0  0  0  0  0  0  0
   -5.2703   -1.8310   14.1520 O   0  0  0  0  0  0  0  0  0  0  0  0
   -5.8506    1.1923   14.6596 N   0  0  0  0  0  0  0  0  0  0  0  0
   -6.4350    2.4071   14.4438 C   0  0  0  0  0  0  0  0  0  0  0  0
   -7.2917    2.3663   13.4016 N   0  0  1  0  0  0  0  0  0  0  0  0
   -4.8476    1.6300   21.6271 N   0  0  0  0  0  0  0  0  0  0  0  0
  -10.0282    4.8525   16.9110 O   0  5  0  0  0  0  0  0  0  0  0  0
   -3.8367    2.4297   21.1896 C   0  0  2  0  0  0  0  0  0  0  0  0
   -2.5504    2.0279   21.3628 N   0  0  0  0  0  0  0  0  0  0  0  0
  -10.5756    7.7031   16.7968 O   0  0  0  0  0  0  0  0  0  0  0  0
   -4.0733    3.6245   20.5821 N   0  0  0  0  0  0  0  0  0  0  0  0
   -5.3324    4.0816   20.3874 C   0  0  2  0  0  0  0  0  0  0  0  0
   -6.4655    3.2613   20.8357 C   0  0  2  0  0  0  0  0  0  0  0  0
   -6.1457    1.9712   21.4832 C   0  0  0  0  0  0  0  0  0  0  0  0
   -7.1253    1.1454   21.9271 O   0  0  0  0  0  0  0  0  0  0  0  0
   -7.5841    3.9397   20.5117 N   0  0  0  0  0  0  0  0  0  0  0  0
   -7.1968    5.1029   19.9085 C   0  0  0  0  0  0  0  0  0  0  0  0
   -5.8487    5.1809   19.8347 N   0  0  1  0  0  0  0  0  0  0  0  0
  1  3  1  1  0  0  0
  1  4  2  0  0  0  0
  1  6  1  0  0  0  0
  1 22  1  0  0  0  0
  2 28  1  0  0  0  0
  2 35  1  1  0  0  0
  2 38  2  0  0  0  0
  2 10  1  0  0  0  0
  5  6  1  0  0  0  0
  7  5  1  1  0  0  0
  7  8  1  0  0  0  0
  7  9  1  0  0  0  0
  9 10  1  6  0  0  0
  9 11  1  0  0  0  0
 11 12  1  6  0  0  0
 11 13  1  0  0  0  0
 13  8  1  1  0  0  0
 13 33  1  0  0  0  0
 14 46  1  0  0  0  0
 14 17  1  0  0  0  0
 14 25  1  6  0  0  0
 15 16  1  0  0  0  0
 15 29  1  0  0  0  0
 16 18  1  1  0  0  0
 16 21  1  0  0  0  0
 17 19  1  1  0  0  0
 17 20  1  0  0  0  0
 20 22  1  6  0  0  0
 20 24  1  0  0  0  0
 23 21  1  1  0  0  0
 23 26  1  0  0  0  0
 23 33  1  0  0  0  0
 24 25  1  1  0  0  0
 24 27  1  0  0  0  0
 26 29  1  6  0  0  0
 26 31  1  0  0  0  0
 27 28  1  0  0  0  0
 29 30  2  0  0  0  0
 31 32  1  0  0  0  0
 33 32  1  6  0  0  0
 34 36  1  0  0  0  0
 34 42  1  0  0  0  0
 36 37  1  1  0  0  0
 36 39  1  0  0  0  0
 40 39  1  6  0  0  0
 40 41  1  0  0  0  0
 40 46  1  0  0  0  0
 41 42  1  6  0  0  0
 41 44  1  0  0  0  0
 42 43  2  0  0  0  0
 44 45  1  0  0  0  0
 46 45  1  1  0  0  0
M  CHG  2   3  -1  35  -1
M  END
>  <CHROM.1>
-115.24030607,69.10129778,-6.41176841,4.10063334,16.20685808,0.87960214,-1.21529971
0.44007554

>  <Name>
ligand

>  <RI>
-1

>  <Rbt.Current_Directory>
/home/itssahil/PROJECTS/Mol_Feturizer/Test_systems_manuscript/rnas/3mum

>  <Rbt.Executable>
rbdock ($Id: //depot/dev/client3/rdock/2013.1/src/exe/rbdock.cxx#4 $)

>  <Rbt.Library>
libRbt.so (2013.1, Build901 2013/11/27)

>  <Rbt.Parameter_File>
/export/apps/rDock/src/rDock_2013.1_src/data/scripts/dock_solv.prm

>  <Rbt.Receptor>
prm/pocket_docking_6.prm

>  <SCORE>
-25.0159

>  <SCORE.INTER>
-24.8423

>  <SCORE.INTER.CONST>
1

>  <SCORE.INTER.POLAR>
0

>  <SCORE.INTER.ROT>
2

>  <SCORE.INTER.SOLV>
15.7018

>  <SCORE.INTER.VDW>
-26.7288

>  <SCORE.INTER.norm>
-0.54005

>  <SCORE.INTRA>
-0.173608

>  <SCORE.INTRA.DIHEDRAL>
0.00695932

>  <SCORE.INTRA.DIHEDRAL.0>
2.40424

>  <SCORE.INTRA.POLAR>
0

>  <SCORE.INTRA.POLAR.0>
0

>  <SCORE.INTRA.REPUL>
0

>  <SCORE.INTRA.REPUL.0>
0

>  <SCORE.INTRA.SOLV>
-0.00751218

>  <SCORE.INTRA.SOLV.lig_0>
-134.169

>  <SCORE.INTRA.VDW>
-0.173332

>  <SCORE.INTRA.VDW.0>
-2.18386

>  <SCORE.INTRA.norm>
-0.0037741

>  <SCORE.RESTR>
0

>  <SCORE.RESTR.CAVITY>
0

>  <SCORE.RESTR.norm>
0

>  <SCORE.SYSTEM>
0

>  <SCORE.SYSTEM.CONST>
0

>  <SCORE.SYSTEM.DIHEDRAL>
0

>  <SCORE.SYSTEM.SOLV>
0

>  <SCORE.SYSTEM.norm>
0

>  <SCORE.heavy>
46

>  <SCORE.norm>
-0.543824

>  <RMSD>
4.742

$$$$
ligand
 OpenBabel02271912143D
libRbt.so/2013.1/901 2013/11/27
 46 52  0  0  0  0  0  0  0  0999 V2000
   -8.9454    6.6840   16.1271 P   0  0  1  0  0  0  0  0  0  0  0  0
   -3.3820    5.3785   14.7060 P   0  0  2  0  0  0  0  0  0  0  0  0
   -9.7789    5.2410   16.7311 O   0  5  0  0  0  0  0  0  0  0  0  0
   -9.9848    8.1299   16.2176 O   0  0  0  0  0  0  0  0  0  0  0  0
   -6.6728    7.9313   16.6774 C   0  0  0  0  0  0  0  0  0  0  0  0
   -7.6081    6.9022   17.0008 O   0  0  0  0  0  0  0  0  0  0  0  0
   -5.3422    7.5961   17.3239 C   0  0  1  0  0  0  0  0  0  0  0  0
   -5.5382    7.3593   18.7252 O   0  0  0  0  0  0  0  0  0  0  0  0
   -4.7141    6.3234   16.7796 C   0  0  1  0  0  0  0  0  0  0  0  0
   -3.8466    6.5812   15.6778 O   0  0  0  0  0  0  0  0  0  0  0  0
   -3.9625    5.7702   17.9776 C   0  0  1  0  0  0  0  0  0  0  0  0
   -2.6397    6.3114   18.0192 O   0  0  0  0  0  0  0  0  0  0  0  0
   -4.7281    6.2680   19.1894 C   0  0  2  0  0  0  0  0  0  0  0  0
   -7.7906    3.4112   12.8973 C   0  0  1  0  0  0  0  0  0  0  0  0
   -5.1121    1.6818   21.8373 N   0  0  0  0  0  0  0  0  0  0  0  0
   -3.9989    2.3964   21.5172 C   0  0  1  0  0  0  0  0  0  0  0  0
   -8.4644    4.1170   14.0397 C   0  0  2  0  0  0  0  0  0  0  0  0
   -2.7956    1.9132   21.9036 N   0  0  0  0  0  0  0  0  0  0  0  0
   -9.7755    4.4590   13.5868 O   0  0  0  0  0  0  0  0  0  0  0  0
   -7.6109    5.3440   14.2927 C   0  0  2  0  0  0  0  0  0  0  0  0
   -4.0491    3.5723   20.8234 N   0  0  0  0  0  0  0  0  0  0  0  0
   -8.4030    6.4756   14.6267 O   0  0  0  0  0  0  0  0  0  0  0  0
   -5.2309    4.0999   20.4153 C   0  0  2  0  0  0  0  0  0  0  0  0
   -6.8823    5.5872   12.9856 C   0  0  2  0  0  0  0  0  0  0  0  0
   -6.8887    4.3388   12.2953 O   0  0  0  0  0  0  0  0  0  0  0  0
   -6.4670    3.3641   20.7333 C   0  0  1  0  0  0  0  0  0  0  0  0
   -5.4435    6.0495   13.1871 C   0  0  0  0  0  0  0  0  0  0  0  0
   -4.7174    5.0300   13.8766 O   0  0  0  0  0  0  0  0  0  0  0  0
   -6.3486    2.1016   21.4845 C   0  0  0  0  0  0  0  0  0  0  0  0
   -7.4531    1.3808   21.8046 O   0  0  0  0  0  0  0  0  0  0  0  0
   -7.4823    4.0727   20.2273 N   0  0  0  0  0  0  0  0  0  0  0  0
   -6.9484    5.1772   19.6285 C   0  0  0  0  0  0  0  0  0  0  0  0
   -5.6033    5.1978   19.7370 N   0  0  1  0  0  0  0  0  0  0  0  0
   -7.1284   -1.7422   12.2873 N   0  0  0  0  0  0  0  0  0  0  0  0
   -2.8362    3.9597   15.6388 O   0  5  0  0  0  0  0  0  0  0  0  0
   -7.9406   -0.8825   11.6135 C   0  0  2  0  0  0  0  0  0  0  0  0
   -8.7254   -1.3586   10.6118 N   0  0  0  0  0  0  0  0  0  0  0  0
   -2.1169    5.8521   13.5557 O   0  0  0  0  0  0  0  0  0  0  0  0
   -7.9920    0.4445   11.9111 N   0  0  0  0  0  0  0  0  0  0  0  0
   -7.2294    0.9790   12.8934 C   0  0  2  0  0  0  0  0  0  0  0  0
   -6.3345    0.1005   13.6583 C   0  0  2  0  0  0  0  0  0  0  0  0
   -6.3266   -1.3322   13.2930 C   0  0  0  0  0  0  0  0  0  0  0  0
   -5.5352   -2.2196   13.9447 O   0  0  0  0  0  0  0  0  0  0  0  0
   -5.7126    0.8795   14.5654 N   0  0  0  0  0  0  0  0  0  0  0  0
   -6.1703    2.1552   14.3911 C   0  0  0  0  0  0  0  0  0  0  0  0
   -7.0793    2.2078   13.3912 N   0  0  1  0  0  0  0  0  0  0  0  0
  1  3  1  1  0  0  0
  1  4  2  0  0  0  0
  1  6  1  0  0  0  0
  1 22  1  0  0  0  0
  2 28  1  0  0  0  0
  2 35  1  1  0  0  0
  2 38  2  0  0  0  0
  2 10  1  0  0  0  0
  5  6  1  0  0  0  0
  7  5  1  6  0  0  0
  7  8  1  0  0  0  0
  7  9  1  0  0  0  0
  9 10  1  6  0  0  0
  9 11  1  0  0  0  0
 11 12  1  1  0  0  0
 11 13  1  0  0  0  0
 13  8  1  6  0  0  0
 13 33  1  0  0  0  0
 14 46  1  0  0  0  0
 14 17  1  0  0  0  0
 14 25  1  1  0  0  0
 15 16  1  0  0  0  0
 15 29  1  0  0  0  0
 16 18  1  6  0  0  0
 16 21  1  0  0  0  0
 17 19  1  6  0  0  0
 17 20  1  0  0  0  0
 20 22  1  6  0  0  0
 20 24  1  0  0  0  0
 23 21  1  6  0  0  0
 23 26  1  0  0  0  0
 23 33  1  0  0  0  0
 24 25  1  6  0  0  0
 24 27  1  0  0  0  0
 26 29  1  1  0  0  0
 26 31  1  0  0  0  0
 27 28  1  0  0  0  0
 29 30  2  0  0  0  0
 31 32  1  0  0  0  0
 33 32  1  1  0  0  0
 34 36  1  0  0  0  0
 34 42  1  0  0  0  0
 36 37  1  6  0  0  0
 36 39  1  0  0  0  0
 40 39  1  1  0  0  0
 40 41  1  0  0  0  0
 40 46  1  0  0  0  0
 41 42  1  1  0  0  0
 41 44  1  0  0  0  0
 42 43  2  0  0  0  0
 44 45  1  0  0  0  0
 46 45  1  6  0  0  0
M  CHG  2   3  -1  35  -1
M  END
>  <CHROM.1>
-170.85337406,127.54396562,-6.20742266,4.00866088,16.12119807,0.65392843
-1.26649238,0.18667295

>  <Name>
ligand

>  <RI>
-1

>  <Rbt.Current_Directory>
/home/itssahil/PROJECTS/Mol_Feturizer/Test_systems_manuscript/rnas/3mum

>  <Rbt.Executable>
rbdock ($Id: //depot/dev/client3/rdock/2013.1/src/exe/rbdock.cxx#4 $)

>  <Rbt.Library>
libRbt.so (2013.1, Build901 2013/11/27)

>  <Rbt.Parameter_File>
/export/apps/rDock/src/rDock_2013.1_src/data/scripts/dock_solv.prm

>  <Rbt.Receptor>
prm/pocket_docking_8.prm

>  <SCORE>
-25.9741

>  <SCORE.INTER>
-25.7851

>  <SCORE.INTER.CONST>
1

>  <SCORE.INTER.POLAR>
0

>  <SCORE.INTER.ROT>
2

>  <SCORE.INTER.SOLV>
18.3133

>  <SCORE.INTER.VDW>
-28.2278

>  <SCORE.INTER.norm>
-0.560545

>  <SCORE.INTRA>
-0.18906

>  <SCORE.INTRA.DIHEDRAL>
-0.0126066

>  <SCORE.INTRA.DIHEDRAL.0>
2.40424

>  <SCORE.INTRA.POLAR>
0

>  <SCORE.INTRA.POLAR.0>
0

>  <SCORE.INTRA.REPUL>
0

>  <SCORE.INTRA.REPUL.0>
0

>  <SCORE.INTRA.SOLV>
0.0248166

>  <SCORE.INTRA.SOLV.lig_0>
-134.169

>  <SCORE.INTRA.VDW>
-0.195166

>  <SCORE.INTRA.VDW.0>
-2.18386

>  <SCORE.INTRA.norm>
-0.00411001

>  <SCORE.RESTR>
0

>  <SCORE.RESTR.CAVITY>
0

>  <SCORE.RESTR.norm>
0

>  <SCORE.SYSTEM>
0

>  <SCORE.SYSTEM.CONST>
0

>  <SCORE.SYSTEM.DIHEDRAL>
0

>  <SCORE.SYSTEM.SOLV>
0

>  <SCORE.SYSTEM.norm>
0

>  <SCORE.heavy>
46

>  <SCORE.norm>
-0.564655

>  <RMSD>
4.745

$$$$
ligand
 OpenBabel02271912143D
libRbt.so/2013.1/901 2013/11/27
 46 52  0  0  0  0  0  0  0  0999 V2000
   -9.0138    6.6792   16.1822 P   0  0  1  0  0  0  0  0  0  0  0  0
   -3.4276    5.5009   14.7392 P   0  0  2  0  0  0  0  0  0  0  0  0
   -9.8134    5.2162   16.7837 O   0  5  0  0  0  0  0  0  0  0  0  0
  -10.0843    8.1017   16.2811 O   0  0  0  0  0  0  0  0  0  0  0  0
   -6.7673    7.9741   16.7299 C   0  0  0  0  0  0  0  0  0  0  0  0
   -7.6788    6.9237   17.0525 O   0  0  0  0  0  0  0  0  0  0  0  0
   -5.4276    7.6660   17.3710 C   0  0  1  0  0  0  0  0  0  0  0  0
   -5.6138    7.4201   18.7720 O   0  0  0  0  0  0  0  0  0  0  0  0
   -4.7734    6.4093   16.8203 C   0  0  1  0  0  0  0  0  0  0  0  0
   -3.9153    6.6899   15.7166 O   0  0  0  0  0  0  0  0  0  0  0  0
   -4.0061    5.8685   18.0139 C   0  0  1  0  0  0  0  0  0  0  0  0
   -2.6953    6.4384   18.0533 O   0  0  0  0  0  0  0  0  0  0  0  0
   -4.7785    6.3452   19.2298 C   0  0  2  0  0  0  0  0  0  0  0  0
   -7.7978    3.4438   12.9373 C   0  0  1  0  0  0  0  0  0  0  0  0
   -5.0414    1.6261   21.6491 N   0  0  0  0  0  0  0  0  0  0  0  0
   -3.9433    2.3479   21.2946 C   0  0  1  0  0  0  0  0  0  0  0  0
   -8.4832    4.1307   14.0842 C   0  0  2  0  0  0  0  0  0  0  0  0
   -2.7230    1.8347   21.5741 N   0  0  0  0  0  0  0  0  0  0  0  0
   -9.8030    4.4454   13.6367 O   0  0  0  0  0  0  0  0  0  0  0  0
   -7.6561    5.3752   14.3389 C   0  0  2  0  0  0  0  0  0  0  0  0
   -4.0252    3.5599   20.6693 N   0  0  0  0  0  0  0  0  0  0  0  0
   -8.4717    6.4880   14.6794 O   0  0  0  0  0  0  0  0  0  0  0  0
   -5.2251    4.1183   20.3690 C   0  0  2  0  0  0  0  0  0  0  0  0
   -6.9371    5.6389   13.0305 C   0  0  2  0  0  0  0  0  0  0  0  0
   -6.9184    4.3930   12.3357 O   0  0  0  0  0  0  0  0  0  0  0  0
   -6.4461    3.3765   20.7286 C   0  0  1  0  0  0  0  0  0  0  0  0
   -5.5082    6.1319   13.2291 C   0  0  0  0  0  0  0  0  0  0  0  0
   -4.7577    5.1261   13.9127 O   0  0  0  0  0  0  0  0  0  0  0  0
   -6.2933    2.0744   21.4019 C   0  0  0  0  0  0  0  0  0  0  0  0
   -7.3828    1.3463   21.7556 O   0  0  0  0  0  0  0  0  0  0  0  0
   -7.4841    4.1196   20.3294 N   0  0  0  0  0  0  0  0  0  0  0  0
   -6.9778    5.2504   19.7562 C   0  0  0  0  0  0  0  0  0  0  0  0
   -5.6283    5.2542   19.7764 N   0  0  1  0  0  0  0  0  0  0  0  0
   -7.0048   -1.6866   12.2896 N   0  0  0  0  0  0  0  0  0  0  0  0
   -2.8479    4.0913   15.6652 O   0  5  0  0  0  0  0  0  0  0  0  0
   -7.8355   -0.8420   11.6191 C   0  0  2  0  0  0  0  0  0  0  0  0
   -8.6042   -1.3295   10.6104 N   0  0  0  0  0  0  0  0  0  0  0  0
   -2.1769    6.0062   13.5866 O   0  0  0  0  0  0  0  0  0  0  0  0
   -7.9212    0.4810   11.9269 N   0  0  0  0  0  0  0  0  0  0  0  0
   -7.1761    1.0264   12.9166 C   0  0  2  0  0  0  0  0  0  0  0  0
   -6.2627    0.1644   13.6784 C   0  0  2  0  0  0  0  0  0  0  0  0
   -6.2176   -1.2647   13.3018 C   0  0  0  0  0  0  0  0  0  0  0  0
   -5.4070   -2.1373   13.9498 O   0  0  0  0  0  0  0  0  0  0  0  0
   -5.6641    0.9514   14.5942 N   0  0  0  0  0  0  0  0  0  0  0  0
   -6.1527    2.2166   14.4280 C   0  0  0  0  0  0  0  0  0  0  0  0
   -7.0587    2.2546   13.4247 N   0  0  1  0  0  0  0  0  0  0  0  0
  1  3  1  1  0  0  0
  1  4  2  0  0  0  0
  1  6  1  0  0  0  0
  1 22  1  0  0  0  0
  2 28  1  0  0  0  0
  2 35  1  1  0  0  0
  2 38  2  0  0  0  0
  2 10  1  0  0  0  0
  5  6  1  0  0  0  0
  7  5  1  6  0  0  0
  7  8  1  0  0  0  0
  7  9  1  0  0  0  0
  9 10  1  6  0  0  0
  9 11  1  0  0  0  0
 11 12  1  1  0  0  0
 11 13  1  0  0  0  0
 13  8  1  6  0  0  0
 13 33  1  0  0  0  0
 14 46  1  0  0  0  0
 14 17  1  0  0  0  0
 14 25  1  1  0  0  0
 15 16  1  0  0  0  0
 15 29  1  0  0  0  0
 16 18  1  6  0  0  0
 16 21  1  0  0  0  0
 17 19  1  6  0  0  0
 17 20  1  0  0  0  0
 20 22  1  6  0  0  0
 20 24  1  0  0  0  0
 23 21  1  6  0  0  0
 23 26  1  0  0  0  0
 23 33  1  0  0  0  0
 24 25  1  6  0  0  0
 24 27  1  0  0  0  0
 26 29  1  1  0  0  0
 26 31  1  0  0  0  0
 27 28  1  0  0  0  0
 29 30  2  0  0  0  0
 31 32  1  0  0  0  0
 33 32  1  1  0  0  0
 34 36  1  0  0  0  0
 34 42  1  0  0  0  0
 36 37  1  6  0  0  0
 36 39  1  0  0  0  0
 40 39  1  1  0  0  0
 40 41  1  0  0  0  0
 40 46  1  0  0  0  0
 41 42  1  1  0  0  0
 41 44  1  0  0  0  0
 42 43  2  0  0  0  0
 44 45  1  0  0  0  0
 46 45  1  6  0  0  0
M  CHG  2   3  -1  35  -1
M  END
>  <CHROM.1>
-175.81156517,128.06200116,-6.21431902,4.05262388,16.13334150,0.77424275
-1.24841797,0.28633476

>  <Name>
ligand

>  <RI>
-1

>  <Rbt.Current_Directory>
/home/itssahil/PROJECTS/Mol_Feturizer/Test_systems_manuscript/rnas/3mum

>  <Rbt.Executable>
rbdock ($Id: //depot/dev/client3/rdock/2013.1/src/exe/rbdock.cxx#4 $)

>  <Rbt.Library>
libRbt.so (2013.1, Build901 2013/11/27)

>  <Rbt.Parameter_File>
/export/apps/rDock/src/rDock_2013.1_src/data/scripts/dock_solv.prm

>  <Rbt.Receptor>
prm/pocket_docking_6.prm

>  <SCORE>
-26.0485

>  <SCORE.INTER>
-25.8892

>  <SCORE.INTER.CONST>
1

>  <SCORE.INTER.POLAR>
0

>  <SCORE.INTER.ROT>
2

>  <SCORE.INTER.SOLV>
17.0506

>  <SCORE.INTER.VDW>
-27.8763

>  <SCORE.INTER.norm>
-0.562808

>  <SCORE.INTRA>
-0.159377

>  <SCORE.INTRA.DIHEDRAL>
-0.0141798

>  <SCORE.INTRA.DIHEDRAL.0>
2.40424

>  <SCORE.INTRA.POLAR>
0

>  <SCORE.INTRA.POLAR.0>
0

>  <SCORE.INTRA.REPUL>
0

>  <SCORE.INTRA.REPUL.0>
0

>  <SCORE.INTRA.SOLV>
0.00795493

>  <SCORE.INTRA.SOLV.lig_0>
-134.169

>  <SCORE.INTRA.VDW>
-0.156265

>  <SCORE.INTRA.VDW.0>
-2.18386

>  <SCORE.INTRA.norm>
-0.00346472

>  <SCORE.RESTR>
0

>  <SCORE.RESTR.CAVITY>
0

>  <SCORE.RESTR.norm>
0

>  <SCORE.SYSTEM>
0

>  <SCORE.SYSTEM.CONST>
0

>  <SCORE.SYSTEM.DIHEDRAL>
0

>  <SCORE.SYSTEM.SOLV>
0

>  <SCORE.SYSTEM.norm>
0

>  <SCORE.heavy>
46

>  <SCORE.norm>
-0.566272

>  <RMSD>
4.746

$$$$
ligand
 OpenBabel02271912143D
libRbt.so/2013.1/901 2013/11/27
 46 52  0  0  0  0  0  0  0  0999 V2000
   -9.5183    6.4706   16.3661 P   0  0  1  0  0  0  0  0  0  0  0  0
   -3.8455    6.0119   14.8544 P   0  0  2  0  0  0  0  0  0  0  0  0
  -10.1342    4.9033   16.9194 O   0  5  0  0  0  0  0  0  0  0  0  0
  -10.7483    7.7522   16.5206 O   0  0  0  0  0  0  0  0  0  0  0  0
   -7.4354    8.0024   16.9481 C   0  0  0  0  0  0  0  0  0  0  0  0
   -8.2136    6.8410   17.2379 O   0  0  0  0  0  0  0  0  0  0  0  0
   -6.0630    7.8328   17.5712 C   0  0  1  0  0  0  0  0  0  0  0  0
   -6.2061    7.5184   18.9636 O   0  0  0  0  0  0  0  0  0  0  0  0
   -5.2701    6.6822   16.9731 C   0  0  1  0  0  0  0  0  0  0  0  0
   -4.4612    7.1002   15.8758 O   0  0  0  0  0  0  0  0  0  0  0  0
   -4.4334    6.1950   18.1430 C   0  0  1  0  0  0  0  0  0  0  0  0
   -3.1988    6.9142   18.1960 O   0  0  0  0  0  0  0  0  0  0  0  0
   -5.2456    6.5347   19.3789 C   0  0  2  0  0  0  0  0  0  0  0  0
   -7.9587    3.5158   13.0026 C   0  0  1  0  0  0  0  0  0  0  0  0
   -4.9369    1.7875   21.7372 N   0  0  0  0  0  0  0  0  0  0  0  0
   -3.9364    2.6539   21.4198 C   0  0  1  0  0  0  0  0  0  0  0  0
   -8.7099    4.0768   14.1766 C   0  0  2  0  0  0  0  0  0  0  0  0
   -2.6658    2.3034   21.7254 N   0  0  0  0  0  0  0  0  0  0  0  0
  -10.0616    4.2485   13.7470 O   0  0  0  0  0  0  0  0  0  0  0  0
   -8.0331    5.4008   14.4710 C   0  0  2  0  0  0  0  0  0  0  0  0
   -4.1636    3.8533   20.8062 N   0  0  0  0  0  0  0  0  0  0  0  0
   -8.9712    6.3969   14.8548 O   0  0  0  0  0  0  0  0  0  0  0  0
   -5.4194    4.2517   20.4809 C   0  0  2  0  0  0  0  0  0  0  0  0
   -7.3623    5.7928   13.1692 C   0  0  2  0  0  0  0  0  0  0  0  0
   -7.2030    4.5826   12.4307 O   0  0  0  0  0  0  0  0  0  0  0  0
   -6.5392    3.3491   20.7999 C   0  0  1  0  0  0  0  0  0  0  0  0
   -5.9997    6.4442   13.3780 C   0  0  0  0  0  0  0  0  0  0  0  0
   -5.1296    5.5112   14.0218 O   0  0  0  0  0  0  0  0  0  0  0  0
   -6.2310    2.0692   21.4623 C   0  0  0  0  0  0  0  0  0  0  0  0
   -7.2221    1.1977   21.7791 O   0  0  0  0  0  0  0  0  0  0  0  0
   -7.6569    3.9535   20.3820 N   0  0  0  0  0  0  0  0  0  0  0  0
   -7.2918    5.1498   19.8351 C   0  0  0  0  0  0  0  0  0  0  0  0
   -5.9557    5.3326   19.8907 N   0  0  1  0  0  0  0  0  0  0  0  0
   -6.6902   -1.5082   12.2824 N   0  0  0  0  0  0  0  0  0  0  0  0
   -3.0951    4.6495   15.7271 O   0  5  0  0  0  0  0  0  0  0  0  0
   -7.6348   -0.7505   11.6607 C   0  0  2  0  0  0  0  0  0  0  0  0
   -8.4017   -1.3115   10.6896 N   0  0  0  0  0  0  0  0  0  0  0  0
   -2.6738    6.7011   13.7143 O   0  0  0  0  0  0  0  0  0  0  0  0
   -7.8366    0.5568   11.9810 N   0  0  0  0  0  0  0  0  0  0  0  0
   -7.0998    1.1731   12.9347 C   0  0  2  0  0  0  0  0  0  0  0  0
   -6.0665    0.4062   13.6432 C   0  0  2  0  0  0  0  0  0  0  0  0
   -5.8980   -1.0107   13.2557 C   0  0  0  0  0  0  0  0  0  0  0  0
   -4.9716   -1.7983   13.8557 O   0  0  0  0  0  0  0  0  0  0  0  0
   -5.5034    1.2482   14.5321 N   0  0  0  0  0  0  0  0  0  0  0  0
   -6.1242    2.4582   14.3993 C   0  0  0  0  0  0  0  0  0  0  0  0
   -7.0800    2.4062   13.4440 N   0  0  1  0  0  0  0  0  0  0  0  0
  1  3  1  1  0  0  0
  1  4  2  0  0  0  0
  1  6  1  0  0  0  0
  1 22  1  0  0  0  0
  2 28  1  0  0  0  0
  2 35  1  1  0  0  0
  2 38  2  0  0  0  0
  2 10  1  0  0  0  0
  5  6  1  0  0  0  0
  7  5  1  6  0  0  0
  7  8  1  0  0  0  0
  7  9  1  0  0  0  0
  9 10  1  6  0  0  0
  9 11  1  0  0  0  0
 11 12  1  1  0  0  0
 11 13  1  0  0  0  0
 13  8  1  6  0  0  0
 13 33  1  0  0  0  0
 14 46  1  0  0  0  0
 14 17  1  0  0  0  0
 14 25  1  1  0  0  0
 15 16  1  0  0  0  0
 15 29  1  0  0  0  0
 16 18  1  6  0  0  0
 16 21  1  0  0  0  0
 17 19  1  6  0  0  0
 17 20  1  0  0  0  0
 20 22  1  6  0  0  0
 20 24  1  0  0  0  0
 23 21  1  6  0  0  0
 23 26  1  0  0  0  0
 23 33  1  0  0  0  0
 24 25  1  6  0  0  0
 24 27  1  0  0  0  0
 26 29  1  1  0  0  0
 26 31  1  0  0  0  0
 27 28  1  0  0  0  0
 29 30  2  0  0  0  0
 31 32  1  0  0  0  0
 33 32  1  1  0  0  0
 34 36  1  0  0  0  0
 34 42  1  0  0  0  0
 36 37  1  6  0  0  0
 36 39  1  0  0  0  0
 40 39  1  1  0  0  0
 40 41  1  0  0  0  0
 40 46  1  0  0  0  0
 41 42  1  1  0  0  0
 41 44  1  0  0  0  0
 42 43  2  0  0  0  0
 44 45  1  0  0  0  0
 46 45  1  6  0  0  0
M  CHG  2   3  -1  35  -1
M  END
>  <CHROM.1>
-173.40336407,124.78425355,-6.44299391,4.19690090,16.23412493,1.01389635
-1.20181837,0.54601207

>  <Name>
ligand

>  <RI>
-1

>  <Rbt.Current_Directory>
/home/itssahil/PROJECTS/Mol_Feturizer/Test_systems_manuscript/rnas/3mum

>  <Rbt.Executable>
rbdock ($Id: //depot/dev/client3/rdock/2013.1/src/exe/rbdock.cxx#4 $)

>  <Rbt.Library>
libRbt.so (2013.1, Build901 2013/11/27)

>  <Rbt.Parameter_File>
/export/apps/rDock/src/rDock_2013.1_src/data/scripts/dock_solv.prm

>  <Rbt.Receptor>
prm/pocket_docking_7.prm

>  <SCORE>
-26.4262

>  <SCORE.INTER>
-26.244

>  <SCORE.INTER.CONST>
1

>  <SCORE.INTER.POLAR>
0

>  <SCORE.INTER.ROT>
2

>  <SCORE.INTER.SOLV>
15.2884

>  <SCORE.INTER.VDW>
-27.5255

>  <SCORE.INTER.norm>
-0.570522

>  <SCORE.INTRA>
-0.18218

>  <SCORE.INTRA.DIHEDRAL>
-0.00924589

>  <SCORE.INTRA.DIHEDRAL.0>
2.40424

>  <SCORE.INTRA.POLAR>
0

>  <SCORE.INTRA.POLAR.0>
0

>  <SCORE.INTRA.REPUL>
0

>  <SCORE.INTRA.REPUL.0>
0

>  <SCORE.INTRA.SOLV>
0.0232215

>  <SCORE.INTRA.SOLV.lig_0>
-134.169

>  <SCORE.INTRA.VDW>
-0.189167

>  <SCORE.INTRA.VDW.0>
-2.18386

>  <SCORE.INTRA.norm>
-0.00396043

>  <SCORE.RESTR>
0

>  <SCORE.RESTR.CAVITY>
0

>  <SCORE.RESTR.norm>
0

>  <SCORE.SYSTEM>
0

>  <SCORE.SYSTEM.CONST>
0

>  <SCORE.SYSTEM.DIHEDRAL>
0

>  <SCORE.SYSTEM.SOLV>
0

>  <SCORE.SYSTEM.norm>
0

>  <SCORE.heavy>
46

>  <SCORE.norm>
-0.574482

>  <RMSD>
4.747

$$$$
ligand
 OpenBabel02271912143D
libRbt.so/2013.1/901 2013/11/27
 46 52  0  0  0  0  0  0  0  0999 V2000
   -3.7652    5.8647   14.6931 P   0  0  1  0  0  0  0  0  0  0  0  0
   -9.3505    6.4395   16.4681 P   0  0  2  0  0  0  0  0  0  0  0  0
   -3.0382    4.4182   15.4147 O   0  5  0  0  0  0  0  0  0  0  0  0
   -2.6447    6.6705   13.5641 O   0  0  0  0  0  0  0  0  0  0  0  0
   -5.9752    6.3985   13.3313 C   0  0  0  0  0  0  0  0  0  0  0  0
   -5.1132    5.4272   13.9245 O   0  0  0  0  0  0  0  0  0  0  0  0
   -7.3426    5.7734   13.1306 C   0  0  1  0  0  0  0  0  0  0  0  0
   -7.2041    4.5454   12.4021 O   0  0  0  0  0  0  0  0  0  0  0  0
   -8.0285    5.3986   14.4342 C   0  0  1  0  0  0  0  0  0  0  0  0
   -8.8450    6.4550   14.9347 O   0  0  0  0  0  0  0  0  0  0  0  0
   -8.8481    4.1780   14.0542 C   0  0  1  0  0  0  0  0  0  0  0  0
  -10.1370    4.5799   13.5832 O   0  0  0  0  0  0  0  0  0  0  0  0
   -8.0917    3.5352   12.9065 C   0  0  2  0  0  0  0  0  0  0  0  0
   -5.0136    6.2595   19.2496 C   0  0  1  0  0  0  0  0  0  0  0  0
   -6.9309   -1.6232   12.4206 N   0  0  0  0  0  0  0  0  0  0  0  0
   -7.8125   -0.8717   11.7062 C   0  0  1  0  0  0  0  0  0  0  0  0
   -4.3343    5.8101   17.9872 C   0  0  2  0  0  0  0  0  0  0  0  0
   -8.5189   -1.4765   10.7233 N   0  0  0  0  0  0  0  0  0  0  0  0
   -2.9919    6.2941   18.0561 O   0  0  0  0  0  0  0  0  0  0  0  0
   -5.1204    6.4680   16.8705 C   0  0  2  0  0  0  0  0  0  0  0  0
   -8.0125    0.4588   11.9435 N   0  0  0  0  0  0  0  0  0  0  0  0
   -4.2729    6.9004   15.8149 O   0  0  0  0  0  0  0  0  0  0  0  0
   -7.3276    1.1118   12.9162 C   0  0  2  0  0  0  0  0  0  0  0  0
   -5.7929    7.6619   17.5192 C   0  0  2  0  0  0  0  0  0  0  0  0
   -5.8398    7.3741   18.9158 O   0  0  0  0  0  0  0  0  0  0  0  0
   -6.3624    0.3437   13.7217 C   0  0  1  0  0  0  0  0  0  0  0  0
   -7.2071    7.8986   17.0010 C   0  0  0  0  0  0  0  0  0  0  0  0
   -8.0134    6.7590   17.3065 O   0  0  0  0  0  0  0  0  0  0  0  0
   -6.1903   -1.0882   13.4180 C   0  0  0  0  0  0  0  0  0  0  0  0
   -5.3161   -1.8458   14.1279 O   0  0  0  0  0  0  0  0  0  0  0  0
   -5.8285    1.1948   14.6046 N   0  0  0  0  0  0  0  0  0  0  0  0
   -6.4016    2.4151   14.3905 C   0  0  0  0  0  0  0  0  0  0  0  0
   -7.2990    2.3709   13.3833 N   0  0  1  0  0  0  0  0  0  0  0  0
   -4.8065    1.6013   21.6216 N   0  0  0  0  0  0  0  0  0  0  0  0
  -10.0081    4.8451   16.9222 O   0  5  0  0  0  0  0  0  0  0  0  0
   -3.7961    2.4028   21.1861 C   0  0  2  0  0  0  0  0  0  0  0  0
   -2.5095    2.0040   21.3635 N   0  0  0  0  0  0  0  0  0  0  0  0
  -10.5492    7.6975   16.8264 O   0  0  0  0  0  0  0  0  0  0  0  0
   -4.0336    3.5963   20.5766 N   0  0  0  0  0  0  0  0  0  0  0  0
   -5.2931    4.0504   20.3776 C   0  0  2  0  0  0  0  0  0  0  0  0
   -6.4257    3.2282   20.8236 C   0  0  2  0  0  0  0  0  0  0  0  0
   -6.1049    1.9395   21.4736 C   0  0  0  0  0  0  0  0  0  0  0  0
   -7.0840    1.1120   21.9156 O   0  0  0  0  0  0  0  0  0  0  0  0
   -7.5449    3.9037   20.4956 N   0  0  0  0  0  0  0  0  0  0  0  0
   -7.1583    5.0670   19.8922 C   0  0  0  0  0  0  0  0  0  0  0  0
   -5.8102    5.1479   19.8222 N   0  0  1  0  0  0  0  0  0  0  0  0
  1  3  1  1  0  0  0
  1  4  2  0  0  0  0
  1  6  1  0  0  0  0
  1 22  1  0  0  0  0
  2 28  1  0  0  0  0
  2 35  1  1  0  0  0
  2 38  2  0  0  0  0
  2 10  1  0  0  0  0
  5  6  1  0  0  0  0
  7  5  1  1  0  0  0
  7  8  1  0  0  0  0
  7  9  1  0  0  0  0
  9 10  1  6  0  0  0
  9 11  1  0  0  0  0
 11 12  1  6  0  0  0
 11 13  1  0  0  0  0
 13  8  1  1  0  0  0
 13 33  1  0  0  0  0
 14 46  1  0  0  0  0
 14 17  1  0  0  0  0
 14 25  1  6  0  0  0
 15 16  1  0  0  0  0
 15 29  1  0  0  0  0
 16 18  1  1  0  0  0
 16 21  1  0  0  0  0
 17 19  1  1  0  0  0
 17 20  1  0  0  0  0
 20 22  1  6  0  0  0
 20 24  1  0  0  0  0
 23 21  1  1  0  0  0
 23 26  1  0  0  0  0
 23 33  1  0  0  0  0
 24 25  1  1  0  0  0
 24 27  1  0  0  0  0
 26 29  1  6  0  0  0
 26 31  1  0  0  0  0
 27 28  1  0  0  0  0
 29 30  2  0  0  0  0
 31 32  1  0  0  0  0
 33 32  1  6  0  0  0
 34 36  1  0  0  0  0
 34 42  1  0  0  0  0
 36 37  1  1  0  0  0
 36 39  1  0  0  0  0
 40 39  1  6  0  0  0
 40 41  1  0  0  0  0
 40 46  1  0  0  0  0
 41 42  1  6  0  0  0
 41 44  1  0  0  0  0
 42 43  2  0  0  0  0
 44 45  1  0  0  0  0
 46 45  1  1  0  0  0
M  CHG  2   3  -1  35  -1
M  END
>  <CHROM.1>
-117.65453336,69.78615804,-6.40719970,4.08697711,16.20388065,0.82206734,-1.21358366
0.38664016

>  <Name>
ligand

>  <RI>
-1

>  <Rbt.Current_Directory>
/home/itssahil/PROJECTS/Mol_Feturizer/Test_systems_manuscript/rnas/3mum

>  <Rbt.Executable>
rbdock ($Id: //depot/dev/client3/rdock/2013.1/src/exe/rbdock.cxx#4 $)

>  <Rbt.Library>
libRbt.so (2013.1, Build901 2013/11/27)

>  <Rbt.Parameter_File>
/export/apps/rDock/src/rDock_2013.1_src/data/scripts/dock_solv.prm

>  <Rbt.Receptor>
prm/pocket_docking_8.prm

>  <SCORE>
-24.9062

>  <SCORE.INTER>
-24.7856

>  <SCORE.INTER.CONST>
1

>  <SCORE.INTER.POLAR>
0

>  <SCORE.INTER.ROT>
2

>  <SCORE.INTER.SOLV>
16.1292

>  <SCORE.INTER.VDW>
-26.8334

>  <SCORE.INTER.norm>
-0.538817

>  <SCORE.INTRA>
-0.203731

>  <SCORE.INTRA.DIHEDRAL>
0.00828912

>  <SCORE.INTRA.DIHEDRAL.0>
2.40424

>  <SCORE.INTRA.POLAR>
0

>  <SCORE.INTRA.POLAR.0>
0

>  <SCORE.INTRA.REPUL>
0

>  <SCORE.INTRA.REPUL.0>
0

>  <SCORE.INTRA.SOLV>
1.01335e-05

>  <SCORE.INTRA.SOLV.lig_0>
-134.169

>  <SCORE.INTRA.VDW>
-0.20788

>  <SCORE.INTRA.VDW.0>
-2.18386

>  <SCORE.INTRA.norm>
-0.00442893

>  <SCORE.RESTR>
0.0830937

>  <SCORE.RESTR.CAVITY>
0.0830937

>  <SCORE.RESTR.norm>
0.00180638

>  <SCORE.SYSTEM>
0

>  <SCORE.SYSTEM.CONST>
0

>  <SCORE.SYSTEM.DIHEDRAL>
0

>  <SCORE.SYSTEM.SOLV>
0

>  <SCORE.SYSTEM.norm>
0

>  <SCORE.heavy>
46

>  <SCORE.norm>
-0.54144

>  <RMSD>
4.748

$$$$
ligand
 OpenBabel02271912143D
libRbt.so/2013.1/901 2013/11/27
 46 52  0  0  0  0  0  0  0  0999 V2000
   -8.9094    6.7221   16.0923 P   0  0  1  0  0  0  0  0  0  0  0  0
   -3.3934    5.4071   14.5048 P   0  0  2  0  0  0  0  0  0  0  0  0
   -9.7070    5.2953   16.7776 O   0  5  0  0  0  0  0  0  0  0  0  0
   -9.9568    8.1629   16.1722 O   0  0  0  0  0  0  0  0  0  0  0  0
   -6.6281    8.0041   16.5112 C   0  0  0  0  0  0  0  0  0  0  0  0
   -7.5417    6.9804   16.9058 O   0  0  0  0  0  0  0  0  0  0  0  0
   -5.2710    7.7013   17.1173 C   0  0  1  0  0  0  0  0  0  0  0  0
   -5.4114    7.5124   18.5324 O   0  0  0  0  0  0  0  0  0  0  0  0
   -4.6533    6.4148   16.5939 C   0  0  1  0  0  0  0  0  0  0  0  0
   -3.8307    6.6399   15.4512 O   0  0  0  0  0  0  0  0  0  0  0  0
   -3.8520    5.9093   17.7806 C   0  0  1  0  0  0  0  0  0  0  0  0
   -2.5331    6.4610   17.7526 O   0  0  0  0  0  0  0  0  0  0  0  0
   -4.5750    6.4439   19.0029 C   0  0  2  0  0  0  0  0  0  0  0  0
   -7.8510    3.3463   12.9363 C   0  0  1  0  0  0  0  0  0  0  0  0
   -5.1194    1.3422   20.3699 N   0  0  0  0  0  0  0  0  0  0  0  0
   -4.0731    1.9581   19.7549 C   0  0  1  0  0  0  0  0  0  0  0  0
   -8.4866    4.0870   14.0785 C   0  0  2  0  0  0  0  0  0  0  0  0
   -2.9959    1.2098   19.4226 N   0  0  0  0  0  0  0  0  0  0  0  0
   -9.8169    4.4035   13.6647 O   0  0  0  0  0  0  0  0  0  0  0  0
   -7.6346    5.3281   14.2556 C   0  0  2  0  0  0  0  0  0  0  0  0
   -4.0699    3.2921   19.4595 N   0  0  0  0  0  0  0  0  0  0  0  0
   -8.4229    6.4650   14.5803 O   0  0  0  0  0  0  0  0  0  0  0  0
   -5.1247    4.0859   19.7738 C   0  0  2  0  0  0  0  0  0  0  0  0
   -6.9584    5.5305   12.9139 C   0  0  2  0  0  0  0  0  0  0  0  0
   -6.9806    4.2585   12.2682 O   0  0  0  0  0  0  0  0  0  0  0  0
   -6.2855    3.4683   20.4382 C   0  0  1  0  0  0  0  0  0  0  0  0
   -5.5169    6.0098   13.0438 C   0  0  0  0  0  0  0  0  0  0  0  0
   -4.7564    5.0203   13.7399 O   0  0  0  0  0  0  0  0  0  0  0  0
   -6.2298    2.0250   20.7312 C   0  0  0  0  0  0  0  0  0  0  0  0
   -7.2701    1.4020   21.3408 O   0  0  0  0  0  0  0  0  0  0  0  0
   -7.1833    4.4400   20.6350 N   0  0  0  0  0  0  0  0  0  0  0  0
   -6.6492    5.5936   20.1374 C   0  0  0  0  0  0  0  0  0  0  0  0
   -5.4196    5.3874   19.6206 N   0  0  1  0  0  0  0  0  0  0  0  0
   -6.9872   -1.7764   12.3190 N   0  0  0  0  0  0  0  0  0  0  0  0
   -2.8004    4.0259   15.4647 O   0  5  0  0  0  0  0  0  0  0  0  0
   -7.8104   -0.9421   11.6267 C   0  0  2  0  0  0  0  0  0  0  0  0
   -8.5489   -1.4398   10.6007 N   0  0  0  0  0  0  0  0  0  0  0  0
   -2.1771    5.8491   13.2909 O   0  0  0  0  0  0  0  0  0  0  0  0
   -7.9178    0.3804   11.9296 N   0  0  0  0  0  0  0  0  0  0  0  0
   -7.2029    0.9357   12.9360 C   0  0  2  0  0  0  0  0  0  0  0  0
   -6.2991    0.0851   13.7215 C   0  0  2  0  0  0  0  0  0  0  0  0
   -6.2295   -1.3441   13.3492 C   0  0  0  0  0  0  0  0  0  0  0  0
   -5.4255   -2.2067   14.0186 O   0  0  0  0  0  0  0  0  0  0  0  0
   -5.7315    0.8803   14.6499 N   0  0  0  0  0  0  0  0  0  0  0  0
   -6.2296    2.1398   14.4692 C   0  0  0  0  0  0  0  0  0  0  0  0
   -7.1112    2.1661   13.4441 N   0  0  1  0  0  0  0  0  0  0  0  0
  1  3  1  1  0  0  0
  1  4  2  0  0  0  0
  1  6  1  0  0  0  0
  1 22  1  0  0  0  0
  2 28  1  0  0  0  0
  2 35  1  1  0  0  0
  2 38  2  0  0  0  0
  2 10  1  0  0  0  0
  5  6  1  0  0  0  0
  7  5  1  6  0  0  0
  7  8  1  0  0  0  0
  7  9  1  0  0  0  0
  9 10  1  6  0  0  0
  9 11  1  0  0  0  0
 11 12  1  6  0  0  0
 11 13  1  0  0  0  0
 13  8  1  6  0  0  0
 13 33  1  0  0  0  0
 14 46  1  0  0  0  0
 14 17  1  0  0  0  0
 14 25  1  1  0  0  0
 15 16  1  0  0  0  0
 15 29  1  0  0  0  0
 16 18  1  6  0  0  0
 16 21  1  0  0  0  0
 17 19  1  6  0  0  0
 17 20  1  0  0  0  0
 20 22  1  6  0  0  0
 20 24  1  0  0  0  0
 23 21  1  6  0  0  0
 23 26  1  0  0  0  0
 23 33  1  0  0  0  0
 24 25  1  1  0  0  0
 24 27  1  0  0  0  0
 26 29  1  1  0  0  0
 26 31  1  0  0  0  0
 27 28  1  0  0  0  0
 29 30  2  0  0  0  0
 31 32  1  0  0  0  0
 33 32  1  1  0  0  0
 34 36  1  0  0  0  0
 34 42  1  0  0  0  0
 36 37  1  6  0  0  0
 36 39  1  0  0  0  0
 40 39  1  1  0  0  0
 40 41  1  0  0  0  0
 40 46  1  0  0  0  0
 41 42  1  1  0  0  0
 41 44  1  0  0  0  0
 42 43  2  0  0  0  0
 44 45  1  0  0  0  0
 46 45  1  6  0  0  0
M  CHG  2   3  -1  35  -1
M  END
>  <CHROM.1>
156.07563324,132.29726384,-6.16365536,4.00693695,15.89980959,0.97979188,-1.20923851
0.29201819

>  <Name>
ligand

>  <RI>
-1

>  <Rbt.Current_Directory>
/home/itssahil/PROJECTS/Mol_Feturizer/Test_systems_manuscript/rnas/3mum

>  <Rbt.Executable>
rbdock ($Id: //depot/dev/client3/rdock/2013.1/src/exe/rbdock.cxx#4 $)

>  <Rbt.Library>
libRbt.so (2013.1, Build901 2013/11/27)

>  <Rbt.Parameter_File>
/export/apps/rDock/src/rDock_2013.1_src/data/scripts/dock_solv.prm

>  <Rbt.Receptor>
prm/pocket_docking_8.prm

>  <SCORE>
-24.4558

>  <SCORE.INTER>
-24.5319

>  <SCORE.INTER.CONST>
1

>  <SCORE.INTER.POLAR>
0

>  <SCORE.INTER.ROT>
2

>  <SCORE.INTER.SOLV>
18.1824

>  <SCORE.INTER.VDW>
-27.3487

>  <SCORE.INTER.norm>
-0.533301

>  <SCORE.INTRA>
0.0760837

>  <SCORE.INTRA.DIHEDRAL>
-0.0237176

>  <SCORE.INTRA.DIHEDRAL.0>
2.40424

>  <SCORE.INTRA.POLAR>
0

>  <SCORE.INTRA.POLAR.0>
0

>  <SCORE.INTRA.REPUL>
0

>  <SCORE.INTRA.REPUL.0>
0

>  <SCORE.INTRA.SOLV>
0.00790562

>  <SCORE.INTRA.SOLV.lig_0>
-134.169

>  <SCORE.INTRA.VDW>
0.0839897

>  <SCORE.INTRA.VDW.0>
-2.18386

>  <SCORE.INTRA.norm>
0.00165399

>  <SCORE.RESTR>
0

>  <SCORE.RESTR.CAVITY>
0

>  <SCORE.RESTR.norm>
0

>  <SCORE.SYSTEM>
0

>  <SCORE.SYSTEM.CONST>
0

>  <SCORE.SYSTEM.DIHEDRAL>
0

>  <SCORE.SYSTEM.SOLV>
0

>  <SCORE.SYSTEM.norm>
0

>  <SCORE.heavy>
46

>  <SCORE.norm>
-0.531647

>  <RMSD>
4.750

$$$$
ligand
 OpenBabel02271912143D
libRbt.so/2013.1/901 2013/11/27
 46 52  0  0  0  0  0  0  0  0999 V2000
   -9.1375    6.6883   16.1766 P   0  0  1  0  0  0  0  0  0  0  0  0
   -3.5346    5.6172   14.7149 P   0  0  2  0  0  0  0  0  0  0  0  0
   -9.9035    5.2131   16.7920 O   0  5  0  0  0  0  0  0  0  0  0  0
  -10.2372    8.0887   16.2707 O   0  0  0  0  0  0  0  0  0  0  0  0
   -6.9161    8.0338   16.7045 C   0  0  0  0  0  0  0  0  0  0  0  0
   -7.8039    6.9668   17.0387 O   0  0  0  0  0  0  0  0  0  0  0  0
   -5.5673    7.7583   17.3413 C   0  0  1  0  0  0  0  0  0  0  0  0
   -5.7419    7.5184   18.7448 O   0  0  0  0  0  0  0  0  0  0  0  0
   -4.8895    6.5118   16.7961 C   0  0  1  0  0  0  0  0  0  0  0  0
   -4.0426    6.8025   15.6864 O   0  0  0  0  0  0  0  0  0  0  0  0
   -4.1054    5.9955   17.9897 C   0  0  1  0  0  0  0  0  0  0  0  0
   -2.8068    6.5930   18.0190 O   0  0  0  0  0  0  0  0  0  0  0  0
   -4.8821    6.4645   19.2061 C   0  0  2  0  0  0  0  0  0  0  0  0
   -7.8691    3.4564   12.9482 C   0  0  1  0  0  0  0  0  0  0  0  0
   -5.0374    1.6598   21.4607 N   0  0  0  0  0  0  0  0  0  0  0  0
   -3.9570    2.3866   21.0648 C   0  0  1  0  0  0  0  0  0  0  0  0
   -8.5634    4.1369   14.0937 C   0  0  2  0  0  0  0  0  0  0  0  0
   -2.7264    1.8547   21.2479 N   0  0  0  0  0  0  0  0  0  0  0  0
   -9.8915    4.4207   13.6503 O   0  0  0  0  0  0  0  0  0  0  0  0
   -7.7614    5.4001   14.3358 C   0  0  2  0  0  0  0  0  0  0  0  0
   -4.0664    3.6218   20.4912 N   0  0  0  0  0  0  0  0  0  0  0  0
   -8.5985    6.4980   14.6725 O   0  0  0  0  0  0  0  0  0  0  0  0
   -5.2774    4.1995   20.2879 C   0  0  2  0  0  0  0  0  0  0  0  0
   -7.0542    5.6697   13.0221 C   0  0  2  0  0  0  0  0  0  0  0  0
   -7.0125    4.4196   12.3360 O   0  0  0  0  0  0  0  0  0  0  0  0
   -6.4804    3.4534   20.6958 C   0  0  1  0  0  0  0  0  0  0  0  0
   -5.6350    6.1939   13.2105 C   0  0  0  0  0  0  0  0  0  0  0  0
   -4.8604    5.2089   13.8974 O   0  0  0  0  0  0  0  0  0  0  0  0
   -6.2981    2.1259   21.3095 C   0  0  0  0  0  0  0  0  0  0  0  0
   -7.3701    1.3928   21.7038 O   0  0  0  0  0  0  0  0  0  0  0  0
   -7.5344    4.2183   20.3904 N   0  0  0  0  0  0  0  0  0  0  0  0
   -7.0543    5.3662   19.8288 C   0  0  0  0  0  0  0  0  0  0  0  0
   -5.7062    5.3597   19.7642 N   0  0  1  0  0  0  0  0  0  0  0  0
   -6.9467   -1.6534   12.3102 N   0  0  0  0  0  0  0  0  0  0  0  0
   -2.9211    4.2265   15.6478 O   0  5  0  0  0  0  0  0  0  0  0  0
   -7.7950   -0.8304   11.6351 C   0  0  2  0  0  0  0  0  0  0  0  0
   -8.5470   -1.3379   10.6237 N   0  0  0  0  0  0  0  0  0  0  0  0
   -2.3002    6.1405   13.5528 O   0  0  0  0  0  0  0  0  0  0  0  0
   -7.9148    0.4904   11.9410 N   0  0  0  0  0  0  0  0  0  0  0  0
   -7.1877    1.0551   12.9332 C   0  0  2  0  0  0  0  0  0  0  0  0
   -6.2565    0.2168   13.7000 C   0  0  2  0  0  0  0  0  0  0  0  0
   -6.1746   -1.2111   13.3254 C   0  0  0  0  0  0  0  0  0  0  0  0
   -5.3454   -2.0627   13.9779 O   0  0  0  0  0  0  0  0  0  0  0  0
   -5.6816    1.0194   14.6174 N   0  0  0  0  0  0  0  0  0  0  0  0
   -6.2006    2.2719   14.4476 C   0  0  0  0  0  0  0  0  0  0  0  0
   -7.1029    2.2864   13.4403 N   0  0  1  0  0  0  0  0  0  0  0  0
  1  3  1  1  0  0  0
  1  4  2  0  0  0  0
  1  6  1  0  0  0  0
  1 22  1  0  0  0  0
  2 28  1  0  0  0  0
  2 35  1  1  0  0  0
  2 38  2  0  0  0  0
  2 10  1  0  0  0  0
  5  6  1  0  0  0  0
  7  5  1  6  0  0  0
  7  8  1  0  0  0  0
  7  9  1  0  0  0  0
  9 10  1  6  0  0  0
  9 11  1  0  0  0  0
 11 12  1  1  0  0  0
 11 13  1  0  0  0  0
 13  8  1  6  0  0  0
 13 33  1  0  0  0  0
 14 46  1  0  0  0  0
 14 17  1  0  0  0  0
 14 25  1  1  0  0  0
 15 16  1  0  0  0  0
 15 29  1  0  0  0  0
 16 18  1  6  0  0  0
 16 21  1  0  0  0  0
 17 19  1  6  0  0  0
 17 20  1  0  0  0  0
 20 22  1  6  0  0  0
 20 24  1  0  0  0  0
 23 21  1  6  0  0  0
 23 26  1  0  0  0  0
 23 33  1  0  0  0  0
 24 25  1  6  0  0  0
 24 27  1  0  0  0  0
 26 29  1  1  0  0  0
 26 31  1  0  0  0  0
 27 28  1  0  0  0  0
 29 30  2  0  0  0  0
 31 32  1  0  0  0  0
 33 32  1  1  0  0  0
 34 36  1  0  0  0  0
 34 42  1  0  0  0  0
 36 37  1  6  0  0  0
 36 39  1  0  0  0  0
 40 39  1  1  0  0  0
 40 41  1  0  0  0  0
 40 46  1  0  0  0  0
 41 42  1  1  0  0  0
 41 44  1  0  0  0  0
 42 43  2  0  0  0  0
 44 45  1  0  0  0  0
 46 45  1  6  0  0  0
M  CHG  2   3  -1  35  -1
M  END
>  <CHROM.1>
179.68380234,128.71433224,-6.28139392,4.11085764,16.10857406,0.87903433,-1.22962478
0.35893409

>  <Name>
ligand

>  <RI>
-1

>  <Rbt.Current_Directory>
/home/itssahil/PROJECTS/Mol_Feturizer/Test_systems_manuscript/rnas/3mum

>  <Rbt.Executable>
rbdock ($Id: //depot/dev/client3/rdock/2013.1/src/exe/rbdock.cxx#4 $)

>  <Rbt.Library>
libRbt.so (2013.1, Build901 2013/11/27)

>  <Rbt.Parameter_File>
/export/apps/rDock/src/rDock_2013.1_src/data/scripts/dock_solv.prm

>  <Rbt.Receptor>
prm/pocket_docking_6.prm

>  <SCORE>
-25.9323

>  <SCORE.INTER>
-25.8101

>  <SCORE.INTER.CONST>
1

>  <SCORE.INTER.POLAR>
0

>  <SCORE.INTER.ROT>
2

>  <SCORE.INTER.SOLV>
16.5068

>  <SCORE.INTER.VDW>
-27.6423

>  <SCORE.INTER.norm>
-0.56109

>  <SCORE.INTRA>
-0.122201

>  <SCORE.INTRA.DIHEDRAL>
-0.0158876

>  <SCORE.INTRA.DIHEDRAL.0>
2.40424

>  <SCORE.INTRA.POLAR>
0

>  <SCORE.INTRA.POLAR.0>
0

>  <SCORE.INTRA.REPUL>
0

>  <SCORE.INTRA.REPUL.0>
0

>  <SCORE.INTRA.SOLV>
0.00750734

>  <SCORE.INTRA.SOLV.lig_0>
-134.169

>  <SCORE.INTRA.VDW>
-0.118011

>  <SCORE.INTRA.VDW.0>
-2.18386

>  <SCORE.INTRA.norm>
-0.00265654

>  <SCORE.RESTR>
0

>  <SCORE.RESTR.CAVITY>
0

>  <SCORE.RESTR.norm>
0

>  <SCORE.SYSTEM>
0

>  <SCORE.SYSTEM.CONST>
0

>  <SCORE.SYSTEM.DIHEDRAL>
0

>  <SCORE.SYSTEM.SOLV>
0

>  <SCORE.SYSTEM.norm>
0

>  <SCORE.heavy>
46

>  <SCORE.norm>
-0.563746

>  <RMSD>
4.754

$$$$
ligand
 OpenBabel02271912143D
libRbt.so/2013.1/901 2013/11/27
 46 52  0  0  0  0  0  0  0  0999 V2000
   -8.9307    6.6958   16.1653 P   0  0  1  0  0  0  0  0  0  0  0  0
   -3.3750    5.4044   14.7017 P   0  0  2  0  0  0  0  0  0  0  0  0
   -9.7541    5.2519   16.7811 O   0  5  0  0  0  0  0  0  0  0  0  0
   -9.9743    8.1384   16.2598 O   0  0  0  0  0  0  0  0  0  0  0  0
   -6.6579    7.9526   16.6924 C   0  0  0  0  0  0  0  0  0  0  0  0
   -7.5869    6.9214   17.0270 O   0  0  0  0  0  0  0  0  0  0  0  0
   -5.3208    7.6241   17.3287 C   0  0  1  0  0  0  0  0  0  0  0  0
   -5.5041    7.3914   18.7323 O   0  0  0  0  0  0  0  0  0  0  0  0
   -4.6928    6.3518   16.7834 C   0  0  1  0  0  0  0  0  0  0  0  0
   -3.8355    6.6089   15.6734 O   0  0  0  0  0  0  0  0  0  0  0  0
   -3.9293    5.8051   17.9768 C   0  0  1  0  0  0  0  0  0  0  0  0
   -2.6080    6.3509   18.0055 O   0  0  0  0  0  0  0  0  0  0  0  0
   -4.6864    6.3044   19.1933 C   0  0  2  0  0  0  0  0  0  0  0  0
   -7.7919    3.4161   12.9367 C   0  0  1  0  0  0  0  0  0  0  0  0
   -5.0237    1.5901   21.6129 N   0  0  0  0  0  0  0  0  0  0  0  0
   -3.9144    2.2863   21.2424 C   0  0  1  0  0  0  0  0  0  0  0  0
   -8.4584    4.1235   14.0824 C   0  0  2  0  0  0  0  0  0  0  0  0
   -2.7024    1.7443   21.5031 N   0  0  0  0  0  0  0  0  0  0  0  0
   -9.7745    4.4595   13.6395 O   0  0  0  0  0  0  0  0  0  0  0  0
   -7.6071    5.3542   14.3241 C   0  0  2  0  0  0  0  0  0  0  0  0
   -3.9772    3.5005   20.6193 N   0  0  0  0  0  0  0  0  0  0  0  0
   -8.4002    6.4842   14.6611 O   0  0  0  0  0  0  0  0  0  0  0  0
   -5.1680    4.0873   20.3375 C   0  0  2  0  0  0  0  0  0  0  0  0
   -6.8903    5.5956   13.0102 C   0  0  2  0  0  0  0  0  0  0  0  0
   -6.8983    4.3448   12.3241 O   0  0  0  0  0  0  0  0  0  0  0  0
   -6.4006    3.3740   20.7149 C   0  0  1  0  0  0  0  0  0  0  0  0
   -5.4515    6.0634   13.1981 C   0  0  0  0  0  0  0  0  0  0  0  0
   -4.7161    5.0486   13.8847 O   0  0  0  0  0  0  0  0  0  0  0  0
   -6.2684    2.0680   21.3849 C   0  0  0  0  0  0  0  0  0  0  0  0
   -7.3692    1.3654   21.7544 O   0  0  0  0  0  0  0  0  0  0  0  0
   -7.4267    4.1417   20.3319 N   0  0  0  0  0  0  0  0  0  0  0  0
   -6.9027    5.2609   19.7520 C   0  0  0  0  0  0  0  0  0  0  0  0
   -5.5533    5.2330   19.7518 N   0  0  1  0  0  0  0  0  0  0  0  0
   -7.0616   -1.7236   12.2898 N   0  0  0  0  0  0  0  0  0  0  0  0
   -2.8165    3.9907   15.6346 O   0  5  0  0  0  0  0  0  0  0  0  0
   -7.8759   -0.8675   11.6138 C   0  0  2  0  0  0  0  0  0  0  0  0
   -8.6430   -1.3439   10.5987 N   0  0  0  0  0  0  0  0  0  0  0  0
   -2.1213    5.8786   13.5392 O   0  0  0  0  0  0  0  0  0  0  0  0
   -7.9465    0.4562   11.9224 N   0  0  0  0  0  0  0  0  0  0  0  0
   -7.2019    0.9908   12.9184 C   0  0  2  0  0  0  0  0  0  0  0  0
   -6.3059    0.1161   13.6863 C   0  0  2  0  0  0  0  0  0  0  0  0
   -6.2768   -1.3131   13.3086 C   0  0  0  0  0  0  0  0  0  0  0  0
   -5.4827   -2.1969   13.9619 O   0  0  0  0  0  0  0  0  0  0  0  0
   -5.7041    0.8943   14.6075 N   0  0  0  0  0  0  0  0  0  0  0  0
   -6.1747    2.1660   14.4389 C   0  0  0  0  0  0  0  0  0  0  0  0
   -7.0723    2.2169   13.4286 N   0  0  1  0  0  0  0  0  0  0  0  0
  1  3  1  1  0  0  0
  1  4  2  0  0  0  0
  1  6  1  0  0  0  0
  1 22  1  0  0  0  0
  2 28  1  0  0  0  0
  2 35  1  1  0  0  0
  2 38  2  0  0  0  0
  2 10  1  0  0  0  0
  5  6  1  0  0  0  0
  7  5  1  6  0  0  0
  7  8  1  0  0  0  0
  7  9  1  0  0  0  0
  9 10  1  6  0  0  0
  9 11  1  0  0  0  0
 11 12  1  1  0  0  0
 11 13  1  0  0  0  0
 13  8  1  6  0  0  0
 13 33  1  0  0  0  0
 14 46  1  0  0  0  0
 14 17  1  0  0  0  0
 14 25  1  1  0  0  0
 15 16  1  0  0  0  0
 15 29  1  0  0  0  0
 16 18  1  6  0  0  0
 16 21  1  0  0  0  0
 17 19  1  6  0  0  0
 17 20  1  0  0  0  0
 20 22  1  6  0  0  0
 20 24  1  0  0  0  0
 23 21  1  6  0  0  0
 23 26  1  0  0  0  0
 23 33  1  0  0  0  0
 24 25  1  6  0  0  0
 24 27  1  0  0  0  0
 26 29  1  1  0  0  0
 26 31  1  0  0  0  0
 27 28  1  0  0  0  0
 29 30  2  0  0  0  0
 31 32  1  0  0  0  0
 33 32  1  1  0  0  0
 34 36  1  0  0  0  0
 34 42  1  0  0  0  0
 36 37  1  6  0  0  0
 36 39  1  0  0  0  0
 40 39  1  1  0  0  0
 40 41  1  0  0  0  0
 40 46  1  0  0  0  0
 41 42  1  1  0  0  0
 41 44  1  0  0  0  0
 42 43  2  0  0  0  0
 44 45  1  0  0  0  0
 46 45  1  6  0  0  0
M  CHG  2   3  -1  35  -1
M  END
>  <CHROM.1>
-176.58648568,128.98189534,-6.17668879,4.01659875,16.11327529,0.73684756
-1.24697728,0.24369383

>  <Name>
ligand

>  <RI>
-1

>  <Rbt.Current_Directory>
/home/itssahil/PROJECTS/Mol_Feturizer/Test_systems_manuscript/rnas/3mum

>  <Rbt.Executable>
rbdock ($Id: //depot/dev/client3/rdock/2013.1/src/exe/rbdock.cxx#4 $)

>  <Rbt.Library>
libRbt.so (2013.1, Build901 2013/11/27)

>  <Rbt.Parameter_File>
/export/apps/rDock/src/rDock_2013.1_src/data/scripts/dock_solv.prm

>  <Rbt.Receptor>
prm/pocket_docking_8.prm

>  <SCORE>
-26.0205

>  <SCORE.INTER>
-25.8751

>  <SCORE.INTER.CONST>
1

>  <SCORE.INTER.POLAR>
0

>  <SCORE.INTER.ROT>
2

>  <SCORE.INTER.SOLV>
17.5529

>  <SCORE.INTER.VDW>
-28.0343

>  <SCORE.INTER.norm>
-0.562501

>  <SCORE.INTRA>
-0.145418

>  <SCORE.INTRA.DIHEDRAL>
-0.0155344

>  <SCORE.INTRA.DIHEDRAL.0>
2.40424

>  <SCORE.INTRA.POLAR>
0

>  <SCORE.INTRA.POLAR.0>
0

>  <SCORE.INTRA.REPUL>
0

>  <SCORE.INTRA.REPUL.0>
0

>  <SCORE.INTRA.SOLV>
0.00547079

>  <SCORE.INTRA.SOLV.lig_0>
-134.169

>  <SCORE.INTRA.VDW>
-0.140386

>  <SCORE.INTRA.VDW.0>
-2.18386

>  <SCORE.INTRA.norm>
-0.00316126

>  <SCORE.RESTR>
0

>  <SCORE.RESTR.CAVITY>
0

>  <SCORE.RESTR.norm>
0

>  <SCORE.SYSTEM>
0

>  <SCORE.SYSTEM.CONST>
0

>  <SCORE.SYSTEM.DIHEDRAL>
0

>  <SCORE.SYSTEM.SOLV>
0

>  <SCORE.SYSTEM.norm>
0

>  <SCORE.heavy>
46

>  <SCORE.norm>
-0.565662

>  <RMSD>
4.755

$$$$
ligand
 OpenBabel02271912143D
libRbt.so/2013.1/901 2013/11/27
 46 52  0  0  0  0  0  0  0  0999 V2000
   -9.5003    6.5075   16.3666 P   0  0  1  0  0  0  0  0  0  0  0  0
   -3.8379    5.9857   14.8366 P   0  0  2  0  0  0  0  0  0  0  0  0
  -10.1295    4.9490   16.9297 O   0  5  0  0  0  0  0  0  0  0  0  0
  -10.7171    7.8018   16.5192 O   0  0  0  0  0  0  0  0  0  0  0  0
   -7.4004    8.0216   16.9335 C   0  0  0  0  0  0  0  0  0  0  0  0
   -8.1889    6.8693   17.2317 O   0  0  0  0  0  0  0  0  0  0  0  0
   -6.0274    7.8416   17.5525 C   0  0  1  0  0  0  0  0  0  0  0  0
   -6.1685    7.5353   18.9468 O   0  0  0  0  0  0  0  0  0  0  0  0
   -5.2480    6.6803   16.9571 C   0  0  1  0  0  0  0  0  0  0  0  0
   -4.4391    7.0850   15.8549 O   0  0  0  0  0  0  0  0  0  0  0  0
   -4.4119    6.1906   18.1263 C   0  0  1  0  0  0  0  0  0  0  0  0
   -3.1701    6.8979   18.1714 O   0  0  0  0  0  0  0  0  0  0  0  0
   -5.2162    6.5442   19.3635 C   0  0  2  0  0  0  0  0  0  0  0  0
   -7.9820    3.5212   13.0119 C   0  0  1  0  0  0  0  0  0  0  0  0
   -4.9426    1.7919   21.7158 N   0  0  0  0  0  0  0  0  0  0  0  0
   -3.9345    2.6447   21.3861 C   0  0  1  0  0  0  0  0  0  0  0  0
   -8.7234    4.0952   14.1858 C   0  0  2  0  0  0  0  0  0  0  0  0
   -2.6650    2.2767   21.6754 N   0  0  0  0  0  0  0  0  0  0  0  0
  -10.0749    4.2781   13.7603 O   0  0  0  0  0  0  0  0  0  0  0  0
   -8.0326    5.4140   14.4714 C   0  0  2  0  0  0  0  0  0  0  0  0
   -4.1530    3.8475   20.7759 N   0  0  0  0  0  0  0  0  0  0  0  0
   -8.9595    6.4210   14.8536 O   0  0  0  0  0  0  0  0  0  0  0  0
   -5.4072    4.2632   20.4667 C   0  0  2  0  0  0  0  0  0  0  0  0
   -7.3627    5.7930   13.1652 C   0  0  2  0  0  0  0  0  0  0  0  0
   -7.2180    4.5777   12.4321 O   0  0  0  0  0  0  0  0  0  0  0  0
   -6.5352    3.3758   20.7995 C   0  0  1  0  0  0  0  0  0  0  0  0
   -5.9931    6.4320   13.3659 C   0  0  0  0  0  0  0  0  0  0  0  0
   -5.1298    5.4936   14.0111 O   0  0  0  0  0  0  0  0  0  0  0  0
   -6.2361    2.0914   21.4574 C   0  0  0  0  0  0  0  0  0  0  0  0
   -7.2350    1.2334   21.7863 O   0  0  0  0  0  0  0  0  0  0  0  0
   -7.6496    3.9957   20.3960 N   0  0  0  0  0  0  0  0  0  0  0  0
   -7.2752    5.1872   19.8450 C   0  0  0  0  0  0  0  0  0  0  0  0
   -5.9361    5.3516   19.8837 N   0  0  1  0  0  0  0  0  0  0  0  0
   -6.7702   -1.5203   12.3165 N   0  0  0  0  0  0  0  0  0  0  0  0
   -3.0976    4.6203   15.7132 O   0  5  0  0  0  0  0  0  0  0  0  0
   -7.7102   -0.7565   11.6952 C   0  0  2  0  0  0  0  0  0  0  0  0
   -8.4883   -1.3155   10.7318 N   0  0  0  0  0  0  0  0  0  0  0  0
   -2.6636    6.6579   13.6888 O   0  0  0  0  0  0  0  0  0  0  0  0
   -7.8966    0.5548   12.0083 N   0  0  0  0  0  0  0  0  0  0  0  0
   -7.1481    1.1692   12.9542 C   0  0  2  0  0  0  0  0  0  0  0  0
   -6.1191    0.3959   13.6618 C   0  0  2  0  0  0  0  0  0  0  0  0
   -5.9676   -1.0251   13.2824 C   0  0  0  0  0  0  0  0  0  0  0  0
   -5.0463   -1.8186   13.8824 O   0  0  0  0  0  0  0  0  0  0  0  0
   -5.5423    1.2375   14.5424 N   0  0  0  0  0  0  0  0  0  0  0  0
   -6.1512    2.4530   14.4053 C   0  0  0  0  0  0  0  0  0  0  0  0
   -7.1127    2.4052   13.4555 N   0  0  1  0  0  0  0  0  0  0  0  0
  1  3  1  1  0  0  0
  1  4  2  0  0  0  0
  1  6  1  0  0  0  0
  1 22  1  0  0  0  0
  2 28  1  0  0  0  0
  2 35  1  1  0  0  0
  2 38  2  0  0  0  0
  2 10  1  0  0  0  0
  5  6  1  0  0  0  0
  7  5  1  6  0  0  0
  7  8  1  0  0  0  0
  7  9  1  0  0  0  0
  9 10  1  6  0  0  0
  9 11  1  0  0  0  0
 11 12  1  1  0  0  0
 11 13  1  0  0  0  0
 13  8  1  6  0  0  0
 13 33  1  0  0  0  0
 14 46  1  0  0  0  0
 14 17  1  0  0  0  0
 14 25  1  1  0  0  0
 15 16  1  0  0  0  0
 15 29  1  0  0  0  0
 16 18  1  6  0  0  0
 16 21  1  0  0  0  0
 17 19  1  6  0  0  0
 17 20  1  0  0  0  0
 20 22  1  6  0  0  0
 20 24  1  0  0  0  0
 23 21  1  6  0  0  0
 23 26  1  0  0  0  0
 23 33  1  0  0  0  0
 24 25  1  6  0  0  0
 24 27  1  0  0  0  0
 26 29  1  1  0  0  0
 26 31  1  0  0  0  0
 27 28  1  0  0  0  0
 29 30  2  0  0  0  0
 31 32  1  0  0  0  0
 33 32  1  1  0  0  0
 34 36  1  0  0  0  0
 34 42  1  0  0  0  0
 36 37  1  6  0  0  0
 36 39  1  0  0  0  0
 40 39  1  1  0  0  0
 40 41  1  0  0  0  0
 40 46  1  0  0  0  0
 41 42  1  1  0  0  0
 41 44  1  0  0  0  0
 42 43  2  0  0  0  0
 44 45  1  0  0  0  0
 46 45  1  6  0  0  0
M  CHG  2   3  -1  35  -1
M  END
>  <CHROM.1>
-174.04356792,124.64853199,-6.44814601,4.20137952,16.23205516,0.98769225
-1.20232994,0.51345961

>  <Name>
ligand

>  <RI>
-1

>  <Rbt.Current_Directory>
/home/itssahil/PROJECTS/Mol_Feturizer/Test_systems_manuscript/rnas/3mum

>  <Rbt.Executable>
rbdock ($Id: //depot/dev/client3/rdock/2013.1/src/exe/rbdock.cxx#4 $)

>  <Rbt.Library>
libRbt.so (2013.1, Build901 2013/11/27)

>  <Rbt.Parameter_File>
/export/apps/rDock/src/rDock_2013.1_src/data/scripts/dock_solv.prm

>  <Rbt.Receptor>
prm/pocket_docking_6.prm

>  <SCORE>
-26.382

>  <SCORE.INTER>
-26.2018

>  <SCORE.INTER.CONST>
1

>  <SCORE.INTER.POLAR>
0

>  <SCORE.INTER.ROT>
2

>  <SCORE.INTER.SOLV>
15.4415

>  <SCORE.INTER.VDW>
-27.5484

>  <SCORE.INTER.norm>
-0.569604

>  <SCORE.INTRA>
-0.180218

>  <SCORE.INTRA.DIHEDRAL>
-0.00916965

>  <SCORE.INTRA.DIHEDRAL.0>
2.40424

>  <SCORE.INTRA.POLAR>
0

>  <SCORE.INTRA.POLAR.0>
0

>  <SCORE.INTRA.REPUL>
0

>  <SCORE.INTRA.REPUL.0>
0

>  <SCORE.INTRA.SOLV>
0.0211824

>  <SCORE.INTRA.SOLV.lig_0>
-134.169

>  <SCORE.INTRA.VDW>
-0.186225

>  <SCORE.INTRA.VDW.0>
-2.18386

>  <SCORE.INTRA.norm>
-0.00391779

>  <SCORE.RESTR>
0

>  <SCORE.RESTR.CAVITY>
0

>  <SCORE.RESTR.norm>
0

>  <SCORE.SYSTEM>
0

>  <SCORE.SYSTEM.CONST>
0

>  <SCORE.SYSTEM.DIHEDRAL>
0

>  <SCORE.SYSTEM.SOLV>
0

>  <SCORE.SYSTEM.norm>
0

>  <SCORE.heavy>
46

>  <SCORE.norm>
-0.573522

>  <RMSD>
4.756

$$$$
ligand
 OpenBabel02271912143D
libRbt.so/2013.1/901 2013/11/27
 46 52  0  0  0  0  0  0  0  0999 V2000
   -8.9009    6.7495   16.2241 P   0  0  1  0  0  0  0  0  0  0  0  0
   -3.4013    5.4582   14.5617 P   0  0  2  0  0  0  0  0  0  0  0  0
   -9.6922    5.3123   16.8948 O   0  5  0  0  0  0  0  0  0  0  0  0
   -9.9468    8.1892   16.3370 O   0  0  0  0  0  0  0  0  0  0  0  0
   -6.6150    8.0242   16.6405 C   0  0  0  0  0  0  0  0  0  0  0  0
   -7.5250    6.9946   17.0280 O   0  0  0  0  0  0  0  0  0  0  0  0
   -5.2521    7.7115   17.2284 C   0  0  1  0  0  0  0  0  0  0  0  0
   -5.3786    7.5005   18.6417 O   0  0  0  0  0  0  0  0  0  0  0  0
   -4.6402    6.4333   16.6787 C   0  0  1  0  0  0  0  0  0  0  0  0
   -3.8288    6.6761   15.5317 O   0  0  0  0  0  0  0  0  0  0  0  0
   -3.8273    5.9089   17.8494 C   0  0  1  0  0  0  0  0  0  0  0  0
   -2.5086    6.4607   17.8170 O   0  0  0  0  0  0  0  0  0  0  0  0
   -4.5380    6.4245   19.0870 C   0  0  2  0  0  0  0  0  0  0  0  0
   -7.8751    3.4234   13.0051 C   0  0  1  0  0  0  0  0  0  0  0  0
   -5.0600    1.3070   20.4029 N   0  0  0  0  0  0  0  0  0  0  0  0
   -4.0177    1.9330   19.7911 C   0  0  1  0  0  0  0  0  0  0  0  0
   -8.4991    4.1463   14.1650 C   0  0  2  0  0  0  0  0  0  0  0  0
   -2.9389    1.1920   19.4478 N   0  0  0  0  0  0  0  0  0  0  0  0
   -9.8333    4.4696   13.7694 O   0  0  0  0  0  0  0  0  0  0  0  0
   -7.6448    5.3842   14.3532 C   0  0  2  0  0  0  0  0  0  0  0  0
   -4.0202    3.2699   19.5095 N   0  0  0  0  0  0  0  0  0  0  0  0
   -8.4294    6.5161   14.7035 O   0  0  0  0  0  0  0  0  0  0  0  0
   -5.0769    4.0567   19.8352 C   0  0  2  0  0  0  0  0  0  0  0  0
   -6.9818    5.6075   13.0083 C   0  0  2  0  0  0  0  0  0  0  0  0
   -7.0109    4.3459   12.3429 O   0  0  0  0  0  0  0  0  0  0  0  0
   -6.2334    3.4280   20.4967 C   0  0  1  0  0  0  0  0  0  0  0  0
   -5.5389    6.0843   13.1314 C   0  0  0  0  0  0  0  0  0  0  0  0
   -4.7720    5.0838   13.8043 O   0  0  0  0  0  0  0  0  0  0  0  0
   -6.1716    1.9820   20.7746 C   0  0  0  0  0  0  0  0  0  0  0  0
   -7.2078    1.3490   21.3809 O   0  0  0  0  0  0  0  0  0  0  0  0
   -7.1341    4.3944   20.7063 N   0  0  0  0  0  0  0  0  0  0  0  0
   -6.6057    5.5550   20.2190 C   0  0  0  0  0  0  0  0  0  0  0  0
   -5.3769    5.3586   19.6964 N   0  0  1  0  0  0  0  0  0  0  0  0
   -7.0214   -1.6896   12.3004 N   0  0  0  0  0  0  0  0  0  0  0  0
   -2.7995    4.0619   15.4939 O   0  5  0  0  0  0  0  0  0  0  0  0
   -7.8512   -0.8443   11.6297 C   0  0  2  0  0  0  0  0  0  0  0  0
   -8.6009   -1.3259   10.6039 N   0  0  0  0  0  0  0  0  0  0  0  0
   -2.1970    5.9189   13.3430 O   0  0  0  0  0  0  0  0  0  0  0  0
   -7.9545    0.4734   11.9538 N   0  0  0  0  0  0  0  0  0  0  0  0
   -7.2287    1.0128   12.9610 C   0  0  2  0  0  0  0  0  0  0  0  0
   -6.3172    0.1498   13.7239 C   0  0  2  0  0  0  0  0  0  0  0  0
   -6.2526   -1.2736   13.3291 C   0  0  0  0  0  0  0  0  0  0  0  0
   -5.4422   -2.1467   13.9766 O   0  0  0  0  0  0  0  0  0  0  0  0
   -5.7394    0.9304   14.6584 N   0  0  0  0  0  0  0  0  0  0  0  0
   -6.2384    2.1927   14.5022 C   0  0  0  0  0  0  0  0  0  0  0  0
   -7.1308    2.2352   13.4870 N   0  0  1  0  0  0  0  0  0  0  0  0
  1  3  1  1  0  0  0
  1  4  2  0  0  0  0
  1  6  1  0  0  0  0
  1 22  1  0  0  0  0
  2 28  1  0  0  0  0
  2 35  1  1  0  0  0
  2 38  2  0  0  0  0
  2 10  1  0  0  0  0
  5  6  1  0  0  0  0
  7  5  1  6  0  0  0
  7  8  1  0  0  0  0
  7  9  1  0  0  0  0
  9 10  1  6  0  0  0
  9 11  1  0  0  0  0
 11 12  1  6  0  0  0
 11 13  1  0  0  0  0
 13  8  1  6  0  0  0
 13 33  1  0  0  0  0
 14 46  1  0  0  0  0
 14 17  1  0  0  0  0
 14 25  1  1  0  0  0
 15 16  1  0  0  0  0
 15 29  1  0  0  0  0
 16 18  1  6  0  0  0
 16 21  1  0  0  0  0
 17 19  1  6  0  0  0
 17 20  1  0  0  0  0
 20 22  1  6  0  0  0
 20 24  1  0  0  0  0
 23 21  1  6  0  0  0
 23 26  1  0  0  0  0
 23 33  1  0  0  0  0
 24 25  1  6  0  0  0
 24 27  1  0  0  0  0
 26 29  1  1  0  0  0
 26 31  1  0  0  0  0
 27 28  1  0  0  0  0
 29 30  2  0  0  0  0
 31 32  1  0  0  0  0
 33 32  1  1  0  0  0
 34 36  1  0  0  0  0
 34 42  1  0  0  0  0
 36 37  1  6  0  0  0
 36 39  1  0  0  0  0
 40 39  1  1  0  0  0
 40 41  1  0  0  0  0
 40 46  1  0  0  0  0
 41 42  1  1  0  0  0
 41 44  1  0  0  0  0
 42 43  2  0  0  0  0
 44 45  1  0  0  0  0
 46 45  1  6  0  0  0
M  CHG  2   3  -1  35  -1
M  END
>  <CHROM.1>
156.62241229,132.25082235,-6.15727897,4.03747444,15.96458438,0.96738582,-1.19920344
0.29927770

>  <Name>
ligand

>  <RI>
-1

>  <Rbt.Current_Directory>
/home/itssahil/PROJECTS/Mol_Feturizer/Test_systems_manuscript/rnas/3mum

>  <Rbt.Executable>
rbdock ($Id: //depot/dev/client3/rdock/2013.1/src/exe/rbdock.cxx#4 $)

>  <Rbt.Library>
libRbt.so (2013.1, Build901 2013/11/27)

>  <Rbt.Parameter_File>
/export/apps/rDock/src/rDock_2013.1_src/data/scripts/dock_solv.prm

>  <Rbt.Receptor>
prm/pocket_docking_5.prm

>  <SCORE>
-24.4786

>  <SCORE.INTER>
-24.5492

>  <SCORE.INTER.CONST>
1

>  <SCORE.INTER.POLAR>
0

>  <SCORE.INTER.ROT>
2

>  <SCORE.INTER.SOLV>
18.01

>  <SCORE.INTER.VDW>
-27.3028

>  <SCORE.INTER.norm>
-0.533679

>  <SCORE.INTRA>
0.0706151

>  <SCORE.INTRA.DIHEDRAL>
-0.0236295

>  <SCORE.INTRA.DIHEDRAL.0>
2.40424

>  <SCORE.INTRA.POLAR>
0

>  <SCORE.INTRA.POLAR.0>
0

>  <SCORE.INTRA.REPUL>
0

>  <SCORE.INTRA.REPUL.0>
0

>  <SCORE.INTRA.SOLV>
0.0076003

>  <SCORE.INTRA.SOLV.lig_0>
-134.169

>  <SCORE.INTRA.VDW>
0.0786297

>  <SCORE.INTRA.VDW.0>
-2.18386

>  <SCORE.INTRA.norm>
0.00153511

>  <SCORE.RESTR>
0

>  <SCORE.RESTR.CAVITY>
0

>  <SCORE.RESTR.norm>
0

>  <SCORE.SYSTEM>
0

>  <SCORE.SYSTEM.CONST>
0

>  <SCORE.SYSTEM.DIHEDRAL>
0

>  <SCORE.SYSTEM.SOLV>
0

>  <SCORE.SYSTEM.norm>
0

>  <SCORE.heavy>
46

>  <SCORE.norm>
-0.532144

>  <RMSD>
4.761

$$$$
ligand
 OpenBabel02271912143D
libRbt.so/2013.1/901 2013/11/27
 46 52  0  0  0  0  0  0  0  0999 V2000
   -9.2358    6.6635   16.3731 P   0  0  1  0  0  0  0  0  0  0  0  0
   -3.6266    5.8167   14.7933 P   0  0  2  0  0  0  0  0  0  0  0  0
   -9.9376    5.1521   16.9771 O   0  5  0  0  0  0  0  0  0  0  0  0
  -10.3823    8.0221   16.5106 O   0  0  0  0  0  0  0  0  0  0  0  0
   -7.0539    8.0786   16.8837 C   0  0  0  0  0  0  0  0  0  0  0  0
   -7.8971    6.9753   17.2158 O   0  0  0  0  0  0  0  0  0  0  0  0
   -5.6847    7.8410   17.4915 C   0  0  1  0  0  0  0  0  0  0  0  0
   -5.8246    7.5723   18.8937 O   0  0  0  0  0  0  0  0  0  0  0  0
   -4.9734    6.6284   16.9133 C   0  0  1  0  0  0  0  0  0  0  0  0
   -4.1581    6.9671   15.7937 O   0  0  0  0  0  0  0  0  0  0  0  0
   -4.1496    6.1212   18.0838 C   0  0  1  0  0  0  0  0  0  0  0  0
   -2.8726    6.7640   18.0998 O   0  0  0  0  0  0  0  0  0  0  0  0
   -4.9197    6.5423   19.3216 C   0  0  2  0  0  0  0  0  0  0  0  0
   -7.9139    3.5317   13.0684 C   0  0  1  0  0  0  0  0  0  0  0  0
   -4.8955    1.5736   21.1935 N   0  0  0  0  0  0  0  0  0  0  0  0
   -3.8541    2.3252   20.7430 C   0  0  1  0  0  0  0  0  0  0  0  0
   -8.6105    4.1683   14.2375 C   0  0  2  0  0  0  0  0  0  0  0  0
   -2.6179    1.7753   20.7508 N   0  0  0  0  0  0  0  0  0  0  0  0
   -9.9558    4.4118   13.8229 O   0  0  0  0  0  0  0  0  0  0  0  0
   -7.8493    5.4553   14.4865 C   0  0  2  0  0  0  0  0  0  0  0  0
   -4.0082    3.6027   20.2837 N   0  0  0  0  0  0  0  0  0  0  0  0
   -8.7183    6.5169   14.8566 O   0  0  0  0  0  0  0  0  0  0  0  0
   -5.2265    4.1999   20.2573 C   0  0  2  0  0  0  0  0  0  0  0  0
   -7.1765    5.7711   13.1651 C   0  0  2  0  0  0  0  0  0  0  0  0
   -7.1034    4.5346   12.4573 O   0  0  0  0  0  0  0  0  0  0  0  0
   -6.3888    3.4286   20.7313 C   0  0  1  0  0  0  0  0  0  0  0  0
   -5.7735    6.3425   13.3368 C   0  0  0  0  0  0  0  0  0  0  0  0
   -4.9520    5.3747   13.9929 O   0  0  0  0  0  0  0  0  0  0  0  0
   -6.1591    2.0557   21.2152 C   0  0  0  0  0  0  0  0  0  0  0  0
   -7.1924    1.2979   21.6628 O   0  0  0  0  0  0  0  0  0  0  0  0
   -7.4594    4.2198   20.6017 N   0  0  0  0  0  0  0  0  0  0  0  0
   -7.0272    5.4069   20.0844 C   0  0  0  0  0  0  0  0  0  0  0  0
   -5.6938    5.4000   19.8757 N   0  0  1  0  0  0  0  0  0  0  0  0
   -6.8464   -1.5389   12.3488 N   0  0  0  0  0  0  0  0  0  0  0  0
   -2.9472    4.4338   15.6915 O   0  5  0  0  0  0  0  0  0  0  0  0
   -7.7383   -0.7366   11.7056 C   0  0  2  0  0  0  0  0  0  0  0  0
   -8.5005   -1.2575   10.7088 N   0  0  0  0  0  0  0  0  0  0  0  0
   -2.4331    6.4024   13.6183 O   0  0  0  0  0  0  0  0  0  0  0  0
   -7.8919    0.5764   12.0294 N   0  0  0  0  0  0  0  0  0  0  0  0
   -7.1569    1.1539   13.0084 C   0  0  2  0  0  0  0  0  0  0  0  0
   -6.1793    0.3380   13.7408 C   0  0  2  0  0  0  0  0  0  0  0  0
   -6.0618   -1.0825   13.3481 C   0  0  0  0  0  0  0  0  0  0  0  0
   -5.1887   -1.9138   13.9688 O   0  0  0  0  0  0  0  0  0  0  0  0
   -5.6059    1.1492   14.6516 N   0  0  0  0  0  0  0  0  0  0  0  0
   -6.1690    2.3860   14.5097 C   0  0  0  0  0  0  0  0  0  0  0  0
   -7.0979    2.3819   13.5269 N   0  0  1  0  0  0  0  0  0  0  0  0
  1  3  1  1  0  0  0
  1  4  2  0  0  0  0
  1  6  1  0  0  0  0
  1 22  1  0  0  0  0
  2 28  1  0  0  0  0
  2 35  1  1  0  0  0
  2 38  2  0  0  0  0
  2 10  1  0  0  0  0
  5  6  1  0  0  0  0
  7  5  1  6  0  0  0
  7  8  1  0  0  0  0
  7  9  1  0  0  0  0
  9 10  1  6  0  0  0
  9 11  1  0  0  0  0
 11 12  1  1  0  0  0
 11 13  1  0  0  0  0
 13  8  1  6  0  0  0
 13 33  1  0  0  0  0
 14 46  1  0  0  0  0
 14 17  1  0  0  0  0
 14 25  1  1  0  0  0
 15 16  1  0  0  0  0
 15 29  1  0  0  0  0
 16 18  1  6  0  0  0
 16 21  1  0  0  0  0
 17 19  1  6  0  0  0
 17 20  1  0  0  0  0
 20 22  1  6  0  0  0
 20 24  1  0  0  0  0
 23 21  1  6  0  0  0
 23 26  1  0  0  0  0
 23 33  1  0  0  0  0
 24 25  1  6  0  0  0
 24 27  1  0  0  0  0
 26 29  1  1  0  0  0
 26 31  1  0  0  0  0
 27 28  1  0  0  0  0
 29 30  2  0  0  0  0
 31 32  1  0  0  0  0
 33 32  1  1  0  0  0
 34 36  1  0  0  0  0
 34 42  1  0  0  0  0
 36 37  1  6  0  0  0
 36 39  1  0  0  0  0
 40 39  1  1  0  0  0
 40 41  1  0  0  0  0
 40 46  1  0  0  0  0
 41 42  1  1  0  0  0
 41 44  1  0  0  0  0
 42 43  2  0  0  0  0
 44 45  1  0  0  0  0
 46 45  1  6  0  0  0
M  CHG  2   3  -1  35  -1
M  END
>  <CHROM.1>
172.95891362,128.10013087,-6.29808638,4.17651363,16.17989678,0.99546759,-1.19132614
0.44405921

>  <Name>
ligand

>  <RI>
-1

>  <Rbt.Current_Directory>
/home/itssahil/PROJECTS/Mol_Feturizer/Test_systems_manuscript/rnas/3mum

>  <Rbt.Executable>
rbdock ($Id: //depot/dev/client3/rdock/2013.1/src/exe/rbdock.cxx#4 $)

>  <Rbt.Library>
libRbt.so (2013.1, Build901 2013/11/27)

>  <Rbt.Parameter_File>
/export/apps/rDock/src/rDock_2013.1_src/data/scripts/dock_solv.prm

>  <Rbt.Receptor>
prm/pocket_docking_7.prm

>  <SCORE>
-25.385

>  <SCORE.INTER>
-25.322

>  <SCORE.INTER.CONST>
1

>  <SCORE.INTER.POLAR>
0

>  <SCORE.INTER.ROT>
2

>  <SCORE.INTER.SOLV>
15.3845

>  <SCORE.INTER.VDW>
-26.9428

>  <SCORE.INTER.norm>
-0.550477

>  <SCORE.INTRA>
-0.0630574

>  <SCORE.INTRA.DIHEDRAL>
-0.0163191

>  <SCORE.INTRA.DIHEDRAL.0>
2.40424

>  <SCORE.INTRA.POLAR>
0

>  <SCORE.INTRA.POLAR.0>
0

>  <SCORE.INTRA.REPUL>
0

>  <SCORE.INTRA.REPUL.0>
0

>  <SCORE.INTRA.SOLV>
0.0123006

>  <SCORE.INTRA.SOLV.lig_0>
-134.169

>  <SCORE.INTRA.VDW>
-0.0610482

>  <SCORE.INTRA.VDW.0>
-2.18386

>  <SCORE.INTRA.norm>
-0.00137081

>  <SCORE.RESTR>
0

>  <SCORE.RESTR.CAVITY>
0

>  <SCORE.RESTR.norm>
0

>  <SCORE.SYSTEM>
0

>  <SCORE.SYSTEM.CONST>
0

>  <SCORE.SYSTEM.DIHEDRAL>
0

>  <SCORE.SYSTEM.SOLV>
0

>  <SCORE.SYSTEM.norm>
0

>  <SCORE.heavy>
46

>  <SCORE.norm>
-0.551848

>  <RMSD>
4.772

$$$$
ligand
 OpenBabel02271912143D
libRbt.so/2013.1/901 2013/11/27
 46 52  0  0  0  0  0  0  0  0999 V2000
   -8.7516    6.8296   16.1182 P   0  0  1  0  0  0  0  0  0  0  0  0
   -3.2676    5.3781   14.5386 P   0  0  2  0  0  0  0  0  0  0  0  0
   -9.5878    5.4211   16.7955 O   0  5  0  0  0  0  0  0  0  0  0  0
   -9.7613    8.2969   16.2019 O   0  0  0  0  0  0  0  0  0  0  0  0
   -6.4387    8.0499   16.5483 C   0  0  0  0  0  0  0  0  0  0  0  0
   -7.3797    7.0487   16.9363 O   0  0  0  0  0  0  0  0  0  0  0  0
   -5.0916    7.7092   17.1564 C   0  0  1  0  0  0  0  0  0  0  0  0
   -5.2404    7.5181   18.5704 O   0  0  0  0  0  0  0  0  0  0  0  0
   -4.5063    6.4094   16.6290 C   0  0  1  0  0  0  0  0  0  0  0  0
   -3.6751    6.6178   15.4893 O   0  0  0  0  0  0  0  0  0  0  0  0
   -3.7214    5.8780   17.8155 C   0  0  1  0  0  0  0  0  0  0  0  0
   -2.3886    6.3953   17.7930 O   0  0  0  0  0  0  0  0  0  0  0  0
   -4.4333    6.4261   19.0383 C   0  0  2  0  0  0  0  0  0  0  0  0
   -7.7734    3.4409   12.9503 C   0  0  1  0  0  0  0  0  0  0  0  0
   -5.1553    1.3180   20.2947 N   0  0  0  0  0  0  0  0  0  0  0  0
   -4.0983    1.9065   19.6713 C   0  0  1  0  0  0  0  0  0  0  0  0
   -8.3924    4.1930   14.0941 C   0  0  2  0  0  0  0  0  0  0  0  0
   -3.0598    1.1240   19.2972 N   0  0  0  0  0  0  0  0  0  0  0  0
   -9.7130    4.5459   13.6784 O   0  0  0  0  0  0  0  0  0  0  0  0
   -7.5088    5.4107   14.2787 C   0  0  2  0  0  0  0  0  0  0  0  0
   -4.0472    3.2462   19.4079 N   0  0  0  0  0  0  0  0  0  0  0  0
   -8.2680    6.5664   14.6064 O   0  0  0  0  0  0  0  0  0  0  0  0
   -5.0618    4.0737   19.7647 C   0  0  2  0  0  0  0  0  0  0  0  0
   -6.8241    5.6012   12.9395 C   0  0  2  0  0  0  0  0  0  0  0  0
   -6.8778    4.3330   12.2883 O   0  0  0  0  0  0  0  0  0  0  0  0
   -6.2323    3.4868   20.4400 C   0  0  1  0  0  0  0  0  0  0  0  0
   -5.3710    6.0422   13.0750 C   0  0  0  0  0  0  0  0  0  0  0  0
   -4.6383    5.0302   13.7687 O   0  0  0  0  0  0  0  0  0  0  0  0
   -6.2290    2.0356   20.6970 C   0  0  0  0  0  0  0  0  0  0  0  0
   -7.2805    1.4400   21.3148 O   0  0  0  0  0  0  0  0  0  0  0  0
   -7.0854    4.4886   20.6800 N   0  0  0  0  0  0  0  0  0  0  0  0
   -6.5157    5.6318   20.1983 C   0  0  0  0  0  0  0  0  0  0  0  0
   -5.3068    5.3893   19.6493 N   0  0  1  0  0  0  0  0  0  0  0  0
   -7.0393   -1.6992   12.3108 N   0  0  0  0  0  0  0  0  0  0  0  0
   -2.7133    3.9778   15.4940 O   0  5  0  0  0  0  0  0  0  0  0  0
   -7.8383   -0.8407   11.6198 C   0  0  2  0  0  0  0  0  0  0  0  0
   -8.5859   -1.3144   10.5889 N   0  0  0  0  0  0  0  0  0  0  0  0
   -2.0372    5.7935   13.3297 O   0  0  0  0  0  0  0  0  0  0  0  0
   -7.9128    0.4826   11.9288 N   0  0  0  0  0  0  0  0  0  0  0  0
   -7.1874    1.0145   12.9403 C   0  0  2  0  0  0  0  0  0  0  0  0
   -6.3084    0.1372   13.7247 C   0  0  2  0  0  0  0  0  0  0  0  0
   -6.2743   -1.2915   13.3456 C   0  0  0  0  0  0  0  0  0  0  0  0
   -5.4950   -2.1777   14.0134 O   0  0  0  0  0  0  0  0  0  0  0  0
   -5.7239    0.9130   14.6589 N   0  0  0  0  0  0  0  0  0  0  0  0
   -6.1888    2.1858   14.4827 C   0  0  0  0  0  0  0  0  0  0  0  0
   -7.0659    2.2396   13.4548 N   0  0  1  0  0  0  0  0  0  0  0  0
  1  3  1  1  0  0  0
  1  4  2  0  0  0  0
  1  6  1  0  0  0  0
  1 22  1  0  0  0  0
  2 28  1  0  0  0  0
  2 35  1  1  0  0  0
  2 38  2  0  0  0  0
  2 10  1  0  0  0  0
  5  6  1  0  0  0  0
  7  5  1  6  0  0  0
  7  8  1  0  0  0  0
  7  9  1  0  0  0  0
  9 10  1  6  0  0  0
  9 11  1  0  0  0  0
 11 12  1  6  0  0  0
 11 13  1  0  0  0  0
 13  8  1  6  0  0  0
 13 33  1  0  0  0  0
 14 46  1  0  0  0  0
 14 17  1  0  0  0  0
 14 25  1  1  0  0  0
 15 16  1  0  0  0  0
 15 29  1  0  0  0  0
 16 18  1  6  0  0  0
 16 21  1  0  0  0  0
 17 19  1  6  0  0  0
 17 20  1  0  0  0  0
 20 22  1  6  0  0  0
 20 24  1  0  0  0  0
 23 21  1  6  0  0  0
 23 26  1  0  0  0  0
 23 33  1  0  0  0  0
 24 25  1  1  0  0  0
 24 27  1  0  0  0  0
 26 29  1  1  0  0  0
 26 31  1  0  0  0  0
 27 28  1  0  0  0  0
 29 30  2  0  0  0  0
 31 32  1  0  0  0  0
 33 32  1  1  0  0  0
 34 36  1  0  0  0  0
 34 42  1  0  0  0  0
 36 37  1  6  0  0  0
 36 39  1  0  0  0  0
 40 39  1  1  0  0  0
 40 41  1  0  0  0  0
 40 46  1  0  0  0  0
 41 42  1  1  0  0  0
 41 44  1  0  0  0  0
 42 43  2  0  0  0  0
 44 45  1  0  0  0  0
 46 45  1  6  0  0  0
M  CHG  2   3  -1  35  -1
M  END
>  <CHROM.1>
154.08618992,132.36111091,-6.08120277,4.04295076,15.91111400,0.91949920,-1.22110327
0.22812383

>  <Name>
ligand

>  <RI>
-1

>  <Rbt.Current_Directory>
/home/itssahil/PROJECTS/Mol_Feturizer/Test_systems_manuscript/rnas/3mum

>  <Rbt.Executable>
rbdock ($Id: //depot/dev/client3/rdock/2013.1/src/exe/rbdock.cxx#4 $)

>  <Rbt.Library>
libRbt.so (2013.1, Build901 2013/11/27)

>  <Rbt.Parameter_File>
/export/apps/rDock/src/rDock_2013.1_src/data/scripts/dock_solv.prm

>  <Rbt.Receptor>
prm/pocket_docking_5.prm

>  <SCORE>
-24.4188

>  <SCORE.INTER>
-24.4972

>  <SCORE.INTER.CONST>
1

>  <SCORE.INTER.POLAR>
0

>  <SCORE.INTER.ROT>
2

>  <SCORE.INTER.SOLV>
18.2368

>  <SCORE.INTER.VDW>
-27.3437

>  <SCORE.INTER.norm>
-0.532549

>  <SCORE.INTRA>
0.0784697

>  <SCORE.INTRA.DIHEDRAL>
-0.0238903

>  <SCORE.INTRA.DIHEDRAL.0>
2.40424

>  <SCORE.INTRA.POLAR>
0

>  <SCORE.INTRA.POLAR.0>
0

>  <SCORE.INTRA.REPUL>
0

>  <SCORE.INTRA.REPUL.0>
0

>  <SCORE.INTRA.SOLV>
0.00929287

>  <SCORE.INTRA.SOLV.lig_0>
-134.169

>  <SCORE.INTRA.VDW>
0.0857685

>  <SCORE.INTRA.VDW.0>
-2.18386

>  <SCORE.INTRA.norm>
0.00170586

>  <SCORE.RESTR>
0

>  <SCORE.RESTR.CAVITY>
0

>  <SCORE.RESTR.norm>
0

>  <SCORE.SYSTEM>
0

>  <SCORE.SYSTEM.CONST>
0

>  <SCORE.SYSTEM.DIHEDRAL>
0

>  <SCORE.SYSTEM.SOLV>
0

>  <SCORE.SYSTEM.norm>
0

>  <SCORE.heavy>
46

>  <SCORE.norm>
-0.530843

>  <RMSD>
4.777

$$$$
ligand
 OpenBabel02271912143D
libRbt.so/2013.1/901 2013/11/27
 46 52  0  0  0  0  0  0  0  0999 V2000
   -3.7236    5.8581   14.6894 P   0  0  1  0  0  0  0  0  0  0  0  0
   -9.2997    6.4653   16.4823 P   0  0  2  0  0  0  0  0  0  0  0  0
   -3.0019    4.4088   15.4108 O   0  5  0  0  0  0  0  0  0  0  0  0
   -2.6027    6.6562   13.5554 O   0  0  0  0  0  0  0  0  0  0  0  0
   -5.9353    6.4017   13.3343 C   0  0  0  0  0  0  0  0  0  0  0  0
   -5.0765    5.4266   13.9260 O   0  0  0  0  0  0  0  0  0  0  0  0
   -7.3067    5.7836   13.1391 C   0  0  1  0  0  0  0  0  0  0  0  0
   -7.1772    4.5538   12.4120 O   0  0  0  0  0  0  0  0  0  0  0  0
   -7.9902    5.4144   14.4456 C   0  0  1  0  0  0  0  0  0  0  0  0
   -8.7993    6.4759   14.9473 O   0  0  0  0  0  0  0  0  0  0  0  0
   -8.8176    4.1976   14.0701 C   0  0  1  0  0  0  0  0  0  0  0  0
  -10.1058    4.6057   13.6030 O   0  0  0  0  0  0  0  0  0  0  0  0
   -8.0684    3.5491   12.9209 C   0  0  2  0  0  0  0  0  0  0  0  0
   -4.9545    6.2663   19.2495 C   0  0  1  0  0  0  0  0  0  0  0  0
   -6.9310   -1.6144   12.4336 N   0  0  0  0  0  0  0  0  0  0  0  0
   -7.8102   -0.8590   11.7202 C   0  0  1  0  0  0  0  0  0  0  0  0
   -4.2818    5.8114   17.9855 C   0  0  2  0  0  0  0  0  0  0  0  0
   -8.5203   -1.4606   10.7381 N   0  0  0  0  0  0  0  0  0  0  0  0
   -2.9366    6.2883   18.0492 O   0  0  0  0  0  0  0  0  0  0  0  0
   -5.0682    6.4718   16.8705 C   0  0  2  0  0  0  0  0  0  0  0  0
   -8.0040    0.4724   11.9578 N   0  0  0  0  0  0  0  0  0  0  0  0
   -4.2220    6.8981   15.8114 O   0  0  0  0  0  0  0  0  0  0  0  0
   -7.3151    1.1224   12.9297 C   0  0  2  0  0  0  0  0  0  0  0  0
   -5.7321    7.6703   17.5197 C   0  0  2  0  0  0  0  0  0  0  0  0
   -5.7758    7.3848   18.9168 O   0  0  0  0  0  0  0  0  0  0  0  0
   -6.3524    0.3500   13.7340 C   0  0  1  0  0  0  0  0  0  0  0  0
   -7.1468    7.9138   17.0059 C   0  0  0  0  0  0  0  0  0  0  0  0
   -7.9582    6.7790   17.3158 O   0  0  0  0  0  0  0  0  0  0  0  0
   -6.1870   -1.0827   13.4302 C   0  0  0  0  0  0  0  0  0  0  0  0
   -5.3153   -1.8441   14.1390 O   0  0  0  0  0  0  0  0  0  0  0  0
   -5.8137    1.1987   14.6164 N   0  0  0  0  0  0  0  0  0  0  0  0
   -6.3817    2.4215   14.4029 C   0  0  0  0  0  0  0  0  0  0  0  0
   -7.2804    2.3813   13.3967 N   0  0  1  0  0  0  0  0  0  0  0  0
   -4.7640    1.6402   21.6848 N   0  0  0  0  0  0  0  0  0  0  0  0
   -9.9643    4.8752   16.9411 O   0  5  0  0  0  0  0  0  0  0  0  0
   -3.7505    2.4390   21.2516 C   0  0  2  0  0  0  0  0  0  0  0  0
   -2.4651    2.0466   21.4506 N   0  0  0  0  0  0  0  0  0  0  0  0
  -10.4905    7.7303   16.8428 O   0  0  0  0  0  0  0  0  0  0  0  0
   -3.9837    3.6237   20.6236 N   0  0  0  0  0  0  0  0  0  0  0  0
   -5.2419    4.0713   20.4027 C   0  0  2  0  0  0  0  0  0  0  0  0
   -6.3777    3.2515   20.8450 C   0  0  2  0  0  0  0  0  0  0  0  0
   -6.0614    1.9724   21.5158 C   0  0  0  0  0  0  0  0  0  0  0  0
   -7.0436    1.1478   21.9562 O   0  0  0  0  0  0  0  0  0  0  0  0
   -7.4945    3.9192   20.4940 N   0  0  0  0  0  0  0  0  0  0  0  0
   -7.1037    5.0757   19.8803 C   0  0  0  0  0  0  0  0  0  0  0  0
   -5.7550    5.1599   19.8264 N   0  0  1  0  0  0  0  0  0  0  0  0
  1  3  1  1  0  0  0
  1  4  2  0  0  0  0
  1  6  1  0  0  0  0
  1 22  1  0  0  0  0
  2 28  1  0  0  0  0
  2 35  1  1  0  0  0
  2 38  2  0  0  0  0
  2 10  1  0  0  0  0
  5  6  1  0  0  0  0
  7  5  1  1  0  0  0
  7  8  1  0  0  0  0
  7  9  1  0  0  0  0
  9 10  1  6  0  0  0
  9 11  1  0  0  0  0
 11 12  1  6  0  0  0
 11 13  1  0  0  0  0
 13  8  1  1  0  0  0
 13 33  1  0  0  0  0
 14 46  1  0  0  0  0
 14 17  1  0  0  0  0
 14 25  1  6  0  0  0
 15 16  1  0  0  0  0
 15 29  1  0  0  0  0
 16 18  1  1  0  0  0
 16 21  1  0  0  0  0
 17 19  1  1  0  0  0
 17 20  1  0  0  0  0
 20 22  1  6  0  0  0
 20 24  1  0  0  0  0
 23 21  1  1  0  0  0
 23 26  1  0  0  0  0
 23 33  1  0  0  0  0
 24 25  1  1  0  0  0
 24 27  1  0  0  0  0
 26 29  1  6  0  0  0
 26 31  1  0  0  0  0
 27 28  1  0  0  0  0
 29 30  2  0  0  0  0
 31 32  1  0  0  0  0
 33 32  1  6  0  0  0
 34 36  1  0  0  0  0
 34 42  1  0  0  0  0
 36 37  1  1  0  0  0
 36 39  1  0  0  0  0
 40 39  1  6  0  0  0
 40 41  1  0  0  0  0
 40 46  1  0  0  0  0
 41 42  1  6  0  0  0
 41 44  1  0  0  0  0
 42 43  2  0  0  0  0
 44 45  1  0  0  0  0
 46 45  1  1  0  0  0
M  CHG  2   3  -1  35  -1
M  END
>  <CHROM.1>
-117.49077139,71.01957219,-6.36928916,4.10019833,16.21742387,0.79723696,-1.21453667
0.36801058

>  <Name>
ligand

>  <RI>
-1

>  <Rbt.Current_Directory>
/home/itssahil/PROJECTS/Mol_Feturizer/Test_systems_manuscript/rnas/3mum

>  <Rbt.Executable>
rbdock ($Id: //depot/dev/client3/rdock/2013.1/src/exe/rbdock.cxx#4 $)

>  <Rbt.Library>
libRbt.so (2013.1, Build901 2013/11/27)

>  <Rbt.Parameter_File>
/export/apps/rDock/src/rDock_2013.1_src/data/scripts/dock_solv.prm

>  <Rbt.Receptor>
prm/pocket_docking_6.prm

>  <SCORE>
-24.981

>  <SCORE.INTER>
-24.7684

>  <SCORE.INTER.CONST>
1

>  <SCORE.INTER.POLAR>
0

>  <SCORE.INTER.ROT>
2

>  <SCORE.INTER.SOLV>
16.0222

>  <SCORE.INTER.VDW>
-26.7863

>  <SCORE.INTER.norm>
-0.538443

>  <SCORE.INTRA>
-0.212637

>  <SCORE.INTRA.DIHEDRAL>
0.00980187

>  <SCORE.INTRA.DIHEDRAL.0>
2.40424

>  <SCORE.INTRA.POLAR>
0

>  <SCORE.INTRA.POLAR.0>
0

>  <SCORE.INTRA.REPUL>
0

>  <SCORE.INTRA.REPUL.0>
0

>  <SCORE.INTRA.SOLV>
-0.00237117

>  <SCORE.INTRA.SOLV.lig_0>
-134.169

>  <SCORE.INTRA.VDW>
-0.216352

>  <SCORE.INTRA.VDW.0>
-2.18386

>  <SCORE.INTRA.norm>
-0.00462254

>  <SCORE.RESTR>
0

>  <SCORE.RESTR.CAVITY>
0

>  <SCORE.RESTR.norm>
0

>  <SCORE.SYSTEM>
0

>  <SCORE.SYSTEM.CONST>
0

>  <SCORE.SYSTEM.DIHEDRAL>
0

>  <SCORE.SYSTEM.SOLV>
0

>  <SCORE.SYSTEM.norm>
0

>  <SCORE.heavy>
46

>  <SCORE.norm>
-0.543065

>  <RMSD>
4.780

$$$$
ligand
 OpenBabel02271912143D
libRbt.so/2013.1/901 2013/11/27
 46 52  0  0  0  0  0  0  0  0999 V2000
   -3.7351    6.0440   14.7756 P   0  0  1  0  0  0  0  0  0  0  0  0
   -9.3450    6.5121   16.5039 P   0  0  2  0  0  0  0  0  0  0  0  0
   -2.9951    4.5957   15.4804 O   0  5  0  0  0  0  0  0  0  0  0  0
   -2.6150    6.8839   13.6715 O   0  0  0  0  0  0  0  0  0  0  0  0
   -5.9389    6.5700   13.4008 C   0  0  0  0  0  0  0  0  0  0  0  0
   -5.0694    5.6008   13.9864 O   0  0  0  0  0  0  0  0  0  0  0  0
   -7.2954    5.9297   13.1761 C   0  0  1  0  0  0  0  0  0  0  0  0
   -7.1328    4.7160   12.4287 O   0  0  0  0  0  0  0  0  0  0  0  0
   -7.9889    5.5237   14.4664 C   0  0  1  0  0  0  0  0  0  0  0  0
   -8.8248    6.5603   14.9762 O   0  0  0  0  0  0  0  0  0  0  0  0
   -8.7876    4.2985   14.0579 C   0  0  1  0  0  0  0  0  0  0  0  0
  -10.0772    4.6904   13.5808 O   0  0  0  0  0  0  0  0  0  0  0  0
   -8.0111    3.6854   12.9074 C   0  0  2  0  0  0  0  0  0  0  0  0
   -5.0335    6.3452   19.3254 C   0  0  1  0  0  0  0  0  0  0  0  0
   -6.8332   -1.4672   12.4013 N   0  0  0  0  0  0  0  0  0  0  0  0
   -7.7274   -0.7191   11.6991 C   0  0  1  0  0  0  0  0  0  0  0  0
   -4.3356    5.9264   18.0625 C   0  0  2  0  0  0  0  0  0  0  0  0
   -8.4437   -1.3261   10.7249 N   0  0  0  0  0  0  0  0  0  0  0  0
   -3.0008    6.4275   18.1529 O   0  0  0  0  0  0  0  0  0  0  0  0
   -5.1198    6.5920   16.9491 C   0  0  2  0  0  0  0  0  0  0  0  0
   -7.9304    0.6103   11.9404 N   0  0  0  0  0  0  0  0  0  0  0  0
   -4.2682    7.0536   15.9094 O   0  0  0  0  0  0  0  0  0  0  0  0
   -7.2359    1.2656   12.9047 C   0  0  2  0  0  0  0  0  0  0  0  0
   -5.8152    7.7655   17.6108 C   0  0  2  0  0  0  0  0  0  0  0  0
   -5.8717    7.4537   19.0018 O   0  0  0  0  0  0  0  0  0  0  0  0
   -6.2569    0.5011   13.6968 C   0  0  1  0  0  0  0  0  0  0  0  0
   -7.2274    7.9914   17.0825 C   0  0  0  0  0  0  0  0  0  0  0  0
   -8.0208    6.8359   17.3608 O   0  0  0  0  0  0  0  0  0  0  0  0
   -6.0822   -0.9297   13.3895 C   0  0  0  0  0  0  0  0  0  0  0  0
   -5.1954   -1.6840   14.0872 O   0  0  0  0  0  0  0  0  0  0  0  0
   -5.7154    1.3538   14.5736 N   0  0  0  0  0  0  0  0  0  0  0  0
   -6.2969    2.5717   14.3682 C   0  0  0  0  0  0  0  0  0  0  0  0
   -7.2070    2.5243   13.3726 N   0  0  1  0  0  0  0  0  0  0  0  0
   -4.7849    1.6592   21.6380 N   0  0  0  0  0  0  0  0  0  0  0  0
   -9.9848    4.9014   16.9248 O   0  5  0  0  0  0  0  0  0  0  0  0
   -3.7816    2.4827   21.2280 C   0  0  2  0  0  0  0  0  0  0  0  0
   -2.4913    2.1022   21.4189 N   0  0  0  0  0  0  0  0  0  0  0  0
  -10.5646    7.7473   16.8710 O   0  0  0  0  0  0  0  0  0  0  0  0
   -4.0296    3.6803   20.6310 N   0  0  0  0  0  0  0  0  0  0  0  0
   -5.2933    4.1168   20.4197 C   0  0  2  0  0  0  0  0  0  0  0  0
   -6.4187    3.2706   20.8380 C   0  0  2  0  0  0  0  0  0  0  0  0
   -6.0864    1.9785   21.4755 C   0  0  0  0  0  0  0  0  0  0  0  0
   -7.0582    1.1296   21.8921 O   0  0  0  0  0  0  0  0  0  0  0  0
   -7.5438    3.9324   20.5028 N   0  0  0  0  0  0  0  0  0  0  0  0
   -7.1676    5.1099   19.9205 C   0  0  0  0  0  0  0  0  0  0  0  0
   -5.8201    5.2133   19.8714 N   0  0  1  0  0  0  0  0  0  0  0  0
  1  3  1  1  0  0  0
  1  4  2  0  0  0  0
  1  6  1  0  0  0  0
  1 22  1  0  0  0  0
  2 28  1  0  0  0  0
  2 35  1  1  0  0  0
  2 38  2  0  0  0  0
  2 10  1  0  0  0  0
  5  6  1  0  0  0  0
  7  5  1  1  0  0  0
  7  8  1  0  0  0  0
  7  9  1  0  0  0  0
  9 10  1  6  0  0  0
  9 11  1  0  0  0  0
 11 12  1  6  0  0  0
 11 13  1  0  0  0  0
 13  8  1  1  0  0  0
 13 33  1  0  0  0  0
 14 46  1  0  0  0  0
 14 17  1  0  0  0  0
 14 25  1  6  0  0  0
 15 16  1  0  0  0  0
 15 29  1  0  0  0  0
 16 18  1  1  0  0  0
 16 21  1  0  0  0  0
 17 19  1  1  0  0  0
 17 20  1  0  0  0  0
 20 22  1  6  0  0  0
 20 24  1  0  0  0  0
 23 21  1  1  0  0  0
 23 26  1  0  0  0  0
 23 33  1  0  0  0  0
 24 25  1  1  0  0  0
 24 27  1  0  0  0  0
 26 29  1  6  0  0  0
 26 31  1  0  0  0  0
 27 28  1  0  0  0  0
 29 30  2  0  0  0  0
 31 32  1  0  0  0  0
 33 32  1  6  0  0  0
 34 36  1  0  0  0  0
 34 42  1  0  0  0  0
 36 37  1  1  0  0  0
 36 39  1  0  0  0  0
 40 39  1  6  0  0  0
 40 41  1  0  0  0  0
 40 46  1  0  0  0  0
 41 42  1  6  0  0  0
 41 44  1  0  0  0  0
 42 43  2  0  0  0  0
 44 45  1  0  0  0  0
 46 45  1  1  0  0  0
M  CHG  2   3  -1  35  -1
M  END
>  <CHROM.1>
-119.33048349,70.13709692,-6.37322860,4.20379447,16.23775441,0.83992391,-1.21898216
0.41626357

>  <Name>
ligand

>  <RI>
-1

>  <Rbt.Current_Directory>
/home/itssahil/PROJECTS/Mol_Feturizer/Test_systems_manuscript/rnas/3mum

>  <Rbt.Executable>
rbdock ($Id: //depot/dev/client3/rdock/2013.1/src/exe/rbdock.cxx#4 $)

>  <Rbt.Library>
libRbt.so (2013.1, Build901 2013/11/27)

>  <Rbt.Parameter_File>
/export/apps/rDock/src/rDock_2013.1_src/data/scripts/dock_solv.prm

>  <Rbt.Receptor>
prm/pocket_docking_5.prm

>  <SCORE>
-24.6992

>  <SCORE.INTER>
-24.502

>  <SCORE.INTER.CONST>
1

>  <SCORE.INTER.POLAR>
0

>  <SCORE.INTER.ROT>
2

>  <SCORE.INTER.SOLV>
15.2924

>  <SCORE.INTER.VDW>
-26.3655

>  <SCORE.INTER.norm>
-0.532652

>  <SCORE.INTRA>
-0.221779

>  <SCORE.INTRA.DIHEDRAL>
0.00905026

>  <SCORE.INTRA.DIHEDRAL.0>
2.40424

>  <SCORE.INTRA.POLAR>
0

>  <SCORE.INTRA.POLAR.0>
0

>  <SCORE.INTRA.REPUL>
0

>  <SCORE.INTRA.REPUL.0>
0

>  <SCORE.INTRA.SOLV>
0.00501344

>  <SCORE.INTRA.SOLV.lig_0>
-134.169

>  <SCORE.INTRA.VDW>
-0.22881

>  <SCORE.INTRA.VDW.0>
-2.18386

>  <SCORE.INTRA.norm>
-0.00482127

>  <SCORE.RESTR>
0.0246145

>  <SCORE.RESTR.CAVITY>
0.0246145

>  <SCORE.RESTR.norm>
0.000535097

>  <SCORE.SYSTEM>
0

>  <SCORE.SYSTEM.CONST>
0

>  <SCORE.SYSTEM.DIHEDRAL>
0

>  <SCORE.SYSTEM.SOLV>
0

>  <SCORE.SYSTEM.norm>
0

>  <SCORE.heavy>
46

>  <SCORE.norm>
-0.536938

>  <RMSD>
4.785

$$$$
ligand
 OpenBabel02271912143D
libRbt.so/2013.1/901 2013/11/27
 46 52  0  0  0  0  0  0  0  0999 V2000
   -3.7170    5.8223   14.6705 P   0  0  1  0  0  0  0  0  0  0  0  0
   -9.2674    6.4371   16.5392 P   0  0  2  0  0  0  0  0  0  0  0  0
   -2.9921    4.3643   15.3709 O   0  5  0  0  0  0  0  0  0  0  0  0
   -2.6073    6.6252   13.5290 O   0  0  0  0  0  0  0  0  0  0  0  0
   -5.9435    6.3857   13.3482 C   0  0  0  0  0  0  0  0  0  0  0  0
   -5.0813    5.4025   13.9210 O   0  0  0  0  0  0  0  0  0  0  0  0
   -7.3198    5.7747   13.1655 C   0  0  1  0  0  0  0  0  0  0  0  0
   -7.2046    4.5504   12.4268 O   0  0  0  0  0  0  0  0  0  0  0  0
   -7.9882    5.3976   14.4775 C   0  0  1  0  0  0  0  0  0  0  0  0
   -8.7865    6.4582   14.9980 O   0  0  0  0  0  0  0  0  0  0  0  0
   -8.8252    4.1873   14.1027 C   0  0  1  0  0  0  0  0  0  0  0  0
  -10.1176    4.6043   13.6553 O   0  0  0  0  0  0  0  0  0  0  0  0
   -8.0934    3.5452   12.9388 C   0  0  2  0  0  0  0  0  0  0  0  0
   -4.8882    6.1982   19.2491 C   0  0  1  0  0  0  0  0  0  0  0  0
   -6.9509   -1.6084   12.3656 N   0  0  0  0  0  0  0  0  0  0  0  0
   -7.8309   -0.8421   11.6649 C   0  0  1  0  0  0  0  0  0  0  0  0
   -4.2335    5.7509   17.9730 C   0  0  2  0  0  0  0  0  0  0  0  0
   -8.5406   -1.4279   10.6730 N   0  0  0  0  0  0  0  0  0  0  0  0
   -2.8857    6.2219   18.0234 O   0  0  0  0  0  0  0  0  0  0  0  0
   -5.0313    6.4235   16.8735 C   0  0  2  0  0  0  0  0  0  0  0  0
   -8.0260    0.4850   11.9246 N   0  0  0  0  0  0  0  0  0  0  0  0
   -4.1968    6.8551   15.8072 O   0  0  0  0  0  0  0  0  0  0  0  0
   -7.3376    1.1194   12.9072 C   0  0  2  0  0  0  0  0  0  0  0  0
   -5.6820    7.6193   17.5408 C   0  0  2  0  0  0  0  0  0  0  0  0
   -5.7091    7.3226   18.9360 O   0  0  0  0  0  0  0  0  0  0  0  0
   -6.3741    0.3346   13.6985 C   0  0  1  0  0  0  0  0  0  0  0  0
   -7.1021    7.8726   17.0470 C   0  0  0  0  0  0  0  0  0  0  0  0
   -7.9141    6.7386   17.3580 O   0  0  0  0  0  0  0  0  0  0  0  0
   -6.2073   -1.0926   13.3708 C   0  0  0  0  0  0  0  0  0  0  0  0
   -5.3348   -1.8649   14.0668 O   0  0  0  0  0  0  0  0  0  0  0  0
   -5.8362    1.1691   14.5948 N   0  0  0  0  0  0  0  0  0  0  0  0
   -6.4054    2.3947   14.4017 C   0  0  0  0  0  0  0  0  0  0  0  0
   -7.3041    2.3704   13.3951 N   0  0  1  0  0  0  0  0  0  0  0  0
   -4.6875    1.6179   21.7689 N   0  0  0  0  0  0  0  0  0  0  0  0
   -9.9326    4.8459   16.9934 O   0  5  0  0  0  0  0  0  0  0  0  0
   -3.6759    2.4239   21.3447 C   0  0  2  0  0  0  0  0  0  0  0  0
   -2.3899    2.0537   21.5794 N   0  0  0  0  0  0  0  0  0  0  0  0
  -10.4483    7.7038   16.9251 O   0  0  0  0  0  0  0  0  0  0  0  0
   -3.9115    3.5940   20.6909 N   0  0  0  0  0  0  0  0  0  0  0  0
   -5.1706    4.0193   20.4339 C   0  0  2  0  0  0  0  0  0  0  0  0
   -6.3044    3.1908   20.8648 C   0  0  2  0  0  0  0  0  0  0  0  0
   -5.9854    1.9282   21.5649 C   0  0  0  0  0  0  0  0  0  0  0  0
   -6.9655    1.0970   21.9974 O   0  0  0  0  0  0  0  0  0  0  0  0
   -7.4224    3.8359   20.4771 N   0  0  0  0  0  0  0  0  0  0  0  0
   -7.0341    4.9873   19.8522 C   0  0  0  0  0  0  0  0  0  0  0  0
   -5.6859    5.0902   19.8272 N   0  0  1  0  0  0  0  0  0  0  0  0
  1  3  1  1  0  0  0
  1  4  2  0  0  0  0
  1  6  1  0  0  0  0
  1 22  1  0  0  0  0
  2 28  1  0  0  0  0
  2 35  1  1  0  0  0
  2 38  2  0  0  0  0
  2 10  1  0  0  0  0
  5  6  1  0  0  0  0
  7  5  1  1  0  0  0
  7  8  1  0  0  0  0
  7  9  1  0  0  0  0
  9 10  1  6  0  0  0
  9 11  1  0  0  0  0
 11 12  1  6  0  0  0
 11 13  1  0  0  0  0
 13  8  1  1  0  0  0
 13 33  1  0  0  0  0
 14 46  1  0  0  0  0
 14 17  1  0  0  0  0
 14 25  1  6  0  0  0
 15 16  1  0  0  0  0
 15 29  1  0  0  0  0
 16 18  1  1  0  0  0
 16 21  1  0  0  0  0
 17 19  1  1  0  0  0
 17 20  1  0  0  0  0
 20 22  1  6  0  0  0
 20 24  1  0  0  0  0
 23 21  1  1  0  0  0
 23 26  1  0  0  0  0
 23 33  1  0  0  0  0
 24 25  1  1  0  0  0
 24 27  1  0  0  0  0
 26 29  1  6  0  0  0
 26 31  1  0  0  0  0
 27 28  1  0  0  0  0
 29 30  2  0  0  0  0
 31 32  1  0  0  0  0
 33 32  1  6  0  0  0
 34 36  1  0  0  0  0
 34 42  1  0  0  0  0
 36 37  1  1  0  0  0
 36 39  1  0  0  0  0
 40 39  1  6  0  0  0
 40 41  1  0  0  0  0
 40 46  1  0  0  0  0
 41 42  1  6  0  0  0
 41 44  1  0  0  0  0
 42 43  2  0  0  0  0
 44 45  1  0  0  0  0
 46 45  1  1  0  0  0
M  CHG  2   3  -1  35  -1
M  END
>  <CHROM.1>
-116.57332985,73.73311220,-6.34697463,4.07090568,16.22826353,0.76771204,-1.20895097
0.36253323

>  <Name>
ligand

>  <RI>
-1

>  <Rbt.Current_Directory>
/home/itssahil/PROJECTS/Mol_Feturizer/Test_systems_manuscript/rnas/3mum

>  <Rbt.Executable>
rbdock ($Id: //depot/dev/client3/rdock/2013.1/src/exe/rbdock.cxx#4 $)

>  <Rbt.Library>
libRbt.so (2013.1, Build901 2013/11/27)

>  <Rbt.Parameter_File>
/export/apps/rDock/src/rDock_2013.1_src/data/scripts/dock_solv.prm

>  <Rbt.Receptor>
prm/pocket_docking_5.prm

>  <SCORE>
-24.8623

>  <SCORE.INTER>
-24.695

>  <SCORE.INTER.CONST>
1

>  <SCORE.INTER.POLAR>
0

>  <SCORE.INTER.ROT>
2

>  <SCORE.INTER.SOLV>
16.6425

>  <SCORE.INTER.VDW>
-26.9442

>  <SCORE.INTER.norm>
-0.536848

>  <SCORE.INTRA>
-0.220493

>  <SCORE.INTRA.DIHEDRAL>
0.0128045

>  <SCORE.INTRA.DIHEDRAL.0>
2.40424

>  <SCORE.INTRA.POLAR>
0

>  <SCORE.INTRA.POLAR.0>
0

>  <SCORE.INTRA.REPUL>
0

>  <SCORE.INTRA.REPUL.0>
0

>  <SCORE.INTRA.SOLV>
-0.000518511

>  <SCORE.INTRA.SOLV.lig_0>
-134.169

>  <SCORE.INTRA.VDW>
-0.226636

>  <SCORE.INTRA.VDW.0>
-2.18386

>  <SCORE.INTRA.norm>
-0.00479332

>  <SCORE.RESTR>
0.0531815

>  <SCORE.RESTR.CAVITY>
0.0531815

>  <SCORE.RESTR.norm>
0.00115612

>  <SCORE.SYSTEM>
0

>  <SCORE.SYSTEM.CONST>
0

>  <SCORE.SYSTEM.DIHEDRAL>
0

>  <SCORE.SYSTEM.SOLV>
0

>  <SCORE.SYSTEM.norm>
0

>  <SCORE.heavy>
46

>  <SCORE.norm>
-0.540486

>  <RMSD>
4.794

$$$$
ligand
 OpenBabel02271912143D
libRbt.so/2013.1/901 2013/11/27
 46 52  0  0  0  0  0  0  0  0999 V2000
   -3.7129    5.8230   14.6623 P   0  0  1  0  0  0  0  0  0  0  0  0
   -9.2687    6.3976   16.5275 P   0  0  2  0  0  0  0  0  0  0  0  0
   -2.9761    4.3734   15.3677 O   0  5  0  0  0  0  0  0  0  0  0  0
   -2.6096    6.6313   13.5183 O   0  0  0  0  0  0  0  0  0  0  0  0
   -5.9437    6.3634   13.3375 C   0  0  0  0  0  0  0  0  0  0  0  0
   -5.0735    5.3893   13.9138 O   0  0  0  0  0  0  0  0  0  0  0  0
   -7.3147    5.7403   13.1565 C   0  0  1  0  0  0  0  0  0  0  0  0
   -7.1891    4.5146   12.4219 O   0  0  0  0  0  0  0  0  0  0  0  0
   -7.9803    5.3620   14.4696 C   0  0  1  0  0  0  0  0  0  0  0  0
   -8.7876    6.4176   14.9865 O   0  0  0  0  0  0  0  0  0  0  0  0
   -8.8071    4.1434   14.0987 C   0  0  1  0  0  0  0  0  0  0  0  0
  -10.1028    4.5482   13.6496 O   0  0  0  0  0  0  0  0  0  0  0  0
   -8.0696    3.5036   12.9371 C   0  0  2  0  0  0  0  0  0  0  0  0
   -4.8885    6.2042   19.2394 C   0  0  1  0  0  0  0  0  0  0  0  0
   -6.8812   -1.6411   12.3786 N   0  0  0  0  0  0  0  0  0  0  0  0
   -7.7668   -0.8844   11.6747 C   0  0  1  0  0  0  0  0  0  0  0  0
   -4.2298    5.7582   17.9649 C   0  0  2  0  0  0  0  0  0  0  0  0
   -8.4700   -1.4790   10.6834 N   0  0  0  0  0  0  0  0  0  0  0  0
   -2.8859    6.2406   18.0141 O   0  0  0  0  0  0  0  0  0  0  0  0
   -5.0328    6.4205   16.8629 C   0  0  2  0  0  0  0  0  0  0  0  0
   -7.9739    0.4416   11.9308 N   0  0  0  0  0  0  0  0  0  0  0  0
   -4.2017    6.8555   15.7954 O   0  0  0  0  0  0  0  0  0  0  0  0
   -7.2926    1.0845   12.9127 C   0  0  2  0  0  0  0  0  0  0  0  0
   -5.6937    7.6130   17.5261 C   0  0  2  0  0  0  0  0  0  0  0  0
   -5.7187    7.3207   18.9222 O   0  0  0  0  0  0  0  0  0  0  0  0
   -6.3233    0.3103   13.7073 C   0  0  1  0  0  0  0  0  0  0  0  0
   -7.1156    7.8528   17.0312 C   0  0  0  0  0  0  0  0  0  0  0  0
   -7.9182    6.7131   17.3457 O   0  0  0  0  0  0  0  0  0  0  0  0
   -6.1435   -1.1162   13.3835 C   0  0  0  0  0  0  0  0  0  0  0  0
   -5.2652   -1.8791   14.0826 O   0  0  0  0  0  0  0  0  0  0  0  0
   -5.7939    1.1517   14.6022 N   0  0  0  0  0  0  0  0  0  0  0  0
   -6.3736    2.3718   14.4052 C   0  0  0  0  0  0  0  0  0  0  0  0
   -7.2707    2.3370   13.3974 N   0  0  1  0  0  0  0  0  0  0  0  0
   -4.6523    1.6576   21.8163 N   0  0  0  0  0  0  0  0  0  0  0  0
   -9.9208    4.8024   16.9869 O   0  5  0  0  0  0  0  0  0  0  0  0
   -3.6474    2.4733   21.3949 C   0  0  2  0  0  0  0  0  0  0  0  0
   -2.3591    2.1250   21.6499 N   0  0  0  0  0  0  0  0  0  0  0  0
  -10.4603    7.6556   16.9089 O   0  0  0  0  0  0  0  0  0  0  0  0
   -3.8919    3.6321   20.7242 N   0  0  0  0  0  0  0  0  0  0  0  0
   -5.1538    4.0357   20.4467 C   0  0  2  0  0  0  0  0  0  0  0  0
   -6.2806    3.1956   20.8736 C   0  0  2  0  0  0  0  0  0  0  0  0
   -5.9519    1.9463   21.5928 C   0  0  0  0  0  0  0  0  0  0  0  0
   -6.9252    1.1059   22.0232 O   0  0  0  0  0  0  0  0  0  0  0  0
   -7.4030    3.8196   20.4645 N   0  0  0  0  0  0  0  0  0  0  0  0
   -7.0238    4.9691   19.8306 C   0  0  0  0  0  0  0  0  0  0  0  0
   -5.6771    5.0915   19.8209 N   0  0  1  0  0  0  0  0  0  0  0  0
  1  3  1  1  0  0  0
  1  4  2  0  0  0  0
  1  6  1  0  0  0  0
  1 22  1  0  0  0  0
  2 28  1  0  0  0  0
  2 35  1  1  0  0  0
  2 38  2  0  0  0  0
  2 10  1  0  0  0  0
  5  6  1  0  0  0  0
  7  5  1  1  0  0  0
  7  8  1  0  0  0  0
  7  9  1  0  0  0  0
  9 10  1  6  0  0  0
  9 11  1  0  0  0  0
 11 12  1  6  0  0  0
 11 13  1  0  0  0  0
 13  8  1  1  0  0  0
 13 33  1  0  0  0  0
 14 46  1  0  0  0  0
 14 17  1  0  0  0  0
 14 25  1  6  0  0  0
 15 16  1  0  0  0  0
 15 29  1  0  0  0  0
 16 18  1  1  0  0  0
 16 21  1  0  0  0  0
 17 19  1  1  0  0  0
 17 20  1  0  0  0  0
 20 22  1  6  0  0  0
 20 24  1  0  0  0  0
 23 21  1  1  0  0  0
 23 26  1  0  0  0  0
 23 33  1  0  0  0  0
 24 25  1  1  0  0  0
 24 27  1  0  0  0  0
 26 29  1  6  0  0  0
 26 31  1  0  0  0  0
 27 28  1  0  0  0  0
 29 30  2  0  0  0  0
 31 32  1  0  0  0  0
 33 32  1  6  0  0  0
 34 36  1  0  0  0  0
 34 42  1  0  0  0  0
 36 37  1  1  0  0  0
 36 39  1  0  0  0  0
 40 39  1  6  0  0  0
 40 41  1  0  0  0  0
 40 46  1  0  0  0  0
 41 42  1  6  0  0  0
 41 44  1  0  0  0  0
 42 43  2  0  0  0  0
 44 45  1  0  0  0  0
 46 45  1  1  0  0  0
M  CHG  2   3  -1  35  -1
M  END
>  <CHROM.1>
-116.49149940,74.65837333,-6.32852760,4.05751967,16.22950314,0.78445016,-1.20806552
0.37850426

>  <Name>
ligand

>  <RI>
-1

>  <Rbt.Current_Directory>
/home/itssahil/PROJECTS/Mol_Feturizer/Test_systems_manuscript/rnas/3mum

>  <Rbt.Executable>
rbdock ($Id: //depot/dev/client3/rdock/2013.1/src/exe/rbdock.cxx#4 $)

>  <Rbt.Library>
libRbt.so (2013.1, Build901 2013/11/27)

>  <Rbt.Parameter_File>
/export/apps/rDock/src/rDock_2013.1_src/data/scripts/dock_solv.prm

>  <Rbt.Receptor>
prm/pocket_docking_7.prm

>  <SCORE>
-25.0445

>  <SCORE.INTER>
-24.8199

>  <SCORE.INTER.CONST>
1

>  <SCORE.INTER.POLAR>
0

>  <SCORE.INTER.ROT>
2

>  <SCORE.INTER.SOLV>
16.3055

>  <SCORE.INTER.VDW>
-26.9151

>  <SCORE.INTER.norm>
-0.539563

>  <SCORE.INTRA>
-0.224612

>  <SCORE.INTRA.DIHEDRAL>
0.0137931

>  <SCORE.INTRA.DIHEDRAL.0>
2.40424

>  <SCORE.INTRA.POLAR>
0

>  <SCORE.INTRA.POLAR.0>
0

>  <SCORE.INTRA.REPUL>
0

>  <SCORE.INTRA.REPUL.0>
0

>  <SCORE.INTRA.SOLV>
0.00145437

>  <SCORE.INTRA.SOLV.lig_0>
-134.169

>  <SCORE.INTRA.VDW>
-0.232235

>  <SCORE.INTRA.VDW.0>
-2.18386

>  <SCORE.INTRA.norm>
-0.00488286

>  <SCORE.RESTR>
0

>  <SCORE.RESTR.CAVITY>
0

>  <SCORE.RESTR.norm>
0

>  <SCORE.SYSTEM>
0

>  <SCORE.SYSTEM.CONST>
0

>  <SCORE.SYSTEM.DIHEDRAL>
0

>  <SCORE.SYSTEM.SOLV>
0

>  <SCORE.SYSTEM.norm>
0

>  <SCORE.heavy>
46

>  <SCORE.norm>
-0.544446

>  <RMSD>
4.806

$$$$
ligand
 OpenBabel02271912143D
libRbt.so/2013.1/901 2013/11/27
 46 52  0  0  0  0  0  0  0  0999 V2000
   -8.8514    6.8171   16.1656 P   0  0  1  0  0  0  0  0  0  0  0  0
   -3.3455    5.5192   14.5297 P   0  0  2  0  0  0  0  0  0  0  0  0
   -9.6441    5.3835   16.8424 O   0  5  0  0  0  0  0  0  0  0  0  0
   -9.8986    8.2567   16.2663 O   0  0  0  0  0  0  0  0  0  0  0  0
   -6.5677    8.0957   16.5820 C   0  0  0  0  0  0  0  0  0  0  0  0
   -7.4785    7.0680   16.9727 O   0  0  0  0  0  0  0  0  0  0  0  0
   -5.2067    7.7875   17.1764 C   0  0  1  0  0  0  0  0  0  0  0  0
   -5.3378    7.5850   18.5905 O   0  0  0  0  0  0  0  0  0  0  0  0
   -4.5921    6.5063   16.6366 C   0  0  1  0  0  0  0  0  0  0  0  0
   -3.7770    6.7427   15.4908 O   0  0  0  0  0  0  0  0  0  0  0  0
   -3.7829    5.9897   17.8131 C   0  0  1  0  0  0  0  0  0  0  0  0
   -2.4644    6.5420   17.7818 O   0  0  0  0  0  0  0  0  0  0  0  0
   -4.4980    6.5122   19.0452 C   0  0  2  0  0  0  0  0  0  0  0  0
   -7.8127    3.4722   12.9704 C   0  0  1  0  0  0  0  0  0  0  0  0
   -5.0502    1.3896   20.3283 N   0  0  0  0  0  0  0  0  0  0  0  0
   -4.0109    2.0106   19.7065 C   0  0  1  0  0  0  0  0  0  0  0  0
   -8.4411    4.2016   14.1238 C   0  0  2  0  0  0  0  0  0  0  0  0
   -2.9443    1.2622   19.3420 N   0  0  0  0  0  0  0  0  0  0  0  0
   -9.7741    4.5217   13.7217 O   0  0  0  0  0  0  0  0  0  0  0  0
   -7.5882    5.4413   14.3074 C   0  0  2  0  0  0  0  0  0  0  0  0
   -4.0046    3.3497   19.4355 N   0  0  0  0  0  0  0  0  0  0  0  0
   -8.3746    6.5748   14.6481 O   0  0  0  0  0  0  0  0  0  0  0  0
   -5.0489    4.1438   19.7824 C   0  0  2  0  0  0  0  0  0  0  0  0
   -6.9208    5.6568   12.9633 C   0  0  2  0  0  0  0  0  0  0  0  0
   -6.9469    4.3911   12.3055 O   0  0  0  0  0  0  0  0  0  0  0  0
   -6.2018    3.5209   20.4557 C   0  0  1  0  0  0  0  0  0  0  0  0
   -5.4786    6.1353   13.0884 C   0  0  0  0  0  0  0  0  0  0  0  0
   -4.7134    5.1393   13.7700 O   0  0  0  0  0  0  0  0  0  0  0  0
   -6.1499    2.0722   20.7213 C   0  0  0  0  0  0  0  0  0  0  0  0
   -7.1834    1.4443   21.3375 O   0  0  0  0  0  0  0  0  0  0  0  0
   -7.0901    4.4941   20.6857 N   0  0  0  0  0  0  0  0  0  0  0  0
   -6.5576    5.6534   20.1999 C   0  0  0  0  0  0  0  0  0  0  0  0
   -5.3383    5.4495   19.6582 N   0  0  1  0  0  0  0  0  0  0  0  0
   -6.9526   -1.6442   12.2990 N   0  0  0  0  0  0  0  0  0  0  0  0
   -2.7460    4.1290   15.4724 O   0  5  0  0  0  0  0  0  0  0  0  0
   -7.7805   -0.8036   11.6202 C   0  0  2  0  0  0  0  0  0  0  0  0
   -8.5260   -1.2917   10.5946 N   0  0  0  0  0  0  0  0  0  0  0  0
   -2.1373    5.9733   13.3122 O   0  0  0  0  0  0  0  0  0  0  0  0
   -7.8860    0.5160   11.9363 N   0  0  0  0  0  0  0  0  0  0  0  0
   -7.1644    1.0619   12.9429 C   0  0  2  0  0  0  0  0  0  0  0  0
   -6.2551    0.2040   13.7143 C   0  0  2  0  0  0  0  0  0  0  0  0
   -6.1879   -1.2216   13.3280 C   0  0  0  0  0  0  0  0  0  0  0  0
   -5.3792   -2.0903   13.9837 O   0  0  0  0  0  0  0  0  0  0  0  0
   -5.6813    0.9905   14.6462 N   0  0  0  0  0  0  0  0  0  0  0  0
   -6.1807    2.2516   14.4808 C   0  0  0  0  0  0  0  0  0  0  0  0
   -7.0693    2.2874   13.4621 N   0  0  1  0  0  0  0  0  0  0  0  0
  1  3  1  1  0  0  0
  1  4  2  0  0  0  0
  1  6  1  0  0  0  0
  1 22  1  0  0  0  0
  2 28  1  0  0  0  0
  2 35  1  1  0  0  0
  2 38  2  0  0  0  0
  2 10  1  0  0  0  0
  5  6  1  0  0  0  0
  7  5  1  6  0  0  0
  7  8  1  0  0  0  0
  7  9  1  0  0  0  0
  9 10  1  6  0  0  0
  9 11  1  0  0  0  0
 11 12  1  6  0  0  0
 11 13  1  0  0  0  0
 13  8  1  6  0  0  0
 13 33  1  0  0  0  0
 14 46  1  0  0  0  0
 14 17  1  0  0  0  0
 14 25  1  1  0  0  0
 15 16  1  0  0  0  0
 15 29  1  0  0  0  0
 16 18  1  6  0  0  0
 16 21  1  0  0  0  0
 17 19  1  6  0  0  0
 17 20  1  0  0  0  0
 20 22  1  6  0  0  0
 20 24  1  0  0  0  0
 23 21  1  6  0  0  0
 23 26  1  0  0  0  0
 23 33  1  0  0  0  0
 24 25  1  1  0  0  0
 24 27  1  0  0  0  0
 26 29  1  1  0  0  0
 26 31  1  0  0  0  0
 27 28  1  0  0  0  0
 29 30  2  0  0  0  0
 31 32  1  0  0  0  0
 33 32  1  1  0  0  0
 34 36  1  0  0  0  0
 34 42  1  0  0  0  0
 36 37  1  6  0  0  0
 36 39  1  0  0  0  0
 40 39  1  1  0  0  0
 40 41  1  0  0  0  0
 40 46  1  0  0  0  0
 41 42  1  1  0  0  0
 41 44  1  0  0  0  0
 42 43  2  0  0  0  0
 44 45  1  0  0  0  0
 46 45  1  6  0  0  0
M  CHG  2   3  -1  35  -1
M  END
>  <CHROM.1>
155.20341387,132.27407854,-6.10831436,4.10392496,15.92511448,0.97932267,-1.20403609
0.29585407

>  <Name>
ligand

>  <RI>
-1

>  <Rbt.Current_Directory>
/home/itssahil/PROJECTS/Mol_Feturizer/Test_systems_manuscript/rnas/3mum

>  <Rbt.Executable>
rbdock ($Id: //depot/dev/client3/rdock/2013.1/src/exe/rbdock.cxx#4 $)

>  <Rbt.Library>
libRbt.so (2013.1, Build901 2013/11/27)

>  <Rbt.Parameter_File>
/export/apps/rDock/src/rDock_2013.1_src/data/scripts/dock_solv.prm

>  <Rbt.Receptor>
prm/pocket_docking_7.prm

>  <SCORE>
-24.5349

>  <SCORE.INTER>
-24.6188

>  <SCORE.INTER.CONST>
1

>  <SCORE.INTER.POLAR>
0

>  <SCORE.INTER.ROT>
2

>  <SCORE.INTER.SOLV>
17.5167

>  <SCORE.INTER.VDW>
-27.1847

>  <SCORE.INTER.norm>
-0.53519

>  <SCORE.INTRA>
0.0839033

>  <SCORE.INTRA.DIHEDRAL>
-0.0237379

>  <SCORE.INTRA.DIHEDRAL.0>
2.40424

>  <SCORE.INTRA.POLAR>
0

>  <SCORE.INTRA.POLAR.0>
0

>  <SCORE.INTRA.REPUL>
0

>  <SCORE.INTRA.REPUL.0>
0

>  <SCORE.INTRA.SOLV>
0.00870357

>  <SCORE.INTRA.SOLV.lig_0>
-134.169

>  <SCORE.INTRA.VDW>
0.0914205

>  <SCORE.INTRA.VDW.0>
-2.18386

>  <SCORE.INTRA.norm>
0.00182399

>  <SCORE.RESTR>
0

>  <SCORE.RESTR.CAVITY>
0

>  <SCORE.RESTR.norm>
0

>  <SCORE.SYSTEM>
0

>  <SCORE.SYSTEM.CONST>
0

>  <SCORE.SYSTEM.DIHEDRAL>
0

>  <SCORE.SYSTEM.SOLV>
0

>  <SCORE.SYSTEM.norm>
0

>  <SCORE.heavy>
46

>  <SCORE.norm>
-0.533366

>  <RMSD>
4.813

$$$$
ligand
 OpenBabel02271912143D
libRbt.so/2013.1/901 2013/11/27
 46 52  0  0  0  0  0  0  0  0999 V2000
   -3.6751    5.9098   14.6998 P   0  0  1  0  0  0  0  0  0  0  0  0
   -9.2341    6.5265   16.5420 P   0  0  2  0  0  0  0  0  0  0  0  0
   -2.9578    4.4453   15.3943 O   0  5  0  0  0  0  0  0  0  0  0  0
   -2.5570    6.7175   13.5698 O   0  0  0  0  0  0  0  0  0  0  0  0
   -5.8928    6.4880   13.3691 C   0  0  0  0  0  0  0  0  0  0  0  0
   -5.0363    5.4986   13.9400 O   0  0  0  0  0  0  0  0  0  0  0  0
   -7.2696    5.8818   13.1747 C   0  0  1  0  0  0  0  0  0  0  0  0
   -7.1535    4.6622   12.4284 O   0  0  0  0  0  0  0  0  0  0  0  0
   -7.9462    5.4976   14.4804 C   0  0  1  0  0  0  0  0  0  0  0  0
   -8.7446    6.5568   15.0037 O   0  0  0  0  0  0  0  0  0  0  0  0
   -8.7842    4.2920   14.0929 C   0  0  1  0  0  0  0  0  0  0  0  0
  -10.0731    4.7154   13.6412 O   0  0  0  0  0  0  0  0  0  0  0  0
   -8.0477    3.6558   12.9288 C   0  0  2  0  0  0  0  0  0  0  0  0
   -4.8706    6.2579   19.2744 C   0  0  1  0  0  0  0  0  0  0  0  0
   -6.9636   -1.5119   12.3706 N   0  0  0  0  0  0  0  0  0  0  0  0
   -7.8452   -0.7410   11.6772 C   0  0  1  0  0  0  0  0  0  0  0  0
   -4.2100    5.8175   17.9988 C   0  0  2  0  0  0  0  0  0  0  0  0
   -8.5737   -1.3255   10.6983 N   0  0  0  0  0  0  0  0  0  0  0  0
   -2.8612    6.2847   18.0598 O   0  0  0  0  0  0  0  0  0  0  0  0
   -4.9999    6.4996   16.8995 C   0  0  2  0  0  0  0  0  0  0  0  0
   -8.0238    0.5894   11.9317 N   0  0  0  0  0  0  0  0  0  0  0  0
   -4.1585    6.9362   15.8408 O   0  0  0  0  0  0  0  0  0  0  0  0
   -7.3163    1.2226   12.9013 C   0  0  2  0  0  0  0  0  0  0  0  0
   -5.6512    7.6925   17.5713 C   0  0  2  0  0  0  0  0  0  0  0  0
   -5.6868    7.3865   18.9643 O   0  0  0  0  0  0  0  0  0  0  0  0
   -6.3500    0.4329   13.6844 C   0  0  1  0  0  0  0  0  0  0  0  0
   -7.0679    7.9529   17.0715 C   0  0  0  0  0  0  0  0  0  0  0  0
   -7.8845    6.8189   17.3703 O   0  0  0  0  0  0  0  0  0  0  0  0
   -6.2016   -0.9978   13.3629 C   0  0  0  0  0  0  0  0  0  0  0  0
   -5.3276   -1.7747   14.0518 O   0  0  0  0  0  0  0  0  0  0  0  0
   -5.7921    1.2671   14.5686 N   0  0  0  0  0  0  0  0  0  0  0  0
   -6.3518    2.4972   14.3759 C   0  0  0  0  0  0  0  0  0  0  0  0
   -7.2640    2.4759   13.3814 N   0  0  1  0  0  0  0  0  0  0  0  0
   -4.6948    1.6493   21.7439 N   0  0  0  0  0  0  0  0  0  0  0  0
   -9.9059    4.9340   16.9819 O   0  5  0  0  0  0  0  0  0  0  0  0
   -3.6788    2.4543   21.3283 C   0  0  2  0  0  0  0  0  0  0  0  0
   -2.3948    2.0744   21.5585 N   0  0  0  0  0  0  0  0  0  0  0  0
  -10.4138    7.7937   16.9300 O   0  0  0  0  0  0  0  0  0  0  0  0
   -3.9080    3.6328   20.6873 N   0  0  0  0  0  0  0  0  0  0  0  0
   -5.1648    4.0679   20.4354 C   0  0  2  0  0  0  0  0  0  0  0  0
   -6.3031    3.2410   20.8575 C   0  0  2  0  0  0  0  0  0  0  0  0
   -5.9909    1.9691   21.5437 C   0  0  0  0  0  0  0  0  0  0  0  0
   -6.9756    1.1387   21.9674 O   0  0  0  0  0  0  0  0  0  0  0  0
   -7.4175    3.8965   20.4772 N   0  0  0  0  0  0  0  0  0  0  0  0
   -7.0230    5.0525   19.8648 C   0  0  0  0  0  0  0  0  0  0  0  0
   -5.6743    5.1481   19.8405 N   0  0  1  0  0  0  0  0  0  0  0  0
  1  3  1  1  0  0  0
  1  4  2  0  0  0  0
  1  6  1  0  0  0  0
  1 22  1  0  0  0  0
  2 28  1  0  0  0  0
  2 35  1  1  0  0  0
  2 38  2  0  0  0  0
  2 10  1  0  0  0  0
  5  6  1  0  0  0  0
  7  5  1  1  0  0  0
  7  8  1  0  0  0  0
  7  9  1  0  0  0  0
  9 10  1  6  0  0  0
  9 11  1  0  0  0  0
 11 12  1  6  0  0  0
 11 13  1  0  0  0  0
 13  8  1  1  0  0  0
 13 33  1  0  0  0  0
 14 46  1  0  0  0  0
 14 17  1  0  0  0  0
 14 25  1  6  0  0  0
 15 16  1  0  0  0  0
 15 29  1  0  0  0  0
 16 18  1  1  0  0  0
 16 21  1  0  0  0  0
 17 19  1  1  0  0  0
 17 20  1  0  0  0  0
 20 22  1  6  0  0  0
 20 24  1  0  0  0  0
 23 21  1  1  0  0  0
 23 26  1  0  0  0  0
 23 33  1  0  0  0  0
 24 25  1  1  0  0  0
 24 27  1  0  0  0  0
 26 29  1  6  0  0  0
 26 31  1  0  0  0  0
 27 28  1  0  0  0  0
 29 30  2  0  0  0  0
 31 32  1  0  0  0  0
 33 32  1  6  0  0  0
 34 36  1  0  0  0  0
 34 42  1  0  0  0  0
 36 37  1  1  0  0  0
 36 39  1  0  0  0  0
 40 39  1  6  0  0  0
 40 41  1  0  0  0  0
 40 46  1  0  0  0  0
 41 42  1  6  0  0  0
 41 44  1  0  0  0  0
 42 43  2  0  0  0  0
 44 45  1  0  0  0  0
 46 45  1  1  0  0  0
M  CHG  2   3  -1  35  -1
M  END
>  <CHROM.1>
-117.93146113,73.29094680,-6.32321618,4.15201199,16.23370602,0.74735222,-1.21463378
0.34412761

>  <Name>
ligand

>  <RI>
-1

>  <Rbt.Current_Directory>
/home/itssahil/PROJECTS/Mol_Feturizer/Test_systems_manuscript/rnas/3mum

>  <Rbt.Executable>
rbdock ($Id: //depot/dev/client3/rdock/2013.1/src/exe/rbdock.cxx#4 $)

>  <Rbt.Library>
libRbt.so (2013.1, Build901 2013/11/27)

>  <Rbt.Parameter_File>
/export/apps/rDock/src/rDock_2013.1_src/data/scripts/dock_solv.prm

>  <Rbt.Receptor>
prm/pocket_docking_5.prm

>  <SCORE>
-24.6975

>  <SCORE.INTER>
-24.4798

>  <SCORE.INTER.CONST>
1

>  <SCORE.INTER.POLAR>
0

>  <SCORE.INTER.ROT>
2

>  <SCORE.INTER.SOLV>
16.3605

>  <SCORE.INTER.VDW>
-26.7067

>  <SCORE.INTER.norm>
-0.532169

>  <SCORE.INTRA>
-0.231089

>  <SCORE.INTRA.DIHEDRAL>
0.0125644

>  <SCORE.INTRA.DIHEDRAL.0>
2.40424

>  <SCORE.INTRA.POLAR>
0

>  <SCORE.INTRA.POLAR.0>
0

>  <SCORE.INTRA.REPUL>
0

>  <SCORE.INTRA.REPUL.0>
0

>  <SCORE.INTRA.SOLV>
0.00303158

>  <SCORE.INTRA.SOLV.lig_0>
-134.169

>  <SCORE.INTRA.VDW>
-0.238887

>  <SCORE.INTRA.VDW.0>
-2.18386

>  <SCORE.INTRA.norm>
-0.00502367

>  <SCORE.RESTR>
0.0133492

>  <SCORE.RESTR.CAVITY>
0.0133492

>  <SCORE.RESTR.norm>
0.000290199

>  <SCORE.SYSTEM>
0

>  <SCORE.SYSTEM.CONST>
0

>  <SCORE.SYSTEM.DIHEDRAL>
0

>  <SCORE.SYSTEM.SOLV>
0

>  <SCORE.SYSTEM.norm>
0

>  <SCORE.heavy>
46

>  <SCORE.norm>
-0.536902

>  <RMSD>
4.822

$$$$
ligand
 OpenBabel02271912143D
libRbt.so/2013.1/901 2013/11/27
 46 52  0  0  0  0  0  0  0  0999 V2000
   -3.6840    5.9491   14.7266 P   0  0  1  0  0  0  0  0  0  0  0  0
   -9.2548    6.5652   16.5330 P   0  0  2  0  0  0  0  0  0  0  0  0
   -2.9680    4.4898   15.4333 O   0  5  0  0  0  0  0  0  0  0  0  0
   -2.5609    6.7526   13.5986 O   0  0  0  0  0  0  0  0  0  0  0  0
   -5.8951    6.5155   13.3797 C   0  0  0  0  0  0  0  0  0  0  0  0
   -5.0400    5.5310   13.9611 O   0  0  0  0  0  0  0  0  0  0  0  0
   -7.2695    5.9056   13.1807 C   0  0  1  0  0  0  0  0  0  0  0  0
   -7.1467    4.6820   12.4419 O   0  0  0  0  0  0  0  0  0  0  0  0
   -7.9530    5.5273   14.4847 C   0  0  1  0  0  0  0  0  0  0  0  0
   -8.7565    6.5878   14.9974 O   0  0  0  0  0  0  0  0  0  0  0  0
   -8.7865    4.3179   14.0990 C   0  0  1  0  0  0  0  0  0  0  0  0
  -10.0735    4.7363   13.6375 O   0  0  0  0  0  0  0  0  0  0  0  0
   -8.0419    3.6767   12.9427 C   0  0  2  0  0  0  0  0  0  0  0  0
   -4.9068    6.3202   19.2921 C   0  0  1  0  0  0  0  0  0  0  0  0
   -6.9023   -1.4787   12.3815 N   0  0  0  0  0  0  0  0  0  0  0  0
   -7.7747   -0.7114   11.6727 C   0  0  1  0  0  0  0  0  0  0  0  0
   -4.2380    5.8741   18.0229 C   0  0  2  0  0  0  0  0  0  0  0  0
   -8.4763   -1.2965   10.6746 N   0  0  0  0  0  0  0  0  0  0  0  0
   -2.8905    6.3441   18.0891 O   0  0  0  0  0  0  0  0  0  0  0  0
   -5.0228    6.5485   16.9152 C   0  0  2  0  0  0  0  0  0  0  0  0
   -7.9701    0.6161   11.9302 N   0  0  0  0  0  0  0  0  0  0  0  0
   -4.1761    6.9808   15.8590 O   0  0  0  0  0  0  0  0  0  0  0  0
   -7.2897    1.2498   12.9187 C   0  0  2  0  0  0  0  0  0  0  0  0
   -5.6803    7.7439   17.5765 C   0  0  2  0  0  0  0  0  0  0  0  0
   -5.7234    7.4455   18.9709 O   0  0  0  0  0  0  0  0  0  0  0  0
   -6.3345    0.4638   13.7189 C   0  0  1  0  0  0  0  0  0  0  0  0
   -7.0945    7.9987   17.0670 C   0  0  0  0  0  0  0  0  0  0  0  0
   -7.9107    6.8648   17.3674 O   0  0  0  0  0  0  0  0  0  0  0  0
   -6.1669   -0.9637   13.3933 C   0  0  0  0  0  0  0  0  0  0  0  0
   -5.3020   -1.7371   14.0973 O   0  0  0  0  0  0  0  0  0  0  0  0
   -5.8034    1.2978   14.6198 N   0  0  0  0  0  0  0  0  0  0  0  0
   -6.3690    2.5243   14.4212 C   0  0  0  0  0  0  0  0  0  0  0  0
   -7.2586    2.5009   13.4065 N   0  0  1  0  0  0  0  0  0  0  0  0
   -4.7347    1.6905   21.7220 N   0  0  0  0  0  0  0  0  0  0  0  0
   -9.9262    4.9739   16.9777 O   0  5  0  0  0  0  0  0  0  0  0  0
   -3.7180    2.4910   21.2996 C   0  0  2  0  0  0  0  0  0  0  0  0
   -2.4341    2.0995   21.5101 N   0  0  0  0  0  0  0  0  0  0  0  0
  -10.4393    7.8322   16.9070 O   0  0  0  0  0  0  0  0  0  0  0  0
   -3.9464    3.6764   20.6712 N   0  0  0  0  0  0  0  0  0  0  0  0
   -5.2029    4.1232   20.4392 C   0  0  2  0  0  0  0  0  0  0  0  0
   -6.3420    3.3016   20.8695 C   0  0  2  0  0  0  0  0  0  0  0  0
   -6.0309    2.0218   21.5413 C   0  0  0  0  0  0  0  0  0  0  0  0
   -7.0163    1.1955   21.9711 O   0  0  0  0  0  0  0  0  0  0  0  0
   -7.4562    3.9687   20.5090 N   0  0  0  0  0  0  0  0  0  0  0  0
   -7.0607    5.1266   19.9008 C   0  0  0  0  0  0  0  0  0  0  0  0
   -5.7117    5.2121   19.8597 N   0  0  1  0  0  0  0  0  0  0  0  0
  1  3  1  1  0  0  0
  1  4  2  0  0  0  0
  1  6  1  0  0  0  0
  1 22  1  0  0  0  0
  2 28  1  0  0  0  0
  2 35  1  1  0  0  0
  2 38  2  0  0  0  0
  2 10  1  0  0  0  0
  5  6  1  0  0  0  0
  7  5  1  1  0  0  0
  7  8  1  0  0  0  0
  7  9  1  0  0  0  0
  9 10  1  6  0  0  0
  9 11  1  0  0  0  0
 11 12  1  6  0  0  0
 11 13  1  0  0  0  0
 13  8  1  1  0  0  0
 13 33  1  0  0  0  0
 14 46  1  0  0  0  0
 14 17  1  0  0  0  0
 14 25  1  6  0  0  0
 15 16  1  0  0  0  0
 15 29  1  0  0  0  0
 16 18  1  1  0  0  0
 16 21  1  0  0  0  0
 17 19  1  1  0  0  0
 17 20  1  0  0  0  0
 20 22  1  6  0  0  0
 20 24  1  0  0  0  0
 23 21  1  1  0  0  0
 23 26  1  0  0  0  0
 23 33  1  0  0  0  0
 24 25  1  1  0  0  0
 24 27  1  0  0  0  0
 26 29  1  6  0  0  0
 26 31  1  0  0  0  0
 27 28  1  0  0  0  0
 29 30  2  0  0  0  0
 31 32  1  0  0  0  0
 33 32  1  6  0  0  0
 34 36  1  0  0  0  0
 34 42  1  0  0  0  0
 36 37  1  1  0  0  0
 36 39  1  0  0  0  0
 40 39  1  6  0  0  0
 40 41  1  0  0  0  0
 40 46  1  0  0  0  0
 41 42  1  6  0  0  0
 41 44  1  0  0  0  0
 42 43  2  0  0  0  0
 44 45  1  0  0  0  0
 46 45  1  1  0  0  0
M  CHG  2   3  -1  35  -1
M  END
>  <CHROM.1>
-116.73906267,71.84872773,-6.33289630,4.19220276,16.24343019,0.78928519,-1.21611396
0.37592154

>  <Name>
ligand

>  <RI>
-1

>  <Rbt.Current_Directory>
/home/itssahil/PROJECTS/Mol_Feturizer/Test_systems_manuscript/rnas/3mum

>  <Rbt.Executable>
rbdock ($Id: //depot/dev/client3/rdock/2013.1/src/exe/rbdock.cxx#4 $)

>  <Rbt.Library>
libRbt.so (2013.1, Build901 2013/11/27)

>  <Rbt.Parameter_File>
/export/apps/rDock/src/rDock_2013.1_src/data/scripts/dock_solv.prm

>  <Rbt.Receptor>
prm/pocket_docking_8.prm

>  <SCORE>
-24.7708

>  <SCORE.INTER>
-24.5811

>  <SCORE.INTER.CONST>
1

>  <SCORE.INTER.POLAR>
0

>  <SCORE.INTER.ROT>
2

>  <SCORE.INTER.SOLV>
15.8344

>  <SCORE.INTER.VDW>
-26.5989

>  <SCORE.INTER.norm>
-0.534372

>  <SCORE.INTRA>
-0.211464

>  <SCORE.INTRA.DIHEDRAL>
0.0106652

>  <SCORE.INTRA.DIHEDRAL.0>
2.40424

>  <SCORE.INTRA.POLAR>
0

>  <SCORE.INTRA.POLAR.0>
0

>  <SCORE.INTRA.REPUL>
0

>  <SCORE.INTRA.REPUL.0>
0

>  <SCORE.INTRA.SOLV>
-0.00487743

>  <SCORE.INTRA.SOLV.lig_0>
-134.169

>  <SCORE.INTRA.VDW>
-0.214358

>  <SCORE.INTRA.VDW.0>
-2.18386

>  <SCORE.INTRA.norm>
-0.00459704

>  <SCORE.RESTR>
0.0217964

>  <SCORE.RESTR.CAVITY>
0.0217964

>  <SCORE.RESTR.norm>
0.000473834

>  <SCORE.SYSTEM>
0

>  <SCORE.SYSTEM.CONST>
0

>  <SCORE.SYSTEM.DIHEDRAL>
0

>  <SCORE.SYSTEM.SOLV>
0

>  <SCORE.SYSTEM.norm>
0

>  <SCORE.heavy>
46

>  <SCORE.norm>
-0.538495

>  <RMSD>
4.827

$$$$
ligand
 OpenBabel02271912143D
libRbt.so/2013.1/901 2013/11/27
 46 52  0  0  0  0  0  0  0  0999 V2000
   -3.6784    6.0657   14.7049 P   0  0  1  0  0  0  0  0  0  0  0  0
   -9.2543    6.5813   16.5270 P   0  0  2  0  0  0  0  0  0  0  0  0
   -2.9342    4.6196   15.4097 O   0  5  0  0  0  0  0  0  0  0  0  0
   -2.5732    6.8893   13.5738 O   0  0  0  0  0  0  0  0  0  0  0  0
   -5.9031    6.5920   13.3643 C   0  0  0  0  0  0  0  0  0  0  0  0
   -5.0287    5.6232   13.9433 O   0  0  0  0  0  0  0  0  0  0  0  0
   -7.2668    5.9574   13.1692 C   0  0  1  0  0  0  0  0  0  0  0  0
   -7.1241    4.7362   12.4301 O   0  0  0  0  0  0  0  0  0  0  0  0
   -7.9397    5.5670   14.4750 C   0  0  1  0  0  0  0  0  0  0  0  0
   -8.7607    6.6128   14.9900 O   0  0  0  0  0  0  0  0  0  0  0  0
   -8.7523    4.3427   14.0917 C   0  0  1  0  0  0  0  0  0  0  0  0
  -10.0479    4.7378   13.6338 O   0  0  0  0  0  0  0  0  0  0  0  0
   -7.9995    3.7150   12.9334 C   0  0  2  0  0  0  0  0  0  0  0  0
   -4.8948    6.4151   19.2739 C   0  0  1  0  0  0  0  0  0  0  0  0
   -6.8389   -1.4422   12.4339 N   0  0  0  0  0  0  0  0  0  0  0  0
   -7.7380   -0.6943   11.7376 C   0  0  1  0  0  0  0  0  0  0  0  0
   -4.2216    5.9810   18.0028 C   0  0  2  0  0  0  0  0  0  0  0  0
   -8.4650   -1.3029   10.7724 N   0  0  0  0  0  0  0  0  0  0  0  0
   -2.8827    6.4753   18.0653 O   0  0  0  0  0  0  0  0  0  0  0  0
   -5.0216    6.6410   16.8973 C   0  0  2  0  0  0  0  0  0  0  0  0
   -7.9354    0.6364   11.9762 N   0  0  0  0  0  0  0  0  0  0  0  0
   -4.1858    7.0885   15.8387 O   0  0  0  0  0  0  0  0  0  0  0  0
   -7.2303    1.2933   12.9317 C   0  0  2  0  0  0  0  0  0  0  0  0
   -5.6987    7.8244   17.5604 C   0  0  2  0  0  0  0  0  0  0  0  0
   -5.7325    7.5254   18.9550 O   0  0  0  0  0  0  0  0  0  0  0  0
   -6.2456    0.5291   13.7171 C   0  0  1  0  0  0  0  0  0  0  0  0
   -7.1187    8.0536   17.0549 C   0  0  0  0  0  0  0  0  0  0  0  0
   -7.9135    6.9052   17.3576 O   0  0  0  0  0  0  0  0  0  0  0  0
   -6.0773   -0.9031   13.4131 C   0  0  0  0  0  0  0  0  0  0  0  0
   -5.1857   -1.6572   14.1049 O   0  0  0  0  0  0  0  0  0  0  0  0
   -5.6938    1.3835   14.5857 N   0  0  0  0  0  0  0  0  0  0  0  0
   -6.2742    2.6021   14.3816 C   0  0  0  0  0  0  0  0  0  0  0  0
   -7.1938    2.5535   13.3950 N   0  0  1  0  0  0  0  0  0  0  0  0
   -4.6331    1.7124   21.5508 N   0  0  0  0  0  0  0  0  0  0  0  0
   -9.8956    4.9782   16.9737 O   0  5  0  0  0  0  0  0  0  0  0  0
   -3.6331    2.5222   21.1068 C   0  0  2  0  0  0  0  0  0  0  0  0
   -2.3427    2.1202   21.2460 N   0  0  0  0  0  0  0  0  0  0  0  0
  -10.4603    7.8267   16.9043 O   0  0  0  0  0  0  0  0  0  0  0  0
   -3.8845    3.7271   20.5260 N   0  0  0  0  0  0  0  0  0  0  0  0
   -5.1483    4.1848   20.3657 C   0  0  2  0  0  0  0  0  0  0  0  0
   -6.2702    3.3540   20.8226 C   0  0  2  0  0  0  0  0  0  0  0  0
   -5.9346    2.0532   21.4401 C   0  0  0  0  0  0  0  0  0  0  0  0
   -6.9031    1.2173   21.8893 O   0  0  0  0  0  0  0  0  0  0  0  0
   -7.3966    4.0355   20.5343 N   0  0  0  0  0  0  0  0  0  0  0  0
   -7.0241    5.2103   19.9442 C   0  0  0  0  0  0  0  0  0  0  0  0
   -5.6780    5.2926   19.8438 N   0  0  1  0  0  0  0  0  0  0  0  0
  1  3  1  1  0  0  0
  1  4  2  0  0  0  0
  1  6  1  0  0  0  0
  1 22  1  0  0  0  0
  2 28  1  0  0  0  0
  2 35  1  1  0  0  0
  2 38  2  0  0  0  0
  2 10  1  0  0  0  0
  5  6  1  0  0  0  0
  7  5  1  1  0  0  0
  7  8  1  0  0  0  0
  7  9  1  0  0  0  0
  9 10  1  6  0  0  0
  9 11  1  0  0  0  0
 11 12  1  6  0  0  0
 11 13  1  0  0  0  0
 13  8  1  1  0  0  0
 13 33  1  0  0  0  0
 14 46  1  0  0  0  0
 14 17  1  0  0  0  0
 14 25  1  6  0  0  0
 15 16  1  0  0  0  0
 15 29  1  0  0  0  0
 16 18  1  1  0  0  0
 16 21  1  0  0  0  0
 17 19  1  1  0  0  0
 17 20  1  0  0  0  0
 20 22  1  6  0  0  0
 20 24  1  0  0  0  0
 23 21  1  1  0  0  0
 23 26  1  0  0  0  0
 23 33  1  0  0  0  0
 24 25  1  1  0  0  0
 24 27  1  0  0  0  0
 26 29  1  6  0  0  0
 26 31  1  0  0  0  0
 27 28  1  0  0  0  0
 29 30  2  0  0  0  0
 31 32  1  0  0  0  0
 33 32  1  6  0  0  0
 34 36  1  0  0  0  0
 34 42  1  0  0  0  0
 36 37  1  1  0  0  0
 36 39  1  0  0  0  0
 40 39  1  6  0  0  0
 40 41  1  0  0  0  0
 40 46  1  0  0  0  0
 41 42  1  6  0  0  0
 41 44  1  0  0  0  0
 42 43  2  0  0  0  0
 44 45  1  0  0  0  0
 46 45  1  1  0  0  0
M  CHG  2   3  -1  35  -1
M  END
>  <CHROM.1>
-118.74017392,68.56555328,-6.29847566,4.25050187,16.21957571,0.82763661,-1.20192361
0.39011928

>  <Name>
ligand

>  <RI>
-1

>  <Rbt.Current_Directory>
/home/itssahil/PROJECTS/Mol_Feturizer/Test_systems_manuscript/rnas/3mum

>  <Rbt.Executable>
rbdock ($Id: //depot/dev/client3/rdock/2013.1/src/exe/rbdock.cxx#4 $)

>  <Rbt.Library>
libRbt.so (2013.1, Build901 2013/11/27)

>  <Rbt.Parameter_File>
/export/apps/rDock/src/rDock_2013.1_src/data/scripts/dock_solv.prm

>  <Rbt.Receptor>
prm/pocket_docking_8.prm

>  <SCORE>
-24.5648

>  <SCORE.INTER>
-24.373

>  <SCORE.INTER.CONST>
1

>  <SCORE.INTER.POLAR>
0

>  <SCORE.INTER.ROT>
2

>  <SCORE.INTER.SOLV>
15.1634

>  <SCORE.INTER.VDW>
-26.2365

>  <SCORE.INTER.norm>
-0.529849

>  <SCORE.INTRA>
-0.202786

>  <SCORE.INTRA.DIHEDRAL>
0.00691301

>  <SCORE.INTRA.DIHEDRAL.0>
2.40424

>  <SCORE.INTRA.POLAR>
0

>  <SCORE.INTRA.POLAR.0>
0

>  <SCORE.INTRA.REPUL>
0

>  <SCORE.INTRA.REPUL.0>
0

>  <SCORE.INTRA.SOLV>
0.0053984

>  <SCORE.INTRA.SOLV.lig_0>
-134.169

>  <SCORE.INTRA.VDW>
-0.208941

>  <SCORE.INTRA.VDW.0>
-2.18386

>  <SCORE.INTRA.norm>
-0.00440839

>  <SCORE.RESTR>
0.0110584

>  <SCORE.RESTR.CAVITY>
0.0110584

>  <SCORE.RESTR.norm>
0.000240401

>  <SCORE.SYSTEM>
0

>  <SCORE.SYSTEM.CONST>
0

>  <SCORE.SYSTEM.DIHEDRAL>
0

>  <SCORE.SYSTEM.SOLV>
0

>  <SCORE.SYSTEM.norm>
0

>  <SCORE.heavy>
46

>  <SCORE.norm>
-0.534017

>  <RMSD>
4.873

$$$$
ligand
 OpenBabel02271912143D
libRbt.so/2013.1/901 2013/11/27
 46 52  0  0  0  0  0  0  0  0999 V2000
   -3.5726    5.6933   14.5289 P   0  0  1  0  0  0  0  0  0  0  0  0
   -9.0537    6.5496   16.5038 P   0  0  2  0  0  0  0  0  0  0  0  0
   -2.8862    4.2232   15.2428 O   0  5  0  0  0  0  0  0  0  0  0  0
   -2.4598    6.4322   13.3478 O   0  0  0  0  0  0  0  0  0  0  0  0
   -5.8058    6.3132   13.2437 C   0  0  0  0  0  0  0  0  0  0  0  0
   -4.9676    5.3099   13.8176 O   0  0  0  0  0  0  0  0  0  0  0  0
   -7.2072    5.7502   13.1030 C   0  0  1  0  0  0  0  0  0  0  0  0
   -7.1534    4.5083   12.3869 O   0  0  0  0  0  0  0  0  0  0  0  0
   -7.8597    5.4236   14.4365 C   0  0  1  0  0  0  0  0  0  0  0  0
   -8.6068    6.5230   14.9526 O   0  0  0  0  0  0  0  0  0  0  0  0
   -8.7486    4.2381   14.1043 C   0  0  1  0  0  0  0  0  0  0  0  0
  -10.0345    4.6940   13.6765 O   0  0  0  0  0  0  0  0  0  0  0  0
   -8.0669    3.5469   12.9381 C   0  0  2  0  0  0  0  0  0  0  0  0
   -4.6271    6.2009   19.1232 C   0  0  1  0  0  0  0  0  0  0  0  0
   -7.0024   -1.6197   12.3334 N   0  0  0  0  0  0  0  0  0  0  0  0
   -7.8495   -0.8295   11.6190 C   0  0  1  0  0  0  0  0  0  0  0  0
   -4.0178    5.7051   17.8425 C   0  0  2  0  0  0  0  0  0  0  0  0
   -8.5430   -1.3908   10.6018 N   0  0  0  0  0  0  0  0  0  0  0  0
   -2.6528    6.1266   17.8544 O   0  0  0  0  0  0  0  0  0  0  0  0
   -4.8146    6.3854   16.7471 C   0  0  2  0  0  0  0  0  0  0  0  0
   -8.0275    0.4979   11.8894 N   0  0  0  0  0  0  0  0  0  0  0  0
   -3.9888    6.7650   15.6546 O   0  0  0  0  0  0  0  0  0  0  0  0
   -7.3543    1.1082   12.8973 C   0  0  2  0  0  0  0  0  0  0  0  0
   -5.4060    7.6171   17.4039 C   0  0  2  0  0  0  0  0  0  0  0  0
   -5.4130    7.3487   18.8051 O   0  0  0  0  0  0  0  0  0  0  0  0
   -6.4264    0.2969   13.7043 C   0  0  1  0  0  0  0  0  0  0  0  0
   -6.8265    7.9133   16.9359 C   0  0  0  0  0  0  0  0  0  0  0  0
   -7.6724    6.8165   17.2870 O   0  0  0  0  0  0  0  0  0  0  0  0
   -6.2766   -1.1292   13.3640 C   0  0  0  0  0  0  0  0  0  0  0  0
   -5.4369   -1.9253   14.0734 O   0  0  0  0  0  0  0  0  0  0  0  0
   -5.8976    1.1110   14.6244 N   0  0  0  0  0  0  0  0  0  0  0  0
   -6.4393    2.3490   14.4311 C   0  0  0  0  0  0  0  0  0  0  0  0
   -7.3113    2.3527   13.4009 N   0  0  1  0  0  0  0  0  0  0  0  0
   -4.5434    1.5821   21.5783 N   0  0  0  0  0  0  0  0  0  0  0  0
   -9.7666    4.9932   17.0043 O   0  5  0  0  0  0  0  0  0  0  0  0
   -3.5140    2.3320   21.0977 C   0  0  2  0  0  0  0  0  0  0  0  0
   -2.2404    1.8823   21.2449 N   0  0  0  0  0  0  0  0  0  0  0  0
  -10.1785    7.8664   16.8894 O   0  0  0  0  0  0  0  0  0  0  0  0
   -3.7197    3.5232   20.4723 N   0  0  0  0  0  0  0  0  0  0  0  0
   -4.9645    4.0266   20.3017 C   0  0  2  0  0  0  0  0  0  0  0  0
   -6.1165    3.2614   20.7968 C   0  0  2  0  0  0  0  0  0  0  0  0
   -5.8304    1.9723   21.4620 C   0  0  0  0  0  0  0  0  0  0  0  0
   -6.8294    1.1953   21.9487 O   0  0  0  0  0  0  0  0  0  0  0  0
   -7.2158    3.9776   20.4889 N   0  0  0  0  0  0  0  0  0  0  0  0
   -6.7994    5.1124   19.8517 C   0  0  0  0  0  0  0  0  0  0  0  0
   -5.4518    5.1347   19.7405 N   0  0  1  0  0  0  0  0  0  0  0  0
  1  3  1  1  0  0  0
  1  4  2  0  0  0  0
  1  6  1  0  0  0  0
  1 22  1  0  0  0  0
  2 28  1  0  0  0  0
  2 35  1  1  0  0  0
  2 38  2  0  0  0  0
  2 10  1  0  0  0  0
  5  6  1  0  0  0  0
  7  5  1  1  0  0  0
  7  8  1  0  0  0  0
  7  9  1  0  0  0  0
  9 10  1  6  0  0  0
  9 11  1  0  0  0  0
 11 12  1  6  0  0  0
 11 13  1  0  0  0  0
 13  8  1  1  0  0  0
 13 33  1  0  0  0  0
 14 46  1  0  0  0  0
 14 17  1  0  0  0  0
 14 25  1  6  0  0  0
 15 16  1  0  0  0  0
 15 29  1  0  0  0  0
 16 18  1  1  0  0  0
 16 21  1  0  0  0  0
 17 19  1  1  0  0  0
 17 20  1  0  0  0  0
 20 22  1  6  0  0  0
 20 24  1  0  0  0  0
 23 21  1  1  0  0  0
 23 26  1  0  0  0  0
 23 33  1  0  0  0  0
 24 25  1  1  0  0  0
 24 27  1  0  0  0  0
 26 29  1  6  0  0  0
 26 31  1  0  0  0  0
 27 28  1  0  0  0  0
 29 30  2  0  0  0  0
 31 32  1  0  0  0  0
 33 32  1  6  0  0  0
 34 36  1  0  0  0  0
 34 42  1  0  0  0  0
 36 37  1  1  0  0  0
 36 39  1  0  0  0  0
 40 39  1  6  0  0  0
 40 41  1  0  0  0  0
 40 46  1  0  0  0  0
 41 42  1  6  0  0  0
 41 44  1  0  0  0  0
 42 43  2  0  0  0  0
 44 45  1  0  0  0  0
 46 45  1  1  0  0  0
M  CHG  2   3  -1  35  -1
M  END
>  <CHROM.1>
-113.09387474,70.40385257,-6.21669863,4.06578838,16.14933580,0.73145730,-1.19365753
0.30742152

>  <Name>
ligand

>  <RI>
-1

>  <Rbt.Current_Directory>
/home/itssahil/PROJECTS/Mol_Feturizer/Test_systems_manuscript/rnas/3mum

>  <Rbt.Executable>
rbdock ($Id: //depot/dev/client3/rdock/2013.1/src/exe/rbdock.cxx#4 $)

>  <Rbt.Library>
libRbt.so (2013.1, Build901 2013/11/27)

>  <Rbt.Parameter_File>
/export/apps/rDock/src/rDock_2013.1_src/data/scripts/dock_solv.prm

>  <Rbt.Receptor>
prm/pocket_docking_5.prm

>  <SCORE>
-24.6105

>  <SCORE.INTER>
-24.4576

>  <SCORE.INTER.CONST>
1

>  <SCORE.INTER.POLAR>
0

>  <SCORE.INTER.ROT>
2

>  <SCORE.INTER.SOLV>
17.5285

>  <SCORE.INTER.VDW>
-27.0812

>  <SCORE.INTER.norm>
-0.531687

>  <SCORE.INTRA>
-0.161168

>  <SCORE.INTRA.DIHEDRAL>
0.00823265

>  <SCORE.INTRA.DIHEDRAL.0>
2.40424

>  <SCORE.INTRA.POLAR>
0

>  <SCORE.INTRA.POLAR.0>
0

>  <SCORE.INTRA.REPUL>
0

>  <SCORE.INTRA.REPUL.0>
0

>  <SCORE.INTRA.SOLV>
-0.0175476

>  <SCORE.INTRA.SOLV.lig_0>
-134.169

>  <SCORE.INTRA.VDW>
-0.156511

>  <SCORE.INTRA.VDW.0>
-2.18386

>  <SCORE.INTRA.norm>
-0.00350365

>  <SCORE.RESTR>
0.00821167

>  <SCORE.RESTR.CAVITY>
0.00821167

>  <SCORE.RESTR.norm>
0.000178515

>  <SCORE.SYSTEM>
0

>  <SCORE.SYSTEM.CONST>
0

>  <SCORE.SYSTEM.DIHEDRAL>
0

>  <SCORE.SYSTEM.SOLV>
0

>  <SCORE.SYSTEM.norm>
0

>  <SCORE.heavy>
46

>  <SCORE.norm>
-0.535012

>  <RMSD>
4.877

$$$$
ligand
 OpenBabel02271912143D
libRbt.so/2013.1/901 2013/11/27
 46 52  0  0  0  0  0  0  0  0999 V2000
   -3.5681    5.6582   14.5140 P   0  0  1  0  0  0  0  0  0  0  0  0
   -9.0554    6.4675   16.4915 P   0  0  2  0  0  0  0  0  0  0  0  0
   -2.8735    4.1869   15.2173 O   0  5  0  0  0  0  0  0  0  0  0  0
   -2.4589    6.4125   13.3392 O   0  0  0  0  0  0  0  0  0  0  0  0
   -5.8040    6.2747   13.2319 C   0  0  0  0  0  0  0  0  0  0  0  0
   -4.9604    5.2720   13.7988 O   0  0  0  0  0  0  0  0  0  0  0  0
   -7.2020    5.7046   13.0860 C   0  0  1  0  0  0  0  0  0  0  0  0
   -7.1405    4.4685   12.3606 O   0  0  0  0  0  0  0  0  0  0  0  0
   -7.8534    5.3642   14.4165 C   0  0  1  0  0  0  0  0  0  0  0  0
   -8.6073    6.4552   14.9404 O   0  0  0  0  0  0  0  0  0  0  0  0
   -8.7352    4.1760   14.0749 C   0  0  1  0  0  0  0  0  0  0  0  0
  -10.0234    4.6276   13.6496 O   0  0  0  0  0  0  0  0  0  0  0  0
   -8.0487    3.4976   12.9040 C   0  0  2  0  0  0  0  0  0  0  0  0
   -4.6285    6.1251   19.1112 C   0  0  1  0  0  0  0  0  0  0  0  0
   -6.9959   -1.6713   12.2975 N   0  0  0  0  0  0  0  0  0  0  0  0
   -7.8538   -0.8827   11.5943 C   0  0  1  0  0  0  0  0  0  0  0  0
   -4.0155    5.6425   17.8273 C   0  0  2  0  0  0  0  0  0  0  0  0
   -8.5634   -1.4466   10.5897 N   0  0  0  0  0  0  0  0  0  0  0  0
   -2.6530    6.0719   17.8433 O   0  0  0  0  0  0  0  0  0  0  0  0
   -4.8155    6.3263   16.7364 C   0  0  2  0  0  0  0  0  0  0  0  0
   -8.0270    0.4455   11.8636 N   0  0  0  0  0  0  0  0  0  0  0  0
   -3.9913    6.7189   15.6474 O   0  0  0  0  0  0  0  0  0  0  0  0
   -7.3378    1.0585   12.8590 C   0  0  2  0  0  0  0  0  0  0  0  0
   -5.4146    7.5496   17.4022 C   0  0  2  0  0  0  0  0  0  0  0  0
   -5.4209    7.2706   18.8012 O   0  0  0  0  0  0  0  0  0  0  0  0
   -6.3976    0.2491   13.6536 C   0  0  1  0  0  0  0  0  0  0  0  0
   -6.8365    7.8410   16.9354 C   0  0  0  0  0  0  0  0  0  0  0  0
   -7.6762    6.7366   17.2777 O   0  0  0  0  0  0  0  0  0  0  0  0
   -6.2538   -1.1781   13.3152 C   0  0  0  0  0  0  0  0  0  0  0  0
   -5.4034   -1.9725   14.0136 O   0  0  0  0  0  0  0  0  0  0  0  0
   -5.8541    1.0656   14.5630 N   0  0  0  0  0  0  0  0  0  0  0  0
   -6.3983    2.3033   14.3747 C   0  0  0  0  0  0  0  0  0  0  0  0
   -7.2863    2.3044   13.3583 N   0  0  1  0  0  0  0  0  0  0  0  0
   -4.5183    1.6518   21.8216 N   0  0  0  0  0  0  0  0  0  0  0  0
   -9.7594    4.9033   16.9797 O   0  5  0  0  0  0  0  0  0  0  0  0
   -3.4913    2.4302   21.3830 C   0  0  2  0  0  0  0  0  0  0  0  0
   -2.2134    2.0584   21.6564 N   0  0  0  0  0  0  0  0  0  0  0  0
  -10.1882    7.7748   16.8862 O   0  0  0  0  0  0  0  0  0  0  0  0
   -3.7036    3.5743   20.6771 N   0  0  0  0  0  0  0  0  0  0  0  0
   -4.9536    4.0000   20.3798 C   0  0  2  0  0  0  0  0  0  0  0  0
   -6.1031    3.2005   20.8237 C   0  0  2  0  0  0  0  0  0  0  0  0
   -5.8091    1.9652   21.5812 C   0  0  0  0  0  0  0  0  0  0  0  0
   -6.8050    1.1617   22.0298 O   0  0  0  0  0  0  0  0  0  0  0  0
   -7.2074    3.8392   20.3893 N   0  0  0  0  0  0  0  0  0  0  0  0
   -6.7967    4.9600   19.7245 C   0  0  0  0  0  0  0  0  0  0  0  0
   -5.4473    5.0494   19.7199 N   0  0  1  0  0  0  0  0  0  0  0  0
  1  3  1  1  0  0  0
  1  4  2  0  0  0  0
  1  6  1  0  0  0  0
  1 22  1  0  0  0  0
  2 28  1  0  0  0  0
  2 35  1  1  0  0  0
  2 38  2  0  0  0  0
  2 10  1  0  0  0  0
  5  6  1  0  0  0  0
  7  5  1  1  0  0  0
  7  8  1  0  0  0  0
  7  9  1  0  0  0  0
  9 10  1  6  0  0  0
  9 11  1  0  0  0  0
 11 12  1  6  0  0  0
 11 13  1  0  0  0  0
 13  8  1  1  0  0  0
 13 33  1  0  0  0  0
 14 46  1  0  0  0  0
 14 17  1  0  0  0  0
 14 25  1  6  0  0  0
 15 16  1  0  0  0  0
 15 29  1  0  0  0  0
 16 18  1  1  0  0  0
 16 21  1  0  0  0  0
 17 19  1  1  0  0  0
 17 20  1  0  0  0  0
 20 22  1  6  0  0  0
 20 24  1  0  0  0  0
 23 21  1  1  0  0  0
 23 26  1  0  0  0  0
 23 33  1  0  0  0  0
 24 25  1  1  0  0  0
 24 27  1  0  0  0  0
 26 29  1  6  0  0  0
 26 31  1  0  0  0  0
 27 28  1  0  0  0  0
 29 30  2  0  0  0  0
 31 32  1  0  0  0  0
 33 32  1  6  0  0  0
 34 36  1  0  0  0  0
 34 42  1  0  0  0  0
 36 37  1  1  0  0  0
 36 39  1  0  0  0  0
 40 39  1  6  0  0  0
 40 41  1  0  0  0  0
 40 46  1  0  0  0  0
 41 42  1  6  0  0  0
 41 44  1  0  0  0  0
 42 43  2  0  0  0  0
 44 45  1  0  0  0  0
 46 45  1  1  0  0  0
M  CHG  2   3  -1  35  -1
M  END
>  <CHROM.1>
-114.26361634,76.79907226,-6.20815411,4.01958785,16.15595697,2.46041789,1.20447120
-2.85436647

>  <Name>
ligand

>  <RI>
-1

>  <Rbt.Current_Directory>
/home/itssahil/PROJECTS/Mol_Feturizer/Test_systems_manuscript/rnas/3mum

>  <Rbt.Executable>
rbdock ($Id: //depot/dev/client3/rdock/2013.1/src/exe/rbdock.cxx#4 $)

>  <Rbt.Library>
libRbt.so (2013.1, Build901 2013/11/27)

>  <Rbt.Parameter_File>
/export/apps/rDock/src/rDock_2013.1_src/data/scripts/dock_solv.prm

>  <Rbt.Receptor>
prm/pocket_docking_5.prm

>  <SCORE>
-24.7796

>  <SCORE.INTER>
-24.5524

>  <SCORE.INTER.CONST>
1

>  <SCORE.INTER.POLAR>
0

>  <SCORE.INTER.ROT>
2

>  <SCORE.INTER.SOLV>
17.8221

>  <SCORE.INTER.VDW>
-27.2423

>  <SCORE.INTER.norm>
-0.533748

>  <SCORE.INTRA>
-0.228807

>  <SCORE.INTRA.DIHEDRAL>
0.0155344

>  <SCORE.INTRA.DIHEDRAL.0>
2.40424

>  <SCORE.INTRA.POLAR>
0

>  <SCORE.INTRA.POLAR.0>
0

>  <SCORE.INTRA.REPUL>
0

>  <SCORE.INTRA.REPUL.0>
0

>  <SCORE.INTRA.SOLV>
-0.00179343

>  <SCORE.INTRA.SOLV.lig_0>
-134.169

>  <SCORE.INTRA.VDW>
-0.235677

>  <SCORE.INTRA.VDW.0>
-2.18386

>  <SCORE.INTRA.norm>
-0.00497406

>  <SCORE.RESTR>
0.00165131

>  <SCORE.RESTR.CAVITY>
0.00165131

>  <SCORE.RESTR.norm>
3.58981e-05

>  <SCORE.SYSTEM>
0

>  <SCORE.SYSTEM.CONST>
0

>  <SCORE.SYSTEM.DIHEDRAL>
0

>  <SCORE.SYSTEM.SOLV>
0

>  <SCORE.SYSTEM.norm>
0

>  <SCORE.heavy>
46

>  <SCORE.norm>
-0.538687

>  <RMSD>
4.880

$$$$
ligand
 OpenBabel02271912143D
libRbt.so/2013.1/901 2013/11/27
 46 52  0  0  0  0  0  0  0  0999 V2000
   -3.4465    5.5760   14.5339 P   0  0  1  0  0  0  0  0  0  0  0  0
   -8.9226    6.4741   16.5040 P   0  0  2  0  0  0  0  0  0  0  0  0
   -2.7782    4.0917   15.2353 O   0  5  0  0  0  0  0  0  0  0  0  0
   -2.3227    6.3138   13.3625 O   0  0  0  0  0  0  0  0  0  0  0  0
   -5.6695    6.2329   13.2494 C   0  0  0  0  0  0  0  0  0  0  0  0
   -4.8440    5.2149   13.8156 O   0  0  0  0  0  0  0  0  0  0  0  0
   -7.0768    5.6869   13.1001 C   0  0  1  0  0  0  0  0  0  0  0  0
   -7.0350    4.4514   12.3722 O   0  0  0  0  0  0  0  0  0  0  0  0
   -7.7360    5.3548   14.4288 C   0  0  1  0  0  0  0  0  0  0  0  0
   -8.4722    6.4574   14.9537 O   0  0  0  0  0  0  0  0  0  0  0  0
   -8.6372    4.1825   14.0832 C   0  0  1  0  0  0  0  0  0  0  0  0
   -9.9170    4.6567   13.6567 O   0  0  0  0  0  0  0  0  0  0  0  0
   -7.9604    3.4949   12.9120 C   0  0  2  0  0  0  0  0  0  0  0  0
   -4.5066    6.0513   19.1303 C   0  0  1  0  0  0  0  0  0  0  0  0
   -7.0173   -1.6963   12.3166 N   0  0  0  0  0  0  0  0  0  0  0  0
   -7.8641   -0.8929   11.6167 C   0  0  1  0  0  0  0  0  0  0  0  0
   -3.8996    5.5610   17.8464 C   0  0  2  0  0  0  0  0  0  0  0  0
   -8.5924   -1.4457   10.6193 N   0  0  0  0  0  0  0  0  0  0  0  0
   -2.5301    5.9673   17.8656 O   0  0  0  0  0  0  0  0  0  0  0  0
   -4.6862    6.2606   16.7557 C   0  0  2  0  0  0  0  0  0  0  0  0
   -8.0084    0.4395   11.8825 N   0  0  0  0  0  0  0  0  0  0  0  0
   -3.8536    6.6414   15.6689 O   0  0  0  0  0  0  0  0  0  0  0  0
   -7.2995    1.0417   12.8707 C   0  0  2  0  0  0  0  0  0  0  0  0
   -5.2656    7.4924   17.4230 C   0  0  2  0  0  0  0  0  0  0  0  0
   -5.2789    7.2107   18.8214 O   0  0  0  0  0  0  0  0  0  0  0  0
   -6.3703    0.2161   13.6614 C   0  0  1  0  0  0  0  0  0  0  0  0
   -6.6815    7.8089   16.9544 C   0  0  0  0  0  0  0  0  0  0  0  0
   -7.5404    6.7181   17.2931 O   0  0  0  0  0  0  0  0  0  0  0  0
   -6.2579   -1.2148   13.3270 C   0  0  0  0  0  0  0  0  0  0  0  0
   -5.4188   -2.0240   14.0222 O   0  0  0  0  0  0  0  0  0  0  0  0
   -5.8036    1.0245   14.5638 N   0  0  0  0  0  0  0  0  0  0  0  0
   -6.3239    2.2724   14.3750 C   0  0  0  0  0  0  0  0  0  0  0  0
   -7.2191    2.2880   13.3651 N   0  0  1  0  0  0  0  0  0  0  0  0
   -4.4823    1.6278   21.9233 N   0  0  0  0  0  0  0  0  0  0  0  0
   -9.6539    4.9210   16.9879 O   0  5  0  0  0  0  0  0  0  0  0  0
   -3.4417    2.3962   21.4994 C   0  0  2  0  0  0  0  0  0  0  0  0
   -2.1727    2.0270   21.8148 N   0  0  0  0  0  0  0  0  0  0  0  0
  -10.0338    7.7996   16.8996 O   0  0  0  0  0  0  0  0  0  0  0  0
   -3.6316    3.5276   20.7673 N   0  0  0  0  0  0  0  0  0  0  0  0
   -4.8718    3.9503   20.4277 C   0  0  2  0  0  0  0  0  0  0  0  0
   -6.0351    3.1611   20.8539 C   0  0  2  0  0  0  0  0  0  0  0  0
   -5.7652    1.9392   21.6416 C   0  0  0  0  0  0  0  0  0  0  0  0
   -6.7751    1.1459   22.0767 O   0  0  0  0  0  0  0  0  0  0  0  0
   -7.1254    3.7939   20.3775 N   0  0  0  0  0  0  0  0  0  0  0  0
   -6.6937    4.9017   19.7041 C   0  0  0  0  0  0  0  0  0  0  0  0
   -5.3445    4.9884   19.7354 N   0  0  1  0  0  0  0  0  0  0  0  0
  1  3  1  1  0  0  0
  1  4  2  0  0  0  0
  1  6  1  0  0  0  0
  1 22  1  0  0  0  0
  2 28  1  0  0  0  0
  2 35  1  1  0  0  0
  2 38  2  0  0  0  0
  2 10  1  0  0  0  0
  5  6  1  0  0  0  0
  7  5  1  1  0  0  0
  7  8  1  0  0  0  0
  7  9  1  0  0  0  0
  9 10  1  6  0  0  0
  9 11  1  0  0  0  0
 11 12  1  6  0  0  0
 11 13  1  0  0  0  0
 13  8  1  1  0  0  0
 13 33  1  0  0  0  0
 14 46  1  0  0  0  0
 14 17  1  0  0  0  0
 14 25  1  6  0  0  0
 15 16  1  0  0  0  0
 15 29  1  0  0  0  0
 16 18  1  1  0  0  0
 16 21  1  0  0  0  0
 17 19  1  1  0  0  0
 17 20  1  0  0  0  0
 20 22  1  6  0  0  0
 20 24  1  0  0  0  0
 23 21  1  1  0  0  0
 23 26  1  0  0  0  0
 23 33  1  0  0  0  0
 24 25  1  1  0  0  0
 24 27  1  0  0  0  0
 26 29  1  6  0  0  0
 26 31  1  0  0  0  0
 27 28  1  0  0  0  0
 29 30  2  0  0  0  0
 31 32  1  0  0  0  0
 33 32  1  6  0  0  0
 34 36  1  0  0  0  0
 34 42  1  0  0  0  0
 36 37  1  1  0  0  0
 36 39  1  0  0  0  0
 40 39  1  6  0  0  0
 40 41  1  0  0  0  0
 40 46  1  0  0  0  0
 41 42  1  6  0  0  0
 41 44  1  0  0  0  0
 42 43  2  0  0  0  0
 44 45  1  0  0  0  0
 46 45  1  1  0  0  0
M  CHG  2   3  -1  35  -1
M  END
>  <CHROM.1>
-114.89796952,78.87193051,-6.11982957,3.98447056,16.18030542,2.53183298,1.21487472
-2.91554502

>  <Name>
ligand

>  <RI>
-1

>  <Rbt.Current_Directory>
/home/itssahil/PROJECTS/Mol_Feturizer/Test_systems_manuscript/rnas/3mum

>  <Rbt.Executable>
rbdock ($Id: //depot/dev/client3/rdock/2013.1/src/exe/rbdock.cxx#4 $)

>  <Rbt.Library>
libRbt.so (2013.1, Build901 2013/11/27)

>  <Rbt.Parameter_File>
/export/apps/rDock/src/rDock_2013.1_src/data/scripts/dock_solv.prm

>  <Rbt.Receptor>
prm/pocket_docking_5.prm

>  <SCORE>
-24.7599

>  <SCORE.INTER>
-24.5159

>  <SCORE.INTER.CONST>
1

>  <SCORE.INTER.POLAR>
0

>  <SCORE.INTER.ROT>
2

>  <SCORE.INTER.SOLV>
17.8371

>  <SCORE.INTER.VDW>
-27.223

>  <SCORE.INTER.norm>
-0.532955

>  <SCORE.INTRA>
-0.244028

>  <SCORE.INTRA.DIHEDRAL>
0.0174835

>  <SCORE.INTRA.DIHEDRAL.0>
2.40424

>  <SCORE.INTRA.POLAR>
0

>  <SCORE.INTRA.POLAR.0>
0

>  <SCORE.INTRA.REPUL>
0

>  <SCORE.INTRA.REPUL.0>
0

>  <SCORE.INTRA.SOLV>
0.00738498

>  <SCORE.INTRA.SOLV.lig_0>
-134.169

>  <SCORE.INTRA.VDW>
-0.256462

>  <SCORE.INTRA.VDW.0>
-2.18386

>  <SCORE.INTRA.norm>
-0.00530495

>  <SCORE.RESTR>
0

>  <SCORE.RESTR.CAVITY>
0

>  <SCORE.RESTR.norm>
0

>  <SCORE.SYSTEM>
0

>  <SCORE.SYSTEM.CONST>
0

>  <SCORE.SYSTEM.DIHEDRAL>
0

>  <SCORE.SYSTEM.SOLV>
0

>  <SCORE.SYSTEM.norm>
0

>  <SCORE.heavy>
46

>  <SCORE.norm>
-0.538259

>  <RMSD>
4.896

$$$$
ligand
 OpenBabel02271912143D
libRbt.so/2013.1/901 2013/11/27
 46 52  0  0  0  0  0  0  0  0999 V2000
   -6.1849    2.0205   19.6152 P   0  0  1  0  0  0  0  0  0  0  0  0
   -6.0714    6.9274   16.3616 P   0  0  2  0  0  0  0  0  0  0  0  0
   -7.2468    0.8138   18.8681 O   0  5  0  0  0  0  0  0  0  0  0  0
   -5.3788    1.3768   21.0695 O   0  0  0  0  0  0  0  0  0  0  0  0
   -4.1570    3.5226   18.8061 C   0  0  0  0  0  0  0  0  0  0  0  0
   -5.0884    2.4776   18.5252 O   0  0  0  0  0  0  0  0  0  0  0  0
   -3.6110    4.0497   17.4928 C   0  0  1  0  0  0  0  0  0  0  0  0
   -3.0971    2.9582   16.7166 O   0  0  0  0  0  0  0  0  0  0  0  0
   -4.6705    4.7054   16.6222 C   0  0  1  0  0  0  0  0  0  0  0  0
   -4.7775    6.1057   16.8690 O   0  0  0  0  0  0  0  0  0  0  0  0
   -4.1885    4.4119   15.2124 C   0  0  1  0  0  0  0  0  0  0  0  0
   -3.3015    5.4436   14.7726 O   0  0  0  0  0  0  0  0  0  0  0  0
   -3.4072    3.1158   15.3232 C   0  0  2  0  0  0  0  0  0  0  0  0
  -10.0613    4.5567   18.6062 C   0  0  1  0  0  0  0  0  0  0  0  0
   -7.7246    1.4070   12.7477 N   0  0  0  0  0  0  0  0  0  0  0  0
   -7.3024    2.6832   12.9609 C   0  0  1  0  0  0  0  0  0  0  0  0
   -9.1270    3.4020   18.8316 C   0  0  2  0  0  0  0  0  0  0  0  0
   -8.0532    3.6958   12.4694 N   0  0  0  0  0  0  0  0  0  0  0  0
   -9.5558    2.7640   20.0358 O   0  0  0  0  0  0  0  0  0  0  0  0
   -7.7581    4.0360   18.9792 C   0  0  2  0  0  0  0  0  0  0  0  0
   -6.1601    2.9790   13.6497 N   0  0  0  0  0  0  0  0  0  0  0  0
   -6.9768    3.3765   19.9661 O   0  0  0  0  0  0  0  0  0  0  0  0
   -5.3718    1.9997   14.1607 C   0  0  2  0  0  0  0  0  0  0  0  0
   -8.0349    5.4646   19.4047 C   0  0  2  0  0  0  0  0  0  0  0  0
   -9.3707    5.7451   18.9896 O   0  0  0  0  0  0  0  0  0  0  0  0
   -5.7851    0.5999   13.9608 C   0  0  1  0  0  0  0  0  0  0  0  0
   -7.0821    6.4681   18.7647 C   0  0  0  0  0  0  0  0  0  0  0  0
   -7.2432    6.4257   17.3454 O   0  0  0  0  0  0  0  0  0  0  0  0
   -7.0268    0.3441   13.2092 C   0  0  0  0  0  0  0  0  0  0  0  0
   -7.4571   -0.9252   12.9952 O   0  0  0  0  0  0  0  0  0  0  0  0
   -4.8625   -0.1663   14.5531 N   0  0  0  0  0  0  0  0  0  0  0  0
   -3.9277    0.6685   15.0944 C   0  0  0  0  0  0  0  0  0  0  0  0
   -4.2278    1.9640   14.8637 N   0  0  1  0  0  0  0  0  0  0  0  0
  -10.8884    7.6610   14.4774 N   0  0  0  0  0  0  0  0  0  0  0  0
   -6.4677    6.5388   14.6667 O   0  5  0  0  0  0  0  0  0  0  0  0
  -10.4939    7.9785   15.7409 C   0  0  2  0  0  0  0  0  0  0  0  0
  -10.2528    9.2786   16.0536 N   0  0  0  0  0  0  0  0  0  0  0  0
   -5.9041    8.6845   16.5419 O   0  0  0  0  0  0  0  0  0  0  0  0
  -10.3315    7.0321   16.7053 N   0  0  0  0  0  0  0  0  0  0  0  0
  -10.5499    5.7204   16.4526 C   0  0  2  0  0  0  0  0  0  0  0  0
  -10.9804    5.3159   15.1078 C   0  0  2  0  0  0  0  0  0  0  0  0
  -11.1452    6.3893   14.1044 C   0  0  0  0  0  0  0  0  0  0  0  0
  -11.5416    6.1127   12.8376 O   0  0  0  0  0  0  0  0  0  0  0  0
  -11.1328    3.9771   15.1384 N   0  0  0  0  0  0  0  0  0  0  0  0
  -10.8202    3.5588   16.4010 C   0  0  0  0  0  0  0  0  0  0  0  0
  -10.4748    4.6064   17.1833 N   0  0  1  0  0  0  0  0  0  0  0  0
  1  3  1  6  0  0  0
  1  4  2  0  0  0  0
  1  6  1  0  0  0  0
  1 22  1  0  0  0  0
  2 28  1  0  0  0  0
  2 35  1  6  0  0  0
  2 38  2  0  0  0  0
  2 10  1  0  0  0  0
  5  6  1  0  0  0  0
  7  5  1  1  0  0  0
  7  8  1  0  0  0  0
  7  9  1  0  0  0  0
  9 10  1  1  0  0  0
  9 11  1  0  0  0  0
 11 12  1  1  0  0  0
 11 13  1  0  0  0  0
 13  8  1  1  0  0  0
 13 33  1  0  0  0  0
 14 46  1  0  0  0  0
 14 17  1  0  0  0  0
 14 25  1  6  0  0  0
 15 16  1  0  0  0  0
 15 29  1  0  0  0  0
 16 18  1  1  0  0  0
 16 21  1  0  0  0  0
 17 19  1  1  0  0  0
 17 20  1  0  0  0  0
 20 22  1  1  0  0  0
 20 24  1  0  0  0  0
 23 21  1  1  0  0  0
 23 26  1  0  0  0  0
 23 33  1  0  0  0  0
 24 25  1  6  0  0  0
 24 27  1  0  0  0  0
 26 29  1  6  0  0  0
 26 31  1  0  0  0  0
 27 28  1  0  0  0  0
 29 30  2  0  0  0  0
 31 32  1  0  0  0  0
 33 32  1  6  0  0  0
 34 36  1  0  0  0  0
 34 42  1  0  0  0  0
 36 37  1  6  0  0  0
 36 39  1  0  0  0  0
 40 39  1  1  0  0  0
 40 41  1  0  0  0  0
 40 46  1  0  0  0  0
 41 42  1  1  0  0  0
 41 44  1  0  0  0  0
 42 43  2  0  0  0  0
 44 45  1  0  0  0  0
 46 45  1  6  0  0  0
M  CHG  2   3  -1  35  -1
M  END
>  <CHROM.1>
131.10868611,-136.85723023,-7.18492605,4.12896507,16.44041976,-0.18380588
-0.72804472,1.23776638

>  <Name>
ligand

>  <RI>
-1

>  <Rbt.Current_Directory>
/home/itssahil/PROJECTS/Mol_Feturizer/Test_systems_manuscript/rnas/3mum

>  <Rbt.Executable>
rbdock ($Id: //depot/dev/client3/rdock/2013.1/src/exe/rbdock.cxx#4 $)

>  <Rbt.Library>
libRbt.so (2013.1, Build901 2013/11/27)

>  <Rbt.Parameter_File>
/export/apps/rDock/src/rDock_2013.1_src/data/scripts/dock_solv.prm

>  <Rbt.Receptor>
prm/pocket_docking_4.prm

>  <SCORE>
-14.855

>  <SCORE.INTER>
-15.5954

>  <SCORE.INTER.CONST>
1

>  <SCORE.INTER.POLAR>
0

>  <SCORE.INTER.ROT>
2

>  <SCORE.INTER.SOLV>
21.6529

>  <SCORE.INTER.VDW>
-22.5479

>  <SCORE.INTER.norm>
-0.339031

>  <SCORE.INTRA>
0.108389

>  <SCORE.INTRA.DIHEDRAL>
0.015477

>  <SCORE.INTRA.DIHEDRAL.0>
2.40424

>  <SCORE.INTRA.POLAR>
0

>  <SCORE.INTRA.POLAR.0>
0

>  <SCORE.INTRA.REPUL>
0

>  <SCORE.INTRA.REPUL.0>
0

>  <SCORE.INTRA.SOLV>
1.20088

>  <SCORE.INTRA.SOLV.lig_0>
-134.169

>  <SCORE.INTRA.VDW>
-0.499791

>  <SCORE.INTRA.VDW.0>
-2.18386

>  <SCORE.INTRA.norm>
0.00235628

>  <SCORE.RESTR>
0.632

>  <SCORE.RESTR.CAVITY>
0.632

>  <SCORE.RESTR.norm>
0.0137391

>  <SCORE.SYSTEM>
0

>  <SCORE.SYSTEM.CONST>
0

>  <SCORE.SYSTEM.DIHEDRAL>
0

>  <SCORE.SYSTEM.SOLV>
0

>  <SCORE.SYSTEM.norm>
0

>  <SCORE.heavy>
46

>  <SCORE.norm>
-0.322936

>  <RMSD>
4.907

$$$$
ligand
 OpenBabel02271912143D
libRbt.so/2013.1/901 2013/11/27
 46 52  0  0  0  0  0  0  0  0999 V2000
   -3.3409    5.5425   14.5710 P   0  0  1  0  0  0  0  0  0  0  0  0
   -8.8095    6.5460   16.5111 P   0  0  2  0  0  0  0  0  0  0  0  0
   -2.7035    4.0480   15.2793 O   0  5  0  0  0  0  0  0  0  0  0  0
   -2.1979    6.2566   13.4035 O   0  0  0  0  0  0  0  0  0  0  0  0
   -5.5451    6.2369   13.2737 C   0  0  0  0  0  0  0  0  0  0  0  0
   -4.7412    5.2054   13.8465 O   0  0  0  0  0  0  0  0  0  0  0  0
   -6.9613    5.7164   13.1185 C   0  0  1  0  0  0  0  0  0  0  0  0
   -6.9386    4.4786   12.3938 O   0  0  0  0  0  0  0  0  0  0  0  0
   -7.6332    5.3999   14.4447 C   0  0  1  0  0  0  0  0  0  0  0  0
   -8.3516    6.5171   14.9631 O   0  0  0  0  0  0  0  0  0  0  0  0
   -8.5541    4.2434   14.0973 C   0  0  1  0  0  0  0  0  0  0  0  0
   -9.8227    4.7400   13.6633 O   0  0  0  0  0  0  0  0  0  0  0  0
   -7.8841    3.5406   12.9313 C   0  0  2  0  0  0  0  0  0  0  0  0
   -4.4152    6.0488   19.1608 C   0  0  1  0  0  0  0  0  0  0  0  0
   -7.0087   -1.6620   12.3318 N   0  0  0  0  0  0  0  0  0  0  0  0
   -7.8331   -0.8439   11.6224 C   0  0  1  0  0  0  0  0  0  0  0  0
   -3.8109    5.5442   17.8812 C   0  0  2  0  0  0  0  0  0  0  0  0
   -8.5546   -1.3827   10.6125 N   0  0  0  0  0  0  0  0  0  0  0  0
   -2.4343    5.9253   17.9063 O   0  0  0  0  0  0  0  0  0  0  0  0
   -4.5790    6.2553   16.7848 C   0  0  2  0  0  0  0  0  0  0  0  0
   -7.9617    0.4895   11.8906 N   0  0  0  0  0  0  0  0  0  0  0  0
   -3.7341    6.6181   15.7013 O   0  0  0  0  0  0  0  0  0  0  0  0
   -7.2588    1.0780   12.8912 C   0  0  2  0  0  0  0  0  0  0  0  0
   -5.1390    7.4993   17.4461 C   0  0  2  0  0  0  0  0  0  0  0  0
   -5.1645    7.2214   18.8452 O   0  0  0  0  0  0  0  0  0  0  0  0
   -6.3535    0.2363   13.6926 C   0  0  1  0  0  0  0  0  0  0  0  0
   -6.5465    7.8405   16.9696 C   0  0  0  0  0  0  0  0  0  0  0  0
   -7.4269    6.7666   17.3066 O   0  0  0  0  0  0  0  0  0  0  0  0
   -6.2573   -1.1951   13.3550 C   0  0  0  0  0  0  0  0  0  0  0  0
   -5.4405   -2.0188   14.0596 O   0  0  0  0  0  0  0  0  0  0  0  0
   -5.7884    1.0333   14.6061 N   0  0  0  0  0  0  0  0  0  0  0  0
   -6.2875    2.2893   14.4140 C   0  0  0  0  0  0  0  0  0  0  0  0
   -7.1674    2.3214   13.3910 N   0  0  1  0  0  0  0  0  0  0  0  0
   -4.4823    1.5919   21.8994 N   0  0  0  0  0  0  0  0  0  0  0  0
   -9.5716    5.0078   16.9950 O   0  5  0  0  0  0  0  0  0  0  0  0
   -3.4255    2.3352   21.4708 C   0  0  2  0  0  0  0  0  0  0  0  0
   -2.1638    1.9257   21.7646 N   0  0  0  0  0  0  0  0  0  0  0  0
   -9.8980    7.8926   16.8978 O   0  0  0  0  0  0  0  0  0  0  0  0
   -3.5922    3.4807   20.7551 N   0  0  0  0  0  0  0  0  0  0  0  0
   -4.8240    3.9431   20.4374 C   0  0  2  0  0  0  0  0  0  0  0  0
   -6.0039    3.1825   20.8697 C   0  0  2  0  0  0  0  0  0  0  0  0
   -5.7593    1.9436   21.6388 C   0  0  0  0  0  0  0  0  0  0  0  0
   -6.7859    1.1743   22.0779 O   0  0  0  0  0  0  0  0  0  0  0  0
   -7.0817    3.8523   20.4157 N   0  0  0  0  0  0  0  0  0  0  0  0
   -6.6270    4.9556   19.7501 C   0  0  0  0  0  0  0  0  0  0  0  0
   -5.2755    5.0030   19.7642 N   0  0  1  0  0  0  0  0  0  0  0  0
  1  3  1  1  0  0  0
  1  4  2  0  0  0  0
  1  6  1  0  0  0  0
  1 22  1  0  0  0  0
  2 28  1  0  0  0  0
  2 35  1  1  0  0  0
  2 38  2  0  0  0  0
  2 10  1  0  0  0  0
  5  6  1  0  0  0  0
  7  5  1  1  0  0  0
  7  8  1  0  0  0  0
  7  9  1  0  0  0  0
  9 10  1  6  0  0  0
  9 11  1  0  0  0  0
 11 12  1  6  0  0  0
 11 13  1  0  0  0  0
 13  8  1  1  0  0  0
 13 33  1  0  0  0  0
 14 46  1  0  0  0  0
 14 17  1  0  0  0  0
 14 25  1  6  0  0  0
 15 16  1  0  0  0  0
 15 29  1  0  0  0  0
 16 18  1  1  0  0  0
 16 21  1  0  0  0  0
 17 19  1  1  0  0  0
 17 20  1  0  0  0  0
 20 22  1  6  0  0  0
 20 24  1  0  0  0  0
 23 21  1  1  0  0  0
 23 26  1  0  0  0  0
 23 33  1  0  0  0  0
 24 25  1  1  0  0  0
 24 27  1  0  0  0  0
 26 29  1  6  0  0  0
 26 31  1  0  0  0  0
 27 28  1  0  0  0  0
 29 30  2  0  0  0  0
 31 32  1  0  0  0  0
 33 32  1  6  0  0  0
 34 36  1  0  0  0  0
 34 42  1  0  0  0  0
 36 37  1  1  0  0  0
 36 39  1  0  0  0  0
 40 39  1  6  0  0  0
 40 41  1  0  0  0  0
 40 46  1  0  0  0  0
 41 42  1  6  0  0  0
 41 44  1  0  0  0  0
 42 43  2  0  0  0  0
 44 45  1  0  0  0  0
 46 45  1  1  0  0  0
M  CHG  2   3  -1  35  -1
M  END
>  <CHROM.1>
-114.21651085,77.39256777,-6.04816165,4.00073700,16.19821353,2.55736323,1.22077515
-2.94369125

>  <Name>
ligand

>  <RI>
-1

>  <Rbt.Current_Directory>
/home/itssahil/PROJECTS/Mol_Feturizer/Test_systems_manuscript/rnas/3mum

>  <Rbt.Executable>
rbdock ($Id: //depot/dev/client3/rdock/2013.1/src/exe/rbdock.cxx#4 $)

>  <Rbt.Library>
libRbt.so (2013.1, Build901 2013/11/27)

>  <Rbt.Parameter_File>
/export/apps/rDock/src/rDock_2013.1_src/data/scripts/dock_solv.prm

>  <Rbt.Receptor>
prm/pocket_docking_6.prm

>  <SCORE>
-24.7854

>  <SCORE.INTER>
-24.5546

>  <SCORE.INTER.CONST>
1

>  <SCORE.INTER.POLAR>
0

>  <SCORE.INTER.ROT>
2

>  <SCORE.INTER.SOLV>
17.4529

>  <SCORE.INTER.VDW>
-27.1207

>  <SCORE.INTER.norm>
-0.533796

>  <SCORE.INTRA>
-0.230758

>  <SCORE.INTRA.DIHEDRAL>
0.016077

>  <SCORE.INTRA.DIHEDRAL.0>
2.40424

>  <SCORE.INTRA.POLAR>
0

>  <SCORE.INTRA.POLAR.0>
0

>  <SCORE.INTRA.REPUL>
0

>  <SCORE.INTRA.REPUL.0>
0

>  <SCORE.INTRA.SOLV>
2.60159e-05

>  <SCORE.INTRA.SOLV.lig_0>
-134.169

>  <SCORE.INTRA.VDW>
-0.238809

>  <SCORE.INTRA.VDW.0>
-2.18386

>  <SCORE.INTRA.norm>
-0.00501647

>  <SCORE.RESTR>
0

>  <SCORE.RESTR.CAVITY>
0

>  <SCORE.RESTR.norm>
0

>  <SCORE.SYSTEM>
0

>  <SCORE.SYSTEM.CONST>
0

>  <SCORE.SYSTEM.DIHEDRAL>
0

>  <SCORE.SYSTEM.SOLV>
0

>  <SCORE.SYSTEM.norm>
0

>  <SCORE.heavy>
46

>  <SCORE.norm>
-0.538812

>  <RMSD>
4.911

$$$$
ligand
 OpenBabel02271912143D
libRbt.so/2013.1/901 2013/11/27
 46 52  0  0  0  0  0  0  0  0999 V2000
   -7.1580    2.6780   19.5880 P   0  0  1  0  0  0  0  0  0  0  0  0
   -6.6533    7.2162   15.8696 P   0  0  2  0  0  0  0  0  0  0  0  0
   -8.0451    1.3504   18.8184 O   0  5  0  0  0  0  0  0  0  0  0  0
   -6.5851    2.2296   21.2159 O   0  0  0  0  0  0  0  0  0  0  0  0
   -5.0697    4.1818   18.9547 C   0  0  0  0  0  0  0  0  0  0  0  0
   -5.9102    3.0699   18.6453 O   0  0  0  0  0  0  0  0  0  0  0  0
   -4.3297    4.5936   17.6963 C   0  0  1  0  0  0  0  0  0  0  0  0
   -3.6621    3.4524   17.1397 O   0  0  0  0  0  0  0  0  0  0  0  0
   -5.2494    5.1031   16.5986 C   0  0  1  0  0  0  0  0  0  0  0  0
   -5.4374    6.5149   16.6675 O   0  0  0  0  0  0  0  0  0  0  0  0
   -4.5320    4.6866   15.3267 C   0  0  1  0  0  0  0  0  0  0  0  0
   -3.6155    5.7075   14.9238 O   0  0  0  0  0  0  0  0  0  0  0  0
   -3.7416    3.4480   15.7057 C   0  0  2  0  0  0  0  0  0  0  0  0
  -10.8875    4.9067   17.6905 C   0  0  1  0  0  0  0  0  0  0  0  0
   -7.4782    1.2681   12.6270 N   0  0  0  0  0  0  0  0  0  0  0  0
   -7.1289    2.5774   12.7548 C   0  0  1  0  0  0  0  0  0  0  0  0
   -9.9694    3.8278   18.1909 C   0  0  2  0  0  0  0  0  0  0  0  0
   -7.7980    3.4929   12.0167 N   0  0  0  0  0  0  0  0  0  0  0  0
  -10.5726    3.3000   19.3735 O   0  0  0  0  0  0  0  0  0  0  0  0
   -8.6634    4.5384   18.4859 C   0  0  2  0  0  0  0  0  0  0  0  0
   -6.1383    2.9998   13.5956 N   0  0  0  0  0  0  0  0  0  0  0  0
   -8.0371    4.0241   19.6533 O   0  0  0  0  0  0  0  0  0  0  0  0
   -5.4365    2.1213   14.3554 C   0  0  2  0  0  0  0  0  0  0  0  0
   -9.0493    5.9889   18.6995 C   0  0  2  0  0  0  0  0  0  0  0  0
  -10.3056    6.1603   18.0456 O   0  0  0  0  0  0  0  0  0  0  0  0
   -5.7770    0.6913   14.2573 C   0  0  1  0  0  0  0  0  0  0  0  0
   -8.0340    6.9640   18.1139 C   0  0  0  0  0  0  0  0  0  0  0  0
   -7.9564    6.7652   16.7010 O   0  0  0  0  0  0  0  0  0  0  0  0
   -6.8547    0.2970   13.3324 C   0  0  0  0  0  0  0  0  0  0  0  0
   -7.2119   -1.0058   13.2015 O   0  0  0  0  0  0  0  0  0  0  0  0
   -4.9626    0.0394   15.0944 N   0  0  0  0  0  0  0  0  0  0  0  0
   -4.1603    0.9707   15.6883 C   0  0  0  0  0  0  0  0  0  0  0  0
   -4.4400    2.2165   15.2510 N   0  0  1  0  0  0  0  0  0  0  0  0
  -13.9701    6.0466   13.6202 N   0  0  0  0  0  0  0  0  0  0  0  0
   -6.7516    6.6335   14.1868 O   0  5  0  0  0  0  0  0  0  0  0  0
  -14.1384    6.3181   14.9434 C   0  0  2  0  0  0  0  0  0  0  0  0
  -15.2485    6.9895   15.3470 N   0  0  0  0  0  0  0  0  0  0  0  0
   -6.5706    8.9885   15.8777 O   0  0  0  0  0  0  0  0  0  0  0  0
  -13.2266    5.9379   15.8797 N   0  0  0  0  0  0  0  0  0  0  0  0
  -12.0983    5.2726   15.5386 C   0  0  2  0  0  0  0  0  0  0  0  0
  -11.8620    4.9482   14.1255 C   0  0  2  0  0  0  0  0  0  0  0  0
  -12.8907    5.3819   13.1561 C   0  0  0  0  0  0  0  0  0  0  0  0
  -12.7607    5.1251   11.8310 O   0  0  0  0  0  0  0  0  0  0  0  0
  -10.6898    4.2852   14.0732 N   0  0  0  0  0  0  0  0  0  0  0  0
  -10.2126    4.1969   15.3506 C   0  0  0  0  0  0  0  0  0  0  0  0
  -11.0608    4.7871   16.2230 N   0  0  1  0  0  0  0  0  0  0  0  0
  1  3  1  6  0  0  0
  1  4  2  0  0  0  0
  1  6  1  0  0  0  0
  1 22  1  0  0  0  0
  2 28  1  0  0  0  0
  2 35  1  6  0  0  0
  2 38  2  0  0  0  0
  2 10  1  0  0  0  0
  5  6  1  0  0  0  0
  7  5  1  1  0  0  0
  7  8  1  0  0  0  0
  7  9  1  0  0  0  0
  9 10  1  6  0  0  0
  9 11  1  0  0  0  0
 11 12  1  1  0  0  0
 11 13  1  0  0  0  0
 13  8  1  1  0  0  0
 13 33  1  0  0  0  0
 14 46  1  0  0  0  0
 14 17  1  0  0  0  0
 14 25  1  6  0  0  0
 15 16  1  0  0  0  0
 15 29  1  0  0  0  0
 16 18  1  1  0  0  0
 16 21  1  0  0  0  0
 17 19  1  1  0  0  0
 17 20  1  0  0  0  0
 20 22  1  1  0  0  0
 20 24  1  0  0  0  0
 23 21  1  1  0  0  0
 23 26  1  0  0  0  0
 23 33  1  0  0  0  0
 24 25  1  6  0  0  0
 24 27  1  0  0  0  0
 26 29  1  6  0  0  0
 26 31  1  0  0  0  0
 27 28  1  0  0  0  0
 29 30  2  0  0  0  0
 31 32  1  0  0  0  0
 33 32  1  6  0  0  0
 34 36  1  0  0  0  0
 34 42  1  0  0  0  0
 36 37  1  6  0  0  0
 36 39  1  0  0  0  0
 40 39  1  1  0  0  0
 40 41  1  0  0  0  0
 40 46  1  0  0  0  0
 41 42  1  1  0  0  0
 41 44  1  0  0  0  0
 42 43  2  0  0  0  0
 44 45  1  0  0  0  0
 46 45  1  6  0  0  0
M  CHG  2   3  -1  35  -1
M  END
>  <CHROM.1>
132.38767990,157.19719874,-7.98937764,4.23033727,16.12372559,0.00912818,-0.41189447
1.14688772

>  <Name>
ligand

>  <RI>
-1

>  <Rbt.Current_Directory>
/home/itssahil/PROJECTS/Mol_Feturizer/Test_systems_manuscript/rnas/3mum

>  <Rbt.Executable>
rbdock ($Id: //depot/dev/client3/rdock/2013.1/src/exe/rbdock.cxx#4 $)

>  <Rbt.Library>
libRbt.so (2013.1, Build901 2013/11/27)

>  <Rbt.Parameter_File>
/export/apps/rDock/src/rDock_2013.1_src/data/scripts/dock_solv.prm

>  <Rbt.Receptor>
prm/pocket_docking_6.prm

>  <SCORE>
-16.8774

>  <SCORE.INTER>
-17.7621

>  <SCORE.INTER.CONST>
1

>  <SCORE.INTER.POLAR>
0

>  <SCORE.INTER.ROT>
2

>  <SCORE.INTER.SOLV>
28.0196

>  <SCORE.INTER.VDW>
-26.1146

>  <SCORE.INTER.norm>
-0.386132

>  <SCORE.INTRA>
0.88469

>  <SCORE.INTRA.DIHEDRAL>
-0.0322794

>  <SCORE.INTRA.DIHEDRAL.0>
2.40424

>  <SCORE.INTRA.POLAR>
0

>  <SCORE.INTRA.POLAR.0>
0

>  <SCORE.INTRA.REPUL>
0

>  <SCORE.INTRA.REPUL.0>
0

>  <SCORE.INTRA.SOLV>
1.2954

>  <SCORE.INTRA.SOLV.lig_0>
-134.169

>  <SCORE.INTRA.VDW>
0.253129

>  <SCORE.INTRA.VDW.0>
-2.18386

>  <SCORE.INTRA.norm>
0.0192324

>  <SCORE.RESTR>
0

>  <SCORE.RESTR.CAVITY>
0

>  <SCORE.RESTR.norm>
0

>  <SCORE.SYSTEM>
0

>  <SCORE.SYSTEM.CONST>
0

>  <SCORE.SYSTEM.DIHEDRAL>
0

>  <SCORE.SYSTEM.SOLV>
0

>  <SCORE.SYSTEM.norm>
0

>  <SCORE.heavy>
46

>  <SCORE.norm>
-0.366899

>  <RMSD>
4.913

$$$$
ligand
 OpenBabel02271912143D
libRbt.so/2013.1/901 2013/11/27
 46 52  0  0  0  0  0  0  0  0999 V2000
   -3.5564    5.8108   14.5350 P   0  0  1  0  0  0  0  0  0  0  0  0
   -9.0771    6.2558   16.5349 P   0  0  2  0  0  0  0  0  0  0  0  0
   -2.7783    4.3633   15.1992 O   0  5  0  0  0  0  0  0  0  0  0  0
   -2.4939    6.6571   13.3799 O   0  0  0  0  0  0  0  0  0  0  0  0
   -5.8261    6.3327   13.2702 C   0  0  0  0  0  0  0  0  0  0  0  0
   -4.9259    5.3651   13.8104 O   0  0  0  0  0  0  0  0  0  0  0  0
   -7.1898    5.6883   13.1100 C   0  0  1  0  0  0  0  0  0  0  0  0
   -7.0597    4.4771   12.3524 O   0  0  0  0  0  0  0  0  0  0  0  0
   -7.8184    5.2769   14.4314 C   0  0  1  0  0  0  0  0  0  0  0  0
   -8.6319    6.3094   14.9839 O   0  0  0  0  0  0  0  0  0  0  0  0
   -8.6320    4.0500   14.0590 C   0  0  1  0  0  0  0  0  0  0  0  0
   -9.9446    4.4388   13.6462 O   0  0  0  0  0  0  0  0  0  0  0  0
   -7.9103    3.4424   12.8706 C   0  0  2  0  0  0  0  0  0  0  0  0
   -4.6331    6.0966   19.1432 C   0  0  1  0  0  0  0  0  0  0  0  0
   -6.7727   -1.7154   12.3268 N   0  0  0  0  0  0  0  0  0  0  0  0
   -7.7072   -0.9703   11.6758 C   0  0  1  0  0  0  0  0  0  0  0  0
   -3.9960    5.6832   17.8468 C   0  0  2  0  0  0  0  0  0  0  0  0
   -8.4827   -1.5823   10.7513 N   0  0  0  0  0  0  0  0  0  0  0  0
   -2.6600    6.1886   17.8736 O   0  0  0  0  0  0  0  0  0  0  0  0
   -4.8356    6.3488   16.7745 C   0  0  2  0  0  0  0  0  0  0  0  0
   -7.8932    0.3610   11.9204 N   0  0  0  0  0  0  0  0  0  0  0  0
   -4.0369    6.8158   15.6959 O   0  0  0  0  0  0  0  0  0  0  0  0
   -7.1401    1.0212   12.8361 C   0  0  2  0  0  0  0  0  0  0  0  0
   -5.5018    7.5184   17.4723 C   0  0  2  0  0  0  0  0  0  0  0  0
   -5.4897    7.2031   18.8636 O   0  0  0  0  0  0  0  0  0  0  0  0
   -6.1153    0.2601   13.5717 C   0  0  1  0  0  0  0  0  0  0  0  0
   -6.9387    7.7408   17.0138 C   0  0  0  0  0  0  0  0  0  0  0  0
   -7.7139    6.5820   17.3274 O   0  0  0  0  0  0  0  0  0  0  0  0
   -5.9618   -1.1730   13.2636 C   0  0  0  0  0  0  0  0  0  0  0  0
   -5.0349   -1.9243   13.9105 O   0  0  0  0  0  0  0  0  0  0  0  0
   -5.5200    1.1174   14.4081 N   0  0  0  0  0  0  0  0  0  0  0  0
   -6.1113    2.3350   14.2308 C   0  0  0  0  0  0  0  0  0  0  0  0
   -7.0808    2.2828   13.2932 N   0  0  1  0  0  0  0  0  0  0  0  0
   -4.3321    1.8195   22.1406 N   0  0  0  0  0  0  0  0  0  0  0  0
   -9.6905    4.6420   16.9823 O   0  5  0  0  0  0  0  0  0  0  0  0
   -3.3575    2.6956   21.7724 C   0  0  2  0  0  0  0  0  0  0  0  0
   -2.0880    2.5004   22.2155 N   0  0  0  0  0  0  0  0  0  0  0  0
  -10.2814    7.4860   16.9641 O   0  0  0  0  0  0  0  0  0  0  0  0
   -3.6144    3.7660   20.9720 N   0  0  0  0  0  0  0  0  0  0  0  0
   -4.8597    4.0168   20.5048 C   0  0  2  0  0  0  0  0  0  0  0  0
   -5.9532    3.1048   20.8656 C   0  0  2  0  0  0  0  0  0  0  0  0
   -5.6116    1.9569   21.7326 C   0  0  0  0  0  0  0  0  0  0  0  0
   -6.5538    1.0604   22.1160 O   0  0  0  0  0  0  0  0  0  0  0  0
   -7.0633    3.5776   20.2651 N   0  0  0  0  0  0  0  0  0  0  0  0
   -6.7084    4.7046   19.5787 C   0  0  0  0  0  0  0  0  0  0  0  0
   -5.3885    4.9607   19.7238 N   0  0  1  0  0  0  0  0  0  0  0  0
  1  3  1  1  0  0  0
  1  4  2  0  0  0  0
  1  6  1  0  0  0  0
  1 22  1  0  0  0  0
  2 28  1  0  0  0  0
  2 35  1  1  0  0  0
  2 38  2  0  0  0  0
  2 10  1  0  0  0  0
  5  6  1  0  0  0  0
  7  5  1  1  0  0  0
  7  8  1  0  0  0  0
  7  9  1  0  0  0  0
  9 10  1  6  0  0  0
  9 11  1  0  0  0  0
 11 12  1  6  0  0  0
 11 13  1  0  0  0  0
 13  8  1  1  0  0  0
 13 33  1  0  0  0  0
 14 46  1  0  0  0  0
 14 17  1  0  0  0  0
 14 25  1  6  0  0  0
 15 16  1  0  0  0  0
 15 29  1  0  0  0  0
 16 18  1  1  0  0  0
 16 21  1  0  0  0  0
 17 19  1  1  0  0  0
 17 20  1  0  0  0  0
 20 22  1  6  0  0  0
 20 24  1  0  0  0  0
 23 21  1  1  0  0  0
 23 26  1  0  0  0  0
 23 33  1  0  0  0  0
 24 25  1  1  0  0  0
 24 27  1  0  0  0  0
 26 29  1  6  0  0  0
 26 31  1  0  0  0  0
 27 28  1  0  0  0  0
 29 30  2  0  0  0  0
 31 32  1  0  0  0  0
 33 32  1  6  0  0  0
 34 36  1  0  0  0  0
 34 42  1  0  0  0  0
 36 37  1  1  0  0  0
 36 39  1  0  0  0  0
 40 39  1  6  0  0  0
 40 41  1  0  0  0  0
 40 46  1  0  0  0  0
 41 42  1  6  0  0  0
 41 44  1  0  0  0  0
 42 43  2  0  0  0  0
 44 45  1  0  0  0  0
 46 45  1  1  0  0  0
M  CHG  2   3  -1  35  -1
M  END
>  <CHROM.1>
-120.26442933,86.06192093,-6.12595108,4.00237886,16.20012352,2.47564906,1.21347319
-2.84217053

>  <Name>
ligand

>  <RI>
-1

>  <Rbt.Current_Directory>
/home/itssahil/PROJECTS/Mol_Feturizer/Test_systems_manuscript/rnas/3mum

>  <Rbt.Executable>
rbdock ($Id: //depot/dev/client3/rdock/2013.1/src/exe/rbdock.cxx#4 $)

>  <Rbt.Library>
libRbt.so (2013.1, Build901 2013/11/27)

>  <Rbt.Parameter_File>
/export/apps/rDock/src/rDock_2013.1_src/data/scripts/dock_solv.prm

>  <Rbt.Receptor>
prm/pocket_docking_7.prm

>  <SCORE>
-24.8871

>  <SCORE.INTER>
-24.5638

>  <SCORE.INTER.CONST>
1

>  <SCORE.INTER.POLAR>
0

>  <SCORE.INTER.ROT>
2

>  <SCORE.INTER.SOLV>
16.6046

>  <SCORE.INTER.VDW>
-26.8441

>  <SCORE.INTER.norm>
-0.533996

>  <SCORE.INTRA>
-0.32327

>  <SCORE.INTRA.DIHEDRAL>
0.0226715

>  <SCORE.INTRA.DIHEDRAL.0>
2.40424

>  <SCORE.INTRA.POLAR>
0

>  <SCORE.INTRA.POLAR.0>
0

>  <SCORE.INTRA.REPUL>
0

>  <SCORE.INTRA.REPUL.0>
0

>  <SCORE.INTRA.SOLV>
0.0604271

>  <SCORE.INTRA.SOLV.lig_0>
-134.169

>  <SCORE.INTRA.VDW>
-0.364819

>  <SCORE.INTRA.VDW.0>
-2.18386

>  <SCORE.INTRA.norm>
-0.00702761

>  <SCORE.RESTR>
0

>  <SCORE.RESTR.CAVITY>
0

>  <SCORE.RESTR.norm>
0

>  <SCORE.SYSTEM>
0

>  <SCORE.SYSTEM.CONST>
0

>  <SCORE.SYSTEM.DIHEDRAL>
0

>  <SCORE.SYSTEM.SOLV>
0

>  <SCORE.SYSTEM.norm>
0

>  <SCORE.heavy>
46

>  <SCORE.norm>
-0.541024

>  <RMSD>
4.942

$$$$
ligand
 OpenBabel02271912143D
libRbt.so/2013.1/901 2013/11/27
 46 52  0  0  0  0  0  0  0  0999 V2000
   -5.8509    1.8940   19.7508 P   0  0  1  0  0  0  0  0  0  0  0  0
   -5.8243    6.9742   16.7731 P   0  0  2  0  0  0  0  0  0  0  0  0
   -6.9617    0.7421   18.9884 O   0  5  0  0  0  0  0  0  0  0  0  0
   -4.9869    1.1614   21.1278 O   0  0  0  0  0  0  0  0  0  0  0  0
   -3.8433    3.4180   18.9323 C   0  0  0  0  0  0  0  0  0  0  0  0
   -4.8001    2.4001   18.6378 O   0  0  0  0  0  0  0  0  0  0  0  0
   -3.3517    4.0124   17.6262 C   0  0  1  0  0  0  0  0  0  0  0  0
   -2.8884    2.9608   16.7674 O   0  0  0  0  0  0  0  0  0  0  0  0
   -4.4417    4.7268   16.8440 C   0  0  1  0  0  0  0  0  0  0  0  0
   -4.5191    6.1120   17.1730 O   0  0  0  0  0  0  0  0  0  0  0  0
   -4.0292    4.5079   15.3990 C   0  0  1  0  0  0  0  0  0  0  0  0
   -3.1501    5.5533   14.9762 O   0  0  0  0  0  0  0  0  0  0  0  0
   -3.2604    3.1996   15.4009 C   0  0  2  0  0  0  0  0  0  0  0  0
   -9.7367    4.5227   19.0669 C   0  0  1  0  0  0  0  0  0  0  0  0
   -7.7195    1.6825   12.9499 N   0  0  0  0  0  0  0  0  0  0  0  0
   -7.2723    2.9403   13.2153 C   0  0  1  0  0  0  0  0  0  0  0  0
   -8.8079    3.3476   19.1837 C   0  0  2  0  0  0  0  0  0  0  0  0
   -8.0345    3.9865   12.8214 N   0  0  0  0  0  0  0  0  0  0  0  0
   -9.1890    2.6475   20.3694 O   0  0  0  0  0  0  0  0  0  0  0  0
   -7.4256    3.9582   19.3021 C   0  0  2  0  0  0  0  0  0  0  0  0
   -6.0940    3.1852   13.8620 N   0  0  0  0  0  0  0  0  0  0  0  0
   -6.6082    3.2363   20.2132 O   0  0  0  0  0  0  0  0  0  0  0  0
   -5.2930    2.1708   14.2754 C   0  0  2  0  0  0  0  0  0  0  0  0
   -7.6640    5.3634   19.8188 C   0  0  2  0  0  0  0  0  0  0  0  0
   -9.0137    5.6805   19.4830 O   0  0  0  0  0  0  0  0  0  0  0  0
   -5.7321    0.7887   14.0156 C   0  0  1  0  0  0  0  0  0  0  0  0
   -6.7289    6.3914   19.1916 C   0  0  0  0  0  0  0  0  0  0  0  0
   -6.9558    6.4302   17.7813 O   0  0  0  0  0  0  0  0  0  0  0  0
   -7.0123    0.5883   13.3136 C   0  0  0  0  0  0  0  0  0  0  0  0
   -7.4675   -0.6624   13.0482 O   0  0  0  0  0  0  0  0  0  0  0  0
   -4.7904   -0.0189   14.5157 N   0  0  0  0  0  0  0  0  0  0  0  0
   -3.8203    0.7745   15.0571 C   0  0  0  0  0  0  0  0  0  0  0  0
   -4.1162    2.0839   14.9171 N   0  0  1  0  0  0  0  0  0  0  0  0
  -10.7288    7.8640   15.1656 N   0  0  0  0  0  0  0  0  0  0  0  0
   -6.3034    6.6855   15.0796 O   0  5  0  0  0  0  0  0  0  0  0  0
  -10.2742    8.1062   16.4255 C   0  0  2  0  0  0  0  0  0  0  0  0
  -10.0090    9.3848   16.8008 N   0  0  0  0  0  0  0  0  0  0  0  0
   -5.6261    8.7167   17.0427 O   0  0  0  0  0  0  0  0  0  0  0  0
  -10.0749    7.1049   17.3256 N   0  0  0  0  0  0  0  0  0  0  0  0
  -10.3147    5.8110   17.0085 C   0  0  2  0  0  0  0  0  0  0  0  0
  -10.8097    5.4869   15.6640 C   0  0  2  0  0  0  0  0  0  0  0  0
  -11.0122    6.6172   14.7326 C   0  0  0  0  0  0  0  0  0  0  0  0
  -11.4686    6.4161   13.4717 O   0  0  0  0  0  0  0  0  0  0  0  0
  -10.9708    4.1494   15.6249 N   0  0  0  0  0  0  0  0  0  0  0  0
  -10.6037    3.6574   16.8456 C   0  0  0  0  0  0  0  0  0  0  0  0
  -10.2147    4.6565   17.6699 N   0  0  1  0  0  0  0  0  0  0  0  0
  1  3  1  6  0  0  0
  1  4  2  0  0  0  0
  1  6  1  0  0  0  0
  1 22  1  0  0  0  0
  2 28  1  0  0  0  0
  2 35  1  6  0  0  0
  2 38  2  0  0  0  0
  2 10  1  0  0  0  0
  5  6  1  0  0  0  0
  7  5  1  1  0  0  0
  7  8  1  0  0  0  0
  7  9  1  0  0  0  0
  9 10  1  1  0  0  0
  9 11  1  0  0  0  0
 11 12  1  1  0  0  0
 11 13  1  0  0  0  0
 13  8  1  1  0  0  0
 13 33  1  0  0  0  0
 14 46  1  0  0  0  0
 14 17  1  0  0  0  0
 14 25  1  6  0  0  0
 15 16  1  0  0  0  0
 15 29  1  0  0  0  0
 16 18  1  1  0  0  0
 16 21  1  0  0  0  0
 17 19  1  1  0  0  0
 17 20  1  0  0  0  0
 20 22  1  1  0  0  0
 20 24  1  0  0  0  0
 23 21  1  1  0  0  0
 23 26  1  0  0  0  0
 23 33  1  0  0  0  0
 24 25  1  6  0  0  0
 24 27  1  0  0  0  0
 26 29  1  6  0  0  0
 26 31  1  0  0  0  0
 27 28  1  0  0  0  0
 29 30  2  0  0  0  0
 31 32  1  0  0  0  0
 33 32  1  6  0  0  0
 34 36  1  0  0  0  0
 34 42  1  0  0  0  0
 36 37  1  6  0  0  0
 36 39  1  0  0  0  0
 40 39  1  1  0  0  0
 40 41  1  0  0  0  0
 40 46  1  0  0  0  0
 41 42  1  1  0  0  0
 41 44  1  0  0  0  0
 42 43  2  0  0  0  0
 44 45  1  0  0  0  0
 46 45  1  6  0  0  0
M  CHG  2   3  -1  35  -1
M  END
>  <CHROM.1>
130.86727577,-137.17486544,-6.97141477,4.18762543,16.75008443,-0.24851397
-0.72264380,1.24895417

>  <Name>
ligand

>  <RI>
-1

>  <Rbt.Current_Directory>
/home/itssahil/PROJECTS/Mol_Feturizer/Test_systems_manuscript/rnas/3mum

>  <Rbt.Executable>
rbdock ($Id: //depot/dev/client3/rdock/2013.1/src/exe/rbdock.cxx#4 $)

>  <Rbt.Library>
libRbt.so (2013.1, Build901 2013/11/27)

>  <Rbt.Parameter_File>
/export/apps/rDock/src/rDock_2013.1_src/data/scripts/dock_solv.prm

>  <Rbt.Receptor>
prm/pocket_docking_6.prm

>  <SCORE>
-15.8592

>  <SCORE.INTER>
-15.9672

>  <SCORE.INTER.CONST>
1

>  <SCORE.INTER.POLAR>
0

>  <SCORE.INTER.ROT>
2

>  <SCORE.INTER.SOLV>
19.1341

>  <SCORE.INTER.VDW>
-21.9562

>  <SCORE.INTER.norm>
-0.347114

>  <SCORE.INTRA>
0.107989

>  <SCORE.INTRA.DIHEDRAL>
0.0157954

>  <SCORE.INTRA.DIHEDRAL.0>
2.40424

>  <SCORE.INTRA.POLAR>
0

>  <SCORE.INTRA.POLAR.0>
0

>  <SCORE.INTRA.REPUL>
0

>  <SCORE.INTRA.REPUL.0>
0

>  <SCORE.INTRA.SOLV>
1.17796

>  <SCORE.INTRA.SOLV.lig_0>
-134.169

>  <SCORE.INTRA.VDW>
-0.488891

>  <SCORE.INTRA.VDW.0>
-2.18386

>  <SCORE.INTRA.norm>
0.00234758

>  <SCORE.RESTR>
0

>  <SCORE.RESTR.CAVITY>
0

>  <SCORE.RESTR.norm>
0

>  <SCORE.SYSTEM>
0

>  <SCORE.SYSTEM.CONST>
0

>  <SCORE.SYSTEM.DIHEDRAL>
0

>  <SCORE.SYSTEM.SOLV>
0

>  <SCORE.SYSTEM.norm>
0

>  <SCORE.heavy>
46

>  <SCORE.norm>
-0.344766

>  <RMSD>
4.971

$$$$
ligand
 OpenBabel02271912143D
libRbt.so/2013.1/901 2013/11/27
 46 52  0  0  0  0  0  0  0  0999 V2000
   -6.0016    1.8984   19.6813 P   0  0  1  0  0  0  0  0  0  0  0  0
   -5.8186    6.9353   16.6363 P   0  0  2  0  0  0  0  0  0  0  0  0
   -7.1080    0.7520   18.9045 O   0  5  0  0  0  0  0  0  0  0  0  0
   -5.1863    1.1728   21.0914 O   0  0  0  0  0  0  0  0  0  0  0  0
   -3.9500    3.3817   18.8976 C   0  0  0  0  0  0  0  0  0  0  0  0
   -4.9133    2.3736   18.5908 O   0  0  0  0  0  0  0  0  0  0  0  0
   -3.4143    3.9505   17.5975 C   0  0  1  0  0  0  0  0  0  0  0  0
   -2.9433    2.8804   16.7662 O   0  0  0  0  0  0  0  0  0  0  0  0
   -4.4719    4.6695   16.7758 C   0  0  1  0  0  0  0  0  0  0  0  0
   -4.5377    6.0602   17.0837 O   0  0  0  0  0  0  0  0  0  0  0  0
   -4.0234    4.4243   15.3459 C   0  0  1  0  0  0  0  0  0  0  0  0
   -3.1178    5.4510   14.9332 O   0  0  0  0  0  0  0  0  0  0  0  0
   -3.2744    3.1053   15.3868 C   0  0  2  0  0  0  0  0  0  0  0  0
   -9.8279    4.5729   18.8550 C   0  0  1  0  0  0  0  0  0  0  0  0
   -7.7478    1.6169   12.9444 N   0  0  0  0  0  0  0  0  0  0  0  0
   -7.2991    2.8715   13.2219 C   0  0  1  0  0  0  0  0  0  0  0  0
   -8.9202    3.3862   19.0134 C   0  0  2  0  0  0  0  0  0  0  0  0
   -8.0635    3.9223   12.8448 N   0  0  0  0  0  0  0  0  0  0  0  0
   -9.3437    2.7085   20.1976 O   0  0  0  0  0  0  0  0  0  0  0  0
   -7.5327    3.9785   19.1613 C   0  0  2  0  0  0  0  0  0  0  0  0
   -6.1170    3.1089   13.8645 N   0  0  0  0  0  0  0  0  0  0  0  0
   -6.7512    3.2578   20.1043 O   0  0  0  0  0  0  0  0  0  0  0  0
   -5.3135    2.0897   14.2612 C   0  0  2  0  0  0  0  0  0  0  0  0
   -7.7643    5.3941   19.6521 C   0  0  2  0  0  0  0  0  0  0  0  0
   -9.0996    5.7259   19.2750 O   0  0  0  0  0  0  0  0  0  0  0  0
   -5.7542    0.7107   13.9879 C   0  0  1  0  0  0  0  0  0  0  0  0
   -6.7974    6.3996   19.0368 C   0  0  0  0  0  0  0  0  0  0  0  0
   -6.9852    6.4219   17.6204 O   0  0  0  0  0  0  0  0  0  0  0  0
   -7.0386    0.5186   13.2910 C   0  0  0  0  0  0  0  0  0  0  0  0
   -7.4954   -0.7290   13.0136 O   0  0  0  0  0  0  0  0  0  0  0  0
   -4.8096   -0.1026   14.4729 N   0  0  0  0  0  0  0  0  0  0  0  0
   -3.8364    0.6844   15.0178 C   0  0  0  0  0  0  0  0  0  0  0  0
   -4.1330    1.9953   14.8950 N   0  0  1  0  0  0  0  0  0  0  0  0
  -10.6519    7.8713   14.8788 N   0  0  0  0  0  0  0  0  0  0  0  0
   -6.2556    6.6297   14.9344 O   0  5  0  0  0  0  0  0  0  0  0  0
  -10.2268    8.1245   16.1469 C   0  0  2  0  0  0  0  0  0  0  0  0
   -9.9478    9.4036   16.5102 N   0  0  0  0  0  0  0  0  0  0  0  0
   -5.6022    8.6784   16.8874 O   0  0  0  0  0  0  0  0  0  0  0  0
  -10.0707    7.1337   17.0669 N   0  0  0  0  0  0  0  0  0  0  0  0
  -10.3262    5.8397   16.7628 C   0  0  2  0  0  0  0  0  0  0  0  0
  -10.7909    5.5040   15.4103 C   0  0  2  0  0  0  0  0  0  0  0  0
  -10.9469    6.6234   14.4570 C   0  0  0  0  0  0  0  0  0  0  0  0
  -11.3730    6.4113   13.1873 O   0  0  0  0  0  0  0  0  0  0  0  0
  -10.9759    4.1693   15.3868 N   0  0  0  0  0  0  0  0  0  0  0  0
  -10.6511    3.6895   16.6242 C   0  0  0  0  0  0  0  0  0  0  0  0
  -10.2656    4.6938   17.4437 N   0  0  1  0  0  0  0  0  0  0  0  0
  1  3  1  6  0  0  0
  1  4  2  0  0  0  0
  1  6  1  0  0  0  0
  1 22  1  0  0  0  0
  2 28  1  0  0  0  0
  2 35  1  6  0  0  0
  2 38  2  0  0  0  0
  2 10  1  0  0  0  0
  5  6  1  0  0  0  0
  7  5  1  1  0  0  0
  7  8  1  0  0  0  0
  7  9  1  0  0  0  0
  9 10  1  1  0  0  0
  9 11  1  0  0  0  0
 11 12  1  1  0  0  0
 11 13  1  0  0  0  0
 13  8  1  1  0  0  0
 13 33  1  0  0  0  0
 14 46  1  0  0  0  0
 14 17  1  0  0  0  0
 14 25  1  6  0  0  0
 15 16  1  0  0  0  0
 15 29  1  0  0  0  0
 16 18  1  1  0  0  0
 16 21  1  0  0  0  0
 17 19  1  1  0  0  0
 17 20  1  0  0  0  0
 20 22  1  1  0  0  0
 20 24  1  0  0  0  0
 23 21  1  1  0  0  0
 23 26  1  0  0  0  0
 23 33  1  0  0  0  0
 24 25  1  6  0  0  0
 24 27  1  0  0  0  0
 26 29  1  6  0  0  0
 26 31  1  0  0  0  0
 27 28  1  0  0  0  0
 29 30  2  0  0  0  0
 31 32  1  0  0  0  0
 33 32  1  6  0  0  0
 34 36  1  0  0  0  0
 34 42  1  0  0  0  0
 36 37  1  6  0  0  0
 36 39  1  0  0  0  0
 40 39  1  1  0  0  0
 40 41  1  0  0  0  0
 40 46  1  0  0  0  0
 41 42  1  1  0  0  0
 41 44  1  0  0  0  0
 42 43  2  0  0  0  0
 44 45  1  0  0  0  0
 46 45  1  6  0  0  0
M  CHG  2   3  -1  35  -1
M  END
>  <CHROM.1>
128.32202500,-136.93216763,-7.01104560,4.16517498,16.63127169,-0.22395105
-0.74322175,1.23527096

>  <Name>
ligand

>  <RI>
-1

>  <Rbt.Current_Directory>
/home/itssahil/PROJECTS/Mol_Feturizer/Test_systems_manuscript/rnas/3mum

>  <Rbt.Executable>
rbdock ($Id: //depot/dev/client3/rdock/2013.1/src/exe/rbdock.cxx#4 $)

>  <Rbt.Library>
libRbt.so (2013.1, Build901 2013/11/27)

>  <Rbt.Parameter_File>
/export/apps/rDock/src/rDock_2013.1_src/data/scripts/dock_solv.prm

>  <Rbt.Receptor>
prm/pocket_docking_6.prm

>  <SCORE>
-15.7364

>  <SCORE.INTER>
-16.0051

>  <SCORE.INTER.CONST>
1

>  <SCORE.INTER.POLAR>
0

>  <SCORE.INTER.ROT>
2

>  <SCORE.INTER.SOLV>
19.3957

>  <SCORE.INTER.VDW>
-22.0687

>  <SCORE.INTER.norm>
-0.347937

>  <SCORE.INTRA>
0.268678

>  <SCORE.INTRA.DIHEDRAL>
0.0160046

>  <SCORE.INTRA.DIHEDRAL.0>
2.40424

>  <SCORE.INTRA.POLAR>
0

>  <SCORE.INTRA.POLAR.0>
0

>  <SCORE.INTRA.REPUL>
0

>  <SCORE.INTRA.REPUL.0>
0

>  <SCORE.INTRA.SOLV>
1.53218

>  <SCORE.INTRA.SOLV.lig_0>
-134.169

>  <SCORE.INTRA.VDW>
-0.505416

>  <SCORE.INTRA.VDW.0>
-2.18386

>  <SCORE.INTRA.norm>
0.00584082

>  <SCORE.RESTR>
0

>  <SCORE.RESTR.CAVITY>
0

>  <SCORE.RESTR.norm>
0

>  <SCORE.SYSTEM>
0

>  <SCORE.SYSTEM.CONST>
0

>  <SCORE.SYSTEM.DIHEDRAL>
0

>  <SCORE.SYSTEM.SOLV>
0

>  <SCORE.SYSTEM.norm>
0

>  <SCORE.heavy>
46

>  <SCORE.norm>
-0.342097

>  <RMSD>
4.997

$$$$
ligand
 OpenBabel02271912143D
libRbt.so/2013.1/901 2013/11/27
 46 52  0  0  0  0  0  0  0  0999 V2000
   -5.5268    7.1101   16.7605 P   0  0  1  0  0  0  0  0  0  0  0  0
   -5.7262    1.9842   19.6521 P   0  0  2  0  0  0  0  0  0  0  0  0
   -6.1279    6.9045   15.1057 O   0  5  0  0  0  0  0  0  0  0  0  0
   -5.1336    8.8137   17.1104 O   0  0  0  0  0  0  0  0  0  0  0  0
   -6.4117    6.5171   19.1871 C   0  0  0  0  0  0  0  0  0  0  0  0
   -6.6545    6.5763   17.7815 O   0  0  0  0  0  0  0  0  0  0  0  0
   -7.4070    5.5569   19.8099 C   0  0  1  0  0  0  0  0  0  0  0  0
   -8.7376    5.9351   19.4297 O   0  0  0  0  0  0  0  0  0  0  0  0
   -7.2385    4.1239   19.3320 C   0  0  1  0  0  0  0  0  0  0  0  0
   -6.3547    3.3794   20.1673 O   0  0  0  0  0  0  0  0  0  0  0  0
   -8.6548    3.5777   19.3732 C   0  0  1  0  0  0  0  0  0  0  0  0
   -8.9321    3.0308   20.6649 O   0  0  0  0  0  0  0  0  0  0  0  0
   -9.5502    4.7832   19.1550 C   0  0  2  0  0  0  0  0  0  0  0  0
   -3.2294    3.2230   15.3152 C   0  0  1  0  0  0  0  0  0  0  0  0
  -11.6513    7.6664   15.2223 N   0  0  0  0  0  0  0  0  0  0  0  0
  -11.3405    8.0456   16.4920 C   0  0  1  0  0  0  0  0  0  0  0  0
   -4.0481    4.4827   15.3153 C   0  0  2  0  0  0  0  0  0  0  0  0
  -11.5826    9.3265   16.8543 N   0  0  0  0  0  0  0  0  0  0  0  0
   -3.2417    5.4891   14.7005 O   0  0  0  0  0  0  0  0  0  0  0  0
   -4.3059    4.7754   16.7801 C   0  0  2  0  0  0  0  0  0  0  0  0
  -10.8005    7.1884   17.4087 N   0  0  0  0  0  0  0  0  0  0  0  0
   -4.2554    6.1688   17.0546 O   0  0  0  0  0  0  0  0  0  0  0  0
  -10.5371    5.8948   17.0941 C   0  0  2  0  0  0  0  0  0  0  0  0
   -3.1943    4.0591   17.5215 C   0  0  2  0  0  0  0  0  0  0  0  0
   -2.7276    3.0404   16.6385 O   0  0  0  0  0  0  0  0  0  0  0  0
  -10.8577    5.4316   15.7329 C   0  0  1  0  0  0  0  0  0  0  0  0
   -3.6652    3.4251   18.8256 C   0  0  0  0  0  0  0  0  0  0  0  0
   -4.6617    2.4431   18.5346 O   0  0  0  0  0  0  0  0  0  0  0  0
  -11.4381    6.4030   14.7887 C   0  0  0  0  0  0  0  0  0  0  0  0
  -11.7545    6.0324   13.5219 O   0  0  0  0  0  0  0  0  0  0  0  0
  -10.5177    4.1394   15.6718 N   0  0  0  0  0  0  0  0  0  0  0  0
  -10.0186    3.7923   16.8941 C   0  0  0  0  0  0  0  0  0  0  0  0
  -10.0289    4.8374   17.7481 N   0  0  1  0  0  0  0  0  0  0  0  0
   -7.5094    1.7603   12.6864 N   0  0  0  0  0  0  0  0  0  0  0  0
   -6.9742    0.9323   18.9334 O   0  5  0  0  0  0  0  0  0  0  0  0
   -7.0061    3.0056   12.9079 C   0  0  2  0  0  0  0  0  0  0  0  0
   -7.6545    4.0840   12.3954 N   0  0  0  0  0  0  0  0  0  0  0  0
   -4.8591    1.0932   20.9179 O   0  0  0  0  0  0  0  0  0  0  0  0
   -5.8692    3.2066   13.6285 N   0  0  0  0  0  0  0  0  0  0  0  0
   -5.1757    2.1720   14.1584 C   0  0  2  0  0  0  0  0  0  0  0  0
   -5.6709    0.8041   13.9557 C   0  0  2  0  0  0  0  0  0  0  0  0
   -6.9136    0.6495   13.1696 C   0  0  0  0  0  0  0  0  0  0  0  0
   -7.4481   -0.5739   12.9326 O   0  0  0  0  0  0  0  0  0  0  0  0
   -4.8089   -0.0156   14.5893 N   0  0  0  0  0  0  0  0  0  0  0  0
   -3.8377    0.7660   15.1487 C   0  0  0  0  0  0  0  0  0  0  0  0
   -4.0639    2.0738   14.8897 N   0  0  1  0  0  0  0  0  0  0  0  0
  1  3  1  6  0  0  0
  1  4  2  0  0  0  0
  1  6  1  0  0  0  0
  1 22  1  0  0  0  0
  2 28  1  0  0  0  0
  2 35  1  6  0  0  0
  2 38  2  0  0  0  0
  2 10  1  0  0  0  0
  5  6  1  0  0  0  0
  7  5  1  6  0  0  0
  7  8  1  0  0  0  0
  7  9  1  0  0  0  0
  9 10  1  1  0  0  0
  9 11  1  0  0  0  0
 11 12  1  1  0  0  0
 11 13  1  0  0  0  0
 13  8  1  6  0  0  0
 13 33  1  0  0  0  0
 14 46  1  0  0  0  0
 14 17  1  0  0  0  0
 14 25  1  1  0  0  0
 15 16  1  0  0  0  0
 15 29  1  0  0  0  0
 16 18  1  1  0  0  0
 16 21  1  0  0  0  0
 17 19  1  1  0  0  0
 17 20  1  0  0  0  0
 20 22  1  6  0  0  0
 20 24  1  0  0  0  0
 23 21  1  1  0  0  0
 23 26  1  0  0  0  0
 23 33  1  0  0  0  0
 24 25  1  6  0  0  0
 24 27  1  0  0  0  0
 26 29  1  6  0  0  0
 26 31  1  0  0  0  0
 27 28  1  0  0  0  0
 29 30  2  0  0  0  0
 31 32  1  0  0  0  0
 33 32  1  6  0  0  0
 34 36  1  0  0  0  0
 34 42  1  0  0  0  0
 36 37  1  6  0  0  0
 36 39  1  0  0  0  0
 40 39  1  1  0  0  0
 40 41  1  0  0  0  0
 40 46  1  0  0  0  0
 41 42  1  1  0  0  0
 41 44  1  0  0  0  0
 42 43  2  0  0  0  0
 44 45  1  0  0  0  0
 46 45  1  6  0  0  0
M  CHG  2   3  -1  35  -1
M  END
>  <CHROM.1>
-44.93044637,22.96142889,-6.91936883,4.25107534,16.71097592,-2.84794351,0.62214667
-1.94225231

>  <Name>
ligand

>  <RI>
-1

>  <Rbt.Current_Directory>
/home/itssahil/PROJECTS/Mol_Feturizer/Test_systems_manuscript/rnas/3mum

>  <Rbt.Executable>
rbdock ($Id: //depot/dev/client3/rdock/2013.1/src/exe/rbdock.cxx#4 $)

>  <Rbt.Library>
libRbt.so (2013.1, Build901 2013/11/27)

>  <Rbt.Parameter_File>
/export/apps/rDock/src/rDock_2013.1_src/data/scripts/dock_solv.prm

>  <Rbt.Receptor>
prm/pocket_docking_6.prm

>  <SCORE>
-15.6073

>  <SCORE.INTER>
-16.9459

>  <SCORE.INTER.CONST>
1

>  <SCORE.INTER.POLAR>
0

>  <SCORE.INTER.ROT>
2

>  <SCORE.INTER.SOLV>
20.7798

>  <SCORE.INTER.VDW>
-23.1572

>  <SCORE.INTER.norm>
-0.36839

>  <SCORE.INTRA>
1.3386

>  <SCORE.INTRA.DIHEDRAL>
-0.0271686

>  <SCORE.INTRA.DIHEDRAL.0>
2.40424

>  <SCORE.INTRA.POLAR>
0

>  <SCORE.INTRA.POLAR.0>
0

>  <SCORE.INTRA.REPUL>
0

>  <SCORE.INTRA.REPUL.0>
0

>  <SCORE.INTRA.SOLV>
0.571498

>  <SCORE.INTRA.SOLV.lig_0>
-134.169

>  <SCORE.INTRA.VDW>
1.06644

>  <SCORE.INTRA.VDW.0>
-2.18386

>  <SCORE.INTRA.norm>
0.0291001

>  <SCORE.RESTR>
0

>  <SCORE.RESTR.CAVITY>
0

>  <SCORE.RESTR.norm>
0

>  <SCORE.SYSTEM>
0

>  <SCORE.SYSTEM.CONST>
0

>  <SCORE.SYSTEM.DIHEDRAL>
0

>  <SCORE.SYSTEM.SOLV>
0

>  <SCORE.SYSTEM.norm>
0

>  <SCORE.heavy>
46

>  <SCORE.norm>
-0.33929

>  <RMSD>
5.004

$$$$
ligand
 OpenBabel02271912143D
libRbt.so/2013.1/901 2013/11/27
 46 52  0  0  0  0  0  0  0  0999 V2000
   -3.3388    5.5857   14.3470 P   0  0  1  0  0  0  0  0  0  0  0  0
   -8.7956    6.2295   16.4647 P   0  0  2  0  0  0  0  0  0  0  0  0
   -2.5983    4.1126   14.9976 O   0  5  0  0  0  0  0  0  0  0  0  0
   -2.2723    6.3920   13.1673 O   0  0  0  0  0  0  0  0  0  0  0  0
   -5.6154    6.1860   13.1304 C   0  0  0  0  0  0  0  0  0  0  0  0
   -4.7387    5.1878   13.6532 O   0  0  0  0  0  0  0  0  0  0  0  0
   -7.0043    5.5901   13.0011 C   0  0  1  0  0  0  0  0  0  0  0  0
   -6.9336    4.3739   12.2437 O   0  0  0  0  0  0  0  0  0  0  0  0
   -7.6183    5.2033   14.3367 C   0  0  1  0  0  0  0  0  0  0  0  0
   -8.3825    6.2649   14.9043 O   0  0  0  0  0  0  0  0  0  0  0  0
   -8.4828    4.0055   13.9848 C   0  0  1  0  0  0  0  0  0  0  0  0
   -9.7894    4.4400   13.5996 O   0  0  0  0  0  0  0  0  0  0  0  0
   -7.8090    3.3708   12.7824 C   0  0  2  0  0  0  0  0  0  0  0  0
   -4.3046    5.9166   18.9767 C   0  0  1  0  0  0  0  0  0  0  0  0
   -6.8524   -1.8205   12.2102 N   0  0  0  0  0  0  0  0  0  0  0  0
   -7.7716   -1.0430   11.5754 C   0  0  1  0  0  0  0  0  0  0  0  0
   -3.7108    5.4789   17.6679 C   0  0  2  0  0  0  0  0  0  0  0  0
   -8.5812   -1.6264   10.6618 N   0  0  0  0  0  0  0  0  0  0  0  0
   -2.3575    5.9366   17.6646 O   0  0  0  0  0  0  0  0  0  0  0  0
   -4.5493    6.1723   16.6124 C   0  0  2  0  0  0  0  0  0  0  0  0
   -7.9093    0.2931   11.8257 N   0  0  0  0  0  0  0  0  0  0  0  0
   -3.7582    6.6090   15.5157 O   0  0  0  0  0  0  0  0  0  0  0  0
   -7.1205    0.9254   12.7310 C   0  0  2  0  0  0  0  0  0  0  0  0
   -5.1584    7.3658   17.3217 C   0  0  2  0  0  0  0  0  0  0  0  0
   -5.1273    7.0524   18.7131 O   0  0  0  0  0  0  0  0  0  0  0  0
   -6.1105    0.1287   13.4490 C   0  0  1  0  0  0  0  0  0  0  0  0
   -6.5961    7.6384   16.8938 C   0  0  0  0  0  0  0  0  0  0  0  0
   -7.4049    6.5083   17.2268 O   0  0  0  0  0  0  0  0  0  0  0  0
   -6.0095   -1.3078   13.1355 C   0  0  0  0  0  0  0  0  0  0  0  0
   -5.0983   -2.0913   13.7664 O   0  0  0  0  0  0  0  0  0  0  0  0
   -5.4741    0.9636   14.2779 N   0  0  0  0  0  0  0  0  0  0  0  0
   -6.0272    2.2006   14.1123 C   0  0  0  0  0  0  0  0  0  0  0  0
   -7.0122    2.1832   13.1897 N   0  0  1  0  0  0  0  0  0  0  0  0
   -4.1779    1.8620   22.2802 N   0  0  0  0  0  0  0  0  0  0  0  0
   -9.4560    4.6391   16.9289 O   0  5  0  0  0  0  0  0  0  0  0  0
   -3.1898    2.7291   21.9269 C   0  0  2  0  0  0  0  0  0  0  0  0
   -1.9558    2.5890   22.4780 N   0  0  0  0  0  0  0  0  0  0  0  0
   -9.9460    7.5023   16.9170 O   0  0  0  0  0  0  0  0  0  0  0  0
   -3.3986    3.7369   21.0364 N   0  0  0  0  0  0  0  0  0  0  0  0
   -4.6074    3.9313   20.4592 C   0  0  2  0  0  0  0  0  0  0  0  0
   -5.7130    3.0257   20.7986 C   0  0  2  0  0  0  0  0  0  0  0  0
   -5.4237    1.9468   21.7673 C   0  0  0  0  0  0  0  0  0  0  0  0
   -6.3804    1.0609   22.1395 O   0  0  0  0  0  0  0  0  0  0  0  0
   -6.7796    3.4349   20.0836 N   0  0  0  0  0  0  0  0  0  0  0  0
   -6.3882    4.5186   19.3492 C   0  0  0  0  0  0  0  0  0  0  0  0
   -5.0871    4.8092   19.5761 N   0  0  1  0  0  0  0  0  0  0  0  0
  1  3  1  1  0  0  0
  1  4  2  0  0  0  0
  1  6  1  0  0  0  0
  1 22  1  0  0  0  0
  2 28  1  0  0  0  0
  2 35  1  1  0  0  0
  2 38  2  0  0  0  0
  2 10  1  0  0  0  0
  5  6  1  0  0  0  0
  7  5  1  1  0  0  0
  7  8  1  0  0  0  0
  7  9  1  0  0  0  0
  9 10  1  6  0  0  0
  9 11  1  0  0  0  0
 11 12  1  6  0  0  0
 11 13  1  0  0  0  0
 13  8  1  1  0  0  0
 13 33  1  0  0  0  0
 14 46  1  0  0  0  0
 14 17  1  0  0  0  0
 14 25  1  6  0  0  0
 15 16  1  0  0  0  0
 15 29  1  0  0  0  0
 16 18  1  1  0  0  0
 16 21  1  0  0  0  0
 17 19  1  1  0  0  0
 17 20  1  0  0  0  0
 20 22  1  6  0  0  0
 20 24  1  0  0  0  0
 23 21  1  1  0  0  0
 23 26  1  0  0  0  0
 23 33  1  0  0  0  0
 24 25  1  1  0  0  0
 24 27  1  0  0  0  0
 26 29  1  6  0  0  0
 26 31  1  0  0  0  0
 27 28  1  0  0  0  0
 29 30  2  0  0  0  0
 31 32  1  0  0  0  0
 33 32  1  6  0  0  0
 34 36  1  0  0  0  0
 34 42  1  0  0  0  0
 36 37  1  1  0  0  0
 36 39  1  0  0  0  0
 40 39  1  6  0  0  0
 40 41  1  0  0  0  0
 40 46  1  0  0  0  0
 41 42  1  6  0  0  0
 41 44  1  0  0  0  0
 42 43  2  0  0  0  0
 44 45  1  0  0  0  0
 46 45  1  1  0  0  0
M  CHG  2   3  -1  35  -1
M  END
>  <CHROM.1>
-119.81684651,93.52397591,-5.94223474,3.89744864,16.10288374,2.64026918,1.22495709
-2.99288213

>  <Name>
ligand

>  <RI>
-1

>  <Rbt.Current_Directory>
/home/itssahil/PROJECTS/Mol_Feturizer/Test_systems_manuscript/rnas/3mum

>  <Rbt.Executable>
rbdock ($Id: //depot/dev/client3/rdock/2013.1/src/exe/rbdock.cxx#4 $)

>  <Rbt.Library>
libRbt.so (2013.1, Build901 2013/11/27)

>  <Rbt.Parameter_File>
/export/apps/rDock/src/rDock_2013.1_src/data/scripts/dock_solv.prm

>  <Rbt.Receptor>
prm/pocket_docking_6.prm

>  <SCORE>
-24.9228

>  <SCORE.INTER>
-24.572

>  <SCORE.INTER.CONST>
1

>  <SCORE.INTER.POLAR>
0

>  <SCORE.INTER.ROT>
2

>  <SCORE.INTER.SOLV>
18.885

>  <SCORE.INTER.VDW>
-27.6097

>  <SCORE.INTER.norm>
-0.534174

>  <SCORE.INTRA>
-0.350765

>  <SCORE.INTRA.DIHEDRAL>
0.022949

>  <SCORE.INTRA.DIHEDRAL.0>
2.40424

>  <SCORE.INTRA.POLAR>
0

>  <SCORE.INTRA.POLAR.0>
0

>  <SCORE.INTRA.REPUL>
0

>  <SCORE.INTRA.REPUL.0>
0

>  <SCORE.INTRA.SOLV>
0.0829062

>  <SCORE.INTRA.SOLV.lig_0>
-134.169

>  <SCORE.INTRA.VDW>
-0.403692

>  <SCORE.INTRA.VDW.0>
-2.18386

>  <SCORE.INTRA.norm>
-0.00762532

>  <SCORE.RESTR>
0

>  <SCORE.RESTR.CAVITY>
0

>  <SCORE.RESTR.norm>
0

>  <SCORE.SYSTEM>
0

>  <SCORE.SYSTEM.CONST>
0

>  <SCORE.SYSTEM.DIHEDRAL>
0

>  <SCORE.SYSTEM.SOLV>
0

>  <SCORE.SYSTEM.norm>
0

>  <SCORE.heavy>
46

>  <SCORE.norm>
-0.541799

>  <RMSD>
5.033

$$$$
ligand
 OpenBabel02271912143D
libRbt.so/2013.1/901 2013/11/27
 46 52  0  0  0  0  0  0  0  0999 V2000
   -6.1635    2.0329   19.6358 P   0  0  1  0  0  0  0  0  0  0  0  0
   -5.8369    6.9666   16.4376 P   0  0  2  0  0  0  0  0  0  0  0  0
   -7.2606    0.8738   18.8647 O   0  5  0  0  0  0  0  0  0  0  0  0
   -5.3969    1.3448   21.0911 O   0  0  0  0  0  0  0  0  0  0  0  0
   -4.0738    3.4685   18.8641 C   0  0  0  0  0  0  0  0  0  0  0  0
   -5.0395    2.4612   18.5622 O   0  0  0  0  0  0  0  0  0  0  0  0
   -3.4951    3.9892   17.5623 C   0  0  1  0  0  0  0  0  0  0  0  0
   -3.0130    2.8879   16.7795 O   0  0  0  0  0  0  0  0  0  0  0  0
   -4.5207    4.6923   16.6881 C   0  0  1  0  0  0  0  0  0  0  0  0
   -4.5792    6.0929   16.9492 O   0  0  0  0  0  0  0  0  0  0  0  0
   -4.0347    4.3964   15.2802 C   0  0  1  0  0  0  0  0  0  0  0  0
   -3.1061    5.3996   14.8609 O   0  0  0  0  0  0  0  0  0  0  0  0
   -3.3023    3.0715   15.3848 C   0  0  2  0  0  0  0  0  0  0  0  0
   -9.9341    4.7195   18.6150 C   0  0  1  0  0  0  0  0  0  0  0  0
   -7.6698    1.5501   12.7766 N   0  0  0  0  0  0  0  0  0  0  0  0
   -7.2066    2.8079   13.0128 C   0  0  1  0  0  0  0  0  0  0  0  0
   -9.0449    3.5291   18.8373 C   0  0  2  0  0  0  0  0  0  0  0  0
   -7.9235    3.8530   12.5389 N   0  0  0  0  0  0  0  0  0  0  0  0
   -9.5095    2.8944   20.0299 O   0  0  0  0  0  0  0  0  0  0  0  0
   -7.6554    4.1112   19.0058 C   0  0  2  0  0  0  0  0  0  0  0  0
   -6.0562    3.0541   13.7074 N   0  0  0  0  0  0  0  0  0  0  0  0
   -6.9092    3.4131   19.9934 O   0  0  0  0  0  0  0  0  0  0  0  0
   -5.3006    2.0408   14.2013 C   0  0  2  0  0  0  0  0  0  0  0  0
   -7.8846    5.5443   19.4441 C   0  0  2  0  0  0  0  0  0  0  0  0
   -9.2048    5.8777   19.0185 O   0  0  0  0  0  0  0  0  0  0  0  0
   -5.7590    0.6589   13.9762 C   0  0  1  0  0  0  0  0  0  0  0  0
   -6.8892    6.5191   18.8250 C   0  0  0  0  0  0  0  0  0  0  0  0
   -7.0366    6.4976   17.4037 O   0  0  0  0  0  0  0  0  0  0  0  0
   -7.0075    0.4571   13.2194 C   0  0  0  0  0  0  0  0  0  0  0  0
   -7.4785   -0.7936   12.9825 O   0  0  0  0  0  0  0  0  0  0  0  0
   -4.8624   -0.1473   14.5553 N   0  0  0  0  0  0  0  0  0  0  0  0
   -3.9017    0.6469   15.1121 C   0  0  0  0  0  0  0  0  0  0  0  0
   -4.1593    1.9553   14.9043 N   0  0  1  0  0  0  0  0  0  0  0  0
  -10.6175    7.8976   14.5162 N   0  0  0  0  0  0  0  0  0  0  0  0
   -6.2290    6.6107   14.7345 O   0  5  0  0  0  0  0  0  0  0  0  0
  -10.2269    8.1873   15.7875 C   0  0  2  0  0  0  0  0  0  0  0  0
   -9.9481    9.4752   16.1187 N   0  0  0  0  0  0  0  0  0  0  0  0
   -5.6077    8.7144   16.6389 O   0  0  0  0  0  0  0  0  0  0  0  0
  -10.1051    7.2247   16.7419 N   0  0  0  0  0  0  0  0  0  0  0  0
  -10.3621    5.9237   16.4709 C   0  0  2  0  0  0  0  0  0  0  0  0
  -10.7907    5.5492   15.1167 C   0  0  2  0  0  0  0  0  0  0  0  0
  -10.9104    6.6393   14.1249 C   0  0  0  0  0  0  0  0  0  0  0  0
  -11.3016    6.3906   12.8507 O   0  0  0  0  0  0  0  0  0  0  0  0
  -10.9857    4.2158   15.1293 N   0  0  0  0  0  0  0  0  0  0  0  0
  -10.7003    3.7726   16.3899 C   0  0  0  0  0  0  0  0  0  0  0  0
  -10.3303    4.7993   17.1886 N   0  0  1  0  0  0  0  0  0  0  0  0
  1  3  1  6  0  0  0
  1  4  2  0  0  0  0
  1  6  1  0  0  0  0
  1 22  1  0  0  0  0
  2 28  1  0  0  0  0
  2 35  1  6  0  0  0
  2 38  2  0  0  0  0
  2 10  1  0  0  0  0
  5  6  1  0  0  0  0
  7  5  1  1  0  0  0
  7  8  1  0  0  0  0
  7  9  1  0  0  0  0
  9 10  1  1  0  0  0
  9 11  1  0  0  0  0
 11 12  1  1  0  0  0
 11 13  1  0  0  0  0
 13  8  1  1  0  0  0
 13 33  1  0  0  0  0
 14 46  1  0  0  0  0
 14 17  1  0  0  0  0
 14 25  1  6  0  0  0
 15 16  1  0  0  0  0
 15 29  1  0  0  0  0
 16 18  1  1  0  0  0
 16 21  1  0  0  0  0
 17 19  1  1  0  0  0
 17 20  1  0  0  0  0
 20 22  1  1  0  0  0
 20 24  1  0  0  0  0
 23 21  1  1  0  0  0
 23 26  1  0  0  0  0
 23 33  1  0  0  0  0
 24 25  1  6  0  0  0
 24 27  1  0  0  0  0
 26 29  1  6  0  0  0
 26 31  1  0  0  0  0
 27 28  1  0  0  0  0
 29 30  2  0  0  0  0
 31 32  1  0  0  0  0
 33 32  1  6  0  0  0
 34 36  1  0  0  0  0
 34 42  1  0  0  0  0
 36 37  1  6  0  0  0
 36 39  1  0  0  0  0
 40 39  1  1  0  0  0
 40 41  1  0  0  0  0
 40 46  1  0  0  0  0
 41 42  1  1  0  0  0
 41 44  1  0  0  0  0
 42 43  2  0  0  0  0
 44 45  1  0  0  0  0
 46 45  1  6  0  0  0
M  CHG  2   3  -1  35  -1
M  END
>  <CHROM.1>
130.39131805,-137.13623057,-7.05581332,4.21036404,16.47793474,-0.18809107
-0.76424194,1.24077700

>  <Name>
ligand

>  <RI>
-1

>  <Rbt.Current_Directory>
/home/itssahil/PROJECTS/Mol_Feturizer/Test_systems_manuscript/rnas/3mum

>  <Rbt.Executable>
rbdock ($Id: //depot/dev/client3/rdock/2013.1/src/exe/rbdock.cxx#4 $)

>  <Rbt.Library>
libRbt.so (2013.1, Build901 2013/11/27)

>  <Rbt.Parameter_File>
/export/apps/rDock/src/rDock_2013.1_src/data/scripts/dock_solv.prm

>  <Rbt.Receptor>
prm/pocket_docking_5.prm

>  <SCORE>
-15.7889

>  <SCORE.INTER>
-15.9123

>  <SCORE.INTER.CONST>
1

>  <SCORE.INTER.POLAR>
0

>  <SCORE.INTER.ROT>
2

>  <SCORE.INTER.SOLV>
20.5007

>  <SCORE.INTER.VDW>
-22.3751

>  <SCORE.INTER.norm>
-0.345919

>  <SCORE.INTRA>
0.12341

>  <SCORE.INTRA.DIHEDRAL>
0.0158383

>  <SCORE.INTRA.DIHEDRAL.0>
2.40424

>  <SCORE.INTRA.POLAR>
0

>  <SCORE.INTRA.POLAR.0>
0

>  <SCORE.INTRA.REPUL>
0

>  <SCORE.INTRA.REPUL.0>
0

>  <SCORE.INTRA.SOLV>
1.2239

>  <SCORE.INTRA.SOLV.lig_0>
-134.169

>  <SCORE.INTRA.VDW>
-0.49646

>  <SCORE.INTRA.VDW.0>
-2.18386

>  <SCORE.INTRA.norm>
0.00268283

>  <SCORE.RESTR>
0

>  <SCORE.RESTR.CAVITY>
0

>  <SCORE.RESTR.norm>
0

>  <SCORE.SYSTEM>
0

>  <SCORE.SYSTEM.CONST>
0

>  <SCORE.SYSTEM.DIHEDRAL>
0

>  <SCORE.SYSTEM.SOLV>
0

>  <SCORE.SYSTEM.norm>
0

>  <SCORE.heavy>
46

>  <SCORE.norm>
-0.343237

>  <RMSD>
5.044

$$$$
ligand
 OpenBabel02271912143D
libRbt.so/2013.1/901 2013/11/27
 46 52  0  0  0  0  0  0  0  0999 V2000
   -6.0122    1.9177   19.6555 P   0  0  1  0  0  0  0  0  0  0  0  0
   -5.6795    6.9175   16.5623 P   0  0  2  0  0  0  0  0  0  0  0  0
   -7.1554    0.7990   18.8917 O   0  5  0  0  0  0  0  0  0  0  0  0
   -5.2169    1.1806   21.0709 O   0  0  0  0  0  0  0  0  0  0  0  0
   -3.9173    3.3291   18.8539 C   0  0  0  0  0  0  0  0  0  0  0  0
   -4.9121    2.3486   18.5585 O   0  0  0  0  0  0  0  0  0  0  0  0
   -3.3670    3.8686   17.5474 C   0  0  1  0  0  0  0  0  0  0  0  0
   -2.9312    2.7766   16.7255 O   0  0  0  0  0  0  0  0  0  0  0  0
   -4.4034    4.6123   16.7209 C   0  0  1  0  0  0  0  0  0  0  0  0
   -4.4254    6.0072   17.0156 O   0  0  0  0  0  0  0  0  0  0  0  0
   -3.9658    4.3398   15.2926 C   0  0  1  0  0  0  0  0  0  0  0  0
   -3.0297    5.3339   14.8684 O   0  0  0  0  0  0  0  0  0  0  0  0
   -3.2580    2.9986   15.3447 C   0  0  2  0  0  0  0  0  0  0  0  0
   -9.7554    4.7018   18.8107 C   0  0  1  0  0  0  0  0  0  0  0  0
   -7.6850    1.6226   12.7561 N   0  0  0  0  0  0  0  0  0  0  0  0
   -7.1820    2.8646   12.9944 C   0  0  1  0  0  0  0  0  0  0  0  0
   -8.8846    3.4891   18.9788 C   0  0  2  0  0  0  0  0  0  0  0  0
   -7.8691    3.9331   12.5286 N   0  0  0  0  0  0  0  0  0  0  0  0
   -9.3265    2.8361   20.1701 O   0  0  0  0  0  0  0  0  0  0  0  0
   -7.4791    4.0394   19.1185 C   0  0  2  0  0  0  0  0  0  0  0  0
   -6.0206    3.0725   13.6833 N   0  0  0  0  0  0  0  0  0  0  0  0
   -6.7184    3.3037   20.0669 O   0  0  0  0  0  0  0  0  0  0  0  0
   -5.2939    2.0345   14.1690 C   0  0  2  0  0  0  0  0  0  0  0  0
   -7.6656    5.4661   19.5961 C   0  0  2  0  0  0  0  0  0  0  0  0
   -8.9908    5.8356   19.2183 O   0  0  0  0  0  0  0  0  0  0  0  0
   -5.7958    0.6682   13.9413 C   0  0  1  0  0  0  0  0  0  0  0  0
   -6.6693    6.4352   18.9695 C   0  0  0  0  0  0  0  0  0  0  0  0
   -6.8593    6.4499   17.5533 O   0  0  0  0  0  0  0  0  0  0  0  0
   -7.0542    0.5080   13.1911 C   0  0  0  0  0  0  0  0  0  0  0  0
   -7.5649   -0.7266   12.9522 O   0  0  0  0  0  0  0  0  0  0  0  0
   -4.9213   -0.1674   14.5122 N   0  0  0  0  0  0  0  0  0  0  0  0
   -3.9334    0.5946   15.0664 C   0  0  0  0  0  0  0  0  0  0  0  0
   -4.1517    1.9112   14.8650 N   0  0  1  0  0  0  0  0  0  0  0  0
  -11.6149    7.9446   15.1508 N   0  0  0  0  0  0  0  0  0  0  0  0
   -6.1294    6.6095   14.8642 O   0  5  0  0  0  0  0  0  0  0  0  0
  -11.3165    8.1846   16.4570 C   0  0  2  0  0  0  0  0  0  0  0  0
  -11.4968    9.4337   16.9600 N   0  0  0  0  0  0  0  0  0  0  0  0
   -5.4085    8.6552   16.7964 O   0  0  0  0  0  0  0  0  0  0  0  0
  -10.8408    7.2100   17.2793 N   0  0  0  0  0  0  0  0  0  0  0  0
  -10.6340    5.9483   16.8346 C   0  0  2  0  0  0  0  0  0  0  0  0
  -10.9403    5.6272   15.4343 C   0  0  2  0  0  0  0  0  0  0  0  0
  -11.4597    6.7256   14.5918 C   0  0  0  0  0  0  0  0  0  0  0  0
  -11.7730    6.5239   13.2881 O   0  0  0  0  0  0  0  0  0  0  0  0
  -10.6566    4.3203   15.2678 N   0  0  0  0  0  0  0  0  0  0  0  0
  -10.2010    3.8450   16.4651 C   0  0  0  0  0  0  0  0  0  0  0  0
  -10.1922    4.8229   17.3991 N   0  0  1  0  0  0  0  0  0  0  0  0
  1  3  1  6  0  0  0
  1  4  2  0  0  0  0
  1  6  1  0  0  0  0
  1 22  1  0  0  0  0
  2 28  1  0  0  0  0
  2 35  1  6  0  0  0
  2 38  2  0  0  0  0
  2 10  1  0  0  0  0
  5  6  1  0  0  0  0
  7  5  1  1  0  0  0
  7  8  1  0  0  0  0
  7  9  1  0  0  0  0
  9 10  1  1  0  0  0
  9 11  1  0  0  0  0
 11 12  1  1  0  0  0
 11 13  1  0  0  0  0
 13  8  1  1  0  0  0
 13 33  1  0  0  0  0
 14 46  1  0  0  0  0
 14 17  1  0  0  0  0
 14 25  1  6  0  0  0
 15 16  1  0  0  0  0
 15 29  1  0  0  0  0
 16 18  1  1  0  0  0
 16 21  1  0  0  0  0
 17 19  1  1  0  0  0
 17 20  1  0  0  0  0
 20 22  1  1  0  0  0
 20 24  1  0  0  0  0
 23 21  1  1  0  0  0
 23 26  1  0  0  0  0
 23 33  1  0  0  0  0
 24 25  1  6  0  0  0
 24 27  1  0  0  0  0
 26 29  1  6  0  0  0
 26 31  1  0  0  0  0
 27 28  1  0  0  0  0
 29 30  2  0  0  0  0
 31 32  1  0  0  0  0
 33 32  1  6  0  0  0
 34 36  1  0  0  0  0
 34 42  1  0  0  0  0
 36 37  1  6  0  0  0
 36 39  1  0  0  0  0
 40 39  1  1  0  0  0
 40 41  1  0  0  0  0
 40 46  1  0  0  0  0
 41 42  1  1  0  0  0
 41 44  1  0  0  0  0
 42 43  2  0  0  0  0
 44 45  1  0  0  0  0
 46 45  1  6  0  0  0
M  CHG  2   3  -1  35  -1
M  END
>  <CHROM.1>
132.26836762,-159.78908445,-7.07068808,4.18092718,16.60550819,-0.25357492
-0.67161339,1.22000039

>  <Name>
ligand

>  <RI>
-1

>  <Rbt.Current_Directory>
/home/itssahil/PROJECTS/Mol_Feturizer/Test_systems_manuscript/rnas/3mum

>  <Rbt.Executable>
rbdock ($Id: //depot/dev/client3/rdock/2013.1/src/exe/rbdock.cxx#4 $)

>  <Rbt.Library>
libRbt.so (2013.1, Build901 2013/11/27)

>  <Rbt.Parameter_File>
/export/apps/rDock/src/rDock_2013.1_src/data/scripts/dock_solv.prm

>  <Rbt.Receptor>
prm/pocket_docking_5.prm

>  <SCORE>
-15.3578

>  <SCORE.INTER>
-16.3389

>  <SCORE.INTER.CONST>
1

>  <SCORE.INTER.POLAR>
0

>  <SCORE.INTER.ROT>
2

>  <SCORE.INTER.SOLV>
20.8616

>  <SCORE.INTER.VDW>
-22.7798

>  <SCORE.INTER.norm>
-0.355193

>  <SCORE.INTRA>
0.977455

>  <SCORE.INTRA.DIHEDRAL>
0.0173143

>  <SCORE.INTRA.DIHEDRAL.0>
2.40424

>  <SCORE.INTRA.POLAR>
0

>  <SCORE.INTRA.POLAR.0>
0

>  <SCORE.INTRA.REPUL>
0

>  <SCORE.INTRA.REPUL.0>
0

>  <SCORE.INTRA.SOLV>
1.06515

>  <SCORE.INTRA.SOLV.lig_0>
-134.169

>  <SCORE.INTRA.VDW>
0.436223

>  <SCORE.INTRA.VDW.0>
-2.18386

>  <SCORE.INTRA.norm>
0.021249

>  <SCORE.RESTR>
0.00358017

>  <SCORE.RESTR.CAVITY>
0.00358017

>  <SCORE.RESTR.norm>
7.78298e-05

>  <SCORE.SYSTEM>
0

>  <SCORE.SYSTEM.CONST>
0

>  <SCORE.SYSTEM.DIHEDRAL>
0

>  <SCORE.SYSTEM.SOLV>
0

>  <SCORE.SYSTEM.norm>
0

>  <SCORE.heavy>
46

>  <SCORE.norm>
-0.333866

>  <RMSD>
5.046

$$$$
ligand
 OpenBabel02271912143D
libRbt.so/2013.1/901 2013/11/27
 46 52  0  0  0  0  0  0  0  0999 V2000
   -5.8882    1.9147   19.7257 P   0  0  1  0  0  0  0  0  0  0  0  0
   -5.6071    6.9723   16.7227 P   0  0  2  0  0  0  0  0  0  0  0  0
   -7.0221    0.7993   18.9435 O   0  5  0  0  0  0  0  0  0  0  0  0
   -5.0837    1.1597   21.1264 O   0  0  0  0  0  0  0  0  0  0  0  0
   -3.8078    3.3599   18.9466 C   0  0  0  0  0  0  0  0  0  0  0  0
   -4.7939    2.3756   18.6350 O   0  0  0  0  0  0  0  0  0  0  0  0
   -3.2646    3.9279   17.6493 C   0  0  1  0  0  0  0  0  0  0  0  0
   -2.8200    2.8550   16.8072 O   0  0  0  0  0  0  0  0  0  0  0  0
   -4.3093    4.6767   16.8379 C   0  0  1  0  0  0  0  0  0  0  0  0
   -4.3438    6.0658   17.1577 O   0  0  0  0  0  0  0  0  0  0  0  0
   -3.8714    4.4340   15.4042 C   0  0  1  0  0  0  0  0  0  0  0  0
   -2.9453    5.4443   14.9967 O   0  0  0  0  0  0  0  0  0  0  0  0
   -3.1511    3.0988   15.4311 C   0  0  2  0  0  0  0  0  0  0  0  0
   -9.6585    4.6785   18.9367 C   0  0  1  0  0  0  0  0  0  0  0  0
   -7.5748    1.7286   12.8337 N   0  0  0  0  0  0  0  0  0  0  0  0
   -7.0838    2.9708   13.0950 C   0  0  1  0  0  0  0  0  0  0  0  0
   -8.7762    3.4712   19.0816 C   0  0  2  0  0  0  0  0  0  0  0  0
   -7.7841    4.0412   12.6539 N   0  0  0  0  0  0  0  0  0  0  0  0
   -9.2100    2.7927   20.2616 O   0  0  0  0  0  0  0  0  0  0  0  0
   -7.3757    4.0319   19.2292 C   0  0  2  0  0  0  0  0  0  0  0  0
   -5.9216    3.1771   13.7831 N   0  0  0  0  0  0  0  0  0  0  0  0
   -6.6065    3.2864   20.1630 O   0  0  0  0  0  0  0  0  0  0  0  0
   -5.1819    2.1372   14.2446 C   0  0  2  0  0  0  0  0  0  0  0  0
   -7.5747    5.4480   19.7327 C   0  0  2  0  0  0  0  0  0  0  0  0
   -8.9038    5.8119   19.3636 O   0  0  0  0  0  0  0  0  0  0  0  0
   -5.6705    0.7706   13.9913 C   0  0  1  0  0  0  0  0  0  0  0  0
   -6.5884    6.4375   19.1223 C   0  0  0  0  0  0  0  0  0  0  0  0
   -6.7809    6.4759   17.7068 O   0  0  0  0  0  0  0  0  0  0  0  0
   -6.9304    0.6122   13.2433 C   0  0  0  0  0  0  0  0  0  0  0  0
   -7.4291   -0.6227   12.9815 O   0  0  0  0  0  0  0  0  0  0  0  0
   -4.7846   -0.0671   14.5415 N   0  0  0  0  0  0  0  0  0  0  0  0
   -3.8024    0.6939   15.1068 C   0  0  0  0  0  0  0  0  0  0  0  0
   -4.0355    2.0119   14.9332 N   0  0  1  0  0  0  0  0  0  0  0  0
  -10.4774    8.0355   15.0088 N   0  0  0  0  0  0  0  0  0  0  0  0
   -6.0568    6.6908   15.0200 O   0  5  0  0  0  0  0  0  0  0  0  0
  -10.0487    8.2692   16.2794 C   0  0  2  0  0  0  0  0  0  0  0  0
   -9.7638    9.5420   16.6599 N   0  0  0  0  0  0  0  0  0  0  0  0
   -5.3519    8.7080   16.9877 O   0  0  0  0  0  0  0  0  0  0  0  0
   -9.8946    7.2651   17.1851 N   0  0  0  0  0  0  0  0  0  0  0  0
  -10.1560    5.9765   16.8634 C   0  0  2  0  0  0  0  0  0  0  0  0
  -10.6249    5.6616   15.5074 C   0  0  2  0  0  0  0  0  0  0  0  0
  -10.7784    6.7948   14.5702 C   0  0  0  0  0  0  0  0  0  0  0  0
  -11.2079    6.6022   13.2986 O   0  0  0  0  0  0  0  0  0  0  0  0
  -10.8154    4.3281   15.4656 N   0  0  0  0  0  0  0  0  0  0  0  0
  -10.4899    3.8298   16.6955 C   0  0  0  0  0  0  0  0  0  0  0  0
  -10.0987    4.8210   17.5282 N   0  0  1  0  0  0  0  0  0  0  0  0
  1  3  1  6  0  0  0
  1  4  2  0  0  0  0
  1  6  1  0  0  0  0
  1 22  1  0  0  0  0
  2 28  1  0  0  0  0
  2 35  1  6  0  0  0
  2 38  2  0  0  0  0
  2 10  1  0  0  0  0
  5  6  1  0  0  0  0
  7  5  1  1  0  0  0
  7  8  1  0  0  0  0
  7  9  1  0  0  0  0
  9 10  1  1  0  0  0
  9 11  1  0  0  0  0
 11 12  1  1  0  0  0
 11 13  1  0  0  0  0
 13  8  1  1  0  0  0
 13 33  1  0  0  0  0
 14 46  1  0  0  0  0
 14 17  1  0  0  0  0
 14 25  1  6  0  0  0
 15 16  1  0  0  0  0
 15 29  1  0  0  0  0
 16 18  1  1  0  0  0
 16 21  1  0  0  0  0
 17 19  1  1  0  0  0
 17 20  1  0  0  0  0
 20 22  1  1  0  0  0
 20 24  1  0  0  0  0
 23 21  1  1  0  0  0
 23 26  1  0  0  0  0
 23 33  1  0  0  0  0
 24 25  1  6  0  0  0
 24 27  1  0  0  0  0
 26 29  1  6  0  0  0
 26 31  1  0  0  0  0
 27 28  1  0  0  0  0
 29 30  2  0  0  0  0
 31 32  1  0  0  0  0
 33 32  1  6  0  0  0
 34 36  1  0  0  0  0
 34 42  1  0  0  0  0
 36 37  1  6  0  0  0
 36 39  1  0  0  0  0
 40 39  1  1  0  0  0
 40 41  1  0  0  0  0
 40 46  1  0  0  0  0
 41 42  1  1  0  0  0
 41 44  1  0  0  0  0
 42 43  2  0  0  0  0
 44 45  1  0  0  0  0
 46 45  1  6  0  0  0
M  CHG  2   3  -1  35  -1
M  END
>  <CHROM.1>
132.05214090,-137.99703288,-6.85534147,4.22965776,16.68342817,-0.23355356
-0.76264902,1.26075901

>  <Name>
ligand

>  <RI>
-1

>  <Rbt.Current_Directory>
/home/itssahil/PROJECTS/Mol_Feturizer/Test_systems_manuscript/rnas/3mum

>  <Rbt.Executable>
rbdock ($Id: //depot/dev/client3/rdock/2013.1/src/exe/rbdock.cxx#4 $)

>  <Rbt.Library>
libRbt.so (2013.1, Build901 2013/11/27)

>  <Rbt.Parameter_File>
/export/apps/rDock/src/rDock_2013.1_src/data/scripts/dock_solv.prm

>  <Rbt.Receptor>
prm/pocket_docking_6.prm

>  <SCORE>
-15.8281

>  <SCORE.INTER>
-15.9073

>  <SCORE.INTER.CONST>
1

>  <SCORE.INTER.POLAR>
0

>  <SCORE.INTER.ROT>
2

>  <SCORE.INTER.SOLV>
19.0025

>  <SCORE.INTER.VDW>
-21.8724

>  <SCORE.INTER.norm>
-0.345811

>  <SCORE.INTRA>
0.0792319

>  <SCORE.INTRA.DIHEDRAL>
0.0163063

>  <SCORE.INTRA.DIHEDRAL.0>
2.40424

>  <SCORE.INTRA.POLAR>
0

>  <SCORE.INTRA.POLAR.0>
0

>  <SCORE.INTRA.REPUL>
0

>  <SCORE.INTRA.REPUL.0>
0

>  <SCORE.INTRA.SOLV>
0.98906

>  <SCORE.INTRA.SOLV.lig_0>
-134.169

>  <SCORE.INTRA.VDW>
-0.423451

>  <SCORE.INTRA.VDW.0>
-2.18386

>  <SCORE.INTRA.norm>
0.00172243

>  <SCORE.RESTR>
0

>  <SCORE.RESTR.CAVITY>
0

>  <SCORE.RESTR.norm>
0

>  <SCORE.SYSTEM>
0

>  <SCORE.SYSTEM.CONST>
0

>  <SCORE.SYSTEM.DIHEDRAL>
0

>  <SCORE.SYSTEM.SOLV>
0

>  <SCORE.SYSTEM.norm>
0

>  <SCORE.heavy>
46

>  <SCORE.norm>
-0.344089

>  <RMSD>
5.092

$$$$
ligand
 OpenBabel02271912143D
libRbt.so/2013.1/901 2013/11/27
 46 52  0  0  0  0  0  0  0  0999 V2000
   -5.8698    1.9409   19.7463 P   0  0  1  0  0  0  0  0  0  0  0  0
   -5.5785    7.0156   16.7734 P   0  0  2  0  0  0  0  0  0  0  0  0
   -7.0182    0.8385   18.9668 O   0  5  0  0  0  0  0  0  0  0  0  0
   -5.0588    1.1712   21.1353 O   0  0  0  0  0  0  0  0  0  0  0  0
   -3.7859    3.3764   18.9587 C   0  0  0  0  0  0  0  0  0  0  0  0
   -4.7816    2.4010   18.6493 O   0  0  0  0  0  0  0  0  0  0  0  0
   -3.2498    3.9490   17.6605 C   0  0  1  0  0  0  0  0  0  0  0  0
   -2.8200    2.8784   16.8078 O   0  0  0  0  0  0  0  0  0  0  0  0
   -4.2961    4.7102   16.8628 C   0  0  1  0  0  0  0  0  0  0  0  0
   -4.3180    6.0974   17.1917 O   0  0  0  0  0  0  0  0  0  0  0  0
   -3.8721    4.4738   15.4239 C   0  0  1  0  0  0  0  0  0  0  0  0
   -2.9424    5.4801   15.0150 O   0  0  0  0  0  0  0  0  0  0  0  0
   -3.1611    3.1333   15.4361 C   0  0  2  0  0  0  0  0  0  0  0  0
   -9.6271    4.7361   19.0073 C   0  0  1  0  0  0  0  0  0  0  0  0
   -7.4213    1.7878   12.5669 N   0  0  0  0  0  0  0  0  0  0  0  0
   -6.8889    3.0213   12.7847 C   0  0  1  0  0  0  0  0  0  0  0  0
   -8.7521    3.5217   19.1369 C   0  0  2  0  0  0  0  0  0  0  0  0
   -7.4932    4.0887   12.2134 N   0  0  0  0  0  0  0  0  0  0  0  0
   -9.1806    2.8386   20.3163 O   0  0  0  0  0  0  0  0  0  0  0  0
   -7.3464    4.0716   19.2761 C   0  0  2  0  0  0  0  0  0  0  0  0
   -5.7782    3.2221   13.5545 N   0  0  0  0  0  0  0  0  0  0  0  0
   -6.5747    3.3147   20.1985 O   0  0  0  0  0  0  0  0  0  0  0  0
   -5.1348    2.1847   14.1474 C   0  0  2  0  0  0  0  0  0  0  0  0
   -7.5311    5.4858   19.7903 C   0  0  2  0  0  0  0  0  0  0  0  0
   -8.8608    5.8613   19.4349 O   0  0  0  0  0  0  0  0  0  0  0  0
   -5.6720    0.8277   13.9463 C   0  0  1  0  0  0  0  0  0  0  0  0
   -6.5431    6.4722   19.1778 C   0  0  0  0  0  0  0  0  0  0  0  0
   -6.7473    6.5211   17.7643 O   0  0  0  0  0  0  0  0  0  0  0  0
   -6.8725    0.6749   13.1051 C   0  0  0  0  0  0  0  0  0  0  0  0
   -7.4122   -0.5510   12.8858 O   0  0  0  0  0  0  0  0  0  0  0  0
   -4.8799   -0.0087   14.6261 N   0  0  0  0  0  0  0  0  0  0  0  0
   -3.9090    0.7444   15.2209 C   0  0  0  0  0  0  0  0  0  0  0  0
   -4.0572    2.0559   14.9389 N   0  0  1  0  0  0  0  0  0  0  0  0
  -11.4374    8.0853   15.4193 N   0  0  0  0  0  0  0  0  0  0  0  0
   -6.0446    6.7482   15.0728 O   0  5  0  0  0  0  0  0  0  0  0  0
  -11.1154    8.2972   16.7248 C   0  0  2  0  0  0  0  0  0  0  0  0
  -11.2525    9.5435   17.2480 N   0  0  0  0  0  0  0  0  0  0  0  0
   -5.3088    8.7477   17.0472 O   0  0  0  0  0  0  0  0  0  0  0  0
  -10.6579    7.2971   17.5265 N   0  0  0  0  0  0  0  0  0  0  0  0
  -10.4940    6.0367   17.0611 C   0  0  2  0  0  0  0  0  0  0  0  0
  -10.8275    5.7453   15.6606 C   0  0  2  0  0  0  0  0  0  0  0  0
  -11.3253    6.8707   14.8409 C   0  0  0  0  0  0  0  0  0  0  0  0
  -11.6610    6.6975   13.5387 O   0  0  0  0  0  0  0  0  0  0  0  0
  -10.5845    4.4333   15.4715 N   0  0  0  0  0  0  0  0  0  0  0  0
  -10.1277    3.9273   16.6557 C   0  0  0  0  0  0  0  0  0  0  0  0
  -10.0782    4.8907   17.6035 N   0  0  1  0  0  0  0  0  0  0  0  0
  1  3  1  6  0  0  0
  1  4  2  0  0  0  0
  1  6  1  0  0  0  0
  1 22  1  0  0  0  0
  2 28  1  0  0  0  0
  2 35  1  6  0  0  0
  2 38  2  0  0  0  0
  2 10  1  0  0  0  0
  5  6  1  0  0  0  0
  7  5  1  1  0  0  0
  7  8  1  0  0  0  0
  7  9  1  0  0  0  0
  9 10  1  1  0  0  0
  9 11  1  0  0  0  0
 11 12  1  1  0  0  0
 11 13  1  0  0  0  0
 13  8  1  1  0  0  0
 13 33  1  0  0  0  0
 14 46  1  0  0  0  0
 14 17  1  0  0  0  0
 14 25  1  6  0  0  0
 15 16  1  0  0  0  0
 15 29  1  0  0  0  0
 16 18  1  1  0  0  0
 16 21  1  0  0  0  0
 17 19  1  1  0  0  0
 17 20  1  0  0  0  0
 20 22  1  1  0  0  0
 20 24  1  0  0  0  0
 23 21  1  1  0  0  0
 23 26  1  0  0  0  0
 23 33  1  0  0  0  0
 24 25  1  6  0  0  0
 24 27  1  0  0  0  0
 26 29  1  6  0  0  0
 26 31  1  0  0  0  0
 27 28  1  0  0  0  0
 29 30  2  0  0  0  0
 31 32  1  0  0  0  0
 33 32  1  6  0  0  0
 34 36  1  0  0  0  0
 34 42  1  0  0  0  0
 36 37  1  6  0  0  0
 36 39  1  0  0  0  0
 40 39  1  1  0  0  0
 40 41  1  0  0  0  0
 40 46  1  0  0  0  0
 41 42  1  1  0  0  0
 41 44  1  0  0  0  0
 42 43  2  0  0  0  0
 44 45  1  0  0  0  0
 46 45  1  6  0  0  0
M  CHG  2   3  -1  35  -1
M  END
>  <CHROM.1>
139.37114283,-157.89092162,-6.93284042,4.27552041,16.72887391,-0.26431650
-0.68358757,1.28460720

>  <Name>
ligand

>  <RI>
-1

>  <Rbt.Current_Directory>
/home/itssahil/PROJECTS/Mol_Feturizer/Test_systems_manuscript/rnas/3mum

>  <Rbt.Executable>
rbdock ($Id: //depot/dev/client3/rdock/2013.1/src/exe/rbdock.cxx#4 $)

>  <Rbt.Library>
libRbt.so (2013.1, Build901 2013/11/27)

>  <Rbt.Parameter_File>
/export/apps/rDock/src/rDock_2013.1_src/data/scripts/dock_solv.prm

>  <Rbt.Receptor>
prm/pocket_docking_6.prm

>  <SCORE>
-15.504

>  <SCORE.INTER>
-16.319

>  <SCORE.INTER.CONST>
1

>  <SCORE.INTER.POLAR>
0

>  <SCORE.INTER.ROT>
2

>  <SCORE.INTER.SOLV>
22.2011

>  <SCORE.INTER.VDW>
-23.213

>  <SCORE.INTER.norm>
-0.35476

>  <SCORE.INTRA>
0.814994

>  <SCORE.INTRA.DIHEDRAL>
0.0176867

>  <SCORE.INTRA.DIHEDRAL.0>
2.40424

>  <SCORE.INTRA.POLAR>
0

>  <SCORE.INTRA.POLAR.0>
0

>  <SCORE.INTRA.REPUL>
0

>  <SCORE.INTRA.REPUL.0>
0

>  <SCORE.INTRA.SOLV>
0.644823

>  <SCORE.INTRA.SOLV.lig_0>
-134.169

>  <SCORE.INTRA.VDW>
0.483739

>  <SCORE.INTRA.VDW.0>
-2.18386

>  <SCORE.INTRA.norm>
0.0177173

>  <SCORE.RESTR>
0

>  <SCORE.RESTR.CAVITY>
0

>  <SCORE.RESTR.norm>
0

>  <SCORE.SYSTEM>
0

>  <SCORE.SYSTEM.CONST>
0

>  <SCORE.SYSTEM.DIHEDRAL>
0

>  <SCORE.SYSTEM.SOLV>
0

>  <SCORE.SYSTEM.norm>
0

>  <SCORE.heavy>
46

>  <SCORE.norm>
-0.337043

>  <RMSD>
5.108

$$$$
ligand
 OpenBabel02271912143D
libRbt.so/2013.1/901 2013/11/27
 46 52  0  0  0  0  0  0  0  0999 V2000
   -5.9047    1.9328   19.7181 P   0  0  1  0  0  0  0  0  0  0  0  0
   -5.5874    7.0020   16.7384 P   0  0  2  0  0  0  0  0  0  0  0  0
   -7.0419    0.8268   18.9274 O   0  5  0  0  0  0  0  0  0  0  0  0
   -5.1088    1.1674   21.1181 O   0  0  0  0  0  0  0  0  0  0  0  0
   -3.8142    3.3704   18.9522 C   0  0  0  0  0  0  0  0  0  0  0  0
   -4.8045    2.3927   18.6331 O   0  0  0  0  0  0  0  0  0  0  0  0
   -3.2639    3.9413   17.6591 C   0  0  1  0  0  0  0  0  0  0  0  0
   -2.8222    2.8698   16.8138 O   0  0  0  0  0  0  0  0  0  0  0  0
   -4.3020    4.6991   16.8476 C   0  0  1  0  0  0  0  0  0  0  0  0
   -4.3303    6.0869   17.1734 O   0  0  0  0  0  0  0  0  0  0  0  0
   -3.8607    4.4604   15.4143 C   0  0  1  0  0  0  0  0  0  0  0  0
   -2.9280    5.4676   15.0143 O   0  0  0  0  0  0  0  0  0  0  0  0
   -3.1475    3.1213   15.4377 C   0  0  2  0  0  0  0  0  0  0  0  0
   -9.6580    4.7198   18.9292 C   0  0  1  0  0  0  0  0  0  0  0  0
   -7.5638    1.7855   12.8100 N   0  0  0  0  0  0  0  0  0  0  0  0
   -7.0663    3.0239   13.0768 C   0  0  1  0  0  0  0  0  0  0  0  0
   -8.7824    3.5072   19.0716 C   0  0  2  0  0  0  0  0  0  0  0  0
   -7.7567    4.0998   12.6334 N   0  0  0  0  0  0  0  0  0  0  0  0
   -9.2236    2.8258   20.2472 O   0  0  0  0  0  0  0  0  0  0  0  0
   -7.3795    4.0599   19.2261 C   0  0  2  0  0  0  0  0  0  0  0  0
   -5.9071    3.2211   13.7725 N   0  0  0  0  0  0  0  0  0  0  0  0
   -6.6173    3.3063   20.1592 O   0  0  0  0  0  0  0  0  0  0  0  0
   -5.1771    2.1755   14.2366 C   0  0  2  0  0  0  0  0  0  0  0  0
   -7.5727    5.4748   19.7353 C   0  0  2  0  0  0  0  0  0  0  0  0
   -8.8987    5.8473   19.3635 O   0  0  0  0  0  0  0  0  0  0  0  0
   -5.6731    0.8126   13.9777 C   0  0  1  0  0  0  0  0  0  0  0  0
   -6.5793    6.4618   19.1324 C   0  0  0  0  0  0  0  0  0  0  0  0
   -6.7669    6.5074   17.7165 O   0  0  0  0  0  0  0  0  0  0  0  0
   -6.9293    0.6640   13.2214 C   0  0  0  0  0  0  0  0  0  0  0  0
   -7.4346   -0.5670   12.9541 O   0  0  0  0  0  0  0  0  0  0  0  0
   -4.7964   -0.0320   14.5317 N   0  0  0  0  0  0  0  0  0  0  0  0
   -3.8127    0.7214   15.1047 C   0  0  0  0  0  0  0  0  0  0  0  0
   -4.0359    2.0413   14.9321 N   0  0  1  0  0  0  0  0  0  0  0  0
  -10.4141    8.0934   15.0029 N   0  0  0  0  0  0  0  0  0  0  0  0
   -6.0330    6.7303   15.0330 O   0  5  0  0  0  0  0  0  0  0  0  0
   -9.9843    8.3189   16.2747 C   0  0  2  0  0  0  0  0  0  0  0  0
   -9.6796    9.5865   16.6570 N   0  0  0  0  0  0  0  0  0  0  0  0
   -5.3240    8.7351   17.0118 O   0  0  0  0  0  0  0  0  0  0  0  0
   -9.8484    7.3115   17.1797 N   0  0  0  0  0  0  0  0  0  0  0  0
  -10.1300    6.0276   16.8561 C   0  0  2  0  0  0  0  0  0  0  0  0
  -10.6010    5.7217   15.4988 C   0  0  2  0  0  0  0  0  0  0  0  0
  -10.7341    6.8582   14.5624 C   0  0  0  0  0  0  0  0  0  0  0  0
  -11.1640    6.6738   13.2897 O   0  0  0  0  0  0  0  0  0  0  0  0
  -10.8130    4.3915   15.4553 N   0  0  0  0  0  0  0  0  0  0  0  0
  -10.4983    3.8868   16.6854 C   0  0  0  0  0  0  0  0  0  0  0  0
  -10.0928    4.8707   17.5199 N   0  0  1  0  0  0  0  0  0  0  0  0
  1  3  1  6  0  0  0
  1  4  2  0  0  0  0
  1  6  1  0  0  0  0
  1 22  1  0  0  0  0
  2 28  1  0  0  0  0
  2 35  1  6  0  0  0
  2 38  2  0  0  0  0
  2 10  1  0  0  0  0
  5  6  1  0  0  0  0
  7  5  1  1  0  0  0
  7  8  1  0  0  0  0
  7  9  1  0  0  0  0
  9 10  1  1  0  0  0
  9 11  1  0  0  0  0
 11 12  1  1  0  0  0
 11 13  1  0  0  0  0
 13  8  1  1  0  0  0
 13 33  1  0  0  0  0
 14 46  1  0  0  0  0
 14 17  1  0  0  0  0
 14 25  1  6  0  0  0
 15 16  1  0  0  0  0
 15 29  1  0  0  0  0
 16 18  1  1  0  0  0
 16 21  1  0  0  0  0
 17 19  1  1  0  0  0
 17 20  1  0  0  0  0
 20 22  1  1  0  0  0
 20 24  1  0  0  0  0
 23 21  1  1  0  0  0
 23 26  1  0  0  0  0
 23 33  1  0  0  0  0
 24 25  1  6  0  0  0
 24 27  1  0  0  0  0
 26 29  1  6  0  0  0
 26 31  1  0  0  0  0
 27 28  1  0  0  0  0
 29 30  2  0  0  0  0
 31 32  1  0  0  0  0
 33 32  1  6  0  0  0
 34 36  1  0  0  0  0
 34 42  1  0  0  0  0
 36 37  1  6  0  0  0
 36 39  1  0  0  0  0
 40 39  1  1  0  0  0
 40 41  1  0  0  0  0
 40 46  1  0  0  0  0
 41 42  1  1  0  0  0
 41 44  1  0  0  0  0
 42 43  2  0  0  0  0
 44 45  1  0  0  0  0
 46 45  1  6  0  0  0
M  CHG  2   3  -1  35  -1
M  END
>  <CHROM.1>
132.28919665,-137.33601513,-6.84562879,4.26553554,16.68076057,-0.23005267
-0.77143769,1.26946355

>  <Name>
ligand

>  <RI>
-1

>  <Rbt.Current_Directory>
/home/itssahil/PROJECTS/Mol_Feturizer/Test_systems_manuscript/rnas/3mum

>  <Rbt.Executable>
rbdock ($Id: //depot/dev/client3/rdock/2013.1/src/exe/rbdock.cxx#4 $)

>  <Rbt.Library>
libRbt.so (2013.1, Build901 2013/11/27)

>  <Rbt.Parameter_File>
/export/apps/rDock/src/rDock_2013.1_src/data/scripts/dock_solv.prm

>  <Rbt.Receptor>
prm/pocket_docking_7.prm

>  <SCORE>
-15.8104

>  <SCORE.INTER>
-15.8942

>  <SCORE.INTER.CONST>
1

>  <SCORE.INTER.POLAR>
0

>  <SCORE.INTER.ROT>
2

>  <SCORE.INTER.SOLV>
18.8544

>  <SCORE.INTER.VDW>
-21.8142

>  <SCORE.INTER.norm>
-0.345525

>  <SCORE.INTRA>
0.0837533

>  <SCORE.INTRA.DIHEDRAL>
0.0157135

>  <SCORE.INTRA.DIHEDRAL.0>
2.40424

>  <SCORE.INTRA.POLAR>
0

>  <SCORE.INTRA.POLAR.0>
0

>  <SCORE.INTRA.REPUL>
0

>  <SCORE.INTRA.REPUL.0>
0

>  <SCORE.INTRA.SOLV>
1.05148

>  <SCORE.INTRA.SOLV.lig_0>
-134.169

>  <SCORE.INTRA.VDW>
-0.449844

>  <SCORE.INTRA.VDW.0>
-2.18386

>  <SCORE.INTRA.norm>
0.00182072

>  <SCORE.RESTR>
0

>  <SCORE.RESTR.CAVITY>
0

>  <SCORE.RESTR.norm>
0

>  <SCORE.SYSTEM>
0

>  <SCORE.SYSTEM.CONST>
0

>  <SCORE.SYSTEM.DIHEDRAL>
0

>  <SCORE.SYSTEM.SOLV>
0

>  <SCORE.SYSTEM.norm>
0

>  <SCORE.heavy>
46

>  <SCORE.norm>
-0.343704

>  <RMSD>
5.124

$$$$
ligand
 OpenBabel02271912143D
libRbt.so/2013.1/901 2013/11/27
 46 52  0  0  0  0  0  0  0  0999 V2000
   -3.4445    6.6599   18.8871 P   0  0  1  0  0  0  0  0  0  0  0  0
   -7.1941    7.6839   14.4635 P   0  0  2  0  0  0  0  0  0  0  0  0
   -3.8722    5.1533   19.7172 O   0  5  0  0  0  0  0  0  0  0  0  0
   -1.9543    7.3775   19.5532 O   0  0  0  0  0  0  0  0  0  0  0  0
   -3.0119    7.3841   16.3748 C   0  0  0  0  0  0  0  0  0  0  0  0
   -3.2575    6.3407   17.3179 O   0  0  0  0  0  0  0  0  0  0  0  0
   -3.3620    6.8759   14.9892 C   0  0  1  0  0  0  0  0  0  0  0  0
   -2.6670    5.6455   14.7421 O   0  0  0  0  0  0  0  0  0  0  0  0
   -4.8376    6.5506   14.8242 C   0  0  1  0  0  0  0  0  0  0  0  0
   -5.5838    7.6677   14.3464 O   0  0  0  0  0  0  0  0  0  0  0  0
   -4.8288    5.4047   13.8277 C   0  0  1  0  0  0  0  0  0  0  0  0
   -4.8730    5.9152   12.4929 O   0  0  0  0  0  0  0  0  0  0  0  0
   -3.4965    4.7091   14.0366 C   0  0  2  0  0  0  0  0  0  0  0  0
   -8.1220    7.1264   19.5039 C   0  0  1  0  0  0  0  0  0  0  0  0
   -1.7638    1.7059   18.0580 N   0  0  0  0  0  0  0  0  0  0  0  0
   -1.2645    2.8820   17.5891 C   0  0  1  0  0  0  0  0  0  0  0  0
   -6.7080    6.6306   19.6133 C   0  0  2  0  0  0  0  0  0  0  0  0
   -0.1731    3.4014   18.1972 N   0  0  0  0  0  0  0  0  0  0  0  0
   -6.2492    7.0012   20.9146 O   0  0  0  0  0  0  0  0  0  0  0  0
   -5.9576    7.3589   18.5159 C   0  0  2  0  0  0  0  0  0  0  0  0
   -1.8168    3.5517   16.5340 N   0  0  0  0  0  0  0  0  0  0  0  0
   -4.6485    7.7265   18.9288 O   0  0  0  0  0  0  0  0  0  0  0  0
   -2.9127    3.0739   15.8918 C   0  0  2  0  0  0  0  0  0  0  0  0
   -6.7826    8.6000   18.2380 C   0  0  2  0  0  0  0  0  0  0  0  0
   -8.0990    8.3078   18.7040 O   0  0  0  0  0  0  0  0  0  0  0  0
   -3.4914    1.8017   16.3578 C   0  0  1  0  0  0  0  0  0  0  0  0
   -6.8350    8.9567   16.7566 C   0  0  0  0  0  0  0  0  0  0  0  0
   -7.4529    7.8859   16.0399 O   0  0  0  0  0  0  0  0  0  0  0  0
   -2.8515    1.1263   17.5007 C   0  0  0  0  0  0  0  0  0  0  0  0
   -3.3406   -0.0486   17.9724 O   0  0  0  0  0  0  0  0  0  0  0  0
   -4.5433    1.5427   15.5732 N   0  0  0  0  0  0  0  0  0  0  0  0
   -4.6382    2.5627   14.6709 C   0  0  0  0  0  0  0  0  0  0  0  0
   -3.6656    3.4799   14.8562 N   0  0  1  0  0  0  0  0  0  0  0  0
   -9.4950    2.0803   19.6464 N   0  0  0  0  0  0  0  0  0  0  0  0
   -7.9045    6.1465   13.9043 O   0  5  0  0  0  0  0  0  0  0  0  0
   -8.5849    2.7571   20.3992 C   0  0  2  0  0  0  0  0  0  0  0  0
   -7.8910    2.0910   21.3587 N   0  0  0  0  0  0  0  0  0  0  0  0
   -7.9491    9.0345   13.5953 O   0  0  0  0  0  0  0  0  0  0  0  0
   -8.3468    4.0853   20.2218 N   0  0  0  0  0  0  0  0  0  0  0  0
   -9.0112    4.8041   19.2868 C   0  0  2  0  0  0  0  0  0  0  0  0
  -10.0040    4.1282   18.4412 C   0  0  2  0  0  0  0  0  0  0  0  0
  -10.2147    2.6839   18.6768 C   0  0  0  0  0  0  0  0  0  0  0  0
  -11.1083    1.9749   17.9438 O   0  0  0  0  0  0  0  0  0  0  0  0
  -10.4968    5.0623   17.6039 N   0  0  0  0  0  0  0  0  0  0  0  0
   -9.8719    6.2422   17.8943 C   0  0  0  0  0  0  0  0  0  0  0  0
   -8.9824    6.0809   18.9002 N   0  0  1  0  0  0  0  0  0  0  0  0
  1  3  1  1  0  0  0
  1  4  2  0  0  0  0
  1  6  1  0  0  0  0
  1 22  1  0  0  0  0
  2 28  1  0  0  0  0
  2 35  1  6  0  0  0
  2 38  2  0  0  0  0
  2 10  1  0  0  0  0
  5  6  1  0  0  0  0
  7  5  1  1  0  0  0
  7  8  1  0  0  0  0
  7  9  1  0  0  0  0
  9 10  1  6  0  0  0
  9 11  1  0  0  0  0
 11 12  1  6  0  0  0
 11 13  1  0  0  0  0
 13  8  1  1  0  0  0
 13 33  1  0  0  0  0
 14 46  1  0  0  0  0
 14 17  1  0  0  0  0
 14 25  1  6  0  0  0
 15 16  1  0  0  0  0
 15 29  1  0  0  0  0
 16 18  1  6  0  0  0
 16 21  1  0  0  0  0
 17 19  1  1  0  0  0
 17 20  1  0  0  0  0
 20 22  1  1  0  0  0
 20 24  1  0  0  0  0
 23 21  1  6  0  0  0
 23 26  1  0  0  0  0
 23 33  1  0  0  0  0
 24 25  1  6  0  0  0
 24 27  1  0  0  0  0
 26 29  1  1  0  0  0
 26 31  1  0  0  0  0
 27 28  1  0  0  0  0
 29 30  2  0  0  0  0
 31 32  1  0  0  0  0
 33 32  1  1  0  0  0
 34 36  1  0  0  0  0
 34 42  1  0  0  0  0
 36 37  1  1  0  0  0
 36 39  1  0  0  0  0
 40 39  1  6  0  0  0
 40 41  1  0  0  0  0
 40 46  1  0  0  0  0
 41 42  1  6  0  0  0
 41 44  1  0  0  0  0
 42 43  2  0  0  0  0
 44 45  1  0  0  0  0
 46 45  1  1  0  0  0
M  CHG  2   3  -1  35  -1
M  END
>  <CHROM.1>
-18.05701839,48.47893236,-5.69151827,5.29734598,17.20712660,-0.00822573,0.37235925
-0.61234123

>  <Name>
ligand

>  <RI>
-1

>  <Rbt.Current_Directory>
/home/itssahil/PROJECTS/Mol_Feturizer/Test_systems_manuscript/rnas/3mum

>  <Rbt.Executable>
rbdock ($Id: //depot/dev/client3/rdock/2013.1/src/exe/rbdock.cxx#4 $)

>  <Rbt.Library>
libRbt.so (2013.1, Build901 2013/11/27)

>  <Rbt.Parameter_File>
/export/apps/rDock/src/rDock_2013.1_src/data/scripts/dock_solv.prm

>  <Rbt.Receptor>
prm/pocket_docking_5.prm

>  <SCORE>
-5.90525

>  <SCORE.INTER>
-5.60486

>  <SCORE.INTER.CONST>
1

>  <SCORE.INTER.POLAR>
0

>  <SCORE.INTER.ROT>
2

>  <SCORE.INTER.SOLV>
12.1961

>  <SCORE.INTER.VDW>
-12.7353

>  <SCORE.INTER.norm>
-0.121845

>  <SCORE.INTRA>
-0.300386

>  <SCORE.INTRA.DIHEDRAL>
-0.0174636

>  <SCORE.INTRA.DIHEDRAL.0>
2.40424

>  <SCORE.INTRA.POLAR>
0

>  <SCORE.INTRA.POLAR.0>
0

>  <SCORE.INTRA.REPUL>
0

>  <SCORE.INTRA.REPUL.0>
0

>  <SCORE.INTRA.SOLV>
0.260062

>  <SCORE.INTRA.SOLV.lig_0>
-134.169

>  <SCORE.INTRA.VDW>
-0.421685

>  <SCORE.INTRA.VDW.0>
-2.18386

>  <SCORE.INTRA.norm>
-0.00653013

>  <SCORE.RESTR>
0

>  <SCORE.RESTR.CAVITY>
0

>  <SCORE.RESTR.norm>
0

>  <SCORE.SYSTEM>
0

>  <SCORE.SYSTEM.CONST>
0

>  <SCORE.SYSTEM.DIHEDRAL>
0

>  <SCORE.SYSTEM.SOLV>
0

>  <SCORE.SYSTEM.norm>
0

>  <SCORE.heavy>
46

>  <SCORE.norm>
-0.128375

>  <RMSD>
5.226

$$$$
ligand
 OpenBabel02271912143D
libRbt.so/2013.1/901 2013/11/27
 46 52  0  0  0  0  0  0  0  0999 V2000
   -6.8279    3.6464   13.4677 P   0  0  1  0  0  0  0  0  0  0  0  0
   -4.4145    5.8823   18.3516 P   0  0  2  0  0  0  0  0  0  0  0  0
   -7.5513    2.0649   13.8098 O   0  5  0  0  0  0  0  0  0  0  0  0
   -7.1234    4.1544   11.7843 O   0  0  0  0  0  0  0  0  0  0  0  0
   -6.9793    6.0705   14.5281 C   0  0  0  0  0  0  0  0  0  0  0  0
   -7.4507    4.7233   14.4933 O   0  0  0  0  0  0  0  0  0  0  0  0
   -7.3720    6.6862   15.8575 C   0  0  1  0  0  0  0  0  0  0  0  0
   -8.7823    6.5212   16.0623 O   0  0  0  0  0  0  0  0  0  0  0  0
   -6.7063    6.0171   17.0490 C   0  0  1  0  0  0  0  0  0  0  0  0
   -5.4705    6.6395   17.3933 O   0  0  0  0  0  0  0  0  0  0  0  0
   -7.7423    6.1629   18.1497 C   0  0  1  0  0  0  0  0  0  0  0  0
   -7.5537    7.4008   18.8398 O   0  0  0  0  0  0  0  0  0  0  0  0
   -9.0785    6.2069   17.4320 C   0  0  2  0  0  0  0  0  0  0  0  0
   -3.3981    1.4604   15.9038 C   0  0  1  0  0  0  0  0  0  0  0  0
   -9.8113    1.6545   20.0648 N   0  0  0  0  0  0  0  0  0  0  0  0
   -9.0126    2.7097   20.3825 C   0  0  1  0  0  0  0  0  0  0  0  0
   -4.6525    1.7168   15.1177 C   0  0  2  0  0  0  0  0  0  0  0  0
   -8.2804    2.6386   21.5181 N   0  0  0  0  0  0  0  0  0  0  0  0
   -4.4468    1.1378   13.8279 O   0  0  0  0  0  0  0  0  0  0  0  0
   -4.7655    3.2271   15.0527 C   0  0  2  0  0  0  0  0  0  0  0  0
   -8.9201    3.8282   19.6033 N   0  0  0  0  0  0  0  0  0  0  0  0
   -5.2518    3.6641   13.7910 O   0  0  0  0  0  0  0  0  0  0  0  0
   -9.6352    3.9491   18.4564 C   0  0  2  0  0  0  0  0  0  0  0  0
   -3.3525    3.7325   15.2684 C   0  0  2  0  0  0  0  0  0  0  0  0
   -2.6572    2.6796   15.9342 O   0  0  0  0  0  0  0  0  0  0  0  0
  -10.5136    2.8333   18.0643 C   0  0  1  0  0  0  0  0  0  0  0  0
   -3.2992    4.9955   16.1207 C   0  0  0  0  0  0  0  0  0  0  0  0
   -3.8331    4.7088   17.4149 O   0  0  0  0  0  0  0  0  0  0  0  0
  -10.5714    1.6536   18.9459 C   0  0  0  0  0  0  0  0  0  0  0  0
  -11.3622    0.5954   18.6348 O   0  0  0  0  0  0  0  0  0  0  0  0
  -11.0971    3.1838   16.9129 N   0  0  0  0  0  0  0  0  0  0  0  0
  -10.6339    4.4251   16.5840 C   0  0  0  0  0  0  0  0  0  0  0  0
   -9.7592    4.8867   17.5025 N   0  0  1  0  0  0  0  0  0  0  0  0
   -1.5842   -0.8158   20.2509 N   0  0  0  0  0  0  0  0  0  0  0  0
   -5.2145    5.1963   19.7905 O   0  5  0  0  0  0  0  0  0  0  0  0
   -0.9458   -0.5391   19.0810 C   0  0  2  0  0  0  0  0  0  0  0  0
    0.3654   -0.8687   18.9467 N   0  0  0  0  0  0  0  0  0  0  0  0
   -3.0628    6.9123   18.8613 O   0  0  0  0  0  0  0  0  0  0  0  0
   -1.5805    0.0604   18.0369 N   0  0  0  0  0  0  0  0  0  0  0  0
   -2.8836    0.4184   18.1129 C   0  0  2  0  0  0  0  0  0  0  0  0
   -3.6272    0.1430   19.3494 C   0  0  2  0  0  0  0  0  0  0  0  0
   -2.8857   -0.5152   20.4462 C   0  0  0  0  0  0  0  0  0  0  0  0
   -3.4888   -0.8115   21.6240 O   0  0  0  0  0  0  0  0  0  0  0  0
   -4.8845    0.5852   19.1495 N   0  0  0  0  0  0  0  0  0  0  0  0
   -4.9391    1.1057   17.8873 C   0  0  0  0  0  0  0  0  0  0  0  0
   -3.7397    1.0007   17.2713 N   0  0  1  0  0  0  0  0  0  0  0  0
  1  3  1  1  0  0  0
  1  4  2  0  0  0  0
  1  6  1  0  0  0  0
  1 22  1  0  0  0  0
  2 28  1  0  0  0  0
  2 35  1  1  0  0  0
  2 38  2  0  0  0  0
  2 10  1  0  0  0  0
  5  6  1  0  0  0  0
  7  5  1  6  0  0  0
  7  8  1  0  0  0  0
  7  9  1  0  0  0  0
  9 10  1  1  0  0  0
  9 11  1  0  0  0  0
 11 12  1  6  0  0  0
 11 13  1  0  0  0  0
 13  8  1  6  0  0  0
 13 33  1  0  0  0  0
 14 46  1  0  0  0  0
 14 17  1  0  0  0  0
 14 25  1  1  0  0  0
 15 16  1  0  0  0  0
 15 29  1  0  0  0  0
 16 18  1  6  0  0  0
 16 21  1  0  0  0  0
 17 19  1  6  0  0  0
 17 20  1  0  0  0  0
 20 22  1  6  0  0  0
 20 24  1  0  0  0  0
 23 21  1  6  0  0  0
 23 26  1  0  0  0  0
 23 33  1  0  0  0  0
 24 25  1  1  0  0  0
 24 27  1  0  0  0  0
 26 29  1  1  0  0  0
 26 31  1  0  0  0  0
 27 28  1  0  0  0  0
 29 30  2  0  0  0  0
 31 32  1  0  0  0  0
 33 32  1  1  0  0  0
 34 36  1  0  0  0  0
 34 42  1  0  0  0  0
 36 37  1  1  0  0  0
 36 39  1  0  0  0  0
 40 39  1  6  0  0  0
 40 41  1  0  0  0  0
 40 46  1  0  0  0  0
 41 42  1  6  0  0  0
 41 44  1  0  0  0  0
 42 43  2  0  0  0  0
 44 45  1  0  0  0  0
 46 45  1  1  0  0  0
M  CHG  2   3  -1  35  -1
M  END
>  <CHROM.1>
144.43445672,164.70263606,-5.97958098,3.27095437,17.28150202,-2.60852385
-0.35322531,2.19041430

>  <Name>
ligand

>  <RI>
-1

>  <Rbt.Current_Directory>
/home/itssahil/PROJECTS/Mol_Feturizer/Test_systems_manuscript/rnas/3mum

>  <Rbt.Executable>
rbdock ($Id: //depot/dev/client3/rdock/2013.1/src/exe/rbdock.cxx#4 $)

>  <Rbt.Library>
libRbt.so (2013.1, Build901 2013/11/27)

>  <Rbt.Parameter_File>
/export/apps/rDock/src/rDock_2013.1_src/data/scripts/dock_solv.prm

>  <Rbt.Receptor>
prm/pocket_docking_7.prm

>  <SCORE>
-12.8871

>  <SCORE.INTER>
-13.5617

>  <SCORE.INTER.CONST>
1

>  <SCORE.INTER.POLAR>
0

>  <SCORE.INTER.ROT>
2

>  <SCORE.INTER.SOLV>
27.8267

>  <SCORE.INTER.VDW>
-23.25

>  <SCORE.INTER.norm>
-0.294819

>  <SCORE.INTRA>
0.674553

>  <SCORE.INTRA.DIHEDRAL>
-0.0279335

>  <SCORE.INTRA.DIHEDRAL.0>
2.40424

>  <SCORE.INTRA.POLAR>
0

>  <SCORE.INTRA.POLAR.0>
0

>  <SCORE.INTRA.REPUL>
0

>  <SCORE.INTRA.REPUL.0>
0

>  <SCORE.INTRA.SOLV>
0.302395

>  <SCORE.INTRA.SOLV.lig_0>
-134.169

>  <SCORE.INTRA.VDW>
0.537323

>  <SCORE.INTRA.VDW.0>
-2.18386

>  <SCORE.INTRA.norm>
0.0146642

>  <SCORE.RESTR>
0

>  <SCORE.RESTR.CAVITY>
0

>  <SCORE.RESTR.norm>
0

>  <SCORE.SYSTEM>
0

>  <SCORE.SYSTEM.CONST>
0

>  <SCORE.SYSTEM.DIHEDRAL>
0

>  <SCORE.SYSTEM.SOLV>
0

>  <SCORE.SYSTEM.norm>
0

>  <SCORE.heavy>
46

>  <SCORE.norm>
-0.280155

>  <RMSD>
5.351

$$$$
ligand
 OpenBabel02271912143D
libRbt.so/2013.1/901 2013/11/27
 46 52  0  0  0  0  0  0  0  0999 V2000
   -8.2476    7.7690   16.6361 P   0  0  1  0  0  0  0  0  0  0  0  0
   -2.8664    5.9768   15.0528 P   0  0  2  0  0  0  0  0  0  0  0  0
   -9.3016    6.3717   16.9161 O   0  5  0  0  0  0  0  0  0  0  0  0
   -9.0760    9.3030   17.0098 O   0  0  0  0  0  0  0  0  0  0  0  0
   -5.8484    8.5310   17.4646 C   0  0  0  0  0  0  0  0  0  0  0  0
   -6.9326    7.6064   17.5546 O   0  0  0  0  0  0  0  0  0  0  0  0
   -4.6079    7.8798   18.0460 C   0  0  1  0  0  0  0  0  0  0  0  0
   -4.8966    7.3949   19.3649 O   0  0  0  0  0  0  0  0  0  0  0  0
   -4.1419    6.6661   17.2585 C   0  0  1  0  0  0  0  0  0  0  0  0
   -3.1992    7.0120   16.2462 O   0  0  0  0  0  0  0  0  0  0  0  0
   -3.5290    5.7769   18.3261 C   0  0  1  0  0  0  0  0  0  0  0  0
   -2.1463    6.0981   18.4974 O   0  0  0  0  0  0  0  0  0  0  0  0
   -4.2694    6.1252   19.6040 C   0  0  2  0  0  0  0  0  0  0  0  0
   -7.4244    5.0869   12.8144 C   0  0  1  0  0  0  0  0  0  0  0  0
   -5.4189    1.2473   21.3584 N   0  0  0  0  0  0  0  0  0  0  0  0
   -4.2043    1.8475   21.2279 C   0  0  1  0  0  0  0  0  0  0  0  0
   -8.0415    5.6371   14.0688 C   0  0  2  0  0  0  0  0  0  0  0  0
   -3.1027    1.1451   21.5795 N   0  0  0  0  0  0  0  0  0  0  0  0
   -9.2703    6.2527   13.6784 O   0  0  0  0  0  0  0  0  0  0  0  0
   -7.0358    6.6483   14.5825 C   0  0  2  0  0  0  0  0  0  0  0  0
   -4.0556    3.1211   20.7561 N   0  0  0  0  0  0  0  0  0  0  0  0
   -7.6745    7.7922   15.1327 O   0  0  0  0  0  0  0  0  0  0  0  0
   -5.1288    3.8676   20.3921 C   0  0  2  0  0  0  0  0  0  0  0  0
   -6.2235    7.0422   13.3645 C   0  0  2  0  0  0  0  0  0  0  0  0
   -6.3753    5.9747   12.4304 O   0  0  0  0  0  0  0  0  0  0  0  0
   -6.4675    3.2639   20.5108 C   0  0  1  0  0  0  0  0  0  0  0  0
   -4.7441    7.2375   13.6775 C   0  0  0  0  0  0  0  0  0  0  0  0
   -4.1998    6.0039   14.1506 O   0  0  0  0  0  0  0  0  0  0  0  0
   -6.5637    1.8867   21.0267 C   0  0  0  0  0  0  0  0  0  0  0  0
   -7.7705    1.2793   21.1566 O   0  0  0  0  0  0  0  0  0  0  0  0
   -7.3461    4.1812   20.0916 N   0  0  0  0  0  0  0  0  0  0  0  0
   -6.6353    5.2888   19.7290 C   0  0  0  0  0  0  0  0  0  0  0  0
   -5.3098    5.1064   19.9057 N   0  0  1  0  0  0  0  0  0  0  0  0
   -5.5307    1.7816   16.4001 N   0  0  0  0  0  0  0  0  0  0  0  0
   -2.5673    4.3337   15.6787 O   0  5  0  0  0  0  0  0  0  0  0  0
   -5.9186    3.0798   16.5306 C   0  0  2  0  0  0  0  0  0  0  0  0
   -5.8367    3.6774   17.7481 N   0  0  0  0  0  0  0  0  0  0  0  0
   -1.4979    6.4832   14.0434 O   0  0  0  0  0  0  0  0  0  0  0  0
   -6.3884    3.8019   15.4770 N   0  0  0  0  0  0  0  0  0  0  0  0
   -6.4994    3.2598   14.2417 C   0  0  2  0  0  0  0  0  0  0  0  0
   -6.0936    1.8630   14.0374 C   0  0  2  0  0  0  0  0  0  0  0  0
   -5.5858    1.1319   15.2180 C   0  0  0  0  0  0  0  0  0  0  0  0
   -5.1853   -0.1603   15.1262 O   0  0  0  0  0  0  0  0  0  0  0  0
   -6.2954    1.5899   12.7332 N   0  0  0  0  0  0  0  0  0  0  0  0
   -6.7946    2.7208   12.1511 C   0  0  0  0  0  0  0  0  0  0  0  0
   -6.9120    3.7171   13.0580 N   0  0  1  0  0  0  0  0  0  0  0  0
  1  3  1  1  0  0  0
  1  4  2  0  0  0  0
  1  6  1  0  0  0  0
  1 22  1  0  0  0  0
  2 28  1  0  0  0  0
  2 35  1  1  0  0  0
  2 38  2  0  0  0  0
  2 10  1  0  0  0  0
  5  6  1  0  0  0  0
  7  5  1  6  0  0  0
  7  8  1  0  0  0  0
  7  9  1  0  0  0  0
  9 10  1  6  0  0  0
  9 11  1  0  0  0  0
 11 12  1  1  0  0  0
 11 13  1  0  0  0  0
 13  8  1  6  0  0  0
 13 33  1  0  0  0  0
 14 46  1  0  0  0  0
 14 17  1  0  0  0  0
 14 25  1  1  0  0  0
 15 16  1  0  0  0  0
 15 29  1  0  0  0  0
 16 18  1  6  0  0  0
 16 21  1  0  0  0  0
 17 19  1  6  0  0  0
 17 20  1  0  0  0  0
 20 22  1  6  0  0  0
 20 24  1  0  0  0  0
 23 21  1  6  0  0  0
 23 26  1  0  0  0  0
 23 33  1  0  0  0  0
 24 25  1  6  0  0  0
 24 27  1  0  0  0  0
 26 29  1  1  0  0  0
 26 31  1  0  0  0  0
 27 28  1  0  0  0  0
 29 30  2  0  0  0  0
 31 32  1  0  0  0  0
 33 32  1  1  0  0  0
 34 36  1  0  0  0  0
 34 42  1  0  0  0  0
 36 37  1  1  0  0  0
 36 39  1  0  0  0  0
 40 39  1  6  0  0  0
 40 41  1  0  0  0  0
 40 46  1  0  0  0  0
 41 42  1  6  0  0  0
 41 44  1  0  0  0  0
 42 43  2  0  0  0  0
 44 45  1  0  0  0  0
 46 45  1  1  0  0  0
M  CHG  2   3  -1  35  -1
M  END
>  <CHROM.1>
-168.24562693,-27.73876679,-5.70549489,4.96400520,16.70103660,2.77016151
1.37144358,-2.28616453

>  <Name>
ligand

>  <RI>
-1

>  <Rbt.Current_Directory>
/home/itssahil/PROJECTS/Mol_Feturizer/Test_systems_manuscript/rnas/3mum

>  <Rbt.Executable>
rbdock ($Id: //depot/dev/client3/rdock/2013.1/src/exe/rbdock.cxx#4 $)

>  <Rbt.Library>
libRbt.so (2013.1, Build901 2013/11/27)

>  <Rbt.Parameter_File>
/export/apps/rDock/src/rDock_2013.1_src/data/scripts/dock_solv.prm

>  <Rbt.Receptor>
prm/pocket_docking_8.prm

>  <SCORE>
-13.1848

>  <SCORE.INTER>
-16.8608

>  <SCORE.INTER.CONST>
1

>  <SCORE.INTER.POLAR>
0

>  <SCORE.INTER.ROT>
2

>  <SCORE.INTER.SOLV>
7.16702

>  <SCORE.INTER.VDW>
-18.5629

>  <SCORE.INTER.norm>
-0.366539

>  <SCORE.INTRA>
3.67598

>  <SCORE.INTRA.DIHEDRAL>
0.025284

>  <SCORE.INTRA.DIHEDRAL.0>
2.40424

>  <SCORE.INTRA.POLAR>
0

>  <SCORE.INTRA.POLAR.0>
0

>  <SCORE.INTRA.REPUL>
0

>  <SCORE.INTRA.REPUL.0>
0

>  <SCORE.INTRA.SOLV>
10.3227

>  <SCORE.INTRA.SOLV.lig_0>
-134.169

>  <SCORE.INTRA.VDW>
-1.498

>  <SCORE.INTRA.VDW.0>
-2.18386

>  <SCORE.INTRA.norm>
0.0799126

>  <SCORE.RESTR>
0

>  <SCORE.RESTR.CAVITY>
0

>  <SCORE.RESTR.norm>
0

>  <SCORE.SYSTEM>
0

>  <SCORE.SYSTEM.CONST>
0

>  <SCORE.SYSTEM.DIHEDRAL>
0

>  <SCORE.SYSTEM.SOLV>
0

>  <SCORE.SYSTEM.norm>
0

>  <SCORE.heavy>
46

>  <SCORE.norm>
-0.286626

>  <RMSD>
5.375

$$$$
ligand
 OpenBabel02271912143D
libRbt.so/2013.1/901 2013/11/27
 46 52  0  0  0  0  0  0  0  0999 V2000
   -4.2738    7.4429   17.2506 P   0  0  1  0  0  0  0  0  0  0  0  0
   -8.6816    6.6456   13.4281 P   0  0  2  0  0  0  0  0  0  0  0  0
   -4.5344    6.4581   18.7012 O   0  5  0  0  0  0  0  0  0  0  0  0
   -2.7155    8.3072   17.3138 O   0  0  0  0  0  0  0  0  0  0  0  0
   -4.2494    7.0011   14.6376 C   0  0  0  0  0  0  0  0  0  0  0  0
   -4.3232    6.4744   15.9626 O   0  0  0  0  0  0  0  0  0  0  0  0
   -4.7969    5.9653   13.6743 C   0  0  1  0  0  0  0  0  0  0  0  0
   -4.1205    4.7171   13.8799 O   0  0  0  0  0  0  0  0  0  0  0  0
   -6.2726    5.6688   13.8864 C   0  0  1  0  0  0  0  0  0  0  0  0
   -7.1086    6.5068   13.0915 O   0  0  0  0  0  0  0  0  0  0  0  0
   -6.3911    4.2076   13.4905 C   0  0  1  0  0  0  0  0  0  0  0  0
   -6.6518    4.0990   12.0888 O   0  0  0  0  0  0  0  0  0  0  0  0
   -5.0272    3.6079   13.7776 C   0  0  2  0  0  0  0  0  0  0  0  0
   -8.8100    8.3430   18.2943 C   0  0  1  0  0  0  0  0  0  0  0  0
   -2.5846    2.4708   18.3529 N   0  0  0  0  0  0  0  0  0  0  0  0
   -2.1834    3.2978   17.3492 C   0  0  1  0  0  0  0  0  0  0  0  0
   -7.3851    7.8774   18.3948 C   0  0  2  0  0  0  0  0  0  0  0  0
   -1.0026    3.9441   17.4864 N   0  0  0  0  0  0  0  0  0  0  0  0
   -6.7401    8.7478   19.3261 O   0  0  0  0  0  0  0  0  0  0  0  0
   -6.8292    8.0303   16.9928 C   0  0  2  0  0  0  0  0  0  0  0  0
   -2.9198    3.4965   16.2156 N   0  0  0  0  0  0  0  0  0  0  0  0
   -5.4809    8.4788   17.0080 O   0  0  0  0  0  0  0  0  0  0  0  0
   -4.1112    2.8736   16.0311 C   0  0  2  0  0  0  0  0  0  0  0  0
   -7.7151    9.0695   16.3343 C   0  0  2  0  0  0  0  0  0  0  0  0
   -8.9372    9.0657   17.0705 O   0  0  0  0  0  0  0  0  0  0  0  0
   -4.5907    1.9645   17.0865 C   0  0  1  0  0  0  0  0  0  0  0  0
   -8.0029    8.7596   14.8695 C   0  0  0  0  0  0  0  0  0  0  0  0
   -8.6993    7.5147   14.7835 O   0  0  0  0  0  0  0  0  0  0  0  0
   -3.7523    1.7913   18.2861 C   0  0  0  0  0  0  0  0  0  0  0  0
   -4.1430    0.9658   19.2901 O   0  0  0  0  0  0  0  0  0  0  0  0
   -5.7656    1.4757   16.6743 N   0  0  0  0  0  0  0  0  0  0  0  0
   -6.0261    2.0219   15.4506 C   0  0  0  0  0  0  0  0  0  0  0  0
   -5.0402    2.8572   15.0611 N   0  0  1  0  0  0  0  0  0  0  0  0
   -9.3307    3.3213   19.6656 N   0  0  0  0  0  0  0  0  0  0  0  0
   -9.4345    5.0513   13.6967 O   0  5  0  0  0  0  0  0  0  0  0  0
   -8.2516    4.1448   19.7673 C   0  0  2  0  0  0  0  0  0  0  0  0
   -7.0984    3.6642   20.3014 N   0  0  0  0  0  0  0  0  0  0  0  0
   -9.5916    7.5276   12.1863 O   0  0  0  0  0  0  0  0  0  0  0  0
   -8.2903    5.4398   19.3504 N   0  0  0  0  0  0  0  0  0  0  0  0
   -9.4119    5.9774   18.8164 C   0  0  2  0  0  0  0  0  0  0  0  0
  -10.6087    5.1371   18.6779 C   0  0  2  0  0  0  0  0  0  0  0  0
  -10.5038    3.7375   19.1430 C   0  0  0  0  0  0  0  0  0  0  0  0
  -11.5552    2.8860   19.0532 O   0  0  0  0  0  0  0  0  0  0  0  0
  -11.5592    5.9098   18.1160 N   0  0  0  0  0  0  0  0  0  0  0  0
  -11.0146    7.1469   17.9154 C   0  0  0  0  0  0  0  0  0  0  0  0
   -9.7292    7.1804   18.3340 N   0  0  1  0  0  0  0  0  0  0  0  0
  1  3  1  1  0  0  0
  1  4  2  0  0  0  0
  1  6  1  0  0  0  0
  1 22  1  0  0  0  0
  2 28  1  0  0  0  0
  2 35  1  1  0  0  0
  2 38  2  0  0  0  0
  2 10  1  0  0  0  0
  5  6  1  0  0  0  0
  7  5  1  1  0  0  0
  7  8  1  0  0  0  0
  7  9  1  0  0  0  0
  9 10  1  6  0  0  0
  9 11  1  0  0  0  0
 11 12  1  6  0  0  0
 11 13  1  0  0  0  0
 13  8  1  1  0  0  0
 13 33  1  0  0  0  0
 14 46  1  0  0  0  0
 14 17  1  0  0  0  0
 14 25  1  6  0  0  0
 15 16  1  0  0  0  0
 15 29  1  0  0  0  0
 16 18  1  6  0  0  0
 16 21  1  0  0  0  0
 17 19  1  1  0  0  0
 17 20  1  0  0  0  0
 20 22  1  1  0  0  0
 20 24  1  0  0  0  0
 23 21  1  6  0  0  0
 23 26  1  0  0  0  0
 23 33  1  0  0  0  0
 24 25  1  1  0  0  0
 24 27  1  0  0  0  0
 26 29  1  1  0  0  0
 26 31  1  0  0  0  0
 27 28  1  0  0  0  0
 29 30  2  0  0  0  0
 31 32  1  0  0  0  0
 33 32  1  1  0  0  0
 34 36  1  0  0  0  0
 34 42  1  0  0  0  0
 36 37  1  1  0  0  0
 36 39  1  0  0  0  0
 40 39  1  6  0  0  0
 40 41  1  0  0  0  0
 40 46  1  0  0  0  0
 41 42  1  6  0  0  0
 41 44  1  0  0  0  0
 42 43  2  0  0  0  0
 44 45  1  0  0  0  0
 46 45  1  1  0  0  0
M  CHG  2   3  -1  35  -1
M  END
>  <CHROM.1>
-19.90434267,20.27353746,-6.63955813,5.52487984,16.54647714,-0.26938654,0.45467244
-0.96677041

>  <Name>
ligand

>  <RI>
-1

>  <Rbt.Current_Directory>
/home/itssahil/PROJECTS/Mol_Feturizer/Test_systems_manuscript/rnas/3mum

>  <Rbt.Executable>
rbdock ($Id: //depot/dev/client3/rdock/2013.1/src/exe/rbdock.cxx#4 $)

>  <Rbt.Library>
libRbt.so (2013.1, Build901 2013/11/27)

>  <Rbt.Parameter_File>
/export/apps/rDock/src/rDock_2013.1_src/data/scripts/dock_solv.prm

>  <Rbt.Receptor>
prm/pocket_docking_6.prm

>  <SCORE>
-9.35319

>  <SCORE.INTER>
-9.96165

>  <SCORE.INTER.CONST>
1

>  <SCORE.INTER.POLAR>
0

>  <SCORE.INTER.ROT>
2

>  <SCORE.INTER.SOLV>
12.8977

>  <SCORE.INTER.VDW>
-15.8737

>  <SCORE.INTER.norm>
-0.216558

>  <SCORE.INTRA>
0.608463

>  <SCORE.INTRA.DIHEDRAL>
-0.0248713

>  <SCORE.INTRA.DIHEDRAL.0>
2.40424

>  <SCORE.INTRA.POLAR>
0

>  <SCORE.INTRA.POLAR.0>
0

>  <SCORE.INTRA.REPUL>
0

>  <SCORE.INTRA.REPUL.0>
0

>  <SCORE.INTRA.SOLV>
0.90196

>  <SCORE.INTRA.SOLV.lig_0>
-134.169

>  <SCORE.INTRA.VDW>
0.169919

>  <SCORE.INTRA.VDW.0>
-2.18386

>  <SCORE.INTRA.norm>
0.0132275

>  <SCORE.RESTR>
0

>  <SCORE.RESTR.CAVITY>
0

>  <SCORE.RESTR.norm>
0

>  <SCORE.SYSTEM>
0

>  <SCORE.SYSTEM.CONST>
0

>  <SCORE.SYSTEM.DIHEDRAL>
0

>  <SCORE.SYSTEM.SOLV>
0

>  <SCORE.SYSTEM.norm>
0

>  <SCORE.heavy>
46

>  <SCORE.norm>
-0.20333

>  <RMSD>
5.528

$$$$
ligand
 OpenBabel02271912143D
libRbt.so/2013.1/901 2013/11/27
 46 52  0  0  0  0  0  0  0  0999 V2000
   -7.3793    5.8049   13.5830 P   0  0  1  0  0  0  0  0  0  0  0  0
   -3.6236    6.4806   18.0679 P   0  0  2  0  0  0  0  0  0  0  0  0
   -8.4681    4.4414   13.8950 O   0  5  0  0  0  0  0  0  0  0  0  0
   -7.7923    6.6420   12.0638 O   0  0  0  0  0  0  0  0  0  0  0  0
   -6.6273    7.9732   14.9083 C   0  0  0  0  0  0  0  0  0  0  0  0
   -7.4738    6.8263   14.8268 O   0  0  0  0  0  0  0  0  0  0  0  0
   -6.5901    8.4453   16.3493 C   0  0  1  0  0  0  0  0  0  0  0  0
   -7.9303    8.6334   16.8251 O   0  0  0  0  0  0  0  0  0  0  0  0
   -5.9596    7.4365   17.2955 C   0  0  1  0  0  0  0  0  0  0  0  0
   -4.5556    7.6395   17.4394 O   0  0  0  0  0  0  0  0  0  0  0  0
   -6.7046    7.6726   18.5975 C   0  0  1  0  0  0  0  0  0  0  0  0
   -6.0453    8.6843   19.3632 O   0  0  0  0  0  0  0  0  0  0  0  0
   -8.0697    8.1902   18.1841 C   0  0  2  0  0  0  0  0  0  0  0  0
   -4.3861    2.4108   14.9964 C   0  0  1  0  0  0  0  0  0  0  0  0
   -9.3313    3.2914   19.7974 N   0  0  0  0  0  0  0  0  0  0  0  0
   -8.1646    3.9735   19.9588 C   0  0  1  0  0  0  0  0  0  0  0  0
   -5.6232    3.1194   14.5224 C   0  0  2  0  0  0  0  0  0  0  0  0
   -7.1514    3.3616   20.6145 N   0  0  0  0  0  0  0  0  0  0  0  0
   -5.8188    2.7257   13.1631 O   0  0  0  0  0  0  0  0  0  0  0  0
   -5.2951    4.5941   14.6468 C   0  0  2  0  0  0  0  0  0  0  0  0
   -7.9774    5.2413   19.4852 N   0  0  0  0  0  0  0  0  0  0  0  0
   -5.8372    5.3460   13.5697 O   0  0  0  0  0  0  0  0  0  0  0  0
   -8.9627    5.8988   18.8230 C   0  0  2  0  0  0  0  0  0  0  0  0
   -3.7808    4.6596   14.6161 C   0  0  2  0  0  0  0  0  0  0  0  0
   -3.3247    3.3646   15.0035 O   0  0  0  0  0  0  0  0  0  0  0  0
  -10.2456    5.2040   18.6182 C   0  0  1  0  0  0  0  0  0  0  0  0
   -3.2139    5.7049   15.5704 C   0  0  0  0  0  0  0  0  0  0  0  0
   -3.5815    5.3639   16.9086 O   0  0  0  0  0  0  0  0  0  0  0  0
  -10.3873    3.8378   19.1526 C   0  0  0  0  0  0  0  0  0  0  0  0
  -11.5458    3.1491   18.9929 O   0  0  0  0  0  0  0  0  0  0  0  0
  -11.0396    6.0442   17.9454 N   0  0  0  0  0  0  0  0  0  0  0  0
  -10.3293    7.1899   17.7300 C   0  0  0  0  0  0  0  0  0  0  0  0
   -9.0872    7.1079   18.2515 N   0  0  1  0  0  0  0  0  0  0  0  0
   -2.2007   -0.1514   18.9998 N   0  0  0  0  0  0  0  0  0  0  0  0
   -4.3346    5.8084   19.5590 O   0  5  0  0  0  0  0  0  0  0  0  0
   -1.6612    0.2258   17.8084 C   0  0  2  0  0  0  0  0  0  0  0  0
   -0.3604   -0.0665   17.5469 N   0  0  0  0  0  0  0  0  0  0  0  0
   -1.9624    7.0125   18.3925 O   0  0  0  0  0  0  0  0  0  0  0  0
   -2.3852    0.8898   16.8665 N   0  0  0  0  0  0  0  0  0  0  0  0
   -3.6831    1.2149   17.0716 C   0  0  2  0  0  0  0  0  0  0  0  0
   -4.3220    0.8320   18.3376 C   0  0  2  0  0  0  0  0  0  0  0  0
   -3.4865    0.1075   19.3190 C   0  0  0  0  0  0  0  0  0  0  0  0
   -3.9899   -0.2891   20.5140 O   0  0  0  0  0  0  0  0  0  0  0  0
   -5.5973    1.2628   18.2713 N   0  0  0  0  0  0  0  0  0  0  0  0
   -5.7593    1.8763   17.0612 C   0  0  0  0  0  0  0  0  0  0  0  0
   -4.6114    1.8422   16.3470 N   0  0  1  0  0  0  0  0  0  0  0  0
  1  3  1  1  0  0  0
  1  4  2  0  0  0  0
  1  6  1  0  0  0  0
  1 22  1  0  0  0  0
  2 28  1  0  0  0  0
  2 35  1  1  0  0  0
  2 38  2  0  0  0  0
  2 10  1  0  0  0  0
  5  6  1  0  0  0  0
  7  5  1  6  0  0  0
  7  8  1  0  0  0  0
  7  9  1  0  0  0  0
  9 10  1  1  0  0  0
  9 11  1  0  0  0  0
 11 12  1  1  0  0  0
 11 13  1  0  0  0  0
 13  8  1  6  0  0  0
 13 33  1  0  0  0  0
 14 46  1  0  0  0  0
 14 17  1  0  0  0  0
 14 25  1  1  0  0  0
 15 16  1  0  0  0  0
 15 29  1  0  0  0  0
 16 18  1  6  0  0  0
 16 21  1  0  0  0  0
 17 19  1  6  0  0  0
 17 20  1  0  0  0  0
 20 22  1  6  0  0  0
 20 24  1  0  0  0  0
 23 21  1  6  0  0  0
 23 26  1  0  0  0  0
 23 33  1  0  0  0  0
 24 25  1  1  0  0  0
 24 27  1  0  0  0  0
 26 29  1  1  0  0  0
 26 31  1  0  0  0  0
 27 28  1  0  0  0  0
 29 30  2  0  0  0  0
 31 32  1  0  0  0  0
 33 32  1  1  0  0  0
 34 36  1  0  0  0  0
 34 42  1  0  0  0  0
 36 37  1  1  0  0  0
 36 39  1  0  0  0  0
 40 39  1  6  0  0  0
 40 41  1  0  0  0  0
 40 46  1  0  0  0  0
 41 42  1  6  0  0  0
 41 44  1  0  0  0  0
 42 43  2  0  0  0  0
 44 45  1  0  0  0  0
 46 45  1  1  0  0  0
M  CHG  2   3  -1  35  -1
M  END
>  <CHROM.1>
128.78416994,-176.28619981,-5.96634214,4.64683364,17.05050537,-2.55215744
-0.58448752,2.32027001

>  <Name>
ligand

>  <RI>
-1

>  <Rbt.Current_Directory>
/home/itssahil/PROJECTS/Mol_Feturizer/Test_systems_manuscript/rnas/3mum

>  <Rbt.Executable>
rbdock ($Id: //depot/dev/client3/rdock/2013.1/src/exe/rbdock.cxx#4 $)

>  <Rbt.Library>
libRbt.so (2013.1, Build901 2013/11/27)

>  <Rbt.Parameter_File>
/export/apps/rDock/src/rDock_2013.1_src/data/scripts/dock_solv.prm

>  <Rbt.Receptor>
prm/pocket_docking_7.prm

>  <SCORE>
-12.2347

>  <SCORE.INTER>
-13.519

>  <SCORE.INTER.CONST>
1

>  <SCORE.INTER.POLAR>
0

>  <SCORE.INTER.ROT>
2

>  <SCORE.INTER.SOLV>
16.4629

>  <SCORE.INTER.VDW>
-19.4337

>  <SCORE.INTER.norm>
-0.293892

>  <SCORE.INTRA>
1.2844

>  <SCORE.INTRA.DIHEDRAL>
-0.00113105

>  <SCORE.INTRA.DIHEDRAL.0>
2.40424

>  <SCORE.INTRA.POLAR>
0

>  <SCORE.INTRA.POLAR.0>
0

>  <SCORE.INTRA.REPUL>
0

>  <SCORE.INTRA.REPUL.0>
0

>  <SCORE.INTRA.SOLV>
1.57237

>  <SCORE.INTRA.SOLV.lig_0>
-134.169

>  <SCORE.INTRA.VDW>
0.498778

>  <SCORE.INTRA.VDW.0>
-2.18386

>  <SCORE.INTRA.norm>
0.0279217

>  <SCORE.RESTR>
0

>  <SCORE.RESTR.CAVITY>
0

>  <SCORE.RESTR.norm>
0

>  <SCORE.SYSTEM>
0

>  <SCORE.SYSTEM.CONST>
0

>  <SCORE.SYSTEM.DIHEDRAL>
0

>  <SCORE.SYSTEM.SOLV>
0

>  <SCORE.SYSTEM.norm>
0

>  <SCORE.heavy>
46

>  <SCORE.norm>
-0.265971

>  <RMSD>
5.532

$$$$
ligand
 OpenBabel02271912143D
libRbt.so/2013.1/901 2013/11/27
 46 52  0  0  0  0  0  0  0  0999 V2000
   -7.2355    5.4685   13.6662 P   0  0  1  0  0  0  0  0  0  0  0  0
   -3.5336    6.2666   18.1757 P   0  0  2  0  0  0  0  0  0  0  0  0
   -8.3255    4.1113   14.0004 O   0  5  0  0  0  0  0  0  0  0  0  0
   -7.6321    6.2655   12.1213 O   0  0  0  0  0  0  0  0  0  0  0  0
   -6.5027    7.6716   14.9440 C   0  0  0  0  0  0  0  0  0  0  0  0
   -7.3462    6.5214   14.8821 O   0  0  0  0  0  0  0  0  0  0  0  0
   -6.4831    8.1807   16.3727 C   0  0  1  0  0  0  0  0  0  0  0  0
   -7.8291    8.3783   16.8278 O   0  0  0  0  0  0  0  0  0  0  0  0
   -5.8620    7.1978   17.3518 C   0  0  1  0  0  0  0  0  0  0  0  0
   -4.4602    7.4072   17.5068 O   0  0  0  0  0  0  0  0  0  0  0  0
   -6.6226    7.4657   18.6386 C   0  0  1  0  0  0  0  0  0  0  0  0
   -5.9740    8.4981   19.3856 O   0  0  0  0  0  0  0  0  0  0  0  0
   -7.9837    7.9699   18.1961 C   0  0  2  0  0  0  0  0  0  0  0  0
   -4.2533    2.1178   15.2013 C   0  0  1  0  0  0  0  0  0  0  0  0
   -9.2068    3.0559   19.7927 N   0  0  0  0  0  0  0  0  0  0  0  0
   -8.0356    3.7355   19.9301 C   0  0  1  0  0  0  0  0  0  0  0  0
   -5.4859    2.8115   14.6948 C   0  0  2  0  0  0  0  0  0  0  0  0
   -7.0061    3.1163   20.5525 N   0  0  0  0  0  0  0  0  0  0  0  0
   -5.6650    2.3826   13.3438 O   0  0  0  0  0  0  0  0  0  0  0  0
   -5.1618    4.2896   14.7850 C   0  0  2  0  0  0  0  0  0  0  0  0
   -7.8598    5.0079   19.4645 N   0  0  0  0  0  0  0  0  0  0  0  0
   -5.6925    5.0125   13.6827 O   0  0  0  0  0  0  0  0  0  0  0  0
   -8.8617    5.6727   18.8353 C   0  0  2  0  0  0  0  0  0  0  0  0
   -3.6473    4.3573   14.7703 C   0  0  2  0  0  0  0  0  0  0  0  0
   -3.1936    3.0735   15.1961 O   0  0  0  0  0  0  0  0  0  0  0  0
  -10.1502    4.9809   18.6574 C   0  0  1  0  0  0  0  0  0  0  0  0
   -3.0935    5.4278   15.7039 C   0  0  0  0  0  0  0  0  0  0  0  0
   -3.4761    5.1207   17.0460 O   0  0  0  0  0  0  0  0  0  0  0  0
  -10.2790    3.6095   19.1816 C   0  0  0  0  0  0  0  0  0  0  0  0
  -11.4420    2.9232   19.0456 O   0  0  0  0  0  0  0  0  0  0  0  0
  -10.9609    5.8284   18.0144 N   0  0  0  0  0  0  0  0  0  0  0  0
  -10.2554    6.9757   17.7918 C   0  0  0  0  0  0  0  0  0  0  0  0
   -9.0001    6.8876   18.2794 N   0  0  1  0  0  0  0  0  0  0  0  0
   -2.0791   -0.2202   19.3455 N   0  0  0  0  0  0  0  0  0  0  0  0
   -4.2609    5.6316   19.6752 O   0  5  0  0  0  0  0  0  0  0  0  0
   -1.5218    0.1412   18.1574 C   0  0  2  0  0  0  0  0  0  0  0  0
   -0.2030   -0.1039   17.9413 N   0  0  0  0  0  0  0  0  0  0  0  0
   -1.8772    6.8100   18.5059 O   0  0  0  0  0  0  0  0  0  0  0  0
   -2.2454    0.7435   17.1746 N   0  0  0  0  0  0  0  0  0  0  0  0
   -3.5610    1.0198   17.3333 C   0  0  2  0  0  0  0  0  0  0  0  0
   -4.2195    0.6507   18.5934 C   0  0  2  0  0  0  0  0  0  0  0  0
   -3.3832   -0.0060   19.6207 C   0  0  0  0  0  0  0  0  0  0  0  0
   -3.9037   -0.3851   20.8140 O   0  0  0  0  0  0  0  0  0  0  0  0
   -5.5091    1.0249   18.4782 N   0  0  0  0  0  0  0  0  0  0  0  0
   -5.6617    1.5919   17.2444 C   0  0  0  0  0  0  0  0  0  0  0  0
   -4.4934    1.5836   16.5632 N   0  0  1  0  0  0  0  0  0  0  0  0
  1  3  1  1  0  0  0
  1  4  2  0  0  0  0
  1  6  1  0  0  0  0
  1 22  1  0  0  0  0
  2 28  1  0  0  0  0
  2 35  1  1  0  0  0
  2 38  2  0  0  0  0
  2 10  1  0  0  0  0
  5  6  1  0  0  0  0
  7  5  1  6  0  0  0
  7  8  1  0  0  0  0
  7  9  1  0  0  0  0
  9 10  1  1  0  0  0
  9 11  1  0  0  0  0
 11 12  1  1  0  0  0
 11 13  1  0  0  0  0
 13  8  1  6  0  0  0
 13 33  1  0  0  0  0
 14 46  1  0  0  0  0
 14 17  1  0  0  0  0
 14 25  1  1  0  0  0
 15 16  1  0  0  0  0
 15 29  1  0  0  0  0
 16 18  1  6  0  0  0
 16 21  1  0  0  0  0
 17 19  1  6  0  0  0
 17 20  1  0  0  0  0
 20 22  1  6  0  0  0
 20 24  1  0  0  0  0
 23 21  1  6  0  0  0
 23 26  1  0  0  0  0
 23 33  1  0  0  0  0
 24 25  1  1  0  0  0
 24 27  1  0  0  0  0
 26 29  1  1  0  0  0
 26 31  1  0  0  0  0
 27 28  1  0  0  0  0
 29 30  2  0  0  0  0
 31 32  1  0  0  0  0
 33 32  1  1  0  0  0
 34 36  1  0  0  0  0
 34 42  1  0  0  0  0
 36 37  1  1  0  0  0
 36 39  1  0  0  0  0
 40 39  1  6  0  0  0
 40 41  1  0  0  0  0
 40 46  1  0  0  0  0
 41 42  1  6  0  0  0
 41 44  1  0  0  0  0
 42 43  2  0  0  0  0
 44 45  1  0  0  0  0
 46 45  1  1  0  0  0
M  CHG  2   3  -1  35  -1
M  END
>  <CHROM.1>
125.78372317,-173.77523081,-5.85250507,4.40941900,17.17041410,-2.53613628
-0.55531825,2.30447279

>  <Name>
ligand

>  <RI>
-1

>  <Rbt.Current_Directory>
/home/itssahil/PROJECTS/Mol_Feturizer/Test_systems_manuscript/rnas/3mum

>  <Rbt.Executable>
rbdock ($Id: //depot/dev/client3/rdock/2013.1/src/exe/rbdock.cxx#4 $)

>  <Rbt.Library>
libRbt.so (2013.1, Build901 2013/11/27)

>  <Rbt.Parameter_File>
/export/apps/rDock/src/rDock_2013.1_src/data/scripts/dock_solv.prm

>  <Rbt.Receptor>
prm/pocket_docking_8.prm

>  <SCORE>
-12.1623

>  <SCORE.INTER>
-13.5034

>  <SCORE.INTER.CONST>
1

>  <SCORE.INTER.POLAR>
0

>  <SCORE.INTER.ROT>
2

>  <SCORE.INTER.SOLV>
15.7658

>  <SCORE.INTER.VDW>
-19.1909

>  <SCORE.INTER.norm>
-0.293553

>  <SCORE.INTRA>
1.34113

>  <SCORE.INTRA.DIHEDRAL>
0.00291711

>  <SCORE.INTRA.DIHEDRAL.0>
2.40424

>  <SCORE.INTRA.POLAR>
0

>  <SCORE.INTRA.POLAR.0>
0

>  <SCORE.INTRA.REPUL>
0

>  <SCORE.INTRA.REPUL.0>
0

>  <SCORE.INTRA.SOLV>
1.95207

>  <SCORE.INTRA.SOLV.lig_0>
-134.169

>  <SCORE.INTRA.VDW>
0.363632

>  <SCORE.INTRA.VDW.0>
-2.18386

>  <SCORE.INTRA.norm>
0.0291549

>  <SCORE.RESTR>
0

>  <SCORE.RESTR.CAVITY>
0

>  <SCORE.RESTR.norm>
0

>  <SCORE.SYSTEM>
0

>  <SCORE.SYSTEM.CONST>
0

>  <SCORE.SYSTEM.DIHEDRAL>
0

>  <SCORE.SYSTEM.SOLV>
0

>  <SCORE.SYSTEM.norm>
0

>  <SCORE.heavy>
46

>  <SCORE.norm>
-0.264398

>  <RMSD>
5.532

$$$$
ligand
 OpenBabel02271912143D
libRbt.so/2013.1/901 2013/11/27
 46 52  0  0  0  0  0  0  0  0999 V2000
   -4.2698    7.4812   17.3397 P   0  0  1  0  0  0  0  0  0  0  0  0
   -8.6138    6.6985   13.4419 P   0  0  2  0  0  0  0  0  0  0  0  0
   -4.5490    6.4831   18.7777 O   0  5  0  0  0  0  0  0  0  0  0  0
   -2.7164    8.3512   17.4346 O   0  0  0  0  0  0  0  0  0  0  0  0
   -4.2027    7.0617   14.7238 C   0  0  0  0  0  0  0  0  0  0  0  0
   -4.2950    6.5235   16.0430 O   0  0  0  0  0  0  0  0  0  0  0  0
   -4.7307    6.0319   13.7433 C   0  0  1  0  0  0  0  0  0  0  0  0
   -4.0524    4.7847   13.9490 O   0  0  0  0  0  0  0  0  0  0  0  0
   -6.2083    5.7277   13.9297 C   0  0  1  0  0  0  0  0  0  0  0  0
   -7.0352    6.5690   13.1288 O   0  0  0  0  0  0  0  0  0  0  0  0
   -6.3145    4.2694   13.5197 C   0  0  1  0  0  0  0  0  0  0  0  0
   -6.5528    4.1716   12.1132 O   0  0  0  0  0  0  0  0  0  0  0  0
   -4.9527    3.6728   13.8231 C   0  0  2  0  0  0  0  0  0  0  0  0
   -8.8256    8.3540   18.3196 C   0  0  1  0  0  0  0  0  0  0  0  0
   -2.5797    2.5103   18.4285 N   0  0  0  0  0  0  0  0  0  0  0  0
   -2.1665    3.3479   17.4385 C   0  0  1  0  0  0  0  0  0  0  0  0
   -7.4005    7.8933   18.4385 C   0  0  2  0  0  0  0  0  0  0  0  0
   -0.9918    3.9995   17.6007 N   0  0  0  0  0  0  0  0  0  0  0  0
   -6.7737    8.7584   19.3871 O   0  0  0  0  0  0  0  0  0  0  0  0
   -6.8233    8.0604   17.0468 C   0  0  2  0  0  0  0  0  0  0  0  0
   -2.8852    3.5522   16.2947 N   0  0  0  0  0  0  0  0  0  0  0  0
   -5.4773    8.5142   17.0869 O   0  0  0  0  0  0  0  0  0  0  0  0
   -4.0699    2.9244   16.0852 C   0  0  2  0  0  0  0  0  0  0  0  0
   -7.7032    9.1016   16.3832 C   0  0  2  0  0  0  0  0  0  0  0  0
   -8.9365    9.0866   17.1001 O   0  0  0  0  0  0  0  0  0  0  0  0
   -4.5617    2.0038   17.1249 C   0  0  1  0  0  0  0  0  0  0  0  0
   -7.9667    8.8029   14.9116 C   0  0  0  0  0  0  0  0  0  0  0  0
   -8.6564    7.5560   14.8041 O   0  0  0  0  0  0  0  0  0  0  0  0
   -3.7422    1.8250   18.3367 C   0  0  0  0  0  0  0  0  0  0  0  0
   -4.1448    0.9889   19.3271 O   0  0  0  0  0  0  0  0  0  0  0  0
   -5.7268    1.5121   16.6892 N   0  0  0  0  0  0  0  0  0  0  0  0
   -5.9703    2.0672   15.4661 C   0  0  0  0  0  0  0  0  0  0  0  0
   -4.9827    2.9112   15.0999 N   0  0  1  0  0  0  0  0  0  0  0  0
   -9.3317    3.3065   19.5983 N   0  0  0  0  0  0  0  0  0  0  0  0
   -9.3642    5.0990   13.6852 O   0  5  0  0  0  0  0  0  0  0  0  0
   -8.2561    4.1321   19.7186 C   0  0  2  0  0  0  0  0  0  0  0  0
   -7.1029    3.6463   20.2480 N   0  0  0  0  0  0  0  0  0  0  0  0
   -9.5080    7.5874   12.1935 O   0  0  0  0  0  0  0  0  0  0  0  0
   -8.2984    5.4342   19.3250 N   0  0  0  0  0  0  0  0  0  0  0  0
   -9.4202    5.9772   18.7969 C   0  0  2  0  0  0  0  0  0  0  0  0
  -10.6132    5.1349   18.6390 C   0  0  2  0  0  0  0  0  0  0  0  0
  -10.5045    3.7276   19.0791 C   0  0  0  0  0  0  0  0  0  0  0  0
  -11.5523    2.8739   18.9702 O   0  0  0  0  0  0  0  0  0  0  0  0
  -11.5647    5.9141   18.0877 N   0  0  0  0  0  0  0  0  0  0  0  0
  -11.0242    7.1566   17.9114 C   0  0  0  0  0  0  0  0  0  0  0  0
   -9.7404    7.1874   18.3351 N   0  0  1  0  0  0  0  0  0  0  0  0
  1  3  1  1  0  0  0
  1  4  2  0  0  0  0
  1  6  1  0  0  0  0
  1 22  1  0  0  0  0
  2 28  1  0  0  0  0
  2 35  1  1  0  0  0
  2 38  2  0  0  0  0
  2 10  1  0  0  0  0
  5  6  1  0  0  0  0
  7  5  1  1  0  0  0
  7  8  1  0  0  0  0
  7  9  1  0  0  0  0
  9 10  1  6  0  0  0
  9 11  1  0  0  0  0
 11 12  1  6  0  0  0
 11 13  1  0  0  0  0
 13  8  1  1  0  0  0
 13 33  1  0  0  0  0
 14 46  1  0  0  0  0
 14 17  1  0  0  0  0
 14 25  1  6  0  0  0
 15 16  1  0  0  0  0
 15 29  1  0  0  0  0
 16 18  1  6  0  0  0
 16 21  1  0  0  0  0
 17 19  1  1  0  0  0
 17 20  1  0  0  0  0
 20 22  1  1  0  0  0
 20 24  1  0  0  0  0
 23 21  1  6  0  0  0
 23 26  1  0  0  0  0
 23 33  1  0  0  0  0
 24 25  1  1  0  0  0
 24 27  1  0  0  0  0
 26 29  1  1  0  0  0
 26 31  1  0  0  0  0
 27 28  1  0  0  0  0
 29 30  2  0  0  0  0
 31 32  1  0  0  0  0
 33 32  1  1  0  0  0
 34 36  1  0  0  0  0
 34 42  1  0  0  0  0
 36 37  1  1  0  0  0
 36 39  1  0  0  0  0
 40 39  1  6  0  0  0
 40 41  1  0  0  0  0
 40 46  1  0  0  0  0
 41 42  1  6  0  0  0
 41 44  1  0  0  0  0
 42 43  2  0  0  0  0
 44 45  1  0  0  0  0
 46 45  1  1  0  0  0
M  CHG  2   3  -1  35  -1
M  END
>  <CHROM.1>
-19.81032458,19.38493944,-6.61485432,5.55868923,16.57803298,-0.28828057,0.44034212
-0.94799475

>  <Name>
ligand

>  <RI>
-1

>  <Rbt.Current_Directory>
/home/itssahil/PROJECTS/Mol_Feturizer/Test_systems_manuscript/rnas/3mum

>  <Rbt.Executable>
rbdock ($Id: //depot/dev/client3/rdock/2013.1/src/exe/rbdock.cxx#4 $)

>  <Rbt.Library>
libRbt.so (2013.1, Build901 2013/11/27)

>  <Rbt.Parameter_File>
/export/apps/rDock/src/rDock_2013.1_src/data/scripts/dock_solv.prm

>  <Rbt.Receptor>
prm/pocket_docking_6.prm

>  <SCORE>
-9.28516

>  <SCORE.INTER>
-9.95544

>  <SCORE.INTER.CONST>
1

>  <SCORE.INTER.POLAR>
0

>  <SCORE.INTER.ROT>
2

>  <SCORE.INTER.SOLV>
12.6074

>  <SCORE.INTER.VDW>
-15.7727

>  <SCORE.INTER.norm>
-0.216423

>  <SCORE.INTRA>
0.670278

>  <SCORE.INTRA.DIHEDRAL>
-0.0242038

>  <SCORE.INTRA.DIHEDRAL.0>
2.40424

>  <SCORE.INTRA.POLAR>
0

>  <SCORE.INTRA.POLAR.0>
0

>  <SCORE.INTRA.REPUL>
0

>  <SCORE.INTRA.REPUL.0>
0

>  <SCORE.INTRA.SOLV>
1.00589

>  <SCORE.INTRA.SOLV.lig_0>
-134.169

>  <SCORE.INTRA.VDW>
0.179434

>  <SCORE.INTRA.VDW.0>
-2.18386

>  <SCORE.INTRA.norm>
0.0145713

>  <SCORE.RESTR>
0

>  <SCORE.RESTR.CAVITY>
0

>  <SCORE.RESTR.norm>
0

>  <SCORE.SYSTEM>
0

>  <SCORE.SYSTEM.CONST>
0

>  <SCORE.SYSTEM.DIHEDRAL>
0

>  <SCORE.SYSTEM.SOLV>
0

>  <SCORE.SYSTEM.norm>
0

>  <SCORE.heavy>
46

>  <SCORE.norm>
-0.201851

>  <RMSD>
5.551

$$$$
ligand
 OpenBabel02271912143D
libRbt.so/2013.1/901 2013/11/27
 46 52  0  0  0  0  0  0  0  0999 V2000
   -4.3463    7.5724   17.1711 P   0  0  1  0  0  0  0  0  0  0  0  0
   -8.7949    6.7508   13.4013 P   0  0  2  0  0  0  0  0  0  0  0  0
   -4.5742    6.5715   18.6161 O   0  5  0  0  0  0  0  0  0  0  0  0
   -2.7988    8.4567   17.2211 O   0  0  0  0  0  0  0  0  0  0  0  0
   -4.3518    7.1542   14.5542 C   0  0  0  0  0  0  0  0  0  0  0  0
   -4.4006    6.6148   15.8752 O   0  0  0  0  0  0  0  0  0  0  0  0
   -4.8987    6.1198   13.5889 C   0  0  1  0  0  0  0  0  0  0  0  0
   -4.2032    4.8789   13.7741 O   0  0  0  0  0  0  0  0  0  0  0  0
   -6.3673    5.8020   13.8183 C   0  0  1  0  0  0  0  0  0  0  0  0
   -7.2250    6.6359   13.0423 O   0  0  0  0  0  0  0  0  0  0  0  0
   -6.4721    4.3429   13.4107 C   0  0  1  0  0  0  0  0  0  0  0  0
   -6.7504    4.2432   12.0118 O   0  0  0  0  0  0  0  0  0  0  0  0
   -5.0966    3.7588   13.6740 C   0  0  2  0  0  0  0  0  0  0  0  0
   -8.8793    8.4031   18.2840 C   0  0  1  0  0  0  0  0  0  0  0  0
   -2.5832    2.6228   18.2111 N   0  0  0  0  0  0  0  0  0  0  0  0
   -2.2075    3.4654   17.2104 C   0  0  1  0  0  0  0  0  0  0  0  0
   -7.4472    7.9555   18.3610 C   0  0  2  0  0  0  0  0  0  0  0  0
   -1.0363    4.1305   17.3402 N   0  0  0  0  0  0  0  0  0  0  0  0
   -6.8010    8.8261   19.2914 O   0  0  0  0  0  0  0  0  0  0  0  0
   -6.9125    8.1282   16.9532 C   0  0  2  0  0  0  0  0  0  0  0  0
   -2.9600    3.6616   16.0871 N   0  0  0  0  0  0  0  0  0  0  0  0
   -5.5701    8.5943   16.9542 O   0  0  0  0  0  0  0  0  0  0  0  0
   -4.1427    3.0202   15.9103 C   0  0  2  0  0  0  0  0  0  0  0  0
   -7.8209    9.1614   16.3161 C   0  0  2  0  0  0  0  0  0  0  0  0
   -9.0326    9.1349   17.0687 O   0  0  0  0  0  0  0  0  0  0  0  0
   -4.5948    2.0937   16.9628 C   0  0  1  0  0  0  0  0  0  0  0  0
   -8.1245    8.8607   14.8526 C   0  0  0  0  0  0  0  0  0  0  0  0
   -8.8056    7.6075   14.7647 O   0  0  0  0  0  0  0  0  0  0  0  0
   -3.7399    1.9242   18.1512 C   0  0  0  0  0  0  0  0  0  0  0  0
   -4.1051    1.0833   19.1520 O   0  0  0  0  0  0  0  0  0  0  0  0
   -5.7658    1.5887   16.5594 N   0  0  0  0  0  0  0  0  0  0  0  0
   -6.0495    2.1412   15.3437 C   0  0  0  0  0  0  0  0  0  0  0  0
   -5.0823    2.9966   14.9507 N   0  0  1  0  0  0  0  0  0  0  0  0
   -9.3111    3.3592   19.6036 N   0  0  0  0  0  0  0  0  0  0  0  0
   -9.5232    5.1444   13.6657 O   0  5  0  0  0  0  0  0  0  0  0  0
   -8.2411    4.1955   19.6966 C   0  0  2  0  0  0  0  0  0  0  0  0
   -7.0727    3.7239   20.2049 N   0  0  0  0  0  0  0  0  0  0  0  0
   -9.7332    7.6317   12.1801 O   0  0  0  0  0  0  0  0  0  0  0  0
   -8.3038    5.4947   19.2960 N   0  0  0  0  0  0  0  0  0  0  0  0
   -9.4414    6.0238   18.7880 C   0  0  2  0  0  0  0  0  0  0  0  0
  -10.6295    5.1695   18.6601 C   0  0  2  0  0  0  0  0  0  0  0  0
  -10.4983    3.7661   19.1064 C   0  0  0  0  0  0  0  0  0  0  0  0
  -11.5401    2.9020   19.0245 O   0  0  0  0  0  0  0  0  0  0  0  0
  -11.5995    5.9363   18.1239 N   0  0  0  0  0  0  0  0  0  0  0  0
  -11.0746    7.1827   17.9289 C   0  0  0  0  0  0  0  0  0  0  0  0
   -9.7825    7.2281   18.3256 N   0  0  1  0  0  0  0  0  0  0  0  0
  1  3  1  1  0  0  0
  1  4  2  0  0  0  0
  1  6  1  0  0  0  0
  1 22  1  0  0  0  0
  2 28  1  0  0  0  0
  2 35  1  1  0  0  0
  2 38  2  0  0  0  0
  2 10  1  0  0  0  0
  5  6  1  0  0  0  0
  7  5  1  1  0  0  0
  7  8  1  0  0  0  0
  7  9  1  0  0  0  0
  9 10  1  6  0  0  0
  9 11  1  0  0  0  0
 11 12  1  6  0  0  0
 11 13  1  0  0  0  0
 13  8  1  1  0  0  0
 13 33  1  0  0  0  0
 14 46  1  0  0  0  0
 14 17  1  0  0  0  0
 14 25  1  6  0  0  0
 15 16  1  0  0  0  0
 15 29  1  0  0  0  0
 16 18  1  6  0  0  0
 16 21  1  0  0  0  0
 17 19  1  1  0  0  0
 17 20  1  0  0  0  0
 20 22  1  1  0  0  0
 20 24  1  0  0  0  0
 23 21  1  6  0  0  0
 23 26  1  0  0  0  0
 23 33  1  0  0  0  0
 24 25  1  1  0  0  0
 24 27  1  0  0  0  0
 26 29  1  1  0  0  0
 26 31  1  0  0  0  0
 27 28  1  0  0  0  0
 29 30  2  0  0  0  0
 31 32  1  0  0  0  0
 33 32  1  1  0  0  0
 34 36  1  0  0  0  0
 34 42  1  0  0  0  0
 36 37  1  1  0  0  0
 36 39  1  0  0  0  0
 40 39  1  6  0  0  0
 40 41  1  0  0  0  0
 40 46  1  0  0  0  0
 41 42  1  6  0  0  0
 41 44  1  0  0  0  0
 42 43  2  0  0  0  0
 44 45  1  0  0  0  0
 46 45  1  1  0  0  0
M  CHG  2   3  -1  35  -1
M  END
>  <CHROM.1>
-19.65174176,19.99831609,-6.69628432,5.63017551,16.48081543,-0.25064974,0.45044118
-0.96591960

>  <Name>
ligand

>  <RI>
-1

>  <Rbt.Current_Directory>
/home/itssahil/PROJECTS/Mol_Feturizer/Test_systems_manuscript/rnas/3mum

>  <Rbt.Executable>
rbdock ($Id: //depot/dev/client3/rdock/2013.1/src/exe/rbdock.cxx#4 $)

>  <Rbt.Library>
libRbt.so (2013.1, Build901 2013/11/27)

>  <Rbt.Parameter_File>
/export/apps/rDock/src/rDock_2013.1_src/data/scripts/dock_solv.prm

>  <Rbt.Receptor>
prm/pocket_docking_8.prm

>  <SCORE>
-9.22693

>  <SCORE.INTER>
-9.85827

>  <SCORE.INTER.CONST>
1

>  <SCORE.INTER.POLAR>
0

>  <SCORE.INTER.ROT>
2

>  <SCORE.INTER.SOLV>
12.4996

>  <SCORE.INTER.VDW>
-15.6721

>  <SCORE.INTER.norm>
-0.21431

>  <SCORE.INTRA>
0.631338

>  <SCORE.INTRA.DIHEDRAL>
-0.0246915

>  <SCORE.INTRA.DIHEDRAL.0>
2.40424

>  <SCORE.INTRA.POLAR>
0

>  <SCORE.INTRA.POLAR.0>
0

>  <SCORE.INTRA.REPUL>
0

>  <SCORE.INTRA.REPUL.0>
0

>  <SCORE.INTRA.SOLV>
0.961145

>  <SCORE.INTRA.SOLV.lig_0>
-134.169

>  <SCORE.INTRA.VDW>
0.163111

>  <SCORE.INTRA.VDW.0>
-2.18386

>  <SCORE.INTRA.norm>
0.0137247

>  <SCORE.RESTR>
0

>  <SCORE.RESTR.CAVITY>
0

>  <SCORE.RESTR.norm>
0

>  <SCORE.SYSTEM>
0

>  <SCORE.SYSTEM.CONST>
0

>  <SCORE.SYSTEM.DIHEDRAL>
0

>  <SCORE.SYSTEM.SOLV>
0

>  <SCORE.SYSTEM.norm>
0

>  <SCORE.heavy>
46

>  <SCORE.norm>
-0.200586

>  <RMSD>
5.561

$$$$
ligand
 OpenBabel02271912143D
libRbt.so/2013.1/901 2013/11/27
 46 52  0  0  0  0  0  0  0  0999 V2000
   -7.6211    2.8492   19.6290 P   0  0  1  0  0  0  0  0  0  0  0  0
   -5.3063    7.4704   16.8072 P   0  0  2  0  0  0  0  0  0  0  0  0
   -8.7452    1.9825   18.5673 O   0  5  0  0  0  0  0  0  0  0  0  0
   -7.4322    2.0256   21.1991 O   0  0  0  0  0  0  0  0  0  0  0  0
   -5.1178    3.7003   19.4500 C   0  0  0  0  0  0  0  0  0  0  0  0
   -6.1971    2.9588   18.8811 O   0  0  0  0  0  0  0  0  0  0  0  0
   -4.1254    4.0301   18.3513 C   0  0  1  0  0  0  0  0  0  0  0  0
   -3.7526    2.8257   17.6671 O   0  0  0  0  0  0  0  0  0  0  0  0
   -4.6968    4.9463   17.2814 C   0  0  1  0  0  0  0  0  0  0  0  0
   -4.4701    6.3229   17.5759 O   0  0  0  0  0  0  0  0  0  0  0  0
   -3.9670    4.5060   16.0247 C   0  0  1  0  0  0  0  0  0  0  0  0
   -2.7455    5.2362   15.8857 O   0  0  0  0  0  0  0  0  0  0  0  0
   -3.6339    3.0433   16.2524 C   0  0  2  0  0  0  0  0  0  0  0  0
  -10.2383    6.3663   17.8243 C   0  0  1  0  0  0  0  0  0  0  0  0
   -7.4312    2.5911   12.5688 N   0  0  0  0  0  0  0  0  0  0  0  0
   -6.7405    3.6978   12.9568 C   0  0  1  0  0  0  0  0  0  0  0  0
   -9.7541    4.9973   18.2098 C   0  0  2  0  0  0  0  0  0  0  0  0
   -7.0241    4.8738   12.3510 N   0  0  0  0  0  0  0  0  0  0  0  0
  -10.6407    4.5263   19.2262 O   0  0  0  0  0  0  0  0  0  0  0  0
   -8.3500    5.2185   18.7363 C   0  0  2  0  0  0  0  0  0  0  0  0
   -5.7813    3.6677   13.9293 N   0  0  0  0  0  0  0  0  0  0  0  0
   -8.0671    4.3796   19.8479 O   0  0  0  0  0  0  0  0  0  0  0  0
   -5.4587    2.5132   14.5655 C   0  0  2  0  0  0  0  0  0  0  0  0
   -8.3188    6.6732   19.1620 C   0  0  2  0  0  0  0  0  0  0  0  0
   -9.3684    7.3153   18.4398 O   0  0  0  0  0  0  0  0  0  0  0  0
   -6.1792    1.2857   14.1853 C   0  0  1  0  0  0  0  0  0  0  0  0
   -6.9924    7.3546   18.8446 C   0  0  0  0  0  0  0  0  0  0  0  0
   -6.7849    7.3376   17.4309 O   0  0  0  0  0  0  0  0  0  0  0  0
   -7.2027    1.3814   13.1292 C   0  0  0  0  0  0  0  0  0  0  0  0
   -7.8988    0.2837   12.7387 O   0  0  0  0  0  0  0  0  0  0  0  0
   -5.6941    0.2986   14.9465 N   0  0  0  0  0  0  0  0  0  0  0  0
   -4.7381    0.8417   15.7556 C   0  0  0  0  0  0  0  0  0  0  0  0
   -4.5942    2.1650   15.5327 N   0  0  1  0  0  0  0  0  0  0  0  0
  -13.1653    6.2160   13.4909 N   0  0  0  0  0  0  0  0  0  0  0  0
   -5.3412    7.1842   15.0472 O   0  5  0  0  0  0  0  0  0  0  0  0
  -13.5183    6.0040   14.7883 C   0  0  2  0  0  0  0  0  0  0  0  0
  -14.8110    5.7091   15.0845 N   0  0  0  0  0  0  0  0  0  0  0  0
   -4.7094    9.1101   17.1280 O   0  0  0  0  0  0  0  0  0  0  0  0
  -12.6147    6.0787   15.8033 N   0  0  0  0  0  0  0  0  0  0  0  0
  -11.3143    6.3751   15.5720 C   0  0  2  0  0  0  0  0  0  0  0  0
  -10.8722    6.6116   14.1913 C   0  0  2  0  0  0  0  0  0  0  0  0
  -11.8980    6.5107   13.1313 C   0  0  0  0  0  0  0  0  0  0  0  0
  -11.5836    6.7099   11.8274 O   0  0  0  0  0  0  0  0  0  0  0  0
   -9.5508    6.8703   14.2489 N   0  0  0  0  0  0  0  0  0  0  0  0
   -9.1788    6.8085   15.5623 C   0  0  0  0  0  0  0  0  0  0  0  0
  -10.2376    6.5093   16.3486 N   0  0  1  0  0  0  0  0  0  0  0  0
  1  3  1  6  0  0  0
  1  4  2  0  0  0  0
  1  6  1  0  0  0  0
  1 22  1  0  0  0  0
  2 28  1  0  0  0  0
  2 35  1  6  0  0  0
  2 38  2  0  0  0  0
  2 10  1  0  0  0  0
  5  6  1  0  0  0  0
  7  5  1  1  0  0  0
  7  8  1  0  0  0  0
  7  9  1  0  0  0  0
  9 10  1  1  0  0  0
  9 11  1  0  0  0  0
 11 12  1  1  0  0  0
 11 13  1  0  0  0  0
 13  8  1  1  0  0  0
 13 33  1  0  0  0  0
 14 46  1  0  0  0  0
 14 17  1  0  0  0  0
 14 25  1  1  0  0  0
 15 16  1  0  0  0  0
 15 29  1  0  0  0  0
 16 18  1  1  0  0  0
 16 21  1  0  0  0  0
 17 19  1  1  0  0  0
 17 20  1  0  0  0  0
 20 22  1  1  0  0  0
 20 24  1  0  0  0  0
 23 21  1  1  0  0  0
 23 26  1  0  0  0  0
 23 33  1  0  0  0  0
 24 25  1  6  0  0  0
 24 27  1  0  0  0  0
 26 29  1  6  0  0  0
 26 31  1  0  0  0  0
 27 28  1  0  0  0  0
 29 30  2  0  0  0  0
 31 32  1  0  0  0  0
 33 32  1  6  0  0  0
 34 36  1  0  0  0  0
 34 42  1  0  0  0  0
 36 37  1  1  0  0  0
 36 39  1  0  0  0  0
 40 39  1  6  0  0  0
 40 41  1  0  0  0  0
 40 46  1  0  0  0  0
 41 42  1  6  0  0  0
 41 44  1  0  0  0  0
 42 43  2  0  0  0  0
 44 45  1  0  0  0  0
 46 45  1  1  0  0  0
M  CHG  2   3  -1  35  -1
M  END
>  <CHROM.1>
131.18864095,99.11768863,-7.58422210,4.74490842,16.40000694,0.11328028,-0.45155899
1.12596158

>  <Name>
ligand

>  <RI>
-1

>  <Rbt.Current_Directory>
/home/itssahil/PROJECTS/Mol_Feturizer/Test_systems_manuscript/rnas/3mum

>  <Rbt.Executable>
rbdock ($Id: //depot/dev/client3/rdock/2013.1/src/exe/rbdock.cxx#4 $)

>  <Rbt.Library>
libRbt.so (2013.1, Build901 2013/11/27)

>  <Rbt.Parameter_File>
/export/apps/rDock/src/rDock_2013.1_src/data/scripts/dock_solv.prm

>  <Rbt.Receptor>
prm/pocket_docking_6.prm

>  <SCORE>
-13.6004

>  <SCORE.INTER>
-14.0244

>  <SCORE.INTER.CONST>
1

>  <SCORE.INTER.POLAR>
0

>  <SCORE.INTER.ROT>
2

>  <SCORE.INTER.SOLV>
23.6796

>  <SCORE.INTER.VDW>
-22.1761

>  <SCORE.INTER.norm>
-0.304878

>  <SCORE.INTRA>
0.424004

>  <SCORE.INTRA.DIHEDRAL>
0.0185442

>  <SCORE.INTRA.DIHEDRAL.0>
2.40424

>  <SCORE.INTRA.POLAR>
0

>  <SCORE.INTRA.POLAR.0>
0

>  <SCORE.INTRA.REPUL>
0

>  <SCORE.INTRA.REPUL.0>
0

>  <SCORE.INTRA.SOLV>
1.32094

>  <SCORE.INTRA.SOLV.lig_0>
-134.169

>  <SCORE.INTRA.VDW>
-0.245736

>  <SCORE.INTRA.VDW.0>
-2.18386

>  <SCORE.INTRA.norm>
0.00921749

>  <SCORE.RESTR>
0

>  <SCORE.RESTR.CAVITY>
0

>  <SCORE.RESTR.norm>
0

>  <SCORE.SYSTEM>
0

>  <SCORE.SYSTEM.CONST>
0

>  <SCORE.SYSTEM.DIHEDRAL>
0

>  <SCORE.SYSTEM.SOLV>
0

>  <SCORE.SYSTEM.norm>
0

>  <SCORE.heavy>
46

>  <SCORE.norm>
-0.29566

>  <RMSD>
5.577

$$$$
ligand
 OpenBabel02271912143D
libRbt.so/2013.1/901 2013/11/27
 46 52  0  0  0  0  0  0  0  0999 V2000
   -6.8410    4.3662   13.1939 P   0  0  1  0  0  0  0  0  0  0  0  0
   -5.0923    6.5275   18.3849 P   0  0  2  0  0  0  0  0  0  0  0  0
   -7.6074    2.7834   13.4154 O   0  5  0  0  0  0  0  0  0  0  0  0
   -6.9089    4.8974   11.4932 O   0  0  0  0  0  0  0  0  0  0  0  0
   -7.1259    6.7768   14.2575 C   0  0  0  0  0  0  0  0  0  0  0  0
   -7.5918    5.4322   14.1421 O   0  0  0  0  0  0  0  0  0  0  0  0
   -7.6902    7.3767   15.5312 C   0  0  1  0  0  0  0  0  0  0  0  0
   -9.1156    7.2150   15.5446 O   0  0  0  0  0  0  0  0  0  0  0  0
   -7.1904    6.6892   16.7913 C   0  0  1  0  0  0  0  0  0  0  0  0
   -6.0097    7.3017   17.3051 O   0  0  0  0  0  0  0  0  0  0  0  0
   -8.3630    6.8250   17.7465 C   0  0  1  0  0  0  0  0  0  0  0  0
   -8.2647    8.0530   18.4723 O   0  0  0  0  0  0  0  0  0  0  0  0
   -9.5920    6.8841   16.8584 C   0  0  2  0  0  0  0  0  0  0  0  0
   -3.7708    2.1338   16.0341 C   0  0  1  0  0  0  0  0  0  0  0  0
  -10.4855    2.2029   19.1994 N   0  0  0  0  0  0  0  0  0  0  0  0
   -9.7031    3.2351   19.6175 C   0  0  1  0  0  0  0  0  0  0  0  0
   -4.9089    2.4059   15.0919 C   0  0  2  0  0  0  0  0  0  0  0  0
   -9.0365    3.0996   20.7871 N   0  0  0  0  0  0  0  0  0  0  0  0
   -4.5351    1.8429   13.8331 O   0  0  0  0  0  0  0  0  0  0  0  0
   -5.0085    3.9173   15.0329 C   0  0  2  0  0  0  0  0  0  0  0  0
   -9.5635    4.3928   18.9054 N   0  0  0  0  0  0  0  0  0  0  0  0
   -5.3218    4.3729   13.7239 O   0  0  0  0  0  0  0  0  0  0  0  0
  -10.2122    4.5785   17.7280 C   0  0  2  0  0  0  0  0  0  0  0  0
   -3.6355    4.4138   15.4413 C   0  0  2  0  0  0  0  0  0  0  0  0
   -3.0374    3.3493   16.1791 O   0  0  0  0  0  0  0  0  0  0  0  0
  -11.0701    3.4902   17.2282 C   0  0  1  0  0  0  0  0  0  0  0  0
   -3.6928    5.6653   16.3101 C   0  0  0  0  0  0  0  0  0  0  0  0
   -4.3946    5.3639   17.5178 O   0  0  0  0  0  0  0  0  0  0  0  0
  -11.1810    2.2658   18.0411 C   0  0  0  0  0  0  0  0  0  0  0  0
  -11.9560    1.2302   17.6299 O   0  0  0  0  0  0  0  0  0  0  0  0
  -11.5865    3.9047   16.0661 N   0  0  0  0  0  0  0  0  0  0  0  0
  -11.1018    5.1589   15.8304 C   0  0  0  0  0  0  0  0  0  0  0  0
  -10.2793    5.5660   16.8200 N   0  0  1  0  0  0  0  0  0  0  0  0
   -2.5557    1.0093   20.9967 N   0  0  0  0  0  0  0  0  0  0  0  0
   -6.0781    5.8262   19.6954 O   0  5  0  0  0  0  0  0  0  0  0  0
   -1.7597    1.4454   19.9823 C   0  0  2  0  0  0  0  0  0  0  0  0
   -0.4371    1.6490   20.2174 N   0  0  0  0  0  0  0  0  0  0  0  0
   -3.8177    7.5450   19.0835 O   0  0  0  0  0  0  0  0  0  0  0  0
   -2.2476    1.6858   18.7347 N   0  0  0  0  0  0  0  0  0  0  0  0
   -3.5569    1.5079   18.4410 C   0  0  2  0  0  0  0  0  0  0  0  0
   -4.4655    1.0358   19.4942 C   0  0  2  0  0  0  0  0  0  0  0  0
   -3.8763    0.7863   20.8271 C   0  0  0  0  0  0  0  0  0  0  0  0
   -4.6360    0.3466   21.8606 O   0  0  0  0  0  0  0  0  0  0  0  0
   -5.6870    0.9371   18.9334 N   0  0  0  0  0  0  0  0  0  0  0  0
   -5.5694    1.3198   17.6270 C   0  0  0  0  0  0  0  0  0  0  0  0
   -4.2922    1.6577   17.3377 N   0  0  1  0  0  0  0  0  0  0  0  0
  1  3  1  1  0  0  0
  1  4  2  0  0  0  0
  1  6  1  0  0  0  0
  1 22  1  0  0  0  0
  2 28  1  0  0  0  0
  2 35  1  1  0  0  0
  2 38  2  0  0  0  0
  2 10  1  0  0  0  0
  5  6  1  0  0  0  0
  7  5  1  6  0  0  0
  7  8  1  0  0  0  0
  7  9  1  0  0  0  0
  9 10  1  1  0  0  0
  9 11  1  0  0  0  0
 11 12  1  6  0  0  0
 11 13  1  0  0  0  0
 13  8  1  6  0  0  0
 13 33  1  0  0  0  0
 14 46  1  0  0  0  0
 14 17  1  0  0  0  0
 14 25  1  1  0  0  0
 15 16  1  0  0  0  0
 15 29  1  0  0  0  0
 16 18  1  6  0  0  0
 16 21  1  0  0  0  0
 17 19  1  6  0  0  0
 17 20  1  0  0  0  0
 20 22  1  6  0  0  0
 20 24  1  0  0  0  0
 23 21  1  6  0  0  0
 23 26  1  0  0  0  0
 23 33  1  0  0  0  0
 24 25  1  1  0  0  0
 24 27  1  0  0  0  0
 26 29  1  1  0  0  0
 26 31  1  0  0  0  0
 27 28  1  0  0  0  0
 29 30  2  0  0  0  0
 31 32  1  0  0  0  0
 33 32  1  1  0  0  0
 34 36  1  0  0  0  0
 34 42  1  0  0  0  0
 36 37  1  1  0  0  0
 36 39  1  0  0  0  0
 40 39  1  6  0  0  0
 40 41  1  0  0  0  0
 40 46  1  0  0  0  0
 41 42  1  6  0  0  0
 41 44  1  0  0  0  0
 42 43  2  0  0  0  0
 44 45  1  0  0  0  0
 46 45  1  1  0  0  0
M  CHG  2   3  -1  35  -1
M  END
>  <CHROM.1>
139.48315049,-170.23145682,-6.48707298,4.05977066,17.11789648,-2.52340246
-0.18131569,2.13105979

>  <Name>
ligand

>  <RI>
-1

>  <Rbt.Current_Directory>
/home/itssahil/PROJECTS/Mol_Feturizer/Test_systems_manuscript/rnas/3mum

>  <Rbt.Executable>
rbdock ($Id: //depot/dev/client3/rdock/2013.1/src/exe/rbdock.cxx#4 $)

>  <Rbt.Library>
libRbt.so (2013.1, Build901 2013/11/27)

>  <Rbt.Parameter_File>
/export/apps/rDock/src/rDock_2013.1_src/data/scripts/dock_solv.prm

>  <Rbt.Receptor>
prm/pocket_docking_5.prm

>  <SCORE>
-8.58495

>  <SCORE.INTER>
-9.52795

>  <SCORE.INTER.CONST>
1

>  <SCORE.INTER.POLAR>
0

>  <SCORE.INTER.ROT>
2

>  <SCORE.INTER.SOLV>
22.5189

>  <SCORE.INTER.VDW>
-18.7916

>  <SCORE.INTER.norm>
-0.207129

>  <SCORE.INTRA>
0.940441

>  <SCORE.INTRA.DIHEDRAL>
0.00562392

>  <SCORE.INTRA.DIHEDRAL.0>
2.40424

>  <SCORE.INTRA.POLAR>
0

>  <SCORE.INTRA.POLAR.0>
0

>  <SCORE.INTRA.REPUL>
0

>  <SCORE.INTRA.REPUL.0>
0

>  <SCORE.INTRA.SOLV>
0.632209

>  <SCORE.INTRA.SOLV.lig_0>
-134.169

>  <SCORE.INTRA.VDW>
0.621525

>  <SCORE.INTRA.VDW.0>
-2.18386

>  <SCORE.INTRA.norm>
0.0204444

>  <SCORE.RESTR>
0.00256297

>  <SCORE.RESTR.CAVITY>
0.00256297

>  <SCORE.RESTR.norm>
5.57167e-05

>  <SCORE.SYSTEM>
0

>  <SCORE.SYSTEM.CONST>
0

>  <SCORE.SYSTEM.DIHEDRAL>
0

>  <SCORE.SYSTEM.SOLV>
0

>  <SCORE.SYSTEM.norm>
0

>  <SCORE.heavy>
46

>  <SCORE.norm>
-0.186629

>  <RMSD>
5.639

$$$$
ligand
 OpenBabel02271912143D
libRbt.so/2013.1/901 2013/11/27
 46 52  0  0  0  0  0  0  0  0999 V2000
   -4.3992    7.0909   14.7689 P   0  0  1  0  0  0  0  0  0  0  0  0
   -9.6992    5.9584   17.0719 P   0  0  2  0  0  0  0  0  0  0  0  0
   -3.2402    5.8403   15.2531 O   0  5  0  0  0  0  0  0  0  0  0  0
   -3.6661    8.2687   13.6488 O   0  0  0  0  0  0  0  0  0  0  0  0
   -6.8121    7.1187   13.6732 C   0  0  0  0  0  0  0  0  0  0  0  0
   -5.6633    6.3714   14.0736 O   0  0  0  0  0  0  0  0  0  0  0  0
   -7.9807    6.1640   13.5197 C   0  0  1  0  0  0  0  0  0  0  0  0
   -7.6083    5.0899   12.6446 O   0  0  0  0  0  0  0  0  0  0  0  0
   -8.3909    5.5023   14.8252 C   0  0  1  0  0  0  0  0  0  0  0  0
   -9.3937    6.2469   15.5130 O   0  0  0  0  0  0  0  0  0  0  0  0
   -8.8986    4.1428   14.3782 C   0  0  1  0  0  0  0  0  0  0  0  0
  -10.2928    4.2172   14.0695 O   0  0  0  0  0  0  0  0  0  0  0  0
   -8.1357    3.8352   13.1031 C   0  0  2  0  0  0  0  0  0  0  0  0
   -5.1798    6.7253   19.4309 C   0  0  1  0  0  0  0  0  0  0  0  0
   -4.4644    2.0610   16.5040 N   0  0  0  0  0  0  0  0  0  0  0  0
   -5.3888    3.0449   16.6766 C   0  0  1  0  0  0  0  0  0  0  0  0
   -4.5547    6.5920   18.0712 C   0  0  2  0  0  0  0  0  0  0  0  0
   -5.4176    3.6946   17.8631 N   0  0  0  0  0  0  0  0  0  0  0  0
   -3.3878    7.4163   18.0801 O   0  0  0  0  0  0  0  0  0  0  0  0
   -5.6080    7.1060   17.1100 C   0  0  2  0  0  0  0  0  0  0  0  0
   -6.2800    3.4012   15.7042 N   0  0  0  0  0  0  0  0  0  0  0  0
   -5.0299    7.8451   16.0427 O   0  0  0  0  0  0  0  0  0  0  0  0
   -6.2932    2.7791   14.4982 C   0  0  2  0  0  0  0  0  0  0  0  0
   -6.4921    8.0085   17.9480 C   0  0  2  0  0  0  0  0  0  0  0  0
   -6.3022    7.5966   19.3006 O   0  0  0  0  0  0  0  0  0  0  0  0
   -5.3105    1.7081   14.2581 C   0  0  1  0  0  0  0  0  0  0  0  0
   -7.9683    7.8946   17.5841 C   0  0  0  0  0  0  0  0  0  0  0  0
   -8.4066    6.5558   17.8237 O   0  0  0  0  0  0  0  0  0  0  0  0
   -4.3755    1.3685   15.3455 C   0  0  0  0  0  0  0  0  0  0  0  0
   -3.4481    0.3913   15.1807 O   0  0  0  0  0  0  0  0  0  0  0  0
   -5.5176    1.2622   13.0142 N   0  0  0  0  0  0  0  0  0  0  0  0
   -6.5494    1.9859   12.4896 C   0  0  0  0  0  0  0  0  0  0  0  0
   -7.0159    2.8944   13.3719 N   0  0  1  0  0  0  0  0  0  0  0  0
   -3.5224    2.2742   21.6239 N   0  0  0  0  0  0  0  0  0  0  0  0
   -9.8585    4.2113   17.3932 O   0  5  0  0  0  0  0  0  0  0  0  0
   -2.8165    3.3759   21.2483 C   0  0  2  0  0  0  0  0  0  0  0  0
   -1.4725    3.4018   21.4458 N   0  0  0  0  0  0  0  0  0  0  0  0
  -11.1375    6.8042   17.6753 O   0  0  0  0  0  0  0  0  0  0  0  0
   -3.4158    4.4574   20.6795 N   0  0  0  0  0  0  0  0  0  0  0  0
   -4.7515    4.4934   20.4635 C   0  0  2  0  0  0  0  0  0  0  0  0
   -5.5666    3.3326   20.8453 C   0  0  2  0  0  0  0  0  0  0  0  0
   -4.8585    2.1858   21.4531 C   0  0  0  0  0  0  0  0  0  0  0  0
   -5.5265    1.0693   21.8350 O   0  0  0  0  0  0  0  0  0  0  0  0
   -6.8387    3.6290   20.5129 N   0  0  0  0  0  0  0  0  0  0  0  0
   -6.8373    4.8813   19.9664 C   0  0  0  0  0  0  0  0  0  0  0  0
   -5.5856    5.3922   19.9372 N   0  0  1  0  0  0  0  0  0  0  0  0
  1  3  1  1  0  0  0
  1  4  2  0  0  0  0
  1  6  1  0  0  0  0
  1 22  1  0  0  0  0
  2 28  1  0  0  0  0
  2 35  1  1  0  0  0
  2 38  2  0  0  0  0
  2 10  1  0  0  0  0
  5  6  1  0  0  0  0
  7  5  1  1  0  0  0
  7  8  1  0  0  0  0
  7  9  1  0  0  0  0
  9 10  1  6  0  0  0
  9 11  1  0  0  0  0
 11 12  1  6  0  0  0
 11 13  1  0  0  0  0
 13  8  1  1  0  0  0
 13 33  1  0  0  0  0
 14 46  1  0  0  0  0
 14 17  1  0  0  0  0
 14 25  1  6  0  0  0
 15 16  1  0  0  0  0
 15 29  1  0  0  0  0
 16 18  1  6  0  0  0
 16 21  1  0  0  0  0
 17 19  1  1  0  0  0
 17 20  1  0  0  0  0
 20 22  1  6  0  0  0
 20 24  1  0  0  0  0
 23 21  1  6  0  0  0
 23 26  1  0  0  0  0
 23 33  1  0  0  0  0
 24 25  1  1  0  0  0
 24 27  1  0  0  0  0
 26 29  1  1  0  0  0
 26 31  1  0  0  0  0
 27 28  1  0  0  0  0
 29 30  2  0  0  0  0
 31 32  1  0  0  0  0
 33 32  1  1  0  0  0
 34 36  1  0  0  0  0
 34 42  1  0  0  0  0
 36 37  1  1  0  0  0
 36 39  1  0  0  0  0
 40 39  1  6  0  0  0
 40 41  1  0  0  0  0
 40 46  1  0  0  0  0
 41 42  1  6  0  0  0
 41 44  1  0  0  0  0
 42 43  2  0  0  0  0
 44 45  1  0  0  0  0
 46 45  1  1  0  0  0
M  CHG  2   3  -1  35  -1
M  END
>  <CHROM.1>
85.46954005,78.17972045,-6.15905715,4.85371191,16.82362215,2.37231634,0.88168959
-2.00367292

>  <Name>
ligand

>  <RI>
-1

>  <Rbt.Current_Directory>
/home/itssahil/PROJECTS/Mol_Feturizer/Test_systems_manuscript/rnas/3mum

>  <Rbt.Executable>
rbdock ($Id: //depot/dev/client3/rdock/2013.1/src/exe/rbdock.cxx#4 $)

>  <Rbt.Library>
libRbt.so (2013.1, Build901 2013/11/27)

>  <Rbt.Parameter_File>
/export/apps/rDock/src/rDock_2013.1_src/data/scripts/dock_solv.prm

>  <Rbt.Receptor>
prm/pocket_docking_7.prm

>  <SCORE>
-13.3451

>  <SCORE.INTER>
-15.745

>  <SCORE.INTER.CONST>
1

>  <SCORE.INTER.POLAR>
0

>  <SCORE.INTER.ROT>
2

>  <SCORE.INTER.SOLV>
9.59063

>  <SCORE.INTER.VDW>
-18.6269

>  <SCORE.INTER.norm>
-0.342282

>  <SCORE.INTRA>
2.3999

>  <SCORE.INTRA.DIHEDRAL>
0.0213543

>  <SCORE.INTRA.DIHEDRAL.0>
2.40424

>  <SCORE.INTRA.POLAR>
0

>  <SCORE.INTRA.POLAR.0>
0

>  <SCORE.INTRA.REPUL>
0

>  <SCORE.INTRA.REPUL.0>
0

>  <SCORE.INTRA.SOLV>
9.66558

>  <SCORE.INTRA.SOLV.lig_0>
-134.169

>  <SCORE.INTRA.VDW>
-2.44356

>  <SCORE.INTRA.VDW.0>
-2.18386

>  <SCORE.INTRA.norm>
0.0521718

>  <SCORE.RESTR>
0

>  <SCORE.RESTR.CAVITY>
0

>  <SCORE.RESTR.norm>
0

>  <SCORE.SYSTEM>
0

>  <SCORE.SYSTEM.CONST>
0

>  <SCORE.SYSTEM.DIHEDRAL>
0

>  <SCORE.SYSTEM.SOLV>
0

>  <SCORE.SYSTEM.norm>
0

>  <SCORE.heavy>
46

>  <SCORE.norm>
-0.29011

>  <RMSD>
5.726

$$$$
ligand
 OpenBabel02271912143D
libRbt.so/2013.1/901 2013/11/27
 46 52  0  0  0  0  0  0  0  0999 V2000
   -6.8228    3.9570   13.5335 P   0  0  1  0  0  0  0  0  0  0  0  0
   -5.3827    6.5996   18.5950 P   0  0  2  0  0  0  0  0  0  0  0  0
   -7.4481    2.3286   13.8481 O   0  5  0  0  0  0  0  0  0  0  0  0
   -6.9031    4.3689   11.8005 O   0  0  0  0  0  0  0  0  0  0  0  0
   -7.3450    6.3954   14.4308 C   0  0  0  0  0  0  0  0  0  0  0  0
   -7.6857    5.0093   14.3979 O   0  0  0  0  0  0  0  0  0  0  0  0
   -7.9871    7.0224   15.6536 C   0  0  1  0  0  0  0  0  0  0  0  0
   -9.3921    6.7328   15.6567 O   0  0  0  0  0  0  0  0  0  0  0  0
   -7.4535    6.4663   16.9637 C   0  0  1  0  0  0  0  0  0  0  0  0
   -6.3435    7.2156   17.4530 O   0  0  0  0  0  0  0  0  0  0  0  0
   -8.6530    6.5561   17.8905 C   0  0  1  0  0  0  0  0  0  0  0  0
   -8.6805    7.8323   18.5347 O   0  0  0  0  0  0  0  0  0  0  0  0
   -9.8638    6.4455   16.9825 C   0  0  2  0  0  0  0  0  0  0  0  0
   -3.6233    2.2018   16.5599 C   0  0  1  0  0  0  0  0  0  0  0  0
  -10.3423    1.8471   19.5937 N   0  0  0  0  0  0  0  0  0  0  0  0
   -9.6586    2.9686   19.9505 C   0  0  1  0  0  0  0  0  0  0  0  0
   -4.7617    2.3076   15.5852 C   0  0  2  0  0  0  0  0  0  0  0  0
   -8.9886    2.9624   21.1259 N   0  0  0  0  0  0  0  0  0  0  0  0
   -4.3130    1.7008   14.3721 O   0  0  0  0  0  0  0  0  0  0  0  0
   -4.9955    3.7967   15.4248 C   0  0  2  0  0  0  0  0  0  0  0  0
   -9.6206    4.0907   19.1719 N   0  0  0  0  0  0  0  0  0  0  0  0
   -5.3215    4.1363   14.0840 O   0  0  0  0  0  0  0  0  0  0  0  0
  -10.2774    4.1479   17.9857 C   0  0  2  0  0  0  0  0  0  0  0  0
   -3.6814    4.4415   15.8194 C   0  0  2  0  0  0  0  0  0  0  0  0
   -3.0054    3.4858   16.6348 O   0  0  0  0  0  0  0  0  0  0  0  0
  -11.0308    2.9590   17.5506 C   0  0  1  0  0  0  0  0  0  0  0  0
   -3.8688    5.7362   16.6025 C   0  0  0  0  0  0  0  0  0  0  0  0
   -4.5654    5.4508   17.8172 O   0  0  0  0  0  0  0  0  0  0  0  0
  -11.0347    1.7791   18.4337 C   0  0  0  0  0  0  0  0  0  0  0  0
  -11.7107    0.6554   18.0840 O   0  0  0  0  0  0  0  0  0  0  0  0
  -11.5765    3.2566   16.3663 N   0  0  0  0  0  0  0  0  0  0  0  0
  -11.2061    4.5337   16.0575 C   0  0  0  0  0  0  0  0  0  0  0  0
  -10.4289    5.0706   17.0214 N   0  0  1  0  0  0  0  0  0  0  0  0
   -3.4169    3.0299   21.7213 N   0  0  0  0  0  0  0  0  0  0  0  0
   -6.3281    5.8976   19.9344 O   0  5  0  0  0  0  0  0  0  0  0  0
   -2.7563    3.6590   20.7110 C   0  0  2  0  0  0  0  0  0  0  0  0
   -1.8992    4.6707   21.0074 N   0  0  0  0  0  0  0  0  0  0  0  0
   -4.2193    7.7720   19.2432 O   0  0  0  0  0  0  0  0  0  0  0  0
   -2.9275    3.3066   19.4076 N   0  0  0  0  0  0  0  0  0  0  0  0
   -3.7722    2.3116   19.0492 C   0  0  2  0  0  0  0  0  0  0  0  0
   -4.5116    1.5932   20.0956 C   0  0  2  0  0  0  0  0  0  0  0  0
   -4.2796    2.0171   21.4929 C   0  0  0  0  0  0  0  0  0  0  0  0
   -4.9150    1.4111   22.5262 O   0  0  0  0  0  0  0  0  0  0  0  0
   -5.2580    0.6618   19.4696 N   0  0  0  0  0  0  0  0  0  0  0  0
   -5.0181    0.7786   18.1295 C   0  0  0  0  0  0  0  0  0  0  0  0
   -4.1266    1.7655   17.8844 N   0  0  1  0  0  0  0  0  0  0  0  0
  1  3  1  1  0  0  0
  1  4  2  0  0  0  0
  1  6  1  0  0  0  0
  1 22  1  0  0  0  0
  2 28  1  0  0  0  0
  2 35  1  1  0  0  0
  2 38  2  0  0  0  0
  2 10  1  0  0  0  0
  5  6  1  0  0  0  0
  7  5  1  6  0  0  0
  7  8  1  0  0  0  0
  7  9  1  0  0  0  0
  9 10  1  1  0  0  0
  9 11  1  0  0  0  0
 11 12  1  6  0  0  0
 11 13  1  0  0  0  0
 13  8  1  6  0  0  0
 13 33  1  0  0  0  0
 14 46  1  0  0  0  0
 14 17  1  0  0  0  0
 14 25  1  1  0  0  0
 15 16  1  0  0  0  0
 15 29  1  0  0  0  0
 16 18  1  6  0  0  0
 16 21  1  0  0  0  0
 17 19  1  6  0  0  0
 17 20  1  0  0  0  0
 20 22  1  6  0  0  0
 20 24  1  0  0  0  0
 23 21  1  6  0  0  0
 23 26  1  0  0  0  0
 23 33  1  0  0  0  0
 24 25  1  1  0  0  0
 24 27  1  0  0  0  0
 26 29  1  1  0  0  0
 26 31  1  0  0  0  0
 27 28  1  0  0  0  0
 29 30  2  0  0  0  0
 31 32  1  0  0  0  0
 33 32  1  1  0  0  0
 34 36  1  0  0  0  0
 34 42  1  0  0  0  0
 36 37  1  6  0  0  0
 36 39  1  0  0  0  0
 40 39  1  1  0  0  0
 40 41  1  0  0  0  0
 40 46  1  0  0  0  0
 41 42  1  1  0  0  0
 41 44  1  0  0  0  0
 42 43  2  0  0  0  0
 44 45  1  0  0  0  0
 46 45  1  6  0  0  0
M  CHG  2   3  -1  35  -1
M  END
>  <CHROM.1>
138.52778716,-134.71733231,-6.62932879,4.10225152,17.48437054,-2.55929707
0.00045206,1.92045469

>  <Name>
ligand

>  <RI>
-1

>  <Rbt.Current_Directory>
/home/itssahil/PROJECTS/Mol_Feturizer/Test_systems_manuscript/rnas/3mum

>  <Rbt.Executable>
rbdock ($Id: //depot/dev/client3/rdock/2013.1/src/exe/rbdock.cxx#4 $)

>  <Rbt.Library>
libRbt.so (2013.1, Build901 2013/11/27)

>  <Rbt.Parameter_File>
/export/apps/rDock/src/rDock_2013.1_src/data/scripts/dock_solv.prm

>  <Rbt.Receptor>
prm/pocket_docking_4.prm

>  <SCORE>
-8.38051

>  <SCORE.INTER>
-9.32604

>  <SCORE.INTER.CONST>
1

>  <SCORE.INTER.POLAR>
0

>  <SCORE.INTER.ROT>
2

>  <SCORE.INTER.SOLV>
22.9437

>  <SCORE.INTER.VDW>
-18.7986

>  <SCORE.INTER.norm>
-0.20274

>  <SCORE.INTRA>
0.114979

>  <SCORE.INTRA.DIHEDRAL>
0.0124393

>  <SCORE.INTRA.DIHEDRAL.0>
2.40424

>  <SCORE.INTRA.POLAR>
0

>  <SCORE.INTRA.POLAR.0>
0

>  <SCORE.INTRA.REPUL>
0

>  <SCORE.INTRA.REPUL.0>
0

>  <SCORE.INTRA.SOLV>
1.13809

>  <SCORE.INTRA.SOLV.lig_0>
-134.169

>  <SCORE.INTRA.VDW>
-0.460286

>  <SCORE.INTRA.VDW.0>
-2.18386

>  <SCORE.INTRA.norm>
0.00249955

>  <SCORE.RESTR>
0.830544

>  <SCORE.RESTR.CAVITY>
0.830544

>  <SCORE.RESTR.norm>
0.0180553

>  <SCORE.SYSTEM>
0

>  <SCORE.SYSTEM.CONST>
0

>  <SCORE.SYSTEM.DIHEDRAL>
0

>  <SCORE.SYSTEM.SOLV>
0

>  <SCORE.SYSTEM.norm>
0

>  <SCORE.heavy>
46

>  <SCORE.norm>
-0.182185

>  <RMSD>
5.790

$$$$
ligand
 OpenBabel02271912143D
libRbt.so/2013.1/901 2013/11/27
 46 52  0  0  0  0  0  0  0  0999 V2000
   -6.8954    4.5258   13.4506 P   0  0  1  0  0  0  0  0  0  0  0  0
   -5.6769    6.8236   18.7337 P   0  0  2  0  0  0  0  0  0  0  0  0
   -7.5023    2.8698   13.6272 O   0  5  0  0  0  0  0  0  0  0  0  0
   -6.9236    5.0585   11.7492 O   0  0  0  0  0  0  0  0  0  0  0  0
   -7.4913    6.8860   14.4984 C   0  0  0  0  0  0  0  0  0  0  0  0
   -7.8061    5.5007   14.3559 O   0  0  0  0  0  0  0  0  0  0  0  0
   -8.1860    7.4147   15.7388 C   0  0  1  0  0  0  0  0  0  0  0  0
   -9.5849    7.1042   15.6718 O   0  0  0  0  0  0  0  0  0  0  0  0
   -7.6878    6.7750   17.0246 C   0  0  1  0  0  0  0  0  0  0  0  0
   -6.6087    7.5045   17.6046 O   0  0  0  0  0  0  0  0  0  0  0  0
   -8.9199    6.7805   17.9123 C   0  0  1  0  0  0  0  0  0  0  0  0
   -8.9920    8.0071   18.6435 O   0  0  0  0  0  0  0  0  0  0  0  0
  -10.0966    6.7162   16.9564 C   0  0  2  0  0  0  0  0  0  0  0  0
   -3.7711    2.6089   16.4573 C   0  0  1  0  0  0  0  0  0  0  0  0
  -10.7296    1.9904   19.2927 N   0  0  0  0  0  0  0  0  0  0  0  0
  -10.1016    3.1023   19.7635 C   0  0  1  0  0  0  0  0  0  0  0  0
   -4.8771    2.7663   15.4527 C   0  0  2  0  0  0  0  0  0  0  0  0
   -9.5418    3.0481   20.9940 N   0  0  0  0  0  0  0  0  0  0  0  0
   -4.3763    2.2542   14.2166 O   0  0  0  0  0  0  0  0  0  0  0  0
   -5.1316    4.2593   15.3895 C   0  0  2  0  0  0  0  0  0  0  0  0
  -10.0126    4.2613   19.0454 N   0  0  0  0  0  0  0  0  0  0  0  0
   -5.4174    4.6883   14.0653 O   0  0  0  0  0  0  0  0  0  0  0  0
  -10.5591    4.3672   17.8078 C   0  0  2  0  0  0  0  0  0  0  0  0
   -3.8434    4.8944   15.8750 C   0  0  2  0  0  0  0  0  0  0  0  0
   -3.1789    3.8936   16.6444 O   0  0  0  0  0  0  0  0  0  0  0  0
  -11.2482    3.1909   17.2496 C   0  0  1  0  0  0  0  0  0  0  0  0
   -4.0805    6.1271   16.7402 C   0  0  0  0  0  0  0  0  0  0  0  0
   -4.8132    5.7456   17.9063 O   0  0  0  0  0  0  0  0  0  0  0  0
  -11.3118    1.9695   18.0720 C   0  0  0  0  0  0  0  0  0  0  0  0
  -11.9328    0.8551   17.6089 O   0  0  0  0  0  0  0  0  0  0  0  0
  -11.6887    3.5382   16.0353 N   0  0  0  0  0  0  0  0  0  0  0  0
  -11.3144    4.8337   15.8225 C   0  0  0  0  0  0  0  0  0  0  0  0
  -10.6382    5.3336   16.8782 N   0  0  1  0  0  0  0  0  0  0  0  0
   -3.6443    2.9730   21.6746 N   0  0  0  0  0  0  0  0  0  0  0  0
   -6.6552    6.0139   19.9859 O   0  5  0  0  0  0  0  0  0  0  0  0
   -2.9476    3.6698   20.7355 C   0  0  2  0  0  0  0  0  0  0  0  0
   -2.0700    4.6269   21.1352 N   0  0  0  0  0  0  0  0  0  0  0  0
   -4.5574    7.9646   19.5038 O   0  0  0  0  0  0  0  0  0  0  0  0
   -3.1023    3.4385   19.4032 N   0  0  0  0  0  0  0  0  0  0  0  0
   -3.9660    2.5031   18.9436 C   0  0  2  0  0  0  0  0  0  0  0  0
   -4.7446    1.7164   19.9093 C   0  0  2  0  0  0  0  0  0  0  0  0
   -4.5290    2.0089   21.3425 C   0  0  0  0  0  0  0  0  0  0  0  0
   -5.2004    1.3324   22.3069 O   0  0  0  0  0  0  0  0  0  0  0  0
   -5.5029    0.8652   19.1905 N   0  0  0  0  0  0  0  0  0  0  0  0
   -5.2337    1.0927   17.8704 C   0  0  0  0  0  0  0  0  0  0  0  0
   -4.3117    2.0719   17.7291 N   0  0  1  0  0  0  0  0  0  0  0  0
  1  3  1  1  0  0  0
  1  4  2  0  0  0  0
  1  6  1  0  0  0  0
  1 22  1  0  0  0  0
  2 28  1  0  0  0  0
  2 35  1  1  0  0  0
  2 38  2  0  0  0  0
  2 10  1  0  0  0  0
  5  6  1  0  0  0  0
  7  5  1  6  0  0  0
  7  8  1  0  0  0  0
  7  9  1  0  0  0  0
  9 10  1  1  0  0  0
  9 11  1  0  0  0  0
 11 12  1  6  0  0  0
 11 13  1  0  0  0  0
 13  8  1  6  0  0  0
 13 33  1  0  0  0  0
 14 46  1  0  0  0  0
 14 17  1  0  0  0  0
 14 25  1  1  0  0  0
 15 16  1  0  0  0  0
 15 29  1  0  0  0  0
 16 18  1  6  0  0  0
 16 21  1  0  0  0  0
 17 19  1  6  0  0  0
 17 20  1  0  0  0  0
 20 22  1  6  0  0  0
 20 24  1  0  0  0  0
 23 21  1  6  0  0  0
 23 26  1  0  0  0  0
 23 33  1  0  0  0  0
 24 25  1  1  0  0  0
 24 27  1  0  0  0  0
 26 29  1  1  0  0  0
 26 31  1  0  0  0  0
 27 28  1  0  0  0  0
 29 30  2  0  0  0  0
 31 32  1  0  0  0  0
 33 32  1  1  0  0  0
 34 36  1  0  0  0  0
 34 42  1  0  0  0  0
 36 37  1  6  0  0  0
 36 39  1  0  0  0  0
 40 39  1  1  0  0  0
 40 41  1  0  0  0  0
 40 46  1  0  0  0  0
 41 42  1  1  0  0  0
 41 44  1  0  0  0  0
 42 43  2  0  0  0  0
 44 45  1  0  0  0  0
 46 45  1  6  0  0  0
M  CHG  2   3  -1  35  -1
M  END
>  <CHROM.1>
142.04875164,-137.58369559,-6.84381507,4.38781103,17.41498175,-2.55619579
0.01443375,1.98833258

>  <Name>
ligand

>  <RI>
-1

>  <Rbt.Current_Directory>
/home/itssahil/PROJECTS/Mol_Feturizer/Test_systems_manuscript/rnas/3mum

>  <Rbt.Executable>
rbdock ($Id: //depot/dev/client3/rdock/2013.1/src/exe/rbdock.cxx#4 $)

>  <Rbt.Library>
libRbt.so (2013.1, Build901 2013/11/27)

>  <Rbt.Parameter_File>
/export/apps/rDock/src/rDock_2013.1_src/data/scripts/dock_solv.prm

>  <Rbt.Receptor>
prm/pocket_docking_7.prm

>  <SCORE>
-10.0243

>  <SCORE.INTER>
-9.99486

>  <SCORE.INTER.CONST>
1

>  <SCORE.INTER.POLAR>
0

>  <SCORE.INTER.ROT>
2

>  <SCORE.INTER.SOLV>
22.6873

>  <SCORE.INTER.VDW>
-19.159

>  <SCORE.INTER.norm>
-0.217279

>  <SCORE.INTRA>
-0.0294195

>  <SCORE.INTRA.DIHEDRAL>
0.0147837

>  <SCORE.INTRA.DIHEDRAL.0>
2.40424

>  <SCORE.INTRA.POLAR>
0

>  <SCORE.INTRA.POLAR.0>
0

>  <SCORE.INTRA.REPUL>
0

>  <SCORE.INTRA.REPUL.0>
0

>  <SCORE.INTRA.SOLV>
0.511607

>  <SCORE.INTRA.SOLV.lig_0>
-134.169

>  <SCORE.INTRA.VDW>
-0.292615

>  <SCORE.INTRA.VDW.0>
-2.18386

>  <SCORE.INTRA.norm>
-0.000639555

>  <SCORE.RESTR>
0

>  <SCORE.RESTR.CAVITY>
0

>  <SCORE.RESTR.norm>
0

>  <SCORE.SYSTEM>
0

>  <SCORE.SYSTEM.CONST>
0

>  <SCORE.SYSTEM.DIHEDRAL>
0

>  <SCORE.SYSTEM.SOLV>
0

>  <SCORE.SYSTEM.norm>
0

>  <SCORE.heavy>
46

>  <SCORE.norm>
-0.217919

>  <RMSD>
5.799

$$$$
ligand
 OpenBabel02271912143D
libRbt.so/2013.1/901 2013/11/27
 46 52  0  0  0  0  0  0  0  0999 V2000
   -8.0088    5.1435   17.8428 P   0  0  1  0  0  0  0  0  0  0  0  0
   -9.0854    9.9528   14.6197 P   0  0  2  0  0  0  0  0  0  0  0  0
   -8.6623    3.7064   17.0370 O   0  5  0  0  0  0  0  0  0  0  0  0
   -7.1286    4.7183   19.3340 O   0  0  0  0  0  0  0  0  0  0  0  0
   -6.4328    7.1569   17.1454 C   0  0  0  0  0  0  0  0  0  0  0  0
   -7.0278    5.9024   16.8127 O   0  0  0  0  0  0  0  0  0  0  0  0
   -5.9890    7.8367   15.8642 C   0  0  1  0  0  0  0  0  0  0  0  0
   -5.1590    6.9413   15.1110 O   0  0  0  0  0  0  0  0  0  0  0  0
   -7.1441    8.1937   14.9429 C   0  0  1  0  0  0  0  0  0  0  0  0
   -7.6421    9.5068   15.1897 O   0  0  0  0  0  0  0  0  0  0  0  0
   -6.5325    8.0686   13.5586 C   0  0  1  0  0  0  0  0  0  0  0  0
   -5.9416    9.3111   13.1694 O   0  0  0  0  0  0  0  0  0  0  0  0
   -5.4326    7.0334   13.7041 C   0  0  2  0  0  0  0  0  0  0  0  0
  -12.3778    6.5422   16.6459 C   0  0  1  0  0  0  0  0  0  0  0  0
   -5.5243    1.7631   14.3431 N   0  0  0  0  0  0  0  0  0  0  0  0
   -4.9333    2.7110   15.1208 C   0  0  1  0  0  0  0  0  0  0  0  0
  -11.1751    5.6827   16.9143 C   0  0  2  0  0  0  0  0  0  0  0  0
   -4.2608    2.3059   16.2227 N   0  0  0  0  0  0  0  0  0  0  0  0
  -11.4707    4.9302   18.0922 O   0  0  0  0  0  0  0  0  0  0  0  0
  -10.0408    6.6638   17.1349 C   0  0  2  0  0  0  0  0  0  0  0  0
   -4.9899    4.0452   14.8320 N   0  0  0  0  0  0  0  0  0  0  0  0
   -9.1576    6.2251   18.1580 O   0  0  0  0  0  0  0  0  0  0  0  0
   -5.6534    4.5023   13.7401 C   0  0  2  0  0  0  0  0  0  0  0  0
  -10.7184    7.9545   17.5515 C   0  0  2  0  0  0  0  0  0  0  0  0
  -12.0582    7.8669   17.0693 O   0  0  0  0  0  0  0  0  0  0  0  0
   -6.3087    3.5171   12.8623 C   0  0  1  0  0  0  0  0  0  0  0  0
  -10.0470    9.1915   16.9655 C   0  0  0  0  0  0  0  0  0  0  0  0
  -10.1213    9.1323   15.5397 O   0  0  0  0  0  0  0  0  0  0  0  0
   -6.2130    2.0923   13.2265 C   0  0  0  0  0  0  0  0  0  0  0  0
   -6.7961    1.1402   12.4547 O   0  0  0  0  0  0  0  0  0  0  0  0
   -6.8812    4.2033   11.8671 N   0  0  0  0  0  0  0  0  0  0  0  0
   -6.6175    5.5255   12.0808 C   0  0  0  0  0  0  0  0  0  0  0  0
   -5.8832    5.7097   13.1982 N   0  0  1  0  0  0  0  0  0  0  0  0
  -15.0158    3.9828   12.9232 N   0  0  0  0  0  0  0  0  0  0  0  0
   -9.2776    9.5015   12.9050 O   0  5  0  0  0  0  0  0  0  0  0  0
  -14.8994    3.7108   14.2519 C   0  0  2  0  0  0  0  0  0  0  0  0
  -15.5418    2.6300   14.7666 N   0  0  0  0  0  0  0  0  0  0  0  0
   -9.4144   11.6852   14.8156 O   0  0  0  0  0  0  0  0  0  0  0  0
  -14.1578    4.4902   15.0856 N   0  0  0  0  0  0  0  0  0  0  0  0
  -13.5006    5.5836   14.6332 C   0  0  2  0  0  0  0  0  0  0  0  0
  -13.5858    5.9269   13.2075 C   0  0  2  0  0  0  0  0  0  0  0  0
  -14.4012    5.0397   12.3509 C   0  0  0  0  0  0  0  0  0  0  0  0
  -14.5365    5.2750   11.0224 O   0  0  0  0  0  0  0  0  0  0  0  0
  -12.8401    7.0359   13.0331 N   0  0  0  0  0  0  0  0  0  0  0  0
  -12.3231    7.3768   14.2511 C   0  0  0  0  0  0  0  0  0  0  0  0
  -12.7196    6.5028   15.2038 N   0  0  1  0  0  0  0  0  0  0  0  0
  1  3  1  6  0  0  0
  1  4  2  0  0  0  0
  1  6  1  0  0  0  0
  1 22  1  0  0  0  0
  2 28  1  0  0  0  0
  2 35  1  6  0  0  0
  2 38  2  0  0  0  0
  2 10  1  0  0  0  0
  5  6  1  0  0  0  0
  7  5  1  1  0  0  0
  7  8  1  0  0  0  0
  7  9  1  0  0  0  0
  9 10  1  1  0  0  0
  9 11  1  0  0  0  0
 11 12  1  1  0  0  0
 11 13  1  0  0  0  0
 13  8  1  1  0  0  0
 13 33  1  0  0  0  0
 14 46  1  0  0  0  0
 14 17  1  0  0  0  0
 14 25  1  6  0  0  0
 15 16  1  0  0  0  0
 15 29  1  0  0  0  0
 16 18  1  6  0  0  0
 16 21  1  0  0  0  0
 17 19  1  1  0  0  0
 17 20  1  0  0  0  0
 20 22  1  1  0  0  0
 20 24  1  0  0  0  0
 23 21  1  6  0  0  0
 23 26  1  0  0  0  0
 23 33  1  0  0  0  0
 24 25  1  6  0  0  0
 24 27  1  0  0  0  0
 26 29  1  1  0  0  0
 26 31  1  0  0  0  0
 27 28  1  0  0  0  0
 29 30  2  0  0  0  0
 31 32  1  0  0  0  0
 33 32  1  1  0  0  0
 34 36  1  0  0  0  0
 34 42  1  0  0  0  0
 36 37  1  1  0  0  0
 36 39  1  0  0  0  0
 40 39  1  6  0  0  0
 40 41  1  0  0  0  0
 40 46  1  0  0  0  0
 41 42  1  6  0  0  0
 41 44  1  0  0  0  0
 42 43  2  0  0  0  0
 44 45  1  0  0  0  0
 46 45  1  1  0  0  0
M  CHG  2   3  -1  35  -1
M  END
>  <CHROM.1>
-22.48352262,86.69483986,-9.15035242,6.09608543,15.04818559,0.06828906,0.07307468
-2.94274782

>  <Name>
ligand

>  <RI>
-1

>  <Rbt.Current_Directory>
/home/itssahil/PROJECTS/Mol_Feturizer/Test_systems_manuscript/rnas/3mum

>  <Rbt.Executable>
rbdock ($Id: //depot/dev/client3/rdock/2013.1/src/exe/rbdock.cxx#4 $)

>  <Rbt.Library>
libRbt.so (2013.1, Build901 2013/11/27)

>  <Rbt.Parameter_File>
/export/apps/rDock/src/rDock_2013.1_src/data/scripts/dock_solv.prm

>  <Rbt.Receptor>
prm/pocket_docking_7.prm

>  <SCORE>
-18.2927

>  <SCORE.INTER>
-17.7969

>  <SCORE.INTER.CONST>
1

>  <SCORE.INTER.POLAR>
0

>  <SCORE.INTER.ROT>
2

>  <SCORE.INTER.SOLV>
18.163

>  <SCORE.INTER.VDW>
-22.8523

>  <SCORE.INTER.norm>
-0.38689

>  <SCORE.INTRA>
-0.495709

>  <SCORE.INTRA.DIHEDRAL>
0.0261459

>  <SCORE.INTRA.DIHEDRAL.0>
2.40424

>  <SCORE.INTRA.POLAR>
0

>  <SCORE.INTRA.POLAR.0>
0

>  <SCORE.INTRA.REPUL>
0

>  <SCORE.INTRA.REPUL.0>
0

>  <SCORE.INTRA.SOLV>
0.0754285

>  <SCORE.INTRA.SOLV.lig_0>
-134.169

>  <SCORE.INTRA.VDW>
-0.546496

>  <SCORE.INTRA.VDW.0>
-2.18386

>  <SCORE.INTRA.norm>
-0.0107763

>  <SCORE.RESTR>
0

>  <SCORE.RESTR.CAVITY>
0

>  <SCORE.RESTR.norm>
0

>  <SCORE.SYSTEM>
0

>  <SCORE.SYSTEM.CONST>
0

>  <SCORE.SYSTEM.DIHEDRAL>
0

>  <SCORE.SYSTEM.SOLV>
0

>  <SCORE.SYSTEM.norm>
0

>  <SCORE.heavy>
46

>  <SCORE.norm>
-0.397666

>  <RMSD>
5.999

$$$$
ligand
 OpenBabel02271912143D
libRbt.so/2013.1/901 2013/11/27
 46 52  0  0  0  0  0  0  0  0999 V2000
   -9.3249   10.0235   14.7017 P   0  0  1  0  0  0  0  0  0  0  0  0
   -8.0785    5.1101   17.6985 P   0  0  2  0  0  0  0  0  0  0  0  0
   -9.6453    9.6400   13.0011 O   0  5  0  0  0  0  0  0  0  0  0  0
   -9.5700   11.7565   15.0425 O   0  0  0  0  0  0  0  0  0  0  0  0
  -10.2046    9.1452   17.0423 C   0  0  0  0  0  0  0  0  0  0  0  0
  -10.3054    9.1302   15.6182 O   0  0  0  0  0  0  0  0  0  0  0  0
  -10.8755    7.8990   17.5878 C   0  0  1  0  0  0  0  0  0  0  0  0
  -12.2083    7.8065   17.0652 O   0  0  0  0  0  0  0  0  0  0  0  0
  -10.1833    6.6123   17.1689 C   0  0  1  0  0  0  0  0  0  0  0  0
   -9.1919    6.2048   18.1092 O   0  0  0  0  0  0  0  0  0  0  0  0
  -11.3275    5.6176   17.0822 C   0  0  1  0  0  0  0  0  0  0  0  0
  -11.5363    4.9983   18.3539 O   0  0  0  0  0  0  0  0  0  0  0  0
  -12.5500    6.4495   16.7418 C   0  0  2  0  0  0  0  0  0  0  0  0
   -5.7108    7.1587   13.6028 C   0  0  1  0  0  0  0  0  0  0  0  0
  -15.0315    3.8262   12.8491 N   0  0  0  0  0  0  0  0  0  0  0  0
  -14.9912    3.5476   14.1807 C   0  0  1  0  0  0  0  0  0  0  0  0
   -6.9027    8.0658   13.4858 C   0  0  2  0  0  0  0  0  0  0  0  0
  -15.6598    2.4593   14.6269 N   0  0  0  0  0  0  0  0  0  0  0  0
   -6.4249    9.2912   12.9279 O   0  0  0  0  0  0  0  0  0  0  0  0
   -7.3953    8.2415   14.9085 C   0  0  2  0  0  0  0  0  0  0  0  0
  -14.3043    4.3169   15.0768 N   0  0  0  0  0  0  0  0  0  0  0  0
   -7.8481    9.5670   15.1483 O   0  0  0  0  0  0  0  0  0  0  0  0
  -13.6198    5.4194   14.6799 C   0  0  2  0  0  0  0  0  0  0  0  0
   -6.1905    7.9386   15.7775 C   0  0  2  0  0  0  0  0  0  0  0  0
   -5.3175    7.1461   14.9744 O   0  0  0  0  0  0  0  0  0  0  0  0
  -13.6282    5.7644   13.2477 C   0  0  1  0  0  0  0  0  0  0  0  0
   -6.5522    7.1716   17.0445 C   0  0  0  0  0  0  0  0  0  0  0  0
   -7.1217    5.9122   16.6817 O   0  0  0  0  0  0  0  0  0  0  0  0
  -14.3875    4.8964   12.3300 C   0  0  0  0  0  0  0  0  0  0  0  0
  -14.4299    5.1647   11.0002 O   0  0  0  0  0  0  0  0  0  0  0  0
  -12.8890    6.8705   13.1099 N   0  0  0  0  0  0  0  0  0  0  0  0
  -12.4366    7.2143   14.3511 C   0  0  0  0  0  0  0  0  0  0  0  0
  -12.8695    6.3498   15.2929 N   0  0  1  0  0  0  0  0  0  0  0  0
   -5.1982    2.0306   14.5018 N   0  0  0  0  0  0  0  0  0  0  0  0
   -8.8150    3.7031   16.8869 O   0  5  0  0  0  0  0  0  0  0  0  0
   -4.6919    3.0905   15.1896 C   0  0  2  0  0  0  0  0  0  0  0  0
   -3.9321    2.8636   16.2929 N   0  0  0  0  0  0  0  0  0  0  0  0
   -7.0979    4.5556   19.0693 O   0  0  0  0  0  0  0  0  0  0  0  0
   -4.9233    4.3759   14.8071 N   0  0  0  0  0  0  0  0  0  0  0  0
   -5.6776    4.6655   13.7211 C   0  0  2  0  0  0  0  0  0  0  0  0
   -6.2494    3.5634   12.9362 C   0  0  2  0  0  0  0  0  0  0  0  0
   -5.9583    2.1891   13.3975 C   0  0  0  0  0  0  0  0  0  0  0  0
   -6.4405    1.1084   12.7357 O   0  0  0  0  0  0  0  0  0  0  0  0
   -6.9339    4.1276   11.9216 N   0  0  0  0  0  0  0  0  0  0  0  0
   -6.8131    5.4825   12.0503 C   0  0  0  0  0  0  0  0  0  0  0  0
   -6.0583    5.7981   13.1271 N   0  0  1  0  0  0  0  0  0  0  0  0
  1  3  1  6  0  0  0
  1  4  2  0  0  0  0
  1  6  1  0  0  0  0
  1 22  1  0  0  0  0
  2 28  1  0  0  0  0
  2 35  1  6  0  0  0
  2 38  2  0  0  0  0
  2 10  1  0  0  0  0
  5  6  1  0  0  0  0
  7  5  1  6  0  0  0
  7  8  1  0  0  0  0
  7  9  1  0  0  0  0
  9 10  1  1  0  0  0
  9 11  1  0  0  0  0
 11 12  1  1  0  0  0
 11 13  1  0  0  0  0
 13  8  1  6  0  0  0
 13 33  1  0  0  0  0
 14 46  1  0  0  0  0
 14 17  1  0  0  0  0
 14 25  1  1  0  0  0
 15 16  1  0  0  0  0
 15 29  1  0  0  0  0
 16 18  1  6  0  0  0
 16 21  1  0  0  0  0
 17 19  1  1  0  0  0
 17 20  1  0  0  0  0
 20 22  1  6  0  0  0
 20 24  1  0  0  0  0
 23 21  1  6  0  0  0
 23 26  1  0  0  0  0
 23 33  1  0  0  0  0
 24 25  1  6  0  0  0
 24 27  1  0  0  0  0
 26 29  1  1  0  0  0
 26 31  1  0  0  0  0
 27 28  1  0  0  0  0
 29 30  2  0  0  0  0
 31 32  1  0  0  0  0
 33 32  1  1  0  0  0
 34 36  1  0  0  0  0
 34 42  1  0  0  0  0
 36 37  1  1  0  0  0
 36 39  1  0  0  0  0
 40 39  1  6  0  0  0
 40 41  1  0  0  0  0
 40 46  1  0  0  0  0
 41 42  1  6  0  0  0
 41 44  1  0  0  0  0
 42 43  2  0  0  0  0
 44 45  1  0  0  0  0
 46 45  1  1  0  0  0
M  CHG  2   3  -1  35  -1
M  END
>  <CHROM.1>
-156.85459742,-138.47561015,-9.24009465,6.10512740,15.05236975,-3.07994048
0.05955339,-2.94524909

>  <Name>
ligand

>  <RI>
-1

>  <Rbt.Current_Directory>
/home/itssahil/PROJECTS/Mol_Feturizer/Test_systems_manuscript/rnas/3mum

>  <Rbt.Executable>
rbdock ($Id: //depot/dev/client3/rdock/2013.1/src/exe/rbdock.cxx#4 $)

>  <Rbt.Library>
libRbt.so (2013.1, Build901 2013/11/27)

>  <Rbt.Parameter_File>
/export/apps/rDock/src/rDock_2013.1_src/data/scripts/dock_solv.prm

>  <Rbt.Receptor>
prm/pocket_docking_7.prm

>  <SCORE>
-18.5559

>  <SCORE.INTER>
-17.9768

>  <SCORE.INTER.CONST>
1

>  <SCORE.INTER.POLAR>
0

>  <SCORE.INTER.ROT>
2

>  <SCORE.INTER.SOLV>
18.6432

>  <SCORE.INTER.VDW>
-23.1323

>  <SCORE.INTER.norm>
-0.3908

>  <SCORE.INTRA>
-0.579136

>  <SCORE.INTRA.DIHEDRAL>
0.0221967

>  <SCORE.INTRA.DIHEDRAL.0>
2.40424

>  <SCORE.INTRA.POLAR>
0

>  <SCORE.INTRA.POLAR.0>
0

>  <SCORE.INTRA.REPUL>
0

>  <SCORE.INTRA.REPUL.0>
0

>  <SCORE.INTRA.SOLV>
0.0687827

>  <SCORE.INTRA.SOLV.lig_0>
-134.169

>  <SCORE.INTRA.VDW>
-0.624625

>  <SCORE.INTRA.VDW.0>
-2.18386

>  <SCORE.INTRA.norm>
-0.0125899

>  <SCORE.RESTR>
0

>  <SCORE.RESTR.CAVITY>
0

>  <SCORE.RESTR.norm>
0

>  <SCORE.SYSTEM>
0

>  <SCORE.SYSTEM.CONST>
0

>  <SCORE.SYSTEM.DIHEDRAL>
0

>  <SCORE.SYSTEM.SOLV>
0

>  <SCORE.SYSTEM.norm>
0

>  <SCORE.heavy>
46

>  <SCORE.norm>
-0.40339

>  <RMSD>
6.013

$$$$
ligand
 OpenBabel02271912143D
libRbt.so/2013.1/901 2013/11/27
 46 52  0  0  0  0  0  0  0  0999 V2000
   -7.8272    6.5608   17.6526 P   0  0  1  0  0  0  0  0  0  0  0  0
   -3.3606    6.1312   13.8394 P   0  0  2  0  0  0  0  0  0  0  0  0
   -8.3775    4.9470   18.1368 O   0  5  0  0  0  0  0  0  0  0  0  0
   -8.7033    7.8442   18.5271 O   0  0  0  0  0  0  0  0  0  0  0  0
   -5.4975    7.8205   17.5560 C   0  0  0  0  0  0  0  0  0  0  0  0
   -6.2450    6.6673   17.9432 O   0  0  0  0  0  0  0  0  0  0  0  0
   -4.0278    7.4493   17.5043 C   0  0  1  0  0  0  0  0  0  0  0  0
   -3.6412    6.8543   18.7511 O   0  0  0  0  0  0  0  0  0  0  0  0
   -3.7077    6.4113   16.4410 C   0  0  1  0  0  0  0  0  0  0  0  0
   -3.3587    7.0091   15.1944 O   0  0  0  0  0  0  0  0  0  0  0  0
   -2.5470    5.6427   17.0477 C   0  0  1  0  0  0  0  0  0  0  0  0
   -1.3092    6.2672   16.6981 O   0  0  0  0  0  0  0  0  0  0  0  0
   -2.7395    5.7550   18.5486 C   0  0  2  0  0  0  0  0  0  0  0  0
   -8.1708    4.3090   13.4947 C   0  0  1  0  0  0  0  0  0  0  0  0
   -2.3422    0.5146   19.3062 N   0  0  0  0  0  0  0  0  0  0  0  0
   -1.4733    1.3598   18.6873 C   0  0  1  0  0  0  0  0  0  0  0  0
   -8.3026    4.6471   14.9526 C   0  0  2  0  0  0  0  0  0  0  0  0
   -0.3334    0.8421   18.1742 N   0  0  0  0  0  0  0  0  0  0  0  0
   -9.6756    4.9781   15.1683 O   0  0  0  0  0  0  0  0  0  0  0  0
   -7.3901    5.8402   15.1563 C   0  0  2  0  0  0  0  0  0  0  0  0
   -1.7075    2.7000   18.5623 N   0  0  0  0  0  0  0  0  0  0  0  0
   -7.9489    6.7807   16.0633 O   0  0  0  0  0  0  0  0  0  0  0  0
   -2.8344    3.2681   19.0614 C   0  0  2  0  0  0  0  0  0  0  0  0
   -7.2518    6.4634   13.7812 C   0  0  2  0  0  0  0  0  0  0  0  0
   -7.5700    5.4310   12.8494 O   0  0  0  0  0  0  0  0  0  0  0  0
   -3.8104    2.3967   19.7386 C   0  0  1  0  0  0  0  0  0  0  0  0
   -5.8449    6.9818   13.5049 C   0  0  0  0  0  0  0  0  0  0  0  0
   -4.9263    5.8882   13.5527 O   0  0  0  0  0  0  0  0  0  0  0  0
   -3.5016    0.9594   19.8426 C   0  0  0  0  0  0  0  0  0  0  0  0
   -4.3641    0.1089   20.4548 O   0  0  0  0  0  0  0  0  0  0  0  0
   -4.8227    3.1780   20.1306 N   0  0  0  0  0  0  0  0  0  0  0  0
   -4.5283    4.4520   19.7383 C   0  0  0  0  0  0  0  0  0  0  0  0
   -3.3417    4.5112   19.0980 N   0  0  1  0  0  0  0  0  0  0  0  0
   -5.1053    0.8287   15.9151 N   0  0  0  0  0  0  0  0  0  0  0  0
   -2.5173    4.5764   14.0680 O   0  5  0  0  0  0  0  0  0  0  0  0
   -5.7346    1.9290   16.4113 C   0  0  2  0  0  0  0  0  0  0  0  0
   -5.5991    2.2332   17.7285 N   0  0  0  0  0  0  0  0  0  0  0  0
   -2.6630    6.9833   12.4482 O   0  0  0  0  0  0  0  0  0  0  0  0
   -6.4991    2.7377   15.6278 N   0  0  0  0  0  0  0  0  0  0  0  0
   -6.6772    2.4830   14.3104 C   0  0  2  0  0  0  0  0  0  0  0  0
   -6.0208    1.3109   13.7163 C   0  0  2  0  0  0  0  0  0  0  0  0
   -5.1987    0.4738   14.6160 C   0  0  0  0  0  0  0  0  0  0  0  0
   -4.5527   -0.6266   14.1574 O   0  0  0  0  0  0  0  0  0  0  0  0
   -6.3538    1.3036   12.4103 N   0  0  0  0  0  0  0  0  0  0  0  0
   -7.1622    2.3826   12.1884 C   0  0  0  0  0  0  0  0  0  0  0  0
   -7.3500    3.0857   13.3283 N   0  0  1  0  0  0  0  0  0  0  0  0
  1  3  1  1  0  0  0
  1  4  2  0  0  0  0
  1  6  1  0  0  0  0
  1 22  1  0  0  0  0
  2 28  1  0  0  0  0
  2 35  1  1  0  0  0
  2 38  2  0  0  0  0
  2 10  1  0  0  0  0
  5  6  1  0  0  0  0
  7  5  1  1  0  0  0
  7  8  1  0  0  0  0
  7  9  1  0  0  0  0
  9 10  1  6  0  0  0
  9 11  1  0  0  0  0
 11 12  1  1  0  0  0
 11 13  1  0  0  0  0
 13  8  1  6  0  0  0
 13 33  1  0  0  0  0
 14 46  1  0  0  0  0
 14 17  1  0  0  0  0
 14 25  1  6  0  0  0
 15 16  1  0  0  0  0
 15 29  1  0  0  0  0
 16 18  1  6  0  0  0
 16 21  1  0  0  0  0
 17 19  1  6  0  0  0
 17 20  1  0  0  0  0
 20 22  1  1  0  0  0
 20 24  1  0  0  0  0
 23 21  1  6  0  0  0
 23 26  1  0  0  0  0
 23 33  1  0  0  0  0
 24 25  1  6  0  0  0
 24 27  1  0  0  0  0
 26 29  1  1  0  0  0
 26 31  1  0  0  0  0
 27 28  1  0  0  0  0
 29 30  2  0  0  0  0
 31 32  1  0  0  0  0
 33 32  1  1  0  0  0
 34 36  1  0  0  0  0
 34 42  1  0  0  0  0
 36 37  1  1  0  0  0
 36 39  1  0  0  0  0
 40 39  1  6  0  0  0
 40 41  1  0  0  0  0
 40 46  1  0  0  0  0
 41 42  1  6  0  0  0
 41 44  1  0  0  0  0
 42 43  2  0  0  0  0
 44 45  1  0  0  0  0
 46 45  1  1  0  0  0
M  CHG  2   3  -1  35  -1
M  END
>  <CHROM.1>
177.44422617,-8.51162514,-5.11014001,4.34207970,16.29653613,-2.90092591,0.91545661
-2.73291593

>  <Name>
ligand

>  <RI>
-1

>  <Rbt.Current_Directory>
/home/itssahil/PROJECTS/Mol_Feturizer/Test_systems_manuscript/rnas/3mum

>  <Rbt.Executable>
rbdock ($Id: //depot/dev/client3/rdock/2013.1/src/exe/rbdock.cxx#4 $)

>  <Rbt.Library>
libRbt.so (2013.1, Build901 2013/11/27)

>  <Rbt.Parameter_File>
/export/apps/rDock/src/rDock_2013.1_src/data/scripts/dock_solv.prm

>  <Rbt.Receptor>
prm/pocket_docking_8.prm

>  <SCORE>
-11.5321

>  <SCORE.INTER>
-14.3894

>  <SCORE.INTER.CONST>
1

>  <SCORE.INTER.POLAR>
0

>  <SCORE.INTER.ROT>
2

>  <SCORE.INTER.SOLV>
15.0673

>  <SCORE.INTER.VDW>
-19.5487

>  <SCORE.INTER.norm>
-0.312813

>  <SCORE.INTRA>
2.85732

>  <SCORE.INTRA.DIHEDRAL>
0.00772046

>  <SCORE.INTRA.DIHEDRAL.0>
2.40424

>  <SCORE.INTRA.POLAR>
0

>  <SCORE.INTRA.POLAR.0>
0

>  <SCORE.INTRA.REPUL>
0

>  <SCORE.INTRA.REPUL.0>
0

>  <SCORE.INTRA.SOLV>
6.21046

>  <SCORE.INTRA.SOLV.lig_0>
-134.169

>  <SCORE.INTRA.VDW>
-0.251768

>  <SCORE.INTRA.VDW.0>
-2.18386

>  <SCORE.INTRA.norm>
0.0621157

>  <SCORE.RESTR>
0

>  <SCORE.RESTR.CAVITY>
0

>  <SCORE.RESTR.norm>
0

>  <SCORE.SYSTEM>
0

>  <SCORE.SYSTEM.CONST>
0

>  <SCORE.SYSTEM.DIHEDRAL>
0

>  <SCORE.SYSTEM.SOLV>
0

>  <SCORE.SYSTEM.norm>
0

>  <SCORE.heavy>
46

>  <SCORE.norm>
-0.250697

>  <RMSD>
6.052

$$$$
ligand
 OpenBabel02271912143D
libRbt.so/2013.1/901 2013/11/27
 46 52  0  0  0  0  0  0  0  0999 V2000
   -6.1166    8.0566   17.6912 P   0  0  1  0  0  0  0  0  0  0  0  0
   -5.6480    2.7237   20.1441 P   0  0  2  0  0  0  0  0  0  0  0  0
   -5.5920    8.0014   15.9989 O   0  5  0  0  0  0  0  0  0  0  0  0
   -6.7293    9.6705   18.1375 O   0  0  0  0  0  0  0  0  0  0  0  0
   -7.8089    6.6821   19.1979 C   0  0  0  0  0  0  0  0  0  0  0  0
   -7.2646    6.9449   17.9044 O   0  0  0  0  0  0  0  0  0  0  0  0
   -8.4686    5.3164   19.1766 C   0  0  1  0  0  0  0  0  0  0  0  0
   -9.4035    5.2545   18.0904 O   0  0  0  0  0  0  0  0  0  0  0  0
   -7.4884    4.1799   18.9359 C   0  0  1  0  0  0  0  0  0  0  0  0
   -6.9702    3.6502   20.1541 O   0  0  0  0  0  0  0  0  0  0  0  0
   -8.3223    3.1593   18.1815 C   0  0  1  0  0  0  0  0  0  0  0  0
   -8.9835    2.2887   19.1030 O   0  0  0  0  0  0  0  0  0  0  0  0
   -9.3710    3.9719   17.4449 C   0  0  2  0  0  0  0  0  0  0  0  0
   -2.0257    5.6764   17.9673 C   0  0  1  0  0  0  0  0  0  0  0  0
   -5.8157    3.1424   13.5895 N   0  0  0  0  0  0  0  0  0  0  0  0
   -5.7583    2.7822   14.9008 C   0  0  1  0  0  0  0  0  0  0  0  0
   -3.1570    6.5199   17.4516 C   0  0  2  0  0  0  0  0  0  0  0  0
   -4.6618    2.1185   15.3344 N   0  0  0  0  0  0  0  0  0  0  0  0
   -2.6598    7.8567   17.3697 O   0  0  0  0  0  0  0  0  0  0  0  0
   -4.2486    6.3809   18.4940 C   0  0  2  0  0  0  0  0  0  0  0  0
   -6.7562    3.0656   15.7899 N   0  0  0  0  0  0  0  0  0  0  0  0
   -4.9429    7.6045   18.6946 O   0  0  0  0  0  0  0  0  0  0  0  0
   -7.8767    3.7270   15.4045 C   0  0  2  0  0  0  0  0  0  0  0  0
   -3.5247    5.9799   19.7643 C   0  0  2  0  0  0  0  0  0  0  0  0
   -2.2839    5.4136   19.3459 O   0  0  0  0  0  0  0  0  0  0  0  0
   -7.9880    4.1428   13.9955 C   0  0  1  0  0  0  0  0  0  0  0  0
   -4.2983    4.9570   20.5888 C   0  0  0  0  0  0  0  0  0  0  0  0
   -4.4636    3.7648   19.8185 O   0  0  0  0  0  0  0  0  0  0  0  0
   -6.8792    3.8080   13.0841 C   0  0  0  0  0  0  0  0  0  0  0  0
   -6.9265    4.1666   11.7760 O   0  0  0  0  0  0  0  0  0  0  0  0
   -9.1611    4.7725   13.8675 N   0  0  0  0  0  0  0  0  0  0  0  0
   -9.7611    4.7671   15.0937 C   0  0  0  0  0  0  0  0  0  0  0  0
   -8.9973    4.1444   16.0160 N   0  0  1  0  0  0  0  0  0  0  0  0
   -1.2594    0.5074   18.2170 N   0  0  0  0  0  0  0  0  0  0  0  0
   -5.7414    1.4669   18.8822 O   0  5  0  0  0  0  0  0  0  0  0  0
   -1.2674    1.4359   19.2123 C   0  0  2  0  0  0  0  0  0  0  0  0
   -1.0578    1.0366   20.4939 N   0  0  0  0  0  0  0  0  0  0  0  0
   -5.3095    1.9640   21.7114 O   0  0  0  0  0  0  0  0  0  0  0  0
   -1.4802    2.7572   18.9647 N   0  0  0  0  0  0  0  0  0  0  0  0
   -1.7015    3.2148   17.7102 C   0  0  2  0  0  0  0  0  0  0  0  0
   -1.7019    2.2606   16.5934 C   0  0  2  0  0  0  0  0  0  0  0  0
   -1.4593    0.8401   16.9241 C   0  0  0  0  0  0  0  0  0  0  0  0
   -1.4386   -0.1127   15.9595 O   0  0  0  0  0  0  0  0  0  0  0  0
   -1.9318    2.9766   15.4750 N   0  0  0  0  0  0  0  0  0  0  0  0
   -2.0716    4.2837   15.8477 C   0  0  0  0  0  0  0  0  0  0  0  0
   -1.9303    4.4202   17.1857 N   0  0  1  0  0  0  0  0  0  0  0  0
  1  3  1  6  0  0  0
  1  4  2  0  0  0  0
  1  6  1  0  0  0  0
  1 22  1  0  0  0  0
  2 28  1  0  0  0  0
  2 35  1  6  0  0  0
  2 38  2  0  0  0  0
  2 10  1  0  0  0  0
  5  6  1  0  0  0  0
  7  5  1  6  0  0  0
  7  8  1  0  0  0  0
  7  9  1  0  0  0  0
  9 10  1  1  0  0  0
  9 11  1  0  0  0  0
 11 12  1  1  0  0  0
 11 13  1  0  0  0  0
 13  8  1  1  0  0  0
 13 33  1  0  0  0  0
 14 46  1  0  0  0  0
 14 17  1  0  0  0  0
 14 25  1  1  0  0  0
 15 16  1  0  0  0  0
 15 29  1  0  0  0  0
 16 18  1  1  0  0  0
 16 21  1  0  0  0  0
 17 19  1  1  0  0  0
 17 20  1  0  0  0  0
 20 22  1  1  0  0  0
 20 24  1  0  0  0  0
 23 21  1  1  0  0  0
 23 26  1  0  0  0  0
 23 33  1  0  0  0  0
 24 25  1  6  0  0  0
 24 27  1  0  0  0  0
 26 29  1  6  0  0  0
 26 31  1  0  0  0  0
 27 28  1  0  0  0  0
 29 30  2  0  0  0  0
 31 32  1  0  0  0  0
 33 32  1  6  0  0  0
 34 36  1  0  0  0  0
 34 42  1  0  0  0  0
 36 37  1  1  0  0  0
 36 39  1  0  0  0  0
 40 39  1  6  0  0  0
 40 41  1  0  0  0  0
 40 46  1  0  0  0  0
 41 42  1  6  0  0  0
 41 44  1  0  0  0  0
 42 43  2  0  0  0  0
 44 45  1  0  0  0  0
 46 45  1  1  0  0  0
M  CHG  2   3  -1  35  -1
M  END
>  <CHROM.1>
113.45820926,-138.22018473,-5.25029754,4.27691489,17.56289997,-3.02361865
0.53400877,-2.32294973

>  <Name>
ligand

>  <RI>
-1

>  <Rbt.Current_Directory>
/home/itssahil/PROJECTS/Mol_Feturizer/Test_systems_manuscript/rnas/3mum

>  <Rbt.Executable>
rbdock ($Id: //depot/dev/client3/rdock/2013.1/src/exe/rbdock.cxx#4 $)

>  <Rbt.Library>
libRbt.so (2013.1, Build901 2013/11/27)

>  <Rbt.Parameter_File>
/export/apps/rDock/src/rDock_2013.1_src/data/scripts/dock_solv.prm

>  <Rbt.Receptor>
prm/pocket_docking_7.prm

>  <SCORE>
-7.60413

>  <SCORE.INTER>
-8.49811

>  <SCORE.INTER.CONST>
1

>  <SCORE.INTER.POLAR>
0

>  <SCORE.INTER.ROT>
2

>  <SCORE.INTER.SOLV>
11.9393

>  <SCORE.INTER.VDW>
-14.5785

>  <SCORE.INTER.norm>
-0.184741

>  <SCORE.INTRA>
0.893976

>  <SCORE.INTRA.DIHEDRAL>
0.0198363

>  <SCORE.INTRA.DIHEDRAL.0>
2.40424

>  <SCORE.INTRA.POLAR>
0

>  <SCORE.INTRA.POLAR.0>
0

>  <SCORE.INTRA.REPUL>
0

>  <SCORE.INTRA.REPUL.0>
0

>  <SCORE.INTRA.SOLV>
4.06752

>  <SCORE.INTRA.SOLV.lig_0>
-134.169

>  <SCORE.INTRA.VDW>
-1.1497

>  <SCORE.INTRA.VDW.0>
-2.18386

>  <SCORE.INTRA.norm>
0.0194343

>  <SCORE.RESTR>
0

>  <SCORE.RESTR.CAVITY>
0

>  <SCORE.RESTR.norm>
0

>  <SCORE.SYSTEM>
0

>  <SCORE.SYSTEM.CONST>
0

>  <SCORE.SYSTEM.DIHEDRAL>
0

>  <SCORE.SYSTEM.SOLV>
0

>  <SCORE.SYSTEM.norm>
0

>  <SCORE.heavy>
46

>  <SCORE.norm>
-0.165307

>  <RMSD>
6.128

$$$$
ligand
 OpenBabel02271912143D
libRbt.so/2013.1/901 2013/11/27
 46 52  0  0  0  0  0  0  0  0999 V2000
   -7.9306    2.0097   19.3756 P   0  0  1  0  0  0  0  0  0  0  0  0
   -3.0981    5.2382   18.4273 P   0  0  2  0  0  0  0  0  0  0  0  0
   -9.1319    2.3172   18.1090 O   0  5  0  0  0  0  0  0  0  0  0  0
   -8.4780    0.7459   20.5081 O   0  0  0  0  0  0  0  0  0  0  0  0
   -5.3634    1.3544   19.4357 C   0  0  0  0  0  0  0  0  0  0  0  0
   -6.5498    1.5674   18.6705 O   0  0  0  0  0  0  0  0  0  0  0  0
   -4.1674    1.4351   18.5064 C   0  0  1  0  0  0  0  0  0  0  0  0
   -4.3586    0.5384   17.4030 O   0  0  0  0  0  0  0  0  0  0  0  0
   -3.9808    2.8102   17.8862 C   0  0  1  0  0  0  0  0  0  0  0  0
   -3.1297    3.6425   18.6711 O   0  0  0  0  0  0  0  0  0  0  0  0
   -3.3755    2.4972   16.5291 C   0  0  1  0  0  0  0  0  0  0  0  0
   -1.9505    2.4362   16.6300 O   0  0  0  0  0  0  0  0  0  0  0  0
   -3.8956    1.1170   16.1727 C   0  0  2  0  0  0  0  0  0  0  0  0
   -7.9767    6.7445   19.1402 C   0  0  1  0  0  0  0  0  0  0  0  0
   -6.9855   -1.3154   12.6050 N   0  0  0  0  0  0  0  0  0  0  0  0
   -5.9532   -1.8225   13.3328 C   0  0  1  0  0  0  0  0  0  0  0  0
   -8.3497    5.3004   18.9594 C   0  0  2  0  0  0  0  0  0  0  0  0
   -5.6269   -3.1241   13.1592 N   0  0  0  0  0  0  0  0  0  0  0  0
   -9.5159    5.0814   19.7551 O   0  0  0  0  0  0  0  0  0  0  0  0
   -7.1538    4.5252   19.4758 C   0  0  2  0  0  0  0  0  0  0  0  0
   -5.2372   -1.0728   14.2227 N   0  0  0  0  0  0  0  0  0  0  0  0
   -7.5492    3.3529   20.1750 O   0  0  0  0  0  0  0  0  0  0  0  0
   -5.5262    0.2361   14.4344 C   0  0  2  0  0  0  0  0  0  0  0  0
   -6.4491    5.4801   20.4193 C   0  0  2  0  0  0  0  0  0  0  0  0
   -6.8662    6.7893   20.0353 O   0  0  0  0  0  0  0  0  0  0  0  0
   -6.6332    0.8358   13.6694 C   0  0  1  0  0  0  0  0  0  0  0  0
   -4.9300    5.3846   20.3326 C   0  0  0  0  0  0  0  0  0  0  0  0
   -4.5144    5.7344   19.0109 O   0  0  0  0  0  0  0  0  0  0  0  0
   -7.3686   -0.0237   12.7247 C   0  0  0  0  0  0  0  0  0  0  0  0
   -8.3969    0.4747   11.9923 O   0  0  0  0  0  0  0  0  0  0  0  0
   -6.7158    2.1170   14.0446 N   0  0  0  0  0  0  0  0  0  0  0  0
   -5.7409    2.3314   14.9758 C   0  0  0  0  0  0  0  0  0  0  0  0
   -5.0264    1.2109   15.2117 N   0  0  1  0  0  0  0  0  0  0  0  0
   -9.7749    7.9666   14.3820 N   0  0  0  0  0  0  0  0  0  0  0  0
   -2.9635    5.6309   16.6928 O   0  5  0  0  0  0  0  0  0  0  0  0
  -10.4044    7.3494   15.4191 C   0  0  2  0  0  0  0  0  0  0  0  0
  -11.7003    6.9673   15.2759 N   0  0  0  0  0  0  0  0  0  0  0  0
   -1.8056    6.0611   19.3220 O   0  0  0  0  0  0  0  0  0  0  0  0
   -9.7756    7.1020   16.6005 N   0  0  0  0  0  0  0  0  0  0  0  0
   -8.4877    7.4649   16.8056 C   0  0  2  0  0  0  0  0  0  0  0  0
   -7.7544    8.1324   15.7219 C   0  0  2  0  0  0  0  0  0  0  0  0
   -8.4886    8.3686   14.4605 C   0  0  0  0  0  0  0  0  0  0  0  0
   -7.8938    8.9754   13.4038 O   0  0  0  0  0  0  0  0  0  0  0  0
   -6.5111    8.3674   16.1859 N   0  0  0  0  0  0  0  0  0  0  0  0
   -6.4556    7.8921   17.4658 C   0  0  0  0  0  0  0  0  0  0  0  0
   -7.6403    7.3510   17.8299 N   0  0  1  0  0  0  0  0  0  0  0  0
  1  3  1  6  0  0  0
  1  4  2  0  0  0  0
  1  6  1  0  0  0  0
  1 22  1  0  0  0  0
  2 28  1  0  0  0  0
  2 35  1  6  0  0  0
  2 38  2  0  0  0  0
  2 10  1  0  0  0  0
  5  6  1  0  0  0  0
  7  5  1  1  0  0  0
  7  8  1  0  0  0  0
  7  9  1  0  0  0  0
  9 10  1  1  0  0  0
  9 11  1  0  0  0  0
 11 12  1  1  0  0  0
 11 13  1  0  0  0  0
 13  8  1  1  0  0  0
 13 33  1  0  0  0  0
 14 46  1  0  0  0  0
 14 17  1  0  0  0  0
 14 25  1  1  0  0  0
 15 16  1  0  0  0  0
 15 29  1  0  0  0  0
 16 18  1  6  0  0  0
 16 21  1  0  0  0  0
 17 19  1  1  0  0  0
 17 20  1  0  0  0  0
 20 22  1  1  0  0  0
 20 24  1  0  0  0  0
 23 21  1  6  0  0  0
 23 26  1  0  0  0  0
 23 33  1  0  0  0  0
 24 25  1  6  0  0  0
 24 27  1  0  0  0  0
 26 29  1  1  0  0  0
 26 31  1  0  0  0  0
 27 28  1  0  0  0  0
 29 30  2  0  0  0  0
 31 32  1  0  0  0  0
 33 32  1  1  0  0  0
 34 36  1  0  0  0  0
 34 42  1  0  0  0  0
 36 37  1  1  0  0  0
 36 39  1  0  0  0  0
 40 39  1  6  0  0  0
 40 41  1  0  0  0  0
 40 46  1  0  0  0  0
 41 42  1  6  0  0  0
 41 44  1  0  0  0  0
 42 43  2  0  0  0  0
 44 45  1  0  0  0  0
 46 45  1  1  0  0  0
M  CHG  2   3  -1  35  -1
M  END
>  <CHROM.1>
-80.69435324,61.92715763,-6.38482544,3.75897034,17.00313258,-1.20721217,-0.77575748
0.61238161

>  <Name>
ligand

>  <RI>
-1

>  <Rbt.Current_Directory>
/home/itssahil/PROJECTS/Mol_Feturizer/Test_systems_manuscript/rnas/3mum

>  <Rbt.Executable>
rbdock ($Id: //depot/dev/client3/rdock/2013.1/src/exe/rbdock.cxx#4 $)

>  <Rbt.Library>
libRbt.so (2013.1, Build901 2013/11/27)

>  <Rbt.Parameter_File>
/export/apps/rDock/src/rDock_2013.1_src/data/scripts/dock_solv.prm

>  <Rbt.Receptor>
prm/pocket_docking_5.prm

>  <SCORE>
-13.2311

>  <SCORE.INTER>
-13.6358

>  <SCORE.INTER.CONST>
1

>  <SCORE.INTER.POLAR>
0

>  <SCORE.INTER.ROT>
2

>  <SCORE.INTER.SOLV>
26.7051

>  <SCORE.INTER.VDW>
-22.9255

>  <SCORE.INTER.norm>
-0.29643

>  <SCORE.INTRA>
0.403722

>  <SCORE.INTRA.DIHEDRAL>
-0.00529396

>  <SCORE.INTRA.DIHEDRAL.0>
2.40424

>  <SCORE.INTRA.POLAR>
0

>  <SCORE.INTRA.POLAR.0>
0

>  <SCORE.INTRA.REPUL>
0

>  <SCORE.INTRA.REPUL.0>
0

>  <SCORE.INTRA.SOLV>
0.0192295

>  <SCORE.INTRA.SOLV.lig_0>
-134.169

>  <SCORE.INTRA.VDW>
0.396754

>  <SCORE.INTRA.VDW.0>
-2.18386

>  <SCORE.INTRA.norm>
0.00877657

>  <SCORE.RESTR>
0.000959907

>  <SCORE.RESTR.CAVITY>
0.000959907

>  <SCORE.RESTR.norm>
2.08675e-05

>  <SCORE.SYSTEM>
0

>  <SCORE.SYSTEM.CONST>
0

>  <SCORE.SYSTEM.DIHEDRAL>
0

>  <SCORE.SYSTEM.SOLV>
0

>  <SCORE.SYSTEM.norm>
0

>  <SCORE.heavy>
46

>  <SCORE.norm>
-0.287632

>  <RMSD>
6.294

$$$$
ligand
 OpenBabel02271912143D
libRbt.so/2013.1/901 2013/11/27
 46 52  0  0  0  0  0  0  0  0999 V2000
   -7.6330    4.9889   18.0275 P   0  0  1  0  0  0  0  0  0  0  0  0
   -9.2153    9.6573   14.8061 P   0  0  2  0  0  0  0  0  0  0  0  0
   -8.3288    3.5085   17.3449 O   0  5  0  0  0  0  0  0  0  0  0  0
   -6.5771    4.6375   19.4207 O   0  0  0  0  0  0  0  0  0  0  0  0
   -6.2089    7.0202   17.0952 C   0  0  0  0  0  0  0  0  0  0  0  0
   -6.7987    5.7396   16.8701 O   0  0  0  0  0  0  0  0  0  0  0  0
   -5.9342    7.6690   15.7520 C   0  0  1  0  0  0  0  0  0  0  0  0
   -5.1675    6.7721   14.9362 O   0  0  0  0  0  0  0  0  0  0  0  0
   -7.1965    7.9636   14.9582 C   0  0  1  0  0  0  0  0  0  0  0  0
   -7.7038    9.2700   15.2208 O   0  0  0  0  0  0  0  0  0  0  0  0
   -6.7419    7.8093   13.5175 C   0  0  1  0  0  0  0  0  0  0  0  0
   -6.2374    9.0539   13.0265 O   0  0  0  0  0  0  0  0  0  0  0  0
   -5.6011    6.8100   13.5675 C   0  0  2  0  0  0  0  0  0  0  0  0
  -12.1504    6.2272   17.2955 C   0  0  1  0  0  0  0  0  0  0  0  0
   -5.6077    1.5801   14.4844 N   0  0  0  0  0  0  0  0  0  0  0  0
   -4.9856    2.5715   15.1789 C   0  0  1  0  0  0  0  0  0  0  0  0
  -10.8991    5.4103   17.4506 C   0  0  2  0  0  0  0  0  0  0  0  0
   -4.2518    2.2297   16.2631 N   0  0  0  0  0  0  0  0  0  0  0  0
  -11.0362    4.6895   18.6764 O   0  0  0  0  0  0  0  0  0  0  0  0
   -9.7781    6.4288   17.5109 C   0  0  2  0  0  0  0  0  0  0  0  0
   -5.0704    3.8883   14.8244 N   0  0  0  0  0  0  0  0  0  0  0  0
   -8.7716    6.0485   18.4393 O   0  0  0  0  0  0  0  0  0  0  0  0
   -5.7951    4.2828   13.7471 C   0  0  2  0  0  0  0  0  0  0  0  0
  -10.4437    7.7136   17.9633 C   0  0  2  0  0  0  0  0  0  0  0  0
  -11.8261    7.5735   17.6400 O   0  0  0  0  0  0  0  0  0  0  0  0
   -6.4863    3.2483   12.9581 C   0  0  1  0  0  0  0  0  0  0  0  0
   -9.8814    8.9484   17.2680 C   0  0  0  0  0  0  0  0  0  0  0  0
  -10.1147    8.8399   15.8623 O   0  0  0  0  0  0  0  0  0  0  0  0
   -6.3576    1.8452   13.3904 C   0  0  0  0  0  0  0  0  0  0  0  0
   -6.9715    0.8499   12.7015 O   0  0  0  0  0  0  0  0  0  0  0  0
   -7.1173    3.8772   11.9604 N   0  0  0  0  0  0  0  0  0  0  0  0
   -6.8555    5.2106   12.0906 C   0  0  0  0  0  0  0  0  0  0  0  0
   -6.0650    5.4584   13.1561 N   0  0  1  0  0  0  0  0  0  0  0  0
  -14.2473    8.8604   13.2908 N   0  0  0  0  0  0  0  0  0  0  0  0
   -9.5863    9.1443   13.1388 O   0  5  0  0  0  0  0  0  0  0  0  0
  -13.8975    9.2960   14.5320 C   0  0  2  0  0  0  0  0  0  0  0  0
  -14.0854   10.6026   14.8540 N   0  0  0  0  0  0  0  0  0  0  0  0
   -9.5734   11.3857   14.9864 O   0  0  0  0  0  0  0  0  0  0  0  0
  -13.3625    8.4621   15.4652 N   0  0  0  0  0  0  0  0  0  0  0  0
  -13.1452    7.1524   15.2014 C   0  0  2  0  0  0  0  0  0  0  0  0
  -13.5052    6.6225   13.8796 C   0  0  2  0  0  0  0  0  0  0  0  0
  -14.0876    7.5751   12.9103 C   0  0  0  0  0  0  0  0  0  0  0  0
  -14.4531    7.1774   11.6666 O   0  0  0  0  0  0  0  0  0  0  0  0
  -13.1976    5.3104   13.8937 N   0  0  0  0  0  0  0  0  0  0  0  0
  -12.6783    5.0254   15.1249 C   0  0  0  0  0  0  0  0  0  0  0  0
  -12.6519    6.1307   15.9037 N   0  0  1  0  0  0  0  0  0  0  0  0
  1  3  1  6  0  0  0
  1  4  2  0  0  0  0
  1  6  1  0  0  0  0
  1 22  1  0  0  0  0
  2 28  1  0  0  0  0
  2 35  1  6  0  0  0
  2 38  2  0  0  0  0
  2 10  1  0  0  0  0
  5  6  1  0  0  0  0
  7  5  1  1  0  0  0
  7  8  1  0  0  0  0
  7  9  1  0  0  0  0
  9 10  1  6  0  0  0
  9 11  1  0  0  0  0
 11 12  1  1  0  0  0
 11 13  1  0  0  0  0
 13  8  1  1  0  0  0
 13 33  1  0  0  0  0
 14 46  1  0  0  0  0
 14 17  1  0  0  0  0
 14 25  1  6  0  0  0
 15 16  1  0  0  0  0
 15 29  1  0  0  0  0
 16 18  1  6  0  0  0
 16 21  1  0  0  0  0
 17 19  1  1  0  0  0
 17 20  1  0  0  0  0
 20 22  1  1  0  0  0
 20 24  1  0  0  0  0
 23 21  1  6  0  0  0
 23 26  1  0  0  0  0
 23 33  1  0  0  0  0
 24 25  1  6  0  0  0
 24 27  1  0  0  0  0
 26 29  1  1  0  0  0
 26 31  1  0  0  0  0
 27 28  1  0  0  0  0
 29 30  2  0  0  0  0
 31 32  1  0  0  0  0
 33 32  1  1  0  0  0
 34 36  1  0  0  0  0
 34 42  1  0  0  0  0
 36 37  1  6  0  0  0
 36 39  1  0  0  0  0
 40 39  1  1  0  0  0
 40 41  1  0  0  0  0
 40 46  1  0  0  0  0
 41 42  1  1  0  0  0
 41 44  1  0  0  0  0
 42 43  2  0  0  0  0
 44 45  1  0  0  0  0
 46 45  1  6  0  0  0
M  CHG  2   3  -1  35  -1
M  END
>  <CHROM.1>
-18.61930444,-139.05035800,-9.03295581,6.40790108,15.29122464,0.44315312
-0.38447485,2.43982242

>  <Name>
ligand

>  <RI>
-1

>  <Rbt.Current_Directory>
/home/itssahil/PROJECTS/Mol_Feturizer/Test_systems_manuscript/rnas/3mum

>  <Rbt.Executable>
rbdock ($Id: //depot/dev/client3/rdock/2013.1/src/exe/rbdock.cxx#4 $)

>  <Rbt.Library>
libRbt.so (2013.1, Build901 2013/11/27)

>  <Rbt.Parameter_File>
/export/apps/rDock/src/rDock_2013.1_src/data/scripts/dock_solv.prm

>  <Rbt.Receptor>
prm/pocket_docking_8.prm

>  <SCORE>
-19.6899

>  <SCORE.INTER>
-18.883

>  <SCORE.INTER.CONST>
1

>  <SCORE.INTER.POLAR>
0

>  <SCORE.INTER.ROT>
2

>  <SCORE.INTER.SOLV>
8.31523

>  <SCORE.INTER.VDW>
-20.2937

>  <SCORE.INTER.norm>
-0.410499

>  <SCORE.INTRA>
-0.806947

>  <SCORE.INTRA.DIHEDRAL>
0.0222585

>  <SCORE.INTRA.DIHEDRAL.0>
2.40424

>  <SCORE.INTRA.POLAR>
0

>  <SCORE.INTRA.POLAR.0>
0

>  <SCORE.INTRA.REPUL>
0

>  <SCORE.INTRA.REPUL.0>
0

>  <SCORE.INTRA.SOLV>
0.188802

>  <SCORE.INTRA.SOLV.lig_0>
-134.169

>  <SCORE.INTRA.VDW>
-0.912477

>  <SCORE.INTRA.VDW.0>
-2.18386

>  <SCORE.INTRA.norm>
-0.0175423

>  <SCORE.RESTR>
0

>  <SCORE.RESTR.CAVITY>
0

>  <SCORE.RESTR.norm>
0

>  <SCORE.SYSTEM>
0

>  <SCORE.SYSTEM.CONST>
0

>  <SCORE.SYSTEM.DIHEDRAL>
0

>  <SCORE.SYSTEM.SOLV>
0

>  <SCORE.SYSTEM.norm>
0

>  <SCORE.heavy>
46

>  <SCORE.norm>
-0.428042

>  <RMSD>
6.472

$$$$
ligand
 OpenBabel02271912143D
libRbt.so/2013.1/901 2013/11/27
 46 52  0  0  0  0  0  0  0  0999 V2000
   -9.3788    9.9829   14.8471 P   0  0  1  0  0  0  0  0  0  0  0  0
   -7.8917    5.1168   17.8112 P   0  0  2  0  0  0  0  0  0  0  0  0
   -9.7988    9.5772   13.1736 O   0  5  0  0  0  0  0  0  0  0  0  0
   -9.6230   11.7166   15.1847 O   0  0  0  0  0  0  0  0  0  0  0  0
  -10.1020    9.1204   17.2464 C   0  0  0  0  0  0  0  0  0  0  0  0
  -10.2903    9.0887   15.8315 O   0  0  0  0  0  0  0  0  0  0  0  0
  -10.7232    7.8728   17.8450 C   0  0  1  0  0  0  0  0  0  0  0  0
  -12.0845    7.7595   17.4066 O   0  0  0  0  0  0  0  0  0  0  0  0
  -10.0429    6.5894   17.3973 C   0  0  1  0  0  0  0  0  0  0  0  0
   -8.9906    6.2034   18.2787 O   0  0  0  0  0  0  0  0  0  0  0  0
  -11.1783    5.5810   17.3915 C   0  0  1  0  0  0  0  0  0  0  0  0
  -11.3010    4.9733   18.6800 O   0  0  0  0  0  0  0  0  0  0  0  0
  -12.4293    6.3953   17.1188 C   0  0  2  0  0  0  0  0  0  0  0  0
   -5.8054    7.1471   13.5565 C   0  0  1  0  0  0  0  0  0  0  0  0
  -16.2266    6.9937   13.4561 N   0  0  0  0  0  0  0  0  0  0  0  0
  -16.2771    7.2459   14.7926 C   0  0  1  0  0  0  0  0  0  0  0  0
   -7.0130    8.0395   13.5040 C   0  0  2  0  0  0  0  0  0  0  0  0
  -17.4351    7.7151   15.3117 N   0  0  0  0  0  0  0  0  0  0  0  0
   -6.5851    9.2640   12.9052 O   0  0  0  0  0  0  0  0  0  0  0  0
   -7.4191    8.2251   14.9526 C   0  0  2  0  0  0  0  0  0  0  0  0
  -15.2125    7.0421   15.6244 N   0  0  0  0  0  0  0  0  0  0  0  0
   -7.8719    9.5480   15.2063 O   0  0  0  0  0  0  0  0  0  0  0  0
  -14.0289    6.5749   15.1527 C   0  0  2  0  0  0  0  0  0  0  0  0
   -6.1595    7.9454   15.7486 C   0  0  2  0  0  0  0  0  0  0  0  0
   -5.3282    7.1540   14.9012 O   0  0  0  0  0  0  0  0  0  0  0  0
  -13.9216    6.2826   13.7128 C   0  0  1  0  0  0  0  0  0  0  0  0
   -6.4332    7.1882   17.0433 C   0  0  0  0  0  0  0  0  0  0  0  0
   -7.0090    5.9186   16.7292 O   0  0  0  0  0  0  0  0  0  0  0  0
  -15.1039    6.5231   12.8664 C   0  0  0  0  0  0  0  0  0  0  0  0
  -15.0635    6.2708   11.5335 O   0  0  0  0  0  0  0  0  0  0  0  0
  -12.6794    5.8354   13.4984 N   0  0  0  0  0  0  0  0  0  0  0  0
  -12.0340    5.8361   14.7014 C   0  0  0  0  0  0  0  0  0  0  0  0
  -12.8362    6.2762   15.6935 N   0  0  1  0  0  0  0  0  0  0  0  0
   -5.1958    2.0356   14.4886 N   0  0  0  0  0  0  0  0  0  0  0  0
   -8.6600    3.6929   17.0611 O   0  5  0  0  0  0  0  0  0  0  0  0
   -4.6629    3.1086   15.1348 C   0  0  2  0  0  0  0  0  0  0  0  0
   -3.8421    2.9024   16.1977 N   0  0  0  0  0  0  0  0  0  0  0  0
   -6.8219    4.5885   19.1244 O   0  0  0  0  0  0  0  0  0  0  0  0
   -4.9271    4.3870   14.7498 N   0  0  0  0  0  0  0  0  0  0  0  0
   -5.7421    4.6561   13.7031 C   0  0  2  0  0  0  0  0  0  0  0  0
   -6.3452    3.5391   12.9641 C   0  0  2  0  0  0  0  0  0  0  0  0
   -6.0164    2.1734   13.4256 C   0  0  0  0  0  0  0  0  0  0  0  0
   -6.5235    1.0801   12.8042 O   0  0  0  0  0  0  0  0  0  0  0  0
   -7.0893    4.0843   11.9815 N   0  0  0  0  0  0  0  0  0  0  0  0
   -6.9745    5.4418   12.0870 C   0  0  0  0  0  0  0  0  0  0  0  0
   -6.1653    5.7777   13.1171 N   0  0  1  0  0  0  0  0  0  0  0  0
  1  3  1  6  0  0  0
  1  4  2  0  0  0  0
  1  6  1  0  0  0  0
  1 22  1  0  0  0  0
  2 28  1  0  0  0  0
  2 35  1  6  0  0  0
  2 38  2  0  0  0  0
  2 10  1  0  0  0  0
  5  6  1  0  0  0  0
  7  5  1  6  0  0  0
  7  8  1  0  0  0  0
  7  9  1  0  0  0  0
  9 10  1  1  0  0  0
  9 11  1  0  0  0  0
 11 12  1  1  0  0  0
 11 13  1  0  0  0  0
 13  8  1  6  0  0  0
 13 33  1  0  0  0  0
 14 46  1  0  0  0  0
 14 17  1  0  0  0  0
 14 25  1  1  0  0  0
 15 16  1  0  0  0  0
 15 29  1  0  0  0  0
 16 18  1  1  0  0  0
 16 21  1  0  0  0  0
 17 19  1  1  0  0  0
 17 20  1  0  0  0  0
 20 22  1  6  0  0  0
 20 24  1  0  0  0  0
 23 21  1  1  0  0  0
 23 26  1  0  0  0  0
 23 33  1  0  0  0  0
 24 25  1  6  0  0  0
 24 27  1  0  0  0  0
 26 29  1  6  0  0  0
 26 31  1  0  0  0  0
 27 28  1  0  0  0  0
 29 30  2  0  0  0  0
 31 32  1  0  0  0  0
 33 32  1  6  0  0  0
 34 36  1  0  0  0  0
 34 42  1  0  0  0  0
 36 37  1  1  0  0  0
 36 39  1  0  0  0  0
 40 39  1  6  0  0  0
 40 41  1  0  0  0  0
 40 46  1  0  0  0  0
 41 42  1  6  0  0  0
 41 44  1  0  0  0  0
 42 43  2  0  0  0  0
 44 45  1  0  0  0  0
 46 45  1  1  0  0  0
M  CHG  2   3  -1  35  -1
M  END
>  <CHROM.1>
-80.63704909,-138.02758138,-9.34803612,6.42527029,15.23800423,-2.82873124
0.05017035,-2.97373273

>  <Name>
ligand

>  <RI>
-1

>  <Rbt.Current_Directory>
/home/itssahil/PROJECTS/Mol_Feturizer/Test_systems_manuscript/rnas/3mum

>  <Rbt.Executable>
rbdock ($Id: //depot/dev/client3/rdock/2013.1/src/exe/rbdock.cxx#4 $)

>  <Rbt.Library>
libRbt.so (2013.1, Build901 2013/11/27)

>  <Rbt.Parameter_File>
/export/apps/rDock/src/rDock_2013.1_src/data/scripts/dock_solv.prm

>  <Rbt.Receptor>
prm/pocket_docking_8.prm

>  <SCORE>
-19.1926

>  <SCORE.INTER>
-19.2287

>  <SCORE.INTER.CONST>
1

>  <SCORE.INTER.POLAR>
0

>  <SCORE.INTER.ROT>
2

>  <SCORE.INTER.SOLV>
12.3721

>  <SCORE.INTER.VDW>
-21.8765

>  <SCORE.INTER.norm>
-0.418015

>  <SCORE.INTRA>
0.0360702

>  <SCORE.INTRA.DIHEDRAL>
0.015261

>  <SCORE.INTRA.DIHEDRAL.0>
2.40424

>  <SCORE.INTRA.POLAR>
0

>  <SCORE.INTRA.POLAR.0>
0

>  <SCORE.INTRA.REPUL>
0

>  <SCORE.INTRA.REPUL.0>
0

>  <SCORE.INTRA.SOLV>
0.0388215

>  <SCORE.INTRA.SOLV.lig_0>
-134.169

>  <SCORE.INTRA.VDW>
0.0090289

>  <SCORE.INTRA.VDW.0>
-2.18386

>  <SCORE.INTRA.norm>
0.000784134

>  <SCORE.RESTR>
0

>  <SCORE.RESTR.CAVITY>
0

>  <SCORE.RESTR.norm>
0

>  <SCORE.SYSTEM>
0

>  <SCORE.SYSTEM.CONST>
0

>  <SCORE.SYSTEM.DIHEDRAL>
0

>  <SCORE.SYSTEM.SOLV>
0

>  <SCORE.SYSTEM.norm>
0

>  <SCORE.heavy>
46

>  <SCORE.norm>
-0.417231

>  <RMSD>
6.482

$$$$
ligand
 OpenBabel02271912143D
libRbt.so/2013.1/901 2013/11/27
 46 52  0  0  0  0  0  0  0  0999 V2000
   -7.8283    5.3871   17.9313 P   0  0  1  0  0  0  0  0  0  0  0  0
   -9.5891    9.7355   14.3722 P   0  0  2  0  0  0  0  0  0  0  0  0
   -8.3722    3.8217   17.3024 O   0  5  0  0  0  0  0  0  0  0  0  0
   -6.8240    5.1959   19.3921 O   0  0  0  0  0  0  0  0  0  0  0  0
   -6.5159    7.4714   16.9534 C   0  0  0  0  0  0  0  0  0  0  0  0
   -6.9936    6.1380   16.7743 O   0  0  0  0  0  0  0  0  0  0  0  0
   -6.2207    8.0667   15.5898 C   0  0  1  0  0  0  0  0  0  0  0  0
   -5.3457    7.1905   14.8655 O   0  0  0  0  0  0  0  0  0  0  0  0
   -7.4580    8.2173   14.7199 C   0  0  1  0  0  0  0  0  0  0  0  0
   -8.0765    9.4918   14.8816 O   0  0  0  0  0  0  0  0  0  0  0  0
   -6.9172    8.0221   13.3144 C   0  0  1  0  0  0  0  0  0  0  0  0
   -6.4838    9.2743   12.7774 O   0  0  0  0  0  0  0  0  0  0  0  0
   -5.7079    7.1202   13.4775 C   0  0  2  0  0  0  0  0  0  0  0  0
  -12.3819    6.2232   16.9102 C   0  0  1  0  0  0  0  0  0  0  0  0
   -4.9649    1.9431   14.3933 N   0  0  0  0  0  0  0  0  0  0  0  0
   -4.3954    3.0136   15.0115 C   0  0  1  0  0  0  0  0  0  0  0  0
  -11.0820    5.5173   17.1729 C   0  0  2  0  0  0  0  0  0  0  0  0
   -3.5069    2.7805   16.0050 N   0  0  0  0  0  0  0  0  0  0  0  0
  -11.2284    4.8549   18.4302 O   0  0  0  0  0  0  0  0  0  0  0  0
  -10.0466    6.6230   17.2286 C   0  0  2  0  0  0  0  0  0  0  0  0
   -4.6816    4.3046   14.6679 N   0  0  0  0  0  0  0  0  0  0  0  0
   -9.0646    6.3740   18.2252 O   0  0  0  0  0  0  0  0  0  0  0  0
   -5.5668    4.5912   13.6801 C   0  0  2  0  0  0  0  0  0  0  0  0
  -10.8312    7.8736   17.5731 C   0  0  2  0  0  0  0  0  0  0  0  0
  -12.1799    7.6075   17.1916 O   0  0  0  0  0  0  0  0  0  0  0  0
   -6.2099    3.4682   12.9760 C   0  0  1  0  0  0  0  0  0  0  0  0
  -10.3286    9.1097   16.8357 C   0  0  0  0  0  0  0  0  0  0  0  0
  -10.4782    8.9076   15.4290 O   0  0  0  0  0  0  0  0  0  0  0  0
   -5.8609    2.0981   13.3920 C   0  0  0  0  0  0  0  0  0  0  0  0
   -6.4212    1.0249   12.7785 O   0  0  0  0  0  0  0  0  0  0  0  0
   -7.0226    4.0001   12.0564 N   0  0  0  0  0  0  0  0  0  0  0  0
   -6.9144    5.3574   12.1548 C   0  0  0  0  0  0  0  0  0  0  0  0
   -6.0450    5.7160   13.1228 N   0  0  1  0  0  0  0  0  0  0  0  0
  -16.0202    7.2836   13.3037 N   0  0  0  0  0  0  0  0  0  0  0  0
   -9.8310    9.1056   12.7212 O   0  5  0  0  0  0  0  0  0  0  0  0
  -15.9535    7.6590   14.6104 C   0  0  2  0  0  0  0  0  0  0  0  0
  -16.9423    8.4326   15.1298 N   0  0  0  0  0  0  0  0  0  0  0  0
  -10.0869   11.4373   14.4347 O   0  0  0  0  0  0  0  0  0  0  0  0
  -14.9237    7.2836   15.4173 N   0  0  0  0  0  0  0  0  0  0  0  0
  -13.9064    6.5192   14.9559 C   0  0  2  0  0  0  0  0  0  0  0  0
  -13.9239    6.0801   13.5543 C   0  0  2  0  0  0  0  0  0  0  0  0
  -15.0712    6.5146   12.7290 C   0  0  0  0  0  0  0  0  0  0  0  0
  -15.1752    6.1564   11.4254 O   0  0  0  0  0  0  0  0  0  0  0  0
  -12.8159    5.3354   13.3699 N   0  0  0  0  0  0  0  0  0  0  0  0
  -12.1415    5.3047   14.5579 C   0  0  0  0  0  0  0  0  0  0  0  0
  -12.8001    6.0125   15.5035 N   0  0  1  0  0  0  0  0  0  0  0  0
  1  3  1  6  0  0  0
  1  4  2  0  0  0  0
  1  6  1  0  0  0  0
  1 22  1  0  0  0  0
  2 28  1  0  0  0  0
  2 35  1  6  0  0  0
  2 38  2  0  0  0  0
  2 10  1  0  0  0  0
  5  6  1  0  0  0  0
  7  5  1  1  0  0  0
  7  8  1  0  0  0  0
  7  9  1  0  0  0  0
  9 10  1  6  0  0  0
  9 11  1  0  0  0  0
 11 12  1  1  0  0  0
 11 13  1  0  0  0  0
 13  8  1  1  0  0  0
 13 33  1  0  0  0  0
 14 46  1  0  0  0  0
 14 17  1  0  0  0  0
 14 25  1  6  0  0  0
 15 16  1  0  0  0  0
 15 29  1  0  0  0  0
 16 18  1  6  0  0  0
 16 21  1  0  0  0  0
 17 19  1  1  0  0  0
 17 20  1  0  0  0  0
 20 22  1  1  0  0  0
 20 24  1  0  0  0  0
 23 21  1  6  0  0  0
 23 26  1  0  0  0  0
 23 33  1  0  0  0  0
 24 25  1  6  0  0  0
 24 27  1  0  0  0  0
 26 29  1  1  0  0  0
 26 31  1  0  0  0  0
 27 28  1  0  0  0  0
 29 30  2  0  0  0  0
 31 32  1  0  0  0  0
 33 32  1  1  0  0  0
 34 36  1  0  0  0  0
 34 42  1  0  0  0  0
 36 37  1  6  0  0  0
 36 39  1  0  0  0  0
 40 39  1  1  0  0  0
 40 41  1  0  0  0  0
 40 46  1  0  0  0  0
 41 42  1  1  0  0  0
 41 44  1  0  0  0  0
 42 43  2  0  0  0  0
 44 45  1  0  0  0  0
 46 45  1  6  0  0  0
M  CHG  2   3  -1  35  -1
M  END
>  <CHROM.1>
-28.81369384,-179.42915695,-9.31359402,6.41054050,15.09044297,-0.33034358
-0.07819339,0.16967040

>  <Name>
ligand

>  <RI>
-1

>  <Rbt.Current_Directory>
/home/itssahil/PROJECTS/Mol_Feturizer/Test_systems_manuscript/rnas/3mum

>  <Rbt.Executable>
rbdock ($Id: //depot/dev/client3/rdock/2013.1/src/exe/rbdock.cxx#4 $)

>  <Rbt.Library>
libRbt.so (2013.1, Build901 2013/11/27)

>  <Rbt.Parameter_File>
/export/apps/rDock/src/rDock_2013.1_src/data/scripts/dock_solv.prm

>  <Rbt.Receptor>
prm/pocket_docking_7.prm

>  <SCORE>
-18.6068

>  <SCORE.INTER>
-19.1351

>  <SCORE.INTER.CONST>
1

>  <SCORE.INTER.POLAR>
0

>  <SCORE.INTER.ROT>
2

>  <SCORE.INTER.SOLV>
9.70249

>  <SCORE.INTER.VDW>
-20.9242

>  <SCORE.INTER.norm>
-0.415981

>  <SCORE.INTRA>
0.528345

>  <SCORE.INTRA.DIHEDRAL>
-0.000442213

>  <SCORE.INTRA.DIHEDRAL.0>
2.40424

>  <SCORE.INTRA.POLAR>
0

>  <SCORE.INTRA.POLAR.0>
0

>  <SCORE.INTRA.REPUL>
0

>  <SCORE.INTRA.REPUL.0>
0

>  <SCORE.INTRA.SOLV>
0.0607471

>  <SCORE.INTRA.SOLV.lig_0>
-134.169

>  <SCORE.INTRA.VDW>
0.498193

>  <SCORE.INTRA.VDW.0>
-2.18386

>  <SCORE.INTRA.norm>
0.0114858

>  <SCORE.RESTR>
0

>  <SCORE.RESTR.CAVITY>
0

>  <SCORE.RESTR.norm>
0

>  <SCORE.SYSTEM>
0

>  <SCORE.SYSTEM.CONST>
0

>  <SCORE.SYSTEM.DIHEDRAL>
0

>  <SCORE.SYSTEM.SOLV>
0

>  <SCORE.SYSTEM.norm>
0

>  <SCORE.heavy>
46

>  <SCORE.norm>
-0.404495

>  <RMSD>
6.499

$$$$
ligand
 OpenBabel02271912143D
libRbt.so/2013.1/901 2013/11/27
 46 52  0  0  0  0  0  0  0  0999 V2000
   -7.6262    4.9949   18.0157 P   0  0  1  0  0  0  0  0  0  0  0  0
   -9.1888    9.7028   14.8424 P   0  0  2  0  0  0  0  0  0  0  0  0
   -8.3311    3.5249   17.3200 O   0  5  0  0  0  0  0  0  0  0  0  0
   -6.5698    4.6244   19.4036 O   0  0  0  0  0  0  0  0  0  0  0  0
   -6.1928    7.0274   17.1006 C   0  0  0  0  0  0  0  0  0  0  0  0
   -6.7899    5.7523   16.8641 O   0  0  0  0  0  0  0  0  0  0  0  0
   -5.9168    7.6878   15.7633 C   0  0  1  0  0  0  0  0  0  0  0  0
   -5.1563    6.7947   14.9375 O   0  0  0  0  0  0  0  0  0  0  0  0
   -7.1789    7.9968   14.9746 C   0  0  1  0  0  0  0  0  0  0  0  0
   -7.6787    9.3034   15.2508 O   0  0  0  0  0  0  0  0  0  0  0  0
   -6.7276    7.8541   13.5317 C   0  0  1  0  0  0  0  0  0  0  0  0
   -6.2173    9.1006   13.0519 O   0  0  0  0  0  0  0  0  0  0  0  0
   -5.5921    6.8482   13.5700 C   0  0  2  0  0  0  0  0  0  0  0  0
  -12.1381    6.2646   17.3037 C   0  0  1  0  0  0  0  0  0  0  0  0
   -5.5914    1.6056   14.4115 N   0  0  0  0  0  0  0  0  0  0  0  0
   -4.9575    2.5863   15.1106 C   0  0  1  0  0  0  0  0  0  0  0  0
  -10.8910    5.4394   17.4486 C   0  0  2  0  0  0  0  0  0  0  0  0
   -4.2077    2.2281   16.1784 N   0  0  0  0  0  0  0  0  0  0  0  0
  -11.0299    4.7075   18.6676 O   0  0  0  0  0  0  0  0  0  0  0  0
   -9.7644    6.4512   17.5168 C   0  0  2  0  0  0  0  0  0  0  0  0
   -5.0460    3.9081   14.7765 N   0  0  0  0  0  0  0  0  0  0  0  0
   -8.7584    6.0566   18.4397 O   0  0  0  0  0  0  0  0  0  0  0  0
   -5.7866    4.3189   13.7161 C   0  0  2  0  0  0  0  0  0  0  0  0
  -10.4223    7.7352   17.9829 C   0  0  2  0  0  0  0  0  0  0  0  0
  -11.8060    7.6056   17.6606 O   0  0  0  0  0  0  0  0  0  0  0  0
   -6.4912    3.2966   12.9230 C   0  0  1  0  0  0  0  0  0  0  0  0
   -9.8545    8.9736   17.2985 C   0  0  0  0  0  0  0  0  0  0  0  0
  -10.0908    8.8800   15.8923 O   0  0  0  0  0  0  0  0  0  0  0  0
   -6.3577    1.8873   13.3330 C   0  0  0  0  0  0  0  0  0  0  0  0
   -6.9833    0.9027   12.6394 O   0  0  0  0  0  0  0  0  0  0  0  0
   -7.1365    3.9405   11.9442 N   0  0  0  0  0  0  0  0  0  0  0  0
   -6.8710    5.2716   12.0895 C   0  0  0  0  0  0  0  0  0  0  0  0
   -6.0640    5.5032   13.1463 N   0  0  1  0  0  0  0  0  0  0  0  0
  -14.1869    8.9564   13.3130 N   0  0  0  0  0  0  0  0  0  0  0  0
   -9.5654    9.2079   13.1709 O   0  5  0  0  0  0  0  0  0  0  0  0
  -13.8277    9.3794   14.5560 C   0  0  2  0  0  0  0  0  0  0  0  0
  -13.9901   10.6878   14.8842 N   0  0  0  0  0  0  0  0  0  0  0  0
   -9.5373   11.4312   15.0401 O   0  0  0  0  0  0  0  0  0  0  0  0
  -13.3082    8.5310   15.4848 N   0  0  0  0  0  0  0  0  0  0  0  0
  -13.1165    7.2185   15.2148 C   0  0  2  0  0  0  0  0  0  0  0  0
  -13.4877    6.7019   13.8908 C   0  0  2  0  0  0  0  0  0  0  0  0
  -14.0523    7.6700   12.9265 C   0  0  0  0  0  0  0  0  0  0  0  0
  -14.4265    7.2853   11.6813 O   0  0  0  0  0  0  0  0  0  0  0  0
  -13.2056    5.3840   13.8985 N   0  0  0  0  0  0  0  0  0  0  0  0
  -12.6909    5.0832   15.1280 C   0  0  0  0  0  0  0  0  0  0  0  0
  -12.6425    6.1842   15.9118 N   0  0  1  0  0  0  0  0  0  0  0  0
  1  3  1  6  0  0  0
  1  4  2  0  0  0  0
  1  6  1  0  0  0  0
  1 22  1  0  0  0  0
  2 28  1  0  0  0  0
  2 35  1  6  0  0  0
  2 38  2  0  0  0  0
  2 10  1  0  0  0  0
  5  6  1  0  0  0  0
  7  5  1  1  0  0  0
  7  8  1  0  0  0  0
  7  9  1  0  0  0  0
  9 10  1  6  0  0  0
  9 11  1  0  0  0  0
 11 12  1  1  0  0  0
 11 13  1  0  0  0  0
 13  8  1  1  0  0  0
 13 33  1  0  0  0  0
 14 46  1  0  0  0  0
 14 17  1  0  0  0  0
 14 25  1  6  0  0  0
 15 16  1  0  0  0  0
 15 29  1  0  0  0  0
 16 18  1  6  0  0  0
 16 21  1  0  0  0  0
 17 19  1  1  0  0  0
 17 20  1  0  0  0  0
 20 22  1  1  0  0  0
 20 24  1  0  0  0  0
 23 21  1  6  0  0  0
 23 26  1  0  0  0  0
 23 33  1  0  0  0  0
 24 25  1  6  0  0  0
 24 27  1  0  0  0  0
 26 29  1  1  0  0  0
 26 31  1  0  0  0  0
 27 28  1  0  0  0  0
 29 30  2  0  0  0  0
 31 32  1  0  0  0  0
 33 32  1  1  0  0  0
 34 36  1  0  0  0  0
 34 42  1  0  0  0  0
 36 37  1  6  0  0  0
 36 39  1  0  0  0  0
 40 39  1  1  0  0  0
 40 41  1  0  0  0  0
 40 46  1  0  0  0  0
 41 42  1  1  0  0  0
 41 44  1  0  0  0  0
 42 43  2  0  0  0  0
 44 45  1  0  0  0  0
 46 45  1  6  0  0  0
M  CHG  2   3  -1  35  -1
M  END
>  <CHROM.1>
-19.47660431,-138.19910131,-9.01502107,6.44837207,15.29141409,0.43690297
-0.40317780,2.42479514

>  <Name>
ligand

>  <RI>
-1

>  <Rbt.Current_Directory>
/home/itssahil/PROJECTS/Mol_Feturizer/Test_systems_manuscript/rnas/3mum

>  <Rbt.Executable>
rbdock ($Id: //depot/dev/client3/rdock/2013.1/src/exe/rbdock.cxx#4 $)

>  <Rbt.Library>
libRbt.so (2013.1, Build901 2013/11/27)

>  <Rbt.Parameter_File>
/export/apps/rDock/src/rDock_2013.1_src/data/scripts/dock_solv.prm

>  <Rbt.Receptor>
prm/pocket_docking_7.prm

>  <SCORE>
-19.7376

>  <SCORE.INTER>
-18.9036

>  <SCORE.INTER.CONST>
1

>  <SCORE.INTER.POLAR>
0

>  <SCORE.INTER.ROT>
2

>  <SCORE.INTER.SOLV>
8.36497

>  <SCORE.INTER.VDW>
-20.324

>  <SCORE.INTER.norm>
-0.410947

>  <SCORE.INTRA>
-0.83401

>  <SCORE.INTRA.DIHEDRAL>
0.0216803

>  <SCORE.INTRA.DIHEDRAL.0>
2.40424

>  <SCORE.INTRA.POLAR>
0

>  <SCORE.INTRA.POLAR.0>
0

>  <SCORE.INTRA.REPUL>
0

>  <SCORE.INTRA.REPUL.0>
0

>  <SCORE.INTRA.SOLV>
0.0923504

>  <SCORE.INTRA.SOLV.lig_0>
-134.169

>  <SCORE.INTRA.VDW>
-0.891026

>  <SCORE.INTRA.VDW.0>
-2.18386

>  <SCORE.INTRA.norm>
-0.0181307

>  <SCORE.RESTR>
0

>  <SCORE.RESTR.CAVITY>
0

>  <SCORE.RESTR.norm>
0

>  <SCORE.SYSTEM>
0

>  <SCORE.SYSTEM.CONST>
0

>  <SCORE.SYSTEM.DIHEDRAL>
0

>  <SCORE.SYSTEM.SOLV>
0

>  <SCORE.SYSTEM.norm>
0

>  <SCORE.heavy>
46

>  <SCORE.norm>
-0.429078

>  <RMSD>
6.502

$$$$
ligand
 OpenBabel02271912143D
libRbt.so/2013.1/901 2013/11/27
 46 52  0  0  0  0  0  0  0  0999 V2000
   -7.4846    2.4089   19.4531 P   0  0  1  0  0  0  0  0  0  0  0  0
   -2.8627    5.8653   18.2838 P   0  0  2  0  0  0  0  0  0  0  0  0
   -8.6742    2.5116   18.1431 O   0  5  0  0  0  0  0  0  0  0  0  0
   -7.9708    1.2215   20.6913 O   0  0  0  0  0  0  0  0  0  0  0  0
   -4.8809    1.9437   19.6185 C   0  0  0  0  0  0  0  0  0  0  0  0
   -6.0608    2.0005   18.8166 O   0  0  0  0  0  0  0  0  0  0  0  0
   -3.6718    2.0207   18.7059 C   0  0  1  0  0  0  0  0  0  0  0  0
   -3.7755    1.0134   17.6896 O   0  0  0  0  0  0  0  0  0  0  0  0
   -3.5649    3.3414   17.9611 C   0  0  1  0  0  0  0  0  0  0  0  0
   -2.7911    4.3011   18.6776 O   0  0  0  0  0  0  0  0  0  0  0  0
   -2.9081    2.9459   16.6502 C   0  0  1  0  0  0  0  0  0  0  0  0
   -1.4851    2.9947   16.7804 O   0  0  0  0  0  0  0  0  0  0  0  0
   -3.3244    1.5053   16.4179 C   0  0  2  0  0  0  0  0  0  0  0  0
   -7.8480    7.0860   18.7683 C   0  0  1  0  0  0  0  0  0  0  0  0
   -6.3833    4.0176   12.8790 N   0  0  0  0  0  0  0  0  0  0  0  0
   -5.3734    4.5138   13.6447 C   0  0  1  0  0  0  0  0  0  0  0  0
   -8.1173    5.6088   18.7192 C   0  0  2  0  0  0  0  0  0  0  0  0
   -5.0667    5.8263   13.5267 N   0  0  0  0  0  0  0  0  0  0  0  0
   -9.2841    5.3840   19.5124 O   0  0  0  0  0  0  0  0  0  0  0  0
   -6.8837    4.9711   19.3270 C   0  0  2  0  0  0  0  0  0  0  0  0
   -4.6650    3.7441   14.5236 N   0  0  0  0  0  0  0  0  0  0  0  0
   -7.2145    3.8445   20.1276 O   0  0  0  0  0  0  0  0  0  0  0  0
   -4.9323    2.4226   14.6773 C   0  0  2  0  0  0  0  0  0  0  0  0
   -6.2680    6.0571   20.1871 C   0  0  2  0  0  0  0  0  0  0  0  0
   -6.7643    7.2921   19.6735 O   0  0  0  0  0  0  0  0  0  0  0  0
   -6.0188    1.8355   13.8740 C   0  0  1  0  0  0  0  0  0  0  0  0
   -4.7443    6.0606   20.1355 C   0  0  0  0  0  0  0  0  0  0  0  0
   -4.3228    6.3134   18.7937 O   0  0  0  0  0  0  0  0  0  0  0  0
   -6.7465    2.7163   12.9430 C   0  0  0  0  0  0  0  0  0  0  0  0
   -7.7573    2.2307   12.1784 O   0  0  0  0  0  0  0  0  0  0  0  0
   -6.0910    0.5414   14.2045 N   0  0  0  0  0  0  0  0  0  0  0  0
   -5.1309    0.3084   15.1465 C   0  0  0  0  0  0  0  0  0  0  0  0
   -4.4363    1.4294   15.4334 N   0  0  1  0  0  0  0  0  0  0  0  0
   -9.4292    7.3464   13.7883 N   0  0  0  0  0  0  0  0  0  0  0  0
   -2.7147    6.1023   16.5224 O   0  5  0  0  0  0  0  0  0  0  0  0
  -10.0146    6.7408   14.8576 C   0  0  2  0  0  0  0  0  0  0  0  0
  -11.1944    6.0889   14.6871 N   0  0  0  0  0  0  0  0  0  0  0  0
   -1.6506    6.8569   19.1179 O   0  0  0  0  0  0  0  0  0  0  0  0
   -9.4547    6.7677   16.0978 N   0  0  0  0  0  0  0  0  0  0  0  0
   -8.2845    7.4066   16.3316 C   0  0  2  0  0  0  0  0  0  0  0  0
   -7.6033    8.0766   15.2159 C   0  0  2  0  0  0  0  0  0  0  0  0
   -8.2571    8.0080   13.8916 C   0  0  0  0  0  0  0  0  0  0  0  0
   -7.7020    8.5941   12.8021 O   0  0  0  0  0  0  0  0  0  0  0  0
   -6.4743    8.6128   15.7200 N   0  0  0  0  0  0  0  0  0  0  0  0
   -6.4389    8.3132   17.0527 C   0  0  0  0  0  0  0  0  0  0  0  0
   -7.5232    7.5893   17.4121 N   0  0  1  0  0  0  0  0  0  0  0  0
  1  3  1  6  0  0  0
  1  4  2  0  0  0  0
  1  6  1  0  0  0  0
  1 22  1  0  0  0  0
  2 28  1  0  0  0  0
  2 35  1  6  0  0  0
  2 38  2  0  0  0  0
  2 10  1  0  0  0  0
  5  6  1  0  0  0  0
  7  5  1  1  0  0  0
  7  8  1  0  0  0  0
  7  9  1  0  0  0  0
  9 10  1  1  0  0  0
  9 11  1  0  0  0  0
 11 12  1  1  0  0  0
 11 13  1  0  0  0  0
 13  8  1  1  0  0  0
 13 33  1  0  0  0  0
 14 46  1  0  0  0  0
 14 17  1  0  0  0  0
 14 25  1  1  0  0  0
 15 16  1  0  0  0  0
 15 29  1  0  0  0  0
 16 18  1  1  0  0  0
 16 21  1  0  0  0  0
 17 19  1  1  0  0  0
 17 20  1  0  0  0  0
 20 22  1  1  0  0  0
 20 24  1  0  0  0  0
 23 21  1  1  0  0  0
 23 26  1  0  0  0  0
 23 33  1  0  0  0  0
 24 25  1  6  0  0  0
 24 27  1  0  0  0  0
 26 29  1  6  0  0  0
 26 31  1  0  0  0  0
 27 28  1  0  0  0  0
 29 30  2  0  0  0  0
 31 32  1  0  0  0  0
 33 32  1  6  0  0  0
 34 36  1  0  0  0  0
 34 42  1  0  0  0  0
 36 37  1  1  0  0  0
 36 39  1  0  0  0  0
 40 39  1  6  0  0  0
 40 41  1  0  0  0  0
 40 46  1  0  0  0  0
 41 42  1  6  0  0  0
 41 44  1  0  0  0  0
 42 43  2  0  0  0  0
 44 45  1  0  0  0  0
 46 45  1  1  0  0  0
M  CHG  2   3  -1  35  -1
M  END
>  <CHROM.1>
125.34593500,53.56268318,-6.01109764,4.58219313,16.92290035,0.12699705,-0.88199464
1.09523964

>  <Name>
ligand

>  <RI>
-1

>  <Rbt.Current_Directory>
/home/itssahil/PROJECTS/Mol_Feturizer/Test_systems_manuscript/rnas/3mum

>  <Rbt.Executable>
rbdock ($Id: //depot/dev/client3/rdock/2013.1/src/exe/rbdock.cxx#4 $)

>  <Rbt.Library>
libRbt.so (2013.1, Build901 2013/11/27)

>  <Rbt.Parameter_File>
/export/apps/rDock/src/rDock_2013.1_src/data/scripts/dock_solv.prm

>  <Rbt.Receptor>
prm/pocket_docking_5.prm

>  <SCORE>
-11.527

>  <SCORE.INTER>
-12.386

>  <SCORE.INTER.CONST>
1

>  <SCORE.INTER.POLAR>
0

>  <SCORE.INTER.ROT>
2

>  <SCORE.INTER.SOLV>
14.1465

>  <SCORE.INTER.VDW>
-17.9062

>  <SCORE.INTER.norm>
-0.269261

>  <SCORE.INTRA>
0.858961

>  <SCORE.INTRA.DIHEDRAL>
-0.0149431

>  <SCORE.INTRA.DIHEDRAL.0>
2.40424

>  <SCORE.INTRA.POLAR>
0

>  <SCORE.INTRA.POLAR.0>
0

>  <SCORE.INTRA.REPUL>
0

>  <SCORE.INTRA.REPUL.0>
0

>  <SCORE.INTRA.SOLV>
2.15314

>  <SCORE.INTRA.SOLV.lig_0>
-134.169

>  <SCORE.INTRA.VDW>
-0.210139

>  <SCORE.INTRA.VDW.0>
-2.18386

>  <SCORE.INTRA.norm>
0.0186731

>  <SCORE.RESTR>
0

>  <SCORE.RESTR.CAVITY>
0

>  <SCORE.RESTR.norm>
0

>  <SCORE.SYSTEM>
0

>  <SCORE.SYSTEM.CONST>
0

>  <SCORE.SYSTEM.DIHEDRAL>
0

>  <SCORE.SYSTEM.SOLV>
0

>  <SCORE.SYSTEM.norm>
0

>  <SCORE.heavy>
46

>  <SCORE.norm>
-0.250588

>  <RMSD>
6.570

$$$$
ligand
 OpenBabel02271912143D
libRbt.so/2013.1/901 2013/11/27
 46 52  0  0  0  0  0  0  0  0999 V2000
   -9.1870    4.0819   18.6681 P   0  0  1  0  0  0  0  0  0  0  0  0
   -3.4708    5.1808   19.5588 P   0  0  2  0  0  0  0  0  0  0  0  0
   -9.6615    4.5865   17.0365 O   0  5  0  0  0  0  0  0  0  0  0  0
  -10.5352    3.2975   19.5320 O   0  0  0  0  0  0  0  0  0  0  0  0
   -7.2688    2.5756   19.7048 C   0  0  0  0  0  0  0  0  0  0  0  0
   -7.9386    3.0693   18.5446 O   0  0  0  0  0  0  0  0  0  0  0  0
   -5.8975    2.0735   19.2946 C   0  0  1  0  0  0  0  0  0  0  0  0
   -6.0345    1.1369   18.2167 O   0  0  0  0  0  0  0  0  0  0  0  0
   -4.9891    3.1721   18.7669 C   0  0  1  0  0  0  0  0  0  0  0  0
   -4.2043    3.7630   19.8005 O   0  0  0  0  0  0  0  0  0  0  0  0
   -4.1306    2.4482   17.7446 C   0  0  1  0  0  0  0  0  0  0  0  0
   -2.9706    1.9017   18.3772 O   0  0  0  0  0  0  0  0  0  0  0  0
   -4.9926    1.3049   17.2425 C   0  0  2  0  0  0  0  0  0  0  0  0
   -7.2966    8.4181   18.3500 C   0  0  1  0  0  0  0  0  0  0  0  0
   -6.4581   -0.3530   12.4158 N   0  0  0  0  0  0  0  0  0  0  0  0
   -5.8796   -1.0585   13.4258 C   0  0  1  0  0  0  0  0  0  0  0  0
   -8.1178    7.1922   18.0670 C   0  0  2  0  0  0  0  0  0  0  0  0
   -5.6188   -2.3705   13.2219 N   0  0  0  0  0  0  0  0  0  0  0  0
   -9.4720    7.5346   18.3671 O   0  0  0  0  0  0  0  0  0  0  0  0
   -7.5745    6.1373   19.0103 C   0  0  2  0  0  0  0  0  0  0  0  0
   -5.5516   -0.4966   14.6272 N   0  0  0  0  0  0  0  0  0  0  0  0
   -8.6091    5.3125   19.5287 O   0  0  0  0  0  0  0  0  0  0  0  0
   -5.7943    0.8141   14.8818 C   0  0  2  0  0  0  0  0  0  0  0  0
   -6.9211    6.9188   20.1331 C   0  0  2  0  0  0  0  0  0  0  0  0
   -6.6353    8.2097   19.5972 O   0  0  0  0  0  0  0  0  0  0  0  0
   -6.4167    1.6244   13.8204 C   0  0  1  0  0  0  0  0  0  0  0  0
   -5.6301    6.2765   20.6283 C   0  0  0  0  0  0  0  0  0  0  0  0
   -4.6870    6.2360   19.5555 O   0  0  0  0  0  0  0  0  0  0  0  0
   -6.7479    0.9617   12.5463 C   0  0  0  0  0  0  0  0  0  0  0  0
   -7.3215    1.6585   11.5326 O   0  0  0  0  0  0  0  0  0  0  0  0
   -6.5453    2.8650   14.3034 N   0  0  0  0  0  0  0  0  0  0  0  0
   -6.0457    2.8604   15.5738 C   0  0  0  0  0  0  0  0  0  0  0  0
   -5.5947    1.6375   15.9240 N   0  0  1  0  0  0  0  0  0  0  0  0
   -6.7149    9.0978   13.1956 N   0  0  0  0  0  0  0  0  0  0  0  0
   -2.6102    5.2125   17.9970 O   0  5  0  0  0  0  0  0  0  0  0  0
   -7.8448    8.8842   13.9241 C   0  0  2  0  0  0  0  0  0  0  0  0
   -9.0443    8.8323   13.2882 N   0  0  0  0  0  0  0  0  0  0  0  0
   -2.3498    5.6238   20.8608 O   0  0  0  0  0  0  0  0  0  0  0  0
   -7.8122    8.7208   15.2749 N   0  0  0  0  0  0  0  0  0  0  0  0
   -6.6488    8.7690   15.9651 C   0  0  2  0  0  0  0  0  0  0  0  0
   -5.3951    8.9938   15.2335 C   0  0  2  0  0  0  0  0  0  0  0  0
   -5.4935    9.1582   13.7674 C   0  0  0  0  0  0  0  0  0  0  0  0
   -4.3901    9.3672   13.0076 O   0  0  0  0  0  0  0  0  0  0  0  0
   -4.4071    8.9841   16.1500 N   0  0  0  0  0  0  0  0  0  0  0  0
   -4.9838    8.7742   17.3708 C   0  0  0  0  0  0  0  0  0  0  0  0
   -6.3247    8.6437   17.2534 N   0  0  1  0  0  0  0  0  0  0  0  0
  1  3  1  6  0  0  0
  1  4  2  0  0  0  0
  1  6  1  0  0  0  0
  1 22  1  0  0  0  0
  2 28  1  0  0  0  0
  2 35  1  6  0  0  0
  2 38  2  0  0  0  0
  2 10  1  0  0  0  0
  5  6  1  0  0  0  0
  7  5  1  6  0  0  0
  7  8  1  0  0  0  0
  7  9  1  0  0  0  0
  9 10  1  1  0  0  0
  9 11  1  0  0  0  0
 11 12  1  1  0  0  0
 11 13  1  0  0  0  0
 13  8  1  1  0  0  0
 13 33  1  0  0  0  0
 14 46  1  0  0  0  0
 14 17  1  0  0  0  0
 14 25  1  1  0  0  0
 15 16  1  0  0  0  0
 15 29  1  0  0  0  0
 16 18  1  6  0  0  0
 16 21  1  0  0  0  0
 17 19  1  1  0  0  0
 17 20  1  0  0  0  0
 20 22  1  1  0  0  0
 20 24  1  0  0  0  0
 23 21  1  6  0  0  0
 23 26  1  0  0  0  0
 23 33  1  0  0  0  0
 24 25  1  6  0  0  0
 24 27  1  0  0  0  0
 26 29  1  1  0  0  0
 26 31  1  0  0  0  0
 27 28  1  0  0  0  0
 29 30  2  0  0  0  0
 31 32  1  0  0  0  0
 33 32  1  1  0  0  0
 34 36  1  0  0  0  0
 34 42  1  0  0  0  0
 36 37  1  1  0  0  0
 36 39  1  0  0  0  0
 40 39  1  6  0  0  0
 40 41  1  0  0  0  0
 40 46  1  0  0  0  0
 41 42  1  6  0  0  0
 41 44  1  0  0  0  0
 42 43  2  0  0  0  0
 44 45  1  0  0  0  0
 46 45  1  1  0  0  0
M  CHG  2   3  -1  35  -1
M  END
>  <CHROM.1>
-101.03445686,55.85969500,-6.27233424,4.72936812,16.97644397,-1.83587589
1.35816338,-2.58915868

>  <Name>
ligand

>  <RI>
-1

>  <Rbt.Current_Directory>
/home/itssahil/PROJECTS/Mol_Feturizer/Test_systems_manuscript/rnas/3mum

>  <Rbt.Executable>
rbdock ($Id: //depot/dev/client3/rdock/2013.1/src/exe/rbdock.cxx#4 $)

>  <Rbt.Library>
libRbt.so (2013.1, Build901 2013/11/27)

>  <Rbt.Parameter_File>
/export/apps/rDock/src/rDock_2013.1_src/data/scripts/dock_solv.prm

>  <Rbt.Receptor>
prm/pocket_docking_7.prm

>  <SCORE>
-15.2361

>  <SCORE.INTER>
-15.3232

>  <SCORE.INTER.CONST>
1

>  <SCORE.INTER.POLAR>
0

>  <SCORE.INTER.ROT>
2

>  <SCORE.INTER.SOLV>
23.8002

>  <SCORE.INTER.VDW>
-23.0822

>  <SCORE.INTER.norm>
-0.333112

>  <SCORE.INTRA>
0.0870364

>  <SCORE.INTRA.DIHEDRAL>
-0.0138108

>  <SCORE.INTRA.DIHEDRAL.0>
2.40424

>  <SCORE.INTRA.POLAR>
0

>  <SCORE.INTRA.POLAR.0>
0

>  <SCORE.INTRA.REPUL>
0

>  <SCORE.INTRA.REPUL.0>
0

>  <SCORE.INTRA.SOLV>
0.00671088

>  <SCORE.INTRA.SOLV.lig_0>
-134.169

>  <SCORE.INTRA.VDW>
0.0905863

>  <SCORE.INTRA.VDW.0>
-2.18386

>  <SCORE.INTRA.norm>
0.0018921

>  <SCORE.RESTR>
0

>  <SCORE.RESTR.CAVITY>
0

>  <SCORE.RESTR.norm>
0

>  <SCORE.SYSTEM>
0

>  <SCORE.SYSTEM.CONST>
0

>  <SCORE.SYSTEM.DIHEDRAL>
0

>  <SCORE.SYSTEM.SOLV>
0

>  <SCORE.SYSTEM.norm>
0

>  <SCORE.heavy>
46

>  <SCORE.norm>
-0.33122

>  <RMSD>
6.781

$$$$
ligand
 OpenBabel02271912143D
libRbt.so/2013.1/901 2013/11/27
 46 52  0  0  0  0  0  0  0  0999 V2000
   -8.3127    4.2256   18.4418 P   0  0  1  0  0  0  0  0  0  0  0  0
   -4.6525    8.0171   15.8143 P   0  0  2  0  0  0  0  0  0  0  0  0
   -9.3608    3.4519   17.2398 O   0  5  0  0  0  0  0  0  0  0  0  0
   -8.5890    3.5677   20.0758 O   0  0  0  0  0  0  0  0  0  0  0  0
   -5.7043    4.6010   18.7225 C   0  0  0  0  0  0  0  0  0  0  0  0
   -6.7787    3.9986   18.0006 O   0  0  0  0  0  0  0  0  0  0  0  0
   -4.4765    4.6243   17.8322 C   0  0  1  0  0  0  0  0  0  0  0  0
   -4.2212    3.3027   17.3360 O   0  0  0  0  0  0  0  0  0  0  0  0
   -4.6455    5.4969   16.5992 C   0  0  1  0  0  0  0  0  0  0  0  0
   -4.2163    6.8374   16.8268 O   0  0  0  0  0  0  0  0  0  0  0  0
   -3.7895    4.7946   15.5598 C   0  0  1  0  0  0  0  0  0  0  0  0
   -2.4459    5.2798   15.6220 O   0  0  0  0  0  0  0  0  0  0  0  0
   -3.7959    3.3322   15.9646 C   0  0  2  0  0  0  0  0  0  0  0  0
   -9.8066    7.9140   15.8648 C   0  0  1  0  0  0  0  0  0  0  0  0
   -7.3945    3.3401   12.0604 N   0  0  0  0  0  0  0  0  0  0  0  0
   -6.6761    4.3795   12.5664 C   0  0  1  0  0  0  0  0  0  0  0  0
   -9.6793    6.5351   16.4476 C   0  0  2  0  0  0  0  0  0  0  0  0
   -6.8697    5.6091   12.0361 N   0  0  0  0  0  0  0  0  0  0  0  0
  -10.8171    6.3458   17.2905 O   0  0  0  0  0  0  0  0  0  0  0  0
   -8.3851    6.5671   17.2361 C   0  0  2  0  0  0  0  0  0  0  0  0
   -5.7762    4.2307   13.5837 N   0  0  0  0  0  0  0  0  0  0  0  0
   -8.4868    5.8251   18.4438 O   0  0  0  0  0  0  0  0  0  0  0  0
   -5.5445    3.0184   14.1478 C   0  0  2  0  0  0  0  0  0  0  0  0
   -8.1540    8.0333   17.5449 C   0  0  2  0  0  0  0  0  0  0  0  0
   -8.9023    8.7611   16.5725 O   0  0  0  0  0  0  0  0  0  0  0  0
   -6.2986    1.8597   13.6390 C   0  0  1  0  0  0  0  0  0  0  0  0
   -6.6849    8.4320   17.4588 C   0  0  0  0  0  0  0  0  0  0  0  0
   -6.2198    8.2167   16.1249 O   0  0  0  0  0  0  0  0  0  0  0  0
   -7.2549    2.0831   12.5400 C   0  0  0  0  0  0  0  0  0  0  0  0
   -7.9780    1.0531   12.0319 O   0  0  0  0  0  0  0  0  0  0  0  0
   -5.9042    0.7969   14.3489 N   0  0  0  0  0  0  0  0  0  0  0  0
   -4.9715    1.2311   15.2462 C   0  0  0  0  0  0  0  0  0  0  0  0
   -4.7535    2.5580   15.1310 N   0  0  1  0  0  0  0  0  0  0  0  0
  -11.8155    7.5245   11.0501 N   0  0  0  0  0  0  0  0  0  0  0  0
   -4.4070    7.5410   14.1132 O   0  5  0  0  0  0  0  0  0  0  0  0
  -12.4398    7.4970   12.2594 C   0  0  2  0  0  0  0  0  0  0  0  0
  -13.7903    7.3555   12.3058 N   0  0  0  0  0  0  0  0  0  0  0  0
   -3.8210    9.5535   16.1242 O   0  0  0  0  0  0  0  0  0  0  0  0
  -11.7525    7.6078   13.4289 N   0  0  0  0  0  0  0  0  0  0  0  0
  -10.4074    7.7576   13.4471 C   0  0  2  0  0  0  0  0  0  0  0  0
   -9.6770    7.7917   12.1731 C   0  0  2  0  0  0  0  0  0  0  0  0
  -10.4772    7.6607   10.9368 C   0  0  0  0  0  0  0  0  0  0  0  0
   -9.8906    7.6783    9.7144 O   0  0  0  0  0  0  0  0  0  0  0  0
   -8.3727    7.9359   12.4805 N   0  0  0  0  0  0  0  0  0  0  0  0
   -8.2776    7.9939   13.8424 C   0  0  0  0  0  0  0  0  0  0  0  0
   -9.4978    7.8841   14.4151 N   0  0  1  0  0  0  0  0  0  0  0  0
  1  3  1  6  0  0  0
  1  4  2  0  0  0  0
  1  6  1  0  0  0  0
  1 22  1  0  0  0  0
  2 28  1  0  0  0  0
  2 35  1  6  0  0  0
  2 38  2  0  0  0  0
  2 10  1  0  0  0  0
  5  6  1  0  0  0  0
  7  5  1  1  0  0  0
  7  8  1  0  0  0  0
  7  9  1  0  0  0  0
  9 10  1  1  0  0  0
  9 11  1  0  0  0  0
 11 12  1  1  0  0  0
 11 13  1  0  0  0  0
 13  8  1  1  0  0  0
 13 33  1  0  0  0  0
 14 46  1  0  0  0  0
 14 17  1  0  0  0  0
 14 25  1  1  0  0  0
 15 16  1  0  0  0  0
 15 29  1  0  0  0  0
 16 18  1  1  0  0  0
 16 21  1  0  0  0  0
 17 19  1  1  0  0  0
 17 20  1  0  0  0  0
 20 22  1  1  0  0  0
 20 24  1  0  0  0  0
 23 21  1  1  0  0  0
 23 26  1  0  0  0  0
 23 33  1  0  0  0  0
 24 25  1  6  0  0  0
 24 27  1  0  0  0  0
 26 29  1  6  0  0  0
 26 31  1  0  0  0  0
 27 28  1  0  0  0  0
 29 30  2  0  0  0  0
 31 32  1  0  0  0  0
 33 32  1  6  0  0  0
 34 36  1  0  0  0  0
 34 42  1  0  0  0  0
 36 37  1  6  0  0  0
 36 39  1  0  0  0  0
 40 39  1  1  0  0  0
 40 41  1  0  0  0  0
 40 46  1  0  0  0  0
 41 42  1  1  0  0  0
 41 44  1  0  0  0  0
 42 43  2  0  0  0  0
 44 45  1  0  0  0  0
 46 45  1  6  0  0  0
M  CHG  2   3  -1  35  -1
M  END
>  <CHROM.1>
116.04349498,94.21656828,-7.35451983,5.69690884,15.20297511,0.14464233,-0.72051240
0.89236603

>  <Name>
ligand

>  <RI>
-1

>  <Rbt.Current_Directory>
/home/itssahil/PROJECTS/Mol_Feturizer/Test_systems_manuscript/rnas/3mum

>  <Rbt.Executable>
rbdock ($Id: //depot/dev/client3/rdock/2013.1/src/exe/rbdock.cxx#4 $)

>  <Rbt.Library>
libRbt.so (2013.1, Build901 2013/11/27)

>  <Rbt.Parameter_File>
/export/apps/rDock/src/rDock_2013.1_src/data/scripts/dock_solv.prm

>  <Rbt.Receptor>
prm/pocket_docking_7.prm

>  <SCORE>
-14.3526

>  <SCORE.INTER>
-15.3735

>  <SCORE.INTER.CONST>
1

>  <SCORE.INTER.POLAR>
0

>  <SCORE.INTER.ROT>
2

>  <SCORE.INTER.SOLV>
17.2886

>  <SCORE.INTER.VDW>
-20.9452

>  <SCORE.INTER.norm>
-0.334207

>  <SCORE.INTRA>
1.02091

>  <SCORE.INTRA.DIHEDRAL>
0.0235482

>  <SCORE.INTRA.DIHEDRAL.0>
2.40424

>  <SCORE.INTRA.POLAR>
0

>  <SCORE.INTRA.POLAR.0>
0

>  <SCORE.INTRA.REPUL>
0

>  <SCORE.INTRA.REPUL.0>
0

>  <SCORE.INTRA.SOLV>
3.41315

>  <SCORE.INTRA.SOLV.lig_0>
-134.169

>  <SCORE.INTRA.VDW>
-0.697433

>  <SCORE.INTRA.VDW.0>
-2.18386

>  <SCORE.INTRA.norm>
0.0221938

>  <SCORE.RESTR>
0

>  <SCORE.RESTR.CAVITY>
0

>  <SCORE.RESTR.norm>
0

>  <SCORE.SYSTEM>
0

>  <SCORE.SYSTEM.CONST>
0

>  <SCORE.SYSTEM.DIHEDRAL>
0

>  <SCORE.SYSTEM.SOLV>
0

>  <SCORE.SYSTEM.norm>
0

>  <SCORE.heavy>
46

>  <SCORE.norm>
-0.312013

>  <RMSD>
6.788

$$$$
ligand
 OpenBabel02271912143D
libRbt.so/2013.1/901 2013/11/27
 46 52  0  0  0  0  0  0  0  0999 V2000
   -2.2296    4.6073   18.8065 P   0  0  1  0  0  0  0  0  0  0  0  0
   -7.8545    2.8790   18.5839 P   0  0  2  0  0  0  0  0  0  0  0  0
   -1.6755    5.1007   17.1968 O   0  5  0  0  0  0  0  0  0  0  0  0
   -0.9727    4.8696   20.0437 O   0  0  0  0  0  0  0  0  0  0  0  0
   -4.2910    5.1945   20.3652 C   0  0  0  0  0  0  0  0  0  0  0  0
   -3.5546    5.4512   19.1693 O   0  0  0  0  0  0  0  0  0  0  0  0
   -5.6890    5.7603   20.2032 C   0  0  1  0  0  0  0  0  0  0  0  0
   -5.6043    7.1389   19.8154 O   0  0  0  0  0  0  0  0  0  0  0  0
   -6.4899    5.0771   19.1068 C   0  0  1  0  0  0  0  0  0  0  0  0
   -7.2475    3.9753   19.6019 O   0  0  0  0  0  0  0  0  0  0  0  0
   -7.3806    6.1909   18.5852 C   0  0  1  0  0  0  0  0  0  0  0  0
   -8.5970    6.2380   19.3353 O   0  0  0  0  0  0  0  0  0  0  0  0
   -6.6047    7.4699   18.8395 C   0  0  2  0  0  0  0  0  0  0  0  0
   -3.7446    1.0452   16.0692 C   0  0  1  0  0  0  0  0  0  0  0  0
   -6.7460    7.8817   13.5477 N   0  0  0  0  0  0  0  0  0  0  0  0
   -7.6513    7.3097   14.3877 C   0  0  1  0  0  0  0  0  0  0  0  0
   -3.0216    2.2716   16.5493 C   0  0  2  0  0  0  0  0  0  0  0  0
   -8.7602    6.7521   13.8491 N   0  0  0  0  0  0  0  0  0  0  0  0
   -1.6513    1.8984   16.7042 O   0  0  0  0  0  0  0  0  0  0  0  0
   -3.6734    2.6098   17.8754 C   0  0  2  0  0  0  0  0  0  0  0  0
   -7.4833    7.2744   15.7431 N   0  0  0  0  0  0  0  0  0  0  0  0
   -2.7238    3.0762   18.8241 O   0  0  0  0  0  0  0  0  0  0  0  0
   -6.3898    7.8212   16.3321 C   0  0  2  0  0  0  0  0  0  0  0  0
   -4.2865    1.3073   18.3509 C   0  0  2  0  0  0  0  0  0  0  0  0
   -4.4509    0.5028   17.1842 O   0  0  0  0  0  0  0  0  0  0  0  0
   -5.3767    8.4508   15.4675 C   0  0  1  0  0  0  0  0  0  0  0  0
   -5.6380    1.5020   19.0290 C   0  0  0  0  0  0  0  0  0  0  0  0
   -6.5550    2.0667   18.0898 O   0  0  0  0  0  0  0  0  0  0  0  0
   -5.6142    8.4580   14.0130 C   0  0  0  0  0  0  0  0  0  0  0  0
   -4.7149    9.0229   13.1679 O   0  0  0  0  0  0  0  0  0  0  0  0
   -4.4074    8.9034   16.2705 N   0  0  0  0  0  0  0  0  0  0  0  0
   -4.7620    8.5915   17.5513 C   0  0  0  0  0  0  0  0  0  0  0  0
   -5.9454    7.9438   17.5937 N   0  0  1  0  0  0  0  0  0  0  0  0
   -6.8724   -0.8278   12.3173 N   0  0  0  0  0  0  0  0  0  0  0  0
   -8.6715    3.6543   17.2011 O   0  5  0  0  0  0  0  0  0  0  0  0
   -6.0974   -1.4924   13.2176 C   0  0  2  0  0  0  0  0  0  0  0  0
   -6.0851   -2.8509   13.2073 N   0  0  0  0  0  0  0  0  0  0  0  0
   -8.9660    1.7357   19.3622 O   0  0  0  0  0  0  0  0  0  0  0  0
   -5.3314   -0.8376   14.1324 N   0  0  0  0  0  0  0  0  0  0  0  0
   -5.3069    0.5143   14.1963 C   0  0  2  0  0  0  0  0  0  0  0  0
   -6.1205    1.2872   13.2484 C   0  0  2  0  0  0  0  0  0  0  0  0
   -6.9268    0.5204   12.2748 C   0  0  0  0  0  0  0  0  0  0  0  0
   -7.7067    1.1469   11.3595 O   0  0  0  0  0  0  0  0  0  0  0  0
   -5.9015    2.5881   13.5242 N   0  0  0  0  0  0  0  0  0  0  0  0
   -5.0215    2.6423   14.5681 C   0  0  0  0  0  0  0  0  0  0  0  0
   -4.6675    1.3986   14.9641 N   0  0  1  0  0  0  0  0  0  0  0  0
  1  3  1  6  0  0  0
  1  4  2  0  0  0  0
  1  6  1  0  0  0  0
  1 22  1  0  0  0  0
  2 28  1  0  0  0  0
  2 35  1  6  0  0  0
  2 38  2  0  0  0  0
  2 10  1  0  0  0  0
  5  6  1  0  0  0  0
  7  5  1  6  0  0  0
  7  8  1  0  0  0  0
  7  9  1  0  0  0  0
  9 10  1  1  0  0  0
  9 11  1  0  0  0  0
 11 12  1  1  0  0  0
 11 13  1  0  0  0  0
 13  8  1  1  0  0  0
 13 33  1  0  0  0  0
 14 46  1  0  0  0  0
 14 17  1  0  0  0  0
 14 25  1  1  0  0  0
 15 16  1  0  0  0  0
 15 29  1  0  0  0  0
 16 18  1  6  0  0  0
 16 21  1  0  0  0  0
 17 19  1  1  0  0  0
 17 20  1  0  0  0  0
 20 22  1  1  0  0  0
 20 24  1  0  0  0  0
 23 21  1  6  0  0  0
 23 26  1  0  0  0  0
 23 33  1  0  0  0  0
 24 25  1  6  0  0  0
 24 27  1  0  0  0  0
 26 29  1  1  0  0  0
 26 31  1  0  0  0  0
 27 28  1  0  0  0  0
 29 30  2  0  0  0  0
 31 32  1  0  0  0  0
 33 32  1  1  0  0  0
 34 36  1  0  0  0  0
 34 42  1  0  0  0  0
 36 37  1  1  0  0  0
 36 39  1  0  0  0  0
 40 39  1  6  0  0  0
 40 41  1  0  0  0  0
 40 46  1  0  0  0  0
 41 42  1  6  0  0  0
 41 44  1  0  0  0  0
 42 43  2  0  0  0  0
 44 45  1  0  0  0  0
 46 45  1  1  0  0  0
M  CHG  2   3  -1  35  -1
M  END
>  <CHROM.1>
149.60842345,169.83785545,-5.50839811,3.97757975,16.71254911,-1.44091432
1.05240079,-2.77200955

>  <Name>
ligand

>  <RI>
-1

>  <Rbt.Current_Directory>
/home/itssahil/PROJECTS/Mol_Feturizer/Test_systems_manuscript/rnas/3mum

>  <Rbt.Executable>
rbdock ($Id: //depot/dev/client3/rdock/2013.1/src/exe/rbdock.cxx#4 $)

>  <Rbt.Library>
libRbt.so (2013.1, Build901 2013/11/27)

>  <Rbt.Parameter_File>
/export/apps/rDock/src/rDock_2013.1_src/data/scripts/dock_solv.prm

>  <Rbt.Receptor>
prm/pocket_docking_8.prm

>  <SCORE>
-14.9374

>  <SCORE.INTER>
-15.585

>  <SCORE.INTER.CONST>
1

>  <SCORE.INTER.POLAR>
0

>  <SCORE.INTER.ROT>
2

>  <SCORE.INTER.SOLV>
23.4838

>  <SCORE.INTER.VDW>
-23.1513

>  <SCORE.INTER.norm>
-0.338805

>  <SCORE.INTRA>
0.647623

>  <SCORE.INTRA.DIHEDRAL>
-0.0223853

>  <SCORE.INTRA.DIHEDRAL.0>
2.40424

>  <SCORE.INTRA.POLAR>
0

>  <SCORE.INTRA.POLAR.0>
0

>  <SCORE.INTRA.REPUL>
0

>  <SCORE.INTRA.REPUL.0>
0

>  <SCORE.INTRA.SOLV>
0.0391689

>  <SCORE.INTRA.SOLV.lig_0>
-134.169

>  <SCORE.INTRA.VDW>
0.639231

>  <SCORE.INTRA.VDW.0>
-2.18386

>  <SCORE.INTRA.norm>
0.0140788

>  <SCORE.RESTR>
0

>  <SCORE.RESTR.CAVITY>
0

>  <SCORE.RESTR.norm>
0

>  <SCORE.SYSTEM>
0

>  <SCORE.SYSTEM.CONST>
0

>  <SCORE.SYSTEM.DIHEDRAL>
0

>  <SCORE.SYSTEM.SOLV>
0

>  <SCORE.SYSTEM.norm>
0

>  <SCORE.heavy>
46

>  <SCORE.norm>
-0.324726

>  <RMSD>
6.864

$$$$
ligand
 OpenBabel02271912143D
libRbt.so/2013.1/901 2013/11/27
 46 52  0  0  0  0  0  0  0  0999 V2000
   -6.7784    4.8962   13.7253 P   0  0  1  0  0  0  0  0  0  0  0  0
   -2.8275    5.7968   17.9980 P   0  0  2  0  0  0  0  0  0  0  0  0
   -8.1863    4.0298   14.3647 O   0  5  0  0  0  0  0  0  0  0  0  0
   -6.9998    5.3370   12.0119 O   0  0  0  0  0  0  0  0  0  0  0  0
   -5.4178    7.0666   14.4048 C   0  0  0  0  0  0  0  0  0  0  0  0
   -6.5474    6.2195   14.6169 O   0  0  0  0  0  0  0  0  0  0  0  0
   -5.2031    7.9070   15.6492 C   0  0  1  0  0  0  0  0  0  0  0  0
   -6.4239    8.5805   15.9871 O   0  0  0  0  0  0  0  0  0  0  0  0
   -4.8394    7.0838   16.8741 C   0  0  1  0  0  0  0  0  0  0  0  0
   -3.4291    6.9314   17.0195 O   0  0  0  0  0  0  0  0  0  0  0  0
   -5.4460    7.8792   18.0167 C   0  0  1  0  0  0  0  0  0  0  0  0
   -4.5095    8.8509   18.4892 O   0  0  0  0  0  0  0  0  0  0  0  0
   -6.6316    8.6047   17.4080 C   0  0  2  0  0  0  0  0  0  0  0  0
   -4.7775    1.3783   16.1946 C   0  0  1  0  0  0  0  0  0  0  0  0
  -11.9393    8.6119   17.2625 N   0  0  0  0  0  0  0  0  0  0  0  0
  -11.0676    9.5499   16.8013 C   0  0  1  0  0  0  0  0  0  0  0  0
   -5.7901    2.2268   15.4791 C   0  0  2  0  0  0  0  0  0  0  0  0
  -11.5733   10.6602   16.2162 N   0  0  0  0  0  0  0  0  0  0  0  0
   -6.1327    1.5250   14.2828 O   0  0  0  0  0  0  0  0  0  0  0  0
   -5.0680    3.5277   15.1894 C   0  0  2  0  0  0  0  0  0  0  0  0
   -9.7121    9.4161   16.9084 N   0  0  0  0  0  0  0  0  0  0  0  0
   -5.4214    4.0532   13.9172 O   0  0  0  0  0  0  0  0  0  0  0  0
   -9.1555    8.3209   17.4849 C   0  0  2  0  0  0  0  0  0  0  0  0
   -3.5952    3.1687   15.2124 C   0  0  2  0  0  0  0  0  0  0  0  0
   -3.4966    1.9682   15.9770 O   0  0  0  0  0  0  0  0  0  0  0  0
  -10.0550    7.2760   18.0039 C   0  0  1  0  0  0  0  0  0  0  0  0
   -2.7319    4.2508   15.8513 C   0  0  0  0  0  0  0  0  0  0  0  0
   -3.1319    4.4247   17.2122 O   0  0  0  0  0  0  0  0  0  0  0  0
  -11.5078    7.4771   17.8588 C   0  0  0  0  0  0  0  0  0  0  0  0
  -12.3842    6.5485   18.3191 O   0  0  0  0  0  0  0  0  0  0  0  0
   -9.2793    6.3175   18.5221 N   0  0  0  0  0  0  0  0  0  0  0  0
   -7.9824    6.7093   18.3544 C   0  0  0  0  0  0  0  0  0  0  0  0
   -7.9028    7.9063   17.7359 N   0  0  1  0  0  0  0  0  0  0  0  0
   -8.2054    2.7519   19.9002 N   0  0  0  0  0  0  0  0  0  0  0  0
   -3.6427    5.8038   19.5842 O   0  5  0  0  0  0  0  0  0  0  0  0
   -8.2110    3.0201   18.5656 C   0  0  2  0  0  0  0  0  0  0  0  0
   -9.2324    3.7449   18.0389 N   0  0  0  0  0  0  0  0  0  0  0  0
   -1.0739    5.9289   18.2337 O   0  0  0  0  0  0  0  0  0  0  0  0
   -7.2229    2.5835   17.7378 N   0  0  0  0  0  0  0  0  0  0  0  0
   -6.1832    1.8519   18.2023 C   0  0  2  0  0  0  0  0  0  0  0  0
   -6.1202    1.5326   19.6347 C   0  0  2  0  0  0  0  0  0  0  0  0
   -7.2190    2.0392   20.4844 C   0  0  0  0  0  0  0  0  0  0  0  0
   -7.2452    1.7971   21.8183 O   0  0  0  0  0  0  0  0  0  0  0  0
   -4.9939    0.8161   19.8205 N   0  0  0  0  0  0  0  0  0  0  0  0
   -4.3876    0.6842   18.6031 C   0  0  0  0  0  0  0  0  0  0  0  0
   -5.1024    1.3081   17.6395 N   0  0  1  0  0  0  0  0  0  0  0  0
  1  3  1  1  0  0  0
  1  4  2  0  0  0  0
  1  6  1  0  0  0  0
  1 22  1  0  0  0  0
  2 28  1  0  0  0  0
  2 35  1  1  0  0  0
  2 38  2  0  0  0  0
  2 10  1  0  0  0  0
  5  6  1  0  0  0  0
  7  5  1  6  0  0  0
  7  8  1  0  0  0  0
  7  9  1  0  0  0  0
  9 10  1  1  0  0  0
  9 11  1  0  0  0  0
 11 12  1  6  0  0  0
 11 13  1  0  0  0  0
 13  8  1  6  0  0  0
 13 33  1  0  0  0  0
 14 46  1  0  0  0  0
 14 17  1  0  0  0  0
 14 25  1  1  0  0  0
 15 16  1  0  0  0  0
 15 29  1  0  0  0  0
 16 18  1  1  0  0  0
 16 21  1  0  0  0  0
 17 19  1  6  0  0  0
 17 20  1  0  0  0  0
 20 22  1  6  0  0  0
 20 24  1  0  0  0  0
 23 21  1  1  0  0  0
 23 26  1  0  0  0  0
 23 33  1  0  0  0  0
 24 25  1  1  0  0  0
 24 27  1  0  0  0  0
 26 29  1  6  0  0  0
 26 31  1  0  0  0  0
 27 28  1  0  0  0  0
 29 30  2  0  0  0  0
 31 32  1  0  0  0  0
 33 32  1  6  0  0  0
 34 36  1  0  0  0  0
 34 42  1  0  0  0  0
 36 37  1  6  0  0  0
 36 39  1  0  0  0  0
 40 39  1  1  0  0  0
 40 41  1  0  0  0  0
 40 46  1  0  0  0  0
 41 42  1  1  0  0  0
 41 44  1  0  0  0  0
 42 43  2  0  0  0  0
 44 45  1  0  0  0  0
 46 45  1  6  0  0  0
M  CHG  2   3  -1  35  -1
M  END
>  <CHROM.1>
-70.51709208,3.83900091,-6.46385945,5.19787902,17.00824636,-2.42940429,-0.37282692
2.68962197

>  <Name>
ligand

>  <RI>
-1

>  <Rbt.Current_Directory>
/home/itssahil/PROJECTS/Mol_Feturizer/Test_systems_manuscript/rnas/3mum

>  <Rbt.Executable>
rbdock ($Id: //depot/dev/client3/rdock/2013.1/src/exe/rbdock.cxx#4 $)

>  <Rbt.Library>
libRbt.so (2013.1, Build901 2013/11/27)

>  <Rbt.Parameter_File>
/export/apps/rDock/src/rDock_2013.1_src/data/scripts/dock_solv.prm

>  <Rbt.Receptor>
prm/pocket_docking_6.prm

>  <SCORE>
-9.38982

>  <SCORE.INTER>
-12.2263

>  <SCORE.INTER.CONST>
1

>  <SCORE.INTER.POLAR>
0

>  <SCORE.INTER.ROT>
2

>  <SCORE.INTER.SOLV>
16.2691

>  <SCORE.INTER.VDW>
-18.5072

>  <SCORE.INTER.norm>
-0.265789

>  <SCORE.INTRA>
2.83649

>  <SCORE.INTRA.DIHEDRAL>
-0.0110237

>  <SCORE.INTRA.DIHEDRAL.0>
2.40424

>  <SCORE.INTRA.POLAR>
0

>  <SCORE.INTRA.POLAR.0>
0

>  <SCORE.INTRA.REPUL>
0

>  <SCORE.INTRA.REPUL.0>
0

>  <SCORE.INTRA.SOLV>
3.5017

>  <SCORE.INTRA.SOLV.lig_0>
-134.169

>  <SCORE.INTRA.VDW>
1.09115

>  <SCORE.INTRA.VDW.0>
-2.18386

>  <SCORE.INTRA.norm>
0.0616628

>  <SCORE.RESTR>
0

>  <SCORE.RESTR.CAVITY>
0

>  <SCORE.RESTR.norm>
0

>  <SCORE.SYSTEM>
0

>  <SCORE.SYSTEM.CONST>
0

>  <SCORE.SYSTEM.DIHEDRAL>
0

>  <SCORE.SYSTEM.SOLV>
0

>  <SCORE.SYSTEM.norm>
0

>  <SCORE.heavy>
46

>  <SCORE.norm>
-0.204127

>  <RMSD>
6.896

$$$$
ligand
 OpenBabel02271912143D
libRbt.so/2013.1/901 2013/11/27
 46 52  0  0  0  0  0  0  0  0999 V2000
   -2.5996    6.1482   17.8279 P   0  0  1  0  0  0  0  0  0  0  0  0
   -6.7095    5.2705   13.7030 P   0  0  2  0  0  0  0  0  0  0  0  0
   -3.2686    5.8286   19.4379 O   0  5  0  0  0  0  0  0  0  0  0  0
   -0.8618    6.5399   17.9038 O   0  0  0  0  0  0  0  0  0  0  0  0
   -2.4978    4.8438   15.5233 C   0  0  0  0  0  0  0  0  0  0  0  0
   -2.8385    4.8447   16.9097 O   0  0  0  0  0  0  0  0  0  0  0  0
   -3.2562    3.7222   14.8396 C   0  0  1  0  0  0  0  0  0  0  0  0
   -3.0157    2.4902   15.5342 O   0  0  0  0  0  0  0  0  0  0  0  0
   -4.7637    3.9154   14.8629 C   0  0  1  0  0  0  0  0  0  0  0  0
   -5.2333    4.6165   13.7135 O   0  0  0  0  0  0  0  0  0  0  0  0
   -5.2930    2.4931   14.9168 C   0  0  1  0  0  0  0  0  0  0  0  0
   -5.4585    1.9809   13.5921 O   0  0  0  0  0  0  0  0  0  0  0  0
   -4.2079    1.6933   15.6135 C   0  0  2  0  0  0  0  0  0  0  0  0
   -6.7089    8.5100   17.7135 C   0  0  1  0  0  0  0  0  0  0  0  0
   -2.6640    0.0234   20.4115 N   0  0  0  0  0  0  0  0  0  0  0  0
   -1.9549    0.0702   19.2507 C   0  0  1  0  0  0  0  0  0  0  0  0
   -5.5095    7.7508   18.2057 C   0  0  2  0  0  0  0  0  0  0  0  0
   -0.6718   -0.3589   19.2673 N   0  0  0  0  0  0  0  0  0  0  0  0
   -4.7068    8.6867   18.9274 O   0  0  0  0  0  0  0  0  0  0  0  0
   -4.8203    7.2599   16.9480 C   0  0  2  0  0  0  0  0  0  0  0  0
   -2.4857    0.5274   18.0777 N   0  0  0  0  0  0  0  0  0  0  0  0
   -3.4054    7.3153   17.0680 O   0  0  0  0  0  0  0  0  0  0  0  0
   -3.7665    0.9704   18.0092 C   0  0  2  0  0  0  0  0  0  0  0  0
   -5.2866    8.2024   15.8559 C   0  0  2  0  0  0  0  0  0  0  0  0
   -6.5066    8.7734   16.3257 O   0  0  0  0  0  0  0  0  0  0  0  0
   -4.5795    0.9383   19.2374 C   0  0  1  0  0  0  0  0  0  0  0  0
   -5.5344    7.4942   14.5287 C   0  0  0  0  0  0  0  0  0  0  0  0
   -6.5703    6.5253   14.7025 O   0  0  0  0  0  0  0  0  0  0  0  0
   -3.9511    0.4348   20.4718 C   0  0  0  0  0  0  0  0  0  0  0  0
   -4.6520    0.3812   21.6328 O   0  0  0  0  0  0  0  0  0  0  0  0
   -5.7882    1.4125   18.9161 N   0  0  0  0  0  0  0  0  0  0  0  0
   -5.7620    1.7252   17.5875 C   0  0  0  0  0  0  0  0  0  0  0  0
   -4.5566    1.4621   17.0405 N   0  0  1  0  0  0  0  0  0  0  0  0
  -11.9380    8.5572   17.5626 N   0  0  0  0  0  0  0  0  0  0  0  0
   -7.9356    4.1237   14.3049 O   0  5  0  0  0  0  0  0  0  0  0  0
  -11.0493    9.5491   17.2808 C   0  0  2  0  0  0  0  0  0  0  0  0
  -11.5137   10.7641   16.8881 N   0  0  0  0  0  0  0  0  0  0  0  0
   -7.1990    5.8769   12.1091 O   0  0  0  0  0  0  0  0  0  0  0  0
   -9.7048    9.3627   17.3794 N   0  0  0  0  0  0  0  0  0  0  0  0
   -9.1818    8.1733   17.7589 C   0  0  2  0  0  0  0  0  0  0  0  0
  -10.0909    7.0648   18.0791 C   0  0  2  0  0  0  0  0  0  0  0  0
  -11.5406    7.3296   17.9593 C   0  0  0  0  0  0  0  0  0  0  0  0
  -12.4561    6.3686   18.2364 O   0  0  0  0  0  0  0  0  0  0  0  0
   -9.3157    6.0204   18.4321 N   0  0  0  0  0  0  0  0  0  0  0  0
   -8.0146    6.4275   18.3404 C   0  0  0  0  0  0  0  0  0  0  0  0
   -7.9410    7.7170   17.9397 N   0  0  1  0  0  0  0  0  0  0  0  0
  1  3  1  1  0  0  0
  1  4  2  0  0  0  0
  1  6  1  0  0  0  0
  1 22  1  0  0  0  0
  2 28  1  0  0  0  0
  2 35  1  1  0  0  0
  2 38  2  0  0  0  0
  2 10  1  0  0  0  0
  5  6  1  0  0  0  0
  7  5  1  1  0  0  0
  7  8  1  0  0  0  0
  7  9  1  0  0  0  0
  9 10  1  6  0  0  0
  9 11  1  0  0  0  0
 11 12  1  6  0  0  0
 11 13  1  0  0  0  0
 13  8  1  1  0  0  0
 13 33  1  0  0  0  0
 14 46  1  0  0  0  0
 14 17  1  0  0  0  0
 14 25  1  6  0  0  0
 15 16  1  0  0  0  0
 15 29  1  0  0  0  0
 16 18  1  6  0  0  0
 16 21  1  0  0  0  0
 17 19  1  6  0  0  0
 17 20  1  0  0  0  0
 20 22  1  1  0  0  0
 20 24  1  0  0  0  0
 23 21  1  6  0  0  0
 23 26  1  0  0  0  0
 23 33  1  0  0  0  0
 24 25  1  1  0  0  0
 24 27  1  0  0  0  0
 26 29  1  1  0  0  0
 26 31  1  0  0  0  0
 27 28  1  0  0  0  0
 29 30  2  0  0  0  0
 31 32  1  0  0  0  0
 33 32  1  1  0  0  0
 34 36  1  0  0  0  0
 34 42  1  0  0  0  0
 36 37  1  6  0  0  0
 36 39  1  0  0  0  0
 40 39  1  1  0  0  0
 40 41  1  0  0  0  0
 40 46  1  0  0  0  0
 41 42  1  1  0  0  0
 41 44  1  0  0  0  0
 42 43  2  0  0  0  0
 44 45  1  0  0  0  0
 46 45  1  6  0  0  0
M  CHG  2   3  -1  35  -1
M  END
>  <CHROM.1>
-52.97070323,171.72131130,-5.71626472,5.06113162,16.98459692,-0.60662190
0.57457293,-0.84460501

>  <Name>
ligand

>  <RI>
-1

>  <Rbt.Current_Directory>
/home/itssahil/PROJECTS/Mol_Feturizer/Test_systems_manuscript/rnas/3mum

>  <Rbt.Executable>
rbdock ($Id: //depot/dev/client3/rdock/2013.1/src/exe/rbdock.cxx#4 $)

>  <Rbt.Library>
libRbt.so (2013.1, Build901 2013/11/27)

>  <Rbt.Parameter_File>
/export/apps/rDock/src/rDock_2013.1_src/data/scripts/dock_solv.prm

>  <Rbt.Receptor>
prm/pocket_docking_6.prm

>  <SCORE>
-11.4819

>  <SCORE.INTER>
-12.6217

>  <SCORE.INTER.CONST>
1

>  <SCORE.INTER.POLAR>
0

>  <SCORE.INTER.ROT>
2

>  <SCORE.INTER.SOLV>
15.6186

>  <SCORE.INTER.VDW>
-18.554

>  <SCORE.INTER.norm>
-0.274385

>  <SCORE.INTRA>
1.13977

>  <SCORE.INTRA.DIHEDRAL>
-0.0151036

>  <SCORE.INTRA.DIHEDRAL.0>
2.40424

>  <SCORE.INTRA.POLAR>
0

>  <SCORE.INTRA.POLAR.0>
0

>  <SCORE.INTRA.REPUL>
0

>  <SCORE.INTRA.REPUL.0>
0

>  <SCORE.INTRA.SOLV>
0.0559372

>  <SCORE.INTRA.SOLV.lig_0>
-134.169

>  <SCORE.INTRA.VDW>
1.11935

>  <SCORE.INTRA.VDW.0>
-2.18386

>  <SCORE.INTRA.norm>
0.0247775

>  <SCORE.RESTR>
0

>  <SCORE.RESTR.CAVITY>
0

>  <SCORE.RESTR.norm>
0

>  <SCORE.SYSTEM>
0

>  <SCORE.SYSTEM.CONST>
0

>  <SCORE.SYSTEM.DIHEDRAL>
0

>  <SCORE.SYSTEM.SOLV>
0

>  <SCORE.SYSTEM.norm>
0

>  <SCORE.heavy>
46

>  <SCORE.norm>
-0.249607

>  <RMSD>
7.003

$$$$
ligand
 OpenBabel02271912143D
libRbt.so/2013.1/901 2013/11/27
 46 52  0  0  0  0  0  0  0  0999 V2000
  -10.4779    8.5635   15.4116 P   0  0  1  0  0  0  0  0  0  0  0  0
   -7.5448    3.7818   13.6204 P   0  0  2  0  0  0  0  0  0  0  0  0
  -10.0437    8.9585   17.0841 O   0  5  0  0  0  0  0  0  0  0  0  0
  -11.5890    9.7730   14.7175 O   0  0  0  0  0  0  0  0  0  0  0  0
   -9.1482    8.0784   13.1711 C   0  0  0  0  0  0  0  0  0  0  0  0
   -9.1241    8.4839   14.5398 O   0  0  0  0  0  0  0  0  0  0  0  0
   -7.7531    7.6357   12.7731 C   0  0  1  0  0  0  0  0  0  0  0  0
   -6.8139    8.6720   13.0924 O   0  0  0  0  0  0  0  0  0  0  0  0
   -7.2752    6.4060   13.5280 C   0  0  1  0  0  0  0  0  0  0  0  0
   -7.5988    5.1969   12.8449 O   0  0  0  0  0  0  0  0  0  0  0  0
   -5.7750    6.6211   13.6231 C   0  0  1  0  0  0  0  0  0  0  0  0
   -5.1267    6.0703   12.4738 O   0  0  0  0  0  0  0  0  0  0  0  0
   -5.5895    8.1271   13.6088 C   0  0  2  0  0  0  0  0  0  0  0  0
  -10.8052    4.3563   17.5723 C   0  0  1  0  0  0  0  0  0  0  0  0
   -2.6426    8.0086   18.0240 N   0  0  0  0  0  0  0  0  0  0  0  0
   -2.4925    7.2969   16.8737 C   0  0  1  0  0  0  0  0  0  0  0  0
  -10.6876    5.8346   17.3319 C   0  0  2  0  0  0  0  0  0  0  0  0
   -1.4642    6.4213   16.7928 N   0  0  0  0  0  0  0  0  0  0  0  0
  -11.9387    6.4075   17.7161 O   0  0  0  0  0  0  0  0  0  0  0  0
  -10.4347    5.9647   15.8430 C   0  0  2  0  0  0  0  0  0  0  0  0
   -3.3356    7.4293   15.8067 N   0  0  0  0  0  0  0  0  0  0  0  0
  -11.1082    7.0880   15.2915 O   0  0  0  0  0  0  0  0  0  0  0  0
   -4.3802    8.2950   15.8373 C   0  0  2  0  0  0  0  0  0  0  0  0
  -10.9814    4.6846   15.2422 C   0  0  2  0  0  0  0  0  0  0  0  0
  -11.0063    3.7327   16.3046 O   0  0  0  0  0  0  0  0  0  0  0  0
   -4.5898    9.0882   17.0610 C   0  0  1  0  0  0  0  0  0  0  0  0
  -10.1214    4.1513   14.1018 C   0  0  0  0  0  0  0  0  0  0  0  0
   -8.8188    3.8443   14.6031 O   0  0  0  0  0  0  0  0  0  0  0  0
   -3.6467    8.9016   18.1781 C   0  0  0  0  0  0  0  0  0  0  0  0
   -3.7911    9.6044   19.3302 O   0  0  0  0  0  0  0  0  0  0  0  0
   -5.6688    9.8500   16.8504 N   0  0  0  0  0  0  0  0  0  0  0  0
   -6.1231    9.5726   15.5934 C   0  0  0  0  0  0  0  0  0  0  0  0
   -5.3573    8.6433   14.9839 N   0  0  1  0  0  0  0  0  0  0  0  0
   -8.4149    0.1400   19.5415 N   0  0  0  0  0  0  0  0  0  0  0  0
   -6.0381    3.6093   14.5591 O   0  5  0  0  0  0  0  0  0  0  0  0
   -9.6470    0.2578   18.9750 C   0  0  2  0  0  0  0  0  0  0  0  0
  -10.4336   -0.8443   18.8626 N   0  0  0  0  0  0  0  0  0  0  0  0
   -7.7355    2.3829   12.5459 O   0  0  0  0  0  0  0  0  0  0  0  0
  -10.1186    1.4486   18.5147 N   0  0  0  0  0  0  0  0  0  0  0  0
   -9.3792    2.5797   18.5926 C   0  0  2  0  0  0  0  0  0  0  0  0
   -8.0418    2.5165   19.1968 C   0  0  2  0  0  0  0  0  0  0  0  0
   -7.5869    1.1966   19.6838 C   0  0  0  0  0  0  0  0  0  0  0  0
   -6.3686    1.0409   20.2584 O   0  0  0  0  0  0  0  0  0  0  0  0
   -7.5411    3.7671   19.1562 N   0  0  0  0  0  0  0  0  0  0  0  0
   -8.4818    4.5652   18.5687 C   0  0  0  0  0  0  0  0  0  0  0  0
   -9.5801    3.8497   18.2361 N   0  0  1  0  0  0  0  0  0  0  0  0
  1  3  1  1  0  0  0
  1  4  2  0  0  0  0
  1  6  1  0  0  0  0
  1 22  1  0  0  0  0
  2 28  1  0  0  0  0
  2 35  1  1  0  0  0
  2 38  2  0  0  0  0
  2 10  1  0  0  0  0
  5  6  1  0  0  0  0
  7  5  1  1  0  0  0
  7  8  1  0  0  0  0
  7  9  1  0  0  0  0
  9 10  1  6  0  0  0
  9 11  1  0  0  0  0
 11 12  1  6  0  0  0
 11 13  1  0  0  0  0
 13  8  1  1  0  0  0
 13 33  1  0  0  0  0
 14 46  1  0  0  0  0
 14 17  1  0  0  0  0
 14 25  1  6  0  0  0
 15 16  1  0  0  0  0
 15 29  1  0  0  0  0
 16 18  1  1  0  0  0
 16 21  1  0  0  0  0
 17 19  1  6  0  0  0
 17 20  1  0  0  0  0
 20 22  1  6  0  0  0
 20 24  1  0  0  0  0
 23 21  1  1  0  0  0
 23 26  1  0  0  0  0
 23 33  1  0  0  0  0
 24 25  1  1  0  0  0
 24 27  1  0  0  0  0
 26 29  1  6  0  0  0
 26 31  1  0  0  0  0
 27 28  1  0  0  0  0
 29 30  2  0  0  0  0
 31 32  1  0  0  0  0
 33 32  1  6  0  0  0
 34 36  1  0  0  0  0
 34 42  1  0  0  0  0
 36 37  1  6  0  0  0
 36 39  1  0  0  0  0
 40 39  1  1  0  0  0
 40 41  1  0  0  0  0
 40 46  1  0  0  0  0
 41 42  1  1  0  0  0
 41 44  1  0  0  0  0
 42 43  2  0  0  0  0
 44 45  1  0  0  0  0
 46 45  1  6  0  0  0
M  CHG  2   3  -1  35  -1
M  END
>  <CHROM.1>
174.65614139,179.47780728,-7.78638998,5.73769034,16.07516808,1.01803724,-0.31145051
-0.58101142

>  <Name>
ligand

>  <RI>
-1

>  <Rbt.Current_Directory>
/home/itssahil/PROJECTS/Mol_Feturizer/Test_systems_manuscript/rnas/3mum

>  <Rbt.Executable>
rbdock ($Id: //depot/dev/client3/rdock/2013.1/src/exe/rbdock.cxx#4 $)

>  <Rbt.Library>
libRbt.so (2013.1, Build901 2013/11/27)

>  <Rbt.Parameter_File>
/export/apps/rDock/src/rDock_2013.1_src/data/scripts/dock_solv.prm

>  <Rbt.Receptor>
prm/pocket_docking_7.prm

>  <SCORE>
-12.267

>  <SCORE.INTER>
-12.8498

>  <SCORE.INTER.CONST>
1

>  <SCORE.INTER.POLAR>
0

>  <SCORE.INTER.ROT>
2

>  <SCORE.INTER.SOLV>
21.4376

>  <SCORE.INTER.VDW>
-20.6457

>  <SCORE.INTER.norm>
-0.279344

>  <SCORE.INTRA>
0.578382

>  <SCORE.INTRA.DIHEDRAL>
-0.00663688

>  <SCORE.INTRA.DIHEDRAL.0>
2.40424

>  <SCORE.INTRA.POLAR>
0

>  <SCORE.INTRA.POLAR.0>
0

>  <SCORE.INTRA.REPUL>
0

>  <SCORE.INTRA.REPUL.0>
0

>  <SCORE.INTRA.SOLV>
0.0244538

>  <SCORE.INTRA.SOLV.lig_0>
-134.169

>  <SCORE.INTRA.VDW>
0.569474

>  <SCORE.INTRA.VDW.0>
-2.18386

>  <SCORE.INTRA.norm>
0.0125735

>  <SCORE.RESTR>
0.00440519

>  <SCORE.RESTR.CAVITY>
0.00440519

>  <SCORE.RESTR.norm>
9.57649e-05

>  <SCORE.SYSTEM>
0

>  <SCORE.SYSTEM.CONST>
0

>  <SCORE.SYSTEM.DIHEDRAL>
0

>  <SCORE.SYSTEM.SOLV>
0

>  <SCORE.SYSTEM.norm>
0

>  <SCORE.heavy>
46

>  <SCORE.norm>
-0.266675

>  <RMSD>
7.037

$$$$
ligand
 OpenBabel02271912143D
libRbt.so/2013.1/901 2013/11/27
 46 52  0  0  0  0  0  0  0  0999 V2000
   -2.2879    4.6749   18.7051 P   0  0  1  0  0  0  0  0  0  0  0  0
   -7.9009    2.9064   18.4973 P   0  0  2  0  0  0  0  0  0  0  0  0
   -1.7333    5.1465   17.0890 O   0  5  0  0  0  0  0  0  0  0  0  0
   -1.0355    4.9647   19.9407 O   0  0  0  0  0  0  0  0  0  0  0  0
   -4.3566    5.2729   20.2498 C   0  0  0  0  0  0  0  0  0  0  0  0
   -3.6192    5.5156   19.0516 O   0  0  0  0  0  0  0  0  0  0  0  0
   -5.7579    5.8269   20.0759 C   0  0  1  0  0  0  0  0  0  0  0  0
   -5.6813    7.1998   19.6667 O   0  0  0  0  0  0  0  0  0  0  0  0
   -6.5518    5.1213   18.9885 C   0  0  1  0  0  0  0  0  0  0  0  0
   -7.3033    4.0225   19.4993 O   0  0  0  0  0  0  0  0  0  0  0  0
   -7.4485    6.2210   18.4476 C   0  0  1  0  0  0  0  0  0  0  0  0
   -8.6669    6.2718   19.1942 O   0  0  0  0  0  0  0  0  0  0  0  0
   -6.6816    7.5089   18.6835 C   0  0  2  0  0  0  0  0  0  0  0  0
   -3.7733    1.0604   16.0207 C   0  0  1  0  0  0  0  0  0  0  0  0
   -7.2080    9.2223   13.6855 N   0  0  0  0  0  0  0  0  0  0  0  0
   -8.1740    8.8749   14.5791 C   0  0  1  0  0  0  0  0  0  0  0  0
   -3.0594    2.2989   16.4830 C   0  0  2  0  0  0  0  0  0  0  0  0
   -9.4667    8.9586   14.1883 N   0  0  0  0  0  0  0  0  0  0  0  0
   -1.6871    1.9371   16.6468 O   0  0  0  0  0  0  0  0  0  0  0  0
   -3.7165    2.6535   17.8022 C   0  0  2  0  0  0  0  0  0  0  0  0
   -7.8908    8.4451   15.8447 N   0  0  0  0  0  0  0  0  0  0  0  0
   -2.7721    3.1410   18.7456 O   0  0  0  0  0  0  0  0  0  0  0  0
   -6.6112    8.3457   16.2853 C   0  0  2  0  0  0  0  0  0  0  0  0
   -4.3221    1.3547   18.2967 C   0  0  2  0  0  0  0  0  0  0  0  0
   -4.4787    0.5310   17.1425 O   0  0  0  0  0  0  0  0  0  0  0  0
   -5.5264    8.7068   15.3562 C   0  0  1  0  0  0  0  0  0  0  0  0
   -5.6765    1.5511   18.9688 C   0  0  0  0  0  0  0  0  0  0  0  0
   -6.5950    2.0950   18.0187 O   0  0  0  0  0  0  0  0  0  0  0  0
   -5.8948    9.1638   14.0043 C   0  0  0  0  0  0  0  0  0  0  0  0
   -4.9378    9.5087   13.1058 O   0  0  0  0  0  0  0  0  0  0  0  0
   -4.3753    8.5217   16.0118 N   0  0  0  0  0  0  0  0  0  0  0  0
   -4.6877    8.0754   17.2635 C   0  0  0  0  0  0  0  0  0  0  0  0
   -6.0225    7.9675   17.4319 N   0  0  1  0  0  0  0  0  0  0  0  0
   -6.8848   -0.8916   12.2955 N   0  0  0  0  0  0  0  0  0  0  0  0
   -8.7197    3.6546   17.1007 O   0  5  0  0  0  0  0  0  0  0  0  0
   -6.1081   -1.5369   13.2084 C   0  0  2  0  0  0  0  0  0  0  0  0
   -6.0890   -2.8954   13.2211 N   0  0  0  0  0  0  0  0  0  0  0  0
   -9.0066    1.7682   19.2909 O   0  0  0  0  0  0  0  0  0  0  0  0
   -5.3471   -0.8629   14.1133 N   0  0  0  0  0  0  0  0  0  0  0  0
   -5.3296    0.4900   14.1543 C   0  0  2  0  0  0  0  0  0  0  0  0
   -6.1453    1.2426   13.1921 C   0  0  2  0  0  0  0  0  0  0  0  0
   -6.9459    0.4553   12.2301 C   0  0  0  0  0  0  0  0  0  0  0  0
   -7.7273    1.0623   11.3030 O   0  0  0  0  0  0  0  0  0  0  0  0
   -5.9333    2.5490   13.4461 N   0  0  0  0  0  0  0  0  0  0  0  0
   -5.0555    2.6254   14.4905 C   0  0  0  0  0  0  0  0  0  0  0  0
   -4.6960    1.3904   14.9081 N   0  0  1  0  0  0  0  0  0  0  0  0
  1  3  1  6  0  0  0
  1  4  2  0  0  0  0
  1  6  1  0  0  0  0
  1 22  1  0  0  0  0
  2 28  1  0  0  0  0
  2 35  1  6  0  0  0
  2 38  2  0  0  0  0
  2 10  1  0  0  0  0
  5  6  1  0  0  0  0
  7  5  1  6  0  0  0
  7  8  1  0  0  0  0
  7  9  1  0  0  0  0
  9 10  1  1  0  0  0
  9 11  1  0  0  0  0
 11 12  1  1  0  0  0
 11 13  1  0  0  0  0
 13  8  1  1  0  0  0
 13 33  1  0  0  0  0
 14 46  1  0  0  0  0
 14 17  1  0  0  0  0
 14 25  1  1  0  0  0
 15 16  1  0  0  0  0
 15 29  1  0  0  0  0
 16 18  1  6  0  0  0
 16 21  1  0  0  0  0
 17 19  1  1  0  0  0
 17 20  1  0  0  0  0
 20 22  1  1  0  0  0
 20 24  1  0  0  0  0
 23 21  1  6  0  0  0
 23 26  1  0  0  0  0
 23 33  1  0  0  0  0
 24 25  1  6  0  0  0
 24 27  1  0  0  0  0
 26 29  1  1  0  0  0
 26 31  1  0  0  0  0
 27 28  1  0  0  0  0
 29 30  2  0  0  0  0
 31 32  1  0  0  0  0
 33 32  1  1  0  0  0
 34 36  1  0  0  0  0
 34 42  1  0  0  0  0
 36 37  1  1  0  0  0
 36 39  1  0  0  0  0
 40 39  1  6  0  0  0
 40 41  1  0  0  0  0
 40 46  1  0  0  0  0
 41 42  1  6  0  0  0
 41 44  1  0  0  0  0
 42 43  2  0  0  0  0
 44 45  1  0  0  0  0
 46 45  1  1  0  0  0
M  CHG  2   3  -1  35  -1
M  END
>  <CHROM.1>
179.91079629,169.95218891,-5.60080566,4.14048891,16.64681015,-1.65465307
1.00977420,-2.75849848

>  <Name>
ligand

>  <RI>
-1

>  <Rbt.Current_Directory>
/home/itssahil/PROJECTS/Mol_Feturizer/Test_systems_manuscript/rnas/3mum

>  <Rbt.Executable>
rbdock ($Id: //depot/dev/client3/rdock/2013.1/src/exe/rbdock.cxx#4 $)

>  <Rbt.Library>
libRbt.so (2013.1, Build901 2013/11/27)

>  <Rbt.Parameter_File>
/export/apps/rDock/src/rDock_2013.1_src/data/scripts/dock_solv.prm

>  <Rbt.Receptor>
prm/pocket_docking_8.prm

>  <SCORE>
-14.9925

>  <SCORE.INTER>
-15.4681

>  <SCORE.INTER.CONST>
1

>  <SCORE.INTER.POLAR>
0

>  <SCORE.INTER.ROT>
2

>  <SCORE.INTER.SOLV>
22.5422

>  <SCORE.INTER.VDW>
-22.7595

>  <SCORE.INTER.norm>
-0.336264

>  <SCORE.INTRA>
0.475597

>  <SCORE.INTRA.DIHEDRAL>
-0.018659

>  <SCORE.INTRA.DIHEDRAL.0>
2.40424

>  <SCORE.INTRA.POLAR>
0

>  <SCORE.INTRA.POLAR.0>
0

>  <SCORE.INTRA.REPUL>
0

>  <SCORE.INTRA.REPUL.0>
0

>  <SCORE.INTRA.SOLV>
0.0147261

>  <SCORE.INTRA.SOLV.lig_0>
-134.169

>  <SCORE.INTRA.VDW>
0.477563

>  <SCORE.INTRA.VDW.0>
-2.18386

>  <SCORE.INTRA.norm>
0.0103391

>  <SCORE.RESTR>
0

>  <SCORE.RESTR.CAVITY>
0

>  <SCORE.RESTR.norm>
0

>  <SCORE.SYSTEM>
0

>  <SCORE.SYSTEM.CONST>
0

>  <SCORE.SYSTEM.DIHEDRAL>
0

>  <SCORE.SYSTEM.SOLV>
0

>  <SCORE.SYSTEM.norm>
0

>  <SCORE.heavy>
46

>  <SCORE.norm>
-0.325925

>  <RMSD>
7.052

$$$$
ligand
 OpenBabel02271912143D
libRbt.so/2013.1/901 2013/11/27
 46 52  0  0  0  0  0  0  0  0999 V2000
   -2.4140    4.6442   18.9476 P   0  0  1  0  0  0  0  0  0  0  0  0
   -7.8672    2.4218   18.9633 P   0  0  2  0  0  0  0  0  0  0  0  0
   -1.9663    5.1589   17.3116 O   0  5  0  0  0  0  0  0  0  0  0  0
   -1.1402    5.0363   20.1321 O   0  0  0  0  0  0  0  0  0  0  0  0
   -4.4601    5.0716   20.5768 C   0  0  0  0  0  0  0  0  0  0  0  0
   -3.7944    5.3733   19.3503 O   0  0  0  0  0  0  0  0  0  0  0  0
   -5.9079    5.5089   20.4616 C   0  0  1  0  0  0  0  0  0  0  0  0
   -5.9608    6.8832   20.0535 O   0  0  0  0  0  0  0  0  0  0  0  0
   -6.6850    4.7401   19.4055 C   0  0  1  0  0  0  0  0  0  0  0  0
   -7.3227    3.5837   19.9433 O   0  0  0  0  0  0  0  0  0  0  0  0
   -7.6901    5.7623   18.9046 C   0  0  1  0  0  0  0  0  0  0  0  0
   -8.8771    5.7135   19.7003 O   0  0  0  0  0  0  0  0  0  0  0  0
   -7.0222    7.1088   19.1127 C   0  0  2  0  0  0  0  0  0  0  0  0
   -3.7068    0.9188   16.3157 C   0  0  1  0  0  0  0  0  0  0  0  0
   -7.7385    8.1063   13.9470 N   0  0  0  0  0  0  0  0  0  0  0  0
   -8.6115    7.5772   14.8472 C   0  0  1  0  0  0  0  0  0  0  0  0
   -3.0784    2.2118   16.7521 C   0  0  2  0  0  0  0  0  0  0  0  0
   -9.8487    7.2395   14.4159 N   0  0  0  0  0  0  0  0  0  0  0  0
   -1.6755    1.9638   16.8589 O   0  0  0  0  0  0  0  0  0  0  0  0
   -3.7079    2.5122   18.0979 C   0  0  2  0  0  0  0  0  0  0  0  0
   -8.2881    7.3726   16.1588 N   0  0  0  0  0  0  0  0  0  0  0  0
   -2.7690    3.0759   19.0035 O   0  0  0  0  0  0  0  0  0  0  0  0
   -7.0615    7.6963   16.6409 C   0  0  2  0  0  0  0  0  0  0  0  0
   -4.1846    1.1684   18.6130 C   0  0  2  0  0  0  0  0  0  0  0  0
   -4.3201    0.3340   17.4638 O   0  0  0  0  0  0  0  0  0  0  0  0
   -6.0771    8.2699   15.7070 C   0  0  1  0  0  0  0  0  0  0  0  0
   -5.5219    1.2535   19.3401 C   0  0  0  0  0  0  0  0  0  0  0  0
   -6.5198    1.7199   18.4298 O   0  0  0  0  0  0  0  0  0  0  0  0
   -6.4849    8.4672   14.3045 C   0  0  0  0  0  0  0  0  0  0  0  0
   -5.6196    8.9907   13.3994 O   0  0  0  0  0  0  0  0  0  0  0  0
   -4.9608    8.4949   16.4086 N   0  0  0  0  0  0  0  0  0  0  0  0
   -5.2009    8.0981   17.6926 C   0  0  0  0  0  0  0  0  0  0  0  0
   -6.4545    7.6192   17.8366 N   0  0  1  0  0  0  0  0  0  0  0  0
   -5.7971    4.5298   13.1599 N   0  0  0  0  0  0  0  0  0  0  0  0
   -8.8008    3.0997   17.6033 O   0  5  0  0  0  0  0  0  0  0  0  0
   -4.8369    4.6592   14.1160 C   0  0  2  0  0  0  0  0  0  0  0  0
   -4.2842    5.8799   14.3403 N   0  0  0  0  0  0  0  0  0  0  0  0
   -8.8427    1.1973   19.7981 O   0  0  0  0  0  0  0  0  0  0  0  0
   -4.4100    3.6009   14.8577 N   0  0  0  0  0  0  0  0  0  0  0  0
   -4.9178    2.3594   14.6760 C   0  0  2  0  0  0  0  0  0  0  0  0
   -5.9594    2.1573   13.6601 C   0  0  2  0  0  0  0  0  0  0  0  0
   -6.3861    3.3454   12.8905 C   0  0  0  0  0  0  0  0  0  0  0  0
   -7.3431    3.2571   11.9340 O   0  0  0  0  0  0  0  0  0  0  0  0
   -6.2869    0.8505   13.6988 N   0  0  0  0  0  0  0  0  0  0  0  0
   -5.5130    0.2633   14.6597 C   0  0  0  0  0  0  0  0  0  0  0  0
   -4.6979    1.1715   15.2425 N   0  0  1  0  0  0  0  0  0  0  0  0
  1  3  1  6  0  0  0
  1  4  2  0  0  0  0
  1  6  1  0  0  0  0
  1 22  1  0  0  0  0
  2 28  1  0  0  0  0
  2 35  1  6  0  0  0
  2 38  2  0  0  0  0
  2 10  1  0  0  0  0
  5  6  1  0  0  0  0
  7  5  1  6  0  0  0
  7  8  1  0  0  0  0
  7  9  1  0  0  0  0
  9 10  1  1  0  0  0
  9 11  1  0  0  0  0
 11 12  1  1  0  0  0
 11 13  1  0  0  0  0
 13  8  1  1  0  0  0
 13 33  1  0  0  0  0
 14 46  1  0  0  0  0
 14 17  1  0  0  0  0
 14 25  1  1  0  0  0
 15 16  1  0  0  0  0
 15 29  1  0  0  0  0
 16 18  1  6  0  0  0
 16 21  1  0  0  0  0
 17 19  1  1  0  0  0
 17 20  1  0  0  0  0
 20 22  1  1  0  0  0
 20 24  1  0  0  0  0
 23 21  1  6  0  0  0
 23 26  1  0  0  0  0
 23 33  1  0  0  0  0
 24 25  1  6  0  0  0
 24 27  1  0  0  0  0
 26 29  1  1  0  0  0
 26 31  1  0  0  0  0
 27 28  1  0  0  0  0
 29 30  2  0  0  0  0
 31 32  1  0  0  0  0
 33 32  1  1  0  0  0
 34 36  1  0  0  0  0
 34 42  1  0  0  0  0
 36 37  1  6  0  0  0
 36 39  1  0  0  0  0
 40 39  1  1  0  0  0
 40 41  1  0  0  0  0
 40 46  1  0  0  0  0
 41 42  1  1  0  0  0
 41 44  1  0  0  0  0
 42 43  2  0  0  0  0
 44 45  1  0  0  0  0
 46 45  1  6  0  0  0
M  CHG  2   3  -1  35  -1
M  END
>  <CHROM.1>
165.42806974,4.98182843,-5.62659474,4.40381148,17.05097040,-0.01223586,-1.14018511
1.02326265

>  <Name>
ligand

>  <RI>
-1

>  <Rbt.Current_Directory>
/home/itssahil/PROJECTS/Mol_Feturizer/Test_systems_manuscript/rnas/3mum

>  <Rbt.Executable>
rbdock ($Id: //depot/dev/client3/rdock/2013.1/src/exe/rbdock.cxx#4 $)

>  <Rbt.Library>
libRbt.so (2013.1, Build901 2013/11/27)

>  <Rbt.Parameter_File>
/export/apps/rDock/src/rDock_2013.1_src/data/scripts/dock_solv.prm

>  <Rbt.Receptor>
prm/pocket_docking_5.prm

>  <SCORE>
-10.8607

>  <SCORE.INTER>
-12.8192

>  <SCORE.INTER.CONST>
1

>  <SCORE.INTER.POLAR>
0

>  <SCORE.INTER.ROT>
2

>  <SCORE.INTER.SOLV>
13.7659

>  <SCORE.INTER.VDW>
-18.0681

>  <SCORE.INTER.norm>
-0.278677

>  <SCORE.INTRA>
1.95837

>  <SCORE.INTRA.DIHEDRAL>
-0.0132429

>  <SCORE.INTRA.DIHEDRAL.0>
2.40424

>  <SCORE.INTRA.POLAR>
0

>  <SCORE.INTRA.POLAR.0>
0

>  <SCORE.INTRA.REPUL>
0

>  <SCORE.INTRA.REPUL.0>
0

>  <SCORE.INTRA.SOLV>
3.76385

>  <SCORE.INTRA.SOLV.lig_0>
-134.169

>  <SCORE.INTRA.VDW>
0.0830643

>  <SCORE.INTRA.VDW.0>
-2.18386

>  <SCORE.INTRA.norm>
0.0425732

>  <SCORE.RESTR>
0.000116607

>  <SCORE.RESTR.CAVITY>
0.000116607

>  <SCORE.RESTR.norm>
2.53493e-06

>  <SCORE.SYSTEM>
0

>  <SCORE.SYSTEM.CONST>
0

>  <SCORE.SYSTEM.DIHEDRAL>
0

>  <SCORE.SYSTEM.SOLV>
0

>  <SCORE.SYSTEM.norm>
0

>  <SCORE.heavy>
46

>  <SCORE.norm>
-0.236102

>  <RMSD>
7.066

$$$$
ligand
 OpenBabel02271912143D
libRbt.so/2013.1/901 2013/11/27
 46 52  0  0  0  0  0  0  0  0999 V2000
   -7.9534    2.2452   19.2515 P   0  0  1  0  0  0  0  0  0  0  0  0
   -2.6434    4.7723   18.9462 P   0  0  2  0  0  0  0  0  0  0  0  0
   -8.9669    2.7827   17.9003 O   0  5  0  0  0  0  0  0  0  0  0  0
   -8.7838    1.0246   20.2515 O   0  0  0  0  0  0  0  0  0  0  0  0
   -5.5233    1.2194   19.5085 C   0  0  0  0  0  0  0  0  0  0  0  0
   -6.5855    1.6384   18.6514 O   0  0  0  0  0  0  0  0  0  0  0  0
   -4.2413    1.1668   18.6996 C   0  0  1  0  0  0  0  0  0  0  0  0
   -4.4461    0.3591   17.5319 O   0  0  0  0  0  0  0  0  0  0  0  0
   -3.8015    2.5267   18.1824 C   0  0  1  0  0  0  0  0  0  0  0  0
   -2.9241    3.1889   19.0905 O   0  0  0  0  0  0  0  0  0  0  0  0
   -3.1143    2.1910   16.8705 C   0  0  1  0  0  0  0  0  0  0  0  0
   -1.7294    1.9177   17.0983 O   0  0  0  0  0  0  0  0  0  0  0  0
   -3.7858    0.9194   16.3862 C   0  0  2  0  0  0  0  0  0  0  0  0
   -7.3070    6.9416   19.2956 C   0  0  1  0  0  0  0  0  0  0  0  0
   -6.9421   -0.8968   12.5220 N   0  0  0  0  0  0  0  0  0  0  0  0
   -6.0891   -1.5866   13.3276 C   0  0  1  0  0  0  0  0  0  0  0  0
   -7.8602    5.5774   18.9954 C   0  0  2  0  0  0  0  0  0  0  0  0
   -5.9934   -2.9258   13.1602 N   0  0  0  0  0  0  0  0  0  0  0  0
   -9.1191    5.4951   19.6659 O   0  0  0  0  0  0  0  0  0  0  0  0
   -6.8432    4.6129   19.5726 C   0  0  2  0  0  0  0  0  0  0  0  0
   -5.3291   -0.9829   14.2892 N   0  0  0  0  0  0  0  0  0  0  0  0
   -7.4678    3.4802   20.1612 O   0  0  0  0  0  0  0  0  0  0  0  0
   -5.3902    0.3566   14.4978 C   0  0  2  0  0  0  0  0  0  0  0  0
   -6.1084    5.4103   20.6321 C   0  0  2  0  0  0  0  0  0  0  0  0
   -6.2961    6.7825   20.2901 O   0  0  0  0  0  0  0  0  0  0  0  0
   -6.2961    1.1512   13.6502 C   0  0  1  0  0  0  0  0  0  0  0  0
   -4.6169    5.0976   20.6801 C   0  0  0  0  0  0  0  0  0  0  0  0
   -4.0265    5.4431   19.4255 O   0  0  0  0  0  0  0  0  0  0  0  0
   -7.0904    0.4433   12.6304 C   0  0  0  0  0  0  0  0  0  0  0  0
   -7.9407    1.1237   11.8204 O   0  0  0  0  0  0  0  0  0  0  0  0
   -6.1747    2.4252   14.0391 N   0  0  0  0  0  0  0  0  0  0  0  0
   -5.2633    2.4549   15.0550 C   0  0  0  0  0  0  0  0  0  0  0  0
   -4.7906    1.2215   15.3324 N   0  0  1  0  0  0  0  0  0  0  0  0
   -8.0386   10.5842   15.6125 N   0  0  0  0  0  0  0  0  0  0  0  0
   -2.2824    5.2199   17.2580 O   0  5  0  0  0  0  0  0  0  0  0  0
   -8.8136   10.2606   16.6838 C   0  0  2  0  0  0  0  0  0  0  0  0
   -9.9659   10.9470   16.9006 N   0  0  0  0  0  0  0  0  0  0  0  0
   -1.3433    5.3555   20.0035 O   0  0  0  0  0  0  0  0  0  0  0  0
   -8.4700    9.2680   17.5492 N   0  0  0  0  0  0  0  0  0  0  0  0
   -7.3314    8.5535   17.3898 C   0  0  2  0  0  0  0  0  0  0  0  0
   -6.4550    8.8547   16.2501 C   0  0  2  0  0  0  0  0  0  0  0  0
   -6.8841    9.9393   15.3415 C   0  0  0  0  0  0  0  0  0  0  0  0
   -6.1416   10.2867   14.2614 O   0  0  0  0  0  0  0  0  0  0  0  0
   -5.4161    7.9996   16.3266 N   0  0  0  0  0  0  0  0  0  0  0  0
   -5.6107    7.2173   17.4298 C   0  0  0  0  0  0  0  0  0  0  0  0
   -6.7594    7.5517   18.0602 N   0  0  1  0  0  0  0  0  0  0  0  0
  1  3  1  6  0  0  0
  1  4  2  0  0  0  0
  1  6  1  0  0  0  0
  1 22  1  0  0  0  0
  2 28  1  0  0  0  0
  2 35  1  6  0  0  0
  2 38  2  0  0  0  0
  2 10  1  0  0  0  0
  5  6  1  0  0  0  0
  7  5  1  6  0  0  0
  7  8  1  0  0  0  0
  7  9  1  0  0  0  0
  9 10  1  1  0  0  0
  9 11  1  0  0  0  0
 11 12  1  1  0  0  0
 11 13  1  0  0  0  0
 13  8  1  1  0  0  0
 13 33  1  0  0  0  0
 14 46  1  0  0  0  0
 14 17  1  0  0  0  0
 14 25  1  1  0  0  0
 15 16  1  0  0  0  0
 15 29  1  0  0  0  0
 16 18  1  6  0  0  0
 16 21  1  0  0  0  0
 17 19  1  1  0  0  0
 17 20  1  0  0  0  0
 20 22  1  1  0  0  0
 20 24  1  0  0  0  0
 23 21  1  6  0  0  0
 23 26  1  0  0  0  0
 23 33  1  0  0  0  0
 24 25  1  6  0  0  0
 24 27  1  0  0  0  0
 26 29  1  1  0  0  0
 26 31  1  0  0  0  0
 27 28  1  0  0  0  0
 29 30  2  0  0  0  0
 31 32  1  0  0  0  0
 33 32  1  1  0  0  0
 34 36  1  0  0  0  0
 34 42  1  0  0  0  0
 36 37  1  1  0  0  0
 36 39  1  0  0  0  0
 40 39  1  6  0  0  0
 40 41  1  0  0  0  0
 40 46  1  0  0  0  0
 41 42  1  6  0  0  0
 41 44  1  0  0  0  0
 42 43  2  0  0  0  0
 44 45  1  0  0  0  0
 46 45  1  1  0  0  0
M  CHG  2   3  -1  35  -1
M  END
>  <CHROM.1>
-77.23869482,107.19033135,-5.91763674,4.06710033,17.27674647,-1.25394391
-0.99066147,0.54933319

>  <Name>
ligand

>  <RI>
-1

>  <Rbt.Current_Directory>
/home/itssahil/PROJECTS/Mol_Feturizer/Test_systems_manuscript/rnas/3mum

>  <Rbt.Executable>
rbdock ($Id: //depot/dev/client3/rdock/2013.1/src/exe/rbdock.cxx#4 $)

>  <Rbt.Library>
libRbt.so (2013.1, Build901 2013/11/27)

>  <Rbt.Parameter_File>
/export/apps/rDock/src/rDock_2013.1_src/data/scripts/dock_solv.prm

>  <Rbt.Receptor>
prm/pocket_docking_7.prm

>  <SCORE>
-15.0136

>  <SCORE.INTER>
-15.2863

>  <SCORE.INTER.CONST>
1

>  <SCORE.INTER.POLAR>
0

>  <SCORE.INTER.ROT>
2

>  <SCORE.INTER.SOLV>
24.1

>  <SCORE.INTER.VDW>
-23.1575

>  <SCORE.INTER.norm>
-0.33231

>  <SCORE.INTRA>
0.272726

>  <SCORE.INTRA.DIHEDRAL>
0.0105447

>  <SCORE.INTRA.DIHEDRAL.0>
2.40424

>  <SCORE.INTRA.POLAR>
0

>  <SCORE.INTRA.POLAR.0>
0

>  <SCORE.INTRA.REPUL>
0

>  <SCORE.INTRA.REPUL.0>
0

>  <SCORE.INTRA.SOLV>
0.0932011

>  <SCORE.INTRA.SOLV.lig_0>
-134.169

>  <SCORE.INTRA.VDW>
0.220853

>  <SCORE.INTRA.VDW.0>
-2.18386

>  <SCORE.INTRA.norm>
0.00592882

>  <SCORE.RESTR>
0

>  <SCORE.RESTR.CAVITY>
0

>  <SCORE.RESTR.norm>
0

>  <SCORE.SYSTEM>
0

>  <SCORE.SYSTEM.CONST>
0

>  <SCORE.SYSTEM.DIHEDRAL>
0

>  <SCORE.SYSTEM.SOLV>
0

>  <SCORE.SYSTEM.norm>
0

>  <SCORE.heavy>
46

>  <SCORE.norm>
-0.326382

>  <RMSD>
7.077

$$$$
ligand
 OpenBabel02271912143D
libRbt.so/2013.1/901 2013/11/27
 46 52  0  0  0  0  0  0  0  0999 V2000
   -2.2747    4.7540   18.5277 P   0  0  1  0  0  0  0  0  0  0  0  0
   -7.8726    2.9278   18.4628 P   0  0  2  0  0  0  0  0  0  0  0  0
   -1.7641    5.2243   16.8968 O   0  5  0  0  0  0  0  0  0  0  0  0
   -0.9959    5.0618   19.7315 O   0  0  0  0  0  0  0  0  0  0  0  0
   -4.3116    5.3377   20.1195 C   0  0  0  0  0  0  0  0  0  0  0  0
   -3.6058    5.5827   18.9029 O   0  0  0  0  0  0  0  0  0  0  0  0
   -5.7222    5.8767   19.9773 C   0  0  1  0  0  0  0  0  0  0  0  0
   -5.6696    7.2485   19.5608 O   0  0  0  0  0  0  0  0  0  0  0  0
   -6.5348    5.1584   18.9123 C   0  0  1  0  0  0  0  0  0  0  0  0
   -7.2626    4.0542   19.4455 O   0  0  0  0  0  0  0  0  0  0  0  0
   -7.4556    6.2466   18.3887 C   0  0  1  0  0  0  0  0  0  0  0  0
   -8.6561    6.2883   19.1643 O   0  0  0  0  0  0  0  0  0  0  0  0
   -6.6964    7.5432   18.6008 C   0  0  2  0  0  0  0  0  0  0  0  0
   -3.7873    1.1131   15.8947 C   0  0  1  0  0  0  0  0  0  0  0  0
   -7.3610    9.4374   13.6852 N   0  0  0  0  0  0  0  0  0  0  0  0
   -8.3018    9.1166   14.6150 C   0  0  1  0  0  0  0  0  0  0  0  0
   -3.0752    2.3608   16.3346 C   0  0  2  0  0  0  0  0  0  0  0  0
   -9.6047    9.2841   14.2907 N   0  0  0  0  0  0  0  0  0  0  0  0
   -1.6957    2.0136   16.4667 O   0  0  0  0  0  0  0  0  0  0  0  0
   -3.7038    2.7144   17.6678 C   0  0  2  0  0  0  0  0  0  0  0  0
   -7.9838    8.6327   15.8525 N   0  0  0  0  0  0  0  0  0  0  0  0
   -2.7421    3.2155   18.5862 O   0  0  0  0  0  0  0  0  0  0  0  0
   -6.6924    8.4488   16.2267 C   0  0  2  0  0  0  0  0  0  0  0  0
   -4.2841    1.4116   18.1821 C   0  0  2  0  0  0  0  0  0  0  0  0
   -4.4599    0.5814   17.0353 O   0  0  0  0  0  0  0  0  0  0  0  0
   -5.6341    8.7777   15.2559 C   0  0  1  0  0  0  0  0  0  0  0  0
   -5.6237    1.5972   18.8859 C   0  0  0  0  0  0  0  0  0  0  0  0
   -6.5704    2.1277   17.9561 O   0  0  0  0  0  0  0  0  0  0  0  0
   -6.0397    9.2962   13.9373 C   0  0  0  0  0  0  0  0  0  0  0  0
   -5.1083    9.6150   13.0030 O   0  0  0  0  0  0  0  0  0  0  0  0
   -4.4656    8.5087   15.8486 N   0  0  0  0  0  0  0  0  0  0  0  0
   -4.7432    8.0418   17.1011 C   0  0  0  0  0  0  0  0  0  0  0  0
   -6.0725    8.0031   17.3318 N   0  0  1  0  0  0  0  0  0  0  0  0
   -6.9816   -0.8863   12.2660 N   0  0  0  0  0  0  0  0  0  0  0  0
   -8.7325    3.6617   17.0833 O   0  5  0  0  0  0  0  0  0  0  0  0
   -6.1782   -1.5199   13.1639 C   0  0  2  0  0  0  0  0  0  0  0  0
   -6.1511   -2.8781   13.1871 N   0  0  0  0  0  0  0  0  0  0  0  0
   -8.9472    1.7819   19.2875 O   0  0  0  0  0  0  0  0  0  0  0  0
   -5.3983   -0.8343   14.0436 N   0  0  0  0  0  0  0  0  0  0  0  0
   -5.3873    0.5189   14.0733 C   0  0  2  0  0  0  0  0  0  0  0  0
   -6.2315    1.2592   13.1261 C   0  0  2  0  0  0  0  0  0  0  0  0
   -7.0519    0.4597   12.1914 C   0  0  0  0  0  0  0  0  0  0  0  0
   -7.8601    1.0548   11.2796 O   0  0  0  0  0  0  0  0  0  0  0  0
   -6.0206    2.5688   13.3642 N   0  0  0  0  0  0  0  0  0  0  0  0
   -5.1169    2.6585   14.3852 C   0  0  0  0  0  0  0  0  0  0  0  0
   -4.7399    1.4289   14.8034 N   0  0  1  0  0  0  0  0  0  0  0  0
  1  3  1  6  0  0  0
  1  4  2  0  0  0  0
  1  6  1  0  0  0  0
  1 22  1  0  0  0  0
  2 28  1  0  0  0  0
  2 35  1  6  0  0  0
  2 38  2  0  0  0  0
  2 10  1  0  0  0  0
  5  6  1  0  0  0  0
  7  5  1  6  0  0  0
  7  8  1  0  0  0  0
  7  9  1  0  0  0  0
  9 10  1  1  0  0  0
  9 11  1  0  0  0  0
 11 12  1  1  0  0  0
 11 13  1  0  0  0  0
 13  8  1  1  0  0  0
 13 33  1  0  0  0  0
 14 46  1  0  0  0  0
 14 17  1  0  0  0  0
 14 25  1  1  0  0  0
 15 16  1  0  0  0  0
 15 29  1  0  0  0  0
 16 18  1  6  0  0  0
 16 21  1  0  0  0  0
 17 19  1  1  0  0  0
 17 20  1  0  0  0  0
 20 22  1  1  0  0  0
 20 24  1  0  0  0  0
 23 21  1  6  0  0  0
 23 26  1  0  0  0  0
 23 33  1  0  0  0  0
 24 25  1  6  0  0  0
 24 27  1  0  0  0  0
 26 29  1  1  0  0  0
 26 31  1  0  0  0  0
 27 28  1  0  0  0  0
 29 30  2  0  0  0  0
 31 32  1  0  0  0  0
 33 32  1  1  0  0  0
 34 36  1  0  0  0  0
 34 42  1  0  0  0  0
 36 37  1  1  0  0  0
 36 39  1  0  0  0  0
 40 39  1  6  0  0  0
 40 41  1  0  0  0  0
 40 46  1  0  0  0  0
 41 42  1  6  0  0  0
 41 44  1  0  0  0  0
 42 43  2  0  0  0  0
 44 45  1  0  0  0  0
 46 45  1  1  0  0  0
M  CHG  2   3  -1  35  -1
M  END
>  <CHROM.1>
-175.59256917,170.30994697,-5.63219170,4.19963052,16.56173158,-1.67367354
0.98274358,-2.76570846

>  <Name>
ligand

>  <RI>
-1

>  <Rbt.Current_Directory>
/home/itssahil/PROJECTS/Mol_Feturizer/Test_systems_manuscript/rnas/3mum

>  <Rbt.Executable>
rbdock ($Id: //depot/dev/client3/rdock/2013.1/src/exe/rbdock.cxx#4 $)

>  <Rbt.Library>
libRbt.so (2013.1, Build901 2013/11/27)

>  <Rbt.Parameter_File>
/export/apps/rDock/src/rDock_2013.1_src/data/scripts/dock_solv.prm

>  <Rbt.Receptor>
prm/pocket_docking_7.prm

>  <SCORE>
-15.0665

>  <SCORE.INTER>
-15.5147

>  <SCORE.INTER.CONST>
1

>  <SCORE.INTER.POLAR>
0

>  <SCORE.INTER.ROT>
2

>  <SCORE.INTER.SOLV>
22.2944

>  <SCORE.INTER.VDW>
-22.7079

>  <SCORE.INTER.norm>
-0.337275

>  <SCORE.INTRA>
0.448199

>  <SCORE.INTRA.DIHEDRAL>
-0.0173719

>  <SCORE.INTRA.DIHEDRAL.0>
2.40424

>  <SCORE.INTRA.POLAR>
0

>  <SCORE.INTRA.POLAR.0>
0

>  <SCORE.INTRA.REPUL>
0

>  <SCORE.INTRA.REPUL.0>
0

>  <SCORE.INTRA.SOLV>
0.0137024

>  <SCORE.INTRA.SOLV.lig_0>
-134.169

>  <SCORE.INTRA.VDW>
0.450033

>  <SCORE.INTRA.VDW.0>
-2.18386

>  <SCORE.INTRA.norm>
0.00974345

>  <SCORE.RESTR>
0

>  <SCORE.RESTR.CAVITY>
0

>  <SCORE.RESTR.norm>
0

>  <SCORE.SYSTEM>
0

>  <SCORE.SYSTEM.CONST>
0

>  <SCORE.SYSTEM.DIHEDRAL>
0

>  <SCORE.SYSTEM.SOLV>
0

>  <SCORE.SYSTEM.norm>
0

>  <SCORE.heavy>
46

>  <SCORE.norm>
-0.327532

>  <RMSD>
7.091

$$$$
ligand
 OpenBabel02271912143D
libRbt.so/2013.1/901 2013/11/27
 46 52  0  0  0  0  0  0  0  0999 V2000
   -7.8000    2.5377   19.0923 P   0  0  1  0  0  0  0  0  0  0  0  0
   -2.4221    4.8894   18.6185 P   0  0  2  0  0  0  0  0  0  0  0  0
   -8.8150    3.0494   17.7323 O   0  5  0  0  0  0  0  0  0  0  0  0
   -8.6527    1.3849   20.1522 O   0  0  0  0  0  0  0  0  0  0  0  0
   -5.3981    1.4509   19.3626 C   0  0  0  0  0  0  0  0  0  0  0  0
   -6.4587    1.8660   18.5016 O   0  0  0  0  0  0  0  0  0  0  0  0
   -4.1290    1.3264   18.5412 C   0  0  1  0  0  0  0  0  0  0  0  0
   -4.3731    0.4778   17.4106 O   0  0  0  0  0  0  0  0  0  0  0  0
   -3.6561    2.6501   17.9626 C   0  0  1  0  0  0  0  0  0  0  0  0
   -2.7475    3.3224   18.8318 O   0  0  0  0  0  0  0  0  0  0  0  0
   -2.9966    2.2401   16.6576 C   0  0  1  0  0  0  0  0  0  0  0  0
   -1.6175    1.9349   16.8799 O   0  0  0  0  0  0  0  0  0  0  0  0
   -3.7117    0.9704   16.2347 C   0  0  2  0  0  0  0  0  0  0  0  0
   -7.0146    7.2105   18.9335 C   0  0  1  0  0  0  0  0  0  0  0  0
   -6.0484    4.5654   13.1028 N   0  0  0  0  0  0  0  0  0  0  0  0
   -5.0627    4.7426   14.0245 C   0  0  1  0  0  0  0  0  0  0  0  0
   -7.6118    5.8523   18.6970 C   0  0  2  0  0  0  0  0  0  0  0  0
   -4.5759    5.9916   14.2082 N   0  0  0  0  0  0  0  0  0  0  0  0
   -8.8635    5.8355   19.3854 O   0  0  0  0  0  0  0  0  0  0  0  0
   -6.6161    4.8822   19.3014 C   0  0  2  0  0  0  0  0  0  0  0  0
   -4.5521    3.7163   14.7679 N   0  0  0  0  0  0  0  0  0  0  0  0
   -7.2661    3.7941   19.9441 O   0  0  0  0  0  0  0  0  0  0  0  0
   -5.0049    2.4456   14.6198 C   0  0  2  0  0  0  0  0  0  0  0  0
   -5.8441    5.7001   20.3180 C   0  0  2  0  0  0  0  0  0  0  0  0
   -5.9958    7.0621   19.9215 O   0  0  0  0  0  0  0  0  0  0  0  0
   -6.0743    2.1992   13.6369 C   0  0  1  0  0  0  0  0  0  0  0  0
   -4.3620    5.3450   20.3610 C   0  0  0  0  0  0  0  0  0  0  0  0
   -3.7784    5.6206   19.0861 O   0  0  0  0  0  0  0  0  0  0  0  0
   -6.5842    3.3464   12.8648 C   0  0  0  0  0  0  0  0  0  0  0  0
   -7.5694    3.1793   11.9464 O   0  0  0  0  0  0  0  0  0  0  0  0
   -6.3485    0.8908   13.6805 N   0  0  0  0  0  0  0  0  0  0  0  0
   -5.5253    0.3341   14.6164 C   0  0  0  0  0  0  0  0  0  0  0  0
   -4.7210    1.2590   15.1815 N   0  0  1  0  0  0  0  0  0  0  0  0
   -8.0904    8.4540   13.9671 N   0  0  0  0  0  0  0  0  0  0  0  0
   -2.0705    5.2560   16.9089 O   0  5  0  0  0  0  0  0  0  0  0  0
   -8.8957    7.9187   14.9252 C   0  0  2  0  0  0  0  0  0  0  0  0
  -10.1916    7.6426   14.6243 N   0  0  0  0  0  0  0  0  0  0  0  0
   -1.0915    5.4763   19.6349 O   0  0  0  0  0  0  0  0  0  0  0  0
   -8.4435    7.6506   16.1806 N   0  0  0  0  0  0  0  0  0  0  0  0
   -7.1651    7.9099   16.5421 C   0  0  2  0  0  0  0  0  0  0  0  0
   -6.2470    8.4853   15.5503 C   0  0  2  0  0  0  0  0  0  0  0  0
   -6.7943    8.7490   14.2023 C   0  0  0  0  0  0  0  0  0  0  0  0
   -6.0218    9.2764   13.2206 O   0  0  0  0  0  0  0  0  0  0  0  0
   -5.0561    8.6278   16.1649 N   0  0  0  0  0  0  0  0  0  0  0  0
   -5.2025    8.1830   17.4485 C   0  0  0  0  0  0  0  0  0  0  0  0
   -6.4657    7.7524   17.6674 N   0  0  1  0  0  0  0  0  0  0  0  0
  1  3  1  6  0  0  0
  1  4  2  0  0  0  0
  1  6  1  0  0  0  0
  1 22  1  0  0  0  0
  2 28  1  0  0  0  0
  2 35  1  6  0  0  0
  2 38  2  0  0  0  0
  2 10  1  0  0  0  0
  5  6  1  0  0  0  0
  7  5  1  6  0  0  0
  7  8  1  0  0  0  0
  7  9  1  0  0  0  0
  9 10  1  1  0  0  0
  9 11  1  0  0  0  0
 11 12  1  1  0  0  0
 11 13  1  0  0  0  0
 13  8  1  1  0  0  0
 13 33  1  0  0  0  0
 14 46  1  0  0  0  0
 14 17  1  0  0  0  0
 14 25  1  1  0  0  0
 15 16  1  0  0  0  0
 15 29  1  0  0  0  0
 16 18  1  1  0  0  0
 16 21  1  0  0  0  0
 17 19  1  1  0  0  0
 17 20  1  0  0  0  0
 20 22  1  1  0  0  0
 20 24  1  0  0  0  0
 23 21  1  1  0  0  0
 23 26  1  0  0  0  0
 23 33  1  0  0  0  0
 24 25  1  6  0  0  0
 24 27  1  0  0  0  0
 26 29  1  6  0  0  0
 26 31  1  0  0  0  0
 27 28  1  0  0  0  0
 29 30  2  0  0  0  0
 31 32  1  0  0  0  0
 33 32  1  6  0  0  0
 34 36  1  0  0  0  0
 34 42  1  0  0  0  0
 36 37  1  1  0  0  0
 36 39  1  0  0  0  0
 40 39  1  6  0  0  0
 40 41  1  0  0  0  0
 40 46  1  0  0  0  0
 41 42  1  6  0  0  0
 41 44  1  0  0  0  0
 42 43  2  0  0  0  0
 44 45  1  0  0  0  0
 46 45  1  1  0  0  0
M  CHG  2   3  -1  35  -1
M  END
>  <CHROM.1>
117.45418253,56.18152065,-5.68262058,4.55794162,16.96040873,-0.11869793,-1.11619131
0.98354743

>  <Name>
ligand

>  <RI>
-1

>  <Rbt.Current_Directory>
/home/itssahil/PROJECTS/Mol_Feturizer/Test_systems_manuscript/rnas/3mum

>  <Rbt.Executable>
rbdock ($Id: //depot/dev/client3/rdock/2013.1/src/exe/rbdock.cxx#4 $)

>  <Rbt.Library>
libRbt.so (2013.1, Build901 2013/11/27)

>  <Rbt.Parameter_File>
/export/apps/rDock/src/rDock_2013.1_src/data/scripts/dock_solv.prm

>  <Rbt.Receptor>
prm/pocket_docking_8.prm

>  <SCORE>
-12.4848

>  <SCORE.INTER>
-13.6446

>  <SCORE.INTER.CONST>
1

>  <SCORE.INTER.POLAR>
0

>  <SCORE.INTER.ROT>
2

>  <SCORE.INTER.SOLV>
12.1796

>  <SCORE.INTER.VDW>
-18.0896

>  <SCORE.INTER.norm>
-0.296623

>  <SCORE.INTRA>
1.15983

>  <SCORE.INTRA.DIHEDRAL>
-0.00984527

>  <SCORE.INTRA.DIHEDRAL.0>
2.40424

>  <SCORE.INTRA.POLAR>
0

>  <SCORE.INTRA.POLAR.0>
0

>  <SCORE.INTRA.REPUL>
0

>  <SCORE.INTRA.REPUL.0>
0

>  <SCORE.INTRA.SOLV>
3.65183

>  <SCORE.INTRA.SOLV.lig_0>
-134.169

>  <SCORE.INTRA.VDW>
-0.66116

>  <SCORE.INTRA.VDW.0>
-2.18386

>  <SCORE.INTRA.norm>
0.0252137

>  <SCORE.RESTR>
0

>  <SCORE.RESTR.CAVITY>
0

>  <SCORE.RESTR.norm>
0

>  <SCORE.SYSTEM>
0

>  <SCORE.SYSTEM.CONST>
0

>  <SCORE.SYSTEM.DIHEDRAL>
0

>  <SCORE.SYSTEM.SOLV>
0

>  <SCORE.SYSTEM.norm>
0

>  <SCORE.heavy>
46

>  <SCORE.norm>
-0.271409

>  <RMSD>
7.101

$$$$
ligand
 OpenBabel02271912143D
libRbt.so/2013.1/901 2013/11/27
 46 52  0  0  0  0  0  0  0  0999 V2000
   -8.1424    3.0111   18.7611 P   0  0  1  0  0  0  0  0  0  0  0  0
   -2.6451    5.1172   18.6196 P   0  0  2  0  0  0  0  0  0  0  0  0
   -9.0262    3.5057   17.3065 O   0  5  0  0  0  0  0  0  0  0  0  0
   -9.1243    1.9405   19.7951 O   0  0  0  0  0  0  0  0  0  0  0  0
   -5.8189    1.8388   19.2618 C   0  0  0  0  0  0  0  0  0  0  0  0
   -6.7907    2.2602   18.3045 O   0  0  0  0  0  0  0  0  0  0  0  0
   -4.4972    1.6274   18.5483 C   0  0  1  0  0  0  0  0  0  0  0  0
   -4.6910    0.7422   17.4361 O   0  0  0  0  0  0  0  0  0  0  0  0
   -3.9231    2.9047   17.9571 C   0  0  1  0  0  0  0  0  0  0  0  0
   -3.0550    3.5754   18.8680 O   0  0  0  0  0  0  0  0  0  0  0  0
   -3.1840    2.4127   16.7252 C   0  0  1  0  0  0  0  0  0  0  0  0
   -1.8409    2.0608   17.0670 O   0  0  0  0  0  0  0  0  0  0  0  0
   -3.9201    1.1567   16.2974 C   0  0  2  0  0  0  0  0  0  0  0  0
   -7.1408    7.6366   18.4813 C   0  0  1  0  0  0  0  0  0  0  0  0
   -6.8534   -0.7368   12.2970 N   0  0  0  0  0  0  0  0  0  0  0  0
   -6.0902   -1.4155   13.1967 C   0  0  1  0  0  0  0  0  0  0  0  0
   -7.7776    6.2953   18.2520 C   0  0  2  0  0  0  0  0  0  0  0  0
   -6.0362   -2.7641   13.1012 N   0  0  0  0  0  0  0  0  0  0  0  0
   -9.0781    6.3593   18.8401 O   0  0  0  0  0  0  0  0  0  0  0  0
   -6.8754    5.3116   18.9705 C   0  0  2  0  0  0  0  0  0  0  0  0
   -5.3796   -0.7920   14.1831 N   0  0  0  0  0  0  0  0  0  0  0  0
   -7.6203    4.2795   19.6023 O   0  0  0  0  0  0  0  0  0  0  0  0
   -5.4023    0.5577   14.3224 C   0  0  2  0  0  0  0  0  0  0  0  0
   -6.1482    6.1396   20.0117 C   0  0  2  0  0  0  0  0  0  0  0  0
   -6.2085    7.4886   19.5514 O   0  0  0  0  0  0  0  0  0  0  0  0
   -6.2108    1.3408   13.3718 C   0  0  1  0  0  0  0  0  0  0  0  0
   -4.6911    5.7260   20.1850 C   0  0  0  0  0  0  0  0  0  0  0  0
   -3.9995    5.9228   18.9501 O   0  0  0  0  0  0  0  0  0  0  0  0
   -6.9555    0.6115   12.3299 C   0  0  0  0  0  0  0  0  0  0  0  0
   -7.7160    1.2805   11.4265 O   0  0  0  0  0  0  0  0  0  0  0  0
   -6.0676    2.6276   13.7075 N   0  0  0  0  0  0  0  0  0  0  0  0
   -5.2329    2.6755   14.7867 C   0  0  0  0  0  0  0  0  0  0  0  0
   -4.8317    1.4414   15.1576 N   0  0  1  0  0  0  0  0  0  0  0  0
   -7.8537    9.7362   13.7430 N   0  0  0  0  0  0  0  0  0  0  0  0
   -2.1472    5.3959   16.9299 O   0  5  0  0  0  0  0  0  0  0  0  0
   -8.7682    9.4008   14.6938 C   0  0  2  0  0  0  0  0  0  0  0  0
  -10.0872    9.6196   14.4521 N   0  0  0  0  0  0  0  0  0  0  0  0
   -1.3718    5.6916   19.7137 O   0  0  0  0  0  0  0  0  0  0  0  0
   -8.4030    8.8517   15.8843 N   0  0  0  0  0  0  0  0  0  0  0  0
   -7.1046    8.6162   16.1857 C   0  0  2  0  0  0  0  0  0  0  0  0
   -6.0712    8.9545   15.1981 C   0  0  2  0  0  0  0  0  0  0  0  0
   -6.5297    9.5425   13.9213 C   0  0  0  0  0  0  0  0  0  0  0  0
   -5.6492    9.8844   12.9484 O   0  0  0  0  0  0  0  0  0  0  0  0
   -4.8884    8.6105   15.7449 N   0  0  0  0  0  0  0  0  0  0  0  0
   -5.1449    8.0974   16.9850 C   0  0  0  0  0  0  0  0  0  0  0  0
   -6.4727    8.1010   17.2420 N   0  0  1  0  0  0  0  0  0  0  0  0
  1  3  1  6  0  0  0
  1  4  2  0  0  0  0
  1  6  1  0  0  0  0
  1 22  1  0  0  0  0
  2 28  1  0  0  0  0
  2 35  1  6  0  0  0
  2 38  2  0  0  0  0
  2 10  1  0  0  0  0
  5  6  1  0  0  0  0
  7  5  1  6  0  0  0
  7  8  1  0  0  0  0
  7  9  1  0  0  0  0
  9 10  1  1  0  0  0
  9 11  1  0  0  0  0
 11 12  1  1  0  0  0
 11 13  1  0  0  0  0
 13  8  1  1  0  0  0
 13 33  1  0  0  0  0
 14 46  1  0  0  0  0
 14 17  1  0  0  0  0
 14 25  1  1  0  0  0
 15 16  1  0  0  0  0
 15 29  1  0  0  0  0
 16 18  1  6  0  0  0
 16 21  1  0  0  0  0
 17 19  1  1  0  0  0
 17 20  1  0  0  0  0
 20 22  1  1  0  0  0
 20 24  1  0  0  0  0
 23 21  1  6  0  0  0
 23 26  1  0  0  0  0
 23 33  1  0  0  0  0
 24 25  1  6  0  0  0
 24 27  1  0  0  0  0
 26 29  1  1  0  0  0
 26 31  1  0  0  0  0
 27 28  1  0  0  0  0
 29 30  2  0  0  0  0
 31 32  1  0  0  0  0
 33 32  1  1  0  0  0
 34 36  1  0  0  0  0
 34 42  1  0  0  0  0
 36 37  1  1  0  0  0
 36 39  1  0  0  0  0
 40 39  1  6  0  0  0
 40 41  1  0  0  0  0
 40 46  1  0  0  0  0
 41 42  1  6  0  0  0
 41 44  1  0  0  0  0
 42 43  2  0  0  0  0
 44 45  1  0  0  0  0
 46 45  1  1  0  0  0
M  CHG  2   3  -1  35  -1
M  END
>  <CHROM.1>
-80.05162066,77.11353998,-5.89688702,4.37419970,16.70209585,-1.30009988,-1.03285545
0.45519189

>  <Name>
ligand

>  <RI>
-1

>  <Rbt.Current_Directory>
/home/itssahil/PROJECTS/Mol_Feturizer/Test_systems_manuscript/rnas/3mum

>  <Rbt.Executable>
rbdock ($Id: //depot/dev/client3/rdock/2013.1/src/exe/rbdock.cxx#4 $)

>  <Rbt.Library>
libRbt.so (2013.1, Build901 2013/11/27)

>  <Rbt.Parameter_File>
/export/apps/rDock/src/rDock_2013.1_src/data/scripts/dock_solv.prm

>  <Rbt.Receptor>
prm/pocket_docking_7.prm

>  <SCORE>
-14.7707

>  <SCORE.INTER>
-15.0613

>  <SCORE.INTER.CONST>
1

>  <SCORE.INTER.POLAR>
0

>  <SCORE.INTER.ROT>
2

>  <SCORE.INTER.SOLV>
21.2312

>  <SCORE.INTER.VDW>
-22.0512

>  <SCORE.INTER.norm>
-0.327419

>  <SCORE.INTRA>
0.290548

>  <SCORE.INTRA.DIHEDRAL>
0.0137471

>  <SCORE.INTRA.DIHEDRAL.0>
2.40424

>  <SCORE.INTRA.POLAR>
0

>  <SCORE.INTRA.POLAR.0>
0

>  <SCORE.INTRA.REPUL>
0

>  <SCORE.INTRA.REPUL.0>
0

>  <SCORE.INTRA.SOLV>
0.0204864

>  <SCORE.INTRA.SOLV.lig_0>
-134.169

>  <SCORE.INTRA.VDW>
0.273431

>  <SCORE.INTRA.VDW.0>
-2.18386

>  <SCORE.INTRA.norm>
0.00631626

>  <SCORE.RESTR>
0

>  <SCORE.RESTR.CAVITY>
0

>  <SCORE.RESTR.norm>
0

>  <SCORE.SYSTEM>
0

>  <SCORE.SYSTEM.CONST>
0

>  <SCORE.SYSTEM.DIHEDRAL>
0

>  <SCORE.SYSTEM.SOLV>
0

>  <SCORE.SYSTEM.norm>
0

>  <SCORE.heavy>
46

>  <SCORE.norm>
-0.321103

>  <RMSD>
7.104

$$$$
ligand
 OpenBabel02271912143D
libRbt.so/2013.1/901 2013/11/27
 46 52  0  0  0  0  0  0  0  0999 V2000
   -7.7996    2.5211   19.1082 P   0  0  1  0  0  0  0  0  0  0  0  0
   -2.4370    4.9074   18.6352 P   0  0  2  0  0  0  0  0  0  0  0  0
   -8.8243    3.0432   17.7595 O   0  5  0  0  0  0  0  0  0  0  0  0
   -8.6407    1.3512   20.1586 O   0  0  0  0  0  0  0  0  0  0  0  0
   -5.3905    1.4442   19.3534 C   0  0  0  0  0  0  0  0  0  0  0  0
   -6.4577    1.8637   18.5028 O   0  0  0  0  0  0  0  0  0  0  0  0
   -4.1250    1.3364   18.5243 C   0  0  1  0  0  0  0  0  0  0  0  0
   -4.3702    0.4999   17.3849 O   0  0  0  0  0  0  0  0  0  0  0  0
   -3.6622    2.6694   17.9590 C   0  0  1  0  0  0  0  0  0  0  0  0
   -2.7528    3.3363   18.8316 O   0  0  0  0  0  0  0  0  0  0  0  0
   -3.0071    2.2784   16.6460 C   0  0  1  0  0  0  0  0  0  0  0  0
   -1.6253    1.9782   16.8577 O   0  0  0  0  0  0  0  0  0  0  0  0
   -3.7176    1.0099   16.2116 C   0  0  2  0  0  0  0  0  0  0  0  0
   -7.0402    7.1996   19.0007 C   0  0  1  0  0  0  0  0  0  0  0  0
   -5.9781    4.5987   13.0174 N   0  0  0  0  0  0  0  0  0  0  0  0
   -4.9713    4.7658   13.9179 C   0  0  1  0  0  0  0  0  0  0  0  0
   -7.6313    5.8411   18.7512 C   0  0  2  0  0  0  0  0  0  0  0  0
   -4.4373    6.0010   14.0584 N   0  0  0  0  0  0  0  0  0  0  0  0
   -8.8794    5.8094   19.4456 O   0  0  0  0  0  0  0  0  0  0  0  0
   -6.6274    4.8693   19.3391 C   0  0  2  0  0  0  0  0  0  0  0  0
   -4.4848    3.7427   14.6816 N   0  0  0  0  0  0  0  0  0  0  0  0
   -7.2681    3.7702   19.9721 O   0  0  0  0  0  0  0  0  0  0  0  0
   -4.9849    2.4855   14.5767 C   0  0  2  0  0  0  0  0  0  0  0  0
   -5.8546    5.6794   20.3613 C   0  0  2  0  0  0  0  0  0  0  0  0
   -6.0156    7.0452   19.9818 O   0  0  0  0  0  0  0  0  0  0  0  0
   -6.0789    2.2507   13.6184 C   0  0  1  0  0  0  0  0  0  0  0  0
   -4.3704    5.3319   20.3927 C   0  0  0  0  0  0  0  0  0  0  0  0
   -3.7948    5.6257   19.1182 O   0  0  0  0  0  0  0  0  0  0  0  0
   -6.5608    3.3937   12.8226 C   0  0  0  0  0  0  0  0  0  0  0  0
   -7.5668    3.2369   11.9251 O   0  0  0  0  0  0  0  0  0  0  0  0
   -6.3986    0.9547   13.7033 N   0  0  0  0  0  0  0  0  0  0  0  0
   -5.5799    0.3948   14.6412 C   0  0  0  0  0  0  0  0  0  0  0  0
   -4.7338    1.3054   15.1670 N   0  0  1  0  0  0  0  0  0  0  0  0
   -8.1637    8.5543   14.0742 N   0  0  0  0  0  0  0  0  0  0  0  0
   -2.0961    5.2962   16.9283 O   0  5  0  0  0  0  0  0  0  0  0  0
   -8.9634    8.0104   15.0321 C   0  0  2  0  0  0  0  0  0  0  0  0
  -10.2665    7.7566   14.7428 N   0  0  0  0  0  0  0  0  0  0  0  0
   -1.1044    5.4896   19.6517 O   0  0  0  0  0  0  0  0  0  0  0  0
   -8.4986    7.7119   16.2759 N   0  0  0  0  0  0  0  0  0  0  0  0
   -7.2125    7.9478   16.6256 C   0  0  2  0  0  0  0  0  0  0  0  0
   -6.2999    8.5311   15.6333 C   0  0  2  0  0  0  0  0  0  0  0  0
   -6.8610    8.8282   14.2981 C   0  0  0  0  0  0  0  0  0  0  0  0
   -6.0945    9.3651   13.3169 O   0  0  0  0  0  0  0  0  0  0  0  0
   -5.0994    8.6464   16.2349 N   0  0  0  0  0  0  0  0  0  0  0  0
   -5.2350    8.1783   17.5114 C   0  0  0  0  0  0  0  0  0  0  0  0
   -6.5007    7.7594   17.7384 N   0  0  1  0  0  0  0  0  0  0  0  0
  1  3  1  6  0  0  0
  1  4  2  0  0  0  0
  1  6  1  0  0  0  0
  1 22  1  0  0  0  0
  2 28  1  0  0  0  0
  2 35  1  6  0  0  0
  2 38  2  0  0  0  0
  2 10  1  0  0  0  0
  5  6  1  0  0  0  0
  7  5  1  6  0  0  0
  7  8  1  0  0  0  0
  7  9  1  0  0  0  0
  9 10  1  1  0  0  0
  9 11  1  0  0  0  0
 11 12  1  1  0  0  0
 11 13  1  0  0  0  0
 13  8  1  1  0  0  0
 13 33  1  0  0  0  0
 14 46  1  0  0  0  0
 14 17  1  0  0  0  0
 14 25  1  1  0  0  0
 15 16  1  0  0  0  0
 15 29  1  0  0  0  0
 16 18  1  1  0  0  0
 16 21  1  0  0  0  0
 17 19  1  1  0  0  0
 17 20  1  0  0  0  0
 20 22  1  1  0  0  0
 20 24  1  0  0  0  0
 23 21  1  1  0  0  0
 23 26  1  0  0  0  0
 23 33  1  0  0  0  0
 24 25  1  6  0  0  0
 24 27  1  0  0  0  0
 26 29  1  6  0  0  0
 26 31  1  0  0  0  0
 27 28  1  0  0  0  0
 29 30  2  0  0  0  0
 31 32  1  0  0  0  0
 33 32  1  6  0  0  0
 34 36  1  0  0  0  0
 34 42  1  0  0  0  0
 36 37  1  1  0  0  0
 36 39  1  0  0  0  0
 40 39  1  6  0  0  0
 40 41  1  0  0  0  0
 40 46  1  0  0  0  0
 41 42  1  6  0  0  0
 41 44  1  0  0  0  0
 42 43  2  0  0  0  0
 44 45  1  0  0  0  0
 46 45  1  1  0  0  0
M  CHG  2   3  -1  35  -1
M  END
>  <CHROM.1>
120.79740946,57.40102170,-5.69372918,4.58101765,16.97919862,-0.05299663,-1.11495253
1.07534088

>  <Name>
ligand

>  <RI>
-1

>  <Rbt.Current_Directory>
/home/itssahil/PROJECTS/Mol_Feturizer/Test_systems_manuscript/rnas/3mum

>  <Rbt.Executable>
rbdock ($Id: //depot/dev/client3/rdock/2013.1/src/exe/rbdock.cxx#4 $)

>  <Rbt.Library>
libRbt.so (2013.1, Build901 2013/11/27)

>  <Rbt.Parameter_File>
/export/apps/rDock/src/rDock_2013.1_src/data/scripts/dock_solv.prm

>  <Rbt.Receptor>
prm/pocket_docking_7.prm

>  <SCORE>
-12.4613

>  <SCORE.INTER>
-13.5141

>  <SCORE.INTER.CONST>
1

>  <SCORE.INTER.POLAR>
0

>  <SCORE.INTER.ROT>
2

>  <SCORE.INTER.SOLV>
12.6851

>  <SCORE.INTER.VDW>
-18.1711

>  <SCORE.INTER.norm>
-0.293784

>  <SCORE.INTRA>
1.05277

>  <SCORE.INTRA.DIHEDRAL>
-0.00874823

>  <SCORE.INTRA.DIHEDRAL.0>
2.40424

>  <SCORE.INTRA.POLAR>
0

>  <SCORE.INTRA.POLAR.0>
0

>  <SCORE.INTRA.REPUL>
0

>  <SCORE.INTRA.REPUL.0>
0

>  <SCORE.INTRA.SOLV>
2.96549

>  <SCORE.INTRA.SOLV.lig_0>
-134.169

>  <SCORE.INTRA.VDW>
-0.425606

>  <SCORE.INTRA.VDW.0>
-2.18386

>  <SCORE.INTRA.norm>
0.0228862

>  <SCORE.RESTR>
0

>  <SCORE.RESTR.CAVITY>
0

>  <SCORE.RESTR.norm>
0

>  <SCORE.SYSTEM>
0

>  <SCORE.SYSTEM.CONST>
0

>  <SCORE.SYSTEM.DIHEDRAL>
0

>  <SCORE.SYSTEM.SOLV>
0

>  <SCORE.SYSTEM.norm>
0

>  <SCORE.heavy>
46

>  <SCORE.norm>
-0.270898

>  <RMSD>
7.105

$$$$
ligand
 OpenBabel02271912143D
libRbt.so/2013.1/901 2013/11/27
 46 52  0  0  0  0  0  0  0  0999 V2000
   -7.8724    2.8133   18.8556 P   0  0  1  0  0  0  0  0  0  0  0  0
   -2.3874    4.9299   18.5236 P   0  0  2  0  0  0  0  0  0  0  0  0
   -8.8207    3.3448   17.4556 O   0  5  0  0  0  0  0  0  0  0  0  0
   -8.8068    1.7145   19.9039 O   0  0  0  0  0  0  0  0  0  0  0  0
   -5.5286    1.6314   19.2205 C   0  0  0  0  0  0  0  0  0  0  0  0
   -6.5425    2.0765   18.3192 O   0  0  0  0  0  0  0  0  0  0  0  0
   -4.2402    1.4407   18.4432 C   0  0  1  0  0  0  0  0  0  0  0  0
   -4.4835    0.5849   17.3179 O   0  0  0  0  0  0  0  0  0  0  0  0
   -3.6934    2.7339   17.8608 C   0  0  1  0  0  0  0  0  0  0  0  0
   -2.7855    3.3816   18.7493 O   0  0  0  0  0  0  0  0  0  0  0  0
   -3.0102    2.2756   16.5844 C   0  0  1  0  0  0  0  0  0  0  0  0
   -1.6531    1.9167   16.8563 O   0  0  0  0  0  0  0  0  0  0  0  0
   -3.7645    1.0302   16.1571 C   0  0  2  0  0  0  0  0  0  0  0  0
   -6.8852    7.4459   18.6533 C   0  0  1  0  0  0  0  0  0  0  0  0
   -6.9272   -0.7666   12.2891 N   0  0  0  0  0  0  0  0  0  0  0  0
   -6.1327   -1.4686   13.1426 C   0  0  1  0  0  0  0  0  0  0  0  0
   -7.5315    6.1102   18.4175 C   0  0  2  0  0  0  0  0  0  0  0  0
   -6.1081   -2.8168   13.0308 N   0  0  0  0  0  0  0  0  0  0  0  0
   -8.8043    6.1570   19.0647 O   0  0  0  0  0  0  0  0  0  0  0  0
   -6.5977    5.1093   19.0686 C   0  0  2  0  0  0  0  0  0  0  0  0
   -5.3627   -0.8687   14.0986 N   0  0  0  0  0  0  0  0  0  0  0  0
   -7.3135    4.0598   19.7057 O   0  0  0  0  0  0  0  0  0  0  0  0
   -5.3538    0.4795   14.2526 C   0  0  2  0  0  0  0  0  0  0  0  0
   -5.8248    5.9105   20.0977 C   0  0  2  0  0  0  0  0  0  0  0  0
   -5.9059    7.2711   19.6763 O   0  0  0  0  0  0  0  0  0  0  0  0
   -6.1942    1.2873   13.3516 C   0  0  1  0  0  0  0  0  0  0  0  0
   -4.3613    5.4945   20.1946 C   0  0  0  0  0  0  0  0  0  0  0  0
   -3.7258    5.7247   18.9355 O   0  0  0  0  0  0  0  0  0  0  0  0
   -7.0030    0.5829   12.3408 C   0  0  0  0  0  0  0  0  0  0  0  0
   -7.7951    1.2752   11.4833 O   0  0  0  0  0  0  0  0  0  0  0  0
   -6.0110    2.5675   13.6928 N   0  0  0  0  0  0  0  0  0  0  0  0
   -5.1230    2.5887   14.7294 C   0  0  0  0  0  0  0  0  0  0  0  0
   -4.7263    1.3437   15.0672 N   0  0  1  0  0  0  0  0  0  0  0  0
   -7.8166    9.6100   13.9824 N   0  0  0  0  0  0  0  0  0  0  0  0
   -1.9658    5.2538   16.8212 O   0  5  0  0  0  0  0  0  0  0  0  0
   -8.6880    9.2413   14.9610 C   0  0  2  0  0  0  0  0  0  0  0  0
  -10.0190    9.4385   14.7729 N   0  0  0  0  0  0  0  0  0  0  0  0
   -1.0665    5.4770   19.5742 O   0  0  0  0  0  0  0  0  0  0  0  0
   -8.2676    8.6796   16.1272 N   0  0  0  0  0  0  0  0  0  0  0  0
   -6.9545    8.4642   16.3754 C   0  0  2  0  0  0  0  0  0  0  0  0
   -5.9659    8.8388   15.3556 C   0  0  2  0  0  0  0  0  0  0  0  0
   -6.4834    9.4390   14.1074 C   0  0  0  0  0  0  0  0  0  0  0  0
   -5.6471    9.8141   13.1082 O   0  0  0  0  0  0  0  0  0  0  0  0
   -4.7569    8.5087   15.8514 N   0  0  0  0  0  0  0  0  0  0  0  0
   -4.9566    7.9701   17.0912 C   0  0  0  0  0  0  0  0  0  0  0  0
   -6.2734    7.9438   17.3980 N   0  0  1  0  0  0  0  0  0  0  0  0
  1  3  1  6  0  0  0
  1  4  2  0  0  0  0
  1  6  1  0  0  0  0
  1 22  1  0  0  0  0
  2 28  1  0  0  0  0
  2 35  1  6  0  0  0
  2 38  2  0  0  0  0
  2 10  1  0  0  0  0
  5  6  1  0  0  0  0
  7  5  1  6  0  0  0
  7  8  1  0  0  0  0
  7  9  1  0  0  0  0
  9 10  1  1  0  0  0
  9 11  1  0  0  0  0
 11 12  1  1  0  0  0
 11 13  1  0  0  0  0
 13  8  1  1  0  0  0
 13 33  1  0  0  0  0
 14 46  1  0  0  0  0
 14 17  1  0  0  0  0
 14 25  1  1  0  0  0
 15 16  1  0  0  0  0
 15 29  1  0  0  0  0
 16 18  1  6  0  0  0
 16 21  1  0  0  0  0
 17 19  1  1  0  0  0
 17 20  1  0  0  0  0
 20 22  1  1  0  0  0
 20 24  1  0  0  0  0
 23 21  1  6  0  0  0
 23 26  1  0  0  0  0
 23 33  1  0  0  0  0
 24 25  1  6  0  0  0
 24 27  1  0  0  0  0
 26 29  1  1  0  0  0
 26 31  1  0  0  0  0
 27 28  1  0  0  0  0
 29 30  2  0  0  0  0
 31 32  1  0  0  0  0
 33 32  1  1  0  0  0
 34 36  1  0  0  0  0
 34 42  1  0  0  0  0
 36 37  1  1  0  0  0
 36 39  1  0  0  0  0
 40 39  1  6  0  0  0
 40 41  1  0  0  0  0
 40 46  1  0  0  0  0
 41 42  1  6  0  0  0
 41 44  1  0  0  0  0
 42 43  2  0  0  0  0
 44 45  1  0  0  0  0
 46 45  1  1  0  0  0
M  CHG  2   3  -1  35  -1
M  END
>  <CHROM.1>
-78.61957596,75.87179362,-5.72823553,4.22626914,16.73674376,-1.34887015,-0.98520783
0.43753600

>  <Name>
ligand

>  <RI>
-1

>  <Rbt.Current_Directory>
/home/itssahil/PROJECTS/Mol_Feturizer/Test_systems_manuscript/rnas/3mum

>  <Rbt.Executable>
rbdock ($Id: //depot/dev/client3/rdock/2013.1/src/exe/rbdock.cxx#4 $)

>  <Rbt.Library>
libRbt.so (2013.1, Build901 2013/11/27)

>  <Rbt.Parameter_File>
/export/apps/rDock/src/rDock_2013.1_src/data/scripts/dock_solv.prm

>  <Rbt.Receptor>
prm/pocket_docking_8.prm

>  <SCORE>
-14.7158

>  <SCORE.INTER>
-15.0493

>  <SCORE.INTER.CONST>
1

>  <SCORE.INTER.POLAR>
0

>  <SCORE.INTER.ROT>
2

>  <SCORE.INTER.SOLV>
21.1269

>  <SCORE.INTER.VDW>
-22.0085

>  <SCORE.INTER.norm>
-0.32716

>  <SCORE.INTRA>
0.333534

>  <SCORE.INTRA.DIHEDRAL>
0.0126944

>  <SCORE.INTRA.DIHEDRAL.0>
2.40424

>  <SCORE.INTRA.POLAR>
0

>  <SCORE.INTRA.POLAR.0>
0

>  <SCORE.INTRA.REPUL>
0

>  <SCORE.INTRA.REPUL.0>
0

>  <SCORE.INTRA.SOLV>
0.0191303

>  <SCORE.INTRA.SOLV.lig_0>
-134.169

>  <SCORE.INTRA.VDW>
0.317622

>  <SCORE.INTRA.VDW.0>
-2.18386

>  <SCORE.INTRA.norm>
0.00725074

>  <SCORE.RESTR>
0

>  <SCORE.RESTR.CAVITY>
0

>  <SCORE.RESTR.norm>
0

>  <SCORE.SYSTEM>
0

>  <SCORE.SYSTEM.CONST>
0

>  <SCORE.SYSTEM.DIHEDRAL>
0

>  <SCORE.SYSTEM.SOLV>
0

>  <SCORE.SYSTEM.norm>
0

>  <SCORE.heavy>
46

>  <SCORE.norm>
-0.319909

>  <RMSD>
7.110

$$$$
ligand
 OpenBabel02271912143D
libRbt.so/2013.1/901 2013/11/27
 46 52  0  0  0  0  0  0  0  0999 V2000
   -7.2376    3.2135   14.1123 P   0  0  1  0  0  0  0  0  0  0  0  0
   -8.9285    8.7010   15.4175 P   0  0  2  0  0  0  0  0  0  0  0  0
   -6.1451    2.5945   15.3634 O   0  5  0  0  0  0  0  0  0  0  0  0
   -7.5941    1.9756   12.8795 O   0  0  0  0  0  0  0  0  0  0  0  0
   -9.6321    4.3486   14.0779 C   0  0  0  0  0  0  0  0  0  0  0  0
   -8.5997    3.7024   14.8228 O   0  0  0  0  0  0  0  0  0  0  0  0
  -10.5240    5.1054   15.0435 C   0  0  1  0  0  0  0  0  0  0  0  0
  -10.9731    4.2163   16.0758 O   0  0  0  0  0  0  0  0  0  0  0  0
   -9.8066    6.2359   15.7631 C   0  0  1  0  0  0  0  0  0  0  0  0
   -9.9145    7.4729   15.0621 O   0  0  0  0  0  0  0  0  0  0  0  0
  -10.5037    6.2838   17.1113 C   0  0  1  0  0  0  0  0  0  0  0  0
  -11.6385    7.1512   17.0461 O   0  0  0  0  0  0  0  0  0  0  0  0
  -10.9899    4.8674   17.3559 C   0  0  2  0  0  0  0  0  0  0  0  0
   -4.1927    6.8034   14.6761 C   0  0  1  0  0  0  0  0  0  0  0  0
   -6.7389    5.0563   20.5317 N   0  0  0  0  0  0  0  0  0  0  0  0
   -7.2903    6.0459   19.7774 C   0  0  1  0  0  0  0  0  0  0  0  0
   -4.8289    5.4441   14.7453 C   0  0  2  0  0  0  0  0  0  0  0  0
   -6.7112    7.2684   19.8039 N   0  0  0  0  0  0  0  0  0  0  0  0
   -4.0511    4.5905   13.9042 O   0  0  0  0  0  0  0  0  0  0  0  0
   -6.2323    5.6469   14.2095 C   0  0  2  0  0  0  0  0  0  0  0  0
   -8.3958    5.8530   18.9980 N   0  0  0  0  0  0  0  0  0  0  0  0
   -6.6578    4.5450   13.4195 O   0  0  0  0  0  0  0  0  0  0  0  0
   -9.0144    4.6466   18.9386 C   0  0  2  0  0  0  0  0  0  0  0  0
   -6.1457    6.8962   13.3549 C   0  0  2  0  0  0  0  0  0  0  0  0
   -4.9995    7.6086   13.8176 O   0  0  0  0  0  0  0  0  0  0  0  0
   -8.4559    3.5395   19.7341 C   0  0  1  0  0  0  0  0  0  0  0  0
   -7.3794    7.7836   13.4769 C   0  0  0  0  0  0  0  0  0  0  0  0
   -7.5074    8.2223   14.8308 O   0  0  0  0  0  0  0  0  0  0  0  0
   -7.2623    3.8092   20.5555 C   0  0  0  0  0  0  0  0  0  0  0  0
   -6.7038    2.8273   21.3078 O   0  0  0  0  0  0  0  0  0  0  0  0
   -9.2257    2.4698   19.5058 N   0  0  0  0  0  0  0  0  0  0  0  0
  -10.2029    2.8514   18.6323 C   0  0  0  0  0  0  0  0  0  0  0  0
  -10.0807    4.1510   18.2893 N   0  0  1  0  0  0  0  0  0  0  0  0
   -3.0155    5.8676   19.6868 N   0  0  0  0  0  0  0  0  0  0  0  0
   -8.8223    8.9643   17.1782 O   0  5  0  0  0  0  0  0  0  0  0  0
   -3.0084    5.0245   18.6181 C   0  0  2  0  0  0  0  0  0  0  0  0
   -2.6461    3.7276   18.7987 N   0  0  0  0  0  0  0  0  0  0  0  0
   -9.3801   10.2196   14.6187 O   0  0  0  0  0  0  0  0  0  0  0  0
   -3.3532    5.4402   17.3689 N   0  0  0  0  0  0  0  0  0  0  0  0
   -3.7165    6.7211   17.1251 C   0  0  2  0  0  0  0  0  0  0  0  0
   -3.7463    7.6777   18.2394 C   0  0  2  0  0  0  0  0  0  0  0  0
   -3.3671    7.1660   19.5737 C   0  0  0  0  0  0  0  0  0  0  0  0
   -3.3672    7.9740   20.6627 O   0  0  0  0  0  0  0  0  0  0  0  0
   -4.1471    8.8569   17.7243 N   0  0  0  0  0  0  0  0  0  0  0  0
   -4.3529    8.6699   16.3865 C   0  0  0  0  0  0  0  0  0  0  0  0
   -4.0961    7.3897   16.0345 N   0  0  1  0  0  0  0  0  0  0  0  0
  1  3  1  1  0  0  0
  1  4  2  0  0  0  0
  1  6  1  0  0  0  0
  1 22  1  0  0  0  0
  2 28  1  0  0  0  0
  2 35  1  1  0  0  0
  2 38  2  0  0  0  0
  2 10  1  0  0  0  0
  5  6  1  0  0  0  0
  7  5  1  6  0  0  0
  7  8  1  0  0  0  0
  7  9  1  0  0  0  0
  9 10  1  6  0  0  0
  9 11  1  0  0  0  0
 11 12  1  6  0  0  0
 11 13  1  0  0  0  0
 13  8  1  6  0  0  0
 13 33  1  0  0  0  0
 14 46  1  0  0  0  0
 14 17  1  0  0  0  0
 14 25  1  6  0  0  0
 15 16  1  0  0  0  0
 15 29  1  0  0  0  0
 16 18  1  6  0  0  0
 16 21  1  0  0  0  0
 17 19  1  6  0  0  0
 17 20  1  0  0  0  0
 20 22  1  6  0  0  0
 20 24  1  0  0  0  0
 23 21  1  6  0  0  0
 23 26  1  0  0  0  0
 23 33  1  0  0  0  0
 24 25  1  1  0  0  0
 24 27  1  0  0  0  0
 26 29  1  1  0  0  0
 26 31  1  0  0  0  0
 27 28  1  0  0  0  0
 29 30  2  0  0  0  0
 31 32  1  0  0  0  0
 33 32  1  1  0  0  0
 34 36  1  0  0  0  0
 34 42  1  0  0  0  0
 36 37  1  6  0  0  0
 36 39  1  0  0  0  0
 40 39  1  1  0  0  0
 40 41  1  0  0  0  0
 40 46  1  0  0  0  0
 41 42  1  1  0  0  0
 41 44  1  0  0  0  0
 42 43  2  0  0  0  0
 44 45  1  0  0  0  0
 46 45  1  6  0  0  0
M  CHG  2   3  -1  35  -1
M  END
>  <CHROM.1>
121.03965243,42.88706124,-7.08787510,5.79035330,16.65465372,-2.71218191,0.32592759
1.96241273

>  <Name>
ligand

>  <RI>
-1

>  <Rbt.Current_Directory>
/home/itssahil/PROJECTS/Mol_Feturizer/Test_systems_manuscript/rnas/3mum

>  <Rbt.Executable>
rbdock ($Id: //depot/dev/client3/rdock/2013.1/src/exe/rbdock.cxx#4 $)

>  <Rbt.Library>
libRbt.so (2013.1, Build901 2013/11/27)

>  <Rbt.Parameter_File>
/export/apps/rDock/src/rDock_2013.1_src/data/scripts/dock_solv.prm

>  <Rbt.Receptor>
prm/pocket_docking_6.prm

>  <SCORE>
-9.8318

>  <SCORE.INTER>
-11.0301

>  <SCORE.INTER.CONST>
1

>  <SCORE.INTER.POLAR>
0

>  <SCORE.INTER.ROT>
2

>  <SCORE.INTER.SOLV>
13.2456

>  <SCORE.INTER.VDW>
-16.7019

>  <SCORE.INTER.norm>
-0.239784

>  <SCORE.INTRA>
1.19827

>  <SCORE.INTRA.DIHEDRAL>
-0.0263465

>  <SCORE.INTRA.DIHEDRAL.0>
2.40424

>  <SCORE.INTRA.POLAR>
0

>  <SCORE.INTRA.POLAR.0>
0

>  <SCORE.INTRA.REPUL>
0

>  <SCORE.INTRA.REPUL.0>
0

>  <SCORE.INTRA.SOLV>
3.6418

>  <SCORE.INTRA.SOLV.lig_0>
-134.169

>  <SCORE.INTRA.VDW>
-0.60946

>  <SCORE.INTRA.VDW.0>
-2.18386

>  <SCORE.INTRA.norm>
0.0260493

>  <SCORE.RESTR>
0

>  <SCORE.RESTR.CAVITY>
0

>  <SCORE.RESTR.norm>
0

>  <SCORE.SYSTEM>
0

>  <SCORE.SYSTEM.CONST>
0

>  <SCORE.SYSTEM.DIHEDRAL>
0

>  <SCORE.SYSTEM.SOLV>
0

>  <SCORE.SYSTEM.norm>
0

>  <SCORE.heavy>
46

>  <SCORE.norm>
-0.213735

>  <RMSD>
7.180

$$$$
ligand
 OpenBabel02271912143D
libRbt.so/2013.1/901 2013/11/27
 46 52  0  0  0  0  0  0  0  0999 V2000
   -2.3551    4.8147   18.7009 P   0  0  1  0  0  0  0  0  0  0  0  0
   -7.8081    2.6017   18.9119 P   0  0  2  0  0  0  0  0  0  0  0  0
   -1.9384    5.2611   17.0369 O   0  5  0  0  0  0  0  0  0  0  0  0
   -1.0588    5.2535   19.8438 O   0  0  0  0  0  0  0  0  0  0  0  0
   -4.3695    5.3113   20.3499 C   0  0  0  0  0  0  0  0  0  0  0  0
   -3.7272    5.5615   19.0996 O   0  0  0  0  0  0  0  0  0  0  0  0
   -5.8191    5.7453   20.2444 C   0  0  1  0  0  0  0  0  0  0  0  0
   -5.8790    7.1017   19.7812 O   0  0  0  0  0  0  0  0  0  0  0  0
   -6.6166    4.9347   19.2358 C   0  0  1  0  0  0  0  0  0  0  0  0
   -7.2444    3.8022   19.8327 O   0  0  0  0  0  0  0  0  0  0  0  0
   -7.6305    5.9368   18.7125 C   0  0  1  0  0  0  0  0  0  0  0  0
   -8.8022    5.9223   19.5319 O   0  0  0  0  0  0  0  0  0  0  0  0
   -6.9581    7.2898   18.8523 C   0  0  2  0  0  0  0  0  0  0  0  0
   -3.6997    0.9859   16.2495 C   0  0  1  0  0  0  0  0  0  0  0  0
   -7.9272    9.1894   13.9897 N   0  0  0  0  0  0  0  0  0  0  0  0
   -8.8079    8.8737   14.9781 C   0  0  1  0  0  0  0  0  0  0  0  0
   -3.0624    2.2950   16.6203 C   0  0  2  0  0  0  0  0  0  0  0  0
  -10.1280    9.0486   14.7384 N   0  0  0  0  0  0  0  0  0  0  0  0
   -1.6579    2.0497   16.7106 O   0  0  0  0  0  0  0  0  0  0  0  0
   -3.6661    2.6512   17.9644 C   0  0  2  0  0  0  0  0  0  0  0  0
   -8.4136    8.3876   16.1925 N   0  0  0  0  0  0  0  0  0  0  0  0
   -2.7097    3.2504   18.8280 O   0  0  0  0  0  0  0  0  0  0  0  0
   -7.1019    8.1962   16.4828 C   0  0  2  0  0  0  0  0  0  0  0  0
   -4.1334    1.3303   18.5433 C   0  0  2  0  0  0  0  0  0  0  0  0
   -4.2912    0.4495   17.4322 O   0  0  0  0  0  0  0  0  0  0  0  0
   -6.1065    8.5195   15.4459 C   0  0  1  0  0  0  0  0  0  0  0  0
   -5.4566    1.4470   19.2917 C   0  0  0  0  0  0  0  0  0  0  0  0
   -6.4715    1.8768   18.3821 O   0  0  0  0  0  0  0  0  0  0  0  0
   -6.5931    9.0407   14.1561 C   0  0  0  0  0  0  0  0  0  0  0  0
   -5.7221    9.3546   13.1637 O   0  0  0  0  0  0  0  0  0  0  0  0
   -4.9038    8.2437   15.9622 N   0  0  0  0  0  0  0  0  0  0  0  0
   -5.1028    7.7780   17.2299 C   0  0  0  0  0  0  0  0  0  0  0  0
   -6.4146    7.7466   17.5457 N   0  0  1  0  0  0  0  0  0  0  0  0
   -5.9394    4.4944   13.0806 N   0  0  0  0  0  0  0  0  0  0  0  0
   -8.7671    3.2243   17.5431 O   0  5  0  0  0  0  0  0  0  0  0  0
   -4.9724    4.6643   14.0234 C   0  0  2  0  0  0  0  0  0  0  0  0
   -4.4555    5.9041   14.2276 N   0  0  0  0  0  0  0  0  0  0  0  0
   -8.7681    1.4138   19.8147 O   0  0  0  0  0  0  0  0  0  0  0  0
   -4.5038    3.6282   14.7712 N   0  0  0  0  0  0  0  0  0  0  0  0
   -4.9747    2.3696   14.6093 C   0  0  2  0  0  0  0  0  0  0  0  0
   -6.0215    2.1237   13.6086 C   0  0  2  0  0  0  0  0  0  0  0  0
   -6.4943    3.2893   12.8314 C   0  0  0  0  0  0  0  0  0  0  0  0
   -7.4595    3.1604   11.8878 O   0  0  0  0  0  0  0  0  0  0  0  0
   -6.3075    0.8079   13.6655 N   0  0  0  0  0  0  0  0  0  0  0  0
   -5.5042    0.2559   14.6231 C   0  0  0  0  0  0  0  0  0  0  0  0
   -4.7110    1.1955   15.1859 N   0  0  1  0  0  0  0  0  0  0  0  0
  1  3  1  6  0  0  0
  1  4  2  0  0  0  0
  1  6  1  0  0  0  0
  1 22  1  0  0  0  0
  2 28  1  0  0  0  0
  2 35  1  6  0  0  0
  2 38  2  0  0  0  0
  2 10  1  0  0  0  0
  5  6  1  0  0  0  0
  7  5  1  6  0  0  0
  7  8  1  0  0  0  0
  7  9  1  0  0  0  0
  9 10  1  1  0  0  0
  9 11  1  0  0  0  0
 11 12  1  1  0  0  0
 11 13  1  0  0  0  0
 13  8  1  1  0  0  0
 13 33  1  0  0  0  0
 14 46  1  0  0  0  0
 14 17  1  0  0  0  0
 14 25  1  1  0  0  0
 15 16  1  0  0  0  0
 15 29  1  0  0  0  0
 16 18  1  6  0  0  0
 16 21  1  0  0  0  0
 17 19  1  1  0  0  0
 17 20  1  0  0  0  0
 20 22  1  1  0  0  0
 20 24  1  0  0  0  0
 23 21  1  6  0  0  0
 23 26  1  0  0  0  0
 23 33  1  0  0  0  0
 24 25  1  6  0  0  0
 24 27  1  0  0  0  0
 26 29  1  1  0  0  0
 26 31  1  0  0  0  0
 27 28  1  0  0  0  0
 29 30  2  0  0  0  0
 31 32  1  0  0  0  0
 33 32  1  1  0  0  0
 34 36  1  0  0  0  0
 34 42  1  0  0  0  0
 36 37  1  6  0  0  0
 36 39  1  0  0  0  0
 40 39  1  1  0  0  0
 40 41  1  0  0  0  0
 40 46  1  0  0  0  0
 41 42  1  1  0  0  0
 41 44  1  0  0  0  0
 42 43  2  0  0  0  0
 44 45  1  0  0  0  0
 46 45  1  6  0  0  0
M  CHG  2   3  -1  35  -1
M  END
>  <CHROM.1>
-170.56349084,2.43147452,-5.63015611,4.62398500,16.92252147,-0.16870723,-1.13707599
1.01811607

>  <Name>
ligand

>  <RI>
-1

>  <Rbt.Current_Directory>
/home/itssahil/PROJECTS/Mol_Feturizer/Test_systems_manuscript/rnas/3mum

>  <Rbt.Executable>
rbdock ($Id: //depot/dev/client3/rdock/2013.1/src/exe/rbdock.cxx#4 $)

>  <Rbt.Library>
libRbt.so (2013.1, Build901 2013/11/27)

>  <Rbt.Parameter_File>
/export/apps/rDock/src/rDock_2013.1_src/data/scripts/dock_solv.prm

>  <Rbt.Receptor>
prm/pocket_docking_7.prm

>  <SCORE>
-11.312

>  <SCORE.INTER>
-13.3781

>  <SCORE.INTER.CONST>
1

>  <SCORE.INTER.POLAR>
0

>  <SCORE.INTER.ROT>
2

>  <SCORE.INTER.SOLV>
12.578

>  <SCORE.INTER.VDW>
-18.0447

>  <SCORE.INTER.norm>
-0.290829

>  <SCORE.INTRA>
2.06616

>  <SCORE.INTRA.DIHEDRAL>
-0.00540696

>  <SCORE.INTRA.DIHEDRAL.0>
2.40424

>  <SCORE.INTRA.POLAR>
0

>  <SCORE.INTRA.POLAR.0>
0

>  <SCORE.INTRA.REPUL>
0

>  <SCORE.INTRA.REPUL.0>
0

>  <SCORE.INTRA.SOLV>
3.79211

>  <SCORE.INTRA.SOLV.lig_0>
-134.169

>  <SCORE.INTRA.VDW>
0.172805

>  <SCORE.INTRA.VDW.0>
-2.18386

>  <SCORE.INTRA.norm>
0.0449164

>  <SCORE.RESTR>
0

>  <SCORE.RESTR.CAVITY>
0

>  <SCORE.RESTR.norm>
0

>  <SCORE.SYSTEM>
0

>  <SCORE.SYSTEM.CONST>
0

>  <SCORE.SYSTEM.DIHEDRAL>
0

>  <SCORE.SYSTEM.SOLV>
0

>  <SCORE.SYSTEM.norm>
0

>  <SCORE.heavy>
46

>  <SCORE.norm>
-0.245912

>  <RMSD>
7.261

$$$$
ligand
 OpenBabel02271912143D
libRbt.so/2013.1/901 2013/11/27
 46 52  0  0  0  0  0  0  0  0999 V2000
   -9.3942    7.2495   14.9224 P   0  0  1  0  0  0  0  0  0  0  0  0
   -3.7664    6.7288   13.2693 P   0  0  2  0  0  0  0  0  0  0  0  0
   -9.6885    6.3149   16.3995 O   0  5  0  0  0  0  0  0  0  0  0  0
  -10.8441    8.1570   14.4186 O   0  0  0  0  0  0  0  0  0  0  0  0
   -7.6334    9.0741   14.1519 C   0  0  0  0  0  0  0  0  0  0  0  0
   -8.1694    8.2615   15.1963 O   0  0  0  0  0  0  0  0  0  0  0  0
   -6.2431    9.5261   14.5559 C   0  0  1  0  0  0  0  0  0  0  0  0
   -6.2985   10.1428   15.8500 O   0  0  0  0  0  0  0  0  0  0  0  0
   -5.2552    8.3791   14.6933 C   0  0  1  0  0  0  0  0  0  0  0  0
   -4.5610    8.1192   13.4752 O   0  0  0  0  0  0  0  0  0  0  0  0
   -4.3200    8.8587   15.7894 C   0  0  1  0  0  0  0  0  0  0  0  0
   -3.2453    9.6121   15.2221 O   0  0  0  0  0  0  0  0  0  0  0  0
   -5.1601    9.7848   16.6491 C   0  0  2  0  0  0  0  0  0  0  0  0
   -7.3574    3.0874   13.9198 C   0  0  1  0  0  0  0  0  0  0  0  0
   -4.3389    5.9405   20.2184 N   0  0  0  0  0  0  0  0  0  0  0  0
   -3.5977    6.2678   19.1248 C   0  0  1  0  0  0  0  0  0  0  0  0
   -8.1812    4.1521   14.5870 C   0  0  2  0  0  0  0  0  0  0  0  0
   -2.4860    5.5416   18.8649 N   0  0  0  0  0  0  0  0  0  0  0  0
   -9.5482    3.8265   14.3292 O   0  0  0  0  0  0  0  0  0  0  0  0
   -7.7655    5.4430   13.9098 C   0  0  2  0  0  0  0  0  0  0  0  0
   -3.9320    7.2915   18.2841 N   0  0  0  0  0  0  0  0  0  0  0  0
   -8.8701    6.3168   13.7207 O   0  0  0  0  0  0  0  0  0  0  0  0
   -5.0355    8.0507   18.5022 C   0  0  2  0  0  0  0  0  0  0  0  0
   -7.2054    5.0152   12.5675 C   0  0  2  0  0  0  0  0  0  0  0  0
   -6.8304    3.6470   12.7176 O   0  0  0  0  0  0  0  0  0  0  0  0
   -5.8752    7.7364   19.6712 C   0  0  1  0  0  0  0  0  0  0  0  0
   -5.9894    5.8326   12.1458 C   0  0  0  0  0  0  0  0  0  0  0  0
   -4.9454    5.6447   13.1033 O   0  0  0  0  0  0  0  0  0  0  0  0
   -5.4625    6.6207   20.5414 C   0  0  0  0  0  0  0  0  0  0  0  0
   -6.1977    6.2852   21.6318 O   0  0  0  0  0  0  0  0  0  0  0  0
   -6.8904    8.6072   19.6661 N   0  0  0  0  0  0  0  0  0  0  0  0
   -6.7239    9.4191   18.5814 C   0  0  0  0  0  0  0  0  0  0  0  0
   -5.6175    9.0902   17.8818 N   0  0  1  0  0  0  0  0  0  0  0  0
   -5.9164    2.4613   18.9097 N   0  0  0  0  0  0  0  0  0  0  0  0
   -2.7535    6.3403   14.6849 O   0  5  0  0  0  0  0  0  0  0  0  0
   -7.0741    2.9568   18.3929 C   0  0  2  0  0  0  0  0  0  0  0  0
   -8.0558    3.3669   19.2379 N   0  0  0  0  0  0  0  0  0  0  0  0
   -2.7689    6.6992   11.8023 O   0  0  0  0  0  0  0  0  0  0  0  0
   -7.2816    3.0548   17.0514 N   0  0  0  0  0  0  0  0  0  0  0  0
   -6.3442    2.6565   16.1599 C   0  0  2  0  0  0  0  0  0  0  0  0
   -5.0723    2.1155   16.6573 C   0  0  2  0  0  0  0  0  0  0  0  0
   -4.9029    2.0394   18.1241 C   0  0  0  0  0  0  0  0  0  0  0  0
   -3.7623    1.5569   18.6761 O   0  0  0  0  0  0  0  0  0  0  0  0
   -4.3316    1.8137   15.5726 N   0  0  0  0  0  0  0  0  0  0  0  0
   -5.0728    2.1322   14.4697 C   0  0  0  0  0  0  0  0  0  0  0  0
   -6.2747    2.6383   14.8276 N   0  0  1  0  0  0  0  0  0  0  0  0
  1  3  1  1  0  0  0
  1  4  2  0  0  0  0
  1  6  1  0  0  0  0
  1 22  1  0  0  0  0
  2 28  1  0  0  0  0
  2 35  1  1  0  0  0
  2 38  2  0  0  0  0
  2 10  1  0  0  0  0
  5  6  1  0  0  0  0
  7  5  1  1  0  0  0
  7  8  1  0  0  0  0
  7  9  1  0  0  0  0
  9 10  1  6  0  0  0
  9 11  1  0  0  0  0
 11 12  1  6  0  0  0
 11 13  1  0  0  0  0
 13  8  1  6  0  0  0
 13 33  1  0  0  0  0
 14 46  1  0  0  0  0
 14 17  1  0  0  0  0
 14 25  1  6  0  0  0
 15 16  1  0  0  0  0
 15 29  1  0  0  0  0
 16 18  1  6  0  0  0
 16 21  1  0  0  0  0
 17 19  1  6  0  0  0
 17 20  1  0  0  0  0
 20 22  1  6  0  0  0
 20 24  1  0  0  0  0
 23 21  1  6  0  0  0
 23 26  1  0  0  0  0
 23 33  1  0  0  0  0
 24 25  1  1  0  0  0
 24 27  1  0  0  0  0
 26 29  1  1  0  0  0
 26 31  1  0  0  0  0
 27 28  1  0  0  0  0
 29 30  2  0  0  0  0
 31 32  1  0  0  0  0
 33 32  1  1  0  0  0
 34 36  1  0  0  0  0
 34 42  1  0  0  0  0
 36 37  1  6  0  0  0
 36 39  1  0  0  0  0
 40 39  1  1  0  0  0
 40 41  1  0  0  0  0
 40 46  1  0  0  0  0
 41 42  1  1  0  0  0
 41 44  1  0  0  0  0
 42 43  2  0  0  0  0
 44 45  1  0  0  0  0
 46 45  1  6  0  0  0
M  CHG  2   3  -1  35  -1
M  END
>  <CHROM.1>
142.16818783,28.75133961,-6.07290170,6.04598773,15.97123200,2.40586548,-1.27136687
-0.16165148

>  <Name>
ligand

>  <RI>
-1

>  <Rbt.Current_Directory>
/home/itssahil/PROJECTS/Mol_Feturizer/Test_systems_manuscript/rnas/3mum

>  <Rbt.Executable>
rbdock ($Id: //depot/dev/client3/rdock/2013.1/src/exe/rbdock.cxx#4 $)

>  <Rbt.Library>
libRbt.so (2013.1, Build901 2013/11/27)

>  <Rbt.Parameter_File>
/export/apps/rDock/src/rDock_2013.1_src/data/scripts/dock_solv.prm

>  <Rbt.Receptor>
prm/pocket_docking_8.prm

>  <SCORE>
-11.2654

>  <SCORE.INTER>
-11.8947

>  <SCORE.INTER.CONST>
1

>  <SCORE.INTER.POLAR>
0

>  <SCORE.INTER.ROT>
2

>  <SCORE.INTER.SOLV>
10.5018

>  <SCORE.INTER.VDW>
-16.3637

>  <SCORE.INTER.norm>
-0.25858

>  <SCORE.INTRA>
0.629309

>  <SCORE.INTRA.DIHEDRAL>
-0.0350157

>  <SCORE.INTRA.DIHEDRAL.0>
2.40424

>  <SCORE.INTRA.POLAR>
0

>  <SCORE.INTRA.POLAR.0>
0

>  <SCORE.INTRA.REPUL>
0

>  <SCORE.INTRA.REPUL.0>
0

>  <SCORE.INTRA.SOLV>
0.864826

>  <SCORE.INTRA.SOLV.lig_0>
-134.169

>  <SCORE.INTRA.VDW>
0.214404

>  <SCORE.INTRA.VDW.0>
-2.18386

>  <SCORE.INTRA.norm>
0.0136806

>  <SCORE.RESTR>
0

>  <SCORE.RESTR.CAVITY>
0

>  <SCORE.RESTR.norm>
0

>  <SCORE.SYSTEM>
0

>  <SCORE.SYSTEM.CONST>
0

>  <SCORE.SYSTEM.DIHEDRAL>
0

>  <SCORE.SYSTEM.SOLV>
0

>  <SCORE.SYSTEM.norm>
0

>  <SCORE.heavy>
46

>  <SCORE.norm>
-0.2449

>  <RMSD>
7.265

$$$$
ligand
 OpenBabel02271912143D
libRbt.so/2013.1/901 2013/11/27
 46 52  0  0  0  0  0  0  0  0999 V2000
   -7.8457    2.2253   19.2048 P   0  0  1  0  0  0  0  0  0  0  0  0
   -2.5800    4.8437   18.9006 P   0  0  2  0  0  0  0  0  0  0  0  0
   -8.8904    2.7946   17.8909 O   0  5  0  0  0  0  0  0  0  0  0  0
   -8.6403    0.9574   20.1745 O   0  0  0  0  0  0  0  0  0  0  0  0
   -5.3965    1.2290   19.3842 C   0  0  0  0  0  0  0  0  0  0  0  0
   -6.4795    1.6615   18.5606 O   0  0  0  0  0  0  0  0  0  0  0  0
   -4.1280    1.2249   18.5525 C   0  0  1  0  0  0  0  0  0  0  0  0
   -4.3411    0.4559   17.3603 O   0  0  0  0  0  0  0  0  0  0  0  0
   -3.7177    2.6089   18.0767 C   0  0  1  0  0  0  0  0  0  0  0  0
   -2.8345    3.2520   18.9930 O   0  0  0  0  0  0  0  0  0  0  0  0
   -3.0484    2.3306   16.7423 C   0  0  1  0  0  0  0  0  0  0  0  0
   -1.6558    2.0709   16.9369 O   0  0  0  0  0  0  0  0  0  0  0  0
   -3.7092    1.0666   16.2243 C   0  0  2  0  0  0  0  0  0  0  0  0
   -7.2687    6.9268   19.4055 C   0  0  1  0  0  0  0  0  0  0  0  0
   -5.9293    4.7169   13.0716 N   0  0  0  0  0  0  0  0  0  0  0  0
   -4.9012    4.8558   13.9525 C   0  0  1  0  0  0  0  0  0  0  0  0
   -7.8066    5.5656   19.0663 C   0  0  2  0  0  0  0  0  0  0  0  0
   -4.3304    6.0757   14.0821 N   0  0  0  0  0  0  0  0  0  0  0  0
   -9.0522    5.4401   19.7545 O   0  0  0  0  0  0  0  0  0  0  0  0
   -6.7655    4.5971   19.5914 C   0  0  2  0  0  0  0  0  0  0  0  0
   -4.4290    3.8197   14.7075 N   0  0  0  0  0  0  0  0  0  0  0  0
   -7.3628    3.4348   20.1497 O   0  0  0  0  0  0  0  0  0  0  0  0
   -4.9658    2.5769   14.6129 C   0  0  2  0  0  0  0  0  0  0  0  0
   -6.0243    5.3678   20.6662 C   0  0  2  0  0  0  0  0  0  0  0  0
   -6.2384    6.7482   20.3765 O   0  0  0  0  0  0  0  0  0  0  0  0
   -6.0841    2.3726   13.6758 C   0  0  1  0  0  0  0  0  0  0  0  0
   -4.5277    5.0769   20.6779 C   0  0  0  0  0  0  0  0  0  0  0  0
   -3.9644    5.4756   19.4266 O   0  0  0  0  0  0  0  0  0  0  0  0
   -6.5490    3.5286   12.8886 C   0  0  0  0  0  0  0  0  0  0  0  0
   -7.5760    3.3998   12.0107 O   0  0  0  0  0  0  0  0  0  0  0  0
   -6.4381    1.0861   13.7676 N   0  0  0  0  0  0  0  0  0  0  0  0
   -5.6176    0.5036   14.6901 C   0  0  0  0  0  0  0  0  0  0  0  0
   -4.7365    1.3903   15.1991 N   0  0  1  0  0  0  0  0  0  0  0  0
   -8.3725   10.2663   15.5329 N   0  0  0  0  0  0  0  0  0  0  0  0
   -2.2551    5.3564   17.2235 O   0  5  0  0  0  0  0  0  0  0  0  0
   -9.1519    9.8402   16.5644 C   0  0  2  0  0  0  0  0  0  0  0  0
  -10.4204   10.3135   16.6770 N   0  0  0  0  0  0  0  0  0  0  0  0
   -1.2706    5.4093   19.9559 O   0  0  0  0  0  0  0  0  0  0  0  0
   -8.6997    8.9520   17.4912 N   0  0  0  0  0  0  0  0  0  0  0  0
   -7.4437    8.4504   17.4361 C   0  0  2  0  0  0  0  0  0  0  0  0
   -6.5560    8.8707   16.3439 C   0  0  2  0  0  0  0  0  0  0  0  0
   -7.1053    9.8326   15.3646 C   0  0  0  0  0  0  0  0  0  0  0  0
   -6.3615   10.2759   14.3212 O   0  0  0  0  0  0  0  0  0  0  0  0
   -5.3896    8.2198   16.5233 N   0  0  0  0  0  0  0  0  0  0  0  0
   -5.5199    7.4483   17.6436 C   0  0  0  0  0  0  0  0  0  0  0  0
   -6.7518    7.5886   18.1837 N   0  0  1  0  0  0  0  0  0  0  0  0
  1  3  1  6  0  0  0
  1  4  2  0  0  0  0
  1  6  1  0  0  0  0
  1 22  1  0  0  0  0
  2 28  1  0  0  0  0
  2 35  1  6  0  0  0
  2 38  2  0  0  0  0
  2 10  1  0  0  0  0
  5  6  1  0  0  0  0
  7  5  1  6  0  0  0
  7  8  1  0  0  0  0
  7  9  1  0  0  0  0
  9 10  1  1  0  0  0
  9 11  1  0  0  0  0
 11 12  1  1  0  0  0
 11 13  1  0  0  0  0
 13  8  1  1  0  0  0
 13 33  1  0  0  0  0
 14 46  1  0  0  0  0
 14 17  1  0  0  0  0
 14 25  1  1  0  0  0
 15 16  1  0  0  0  0
 15 29  1  0  0  0  0
 16 18  1  1  0  0  0
 16 21  1  0  0  0  0
 17 19  1  1  0  0  0
 17 20  1  0  0  0  0
 20 22  1  1  0  0  0
 20 24  1  0  0  0  0
 23 21  1  1  0  0  0
 23 26  1  0  0  0  0
 23 33  1  0  0  0  0
 24 25  1  6  0  0  0
 24 27  1  0  0  0  0
 26 29  1  6  0  0  0
 26 31  1  0  0  0  0
 27 28  1  0  0  0  0
 29 30  2  0  0  0  0
 31 32  1  0  0  0  0
 33 32  1  6  0  0  0
 34 36  1  0  0  0  0
 34 42  1  0  0  0  0
 36 37  1  1  0  0  0
 36 39  1  0  0  0  0
 40 39  1  6  0  0  0
 40 41  1  0  0  0  0
 40 46  1  0  0  0  0
 41 42  1  6  0  0  0
 41 44  1  0  0  0  0
 42 43  2  0  0  0  0
 44 45  1  0  0  0  0
 46 45  1  1  0  0  0
M  CHG  2   3  -1  35  -1
M  END
>  <CHROM.1>
126.29297633,95.76912858,-5.79456019,4.68217772,17.30352745,0.07162842,-1.15123121
1.55400992

>  <Name>
ligand

>  <RI>
-1

>  <Rbt.Current_Directory>
/home/itssahil/PROJECTS/Mol_Feturizer/Test_systems_manuscript/rnas/3mum

>  <Rbt.Executable>
rbdock ($Id: //depot/dev/client3/rdock/2013.1/src/exe/rbdock.cxx#4 $)

>  <Rbt.Library>
libRbt.so (2013.1, Build901 2013/11/27)

>  <Rbt.Parameter_File>
/export/apps/rDock/src/rDock_2013.1_src/data/scripts/dock_solv.prm

>  <Rbt.Receptor>
prm/pocket_docking_7.prm

>  <SCORE>
-12.7371

>  <SCORE.INTER>
-13.3074

>  <SCORE.INTER.CONST>
1

>  <SCORE.INTER.POLAR>
0

>  <SCORE.INTER.ROT>
2

>  <SCORE.INTER.SOLV>
14.0683

>  <SCORE.INTER.VDW>
-18.4944

>  <SCORE.INTER.norm>
-0.289292

>  <SCORE.INTRA>
0.570344

>  <SCORE.INTRA.DIHEDRAL>
0.0211056

>  <SCORE.INTRA.DIHEDRAL.0>
2.40424

>  <SCORE.INTRA.POLAR>
0

>  <SCORE.INTRA.POLAR.0>
0

>  <SCORE.INTRA.REPUL>
0

>  <SCORE.INTRA.REPUL.0>
0

>  <SCORE.INTRA.SOLV>
1.77228

>  <SCORE.INTRA.SOLV.lig_0>
-134.169

>  <SCORE.INTRA.VDW>
-0.32635

>  <SCORE.INTRA.VDW.0>
-2.18386

>  <SCORE.INTRA.norm>
0.0123988

>  <SCORE.RESTR>
0

>  <SCORE.RESTR.CAVITY>
0

>  <SCORE.RESTR.norm>
0

>  <SCORE.SYSTEM>
0

>  <SCORE.SYSTEM.CONST>
0

>  <SCORE.SYSTEM.DIHEDRAL>
0

>  <SCORE.SYSTEM.SOLV>
0

>  <SCORE.SYSTEM.norm>
0

>  <SCORE.heavy>
46

>  <SCORE.norm>
-0.276894

>  <RMSD>
7.302

$$$$
ligand
 OpenBabel02271912143D
libRbt.so/2013.1/901 2013/11/27
 46 52  0  0  0  0  0  0  0  0999 V2000
  -10.4096    3.7186   17.6786 P   0  0  1  0  0  0  0  0  0  0  0  0
   -5.8154    7.3602   17.1234 P   0  0  2  0  0  0  0  0  0  0  0  0
  -11.2196    3.5106   16.1158 O   0  5  0  0  0  0  0  0  0  0  0  0
  -11.1440    2.6959   18.9412 O   0  0  0  0  0  0  0  0  0  0  0  0
   -7.9198    3.5227   18.5651 C   0  0  0  0  0  0  0  0  0  0  0  0
   -8.8509    3.3484   17.4970 O   0  0  0  0  0  0  0  0  0  0  0  0
   -6.5196    3.5684   17.9836 C   0  0  1  0  0  0  0  0  0  0  0  0
   -6.3058    2.4120   17.1619 O   0  0  0  0  0  0  0  0  0  0  0  0
   -6.2861    4.7634   17.0738 C   0  0  1  0  0  0  0  0  0  0  0  0
   -5.7735    5.8880   17.7849 O   0  0  0  0  0  0  0  0  0  0  0  0
   -5.2918    4.2330   16.0559 C   0  0  1  0  0  0  0  0  0  0  0  0
   -3.9561    4.4302   16.5264 O   0  0  0  0  0  0  0  0  0  0  0  0
   -5.5628    2.7420   15.9779 C   0  0  2  0  0  0  0  0  0  0  0  0
  -10.8074    8.1828   16.1328 C   0  0  1  0  0  0  0  0  0  0  0  0
   -6.9794   -0.8631   12.3462 N   0  0  0  0  0  0  0  0  0  0  0  0
   -6.1127   -0.9902   13.3878 C   0  0  1  0  0  0  0  0  0  0  0  0
  -10.9828    6.6972   16.2724 C   0  0  2  0  0  0  0  0  0  0  0  0
   -5.4977   -2.1821   13.5665 N   0  0  0  0  0  0  0  0  0  0  0  0
  -12.3039    6.4916   16.7761 O   0  0  0  0  0  0  0  0  0  0  0  0
   -9.9212    6.2749   17.2686 C   0  0  2  0  0  0  0  0  0  0  0  0
   -5.8393    0.0326   14.2515 N   0  0  0  0  0  0  0  0  0  0  0  0
  -10.3945    5.2592   18.1425 O   0  0  0  0  0  0  0  0  0  0  0  0
   -6.4313    1.2462   14.1164 C   0  0  2  0  0  0  0  0  0  0  0  0
   -9.6045    7.5315   18.0556 C   0  0  2  0  0  0  0  0  0  0  0  0
  -10.0088    8.6228   17.2305 O   0  0  0  0  0  0  0  0  0  0  0  0
   -7.3763    1.4382   13.0027 C   0  0  1  0  0  0  0  0  0  0  0  0
   -8.1221    7.6654   18.3857 C   0  0  0  0  0  0  0  0  0  0  0  0
   -7.3779    7.7467   17.1685 O   0  0  0  0  0  0  0  0  0  0  0  0
   -7.6306    0.2976   12.1047 C   0  0  0  0  0  0  0  0  0  0  0  0
   -8.4905    0.4166   11.0615 O   0  0  0  0  0  0  0  0  0  0  0  0
   -7.8147    2.6996   13.0779 N   0  0  0  0  0  0  0  0  0  0  0  0
   -7.2029    3.2791   14.1519 C   0  0  0  0  0  0  0  0  0  0  0  0
   -6.3744    2.4153   14.7754 N   0  0  1  0  0  0  0  0  0  0  0  0
   -7.4888   11.3715   13.6454 N   0  0  0  0  0  0  0  0  0  0  0  0
   -5.2246    7.3367   15.4408 O   0  5  0  0  0  0  0  0  0  0  0  0
   -7.8938   11.3775   14.9450 C   0  0  2  0  0  0  0  0  0  0  0  0
   -7.4011   12.3212   15.7891 N   0  0  0  0  0  0  0  0  0  0  0  0
   -4.9123    8.5739   18.0504 O   0  0  0  0  0  0  0  0  0  0  0  0
   -8.7797   10.4646   15.4289 N   0  0  0  0  0  0  0  0  0  0  0  0
   -9.3000    9.4966   14.6387 C   0  0  2  0  0  0  0  0  0  0  0  0
   -8.9030    9.4403   13.2256 C   0  0  2  0  0  0  0  0  0  0  0  0
   -7.9425   10.4620   12.7570 C   0  0  0  0  0  0  0  0  0  0  0  0
   -7.5199   10.4914   11.4689 O   0  0  0  0  0  0  0  0  0  0  0  0
   -9.5691    8.4039   12.6792 N   0  0  0  0  0  0  0  0  0  0  0  0
  -10.3280    7.8399   13.6656 C   0  0  0  0  0  0  0  0  0  0  0  0
  -10.1647    8.4995   14.8349 N   0  0  1  0  0  0  0  0  0  0  0  0
  1  3  1  6  0  0  0
  1  4  2  0  0  0  0
  1  6  1  0  0  0  0
  1 22  1  0  0  0  0
  2 28  1  0  0  0  0
  2 35  1  6  0  0  0
  2 38  2  0  0  0  0
  2 10  1  0  0  0  0
  5  6  1  0  0  0  0
  7  5  1  6  0  0  0
  7  8  1  0  0  0  0
  7  9  1  0  0  0  0
  9 10  1  1  0  0  0
  9 11  1  0  0  0  0
 11 12  1  1  0  0  0
 11 13  1  0  0  0  0
 13  8  1  1  0  0  0
 13 33  1  0  0  0  0
 14 46  1  0  0  0  0
 14 17  1  0  0  0  0
 14 25  1  1  0  0  0
 15 16  1  0  0  0  0
 15 29  1  0  0  0  0
 16 18  1  6  0  0  0
 16 21  1  0  0  0  0
 17 19  1  1  0  0  0
 17 20  1  0  0  0  0
 20 22  1  1  0  0  0
 20 24  1  0  0  0  0
 23 21  1  6  0  0  0
 23 26  1  0  0  0  0
 23 33  1  0  0  0  0
 24 25  1  6  0  0  0
 24 27  1  0  0  0  0
 26 29  1  1  0  0  0
 26 31  1  0  0  0  0
 27 28  1  0  0  0  0
 29 30  2  0  0  0  0
 31 32  1  0  0  0  0
 33 32  1  1  0  0  0
 34 36  1  0  0  0  0
 34 42  1  0  0  0  0
 36 37  1  1  0  0  0
 36 39  1  0  0  0  0
 40 39  1  6  0  0  0
 40 41  1  0  0  0  0
 40 46  1  0  0  0  0
 41 42  1  6  0  0  0
 41 44  1  0  0  0  0
 42 43  2  0  0  0  0
 44 45  1  0  0  0  0
 46 45  1  1  0  0  0
M  CHG  2   3  -1  35  -1
M  END
>  <CHROM.1>
-88.35091734,-145.03980528,-7.96479207,5.45500189,15.65794240,1.23621392
-1.02689623,2.97013156

>  <Name>
ligand

>  <RI>
-1

>  <Rbt.Current_Directory>
/home/itssahil/PROJECTS/Mol_Feturizer/Test_systems_manuscript/rnas/3mum

>  <Rbt.Executable>
rbdock ($Id: //depot/dev/client3/rdock/2013.1/src/exe/rbdock.cxx#4 $)

>  <Rbt.Library>
libRbt.so (2013.1, Build901 2013/11/27)

>  <Rbt.Parameter_File>
/export/apps/rDock/src/rDock_2013.1_src/data/scripts/dock_solv.prm

>  <Rbt.Receptor>
prm/pocket_docking_8.prm

>  <SCORE>
-14.8945

>  <SCORE.INTER>
-15.1636

>  <SCORE.INTER.CONST>
1

>  <SCORE.INTER.POLAR>
0

>  <SCORE.INTER.ROT>
2

>  <SCORE.INTER.SOLV>
27.577

>  <SCORE.INTER.VDW>
-24.2347

>  <SCORE.INTER.norm>
-0.329643

>  <SCORE.INTRA>
0.26913

>  <SCORE.INTRA.DIHEDRAL>
0.0189604

>  <SCORE.INTRA.DIHEDRAL.0>
2.40424

>  <SCORE.INTRA.POLAR>
0

>  <SCORE.INTRA.POLAR.0>
0

>  <SCORE.INTRA.REPUL>
0

>  <SCORE.INTRA.REPUL.0>
0

>  <SCORE.INTRA.SOLV>
0.0351424

>  <SCORE.INTRA.SOLV.lig_0>
-134.169

>  <SCORE.INTRA.VDW>
0.242078

>  <SCORE.INTRA.VDW.0>
-2.18386

>  <SCORE.INTRA.norm>
0.00585065

>  <SCORE.RESTR>
0

>  <SCORE.RESTR.CAVITY>
0

>  <SCORE.RESTR.norm>
0

>  <SCORE.SYSTEM>
0

>  <SCORE.SYSTEM.CONST>
0

>  <SCORE.SYSTEM.DIHEDRAL>
0

>  <SCORE.SYSTEM.SOLV>
0

>  <SCORE.SYSTEM.norm>
0

>  <SCORE.heavy>
46

>  <SCORE.norm>
-0.323792

>  <RMSD>
7.314

$$$$
ligand
 OpenBabel02271912143D
libRbt.so/2013.1/901 2013/11/27
 46 52  0  0  0  0  0  0  0  0999 V2000
   -7.8505    2.4584   19.1082 P   0  0  1  0  0  0  0  0  0  0  0  0
   -2.3699    4.6117   19.1512 P   0  0  2  0  0  0  0  0  0  0  0  0
   -8.7579    3.1181   17.7359 O   0  5  0  0  0  0  0  0  0  0  0  0
   -8.8108    1.2624   20.0175 O   0  0  0  0  0  0  0  0  0  0  0  0
   -5.5125    1.2535   19.4327 C   0  0  0  0  0  0  0  0  0  0  0  0
   -6.5005    1.7796   18.5463 O   0  0  0  0  0  0  0  0  0  0  0  0
   -4.1995    1.1410   18.6816 C   0  0  1  0  0  0  0  0  0  0  0  0
   -4.4030    0.3954   17.4730 O   0  0  0  0  0  0  0  0  0  0  0  0
   -3.6423    2.4852   18.2421 C   0  0  1  0  0  0  0  0  0  0  0  0
   -2.7661    3.0479   19.2162 O   0  0  0  0  0  0  0  0  0  0  0  0
   -2.9172    2.1522   16.9501 C   0  0  1  0  0  0  0  0  0  0  0  0
   -1.5672    1.7727   17.2292 O   0  0  0  0  0  0  0  0  0  0  0  0
   -3.6508    0.9511   16.3829 C   0  0  2  0  0  0  0  0  0  0  0  0
   -6.8838    7.0919   19.3779 C   0  0  1  0  0  0  0  0  0  0  0  0
   -6.8641   -0.4992   12.4126 N   0  0  0  0  0  0  0  0  0  0  0  0
   -6.1212   -1.2804   13.2433 C   0  0  1  0  0  0  0  0  0  0  0  0
   -7.5148    5.7830   18.9961 C   0  0  2  0  0  0  0  0  0  0  0  0
   -6.1719   -2.6220   13.0750 N   0  0  0  0  0  0  0  0  0  0  0  0
   -8.8073    5.7646   19.6045 O   0  0  0  0  0  0  0  0  0  0  0  0
   -6.5961    4.7271   19.5782 C   0  0  2  0  0  0  0  0  0  0  0  0
   -5.3297   -0.7659   14.2310 N   0  0  0  0  0  0  0  0  0  0  0  0
   -7.3253    3.6199   20.0899 O   0  0  0  0  0  0  0  0  0  0  0  0
   -5.2460    0.5720   14.4417 C   0  0  2  0  0  0  0  0  0  0  0  0
   -5.8600    5.4290   20.7025 C   0  0  2  0  0  0  0  0  0  0  0  0
   -5.9357    6.8232   20.4099 O   0  0  0  0  0  0  0  0  0  0  0  0
   -6.0282    1.4634   13.5676 C   0  0  1  0  0  0  0  0  0  0  0  0
   -4.3979    5.0095   20.8054 C   0  0  0  0  0  0  0  0  0  0  0  0
   -3.7249    5.3601   19.5945 O   0  0  0  0  0  0  0  0  0  0  0  0
   -6.8636    0.8491   12.5203 C   0  0  0  0  0  0  0  0  0  0  0  0
   -7.6047    1.6207   11.6852 O   0  0  0  0  0  0  0  0  0  0  0  0
   -5.7765    2.7157   13.9642 N   0  0  0  0  0  0  0  0  0  0  0  0
   -4.9012    2.6429   15.0092 C   0  0  0  0  0  0  0  0  0  0  0  0
   -4.5801    1.3642   15.2981 N   0  0  1  0  0  0  0  0  0  0  0  0
   -7.1901   10.9076   15.8121 N   0  0  0  0  0  0  0  0  0  0  0  0
   -1.8976    5.0972   17.5013 O   0  5  0  0  0  0  0  0  0  0  0  0
   -8.0374   10.5977   16.8314 C   0  0  2  0  0  0  0  0  0  0  0  0
   -9.1520   11.3515   17.0200 N   0  0  0  0  0  0  0  0  0  0  0  0
   -1.0854    5.0600   20.2900 O   0  0  0  0  0  0  0  0  0  0  0  0
   -7.8033    9.5533   17.6720 N   0  0  0  0  0  0  0  0  0  0  0  0
   -6.7072    8.7704   17.5388 C   0  0  2  0  0  0  0  0  0  0  0  0
   -5.7568    9.0535   16.4551 C   0  0  2  0  0  0  0  0  0  0  0  0
   -6.0680   10.1970   15.5710 C   0  0  0  0  0  0  0  0  0  0  0  0
   -5.2511   10.5330   14.5423 O   0  0  0  0  0  0  0  0  0  0  0  0
   -4.7811    8.1284   16.5470 N   0  0  0  0  0  0  0  0  0  0  0  0
   -5.0815    7.3211   17.6076 C   0  0  0  0  0  0  0  0  0  0  0  0
   -6.2362    7.7086   18.1954 N   0  0  1  0  0  0  0  0  0  0  0  0
  1  3  1  6  0  0  0
  1  4  2  0  0  0  0
  1  6  1  0  0  0  0
  1 22  1  0  0  0  0
  2 28  1  0  0  0  0
  2 35  1  6  0  0  0
  2 38  2  0  0  0  0
  2 10  1  0  0  0  0
  5  6  1  0  0  0  0
  7  5  1  6  0  0  0
  7  8  1  0  0  0  0
  7  9  1  0  0  0  0
  9 10  1  1  0  0  0
  9 11  1  0  0  0  0
 11 12  1  1  0  0  0
 11 13  1  0  0  0  0
 13  8  1  1  0  0  0
 13 33  1  0  0  0  0
 14 46  1  0  0  0  0
 14 17  1  0  0  0  0
 14 25  1  1  0  0  0
 15 16  1  0  0  0  0
 15 29  1  0  0  0  0
 16 18  1  6  0  0  0
 16 21  1  0  0  0  0
 17 19  1  1  0  0  0
 17 20  1  0  0  0  0
 20 22  1  1  0  0  0
 20 24  1  0  0  0  0
 23 21  1  6  0  0  0
 23 26  1  0  0  0  0
 23 33  1  0  0  0  0
 24 25  1  6  0  0  0
 24 27  1  0  0  0  0
 26 29  1  1  0  0  0
 26 31  1  0  0  0  0
 27 28  1  0  0  0  0
 29 30  2  0  0  0  0
 31 32  1  0  0  0  0
 33 32  1  1  0  0  0
 34 36  1  0  0  0  0
 34 42  1  0  0  0  0
 36 37  1  1  0  0  0
 36 39  1  0  0  0  0
 40 39  1  6  0  0  0
 40 41  1  0  0  0  0
 40 46  1  0  0  0  0
 41 42  1  6  0  0  0
 41 44  1  0  0  0  0
 42 43  2  0  0  0  0
 44 45  1  0  0  0  0
 46 45  1  1  0  0  0
M  CHG  2   3  -1  35  -1
M  END
>  <CHROM.1>
-73.81659217,106.91366442,-5.61528925,4.20336497,17.31667045,-1.34934438
-1.04557401,0.49467734

>  <Name>
ligand

>  <RI>
-1

>  <Rbt.Current_Directory>
/home/itssahil/PROJECTS/Mol_Feturizer/Test_systems_manuscript/rnas/3mum

>  <Rbt.Executable>
rbdock ($Id: //depot/dev/client3/rdock/2013.1/src/exe/rbdock.cxx#4 $)

>  <Rbt.Library>
libRbt.so (2013.1, Build901 2013/11/27)

>  <Rbt.Parameter_File>
/export/apps/rDock/src/rDock_2013.1_src/data/scripts/dock_solv.prm

>  <Rbt.Receptor>
prm/pocket_docking_8.prm

>  <SCORE>
-14.8532

>  <SCORE.INTER>
-15.1648

>  <SCORE.INTER.CONST>
1

>  <SCORE.INTER.POLAR>
0

>  <SCORE.INTER.ROT>
2

>  <SCORE.INTER.SOLV>
22.5269

>  <SCORE.INTER.VDW>
-22.5521

>  <SCORE.INTER.norm>
-0.329669

>  <SCORE.INTRA>
0.311562

>  <SCORE.INTRA.DIHEDRAL>
0.0112931

>  <SCORE.INTRA.DIHEDRAL.0>
2.40424

>  <SCORE.INTRA.POLAR>
0

>  <SCORE.INTRA.POLAR.0>
0

>  <SCORE.INTRA.REPUL>
0

>  <SCORE.INTRA.REPUL.0>
0

>  <SCORE.INTRA.SOLV>
0.0959135

>  <SCORE.INTRA.SOLV.lig_0>
-134.169

>  <SCORE.INTRA.VDW>
0.257959

>  <SCORE.INTRA.VDW.0>
-2.18386

>  <SCORE.INTRA.norm>
0.00677309

>  <SCORE.RESTR>
0

>  <SCORE.RESTR.CAVITY>
0

>  <SCORE.RESTR.norm>
0

>  <SCORE.SYSTEM>
0

>  <SCORE.SYSTEM.CONST>
0

>  <SCORE.SYSTEM.DIHEDRAL>
0

>  <SCORE.SYSTEM.SOLV>
0

>  <SCORE.SYSTEM.norm>
0

>  <SCORE.heavy>
46

>  <SCORE.norm>
-0.322896

>  <RMSD>
7.325

$$$$
ligand
 OpenBabel02271912143D
libRbt.so/2013.1/901 2013/11/27
 46 52  0  0  0  0  0  0  0  0999 V2000
   -7.5883    3.4794   20.5797 P   0  0  1  0  0  0  0  0  0  0  0  0
   -6.3765    8.2992   17.4209 P   0  0  2  0  0  0  0  0  0  0  0  0
   -7.1639    2.0228   19.6632 O   0  5  0  0  0  0  0  0  0  0  0  0
   -8.1588    3.0806   22.2213 O   0  0  0  0  0  0  0  0  0  0  0  0
   -6.3541    5.7283   21.2450 C   0  0  0  0  0  0  0  0  0  0  0  0
   -6.2879    4.4294   20.6560 O   0  0  0  0  0  0  0  0  0  0  0  0
   -5.1746    6.5441   20.7509 C   0  0  1  0  0  0  0  0  0  0  0  0
   -3.9595    5.8200   20.9900 O   0  0  0  0  0  0  0  0  0  0  0  0
   -5.2077    6.8011   19.2532 C   0  0  1  0  0  0  0  0  0  0  0  0
   -5.8813    8.0159   18.9313 O   0  0  0  0  0  0  0  0  0  0  0  0
   -3.7368    6.8503   18.8791 C   0  0  1  0  0  0  0  0  0  0  0  0
   -3.2400    8.1840   19.0172 O   0  0  0  0  0  0  0  0  0  0  0  0
   -3.0400    5.9660   19.8964 C   0  0  2  0  0  0  0  0  0  0  0  0
   -9.5069    4.3502   16.3326 C   0  0  1  0  0  0  0  0  0  0  0  0
    0.2415    2.9343   17.0271 N   0  0  0  0  0  0  0  0  0  0  0  0
    0.3551    4.2510   17.3524 C   0  0  1  0  0  0  0  0  0  0  0  0
   -8.8671    3.6454   17.4950 C   0  0  2  0  0  0  0  0  0  0  0  0
    1.4371    4.9293   16.9054 N   0  0  0  0  0  0  0  0  0  0  0  0
   -9.8657    2.7846   18.0453 O   0  0  0  0  0  0  0  0  0  0  0  0
   -8.4799    4.7542   18.4533 C   0  0  2  0  0  0  0  0  0  0  0  0
   -0.5760    4.9099   18.1045 N   0  0  0  0  0  0  0  0  0  0  0  0
   -8.6810    4.3730   19.8074 O   0  0  0  0  0  0  0  0  0  0  0  0
   -1.6774    4.2742   18.5781 C   0  0  2  0  0  0  0  0  0  0  0  0
   -9.3925    5.9116   18.0982 C   0  0  2  0  0  0  0  0  0  0  0  0
   -9.8213    5.6755   16.7582 O   0  0  0  0  0  0  0  0  0  0  0  0
   -1.8505    2.8480   18.2520 C   0  0  1  0  0  0  0  0  0  0  0  0
   -8.6922    7.2636   18.1773 C   0  0  0  0  0  0  0  0  0  0  0  0
   -7.6161    7.2880   17.2374 O   0  0  0  0  0  0  0  0  0  0  0  0
   -0.8122    2.1921   17.4374 C   0  0  0  0  0  0  0  0  0  0  0  0
   -0.9193    0.8805   17.1052 O   0  0  0  0  0  0  0  0  0  0  0  0
   -2.9970    2.4561   18.8185 N   0  0  0  0  0  0  0  0  0  0  0  0
   -3.5254    3.5400   19.4585 C   0  0  0  0  0  0  0  0  0  0  0  0
   -2.7413    4.6293   19.3172 N   0  0  1  0  0  0  0  0  0  0  0  0
   -7.6334    7.1829   12.3534 N   0  0  0  0  0  0  0  0  0  0  0  0
   -5.0938    7.9389   16.2353 O   0  5  0  0  0  0  0  0  0  0  0  0
   -8.5603    7.5100   13.2952 C   0  0  2  0  0  0  0  0  0  0  0  0
   -9.1269    8.7445   13.2677 N   0  0  0  0  0  0  0  0  0  0  0  0
   -6.9638    9.9548   17.1719 O   0  0  0  0  0  0  0  0  0  0  0  0
   -8.9392    6.6371   14.2682 N   0  0  0  0  0  0  0  0  0  0  0  0
   -8.4057    5.3959   14.3515 C   0  0  2  0  0  0  0  0  0  0  0  0
   -7.4022    4.9837   13.3612 C   0  0  2  0  0  0  0  0  0  0  0  0
   -7.0356    5.9729   12.3253 C   0  0  0  0  0  0  0  0  0  0  0  0
   -6.1207    5.6820   11.3677 O   0  0  0  0  0  0  0  0  0  0  0  0
   -7.0548    3.7183   13.6684 N   0  0  0  0  0  0  0  0  0  0  0  0
   -7.7757    3.3523   14.7700 C   0  0  0  0  0  0  0  0  0  0  0  0
   -8.5839    4.3592   15.1724 N   0  0  1  0  0  0  0  0  0  0  0  0
  1  3  1  6  0  0  0
  1  4  2  0  0  0  0
  1  6  1  0  0  0  0
  1 22  1  0  0  0  0
  2 28  1  0  0  0  0
  2 35  1  6  0  0  0
  2 38  2  0  0  0  0
  2 10  1  0  0  0  0
  5  6  1  0  0  0  0
  7  5  1  6  0  0  0
  7  8  1  0  0  0  0
  7  9  1  0  0  0  0
  9 10  1  1  0  0  0
  9 11  1  0  0  0  0
 11 12  1  1  0  0  0
 11 13  1  0  0  0  0
 13  8  1  1  0  0  0
 13 33  1  0  0  0  0
 14 46  1  0  0  0  0
 14 17  1  0  0  0  0
 14 25  1  1  0  0  0
 15 16  1  0  0  0  0
 15 29  1  0  0  0  0
 16 18  1  6  0  0  0
 16 21  1  0  0  0  0
 17 19  1  1  0  0  0
 17 20  1  0  0  0  0
 20 22  1  1  0  0  0
 20 24  1  0  0  0  0
 23 21  1  6  0  0  0
 23 26  1  0  0  0  0
 23 33  1  0  0  0  0
 24 25  1  6  0  0  0
 24 27  1  0  0  0  0
 26 29  1  1  0  0  0
 26 31  1  0  0  0  0
 27 28  1  0  0  0  0
 29 30  2  0  0  0  0
 31 32  1  0  0  0  0
 33 32  1  1  0  0  0
 34 36  1  0  0  0  0
 34 42  1  0  0  0  0
 36 37  1  1  0  0  0
 36 39  1  0  0  0  0
 40 39  1  6  0  0  0
 40 41  1  0  0  0  0
 40 46  1  0  0  0  0
 41 42  1  6  0  0  0
 41 44  1  0  0  0  0
 42 43  2  0  0  0  0
 44 45  1  0  0  0  0
 46 45  1  1  0  0  0
M  CHG  2   3  -1  35  -1
M  END
>  <CHROM.1>
-158.69418008,-139.62179081,-5.86732314,5.29000501,17.53252025,0.53344097
-0.16543135,1.86432244

>  <Name>
ligand

>  <RI>
-1

>  <Rbt.Current_Directory>
/home/itssahil/PROJECTS/Mol_Feturizer/Test_systems_manuscript/rnas/3mum

>  <Rbt.Executable>
rbdock ($Id: //depot/dev/client3/rdock/2013.1/src/exe/rbdock.cxx#4 $)

>  <Rbt.Library>
libRbt.so (2013.1, Build901 2013/11/27)

>  <Rbt.Parameter_File>
/export/apps/rDock/src/rDock_2013.1_src/data/scripts/dock_solv.prm

>  <Rbt.Receptor>
prm/pocket_docking_6.prm

>  <SCORE>
-5.82252

>  <SCORE.INTER>
-5.71702

>  <SCORE.INTER.CONST>
1

>  <SCORE.INTER.POLAR>
0

>  <SCORE.INTER.ROT>
2

>  <SCORE.INTER.SOLV>
13.258

>  <SCORE.INTER.VDW>
-13.164

>  <SCORE.INTER.norm>
-0.124283

>  <SCORE.INTRA>
-0.488767

>  <SCORE.INTRA.DIHEDRAL>
0.0229232

>  <SCORE.INTRA.DIHEDRAL.0>
2.40424

>  <SCORE.INTRA.POLAR>
0

>  <SCORE.INTRA.POLAR.0>
0

>  <SCORE.INTRA.REPUL>
0

>  <SCORE.INTRA.REPUL.0>
0

>  <SCORE.INTRA.SOLV>
0.0665204

>  <SCORE.INTRA.SOLV.lig_0>
-134.169

>  <SCORE.INTRA.VDW>
-0.533488

>  <SCORE.INTRA.VDW.0>
-2.18386

>  <SCORE.INTRA.norm>
-0.0106254

>  <SCORE.RESTR>
0.383268

>  <SCORE.RESTR.CAVITY>
0.383268

>  <SCORE.RESTR.norm>
0.0083319

>  <SCORE.SYSTEM>
0

>  <SCORE.SYSTEM.CONST>
0

>  <SCORE.SYSTEM.DIHEDRAL>
0

>  <SCORE.SYSTEM.SOLV>
0

>  <SCORE.SYSTEM.norm>
0

>  <SCORE.heavy>
46

>  <SCORE.norm>
-0.126577

>  <RMSD>
7.365

$$$$
ligand
 OpenBabel02271912143D
libRbt.so/2013.1/901 2013/11/27
 46 52  0  0  0  0  0  0  0  0999 V2000
   -7.8468    2.4228   19.0368 P   0  0  1  0  0  0  0  0  0  0  0  0
   -2.3983    4.6556   19.1060 P   0  0  2  0  0  0  0  0  0  0  0  0
   -8.7649    3.0882   17.6744 O   0  5  0  0  0  0  0  0  0  0  0  0
   -8.7885    1.2003   19.9299 O   0  0  0  0  0  0  0  0  0  0  0  0
   -5.4910    1.2480   19.3428 C   0  0  0  0  0  0  0  0  0  0  0  0
   -6.4874    1.7718   18.4645 O   0  0  0  0  0  0  0  0  0  0  0  0
   -4.1772    1.1653   18.5893 C   0  0  1  0  0  0  0  0  0  0  0  0
   -4.3708    0.4337   17.3705 O   0  0  0  0  0  0  0  0  0  0  0  0
   -3.6401    2.5235   18.1683 C   0  0  1  0  0  0  0  0  0  0  0  0
   -2.7714    3.0853   19.1495 O   0  0  0  0  0  0  0  0  0  0  0  0
   -2.9114    2.2192   16.8712 C   0  0  1  0  0  0  0  0  0  0  0  0
   -1.5557    1.8557   17.1440 O   0  0  0  0  0  0  0  0  0  0  0  0
   -3.6278    1.0155   16.2878 C   0  0  2  0  0  0  0  0  0  0  0  0
   -6.9479    7.0658   19.3705 C   0  0  1  0  0  0  0  0  0  0  0  0
   -6.9385   -0.4328   12.3975 N   0  0  0  0  0  0  0  0  0  0  0  0
   -6.2016   -1.2157   13.2321 C   0  0  1  0  0  0  0  0  0  0  0  0
   -7.5600    5.7532   18.9709 C   0  0  2  0  0  0  0  0  0  0  0  0
   -6.2876   -2.5586   13.0914 N   0  0  0  0  0  0  0  0  0  0  0  0
   -8.8515    5.7074   19.5799 O   0  0  0  0  0  0  0  0  0  0  0  0
   -6.6253    4.7029   19.5376 C   0  0  2  0  0  0  0  0  0  0  0  0
   -5.3821   -0.7015   14.1969 N   0  0  0  0  0  0  0  0  0  0  0  0
   -7.3377    3.5781   20.0343 O   0  0  0  0  0  0  0  0  0  0  0  0
   -5.2626    0.6378   14.3796 C   0  0  2  0  0  0  0  0  0  0  0  0
   -5.8986    5.3998   20.6711 C   0  0  2  0  0  0  0  0  0  0  0  0
   -5.9950    6.7967   20.3980 O   0  0  0  0  0  0  0  0  0  0  0  0
   -6.0368    1.5308   13.5001 C   0  0  1  0  0  0  0  0  0  0  0  0
   -4.4303    5.0004   20.7670 C   0  0  0  0  0  0  0  0  0  0  0  0
   -3.7637    5.3777   19.5607 O   0  0  0  0  0  0  0  0  0  0  0  0
   -6.9035    0.9169   12.4783 C   0  0  0  0  0  0  0  0  0  0  0  0
   -7.6389    1.6901   11.6396 O   0  0  0  0  0  0  0  0  0  0  0  0
   -5.7485    2.7842   13.8676 N   0  0  0  0  0  0  0  0  0  0  0  0
   -4.8586    2.7103   14.9002 C   0  0  0  0  0  0  0  0  0  0  0  0
   -4.5641    1.4300   15.2095 N   0  0  1  0  0  0  0  0  0  0  0  0
   -6.9099   11.2804   16.2714 N   0  0  0  0  0  0  0  0  0  0  0  0
   -1.9346    5.1709   17.4628 O   0  5  0  0  0  0  0  0  0  0  0  0
   -7.7054   10.9899   17.3372 C   0  0  2  0  0  0  0  0  0  0  0  0
   -8.6544   11.8836   17.7198 N   0  0  0  0  0  0  0  0  0  0  0  0
   -1.1194    5.1067   20.2501 O   0  0  0  0  0  0  0  0  0  0  0  0
   -7.5801    9.8285   18.0356 N   0  0  0  0  0  0  0  0  0  0  0  0
   -6.6492    8.9025   17.7067 C   0  0  2  0  0  0  0  0  0  0  0  0
   -5.7628    9.1581   16.5636 C   0  0  2  0  0  0  0  0  0  0  0  0
   -5.9506   10.4340   15.8406 C   0  0  0  0  0  0  0  0  0  0  0  0
   -5.1814   10.7561   14.7715 O   0  0  0  0  0  0  0  0  0  0  0  0
   -4.9546    8.0850   16.4554 N   0  0  0  0  0  0  0  0  0  0  0  0
   -5.2944    7.2149   17.4526 C   0  0  0  0  0  0  0  0  0  0  0  0
   -6.3104    7.7083   18.1962 N   0  0  1  0  0  0  0  0  0  0  0  0
  1  3  1  6  0  0  0
  1  4  2  0  0  0  0
  1  6  1  0  0  0  0
  1 22  1  0  0  0  0
  2 28  1  0  0  0  0
  2 35  1  6  0  0  0
  2 38  2  0  0  0  0
  2 10  1  0  0  0  0
  5  6  1  0  0  0  0
  7  5  1  6  0  0  0
  7  8  1  0  0  0  0
  7  9  1  0  0  0  0
  9 10  1  1  0  0  0
  9 11  1  0  0  0  0
 11 12  1  1  0  0  0
 11 13  1  0  0  0  0
 13  8  1  1  0  0  0
 13 33  1  0  0  0  0
 14 46  1  0  0  0  0
 14 17  1  0  0  0  0
 14 25  1  1  0  0  0
 15 16  1  0  0  0  0
 15 29  1  0  0  0  0
 16 18  1  6  0  0  0
 16 21  1  0  0  0  0
 17 19  1  1  0  0  0
 17 20  1  0  0  0  0
 20 22  1  1  0  0  0
 20 24  1  0  0  0  0
 23 21  1  6  0  0  0
 23 26  1  0  0  0  0
 23 33  1  0  0  0  0
 24 25  1  6  0  0  0
 24 27  1  0  0  0  0
 26 29  1  1  0  0  0
 26 31  1  0  0  0  0
 27 28  1  0  0  0  0
 29 30  2  0  0  0  0
 31 32  1  0  0  0  0
 33 32  1  1  0  0  0
 34 36  1  0  0  0  0
 34 42  1  0  0  0  0
 36 37  1  1  0  0  0
 36 39  1  0  0  0  0
 40 39  1  6  0  0  0
 40 41  1  0  0  0  0
 40 46  1  0  0  0  0
 41 42  1  6  0  0  0
 41 44  1  0  0  0  0
 42 43  2  0  0  0  0
 44 45  1  0  0  0  0
 46 45  1  1  0  0  0
M  CHG  2   3  -1  35  -1
M  END
>  <CHROM.1>
-70.73555824,119.95127884,-5.60718370,4.26325513,17.32400413,-1.38812719
-1.06351324,0.48083118

>  <Name>
ligand

>  <RI>
-1

>  <Rbt.Current_Directory>
/home/itssahil/PROJECTS/Mol_Feturizer/Test_systems_manuscript/rnas/3mum

>  <Rbt.Executable>
rbdock ($Id: //depot/dev/client3/rdock/2013.1/src/exe/rbdock.cxx#4 $)

>  <Rbt.Library>
libRbt.so (2013.1, Build901 2013/11/27)

>  <Rbt.Parameter_File>
/export/apps/rDock/src/rDock_2013.1_src/data/scripts/dock_solv.prm

>  <Rbt.Receptor>
prm/pocket_docking_8.prm

>  <SCORE>
-14.8355

>  <SCORE.INTER>
-15.2177

>  <SCORE.INTER.CONST>
1

>  <SCORE.INTER.POLAR>
0

>  <SCORE.INTER.ROT>
2

>  <SCORE.INTER.SOLV>
22.6413

>  <SCORE.INTER.VDW>
-22.6256

>  <SCORE.INTER.norm>
-0.330821

>  <SCORE.INTRA>
0.382208

>  <SCORE.INTRA.DIHEDRAL>
-0.00547206

>  <SCORE.INTRA.DIHEDRAL.0>
2.40424

>  <SCORE.INTRA.POLAR>
0

>  <SCORE.INTRA.POLAR.0>
0

>  <SCORE.INTRA.REPUL>
0

>  <SCORE.INTRA.REPUL.0>
0

>  <SCORE.INTRA.SOLV>
0.0577206

>  <SCORE.INTRA.SOLV.lig_0>
-134.169

>  <SCORE.INTRA.VDW>
0.356084

>  <SCORE.INTRA.VDW.0>
-2.18386

>  <SCORE.INTRA.norm>
0.00830887

>  <SCORE.RESTR>
0

>  <SCORE.RESTR.CAVITY>
0

>  <SCORE.RESTR.norm>
0

>  <SCORE.SYSTEM>
0

>  <SCORE.SYSTEM.CONST>
0

>  <SCORE.SYSTEM.DIHEDRAL>
0

>  <SCORE.SYSTEM.SOLV>
0

>  <SCORE.SYSTEM.norm>
0

>  <SCORE.heavy>
46

>  <SCORE.norm>
-0.322512

>  <RMSD>
7.377

$$$$
ligand
 OpenBabel02271912143D
libRbt.so/2013.1/901 2013/11/27
 46 52  0  0  0  0  0  0  0  0999 V2000
   -7.5633    3.9057   13.9524 P   0  0  1  0  0  0  0  0  0  0  0  0
  -10.7311    8.7127   15.1910 P   0  0  2  0  0  0  0  0  0  0  0  0
   -6.1360    3.8251   15.0003 O   0  5  0  0  0  0  0  0  0  0  0  0
   -7.6903    2.4702   12.9025 O   0  0  0  0  0  0  0  0  0  0  0  0
  -10.1689    4.2233   14.3179 C   0  0  0  0  0  0  0  0  0  0  0  0
   -8.8724    4.0330   14.8848 O   0  0  0  0  0  0  0  0  0  0  0  0
  -11.0873    4.7823   15.3879 C   0  0  1  0  0  0  0  0  0  0  0  0
  -11.0393    3.9385   16.5470 O   0  0  0  0  0  0  0  0  0  0  0  0
  -10.6749    6.1630   15.8716 C   0  0  1  0  0  0  0  0  0  0  0  0
  -11.3004    7.2033   15.1235 O   0  0  0  0  0  0  0  0  0  0  0  0
  -11.1145    6.1648   17.3251 C   0  0  1  0  0  0  0  0  0  0  0  0
  -12.4663    6.6191   17.4281 O   0  0  0  0  0  0  0  0  0  0  0  0
  -11.0575    4.7114   17.7575 C   0  0  2  0  0  0  0  0  0  0  0  0
   -5.8272    8.3072   13.6532 C   0  0  1  0  0  0  0  0  0  0  0  0
   -8.1025    1.2092   20.4399 N   0  0  0  0  0  0  0  0  0  0  0  0
   -9.2975    1.0227   19.8156 C   0  0  1  0  0  0  0  0  0  0  0  0
   -5.9575    6.8382   13.9400 C   0  0  2  0  0  0  0  0  0  0  0  0
   -9.8545   -0.2097   19.8555 N   0  0  0  0  0  0  0  0  0  0  0  0
   -5.0925    6.1686   13.0210 O   0  0  0  0  0  0  0  0  0  0  0  0
   -7.4174    6.5224   13.6816 C   0  0  2  0  0  0  0  0  0  0  0  0
   -9.9526    2.0251   19.1578 N   0  0  0  0  0  0  0  0  0  0  0  0
   -7.5798    5.2505   13.0691 O   0  0  0  0  0  0  0  0  0  0  0  0
   -9.4351    3.2776   19.0874 C   0  0  2  0  0  0  0  0  0  0  0  0
   -7.8917    7.6152   12.7438 C   0  0  2  0  0  0  0  0  0  0  0  0
   -6.9854    8.7028   12.9196 O   0  0  0  0  0  0  0  0  0  0  0  0
   -8.1443    3.5343   19.7495 C   0  0  1  0  0  0  0  0  0  0  0  0
   -9.3110    8.0816   13.0481 C   0  0  0  0  0  0  0  0  0  0  0  0
   -9.3501    8.6294   14.3673 O   0  0  0  0  0  0  0  0  0  0  0  0
   -7.4856    2.4129   20.4427 C   0  0  0  0  0  0  0  0  0  0  0  0
   -6.2958    2.5908   21.0710 O   0  0  0  0  0  0  0  0  0  0  0  0
   -7.8531    4.8239   19.5468 N   0  0  0  0  0  0  0  0  0  0  0  0
   -8.8724    5.3605   18.8143 C   0  0  0  0  0  0  0  0  0  0  0  0
   -9.8209    4.4410   18.5379 N   0  0  1  0  0  0  0  0  0  0  0  0
   -2.6548    9.5712   17.6163 N   0  0  0  0  0  0  0  0  0  0  0  0
  -10.4271    9.2208   16.8733 O   0  5  0  0  0  0  0  0  0  0  0  0
   -2.4254    8.7741   16.5369 C   0  0  2  0  0  0  0  0  0  0  0  0
   -1.2092    8.1857   16.3933 N   0  0  0  0  0  0  0  0  0  0  0  0
  -11.7853    9.8983   14.3965 O   0  0  0  0  0  0  0  0  0  0  0  0
   -3.3784    8.5470   15.5923 N   0  0  0  0  0  0  0  0  0  0  0  0
   -4.6063    9.1102   15.6769 C   0  0  2  0  0  0  0  0  0  0  0  0
   -4.9147    9.9783   16.8210 C   0  0  2  0  0  0  0  0  0  0  0  0
   -3.8414   10.1825   17.8172 C   0  0  0  0  0  0  0  0  0  0  0  0
   -4.0340   10.9649   18.9078 O   0  0  0  0  0  0  0  0  0  0  0  0
   -6.1887   10.3880   16.6614 N   0  0  0  0  0  0  0  0  0  0  0  0
   -6.6559    9.8298   15.5051 C   0  0  0  0  0  0  0  0  0  0  0  0
   -5.7056    9.0645   14.9220 N   0  0  1  0  0  0  0  0  0  0  0  0
  1  3  1  1  0  0  0
  1  4  2  0  0  0  0
  1  6  1  0  0  0  0
  1 22  1  0  0  0  0
  2 28  1  0  0  0  0
  2 35  1  1  0  0  0
  2 38  2  0  0  0  0
  2 10  1  0  0  0  0
  5  6  1  0  0  0  0
  7  5  1  6  0  0  0
  7  8  1  0  0  0  0
  7  9  1  0  0  0  0
  9 10  1  6  0  0  0
  9 11  1  0  0  0  0
 11 12  1  6  0  0  0
 11 13  1  0  0  0  0
 13  8  1  6  0  0  0
 13 33  1  0  0  0  0
 14 46  1  0  0  0  0
 14 17  1  0  0  0  0
 14 25  1  1  0  0  0
 15 16  1  0  0  0  0
 15 29  1  0  0  0  0
 16 18  1  1  0  0  0
 16 21  1  0  0  0  0
 17 19  1  6  0  0  0
 17 20  1  0  0  0  0
 20 22  1  6  0  0  0
 20 24  1  0  0  0  0
 23 21  1  1  0  0  0
 23 26  1  0  0  0  0
 23 33  1  0  0  0  0
 24 25  1  1  0  0  0
 24 27  1  0  0  0  0
 26 29  1  6  0  0  0
 26 31  1  0  0  0  0
 27 28  1  0  0  0  0
 29 30  2  0  0  0  0
 31 32  1  0  0  0  0
 33 32  1  6  0  0  0
 34 36  1  0  0  0  0
 34 42  1  0  0  0  0
 36 37  1  6  0  0  0
 36 39  1  0  0  0  0
 40 39  1  1  0  0  0
 40 41  1  0  0  0  0
 40 46  1  0  0  0  0
 41 42  1  1  0  0  0
 41 44  1  0  0  0  0
 42 43  2  0  0  0  0
 44 45  1  0  0  0  0
 46 45  1  6  0  0  0
M  CHG  2   3  -1  35  -1
M  END
>  <CHROM.1>
-63.83744002,75.11707407,-7.90892199,6.24553418,16.19596595,2.18645093,0.38980239
2.44030287

>  <Name>
ligand

>  <RI>
-1

>  <Rbt.Current_Directory>
/home/itssahil/PROJECTS/Mol_Feturizer/Test_systems_manuscript/rnas/3mum

>  <Rbt.Executable>
rbdock ($Id: //depot/dev/client3/rdock/2013.1/src/exe/rbdock.cxx#4 $)

>  <Rbt.Library>
libRbt.so (2013.1, Build901 2013/11/27)

>  <Rbt.Parameter_File>
/export/apps/rDock/src/rDock_2013.1_src/data/scripts/dock_solv.prm

>  <Rbt.Receptor>
prm/pocket_docking_8.prm

>  <SCORE>
-13.0242

>  <SCORE.INTER>
-13.5072

>  <SCORE.INTER.CONST>
1

>  <SCORE.INTER.POLAR>
0

>  <SCORE.INTER.ROT>
2

>  <SCORE.INTER.SOLV>
16.2384

>  <SCORE.INTER.VDW>
-19.351

>  <SCORE.INTER.norm>
-0.293635

>  <SCORE.INTRA>
0.48298

>  <SCORE.INTRA.DIHEDRAL>
0.014192

>  <SCORE.INTRA.DIHEDRAL.0>
2.40424

>  <SCORE.INTRA.POLAR>
0

>  <SCORE.INTRA.POLAR.0>
0

>  <SCORE.INTRA.REPUL>
0

>  <SCORE.INTRA.REPUL.0>
0

>  <SCORE.INTRA.SOLV>
0.0276538

>  <SCORE.INTRA.SOLV.lig_0>
-134.169

>  <SCORE.INTRA.VDW>
0.462057

>  <SCORE.INTRA.VDW.0>
-2.18386

>  <SCORE.INTRA.norm>
0.0104996

>  <SCORE.RESTR>
0

>  <SCORE.RESTR.CAVITY>
0

>  <SCORE.RESTR.norm>
0

>  <SCORE.SYSTEM>
0

>  <SCORE.SYSTEM.CONST>
0

>  <SCORE.SYSTEM.DIHEDRAL>
0

>  <SCORE.SYSTEM.SOLV>
0

>  <SCORE.SYSTEM.norm>
0

>  <SCORE.heavy>
46

>  <SCORE.norm>
-0.283136

>  <RMSD>
7.521

$$$$
ligand
 OpenBabel02271912143D
libRbt.so/2013.1/901 2013/11/27
 46 52  0  0  0  0  0  0  0  0999 V2000
   -6.8097   10.1779   14.1409 P   0  0  1  0  0  0  0  0  0  0  0  0
   -9.6527    5.3560   15.9694 P   0  0  2  0  0  0  0  0  0  0  0  0
   -5.2101   10.2711   14.8988 O   0  5  0  0  0  0  0  0  0  0  0  0
   -7.0617   11.5008   12.9723 O   0  0  0  0  0  0  0  0  0  0  0  0
   -8.1651    8.3432   12.7918 C   0  0  0  0  0  0  0  0  0  0  0  0
   -6.9412    8.7498   13.4044 O   0  0  0  0  0  0  0  0  0  0  0  0
   -8.1469    6.8353   12.6290 C   0  0  1  0  0  0  0  0  0  0  0  0
   -6.9520    6.4438   11.9383 O   0  0  0  0  0  0  0  0  0  0  0  0
   -8.1153    6.0888   13.9527 C   0  0  1  0  0  0  0  0  0  0  0  0
   -9.4243    5.7857   14.4299 O   0  0  0  0  0  0  0  0  0  0  0  0
   -7.3260    4.8343   13.6225 C   0  0  1  0  0  0  0  0  0  0  0  0
   -8.2069    3.8093   13.1559 O   0  0  0  0  0  0  0  0  0  0  0  0
   -6.4036    5.2348   12.4862 C   0  0  2  0  0  0  0  0  0  0  0  0
   -7.7874    9.3121   18.6985 C   0  0  1  0  0  0  0  0  0  0  0  0
   -2.4739    3.8483   15.7768 N   0  0  0  0  0  0  0  0  0  0  0  0
   -3.7009    3.2806   15.6193 C   0  0  1  0  0  0  0  0  0  0  0  0
   -7.0702    9.7181   17.4423 C   0  0  2  0  0  0  0  0  0  0  0  0
   -4.0137    2.2104   16.3858 N   0  0  0  0  0  0  0  0  0  0  0  0
   -6.9666   11.1425   17.4782 O   0  0  0  0  0  0  0  0  0  0  0  0
   -7.9645    9.2402   16.3155 C   0  0  2  0  0  0  0  0  0  0  0  0
   -4.6228    3.7480   14.7259 N   0  0  0  0  0  0  0  0  0  0  0  0
   -7.9887   10.1637   15.2357 O   0  0  0  0  0  0  0  0  0  0  0  0
   -4.3569    4.8167   13.9329 C   0  0  2  0  0  0  0  0  0  0  0  0
   -9.3439    9.1281   16.9345 C   0  0  2  0  0  0  0  0  0  0  0  0
   -9.1335    9.0030   18.3400 O   0  0  0  0  0  0  0  0  0  0  0  0
   -3.0435    5.4707   14.0657 C   0  0  1  0  0  0  0  0  0  0  0  0
  -10.1239    7.9203   16.4275 C   0  0  0  0  0  0  0  0  0  0  0  0
   -9.4195    6.7278   16.7797 O   0  0  0  0  0  0  0  0  0  0  0  0
   -2.0909    4.9203   15.0465 C   0  0  0  0  0  0  0  0  0  0  0  0
   -0.8668    5.4825   15.2127 O   0  0  0  0  0  0  0  0  0  0  0  0
   -3.0252    6.4864   13.1956 N   0  0  0  0  0  0  0  0  0  0  0  0
   -4.2290    6.4918   12.5520 C   0  0  0  0  0  0  0  0  0  0  0  0
   -5.0290    5.4967   12.9895 N   0  0  1  0  0  0  0  0  0  0  0  0
   -3.1916    7.2987   20.1796 N   0  0  0  0  0  0  0  0  0  0  0  0
   -8.4760    4.1180   16.4827 O   0  5  0  0  0  0  0  0  0  0  0  0
   -3.4685    8.4886   19.5794 C   0  0  2  0  0  0  0  0  0  0  0  0
   -2.4495    9.3409   19.2944 N   0  0  0  0  0  0  0  0  0  0  0  0
  -11.2981    4.7823   16.3030 O   0  0  0  0  0  0  0  0  0  0  0  0
   -4.7385    8.8546   19.2546 N   0  0  0  0  0  0  0  0  0  0  0  0
   -5.7954    8.0514   19.5192 C   0  0  2  0  0  0  0  0  0  0  0  0
   -5.5596    6.7526   20.1636 C   0  0  2  0  0  0  0  0  0  0  0  0
   -4.1586    6.4082   20.4870 C   0  0  0  0  0  0  0  0  0  0  0  0
   -3.8430    5.2303   21.0799 O   0  0  0  0  0  0  0  0  0  0  0  0
   -6.7647    6.1641   20.2966 N   0  0  0  0  0  0  0  0  0  0  0  0
   -7.6970    7.0205   19.7824 C   0  0  0  0  0  0  0  0  0  0  0  0
   -7.1108    8.1466   19.3165 N   0  0  1  0  0  0  0  0  0  0  0  0
  1  3  1  1  0  0  0
  1  4  2  0  0  0  0
  1  6  1  0  0  0  0
  1 22  1  0  0  0  0
  2 28  1  0  0  0  0
  2 35  1  1  0  0  0
  2 38  2  0  0  0  0
  2 10  1  0  0  0  0
  5  6  1  0  0  0  0
  7  5  1  1  0  0  0
  7  8  1  0  0  0  0
  7  9  1  0  0  0  0
  9 10  1  6  0  0  0
  9 11  1  0  0  0  0
 11 12  1  6  0  0  0
 11 13  1  0  0  0  0
 13  8  1  1  0  0  0
 13 33  1  0  0  0  0
 14 46  1  0  0  0  0
 14 17  1  0  0  0  0
 14 25  1  6  0  0  0
 15 16  1  0  0  0  0
 15 29  1  0  0  0  0
 16 18  1  1  0  0  0
 16 21  1  0  0  0  0
 17 19  1  1  0  0  0
 17 20  1  0  0  0  0
 20 22  1  6  0  0  0
 20 24  1  0  0  0  0
 23 21  1  1  0  0  0
 23 26  1  0  0  0  0
 23 33  1  0  0  0  0
 24 25  1  1  0  0  0
 24 27  1  0  0  0  0
 26 29  1  6  0  0  0
 26 31  1  0  0  0  0
 27 28  1  0  0  0  0
 29 30  2  0  0  0  0
 31 32  1  0  0  0  0
 33 32  1  6  0  0  0
 34 36  1  0  0  0  0
 34 42  1  0  0  0  0
 36 37  1  1  0  0  0
 36 39  1  0  0  0  0
 40 39  1  6  0  0  0
 40 41  1  0  0  0  0
 40 46  1  0  0  0  0
 41 42  1  6  0  0  0
 41 44  1  0  0  0  0
 42 43  2  0  0  0  0
 44 45  1  0  0  0  0
 46 45  1  1  0  0  0
M  CHG  2   3  -1  35  -1
M  END
>  <CHROM.1>
155.91744967,47.70847090,-6.40121748,7.00353804,16.02031368,2.21663023,0.55575358
-2.02518273

>  <Name>
ligand

>  <RI>
-1

>  <Rbt.Current_Directory>
/home/itssahil/PROJECTS/Mol_Feturizer/Test_systems_manuscript/rnas/3mum

>  <Rbt.Executable>
rbdock ($Id: //depot/dev/client3/rdock/2013.1/src/exe/rbdock.cxx#4 $)

>  <Rbt.Library>
libRbt.so (2013.1, Build901 2013/11/27)

>  <Rbt.Parameter_File>
/export/apps/rDock/src/rDock_2013.1_src/data/scripts/dock_solv.prm

>  <Rbt.Receptor>
prm/pocket_docking_8.prm

>  <SCORE>
-10.7006

>  <SCORE.INTER>
-10.9764

>  <SCORE.INTER.CONST>
1

>  <SCORE.INTER.POLAR>
0

>  <SCORE.INTER.ROT>
2

>  <SCORE.INTER.SOLV>
9.16056

>  <SCORE.INTER.VDW>
-15.3044

>  <SCORE.INTER.norm>
-0.238617

>  <SCORE.INTRA>
0.27579

>  <SCORE.INTRA.DIHEDRAL>
-0.0247345

>  <SCORE.INTRA.DIHEDRAL.0>
2.40424

>  <SCORE.INTRA.POLAR>
0

>  <SCORE.INTRA.POLAR.0>
0

>  <SCORE.INTRA.REPUL>
0

>  <SCORE.INTRA.REPUL.0>
0

>  <SCORE.INTRA.SOLV>
0.0319806

>  <SCORE.INTRA.SOLV.lig_0>
-134.169

>  <SCORE.INTRA.VDW>
0.272166

>  <SCORE.INTRA.VDW.0>
-2.18386

>  <SCORE.INTRA.norm>
0.00599542

>  <SCORE.RESTR>
0

>  <SCORE.RESTR.CAVITY>
0

>  <SCORE.RESTR.norm>
0

>  <SCORE.SYSTEM>
0

>  <SCORE.SYSTEM.CONST>
0

>  <SCORE.SYSTEM.DIHEDRAL>
0

>  <SCORE.SYSTEM.SOLV>
0

>  <SCORE.SYSTEM.norm>
0

>  <SCORE.heavy>
46

>  <SCORE.norm>
-0.232621

>  <RMSD>
7.669

$$$$
ligand
 OpenBabel02271912143D
libRbt.so/2013.1/901 2013/11/27
 46 52  0  0  0  0  0  0  0  0999 V2000
   -2.2157    4.0488   18.4607 P   0  0  1  0  0  0  0  0  0  0  0  0
   -8.1043    4.0453   18.4688 P   0  0  2  0  0  0  0  0  0  0  0  0
   -1.6049    4.6409   16.9056 O   0  5  0  0  0  0  0  0  0  0  0  0
   -0.8895    3.7238   19.6074 O   0  0  0  0  0  0  0  0  0  0  0  0
   -3.9515    4.9101   20.2686 C   0  0  0  0  0  0  0  0  0  0  0  0
   -3.2197    5.1548   19.0673 O   0  0  0  0  0  0  0  0  0  0  0  0
   -5.1274    5.8667   20.3219 C   0  0  1  0  0  0  0  0  0  0  0  0
   -4.6576    7.2112   20.1494 O   0  0  0  0  0  0  0  0  0  0  0  0
   -6.1358    5.6412   19.2072 C   0  0  1  0  0  0  0  0  0  0  0  0
   -7.1631    4.7288   19.5884 O   0  0  0  0  0  0  0  0  0  0  0  0
   -6.6806    7.0348   18.9479 C   0  0  1  0  0  0  0  0  0  0  0  0
   -7.7993    7.2905   19.8008 O   0  0  0  0  0  0  0  0  0  0  0  0
   -5.5545    7.9773   19.3300 C   0  0  2  0  0  0  0  0  0  0  0  0
   -4.8146    1.5984   15.3433 C   0  0  1  0  0  0  0  0  0  0  0  0
   -5.7659    9.2868   14.1887 N   0  0  0  0  0  0  0  0  0  0  0  0
   -6.7637    8.8473   15.0033 C   0  0  1  0  0  0  0  0  0  0  0  0
   -3.7455    2.4666   15.9439 C   0  0  2  0  0  0  0  0  0  0  0  0
   -8.0025    8.7056   14.4779 N   0  0  0  0  0  0  0  0  0  0  0  0
   -2.5399    1.7006   15.9164 O   0  0  0  0  0  0  0  0  0  0  0  0
   -4.2170    2.7362   17.3591 C   0  0  2  0  0  0  0  0  0  0  0  0
   -6.5635    8.5431   16.3201 N   0  0  0  0  0  0  0  0  0  0  0  0
   -3.1359    2.7412   18.2815 O   0  0  0  0  0  0  0  0  0  0  0  0
   -5.3407    8.6703   16.8947 C   0  0  2  0  0  0  0  0  0  0  0  0
   -5.1658    1.5972   17.6767 C   0  0  2  0  0  0  0  0  0  0  0  0
   -5.6045    1.0901   16.4175 O   0  0  0  0  0  0  0  0  0  0  0  0
   -4.2243    9.1396   16.0559 C   0  0  1  0  0  0  0  0  0  0  0  0
   -6.3732    2.0428   18.4941 C   0  0  0  0  0  0  0  0  0  0  0  0
   -7.1204    2.9995   17.7401 O   0  0  0  0  0  0  0  0  0  0  0  0
   -4.5026    9.4523   14.6428 C   0  0  0  0  0  0  0  0  0  0  0  0
   -3.5127    9.8876   13.8225 O   0  0  0  0  0  0  0  0  0  0  0  0
   -3.1392    9.1752   16.8372 N   0  0  0  0  0  0  0  0  0  0  0  0
   -3.5203    8.7612   18.0810 C   0  0  0  0  0  0  0  0  0  0  0  0
   -4.8347    8.4573   18.1206 N   0  0  1  0  0  0  0  0  0  0  0  0
   -5.2296    6.1215   12.7475 N   0  0  0  0  0  0  0  0  0  0  0  0
   -8.7117    5.2503   17.3027 O   0  5  0  0  0  0  0  0  0  0  0  0
   -4.2728    5.7026   13.6204 C   0  0  2  0  0  0  0  0  0  0  0  0
   -3.2311    6.5261   13.9083 N   0  0  0  0  0  0  0  0  0  0  0  0
   -9.4706    3.1438   19.1533 O   0  0  0  0  0  0  0  0  0  0  0  0
   -4.3251    4.4802   14.2164 N   0  0  0  0  0  0  0  0  0  0  0  0
   -5.3338    3.6134   13.9646 C   0  0  2  0  0  0  0  0  0  0  0  0
   -6.3981    4.0099   13.0331 C   0  0  2  0  0  0  0  0  0  0  0  0
   -6.2896    5.3518   12.4217 C   0  0  0  0  0  0  0  0  0  0  0  0
   -7.2256    5.8060   11.5521 O   0  0  0  0  0  0  0  0  0  0  0  0
   -7.2649    2.9794   12.9772 N   0  0  0  0  0  0  0  0  0  0  0  0
   -6.7900    2.0004   13.8037 C   0  0  0  0  0  0  0  0  0  0  0  0
   -5.6360    2.3866   14.3935 N   0  0  1  0  0  0  0  0  0  0  0  0
  1  3  1  6  0  0  0
  1  4  2  0  0  0  0
  1  6  1  0  0  0  0
  1 22  1  0  0  0  0
  2 28  1  0  0  0  0
  2 35  1  6  0  0  0
  2 38  2  0  0  0  0
  2 10  1  0  0  0  0
  5  6  1  0  0  0  0
  7  5  1  6  0  0  0
  7  8  1  0  0  0  0
  7  9  1  0  0  0  0
  9 10  1  1  0  0  0
  9 11  1  0  0  0  0
 11 12  1  1  0  0  0
 11 13  1  0  0  0  0
 13  8  1  1  0  0  0
 13 33  1  0  0  0  0
 14 46  1  0  0  0  0
 14 17  1  0  0  0  0
 14 25  1  1  0  0  0
 15 16  1  0  0  0  0
 15 29  1  0  0  0  0
 16 18  1  6  0  0  0
 16 21  1  0  0  0  0
 17 19  1  1  0  0  0
 17 20  1  0  0  0  0
 20 22  1  1  0  0  0
 20 24  1  0  0  0  0
 23 21  1  6  0  0  0
 23 26  1  0  0  0  0
 23 33  1  0  0  0  0
 24 25  1  6  0  0  0
 24 27  1  0  0  0  0
 26 29  1  1  0  0  0
 26 31  1  0  0  0  0
 27 28  1  0  0  0  0
 29 30  2  0  0  0  0
 31 32  1  0  0  0  0
 33 32  1  1  0  0  0
 34 36  1  0  0  0  0
 34 42  1  0  0  0  0
 36 37  1  6  0  0  0
 36 39  1  0  0  0  0
 40 39  1  1  0  0  0
 40 41  1  0  0  0  0
 40 46  1  0  0  0  0
 41 42  1  1  0  0  0
 41 44  1  0  0  0  0
 42 43  2  0  0  0  0
 44 45  1  0  0  0  0
 46 45  1  6  0  0  0
M  CHG  2   3  -1  35  -1
M  END
>  <CHROM.1>
148.54162211,10.51539199,-5.25490446,5.26256864,16.71215203,-1.13453794,-1.39171886
-0.10470424

>  <Name>
ligand

>  <RI>
-1

>  <Rbt.Current_Directory>
/home/itssahil/PROJECTS/Mol_Feturizer/Test_systems_manuscript/rnas/3mum

>  <Rbt.Executable>
rbdock ($Id: //depot/dev/client3/rdock/2013.1/src/exe/rbdock.cxx#4 $)

>  <Rbt.Library>
libRbt.so (2013.1, Build901 2013/11/27)

>  <Rbt.Parameter_File>
/export/apps/rDock/src/rDock_2013.1_src/data/scripts/dock_solv.prm

>  <Rbt.Receptor>
prm/pocket_docking_7.prm

>  <SCORE>
-10.6675

>  <SCORE.INTER>
-12.2753

>  <SCORE.INTER.CONST>
1

>  <SCORE.INTER.POLAR>
0

>  <SCORE.INTER.ROT>
2

>  <SCORE.INTER.SOLV>
9.87281

>  <SCORE.INTER.VDW>
-16.4078

>  <SCORE.INTER.norm>
-0.266854

>  <SCORE.INTRA>
1.60776

>  <SCORE.INTRA.DIHEDRAL>
-0.0217251

>  <SCORE.INTRA.DIHEDRAL.0>
2.40424

>  <SCORE.INTRA.POLAR>
0

>  <SCORE.INTRA.POLAR.0>
0

>  <SCORE.INTRA.REPUL>
0

>  <SCORE.INTRA.REPUL.0>
0

>  <SCORE.INTRA.SOLV>
3.61491

>  <SCORE.INTRA.SOLV.lig_0>
-134.169

>  <SCORE.INTRA.VDW>
-0.188834

>  <SCORE.INTRA.VDW.0>
-2.18386

>  <SCORE.INTRA.norm>
0.0349512

>  <SCORE.RESTR>
0

>  <SCORE.RESTR.CAVITY>
0

>  <SCORE.RESTR.norm>
0

>  <SCORE.SYSTEM>
0

>  <SCORE.SYSTEM.CONST>
0

>  <SCORE.SYSTEM.DIHEDRAL>
0

>  <SCORE.SYSTEM.SOLV>
0

>  <SCORE.SYSTEM.norm>
0

>  <SCORE.heavy>
46

>  <SCORE.norm>
-0.231902

>  <RMSD>
7.821

$$$$
ligand
 OpenBabel02271912143D
libRbt.so/2013.1/901 2013/11/27
 46 52  0  0  0  0  0  0  0  0999 V2000
   -2.0894    3.7413   18.1222 P   0  0  1  0  0  0  0  0  0  0  0  0
   -7.9737    3.8514   18.3183 P   0  0  2  0  0  0  0  0  0  0  0  0
   -1.5149    4.3964   16.5787 O   0  5  0  0  0  0  0  0  0  0  0  0
   -0.7354    3.3352   19.2090 O   0  0  0  0  0  0  0  0  0  0  0  0
   -3.7500    4.5470   20.0240 C   0  0  0  0  0  0  0  0  0  0  0  0
   -3.0508    4.8356   18.8131 O   0  0  0  0  0  0  0  0  0  0  0  0
   -4.9034    5.5224   20.1608 C   0  0  1  0  0  0  0  0  0  0  0  0
   -4.4112    6.8643   20.0381 O   0  0  0  0  0  0  0  0  0  0  0  0
   -5.9504    5.3711   19.0693 C   0  0  1  0  0  0  0  0  0  0  0  0
   -6.9842    4.4613   19.4389 O   0  0  0  0  0  0  0  0  0  0  0  0
   -6.4737    6.7859   18.8948 C   0  0  1  0  0  0  0  0  0  0  0  0
   -7.5599    7.0214   19.7944 O   0  0  0  0  0  0  0  0  0  0  0  0
   -5.3169    7.6867   19.2856 C   0  0  2  0  0  0  0  0  0  0  0  0
   -4.8343    1.4964   14.9754 C   0  0  1  0  0  0  0  0  0  0  0  0
   -5.6807    9.3666   14.2619 N   0  0  0  0  0  0  0  0  0  0  0  0
   -6.6651    8.9259   15.0920 C   0  0  1  0  0  0  0  0  0  0  0  0
   -3.7292    2.3134   15.5825 C   0  0  2  0  0  0  0  0  0  0  0  0
   -7.9322    8.8898   14.6189 N   0  0  0  0  0  0  0  0  0  0  0  0
   -2.5413    1.5265   15.4797 O   0  0  0  0  0  0  0  0  0  0  0  0
   -4.1508    2.5228   17.0234 C   0  0  2  0  0  0  0  0  0  0  0  0
   -6.4244    8.5187   16.3738 N   0  0  0  0  0  0  0  0  0  0  0  0
   -3.0418    2.4620   17.9099 O   0  0  0  0  0  0  0  0  0  0  0  0
   -5.1719    8.5377   16.8958 C   0  0  2  0  0  0  0  0  0  0  0  0
   -5.1129    1.3883   17.3160 C   0  0  2  0  0  0  0  0  0  0  0  0
   -5.6010    0.9517   16.0486 O   0  0  0  0  0  0  0  0  0  0  0  0
   -4.0686    9.0034   16.0377 C   0  0  1  0  0  0  0  0  0  0  0  0
   -6.2848    1.8169   18.1920 C   0  0  0  0  0  0  0  0  0  0  0  0
   -7.0350    2.8234   17.5091 O   0  0  0  0  0  0  0  0  0  0  0  0
   -4.3910    9.4302   14.6644 C   0  0  0  0  0  0  0  0  0  0  0  0
   -3.4150    9.8675   13.8287 O   0  0  0  0  0  0  0  0  0  0  0  0
   -2.9496    8.9240   16.7661 N   0  0  0  0  0  0  0  0  0  0  0  0
   -3.2983    8.4445   17.9958 C   0  0  0  0  0  0  0  0  0  0  0  0
   -4.6250    8.2110   18.0783 N   0  0  1  0  0  0  0  0  0  0  0  0
   -5.3415    6.2198   12.7843 N   0  0  0  0  0  0  0  0  0  0  0  0
   -8.5917    5.1233   17.2315 O   0  5  0  0  0  0  0  0  0  0  0  0
   -4.3808    5.7483   13.6256 C   0  0  2  0  0  0  0  0  0  0  0  0
   -3.3616    6.5676   13.9942 N   0  0  0  0  0  0  0  0  0  0  0  0
   -9.3367    2.9443   19.0021 O   0  0  0  0  0  0  0  0  0  0  0  0
   -4.4075    4.4771   14.1111 N   0  0  0  0  0  0  0  0  0  0  0  0
   -5.3930    3.6123   13.7748 C   0  0  2  0  0  0  0  0  0  0  0  0
   -6.4602    4.0642   12.8722 C   0  0  2  0  0  0  0  0  0  0  0  0
   -6.3802    5.4569   12.3824 C   0  0  0  0  0  0  0  0  0  0  0  0
   -7.3210    5.9638   11.5478 O   0  0  0  0  0  0  0  0  0  0  0  0
   -7.3011    3.0224   12.7180 N   0  0  0  0  0  0  0  0  0  0  0  0
   -6.8083    1.9858   13.4593 C   0  0  0  0  0  0  0  0  0  0  0  0
   -5.6681    2.3456   14.0912 N   0  0  1  0  0  0  0  0  0  0  0  0
  1  3  1  6  0  0  0
  1  4  2  0  0  0  0
  1  6  1  0  0  0  0
  1 22  1  0  0  0  0
  2 28  1  0  0  0  0
  2 35  1  6  0  0  0
  2 38  2  0  0  0  0
  2 10  1  0  0  0  0
  5  6  1  0  0  0  0
  7  5  1  6  0  0  0
  7  8  1  0  0  0  0
  7  9  1  0  0  0  0
  9 10  1  1  0  0  0
  9 11  1  0  0  0  0
 11 12  1  1  0  0  0
 11 13  1  0  0  0  0
 13  8  1  1  0  0  0
 13 33  1  0  0  0  0
 14 46  1  0  0  0  0
 14 17  1  0  0  0  0
 14 25  1  1  0  0  0
 15 16  1  0  0  0  0
 15 29  1  0  0  0  0
 16 18  1  6  0  0  0
 16 21  1  0  0  0  0
 17 19  1  1  0  0  0
 17 20  1  0  0  0  0
 20 22  1  1  0  0  0
 20 24  1  0  0  0  0
 23 21  1  6  0  0  0
 23 26  1  0  0  0  0
 23 33  1  0  0  0  0
 24 25  1  6  0  0  0
 24 27  1  0  0  0  0
 26 29  1  1  0  0  0
 26 31  1  0  0  0  0
 27 28  1  0  0  0  0
 29 30  2  0  0  0  0
 31 32  1  0  0  0  0
 33 32  1  1  0  0  0
 34 36  1  0  0  0  0
 34 42  1  0  0  0  0
 36 37  1  6  0  0  0
 36 39  1  0  0  0  0
 40 39  1  1  0  0  0
 40 41  1  0  0  0  0
 40 46  1  0  0  0  0
 41 42  1  1  0  0  0
 41 44  1  0  0  0  0
 42 43  2  0  0  0  0
 44 45  1  0  0  0  0
 46 45  1  6  0  0  0
M  CHG  2   3  -1  35  -1
M  END
>  <CHROM.1>
151.10466427,6.42239603,-5.16919715,5.11800425,16.55491032,-1.24225704,-1.32215687
-0.09075771

>  <Name>
ligand

>  <RI>
-1

>  <Rbt.Current_Directory>
/home/itssahil/PROJECTS/Mol_Feturizer/Test_systems_manuscript/rnas/3mum

>  <Rbt.Executable>
rbdock ($Id: //depot/dev/client3/rdock/2013.1/src/exe/rbdock.cxx#4 $)

>  <Rbt.Library>
libRbt.so (2013.1, Build901 2013/11/27)

>  <Rbt.Parameter_File>
/export/apps/rDock/src/rDock_2013.1_src/data/scripts/dock_solv.prm

>  <Rbt.Receptor>
prm/pocket_docking_7.prm

>  <SCORE>
-10.5963

>  <SCORE.INTER>
-12.4928

>  <SCORE.INTER.CONST>
1

>  <SCORE.INTER.POLAR>
0

>  <SCORE.INTER.ROT>
2

>  <SCORE.INTER.SOLV>
10.4452

>  <SCORE.INTER.VDW>
-16.7436

>  <SCORE.INTER.norm>
-0.271582

>  <SCORE.INTRA>
1.89643

>  <SCORE.INTRA.DIHEDRAL>
-0.016347

>  <SCORE.INTRA.DIHEDRAL.0>
2.40424

>  <SCORE.INTRA.POLAR>
0

>  <SCORE.INTRA.POLAR.0>
0

>  <SCORE.INTRA.REPUL>
0

>  <SCORE.INTRA.REPUL.0>
0

>  <SCORE.INTRA.SOLV>
4.37458

>  <SCORE.INTRA.SOLV.lig_0>
-134.169

>  <SCORE.INTRA.VDW>
-0.282687

>  <SCORE.INTRA.VDW.0>
-2.18386

>  <SCORE.INTRA.norm>
0.0412267

>  <SCORE.RESTR>
0

>  <SCORE.RESTR.CAVITY>
0

>  <SCORE.RESTR.norm>
0

>  <SCORE.SYSTEM>
0

>  <SCORE.SYSTEM.CONST>
0

>  <SCORE.SYSTEM.DIHEDRAL>
0

>  <SCORE.SYSTEM.SOLV>
0

>  <SCORE.SYSTEM.norm>
0

>  <SCORE.heavy>
46

>  <SCORE.norm>
-0.230355

>  <RMSD>
7.839

$$$$
ligand
 OpenBabel02271912143D
libRbt.so/2013.1/901 2013/11/27
 46 52  0  0  0  0  0  0  0  0999 V2000
   -8.3774    3.8737   18.5298 P   0  0  1  0  0  0  0  0  0  0  0  0
   -2.5021    4.2495   18.6528 P   0  0  2  0  0  0  0  0  0  0  0  0
   -9.0361    4.9650   17.2981 O   0  5  0  0  0  0  0  0  0  0  0  0
   -9.6591    2.9047   19.3030 O   0  0  0  0  0  0  0  0  0  0  0  0
   -6.5164    1.9880   18.5931 C   0  0  0  0  0  0  0  0  0  0  0  0
   -7.2945    2.9079   17.8271 O   0  0  0  0  0  0  0  0  0  0  0  0
   -5.2962    1.5945   17.7826 C   0  0  1  0  0  0  0  0  0  0  0  0
   -5.7111    1.1255   16.4919 O   0  0  0  0  0  0  0  0  0  0  0  0
   -4.3556    2.7571   17.5107 C   0  0  1  0  0  0  0  0  0  0  0  0
   -3.3542    2.8848   18.5176 O   0  0  0  0  0  0  0  0  0  0  0  0
   -3.7602    2.4098   16.1576 C   0  0  1  0  0  0  0  0  0  0  0  0
   -2.5901    1.6060   16.3284 O   0  0  0  0  0  0  0  0  0  0  0  0
   -4.8212    1.5791   15.4599 C   0  0  2  0  0  0  0  0  0  0  0  0
   -6.0520    7.9133   19.3961 C   0  0  1  0  0  0  0  0  0  0  0  0
   -5.2111    6.1363   12.7630 N   0  0  0  0  0  0  0  0  0  0  0  0
   -4.2601    5.7467   13.6553 C   0  0  1  0  0  0  0  0  0  0  0  0
   -7.0487    6.9235   18.8631 C   0  0  2  0  0  0  0  0  0  0  0  0
   -3.2509    6.6050   13.9301 N   0  0  0  0  0  0  0  0  0  0  0  0
   -8.2884    7.2079   19.5136 O   0  0  0  0  0  0  0  0  0  0  0  0
   -6.4960    5.5684   19.2577 C   0  0  2  0  0  0  0  0  0  0  0  0
   -4.2867    4.5328   14.2817 N   0  0  0  0  0  0  0  0  0  0  0  0
   -7.5288    4.6705   19.6406 O   0  0  0  0  0  0  0  0  0  0  0  0
   -5.2759    3.6360   14.0390 C   0  0  2  0  0  0  0  0  0  0  0  0
   -5.5865    5.8479   20.4380 C   0  0  2  0  0  0  0  0  0  0  0  0
   -5.2344    7.2272   20.3432 O   0  0  0  0  0  0  0  0  0  0  0  0
   -6.3329    4.0094   13.0831 C   0  0  1  0  0  0  0  0  0  0  0  0
   -4.3209    4.9979   20.4246 C   0  0  0  0  0  0  0  0  0  0  0  0
   -3.5682    5.2993   19.2479 O   0  0  0  0  0  0  0  0  0  0  0  0
   -6.2495    5.3323   12.4390 C   0  0  0  0  0  0  0  0  0  0  0  0
   -7.1955    5.7304   11.5509 O   0  0  0  0  0  0  0  0  0  0  0  0
   -7.1823    2.9780   13.0203 N   0  0  0  0  0  0  0  0  0  0  0  0
   -6.7152    2.0148   13.8675 C   0  0  0  0  0  0  0  0  0  0  0  0
   -5.5768    2.4033   14.4796 N   0  0  1  0  0  0  0  0  0  0  0  0
   -6.2063   10.2695   14.7278 N   0  0  0  0  0  0  0  0  0  0  0  0
   -1.8978    4.8012   17.0681 O   0  5  0  0  0  0  0  0  0  0  0  0
   -7.2260    9.8527   15.5274 C   0  0  2  0  0  0  0  0  0  0  0  0
   -8.5084   10.0482   15.1233 N   0  0  0  0  0  0  0  0  0  0  0  0
   -1.1469    4.1229   19.7910 O   0  0  0  0  0  0  0  0  0  0  0  0
   -7.0021    9.2444   16.7241 N   0  0  0  0  0  0  0  0  0  0  0  0
   -5.7474    9.0280   17.1836 C   0  0  2  0  0  0  0  0  0  0  0  0
   -4.6052    9.4533   16.3637 C   0  0  2  0  0  0  0  0  0  0  0  0
   -4.9114   10.1029   15.0713 C   0  0  0  0  0  0  0  0  0  0  0  0
   -3.9228   10.5265   14.2456 O   0  0  0  0  0  0  0  0  0  0  0  0
   -3.4936    9.1109   17.0445 N   0  0  0  0  0  0  0  0  0  0  0  0
   -3.8935    8.5181   18.2088 C   0  0  0  0  0  0  0  0  0  0  0  0
   -5.2428    8.4691   18.2851 N   0  0  1  0  0  0  0  0  0  0  0  0
  1  3  1  6  0  0  0
  1  4  2  0  0  0  0
  1  6  1  0  0  0  0
  1 22  1  0  0  0  0
  2 28  1  0  0  0  0
  2 35  1  6  0  0  0
  2 38  2  0  0  0  0
  2 10  1  0  0  0  0
  5  6  1  0  0  0  0
  7  5  1  1  0  0  0
  7  8  1  0  0  0  0
  7  9  1  0  0  0  0
  9 10  1  1  0  0  0
  9 11  1  0  0  0  0
 11 12  1  1  0  0  0
 11 13  1  0  0  0  0
 13  8  1  1  0  0  0
 13 33  1  0  0  0  0
 14 46  1  0  0  0  0
 14 17  1  0  0  0  0
 14 25  1  1  0  0  0
 15 16  1  0  0  0  0
 15 29  1  0  0  0  0
 16 18  1  1  0  0  0
 16 21  1  0  0  0  0
 17 19  1  1  0  0  0
 17 20  1  0  0  0  0
 20 22  1  1  0  0  0
 20 24  1  0  0  0  0
 23 21  1  1  0  0  0
 23 26  1  0  0  0  0
 23 33  1  0  0  0  0
 24 25  1  6  0  0  0
 24 27  1  0  0  0  0
 26 29  1  6  0  0  0
 26 31  1  0  0  0  0
 27 28  1  0  0  0  0
 29 30  2  0  0  0  0
 31 32  1  0  0  0  0
 33 32  1  6  0  0  0
 34 36  1  0  0  0  0
 34 42  1  0  0  0  0
 36 37  1  1  0  0  0
 36 39  1  0  0  0  0
 40 39  1  6  0  0  0
 40 41  1  0  0  0  0
 40 46  1  0  0  0  0
 41 42  1  6  0  0  0
 41 44  1  0  0  0  0
 42 43  2  0  0  0  0
 44 45  1  0  0  0  0
 46 45  1  1  0  0  0
M  CHG  2   3  -1  35  -1
M  END
>  <CHROM.1>
128.09252641,53.14173777,-5.49012987,5.37549837,16.86624445,-0.28342573,-1.47522464
1.02548951

>  <Name>
ligand

>  <RI>
-1

>  <Rbt.Current_Directory>
/home/itssahil/PROJECTS/Mol_Feturizer/Test_systems_manuscript/rnas/3mum

>  <Rbt.Executable>
rbdock ($Id: //depot/dev/client3/rdock/2013.1/src/exe/rbdock.cxx#4 $)

>  <Rbt.Library>
libRbt.so (2013.1, Build901 2013/11/27)

>  <Rbt.Parameter_File>
/export/apps/rDock/src/rDock_2013.1_src/data/scripts/dock_solv.prm

>  <Rbt.Receptor>
prm/pocket_docking_7.prm

>  <SCORE>
-11.739

>  <SCORE.INTER>
-12.4153

>  <SCORE.INTER.CONST>
1

>  <SCORE.INTER.POLAR>
0

>  <SCORE.INTER.ROT>
2

>  <SCORE.INTER.SOLV>
10.4568

>  <SCORE.INTER.VDW>
-16.6958

>  <SCORE.INTER.norm>
-0.269897

>  <SCORE.INTRA>
0.6763

>  <SCORE.INTRA.DIHEDRAL>
-0.0159975

>  <SCORE.INTRA.DIHEDRAL.0>
2.40424

>  <SCORE.INTRA.POLAR>
0

>  <SCORE.INTRA.POLAR.0>
0

>  <SCORE.INTRA.REPUL>
0

>  <SCORE.INTRA.REPUL.0>
0

>  <SCORE.INTRA.SOLV>
1.50508

>  <SCORE.INTRA.SOLV.lig_0>
-134.169

>  <SCORE.INTRA.VDW>
-0.0682431

>  <SCORE.INTRA.VDW.0>
-2.18386

>  <SCORE.INTRA.norm>
0.0147022

>  <SCORE.RESTR>
0

>  <SCORE.RESTR.CAVITY>
0

>  <SCORE.RESTR.norm>
0

>  <SCORE.SYSTEM>
0

>  <SCORE.SYSTEM.CONST>
0

>  <SCORE.SYSTEM.DIHEDRAL>
0

>  <SCORE.SYSTEM.SOLV>
0

>  <SCORE.SYSTEM.norm>
0

>  <SCORE.heavy>
46

>  <SCORE.norm>
-0.255195

>  <RMSD>
7.960

$$$$
ligand
 OpenBabel02271912143D
libRbt.so/2013.1/901 2013/11/27
 46 52  0  0  0  0  0  0  0  0999 V2000
   -8.2503    3.8738   18.5828 P   0  0  1  0  0  0  0  0  0  0  0  0
   -2.3669    4.1189   18.5447 P   0  0  2  0  0  0  0  0  0  0  0  0
   -8.9181    4.9835   17.3727 O   0  5  0  0  0  0  0  0  0  0  0  0
   -9.5314    2.9310   19.3885 O   0  0  0  0  0  0  0  0  0  0  0  0
   -6.4306    1.9471   18.5897 C   0  0  0  0  0  0  0  0  0  0  0  0
   -7.2088    2.8866   17.8480 O   0  0  0  0  0  0  0  0  0  0  0  0
   -5.2423    1.5293   17.7448 C   0  0  1  0  0  0  0  0  0  0  0  0
   -5.7028    1.0739   16.4647 O   0  0  0  0  0  0  0  0  0  0  0  0
   -4.2839    2.6717   17.4501 C   0  0  1  0  0  0  0  0  0  0  0  0
   -3.2525    2.7739   18.4294 O   0  0  0  0  0  0  0  0  0  0  0  0
   -3.7338    2.3158   16.0802 C   0  0  1  0  0  0  0  0  0  0  0  0
   -2.5776    1.4857   16.2165 O   0  0  0  0  0  0  0  0  0  0  0  0
   -4.8318    1.5111   15.4098 C   0  0  2  0  0  0  0  0  0  0  0  0
   -5.8126    7.8580   19.3955 C   0  0  1  0  0  0  0  0  0  0  0  0
   -5.2125    6.0988   12.7640 N   0  0  0  0  0  0  0  0  0  0  0  0
   -4.2490    5.6875   13.6328 C   0  0  1  0  0  0  0  0  0  0  0  0
   -6.8453    6.8923   18.8875 C   0  0  2  0  0  0  0  0  0  0  0  0
   -3.2224    6.5291   13.8948 N   0  0  0  0  0  0  0  0  0  0  0  0
   -8.0601    7.2020   19.5727 O   0  0  0  0  0  0  0  0  0  0  0  0
   -6.3122    5.5240   19.2631 C   0  0  2  0  0  0  0  0  0  0  0  0
   -4.2799    4.4682   14.2484 N   0  0  0  0  0  0  0  0  0  0  0  0
   -7.3539    4.6480   19.6719 O   0  0  0  0  0  0  0  0  0  0  0  0
   -5.2864    3.5876   14.0177 C   0  0  2  0  0  0  0  0  0  0  0  0
   -5.3646    5.7794   20.4187 C   0  0  2  0  0  0  0  0  0  0  0  0
   -4.9847    7.1508   20.3179 O   0  0  0  0  0  0  0  0  0  0  0  0
   -6.3574    3.9848   13.0873 C   0  0  1  0  0  0  0  0  0  0  0  0
   -4.1191    4.9016   20.3680 C   0  0  0  0  0  0  0  0  0  0  0  0
   -3.3925    5.1901   19.1718 O   0  0  0  0  0  0  0  0  0  0  0  0
   -6.2685    5.3125   12.4539 C   0  0  0  0  0  0  0  0  0  0  0  0
   -7.2267    5.7322   11.5892 O   0  0  0  0  0  0  0  0  0  0  0  0
   -7.2223    2.9660   13.0324 N   0  0  0  0  0  0  0  0  0  0  0  0
   -6.7517    1.9883   13.8609 C   0  0  0  0  0  0  0  0  0  0  0  0
   -5.5956    2.3551   14.4530 N   0  0  1  0  0  0  0  0  0  0  0  0
   -6.0360   10.3418   14.7967 N   0  0  0  0  0  0  0  0  0  0  0  0
   -1.7943    4.6622   16.9454 O   0  5  0  0  0  0  0  0  0  0  0  0
   -7.0422    9.9586   15.6296 C   0  0  2  0  0  0  0  0  0  0  0  0
   -8.3280   10.2323   15.2866 N   0  0  0  0  0  0  0  0  0  0  0  0
   -0.9840    3.9585   19.6448 O   0  0  0  0  0  0  0  0  0  0  0  0
   -6.8012    9.3078   16.8004 N   0  0  0  0  0  0  0  0  0  0  0  0
   -5.5418    9.0132   17.1994 C   0  0  2  0  0  0  0  0  0  0  0  0
   -4.4139    9.3989   16.3411 C   0  0  2  0  0  0  0  0  0  0  0  0
   -4.7388   10.0979   15.0793 C   0  0  0  0  0  0  0  0  0  0  0  0
   -3.7644   10.4903   14.2219 O   0  0  0  0  0  0  0  0  0  0  0  0
   -3.2947    8.9803   16.9644 N   0  0  0  0  0  0  0  0  0  0  0  0
   -3.6765    8.3789   18.1304 C   0  0  0  0  0  0  0  0  0  0  0  0
   -5.0221    8.3994   18.2641 N   0  0  1  0  0  0  0  0  0  0  0  0
  1  3  1  6  0  0  0
  1  4  2  0  0  0  0
  1  6  1  0  0  0  0
  1 22  1  0  0  0  0
  2 28  1  0  0  0  0
  2 35  1  6  0  0  0
  2 38  2  0  0  0  0
  2 10  1  0  0  0  0
  5  6  1  0  0  0  0
  7  5  1  1  0  0  0
  7  8  1  0  0  0  0
  7  9  1  0  0  0  0
  9 10  1  1  0  0  0
  9 11  1  0  0  0  0
 11 12  1  1  0  0  0
 11 13  1  0  0  0  0
 13  8  1  1  0  0  0
 13 33  1  0  0  0  0
 14 46  1  0  0  0  0
 14 17  1  0  0  0  0
 14 25  1  1  0  0  0
 15 16  1  0  0  0  0
 15 29  1  0  0  0  0
 16 18  1  1  0  0  0
 16 21  1  0  0  0  0
 17 19  1  1  0  0  0
 17 20  1  0  0  0  0
 20 22  1  1  0  0  0
 20 24  1  0  0  0  0
 23 21  1  1  0  0  0
 23 26  1  0  0  0  0
 23 33  1  0  0  0  0
 24 25  1  6  0  0  0
 24 27  1  0  0  0  0
 26 29  1  6  0  0  0
 26 31  1  0  0  0  0
 27 28  1  0  0  0  0
 29 30  2  0  0  0  0
 31 32  1  0  0  0  0
 33 32  1  6  0  0  0
 34 36  1  0  0  0  0
 34 42  1  0  0  0  0
 36 37  1  1  0  0  0
 36 39  1  0  0  0  0
 40 39  1  6  0  0  0
 40 41  1  0  0  0  0
 40 46  1  0  0  0  0
 41 42  1  6  0  0  0
 41 44  1  0  0  0  0
 42 43  2  0  0  0  0
 44 45  1  0  0  0  0
 46 45  1  1  0  0  0
M  CHG  2   3  -1  35  -1
M  END
>  <CHROM.1>
127.37111653,55.51569257,-5.37834752,5.33022809,16.85346916,-0.66631614,-1.47149814
0.66989908

>  <Name>
ligand

>  <RI>
-1

>  <Rbt.Current_Directory>
/home/itssahil/PROJECTS/Mol_Feturizer/Test_systems_manuscript/rnas/3mum

>  <Rbt.Executable>
rbdock ($Id: //depot/dev/client3/rdock/2013.1/src/exe/rbdock.cxx#4 $)

>  <Rbt.Library>
libRbt.so (2013.1, Build901 2013/11/27)

>  <Rbt.Parameter_File>
/export/apps/rDock/src/rDock_2013.1_src/data/scripts/dock_solv.prm

>  <Rbt.Receptor>
prm/pocket_docking_8.prm

>  <SCORE>
-11.6489

>  <SCORE.INTER>
-12.3481

>  <SCORE.INTER.CONST>
1

>  <SCORE.INTER.POLAR>
0

>  <SCORE.INTER.ROT>
2

>  <SCORE.INTER.SOLV>
10.2838

>  <SCORE.INTER.VDW>
-16.5933

>  <SCORE.INTER.norm>
-0.268438

>  <SCORE.INTRA>
0.699272

>  <SCORE.INTRA.DIHEDRAL>
-0.0126207

>  <SCORE.INTRA.DIHEDRAL.0>
2.40424

>  <SCORE.INTRA.POLAR>
0

>  <SCORE.INTRA.POLAR.0>
0

>  <SCORE.INTRA.REPUL>
0

>  <SCORE.INTRA.REPUL.0>
0

>  <SCORE.INTRA.SOLV>
1.59213

>  <SCORE.INTRA.SOLV.lig_0>
-134.169

>  <SCORE.INTRA.VDW>
-0.0904841

>  <SCORE.INTRA.VDW.0>
-2.18386

>  <SCORE.INTRA.norm>
0.0152016

>  <SCORE.RESTR>
0

>  <SCORE.RESTR.CAVITY>
0

>  <SCORE.RESTR.norm>
0

>  <SCORE.SYSTEM>
0

>  <SCORE.SYSTEM.CONST>
0

>  <SCORE.SYSTEM.DIHEDRAL>
0

>  <SCORE.SYSTEM.SOLV>
0

>  <SCORE.SYSTEM.norm>
0

>  <SCORE.heavy>
46

>  <SCORE.norm>
-0.253236

>  <RMSD>
7.998

$$$$
ligand
 OpenBabel02271912143D
libRbt.so/2013.1/901 2013/11/27
 46 52  0  0  0  0  0  0  0  0999 V2000
   -4.4141    3.8093   16.4858 P   0  0  1  0  0  0  0  0  0  0  0  0
  -10.0559    4.9408   15.2346 P   0  0  2  0  0  0  0  0  0  0  0  0
   -3.5376    5.3203   16.7864 O   0  5  0  0  0  0  0  0  0  0  0  0
   -3.3755    2.3836   16.7465 O   0  0  0  0  0  0  0  0  0  0  0  0
   -6.6488    2.7024   17.3826 C   0  0  0  0  0  0  0  0  0  0  0  0
   -5.6907    3.7574   17.4691 O   0  0  0  0  0  0  0  0  0  0  0  0
   -7.9321    3.1586   18.0501 C   0  0  1  0  0  0  0  0  0  0  0  0
   -7.6422    3.6207   19.3769 O   0  0  0  0  0  0  0  0  0  0  0  0
   -8.5912    4.3326   17.3446 C   0  0  1  0  0  0  0  0  0  0  0  0
   -9.5312    3.9086   16.3598 O   0  0  0  0  0  0  0  0  0  0  0  0
   -9.2594    5.0867   18.4808 C   0  0  1  0  0  0  0  0  0  0  0  0
  -10.5781    4.5786   18.6980 O   0  0  0  0  0  0  0  0  0  0  0  0
   -8.4161    4.7851   19.7057 C   0  0  2  0  0  0  0  0  0  0  0  0
   -5.7718    6.5197   12.8406 C   0  0  1  0  0  0  0  0  0  0  0  0
   -7.1563    9.8845   18.9302 N   0  0  0  0  0  0  0  0  0  0  0  0
   -8.1822    9.1644   18.3995 C   0  0  1  0  0  0  0  0  0  0  0  0
   -5.0254    6.0027   14.0377 C   0  0  2  0  0  0  0  0  0  0  0  0
   -9.0280    9.7884   17.5476 N   0  0  0  0  0  0  0  0  0  0  0  0
   -3.7486    5.5721   13.5630 O   0  0  0  0  0  0  0  0  0  0  0  0
   -5.8639    4.8466   14.5458 C   0  0  2  0  0  0  0  0  0  0  0  0
   -8.3873    7.8451   18.6893 N   0  0  0  0  0  0  0  0  0  0  0  0
   -5.0549    3.7747   15.0103 O   0  0  0  0  0  0  0  0  0  0  0  0
   -7.5686    7.1747   19.5390 C   0  0  2  0  0  0  0  0  0  0  0  0
   -6.6790    4.4012   13.3476 C   0  0  2  0  0  0  0  0  0  0  0  0
   -6.7148    5.5183   12.4610 O   0  0  0  0  0  0  0  0  0  0  0  0
   -6.4399    7.9072   20.1391 C   0  0  1  0  0  0  0  0  0  0  0  0
   -8.1026    3.9990   13.7165 C   0  0  0  0  0  0  0  0  0  0  0  0
   -8.7778    5.1286   14.2734 O   0  0  0  0  0  0  0  0  0  0  0  0
   -6.2709    9.3286   19.7884 C   0  0  0  0  0  0  0  0  0  0  0  0
   -5.2486   10.0531   20.3100 O   0  0  0  0  0  0  0  0  0  0  0  0
   -5.7871    7.0414   20.9223 N   0  0  0  0  0  0  0  0  0  0  0  0
   -6.4381    5.8446   20.8361 C   0  0  0  0  0  0  0  0  0  0  0  0
   -7.5029    5.9185   20.0100 N   0  0  1  0  0  0  0  0  0  0  0  0
  -10.0369    9.4542   12.0887 N   0  0  0  0  0  0  0  0  0  0  0  0
  -10.5337    6.5018   15.9530 O   0  5  0  0  0  0  0  0  0  0  0  0
   -9.7149    8.2368   11.5718 C   0  0  2  0  0  0  0  0  0  0  0  0
  -10.5853    7.6228   10.7285 N   0  0  0  0  0  0  0  0  0  0  0  0
  -11.3965    4.3016   14.2639 O   0  0  0  0  0  0  0  0  0  0  0  0
   -8.5445    7.6113   11.8741 N   0  0  0  0  0  0  0  0  0  0  0  0
   -7.6406    8.1694   12.7130 C   0  0  2  0  0  0  0  0  0  0  0  0
   -7.9306    9.4842   13.3004 C   0  0  2  0  0  0  0  0  0  0  0  0
   -9.2148   10.1165   12.9300 C   0  0  0  0  0  0  0  0  0  0  0  0
   -9.5680   11.3304   13.4202 O   0  0  0  0  0  0  0  0  0  0  0  0
   -6.8739    9.8020   14.0742 N   0  0  0  0  0  0  0  0  0  0  0  0
   -5.9816    8.7705   13.9914 C   0  0  0  0  0  0  0  0  0  0  0  0
   -6.4447    7.7980   13.1737 N   0  0  1  0  0  0  0  0  0  0  0  0
  1  3  1  1  0  0  0
  1  4  2  0  0  0  0
  1  6  1  0  0  0  0
  1 22  1  0  0  0  0
  2 28  1  0  0  0  0
  2 35  1  1  0  0  0
  2 38  2  0  0  0  0
  2 10  1  0  0  0  0
  5  6  1  0  0  0  0
  7  5  1  6  0  0  0
  7  8  1  0  0  0  0
  7  9  1  0  0  0  0
  9 10  1  6  0  0  0
  9 11  1  0  0  0  0
 11 12  1  1  0  0  0
 11 13  1  0  0  0  0
 13  8  1  6  0  0  0
 13 33  1  0  0  0  0
 14 46  1  0  0  0  0
 14 17  1  0  0  0  0
 14 25  1  1  0  0  0
 15 16  1  0  0  0  0
 15 29  1  0  0  0  0
 16 18  1  6  0  0  0
 16 21  1  0  0  0  0
 17 19  1  6  0  0  0
 17 20  1  0  0  0  0
 20 22  1  6  0  0  0
 20 24  1  0  0  0  0
 23 21  1  6  0  0  0
 23 26  1  0  0  0  0
 23 33  1  0  0  0  0
 24 25  1  6  0  0  0
 24 27  1  0  0  0  0
 26 29  1  1  0  0  0
 26 31  1  0  0  0  0
 27 28  1  0  0  0  0
 29 30  2  0  0  0  0
 31 32  1  0  0  0  0
 33 32  1  1  0  0  0
 34 36  1  0  0  0  0
 34 42  1  0  0  0  0
 36 37  1  1  0  0  0
 36 39  1  0  0  0  0
 40 39  1  6  0  0  0
 40 41  1  0  0  0  0
 40 46  1  0  0  0  0
 41 42  1  6  0  0  0
 41 44  1  0  0  0  0
 42 43  2  0  0  0  0
 44 45  1  0  0  0  0
 46 45  1  1  0  0  0
M  CHG  2   3  -1  35  -1
M  END
>  <CHROM.1>
132.10112308,-143.49904007,-7.45563977,6.27580404,16.00799966,-0.78445656
1.11947628,-1.90957753

>  <Name>
ligand

>  <RI>
-1

>  <Rbt.Current_Directory>
/home/itssahil/PROJECTS/Mol_Feturizer/Test_systems_manuscript/rnas/3mum

>  <Rbt.Executable>
rbdock ($Id: //depot/dev/client3/rdock/2013.1/src/exe/rbdock.cxx#4 $)

>  <Rbt.Library>
libRbt.so (2013.1, Build901 2013/11/27)

>  <Rbt.Parameter_File>
/export/apps/rDock/src/rDock_2013.1_src/data/scripts/dock_solv.prm

>  <Rbt.Receptor>
prm/pocket_docking_8.prm

>  <SCORE>
-13.7192

>  <SCORE.INTER>
-14.1366

>  <SCORE.INTER.CONST>
1

>  <SCORE.INTER.POLAR>
0

>  <SCORE.INTER.ROT>
2

>  <SCORE.INTER.SOLV>
17.1869

>  <SCORE.INTER.VDW>
-20.0867

>  <SCORE.INTER.norm>
-0.307318

>  <SCORE.INTRA>
0.417435

>  <SCORE.INTRA.DIHEDRAL>
0.0198231

>  <SCORE.INTRA.DIHEDRAL.0>
2.40424

>  <SCORE.INTRA.POLAR>
0

>  <SCORE.INTRA.POLAR.0>
0

>  <SCORE.INTRA.REPUL>
0

>  <SCORE.INTRA.REPUL.0>
0

>  <SCORE.INTRA.SOLV>
0.991672

>  <SCORE.INTRA.SOLV.lig_0>
-134.169

>  <SCORE.INTRA.VDW>
-0.0883124

>  <SCORE.INTRA.VDW.0>
-2.18386

>  <SCORE.INTRA.norm>
0.00907468

>  <SCORE.RESTR>
0

>  <SCORE.RESTR.CAVITY>
0

>  <SCORE.RESTR.norm>
0

>  <SCORE.SYSTEM>
0

>  <SCORE.SYSTEM.CONST>
0

>  <SCORE.SYSTEM.DIHEDRAL>
0

>  <SCORE.SYSTEM.SOLV>
0

>  <SCORE.SYSTEM.norm>
0

>  <SCORE.heavy>
46

>  <SCORE.norm>
-0.298243

>  <RMSD>
8.000

$$$$
ligand
 OpenBabel02271912143D
libRbt.so/2013.1/901 2013/11/27
 46 52  0  0  0  0  0  0  0  0999 V2000
   -7.5089    3.9502   13.8790 P   0  0  1  0  0  0  0  0  0  0  0  0
  -10.8298    8.6427   15.1550 P   0  0  2  0  0  0  0  0  0  0  0  0
   -6.0511    3.9382   14.8872 O   0  5  0  0  0  0  0  0  0  0  0  0
   -7.6077    2.4985   12.8483 O   0  0  0  0  0  0  0  0  0  0  0  0
  -10.1140    4.1691   14.3141 C   0  0  0  0  0  0  0  0  0  0  0  0
   -8.7958    4.0366   14.8464 O   0  0  0  0  0  0  0  0  0  0  0  0
  -11.0239    4.7039   15.4034 C   0  0  1  0  0  0  0  0  0  0  0  0
  -10.9104    3.8763   16.5697 O   0  0  0  0  0  0  0  0  0  0  0  0
  -10.6535    6.1053   15.8607 C   0  0  1  0  0  0  0  0  0  0  0  0
  -11.3402    7.1114   15.1195 O   0  0  0  0  0  0  0  0  0  0  0  0
  -11.0525    6.1068   17.3259 C   0  0  1  0  0  0  0  0  0  0  0  0
  -12.4180    6.5086   17.4619 O   0  0  0  0  0  0  0  0  0  0  0  0
  -10.9259    4.6619   17.7719 C   0  0  2  0  0  0  0  0  0  0  0  0
   -5.9580    8.4129   13.4845 C   0  0  1  0  0  0  0  0  0  0  0  0
   -6.6339    6.7974   20.0546 N   0  0  0  0  0  0  0  0  0  0  0  0
   -7.6591    7.4168   19.4083 C   0  0  1  0  0  0  0  0  0  0  0  0
   -6.0219    6.9433   13.7904 C   0  0  2  0  0  0  0  0  0  0  0  0
   -7.6276    8.7655   19.3040 N   0  0  0  0  0  0  0  0  0  0  0  0
   -5.1567    6.2976   12.8547 O   0  0  0  0  0  0  0  0  0  0  0  0
   -7.4747    6.5672   13.5765 C   0  0  2  0  0  0  0  0  0  0  0  0
   -8.7091    6.7343   18.8623 N   0  0  0  0  0  0  0  0  0  0  0  0
   -7.6032    5.2828   12.9822 O   0  0  0  0  0  0  0  0  0  0  0  0
   -8.7883    5.3819   18.9418 C   0  0  2  0  0  0  0  0  0  0  0  0
   -8.0177    7.6294   12.6408 C   0  0  2  0  0  0  0  0  0  0  0  0
   -7.1509    8.7539   12.7795 O   0  0  0  0  0  0  0  0  0  0  0  0
   -7.7021    4.6615   19.6287 C   0  0  1  0  0  0  0  0  0  0  0  0
   -9.4455    8.0430   12.9799 C   0  0  0  0  0  0  0  0  0  0  0  0
   -9.4698    8.6042   14.2938 O   0  0  0  0  0  0  0  0  0  0  0  0
   -6.5966    5.4529   20.1976 C   0  0  0  0  0  0  0  0  0  0  0  0
   -5.5685    4.8431   20.8404 O   0  0  0  0  0  0  0  0  0  0  0  0
   -8.0015    3.3592   19.5701 N   0  0  0  0  0  0  0  0  0  0  0  0
   -9.1845    3.2440   18.8987 C   0  0  0  0  0  0  0  0  0  0  0  0
   -9.6585    4.4496   18.5201 N   0  0  1  0  0  0  0  0  0  0  0  0
   -3.8412    8.5327   18.2671 N   0  0  0  0  0  0  0  0  0  0  0  0
  -10.4998    9.1821   16.8226 O   0  5  0  0  0  0  0  0  0  0  0  0
   -3.7544    7.5790   17.2996 C   0  0  2  0  0  0  0  0  0  0  0  0
   -3.0193    6.4608   17.5344 N   0  0  0  0  0  0  0  0  0  0  0  0
  -11.9517    9.7765   14.3779 O   0  0  0  0  0  0  0  0  0  0  0  0
   -4.3822    7.7099   16.0992 N   0  0  0  0  0  0  0  0  0  0  0  0
   -5.1231    8.8036   15.8042 C   0  0  2  0  0  0  0  0  0  0  0  0
   -5.2565    9.8662   16.8096 C   0  0  2  0  0  0  0  0  0  0  0  0
   -4.5567    9.6646   18.0963 C   0  0  0  0  0  0  0  0  0  0  0  0
   -4.6240   10.5894   19.0857 O   0  0  0  0  0  0  0  0  0  0  0  0
   -6.0442   10.8147   16.2654 N   0  0  0  0  0  0  0  0  0  0  0  0
   -6.3835   10.3940   15.0105 C   0  0  0  0  0  0  0  0  0  0  0  0
   -5.8316    9.1891   14.7413 N   0  0  1  0  0  0  0  0  0  0  0  0
  1  3  1  1  0  0  0
  1  4  2  0  0  0  0
  1  6  1  0  0  0  0
  1 22  1  0  0  0  0
  2 28  1  0  0  0  0
  2 35  1  1  0  0  0
  2 38  2  0  0  0  0
  2 10  1  0  0  0  0
  5  6  1  0  0  0  0
  7  5  1  6  0  0  0
  7  8  1  0  0  0  0
  7  9  1  0  0  0  0
  9 10  1  6  0  0  0
  9 11  1  0  0  0  0
 11 12  1  6  0  0  0
 11 13  1  0  0  0  0
 13  8  1  6  0  0  0
 13 33  1  0  0  0  0
 14 46  1  0  0  0  0
 14 17  1  0  0  0  0
 14 25  1  1  0  0  0
 15 16  1  0  0  0  0
 15 29  1  0  0  0  0
 16 18  1  6  0  0  0
 16 21  1  0  0  0  0
 17 19  1  6  0  0  0
 17 20  1  0  0  0  0
 20 22  1  6  0  0  0
 20 24  1  0  0  0  0
 23 21  1  6  0  0  0
 23 26  1  0  0  0  0
 23 33  1  0  0  0  0
 24 25  1  1  0  0  0
 24 27  1  0  0  0  0
 26 29  1  1  0  0  0
 26 31  1  0  0  0  0
 27 28  1  0  0  0  0
 29 30  2  0  0  0  0
 31 32  1  0  0  0  0
 33 32  1  1  0  0  0
 34 36  1  0  0  0  0
 34 42  1  0  0  0  0
 36 37  1  6  0  0  0
 36 39  1  0  0  0  0
 40 39  1  1  0  0  0
 40 41  1  0  0  0  0
 40 46  1  0  0  0  0
 41 42  1  1  0  0  0
 41 44  1  0  0  0  0
 42 43  2  0  0  0  0
 44 45  1  0  0  0  0
 46 45  1  6  0  0  0
M  CHG  2   3  -1  35  -1
M  END
>  <CHROM.1>
125.32673365,36.89640740,-7.88471988,6.74899656,16.16944814,-2.99287232,0.60402060
1.98582631

>  <Name>
ligand

>  <RI>
-1

>  <Rbt.Current_Directory>
/home/itssahil/PROJECTS/Mol_Feturizer/Test_systems_manuscript/rnas/3mum

>  <Rbt.Executable>
rbdock ($Id: //depot/dev/client3/rdock/2013.1/src/exe/rbdock.cxx#4 $)

>  <Rbt.Library>
libRbt.so (2013.1, Build901 2013/11/27)

>  <Rbt.Parameter_File>
/export/apps/rDock/src/rDock_2013.1_src/data/scripts/dock_solv.prm

>  <Rbt.Receptor>
prm/pocket_docking_7.prm

>  <SCORE>
-13.0791

>  <SCORE.INTER>
-14.155

>  <SCORE.INTER.CONST>
1

>  <SCORE.INTER.POLAR>
0

>  <SCORE.INTER.ROT>
2

>  <SCORE.INTER.SOLV>
15.1598

>  <SCORE.INTER.VDW>
-19.4233

>  <SCORE.INTER.norm>
-0.307718

>  <SCORE.INTRA>
1.07595

>  <SCORE.INTRA.DIHEDRAL>
-0.0312364

>  <SCORE.INTRA.DIHEDRAL.0>
2.40424

>  <SCORE.INTRA.POLAR>
0

>  <SCORE.INTRA.POLAR.0>
0

>  <SCORE.INTRA.REPUL>
0

>  <SCORE.INTRA.REPUL.0>
0

>  <SCORE.INTRA.SOLV>
3.05651

>  <SCORE.INTRA.SOLV.lig_0>
-134.169

>  <SCORE.INTRA.VDW>
-0.436692

>  <SCORE.INTRA.VDW.0>
-2.18386

>  <SCORE.INTRA.norm>
0.0233901

>  <SCORE.RESTR>
0

>  <SCORE.RESTR.CAVITY>
0

>  <SCORE.RESTR.norm>
0

>  <SCORE.SYSTEM>
0

>  <SCORE.SYSTEM.CONST>
0

>  <SCORE.SYSTEM.DIHEDRAL>
0

>  <SCORE.SYSTEM.SOLV>
0

>  <SCORE.SYSTEM.norm>
0

>  <SCORE.heavy>
46

>  <SCORE.norm>
-0.284328

>  <RMSD>
8.001

$$$$
ligand
 OpenBabel02271912143D
libRbt.so/2013.1/901 2013/11/27
 46 52  0  0  0  0  0  0  0  0999 V2000
   -4.3051    3.7766   16.4853 P   0  0  1  0  0  0  0  0  0  0  0  0
   -9.9303    4.9880   15.2338 P   0  0  2  0  0  0  0  0  0  0  0  0
   -3.4150    5.2728   16.8182 O   0  5  0  0  0  0  0  0  0  0  0  0
   -3.2817    2.3359   16.7228 O   0  0  0  0  0  0  0  0  0  0  0  0
   -6.5543    2.6751   17.3520 C   0  0  0  0  0  0  0  0  0  0  0  0
   -5.5862    3.7186   17.4624 O   0  0  0  0  0  0  0  0  0  0  0  0
   -7.8358    3.1312   18.0230 C   0  0  1  0  0  0  0  0  0  0  0  0
   -7.5469    3.5650   19.3596 O   0  0  0  0  0  0  0  0  0  0  0  0
   -8.4804    4.3250   17.3376 C   0  0  1  0  0  0  0  0  0  0  0  0
   -9.4204    3.9293   16.3412 O   0  0  0  0  0  0  0  0  0  0  0  0
   -9.1457    5.0639   18.4853 C   0  0  1  0  0  0  0  0  0  0  0  0
  -10.4704    4.5649   18.6875 O   0  0  0  0  0  0  0  0  0  0  0  0
   -8.3106    4.7306   19.7076 C   0  0  2  0  0  0  0  0  0  0  0  0
   -5.6209    6.5694   12.8873 C   0  0  1  0  0  0  0  0  0  0  0  0
   -6.9838    9.8252   19.0168 N   0  0  0  0  0  0  0  0  0  0  0  0
   -8.0124    9.1247   18.4657 C   0  0  1  0  0  0  0  0  0  0  0  0
   -4.8846    6.0223   14.0772 C   0  0  2  0  0  0  0  0  0  0  0  0
   -8.8421    9.7704   17.6141 N   0  0  0  0  0  0  0  0  0  0  0  0
   -3.6102    5.5881   13.5995 O   0  0  0  0  0  0  0  0  0  0  0  0
   -5.7366    4.8652   14.5598 C   0  0  2  0  0  0  0  0  0  0  0  0
   -8.2357    7.8040   18.7348 N   0  0  0  0  0  0  0  0  0  0  0  0
   -4.9401    3.7765   15.0069 O   0  0  0  0  0  0  0  0  0  0  0  0
   -7.4337    7.1122   19.5832 C   0  0  2  0  0  0  0  0  0  0  0  0
   -6.5511    4.4508   13.3501 C   0  0  2  0  0  0  0  0  0  0  0  0
   -6.5722    5.5849   12.4849 O   0  0  0  0  0  0  0  0  0  0  0  0
   -6.3029    7.8229   20.2050 C   0  0  1  0  0  0  0  0  0  0  0  0
   -7.9801    4.0558   13.7057 C   0  0  0  0  0  0  0  0  0  0  0  0
   -8.6464    5.1813   14.2814 O   0  0  0  0  0  0  0  0  0  0  0  0
   -6.1137    9.2470   19.8760 C   0  0  0  0  0  0  0  0  0  0  0  0
   -5.0885    9.9521   20.4182 O   0  0  0  0  0  0  0  0  0  0  0  0
   -5.6682    6.9387   20.9825 N   0  0  0  0  0  0  0  0  0  0  0  0
   -6.3322    5.7509   20.8728 C   0  0  0  0  0  0  0  0  0  0  0  0
   -7.3874    5.8488   20.0370 N   0  0  1  0  0  0  0  0  0  0  0  0
   -9.9569    9.4513   12.3747 N   0  0  0  0  0  0  0  0  0  0  0  0
  -10.3955    6.5396   15.9800 O   0  5  0  0  0  0  0  0  0  0  0  0
   -9.6584    8.2272   11.8594 C   0  0  2  0  0  0  0  0  0  0  0  0
  -10.5780    7.5897   11.0888 N   0  0  0  0  0  0  0  0  0  0  0  0
  -11.2731    4.3808   14.2458 O   0  0  0  0  0  0  0  0  0  0  0  0
   -8.4639    7.6180   12.0925 N   0  0  0  0  0  0  0  0  0  0  0  0
   -7.5108    8.1999   12.8574 C   0  0  2  0  0  0  0  0  0  0  0  0
   -7.7734    9.5228   13.4391 C   0  0  2  0  0  0  0  0  0  0  0  0
   -9.0861   10.1366   13.1458 C   0  0  0  0  0  0  0  0  0  0  0  0
   -9.4174   11.3564   13.6367 O   0  0  0  0  0  0  0  0  0  0  0  0
   -6.6697    9.8646   14.1330 N   0  0  0  0  0  0  0  0  0  0  0  0
   -5.7747    8.8397   14.0085 C   0  0  0  0  0  0  0  0  0  0  0  0
   -6.2825    7.8479   13.2421 N   0  0  1  0  0  0  0  0  0  0  0  0
  1  3  1  1  0  0  0
  1  4  2  0  0  0  0
  1  6  1  0  0  0  0
  1 22  1  0  0  0  0
  2 28  1  0  0  0  0
  2 35  1  1  0  0  0
  2 38  2  0  0  0  0
  2 10  1  0  0  0  0
  5  6  1  0  0  0  0
  7  5  1  6  0  0  0
  7  8  1  0  0  0  0
  7  9  1  0  0  0  0
  9 10  1  6  0  0  0
  9 11  1  0  0  0  0
 11 12  1  1  0  0  0
 11 13  1  0  0  0  0
 13  8  1  6  0  0  0
 13 33  1  0  0  0  0
 14 46  1  0  0  0  0
 14 17  1  0  0  0  0
 14 25  1  1  0  0  0
 15 16  1  0  0  0  0
 15 29  1  0  0  0  0
 16 18  1  6  0  0  0
 16 21  1  0  0  0  0
 17 19  1  6  0  0  0
 17 20  1  0  0  0  0
 20 22  1  6  0  0  0
 20 24  1  0  0  0  0
 23 21  1  6  0  0  0
 23 26  1  0  0  0  0
 23 33  1  0  0  0  0
 24 25  1  6  0  0  0
 24 27  1  0  0  0  0
 26 29  1  1  0  0  0
 26 31  1  0  0  0  0
 27 28  1  0  0  0  0
 29 30  2  0  0  0  0
 31 32  1  0  0  0  0
 33 32  1  1  0  0  0
 34 36  1  0  0  0  0
 34 42  1  0  0  0  0
 36 37  1  1  0  0  0
 36 39  1  0  0  0  0
 40 39  1  6  0  0  0
 40 41  1  0  0  0  0
 40 46  1  0  0  0  0
 41 42  1  6  0  0  0
 41 44  1  0  0  0  0
 42 43  2  0  0  0  0
 44 45  1  0  0  0  0
 46 45  1  1  0  0  0
M  CHG  2   3  -1  35  -1
M  END
>  <CHROM.1>
131.63166328,-138.69903746,-7.32996037,6.26941345,16.06280768,-0.76582827
1.11225060,-1.90722354

>  <Name>
ligand

>  <RI>
-1

>  <Rbt.Current_Directory>
/home/itssahil/PROJECTS/Mol_Feturizer/Test_systems_manuscript/rnas/3mum

>  <Rbt.Executable>
rbdock ($Id: //depot/dev/client3/rdock/2013.1/src/exe/rbdock.cxx#4 $)

>  <Rbt.Library>
libRbt.so (2013.1, Build901 2013/11/27)

>  <Rbt.Parameter_File>
/export/apps/rDock/src/rDock_2013.1_src/data/scripts/dock_solv.prm

>  <Rbt.Receptor>
prm/pocket_docking_8.prm

>  <SCORE>
-13.6896

>  <SCORE.INTER>
-13.8019

>  <SCORE.INTER.CONST>
1

>  <SCORE.INTER.POLAR>
0

>  <SCORE.INTER.ROT>
2

>  <SCORE.INTER.SOLV>
15.8825

>  <SCORE.INTER.VDW>
-19.4288

>  <SCORE.INTER.norm>
-0.30004

>  <SCORE.INTRA>
0.112289

>  <SCORE.INTRA.DIHEDRAL>
0.0169326

>  <SCORE.INTRA.DIHEDRAL.0>
2.40424

>  <SCORE.INTRA.POLAR>
0

>  <SCORE.INTRA.POLAR.0>
0

>  <SCORE.INTRA.REPUL>
0

>  <SCORE.INTRA.REPUL.0>
0

>  <SCORE.INTRA.SOLV>
1.00676

>  <SCORE.INTRA.SOLV.lig_0>
-134.169

>  <SCORE.INTRA.VDW>
-0.399558

>  <SCORE.INTRA.VDW.0>
-2.18386

>  <SCORE.INTRA.norm>
0.00244106

>  <SCORE.RESTR>
0

>  <SCORE.RESTR.CAVITY>
0

>  <SCORE.RESTR.norm>
0

>  <SCORE.SYSTEM>
0

>  <SCORE.SYSTEM.CONST>
0

>  <SCORE.SYSTEM.DIHEDRAL>
0

>  <SCORE.SYSTEM.SOLV>
0

>  <SCORE.SYSTEM.norm>
0

>  <SCORE.heavy>
46

>  <SCORE.norm>
-0.297599

>  <RMSD>
8.006

$$$$
ligand
 OpenBabel02271912143D
libRbt.so/2013.1/901 2013/11/27
 46 52  0  0  0  0  0  0  0  0999 V2000
   -2.4429    3.4297   21.0755 P   0  0  1  0  0  0  0  0  0  0  0  0
   -5.3893    1.7498   16.2617 P   0  0  2  0  0  0  0  0  0  0  0  0
   -2.0559    5.1571   20.9859 O   0  5  0  0  0  0  0  0  0  0  0  0
   -1.9276    2.7199   22.6279 O   0  0  0  0  0  0  0  0  0  0  0  0
   -4.6310    1.9597   20.8020 C   0  0  0  0  0  0  0  0  0  0  0  0
   -4.0338    3.2541   20.8821 O   0  0  0  0  0  0  0  0  0  0  0  0
   -5.9944    2.0956   20.1512 C   0  0  1  0  0  0  0  0  0  0  0  0
   -6.7611    3.0858   20.8508 O   0  0  0  0  0  0  0  0  0  0  0  0
   -5.9268    2.5755   18.7105 C   0  0  1  0  0  0  0  0  0  0  0  0
   -5.8543    1.4922   17.7863 O   0  0  0  0  0  0  0  0  0  0  0  0
   -7.2093    3.3730   18.5522 C   0  0  1  0  0  0  0  0  0  0  0  0
   -8.2726    2.5138   18.1331 O   0  0  0  0  0  0  0  0  0  0  0  0
   -7.5259    3.8932   19.9420 C   0  0  2  0  0  0  0  0  0  0  0  0
   -0.7049    3.8603   16.6857 C   0  0  1  0  0  0  0  0  0  0  0  0
   -8.1571    8.9273   18.3761 N   0  0  0  0  0  0  0  0  0  0  0  0
   -8.8022    7.8084   17.9466 C   0  0  1  0  0  0  0  0  0  0  0  0
   -1.0684    4.1506   18.1142 C   0  0  2  0  0  0  0  0  0  0  0  0
   -9.7451    7.9429   16.9856 N   0  0  0  0  0  0  0  0  0  0  0  0
    0.1500    4.1048   18.8588 O   0  0  0  0  0  0  0  0  0  0  0  0
   -2.0175    3.0353   18.5055 C   0  0  2  0  0  0  0  0  0  0  0  0
   -8.5341    6.5639   18.4424 N   0  0  0  0  0  0  0  0  0  0  0  0
   -1.8064    2.6111   19.8452 O   0  0  0  0  0  0  0  0  0  0  0  0
   -7.5993    6.3764   19.4081 C   0  0  2  0  0  0  0  0  0  0  0  0
   -1.7041    1.9036   17.5465 C   0  0  2  0  0  0  0  0  0  0  0  0
   -1.0779    2.5094   16.4169 O   0  0  0  0  0  0  0  0  0  0  0  0
   -6.8691    7.5549   19.9065 C   0  0  1  0  0  0  0  0  0  0  0  0
   -2.9493    1.1492   17.0940 C   0  0  0  0  0  0  0  0  0  0  0  0
   -3.8129    2.0490   16.3964 O   0  0  0  0  0  0  0  0  0  0  0  0
   -7.2029    8.8709   19.3331 C   0  0  0  0  0  0  0  0  0  0  0  0
   -6.5621    9.9912   19.7529 O   0  0  0  0  0  0  0  0  0  0  0  0
   -6.0113    7.1169   20.8346 N   0  0  0  0  0  0  0  0  0  0  0  0
   -6.1708    5.7644   20.9295 C   0  0  0  0  0  0  0  0  0  0  0  0
   -7.1179    5.3166   20.0785 N   0  0  1  0  0  0  0  0  0  0  0  0
   -0.2348    6.9017   12.4551 N   0  0  0  0  0  0  0  0  0  0  0  0
   -6.2338    3.1501   15.5497 O   0  5  0  0  0  0  0  0  0  0  0  0
    0.6910    6.1161   13.0705 C   0  0  2  0  0  0  0  0  0  0  0  0
    1.9507    6.0551   12.5651 N   0  0  0  0  0  0  0  0  0  0  0  0
   -5.6022    0.3348   15.2126 O   0  0  0  0  0  0  0  0  0  0  0  0
    0.3946    5.3858   14.1801 N   0  0  0  0  0  0  0  0  0  0  0  0
   -0.8439    5.4001   14.7260 C   0  0  2  0  0  0  0  0  0  0  0  0
   -1.8854    6.2315   14.1080 C   0  0  2  0  0  0  0  0  0  0  0  0
   -1.5019    7.0066   12.9087 C   0  0  0  0  0  0  0  0  0  0  0  0
   -2.3946    7.8039   12.2718 O   0  0  0  0  0  0  0  0  0  0  0  0
   -2.9988    6.0687   14.8497 N   0  0  0  0  0  0  0  0  0  0  0  0
   -2.6945    5.1991   15.8587 C   0  0  0  0  0  0  0  0  0  0  0  0
   -1.4033    4.8046   15.7809 N   0  0  1  0  0  0  0  0  0  0  0  0
  1  3  1  6  0  0  0
  1  4  2  0  0  0  0
  1  6  1  0  0  0  0
  1 22  1  0  0  0  0
  2 28  1  0  0  0  0
  2 35  1  6  0  0  0
  2 38  2  0  0  0  0
  2 10  1  0  0  0  0
  5  6  1  0  0  0  0
  7  5  1  1  0  0  0
  7  8  1  0  0  0  0
  7  9  1  0  0  0  0
  9 10  1  6  0  0  0
  9 11  1  0  0  0  0
 11 12  1  1  0  0  0
 11 13  1  0  0  0  0
 13  8  1  1  0  0  0
 13 33  1  0  0  0  0
 14 46  1  0  0  0  0
 14 17  1  0  0  0  0
 14 25  1  6  0  0  0
 15 16  1  0  0  0  0
 15 29  1  0  0  0  0
 16 18  1  6  0  0  0
 16 21  1  0  0  0  0
 17 19  1  1  0  0  0
 17 20  1  0  0  0  0
 20 22  1  1  0  0  0
 20 24  1  0  0  0  0
 23 21  1  6  0  0  0
 23 26  1  0  0  0  0
 23 33  1  0  0  0  0
 24 25  1  6  0  0  0
 24 27  1  0  0  0  0
 26 29  1  1  0  0  0
 26 31  1  0  0  0  0
 27 28  1  0  0  0  0
 29 30  2  0  0  0  0
 31 32  1  0  0  0  0
 33 32  1  1  0  0  0
 34 36  1  0  0  0  0
 34 42  1  0  0  0  0
 36 37  1  6  0  0  0
 36 39  1  0  0  0  0
 40 39  1  1  0  0  0
 40 41  1  0  0  0  0
 40 46  1  0  0  0  0
 41 42  1  1  0  0  0
 41 44  1  0  0  0  0
 42 43  2  0  0  0  0
 44 45  1  0  0  0  0
 46 45  1  6  0  0  0
M  CHG  2   3  -1  35  -1
M  END
>  <CHROM.1>
-179.79932798,137.74700634,-4.08167112,4.49450255,17.73716581,-2.70733288
0.54508429,-0.75367995

>  <Name>
ligand

>  <RI>
-1

>  <Rbt.Current_Directory>
/home/itssahil/PROJECTS/Mol_Feturizer/Test_systems_manuscript/rnas/3mum

>  <Rbt.Executable>
rbdock ($Id: //depot/dev/client3/rdock/2013.1/src/exe/rbdock.cxx#4 $)

>  <Rbt.Library>
libRbt.so (2013.1, Build901 2013/11/27)

>  <Rbt.Parameter_File>
/export/apps/rDock/src/rDock_2013.1_src/data/scripts/dock_solv.prm

>  <Rbt.Receptor>
prm/pocket_docking_8.prm

>  <SCORE>
-10.0452

>  <SCORE.INTER>
-10.0013

>  <SCORE.INTER.CONST>
1

>  <SCORE.INTER.POLAR>
0

>  <SCORE.INTER.ROT>
2

>  <SCORE.INTER.SOLV>
14.4879

>  <SCORE.INTER.VDW>
-16.4302

>  <SCORE.INTER.norm>
-0.217419

>  <SCORE.INTRA>
-0.0439763

>  <SCORE.INTRA.DIHEDRAL>
-0.025918

>  <SCORE.INTRA.DIHEDRAL.0>
2.40424

>  <SCORE.INTRA.POLAR>
0

>  <SCORE.INTRA.POLAR.0>
0

>  <SCORE.INTRA.REPUL>
0

>  <SCORE.INTRA.REPUL.0>
0

>  <SCORE.INTRA.SOLV>
-0.0238217

>  <SCORE.INTRA.SOLV.lig_0>
-134.169

>  <SCORE.INTRA.VDW>
-0.0191064

>  <SCORE.INTRA.VDW.0>
-2.18386

>  <SCORE.INTRA.norm>
-0.000956007

>  <SCORE.RESTR>
0

>  <SCORE.RESTR.CAVITY>
0

>  <SCORE.RESTR.norm>
0

>  <SCORE.SYSTEM>
0

>  <SCORE.SYSTEM.CONST>
0

>  <SCORE.SYSTEM.DIHEDRAL>
0

>  <SCORE.SYSTEM.SOLV>
0

>  <SCORE.SYSTEM.norm>
0

>  <SCORE.heavy>
46

>  <SCORE.norm>
-0.218375

>  <RMSD>
8.026

$$$$
ligand
 OpenBabel02271912143D
libRbt.so/2013.1/901 2013/11/27
 46 52  0  0  0  0  0  0  0  0999 V2000
   -2.1157    3.8866   18.2605 P   0  0  1  0  0  0  0  0  0  0  0  0
   -8.0019    3.7609   18.3743 P   0  0  2  0  0  0  0  0  0  0  0  0
   -1.5468    4.6046   16.7431 O   0  5  0  0  0  0  0  0  0  0  0  0
   -0.7614    3.5050   19.3558 O   0  0  0  0  0  0  0  0  0  0  0  0
   -3.8322    4.5757   20.1584 C   0  0  0  0  0  0  0  0  0  0  0  0
   -3.1288    4.9237   18.9657 O   0  0  0  0  0  0  0  0  0  0  0  0
   -5.0251    5.5013   20.3039 C   0  0  1  0  0  0  0  0  0  0  0  0
   -4.5847    6.8642   20.2233 O   0  0  0  0  0  0  0  0  0  0  0  0
   -6.0504    5.3382   19.1937 C   0  0  1  0  0  0  0  0  0  0  0  0
   -7.0523    4.3790   19.5245 O   0  0  0  0  0  0  0  0  0  0  0  0
   -6.6269    6.7355   19.0486 C   0  0  1  0  0  0  0  0  0  0  0  0
   -7.7335    6.9042   19.9382 O   0  0  0  0  0  0  0  0  0  0  0  0
   -5.5120    7.6702   19.4795 C   0  0  2  0  0  0  0  0  0  0  0  0
   -4.7271    1.6204   15.0168 C   0  0  1  0  0  0  0  0  0  0  0  0
   -5.8153   10.7392   15.1573 N   0  0  0  0  0  0  0  0  0  0  0  0
   -6.7840   10.4380   16.0646 C   0  0  1  0  0  0  0  0  0  0  0  0
   -3.6635    2.4636   15.6610 C   0  0  2  0  0  0  0  0  0  0  0  0
   -8.0157   10.9684   15.8852 N   0  0  0  0  0  0  0  0  0  0  0  0
   -2.4441    1.7269   15.5549 O   0  0  0  0  0  0  0  0  0  0  0  0
   -4.1124    2.6180   17.1006 C   0  0  2  0  0  0  0  0  0  0  0  0
   -6.5630    9.6243   17.1397 N   0  0  0  0  0  0  0  0  0  0  0  0
   -3.0139    2.5771   18.0011 O   0  0  0  0  0  0  0  0  0  0  0  0
   -5.3453    9.0694   17.3650 C   0  0  2  0  0  0  0  0  0  0  0  0
   -5.0328    1.4393   17.3496 C   0  0  2  0  0  0  0  0  0  0  0  0
   -5.4861    1.0178   16.0643 O   0  0  0  0  0  0  0  0  0  0  0  0
   -4.2616    9.3610   16.4105 C   0  0  1  0  0  0  0  0  0  0  0  0
   -6.2323    1.7982   18.2194 C   0  0  0  0  0  0  0  0  0  0  0  0
   -7.0124    2.7924   17.5522 O   0  0  0  0  0  0  0  0  0  0  0  0
   -4.5610   10.2460   15.2707 C   0  0  0  0  0  0  0  0  0  0  0  0
   -3.6021   10.5486   14.3592 O   0  0  0  0  0  0  0  0  0  0  0  0
   -3.1785    8.7038   16.8395 N   0  0  0  0  0  0  0  0  0  0  0  0
   -3.5311    8.0389   17.9784 C   0  0  0  0  0  0  0  0  0  0  0  0
   -4.8252    8.2532   18.2964 N   0  0  1  0  0  0  0  0  0  0  0  0
   -5.2905    6.3206   12.7898 N   0  0  0  0  0  0  0  0  0  0  0  0
   -8.6549    5.0361   17.3121 O   0  5  0  0  0  0  0  0  0  0  0  0
   -4.3104    5.8589   13.6139 C   0  0  2  0  0  0  0  0  0  0  0  0
   -3.2842    6.6831   13.9511 N   0  0  0  0  0  0  0  0  0  0  0  0
   -9.3370    2.7832   19.0143 O   0  0  0  0  0  0  0  0  0  0  0  0
   -4.3242    4.5927   14.1128 N   0  0  0  0  0  0  0  0  0  0  0  0
   -5.3158    3.7233   13.8077 C   0  0  2  0  0  0  0  0  0  0  0  0
   -6.4038    4.1647   12.9249 C   0  0  2  0  0  0  0  0  0  0  0  0
   -6.3369    5.5524   12.4192 C   0  0  0  0  0  0  0  0  0  0  0  0
   -7.2970    6.0496   11.6009 O   0  0  0  0  0  0  0  0  0  0  0  0
   -7.2465    3.1203   12.8003 N   0  0  0  0  0  0  0  0  0  0  0  0
   -6.7355    2.0919   13.5408 C   0  0  0  0  0  0  0  0  0  0  0  0
   -5.5819    2.4596   14.1432 N   0  0  1  0  0  0  0  0  0  0  0  0
  1  3  1  6  0  0  0
  1  4  2  0  0  0  0
  1  6  1  0  0  0  0
  1 22  1  0  0  0  0
  2 28  1  0  0  0  0
  2 35  1  6  0  0  0
  2 38  2  0  0  0  0
  2 10  1  0  0  0  0
  5  6  1  0  0  0  0
  7  5  1  6  0  0  0
  7  8  1  0  0  0  0
  7  9  1  0  0  0  0
  9 10  1  1  0  0  0
  9 11  1  0  0  0  0
 11 12  1  1  0  0  0
 11 13  1  0  0  0  0
 13  8  1  6  0  0  0
 13 33  1  0  0  0  0
 14 46  1  0  0  0  0
 14 17  1  0  0  0  0
 14 25  1  1  0  0  0
 15 16  1  0  0  0  0
 15 29  1  0  0  0  0
 16 18  1  6  0  0  0
 16 21  1  0  0  0  0
 17 19  1  1  0  0  0
 17 20  1  0  0  0  0
 20 22  1  1  0  0  0
 20 24  1  0  0  0  0
 23 21  1  6  0  0  0
 23 26  1  0  0  0  0
 23 33  1  0  0  0  0
 24 25  1  6  0  0  0
 24 27  1  0  0  0  0
 26 29  1  1  0  0  0
 26 31  1  0  0  0  0
 27 28  1  0  0  0  0
 29 30  2  0  0  0  0
 31 32  1  0  0  0  0
 33 32  1  1  0  0  0
 34 36  1  0  0  0  0
 34 42  1  0  0  0  0
 36 37  1  6  0  0  0
 36 39  1  0  0  0  0
 40 39  1  1  0  0  0
 40 41  1  0  0  0  0
 40 46  1  0  0  0  0
 41 42  1  1  0  0  0
 41 44  1  0  0  0  0
 42 43  2  0  0  0  0
 44 45  1  0  0  0  0
 46 45  1  6  0  0  0
M  CHG  2   3  -1  35  -1
M  END
>  <CHROM.1>
-179.38194671,10.09978844,-5.20880592,5.31396198,16.73982508,-0.97600513
-1.40638789,0.47639258

>  <Name>
ligand

>  <RI>
-1

>  <Rbt.Current_Directory>
/home/itssahil/PROJECTS/Mol_Feturizer/Test_systems_manuscript/rnas/3mum

>  <Rbt.Executable>
rbdock ($Id: //depot/dev/client3/rdock/2013.1/src/exe/rbdock.cxx#4 $)

>  <Rbt.Library>
libRbt.so (2013.1, Build901 2013/11/27)

>  <Rbt.Parameter_File>
/export/apps/rDock/src/rDock_2013.1_src/data/scripts/dock_solv.prm

>  <Rbt.Receptor>
prm/pocket_docking_7.prm

>  <SCORE>
-10.5204

>  <SCORE.INTER>
-12.113

>  <SCORE.INTER.CONST>
1

>  <SCORE.INTER.POLAR>
0

>  <SCORE.INTER.ROT>
2

>  <SCORE.INTER.SOLV>
10.5092

>  <SCORE.INTER.VDW>
-16.5117

>  <SCORE.INTER.norm>
-0.263326

>  <SCORE.INTRA>
1.59261

>  <SCORE.INTRA.DIHEDRAL>
-0.0174941

>  <SCORE.INTRA.DIHEDRAL.0>
2.40424

>  <SCORE.INTRA.POLAR>
0

>  <SCORE.INTRA.POLAR.0>
0

>  <SCORE.INTRA.REPUL>
0

>  <SCORE.INTRA.REPUL.0>
0

>  <SCORE.INTRA.SOLV>
2.18689

>  <SCORE.INTRA.SOLV.lig_0>
-134.169

>  <SCORE.INTRA.VDW>
0.507912

>  <SCORE.INTRA.VDW.0>
-2.18386

>  <SCORE.INTRA.norm>
0.034622

>  <SCORE.RESTR>
0

>  <SCORE.RESTR.CAVITY>
0

>  <SCORE.RESTR.norm>
0

>  <SCORE.SYSTEM>
0

>  <SCORE.SYSTEM.CONST>
0

>  <SCORE.SYSTEM.DIHEDRAL>
0

>  <SCORE.SYSTEM.SOLV>
0

>  <SCORE.SYSTEM.norm>
0

>  <SCORE.heavy>
46

>  <SCORE.norm>
-0.228704

>  <RMSD>
8.092

$$$$
ligand
 OpenBabel02271912143D
libRbt.so/2013.1/901 2013/11/27
 46 52  0  0  0  0  0  0  0  0999 V2000
   -6.7478    2.8960   19.3205 P   0  0  1  0  0  0  0  0  0  0  0  0
   -0.8705    2.9129   18.9571 P   0  0  2  0  0  0  0  0  0  0  0  0
   -7.4259    4.2166   18.3521 O   0  5  0  0  0  0  0  0  0  0  0  0
   -8.0274    1.8833   20.0392 O   0  0  0  0  0  0  0  0  0  0  0  0
   -5.0271    0.9250   18.8989 C   0  0  0  0  0  0  0  0  0  0  0  0
   -5.7979    2.0045   18.3707 O   0  0  0  0  0  0  0  0  0  0  0  0
   -3.9088    0.6071   17.9248 C   0  0  1  0  0  0  0  0  0  0  0  0
   -4.4606    0.3892   16.6186 O   0  0  0  0  0  0  0  0  0  0  0  0
   -2.9132    1.7441   17.7619 C   0  0  1  0  0  0  0  0  0  0  0  0
   -1.8259    1.6415   18.6786 O   0  0  0  0  0  0  0  0  0  0  0  0
   -2.4572    1.5995   16.3207 C   0  0  1  0  0  0  0  0  0  0  0  0
   -1.3374    0.7135   16.2472 O   0  0  0  0  0  0  0  0  0  0  0  0
   -3.6284    0.9611   15.5973 C   0  0  2  0  0  0  0  0  0  0  0  0
   -4.0770    6.5909   20.6207 C   0  0  1  0  0  0  0  0  0  0  0  0
   -7.2480    2.0059   11.8557 N   0  0  0  0  0  0  0  0  0  0  0  0
   -6.7786    0.8016   12.2821 C   0  0  1  0  0  0  0  0  0  0  0  0
   -5.1822    5.7644   20.0268 C   0  0  2  0  0  0  0  0  0  0  0  0
   -7.2698   -0.3179   11.7024 N   0  0  0  0  0  0  0  0  0  0  0  0
   -6.3409    6.0033   20.8277 O   0  0  0  0  0  0  0  0  0  0  0  0
   -4.6969    4.3327   20.1397 C   0  0  2  0  0  0  0  0  0  0  0  0
   -5.8354    0.6808   13.2631 N   0  0  0  0  0  0  0  0  0  0  0  0
   -5.7562    3.4426   20.4636 O   0  0  0  0  0  0  0  0  0  0  0  0
   -5.3130    1.7726   13.8768 C   0  0  2  0  0  0  0  0  0  0  0  0
   -3.6760    4.3552   21.2602 C   0  0  2  0  0  0  0  0  0  0  0  0
   -3.2354    5.7083   21.3617 O   0  0  0  0  0  0  0  0  0  0  0  0
   -5.7848    3.1015   13.4504 C   0  0  1  0  0  0  0  0  0  0  0  0
   -2.4796    3.4499   20.9892 C   0  0  0  0  0  0  0  0  0  0  0  0
   -1.8065    3.9044   19.8135 O   0  0  0  0  0  0  0  0  0  0  0  0
   -6.8038    3.1674   12.3877 C   0  0  0  0  0  0  0  0  0  0  0  0
   -7.2747    4.3642   11.9540 O   0  0  0  0  0  0  0  0  0  0  0  0
   -5.1266    4.0027   14.1878 N   0  0  0  0  0  0  0  0  0  0  0  0
   -4.2946    3.3147   15.0232 C   0  0  0  0  0  0  0  0  0  0  0  0
   -4.4013    1.9817   14.8408 N   0  0  1  0  0  0  0  0  0  0  0  0
   -4.0937   10.5927   17.2511 N   0  0  0  0  0  0  0  0  0  0  0  0
   -0.3605    3.6916   17.4357 O   0  5  0  0  0  0  0  0  0  0  0  0
   -5.0346   10.2146   18.1593 C   0  0  2  0  0  0  0  0  0  0  0  0
   -6.1777   10.9403   18.2716 N   0  0  0  0  0  0  0  0  0  0  0  0
    0.5611    2.5178   19.9279 O   0  0  0  0  0  0  0  0  0  0  0  0
   -4.8667    9.1289   18.9627 N   0  0  0  0  0  0  0  0  0  0  0  0
   -3.7470    8.3708   18.9020 C   0  0  2  0  0  0  0  0  0  0  0  0
   -2.6965    8.7272   17.9392 C   0  0  2  0  0  0  0  0  0  0  0  0
   -2.9386    9.9131   17.0899 C   0  0  0  0  0  0  0  0  0  0  0  0
   -2.0275   10.3173   16.1706 O   0  0  0  0  0  0  0  0  0  0  0  0
   -1.7167    7.8129   18.0820 N   0  0  0  0  0  0  0  0  0  0  0  0
   -2.1078    6.9440   19.0612 C   0  0  0  0  0  0  0  0  0  0  0  0
   -3.3243    7.2814   19.5462 N   0  0  1  0  0  0  0  0  0  0  0  0
  1  3  1  6  0  0  0
  1  4  2  0  0  0  0
  1  6  1  0  0  0  0
  1 22  1  0  0  0  0
  2 28  1  0  0  0  0
  2 35  1  6  0  0  0
  2 38  2  0  0  0  0
  2 10  1  0  0  0  0
  5  6  1  0  0  0  0
  7  5  1  1  0  0  0
  7  8  1  0  0  0  0
  7  9  1  0  0  0  0
  9 10  1  1  0  0  0
  9 11  1  0  0  0  0
 11 12  1  1  0  0  0
 11 13  1  0  0  0  0
 13  8  1  1  0  0  0
 13 33  1  0  0  0  0
 14 46  1  0  0  0  0
 14 17  1  0  0  0  0
 14 25  1  6  0  0  0
 15 16  1  0  0  0  0
 15 29  1  0  0  0  0
 16 18  1  6  0  0  0
 16 21  1  0  0  0  0
 17 19  1  1  0  0  0
 17 20  1  0  0  0  0
 20 22  1  1  0  0  0
 20 24  1  0  0  0  0
 23 21  1  6  0  0  0
 23 26  1  0  0  0  0
 23 33  1  0  0  0  0
 24 25  1  6  0  0  0
 24 27  1  0  0  0  0
 26 29  1  1  0  0  0
 26 31  1  0  0  0  0
 27 28  1  0  0  0  0
 29 30  2  0  0  0  0
 31 32  1  0  0  0  0
 33 32  1  1  0  0  0
 34 36  1  0  0  0  0
 34 42  1  0  0  0  0
 36 37  1  1  0  0  0
 36 39  1  0  0  0  0
 40 39  1  6  0  0  0
 40 41  1  0  0  0  0
 40 46  1  0  0  0  0
 41 42  1  6  0  0  0
 41 44  1  0  0  0  0
 42 43  2  0  0  0  0
 44 45  1  0  0  0  0
 46 45  1  1  0  0  0
M  CHG  2   3  -1  35  -1
M  END
>  <CHROM.1>
-78.48495422,77.27958080,-4.22859317,4.16671927,17.55185108,-2.08428910,-1.03322052
0.19350262

>  <Name>
ligand

>  <RI>
-1

>  <Rbt.Current_Directory>
/home/itssahil/PROJECTS/Mol_Feturizer/Test_systems_manuscript/rnas/3mum

>  <Rbt.Executable>
rbdock ($Id: //depot/dev/client3/rdock/2013.1/src/exe/rbdock.cxx#4 $)

>  <Rbt.Library>
libRbt.so (2013.1, Build901 2013/11/27)

>  <Rbt.Parameter_File>
/export/apps/rDock/src/rDock_2013.1_src/data/scripts/dock_solv.prm

>  <Rbt.Receptor>
prm/pocket_docking_8.prm

>  <SCORE>
-14.2344

>  <SCORE.INTER>
-14.5463

>  <SCORE.INTER.CONST>
1

>  <SCORE.INTER.POLAR>
0

>  <SCORE.INTER.ROT>
2

>  <SCORE.INTER.SOLV>
14.3271

>  <SCORE.INTER.VDW>
-19.4066

>  <SCORE.INTER.norm>
-0.316225

>  <SCORE.INTRA>
0.311973

>  <SCORE.INTRA.DIHEDRAL>
0.0140575

>  <SCORE.INTRA.DIHEDRAL.0>
2.40424

>  <SCORE.INTRA.POLAR>
0

>  <SCORE.INTRA.POLAR.0>
0

>  <SCORE.INTRA.REPUL>
0

>  <SCORE.INTRA.REPUL.0>
0

>  <SCORE.INTRA.SOLV>
0.0230068

>  <SCORE.INTRA.SOLV.lig_0>
-134.169

>  <SCORE.INTRA.VDW>
0.293441

>  <SCORE.INTRA.VDW.0>
-2.18386

>  <SCORE.INTRA.norm>
0.00678202

>  <SCORE.RESTR>
0

>  <SCORE.RESTR.CAVITY>
0

>  <SCORE.RESTR.norm>
0

>  <SCORE.SYSTEM>
0

>  <SCORE.SYSTEM.CONST>
0

>  <SCORE.SYSTEM.DIHEDRAL>
0

>  <SCORE.SYSTEM.SOLV>
0

>  <SCORE.SYSTEM.norm>
0

>  <SCORE.heavy>
46

>  <SCORE.norm>
-0.309443

>  <RMSD>
8.110

$$$$
ligand
 OpenBabel02271912143D
libRbt.so/2013.1/901 2013/11/27
 46 52  0  0  0  0  0  0  0  0999 V2000
   -4.0968    3.6704   16.5432 P   0  0  1  0  0  0  0  0  0  0  0  0
   -9.7219    4.8452   15.2572 P   0  0  2  0  0  0  0  0  0  0  0  0
   -3.1986    5.1770   16.7988 O   0  5  0  0  0  0  0  0  0  0  0  0
   -3.0788    2.2384   16.8467 O   0  0  0  0  0  0  0  0  0  0  0  0
   -6.3470    2.6231   17.4720 C   0  0  0  0  0  0  0  0  0  0  0  0
   -5.3738    3.6663   17.5272 O   0  0  0  0  0  0  0  0  0  0  0  0
   -7.6236    3.1174   18.1252 C   0  0  1  0  0  0  0  0  0  0  0  0
   -7.3269    3.6148   19.4377 O   0  0  0  0  0  0  0  0  0  0  0  0
   -8.2658    4.2792   17.3849 C   0  0  1  0  0  0  0  0  0  0  0  0
   -9.2120    3.8396   16.4129 O   0  0  0  0  0  0  0  0  0  0  0  0
   -8.9229    5.0765   18.4978 C   0  0  1  0  0  0  0  0  0  0  0  0
  -10.2488    4.5941   18.7297 O   0  0  0  0  0  0  0  0  0  0  0  0
   -8.0839    4.7994   19.7314 C   0  0  2  0  0  0  0  0  0  0  0  0
   -5.4158    6.2900   12.8183 C   0  0  1  0  0  0  0  0  0  0  0  0
   -3.2433    6.3849   21.2307 N   0  0  0  0  0  0  0  0  0  0  0  0
   -3.7305    5.1204   21.1045 C   0  0  1  0  0  0  0  0  0  0  0  0
   -4.6768    5.7984   14.0305 C   0  0  2  0  0  0  0  0  0  0  0  0
   -2.9066    4.0859   21.3906 N   0  0  0  0  0  0  0  0  0  0  0  0
   -3.4064    5.3354   13.5693 O   0  0  0  0  0  0  0  0  0  0  0  0
   -5.5318    4.6701   14.5727 C   0  0  2  0  0  0  0  0  0  0  0  0
   -5.0107    4.8574   20.7062 N   0  0  0  0  0  0  0  0  0  0  0  0
   -4.7382    3.6010   15.0692 O   0  0  0  0  0  0  0  0  0  0  0  0
   -5.8752    5.8594   20.4059 C   0  0  2  0  0  0  0  0  0  0  0  0
   -6.3534    4.2009   13.3881 C   0  0  2  0  0  0  0  0  0  0  0  0
   -6.3732    5.2914   12.4685 O   0  0  0  0  0  0  0  0  0  0  0  0
   -5.3990    7.2481   20.5290 C   0  0  1  0  0  0  0  0  0  0  0  0
   -7.7826    3.8304   13.7685 C   0  0  0  0  0  0  0  0  0  0  0  0
   -8.4414    4.9857   14.2912 O   0  0  0  0  0  0  0  0  0  0  0  0
   -4.0078    7.4681   20.9628 C   0  0  0  0  0  0  0  0  0  0  0  0
   -3.5149    8.7257   21.0949 O   0  0  0  0  0  0  0  0  0  0  0  0
   -6.4212    8.0411   20.1894 N   0  0  0  0  0  0  0  0  0  0  0  0
   -7.4750    7.2329   19.8733 C   0  0  0  0  0  0  0  0  0  0  0  0
   -7.1544    5.9282   20.0020 N   0  0  1  0  0  0  0  0  0  0  0  0
   -4.6775   11.1983   14.4711 N   0  0  0  0  0  0  0  0  0  0  0  0
  -10.1771    6.4336   15.9285 O   0  5  0  0  0  0  0  0  0  0  0  0
   -3.7811   10.1846   14.3238 C   0  0  2  0  0  0  0  0  0  0  0  0
   -2.4750   10.4048   14.6261 N   0  0  0  0  0  0  0  0  0  0  0  0
  -11.0717    4.1966   14.3056 O   0  0  0  0  0  0  0  0  0  0  0  0
   -4.1519    8.9523   13.8808 N   0  0  0  0  0  0  0  0  0  0  0  0
   -5.4365    8.6741   13.5574 C   0  0  2  0  0  0  0  0  0  0  0  0
   -6.4508    9.7273   13.6983 C   0  0  2  0  0  0  0  0  0  0  0  0
   -5.9886   11.0430   14.1896 C   0  0  0  0  0  0  0  0  0  0  0  0
   -6.8525   12.0751   14.3543 O   0  0  0  0  0  0  0  0  0  0  0  0
   -7.6258    9.1830   13.3248 N   0  0  0  0  0  0  0  0  0  0  0  0
   -7.3812    7.8866   12.9691 C   0  0  0  0  0  0  0  0  0  0  0  0
   -6.0703    7.5873   13.1129 N   0  0  1  0  0  0  0  0  0  0  0  0
  1  3  1  1  0  0  0
  1  4  2  0  0  0  0
  1  6  1  0  0  0  0
  1 22  1  0  0  0  0
  2 28  1  0  0  0  0
  2 35  1  1  0  0  0
  2 38  2  0  0  0  0
  2 10  1  0  0  0  0
  5  6  1  0  0  0  0
  7  5  1  6  0  0  0
  7  8  1  0  0  0  0
  7  9  1  0  0  0  0
  9 10  1  6  0  0  0
  9 11  1  0  0  0  0
 11 12  1  1  0  0  0
 11 13  1  0  0  0  0
 13  8  1  6  0  0  0
 13 33  1  0  0  0  0
 14 46  1  0  0  0  0
 14 17  1  0  0  0  0
 14 25  1  1  0  0  0
 15 16  1  0  0  0  0
 15 29  1  0  0  0  0
 16 18  1  1  0  0  0
 16 21  1  0  0  0  0
 17 19  1  6  0  0  0
 17 20  1  0  0  0  0
 20 22  1  6  0  0  0
 20 24  1  0  0  0  0
 23 21  1  1  0  0  0
 23 26  1  0  0  0  0
 23 33  1  0  0  0  0
 24 25  1  6  0  0  0
 24 27  1  0  0  0  0
 26 29  1  6  0  0  0
 26 31  1  0  0  0  0
 27 28  1  0  0  0  0
 29 30  2  0  0  0  0
 31 32  1  0  0  0  0
 33 32  1  6  0  0  0
 34 36  1  0  0  0  0
 34 42  1  0  0  0  0
 36 37  1  6  0  0  0
 36 39  1  0  0  0  0
 40 39  1  1  0  0  0
 40 41  1  0  0  0  0
 40 46  1  0  0  0  0
 41 42  1  1  0  0  0
 41 44  1  0  0  0  0
 42 43  2  0  0  0  0
 44 45  1  0  0  0  0
 46 45  1  6  0  0  0
M  CHG  2   3  -1  35  -1
M  END
>  <CHROM.1>
-23.01449338,56.05187333,-6.18047540,6.00279117,16.52529136,1.45154870,0.79182721
2.14299563

>  <Name>
ligand

>  <RI>
-1

>  <Rbt.Current_Directory>
/home/itssahil/PROJECTS/Mol_Feturizer/Test_systems_manuscript/rnas/3mum

>  <Rbt.Executable>
rbdock ($Id: //depot/dev/client3/rdock/2013.1/src/exe/rbdock.cxx#4 $)

>  <Rbt.Library>
libRbt.so (2013.1, Build901 2013/11/27)

>  <Rbt.Parameter_File>
/export/apps/rDock/src/rDock_2013.1_src/data/scripts/dock_solv.prm

>  <Rbt.Receptor>
prm/pocket_docking_8.prm

>  <SCORE>
-12.559

>  <SCORE.INTER>
-12.2838

>  <SCORE.INTER.CONST>
1

>  <SCORE.INTER.POLAR>
0

>  <SCORE.INTER.ROT>
2

>  <SCORE.INTER.SOLV>
10.0112

>  <SCORE.INTER.VDW>
-16.4596

>  <SCORE.INTER.norm>
-0.267039

>  <SCORE.INTRA>
-0.275192

>  <SCORE.INTRA.DIHEDRAL>
-0.00713944

>  <SCORE.INTRA.DIHEDRAL.0>
2.40424

>  <SCORE.INTRA.POLAR>
0

>  <SCORE.INTRA.POLAR.0>
0

>  <SCORE.INTRA.REPUL>
0

>  <SCORE.INTRA.REPUL.0>
0

>  <SCORE.INTRA.SOLV>
0.0412616

>  <SCORE.INTRA.SOLV.lig_0>
-134.169

>  <SCORE.INTRA.VDW>
-0.292253

>  <SCORE.INTRA.VDW.0>
-2.18386

>  <SCORE.INTRA.norm>
-0.00598243

>  <SCORE.RESTR>
0

>  <SCORE.RESTR.CAVITY>
0

>  <SCORE.RESTR.norm>
0

>  <SCORE.SYSTEM>
0

>  <SCORE.SYSTEM.CONST>
0

>  <SCORE.SYSTEM.DIHEDRAL>
0

>  <SCORE.SYSTEM.SOLV>
0

>  <SCORE.SYSTEM.norm>
0

>  <SCORE.heavy>
46

>  <SCORE.norm>
-0.273022

>  <RMSD>
8.128

$$$$
ligand
 OpenBabel02271912143D
libRbt.so/2013.1/901 2013/11/27
 46 52  0  0  0  0  0  0  0  0999 V2000
   -4.0690    3.6492   16.5281 P   0  0  1  0  0  0  0  0  0  0  0  0
   -9.6999    4.8425   15.2850 P   0  0  2  0  0  0  0  0  0  0  0  0
   -3.1678    5.1522   16.7937 O   0  5  0  0  0  0  0  0  0  0  0  0
   -3.0509    2.2131   16.8116 O   0  0  0  0  0  0  0  0  0  0  0  0
   -6.3152    2.5949   17.4588 C   0  0  0  0  0  0  0  0  0  0  0  0
   -5.3406    3.6365   17.5191 O   0  0  0  0  0  0  0  0  0  0  0  0
   -7.5876    3.0840   18.1240 C   0  0  1  0  0  0  0  0  0  0  0  0
   -7.2831    3.5679   19.4397 O   0  0  0  0  0  0  0  0  0  0  0  0
   -8.2327    4.2538   17.3988 C   0  0  1  0  0  0  0  0  0  0  0  0
   -9.1847    3.8249   16.4278 O   0  0  0  0  0  0  0  0  0  0  0  0
   -8.8827    5.0406   18.5233 C   0  0  1  0  0  0  0  0  0  0  0  0
  -10.2079    4.5573   18.7577 O   0  0  0  0  0  0  0  0  0  0  0  0
   -8.0372    4.7504   19.7495 C   0  0  2  0  0  0  0  0  0  0  0  0
   -5.4058    6.3072   12.8369 C   0  0  1  0  0  0  0  0  0  0  0  0
   -3.2393    6.3208   21.3945 N   0  0  0  0  0  0  0  0  0  0  0  0
   -3.7369    5.0589   21.2830 C   0  0  1  0  0  0  0  0  0  0  0  0
   -4.6607    5.8027   14.0400 C   0  0  2  0  0  0  0  0  0  0  0  0
   -2.9376    4.0233   21.6286 N   0  0  0  0  0  0  0  0  0  0  0  0
   -3.3933    5.3431   13.5672 O   0  0  0  0  0  0  0  0  0  0  0  0
   -5.5138    4.6700   14.5756 C   0  0  2  0  0  0  0  0  0  0  0  0
   -5.0038    4.7998   20.8420 N   0  0  0  0  0  0  0  0  0  0  0  0
   -4.7187    3.5951   15.0570 O   0  0  0  0  0  0  0  0  0  0  0  0
   -5.8435    5.8031   20.4815 C   0  0  2  0  0  0  0  0  0  0  0  0
   -6.3425    4.2134   13.3910 C   0  0  2  0  0  0  0  0  0  0  0  0
   -6.3662    5.3131   12.4824 O   0  0  0  0  0  0  0  0  0  0  0  0
   -5.3552    7.1891   20.5862 C   0  0  1  0  0  0  0  0  0  0  0  0
   -7.7699    3.8406   13.7755 C   0  0  0  0  0  0  0  0  0  0  0  0
   -8.4246    4.9914   14.3134 O   0  0  0  0  0  0  0  0  0  0  0  0
   -3.9793    7.4050   21.0682 C   0  0  0  0  0  0  0  0  0  0  0  0
   -3.4764    8.6601   21.1860 O   0  0  0  0  0  0  0  0  0  0  0  0
   -6.3535    7.9842   20.1859 N   0  0  0  0  0  0  0  0  0  0  0  0
   -7.4042    7.1798   19.8504 C   0  0  0  0  0  0  0  0  0  0  0  0
   -7.1050    5.8755   20.0261 N   0  0  1  0  0  0  0  0  0  0  0  0
   -4.6224   11.2760   14.2741 N   0  0  0  0  0  0  0  0  0  0  0  0
  -10.1496    6.4246   15.9746 O   0  5  0  0  0  0  0  0  0  0  0  0
   -3.7227   10.2730   14.0804 C   0  0  2  0  0  0  0  0  0  0  0  0
   -2.3999   10.5238   14.2628 N   0  0  0  0  0  0  0  0  0  0  0  0
  -11.0556    4.2048   14.3345 O   0  0  0  0  0  0  0  0  0  0  0  0
   -4.1065    9.0216   13.7075 N   0  0  0  0  0  0  0  0  0  0  0  0
   -5.4086    8.7125   13.5041 C   0  0  2  0  0  0  0  0  0  0  0  0
   -6.4269    9.7528   13.7003 C   0  0  2  0  0  0  0  0  0  0  0  0
   -5.9495   11.0906   14.1109 C   0  0  0  0  0  0  0  0  0  0  0  0
   -6.8156   12.1130   14.3185 O   0  0  0  0  0  0  0  0  0  0  0  0
   -7.6189    9.1780   13.4453 N   0  0  0  0  0  0  0  0  0  0  0  0
   -7.3811    7.8753   13.1086 C   0  0  0  0  0  0  0  0  0  0  0  0
   -6.0572    7.6022   13.1480 N   0  0  1  0  0  0  0  0  0  0  0  0
  1  3  1  1  0  0  0
  1  4  2  0  0  0  0
  1  6  1  0  0  0  0
  1 22  1  0  0  0  0
  2 28  1  0  0  0  0
  2 35  1  1  0  0  0
  2 38  2  0  0  0  0
  2 10  1  0  0  0  0
  5  6  1  0  0  0  0
  7  5  1  6  0  0  0
  7  8  1  0  0  0  0
  7  9  1  0  0  0  0
  9 10  1  6  0  0  0
  9 11  1  0  0  0  0
 11 12  1  1  0  0  0
 11 13  1  0  0  0  0
 13  8  1  6  0  0  0
 13 33  1  0  0  0  0
 14 46  1  0  0  0  0
 14 17  1  0  0  0  0
 14 25  1  1  0  0  0
 15 16  1  0  0  0  0
 15 29  1  0  0  0  0
 16 18  1  1  0  0  0
 16 21  1  0  0  0  0
 17 19  1  6  0  0  0
 17 20  1  0  0  0  0
 20 22  1  6  0  0  0
 20 24  1  0  0  0  0
 23 21  1  1  0  0  0
 23 26  1  0  0  0  0
 23 33  1  0  0  0  0
 24 25  1  6  0  0  0
 24 27  1  0  0  0  0
 26 29  1  6  0  0  0
 26 31  1  0  0  0  0
 27 28  1  0  0  0  0
 29 30  2  0  0  0  0
 31 32  1  0  0  0  0
 33 32  1  6  0  0  0
 34 36  1  0  0  0  0
 34 42  1  0  0  0  0
 36 37  1  6  0  0  0
 36 39  1  0  0  0  0
 40 39  1  1  0  0  0
 40 41  1  0  0  0  0
 40 46  1  0  0  0  0
 41 42  1  1  0  0  0
 41 44  1  0  0  0  0
 42 43  2  0  0  0  0
 44 45  1  0  0  0  0
 46 45  1  6  0  0  0
M  CHG  2   3  -1  35  -1
M  END
>  <CHROM.1>
-26.38472249,61.30820125,-6.15262206,5.99281971,16.53341549,1.48395459,0.78822280
2.13838534

>  <Name>
ligand

>  <RI>
-1

>  <Rbt.Current_Directory>
/home/itssahil/PROJECTS/Mol_Feturizer/Test_systems_manuscript/rnas/3mum

>  <Rbt.Executable>
rbdock ($Id: //depot/dev/client3/rdock/2013.1/src/exe/rbdock.cxx#4 $)

>  <Rbt.Library>
libRbt.so (2013.1, Build901 2013/11/27)

>  <Rbt.Parameter_File>
/export/apps/rDock/src/rDock_2013.1_src/data/scripts/dock_solv.prm

>  <Rbt.Receptor>
prm/pocket_docking_8.prm

>  <SCORE>
-12.5883

>  <SCORE.INTER>
-12.4333

>  <SCORE.INTER.CONST>
1

>  <SCORE.INTER.POLAR>
0

>  <SCORE.INTER.ROT>
2

>  <SCORE.INTER.SOLV>
10.3147

>  <SCORE.INTER.VDW>
-16.6604

>  <SCORE.INTER.norm>
-0.270288

>  <SCORE.INTRA>
-0.154997

>  <SCORE.INTRA.DIHEDRAL>
0.000565648

>  <SCORE.INTRA.DIHEDRAL.0>
2.40424

>  <SCORE.INTRA.POLAR>
0

>  <SCORE.INTRA.POLAR.0>
0

>  <SCORE.INTRA.REPUL>
0

>  <SCORE.INTRA.REPUL.0>
0

>  <SCORE.INTRA.SOLV>
0.0359247

>  <SCORE.INTRA.SOLV.lig_0>
-134.169

>  <SCORE.INTRA.VDW>
-0.173243

>  <SCORE.INTRA.VDW.0>
-2.18386

>  <SCORE.INTRA.norm>
-0.00336951

>  <SCORE.RESTR>
0

>  <SCORE.RESTR.CAVITY>
0

>  <SCORE.RESTR.norm>
0

>  <SCORE.SYSTEM>
0

>  <SCORE.SYSTEM.CONST>
0

>  <SCORE.SYSTEM.DIHEDRAL>
0

>  <SCORE.SYSTEM.SOLV>
0

>  <SCORE.SYSTEM.norm>
0

>  <SCORE.heavy>
46

>  <SCORE.norm>
-0.273658

>  <RMSD>
8.134

$$$$
ligand
 OpenBabel02271912143D
libRbt.so/2013.1/901 2013/11/27
 46 52  0  0  0  0  0  0  0  0999 V2000
   -6.7418    3.0132   19.2933 P   0  0  1  0  0  0  0  0  0  0  0  0
   -0.8659    2.8590   18.9389 P   0  0  2  0  0  0  0  0  0  0  0  0
   -7.3797    4.3523   18.3228 O   0  5  0  0  0  0  0  0  0  0  0  0
   -8.0514    2.0388   20.0107 O   0  0  0  0  0  0  0  0  0  0  0  0
   -5.0785    0.9927   18.8759 C   0  0  0  0  0  0  0  0  0  0  0  0
   -5.8167    2.0937   18.3456 O   0  0  0  0  0  0  0  0  0  0  0  0
   -3.9683    0.6417   17.9037 C   0  0  1  0  0  0  0  0  0  0  0  0
   -4.5243    0.4388   16.5969 O   0  0  0  0  0  0  0  0  0  0  0  0
   -2.9399    1.7491   17.7415 C   0  0  1  0  0  0  0  0  0  0  0  0
   -1.8574    1.6158   18.6600 O   0  0  0  0  0  0  0  0  0  0  0  0
   -2.4861    1.5901   16.3011 C   0  0  1  0  0  0  0  0  0  0  0  0
   -1.3923    0.6719   16.2300 O   0  0  0  0  0  0  0  0  0  0  0  0
   -3.6743    0.9854   15.5764 C   0  0  2  0  0  0  0  0  0  0  0  0
   -3.9667    6.6301   20.5948 C   0  0  1  0  0  0  0  0  0  0  0  0
   -7.2666    2.1317   11.8383 N   0  0  0  0  0  0  0  0  0  0  0  0
   -6.8347    0.9147   12.2679 C   0  0  1  0  0  0  0  0  0  0  0  0
   -5.0945    5.8355   19.9998 C   0  0  2  0  0  0  0  0  0  0  0  0
   -7.3623   -0.1907   11.6931 N   0  0  0  0  0  0  0  0  0  0  0  0
   -6.2470    6.1087   20.7986 O   0  0  0  0  0  0  0  0  0  0  0  0
   -4.6512    4.3905   20.1145 C   0  0  2  0  0  0  0  0  0  0  0  0
   -5.8938    0.7673   13.2475 N   0  0  0  0  0  0  0  0  0  0  0  0
   -5.7364    3.5317   20.4375 O   0  0  0  0  0  0  0  0  0  0  0  0
   -5.3358    1.8441   13.8564 C   0  0  2  0  0  0  0  0  0  0  0  0
   -3.6318    4.3842   21.2366 C   0  0  2  0  0  0  0  0  0  0  0  0
   -3.1522    5.7240   21.3377 O   0  0  0  0  0  0  0  0  0  0  0  0
   -5.7662    3.1859   13.4264 C   0  0  1  0  0  0  0  0  0  0  0  0
   -2.4618    3.4442   20.9682 C   0  0  0  0  0  0  0  0  0  0  0  0
   -1.7740    3.8781   19.7931 O   0  0  0  0  0  0  0  0  0  0  0  0
   -6.7848    3.2804   12.3654 C   0  0  0  0  0  0  0  0  0  0  0  0
   -7.2185    4.4900   11.9285 O   0  0  0  0  0  0  0  0  0  0  0  0
   -5.0783    4.0682   14.1594 N   0  0  0  0  0  0  0  0  0  0  0  0
   -4.2668    3.3570   14.9955 C   0  0  0  0  0  0  0  0  0  0  0  0
   -4.4160    2.0274   14.8179 N   0  0  1  0  0  0  0  0  0  0  0  0
   -3.9642   10.4881   17.0615 N   0  0  0  0  0  0  0  0  0  0  0  0
   -0.3312    3.6213   17.4178 O   0  5  0  0  0  0  0  0  0  0  0  0
   -4.9284   10.1204   17.9492 C   0  0  2  0  0  0  0  0  0  0  0  0
   -6.0945   10.8166   17.9883 N   0  0  0  0  0  0  0  0  0  0  0  0
    0.5522    2.4233   19.9123 O   0  0  0  0  0  0  0  0  0  0  0  0
   -4.7617    9.0739   18.8032 N   0  0  0  0  0  0  0  0  0  0  0  0
   -3.6201    8.3468   18.8162 C   0  0  2  0  0  0  0  0  0  0  0  0
   -2.5436    8.6938   17.8789 C   0  0  2  0  0  0  0  0  0  0  0  0
   -2.7854    9.8363   16.9721 C   0  0  0  0  0  0  0  0  0  0  0  0
   -1.8512   10.2288   16.0711 O   0  0  0  0  0  0  0  0  0  0  0  0
   -1.5452    7.8150   18.0963 N   0  0  0  0  0  0  0  0  0  0  0  0
   -1.9496    6.9760   19.0961 C   0  0  0  0  0  0  0  0  0  0  0  0
   -3.1926    7.2975   19.5208 N   0  0  1  0  0  0  0  0  0  0  0  0
  1  3  1  6  0  0  0
  1  4  2  0  0  0  0
  1  6  1  0  0  0  0
  1 22  1  0  0  0  0
  2 28  1  0  0  0  0
  2 35  1  6  0  0  0
  2 38  2  0  0  0  0
  2 10  1  0  0  0  0
  5  6  1  0  0  0  0
  7  5  1  1  0  0  0
  7  8  1  0  0  0  0
  7  9  1  0  0  0  0
  9 10  1  1  0  0  0
  9 11  1  0  0  0  0
 11 12  1  1  0  0  0
 11 13  1  0  0  0  0
 13  8  1  1  0  0  0
 13 33  1  0  0  0  0
 14 46  1  0  0  0  0
 14 17  1  0  0  0  0
 14 25  1  6  0  0  0
 15 16  1  0  0  0  0
 15 29  1  0  0  0  0
 16 18  1  6  0  0  0
 16 21  1  0  0  0  0
 17 19  1  1  0  0  0
 17 20  1  0  0  0  0
 20 22  1  1  0  0  0
 20 24  1  0  0  0  0
 23 21  1  6  0  0  0
 23 26  1  0  0  0  0
 23 33  1  0  0  0  0
 24 25  1  6  0  0  0
 24 27  1  0  0  0  0
 26 29  1  1  0  0  0
 26 31  1  0  0  0  0
 27 28  1  0  0  0  0
 29 30  2  0  0  0  0
 31 32  1  0  0  0  0
 33 32  1  1  0  0  0
 34 36  1  0  0  0  0
 34 42  1  0  0  0  0
 36 37  1  1  0  0  0
 36 39  1  0  0  0  0
 40 39  1  6  0  0  0
 40 41  1  0  0  0  0
 40 46  1  0  0  0  0
 41 42  1  6  0  0  0
 41 44  1  0  0  0  0
 42 43  2  0  0  0  0
 44 45  1  0  0  0  0
 46 45  1  1  0  0  0
M  CHG  2   3  -1  35  -1
M  END
>  <CHROM.1>
-78.19237011,72.74390961,-4.19632597,4.19348857,17.51101822,-2.15079392,-1.03583798
0.14899960

>  <Name>
ligand

>  <RI>
-1

>  <Rbt.Current_Directory>
/home/itssahil/PROJECTS/Mol_Feturizer/Test_systems_manuscript/rnas/3mum

>  <Rbt.Executable>
rbdock ($Id: //depot/dev/client3/rdock/2013.1/src/exe/rbdock.cxx#4 $)

>  <Rbt.Library>
libRbt.so (2013.1, Build901 2013/11/27)

>  <Rbt.Parameter_File>
/export/apps/rDock/src/rDock_2013.1_src/data/scripts/dock_solv.prm

>  <Rbt.Receptor>
prm/pocket_docking_8.prm

>  <SCORE>
-14.1688

>  <SCORE.INTER>
-14.5248

>  <SCORE.INTER.CONST>
1

>  <SCORE.INTER.POLAR>
0

>  <SCORE.INTER.ROT>
2

>  <SCORE.INTER.SOLV>
14.1905

>  <SCORE.INTER.VDW>
-19.3467

>  <SCORE.INTER.norm>
-0.315757

>  <SCORE.INTRA>
0.355978

>  <SCORE.INTRA.DIHEDRAL>
0.00936761

>  <SCORE.INTRA.DIHEDRAL.0>
2.40424

>  <SCORE.INTRA.POLAR>
0

>  <SCORE.INTRA.POLAR.0>
0

>  <SCORE.INTRA.REPUL>
0

>  <SCORE.INTRA.REPUL.0>
0

>  <SCORE.INTRA.SOLV>
0.0120681

>  <SCORE.INTRA.SOLV.lig_0>
-134.169

>  <SCORE.INTRA.VDW>
0.34526

>  <SCORE.INTRA.VDW.0>
-2.18386

>  <SCORE.INTRA.norm>
0.00773865

>  <SCORE.RESTR>
0

>  <SCORE.RESTR.CAVITY>
0

>  <SCORE.RESTR.norm>
0

>  <SCORE.SYSTEM>
0

>  <SCORE.SYSTEM.CONST>
0

>  <SCORE.SYSTEM.DIHEDRAL>
0

>  <SCORE.SYSTEM.SOLV>
0

>  <SCORE.SYSTEM.norm>
0

>  <SCORE.heavy>
46

>  <SCORE.norm>
-0.308018

>  <RMSD>
8.137

$$$$
ligand
 OpenBabel02271912143D
libRbt.so/2013.1/901 2013/11/27
 46 52  0  0  0  0  0  0  0  0999 V2000
   -2.0473    3.7174   18.1032 P   0  0  1  0  0  0  0  0  0  0  0  0
   -7.9279    3.7976   18.4007 P   0  0  2  0  0  0  0  0  0  0  0  0
   -1.5013    4.4168   16.5688 O   0  5  0  0  0  0  0  0  0  0  0  0
   -0.6737    3.2874   19.1556 O   0  0  0  0  0  0  0  0  0  0  0  0
   -3.6786    4.4639   20.0538 C   0  0  0  0  0  0  0  0  0  0  0  0
   -3.0010    4.7885   18.8397 O   0  0  0  0  0  0  0  0  0  0  0  0
   -4.8332    5.4305   20.2366 C   0  0  1  0  0  0  0  0  0  0  0  0
   -4.3481    6.7773   20.1425 O   0  0  0  0  0  0  0  0  0  0  0  0
   -5.8978    5.3046   19.1590 C   0  0  1  0  0  0  0  0  0  0  0  0
   -6.9219    4.3808   19.5208 O   0  0  0  0  0  0  0  0  0  0  0  0
   -6.4293    6.7215   19.0321 C   0  0  1  0  0  0  0  0  0  0  0  0
   -7.5010    6.9278   19.9558 O   0  0  0  0  0  0  0  0  0  0  0  0
   -5.2694    7.6161   19.4280 C   0  0  2  0  0  0  0  0  0  0  0  0
   -4.8365    1.5479   14.9424 C   0  0  1  0  0  0  0  0  0  0  0  0
   -5.4087   11.0671   15.3952 N   0  0  0  0  0  0  0  0  0  0  0  0
   -6.3287   10.8568   16.3759 C   0  0  1  0  0  0  0  0  0  0  0  0
   -3.7244    2.3526   15.5531 C   0  0  2  0  0  0  0  0  0  0  0  0
   -7.4559   11.6051   16.3666 N   0  0  0  0  0  0  0  0  0  0  0  0
   -2.5354    1.5737   15.4089 O   0  0  0  0  0  0  0  0  0  0  0  0
   -4.1225    2.5208   17.0060 C   0  0  2  0  0  0  0  0  0  0  0  0
   -6.1606    9.9240   17.3599 N   0  0  0  0  0  0  0  0  0  0  0  0
   -2.9985    2.4404   17.8718 O   0  0  0  0  0  0  0  0  0  0  0  0
   -5.0473    9.1499   17.4144 C   0  0  2  0  0  0  0  0  0  0  0  0
   -5.0753    1.3747   17.2836 C   0  0  2  0  0  0  0  0  0  0  0  0
   -5.5830    0.9710   16.0130 O   0  0  0  0  0  0  0  0  0  0  0  0
   -4.0207    9.3352   16.3742 C   0  0  1  0  0  0  0  0  0  0  0  0
   -6.2339    1.7744   18.1905 C   0  0  0  0  0  0  0  0  0  0  0  0
   -6.9991    2.7961   17.5480 O   0  0  0  0  0  0  0  0  0  0  0  0
   -4.2587   10.3573   15.3394 C   0  0  0  0  0  0  0  0  0  0  0  0
   -3.3483   10.5711   14.3558 O   0  0  0  0  0  0  0  0  0  0  0  0
   -3.0391    8.4656   16.6375 N   0  0  0  0  0  0  0  0  0  0  0  0
   -3.4001    7.7718   17.7563 C   0  0  0  0  0  0  0  0  0  0  0  0
   -4.5999    8.1761   18.2241 N   0  0  1  0  0  0  0  0  0  0  0  0
   -5.3307    6.2858   12.7800 N   0  0  0  0  0  0  0  0  0  0  0  0
   -8.5688    5.0961   17.3596 O   0  5  0  0  0  0  0  0  0  0  0  0
   -4.3455    5.7911   13.5785 C   0  0  2  0  0  0  0  0  0  0  0  0
   -3.2930    6.5864   13.9037 N   0  0  0  0  0  0  0  0  0  0  0  0
   -9.2758    2.8665   19.0820 O   0  0  0  0  0  0  0  0  0  0  0  0
   -4.3800    4.5199   14.0635 N   0  0  0  0  0  0  0  0  0  0  0  0
   -5.3984    3.6783   13.7692 C   0  0  2  0  0  0  0  0  0  0  0  0
   -6.4930    4.1559   12.9140 C   0  0  2  0  0  0  0  0  0  0  0  0
   -6.4027    5.5475   12.4225 C   0  0  0  0  0  0  0  0  0  0  0  0
   -7.3669    6.0771   11.6298 O   0  0  0  0  0  0  0  0  0  0  0  0
   -7.3632    3.1337   12.7951 N   0  0  0  0  0  0  0  0  0  0  0  0
   -6.8624    2.0847   13.5134 C   0  0  0  0  0  0  0  0  0  0  0  0
   -5.6882    2.4174   14.0959 N   0  0  1  0  0  0  0  0  0  0  0  0
  1  3  1  6  0  0  0
  1  4  2  0  0  0  0
  1  6  1  0  0  0  0
  1 22  1  0  0  0  0
  2 28  1  0  0  0  0
  2 35  1  6  0  0  0
  2 38  2  0  0  0  0
  2 10  1  0  0  0  0
  5  6  1  0  0  0  0
  7  5  1  6  0  0  0
  7  8  1  0  0  0  0
  7  9  1  0  0  0  0
  9 10  1  1  0  0  0
  9 11  1  0  0  0  0
 11 12  1  1  0  0  0
 11 13  1  0  0  0  0
 13  8  1  6  0  0  0
 13 33  1  0  0  0  0
 14 46  1  0  0  0  0
 14 17  1  0  0  0  0
 14 25  1  1  0  0  0
 15 16  1  0  0  0  0
 15 29  1  0  0  0  0
 16 18  1  6  0  0  0
 16 21  1  0  0  0  0
 17 19  1  1  0  0  0
 17 20  1  0  0  0  0
 20 22  1  1  0  0  0
 20 24  1  0  0  0  0
 23 21  1  6  0  0  0
 23 26  1  0  0  0  0
 23 33  1  0  0  0  0
 24 25  1  6  0  0  0
 24 27  1  0  0  0  0
 26 29  1  1  0  0  0
 26 31  1  0  0  0  0
 27 28  1  0  0  0  0
 29 30  2  0  0  0  0
 31 32  1  0  0  0  0
 33 32  1  1  0  0  0
 34 36  1  0  0  0  0
 34 42  1  0  0  0  0
 36 37  1  6  0  0  0
 36 39  1  0  0  0  0
 40 39  1  1  0  0  0
 40 41  1  0  0  0  0
 40 46  1  0  0  0  0
 41 42  1  1  0  0  0
 41 44  1  0  0  0  0
 42 43  2  0  0  0  0
 44 45  1  0  0  0  0
 46 45  1  6  0  0  0
M  CHG  2   3  -1  35  -1
M  END
>  <CHROM.1>
-169.21082373,9.02942302,-5.11679918,5.29570848,16.71492007,-1.35798797,-1.40836417
0.17070453

>  <Name>
ligand

>  <RI>
-1

>  <Rbt.Current_Directory>
/home/itssahil/PROJECTS/Mol_Feturizer/Test_systems_manuscript/rnas/3mum

>  <Rbt.Executable>
rbdock ($Id: //depot/dev/client3/rdock/2013.1/src/exe/rbdock.cxx#4 $)

>  <Rbt.Library>
libRbt.so (2013.1, Build901 2013/11/27)

>  <Rbt.Parameter_File>
/export/apps/rDock/src/rDock_2013.1_src/data/scripts/dock_solv.prm

>  <Rbt.Receptor>
prm/pocket_docking_8.prm

>  <SCORE>
-10.5521

>  <SCORE.INTER>
-12.1995

>  <SCORE.INTER.CONST>
1

>  <SCORE.INTER.POLAR>
0

>  <SCORE.INTER.ROT>
2

>  <SCORE.INTER.SOLV>
10.4625

>  <SCORE.INTER.VDW>
-16.5538

>  <SCORE.INTER.norm>
-0.265206

>  <SCORE.INTRA>
1.64738

>  <SCORE.INTRA.DIHEDRAL>
-0.0143022

>  <SCORE.INTRA.DIHEDRAL.0>
2.40424

>  <SCORE.INTRA.POLAR>
0

>  <SCORE.INTRA.POLAR.0>
0

>  <SCORE.INTRA.REPUL>
0

>  <SCORE.INTRA.REPUL.0>
0

>  <SCORE.INTRA.SOLV>
2.2815

>  <SCORE.INTRA.SOLV.lig_0>
-134.169

>  <SCORE.INTRA.VDW>
0.513785

>  <SCORE.INTRA.VDW.0>
-2.18386

>  <SCORE.INTRA.norm>
0.0358127

>  <SCORE.RESTR>
0

>  <SCORE.RESTR.CAVITY>
0

>  <SCORE.RESTR.norm>
0

>  <SCORE.SYSTEM>
0

>  <SCORE.SYSTEM.CONST>
0

>  <SCORE.SYSTEM.DIHEDRAL>
0

>  <SCORE.SYSTEM.SOLV>
0

>  <SCORE.SYSTEM.norm>
0

>  <SCORE.heavy>
46

>  <SCORE.norm>
-0.229393

>  <RMSD>
8.186

$$$$
ligand
 OpenBabel02271912143D
libRbt.so/2013.1/901 2013/11/27
 46 52  0  0  0  0  0  0  0  0999 V2000
   -5.9374    3.1570   17.5807 P   0  0  1  0  0  0  0  0  0  0  0  0
   -9.5500    7.7945   17.9262 P   0  0  2  0  0  0  0  0  0  0  0  0
   -4.6977    3.4361   16.3450 O   0  5  0  0  0  0  0  0  0  0  0  0
   -5.6805    1.6119   18.4328 O   0  0  0  0  0  0  0  0  0  0  0  0
   -6.8586    4.4898   19.6780 C   0  0  0  0  0  0  0  0  0  0  0  0
   -5.8993    4.3840   18.6259 O   0  0  0  0  0  0  0  0  0  0  0  0
   -6.8846    5.9257   20.1662 C   0  0  1  0  0  0  0  0  0  0  0  0
   -5.5530    6.3401   20.5022 O   0  0  0  0  0  0  0  0  0  0  0  0
   -7.3636    6.9098   19.1114 C   0  0  1  0  0  0  0  0  0  0  0  0
   -8.7739    7.1129   19.1671 O   0  0  0  0  0  0  0  0  0  0  0  0
   -6.5934    8.1752   19.4452 C   0  0  1  0  0  0  0  0  0  0  0  0
   -7.3233    8.9578   20.3935 O   0  0  0  0  0  0  0  0  0  0  0  0
   -5.3098    7.6966   20.0977 C   0  0  2  0  0  0  0  0  0  0  0  0
   -8.4904    4.7381   13.9120 C   0  0  1  0  0  0  0  0  0  0  0  0
   -1.0706    5.2529   18.0360 N   0  0  0  0  0  0  0  0  0  0  0  0
   -1.9180    4.8236   19.0107 C   0  0  1  0  0  0  0  0  0  0  0  0
   -7.3568    4.2024   14.7398 C   0  0  2  0  0  0  0  0  0  0  0  0
   -1.6917    3.6108   19.5664 N   0  0  0  0  0  0  0  0  0  0  0  0
   -7.1783    2.8402   14.3477 O   0  0  0  0  0  0  0  0  0  0  0  0
   -7.8342    4.3246   16.1733 C   0  0  2  0  0  0  0  0  0  0  0  0
   -2.9784    5.5657   19.4484 N   0  0  0  0  0  0  0  0  0  0  0  0
   -7.4212    3.2165   16.9613 O   0  0  0  0  0  0  0  0  0  0  0  0
   -3.2490    6.7868   18.9220 C   0  0  2  0  0  0  0  0  0  0  0  0
   -9.3468    4.3596   16.0780 C   0  0  2  0  0  0  0  0  0  0  0  0
   -9.6459    4.7810   14.7482 O   0  0  0  0  0  0  0  0  0  0  0  0
   -2.3602    7.3004   17.8653 C   0  0  1  0  0  0  0  0  0  0  0  0
   -9.9805    5.3261   17.0724 C   0  0  0  0  0  0  0  0  0  0  0  0
   -9.5224    6.6506   16.7933 O   0  0  0  0  0  0  0  0  0  0  0  0
   -1.2334    6.4536   17.4349 C   0  0  0  0  0  0  0  0  0  0  0  0
   -0.3814    6.8755   16.4663 O   0  0  0  0  0  0  0  0  0  0  0  0
   -2.8243    8.5061   17.5190 N   0  0  0  0  0  0  0  0  0  0  0  0
   -3.9235    8.7551   18.2893 C   0  0  0  0  0  0  0  0  0  0  0  0
   -4.1811    7.7313   19.1301 N   0  0  1  0  0  0  0  0  0  0  0  0
  -10.4021    9.2459   12.0699 N   0  0  0  0  0  0  0  0  0  0  0  0
   -8.7089    9.2604   17.3564 O   0  5  0  0  0  0  0  0  0  0  0  0
  -11.0562    8.1225   12.4738 C   0  0  2  0  0  0  0  0  0  0  0  0
  -12.4137    8.0921   12.4267 N   0  0  0  0  0  0  0  0  0  0  0  0
  -11.2430    8.1857   18.2846 O   0  0  0  0  0  0  0  0  0  0  0  0
  -10.3920    7.0241   12.9261 N   0  0  0  0  0  0  0  0  0  0  0  0
   -9.0408    6.9965   13.0025 C   0  0  2  0  0  0  0  0  0  0  0  0
   -8.2789    8.1784   12.5779 C   0  0  2  0  0  0  0  0  0  0  0  0
   -9.0555    9.3384   12.0907 C   0  0  0  0  0  0  0  0  0  0  0  0
   -8.4393   10.4725   11.6750 O   0  0  0  0  0  0  0  0  0  0  0  0
   -6.9760    7.8776   12.7461 N   0  0  0  0  0  0  0  0  0  0  0  0
   -6.9105    6.6064   13.2429 C   0  0  0  0  0  0  0  0  0  0  0  0
   -8.1488    6.0836   13.3917 N   0  0  1  0  0  0  0  0  0  0  0  0
  1  3  1  6  0  0  0
  1  4  2  0  0  0  0
  1  6  1  0  0  0  0
  1 22  1  0  0  0  0
  2 28  1  0  0  0  0
  2 35  1  6  0  0  0
  2 38  2  0  0  0  0
  2 10  1  0  0  0  0
  5  6  1  0  0  0  0
  7  5  1  6  0  0  0
  7  8  1  0  0  0  0
  7  9  1  0  0  0  0
  9 10  1  1  0  0  0
  9 11  1  0  0  0  0
 11 12  1  1  0  0  0
 11 13  1  0  0  0  0
 13  8  1  6  0  0  0
 13 33  1  0  0  0  0
 14 46  1  0  0  0  0
 14 17  1  0  0  0  0
 14 25  1  1  0  0  0
 15 16  1  0  0  0  0
 15 29  1  0  0  0  0
 16 18  1  1  0  0  0
 16 21  1  0  0  0  0
 17 19  1  6  0  0  0
 17 20  1  0  0  0  0
 20 22  1  1  0  0  0
 20 24  1  0  0  0  0
 23 21  1  1  0  0  0
 23 26  1  0  0  0  0
 23 33  1  0  0  0  0
 24 25  1  6  0  0  0
 24 27  1  0  0  0  0
 26 29  1  6  0  0  0
 26 31  1  0  0  0  0
 27 28  1  0  0  0  0
 29 30  2  0  0  0  0
 31 32  1  0  0  0  0
 33 32  1  6  0  0  0
 34 36  1  0  0  0  0
 34 42  1  0  0  0  0
 36 37  1  1  0  0  0
 36 39  1  0  0  0  0
 40 39  1  6  0  0  0
 40 41  1  0  0  0  0
 40 46  1  0  0  0  0
 41 42  1  6  0  0  0
 41 44  1  0  0  0  0
 42 43  2  0  0  0  0
 44 45  1  0  0  0  0
 46 45  1  1  0  0  0
M  CHG  2   3  -1  35  -1
M  END
>  <CHROM.1>
-18.64376439,-157.54430677,-6.83192916,6.30012594,16.71641266,-0.55412349
0.47564896,-1.82709897

>  <Name>
ligand

>  <RI>
-1

>  <Rbt.Current_Directory>
/home/itssahil/PROJECTS/Mol_Feturizer/Test_systems_manuscript/rnas/3mum

>  <Rbt.Executable>
rbdock ($Id: //depot/dev/client3/rdock/2013.1/src/exe/rbdock.cxx#4 $)

>  <Rbt.Library>
libRbt.so (2013.1, Build901 2013/11/27)

>  <Rbt.Parameter_File>
/export/apps/rDock/src/rDock_2013.1_src/data/scripts/dock_solv.prm

>  <Rbt.Receptor>
prm/pocket_docking_8.prm

>  <SCORE>
-9.31182

>  <SCORE.INTER>
-9.23915

>  <SCORE.INTER.CONST>
1

>  <SCORE.INTER.POLAR>
0

>  <SCORE.INTER.ROT>
2

>  <SCORE.INTER.SOLV>
13.5669

>  <SCORE.INTER.VDW>
-15.6151

>  <SCORE.INTER.norm>
-0.200851

>  <SCORE.INTRA>
-0.0726709

>  <SCORE.INTRA.DIHEDRAL>
0.0239579

>  <SCORE.INTRA.DIHEDRAL.0>
2.40424

>  <SCORE.INTRA.POLAR>
0

>  <SCORE.INTRA.POLAR.0>
0

>  <SCORE.INTRA.REPUL>
0

>  <SCORE.INTRA.REPUL.0>
0

>  <SCORE.INTRA.SOLV>
0.201317

>  <SCORE.INTRA.SOLV.lig_0>
-134.169

>  <SCORE.INTRA.VDW>
-0.185309

>  <SCORE.INTRA.VDW.0>
-2.18386

>  <SCORE.INTRA.norm>
-0.0015798

>  <SCORE.RESTR>
0

>  <SCORE.RESTR.CAVITY>
0

>  <SCORE.RESTR.norm>
0

>  <SCORE.SYSTEM>
0

>  <SCORE.SYSTEM.CONST>
0

>  <SCORE.SYSTEM.DIHEDRAL>
0

>  <SCORE.SYSTEM.SOLV>
0

>  <SCORE.SYSTEM.norm>
0

>  <SCORE.heavy>
46

>  <SCORE.norm>
-0.202431

>  <RMSD>
8.186

$$$$
ligand
 OpenBabel02271912143D
libRbt.so/2013.1/901 2013/11/27
 46 52  0  0  0  0  0  0  0  0999 V2000
   -6.8597    3.5308   13.2619 P   0  0  1  0  0  0  0  0  0  0  0  0
   -5.2440    5.0256   18.7237 P   0  0  2  0  0  0  0  0  0  0  0  0
   -7.3653    4.9685   12.3568 O   0  5  0  0  0  0  0  0  0  0  0  0
   -6.8841    2.0689   12.2413 O   0  0  0  0  0  0  0  0  0  0  0  0
   -4.7416    2.8412   14.6976 C   0  0  0  0  0  0  0  0  0  0  0  0
   -5.3748    3.7866   13.8353 O   0  0  0  0  0  0  0  0  0  0  0  0
   -3.6200    3.5407   15.4417 C   0  0  1  0  0  0  0  0  0  0  0  0
   -2.7555    4.1918   14.5001 O   0  0  0  0  0  0  0  0  0  0  0  0
   -4.1099    4.6386   16.3718 C   0  0  1  0  0  0  0  0  0  0  0  0
   -4.3639    4.1536   17.6884 O   0  0  0  0  0  0  0  0  0  0  0  0
   -2.9731    5.6450   16.3462 C   0  0  1  0  0  0  0  0  0  0  0  0
   -2.0130    5.3262   17.3566 O   0  0  0  0  0  0  0  0  0  0  0  0
   -2.3216    5.4715   14.9868 C   0  0  2  0  0  0  0  0  0  0  0  0
   -9.7573    5.6988   16.3246 C   0  0  1  0  0  0  0  0  0  0  0  0
   -4.3496   10.3346   14.3311 N   0  0  0  0  0  0  0  0  0  0  0  0
   -4.0731    9.6694   15.4858 C   0  0  1  0  0  0  0  0  0  0  0  0
   -9.0356    5.3201   15.0626 C   0  0  2  0  0  0  0  0  0  0  0  0
   -4.3346   10.2897   16.6596 N   0  0  0  0  0  0  0  0  0  0  0  0
   -9.9980    4.6797   14.2231 O   0  0  0  0  0  0  0  0  0  0  0  0
   -7.9469    4.3658   15.5119 C   0  0  2  0  0  0  0  0  0  0  0  0
   -3.5486    8.4080   15.5054 N   0  0  0  0  0  0  0  0  0  0  0  0
   -7.7556    3.3101   14.5801 O   0  0  0  0  0  0  0  0  0  0  0  0
   -3.2668    7.7441   14.3558 C   0  0  2  0  0  0  0  0  0  0  0  0
   -8.4385    3.8094   16.8338 C   0  0  2  0  0  0  0  0  0  0  0  0
   -9.3873    4.7535   17.3275 O   0  0  0  0  0  0  0  0  0  0  0  0
   -3.5503    8.4181   13.0769 C   0  0  1  0  0  0  0  0  0  0  0  0
   -7.3197    3.6317   17.8541 C   0  0  0  0  0  0  0  0  0  0  0  0
   -6.7389    4.9063   18.1374 O   0  0  0  0  0  0  0  0  0  0  0  0
   -4.1154    9.7786   13.1204 C   0  0  0  0  0  0  0  0  0  0  0  0
   -4.3976   10.4477   11.9738 O   0  0  0  0  0  0  0  0  0  0  0  0
   -3.1981    7.5703   12.1042 N   0  0  0  0  0  0  0  0  0  0  0  0
   -2.7262    6.4380   12.7032 C   0  0  0  0  0  0  0  0  0  0  0  0
   -2.7661    6.5362   14.0487 N   0  0  1  0  0  0  0  0  0  0  0  0
   -9.1715   10.6313   14.6827 N   0  0  0  0  0  0  0  0  0  0  0  0
   -4.7175    6.7293   18.7540 O   0  5  0  0  0  0  0  0  0  0  0  0
   -9.5323    9.5185   13.9867 C   0  0  2  0  0  0  0  0  0  0  0  0
   -9.8036    9.6249   12.6597 N   0  0  0  0  0  0  0  0  0  0  0  0
   -5.2373    4.3751   20.3744 O   0  0  0  0  0  0  0  0  0  0  0  0
   -9.6313    8.2973   14.5794 N   0  0  0  0  0  0  0  0  0  0  0  0
   -9.3802    8.1293   15.8988 C   0  0  2  0  0  0  0  0  0  0  0  0
   -8.9835    9.2931   16.7025 C   0  0  2  0  0  0  0  0  0  0  0  0
   -8.8875   10.5916   16.0018 C   0  0  0  0  0  0  0  0  0  0  0  0
   -8.5262   11.7206   16.6600 O   0  0  0  0  0  0  0  0  0  0  0  0
   -8.7878    8.8454   17.9585 N   0  0  0  0  0  0  0  0  0  0  0  0
   -9.0433    7.5031   17.9585 C   0  0  0  0  0  0  0  0  0  0  0  0
   -9.3947    7.0801   16.7230 N   0  0  1  0  0  0  0  0  0  0  0  0
  1  3  1  6  0  0  0
  1  4  2  0  0  0  0
  1  6  1  0  0  0  0
  1 22  1  0  0  0  0
  2 28  1  0  0  0  0
  2 35  1  6  0  0  0
  2 38  2  0  0  0  0
  2 10  1  0  0  0  0
  5  6  1  0  0  0  0
  7  5  1  6  0  0  0
  7  8  1  0  0  0  0
  7  9  1  0  0  0  0
  9 10  1  1  0  0  0
  9 11  1  0  0  0  0
 11 12  1  1  0  0  0
 11 13  1  0  0  0  0
 13  8  1  6  0  0  0
 13 33  1  0  0  0  0
 14 46  1  0  0  0  0
 14 17  1  0  0  0  0
 14 25  1  1  0  0  0
 15 16  1  0  0  0  0
 15 29  1  0  0  0  0
 16 18  1  6  0  0  0
 16 21  1  0  0  0  0
 17 19  1  6  0  0  0
 17 20  1  0  0  0  0
 20 22  1  6  0  0  0
 20 24  1  0  0  0  0
 23 21  1  1  0  0  0
 23 26  1  0  0  0  0
 23 33  1  0  0  0  0
 24 25  1  1  0  0  0
 24 27  1  0  0  0  0
 26 29  1  6  0  0  0
 26 31  1  0  0  0  0
 27 28  1  0  0  0  0
 29 30  2  0  0  0  0
 31 32  1  0  0  0  0
 33 32  1  6  0  0  0
 34 36  1  0  0  0  0
 34 42  1  0  0  0  0
 36 37  1  1  0  0  0
 36 39  1  0  0  0  0
 40 39  1  6  0  0  0
 40 41  1  0  0  0  0
 40 46  1  0  0  0  0
 41 42  1  6  0  0  0
 41 44  1  0  0  0  0
 42 43  2  0  0  0  0
 44 45  1  0  0  0  0
 46 45  1  1  0  0  0
M  CHG  2   3  -1  35  -1
M  END
>  <CHROM.1>
138.87845503,47.54625919,-6.21160011,6.39335647,15.48352628,0.87434979,-0.25266939
2.86193849

>  <Name>
ligand

>  <RI>
-1

>  <Rbt.Current_Directory>
/home/itssahil/PROJECTS/Mol_Feturizer/Test_systems_manuscript/rnas/3mum

>  <Rbt.Executable>
rbdock ($Id: //depot/dev/client3/rdock/2013.1/src/exe/rbdock.cxx#4 $)

>  <Rbt.Library>
libRbt.so (2013.1, Build901 2013/11/27)

>  <Rbt.Parameter_File>
/export/apps/rDock/src/rDock_2013.1_src/data/scripts/dock_solv.prm

>  <Rbt.Receptor>
prm/pocket_docking_8.prm

>  <SCORE>
-7.62024

>  <SCORE.INTER>
-8.12478

>  <SCORE.INTER.CONST>
1

>  <SCORE.INTER.POLAR>
0

>  <SCORE.INTER.ROT>
2

>  <SCORE.INTER.SOLV>
14.1479

>  <SCORE.INTER.VDW>
-15.0658

>  <SCORE.INTER.norm>
-0.176626

>  <SCORE.INTRA>
0.504543

>  <SCORE.INTRA.DIHEDRAL>
-0.0244849

>  <SCORE.INTRA.DIHEDRAL.0>
2.40424

>  <SCORE.INTRA.POLAR>
0

>  <SCORE.INTRA.POLAR.0>
0

>  <SCORE.INTRA.REPUL>
0

>  <SCORE.INTRA.REPUL.0>
0

>  <SCORE.INTRA.SOLV>
0.657538

>  <SCORE.INTRA.SOLV.lig_0>
-134.169

>  <SCORE.INTRA.VDW>
0.188016

>  <SCORE.INTRA.VDW.0>
-2.18386

>  <SCORE.INTRA.norm>
0.0109683

>  <SCORE.RESTR>
0

>  <SCORE.RESTR.CAVITY>
0

>  <SCORE.RESTR.norm>
0

>  <SCORE.SYSTEM>
0

>  <SCORE.SYSTEM.CONST>
0

>  <SCORE.SYSTEM.DIHEDRAL>
0

>  <SCORE.SYSTEM.SOLV>
0

>  <SCORE.SYSTEM.norm>
0

>  <SCORE.heavy>
46

>  <SCORE.norm>
-0.165657

>  <RMSD>
8.431

$$$$
ligand
 OpenBabel02271912143D
libRbt.so/2013.1/901 2013/11/27
 46 52  0  0  0  0  0  0  0  0999 V2000
   -7.2428    4.1242   19.6819 P   0  0  1  0  0  0  0  0  0  0  0  0
   -7.6603    4.0630   13.8084 P   0  0  2  0  0  0  0  0  0  0  0  0
   -6.5493    5.6600   20.2314 O   0  5  0  0  0  0  0  0  0  0  0  0
   -7.7094    3.0851   21.0537 O   0  0  0  0  0  0  0  0  0  0  0  0
   -9.2348    3.4050   18.0887 C   0  0  0  0  0  0  0  0  0  0  0  0
   -8.5279    4.4461   18.7631 O   0  0  0  0  0  0  0  0  0  0  0  0
  -10.0418    4.0200   16.9612 C   0  0  1  0  0  0  0  0  0  0  0  0
  -10.8554    5.0815   17.4800 O   0  0  0  0  0  0  0  0  0  0  0  0
   -9.1794    4.6569   15.8837 C   0  0  1  0  0  0  0  0  0  0  0  0
   -8.8600    3.7399   14.8395 O   0  0  0  0  0  0  0  0  0  0  0  0
  -10.0397    5.8058   15.3878 C   0  0  1  0  0  0  0  0  0  0  0  0
  -10.8923    5.3592   14.3305 O   0  0  0  0  0  0  0  0  0  0  0  0
  -10.9021    6.1950   16.5741 C   0  0  2  0  0  0  0  0  0  0  0  0
   -3.5081    4.6441   16.8082 C   0  0  1  0  0  0  0  0  0  0  0  0
  -11.6496   11.2391   18.0545 N   0  0  0  0  0  0  0  0  0  0  0  0
  -12.4936   10.4082   17.3840 C   0  0  1  0  0  0  0  0  0  0  0  0
   -4.4722    4.8239   17.9463 C   0  0  2  0  0  0  0  0  0  0  0  0
  -13.7056   10.8863   17.0190 N   0  0  0  0  0  0  0  0  0  0  0  0
   -3.8179    4.3230   19.1134 O   0  0  0  0  0  0  0  0  0  0  0  0
   -5.6783    3.9881   17.5663 C   0  0  2  0  0  0  0  0  0  0  0  0
  -12.1655    9.1209   17.0649 N   0  0  0  0  0  0  0  0  0  0  0  0
   -6.2440    3.3373   18.6959 O   0  0  0  0  0  0  0  0  0  0  0  0
  -10.9636    8.5938   17.4101 C   0  0  2  0  0  0  0  0  0  0  0  0
   -5.1464    2.9604   16.5869 C   0  0  2  0  0  0  0  0  0  0  0  0
   -3.9417    3.5109   16.0570 O   0  0  0  0  0  0  0  0  0  0  0  0
  -10.0108    9.4523   18.1350 C   0  0  1  0  0  0  0  0  0  0  0  0
   -6.1172    2.6705   15.4475 C   0  0  0  0  0  0  0  0  0  0  0  0
   -6.3354    3.8705   14.7030 O   0  0  0  0  0  0  0  0  0  0  0  0
  -10.4222   10.8318   18.4511 C   0  0  0  0  0  0  0  0  0  0  0  0
   -9.5854   11.6682   19.1162 O   0  0  0  0  0  0  0  0  0  0  0  0
   -8.9141    8.7183   18.3529 N   0  0  0  0  0  0  0  0  0  0  0  0
   -9.1366    7.4848   17.8121 C   0  0  0  0  0  0  0  0  0  0  0  0
  -10.3595    7.4053   17.2466 N   0  0  1  0  0  0  0  0  0  0  0  0
   -1.7343    9.5519   16.4395 N   0  0  0  0  0  0  0  0  0  0  0  0
   -7.7621    5.7333   13.1916 O   0  5  0  0  0  0  0  0  0  0  0  0
   -1.5741    8.6403   17.4377 C   0  0  2  0  0  0  0  0  0  0  0  0
   -0.8510    8.9801   18.5366 N   0  0  0  0  0  0  0  0  0  0  0  0
   -7.5824    2.9322   12.4433 O   0  0  0  0  0  0  0  0  0  0  0  0
   -2.1165    7.3939   17.3704 N   0  0  0  0  0  0  0  0  0  0  0  0
   -2.8409    6.9949   16.2989 C   0  0  2  0  0  0  0  0  0  0  0  0
   -3.0510    7.9357   15.1905 C   0  0  2  0  0  0  0  0  0  0  0  0
   -2.4425    9.2766   15.3237 C   0  0  0  0  0  0  0  0  0  0  0  0
   -2.5846   10.2128   14.3531 O   0  0  0  0  0  0  0  0  0  0  0  0
   -3.8038    7.2923   14.2764 N   0  0  0  0  0  0  0  0  0  0  0  0
   -4.0514    6.0385   14.7600 C   0  0  0  0  0  0  0  0  0  0  0  0
   -3.4750    5.8675   15.9713 N   0  0  1  0  0  0  0  0  0  0  0  0
  1  3  1  1  0  0  0
  1  4  2  0  0  0  0
  1  6  1  0  0  0  0
  1 22  1  0  0  0  0
  2 28  1  0  0  0  0
  2 35  1  6  0  0  0
  2 38  2  0  0  0  0
  2 10  1  0  0  0  0
  5  6  1  0  0  0  0
  7  5  1  1  0  0  0
  7  8  1  0  0  0  0
  7  9  1  0  0  0  0
  9 10  1  6  0  0  0
  9 11  1  0  0  0  0
 11 12  1  6  0  0  0
 11 13  1  0  0  0  0
 13  8  1  1  0  0  0
 13 33  1  0  0  0  0
 14 46  1  0  0  0  0
 14 17  1  0  0  0  0
 14 25  1  6  0  0  0
 15 16  1  0  0  0  0
 15 29  1  0  0  0  0
 16 18  1  6  0  0  0
 16 21  1  0  0  0  0
 17 19  1  1  0  0  0
 17 20  1  0  0  0  0
 20 22  1  1  0  0  0
 20 24  1  0  0  0  0
 23 21  1  6  0  0  0
 23 26  1  0  0  0  0
 23 33  1  0  0  0  0
 24 25  1  6  0  0  0
 24 27  1  0  0  0  0
 26 29  1  1  0  0  0
 26 31  1  0  0  0  0
 27 28  1  0  0  0  0
 29 30  2  0  0  0  0
 31 32  1  0  0  0  0
 33 32  1  1  0  0  0
 34 36  1  0  0  0  0
 34 42  1  0  0  0  0
 36 37  1  6  0  0  0
 36 39  1  0  0  0  0
 40 39  1  1  0  0  0
 40 41  1  0  0  0  0
 40 46  1  0  0  0  0
 41 42  1  1  0  0  0
 41 44  1  0  0  0  0
 42 43  2  0  0  0  0
 44 45  1  0  0  0  0
 46 45  1  6  0  0  0
M  CHG  2   3  -1  35  -1
M  END
>  <CHROM.1>
-124.23642665,76.71062591,-7.12411766,6.23425159,16.81273113,0.26948908,-0.07650389
-2.97378656

>  <Name>
ligand

>  <RI>
-1

>  <Rbt.Current_Directory>
/home/itssahil/PROJECTS/Mol_Feturizer/Test_systems_manuscript/rnas/3mum

>  <Rbt.Executable>
rbdock ($Id: //depot/dev/client3/rdock/2013.1/src/exe/rbdock.cxx#4 $)

>  <Rbt.Library>
libRbt.so (2013.1, Build901 2013/11/27)

>  <Rbt.Parameter_File>
/export/apps/rDock/src/rDock_2013.1_src/data/scripts/dock_solv.prm

>  <Rbt.Receptor>
prm/pocket_docking_8.prm

>  <SCORE>
-9.2775

>  <SCORE.INTER>
-8.98076

>  <SCORE.INTER.CONST>
1

>  <SCORE.INTER.POLAR>
0

>  <SCORE.INTER.ROT>
2

>  <SCORE.INTER.SOLV>
15.0255

>  <SCORE.INTER.VDW>
-15.929

>  <SCORE.INTER.norm>
-0.195234

>  <SCORE.INTRA>
-0.296748

>  <SCORE.INTRA.DIHEDRAL>
0.0173155

>  <SCORE.INTRA.DIHEDRAL.0>
2.40424

>  <SCORE.INTRA.POLAR>
0

>  <SCORE.INTRA.POLAR.0>
0

>  <SCORE.INTRA.REPUL>
0

>  <SCORE.INTRA.REPUL.0>
0

>  <SCORE.INTRA.SOLV>
0.029828

>  <SCORE.INTRA.SOLV.lig_0>
-134.169

>  <SCORE.INTRA.VDW>
-0.32032

>  <SCORE.INTRA.VDW.0>
-2.18386

>  <SCORE.INTRA.norm>
-0.00645105

>  <SCORE.RESTR>
0

>  <SCORE.RESTR.CAVITY>
0

>  <SCORE.RESTR.norm>
0

>  <SCORE.SYSTEM>
0

>  <SCORE.SYSTEM.CONST>
0

>  <SCORE.SYSTEM.DIHEDRAL>
0

>  <SCORE.SYSTEM.SOLV>
0

>  <SCORE.SYSTEM.norm>
0

>  <SCORE.heavy>
46

>  <SCORE.norm>
-0.201685

>  <RMSD>
8.521

$$$$
ligand
 OpenBabel02271912143D
libRbt.so/2013.1/901 2013/11/27
 46 52  0  0  0  0  0  0  0  0999 V2000
   -5.5422    3.3204   18.0326 P   0  0  1  0  0  0  0  0  0  0  0  0
   -9.5217    7.6562   17.8319 P   0  0  2  0  0  0  0  0  0  0  0  0
   -4.3551    3.5168   16.7310 O   0  5  0  0  0  0  0  0  0  0  0  0
   -5.1402    1.9394   19.0864 O   0  0  0  0  0  0  0  0  0  0  0  0
   -6.5293    4.8632   19.9480 C   0  0  0  0  0  0  0  0  0  0  0  0
   -5.5857    4.6840   18.8915 O   0  0  0  0  0  0  0  0  0  0  0  0
   -6.6654    6.3477   20.2283 C   0  0  1  0  0  0  0  0  0  0  0  0
   -5.3665    6.9110   20.4598 O   0  0  0  0  0  0  0  0  0  0  0  0
   -7.2459    7.1284   19.0605 C   0  0  1  0  0  0  0  0  0  0  0  0
   -8.6668    7.2242   19.1316 O   0  0  0  0  0  0  0  0  0  0  0  0
   -6.5775    8.4861   19.1870 C   0  0  1  0  0  0  0  0  0  0  0  0
   -7.3511    9.3362   20.0375 O   0  0  0  0  0  0  0  0  0  0  0  0
   -5.2456    8.2102   19.8596 C   0  0  2  0  0  0  0  0  0  0  0  0
   -8.2912    4.1485   14.2598 C   0  0  1  0  0  0  0  0  0  0  0  0
   -0.1020    7.3696   18.8451 N   0  0  0  0  0  0  0  0  0  0  0  0
   -0.7726    7.2589   20.0243 C   0  0  1  0  0  0  0  0  0  0  0  0
   -7.1005    3.8296   15.1187 C   0  0  2  0  0  0  0  0  0  0  0  0
   -0.0767    6.8868   21.1234 N   0  0  0  0  0  0  0  0  0  0  0  0
   -6.8168    2.4439   14.9181 O   0  0  0  0  0  0  0  0  0  0  0  0
   -7.5576    4.1184   16.5349 C   0  0  2  0  0  0  0  0  0  0  0  0
   -2.1105    7.5103   20.1406 N   0  0  0  0  0  0  0  0  0  0  0  0
   -7.0379    3.1716   17.4584 O   0  0  0  0  0  0  0  0  0  0  0  0
   -2.8531    7.8843   19.0682 C   0  0  2  0  0  0  0  0  0  0  0  0
   -9.0695    4.0184   16.4837 C   0  0  2  0  0  0  0  0  0  0  0  0
   -9.4293    4.2190   15.1178 O   0  0  0  0  0  0  0  0  0  0  0  0
   -2.1750    8.0222   17.7675 C   0  0  1  0  0  0  0  0  0  0  0  0
   -9.7617    5.0643   17.3506 C   0  0  0  0  0  0  0  0  0  0  0  0
   -9.4214    6.3671   16.8722 O   0  0  0  0  0  0  0  0  0  0  0  0
   -0.7304    7.7370   17.7051 C   0  0  0  0  0  0  0  0  0  0  0  0
   -0.0531    7.8484   16.5342 O   0  0  0  0  0  0  0  0  0  0  0  0
   -3.1041    8.4009   16.8830 N   0  0  0  0  0  0  0  0  0  0  0  0
   -4.2879    8.5021   17.5552 C   0  0  0  0  0  0  0  0  0  0  0  0
   -4.1433    8.1954   18.8616 N   0  0  1  0  0  0  0  0  0  0  0  0
  -10.4507    8.6938   12.8297 N   0  0  0  0  0  0  0  0  0  0  0  0
   -8.8176    9.0873   17.0337 O   0  5  0  0  0  0  0  0  0  0  0  0
  -10.9875    7.6557   13.5275 C   0  0  2  0  0  0  0  0  0  0  0  0
  -12.2735    7.7400   13.9578 N   0  0  0  0  0  0  0  0  0  0  0  0
  -11.2341    7.9586   18.1849 O   0  0  0  0  0  0  0  0  0  0  0  0
  -10.2749    6.5312   13.8102 N   0  0  0  0  0  0  0  0  0  0  0  0
   -8.9881    6.3913   13.4142 C   0  0  2  0  0  0  0  0  0  0  0  0
   -8.3543    7.4772   12.6548 C   0  0  2  0  0  0  0  0  0  0  0  0
   -9.1804    8.6707   12.3734 C   0  0  0  0  0  0  0  0  0  0  0  0
   -8.6825    9.7222   11.6769 O   0  0  0  0  0  0  0  0  0  0  0  0
   -7.0968    7.0751   12.3840 N   0  0  0  0  0  0  0  0  0  0  0  0
   -6.9381    5.8329   12.9307 C   0  0  0  0  0  0  0  0  0  0  0  0
   -8.0737    5.4282   13.5434 N   0  0  1  0  0  0  0  0  0  0  0  0
  1  3  1  6  0  0  0
  1  4  2  0  0  0  0
  1  6  1  0  0  0  0
  1 22  1  0  0  0  0
  2 28  1  0  0  0  0
  2 35  1  6  0  0  0
  2 38  2  0  0  0  0
  2 10  1  0  0  0  0
  5  6  1  0  0  0  0
  7  5  1  6  0  0  0
  7  8  1  0  0  0  0
  7  9  1  0  0  0  0
  9 10  1  1  0  0  0
  9 11  1  0  0  0  0
 11 12  1  1  0  0  0
 11 13  1  0  0  0  0
 13  8  1  6  0  0  0
 13 33  1  0  0  0  0
 14 46  1  0  0  0  0
 14 17  1  0  0  0  0
 14 25  1  1  0  0  0
 15 16  1  0  0  0  0
 15 29  1  0  0  0  0
 16 18  1  1  0  0  0
 16 21  1  0  0  0  0
 17 19  1  1  0  0  0
 17 20  1  0  0  0  0
 20 22  1  1  0  0  0
 20 24  1  0  0  0  0
 23 21  1  1  0  0  0
 23 26  1  0  0  0  0
 23 33  1  0  0  0  0
 24 25  1  6  0  0  0
 24 27  1  0  0  0  0
 26 29  1  6  0  0  0
 26 31  1  0  0  0  0
 27 28  1  0  0  0  0
 29 30  2  0  0  0  0
 31 32  1  0  0  0  0
 33 32  1  6  0  0  0
 34 36  1  0  0  0  0
 34 42  1  0  0  0  0
 36 37  1  1  0  0  0
 36 39  1  0  0  0  0
 40 39  1  6  0  0  0
 40 41  1  0  0  0  0
 40 46  1  0  0  0  0
 41 42  1  6  0  0  0
 41 44  1  0  0  0  0
 42 43  2  0  0  0  0
 44 45  1  0  0  0  0
 46 45  1  1  0  0  0
M  CHG  2   3  -1  35  -1
M  END
>  <CHROM.1>
-57.86260975,-136.08797115,-6.61390226,6.44653306,16.95450075,0.20007777
0.56778015,2.77029779

>  <Name>
ligand

>  <RI>
-1

>  <Rbt.Current_Directory>
/home/itssahil/PROJECTS/Mol_Feturizer/Test_systems_manuscript/rnas/3mum

>  <Rbt.Executable>
rbdock ($Id: //depot/dev/client3/rdock/2013.1/src/exe/rbdock.cxx#4 $)

>  <Rbt.Library>
libRbt.so (2013.1, Build901 2013/11/27)

>  <Rbt.Parameter_File>
/export/apps/rDock/src/rDock_2013.1_src/data/scripts/dock_solv.prm

>  <Rbt.Receptor>
prm/pocket_docking_8.prm

>  <SCORE>
-8.47443

>  <SCORE.INTER>
-8.70619

>  <SCORE.INTER.CONST>
1

>  <SCORE.INTER.POLAR>
0

>  <SCORE.INTER.ROT>
2

>  <SCORE.INTER.SOLV>
11.4095

>  <SCORE.INTER.VDW>
-14.5406

>  <SCORE.INTER.norm>
-0.189265

>  <SCORE.INTRA>
0.231768

>  <SCORE.INTRA.DIHEDRAL>
0.0171436

>  <SCORE.INTRA.DIHEDRAL.0>
2.40424

>  <SCORE.INTRA.POLAR>
0

>  <SCORE.INTRA.POLAR.0>
0

>  <SCORE.INTRA.REPUL>
0

>  <SCORE.INTRA.REPUL.0>
0

>  <SCORE.INTRA.SOLV>
0.286257

>  <SCORE.INTRA.SOLV.lig_0>
-134.169

>  <SCORE.INTRA.VDW>
0.0800673

>  <SCORE.INTRA.VDW.0>
-2.18386

>  <SCORE.INTRA.norm>
0.00503843

>  <SCORE.RESTR>
0

>  <SCORE.RESTR.CAVITY>
0

>  <SCORE.RESTR.norm>
0

>  <SCORE.SYSTEM>
0

>  <SCORE.SYSTEM.CONST>
0

>  <SCORE.SYSTEM.DIHEDRAL>
0

>  <SCORE.SYSTEM.SOLV>
0

>  <SCORE.SYSTEM.norm>
0

>  <SCORE.heavy>
46

>  <SCORE.norm>
-0.184227

>  <RMSD>
8.538

$$$$
ligand
 OpenBabel02271912143D
libRbt.so/2013.1/901 2013/11/27
 46 52  0  0  0  0  0  0  0  0999 V2000
   -6.4861    7.1630   13.6791 P   0  0  1  0  0  0  0  0  0  0  0  0
  -12.3416    6.5397   13.6617 P   0  0  2  0  0  0  0  0  0  0  0  0
   -5.9984    8.3407   14.9107 O   0  5  0  0  0  0  0  0  0  0  0  0
   -5.0738    6.4308   12.8736 O   0  0  0  0  0  0  0  0  0  0  0  0
   -8.0022    4.9900   13.6279 C   0  0  0  0  0  0  0  0  0  0  0  0
   -7.3767    6.0226   14.3901 O   0  0  0  0  0  0  0  0  0  0  0  0
   -9.1228    4.3895   14.4552 C   0  0  1  0  0  0  0  0  0  0  0  0
   -8.6104    3.9878   15.7335 O   0  0  0  0  0  0  0  0  0  0  0  0
  -10.2412    5.3740   14.7557 C   0  0  1  0  0  0  0  0  0  0  0  0
  -11.2686    5.3380   13.7676 O   0  0  0  0  0  0  0  0  0  0  0  0
  -10.7437    4.9208   16.1151 C   0  0  1  0  0  0  0  0  0  0  0  0
  -11.7640    3.9318   15.9560 O   0  0  0  0  0  0  0  0  0  0  0  0
   -9.5446    4.2764   16.7855 C   0  0  2  0  0  0  0  0  0  0  0  0
   -9.4771   10.7571   12.8960 C   0  0  1  0  0  0  0  0  0  0  0  0
   -6.1161    4.9849   20.7775 N   0  0  0  0  0  0  0  0  0  0  0  0
   -6.4155    3.8452   20.0965 C   0  0  1  0  0  0  0  0  0  0  0  0
   -8.3175    9.9463   13.4012 C   0  0  2  0  0  0  0  0  0  0  0  0
   -5.7787    2.7042   20.4478 N   0  0  0  0  0  0  0  0  0  0  0  0
   -7.1562   10.4413   12.7325 O   0  0  0  0  0  0  0  0  0  0  0  0
   -8.6404    8.5201   13.0018 C   0  0  2  0  0  0  0  0  0  0  0  0
   -7.3295    3.8085   19.0816 N   0  0  0  0  0  0  0  0  0  0  0  0
   -7.4780    7.8130   12.5917 O   0  0  0  0  0  0  0  0  0  0  0  0
   -7.9931    4.9257   18.6903 C   0  0  2  0  0  0  0  0  0  0  0  0
   -9.6061    8.6506   11.8404 C   0  0  2  0  0  0  0  0  0  0  0  0
  -10.1845    9.9496   11.9559 O   0  0  0  0  0  0  0  0  0  0  0  0
   -7.7085    6.1865   19.3972 C   0  0  1  0  0  0  0  0  0  0  0  0
  -10.7093    7.5985   11.8668 C   0  0  0  0  0  0  0  0  0  0  0  0
  -11.4798    7.7593   13.0595 O   0  0  0  0  0  0  0  0  0  0  0  0
   -6.7122    6.1628   20.4830 C   0  0  0  0  0  0  0  0  0  0  0  0
   -6.4103    7.2939   21.1698 O   0  0  0  0  0  0  0  0  0  0  0  0
   -8.4802    7.1268   18.8411 N   0  0  0  0  0  0  0  0  0  0  0  0
   -9.2074    6.5248   17.8550 C   0  0  0  0  0  0  0  0  0  0  0  0
   -8.9209    5.2093   17.7613 N   0  0  1  0  0  0  0  0  0  0  0  0
   -9.5851   12.5107   17.8236 N   0  0  0  0  0  0  0  0  0  0  0  0
  -13.0006    6.9691   15.2623 O   0  5  0  0  0  0  0  0  0  0  0  0
   -8.5215   12.2096   17.0292 C   0  0  2  0  0  0  0  0  0  0  0  0
   -7.2633   12.3681   17.5169 N   0  0  0  0  0  0  0  0  0  0  0  0
  -13.6770    6.1941   12.5458 O   0  0  0  0  0  0  0  0  0  0  0  0
   -8.6779   11.7537   15.7564 N   0  0  0  0  0  0  0  0  0  0  0  0
   -9.9055   11.5817   15.2127 C   0  0  2  0  0  0  0  0  0  0  0  0
  -11.0924   11.8872   16.0223 C   0  0  2  0  0  0  0  0  0  0  0  0
  -10.8591   12.3732   17.3991 C   0  0  0  0  0  0  0  0  0  0  0  0
  -11.8930   12.6782   18.2217 O   0  0  0  0  0  0  0  0  0  0  0  0
  -12.1644   11.6198   15.2505 N   0  0  0  0  0  0  0  0  0  0  0  0
  -11.6996   11.1825   14.0423 C   0  0  0  0  0  0  0  0  0  0  0  0
  -10.3475   11.1595   14.0267 N   0  0  1  0  0  0  0  0  0  0  0  0
  1  3  1  1  0  0  0
  1  4  2  0  0  0  0
  1  6  1  0  0  0  0
  1 22  1  0  0  0  0
  2 28  1  0  0  0  0
  2 35  1  1  0  0  0
  2 38  2  0  0  0  0
  2 10  1  0  0  0  0
  5  6  1  0  0  0  0
  7  5  1  6  0  0  0
  7  8  1  0  0  0  0
  7  9  1  0  0  0  0
  9 10  1  6  0  0  0
  9 11  1  0  0  0  0
 11 12  1  6  0  0  0
 11 13  1  0  0  0  0
 13  8  1  6  0  0  0
 13 33  1  0  0  0  0
 14 46  1  0  0  0  0
 14 17  1  0  0  0  0
 14 25  1  6  0  0  0
 15 16  1  0  0  0  0
 15 29  1  0  0  0  0
 16 18  1  1  0  0  0
 16 21  1  0  0  0  0
 17 19  1  6  0  0  0
 17 20  1  0  0  0  0
 20 22  1  6  0  0  0
 20 24  1  0  0  0  0
 23 21  1  1  0  0  0
 23 26  1  0  0  0  0
 23 33  1  0  0  0  0
 24 25  1  1  0  0  0
 24 27  1  0  0  0  0
 26 29  1  6  0  0  0
 26 31  1  0  0  0  0
 27 28  1  0  0  0  0
 29 30  2  0  0  0  0
 31 32  1  0  0  0  0
 33 32  1  6  0  0  0
 34 36  1  0  0  0  0
 34 42  1  0  0  0  0
 36 37  1  6  0  0  0
 36 39  1  0  0  0  0
 40 39  1  1  0  0  0
 40 41  1  0  0  0  0
 40 46  1  0  0  0  0
 41 42  1  1  0  0  0
 41 44  1  0  0  0  0
 42 43  2  0  0  0  0
 44 45  1  0  0  0  0
 46 45  1  6  0  0  0
M  CHG  2   3  -1  35  -1
M  END
>  <CHROM.1>
-75.31347820,41.40744018,-9.14193290,7.66711984,15.56975092,0.58405539,1.08113759
-2.90706563

>  <Name>
ligand

>  <RI>
-1

>  <Rbt.Current_Directory>
/home/itssahil/PROJECTS/Mol_Feturizer/Test_systems_manuscript/rnas/3mum

>  <Rbt.Executable>
rbdock ($Id: //depot/dev/client3/rdock/2013.1/src/exe/rbdock.cxx#4 $)

>  <Rbt.Library>
libRbt.so (2013.1, Build901 2013/11/27)

>  <Rbt.Parameter_File>
/export/apps/rDock/src/rDock_2013.1_src/data/scripts/dock_solv.prm

>  <Rbt.Receptor>
prm/pocket_docking_8.prm

>  <SCORE>
-11.2402

>  <SCORE.INTER>
-12.0162

>  <SCORE.INTER.CONST>
1

>  <SCORE.INTER.POLAR>
0

>  <SCORE.INTER.ROT>
2

>  <SCORE.INTER.SOLV>
10.9059

>  <SCORE.INTER.VDW>
-16.5795

>  <SCORE.INTER.norm>
-0.261223

>  <SCORE.INTRA>
0.77605

>  <SCORE.INTRA.DIHEDRAL>
-0.0299948

>  <SCORE.INTRA.DIHEDRAL.0>
2.40424

>  <SCORE.INTRA.POLAR>
0

>  <SCORE.INTRA.POLAR.0>
0

>  <SCORE.INTRA.REPUL>
0

>  <SCORE.INTRA.REPUL.0>
0

>  <SCORE.INTRA.SOLV>
0.0519484

>  <SCORE.INTRA.SOLV.lig_0>
-134.169

>  <SCORE.INTRA.VDW>
0.765073

>  <SCORE.INTRA.VDW.0>
-2.18386

>  <SCORE.INTRA.norm>
0.0168707

>  <SCORE.RESTR>
0

>  <SCORE.RESTR.CAVITY>
0

>  <SCORE.RESTR.norm>
0

>  <SCORE.SYSTEM>
0

>  <SCORE.SYSTEM.CONST>
0

>  <SCORE.SYSTEM.DIHEDRAL>
0

>  <SCORE.SYSTEM.SOLV>
0

>  <SCORE.SYSTEM.norm>
0

>  <SCORE.heavy>
46

>  <SCORE.norm>
-0.244352

>  <RMSD>
9.286

$$$$
ligand
 OpenBabel02271912143D
libRbt.so/2013.1/901 2013/11/27
 46 52  0  0  0  0  0  0  0  0999 V2000
  -19.2304  -10.7453   16.2961 P   0  0  1  0  0  0  0  0  0  0  0  0
  -15.0178  -10.0078   20.3441 P   0  0  2  0  0  0  0  0  0  0  0  0
  -20.3846   -9.4016   16.3603 O   0  5  0  0  0  0  0  0  0  0  0  0
  -19.6089  -11.8745   14.9691 O   0  0  0  0  0  0  0  0  0  0  0  0
  -16.5959  -10.9759   16.1244 C   0  0  0  0  0  0  0  0  0  0  0  0
  -17.7501  -10.1358   16.1053 O   0  0  0  0  0  0  0  0  0  0  0  0
  -15.3780  -10.1183   16.4106 C   0  0  1  0  0  0  0  0  0  0  0  0
  -15.3318   -9.0284   15.4790 O   0  0  0  0  0  0  0  0  0  0  0  0
  -15.4064   -9.4760   17.7880 C   0  0  1  0  0  0  0  0  0  0  0  0
  -14.7732  -10.2893   18.7732 O   0  0  0  0  0  0  0  0  0  0  0  0
  -14.6691   -8.1660   17.5728 C   0  0  1  0  0  0  0  0  0  0  0  0
  -13.2662   -8.3537   17.7760 O   0  0  0  0  0  0  0  0  0  0  0  0
  -14.9048   -7.8139   16.1158 C   0  0  2  0  0  0  0  0  0  0  0  0
  -20.1247  -10.3884   20.9383 C   0  0  1  0  0  0  0  0  0  0  0  0
  -16.4114   -3.1140   14.1578 N   0  0  0  0  0  0  0  0  0  0  0  0
  -15.2187   -3.7560   14.0243 C   0  0  1  0  0  0  0  0  0  0  0  0
  -20.2156  -10.2220   19.4479 C   0  0  2  0  0  0  0  0  0  0  0  0
  -14.2457   -3.1542   13.3019 N   0  0  0  0  0  0  0  0  0  0  0  0
  -21.3704  -10.9515   19.0293 O   0  0  0  0  0  0  0  0  0  0  0  0
  -18.9337  -10.8286   18.9127 C   0  0  2  0  0  0  0  0  0  0  0  0
  -14.9669   -4.9739   14.5899 N   0  0  0  0  0  0  0  0  0  0  0  0
  -19.1522  -11.5320   17.6975 O   0  0  0  0  0  0  0  0  0  0  0  0
  -15.9100   -5.6195   15.3217 C   0  0  2  0  0  0  0  0  0  0  0  0
  -18.4765  -11.7882   19.9937 C   0  0  2  0  0  0  0  0  0  0  0  0
  -19.1002  -11.3470   21.1986 O   0  0  0  0  0  0  0  0  0  0  0  0
  -17.2185   -4.9665   15.5000 C   0  0  1  0  0  0  0  0  0  0  0  0
  -16.9630  -11.7954   20.1776 C   0  0  0  0  0  0  0  0  0  0  0  0
  -16.5351  -10.4926   20.5796 O   0  0  0  0  0  0  0  0  0  0  0  0
  -17.4303   -3.6533   14.8653 C   0  0  0  0  0  0  0  0  0  0  0  0
  -18.6151   -3.0045   14.9963 O   0  0  0  0  0  0  0  0  0  0  0  0
  -17.9622   -5.7850   16.2523 N   0  0  0  0  0  0  0  0  0  0  0  0
  -17.1980   -6.8790   16.5400 C   0  0  0  0  0  0  0  0  0  0  0  0
  -15.9703   -6.7847   15.9871 N   0  0  1  0  0  0  0  0  0  0  0  0
  -17.4048   -7.9781   24.7014 N   0  0  0  0  0  0  0  0  0  0  0  0
  -14.8470   -8.2751   20.7308 O   0  5  0  0  0  0  0  0  0  0  0  0
  -17.4622   -9.2991   24.3779 C   0  0  2  0  0  0  0  0  0  0  0  0
  -16.7244  -10.1894   25.0912 N   0  0  0  0  0  0  0  0  0  0  0  0
  -13.9567  -10.9573   21.4026 O   0  0  0  0  0  0  0  0  0  0  0  0
  -18.2374   -9.7592   23.3583 N   0  0  0  0  0  0  0  0  0  0  0  0
  -18.9892   -8.9204   22.6076 C   0  0  2  0  0  0  0  0  0  0  0  0
  -18.9711   -7.4832   22.9105 C   0  0  2  0  0  0  0  0  0  0  0  0
  -18.1146   -7.0445   24.0330 C   0  0  0  0  0  0  0  0  0  0  0  0
  -18.0356   -5.7383   24.3883 O   0  0  0  0  0  0  0  0  0  0  0  0
  -19.8044   -6.8935   22.0306 N   0  0  0  0  0  0  0  0  0  0  0  0
  -20.3112   -7.8751   21.2264 C   0  0  0  0  0  0  0  0  0  0  0  0
  -19.8218   -9.0857   21.5781 N   0  0  1  0  0  0  0  0  0  0  0  0
  1  3  1  1  0  0  0
  1  4  2  0  0  0  0
  1  6  1  0  0  0  0
  1 22  1  0  0  0  0
  2 28  1  0  0  0  0
  2 35  1  1  0  0  0
  2 38  2  0  0  0  0
  2 10  1  0  0  0  0
  5  6  1  0  0  0  0
  7  5  1  6  0  0  0
  7  8  1  0  0  0  0
  7  9  1  0  0  0  0
  9 10  1  1  0  0  0
  9 11  1  0  0  0  0
 11 12  1  6  0  0  0
 11 13  1  0  0  0  0
 13  8  1  6  0  0  0
 13 33  1  0  0  0  0
 14 46  1  0  0  0  0
 14 17  1  0  0  0  0
 14 25  1  6  0  0  0
 15 16  1  0  0  0  0
 15 29  1  0  0  0  0
 16 18  1  1  0  0  0
 16 21  1  0  0  0  0
 17 19  1  6  0  0  0
 17 20  1  0  0  0  0
 20 22  1  6  0  0  0
 20 24  1  0  0  0  0
 23 21  1  1  0  0  0
 23 26  1  0  0  0  0
 23 33  1  0  0  0  0
 24 25  1  1  0  0  0
 24 27  1  0  0  0  0
 26 29  1  6  0  0  0
 26 31  1  0  0  0  0
 27 28  1  0  0  0  0
 29 30  2  0  0  0  0
 31 32  1  0  0  0  0
 33 32  1  6  0  0  0
 34 36  1  0  0  0  0
 34 42  1  0  0  0  0
 36 37  1  6  0  0  0
 36 39  1  0  0  0  0
 40 39  1  1  0  0  0
 40 41  1  0  0  0  0
 40 46  1  0  0  0  0
 41 42  1  1  0  0  0
 41 44  1  0  0  0  0
 42 43  2  0  0  0  0
 44 45  1  0  0  0  0
 46 45  1  6  0  0  0
M  CHG  2   3  -1  35  -1
M  END
>  <CHROM.1>
-115.67070618,-140.28931596,-17.30700725,-8.58786406,18.70319475,0.94288104
-1.18593631,-1.67316073

>  <Name>
ligand

>  <RI>
-1

>  <Rbt.Current_Directory>
/home/itssahil/PROJECTS/Mol_Feturizer/Test_systems_manuscript/rnas/3mum

>  <Rbt.Executable>
rbdock ($Id: //depot/dev/client3/rdock/2013.1/src/exe/rbdock.cxx#4 $)

>  <Rbt.Library>
libRbt.so (2013.1, Build901 2013/11/27)

>  <Rbt.Parameter_File>
/export/apps/rDock/src/rDock_2013.1_src/data/scripts/dock_solv.prm

>  <Rbt.Receptor>
prm/blind_docking_100.prm

>  <SCORE>
62.0529

>  <SCORE.INTER>
61.7456

>  <SCORE.INTER.CONST>
1

>  <SCORE.INTER.POLAR>
0

>  <SCORE.INTER.ROT>
2

>  <SCORE.INTER.SOLV>
39.2393

>  <SCORE.INTER.VDW>
23.1506

>  <SCORE.INTER.norm>
1.3423

>  <SCORE.INTRA>
-0.339879

>  <SCORE.INTRA.DIHEDRAL>
0.0193443

>  <SCORE.INTRA.DIHEDRAL.0>
2.40424

>  <SCORE.INTRA.POLAR>
0

>  <SCORE.INTRA.POLAR.0>
0

>  <SCORE.INTRA.REPUL>
0

>  <SCORE.INTRA.REPUL.0>
0

>  <SCORE.INTRA.SOLV>
0.0254555

>  <SCORE.INTRA.SOLV.lig_0>
-134.169

>  <SCORE.INTRA.VDW>
-0.362279

>  <SCORE.INTRA.VDW.0>
-2.18386

>  <SCORE.INTRA.norm>
-0.00738867

>  <SCORE.RESTR>
0.647201

>  <SCORE.RESTR.CAVITY>
0.647201

>  <SCORE.RESTR.norm>
0.0140696

>  <SCORE.SYSTEM>
0

>  <SCORE.SYSTEM.CONST>
0

>  <SCORE.SYSTEM.DIHEDRAL>
0

>  <SCORE.SYSTEM.SOLV>
0

>  <SCORE.SYSTEM.norm>
0

>  <SCORE.heavy>
46

>  <SCORE.norm>
1.34898

>  <RMSD>
15.064

$$$$
ligand
 OpenBabel02271912143D
libRbt.so/2013.1/901 2013/11/27
 46 52  0  0  0  0  0  0  0  0999 V2000
  -14.9689  -10.0386   19.8682 P   0  0  1  0  0  0  0  0  0  0  0  0
  -19.2001  -10.5161   15.8006 P   0  0  2  0  0  0  0  0  0  0  0  0
  -14.9258   -8.3899   20.5176 O   0  5  0  0  0  0  0  0  0  0  0  0
  -13.8010  -11.1020   20.6954 O   0  0  0  0  0  0  0  0  0  0  0  0
  -16.8335  -11.8874   19.5089 C   0  0  0  0  0  0  0  0  0  0  0  0
  -16.4655  -10.6136   20.0386 O   0  0  0  0  0  0  0  0  0  0  0  0
  -18.3442  -11.9415   19.3852 C   0  0  1  0  0  0  0  0  0  0  0  0
  -18.9392  -11.6030   20.6459 O   0  0  0  0  0  0  0  0  0  0  0  0
  -18.9014  -10.9376   18.3891 C   0  0  1  0  0  0  0  0  0  0  0  0
  -19.0096  -11.4859   17.0773 O   0  0  0  0  0  0  0  0  0  0  0  0
  -20.2590  -10.5892   18.9734 C   0  0  1  0  0  0  0  0  0  0  0  0
  -21.2495  -11.4998   18.4896 O   0  0  0  0  0  0  0  0  0  0  0  0
  -20.1083  -10.7876   20.4702 C   0  0  2  0  0  0  0  0  0  0  0  0
  -15.1033   -7.3895   15.9386 C   0  0  1  0  0  0  0  0  0  0  0  0
  -20.1790   -8.0394   25.0128 N   0  0  0  0  0  0  0  0  0  0  0  0
  -20.4541   -9.3557   24.8027 C   0  0  1  0  0  0  0  0  0  0  0  0
  -14.9441   -7.8164   17.3703 C   0  0  2  0  0  0  0  0  0  0  0  0
  -20.8009  -10.1146   25.8677 N   0  0  0  0  0  0  0  0  0  0  0  0
  -13.5447   -7.7670   17.6536 O   0  0  0  0  0  0  0  0  0  0  0  0
  -15.4845   -9.2320   17.4135 C   0  0  2  0  0  0  0  0  0  0  0  0
  -20.3970   -9.9349   23.5666 N   0  0  0  0  0  0  0  0  0  0  0  0
  -14.7199  -10.0604   18.2787 O   0  0  0  0  0  0  0  0  0  0  0  0
  -20.0526   -9.2176   22.4674 C   0  0  2  0  0  0  0  0  0  0  0  0
  -15.3782   -9.7327   15.9865 C   0  0  2  0  0  0  0  0  0  0  0  0
  -15.3287   -8.5673   15.1651 O   0  0  0  0  0  0  0  0  0  0  0  0
  -19.7477   -7.7865   22.6391 C   0  0  1  0  0  0  0  0  0  0  0  0
  -16.5641  -10.5967   15.5724 C   0  0  0  0  0  0  0  0  0  0  0  0
  -17.7587   -9.8158   15.6438 O   0  0  0  0  0  0  0  0  0  0  0  0
  -19.8260   -7.2190   23.9970 C   0  0  0  0  0  0  0  0  0  0  0  0
  -19.5569   -5.9067   24.2151 O   0  0  0  0  0  0  0  0  0  0  0  0
  -19.4469   -7.3050   21.4280 N   0  0  0  0  0  0  0  0  0  0  0  0
  -19.5497   -8.3390   20.5426 C   0  0  0  0  0  0  0  0  0  0  0  0
  -19.9124   -9.4840   21.1583 N   0  0  1  0  0  0  0  0  0  0  0  0
  -16.5721   -2.6660   14.2358 N   0  0  0  0  0  0  0  0  0  0  0  0
  -20.4627   -9.2911   16.0942 O   0  5  0  0  0  0  0  0  0  0  0  0
  -15.3501   -3.2645   14.1980 C   0  0  2  0  0  0  0  0  0  0  0  0
  -14.3027   -2.5999   13.6438 N   0  0  0  0  0  0  0  0  0  0  0  0
  -19.5627  -11.3911   14.3003 O   0  0  0  0  0  0  0  0  0  0  0  0
  -15.1423   -4.5129   14.6987 N   0  0  0  0  0  0  0  0  0  0  0  0
  -16.1475   -5.2272   15.2569 C   0  0  2  0  0  0  0  0  0  0  0  0
  -17.4889   -4.6331   15.3292 C   0  0  2  0  0  0  0  0  0  0  0  0
  -17.6513   -3.2724   14.7742 C   0  0  0  0  0  0  0  0  0  0  0  0
  -18.8514   -2.6417   14.7985 O   0  0  0  0  0  0  0  0  0  0  0  0
  -18.2807   -5.5418   15.9323 N   0  0  0  0  0  0  0  0  0  0  0  0
  -17.5079   -6.6317   16.2186 C   0  0  0  0  0  0  0  0  0  0  0  0
  -16.2322   -6.4365   15.8145 N   0  0  1  0  0  0  0  0  0  0  0  0
  1  3  1  1  0  0  0
  1  4  2  0  0  0  0
  1  6  1  0  0  0  0
  1 22  1  0  0  0  0
  2 28  1  0  0  0  0
  2 35  1  1  0  0  0
  2 38  2  0  0  0  0
  2 10  1  0  0  0  0
  5  6  1  0  0  0  0
  7  5  1  1  0  0  0
  7  8  1  0  0  0  0
  7  9  1  0  0  0  0
  9 10  1  6  0  0  0
  9 11  1  0  0  0  0
 11 12  1  6  0  0  0
 11 13  1  0  0  0  0
 13  8  1  6  0  0  0
 13 33  1  0  0  0  0
 14 46  1  0  0  0  0
 14 17  1  0  0  0  0
 14 25  1  6  0  0  0
 15 16  1  0  0  0  0
 15 29  1  0  0  0  0
 16 18  1  6  0  0  0
 16 21  1  0  0  0  0
 17 19  1  6  0  0  0
 17 20  1  0  0  0  0
 20 22  1  1  0  0  0
 20 24  1  0  0  0  0
 23 21  1  6  0  0  0
 23 26  1  0  0  0  0
 23 33  1  0  0  0  0
 24 25  1  6  0  0  0
 24 27  1  0  0  0  0
 26 29  1  1  0  0  0
 26 31  1  0  0  0  0
 27 28  1  0  0  0  0
 29 30  2  0  0  0  0
 31 32  1  0  0  0  0
 33 32  1  1  0  0  0
 34 36  1  0  0  0  0
 34 42  1  0  0  0  0
 36 37  1  6  0  0  0
 36 39  1  0  0  0  0
 40 39  1  1  0  0  0
 40 41  1  0  0  0  0
 40 46  1  0  0  0  0
 41 42  1  1  0  0  0
 41 44  1  0  0  0  0
 42 43  2  0  0  0  0
 44 45  1  0  0  0  0
 46 45  1  6  0  0  0
M  CHG  2   3  -1  35  -1
M  END
>  <CHROM.1>
-80.30340024,125.97250931,-17.66592216,-8.50418319,18.41814007,-2.73780585
1.17284287,0.07661187

>  <Name>
ligand

>  <RI>
-1

>  <Rbt.Current_Directory>
/home/itssahil/PROJECTS/Mol_Feturizer/Test_systems_manuscript/rnas/3mum

>  <Rbt.Executable>
rbdock ($Id: //depot/dev/client3/rdock/2013.1/src/exe/rbdock.cxx#4 $)

>  <Rbt.Library>
libRbt.so (2013.1, Build901 2013/11/27)

>  <Rbt.Parameter_File>
/export/apps/rDock/src/rDock_2013.1_src/data/scripts/dock_solv.prm

>  <Rbt.Receptor>
prm/blind_docking_100.prm

>  <SCORE>
23.4951

>  <SCORE.INTER>
22.7377

>  <SCORE.INTER.CONST>
1

>  <SCORE.INTER.POLAR>
0

>  <SCORE.INTER.ROT>
2

>  <SCORE.INTER.SOLV>
43.1862

>  <SCORE.INTER.VDW>
-4.17028

>  <SCORE.INTER.norm>
0.494297

>  <SCORE.INTRA>
0.316754

>  <SCORE.INTRA.DIHEDRAL>
-0.0152816

>  <SCORE.INTRA.DIHEDRAL.0>
2.40424

>  <SCORE.INTRA.POLAR>
0

>  <SCORE.INTRA.POLAR.0>
0

>  <SCORE.INTRA.REPUL>
0

>  <SCORE.INTRA.REPUL.0>
0

>  <SCORE.INTRA.SOLV>
0.0354938

>  <SCORE.INTRA.SOLV.lig_0>
-134.169

>  <SCORE.INTRA.VDW>
0.306648

>  <SCORE.INTRA.VDW.0>
-2.18386

>  <SCORE.INTRA.norm>
0.00688595

>  <SCORE.RESTR>
0.440675

>  <SCORE.RESTR.CAVITY>
0.440675

>  <SCORE.RESTR.norm>
0.0095799

>  <SCORE.SYSTEM>
0

>  <SCORE.SYSTEM.CONST>
0

>  <SCORE.SYSTEM.DIHEDRAL>
0

>  <SCORE.SYSTEM.SOLV>
0

>  <SCORE.SYSTEM.norm>
0

>  <SCORE.heavy>
46

>  <SCORE.norm>
0.510763

>  <RMSD>
15.263

$$$$
ligand
 OpenBabel02271912143D
libRbt.so/2013.1/901 2013/11/27
 46 52  0  0  0  0  0  0  0  0999 V2000
  -14.9701  -10.0381   19.8696 P   0  0  1  0  0  0  0  0  0  0  0  0
  -19.2023  -10.5167   15.8031 P   0  0  2  0  0  0  0  0  0  0  0  0
  -14.9286   -8.3900   20.5204 O   0  5  0  0  0  0  0  0  0  0  0  0
  -13.8007  -11.1010   20.6955 O   0  0  0  0  0  0  0  0  0  0  0  0
  -16.8328  -11.8886   19.5093 C   0  0  0  0  0  0  0  0  0  0  0  0
  -16.4660  -10.6149   20.0400 O   0  0  0  0  0  0  0  0  0  0  0  0
  -18.3435  -11.9444   19.3861 C   0  0  1  0  0  0  0  0  0  0  0  0
  -18.9384  -11.6076   20.6474 O   0  0  0  0  0  0  0  0  0  0  0  0
  -18.9022  -10.9402   18.3911 C   0  0  1  0  0  0  0  0  0  0  0  0
  -19.0103  -11.4874   17.0789 O   0  0  0  0  0  0  0  0  0  0  0  0
  -20.2600  -10.5938   18.9762 C   0  0  1  0  0  0  0  0  0  0  0  0
  -21.2496  -11.5051   18.4920 O   0  0  0  0  0  0  0  0  0  0  0  0
  -20.1085  -10.7933   20.4728 C   0  0  2  0  0  0  0  0  0  0  0  0
  -15.1089   -7.3857   15.9424 C   0  0  1  0  0  0  0  0  0  0  0  0
  -20.1907   -8.0468   25.0162 N   0  0  0  0  0  0  0  0  0  0  0  0
  -20.4661   -9.3628   24.8047 C   0  0  1  0  0  0  0  0  0  0  0  0
  -14.9487   -7.8137   17.3737 C   0  0  2  0  0  0  0  0  0  0  0  0
  -20.8165  -10.1220   25.8685 N   0  0  0  0  0  0  0  0  0  0  0  0
  -13.5492   -7.7630   17.6565 O   0  0  0  0  0  0  0  0  0  0  0  0
  -15.4875   -9.2299   17.4158 C   0  0  2  0  0  0  0  0  0  0  0  0
  -20.4058   -9.9417   23.5686 N   0  0  0  0  0  0  0  0  0  0  0  0
  -14.7217  -10.0583   18.2800 O   0  0  0  0  0  0  0  0  0  0  0  0
  -20.0576   -9.2241   22.4707 C   0  0  2  0  0  0  0  0  0  0  0  0
  -15.3811   -9.7292   15.9883 C   0  0  2  0  0  0  0  0  0  0  0  0
  -15.3332   -8.5630   15.1679 O   0  0  0  0  0  0  0  0  0  0  0  0
  -19.7524   -7.7933   22.6439 C   0  0  1  0  0  0  0  0  0  0  0  0
  -16.5662  -10.5942   15.5738 C   0  0  0  0  0  0  0  0  0  0  0  0
  -17.7617   -9.8146   15.6464 O   0  0  0  0  0  0  0  0  0  0  0  0
  -19.8343   -7.2263   24.0018 C   0  0  0  0  0  0  0  0  0  0  0  0
  -19.5650   -5.9142   24.2211 O   0  0  0  0  0  0  0  0  0  0  0  0
  -19.4477   -7.3115   21.4339 N   0  0  0  0  0  0  0  0  0  0  0  0
  -19.5485   -8.3451   20.5478 C   0  0  0  0  0  0  0  0  0  0  0  0
  -19.9137   -9.4901   21.1620 N   0  0  1  0  0  0  0  0  0  0  0  0
  -16.5894   -2.6723   14.2220 N   0  0  0  0  0  0  0  0  0  0  0  0
  -20.4661   -9.2934   16.0982 O   0  5  0  0  0  0  0  0  0  0  0  0
  -15.3674   -3.2705   14.1804 C   0  0  2  0  0  0  0  0  0  0  0  0
  -14.3235   -2.6086   13.6165 N   0  0  0  0  0  0  0  0  0  0  0  0
  -19.5644  -11.3908   14.3021 O   0  0  0  0  0  0  0  0  0  0  0  0
  -15.1562   -4.5160   14.6869 N   0  0  0  0  0  0  0  0  0  0  0  0
  -16.1579   -5.2276   15.2547 C   0  0  2  0  0  0  0  0  0  0  0  0
  -17.4991   -4.6336   15.3316 C   0  0  2  0  0  0  0  0  0  0  0  0
  -17.6653   -3.2761   14.7699 C   0  0  0  0  0  0  0  0  0  0  0  0
  -18.8655   -2.6457   14.7977 O   0  0  0  0  0  0  0  0  0  0  0  0
  -18.2870   -5.5393   15.9442 N   0  0  0  0  0  0  0  0  0  0  0  0
  -17.5121   -6.6273   16.2320 C   0  0  0  0  0  0  0  0  0  0  0  0
  -16.2388   -6.4338   15.8195 N   0  0  1  0  0  0  0  0  0  0  0  0
  1  3  1  1  0  0  0
  1  4  2  0  0  0  0
  1  6  1  0  0  0  0
  1 22  1  0  0  0  0
  2 28  1  0  0  0  0
  2 35  1  1  0  0  0
  2 38  2  0  0  0  0
  2 10  1  0  0  0  0
  5  6  1  0  0  0  0
  7  5  1  1  0  0  0
  7  8  1  0  0  0  0
  7  9  1  0  0  0  0
  9 10  1  6  0  0  0
  9 11  1  0  0  0  0
 11 12  1  6  0  0  0
 11 13  1  0  0  0  0
 13  8  1  6  0  0  0
 13 33  1  0  0  0  0
 14 46  1  0  0  0  0
 14 17  1  0  0  0  0
 14 25  1  6  0  0  0
 15 16  1  0  0  0  0
 15 29  1  0  0  0  0
 16 18  1  6  0  0  0
 16 21  1  0  0  0  0
 17 19  1  6  0  0  0
 17 20  1  0  0  0  0
 20 22  1  1  0  0  0
 20 24  1  0  0  0  0
 23 21  1  6  0  0  0
 23 26  1  0  0  0  0
 23 33  1  0  0  0  0
 24 25  1  6  0  0  0
 24 27  1  0  0  0  0
 26 29  1  1  0  0  0
 26 31  1  0  0  0  0
 27 28  1  0  0  0  0
 29 30  2  0  0  0  0
 31 32  1  0  0  0  0
 33 32  1  1  0  0  0
 34 36  1  0  0  0  0
 34 42  1  0  0  0  0
 36 37  1  6  0  0  0
 36 39  1  0  0  0  0
 40 39  1  1  0  0  0
 40 41  1  0  0  0  0
 40 46  1  0  0  0  0
 41 42  1  1  0  0  0
 41 44  1  0  0  0  0
 42 43  2  0  0  0  0
 44 45  1  0  0  0  0
 46 45  1  6  0  0  0
M  CHG  2   3  -1  35  -1
M  END
>  <CHROM.1>
-80.51935197,126.45521815,-17.67111297,-8.50623212,18.41924432,-2.72694534
1.17184802,0.06463458

>  <Name>
ligand

>  <RI>
-1

>  <Rbt.Current_Directory>
/home/itssahil/PROJECTS/Mol_Feturizer/Test_systems_manuscript/rnas/3mum

>  <Rbt.Executable>
rbdock ($Id: //depot/dev/client3/rdock/2013.1/src/exe/rbdock.cxx#4 $)

>  <Rbt.Library>
libRbt.so (2013.1, Build901 2013/11/27)

>  <Rbt.Parameter_File>
/export/apps/rDock/src/rDock_2013.1_src/data/scripts/dock_solv.prm

>  <Rbt.Receptor>
prm/blind_docking_100.prm

>  <SCORE>
23.4977

>  <SCORE.INTER>
22.7425

>  <SCORE.INTER.CONST>
1

>  <SCORE.INTER.POLAR>
0

>  <SCORE.INTER.ROT>
2

>  <SCORE.INTER.SOLV>
43.2832

>  <SCORE.INTER.VDW>
-4.1994

>  <SCORE.INTER.norm>
0.494402

>  <SCORE.INTRA>
0.317534

>  <SCORE.INTRA.DIHEDRAL>
-0.0159664

>  <SCORE.INTRA.DIHEDRAL.0>
2.40424

>  <SCORE.INTRA.POLAR>
0

>  <SCORE.INTRA.POLAR.0>
0

>  <SCORE.INTRA.REPUL>
0

>  <SCORE.INTRA.REPUL.0>
0

>  <SCORE.INTRA.SOLV>
0.0339203

>  <SCORE.INTRA.SOLV.lig_0>
-134.169

>  <SCORE.INTRA.VDW>
0.308557

>  <SCORE.INTRA.VDW.0>
-2.18386

>  <SCORE.INTRA.norm>
0.0069029

>  <SCORE.RESTR>
0.43763

>  <SCORE.RESTR.CAVITY>
0.43763

>  <SCORE.RESTR.norm>
0.00951369

>  <SCORE.SYSTEM>
0

>  <SCORE.SYSTEM.CONST>
0

>  <SCORE.SYSTEM.DIHEDRAL>
0

>  <SCORE.SYSTEM.SOLV>
0

>  <SCORE.SYSTEM.norm>
0

>  <SCORE.heavy>
46

>  <SCORE.norm>
0.510818

>  <RMSD>
15.267

$$$$
ligand
 OpenBabel02271912143D
libRbt.so/2013.1/901 2013/11/27
 46 52  0  0  0  0  0  0  0  0999 V2000
  -14.9599  -10.0185   19.8928 P   0  0  1  0  0  0  0  0  0  0  0  0
  -19.1914  -10.5483   15.8321 P   0  0  2  0  0  0  0  0  0  0  0  0
  -14.9281   -8.3661   20.5334 O   0  5  0  0  0  0  0  0  0  0  0  0
  -13.7834  -11.0689   20.7245 O   0  0  0  0  0  0  0  0  0  0  0  0
  -16.8113  -11.8826   19.5453 C   0  0  0  0  0  0  0  0  0  0  0  0
  -16.4520  -10.6034   20.0678 O   0  0  0  0  0  0  0  0  0  0  0  0
  -18.3217  -11.9484   19.4233 C   0  0  1  0  0  0  0  0  0  0  0  0
  -18.9179  -11.6075   20.6828 O   0  0  0  0  0  0  0  0  0  0  0  0
  -18.8871  -10.9539   18.4225 C   0  0  1  0  0  0  0  0  0  0  0  0
  -18.9926  -11.5099   17.1137 O   0  0  0  0  0  0  0  0  0  0  0  0
  -20.2467  -10.6122   19.0063 C   0  0  1  0  0  0  0  0  0  0  0  0
  -21.2310  -11.5326   18.5283 O   0  0  0  0  0  0  0  0  0  0  0  0
  -20.0931  -10.8015   20.5040 C   0  0  2  0  0  0  0  0  0  0  0  0
  -15.1173   -7.3914   15.9494 C   0  0  1  0  0  0  0  0  0  0  0  0
  -20.2231   -8.0198   25.0248 N   0  0  0  0  0  0  0  0  0  0  0  0
  -20.4957   -9.3375   24.8208 C   0  0  1  0  0  0  0  0  0  0  0  0
  -14.9536   -7.8095   17.3831 C   0  0  2  0  0  0  0  0  0  0  0  0
  -20.8567  -10.0885   25.8868 N   0  0  0  0  0  0  0  0  0  0  0  0
  -13.5543   -7.7484   17.6648 O   0  0  0  0  0  0  0  0  0  0  0  0
  -15.4836   -9.2287   17.4344 C   0  0  2  0  0  0  0  0  0  0  0  0
  -20.4225   -9.9259   23.5899 N   0  0  0  0  0  0  0  0  0  0  0  0
  -14.7122  -10.0469   18.3032 O   0  0  0  0  0  0  0  0  0  0  0  0
  -20.0634   -9.2168   22.4900 C   0  0  2  0  0  0  0  0  0  0  0  0
  -15.3751   -9.7362   16.0100 C   0  0  2  0  0  0  0  0  0  0  0  0
  -15.3348   -8.5748   15.1823 O   0  0  0  0  0  0  0  0  0  0  0  0
  -19.7605   -7.7845   22.6552 C   0  0  1  0  0  0  0  0  0  0  0  0
  -16.5551  -10.6110   15.6016 C   0  0  0  0  0  0  0  0  0  0  0  0
  -17.7552   -9.8384   15.6702 O   0  0  0  0  0  0  0  0  0  0  0  0
  -19.8566   -7.2070   24.0077 C   0  0  0  0  0  0  0  0  0  0  0  0
  -19.5901   -5.8931   24.2195 O   0  0  0  0  0  0  0  0  0  0  0  0
  -19.4436   -7.3120   21.4446 N   0  0  0  0  0  0  0  0  0  0  0  0
  -19.5350   -8.3525   20.5656 C   0  0  0  0  0  0  0  0  0  0  0  0
  -19.9060   -9.4928   21.1849 N   0  0  1  0  0  0  0  0  0  0  0  0
  -16.6229   -2.6894   14.2194 N   0  0  0  0  0  0  0  0  0  0  0  0
  -20.4625   -9.3310   16.1204 O   0  5  0  0  0  0  0  0  0  0  0  0
  -15.3967   -3.2794   14.1831 C   0  0  2  0  0  0  0  0  0  0  0  0
  -14.3551   -2.6108   13.6228 N   0  0  0  0  0  0  0  0  0  0  0  0
  -19.5490  -11.4339   14.3368 O   0  0  0  0  0  0  0  0  0  0  0  0
  -15.1791   -4.5230   14.6914 N   0  0  0  0  0  0  0  0  0  0  0  0
  -16.1781   -5.2409   15.2559 C   0  0  2  0  0  0  0  0  0  0  0  0
  -17.5237   -4.6560   15.3270 C   0  0  2  0  0  0  0  0  0  0  0  0
  -17.6968   -3.3000   14.7636 C   0  0  0  0  0  0  0  0  0  0  0  0
  -18.9014   -2.6778   14.7862 O   0  0  0  0  0  0  0  0  0  0  0  0
  -18.3078   -5.5665   15.9372 N   0  0  0  0  0  0  0  0  0  0  0  0
  -17.5267   -6.6490   16.2290 C   0  0  0  0  0  0  0  0  0  0  0  0
  -16.2532   -6.4472   15.8213 N   0  0  1  0  0  0  0  0  0  0  0  0
  1  3  1  1  0  0  0
  1  4  2  0  0  0  0
  1  6  1  0  0  0  0
  1 22  1  0  0  0  0
  2 28  1  0  0  0  0
  2 35  1  1  0  0  0
  2 38  2  0  0  0  0
  2 10  1  0  0  0  0
  5  6  1  0  0  0  0
  7  5  1  1  0  0  0
  7  8  1  0  0  0  0
  7  9  1  0  0  0  0
  9 10  1  6  0  0  0
  9 11  1  0  0  0  0
 11 12  1  6  0  0  0
 11 13  1  0  0  0  0
 13  8  1  6  0  0  0
 13 33  1  0  0  0  0
 14 46  1  0  0  0  0
 14 17  1  0  0  0  0
 14 25  1  6  0  0  0
 15 16  1  0  0  0  0
 15 29  1  0  0  0  0
 16 18  1  6  0  0  0
 16 21  1  0  0  0  0
 17 19  1  6  0  0  0
 17 20  1  0  0  0  0
 20 22  1  1  0  0  0
 20 24  1  0  0  0  0
 23 21  1  6  0  0  0
 23 26  1  0  0  0  0
 23 33  1  0  0  0  0
 24 25  1  6  0  0  0
 24 27  1  0  0  0  0
 26 29  1  1  0  0  0
 26 31  1  0  0  0  0
 27 28  1  0  0  0  0
 29 30  2  0  0  0  0
 31 32  1  0  0  0  0
 33 32  1  1  0  0  0
 34 36  1  0  0  0  0
 34 42  1  0  0  0  0
 36 37  1  6  0  0  0
 36 39  1  0  0  0  0
 40 39  1  1  0  0  0
 40 41  1  0  0  0  0
 40 46  1  0  0  0  0
 41 42  1  1  0  0  0
 41 44  1  0  0  0  0
 42 43  2  0  0  0  0
 44 45  1  0  0  0  0
 46 45  1  6  0  0  0
M  CHG  2   3  -1  35  -1
M  END
>  <CHROM.1>
-81.22844031,126.04752682,-17.67415847,-8.51049290,18.43618475,-2.70651930
1.16836773,0.03878539

>  <Name>
ligand

>  <RI>
0

>  <Rbt.Current_Directory>
/home/itssahil/PROJECTS/Mol_Feturizer/Test_systems_manuscript/rnas/3mum

>  <Rbt.Executable>
rbdock ($Id: //depot/dev/client3/rdock/2013.1/src/exe/rbdock.cxx#4 $)

>  <Rbt.Library>
libRbt.so (2013.1, Build901 2013/11/27)

>  <Rbt.Parameter_File>
/export/apps/rDock/src/rDock_2013.1_src/data/scripts/dock_solv.prm

>  <Rbt.Receptor>
prm/blind_docking_60.prm

>  <SCORE>
23.4823

>  <SCORE.INTER>
22.7392

>  <SCORE.INTER.CONST>
1

>  <SCORE.INTER.POLAR>
0

>  <SCORE.INTER.ROT>
2

>  <SCORE.INTER.SOLV>
43.1888

>  <SCORE.INTER.VDW>
-4.17014

>  <SCORE.INTER.norm>
0.49433

>  <SCORE.INTRA>
0.303556

>  <SCORE.INTRA.DIHEDRAL>
-0.0154663

>  <SCORE.INTRA.DIHEDRAL.0>
2.40424

>  <SCORE.INTRA.POLAR>
0

>  <SCORE.INTRA.POLAR.0>
0

>  <SCORE.INTRA.REPUL>
0

>  <SCORE.INTRA.REPUL.0>
0

>  <SCORE.INTRA.SOLV>
0.0341331

>  <SCORE.INTRA.SOLV.lig_0>
-134.169

>  <SCORE.INTRA.VDW>
0.294223

>  <SCORE.INTRA.VDW.0>
-2.18386

>  <SCORE.INTRA.norm>
0.00659904

>  <SCORE.RESTR>
0.439562

>  <SCORE.RESTR.CAVITY>
0.439562

>  <SCORE.RESTR.norm>
0.00955571

>  <SCORE.SYSTEM>
0

>  <SCORE.SYSTEM.CONST>
0

>  <SCORE.SYSTEM.DIHEDRAL>
0

>  <SCORE.SYSTEM.SOLV>
0

>  <SCORE.SYSTEM.norm>
0

>  <SCORE.heavy>
46

>  <SCORE.norm>
0.510485

>  <RMSD>
15.273

$$$$
ligand
 OpenBabel02271912143D
libRbt.so/2013.1/901 2013/11/27
 46 52  0  0  0  0  0  0  0  0999 V2000
  -14.9718  -10.0252   19.8230 P   0  0  1  0  0  0  0  0  0  0  0  0
  -19.2353  -10.5466   15.7948 P   0  0  2  0  0  0  0  0  0  0  0  0
  -14.9343   -8.3738   20.4661 O   0  5  0  0  0  0  0  0  0  0  0  0
  -13.7893  -11.0775   20.6438 O   0  0  0  0  0  0  0  0  0  0  0  0
  -16.8267  -11.8879   19.4870 C   0  0  0  0  0  0  0  0  0  0  0  0
  -16.4628  -10.6097   20.0088 O   0  0  0  0  0  0  0  0  0  0  0  0
  -18.3381  -11.9529   19.3769 C   0  0  1  0  0  0  0  0  0  0  0  0
  -18.9242  -11.6138   20.6416 O   0  0  0  0  0  0  0  0  0  0  0  0
  -18.9109  -10.9565   18.3821 C   0  0  1  0  0  0  0  0  0  0  0  0
  -19.0269  -11.5103   17.0733 O   0  0  0  0  0  0  0  0  0  0  0  0
  -20.2657  -10.6152   18.9771 C   0  0  1  0  0  0  0  0  0  0  0  0
  -21.2541  -11.5344   18.5054 O   0  0  0  0  0  0  0  0  0  0  0  0
  -20.1004  -10.8069   20.4732 C   0  0  2  0  0  0  0  0  0  0  0  0
  -15.1590   -7.3916   15.8852 C   0  0  1  0  0  0  0  0  0  0  0  0
  -20.1678   -8.0384   25.0035 N   0  0  0  0  0  0  0  0  0  0  0  0
  -20.4385   -9.3567   24.8002 C   0  0  1  0  0  0  0  0  0  0  0  0
  -14.9842   -7.8121   17.3170 C   0  0  2  0  0  0  0  0  0  0  0  0
  -20.7792  -10.1121   25.8697 N   0  0  0  0  0  0  0  0  0  0  0  0
  -13.5827   -7.7521   17.5877 O   0  0  0  0  0  0  0  0  0  0  0  0
  -15.5145   -9.2312   17.3701 C   0  0  2  0  0  0  0  0  0  0  0  0
  -20.3830   -9.9414   23.5666 N   0  0  0  0  0  0  0  0  0  0  0  0
  -14.7367  -10.0512   18.2315 O   0  0  0  0  0  0  0  0  0  0  0  0
  -20.0446   -9.2277   22.4630 C   0  0  2  0  0  0  0  0  0  0  0  0
  -15.4173   -9.7364   15.9441 C   0  0  2  0  0  0  0  0  0  0  0  0
  -15.3831   -8.5738   15.1180 O   0  0  0  0  0  0  0  0  0  0  0  0
  -19.7447   -7.7947   22.6274 C   0  0  1  0  0  0  0  0  0  0  0  0
  -16.6009  -10.6101   15.5436 C   0  0  0  0  0  0  0  0  0  0  0  0
  -17.8001   -9.8370   15.6228 O   0  0  0  0  0  0  0  0  0  0  0  0
  -19.8211   -7.2213   23.9829 C   0  0  0  0  0  0  0  0  0  0  0  0
  -19.5563   -5.9070   24.1942 O   0  0  0  0  0  0  0  0  0  0  0  0
  -19.4494   -7.3176   21.4132 N   0  0  0  0  0  0  0  0  0  0  0  0
  -19.5510   -8.3559   20.5328 C   0  0  0  0  0  0  0  0  0  0  0  0
  -19.9074   -9.4995   21.1548 N   0  0  1  0  0  0  0  0  0  0  0  0
  -16.6726   -2.6805   14.1875 N   0  0  0  0  0  0  0  0  0  0  0  0
  -20.5036   -9.3292   16.0951 O   0  5  0  0  0  0  0  0  0  0  0  0
  -15.4466   -3.2703   14.1422 C   0  0  2  0  0  0  0  0  0  0  0  0
  -14.4077   -2.5987   13.5805 N   0  0  0  0  0  0  0  0  0  0  0  0
  -19.6050  -11.4296   14.3010 O   0  0  0  0  0  0  0  0  0  0  0  0
  -15.2266   -4.5166   14.6428 N   0  0  0  0  0  0  0  0  0  0  0  0
  -16.2230   -5.2375   15.2083 C   0  0  2  0  0  0  0  0  0  0  0  0
  -17.5682   -4.6529   15.2889 C   0  0  2  0  0  0  0  0  0  0  0  0
  -17.7439   -3.2939   14.7336 C   0  0  0  0  0  0  0  0  0  0  0  0
  -18.9483   -2.6718   14.7652 O   0  0  0  0  0  0  0  0  0  0  0  0
  -18.3494   -5.5666   15.8980 N   0  0  0  0  0  0  0  0  0  0  0  0
  -17.5670   -6.6507   16.1802 C   0  0  0  0  0  0  0  0  0  0  0  0
  -16.2954   -6.4468   15.7675 N   0  0  1  0  0  0  0  0  0  0  0  0
  1  3  1  1  0  0  0
  1  4  2  0  0  0  0
  1  6  1  0  0  0  0
  1 22  1  0  0  0  0
  2 28  1  0  0  0  0
  2 35  1  1  0  0  0
  2 38  2  0  0  0  0
  2 10  1  0  0  0  0
  5  6  1  0  0  0  0
  7  5  1  1  0  0  0
  7  8  1  0  0  0  0
  7  9  1  0  0  0  0
  9 10  1  6  0  0  0
  9 11  1  0  0  0  0
 11 12  1  6  0  0  0
 11 13  1  0  0  0  0
 13  8  1  6  0  0  0
 13 33  1  0  0  0  0
 14 46  1  0  0  0  0
 14 17  1  0  0  0  0
 14 25  1  6  0  0  0
 15 16  1  0  0  0  0
 15 29  1  0  0  0  0
 16 18  1  6  0  0  0
 16 21  1  0  0  0  0
 17 19  1  6  0  0  0
 17 20  1  0  0  0  0
 20 22  1  1  0  0  0
 20 24  1  0  0  0  0
 23 21  1  6  0  0  0
 23 26  1  0  0  0  0
 23 33  1  0  0  0  0
 24 25  1  6  0  0  0
 24 27  1  0  0  0  0
 26 29  1  1  0  0  0
 26 31  1  0  0  0  0
 27 28  1  0  0  0  0
 29 30  2  0  0  0  0
 31 32  1  0  0  0  0
 33 32  1  1  0  0  0
 34 36  1  0  0  0  0
 34 42  1  0  0  0  0
 36 37  1  6  0  0  0
 36 39  1  0  0  0  0
 40 39  1  1  0  0  0
 40 41  1  0  0  0  0
 40 46  1  0  0  0  0
 41 42  1  1  0  0  0
 41 44  1  0  0  0  0
 42 43  2  0  0  0  0
 44 45  1  0  0  0  0
 46 45  1  6  0  0  0
M  CHG  2   3  -1  35  -1
M  END
>  <CHROM.1>
-80.68129936,125.77117783,-17.69358656,-8.51367430,18.39204995,-2.71870536
1.17975477,0.05477813

>  <Name>
ligand

>  <RI>
-1

>  <Rbt.Current_Directory>
/home/itssahil/PROJECTS/Mol_Feturizer/Test_systems_manuscript/rnas/3mum

>  <Rbt.Executable>
rbdock ($Id: //depot/dev/client3/rdock/2013.1/src/exe/rbdock.cxx#4 $)

>  <Rbt.Library>
libRbt.so (2013.1, Build901 2013/11/27)

>  <Rbt.Parameter_File>
/export/apps/rDock/src/rDock_2013.1_src/data/scripts/dock_solv.prm

>  <Rbt.Receptor>
prm/blind_docking_80.prm

>  <SCORE>
23.7005

>  <SCORE.INTER>
22.7875

>  <SCORE.INTER.CONST>
1

>  <SCORE.INTER.POLAR>
0

>  <SCORE.INTER.ROT>
2

>  <SCORE.INTER.SOLV>
43.4652

>  <SCORE.INTER.VDW>
-4.23008

>  <SCORE.INTER.norm>
0.49538

>  <SCORE.INTRA>
0.309536

>  <SCORE.INTRA.DIHEDRAL>
-0.0150366

>  <SCORE.INTRA.DIHEDRAL.0>
2.40424

>  <SCORE.INTRA.POLAR>
0

>  <SCORE.INTRA.POLAR.0>
0

>  <SCORE.INTRA.REPUL>
0

>  <SCORE.INTRA.REPUL.0>
0

>  <SCORE.INTRA.SOLV>
0.035555

>  <SCORE.INTRA.SOLV.lig_0>
-134.169

>  <SCORE.INTRA.VDW>
0.299277

>  <SCORE.INTRA.VDW.0>
-2.18386

>  <SCORE.INTRA.norm>
0.00672905

>  <SCORE.RESTR>
0.603472

>  <SCORE.RESTR.CAVITY>
0.603472

>  <SCORE.RESTR.norm>
0.0131189

>  <SCORE.SYSTEM>
0

>  <SCORE.SYSTEM.CONST>
0

>  <SCORE.SYSTEM.DIHEDRAL>
0

>  <SCORE.SYSTEM.SOLV>
0

>  <SCORE.SYSTEM.norm>
0

>  <SCORE.heavy>
46

>  <SCORE.norm>
0.515228

>  <RMSD>
15.283

$$$$
ligand
 OpenBabel02271912143D
libRbt.so/2013.1/901 2013/11/27
 46 52  0  0  0  0  0  0  0  0999 V2000
  -14.9630  -10.0178   19.8570 P   0  0  1  0  0  0  0  0  0  0  0  0
  -19.2023  -10.5812   15.8089 P   0  0  2  0  0  0  0  0  0  0  0  0
  -14.9405   -8.3644   20.4955 O   0  5  0  0  0  0  0  0  0  0  0  0
  -13.7771  -11.0593   20.6867 O   0  0  0  0  0  0  0  0  0  0  0  0
  -16.8028  -11.8948   19.5170 C   0  0  0  0  0  0  0  0  0  0  0  0
  -16.4506  -10.6125   20.0369 O   0  0  0  0  0  0  0  0  0  0  0  0
  -18.3131  -11.9709   19.3995 C   0  0  1  0  0  0  0  0  0  0  0  0
  -18.9080  -11.6324   20.6602 O   0  0  0  0  0  0  0  0  0  0  0  0
  -18.8880  -10.9815   18.3990 C   0  0  1  0  0  0  0  0  0  0  0  0
  -18.9935  -11.5398   17.0912 O   0  0  0  0  0  0  0  0  0  0  0  0
  -20.2482  -10.6482   18.9862 C   0  0  1  0  0  0  0  0  0  0  0  0
  -21.2276  -11.5758   18.5122 O   0  0  0  0  0  0  0  0  0  0  0  0
  -20.0890  -10.8345   20.4837 C   0  0  2  0  0  0  0  0  0  0  0  0
  -15.1492   -7.3969   15.9107 C   0  0  1  0  0  0  0  0  0  0  0  0
  -20.1981   -8.0539   25.0058 N   0  0  0  0  0  0  0  0  0  0  0  0
  -20.4581   -9.3747   24.8049 C   0  0  1  0  0  0  0  0  0  0  0  0
  -14.9786   -7.8120   17.3446 C   0  0  2  0  0  0  0  0  0  0  0  0
  -20.7983  -10.1296   25.8750 N   0  0  0  0  0  0  0  0  0  0  0  0
  -13.5790   -7.7412   17.6222 O   0  0  0  0  0  0  0  0  0  0  0  0
  -15.4990   -9.2347   17.3991 C   0  0  2  0  0  0  0  0  0  0  0  0
  -20.3926   -9.9624   23.5732 N   0  0  0  0  0  0  0  0  0  0  0  0
  -14.7196  -10.0466   18.2668 O   0  0  0  0  0  0  0  0  0  0  0  0
  -20.0542   -9.2493   22.4693 C   0  0  2  0  0  0  0  0  0  0  0  0
  -15.3910   -9.7433   15.9750 C   0  0  2  0  0  0  0  0  0  0  0  0
  -15.3609   -8.5828   15.1458 O   0  0  0  0  0  0  0  0  0  0  0  0
  -19.7656   -7.8137   22.6310 C   0  0  1  0  0  0  0  0  0  0  0  0
  -16.5663  -10.6265   15.5711 C   0  0  0  0  0  0  0  0  0  0  0  0
  -17.7714   -9.8619   15.6421 O   0  0  0  0  0  0  0  0  0  0  0  0
  -19.8525   -7.2372   23.9845 C   0  0  0  0  0  0  0  0  0  0  0  0
  -19.5984   -5.9204   24.1933 O   0  0  0  0  0  0  0  0  0  0  0  0
  -19.4681   -7.3379   21.4168 N   0  0  0  0  0  0  0  0  0  0  0  0
  -19.5579   -8.3794   20.5389 C   0  0  0  0  0  0  0  0  0  0  0  0
  -19.9088   -9.5238   21.1625 N   0  0  1  0  0  0  0  0  0  0  0  0
  -16.6938   -2.7117   14.1696 N   0  0  0  0  0  0  0  0  0  0  0  0
  -20.4808   -9.3721   16.0994 O   0  5  0  0  0  0  0  0  0  0  0  0
  -15.4640   -3.2940   14.1294 C   0  0  2  0  0  0  0  0  0  0  0  0
  -14.4296   -2.6210   13.5610 N   0  0  0  0  0  0  0  0  0  0  0  0
  -19.5582  -11.4712   14.3158 O   0  0  0  0  0  0  0  0  0  0  0  0
  -15.2358   -4.5341   14.6415 N   0  0  0  0  0  0  0  0  0  0  0  0
  -16.2273   -5.2561   15.2141 C   0  0  2  0  0  0  0  0  0  0  0  0
  -17.5762   -4.6795   15.2897 C   0  0  2  0  0  0  0  0  0  0  0  0
  -17.7609   -3.3269   14.7218 C   0  0  0  0  0  0  0  0  0  0  0  0
  -18.9693   -2.7124   14.7480 O   0  0  0  0  0  0  0  0  0  0  0  0
  -18.3514   -5.5925   15.9076 N   0  0  0  0  0  0  0  0  0  0  0  0
  -17.5619   -6.6688   16.1997 C   0  0  0  0  0  0  0  0  0  0  0  0
  -16.2917   -6.4605   15.7847 N   0  0  1  0  0  0  0  0  0  0  0  0
  1  3  1  1  0  0  0
  1  4  2  0  0  0  0
  1  6  1  0  0  0  0
  1 22  1  0  0  0  0
  2 28  1  0  0  0  0
  2 35  1  1  0  0  0
  2 38  2  0  0  0  0
  2 10  1  0  0  0  0
  5  6  1  0  0  0  0
  7  5  1  1  0  0  0
  7  8  1  0  0  0  0
  7  9  1  0  0  0  0
  9 10  1  6  0  0  0
  9 11  1  0  0  0  0
 11 12  1  6  0  0  0
 11 13  1  0  0  0  0
 13  8  1  6  0  0  0
 13 33  1  0  0  0  0
 14 46  1  0  0  0  0
 14 17  1  0  0  0  0
 14 25  1  6  0  0  0
 15 16  1  0  0  0  0
 15 29  1  0  0  0  0
 16 18  1  6  0  0  0
 16 21  1  0  0  0  0
 17 19  1  6  0  0  0
 17 20  1  0  0  0  0
 20 22  1  1  0  0  0
 20 24  1  0  0  0  0
 23 21  1  6  0  0  0
 23 26  1  0  0  0  0
 23 33  1  0  0  0  0
 24 25  1  6  0  0  0
 24 27  1  0  0  0  0
 26 29  1  1  0  0  0
 26 31  1  0  0  0  0
 27 28  1  0  0  0  0
 29 30  2  0  0  0  0
 31 32  1  0  0  0  0
 33 32  1  1  0  0  0
 34 36  1  0  0  0  0
 34 42  1  0  0  0  0
 36 37  1  6  0  0  0
 36 39  1  0  0  0  0
 40 39  1  1  0  0  0
 40 41  1  0  0  0  0
 40 46  1  0  0  0  0
 41 42  1  1  0  0  0
 41 44  1  0  0  0  0
 42 43  2  0  0  0  0
 44 45  1  0  0  0  0
 46 45  1  6  0  0  0
M  CHG  2   3  -1  35  -1
M  END
>  <CHROM.1>
-80.65975870,126.25535896,-17.68880898,-8.53108882,18.40561907,-2.69443581
1.17502242,0.02753812

>  <Name>
ligand

>  <RI>
0

>  <Rbt.Current_Directory>
/home/itssahil/PROJECTS/Mol_Feturizer/Test_systems_manuscript/rnas/3mum

>  <Rbt.Executable>
rbdock ($Id: //depot/dev/client3/rdock/2013.1/src/exe/rbdock.cxx#4 $)

>  <Rbt.Library>
libRbt.so (2013.1, Build901 2013/11/27)

>  <Rbt.Parameter_File>
/export/apps/rDock/src/rDock_2013.1_src/data/scripts/dock_solv.prm

>  <Rbt.Receptor>
prm/blind_docking_60.prm

>  <SCORE>
23.4748

>  <SCORE.INTER>
22.7101

>  <SCORE.INTER.CONST>
1

>  <SCORE.INTER.POLAR>
0

>  <SCORE.INTER.ROT>
2

>  <SCORE.INTER.SOLV>
43.4647

>  <SCORE.INTER.VDW>
-4.2815

>  <SCORE.INTER.norm>
0.493697

>  <SCORE.INTRA>
0.313794

>  <SCORE.INTRA.DIHEDRAL>
-0.0157041

>  <SCORE.INTRA.DIHEDRAL.0>
2.40424

>  <SCORE.INTRA.POLAR>
0

>  <SCORE.INTRA.POLAR.0>
0

>  <SCORE.INTRA.REPUL>
0

>  <SCORE.INTRA.REPUL.0>
0

>  <SCORE.INTRA.SOLV>
0.034287

>  <SCORE.INTRA.SOLV.lig_0>
-134.169

>  <SCORE.INTRA.VDW>
0.304503

>  <SCORE.INTRA.VDW.0>
-2.18386

>  <SCORE.INTRA.norm>
0.00682161

>  <SCORE.RESTR>
0.450902

>  <SCORE.RESTR.CAVITY>
0.450902

>  <SCORE.RESTR.norm>
0.00980223

>  <SCORE.SYSTEM>
0

>  <SCORE.SYSTEM.CONST>
0

>  <SCORE.SYSTEM.DIHEDRAL>
0

>  <SCORE.SYSTEM.SOLV>
0

>  <SCORE.SYSTEM.norm>
0

>  <SCORE.heavy>
46

>  <SCORE.norm>
0.510321

>  <RMSD>
15.291

$$$$
ligand
 OpenBabel02271912143D
libRbt.so/2013.1/901 2013/11/27
 46 52  0  0  0  0  0  0  0  0999 V2000
  -14.9624  -10.0153   19.8488 P   0  0  1  0  0  0  0  0  0  0  0  0
  -19.2137  -10.5799   15.8135 P   0  0  2  0  0  0  0  0  0  0  0  0
  -14.9377   -8.3616   20.4864 O   0  5  0  0  0  0  0  0  0  0  0  0
  -13.7744  -11.0567   20.6756 O   0  0  0  0  0  0  0  0  0  0  0  0
  -16.8036  -11.8920   19.5152 C   0  0  0  0  0  0  0  0  0  0  0  0
  -16.4497  -10.6096   20.0334 O   0  0  0  0  0  0  0  0  0  0  0  0
  -18.3143  -11.9679   19.4021 C   0  0  1  0  0  0  0  0  0  0  0  0
  -18.9054  -11.6286   20.6644 O   0  0  0  0  0  0  0  0  0  0  0  0
  -18.8919  -10.9789   18.4028 C   0  0  1  0  0  0  0  0  0  0  0  0
  -19.0013  -11.5378   17.0956 O   0  0  0  0  0  0  0  0  0  0  0  0
  -20.2503  -10.6449   18.9938 C   0  0  1  0  0  0  0  0  0  0  0  0
  -21.2313  -11.5726   18.5232 O   0  0  0  0  0  0  0  0  0  0  0  0
  -20.0868  -10.8306   20.4909 C   0  0  2  0  0  0  0  0  0  0  0  0
  -15.1596   -7.3964   15.9018 C   0  0  1  0  0  0  0  0  0  0  0  0
  -20.2020   -8.0432   25.0087 N   0  0  0  0  0  0  0  0  0  0  0  0
  -20.4662   -9.3633   24.8087 C   0  0  1  0  0  0  0  0  0  0  0  0
  -14.9849   -7.8108   17.3353 C   0  0  2  0  0  0  0  0  0  0  0  0
  -20.8129  -10.1155   25.8786 N   0  0  0  0  0  0  0  0  0  0  0  0
  -13.5845   -7.7402   17.6088 O   0  0  0  0  0  0  0  0  0  0  0  0
  -15.5055   -9.2333   17.3921 C   0  0  2  0  0  0  0  0  0  0  0  0
  -20.3983   -9.9530   23.5781 N   0  0  0  0  0  0  0  0  0  0  0  0
  -14.7238  -10.0450   18.2579 O   0  0  0  0  0  0  0  0  0  0  0  0
  -20.0534   -9.2427   22.4744 C   0  0  2  0  0  0  0  0  0  0  0  0
  -15.4018   -9.7427   15.9680 C   0  0  2  0  0  0  0  0  0  0  0  0
  -15.3738   -8.5826   15.1381 O   0  0  0  0  0  0  0  0  0  0  0  0
  -19.7602   -7.8079   22.6351 C   0  0  1  0  0  0  0  0  0  0  0  0
  -16.5784  -10.6259   15.5680 C   0  0  0  0  0  0  0  0  0  0  0  0
  -17.7831   -9.8609   15.6420 O   0  0  0  0  0  0  0  0  0  0  0  0
  -19.8499   -7.2291   23.9875 C   0  0  0  0  0  0  0  0  0  0  0  0
  -19.5918   -5.9130   24.1954 O   0  0  0  0  0  0  0  0  0  0  0  0
  -19.4566   -7.3349   21.4214 N   0  0  0  0  0  0  0  0  0  0  0  0
  -19.5470   -8.3773   20.5446 C   0  0  0  0  0  0  0  0  0  0  0  0
  -19.9043   -9.5195   21.1685 N   0  0  1  0  0  0  0  0  0  0  0  0
  -16.7114   -2.7172   14.1510 N   0  0  0  0  0  0  0  0  0  0  0  0
  -20.4911   -9.3703   16.1070 O   0  5  0  0  0  0  0  0  0  0  0  0
  -15.4823   -3.3003   14.1060 C   0  0  2  0  0  0  0  0  0  0  0  0
  -14.4507   -2.6303   13.5290 N   0  0  0  0  0  0  0  0  0  0  0  0
  -19.5742  -11.4705   14.3219 O   0  0  0  0  0  0  0  0  0  0  0  0
  -15.2519   -4.5386   14.6218 N   0  0  0  0  0  0  0  0  0  0  0  0
  -16.2405   -5.2577   15.2028 C   0  0  2  0  0  0  0  0  0  0  0  0
  -17.5886   -4.6800   15.2840 C   0  0  2  0  0  0  0  0  0  0  0  0
  -17.7758   -3.3296   14.7118 C   0  0  0  0  0  0  0  0  0  0  0  0
  -18.9836   -2.7142   14.7425 O   0  0  0  0  0  0  0  0  0  0  0  0
  -18.3607   -5.5901   15.9100 N   0  0  0  0  0  0  0  0  0  0  0  0
  -17.5702   -6.6657   16.2018 C   0  0  0  0  0  0  0  0  0  0  0  0
  -16.3023   -6.4598   15.7786 N   0  0  1  0  0  0  0  0  0  0  0  0
  1  3  1  1  0  0  0
  1  4  2  0  0  0  0
  1  6  1  0  0  0  0
  1 22  1  0  0  0  0
  2 28  1  0  0  0  0
  2 35  1  1  0  0  0
  2 38  2  0  0  0  0
  2 10  1  0  0  0  0
  5  6  1  0  0  0  0
  7  5  1  1  0  0  0
  7  8  1  0  0  0  0
  7  9  1  0  0  0  0
  9 10  1  6  0  0  0
  9 11  1  0  0  0  0
 11 12  1  6  0  0  0
 11 13  1  0  0  0  0
 13  8  1  6  0  0  0
 13 33  1  0  0  0  0
 14 46  1  0  0  0  0
 14 17  1  0  0  0  0
 14 25  1  6  0  0  0
 15 16  1  0  0  0  0
 15 29  1  0  0  0  0
 16 18  1  6  0  0  0
 16 21  1  0  0  0  0
 17 19  1  6  0  0  0
 17 20  1  0  0  0  0
 20 22  1  1  0  0  0
 20 24  1  0  0  0  0
 23 21  1  6  0  0  0
 23 26  1  0  0  0  0
 23 33  1  0  0  0  0
 24 25  1  6  0  0  0
 24 27  1  0  0  0  0
 26 29  1  1  0  0  0
 26 31  1  0  0  0  0
 27 28  1  0  0  0  0
 29 30  2  0  0  0  0
 31 32  1  0  0  0  0
 33 32  1  1  0  0  0
 34 36  1  0  0  0  0
 34 42  1  0  0  0  0
 36 37  1  6  0  0  0
 36 39  1  0  0  0  0
 40 39  1  1  0  0  0
 40 41  1  0  0  0  0
 40 46  1  0  0  0  0
 41 42  1  1  0  0  0
 41 44  1  0  0  0  0
 42 43  2  0  0  0  0
 44 45  1  0  0  0  0
 46 45  1  6  0  0  0
M  CHG  2   3  -1  35  -1
M  END
>  <CHROM.1>
-81.08318760,126.51197678,-17.69468787,-8.52885825,18.40303028,-2.68698480
1.17508101,0.01755889

>  <Name>
ligand

>  <RI>
-1

>  <Rbt.Current_Directory>
/home/itssahil/PROJECTS/Mol_Feturizer/Test_systems_manuscript/rnas/3mum

>  <Rbt.Executable>
rbdock ($Id: //depot/dev/client3/rdock/2013.1/src/exe/rbdock.cxx#4 $)

>  <Rbt.Library>
libRbt.so (2013.1, Build901 2013/11/27)

>  <Rbt.Parameter_File>
/export/apps/rDock/src/rDock_2013.1_src/data/scripts/dock_solv.prm

>  <Rbt.Receptor>
prm/blind_docking_40.prm

>  <SCORE>
23.8021

>  <SCORE.INTER>
22.7217

>  <SCORE.INTER.CONST>
1

>  <SCORE.INTER.POLAR>
0

>  <SCORE.INTER.ROT>
2

>  <SCORE.INTER.SOLV>
43.6106

>  <SCORE.INTER.VDW>
-4.32237

>  <SCORE.INTER.norm>
0.493951

>  <SCORE.INTRA>
0.309581

>  <SCORE.INTRA.DIHEDRAL>
-0.0160934

>  <SCORE.INTRA.DIHEDRAL.0>
2.40424

>  <SCORE.INTRA.POLAR>
0

>  <SCORE.INTRA.POLAR.0>
0

>  <SCORE.INTRA.REPUL>
0

>  <SCORE.INTRA.REPUL.0>
0

>  <SCORE.INTRA.SOLV>
0.0330581

>  <SCORE.INTRA.SOLV.lig_0>
-134.169

>  <SCORE.INTRA.VDW>
0.301098

>  <SCORE.INTRA.VDW.0>
-2.18386

>  <SCORE.INTRA.norm>
0.00673002

>  <SCORE.RESTR>
0.770786

>  <SCORE.RESTR.CAVITY>
0.770786

>  <SCORE.RESTR.norm>
0.0167562

>  <SCORE.SYSTEM>
0

>  <SCORE.SYSTEM.CONST>
0

>  <SCORE.SYSTEM.DIHEDRAL>
0

>  <SCORE.SYSTEM.SOLV>
0

>  <SCORE.SYSTEM.norm>
0

>  <SCORE.heavy>
46

>  <SCORE.norm>
0.517437

>  <RMSD>
15.293

$$$$
ligand
 OpenBabel02271912143D
libRbt.so/2013.1/901 2013/11/27
 46 52  0  0  0  0  0  0  0  0999 V2000
  -15.1261   -9.4524   17.3553 P   0  0  1  0  0  0  0  0  0  0  0  0
  -20.8044   -8.6676   16.0072 P   0  0  2  0  0  0  0  0  0  0  0  0
  -14.1254   -9.3150   15.8988 O   0  5  0  0  0  0  0  0  0  0  0  0
  -14.1317   -9.6834   18.8171 O   0  0  0  0  0  0  0  0  0  0  0  0
  -17.0001   -7.9801   18.5147 C   0  0  0  0  0  0  0  0  0  0  0  0
  -16.0146   -8.1139   17.4903 O   0  0  0  0  0  0  0  0  0  0  0  0
  -17.9723   -6.8881   18.1110 C   0  0  1  0  0  0  0  0  0  0  0  0
  -17.2441   -5.6928   17.7964 O   0  0  0  0  0  0  0  0  0  0  0  0
  -18.7656   -7.2235   16.8585 C   0  0  1  0  0  0  0  0  0  0  0  0
  -19.9945   -7.8802   17.1608 O   0  0  0  0  0  0  0  0  0  0  0  0
  -18.9895   -5.8649   16.2180 C   0  0  1  0  0  0  0  0  0  0  0  0
  -20.1896   -5.2757   16.7249 O   0  0  0  0  0  0  0  0  0  0  0  0
  -17.8099   -5.0194   16.6610 C   0  0  2  0  0  0  0  0  0  0  0  0
  -17.4583  -12.1756   14.2534 C   0  0  1  0  0  0  0  0  0  0  0  0
  -16.4318   -3.0353   11.9327 N   0  0  0  0  0  0  0  0  0  0  0  0
  -17.5807   -2.8500   12.6384 C   0  0  1  0  0  0  0  0  0  0  0  0
  -16.3901  -11.3447   14.9059 C   0  0  2  0  0  0  0  0  0  0  0  0
  -18.5393   -2.0588   12.1037 N   0  0  0  0  0  0  0  0  0  0  0  0
  -15.3601  -12.2510   15.3045 O   0  0  0  0  0  0  0  0  0  0  0  0
  -17.0743  -10.7011   16.0956 C   0  0  2  0  0  0  0  0  0  0  0  0
  -17.8030   -3.4302   13.8552 N   0  0  0  0  0  0  0  0  0  0  0  0
  -16.2127  -10.6318   17.2235 O   0  0  0  0  0  0  0  0  0  0  0  0
  -16.8726   -4.2301   14.4350 C   0  0  2  0  0  0  0  0  0  0  0  0
  -18.2559  -11.6014   16.3987 C   0  0  2  0  0  0  0  0  0  0  0  0
  -18.5222  -12.3173   15.1938 O   0  0  0  0  0  0  0  0  0  0  0  0
  -15.6113   -4.4663   13.7113 C   0  0  1  0  0  0  0  0  0  0  0  0
  -19.5003  -10.8251   16.8147 C   0  0  0  0  0  0  0  0  0  0  0  0
  -19.9006   -9.9731   15.7395 O   0  0  0  0  0  0  0  0  0  0  0  0
  -15.4297   -3.8126   12.4030 C   0  0  0  0  0  0  0  0  0  0  0  0
  -14.2888   -3.9948   11.6908 O   0  0  0  0  0  0  0  0  0  0  0  0
  -14.8721   -5.2797   14.4736 N   0  0  0  0  0  0  0  0  0  0  0  0
  -15.5955   -5.5502   15.5993 C   0  0  0  0  0  0  0  0  0  0  0  0
  -16.7921   -4.9263   15.5809 N   0  0  1  0  0  0  0  0  0  0  0  0
  -21.1394  -12.1280   10.5364 N   0  0  0  0  0  0  0  0  0  0  0  0
  -20.9442   -7.6880   14.5234 O   0  5  0  0  0  0  0  0  0  0  0  0
  -21.0038  -12.9435   11.6178 C   0  0  2  0  0  0  0  0  0  0  0  0
  -21.9288  -13.9143   11.8367 N   0  0  0  0  0  0  0  0  0  0  0  0
  -22.4179   -9.1999   16.5186 O   0  0  0  0  0  0  0  0  0  0  0  0
  -19.9677  -12.8174   12.4913 N   0  0  0  0  0  0  0  0  0  0  0  0
  -19.0189  -11.8655   12.3301 C   0  0  2  0  0  0  0  0  0  0  0  0
  -19.1096  -10.9567   11.1796 C   0  0  2  0  0  0  0  0  0  0  0  0
  -20.2539  -11.1465   10.2627 C   0  0  0  0  0  0  0  0  0  0  0  0
  -20.4196  -10.3575    9.1725 O   0  0  0  0  0  0  0  0  0  0  0  0
  -18.0476  -10.1305   11.2567 N   0  0  0  0  0  0  0  0  0  0  0  0
  -17.3372  -10.4805   12.3702 C   0  0  0  0  0  0  0  0  0  0  0  0
  -17.9218  -11.5206   13.0067 N   0  0  1  0  0  0  0  0  0  0  0  0
  1  3  1  6  0  0  0
  1  4  2  0  0  0  0
  1  6  1  0  0  0  0
  1 22  1  0  0  0  0
  2 28  1  0  0  0  0
  2 35  1  6  0  0  0
  2 38  2  0  0  0  0
  2 10  1  0  0  0  0
  5  6  1  0  0  0  0
  7  5  1  6  0  0  0
  7  8  1  0  0  0  0
  7  9  1  0  0  0  0
  9 10  1  1  0  0  0
  9 11  1  0  0  0  0
 11 12  1  1  0  0  0
 11 13  1  0  0  0  0
 13  8  1  1  0  0  0
 13 33  1  0  0  0  0
 14 46  1  0  0  0  0
 14 17  1  0  0  0  0
 14 25  1  1  0  0  0
 15 16  1  0  0  0  0
 15 29  1  0  0  0  0
 16 18  1  6  0  0  0
 16 21  1  0  0  0  0
 17 19  1  1  0  0  0
 17 20  1  0  0  0  0
 20 22  1  1  0  0  0
 20 24  1  0  0  0  0
 23 21  1  6  0  0  0
 23 26  1  0  0  0  0
 23 33  1  0  0  0  0
 24 25  1  6  0  0  0
 24 27  1  0  0  0  0
 26 29  1  1  0  0  0
 26 31  1  0  0  0  0
 27 28  1  0  0  0  0
 29 30  2  0  0  0  0
 31 32  1  0  0  0  0
 33 32  1  1  0  0  0
 34 36  1  0  0  0  0
 34 42  1  0  0  0  0
 36 37  1  1  0  0  0
 36 39  1  0  0  0  0
 40 39  1  6  0  0  0
 40 41  1  0  0  0  0
 40 46  1  0  0  0  0
 41 42  1  6  0  0  0
 41 44  1  0  0  0  0
 42 43  2  0  0  0  0
 44 45  1  0  0  0  0
 46 45  1  1  0  0  0
M  CHG  2   3  -1  35  -1
M  END
>  <CHROM.1>
-171.01242423,-167.00038663,-17.96222510,-8.48464504,14.77574532,-0.72795308
1.04399510,2.63008125

>  <Name>
ligand

>  <RI>
-1

>  <Rbt.Current_Directory>
/home/itssahil/PROJECTS/Mol_Feturizer/Test_systems_manuscript/rnas/3mum

>  <Rbt.Executable>
rbdock ($Id: //depot/dev/client3/rdock/2013.1/src/exe/rbdock.cxx#4 $)

>  <Rbt.Library>
libRbt.so (2013.1, Build901 2013/11/27)

>  <Rbt.Parameter_File>
/export/apps/rDock/src/rDock_2013.1_src/data/scripts/dock_solv.prm

>  <Rbt.Receptor>
prm/blind_docking_100.prm

>  <SCORE>
83.3041

>  <SCORE.INTER>
82.2133

>  <SCORE.INTER.CONST>
1

>  <SCORE.INTER.POLAR>
0

>  <SCORE.INTER.ROT>
2

>  <SCORE.INTER.SOLV>
44.4514

>  <SCORE.INTER.VDW>
35.0584

>  <SCORE.INTER.norm>
1.78725

>  <SCORE.INTRA>
0.417084

>  <SCORE.INTRA.DIHEDRAL>
0.0142424

>  <SCORE.INTRA.DIHEDRAL.0>
2.40424

>  <SCORE.INTRA.POLAR>
0

>  <SCORE.INTRA.POLAR.0>
0

>  <SCORE.INTRA.REPUL>
0

>  <SCORE.INTRA.REPUL.0>
0

>  <SCORE.INTRA.SOLV>
0.0451875

>  <SCORE.INTRA.SOLV.lig_0>
-134.169

>  <SCORE.INTRA.VDW>
0.387369

>  <SCORE.INTRA.VDW.0>
-2.18386

>  <SCORE.INTRA.norm>
0.00906703

>  <SCORE.RESTR>
0.67373

>  <SCORE.RESTR.CAVITY>
0.67373

>  <SCORE.RESTR.norm>
0.0146463

>  <SCORE.SYSTEM>
0

>  <SCORE.SYSTEM.CONST>
0

>  <SCORE.SYSTEM.DIHEDRAL>
0

>  <SCORE.SYSTEM.SOLV>
0

>  <SCORE.SYSTEM.norm>
0

>  <SCORE.heavy>
46

>  <SCORE.norm>
1.81096

>  <RMSD>
15.294

$$$$
ligand
 OpenBabel02271912143D
libRbt.so/2013.1/901 2013/11/27
 46 52  0  0  0  0  0  0  0  0999 V2000
  -19.0925  -10.9606   16.0180 P   0  0  1  0  0  0  0  0  0  0  0  0
  -15.0161   -9.7830   20.1013 P   0  0  2  0  0  0  0  0  0  0  0  0
  -20.3795   -9.7428   16.0673 O   0  5  0  0  0  0  0  0  0  0  0  0
  -19.3402  -12.1259   14.6914 O   0  0  0  0  0  0  0  0  0  0  0  0
  -16.4467  -10.9189   15.8708 C   0  0  0  0  0  0  0  0  0  0  0  0
  -17.6811  -10.2022   15.8386 O   0  0  0  0  0  0  0  0  0  0  0  0
  -15.3264   -9.9395   16.1651 C   0  0  1  0  0  0  0  0  0  0  0  0
  -15.3840   -8.8529   15.2303 O   0  0  0  0  0  0  0  0  0  0  0  0
  -15.4336   -9.3003   17.5400 C   0  0  1  0  0  0  0  0  0  0  0  0
  -14.7292  -10.0417   18.5336 O   0  0  0  0  0  0  0  0  0  0  0  0
  -14.8332   -7.9218   17.3271 C   0  0  1  0  0  0  0  0  0  0  0  0
  -13.4205   -7.9634   17.5436 O   0  0  0  0  0  0  0  0  0  0  0  0
  -15.0904   -7.5994   15.8668 C   0  0  2  0  0  0  0  0  0  0  0  0
  -20.0618  -10.6866   20.6507 C   0  0  1  0  0  0  0  0  0  0  0  0
  -16.9859   -2.9604   14.1121 N   0  0  0  0  0  0  0  0  0  0  0  0
  -15.7214   -3.4569   14.0280 C   0  0  1  0  0  0  0  0  0  0  0  0
  -20.1556  -10.5340   19.1590 C   0  0  2  0  0  0  0  0  0  0  0  0
  -14.7764   -2.7011   13.4228 N   0  0  0  0  0  0  0  0  0  0  0  0
  -21.2252  -11.3797   18.7326 O   0  0  0  0  0  0  0  0  0  0  0  0
  -18.8130  -11.0065   18.6375 C   0  0  2  0  0  0  0  0  0  0  0  0
  -15.3717   -4.6785   14.5301 N   0  0  0  0  0  0  0  0  0  0  0  0
  -18.9466  -11.7317   17.4227 O   0  0  0  0  0  0  0  0  0  0  0  0
  -16.2827   -5.4751   15.1441 C   0  0  2  0  0  0  0  0  0  0  0  0
  -18.2695  -11.9114   19.7258 C   0  0  2  0  0  0  0  0  0  0  0  0
  -18.9465  -11.5339   20.9234 O   0  0  0  0  0  0  0  0  0  0  0  0
  -17.6663   -4.9836   15.2646 C   0  0  1  0  0  0  0  0  0  0  0  0
  -16.7651  -11.7620   19.9233 C   0  0  0  0  0  0  0  0  0  0  0  0
  -16.4775  -10.4211   20.3248 O   0  0  0  0  0  0  0  0  0  0  0  0
  -17.9826   -3.6582   14.7030 C   0  0  0  0  0  0  0  0  0  0  0  0
  -19.2399   -3.1538   14.7858 O   0  0  0  0  0  0  0  0  0  0  0  0
  -18.3614   -5.9314   15.9029 N   0  0  0  0  0  0  0  0  0  0  0  0
  -17.4989   -6.9538   16.1756 C   0  0  0  0  0  0  0  0  0  0  0  0
  -16.2551   -6.6858   15.7252 N   0  0  1  0  0  0  0  0  0  0  0  0
  -20.2935   -8.0226   25.1472 N   0  0  0  0  0  0  0  0  0  0  0  0
  -15.0283   -8.0411   20.4837 O   0  5  0  0  0  0  0  0  0  0  0  0
  -20.5374   -9.3390   24.9009 C   0  0  2  0  0  0  0  0  0  0  0  0
  -20.8951  -10.1512   25.9297 N   0  0  0  0  0  0  0  0  0  0  0  0
  -13.8727  -10.6156   21.1725 O   0  0  0  0  0  0  0  0  0  0  0  0
  -20.4336   -9.8707   23.6524 N   0  0  0  0  0  0  0  0  0  0  0  0
  -20.0750   -9.1139   22.5891 C   0  0  2  0  0  0  0  0  0  0  0  0
  -19.8015   -7.6849   22.7915 C   0  0  2  0  0  0  0  0  0  0  0  0
  -19.9365   -7.1640   24.1686 C   0  0  0  0  0  0  0  0  0  0  0  0
  -19.7070   -5.8580   24.4520 O   0  0  0  0  0  0  0  0  0  0  0  0
  -19.4830   -7.1788   21.5837 N   0  0  0  0  0  0  0  0  0  0  0  0
  -19.5437   -8.2036   20.6819 C   0  0  0  0  0  0  0  0  0  0  0  0
  -19.9008   -9.3581   21.2889 N   0  0  1  0  0  0  0  0  0  0  0  0
  1  3  1  1  0  0  0
  1  4  2  0  0  0  0
  1  6  1  0  0  0  0
  1 22  1  0  0  0  0
  2 28  1  0  0  0  0
  2 35  1  1  0  0  0
  2 38  2  0  0  0  0
  2 10  1  0  0  0  0
  5  6  1  0  0  0  0
  7  5  1  6  0  0  0
  7  8  1  0  0  0  0
  7  9  1  0  0  0  0
  9 10  1  1  0  0  0
  9 11  1  0  0  0  0
 11 12  1  6  0  0  0
 11 13  1  0  0  0  0
 13  8  1  6  0  0  0
 13 33  1  0  0  0  0
 14 46  1  0  0  0  0
 14 17  1  0  0  0  0
 14 25  1  6  0  0  0
 15 16  1  0  0  0  0
 15 29  1  0  0  0  0
 16 18  1  1  0  0  0
 16 21  1  0  0  0  0
 17 19  1  6  0  0  0
 17 20  1  0  0  0  0
 20 22  1  6  0  0  0
 20 24  1  0  0  0  0
 23 21  1  1  0  0  0
 23 26  1  0  0  0  0
 23 33  1  0  0  0  0
 24 25  1  1  0  0  0
 24 27  1  0  0  0  0
 26 29  1  6  0  0  0
 26 31  1  0  0  0  0
 27 28  1  0  0  0  0
 29 30  2  0  0  0  0
 31 32  1  0  0  0  0
 33 32  1  6  0  0  0
 34 36  1  0  0  0  0
 34 42  1  0  0  0  0
 36 37  1  1  0  0  0
 36 39  1  0  0  0  0
 40 39  1  6  0  0  0
 40 41  1  0  0  0  0
 40 46  1  0  0  0  0
 41 42  1  6  0  0  0
 41 44  1  0  0  0  0
 42 43  2  0  0  0  0
 44 45  1  0  0  0  0
 46 45  1  1  0  0  0
M  CHG  2   3  -1  35  -1
M  END
>  <CHROM.1>
-121.21787553,164.84867813,-17.70700198,-8.59989839,18.53910498,-0.44581100
-1.17762639,3.11088471

>  <Name>
ligand

>  <RI>
0

>  <Rbt.Current_Directory>
/home/itssahil/PROJECTS/Mol_Feturizer/Test_systems_manuscript/rnas/3mum

>  <Rbt.Executable>
rbdock ($Id: //depot/dev/client3/rdock/2013.1/src/exe/rbdock.cxx#4 $)

>  <Rbt.Library>
libRbt.so (2013.1, Build901 2013/11/27)

>  <Rbt.Parameter_File>
/export/apps/rDock/src/rDock_2013.1_src/data/scripts/dock_solv.prm

>  <Rbt.Receptor>
prm/blind_docking_60.prm

>  <SCORE>
27.8255

>  <SCORE.INTER>
27.0342

>  <SCORE.INTER.CONST>
1

>  <SCORE.INTER.POLAR>
0

>  <SCORE.INTER.ROT>
2

>  <SCORE.INTER.SOLV>
42.8292

>  <SCORE.INTER.VDW>
-1.18694

>  <SCORE.INTER.norm>
0.5877

>  <SCORE.INTRA>
0.30065

>  <SCORE.INTRA.DIHEDRAL>
-0.0240892

>  <SCORE.INTRA.DIHEDRAL.0>
2.40424

>  <SCORE.INTRA.POLAR>
0

>  <SCORE.INTRA.POLAR.0>
0

>  <SCORE.INTRA.REPUL>
0

>  <SCORE.INTRA.REPUL.0>
0

>  <SCORE.INTRA.SOLV>
0.0311417

>  <SCORE.INTRA.SOLV.lig_0>
-134.169

>  <SCORE.INTRA.VDW>
0.297123

>  <SCORE.INTRA.VDW.0>
-2.18386

>  <SCORE.INTRA.norm>
0.00653586

>  <SCORE.RESTR>
0.490675

>  <SCORE.RESTR.CAVITY>
0.490675

>  <SCORE.RESTR.norm>
0.0106668

>  <SCORE.SYSTEM>
0

>  <SCORE.SYSTEM.CONST>
0

>  <SCORE.SYSTEM.DIHEDRAL>
0

>  <SCORE.SYSTEM.SOLV>
0

>  <SCORE.SYSTEM.norm>
0

>  <SCORE.heavy>
46

>  <SCORE.norm>
0.604903

>  <RMSD>
15.336

$$$$
ligand
 OpenBabel02271912143D
libRbt.so/2013.1/901 2013/11/27
 46 52  0  0  0  0  0  0  0  0999 V2000
  -19.1010  -10.9655   15.9183 P   0  0  1  0  0  0  0  0  0  0  0  0
  -15.0199   -9.7934   19.9984 P   0  0  2  0  0  0  0  0  0  0  0  0
  -20.3930   -9.7535   15.9774 O   0  5  0  0  0  0  0  0  0  0  0  0
  -19.3470  -12.1246   14.5859 O   0  0  0  0  0  0  0  0  0  0  0  0
  -16.4558  -10.9119   15.7652 C   0  0  0  0  0  0  0  0  0  0  0  0
  -17.6932  -10.2002   15.7398 O   0  0  0  0  0  0  0  0  0  0  0  0
  -15.3389   -9.9295   16.0622 C   0  0  1  0  0  0  0  0  0  0  0  0
  -15.4033   -8.8380   15.1336 O   0  0  0  0  0  0  0  0  0  0  0  0
  -15.4455   -9.2983   17.4409 C   0  0  1  0  0  0  0  0  0  0  0  0
  -14.7356  -10.0422   18.4287 O   0  0  0  0  0  0  0  0  0  0  0  0
  -14.8514   -7.9161   17.2342 C   0  0  1  0  0  0  0  0  0  0  0  0
  -13.4380   -7.9530   17.4471 O   0  0  0  0  0  0  0  0  0  0  0  0
  -15.1134   -7.5868   15.7763 C   0  0  2  0  0  0  0  0  0  0  0  0
  -20.0605  -10.7212   20.5548 C   0  0  1  0  0  0  0  0  0  0  0  0
  -17.0070   -2.8979   14.1573 N   0  0  0  0  0  0  0  0  0  0  0  0
  -15.7368   -3.3811   14.0841 C   0  0  1  0  0  0  0  0  0  0  0  0
  -20.1584  -10.5608   19.0641 C   0  0  2  0  0  0  0  0  0  0  0  0
  -14.7843   -2.5952   13.5310 N   0  0  0  0  0  0  0  0  0  0  0  0
  -21.2254  -11.4086   18.6355 O   0  0  0  0  0  0  0  0  0  0  0  0
  -18.8151  -11.0248   18.5368 C   0  0  2  0  0  0  0  0  0  0  0  0
  -15.3884   -4.6185   14.5469 N   0  0  0  0  0  0  0  0  0  0  0  0
  -18.9485  -11.7438   17.3184 O   0  0  0  0  0  0  0  0  0  0  0  0
  -16.3067   -5.4453   15.1080 C   0  0  2  0  0  0  0  0  0  0  0  0
  -18.2652  -11.9333   19.6188 C   0  0  2  0  0  0  0  0  0  0  0  0
  -18.9410  -11.5653   20.8202 O   0  0  0  0  0  0  0  0  0  0  0  0
  -17.6968   -4.9694   15.2146 C   0  0  1  0  0  0  0  0  0  0  0  0
  -16.7611  -11.7787   19.8137 C   0  0  0  0  0  0  0  0  0  0  0  0
  -16.4781  -10.4388   20.2219 O   0  0  0  0  0  0  0  0  0  0  0  0
  -18.0112   -3.6257   14.6972 C   0  0  0  0  0  0  0  0  0  0  0  0
  -19.2744   -3.1345   14.7695 O   0  0  0  0  0  0  0  0  0  0  0  0
  -18.3985   -5.9465   15.7992 N   0  0  0  0  0  0  0  0  0  0  0  0
  -17.5339   -6.9721   16.0526 C   0  0  0  0  0  0  0  0  0  0  0  0
  -16.2823   -6.6773   15.6425 N   0  0  1  0  0  0  0  0  0  0  0  0
  -20.2530   -8.0909   25.0728 N   0  0  0  0  0  0  0  0  0  0  0  0
  -15.0385   -8.0536   20.3905 O   0  5  0  0  0  0  0  0  0  0  0  0
  -20.4873   -9.4079   24.8209 C   0  0  2  0  0  0  0  0  0  0  0  0
  -20.8216  -10.2308   25.8490 N   0  0  0  0  0  0  0  0  0  0  0  0
  -13.8705  -10.6270   21.0623 O   0  0  0  0  0  0  0  0  0  0  0  0
  -20.3964   -9.9300   23.5673 N   0  0  0  0  0  0  0  0  0  0  0  0
  -20.0610   -9.1622   22.5042 C   0  0  2  0  0  0  0  0  0  0  0  0
  -19.7991   -7.7319   22.7126 C   0  0  2  0  0  0  0  0  0  0  0  0
  -19.9191   -7.2220   24.0952 C   0  0  0  0  0  0  0  0  0  0  0  0
  -19.6987   -5.9157   24.3844 O   0  0  0  0  0  0  0  0  0  0  0  0
  -19.5035   -7.2142   21.5039 N   0  0  0  0  0  0  0  0  0  0  0  0
  -19.5671   -8.2333   20.5959 C   0  0  0  0  0  0  0  0  0  0  0  0
  -19.9036   -9.3956   21.1999 N   0  0  1  0  0  0  0  0  0  0  0  0
  1  3  1  1  0  0  0
  1  4  2  0  0  0  0
  1  6  1  0  0  0  0
  1 22  1  0  0  0  0
  2 28  1  0  0  0  0
  2 35  1  1  0  0  0
  2 38  2  0  0  0  0
  2 10  1  0  0  0  0
  5  6  1  0  0  0  0
  7  5  1  6  0  0  0
  7  8  1  0  0  0  0
  7  9  1  0  0  0  0
  9 10  1  1  0  0  0
  9 11  1  0  0  0  0
 11 12  1  6  0  0  0
 11 13  1  0  0  0  0
 13  8  1  6  0  0  0
 13 33  1  0  0  0  0
 14 46  1  0  0  0  0
 14 17  1  0  0  0  0
 14 25  1  6  0  0  0
 15 16  1  0  0  0  0
 15 29  1  0  0  0  0
 16 18  1  1  0  0  0
 16 21  1  0  0  0  0
 17 19  1  6  0  0  0
 17 20  1  0  0  0  0
 20 22  1  6  0  0  0
 20 24  1  0  0  0  0
 23 21  1  1  0  0  0
 23 26  1  0  0  0  0
 23 33  1  0  0  0  0
 24 25  1  1  0  0  0
 24 27  1  0  0  0  0
 26 29  1  6  0  0  0
 26 31  1  0  0  0  0
 27 28  1  0  0  0  0
 29 30  2  0  0  0  0
 31 32  1  0  0  0  0
 33 32  1  6  0  0  0
 34 36  1  0  0  0  0
 34 42  1  0  0  0  0
 36 37  1  1  0  0  0
 36 39  1  0  0  0  0
 40 39  1  6  0  0  0
 40 41  1  0  0  0  0
 40 46  1  0  0  0  0
 41 42  1  6  0  0  0
 41 44  1  0  0  0  0
 42 43  2  0  0  0  0
 44 45  1  0  0  0  0
 46 45  1  1  0  0  0
M  CHG  2   3  -1  35  -1
M  END
>  <CHROM.1>
-123.63672967,165.63432166,-17.71235508,-8.60864208,18.46126349,-0.42263326
-1.18560253,-3.13382135

>  <Name>
ligand

>  <RI>
-1

>  <Rbt.Current_Directory>
/home/itssahil/PROJECTS/Mol_Feturizer/Test_systems_manuscript/rnas/3mum

>  <Rbt.Executable>
rbdock ($Id: //depot/dev/client3/rdock/2013.1/src/exe/rbdock.cxx#4 $)

>  <Rbt.Library>
libRbt.so (2013.1, Build901 2013/11/27)

>  <Rbt.Parameter_File>
/export/apps/rDock/src/rDock_2013.1_src/data/scripts/dock_solv.prm

>  <Rbt.Receptor>
prm/blind_docking_80.prm

>  <SCORE>
28.2366

>  <SCORE.INTER>
27.0981

>  <SCORE.INTER.CONST>
1

>  <SCORE.INTER.POLAR>
0

>  <SCORE.INTER.ROT>
2

>  <SCORE.INTER.SOLV>
42.6738

>  <SCORE.INTER.VDW>
-1.09253

>  <SCORE.INTER.norm>
0.58909

>  <SCORE.INTRA>
0.29398

>  <SCORE.INTRA.DIHEDRAL>
-0.0228419

>  <SCORE.INTRA.DIHEDRAL.0>
2.40424

>  <SCORE.INTRA.POLAR>
0

>  <SCORE.INTRA.POLAR.0>
0

>  <SCORE.INTRA.REPUL>
0

>  <SCORE.INTRA.REPUL.0>
0

>  <SCORE.INTRA.SOLV>
0.0389582

>  <SCORE.INTRA.SOLV.lig_0>
-134.169

>  <SCORE.INTRA.VDW>
0.285922

>  <SCORE.INTRA.VDW.0>
-2.18386

>  <SCORE.INTRA.norm>
0.00639088

>  <SCORE.RESTR>
0.84452

>  <SCORE.RESTR.CAVITY>
0.84452

>  <SCORE.RESTR.norm>
0.0183591

>  <SCORE.SYSTEM>
0

>  <SCORE.SYSTEM.CONST>
0

>  <SCORE.SYSTEM.DIHEDRAL>
0

>  <SCORE.SYSTEM.SOLV>
0

>  <SCORE.SYSTEM.norm>
0

>  <SCORE.heavy>
46

>  <SCORE.norm>
0.61384

>  <RMSD>
15.338

$$$$
ligand
 OpenBabel02271912143D
libRbt.so/2013.1/901 2013/11/27
 46 52  0  0  0  0  0  0  0  0999 V2000
  -19.1294  -10.9545   15.9715 P   0  0  1  0  0  0  0  0  0  0  0  0
  -15.0308   -9.8117   20.0423 P   0  0  2  0  0  0  0  0  0  0  0  0
  -20.4072   -9.7273   16.0264 O   0  5  0  0  0  0  0  0  0  0  0  0
  -19.3903  -12.1166   14.6445 O   0  0  0  0  0  0  0  0  0  0  0  0
  -16.4839  -10.9323   15.8155 C   0  0  0  0  0  0  0  0  0  0  0  0
  -17.7131  -10.2064   15.7881 O   0  0  0  0  0  0  0  0  0  0  0  0
  -15.3554   -9.9616   16.1070 C   0  0  1  0  0  0  0  0  0  0  0  0
  -15.4081   -8.8736   15.1736 O   0  0  0  0  0  0  0  0  0  0  0  0
  -15.4533   -9.3230   17.4829 C   0  0  1  0  0  0  0  0  0  0  0  0
  -14.7510  -10.0707   18.4734 O   0  0  0  0  0  0  0  0  0  0  0  0
  -14.8434   -7.9488   17.2695 C   0  0  1  0  0  0  0  0  0  0  0  0
  -13.4303   -8.0012   17.4812 O   0  0  0  0  0  0  0  0  0  0  0  0
  -15.1031   -7.6230   15.8104 C   0  0  2  0  0  0  0  0  0  0  0  0
  -20.0812  -10.6784   20.6077 C   0  0  1  0  0  0  0  0  0  0  0  0
  -16.9492   -2.9298   14.1495 N   0  0  0  0  0  0  0  0  0  0  0  0
  -15.6855   -3.4296   14.0736 C   0  0  1  0  0  0  0  0  0  0  0  0
  -20.1788  -10.5235   19.1165 C   0  0  2  0  0  0  0  0  0  0  0  0
  -14.7271   -2.6621   13.5053 N   0  0  0  0  0  0  0  0  0  0  0  0
  -21.2561  -11.3607   18.6927 O   0  0  0  0  0  0  0  0  0  0  0  0
  -18.8416  -11.0054   18.5899 C   0  0  2  0  0  0  0  0  0  0  0  0
  -15.3494   -4.6658   14.5485 N   0  0  0  0  0  0  0  0  0  0  0  0
  -18.9846  -11.7282   17.3748 O   0  0  0  0  0  0  0  0  0  0  0  0
  -16.2741   -5.4746   15.1251 C   0  0  2  0  0  0  0  0  0  0  0  0
  -18.3012  -11.9154   19.6754 C   0  0  2  0  0  0  0  0  0  0  0  0
  -18.9713  -11.5342   20.8758 O   0  0  0  0  0  0  0  0  0  0  0  0
  -17.6575   -4.9802   15.2352 C   0  0  1  0  0  0  0  0  0  0  0  0
  -16.7951  -11.7774   19.8681 C   0  0  0  0  0  0  0  0  0  0  0  0
  -16.4961  -10.4391   20.2700 O   0  0  0  0  0  0  0  0  0  0  0  0
  -17.9587   -3.6387   14.7043 C   0  0  0  0  0  0  0  0  0  0  0  0
  -19.2152   -3.1310   14.7792 O   0  0  0  0  0  0  0  0  0  0  0  0
  -18.3674   -5.9417   15.8357 N   0  0  0  0  0  0  0  0  0  0  0  0
  -17.5138   -6.9749   16.0954 C   0  0  0  0  0  0  0  0  0  0  0  0
  -16.2614   -6.7006   15.6737 N   0  0  1  0  0  0  0  0  0  0  0  0
  -20.2524   -8.0231   25.1120 N   0  0  0  0  0  0  0  0  0  0  0  0
  -15.0288   -8.0701   20.4266 O   0  5  0  0  0  0  0  0  0  0  0  0
  -20.5039   -9.3380   24.8658 C   0  0  2  0  0  0  0  0  0  0  0  0
  -20.8528  -10.1511   25.8969 N   0  0  0  0  0  0  0  0  0  0  0  0
  -13.8900  -10.6539   21.1088 O   0  0  0  0  0  0  0  0  0  0  0  0
  -20.4161   -9.8675   23.6151 N   0  0  0  0  0  0  0  0  0  0  0  0
  -20.0668   -9.1097   22.5493 C   0  0  2  0  0  0  0  0  0  0  0  0
  -19.7859   -7.6822   22.7515 C   0  0  2  0  0  0  0  0  0  0  0  0
  -19.9034   -7.1637   24.1312 C   0  0  0  0  0  0  0  0  0  0  0  0
  -19.6661   -5.8591   24.4146 O   0  0  0  0  0  0  0  0  0  0  0  0
  -19.4793   -7.1747   21.5412 N   0  0  0  0  0  0  0  0  0  0  0  0
  -19.5539   -8.1973   20.6381 C   0  0  0  0  0  0  0  0  0  0  0  0
  -19.9083   -9.3518   21.2468 N   0  0  1  0  0  0  0  0  0  0  0  0
  1  3  1  1  0  0  0
  1  4  2  0  0  0  0
  1  6  1  0  0  0  0
  1 22  1  0  0  0  0
  2 28  1  0  0  0  0
  2 35  1  1  0  0  0
  2 38  2  0  0  0  0
  2 10  1  0  0  0  0
  5  6  1  0  0  0  0
  7  5  1  6  0  0  0
  7  8  1  0  0  0  0
  7  9  1  0  0  0  0
  9 10  1  1  0  0  0
  9 11  1  0  0  0  0
 11 12  1  6  0  0  0
 11 13  1  0  0  0  0
 13  8  1  6  0  0  0
 13 33  1  0  0  0  0
 14 46  1  0  0  0  0
 14 17  1  0  0  0  0
 14 25  1  6  0  0  0
 15 16  1  0  0  0  0
 15 29  1  0  0  0  0
 16 18  1  1  0  0  0
 16 21  1  0  0  0  0
 17 19  1  6  0  0  0
 17 20  1  0  0  0  0
 20 22  1  6  0  0  0
 20 24  1  0  0  0  0
 23 21  1  1  0  0  0
 23 26  1  0  0  0  0
 23 33  1  0  0  0  0
 24 25  1  1  0  0  0
 24 27  1  0  0  0  0
 26 29  1  6  0  0  0
 26 31  1  0  0  0  0
 27 28  1  0  0  0  0
 29 30  2  0  0  0  0
 31 32  1  0  0  0  0
 33 32  1  6  0  0  0
 34 36  1  0  0  0  0
 34 42  1  0  0  0  0
 36 37  1  1  0  0  0
 36 39  1  0  0  0  0
 40 39  1  6  0  0  0
 40 41  1  0  0  0  0
 40 46  1  0  0  0  0
 41 42  1  6  0  0  0
 41 44  1  0  0  0  0
 42 43  2  0  0  0  0
 44 45  1  0  0  0  0
 46 45  1  1  0  0  0
M  CHG  2   3  -1  35  -1
M  END
>  <CHROM.1>
-123.11683159,165.35859493,-17.71300902,-8.60337570,18.49977723,-0.40045329
-1.18463453,-3.12053524

>  <Name>
ligand

>  <RI>
-1

>  <Rbt.Current_Directory>
/home/itssahil/PROJECTS/Mol_Feturizer/Test_systems_manuscript/rnas/3mum

>  <Rbt.Executable>
rbdock ($Id: //depot/dev/client3/rdock/2013.1/src/exe/rbdock.cxx#4 $)

>  <Rbt.Library>
libRbt.so (2013.1, Build901 2013/11/27)

>  <Rbt.Parameter_File>
/export/apps/rDock/src/rDock_2013.1_src/data/scripts/dock_solv.prm

>  <Rbt.Receptor>
prm/blind_docking_40.prm

>  <SCORE>
28.2485

>  <SCORE.INTER>
27.2851

>  <SCORE.INTER.CONST>
1

>  <SCORE.INTER.POLAR>
0

>  <SCORE.INTER.ROT>
2

>  <SCORE.INTER.SOLV>
42.59

>  <SCORE.INTER.VDW>
-0.939974

>  <SCORE.INTER.norm>
0.593154

>  <SCORE.INTRA>
0.293818

>  <SCORE.INTRA.DIHEDRAL>
-0.023221

>  <SCORE.INTRA.DIHEDRAL.0>
2.40424

>  <SCORE.INTRA.POLAR>
0

>  <SCORE.INTRA.POLAR.0>
0

>  <SCORE.INTRA.REPUL>
0

>  <SCORE.INTRA.REPUL.0>
0

>  <SCORE.INTRA.SOLV>
0.0372035

>  <SCORE.INTRA.SOLV.lig_0>
-134.169

>  <SCORE.INTRA.VDW>
0.286826

>  <SCORE.INTRA.VDW.0>
-2.18386

>  <SCORE.INTRA.norm>
0.00638734

>  <SCORE.RESTR>
0.669647

>  <SCORE.RESTR.CAVITY>
0.669647

>  <SCORE.RESTR.norm>
0.0145575

>  <SCORE.SYSTEM>
0

>  <SCORE.SYSTEM.CONST>
0

>  <SCORE.SYSTEM.DIHEDRAL>
0

>  <SCORE.SYSTEM.SOLV>
0

>  <SCORE.SYSTEM.norm>
0

>  <SCORE.heavy>
46

>  <SCORE.norm>
0.614098

>  <RMSD>
15.339

$$$$
ligand
 OpenBabel02271912143D
libRbt.so/2013.1/901 2013/11/27
 46 52  0  0  0  0  0  0  0  0999 V2000
  -14.6785   -9.5302   19.4207 P   0  0  1  0  0  0  0  0  0  0  0  0
  -19.4078  -10.8578   16.1730 P   0  0  2  0  0  0  0  0  0  0  0  0
  -14.8569   -7.9169   20.1329 O   0  5  0  0  0  0  0  0  0  0  0  0
  -13.1807  -10.3284   19.9673 O   0  0  0  0  0  0  0  0  0  0  0  0
  -16.1522  -11.7303   19.3152 C   0  0  0  0  0  0  0  0  0  0  0  0
  -15.9635  -10.4128   19.8319 O   0  0  0  0  0  0  0  0  0  0  0  0
  -17.6145  -12.1041   19.4661 C   0  0  1  0  0  0  0  0  0  0  0  0
  -18.0181  -11.9130   20.8294 O   0  0  0  0  0  0  0  0  0  0  0  0
  -18.5455  -11.2321   18.6395 C   0  0  1  0  0  0  0  0  0  0  0  0
  -18.7829  -11.7775   17.3437 O   0  0  0  0  0  0  0  0  0  0  0  0
  -19.8108  -11.1871   19.4779 C   0  0  1  0  0  0  0  0  0  0  0  0
  -20.6637  -12.2831   19.1377 O   0  0  0  0  0  0  0  0  0  0  0  0
  -19.3427  -11.3639   20.9105 C   0  0  2  0  0  0  0  0  0  0  0  0
  -16.0983   -6.9311   15.7185 C   0  0  1  0  0  0  0  0  0  0  0  0
  -17.0437   -8.3213   24.6050 N   0  0  0  0  0  0  0  0  0  0  0  0
  -16.7473   -9.5986   24.2402 C   0  0  1  0  0  0  0  0  0  0  0  0
  -15.5869   -7.3287   17.0742 C   0  0  2  0  0  0  0  0  0  0  0  0
  -15.7337  -10.2274   24.8790 N   0  0  0  0  0  0  0  0  0  0  0  0
  -14.2005   -6.9849   17.1000 O   0  0  0  0  0  0  0  0  0  0  0  0
  -15.8037   -8.8273   17.1444 C   0  0  2  0  0  0  0  0  0  0  0  0
  -17.4307  -10.2663   23.2636 N   0  0  0  0  0  0  0  0  0  0  0  0
  -14.7347   -9.4823   17.8134 O   0  0  0  0  0  0  0  0  0  0  0  0
  -18.4536   -9.6793   22.5922 C   0  0  2  0  0  0  0  0  0  0  0  0
  -15.8667   -9.2794   15.6986 C   0  0  2  0  0  0  0  0  0  0  0  0
  -16.2160   -8.1220   14.9412 O   0  0  0  0  0  0  0  0  0  0  0  0
  -18.8176   -8.2975   22.9506 C   0  0  1  0  0  0  0  0  0  0  0  0
  -16.9038  -10.3722   15.4648 C   0  0  0  0  0  0  0  0  0  0  0  0
  -18.1991   -9.8647   15.7915 O   0  0  0  0  0  0  0  0  0  0  0  0
  -18.0433   -7.6296   24.0119 C   0  0  0  0  0  0  0  0  0  0  0  0
  -18.3344   -6.3574   24.3845 O   0  0  0  0  0  0  0  0  0  0  0  0
  -19.8428   -7.9494   22.1652 N   0  0  0  0  0  0  0  0  0  0  0  0
  -20.1221   -9.0187   21.3638 C   0  0  0  0  0  0  0  0  0  0  0  0
  -19.2955  -10.0555   21.6156 N   0  0  1  0  0  0  0  0  0  0  0  0
  -19.4020   -3.5320   13.5050 N   0  0  0  0  0  0  0  0  0  0  0  0
  -20.8186   -9.9333   16.7524 O   0  5  0  0  0  0  0  0  0  0  0  0
  -18.1815   -3.9618   13.0824 C   0  0  2  0  0  0  0  0  0  0  0  0
  -17.6787   -3.4855   11.9135 N   0  0  0  0  0  0  0  0  0  0  0  0
  -19.8570  -11.7748   14.7220 O   0  0  0  0  0  0  0  0  0  0  0  0
  -17.4454   -4.8575   13.7952 N   0  0  0  0  0  0  0  0  0  0  0  0
  -17.8958   -5.3726   14.9631 C   0  0  2  0  0  0  0  0  0  0  0  0
  -19.2054   -4.9447   15.4726 C   0  0  2  0  0  0  0  0  0  0  0  0
  -19.9556   -3.9655   14.6574 C   0  0  0  0  0  0  0  0  0  0  0  0
  -21.1715   -3.5101   15.0482 O   0  0  0  0  0  0  0  0  0  0  0  0
  -19.3964   -5.5943   16.6378 N   0  0  0  0  0  0  0  0  0  0  0  0
  -18.2984   -6.3784   16.8537 C   0  0  0  0  0  0  0  0  0  0  0  0
  -17.4031   -6.2395   15.8497 N   0  0  1  0  0  0  0  0  0  0  0  0
  1  3  1  1  0  0  0
  1  4  2  0  0  0  0
  1  6  1  0  0  0  0
  1 22  1  0  0  0  0
  2 28  1  0  0  0  0
  2 35  1  1  0  0  0
  2 38  2  0  0  0  0
  2 10  1  0  0  0  0
  5  6  1  0  0  0  0
  7  5  1  1  0  0  0
  7  8  1  0  0  0  0
  7  9  1  0  0  0  0
  9 10  1  6  0  0  0
  9 11  1  0  0  0  0
 11 12  1  6  0  0  0
 11 13  1  0  0  0  0
 13  8  1  6  0  0  0
 13 33  1  0  0  0  0
 14 46  1  0  0  0  0
 14 17  1  0  0  0  0
 14 25  1  6  0  0  0
 15 16  1  0  0  0  0
 15 29  1  0  0  0  0
 16 18  1  1  0  0  0
 16 21  1  0  0  0  0
 17 19  1  6  0  0  0
 17 20  1  0  0  0  0
 20 22  1  1  0  0  0
 20 24  1  0  0  0  0
 23 21  1  1  0  0  0
 23 26  1  0  0  0  0
 23 33  1  0  0  0  0
 24 25  1  6  0  0  0
 24 27  1  0  0  0  0
 26 29  1  6  0  0  0
 26 31  1  0  0  0  0
 27 28  1  0  0  0  0
 29 30  2  0  0  0  0
 31 32  1  0  0  0  0
 33 32  1  6  0  0  0
 34 36  1  0  0  0  0
 34 42  1  0  0  0  0
 36 37  1  6  0  0  0
 36 39  1  0  0  0  0
 40 39  1  1  0  0  0
 40 41  1  0  0  0  0
 40 46  1  0  0  0  0
 41 42  1  1  0  0  0
 41 44  1  0  0  0  0
 42 43  2  0  0  0  0
 44 45  1  0  0  0  0
 46 45  1  6  0  0  0
M  CHG  2   3  -1  35  -1
M  END
>  <CHROM.1>
-31.81929313,155.33782638,-17.69942710,-8.64722918,18.35139610,-0.76352384
-1.43624679,-0.26649800

>  <Name>
ligand

>  <RI>
-1

>  <Rbt.Current_Directory>
/home/itssahil/PROJECTS/Mol_Feturizer/Test_systems_manuscript/rnas/3mum

>  <Rbt.Executable>
rbdock ($Id: //depot/dev/client3/rdock/2013.1/src/exe/rbdock.cxx#4 $)

>  <Rbt.Library>
libRbt.so (2013.1, Build901 2013/11/27)

>  <Rbt.Parameter_File>
/export/apps/rDock/src/rDock_2013.1_src/data/scripts/dock_solv.prm

>  <Rbt.Receptor>
prm/blind_docking_40.prm

>  <SCORE>
39.48

>  <SCORE.INTER>
38.1083

>  <SCORE.INTER.CONST>
1

>  <SCORE.INTER.POLAR>
0

>  <SCORE.INTER.ROT>
2

>  <SCORE.INTER.SOLV>
36.8841

>  <SCORE.INTER.VDW>
8.17749

>  <SCORE.INTER.norm>
0.828441

>  <SCORE.INTRA>
0.334159

>  <SCORE.INTRA.DIHEDRAL>
-0.0273135

>  <SCORE.INTRA.DIHEDRAL.0>
2.40424

>  <SCORE.INTRA.POLAR>
0

>  <SCORE.INTRA.POLAR.0>
0

>  <SCORE.INTRA.REPUL>
0

>  <SCORE.INTRA.REPUL.0>
0

>  <SCORE.INTRA.SOLV>
0.0375574

>  <SCORE.INTRA.SOLV.lig_0>
-134.169

>  <SCORE.INTRA.VDW>
0.329037

>  <SCORE.INTRA.VDW.0>
-2.18386

>  <SCORE.INTRA.norm>
0.00726432

>  <SCORE.RESTR>
1.03752

>  <SCORE.RESTR.CAVITY>
1.03752

>  <SCORE.RESTR.norm>
0.0225549

>  <SCORE.SYSTEM>
0

>  <SCORE.SYSTEM.CONST>
0

>  <SCORE.SYSTEM.DIHEDRAL>
0

>  <SCORE.SYSTEM.SOLV>
0

>  <SCORE.SYSTEM.norm>
0

>  <SCORE.heavy>
46

>  <SCORE.norm>
0.85826

>  <RMSD>
15.353

$$$$
ligand
 OpenBabel02271912143D
libRbt.so/2013.1/901 2013/11/27
 46 52  0  0  0  0  0  0  0  0999 V2000
  -14.6840   -9.5148   19.4156 P   0  0  1  0  0  0  0  0  0  0  0  0
  -19.4238  -10.8505   16.1868 P   0  0  2  0  0  0  0  0  0  0  0  0
  -14.8624   -7.9018   20.1286 O   0  5  0  0  0  0  0  0  0  0  0  0
  -13.1826  -10.3104   19.9563 O   0  0  0  0  0  0  0  0  0  0  0  0
  -16.1543  -11.7174   19.3159 C   0  0  0  0  0  0  0  0  0  0  0  0
  -15.9658  -10.3996   19.8319 O   0  0  0  0  0  0  0  0  0  0  0  0
  -17.6153  -12.0938   19.4727 C   0  0  1  0  0  0  0  0  0  0  0  0
  -18.0138  -11.9035   20.8376 O   0  0  0  0  0  0  0  0  0  0  0  0
  -18.5511  -11.2234   18.6498 C   0  0  1  0  0  0  0  0  0  0  0  0
  -18.7927  -11.7692   17.3549 O   0  0  0  0  0  0  0  0  0  0  0  0
  -19.8131  -11.1806   19.4933 C   0  0  1  0  0  0  0  0  0  0  0  0
  -20.6655  -12.2781   19.1565 O   0  0  0  0  0  0  0  0  0  0  0  0
  -19.3390  -11.3566   20.9239 C   0  0  2  0  0  0  0  0  0  0  0  0
  -16.1231   -6.9181   15.7193 C   0  0  1  0  0  0  0  0  0  0  0  0
  -17.0301   -8.3099   24.6089 N   0  0  0  0  0  0  0  0  0  0  0  0
  -16.7328   -9.5866   24.2428 C   0  0  1  0  0  0  0  0  0  0  0  0
  -15.6056   -7.3148   17.0728 C   0  0  2  0  0  0  0  0  0  0  0  0
  -15.7154  -10.2135   24.8772 N   0  0  0  0  0  0  0  0  0  0  0  0
  -14.2196   -6.9686   17.0932 O   0  0  0  0  0  0  0  0  0  0  0  0
  -15.8194   -8.8138   17.1438 C   0  0  2  0  0  0  0  0  0  0  0  0
  -17.4191  -10.2556   23.2690 N   0  0  0  0  0  0  0  0  0  0  0  0
  -14.7466   -9.4670   17.8086 O   0  0  0  0  0  0  0  0  0  0  0  0
  -18.4459   -9.6705   22.6020 C   0  0  2  0  0  0  0  0  0  0  0  0
  -15.8875   -9.2659   15.6984 C   0  0  2  0  0  0  0  0  0  0  0  0
  -16.2418   -8.1091   14.9423 O   0  0  0  0  0  0  0  0  0  0  0  0
  -18.8110   -8.2894   22.9620 C   0  0  1  0  0  0  0  0  0  0  0  0
  -16.9236  -10.3605   15.4686 C   0  0  0  0  0  0  0  0  0  0  0  0
  -18.2184   -9.8553   15.8005 O   0  0  0  0  0  0  0  0  0  0  0  0
  -18.0335   -7.6200   24.0200 C   0  0  0  0  0  0  0  0  0  0  0  0
  -18.3254   -6.3484   24.3939 O   0  0  0  0  0  0  0  0  0  0  0  0
  -19.8401   -7.9431   22.1809 N   0  0  0  0  0  0  0  0  0  0  0  0
  -20.1208   -9.0129   21.3806 C   0  0  0  0  0  0  0  0  0  0  0  0
  -19.2913  -10.0482   21.6289 N   0  0  1  0  0  0  0  0  0  0  0  0
  -19.4524   -3.5430   13.5074 N   0  0  0  0  0  0  0  0  0  0  0  0
  -20.8339   -9.9285   16.7718 O   0  5  0  0  0  0  0  0  0  0  0  0
  -18.2342   -3.9728   13.0783 C   0  0  2  0  0  0  0  0  0  0  0  0
  -17.7417   -3.5037   11.9021 N   0  0  0  0  0  0  0  0  0  0  0  0
  -19.8773  -11.7683   14.7376 O   0  0  0  0  0  0  0  0  0  0  0  0
  -17.4903   -4.8616   13.7917 N   0  0  0  0  0  0  0  0  0  0  0  0
  -17.9303   -5.3694   14.9668 C   0  0  2  0  0  0  0  0  0  0  0  0
  -19.2369   -4.9411   15.4834 C   0  0  2  0  0  0  0  0  0  0  0  0
  -19.9959   -3.9696   14.6671 C   0  0  0  0  0  0  0  0  0  0  0  0
  -21.2099   -3.5144   15.0641 O   0  0  0  0  0  0  0  0  0  0  0  0
  -19.4173   -5.5828   16.6547 N   0  0  0  0  0  0  0  0  0  0  0  0
  -18.3157   -6.3627   16.8676 C   0  0  0  0  0  0  0  0  0  0  0  0
  -17.4285   -6.2288   15.8557 N   0  0  1  0  0  0  0  0  0  0  0  0
  1  3  1  1  0  0  0
  1  4  2  0  0  0  0
  1  6  1  0  0  0  0
  1 22  1  0  0  0  0
  2 28  1  0  0  0  0
  2 35  1  1  0  0  0
  2 38  2  0  0  0  0
  2 10  1  0  0  0  0
  5  6  1  0  0  0  0
  7  5  1  1  0  0  0
  7  8  1  0  0  0  0
  7  9  1  0  0  0  0
  9 10  1  6  0  0  0
  9 11  1  0  0  0  0
 11 12  1  6  0  0  0
 11 13  1  0  0  0  0
 13  8  1  6  0  0  0
 13 33  1  0  0  0  0
 14 46  1  0  0  0  0
 14 17  1  0  0  0  0
 14 25  1  6  0  0  0
 15 16  1  0  0  0  0
 15 29  1  0  0  0  0
 16 18  1  1  0  0  0
 16 21  1  0  0  0  0
 17 19  1  6  0  0  0
 17 20  1  0  0  0  0
 20 22  1  6  0  0  0
 20 24  1  0  0  0  0
 23 21  1  1  0  0  0
 23 26  1  0  0  0  0
 23 33  1  0  0  0  0
 24 25  1  6  0  0  0
 24 27  1  0  0  0  0
 26 29  1  6  0  0  0
 26 31  1  0  0  0  0
 27 28  1  0  0  0  0
 29 30  2  0  0  0  0
 31 32  1  0  0  0  0
 33 32  1  6  0  0  0
 34 36  1  0  0  0  0
 34 42  1  0  0  0  0
 36 37  1  6  0  0  0
 36 39  1  0  0  0  0
 40 39  1  1  0  0  0
 40 41  1  0  0  0  0
 40 46  1  0  0  0  0
 41 42  1  1  0  0  0
 41 44  1  0  0  0  0
 42 43  2  0  0  0  0
 44 45  1  0  0  0  0
 46 45  1  6  0  0  0
M  CHG  2   3  -1  35  -1
M  END
>  <CHROM.1>
-31.80392125,155.80580710,-17.71182192,-8.63903397,18.35709957,-0.73384879
-1.43281353,-0.23885181

>  <Name>
ligand

>  <RI>
0

>  <Rbt.Current_Directory>
/home/itssahil/PROJECTS/Mol_Feturizer/Test_systems_manuscript/rnas/3mum

>  <Rbt.Executable>
rbdock ($Id: //depot/dev/client3/rdock/2013.1/src/exe/rbdock.cxx#4 $)

>  <Rbt.Library>
libRbt.so (2013.1, Build901 2013/11/27)

>  <Rbt.Parameter_File>
/export/apps/rDock/src/rDock_2013.1_src/data/scripts/dock_solv.prm

>  <Rbt.Receptor>
prm/blind_docking_60.prm

>  <SCORE>
39.1297

>  <SCORE.INTER>
38.1805

>  <SCORE.INTER.CONST>
1

>  <SCORE.INTER.POLAR>
0

>  <SCORE.INTER.ROT>
2

>  <SCORE.INTER.SOLV>
36.7361

>  <SCORE.INTER.VDW>
8.27495

>  <SCORE.INTER.norm>
0.83001

>  <SCORE.INTRA>
0.341725

>  <SCORE.INTRA.DIHEDRAL>
-0.0271338

>  <SCORE.INTRA.DIHEDRAL.0>
2.40424

>  <SCORE.INTRA.POLAR>
0

>  <SCORE.INTRA.POLAR.0>
0

>  <SCORE.INTRA.REPUL>
0

>  <SCORE.INTRA.REPUL.0>
0

>  <SCORE.INTRA.SOLV>
0.038118

>  <SCORE.INTRA.SOLV.lig_0>
-134.169

>  <SCORE.INTRA.VDW>
0.336233

>  <SCORE.INTRA.VDW.0>
-2.18386

>  <SCORE.INTRA.norm>
0.00742881

>  <SCORE.RESTR>
0.607527

>  <SCORE.RESTR.CAVITY>
0.607527

>  <SCORE.RESTR.norm>
0.0132071

>  <SCORE.SYSTEM>
0

>  <SCORE.SYSTEM.CONST>
0

>  <SCORE.SYSTEM.DIHEDRAL>
0

>  <SCORE.SYSTEM.SOLV>
0

>  <SCORE.SYSTEM.norm>
0

>  <SCORE.heavy>
46

>  <SCORE.norm>
0.850646

>  <RMSD>
15.356

$$$$
ligand
 OpenBabel02271912143D
libRbt.so/2013.1/901 2013/11/27
 46 52  0  0  0  0  0  0  0  0999 V2000
  -14.9025  -10.4926   20.7144 P   0  0  1  0  0  0  0  0  0  0  0  0
  -19.5789  -10.3846   17.1373 P   0  0  2  0  0  0  0  0  0  0  0  0
  -14.3897   -8.8411   21.1034 O   0  5  0  0  0  0  0  0  0  0  0  0
  -13.9325  -11.7058   21.5899 O   0  0  0  0  0  0  0  0  0  0  0  0
  -17.1839  -11.8388   20.7955 C   0  0  0  0  0  0  0  0  0  0  0  0
  -16.4618  -10.6442   21.0952 O   0  0  0  0  0  0  0  0  0  0  0  0
  -18.6675  -11.5236   20.8096 C   0  0  1  0  0  0  0  0  0  0  0  0
  -19.0097  -10.8916   22.0511 O   0  0  0  0  0  0  0  0  0  0  0  0
  -19.0833  -10.5431   19.7251 C   0  0  1  0  0  0  0  0  0  0  0  0
  -19.4749  -11.2047   18.5242 O   0  0  0  0  0  0  0  0  0  0  0  0
  -20.2388   -9.7925   20.3634 C   0  0  1  0  0  0  0  0  0  0  0  0
  -21.4685  -10.4755   20.1071 O   0  0  0  0  0  0  0  0  0  0  0  0
  -19.9625   -9.8350   21.8548 C   0  0  2  0  0  0  0  0  0  0  0  0
  -14.8674   -8.4052   16.4579 C   0  0  1  0  0  0  0  0  0  0  0  0
  -17.7871   -7.0514   25.8186 N   0  0  0  0  0  0  0  0  0  0  0  0
  -18.2278   -8.3391   25.8162 C   0  0  1  0  0  0  0  0  0  0  0  0
  -14.6453   -8.6772   17.9187 C   0  0  2  0  0  0  0  0  0  0  0  0
  -18.1205   -9.0540   26.9599 N   0  0  0  0  0  0  0  0  0  0  0  0
  -13.2512   -8.9490   18.0719 O   0  0  0  0  0  0  0  0  0  0  0  0
  -15.4992   -9.8931   18.2192 C   0  0  2  0  0  0  0  0  0  0  0  0
  -18.7730   -8.9322   24.7127 N   0  0  0  0  0  0  0  0  0  0  0  0
  -14.8572  -10.7741   19.1309 O   0  0  0  0  0  0  0  0  0  0  0  0
  -18.9008   -8.2588   23.5415 C   0  0  2  0  0  0  0  0  0  0  0  0
  -15.6864  -10.5777   16.8795 C   0  0  2  0  0  0  0  0  0  0  0  0
  -15.4581   -9.5742   15.8915 O   0  0  0  0  0  0  0  0  0  0  0  0
  -18.4419   -6.8598   23.4907 C   0  0  1  0  0  0  0  0  0  0  0  0
  -17.0851  -11.1578   16.7014 C   0  0  0  0  0  0  0  0  0  0  0  0
  -18.0412  -10.0972   16.7559 O   0  0  0  0  0  0  0  0  0  0  0  0
  -17.8622   -6.2755   24.7132 C   0  0  0  0  0  0  0  0  0  0  0  0
  -17.4237   -4.9911   24.7256 O   0  0  0  0  0  0  0  0  0  0  0  0
  -18.6767   -6.4184   22.2501 N   0  0  0  0  0  0  0  0  0  0  0  0
  -19.2432   -7.4466   21.5534 C   0  0  0  0  0  0  0  0  0  0  0  0
  -19.3803   -8.5485   22.3206 N   0  0  1  0  0  0  0  0  0  0  0  0
  -19.2864   -6.5972   14.3196 N   0  0  0  0  0  0  0  0  0  0  0  0
  -20.4680   -8.8532   17.3498 O   0  5  0  0  0  0  0  0  0  0  0  0
  -18.7321   -7.8388   14.2556 C   0  0  2  0  0  0  0  0  0  0  0  0
  -19.3665   -8.8132   13.5527 N   0  0  0  0  0  0  0  0  0  0  0  0
  -20.3162  -11.3187   15.8213 O   0  0  0  0  0  0  0  0  0  0  0  0
  -17.5581   -8.1377   14.8759 N   0  0  0  0  0  0  0  0  0  0  0  0
  -16.8831   -7.2114   15.5960 C   0  0  2  0  0  0  0  0  0  0  0  0
  -17.4300   -5.8521   15.6996 C   0  0  2  0  0  0  0  0  0  0  0  0
  -18.7050   -5.5863   14.9996 C   0  0  0  0  0  0  0  0  0  0  0  0
  -19.2850   -4.3612   15.0360 O   0  0  0  0  0  0  0  0  0  0  0  0
  -16.5644   -5.1448   16.4524 N   0  0  0  0  0  0  0  0  0  0  0  0
  -15.5474   -5.9863   16.8057 C   0  0  0  0  0  0  0  0  0  0  0  0
  -15.7424   -7.2204   16.2882 N   0  0  1  0  0  0  0  0  0  0  0  0
  1  3  1  1  0  0  0
  1  4  2  0  0  0  0
  1  6  1  0  0  0  0
  1 22  1  0  0  0  0
  2 28  1  0  0  0  0
  2 35  1  1  0  0  0
  2 38  2  0  0  0  0
  2 10  1  0  0  0  0
  5  6  1  0  0  0  0
  7  5  1  1  0  0  0
  7  8  1  0  0  0  0
  7  9  1  0  0  0  0
  9 10  1  6  0  0  0
  9 11  1  0  0  0  0
 11 12  1  1  0  0  0
 11 13  1  0  0  0  0
 13  8  1  6  0  0  0
 13 33  1  0  0  0  0
 14 46  1  0  0  0  0
 14 17  1  0  0  0  0
 14 25  1  1  0  0  0
 15 16  1  0  0  0  0
 15 29  1  0  0  0  0
 16 18  1  1  0  0  0
 16 21  1  0  0  0  0
 17 19  1  6  0  0  0
 17 20  1  0  0  0  0
 20 22  1  1  0  0  0
 20 24  1  0  0  0  0
 23 21  1  1  0  0  0
 23 26  1  0  0  0  0
 23 33  1  0  0  0  0
 24 25  1  6  0  0  0
 24 27  1  0  0  0  0
 26 29  1  6  0  0  0
 26 31  1  0  0  0  0
 27 28  1  0  0  0  0
 29 30  2  0  0  0  0
 31 32  1  0  0  0  0
 33 32  1  6  0  0  0
 34 36  1  0  0  0  0
 34 42  1  0  0  0  0
 36 37  1  1  0  0  0
 36 39  1  0  0  0  0
 40 39  1  6  0  0  0
 40 41  1  0  0  0  0
 40 46  1  0  0  0  0
 41 42  1  6  0  0  0
 41 44  1  0  0  0  0
 42 43  2  0  0  0  0
 44 45  1  0  0  0  0
 46 45  1  1  0  0  0
M  CHG  2   3  -1  35  -1
M  END
>  <CHROM.1>
-56.99428788,-124.43213679,-17.62512627,-8.88036216,19.28728064,-1.59992084
0.56590101,-1.50102942

>  <Name>
ligand

>  <RI>
-1

>  <Rbt.Current_Directory>
/home/itssahil/PROJECTS/Mol_Feturizer/Test_systems_manuscript/rnas/3mum

>  <Rbt.Executable>
rbdock ($Id: //depot/dev/client3/rdock/2013.1/src/exe/rbdock.cxx#4 $)

>  <Rbt.Library>
libRbt.so (2013.1, Build901 2013/11/27)

>  <Rbt.Parameter_File>
/export/apps/rDock/src/rDock_2013.1_src/data/scripts/dock_solv.prm

>  <Rbt.Receptor>
prm/blind_docking_40.prm

>  <SCORE>
49.1956

>  <SCORE.INTER>
46.5673

>  <SCORE.INTER.CONST>
1

>  <SCORE.INTER.POLAR>
0

>  <SCORE.INTER.ROT>
2

>  <SCORE.INTER.SOLV>
33.264

>  <SCORE.INTER.VDW>
15.0235

>  <SCORE.INTER.norm>
1.01233

>  <SCORE.INTRA>
1.65487

>  <SCORE.INTRA.DIHEDRAL>
0.00327175

>  <SCORE.INTRA.DIHEDRAL.0>
2.40424

>  <SCORE.INTRA.POLAR>
0

>  <SCORE.INTRA.POLAR.0>
0

>  <SCORE.INTRA.REPUL>
0

>  <SCORE.INTRA.REPUL.0>
0

>  <SCORE.INTRA.SOLV>
4.5273

>  <SCORE.INTRA.SOLV.lig_0>
-134.169

>  <SCORE.INTRA.VDW>
-0.610411

>  <SCORE.INTRA.VDW.0>
-2.18386

>  <SCORE.INTRA.norm>
0.0359755

>  <SCORE.RESTR>
0.973504

>  <SCORE.RESTR.CAVITY>
0.973504

>  <SCORE.RESTR.norm>
0.0211631

>  <SCORE.SYSTEM>
0

>  <SCORE.SYSTEM.CONST>
0

>  <SCORE.SYSTEM.DIHEDRAL>
0

>  <SCORE.SYSTEM.SOLV>
0

>  <SCORE.SYSTEM.norm>
0

>  <SCORE.heavy>
46

>  <SCORE.norm>
1.06947

>  <RMSD>
15.490

$$$$
ligand
 OpenBabel02271912143D
libRbt.so/2013.1/901 2013/11/27
 46 52  0  0  0  0  0  0  0  0999 V2000
  -14.9198  -10.5175   20.7107 P   0  0  1  0  0  0  0  0  0  0  0  0
  -19.5774  -10.3975   17.1095 P   0  0  2  0  0  0  0  0  0  0  0  0
  -14.4068   -8.8673   21.1049 O   0  5  0  0  0  0  0  0  0  0  0  0
  -13.9559  -11.7334   21.5892 O   0  0  0  0  0  0  0  0  0  0  0  0
  -17.2034  -11.8607   20.7777 C   0  0  0  0  0  0  0  0  0  0  0  0
  -16.4812  -10.6675   21.0831 O   0  0  0  0  0  0  0  0  0  0  0  0
  -18.6866  -11.5436   20.7847 C   0  0  1  0  0  0  0  0  0  0  0  0
  -19.0344  -10.9130   22.0254 O   0  0  0  0  0  0  0  0  0  0  0  0
  -19.0955  -10.5608   19.6996 C   0  0  1  0  0  0  0  0  0  0  0  0
  -19.4817  -11.2199   18.4956 O   0  0  0  0  0  0  0  0  0  0  0  0
  -20.2532   -9.8096   20.3330 C   0  0  1  0  0  0  0  0  0  0  0  0
  -21.4825  -10.4905   20.0693 O   0  0  0  0  0  0  0  0  0  0  0  0
  -19.9848   -9.8549   21.8258 C   0  0  2  0  0  0  0  0  0  0  0  0
  -14.8598   -8.4234   16.4577 C   0  0  1  0  0  0  0  0  0  0  0  0
  -17.8642   -7.0674   25.8166 N   0  0  0  0  0  0  0  0  0  0  0  0
  -18.3126   -8.3525   25.8116 C   0  0  1  0  0  0  0  0  0  0  0  0
  -14.6457   -8.6980   17.9192 C   0  0  2  0  0  0  0  0  0  0  0  0
  -18.2302   -9.0631   26.9600 N   0  0  0  0  0  0  0  0  0  0  0  0
  -13.2527   -8.9719   18.0792 O   0  0  0  0  0  0  0  0  0  0  0  0
  -15.5027   -9.9132   18.2133 C   0  0  2  0  0  0  0  0  0  0  0  0
  -18.8414   -8.9470   24.7009 N   0  0  0  0  0  0  0  0  0  0  0  0
  -14.8666  -10.7965   19.1269 O   0  0  0  0  0  0  0  0  0  0  0  0
  -18.9440   -8.2778   23.5248 C   0  0  2  0  0  0  0  0  0  0  0  0
  -15.6839  -10.5954   16.8716 C   0  0  2  0  0  0  0  0  0  0  0  0
  -15.4491   -9.5907   15.8864 O   0  0  0  0  0  0  0  0  0  0  0  0
  -18.4758   -6.8818   23.4765 C   0  0  1  0  0  0  0  0  0  0  0  0
  -17.0824  -11.1734   16.6854 C   0  0  0  0  0  0  0  0  0  0  0  0
  -18.0373  -10.1115   16.7366 O   0  0  0  0  0  0  0  0  0  0  0  0
  -17.9147   -6.2958   24.7068 C   0  0  0  0  0  0  0  0  0  0  0  0
  -17.4687   -5.0140   24.7217 O   0  0  0  0  0  0  0  0  0  0  0  0
  -18.6856   -6.4443   22.2300 N   0  0  0  0  0  0  0  0  0  0  0  0
  -19.2457   -7.4721   21.5275 C   0  0  0  0  0  0  0  0  0  0  0  0
  -19.4032   -8.5698   22.2967 N   0  0  1  0  0  0  0  0  0  0  0  0
  -19.1730   -6.5588   14.1581 N   0  0  0  0  0  0  0  0  0  0  0  0
  -20.4655   -8.8652   17.3198 O   0  5  0  0  0  0  0  0  0  0  0  0
  -18.6081   -7.7947   14.0784 C   0  0  2  0  0  0  0  0  0  0  0  0
  -19.1990   -8.7457   13.3087 N   0  0  0  0  0  0  0  0  0  0  0  0
  -20.3091  -11.3285   15.7882 O   0  0  0  0  0  0  0  0  0  0  0  0
  -17.4662   -8.1106   14.7480 N   0  0  0  0  0  0  0  0  0  0  0  0
  -16.8354   -7.2082   15.5353 C   0  0  2  0  0  0  0  0  0  0  0  0
  -17.3957   -5.8559   15.6591 C   0  0  2  0  0  0  0  0  0  0  0  0
  -18.6342   -5.5706   14.9035 C   0  0  0  0  0  0  0  0  0  0  0  0
  -19.2231   -4.3503   14.9537 O   0  0  0  0  0  0  0  0  0  0  0  0
  -16.5749   -5.1726   16.4811 N   0  0  0  0  0  0  0  0  0  0  0  0
  -15.5724   -6.0218   16.8564 C   0  0  0  0  0  0  0  0  0  0  0  0
  -15.7323   -7.2372   16.2854 N   0  0  1  0  0  0  0  0  0  0  0  0
  1  3  1  1  0  0  0
  1  4  2  0  0  0  0
  1  6  1  0  0  0  0
  1 22  1  0  0  0  0
  2 28  1  0  0  0  0
  2 35  1  1  0  0  0
  2 38  2  0  0  0  0
  2 10  1  0  0  0  0
  5  6  1  0  0  0  0
  7  5  1  1  0  0  0
  7  8  1  0  0  0  0
  7  9  1  0  0  0  0
  9 10  1  6  0  0  0
  9 11  1  0  0  0  0
 11 12  1  1  0  0  0
 11 13  1  0  0  0  0
 13  8  1  6  0  0  0
 13 33  1  0  0  0  0
 14 46  1  0  0  0  0
 14 17  1  0  0  0  0
 14 25  1  1  0  0  0
 15 16  1  0  0  0  0
 15 29  1  0  0  0  0
 16 18  1  1  0  0  0
 16 21  1  0  0  0  0
 17 19  1  6  0  0  0
 17 20  1  0  0  0  0
 20 22  1  1  0  0  0
 20 24  1  0  0  0  0
 23 21  1  1  0  0  0
 23 26  1  0  0  0  0
 23 33  1  0  0  0  0
 24 25  1  6  0  0  0
 24 27  1  0  0  0  0
 26 29  1  6  0  0  0
 26 31  1  0  0  0  0
 27 28  1  0  0  0  0
 29 30  2  0  0  0  0
 31 32  1  0  0  0  0
 33 32  1  6  0  0  0
 34 36  1  0  0  0  0
 34 42  1  0  0  0  0
 36 37  1  1  0  0  0
 36 39  1  0  0  0  0
 40 39  1  6  0  0  0
 40 41  1  0  0  0  0
 40 46  1  0  0  0  0
 41 42  1  6  0  0  0
 41 44  1  0  0  0  0
 42 43  2  0  0  0  0
 44 45  1  0  0  0  0
 46 45  1  1  0  0  0
M  CHG  2   3  -1  35  -1
M  END
>  <CHROM.1>
-57.84389571,-127.79754115,-17.62680862,-8.89273010,19.25771101,-1.61542734
0.61007170,-1.48608921

>  <Name>
ligand

>  <RI>
-1

>  <Rbt.Current_Directory>
/home/itssahil/PROJECTS/Mol_Feturizer/Test_systems_manuscript/rnas/3mum

>  <Rbt.Executable>
rbdock ($Id: //depot/dev/client3/rdock/2013.1/src/exe/rbdock.cxx#4 $)

>  <Rbt.Library>
libRbt.so (2013.1, Build901 2013/11/27)

>  <Rbt.Parameter_File>
/export/apps/rDock/src/rDock_2013.1_src/data/scripts/dock_solv.prm

>  <Rbt.Receptor>
prm/blind_docking_40.prm

>  <SCORE>
49.8108

>  <SCORE.INTER>
47.8799

>  <SCORE.INTER.CONST>
1

>  <SCORE.INTER.POLAR>
0

>  <SCORE.INTER.ROT>
2

>  <SCORE.INTER.SOLV>
33.6129

>  <SCORE.INTER.VDW>
15.7823

>  <SCORE.INTER.norm>
1.04087

>  <SCORE.INTRA>
1.02354

>  <SCORE.INTRA.DIHEDRAL>
0.00768169

>  <SCORE.INTRA.DIHEDRAL.0>
2.40424

>  <SCORE.INTRA.POLAR>
0

>  <SCORE.INTRA.POLAR.0>
0

>  <SCORE.INTRA.REPUL>
0

>  <SCORE.INTRA.REPUL.0>
0

>  <SCORE.INTRA.SOLV>
2.94314

>  <SCORE.INTRA.SOLV.lig_0>
-134.169

>  <SCORE.INTRA.VDW>
-0.451873

>  <SCORE.INTRA.VDW.0>
-2.18386

>  <SCORE.INTRA.norm>
0.0222509

>  <SCORE.RESTR>
0.907349

>  <SCORE.RESTR.CAVITY>
0.907349

>  <SCORE.RESTR.norm>
0.019725

>  <SCORE.SYSTEM>
0

>  <SCORE.SYSTEM.CONST>
0

>  <SCORE.SYSTEM.DIHEDRAL>
0

>  <SCORE.SYSTEM.SOLV>
0

>  <SCORE.SYSTEM.norm>
0

>  <SCORE.heavy>
46

>  <SCORE.norm>
1.08284

>  <RMSD>
15.493

$$$$
ligand
 OpenBabel02271912143D
libRbt.so/2013.1/901 2013/11/27
 46 52  0  0  0  0  0  0  0  0999 V2000
  -14.9213  -10.4946   20.7239 P   0  0  1  0  0  0  0  0  0  0  0  0
  -19.5782  -10.3795   17.1217 P   0  0  2  0  0  0  0  0  0  0  0  0
  -14.4105   -8.8439   21.1188 O   0  5  0  0  0  0  0  0  0  0  0  0
  -13.9562  -11.7095   21.6024 O   0  0  0  0  0  0  0  0  0  0  0  0
  -17.2032  -11.8407   20.7901 C   0  0  0  0  0  0  0  0  0  0  0  0
  -16.4827  -10.6467   21.0959 O   0  0  0  0  0  0  0  0  0  0  0  0
  -18.6869  -11.5254   20.7968 C   0  0  1  0  0  0  0  0  0  0  0  0
  -19.0358  -10.8956   22.0376 O   0  0  0  0  0  0  0  0  0  0  0  0
  -19.0967  -10.5428   19.7118 C   0  0  1  0  0  0  0  0  0  0  0  0
  -19.4818  -11.2021   18.5076 O   0  0  0  0  0  0  0  0  0  0  0  0
  -20.2555   -9.7932   20.3452 C   0  0  1  0  0  0  0  0  0  0  0  0
  -21.4839  -10.4756   20.0810 O   0  0  0  0  0  0  0  0  0  0  0  0
  -19.9874   -9.8386   21.8380 C   0  0  2  0  0  0  0  0  0  0  0  0
  -14.8629   -8.3993   16.4715 C   0  0  1  0  0  0  0  0  0  0  0  0
  -17.8366   -7.0614   25.8198 N   0  0  0  0  0  0  0  0  0  0  0  0
  -18.2779   -8.3489   25.8127 C   0  0  1  0  0  0  0  0  0  0  0  0
  -14.6488   -8.6740   17.9330 C   0  0  2  0  0  0  0  0  0  0  0  0
  -18.1785   -9.0653   26.9562 N   0  0  0  0  0  0  0  0  0  0  0  0
  -13.2555   -8.9462   18.0933 O   0  0  0  0  0  0  0  0  0  0  0  0
  -15.5044   -9.8904   18.2266 C   0  0  2  0  0  0  0  0  0  0  0  0
  -18.8162   -8.9402   24.7049 N   0  0  0  0  0  0  0  0  0  0  0  0
  -14.8674  -10.7731   19.1401 O   0  0  0  0  0  0  0  0  0  0  0  0
  -18.9360   -8.2652   23.5337 C   0  0  2  0  0  0  0  0  0  0  0  0
  -15.6844  -10.5725   16.8846 C   0  0  2  0  0  0  0  0  0  0  0  0
  -15.4507   -9.5672   15.8998 O   0  0  0  0  0  0  0  0  0  0  0  0
  -18.4760   -6.8663   23.4879 C   0  0  1  0  0  0  0  0  0  0  0  0
  -17.0821  -11.1521   16.6979 C   0  0  0  0  0  0  0  0  0  0  0  0
  -18.0384  -10.0915   16.7492 O   0  0  0  0  0  0  0  0  0  0  0  0
  -17.9041   -6.2839   24.7150 C   0  0  0  0  0  0  0  0  0  0  0  0
  -17.4650   -4.9998   24.7319 O   0  0  0  0  0  0  0  0  0  0  0  0
  -18.7025   -6.4231   22.2464 N   0  0  0  0  0  0  0  0  0  0  0  0
  -19.2649   -7.4501   21.5445 C   0  0  0  0  0  0  0  0  0  0  0  0
  -19.4075   -8.5529   22.3094 N   0  0  1  0  0  0  0  0  0  0  0  0
  -19.2878   -6.5958   14.3417 N   0  0  0  0  0  0  0  0  0  0  0  0
  -20.4683   -8.8484   17.3322 O   0  5  0  0  0  0  0  0  0  0  0  0
  -18.7355   -7.8385   14.2818 C   0  0  2  0  0  0  0  0  0  0  0  0
  -19.3742   -8.8155   13.5865 N   0  0  0  0  0  0  0  0  0  0  0  0
  -20.3084  -11.3110   15.7999 O   0  0  0  0  0  0  0  0  0  0  0  0
  -17.5595   -8.1359   14.8989 N   0  0  0  0  0  0  0  0  0  0  0  0
  -16.8803   -7.2070   15.6116 C   0  0  2  0  0  0  0  0  0  0  0  0
  -17.4249   -5.8464   15.7104 C   0  0  2  0  0  0  0  0  0  0  0  0
  -18.7022   -5.5823   15.0142 C   0  0  0  0  0  0  0  0  0  0  0  0
  -19.2803   -4.3562   15.0467 O   0  0  0  0  0  0  0  0  0  0  0  0
  -16.5552   -5.1365   16.4562 N   0  0  0  0  0  0  0  0  0  0  0  0
  -15.5380   -5.9776   16.8096 C   0  0  0  0  0  0  0  0  0  0  0  0
  -15.7368   -7.2141   16.2993 N   0  0  1  0  0  0  0  0  0  0  0  0
  1  3  1  1  0  0  0
  1  4  2  0  0  0  0
  1  6  1  0  0  0  0
  1 22  1  0  0  0  0
  2 28  1  0  0  0  0
  2 35  1  1  0  0  0
  2 38  2  0  0  0  0
  2 10  1  0  0  0  0
  5  6  1  0  0  0  0
  7  5  1  1  0  0  0
  7  8  1  0  0  0  0
  7  9  1  0  0  0  0
  9 10  1  6  0  0  0
  9 11  1  0  0  0  0
 11 12  1  1  0  0  0
 11 13  1  0  0  0  0
 13  8  1  6  0  0  0
 13 33  1  0  0  0  0
 14 46  1  0  0  0  0
 14 17  1  0  0  0  0
 14 25  1  1  0  0  0
 15 16  1  0  0  0  0
 15 29  1  0  0  0  0
 16 18  1  1  0  0  0
 16 21  1  0  0  0  0
 17 19  1  6  0  0  0
 17 20  1  0  0  0  0
 20 22  1  1  0  0  0
 20 24  1  0  0  0  0
 23 21  1  1  0  0  0
 23 26  1  0  0  0  0
 23 33  1  0  0  0  0
 24 25  1  6  0  0  0
 24 27  1  0  0  0  0
 26 29  1  6  0  0  0
 26 31  1  0  0  0  0
 27 28  1  0  0  0  0
 29 30  2  0  0  0  0
 31 32  1  0  0  0  0
 33 32  1  6  0  0  0
 34 36  1  0  0  0  0
 34 42  1  0  0  0  0
 36 37  1  1  0  0  0
 36 39  1  0  0  0  0
 40 39  1  6  0  0  0
 40 41  1  0  0  0  0
 40 46  1  0  0  0  0
 41 42  1  6  0  0  0
 41 44  1  0  0  0  0
 42 43  2  0  0  0  0
 44 45  1  0  0  0  0
 46 45  1  1  0  0  0
M  CHG  2   3  -1  35  -1
M  END
>  <CHROM.1>
-57.06924130,-123.75632038,-17.63829031,-8.88025899,19.28831548,-1.60593610
0.55936006,-1.49723259

>  <Name>
ligand

>  <RI>
-1

>  <Rbt.Current_Directory>
/home/itssahil/PROJECTS/Mol_Feturizer/Test_systems_manuscript/rnas/3mum

>  <Rbt.Executable>
rbdock ($Id: //depot/dev/client3/rdock/2013.1/src/exe/rbdock.cxx#4 $)

>  <Rbt.Library>
libRbt.so (2013.1, Build901 2013/11/27)

>  <Rbt.Parameter_File>
/export/apps/rDock/src/rDock_2013.1_src/data/scripts/dock_solv.prm

>  <Rbt.Receptor>
prm/blind_docking_40.prm

>  <SCORE>
49.5412

>  <SCORE.INTER>
46.8343

>  <SCORE.INTER.CONST>
1

>  <SCORE.INTER.POLAR>
0

>  <SCORE.INTER.ROT>
2

>  <SCORE.INTER.SOLV>
33.1759

>  <SCORE.INTER.VDW>
15.2309

>  <SCORE.INTER.norm>
1.01814

>  <SCORE.INTRA>
1.79837

>  <SCORE.INTRA.DIHEDRAL>
0.00230948

>  <SCORE.INTRA.DIHEDRAL.0>
2.40424

>  <SCORE.INTRA.POLAR>
0

>  <SCORE.INTRA.POLAR.0>
0

>  <SCORE.INTRA.REPUL>
0

>  <SCORE.INTRA.REPUL.0>
0

>  <SCORE.INTRA.SOLV>
4.83858

>  <SCORE.INTRA.SOLV.lig_0>
-134.169

>  <SCORE.INTRA.VDW>
-0.622069

>  <SCORE.INTRA.VDW.0>
-2.18386

>  <SCORE.INTRA.norm>
0.0390951

>  <SCORE.RESTR>
0.90859

>  <SCORE.RESTR.CAVITY>
0.90859

>  <SCORE.RESTR.norm>
0.019752

>  <SCORE.SYSTEM>
0

>  <SCORE.SYSTEM.CONST>
0

>  <SCORE.SYSTEM.DIHEDRAL>
0

>  <SCORE.SYSTEM.SOLV>
0

>  <SCORE.SYSTEM.norm>
0

>  <SCORE.heavy>
46

>  <SCORE.norm>
1.07698

>  <RMSD>
15.498

$$$$
ligand
 OpenBabel02271912143D
libRbt.so/2013.1/901 2013/11/27
 46 52  0  0  0  0  0  0  0  0999 V2000
  -19.2074  -11.2302   17.4685 P   0  0  1  0  0  0  0  0  0  0  0  0
  -14.8092  -10.3095   21.2743 P   0  0  2  0  0  0  0  0  0  0  0  0
  -20.2026   -9.7713   17.3167 O   0  5  0  0  0  0  0  0  0  0  0  0
  -19.7520  -12.5159   16.3596 O   0  0  0  0  0  0  0  0  0  0  0  0
  -16.6218  -11.7877   17.3041 C   0  0  0  0  0  0  0  0  0  0  0  0
  -17.6756  -10.8358   17.1566 O   0  0  0  0  0  0  0  0  0  0  0  0
  -15.3075  -11.0398   17.4230 C   0  0  1  0  0  0  0  0  0  0  0  0
  -15.1710  -10.1354   16.3179 O   0  0  0  0  0  0  0  0  0  0  0  0
  -15.2195  -10.1754   18.6702 C   0  0  1  0  0  0  0  0  0  0  0  0
  -14.6487  -10.8783   19.7718 O   0  0  0  0  0  0  0  0  0  0  0  0
  -14.3487   -9.0141   18.2242 C   0  0  1  0  0  0  0  0  0  0  0  0
  -12.9695   -9.3248   18.4380 O   0  0  0  0  0  0  0  0  0  0  0  0
  -14.5913   -8.8882   16.7316 C   0  0  2  0  0  0  0  0  0  0  0  0
  -19.9046   -9.9949   21.9923 C   0  0  1  0  0  0  0  0  0  0  0  0
  -18.4077   -6.9294   13.6026 N   0  0  0  0  0  0  0  0  0  0  0  0
  -17.7340   -8.1074   13.4984 C   0  0  1  0  0  0  0  0  0  0  0  0
  -20.0251  -10.0729   20.4967 C   0  0  2  0  0  0  0  0  0  0  0  0
  -18.0410   -8.9310   12.4697 N   0  0  0  0  0  0  0  0  0  0  0  0
  -21.2668  -10.7250   20.2246 O   0  0  0  0  0  0  0  0  0  0  0  0
  -18.8366  -10.9044   20.0565 C   0  0  2  0  0  0  0  0  0  0  0  0
  -16.7649   -8.4859   14.3839 N   0  0  0  0  0  0  0  0  0  0  0  0
  -19.1713  -11.7729   18.9827 O   0  0  0  0  0  0  0  0  0  0  0  0
  -16.4218   -7.6966   15.4332 C   0  0  2  0  0  0  0  0  0  0  0  0
  -18.4538  -11.7140   21.2798 C   0  0  2  0  0  0  0  0  0  0  0  0
  -18.9850  -11.0072   22.3994 O   0  0  0  0  0  0  0  0  0  0  0  0
  -17.1188   -6.4083   15.5905 C   0  0  1  0  0  0  0  0  0  0  0  0
  -16.9453  -11.8639   21.4422 C   0  0  0  0  0  0  0  0  0  0  0  0
  -16.3625  -10.5699   21.6094 O   0  0  0  0  0  0  0  0  0  0  0  0
  -18.1550   -6.0555   14.6036 C   0  0  0  0  0  0  0  0  0  0  0  0
  -18.8291   -4.8813   14.6978 O   0  0  0  0  0  0  0  0  0  0  0  0
  -16.6075   -5.8198   16.6773 N   0  0  0  0  0  0  0  0  0  0  0  0
  -15.6553   -6.6572   17.1829 C   0  0  0  0  0  0  0  0  0  0  0  0
  -15.5396   -7.7798   16.4426 N   0  0  1  0  0  0  0  0  0  0  0  0
  -17.2098   -7.2653   25.5497 N   0  0  0  0  0  0  0  0  0  0  0  0
  -14.4346   -8.5677   21.3562 O   0  5  0  0  0  0  0  0  0  0  0  0
  -17.4737   -8.5994   25.4922 C   0  0  2  0  0  0  0  0  0  0  0  0
  -16.9932   -9.4134   26.4681 N   0  0  0  0  0  0  0  0  0  0  0  0
  -13.8262  -11.1824   22.4658 O   0  0  0  0  0  0  0  0  0  0  0  0
  -18.2058   -9.1473   24.4841 N   0  0  0  0  0  0  0  0  0  0  0  0
  -18.7054   -8.3892   23.4803 C   0  0  2  0  0  0  0  0  0  0  0  0
  -18.4563   -6.9415   23.4889 C   0  0  2  0  0  0  0  0  0  0  0  0
  -17.6598   -6.4041   24.6126 C   0  0  0  0  0  0  0  0  0  0  0  0
  -17.3809   -5.0805   24.7070 O   0  0  0  0  0  0  0  0  0  0  0  0
  -19.0674   -6.4390   22.3978 N   0  0  0  0  0  0  0  0  0  0  0  0
  -19.6563   -7.4829   21.7417 C   0  0  0  0  0  0  0  0  0  0  0  0
  -19.4384   -8.6465   22.3954 N   0  0  1  0  0  0  0  0  0  0  0  0
  1  3  1  6  0  0  0
  1  4  2  0  0  0  0
  1  6  1  0  0  0  0
  1 22  1  0  0  0  0
  2 28  1  0  0  0  0
  2 35  1  1  0  0  0
  2 38  2  0  0  0  0
  2 10  1  0  0  0  0
  5  6  1  0  0  0  0
  7  5  1  6  0  0  0
  7  8  1  0  0  0  0
  7  9  1  0  0  0  0
  9 10  1  1  0  0  0
  9 11  1  0  0  0  0
 11 12  1  6  0  0  0
 11 13  1  0  0  0  0
 13  8  1  1  0  0  0
 13 33  1  0  0  0  0
 14 46  1  0  0  0  0
 14 17  1  0  0  0  0
 14 25  1  6  0  0  0
 15 16  1  0  0  0  0
 15 29  1  0  0  0  0
 16 18  1  6  0  0  0
 16 21  1  0  0  0  0
 17 19  1  1  0  0  0
 17 20  1  0  0  0  0
 20 22  1  6  0  0  0
 20 24  1  0  0  0  0
 23 21  1  6  0  0  0
 23 26  1  0  0  0  0
 23 33  1  0  0  0  0
 24 25  1  1  0  0  0
 24 27  1  0  0  0  0
 26 29  1  1  0  0  0
 26 31  1  0  0  0  0
 27 28  1  0  0  0  0
 29 30  2  0  0  0  0
 31 32  1  0  0  0  0
 33 32  1  1  0  0  0
 34 36  1  0  0  0  0
 34 42  1  0  0  0  0
 36 37  1  6  0  0  0
 36 39  1  0  0  0  0
 40 39  1  1  0  0  0
 40 41  1  0  0  0  0
 40 46  1  0  0  0  0
 41 42  1  1  0  0  0
 41 44  1  0  0  0  0
 42 43  2  0  0  0  0
 44 45  1  0  0  0  0
 46 45  1  6  0  0  0
M  CHG  2   3  -1  35  -1
M  END
>  <CHROM.1>
-32.14366858,-149.88927938,-17.32227513,-9.19631189,19.43272550,1.52826961
-0.71428190,-1.56373559

>  <Name>
ligand

>  <RI>
-1

>  <Rbt.Current_Directory>
/home/itssahil/PROJECTS/Mol_Feturizer/Test_systems_manuscript/rnas/3mum

>  <Rbt.Executable>
rbdock ($Id: //depot/dev/client3/rdock/2013.1/src/exe/rbdock.cxx#4 $)

>  <Rbt.Library>
libRbt.so (2013.1, Build901 2013/11/27)

>  <Rbt.Parameter_File>
/export/apps/rDock/src/rDock_2013.1_src/data/scripts/dock_solv.prm

>  <Rbt.Receptor>
prm/blind_docking_40.prm

>  <SCORE>
38.6339

>  <SCORE.INTER>
37.8943

>  <SCORE.INTER.CONST>
1

>  <SCORE.INTER.POLAR>
0

>  <SCORE.INTER.ROT>
2

>  <SCORE.INTER.SOLV>
38.1626

>  <SCORE.INTER.VDW>
7.60867

>  <SCORE.INTER.norm>
0.823789

>  <SCORE.INTRA>
0.326016

>  <SCORE.INTRA.DIHEDRAL>
0.0269182

>  <SCORE.INTRA.DIHEDRAL.0>
2.40424

>  <SCORE.INTRA.POLAR>
0

>  <SCORE.INTRA.POLAR.0>
0

>  <SCORE.INTRA.REPUL>
0

>  <SCORE.INTRA.REPUL.0>
0

>  <SCORE.INTRA.SOLV>
0.0710502

>  <SCORE.INTRA.SOLV.lig_0>
-134.169

>  <SCORE.INTRA.VDW>
0.277032

>  <SCORE.INTRA.VDW.0>
-2.18386

>  <SCORE.INTRA.norm>
0.0070873

>  <SCORE.RESTR>
0.413542

>  <SCORE.RESTR.CAVITY>
0.413542

>  <SCORE.RESTR.norm>
0.00899004

>  <SCORE.SYSTEM>
0

>  <SCORE.SYSTEM.CONST>
0

>  <SCORE.SYSTEM.DIHEDRAL>
0

>  <SCORE.SYSTEM.SOLV>
0

>  <SCORE.SYSTEM.norm>
0

>  <SCORE.heavy>
46

>  <SCORE.norm>
0.839867

>  <RMSD>
15.499

$$$$
ligand
 OpenBabel02271912143D
libRbt.so/2013.1/901 2013/11/27
 46 52  0  0  0  0  0  0  0  0999 V2000
  -19.2815   -8.0549   20.0729 P   0  0  1  0  0  0  0  0  0  0  0  0
  -15.1038   -7.9451   15.9244 P   0  0  2  0  0  0  0  0  0  0  0  0
  -20.2417   -9.5386   19.9371 O   0  5  0  0  0  0  0  0  0  0  0  0
  -19.7800   -7.0752   21.4768 O   0  0  0  0  0  0  0  0  0  0  0  0
  -16.7002   -7.4733   20.2211 C   0  0  0  0  0  0  0  0  0  0  0  0
  -17.7275   -8.4646   20.2016 O   0  0  0  0  0  0  0  0  0  0  0  0
  -15.3833   -8.1344   19.8614 C   0  0  1  0  0  0  0  0  0  0  0  0
  -15.1661   -9.2641   20.7185 O   0  0  0  0  0  0  0  0  0  0  0  0
  -15.3556   -8.6861   18.4453 C   0  0  1  0  0  0  0  0  0  0  0  0
  -14.8632   -7.7323   17.5067 O   0  0  0  0  0  0  0  0  0  0  0  0
  -14.4408   -9.8924   18.5629 C   0  0  1  0  0  0  0  0  0  0  0  0
  -13.0821   -9.4999   18.3522 O   0  0  0  0  0  0  0  0  0  0  0  0
  -14.5917  -10.3651   19.9969 C   0  0  2  0  0  0  0  0  0  0  0  0
  -20.2271   -8.2379   15.4308 C   0  0  1  0  0  0  0  0  0  0  0  0
  -15.7821  -14.9992   22.2992 N   0  0  0  0  0  0  0  0  0  0  0  0
  -14.7467  -14.1545   22.5574 C   0  0  1  0  0  0  0  0  0  0  0  0
  -20.2593   -8.5092   16.9082 C   0  0  2  0  0  0  0  0  0  0  0  0
  -13.8675  -14.4979   23.5269 N   0  0  0  0  0  0  0  0  0  0  0  0
  -21.4932   -7.9744   17.3906 O   0  0  0  0  0  0  0  0  0  0  0  0
  -19.0605   -7.7661   17.4635 C   0  0  2  0  0  0  0  0  0  0  0  0
  -14.5604  -12.9836   21.8785 N   0  0  0  0  0  0  0  0  0  0  0  0
  -19.3448   -7.1779   18.7254 O   0  0  0  0  0  0  0  0  0  0  0  0
  -15.4149  -12.5933   20.8991 C   0  0  2  0  0  0  0  0  0  0  0  0
  -18.7647   -6.6860   16.4415 C   0  0  2  0  0  0  0  0  0  0  0  0
  -19.3502   -7.1322   15.2194 O   0  0  0  0  0  0  0  0  0  0  0  0
  -16.5517  -13.4734   20.5775 C   0  0  1  0  0  0  0  0  0  0  0  0
  -17.2713   -6.4579   16.2365 C   0  0  0  0  0  0  0  0  0  0  0  0
  -16.6783   -7.6609   15.7433 O   0  0  0  0  0  0  0  0  0  0  0  0
  -16.6999  -14.7230   21.3447 C   0  0  0  0  0  0  0  0  0  0  0  0
  -17.7273  -15.5729   21.0913 O   0  0  0  0  0  0  0  0  0  0  0  0
  -17.2337  -12.8825   19.5901 N   0  0  0  0  0  0  0  0  0  0  0  0
  -16.5909  -11.7151   19.2943 C   0  0  0  0  0  0  0  0  0  0  0  0
  -15.5028  -11.5379   20.0729 N   0  0  1  0  0  0  0  0  0  0  0  0
  -19.5728  -10.4280   10.7251 N   0  0  0  0  0  0  0  0  0  0  0  0
  -14.7061   -9.6094   15.4219 O   0  5  0  0  0  0  0  0  0  0  0  0
  -20.0825   -9.2099   11.0558 C   0  0  2  0  0  0  0  0  0  0  0  0
  -20.5015   -8.3758   10.0685 N   0  0  0  0  0  0  0  0  0  0  0  0
  -14.2080   -6.7928   14.9154 O   0  0  0  0  0  0  0  0  0  0  0  0
  -20.1860   -8.7979   12.3488 N   0  0  0  0  0  0  0  0  0  0  0  0
  -19.7794   -9.5812   13.3752 C   0  0  2  0  0  0  0  0  0  0  0  0
  -19.2230  -10.9085   13.0814 C   0  0  2  0  0  0  0  0  0  0  0  0
  -19.1414  -11.3024   11.6587 C   0  0  0  0  0  0  0  0  0  0  0  0
  -18.6448  -12.5093   11.2906 O   0  0  0  0  0  0  0  0  0  0  0  0
  -18.9155  -11.4686   14.2681 N   0  0  0  0  0  0  0  0  0  0  0  0
  -19.2449  -10.5690   15.2424 C   0  0  0  0  0  0  0  0  0  0  0  0
  -19.7636   -9.4430   14.7022 N   0  0  1  0  0  0  0  0  0  0  0  0
  1  3  1  6  0  0  0
  1  4  2  0  0  0  0
  1  6  1  0  0  0  0
  1 22  1  0  0  0  0
  2 28  1  0  0  0  0
  2 35  1  6  0  0  0
  2 38  2  0  0  0  0
  2 10  1  0  0  0  0
  5  6  1  0  0  0  0
  7  5  1  1  0  0  0
  7  8  1  0  0  0  0
  7  9  1  0  0  0  0
  9 10  1  6  0  0  0
  9 11  1  0  0  0  0
 11 12  1  1  0  0  0
 11 13  1  0  0  0  0
 13  8  1  1  0  0  0
 13 33  1  0  0  0  0
 14 46  1  0  0  0  0
 14 17  1  0  0  0  0
 14 25  1  1  0  0  0
 15 16  1  0  0  0  0
 15 29  1  0  0  0  0
 16 18  1  6  0  0  0
 16 21  1  0  0  0  0
 17 19  1  1  0  0  0
 17 20  1  0  0  0  0
 20 22  1  1  0  0  0
 20 24  1  0  0  0  0
 23 21  1  6  0  0  0
 23 26  1  0  0  0  0
 23 33  1  0  0  0  0
 24 25  1  6  0  0  0
 24 27  1  0  0  0  0
 26 29  1  1  0  0  0
 26 31  1  0  0  0  0
 27 28  1  0  0  0  0
 29 30  2  0  0  0  0
 31 32  1  0  0  0  0
 33 32  1  1  0  0  0
 34 36  1  0  0  0  0
 34 42  1  0  0  0  0
 36 37  1  6  0  0  0
 36 39  1  0  0  0  0
 40 39  1  1  0  0  0
 40 41  1  0  0  0  0
 40 46  1  0  0  0  0
 41 42  1  1  0  0  0
 41 44  1  0  0  0  0
 42 43  2  0  0  0  0
 44 45  1  0  0  0  0
 46 45  1  6  0  0  0
M  CHG  2   3  -1  35  -1
M  END
>  <CHROM.1>
-98.90017870,171.45485557,-17.42913415,-9.77784716,17.48724058,0.01714087
-1.18218534,0.39940095

>  <Name>
ligand

>  <RI>
-1

>  <Rbt.Current_Directory>
/home/itssahil/PROJECTS/Mol_Feturizer/Test_systems_manuscript/rnas/3mum

>  <Rbt.Executable>
rbdock ($Id: //depot/dev/client3/rdock/2013.1/src/exe/rbdock.cxx#4 $)

>  <Rbt.Library>
libRbt.so (2013.1, Build901 2013/11/27)

>  <Rbt.Parameter_File>
/export/apps/rDock/src/rDock_2013.1_src/data/scripts/dock_solv.prm

>  <Rbt.Receptor>
prm/blind_docking_100.prm

>  <SCORE>
37.1486

>  <SCORE.INTER>
34.2131

>  <SCORE.INTER.CONST>
1

>  <SCORE.INTER.POLAR>
0

>  <SCORE.INTER.ROT>
2

>  <SCORE.INTER.SOLV>
40.3039

>  <SCORE.INTER.VDW>
4.44072

>  <SCORE.INTER.norm>
0.743762

>  <SCORE.INTRA>
0.624553

>  <SCORE.INTRA.DIHEDRAL>
-0.0199623

>  <SCORE.INTRA.DIHEDRAL.0>
2.40424

>  <SCORE.INTRA.POLAR>
0

>  <SCORE.INTRA.POLAR.0>
0

>  <SCORE.INTRA.REPUL>
0

>  <SCORE.INTRA.REPUL.0>
0

>  <SCORE.INTRA.SOLV>
0.0154472

>  <SCORE.INTRA.SOLV.lig_0>
-134.169

>  <SCORE.INTRA.VDW>
0.626811

>  <SCORE.INTRA.VDW.0>
-2.18386

>  <SCORE.INTRA.norm>
0.0135772

>  <SCORE.RESTR>
2.31099

>  <SCORE.RESTR.CAVITY>
2.31099

>  <SCORE.RESTR.norm>
0.0502388

>  <SCORE.SYSTEM>
0

>  <SCORE.SYSTEM.CONST>
0

>  <SCORE.SYSTEM.DIHEDRAL>
0

>  <SCORE.SYSTEM.SOLV>
0

>  <SCORE.SYSTEM.norm>
0

>  <SCORE.heavy>
46

>  <SCORE.norm>
0.807578

>  <RMSD>
15.509

$$$$
ligand
 OpenBabel02271912143D
libRbt.so/2013.1/901 2013/11/27
 46 52  0  0  0  0  0  0  0  0999 V2000
  -19.2172  -11.2445   17.5169 P   0  0  1  0  0  0  0  0  0  0  0  0
  -14.8139  -10.3206   21.3161 P   0  0  2  0  0  0  0  0  0  0  0  0
  -20.1939   -9.7758   17.3413 O   0  5  0  0  0  0  0  0  0  0  0  0
  -19.7759  -12.5401   16.4268 O   0  0  0  0  0  0  0  0  0  0  0  0
  -16.6384  -11.8365   17.3656 C   0  0  0  0  0  0  0  0  0  0  0  0
  -17.6801  -10.8740   17.2018 O   0  0  0  0  0  0  0  0  0  0  0  0
  -15.3152  -11.1033   17.4755 C   0  0  1  0  0  0  0  0  0  0  0  0
  -15.1656  -10.2175   16.3570 O   0  0  0  0  0  0  0  0  0  0  0  0
  -15.2184  -10.2211   18.7096 C   0  0  1  0  0  0  0  0  0  0  0  0
  -14.6581  -10.9141   19.8227 O   0  0  0  0  0  0  0  0  0  0  0  0
  -14.3325   -9.0776   18.2474 C   0  0  1  0  0  0  0  0  0  0  0  0
  -12.9576   -9.4021   18.4684 O   0  0  0  0  0  0  0  0  0  0  0  0
  -14.5711   -8.9714   16.7527 C   0  0  2  0  0  0  0  0  0  0  0  0
  -19.9062   -9.9319   22.0201 C   0  0  1  0  0  0  0  0  0  0  0  0
  -18.3274   -6.9944   13.5628 N   0  0  0  0  0  0  0  0  0  0  0  0
  -17.6634   -8.1792   13.4739 C   0  0  1  0  0  0  0  0  0  0  0  0
  -20.0252  -10.0312   20.5258 C   0  0  2  0  0  0  0  0  0  0  0  0
  -17.9644   -9.0055   12.4457 N   0  0  0  0  0  0  0  0  0  0  0  0
  -21.2745  -10.6719   20.2614 O   0  0  0  0  0  0  0  0  0  0  0  0
  -18.8464  -10.8840   20.1004 C   0  0  2  0  0  0  0  0  0  0  0  0
  -16.7096   -8.5619   14.3742 N   0  0  0  0  0  0  0  0  0  0  0  0
  -19.1902  -11.7645   19.0393 O   0  0  0  0  0  0  0  0  0  0  0  0
  -16.3731   -7.7700   15.4237 C   0  0  2  0  0  0  0  0  0  0  0  0
  -18.4757  -11.6796   21.3365 C   0  0  2  0  0  0  0  0  0  0  0  0
  -18.9998  -10.9492   22.4442 O   0  0  0  0  0  0  0  0  0  0  0  0
  -17.0601   -6.4744   15.5649 C   0  0  1  0  0  0  0  0  0  0  0  0
  -16.9694  -11.8457   21.5039 C   0  0  0  0  0  0  0  0  0  0  0  0
  -16.3708  -10.5567   21.6524 O   0  0  0  0  0  0  0  0  0  0  0  0
  -18.0798   -6.1175   14.5624 C   0  0  0  0  0  0  0  0  0  0  0  0
  -18.7440   -4.9366   14.6414 O   0  0  0  0  0  0  0  0  0  0  0  0
  -16.5576   -5.8848   16.6552 N   0  0  0  0  0  0  0  0  0  0  0  0
  -15.6201   -6.7283   17.1779 C   0  0  0  0  0  0  0  0  0  0  0  0
  -15.5052   -7.8559   16.4452 N   0  0  1  0  0  0  0  0  0  0  0  0
  -17.3808   -7.1444   25.6561 N   0  0  0  0  0  0  0  0  0  0  0  0
  -14.4178   -8.5826   21.3722 O   0  5  0  0  0  0  0  0  0  0  0  0
  -17.6857   -8.4708   25.6314 C   0  0  2  0  0  0  0  0  0  0  0  0
  -17.3047   -9.2586   26.6707 N   0  0  0  0  0  0  0  0  0  0  0  0
  -13.8437  -11.1875   22.5224 O   0  0  0  0  0  0  0  0  0  0  0  0
  -18.3621   -9.0364   24.5946 N   0  0  0  0  0  0  0  0  0  0  0  0
  -18.7620   -8.3049   23.5283 C   0  0  2  0  0  0  0  0  0  0  0  0
  -18.4645   -6.8667   23.4988 C   0  0  2  0  0  0  0  0  0  0  0  0
  -17.7325   -6.3088   24.6560 C   0  0  0  0  0  0  0  0  0  0  0  0
  -17.4157   -4.9919   24.7190 O   0  0  0  0  0  0  0  0  0  0  0  0
  -18.9781   -6.3905   22.3474 N   0  0  0  0  0  0  0  0  0  0  0  0
  -19.5541   -7.4415   21.6910 C   0  0  0  0  0  0  0  0  0  0  0  0
  -19.4238   -8.5835   22.4036 N   0  0  1  0  0  0  0  0  0  0  0  0
  1  3  1  6  0  0  0
  1  4  2  0  0  0  0
  1  6  1  0  0  0  0
  1 22  1  0  0  0  0
  2 28  1  0  0  0  0
  2 35  1  1  0  0  0
  2 38  2  0  0  0  0
  2 10  1  0  0  0  0
  5  6  1  0  0  0  0
  7  5  1  6  0  0  0
  7  8  1  0  0  0  0
  7  9  1  0  0  0  0
  9 10  1  1  0  0  0
  9 11  1  0  0  0  0
 11 12  1  6  0  0  0
 11 13  1  0  0  0  0
 13  8  1  1  0  0  0
 13 33  1  0  0  0  0
 14 46  1  0  0  0  0
 14 17  1  0  0  0  0
 14 25  1  6  0  0  0
 15 16  1  0  0  0  0
 15 29  1  0  0  0  0
 16 18  1  6  0  0  0
 16 21  1  0  0  0  0
 17 19  1  1  0  0  0
 17 20  1  0  0  0  0
 20 22  1  6  0  0  0
 20 24  1  0  0  0  0
 23 21  1  6  0  0  0
 23 26  1  0  0  0  0
 23 33  1  0  0  0  0
 24 25  1  1  0  0  0
 24 27  1  0  0  0  0
 26 29  1  1  0  0  0
 26 31  1  0  0  0  0
 27 28  1  0  0  0  0
 29 30  2  0  0  0  0
 31 32  1  0  0  0  0
 33 32  1  1  0  0  0
 34 36  1  0  0  0  0
 34 42  1  0  0  0  0
 36 37  1  6  0  0  0
 36 39  1  0  0  0  0
 40 39  1  1  0  0  0
 40 41  1  0  0  0  0
 40 46  1  0  0  0  0
 41 42  1  1  0  0  0
 41 44  1  0  0  0  0
 42 43  2  0  0  0  0
 44 45  1  0  0  0  0
 46 45  1  6  0  0  0
M  CHG  2   3  -1  35  -1
M  END
>  <CHROM.1>
-33.03096376,-154.34570777,-17.32832616,-9.19835068,19.46339359,-1.43922083
-1.16797771,1.70788014

>  <Name>
ligand

>  <RI>
-1

>  <Rbt.Current_Directory>
/home/itssahil/PROJECTS/Mol_Feturizer/Test_systems_manuscript/rnas/3mum

>  <Rbt.Executable>
rbdock ($Id: //depot/dev/client3/rdock/2013.1/src/exe/rbdock.cxx#4 $)

>  <Rbt.Library>
libRbt.so (2013.1, Build901 2013/11/27)

>  <Rbt.Parameter_File>
/export/apps/rDock/src/rDock_2013.1_src/data/scripts/dock_solv.prm

>  <Rbt.Receptor>
prm/blind_docking_100.prm

>  <SCORE>
39.3085

>  <SCORE.INTER>
38.24

>  <SCORE.INTER.CONST>
1

>  <SCORE.INTER.POLAR>
0

>  <SCORE.INTER.ROT>
2

>  <SCORE.INTER.SOLV>
39.5376

>  <SCORE.INTER.VDW>
7.38082

>  <SCORE.INTER.norm>
0.831305

>  <SCORE.INTRA>
0.449339

>  <SCORE.INTRA.DIHEDRAL>
0.0260382

>  <SCORE.INTRA.DIHEDRAL.0>
2.40424

>  <SCORE.INTRA.POLAR>
0

>  <SCORE.INTRA.POLAR.0>
0

>  <SCORE.INTRA.REPUL>
0

>  <SCORE.INTRA.REPUL.0>
0

>  <SCORE.INTRA.SOLV>
0.0765158

>  <SCORE.INTRA.SOLV.lig_0>
-134.169

>  <SCORE.INTRA.VDW>
0.398062

>  <SCORE.INTRA.VDW.0>
-2.18386

>  <SCORE.INTRA.norm>
0.00976823

>  <SCORE.RESTR>
0.619183

>  <SCORE.RESTR.CAVITY>
0.619183

>  <SCORE.RESTR.norm>
0.0134605

>  <SCORE.SYSTEM>
0

>  <SCORE.SYSTEM.CONST>
0

>  <SCORE.SYSTEM.DIHEDRAL>
0

>  <SCORE.SYSTEM.SOLV>
0

>  <SCORE.SYSTEM.norm>
0

>  <SCORE.heavy>
46

>  <SCORE.norm>
0.854534

>  <RMSD>
15.513

$$$$
ligand
 OpenBabel02271912143D
libRbt.so/2013.1/901 2013/11/27
 46 52  0  0  0  0  0  0  0  0999 V2000
  -19.1992  -11.2076   17.5096 P   0  0  1  0  0  0  0  0  0  0  0  0
  -14.8047  -10.3441   21.3330 P   0  0  2  0  0  0  0  0  0  0  0  0
  -20.1515   -9.7241   17.3246 O   0  5  0  0  0  0  0  0  0  0  0  0
  -19.7719  -12.4969   16.4191 O   0  0  0  0  0  0  0  0  0  0  0  0
  -16.6293  -11.8407   17.3752 C   0  0  0  0  0  0  0  0  0  0  0  0
  -17.6546  -10.8621   17.2029 O   0  0  0  0  0  0  0  0  0  0  0  0
  -15.2953  -11.1281   17.4914 C   0  0  1  0  0  0  0  0  0  0  0  0
  -15.1250  -10.2476   16.3717 O   0  0  0  0  0  0  0  0  0  0  0  0
  -15.1919  -10.2446   18.7239 C   0  0  1  0  0  0  0  0  0  0  0  0
  -14.6494  -10.9436   19.8420 O   0  0  0  0  0  0  0  0  0  0  0  0
  -14.2853   -9.1163   18.2644 C   0  0  1  0  0  0  0  0  0  0  0  0
  -12.9171   -9.4620   18.4944 O   0  0  0  0  0  0  0  0  0  0  0  0
  -14.5133   -9.0101   16.7680 C   0  0  2  0  0  0  0  0  0  0  0  0
  -19.8943   -9.8732   22.0055 C   0  0  1  0  0  0  0  0  0  0  0  0
  -18.5027   -7.1411   13.8042 N   0  0  0  0  0  0  0  0  0  0  0  0
  -17.9017   -8.3615   13.7617 C   0  0  1  0  0  0  0  0  0  0  0  0
  -20.0060   -9.9743   20.5106 C   0  0  2  0  0  0  0  0  0  0  0  0
  -18.3445   -9.2612   12.8534 N   0  0  0  0  0  0  0  0  0  0  0  0
  -21.2636  -10.5958   20.2403 O   0  0  0  0  0  0  0  0  0  0  0  0
  -18.8383  -10.8466   20.0944 C   0  0  2  0  0  0  0  0  0  0  0  0
  -16.8741   -8.7092   14.5923 N   0  0  0  0  0  0  0  0  0  0  0  0
  -19.1896  -11.7242   19.0333 O   0  0  0  0  0  0  0  0  0  0  0  0
  -16.3952   -7.8436   15.5213 C   0  0  2  0  0  0  0  0  0  0  0  0
  -18.4875  -11.6449   21.3346 C   0  0  2  0  0  0  0  0  0  0  0  0
  -19.0067  -10.9037   22.4374 O   0  0  0  0  0  0  0  0  0  0  0  0
  -17.0089   -6.5071   15.6073 C   0  0  1  0  0  0  0  0  0  0  0  0
  -16.9851  -11.8344   21.5114 C   0  0  0  0  0  0  0  0  0  0  0  0
  -16.3671  -10.5546   21.6605 O   0  0  0  0  0  0  0  0  0  0  0  0
  -18.1139   -6.1908   14.6848 C   0  0  0  0  0  0  0  0  0  0  0  0
  -18.7165   -4.9751   14.7178 O   0  0  0  0  0  0  0  0  0  0  0  0
  -16.3692   -5.8473   16.5792 N   0  0  0  0  0  0  0  0  0  0  0  0
  -15.4171   -6.6868   17.0816 C   0  0  0  0  0  0  0  0  0  0  0  0
  -15.4277   -7.8807   16.4523 N   0  0  1  0  0  0  0  0  0  0  0  0
  -17.6533   -7.0430   25.7918 N   0  0  0  0  0  0  0  0  0  0  0  0
  -14.3815   -8.6124   21.3874 O   0  5  0  0  0  0  0  0  0  0  0  0
  -18.0168   -8.3548   25.7838 C   0  0  2  0  0  0  0  0  0  0  0  0
  -17.7906   -9.1127   26.8885 N   0  0  0  0  0  0  0  0  0  0  0  0
  -13.8555  -11.2232   22.5472 O   0  0  0  0  0  0  0  0  0  0  0  0
  -18.6015   -8.9349   24.7003 N   0  0  0  0  0  0  0  0  0  0  0  0
  -18.8463   -8.2335   23.5688 C   0  0  2  0  0  0  0  0  0  0  0  0
  -18.4788   -6.8123   23.5178 C   0  0  2  0  0  0  0  0  0  0  0  0
  -17.8525   -6.2370   24.7274 C   0  0  0  0  0  0  0  0  0  0  0  0
  -17.4818   -4.9336   24.7750 O   0  0  0  0  0  0  0  0  0  0  0  0
  -18.8392   -6.3646   22.2988 N   0  0  0  0  0  0  0  0  0  0  0  0
  -19.3893   -7.4170   21.6228 C   0  0  0  0  0  0  0  0  0  0  0  0
  -19.3930   -8.5316   22.3886 N   0  0  1  0  0  0  0  0  0  0  0  0
  1  3  1  6  0  0  0
  1  4  2  0  0  0  0
  1  6  1  0  0  0  0
  1 22  1  0  0  0  0
  2 28  1  0  0  0  0
  2 35  1  1  0  0  0
  2 38  2  0  0  0  0
  2 10  1  0  0  0  0
  5  6  1  0  0  0  0
  7  5  1  6  0  0  0
  7  8  1  0  0  0  0
  7  9  1  0  0  0  0
  9 10  1  1  0  0  0
  9 11  1  0  0  0  0
 11 12  1  6  0  0  0
 11 13  1  0  0  0  0
 13  8  1  1  0  0  0
 13 33  1  0  0  0  0
 14 46  1  0  0  0  0
 14 17  1  0  0  0  0
 14 25  1  6  0  0  0
 15 16  1  0  0  0  0
 15 29  1  0  0  0  0
 16 18  1  6  0  0  0
 16 21  1  0  0  0  0
 17 19  1  1  0  0  0
 17 20  1  0  0  0  0
 20 22  1  6  0  0  0
 20 24  1  0  0  0  0
 23 21  1  6  0  0  0
 23 26  1  0  0  0  0
 23 33  1  0  0  0  0
 24 25  1  1  0  0  0
 24 27  1  0  0  0  0
 26 29  1  1  0  0  0
 26 31  1  0  0  0  0
 27 28  1  0  0  0  0
 29 30  2  0  0  0  0
 31 32  1  0  0  0  0
 33 32  1  1  0  0  0
 34 36  1  0  0  0  0
 34 42  1  0  0  0  0
 36 37  1  6  0  0  0
 36 39  1  0  0  0  0
 40 39  1  1  0  0  0
 40 41  1  0  0  0  0
 40 46  1  0  0  0  0
 41 42  1  1  0  0  0
 41 44  1  0  0  0  0
 42 43  2  0  0  0  0
 44 45  1  0  0  0  0
 46 45  1  6  0  0  0
M  CHG  2   3  -1  35  -1
M  END
>  <CHROM.1>
-24.62646910,-160.98645500,-17.35412208,-9.19588150,19.50548609,1.49225558
0.58535334,-1.53946898

>  <Name>
ligand

>  <RI>
0

>  <Rbt.Current_Directory>
/home/itssahil/PROJECTS/Mol_Feturizer/Test_systems_manuscript/rnas/3mum

>  <Rbt.Executable>
rbdock ($Id: //depot/dev/client3/rdock/2013.1/src/exe/rbdock.cxx#4 $)

>  <Rbt.Library>
libRbt.so (2013.1, Build901 2013/11/27)

>  <Rbt.Parameter_File>
/export/apps/rDock/src/rDock_2013.1_src/data/scripts/dock_solv.prm

>  <Rbt.Receptor>
prm/blind_docking_60.prm

>  <SCORE>
37.5611

>  <SCORE.INTER>
36.8767

>  <SCORE.INTER.CONST>
1

>  <SCORE.INTER.POLAR>
0

>  <SCORE.INTER.ROT>
2

>  <SCORE.INTER.SOLV>
37.1941

>  <SCORE.INTER.VDW>
7.25306

>  <SCORE.INTER.norm>
0.801666

>  <SCORE.INTRA>
0.269672

>  <SCORE.INTRA.DIHEDRAL>
0.0220185

>  <SCORE.INTRA.DIHEDRAL.0>
2.40424

>  <SCORE.INTRA.POLAR>
0

>  <SCORE.INTRA.POLAR.0>
0

>  <SCORE.INTRA.REPUL>
0

>  <SCORE.INTRA.REPUL.0>
0

>  <SCORE.INTRA.SOLV>
0.0694353

>  <SCORE.INTRA.SOLV.lig_0>
-134.169

>  <SCORE.INTRA.VDW>
0.223945

>  <SCORE.INTRA.VDW.0>
-2.18386

>  <SCORE.INTRA.norm>
0.00586243

>  <SCORE.RESTR>
0.414768

>  <SCORE.RESTR.CAVITY>
0.414768

>  <SCORE.RESTR.norm>
0.00901669

>  <SCORE.SYSTEM>
0

>  <SCORE.SYSTEM.CONST>
0

>  <SCORE.SYSTEM.DIHEDRAL>
0

>  <SCORE.SYSTEM.SOLV>
0

>  <SCORE.SYSTEM.norm>
0

>  <SCORE.heavy>
46

>  <SCORE.norm>
0.816546

>  <RMSD>
15.539

$$$$
ligand
 OpenBabel02271912143D
libRbt.so/2013.1/901 2013/11/27
 46 52  0  0  0  0  0  0  0  0999 V2000
  -14.8473  -10.6734   21.0492 P   0  0  1  0  0  0  0  0  0  0  0  0
  -19.3826  -10.6907   17.2933 P   0  0  2  0  0  0  0  0  0  0  0  0
  -14.3218   -9.0109   21.3684 O   0  5  0  0  0  0  0  0  0  0  0  0
  -13.9317  -11.8514   22.0255 O   0  0  0  0  0  0  0  0  0  0  0  0
  -17.1526  -11.9792   21.1142 C   0  0  0  0  0  0  0  0  0  0  0  0
  -16.4222  -10.7809   21.3770 O   0  0  0  0  0  0  0  0  0  0  0  0
  -18.6301  -11.6418   21.0540 C   0  0  1  0  0  0  0  0  0  0  0  0
  -19.0083  -10.9382   22.2456 O   0  0  0  0  0  0  0  0  0  0  0  0
  -18.9880  -10.7156   19.9031 C   0  0  1  0  0  0  0  0  0  0  0  0
  -19.3450  -11.4356   18.7252 O   0  0  0  0  0  0  0  0  0  0  0  0
  -20.1539   -9.9143   20.4549 C   0  0  1  0  0  0  0  0  0  0  0  0
  -21.3845  -10.5920   20.1884 O   0  0  0  0  0  0  0  0  0  0  0  0
  -19.9350   -9.8798   21.9560 C   0  0  2  0  0  0  0  0  0  0  0  0
  -14.6161   -8.8212   16.6911 C   0  0  1  0  0  0  0  0  0  0  0  0
  -17.7101   -6.9729   25.8021 N   0  0  0  0  0  0  0  0  0  0  0  0
  -18.1478   -8.2609   25.8451 C   0  0  1  0  0  0  0  0  0  0  0  0
  -14.4540   -9.0166   18.1719 C   0  0  2  0  0  0  0  0  0  0  0  0
  -18.0228   -8.9404   27.0084 N   0  0  0  0  0  0  0  0  0  0  0  0
  -13.0714   -9.3003   18.3934 O   0  0  0  0  0  0  0  0  0  0  0  0
  -15.3390  -10.2016   18.5041 C   0  0  2  0  0  0  0  0  0  0  0  0
  -18.7073   -8.8882   24.7680 N   0  0  0  0  0  0  0  0  0  0  0  0
  -14.7469  -11.0411   19.4860 O   0  0  0  0  0  0  0  0  0  0  0  0
  -18.8531   -8.2511   23.5787 C   0  0  2  0  0  0  0  0  0  0  0  0
  -15.4870  -10.9551   17.1969 C   0  0  2  0  0  0  0  0  0  0  0  0
  -15.2046  -10.0103   16.1660 O   0  0  0  0  0  0  0  0  0  0  0  0
  -18.3982   -6.8534   23.4789 C   0  0  1  0  0  0  0  0  0  0  0  0
  -16.8875  -11.5233   16.9964 C   0  0  0  0  0  0  0  0  0  0  0  0
  -17.8269  -10.4472   16.9567 O   0  0  0  0  0  0  0  0  0  0  0  0
  -17.8026   -6.2311   24.6748 C   0  0  0  0  0  0  0  0  0  0  0  0
  -17.3669   -4.9461   24.6418 O   0  0  0  0  0  0  0  0  0  0  0  0
  -18.6515   -6.4504   22.2290 N   0  0  0  0  0  0  0  0  0  0  0  0
  -19.2254   -7.5004   21.5719 C   0  0  0  0  0  0  0  0  0  0  0  0
  -19.3492   -8.5786   22.3742 N   0  0  1  0  0  0  0  0  0  0  0  0
  -18.7701   -7.0070   14.0794 N   0  0  0  0  0  0  0  0  0  0  0  0
  -20.2531   -9.1370   17.3886 O   0  5  0  0  0  0  0  0  0  0  0  0
  -18.2156   -8.2502   14.0790 C   0  0  2  0  0  0  0  0  0  0  0  0
  -18.7725   -9.2247   13.3133 N   0  0  0  0  0  0  0  0  0  0  0  0
  -20.0853  -11.6839   16.0018 O   0  0  0  0  0  0  0  0  0  0  0  0
  -17.1172   -8.5506   14.8243 N   0  0  0  0  0  0  0  0  0  0  0  0
  -16.5222   -7.6243   15.6118 C   0  0  2  0  0  0  0  0  0  0  0  0
  -17.0732   -6.2633   15.6520 C   0  0  2  0  0  0  0  0  0  0  0  0
  -18.2634   -5.9960   14.8164 C   0  0  0  0  0  0  0  0  0  0  0  0
  -18.8404   -4.7693   14.7866 O   0  0  0  0  0  0  0  0  0  0  0  0
  -16.2929   -5.5564   16.4932 N   0  0  0  0  0  0  0  0  0  0  0  0
  -15.3230   -6.3996   16.9572 C   0  0  0  0  0  0  0  0  0  0  0  0
  -15.4639   -7.6345   16.4244 N   0  0  1  0  0  0  0  0  0  0  0  0
  1  3  1  1  0  0  0
  1  4  2  0  0  0  0
  1  6  1  0  0  0  0
  1 22  1  0  0  0  0
  2 28  1  0  0  0  0
  2 35  1  1  0  0  0
  2 38  2  0  0  0  0
  2 10  1  0  0  0  0
  5  6  1  0  0  0  0
  7  5  1  1  0  0  0
  7  8  1  0  0  0  0
  7  9  1  0  0  0  0
  9 10  1  6  0  0  0
  9 11  1  0  0  0  0
 11 12  1  1  0  0  0
 11 13  1  0  0  0  0
 13  8  1  6  0  0  0
 13 33  1  0  0  0  0
 14 46  1  0  0  0  0
 14 17  1  0  0  0  0
 14 25  1  1  0  0  0
 15 16  1  0  0  0  0
 15 29  1  0  0  0  0
 16 18  1  1  0  0  0
 16 21  1  0  0  0  0
 17 19  1  6  0  0  0
 17 20  1  0  0  0  0
 20 22  1  1  0  0  0
 20 24  1  0  0  0  0
 23 21  1  1  0  0  0
 23 26  1  0  0  0  0
 23 33  1  0  0  0  0
 24 25  1  6  0  0  0
 24 27  1  0  0  0  0
 26 29  1  6  0  0  0
 26 31  1  0  0  0  0
 27 28  1  0  0  0  0
 29 30  2  0  0  0  0
 31 32  1  0  0  0  0
 33 32  1  6  0  0  0
 34 36  1  0  0  0  0
 34 42  1  0  0  0  0
 36 37  1  1  0  0  0
 36 39  1  0  0  0  0
 40 39  1  6  0  0  0
 40 41  1  0  0  0  0
 40 46  1  0  0  0  0
 41 42  1  6  0  0  0
 41 44  1  0  0  0  0
 42 43  2  0  0  0  0
 44 45  1  0  0  0  0
 46 45  1  1  0  0  0
M  CHG  2   3  -1  35  -1
M  END
>  <CHROM.1>
-53.54157838,-129.52162740,-17.45338294,-9.10037409,19.40550020,-1.63739588
0.61023489,-1.51954297

>  <Name>
ligand

>  <RI>
0

>  <Rbt.Current_Directory>
/home/itssahil/PROJECTS/Mol_Feturizer/Test_systems_manuscript/rnas/3mum

>  <Rbt.Executable>
rbdock ($Id: //depot/dev/client3/rdock/2013.1/src/exe/rbdock.cxx#4 $)

>  <Rbt.Library>
libRbt.so (2013.1, Build901 2013/11/27)

>  <Rbt.Parameter_File>
/export/apps/rDock/src/rDock_2013.1_src/data/scripts/dock_solv.prm

>  <Rbt.Receptor>
prm/blind_docking_60.prm

>  <SCORE>
55.7709

>  <SCORE.INTER>
54.3287

>  <SCORE.INTER.CONST>
1

>  <SCORE.INTER.POLAR>
0

>  <SCORE.INTER.ROT>
2

>  <SCORE.INTER.SOLV>
32.8855

>  <SCORE.INTER.VDW>
20.3239

>  <SCORE.INTER.norm>
1.18106

>  <SCORE.INTRA>
0.755285

>  <SCORE.INTRA.DIHEDRAL>
0.0106853

>  <SCORE.INTRA.DIHEDRAL.0>
2.40424

>  <SCORE.INTRA.POLAR>
0

>  <SCORE.INTRA.POLAR.0>
0

>  <SCORE.INTRA.REPUL>
0

>  <SCORE.INTRA.REPUL.0>
0

>  <SCORE.INTRA.SOLV>
2.17061

>  <SCORE.INTRA.SOLV.lig_0>
-134.169

>  <SCORE.INTRA.VDW>
-0.335362

>  <SCORE.INTRA.VDW.0>
-2.18386

>  <SCORE.INTRA.norm>
0.0164192

>  <SCORE.RESTR>
0.686992

>  <SCORE.RESTR.CAVITY>
0.686992

>  <SCORE.RESTR.norm>
0.0149346

>  <SCORE.SYSTEM>
0

>  <SCORE.SYSTEM.CONST>
0

>  <SCORE.SYSTEM.DIHEDRAL>
0

>  <SCORE.SYSTEM.SOLV>
0

>  <SCORE.SYSTEM.norm>
0

>  <SCORE.heavy>
46

>  <SCORE.norm>
1.21241

>  <RMSD>
15.539

$$$$
ligand
 OpenBabel02271912143D
libRbt.so/2013.1/901 2013/11/27
 46 52  0  0  0  0  0  0  0  0999 V2000
  -14.9374   -9.4901   19.4943 P   0  0  1  0  0  0  0  0  0  0  0  0
  -19.4613  -10.7009   15.9244 P   0  0  2  0  0  0  0  0  0  0  0  0
  -15.1103   -7.8617   20.1727 O   0  5  0  0  0  0  0  0  0  0  0  0
  -13.5124  -10.3313   20.1585 O   0  0  0  0  0  0  0  0  0  0  0  0
  -16.4760  -11.6397   19.3067 C   0  0  0  0  0  0  0  0  0  0  0  0
  -16.2792  -10.3223   19.8205 O   0  0  0  0  0  0  0  0  0  0  0  0
  -17.9576  -11.9611   19.3544 C   0  0  1  0  0  0  0  0  0  0  0  0
  -18.4525  -11.7370   20.6821 O   0  0  0  0  0  0  0  0  0  0  0  0
  -18.7947  -11.0695   18.4517 C   0  0  1  0  0  0  0  0  0  0  0  0
  -18.9561  -11.6248   17.1483 O   0  0  0  0  0  0  0  0  0  0  0  0
  -20.1153  -10.9694   19.1945 C   0  0  1  0  0  0  0  0  0  0  0  0
  -20.9792  -12.0402   18.8055 O   0  0  0  0  0  0  0  0  0  0  0  0
  -19.7593  -11.1418   20.6595 C   0  0  2  0  0  0  0  0  0  0  0  0
  -15.9914   -6.8967   15.6681 C   0  0  1  0  0  0  0  0  0  0  0  0
  -20.4320   -8.3938   25.1527 N   0  0  0  0  0  0  0  0  0  0  0  0
  -20.5948   -9.7267   24.9302 C   0  0  1  0  0  0  0  0  0  0  0  0
  -15.5944   -7.2922   17.0621 C   0  0  2  0  0  0  0  0  0  0  0  0
  -20.9831  -10.5054   25.9663 N   0  0  0  0  0  0  0  0  0  0  0  0
  -14.2023   -6.9958   17.1855 O   0  0  0  0  0  0  0  0  0  0  0  0
  -15.8683   -8.7814   17.1336 C   0  0  2  0  0  0  0  0  0  0  0  0
  -20.3859  -10.3036   23.7095 N   0  0  0  0  0  0  0  0  0  0  0  0
  -14.8746   -9.4631   17.8868 O   0  0  0  0  0  0  0  0  0  0  0  0
  -19.9940   -9.5667   22.6395 C   0  0  2  0  0  0  0  0  0  0  0  0
  -15.8418   -9.2515   15.6925 C   0  0  2  0  0  0  0  0  0  0  0  0
  -16.0940   -8.0936   14.8981 O   0  0  0  0  0  0  0  0  0  0  0  0
  -19.8061   -8.1173   22.8254 C   0  0  1  0  0  0  0  0  0  0  0  0
  -16.8969  -10.3113   15.3960 C   0  0  0  0  0  0  0  0  0  0  0  0
  -18.1939   -9.7552   15.6210 O   0  0  0  0  0  0  0  0  0  0  0  0
  -20.0463   -7.5533   24.1656 C   0  0  0  0  0  0  0  0  0  0  0  0
  -19.8899   -6.2249   24.3955 O   0  0  0  0  0  0  0  0  0  0  0  0
  -19.4310   -7.6191   21.6422 N   0  0  0  0  0  0  0  0  0  0  0  0
  -19.3811   -8.6599   20.7603 C   0  0  0  0  0  0  0  0  0  0  0  0
  -19.7176   -9.8259   21.3509 N   0  0  1  0  0  0  0  0  0  0  0  0
  -18.8455   -3.1504   13.3903 N   0  0  0  0  0  0  0  0  0  0  0  0
  -20.8772   -9.7205   16.3881 O   0  5  0  0  0  0  0  0  0  0  0  0
  -17.5947   -3.5962   13.0907 C   0  0  2  0  0  0  0  0  0  0  0  0
  -16.9222   -3.0366   12.0512 N   0  0  0  0  0  0  0  0  0  0  0  0
  -19.8357  -11.6224   14.4552 O   0  0  0  0  0  0  0  0  0  0  0  0
  -16.9933   -4.5892   13.8010 N   0  0  0  0  0  0  0  0  0  0  0  0
  -17.6150   -5.1899   14.8426 C   0  0  2  0  0  0  0  0  0  0  0  0
  -18.9658   -4.7498   15.2159 C   0  0  2  0  0  0  0  0  0  0  0  0
  -19.5645   -3.6636   14.4111 C   0  0  0  0  0  0  0  0  0  0  0  0
  -20.8055   -3.1895   14.6824 O   0  0  0  0  0  0  0  0  0  0  0  0
  -19.3351   -5.4965   16.2754 N   0  0  0  0  0  0  0  0  0  0  0  0
  -18.3043   -6.3489   16.5542 C   0  0  0  0  0  0  0  0  0  0  0  0
  -17.2772   -6.1590   15.6953 N   0  0  1  0  0  0  0  0  0  0  0  0
  1  3  1  1  0  0  0
  1  4  2  0  0  0  0
  1  6  1  0  0  0  0
  1 22  1  0  0  0  0
  2 28  1  0  0  0  0
  2 35  1  1  0  0  0
  2 38  2  0  0  0  0
  2 10  1  0  0  0  0
  5  6  1  0  0  0  0
  7  5  1  1  0  0  0
  7  8  1  0  0  0  0
  7  9  1  0  0  0  0
  9 10  1  6  0  0  0
  9 11  1  0  0  0  0
 11 12  1  6  0  0  0
 11 13  1  0  0  0  0
 13  8  1  6  0  0  0
 13 33  1  0  0  0  0
 14 46  1  0  0  0  0
 14 17  1  0  0  0  0
 14 25  1  6  0  0  0
 15 16  1  0  0  0  0
 15 29  1  0  0  0  0
 16 18  1  6  0  0  0
 16 21  1  0  0  0  0
 17 19  1  6  0  0  0
 17 20  1  0  0  0  0
 20 22  1  1  0  0  0
 20 24  1  0  0  0  0
 23 21  1  6  0  0  0
 23 26  1  0  0  0  0
 23 33  1  0  0  0  0
 24 25  1  6  0  0  0
 24 27  1  0  0  0  0
 26 29  1  1  0  0  0
 26 31  1  0  0  0  0
 27 28  1  0  0  0  0
 29 30  2  0  0  0  0
 31 32  1  0  0  0  0
 33 32  1  1  0  0  0
 34 36  1  0  0  0  0
 34 42  1  0  0  0  0
 36 37  1  6  0  0  0
 36 39  1  0  0  0  0
 40 39  1  1  0  0  0
 40 41  1  0  0  0  0
 40 46  1  0  0  0  0
 41 42  1  1  0  0  0
 41 44  1  0  0  0  0
 42 43  2  0  0  0  0
 44 45  1  0  0  0  0
 46 45  1  6  0  0  0
M  CHG  2   3  -1  35  -1
M  END
>  <CHROM.1>
-93.69470647,148.11595393,-18.12470738,-8.51884170,18.29230912,-1.94453718
1.03282938,-0.76946406

>  <Name>
ligand

>  <RI>
0

>  <Rbt.Current_Directory>
/home/itssahil/PROJECTS/Mol_Feturizer/Test_systems_manuscript/rnas/3mum

>  <Rbt.Executable>
rbdock ($Id: //depot/dev/client3/rdock/2013.1/src/exe/rbdock.cxx#4 $)

>  <Rbt.Library>
libRbt.so (2013.1, Build901 2013/11/27)

>  <Rbt.Parameter_File>
/export/apps/rDock/src/rDock_2013.1_src/data/scripts/dock_solv.prm

>  <Rbt.Receptor>
prm/blind_docking_60.prm

>  <SCORE>
16.3904

>  <SCORE.INTER>
15.6031

>  <SCORE.INTER.CONST>
1

>  <SCORE.INTER.POLAR>
0

>  <SCORE.INTER.ROT>
2

>  <SCORE.INTER.SOLV>
45.4106

>  <SCORE.INTER.VDW>
-9.66815

>  <SCORE.INTER.norm>
0.339197

>  <SCORE.INTRA>
0.307151

>  <SCORE.INTRA.DIHEDRAL>
-0.0351541

>  <SCORE.INTRA.DIHEDRAL.0>
2.40424

>  <SCORE.INTRA.POLAR>
0

>  <SCORE.INTRA.POLAR.0>
0

>  <SCORE.INTRA.REPUL>
0

>  <SCORE.INTRA.REPUL.0>
0

>  <SCORE.INTRA.SOLV>
-0.0088408

>  <SCORE.INTRA.SOLV.lig_0>
-134.169

>  <SCORE.INTRA.VDW>
0.329149

>  <SCORE.INTRA.VDW.0>
-2.18386

>  <SCORE.INTRA.norm>
0.0066772

>  <SCORE.RESTR>
0.480132

>  <SCORE.RESTR.CAVITY>
0.480132

>  <SCORE.RESTR.norm>
0.0104376

>  <SCORE.SYSTEM>
0

>  <SCORE.SYSTEM.CONST>
0

>  <SCORE.SYSTEM.DIHEDRAL>
0

>  <SCORE.SYSTEM.SOLV>
0

>  <SCORE.SYSTEM.norm>
0

>  <SCORE.heavy>
46

>  <SCORE.norm>
0.356312

>  <RMSD>
15.539

$$$$
ligand
 OpenBabel02271912143D
libRbt.so/2013.1/901 2013/11/27
 46 52  0  0  0  0  0  0  0  0999 V2000
  -14.9371   -9.4829   19.4811 P   0  0  1  0  0  0  0  0  0  0  0  0
  -19.4674  -10.7116   15.9255 P   0  0  2  0  0  0  0  0  0  0  0  0
  -15.1125   -7.8539   20.1573 O   0  5  0  0  0  0  0  0  0  0  0  0
  -13.5081  -10.3192   20.1428 O   0  0  0  0  0  0  0  0  0  0  0  0
  -16.4705  -11.6369   19.3012 C   0  0  0  0  0  0  0  0  0  0  0  0
  -16.2758  -10.3181   19.8123 O   0  0  0  0  0  0  0  0  0  0  0  0
  -17.9511  -11.9621   19.3535 C   0  0  1  0  0  0  0  0  0  0  0  0
  -18.4430  -11.7371   20.6822 O   0  0  0  0  0  0  0  0  0  0  0  0
  -18.7930  -11.0743   18.4516 C   0  0  1  0  0  0  0  0  0  0  0  0
  -18.9565  -11.6321   17.1496 O   0  0  0  0  0  0  0  0  0  0  0  0
  -20.1119  -10.9763   19.1979 C   0  0  1  0  0  0  0  0  0  0  0  0
  -20.9740  -12.0501   18.8130 O   0  0  0  0  0  0  0  0  0  0  0  0
  -19.7515  -11.1453   20.6621 C   0  0  2  0  0  0  0  0  0  0  0  0
  -16.0083   -6.8986   15.6535 C   0  0  1  0  0  0  0  0  0  0  0  0
  -20.4378   -8.3887   25.1479 N   0  0  0  0  0  0  0  0  0  0  0  0
  -20.6006   -9.7219   24.9274 C   0  0  1  0  0  0  0  0  0  0  0  0
  -15.6065   -7.2908   17.0471 C   0  0  2  0  0  0  0  0  0  0  0  0
  -20.9929  -10.4984   25.9636 N   0  0  0  0  0  0  0  0  0  0  0  0
  -14.2149   -6.9905   17.1662 O   0  0  0  0  0  0  0  0  0  0  0  0
  -15.8763   -8.7806   17.1218 C   0  0  2  0  0  0  0  0  0  0  0  0
  -20.3879  -10.3012   23.7084 N   0  0  0  0  0  0  0  0  0  0  0  0
  -14.8787   -9.4585   17.8734 O   0  0  0  0  0  0  0  0  0  0  0  0
  -19.9919   -9.5665   22.6384 C   0  0  2  0  0  0  0  0  0  0  0  0
  -15.8524   -9.2530   15.6814 C   0  0  2  0  0  0  0  0  0  0  0  0
  -16.1098   -8.0972   14.8858 O   0  0  0  0  0  0  0  0  0  0  0  0
  -19.8039   -8.1169   22.8223 C   0  0  1  0  0  0  0  0  0  0  0  0
  -16.9055  -10.3162   15.3896 C   0  0  0  0  0  0  0  0  0  0  0  0
  -18.2033   -9.7631   15.6172 O   0  0  0  0  0  0  0  0  0  0  0  0
  -20.0483   -7.5502   24.1606 C   0  0  0  0  0  0  0  0  0  0  0  0
  -19.8920   -6.2214   24.3885 O   0  0  0  0  0  0  0  0  0  0  0  0
  -19.4245   -7.6210   21.6394 N   0  0  0  0  0  0  0  0  0  0  0  0
  -19.3722   -8.6635   20.7596 C   0  0  0  0  0  0  0  0  0  0  0  0
  -19.7113   -9.8282   21.3512 N   0  0  1  0  0  0  0  0  0  0  0  0
  -18.8899   -3.1832   13.3600 N   0  0  0  0  0  0  0  0  0  0  0  0
  -20.8846   -9.7342   16.3914 O   0  5  0  0  0  0  0  0  0  0  0  0
  -17.6401   -3.6285   13.0555 C   0  0  2  0  0  0  0  0  0  0  0  0
  -16.9770   -3.0773   12.0056 N   0  0  0  0  0  0  0  0  0  0  0  0
  -19.8434  -11.6366   14.4589 O   0  0  0  0  0  0  0  0  0  0  0  0
  -17.0306   -4.6127   13.7712 N   0  0  0  0  0  0  0  0  0  0  0  0
  -17.6429   -5.2047   14.8232 C   0  0  2  0  0  0  0  0  0  0  0  0
  -18.9921   -4.7647   15.2022 C   0  0  2  0  0  0  0  0  0  0  0  0
  -19.5998   -3.6882   14.3912 C   0  0  0  0  0  0  0  0  0  0  0  0
  -20.8402   -3.2149   14.6670 O   0  0  0  0  0  0  0  0  0  0  0  0
  -19.3515   -5.5018   16.2718 N   0  0  0  0  0  0  0  0  0  0  0  0
  -18.3161   -6.3486   16.5513 C   0  0  0  0  0  0  0  0  0  0  0  0
  -17.2959   -6.1643   15.6829 N   0  0  1  0  0  0  0  0  0  0  0  0
  1  3  1  1  0  0  0
  1  4  2  0  0  0  0
  1  6  1  0  0  0  0
  1 22  1  0  0  0  0
  2 28  1  0  0  0  0
  2 35  1  1  0  0  0
  2 38  2  0  0  0  0
  2 10  1  0  0  0  0
  5  6  1  0  0  0  0
  7  5  1  1  0  0  0
  7  8  1  0  0  0  0
  7  9  1  0  0  0  0
  9 10  1  6  0  0  0
  9 11  1  0  0  0  0
 11 12  1  6  0  0  0
 11 13  1  0  0  0  0
 13  8  1  6  0  0  0
 13 33  1  0  0  0  0
 14 46  1  0  0  0  0
 14 17  1  0  0  0  0
 14 25  1  6  0  0  0
 15 16  1  0  0  0  0
 15 29  1  0  0  0  0
 16 18  1  6  0  0  0
 16 21  1  0  0  0  0
 17 19  1  6  0  0  0
 17 20  1  0  0  0  0
 20 22  1  1  0  0  0
 20 24  1  0  0  0  0
 23 21  1  6  0  0  0
 23 26  1  0  0  0  0
 23 33  1  0  0  0  0
 24 25  1  6  0  0  0
 24 27  1  0  0  0  0
 26 29  1  1  0  0  0
 26 31  1  0  0  0  0
 27 28  1  0  0  0  0
 29 30  2  0  0  0  0
 31 32  1  0  0  0  0
 33 32  1  1  0  0  0
 34 36  1  0  0  0  0
 34 42  1  0  0  0  0
 36 37  1  6  0  0  0
 36 39  1  0  0  0  0
 40 39  1  1  0  0  0
 40 41  1  0  0  0  0
 40 46  1  0  0  0  0
 41 42  1  1  0  0  0
 41 44  1  0  0  0  0
 42 43  2  0  0  0  0
 44 45  1  0  0  0  0
 46 45  1  6  0  0  0
M  CHG  2   3  -1  35  -1
M  END
>  <CHROM.1>
-94.08973038,148.66070972,-18.13347488,-8.52388436,18.28378695,-1.93384075
1.02603773,-0.78355651

>  <Name>
ligand

>  <RI>
-1

>  <Rbt.Current_Directory>
/home/itssahil/PROJECTS/Mol_Feturizer/Test_systems_manuscript/rnas/3mum

>  <Rbt.Executable>
rbdock ($Id: //depot/dev/client3/rdock/2013.1/src/exe/rbdock.cxx#4 $)

>  <Rbt.Library>
libRbt.so (2013.1, Build901 2013/11/27)

>  <Rbt.Parameter_File>
/export/apps/rDock/src/rDock_2013.1_src/data/scripts/dock_solv.prm

>  <Rbt.Receptor>
prm/blind_docking_100.prm

>  <SCORE>
16.602

>  <SCORE.INTER>
15.5285

>  <SCORE.INTER.CONST>
1

>  <SCORE.INTER.POLAR>
0

>  <SCORE.INTER.ROT>
2

>  <SCORE.INTER.SOLV>
45.3125

>  <SCORE.INTER.VDW>
-9.68515

>  <SCORE.INTER.norm>
0.337577

>  <SCORE.INTRA>
0.340007

>  <SCORE.INTRA.DIHEDRAL>
-0.0352231

>  <SCORE.INTRA.DIHEDRAL.0>
2.40424

>  <SCORE.INTRA.POLAR>
0

>  <SCORE.INTRA.POLAR.0>
0

>  <SCORE.INTRA.REPUL>
0

>  <SCORE.INTRA.REPUL.0>
0

>  <SCORE.INTRA.SOLV>
-0.00865505

>  <SCORE.INTRA.SOLV.lig_0>
-134.169

>  <SCORE.INTRA.VDW>
0.361947

>  <SCORE.INTRA.VDW.0>
-2.18386

>  <SCORE.INTRA.norm>
0.00739147

>  <SCORE.RESTR>
0.733415

>  <SCORE.RESTR.CAVITY>
0.733415

>  <SCORE.RESTR.norm>
0.0159438

>  <SCORE.SYSTEM>
0

>  <SCORE.SYSTEM.CONST>
0

>  <SCORE.SYSTEM.DIHEDRAL>
0

>  <SCORE.SYSTEM.SOLV>
0

>  <SCORE.SYSTEM.norm>
0

>  <SCORE.heavy>
46

>  <SCORE.norm>
0.360912

>  <RMSD>
15.546

$$$$
ligand
 OpenBabel02271912143D
libRbt.so/2013.1/901 2013/11/27
 46 52  0  0  0  0  0  0  0  0999 V2000
  -14.9373   -9.4879   19.4785 P   0  0  1  0  0  0  0  0  0  0  0  0
  -19.4718  -10.7044   15.9240 P   0  0  2  0  0  0  0  0  0  0  0  0
  -15.1102   -7.8599   20.1579 O   0  5  0  0  0  0  0  0  0  0  0  0
  -13.5088  -10.3272   20.1375 O   0  0  0  0  0  0  0  0  0  0  0  0
  -16.4734  -11.6397   19.2956 C   0  0  0  0  0  0  0  0  0  0  0  0
  -16.2767  -10.3221   19.8091 O   0  0  0  0  0  0  0  0  0  0  0  0
  -17.9543  -11.9633   19.3484 C   0  0  1  0  0  0  0  0  0  0  0  0
  -18.4449  -11.7402   20.6779 O   0  0  0  0  0  0  0  0  0  0  0  0
  -18.7958  -11.0727   18.4488 C   0  0  1  0  0  0  0  0  0  0  0  0
  -18.9610  -11.6279   17.1459 O   0  0  0  0  0  0  0  0  0  0  0  0
  -20.1140  -10.9746   19.1963 C   0  0  1  0  0  0  0  0  0  0  0  0
  -20.9778  -12.0467   18.8100 O   0  0  0  0  0  0  0  0  0  0  0  0
  -19.7527  -11.1469   20.6599 C   0  0  2  0  0  0  0  0  0  0  0  0
  -16.0084   -6.8950   15.6567 C   0  0  1  0  0  0  0  0  0  0  0  0
  -20.4416   -8.3966   25.1492 N   0  0  0  0  0  0  0  0  0  0  0  0
  -20.6076   -9.7288   24.9259 C   0  0  1  0  0  0  0  0  0  0  0  0
  -15.6060   -7.2903   17.0491 C   0  0  2  0  0  0  0  0  0  0  0  0
  -21.0043  -10.5062   25.9598 N   0  0  0  0  0  0  0  0  0  0  0  0
  -14.2139   -6.9919   17.1678 O   0  0  0  0  0  0  0  0  0  0  0  0
  -15.8774   -8.7799   17.1212 C   0  0  2  0  0  0  0  0  0  0  0  0
  -20.3937  -10.3066   23.7064 N   0  0  0  0  0  0  0  0  0  0  0  0
  -14.8801   -9.4604   17.8707 O   0  0  0  0  0  0  0  0  0  0  0  0
  -19.9933   -9.5709   22.6386 C   0  0  2  0  0  0  0  0  0  0  0  0
  -15.8552   -9.2496   15.6799 C   0  0  2  0  0  0  0  0  0  0  0  0
  -16.1119   -8.0920   14.8867 O   0  0  0  0  0  0  0  0  0  0  0  0
  -19.8017   -8.1222   22.8255 C   0  0  1  0  0  0  0  0  0  0  0  0
  -16.9098  -10.3110   15.3868 C   0  0  0  0  0  0  0  0  0  0  0  0
  -18.2068   -9.7568   15.6165 O   0  0  0  0  0  0  0  0  0  0  0  0
  -20.0476   -7.5574   24.1643 C   0  0  0  0  0  0  0  0  0  0  0  0
  -19.8880   -6.2294   24.3950 O   0  0  0  0  0  0  0  0  0  0  0  0
  -19.4182   -7.6253   21.6444 N   0  0  0  0  0  0  0  0  0  0  0  0
  -19.3668   -8.6663   20.7628 C   0  0  0  0  0  0  0  0  0  0  0  0
  -19.7105   -9.8312   21.3515 N   0  0  1  0  0  0  0  0  0  0  0  0
  -18.9409   -3.2621   13.2964 N   0  0  0  0  0  0  0  0  0  0  0  0
  -20.8875   -9.7262   16.3928 O   0  5  0  0  0  0  0  0  0  0  0  0
  -17.6981   -3.7189   12.9802 C   0  0  2  0  0  0  0  0  0  0  0  0
  -17.0586   -3.2061   11.8967 N   0  0  0  0  0  0  0  0  0  0  0  0
  -19.8499  -11.6261   14.4558 O   0  0  0  0  0  0  0  0  0  0  0  0
  -17.0727   -4.6772   13.7169 N   0  0  0  0  0  0  0  0  0  0  0  0
  -17.6613   -5.2308   14.8029 C   0  0  2  0  0  0  0  0  0  0  0  0
  -19.0018   -4.7766   15.1959 C   0  0  2  0  0  0  0  0  0  0  0  0
  -19.6275   -3.7294   14.3605 C   0  0  0  0  0  0  0  0  0  0  0  0
  -20.8615   -3.2456   14.6468 O   0  0  0  0  0  0  0  0  0  0  0  0
  -19.3370   -5.4747   16.2989 N   0  0  0  0  0  0  0  0  0  0  0  0
  -18.2956   -6.3116   16.5854 C   0  0  0  0  0  0  0  0  0  0  0  0
  -17.2951   -6.1592   15.6885 N   0  0  1  0  0  0  0  0  0  0  0  0
  1  3  1  1  0  0  0
  1  4  2  0  0  0  0
  1  6  1  0  0  0  0
  1 22  1  0  0  0  0
  2 28  1  0  0  0  0
  2 35  1  1  0  0  0
  2 38  2  0  0  0  0
  2 10  1  0  0  0  0
  5  6  1  0  0  0  0
  7  5  1  1  0  0  0
  7  8  1  0  0  0  0
  7  9  1  0  0  0  0
  9 10  1  6  0  0  0
  9 11  1  0  0  0  0
 11 12  1  6  0  0  0
 11 13  1  0  0  0  0
 13  8  1  6  0  0  0
 13 33  1  0  0  0  0
 14 46  1  0  0  0  0
 14 17  1  0  0  0  0
 14 25  1  6  0  0  0
 15 16  1  0  0  0  0
 15 29  1  0  0  0  0
 16 18  1  6  0  0  0
 16 21  1  0  0  0  0
 17 19  1  6  0  0  0
 17 20  1  0  0  0  0
 20 22  1  1  0  0  0
 20 24  1  0  0  0  0
 23 21  1  6  0  0  0
 23 26  1  0  0  0  0
 23 33  1  0  0  0  0
 24 25  1  6  0  0  0
 24 27  1  0  0  0  0
 26 29  1  1  0  0  0
 26 31  1  0  0  0  0
 27 28  1  0  0  0  0
 29 30  2  0  0  0  0
 31 32  1  0  0  0  0
 33 32  1  1  0  0  0
 34 36  1  0  0  0  0
 34 42  1  0  0  0  0
 36 37  1  6  0  0  0
 36 39  1  0  0  0  0
 40 39  1  1  0  0  0
 40 41  1  0  0  0  0
 40 46  1  0  0  0  0
 41 42  1  1  0  0  0
 41 44  1  0  0  0  0
 42 43  2  0  0  0  0
 44 45  1  0  0  0  0
 46 45  1  6  0  0  0
M  CHG  2   3  -1  35  -1
M  END
>  <CHROM.1>
-94.28478198,151.15177610,-18.14030268,-8.53252238,18.27684831,-1.91716753
1.00934560,-0.80803871

>  <Name>
ligand

>  <RI>
0

>  <Rbt.Current_Directory>
/home/itssahil/PROJECTS/Mol_Feturizer/Test_systems_manuscript/rnas/3mum

>  <Rbt.Executable>
rbdock ($Id: //depot/dev/client3/rdock/2013.1/src/exe/rbdock.cxx#4 $)

>  <Rbt.Library>
libRbt.so (2013.1, Build901 2013/11/27)

>  <Rbt.Parameter_File>
/export/apps/rDock/src/rDock_2013.1_src/data/scripts/dock_solv.prm

>  <Rbt.Receptor>
prm/blind_docking_60.prm

>  <SCORE>
16.275

>  <SCORE.INTER>
15.4786

>  <SCORE.INTER.CONST>
1

>  <SCORE.INTER.POLAR>
0

>  <SCORE.INTER.ROT>
2

>  <SCORE.INTER.SOLV>
45.0282

>  <SCORE.INTER.VDW>
-9.62366

>  <SCORE.INTER.norm>
0.336491

>  <SCORE.INTRA>
0.379598

>  <SCORE.INTRA.DIHEDRAL>
-0.0353152

>  <SCORE.INTRA.DIHEDRAL.0>
2.40424

>  <SCORE.INTRA.POLAR>
0

>  <SCORE.INTRA.POLAR.0>
0

>  <SCORE.INTRA.REPUL>
0

>  <SCORE.INTRA.REPUL.0>
0

>  <SCORE.INTRA.SOLV>
-0.00586747

>  <SCORE.INTRA.SOLV.lig_0>
-134.169

>  <SCORE.INTRA.VDW>
0.400189

>  <SCORE.INTRA.VDW.0>
-2.18386

>  <SCORE.INTRA.norm>
0.00825212

>  <SCORE.RESTR>
0.416786

>  <SCORE.RESTR.CAVITY>
0.416786

>  <SCORE.RESTR.norm>
0.00906056

>  <SCORE.SYSTEM>
0

>  <SCORE.SYSTEM.CONST>
0

>  <SCORE.SYSTEM.DIHEDRAL>
0

>  <SCORE.SYSTEM.SOLV>
0

>  <SCORE.SYSTEM.norm>
0

>  <SCORE.heavy>
46

>  <SCORE.norm>
0.353804

>  <RMSD>
15.552

$$$$
ligand
 OpenBabel02271912143D
libRbt.so/2013.1/901 2013/11/27
 46 52  0  0  0  0  0  0  0  0999 V2000
  -14.9343   -9.5001   19.4865 P   0  0  1  0  0  0  0  0  0  0  0  0
  -19.4676  -10.7018   15.9255 P   0  0  2  0  0  0  0  0  0  0  0  0
  -15.1063   -7.8741   20.1709 O   0  5  0  0  0  0  0  0  0  0  0  0
  -13.5068  -10.3425   20.1437 O   0  0  0  0  0  0  0  0  0  0  0  0
  -16.4720  -11.6501   19.2960 C   0  0  0  0  0  0  0  0  0  0  0  0
  -16.2746  -10.3342   19.8137 O   0  0  0  0  0  0  0  0  0  0  0  0
  -17.9532  -11.9726   19.3469 C   0  0  1  0  0  0  0  0  0  0  0  0
  -18.4444  -11.7533   20.6767 O   0  0  0  0  0  0  0  0  0  0  0  0
  -18.7935  -11.0785   18.4496 C   0  0  1  0  0  0  0  0  0  0  0  0
  -18.9583  -11.6295   17.1448 O   0  0  0  0  0  0  0  0  0  0  0  0
  -20.1121  -10.9817   19.1966 C   0  0  1  0  0  0  0  0  0  0  0  0
  -20.9764  -12.0519   18.8064 O   0  0  0  0  0  0  0  0  0  0  0  0
  -19.7517  -11.1588   20.6599 C   0  0  2  0  0  0  0  0  0  0  0  0
  -16.0010   -6.8944   15.6721 C   0  0  1  0  0  0  0  0  0  0  0  0
  -20.4365   -8.4227   25.1585 N   0  0  0  0  0  0  0  0  0  0  0  0
  -20.6027   -9.7543   24.9311 C   0  0  1  0  0  0  0  0  0  0  0  0
  -15.5997   -7.2944   17.0636 C   0  0  2  0  0  0  0  0  0  0  0  0
  -20.9985  -10.5349   25.9629 N   0  0  0  0  0  0  0  0  0  0  0  0
  -14.2075   -6.9975   17.1840 O   0  0  0  0  0  0  0  0  0  0  0  0
  -15.8724   -8.7840   17.1309 C   0  0  2  0  0  0  0  0  0  0  0  0
  -20.3900  -10.3281   23.7095 N   0  0  0  0  0  0  0  0  0  0  0  0
  -14.8761   -9.4676   17.8789 O   0  0  0  0  0  0  0  0  0  0  0  0
  -19.9905   -9.5892   22.6438 C   0  0  2  0  0  0  0  0  0  0  0  0
  -15.8497   -9.2492   15.6881 C   0  0  2  0  0  0  0  0  0  0  0  0
  -16.1050   -8.0889   14.8984 O   0  0  0  0  0  0  0  0  0  0  0  0
  -19.7987   -8.1411   22.8351 C   0  0  1  0  0  0  0  0  0  0  0  0
  -16.9050  -10.3088   15.3911 C   0  0  0  0  0  0  0  0  0  0  0  0
  -18.2017   -9.7543   15.6217 O   0  0  0  0  0  0  0  0  0  0  0  0
  -20.0433   -7.5804   24.1759 C   0  0  0  0  0  0  0  0  0  0  0  0
  -19.8836   -6.2532   24.4106 O   0  0  0  0  0  0  0  0  0  0  0  0
  -19.4163   -7.6403   21.6552 N   0  0  0  0  0  0  0  0  0  0  0  0
  -19.3657   -8.6786   20.7703 C   0  0  0  0  0  0  0  0  0  0  0  0
  -19.7089   -9.8453   21.3556 N   0  0  1  0  0  0  0  0  0  0  0  0
  -18.9168   -3.2310   13.3384 N   0  0  0  0  0  0  0  0  0  0  0  0
  -20.8828   -9.7239   16.3965 O   0  5  0  0  0  0  0  0  0  0  0  0
  -17.6728   -3.6854   13.0238 C   0  0  2  0  0  0  0  0  0  0  0  0
  -17.0268   -3.1606   11.9499 N   0  0  0  0  0  0  0  0  0  0  0  0
  -19.8456  -11.6187   14.4543 O   0  0  0  0  0  0  0  0  0  0  0  0
  -17.0524   -4.6529   13.7526 N   0  0  0  0  0  0  0  0  0  0  0  0
  -17.6475   -5.2185   14.8288 C   0  0  2  0  0  0  0  0  0  0  0  0
  -18.9897   -4.7676   15.2197 C   0  0  2  0  0  0  0  0  0  0  0  0
  -19.6098   -3.7100   14.3932 C   0  0  0  0  0  0  0  0  0  0  0  0
  -20.8448   -3.2283   14.6784 O   0  0  0  0  0  0  0  0  0  0  0  0
  -19.3317   -5.4782   16.3126 N   0  0  0  0  0  0  0  0  0  0  0  0
  -18.2928   -6.3195   16.5951 C   0  0  0  0  0  0  0  0  0  0  0  0
  -17.2871   -6.1577   15.7055 N   0  0  1  0  0  0  0  0  0  0  0  0
  1  3  1  1  0  0  0
  1  4  2  0  0  0  0
  1  6  1  0  0  0  0
  1 22  1  0  0  0  0
  2 28  1  0  0  0  0
  2 35  1  1  0  0  0
  2 38  2  0  0  0  0
  2 10  1  0  0  0  0
  5  6  1  0  0  0  0
  7  5  1  1  0  0  0
  7  8  1  0  0  0  0
  7  9  1  0  0  0  0
  9 10  1  6  0  0  0
  9 11  1  0  0  0  0
 11 12  1  6  0  0  0
 11 13  1  0  0  0  0
 13  8  1  6  0  0  0
 13 33  1  0  0  0  0
 14 46  1  0  0  0  0
 14 17  1  0  0  0  0
 14 25  1  6  0  0  0
 15 16  1  0  0  0  0
 15 29  1  0  0  0  0
 16 18  1  6  0  0  0
 16 21  1  0  0  0  0
 17 19  1  6  0  0  0
 17 20  1  0  0  0  0
 20 22  1  1  0  0  0
 20 24  1  0  0  0  0
 23 21  1  6  0  0  0
 23 26  1  0  0  0  0
 23 33  1  0  0  0  0
 24 25  1  6  0  0  0
 24 27  1  0  0  0  0
 26 29  1  1  0  0  0
 26 31  1  0  0  0  0
 27 28  1  0  0  0  0
 29 30  2  0  0  0  0
 31 32  1  0  0  0  0
 33 32  1  1  0  0  0
 34 36  1  0  0  0  0
 34 42  1  0  0  0  0
 36 37  1  6  0  0  0
 36 39  1  0  0  0  0
 40 39  1  1  0  0  0
 40 41  1  0  0  0  0
 40 46  1  0  0  0  0
 41 42  1  1  0  0  0
 41 44  1  0  0  0  0
 42 43  2  0  0  0  0
 44 45  1  0  0  0  0
 46 45  1  6  0  0  0
M  CHG  2   3  -1  35  -1
M  END
>  <CHROM.1>
-94.18760134,150.58414394,-18.13394144,-8.53616494,18.28790797,-1.92280369
1.01413627,-0.79726144

>  <Name>
ligand

>  <RI>
-1

>  <Rbt.Current_Directory>
/home/itssahil/PROJECTS/Mol_Feturizer/Test_systems_manuscript/rnas/3mum

>  <Rbt.Executable>
rbdock ($Id: //depot/dev/client3/rdock/2013.1/src/exe/rbdock.cxx#4 $)

>  <Rbt.Library>
libRbt.so (2013.1, Build901 2013/11/27)

>  <Rbt.Parameter_File>
/export/apps/rDock/src/rDock_2013.1_src/data/scripts/dock_solv.prm

>  <Rbt.Receptor>
prm/blind_docking_100.prm

>  <SCORE>
16.6444

>  <SCORE.INTER>
15.5312

>  <SCORE.INTER.CONST>
1

>  <SCORE.INTER.POLAR>
0

>  <SCORE.INTER.ROT>
2

>  <SCORE.INTER.SOLV>
45.1517

>  <SCORE.INTER.VDW>
-9.62979

>  <SCORE.INTER.norm>
0.337634

>  <SCORE.INTRA>
0.371542

>  <SCORE.INTRA.DIHEDRAL>
-0.0353377

>  <SCORE.INTRA.DIHEDRAL.0>
2.40424

>  <SCORE.INTRA.POLAR>
0

>  <SCORE.INTRA.POLAR.0>
0

>  <SCORE.INTRA.REPUL>
0

>  <SCORE.INTRA.REPUL.0>
0

>  <SCORE.INTRA.SOLV>
-0.00644333

>  <SCORE.INTRA.SOLV.lig_0>
-134.169

>  <SCORE.INTRA.VDW>
0.392433

>  <SCORE.INTRA.VDW.0>
-2.18386

>  <SCORE.INTRA.norm>
0.008077

>  <SCORE.RESTR>
0.741749

>  <SCORE.RESTR.CAVITY>
0.741749

>  <SCORE.RESTR.norm>
0.016125

>  <SCORE.SYSTEM>
0

>  <SCORE.SYSTEM.CONST>
0

>  <SCORE.SYSTEM.DIHEDRAL>
0

>  <SCORE.SYSTEM.SOLV>
0

>  <SCORE.SYSTEM.norm>
0

>  <SCORE.heavy>
46

>  <SCORE.norm>
0.361836

>  <RMSD>
15.553

$$$$
ligand
 OpenBabel02271912143D
libRbt.so/2013.1/901 2013/11/27
 46 52  0  0  0  0  0  0  0  0999 V2000
  -19.1835  -11.2378   17.4574 P   0  0  1  0  0  0  0  0  0  0  0  0
  -14.8020  -10.3321   21.2860 P   0  0  2  0  0  0  0  0  0  0  0  0
  -20.1731   -9.7757   17.3009 O   0  5  0  0  0  0  0  0  0  0  0  0
  -19.7264  -12.5216   16.3455 O   0  0  0  0  0  0  0  0  0  0  0  0
  -16.5988  -11.8037   17.3062 C   0  0  0  0  0  0  0  0  0  0  0  0
  -17.6488  -10.8483   17.1535 O   0  0  0  0  0  0  0  0  0  0  0  0
  -15.2828  -11.0600   17.4321 C   0  0  1  0  0  0  0  0  0  0  0  0
  -15.1376  -10.1558   16.3279 O   0  0  0  0  0  0  0  0  0  0  0  0
  -15.1984  -10.1962   18.6799 C   0  0  1  0  0  0  0  0  0  0  0  0
  -14.6356  -10.9010   19.7842 O   0  0  0  0  0  0  0  0  0  0  0  0
  -14.3216   -9.0375   18.2386 C   0  0  1  0  0  0  0  0  0  0  0  0
  -12.9446   -9.3527   18.4595 O   0  0  0  0  0  0  0  0  0  0  0  0
  -14.5561   -8.9105   16.7448 C   0  0  2  0  0  0  0  0  0  0  0  0
  -19.9000  -10.0012   21.9778 C   0  0  1  0  0  0  0  0  0  0  0  0
  -18.8214   -7.2119   14.0776 N   0  0  0  0  0  0  0  0  0  0  0  0
  -18.2251   -8.4350   14.0518 C   0  0  1  0  0  0  0  0  0  0  0  0
  -20.0130  -10.0786   20.4817 C   0  0  2  0  0  0  0  0  0  0  0  0
  -18.7533   -9.3874   13.2488 N   0  0  0  0  0  0  0  0  0  0  0  0
  -21.2554  -10.7266   20.2030 O   0  0  0  0  0  0  0  0  0  0  0  0
  -18.8249  -10.9138   20.0474 C   0  0  2  0  0  0  0  0  0  0  0  0
  -17.1201   -8.7349   14.7973 N   0  0  0  0  0  0  0  0  0  0  0  0
  -19.1569  -11.7810   18.9717 O   0  0  0  0  0  0  0  0  0  0  0  0
  -16.5539   -7.8156   15.6193 C   0  0  2  0  0  0  0  0  0  0  0  0
  -18.4510  -11.7249   21.2725 C   0  0  2  0  0  0  0  0  0  0  0  0
  -18.9857  -11.0165   22.3894 O   0  0  0  0  0  0  0  0  0  0  0  0
  -17.1588   -6.4738   15.6823 C   0  0  1  0  0  0  0  0  0  0  0  0
  -16.9439  -11.8797   21.4426 C   0  0  0  0  0  0  0  0  0  0  0  0
  -16.3578  -10.5876   21.6131 O   0  0  0  0  0  0  0  0  0  0  0  0
  -18.3498   -6.2106   14.8551 C   0  0  0  0  0  0  0  0  0  0  0  0
  -18.9486   -4.9927   14.8719 O   0  0  0  0  0  0  0  0  0  0  0  0
  -16.4278   -5.7579   16.5439 N   0  0  0  0  0  0  0  0  0  0  0  0
  -15.4293   -6.5686   17.0013 C   0  0  0  0  0  0  0  0  0  0  0  0
  -15.4994   -7.7991   16.4512 N   0  0  1  0  0  0  0  0  0  0  0  0
  -17.1824   -7.2860   25.5289 N   0  0  0  0  0  0  0  0  0  0  0  0
  -14.4222   -8.5915   21.3703 O   0  5  0  0  0  0  0  0  0  0  0  0
  -17.4462   -8.6200   25.4674 C   0  0  2  0  0  0  0  0  0  0  0  0
  -16.9590   -9.4380   26.4367 N   0  0  0  0  0  0  0  0  0  0  0  0
  -13.8279  -11.2084   22.4824 O   0  0  0  0  0  0  0  0  0  0  0  0
  -18.1849   -9.1638   24.4619 N   0  0  0  0  0  0  0  0  0  0  0  0
  -18.6914   -8.4015   23.4647 C   0  0  2  0  0  0  0  0  0  0  0  0
  -18.4428   -6.9538   23.4779 C   0  0  2  0  0  0  0  0  0  0  0  0
  -17.6389   -6.4209   24.5986 C   0  0  0  0  0  0  0  0  0  0  0  0
  -17.3599   -5.0977   24.6968 O   0  0  0  0  0  0  0  0  0  0  0  0
  -19.0612   -6.4468   22.3931 N   0  0  0  0  0  0  0  0  0  0  0  0
  -19.6541   -7.4881   21.7364 C   0  0  0  0  0  0  0  0  0  0  0  0
  -19.4315   -8.6544   22.3837 N   0  0  1  0  0  0  0  0  0  0  0  0
  1  3  1  6  0  0  0
  1  4  2  0  0  0  0
  1  6  1  0  0  0  0
  1 22  1  0  0  0  0
  2 28  1  0  0  0  0
  2 35  1  1  0  0  0
  2 38  2  0  0  0  0
  2 10  1  0  0  0  0
  5  6  1  0  0  0  0
  7  5  1  6  0  0  0
  7  8  1  0  0  0  0
  7  9  1  0  0  0  0
  9 10  1  1  0  0  0
  9 11  1  0  0  0  0
 11 12  1  6  0  0  0
 11 13  1  0  0  0  0
 13  8  1  1  0  0  0
 13 33  1  0  0  0  0
 14 46  1  0  0  0  0
 14 17  1  0  0  0  0
 14 25  1  6  0  0  0
 15 16  1  0  0  0  0
 15 29  1  0  0  0  0
 16 18  1  6  0  0  0
 16 21  1  0  0  0  0
 17 19  1  1  0  0  0
 17 20  1  0  0  0  0
 20 22  1  6  0  0  0
 20 24  1  0  0  0  0
 23 21  1  6  0  0  0
 23 26  1  0  0  0  0
 23 33  1  0  0  0  0
 24 25  1  1  0  0  0
 24 27  1  0  0  0  0
 26 29  1  1  0  0  0
 26 31  1  0  0  0  0
 27 28  1  0  0  0  0
 29 30  2  0  0  0  0
 31 32  1  0  0  0  0
 33 32  1  1  0  0  0
 34 36  1  0  0  0  0
 34 42  1  0  0  0  0
 36 37  1  6  0  0  0
 36 39  1  0  0  0  0
 40 39  1  1  0  0  0
 40 41  1  0  0  0  0
 40 46  1  0  0  0  0
 41 42  1  1  0  0  0
 41 44  1  0  0  0  0
 42 43  2  0  0  0  0
 44 45  1  0  0  0  0
 46 45  1  6  0  0  0
M  CHG  2   3  -1  35  -1
M  END
>  <CHROM.1>
-17.31372060,-149.14432223,-17.34931292,-9.24047097,19.48143533,1.56569306
0.04379130,-1.56230631

>  <Name>
ligand

>  <RI>
-1

>  <Rbt.Current_Directory>
/home/itssahil/PROJECTS/Mol_Feturizer/Test_systems_manuscript/rnas/3mum

>  <Rbt.Executable>
rbdock ($Id: //depot/dev/client3/rdock/2013.1/src/exe/rbdock.cxx#4 $)

>  <Rbt.Library>
libRbt.so (2013.1, Build901 2013/11/27)

>  <Rbt.Parameter_File>
/export/apps/rDock/src/rDock_2013.1_src/data/scripts/dock_solv.prm

>  <Rbt.Receptor>
prm/blind_docking_40.prm

>  <SCORE>
35.8391

>  <SCORE.INTER>
35.7012

>  <SCORE.INTER.CONST>
1

>  <SCORE.INTER.POLAR>
0

>  <SCORE.INTER.ROT>
2

>  <SCORE.INTER.SOLV>
33.0621

>  <SCORE.INTER.VDW>
7.84673

>  <SCORE.INTER.norm>
0.776112

>  <SCORE.INTRA>
-0.289342

>  <SCORE.INTRA.DIHEDRAL>
0.0261779

>  <SCORE.INTRA.DIHEDRAL.0>
2.40424

>  <SCORE.INTRA.POLAR>
0

>  <SCORE.INTRA.POLAR.0>
0

>  <SCORE.INTRA.REPUL>
0

>  <SCORE.INTRA.REPUL.0>
0

>  <SCORE.INTRA.SOLV>
0.379972

>  <SCORE.INTRA.SOLV.lig_0>
-134.169

>  <SCORE.INTRA.VDW>
-0.492417

>  <SCORE.INTRA.VDW.0>
-2.18386

>  <SCORE.INTRA.norm>
-0.00629004

>  <SCORE.RESTR>
0.427319

>  <SCORE.RESTR.CAVITY>
0.427319

>  <SCORE.RESTR.norm>
0.00928954

>  <SCORE.SYSTEM>
0

>  <SCORE.SYSTEM.CONST>
0

>  <SCORE.SYSTEM.DIHEDRAL>
0

>  <SCORE.SYSTEM.SOLV>
0

>  <SCORE.SYSTEM.norm>
0

>  <SCORE.heavy>
46

>  <SCORE.norm>
0.779112

>  <RMSD>
15.554

$$$$
ligand
 OpenBabel02271912143D
libRbt.so/2013.1/901 2013/11/27
 46 52  0  0  0  0  0  0  0  0999 V2000
  -18.6898  -11.0738   15.0600 P   0  0  1  0  0  0  0  0  0  0  0  0
  -14.8971   -9.6484   19.3331 P   0  0  2  0  0  0  0  0  0  0  0  0
  -20.2827  -10.3720   15.3946 O   0  5  0  0  0  0  0  0  0  0  0  0
  -18.6593  -11.9166   13.4890 O   0  0  0  0  0  0  0  0  0  0  0  0
  -16.2031  -10.1648   14.9444 C   0  0  0  0  0  0  0  0  0  0  0  0
  -17.5973   -9.8883   15.0788 O   0  0  0  0  0  0  0  0  0  0  0  0
  -15.4214   -8.9779   15.4745 C   0  0  1  0  0  0  0  0  0  0  0  0
  -15.8771   -7.7797   14.8304 O   0  0  0  0  0  0  0  0  0  0  0  0
  -15.6230   -8.7425   16.9625 C   0  0  1  0  0  0  0  0  0  0  0  0
  -14.6559   -9.4321   17.7514 O   0  0  0  0  0  0  0  0  0  0  0  0
  -15.4934   -7.2351   17.0939 C   0  0  1  0  0  0  0  0  0  0  0  0
  -14.1250   -6.8769   17.3030 O   0  0  0  0  0  0  0  0  0  0  0  0
  -15.9399   -6.6813   15.7536 C   0  0  2  0  0  0  0  0  0  0  0  0
  -19.3665  -12.2024   19.6147 C   0  0  1  0  0  0  0  0  0  0  0  0
  -19.7397   -3.6170   13.6645 N   0  0  0  0  0  0  0  0  0  0  0  0
  -18.4630   -3.8123   13.2351 C   0  0  1  0  0  0  0  0  0  0  0  0
  -19.6079  -11.7458   18.2038 C   0  0  2  0  0  0  0  0  0  0  0  0
  -18.0539   -3.1556   12.1251 N   0  0  0  0  0  0  0  0  0  0  0  0
  -20.3920  -12.7631   17.5783 O   0  0  0  0  0  0  0  0  0  0  0  0
  -18.2254  -11.6351   17.5920 C   0  0  2  0  0  0  0  0  0  0  0  0
  -17.5843   -4.6372   13.8787 N   0  0  0  0  0  0  0  0  0  0  0  0
  -18.2144  -12.0627   16.2369 O   0  0  0  0  0  0  0  0  0  0  0  0
  -17.9464   -5.3196   14.9944 C   0  0  2  0  0  0  0  0  0  0  0  0
  -17.3539  -12.5479   18.4321 C   0  0  2  0  0  0  0  0  0  0  0  0
  -18.0279  -12.6925   19.6812 O   0  0  0  0  0  0  0  0  0  0  0  0
  -19.3173   -5.1413   15.5036 C   0  0  1  0  0  0  0  0  0  0  0  0
  -15.9589  -11.9807   18.6697 C   0  0  0  0  0  0  0  0  0  0  0  0
  -16.0710  -10.7493   19.3859 O   0  0  0  0  0  0  0  0  0  0  0  0
  -20.2190   -4.2387   14.7660 C   0  0  0  0  0  0  0  0  0  0  0  0
  -21.4924   -4.0353   15.1891 O   0  0  0  0  0  0  0  0  0  0  0  0
  -19.4273   -5.9018   16.5984 N   0  0  0  0  0  0  0  0  0  0  0  0
  -18.2254   -6.5216   16.7852 C   0  0  0  0  0  0  0  0  0  0  0  0
  -17.3365   -6.1763   15.8300 N   0  0  1  0  0  0  0  0  0  0  0  0
  -17.6058   -9.8176   23.9252 N   0  0  0  0  0  0  0  0  0  0  0  0
  -15.4186   -8.1385   20.1262 O   0  5  0  0  0  0  0  0  0  0  0  0
  -17.1403  -10.9296   23.2931 C   0  0  2  0  0  0  0  0  0  0  0  0
  -16.0523  -11.5710   23.7939 N   0  0  0  0  0  0  0  0  0  0  0  0
  -13.4800  -10.3012   20.1780 O   0  0  0  0  0  0  0  0  0  0  0  0
  -17.7312  -11.4218   22.1702 N   0  0  0  0  0  0  0  0  0  0  0  0
  -18.8135  -10.8231   21.6203 C   0  0  2  0  0  0  0  0  0  0  0  0
  -19.3638   -9.6203   22.2591 C   0  0  2  0  0  0  0  0  0  0  0  0
  -18.6827   -9.1368   23.4791 C   0  0  0  0  0  0  0  0  0  0  0  0
  -19.1202   -8.0361   24.1392 O   0  0  0  0  0  0  0  0  0  0  0  0
  -20.4275   -9.2448   21.5217 N   0  0  0  0  0  0  0  0  0  0  0  0
  -20.5450  -10.1341   20.4910 C   0  0  0  0  0  0  0  0  0  0  0  0
  -19.5782  -11.0774   20.5568 N   0  0  1  0  0  0  0  0  0  0  0  0
  1  3  1  1  0  0  0
  1  4  2  0  0  0  0
  1  6  1  0  0  0  0
  1 22  1  0  0  0  0
  2 28  1  0  0  0  0
  2 35  1  1  0  0  0
  2 38  2  0  0  0  0
  2 10  1  0  0  0  0
  5  6  1  0  0  0  0
  7  5  1  6  0  0  0
  7  8  1  0  0  0  0
  7  9  1  0  0  0  0
  9 10  1  1  0  0  0
  9 11  1  0  0  0  0
 11 12  1  6  0  0  0
 11 13  1  0  0  0  0
 13  8  1  6  0  0  0
 13 33  1  0  0  0  0
 14 46  1  0  0  0  0
 14 17  1  0  0  0  0
 14 25  1  6  0  0  0
 15 16  1  0  0  0  0
 15 29  1  0  0  0  0
 16 18  1  1  0  0  0
 16 21  1  0  0  0  0
 17 19  1  6  0  0  0
 17 20  1  0  0  0  0
 20 22  1  6  0  0  0
 20 24  1  0  0  0  0
 23 21  1  1  0  0  0
 23 26  1  0  0  0  0
 23 33  1  0  0  0  0
 24 25  1  1  0  0  0
 24 27  1  0  0  0  0
 26 29  1  6  0  0  0
 26 31  1  0  0  0  0
 27 28  1  0  0  0  0
 29 30  2  0  0  0  0
 31 32  1  0  0  0  0
 33 32  1  6  0  0  0
 34 36  1  0  0  0  0
 34 42  1  0  0  0  0
 36 37  1  6  0  0  0
 36 39  1  0  0  0  0
 40 39  1  1  0  0  0
 40 41  1  0  0  0  0
 40 46  1  0  0  0  0
 41 42  1  1  0  0  0
 41 44  1  0  0  0  0
 42 43  2  0  0  0  0
 44 45  1  0  0  0  0
 46 45  1  6  0  0  0
M  CHG  2   3  -1  35  -1
M  END
>  <CHROM.1>
-82.59151544,-139.50359033,-17.70154439,-9.04256297,17.84851150,-2.66903435
-1.48873244,1.10801174

>  <Name>
ligand

>  <RI>
-1

>  <Rbt.Current_Directory>
/home/itssahil/PROJECTS/Mol_Feturizer/Test_systems_manuscript/rnas/3mum

>  <Rbt.Executable>
rbdock ($Id: //depot/dev/client3/rdock/2013.1/src/exe/rbdock.cxx#4 $)

>  <Rbt.Library>
libRbt.so (2013.1, Build901 2013/11/27)

>  <Rbt.Parameter_File>
/export/apps/rDock/src/rDock_2013.1_src/data/scripts/dock_solv.prm

>  <Rbt.Receptor>
prm/blind_docking_40.prm

>  <SCORE>
58.9115

>  <SCORE.INTER>
58.0513

>  <SCORE.INTER.CONST>
1

>  <SCORE.INTER.POLAR>
0

>  <SCORE.INTER.ROT>
2

>  <SCORE.INTER.SOLV>
34.788

>  <SCORE.INTER.VDW>
22.1715

>  <SCORE.INTER.norm>
1.26198

>  <SCORE.INTRA>
0.10104

>  <SCORE.INTRA.DIHEDRAL>
0.0162459

>  <SCORE.INTRA.DIHEDRAL.0>
2.40424

>  <SCORE.INTRA.POLAR>
0

>  <SCORE.INTRA.POLAR.0>
0

>  <SCORE.INTRA.REPUL>
0

>  <SCORE.INTRA.REPUL.0>
0

>  <SCORE.INTRA.SOLV>
0.0376259

>  <SCORE.INTRA.SOLV.lig_0>
-134.169

>  <SCORE.INTRA.VDW>
0.0741045

>  <SCORE.INTRA.VDW.0>
-2.18386

>  <SCORE.INTRA.norm>
0.00219653

>  <SCORE.RESTR>
0.759199

>  <SCORE.RESTR.CAVITY>
0.759199

>  <SCORE.RESTR.norm>
0.0165043

>  <SCORE.SYSTEM>
0

>  <SCORE.SYSTEM.CONST>
0

>  <SCORE.SYSTEM.DIHEDRAL>
0

>  <SCORE.SYSTEM.SOLV>
0

>  <SCORE.SYSTEM.norm>
0

>  <SCORE.heavy>
46

>  <SCORE.norm>
1.28069

>  <RMSD>
15.562

$$$$
ligand
 OpenBabel02271912143D
libRbt.so/2013.1/901 2013/11/27
 46 52  0  0  0  0  0  0  0  0999 V2000
  -19.4747  -11.5276   17.5624 P   0  0  1  0  0  0  0  0  0  0  0  0
  -14.8280   -9.1754   20.3104 P   0  0  2  0  0  0  0  0  0  0  0  0
  -20.9179  -10.5370   17.8409 O   0  5  0  0  0  0  0  0  0  0  0  0
  -19.8118  -12.8843   16.4556 O   0  0  0  0  0  0  0  0  0  0  0  0
  -17.0013  -11.0812   16.7219 C   0  0  0  0  0  0  0  0  0  0  0  0
  -18.3193  -10.5831   16.9522 O   0  0  0  0  0  0  0  0  0  0  0  0
  -16.0496   -9.9042   16.6239 C   0  0  1  0  0  0  0  0  0  0  0  0
  -16.5375   -8.9757   15.6451 O   0  0  0  0  0  0  0  0  0  0  0  0
  -15.9388   -9.1126   17.9168 C   0  0  1  0  0  0  0  0  0  0  0  0
  -14.8868   -9.5916   18.7515 O   0  0  0  0  0  0  0  0  0  0  0  0
  -15.6806   -7.6965   17.4330 C   0  0  1  0  0  0  0  0  0  0  0  0
  -14.2761   -7.4812   17.2733 O   0  0  0  0  0  0  0  0  0  0  0  0
  -16.3411   -7.6177   16.0692 C   0  0  2  0  0  0  0  0  0  0  0  0
  -19.3235  -10.7965   22.2443 C   0  0  1  0  0  0  0  0  0  0  0  0
  -19.7517   -4.1321   13.9687 N   0  0  0  0  0  0  0  0  0  0  0  0
  -18.5223   -4.5058   13.5199 C   0  0  1  0  0  0  0  0  0  0  0  0
  -19.8040  -10.8616   20.8222 C   0  0  2  0  0  0  0  0  0  0  0  0
  -18.0564   -3.9380   12.3836 N   0  0  0  0  0  0  0  0  0  0  0  0
  -20.7648  -11.9175   20.7681 O   0  0  0  0  0  0  0  0  0  0  0  0
  -18.5639  -11.1776   20.0098 C   0  0  2  0  0  0  0  0  0  0  0  0
  -17.7452   -5.4229   14.1694 N   0  0  0  0  0  0  0  0  0  0  0  0
  -18.8486  -12.0705   18.9416 O   0  0  0  0  0  0  0  0  0  0  0  0
  -18.1678   -6.0222   15.3112 C   0  0  2  0  0  0  0  0  0  0  0  0
  -17.6109  -11.8297   20.9922 C   0  0  2  0  0  0  0  0  0  0  0  0
  -18.0356  -11.4094   22.2877 O   0  0  0  0  0  0  0  0  0  0  0  0
  -19.4909   -5.6509   15.8422 C   0  0  1  0  0  0  0  0  0  0  0  0
  -16.1601  -11.4155   20.7735 C   0  0  0  0  0  0  0  0  0  0  0  0
  -16.0430  -10.0043   20.9655 O   0  0  0  0  0  0  0  0  0  0  0  0
  -20.2828   -4.6562   15.0970 C   0  0  0  0  0  0  0  0  0  0  0  0
  -21.5080   -4.2750   15.5393 O   0  0  0  0  0  0  0  0  0  0  0  0
  -19.6744   -6.3616   16.9604 N   0  0  0  0  0  0  0  0  0  0  0  0
  -18.5606   -7.1300   17.1409 C   0  0  0  0  0  0  0  0  0  0  0  0
  -17.6567   -6.9303   16.1588 N   0  0  1  0  0  0  0  0  0  0  0  0
  -17.0603   -7.4336   25.5514 N   0  0  0  0  0  0  0  0  0  0  0  0
  -15.0769   -7.4228   20.5277 O   0  5  0  0  0  0  0  0  0  0  0  0
  -16.8675   -8.7729   25.4033 C   0  0  2  0  0  0  0  0  0  0  0  0
  -15.9612   -9.4042   26.1945 N   0  0  0  0  0  0  0  0  0  0  0  0
  -13.3222   -9.6627   21.1124 O   0  0  0  0  0  0  0  0  0  0  0  0
  -17.5554   -9.5036   24.4839 N   0  0  0  0  0  0  0  0  0  0  0  0
  -18.4660   -8.9302   23.6628 C   0  0  2  0  0  0  0  0  0  0  0  0
  -18.7201   -7.4879   23.7772 C   0  0  2  0  0  0  0  0  0  0  0  0
  -17.9468   -6.7489   24.7979 C   0  0  0  0  0  0  0  0  0  0  0  0
  -18.1151   -5.4156   24.9785 O   0  0  0  0  0  0  0  0  0  0  0  0
  -19.6647   -7.1895   22.8634 N   0  0  0  0  0  0  0  0  0  0  0  0
  -19.9857   -8.3480   22.2137 C   0  0  0  0  0  0  0  0  0  0  0  0
  -19.2671   -9.3862   22.6981 N   0  0  1  0  0  0  0  0  0  0  0  0
  1  3  1  1  0  0  0
  1  4  2  0  0  0  0
  1  6  1  0  0  0  0
  1 22  1  0  0  0  0
  2 28  1  0  0  0  0
  2 35  1  1  0  0  0
  2 38  2  0  0  0  0
  2 10  1  0  0  0  0
  5  6  1  0  0  0  0
  7  5  1  1  0  0  0
  7  8  1  0  0  0  0
  7  9  1  0  0  0  0
  9 10  1  1  0  0  0
  9 11  1  0  0  0  0
 11 12  1  6  0  0  0
 11 13  1  0  0  0  0
 13  8  1  1  0  0  0
 13 33  1  0  0  0  0
 14 46  1  0  0  0  0
 14 17  1  0  0  0  0
 14 25  1  6  0  0  0
 15 16  1  0  0  0  0
 15 29  1  0  0  0  0
 16 18  1  1  0  0  0
 16 21  1  0  0  0  0
 17 19  1  1  0  0  0
 17 20  1  0  0  0  0
 20 22  1  6  0  0  0
 20 24  1  0  0  0  0
 23 21  1  1  0  0  0
 23 26  1  0  0  0  0
 23 33  1  0  0  0  0
 24 25  1  1  0  0  0
 24 27  1  0  0  0  0
 26 29  1  6  0  0  0
 26 31  1  0  0  0  0
 27 28  1  0  0  0  0
 29 30  2  0  0  0  0
 31 32  1  0  0  0  0
 33 32  1  6  0  0  0
 34 36  1  0  0  0  0
 34 42  1  0  0  0  0
 36 37  1  6  0  0  0
 36 39  1  0  0  0  0
 40 39  1  1  0  0  0
 40 41  1  0  0  0  0
 40 46  1  0  0  0  0
 41 42  1  1  0  0  0
 41 44  1  0  0  0  0
 42 43  2  0  0  0  0
 44 45  1  0  0  0  0
 46 45  1  6  0  0  0
M  CHG  2   3  -1  35  -1
M  END
>  <CHROM.1>
-105.30386592,-154.29083774,-17.81679152,-8.69345644,19.26597201,2.78526953
-1.44989817,-0.02297689

>  <Name>
ligand

>  <RI>
0

>  <Rbt.Current_Directory>
/home/itssahil/PROJECTS/Mol_Feturizer/Test_systems_manuscript/rnas/3mum

>  <Rbt.Executable>
rbdock ($Id: //depot/dev/client3/rdock/2013.1/src/exe/rbdock.cxx#4 $)

>  <Rbt.Library>
libRbt.so (2013.1, Build901 2013/11/27)

>  <Rbt.Parameter_File>
/export/apps/rDock/src/rDock_2013.1_src/data/scripts/dock_solv.prm

>  <Rbt.Receptor>
prm/blind_docking_60.prm

>  <SCORE>
16.7196

>  <SCORE.INTER>
16.2609

>  <SCORE.INTER.CONST>
1

>  <SCORE.INTER.POLAR>
0

>  <SCORE.INTER.ROT>
2

>  <SCORE.INTER.SOLV>
38.1691

>  <SCORE.INTER.VDW>
-6.81576

>  <SCORE.INTER.norm>
0.353498

>  <SCORE.INTRA>
0.334785

>  <SCORE.INTRA.DIHEDRAL>
0.0199831

>  <SCORE.INTRA.DIHEDRAL.0>
2.40424

>  <SCORE.INTRA.POLAR>
0

>  <SCORE.INTRA.POLAR.0>
0

>  <SCORE.INTRA.REPUL>
0

>  <SCORE.INTRA.REPUL.0>
0

>  <SCORE.INTRA.SOLV>
0.0302466

>  <SCORE.INTRA.SOLV.lig_0>
-134.169

>  <SCORE.INTRA.VDW>
0.30967

>  <SCORE.INTRA.VDW.0>
-2.18386

>  <SCORE.INTRA.norm>
0.00727793

>  <SCORE.RESTR>
0.12387

>  <SCORE.RESTR.CAVITY>
0.12387

>  <SCORE.RESTR.norm>
0.00269282

>  <SCORE.SYSTEM>
0

>  <SCORE.SYSTEM.CONST>
0

>  <SCORE.SYSTEM.DIHEDRAL>
0

>  <SCORE.SYSTEM.SOLV>
0

>  <SCORE.SYSTEM.norm>
0

>  <SCORE.heavy>
46

>  <SCORE.norm>
0.363469

>  <RMSD>
15.566

$$$$
ligand
 OpenBabel02271912143D
libRbt.so/2013.1/901 2013/11/27
 46 52  0  0  0  0  0  0  0  0999 V2000
  -19.4850  -11.5400   17.5638 P   0  0  1  0  0  0  0  0  0  0  0  0
  -14.8335   -9.1883   20.3041 P   0  0  2  0  0  0  0  0  0  0  0  0
  -20.9277  -10.5491   17.8444 O   0  5  0  0  0  0  0  0  0  0  0  0
  -19.8241  -12.8967   16.4576 O   0  0  0  0  0  0  0  0  0  0  0  0
  -17.0129  -11.0941   16.7192 C   0  0  0  0  0  0  0  0  0  0  0  0
  -18.3305  -10.5957   16.9516 O   0  0  0  0  0  0  0  0  0  0  0  0
  -16.0612   -9.9172   16.6196 C   0  0  1  0  0  0  0  0  0  0  0  0
  -16.5505   -8.9888   15.6415 O   0  0  0  0  0  0  0  0  0  0  0  0
  -15.9482   -9.1255   17.9122 C   0  0  1  0  0  0  0  0  0  0  0  0
  -14.8949   -9.6047   18.7453 O   0  0  0  0  0  0  0  0  0  0  0  0
  -15.6906   -7.7095   17.4279 C   0  0  1  0  0  0  0  0  0  0  0  0
  -14.2863   -7.4945   17.2659 O   0  0  0  0  0  0  0  0  0  0  0  0
  -16.3532   -7.6307   16.0651 C   0  0  2  0  0  0  0  0  0  0  0  0
  -19.3263  -10.8084   22.2453 C   0  0  1  0  0  0  0  0  0  0  0  0
  -19.7645   -4.1412   13.9725 N   0  0  0  0  0  0  0  0  0  0  0  0
  -18.5356   -4.5145   13.5222 C   0  0  1  0  0  0  0  0  0  0  0  0
  -19.8090  -10.8737   20.8240 C   0  0  2  0  0  0  0  0  0  0  0  0
  -18.0704   -3.9451   12.3863 N   0  0  0  0  0  0  0  0  0  0  0  0
  -20.7701  -11.9294   20.7715 O   0  0  0  0  0  0  0  0  0  0  0  0
  -18.5702  -11.1899   20.0097 C   0  0  2  0  0  0  0  0  0  0  0  0
  -17.7582   -5.4328   14.1696 N   0  0  0  0  0  0  0  0  0  0  0  0
  -18.8568  -12.0829   18.9420 O   0  0  0  0  0  0  0  0  0  0  0  0
  -18.1800   -6.0337   15.3109 C   0  0  2  0  0  0  0  0  0  0  0  0
  -17.6159  -11.8421   20.9906 C   0  0  2  0  0  0  0  0  0  0  0  0
  -18.0384  -11.4216   22.2867 O   0  0  0  0  0  0  0  0  0  0  0  0
  -19.5026   -5.6628   15.8435 C   0  0  1  0  0  0  0  0  0  0  0  0
  -16.1653  -11.4282   20.7695 C   0  0  0  0  0  0  0  0  0  0  0  0
  -16.0477  -10.0170   20.9612 O   0  0  0  0  0  0  0  0  0  0  0  0
  -20.2948   -4.6667   15.1003 C   0  0  0  0  0  0  0  0  0  0  0  0
  -21.5196   -4.2859   15.5442 O   0  0  0  0  0  0  0  0  0  0  0  0
  -19.6855   -6.3751   16.9608 N   0  0  0  0  0  0  0  0  0  0  0  0
  -18.5718   -7.1441   17.1393 C   0  0  0  0  0  0  0  0  0  0  0  0
  -17.6686   -6.9432   16.1568 N   0  0  1  0  0  0  0  0  0  0  0  0
  -17.0044   -7.4310   25.4964 N   0  0  0  0  0  0  0  0  0  0  0  0
  -15.0818   -7.4356   20.5216 O   0  5  0  0  0  0  0  0  0  0  0  0
  -16.8053   -8.7687   25.3421 C   0  0  2  0  0  0  0  0  0  0  0  0
  -15.8742   -9.3937   26.1093 N   0  0  0  0  0  0  0  0  0  0  0  0
  -13.3266   -9.6758   21.1037 O   0  0  0  0  0  0  0  0  0  0  0  0
  -17.5110   -9.5039   24.4400 N   0  0  0  0  0  0  0  0  0  0  0  0
  -18.4468   -8.9368   23.6432 C   0  0  2  0  0  0  0  0  0  0  0  0
  -18.7087   -7.4966   23.7654 C   0  0  2  0  0  0  0  0  0  0  0  0
  -17.9151   -6.7525   24.7666 C   0  0  0  0  0  0  0  0  0  0  0  0
  -18.0887   -5.4207   24.9528 O   0  0  0  0  0  0  0  0  0  0  0  0
  -19.6788   -7.2047   22.8765 N   0  0  0  0  0  0  0  0  0  0  0  0
  -20.0075   -8.3650   22.2342 C   0  0  0  0  0  0  0  0  0  0  0  0
  -19.2689   -9.3981   22.6989 N   0  0  1  0  0  0  0  0  0  0  0  0
  1  3  1  1  0  0  0
  1  4  2  0  0  0  0
  1  6  1  0  0  0  0
  1 22  1  0  0  0  0
  2 28  1  0  0  0  0
  2 35  1  1  0  0  0
  2 38  2  0  0  0  0
  2 10  1  0  0  0  0
  5  6  1  0  0  0  0
  7  5  1  1  0  0  0
  7  8  1  0  0  0  0
  7  9  1  0  0  0  0
  9 10  1  1  0  0  0
  9 11  1  0  0  0  0
 11 12  1  6  0  0  0
 11 13  1  0  0  0  0
 13  8  1  1  0  0  0
 13 33  1  0  0  0  0
 14 46  1  0  0  0  0
 14 17  1  0  0  0  0
 14 25  1  6  0  0  0
 15 16  1  0  0  0  0
 15 29  1  0  0  0  0
 16 18  1  1  0  0  0
 16 21  1  0  0  0  0
 17 19  1  1  0  0  0
 17 20  1  0  0  0  0
 20 22  1  6  0  0  0
 20 24  1  0  0  0  0
 23 21  1  1  0  0  0
 23 26  1  0  0  0  0
 23 33  1  0  0  0  0
 24 25  1  1  0  0  0
 24 27  1  0  0  0  0
 26 29  1  6  0  0  0
 26 31  1  0  0  0  0
 27 28  1  0  0  0  0
 29 30  2  0  0  0  0
 31 32  1  0  0  0  0
 33 32  1  6  0  0  0
 34 36  1  0  0  0  0
 34 42  1  0  0  0  0
 36 37  1  6  0  0  0
 36 39  1  0  0  0  0
 40 39  1  1  0  0  0
 40 41  1  0  0  0  0
 40 46  1  0  0  0  0
 41 42  1  1  0  0  0
 41 44  1  0  0  0  0
 42 43  2  0  0  0  0
 44 45  1  0  0  0  0
 46 45  1  6  0  0  0
M  CHG  2   3  -1  35  -1
M  END
>  <CHROM.1>
-105.40571761,-152.83953039,-17.81795593,-8.70395927,19.25897490,2.70056573
-1.43985600,-0.10651811

>  <Name>
ligand

>  <RI>
-1

>  <Rbt.Current_Directory>
/home/itssahil/PROJECTS/Mol_Feturizer/Test_systems_manuscript/rnas/3mum

>  <Rbt.Executable>
rbdock ($Id: //depot/dev/client3/rdock/2013.1/src/exe/rbdock.cxx#4 $)

>  <Rbt.Library>
libRbt.so (2013.1, Build901 2013/11/27)

>  <Rbt.Parameter_File>
/export/apps/rDock/src/rDock_2013.1_src/data/scripts/dock_solv.prm

>  <Rbt.Receptor>
prm/blind_docking_100.prm

>  <SCORE>
17.4828

>  <SCORE.INTER>
16.4185

>  <SCORE.INTER.CONST>
1

>  <SCORE.INTER.POLAR>
0

>  <SCORE.INTER.ROT>
2

>  <SCORE.INTER.SOLV>
38.0372

>  <SCORE.INTER.VDW>
-6.66673

>  <SCORE.INTER.norm>
0.356924

>  <SCORE.INTRA>
0.288025

>  <SCORE.INTRA.DIHEDRAL>
0.020433

>  <SCORE.INTRA.DIHEDRAL.0>
2.40424

>  <SCORE.INTRA.POLAR>
0

>  <SCORE.INTRA.POLAR.0>
0

>  <SCORE.INTRA.REPUL>
0

>  <SCORE.INTRA.REPUL.0>
0

>  <SCORE.INTRA.SOLV>
0.028772

>  <SCORE.INTRA.SOLV.lig_0>
-134.169

>  <SCORE.INTRA.VDW>
0.263422

>  <SCORE.INTRA.VDW.0>
-2.18386

>  <SCORE.INTRA.norm>
0.00626141

>  <SCORE.RESTR>
0.776322

>  <SCORE.RESTR.CAVITY>
0.776322

>  <SCORE.RESTR.norm>
0.0168766

>  <SCORE.SYSTEM>
0

>  <SCORE.SYSTEM.CONST>
0

>  <SCORE.SYSTEM.DIHEDRAL>
0

>  <SCORE.SYSTEM.SOLV>
0

>  <SCORE.SYSTEM.norm>
0

>  <SCORE.heavy>
46

>  <SCORE.norm>
0.380062

>  <RMSD>
15.572

$$$$
ligand
 OpenBabel02271912143D
libRbt.so/2013.1/901 2013/11/27
 46 52  0  0  0  0  0  0  0  0999 V2000
  -19.7164  -10.7263   17.3351 P   0  0  1  0  0  0  0  0  0  0  0  0
  -14.9181  -10.4118   20.7342 P   0  0  2  0  0  0  0  0  0  0  0  0
  -20.5903   -9.1845   17.3638 O   0  5  0  0  0  0  0  0  0  0  0  0
  -20.4723  -11.8899   16.2154 O   0  0  0  0  0  0  0  0  0  0  0  0
  -17.2160  -11.4809   16.8859 C   0  0  0  0  0  0  0  0  0  0  0  0
  -18.1919  -10.4388   16.8963 O   0  0  0  0  0  0  0  0  0  0  0  0
  -15.8362  -10.8516   16.9162 C   0  0  1  0  0  0  0  0  0  0  0  0
  -15.7252   -9.8925   15.8551 O   0  0  0  0  0  0  0  0  0  0  0  0
  -15.5568  -10.0787   18.1948 C   0  0  1  0  0  0  0  0  0  0  0  0
  -14.9490  -10.8945   19.1939 O   0  0  0  0  0  0  0  0  0  0  0  0
  -14.6337   -8.9659   17.7305 C   0  0  1  0  0  0  0  0  0  0  0  0
  -13.2729   -9.4009   17.7897 O   0  0  0  0  0  0  0  0  0  0  0  0
  -15.0028   -8.7256   16.2785 C   0  0  2  0  0  0  0  0  0  0  0  0
  -19.8772   -9.7298   21.9674 C   0  0  1  0  0  0  0  0  0  0  0  0
  -19.0141   -6.3316   13.7543 N   0  0  0  0  0  0  0  0  0  0  0  0
  -18.4747   -7.5617   13.5342 C   0  0  1  0  0  0  0  0  0  0  0  0
  -20.1433   -9.7021   20.4890 C   0  0  2  0  0  0  0  0  0  0  0  0
  -18.9968   -8.3210   12.5434 N   0  0  0  0  0  0  0  0  0  0  0  0
  -21.4571  -10.2322   20.3047 O   0  0  0  0  0  0  0  0  0  0  0  0
  -19.0782  -10.5978   19.8881 C   0  0  2  0  0  0  0  0  0  0  0  0
  -17.4324   -8.0542   14.2675 N   0  0  0  0  0  0  0  0  0  0  0  0
  -19.5863  -11.3658   18.8059 O   0  0  0  0  0  0  0  0  0  0  0  0
  -16.8752   -7.3329   15.2729 C   0  0  2  0  0  0  0  0  0  0  0  0
  -18.6547  -11.5124   21.0207 C   0  0  2  0  0  0  0  0  0  0  0  0
  -19.0153  -10.8376   22.2248 O   0  0  0  0  0  0  0  0  0  0  0  0
  -17.4198   -5.9926   15.5509 C   0  0  1  0  0  0  0  0  0  0  0  0
  -17.1565  -11.7947   21.0250 C   0  0  0  0  0  0  0  0  0  0  0  0
  -16.4500  -10.5657   21.2058 O   0  0  0  0  0  0  0  0  0  0  0  0
  -18.5447   -5.5165   14.7262 C   0  0  0  0  0  0  0  0  0  0  0  0
  -19.0861   -4.2898   14.9364 O   0  0  0  0  0  0  0  0  0  0  0  0
  -16.7103   -5.4876   16.5661 N   0  0  0  0  0  0  0  0  0  0  0  0
  -15.7802   -6.4233   16.9170 C   0  0  0  0  0  0  0  0  0  0  0  0
  -15.8738   -7.5276   16.1466 N   0  0  1  0  0  0  0  0  0  0  0  0
  -18.3182   -6.8744   26.0644 N   0  0  0  0  0  0  0  0  0  0  0  0
  -14.3870   -8.7151   20.8758 O   0  5  0  0  0  0  0  0  0  0  0  0
  -18.9086   -8.1005   26.0311 C   0  0  2  0  0  0  0  0  0  0  0  0
  -19.1587   -8.7483   27.1989 N   0  0  0  0  0  0  0  0  0  0  0  0
  -13.9078  -11.4362   21.7725 O   0  0  0  0  0  0  0  0  0  0  0  0
  -19.2575   -8.7018   24.8611 N   0  0  0  0  0  0  0  0  0  0  0  0
  -19.0280   -8.1096   23.6658 C   0  0  2  0  0  0  0  0  0  0  0  0
  -18.3959   -6.7839   23.6371 C   0  0  2  0  0  0  0  0  0  0  0  0
  -18.0452   -6.1791   24.9399 C   0  0  0  0  0  0  0  0  0  0  0  0
  -17.4610   -4.9577   25.0136 O   0  0  0  0  0  0  0  0  0  0  0  0
  -18.2985   -6.4315   22.3400 N   0  0  0  0  0  0  0  0  0  0  0  0
  -18.8224   -7.4525   21.5984 C   0  0  0  0  0  0  0  0  0  0  0  0
  -19.2595   -8.4524   22.3972 N   0  0  1  0  0  0  0  0  0  0  0  0
  1  3  1  1  0  0  0
  1  4  2  0  0  0  0
  1  6  1  0  0  0  0
  1 22  1  0  0  0  0
  2 28  1  0  0  0  0
  2 35  1  1  0  0  0
  2 38  2  0  0  0  0
  2 10  1  0  0  0  0
  5  6  1  0  0  0  0
  7  5  1  1  0  0  0
  7  8  1  0  0  0  0
  7  9  1  0  0  0  0
  9 10  1  1  0  0  0
  9 11  1  0  0  0  0
 11 12  1  6  0  0  0
 11 13  1  0  0  0  0
 13  8  1  1  0  0  0
 13 33  1  0  0  0  0
 14 46  1  0  0  0  0
 14 17  1  0  0  0  0
 14 25  1  6  0  0  0
 15 16  1  0  0  0  0
 15 29  1  0  0  0  0
 16 18  1  6  0  0  0
 16 21  1  0  0  0  0
 17 19  1  1  0  0  0
 17 20  1  0  0  0  0
 20 22  1  6  0  0  0
 20 24  1  0  0  0  0
 23 21  1  6  0  0  0
 23 26  1  0  0  0  0
 23 33  1  0  0  0  0
 24 25  1  1  0  0  0
 24 27  1  0  0  0  0
 26 29  1  1  0  0  0
 26 31  1  0  0  0  0
 27 28  1  0  0  0  0
 29 30  2  0  0  0  0
 31 32  1  0  0  0  0
 33 32  1  1  0  0  0
 34 36  1  0  0  0  0
 34 42  1  0  0  0  0
 36 37  1  6  0  0  0
 36 39  1  0  0  0  0
 40 39  1  1  0  0  0
 40 41  1  0  0  0  0
 40 46  1  0  0  0  0
 41 42  1  1  0  0  0
 41 44  1  0  0  0  0
 42 43  2  0  0  0  0
 44 45  1  0  0  0  0
 46 45  1  6  0  0  0
M  CHG  2   3  -1  35  -1
M  END
>  <CHROM.1>
-28.92875135,172.82057895,-17.68130896,-8.92515323,19.29929158,-1.45462399
-0.86607174,1.68491644

>  <Name>
ligand

>  <RI>
-1

>  <Rbt.Current_Directory>
/home/itssahil/PROJECTS/Mol_Feturizer/Test_systems_manuscript/rnas/3mum

>  <Rbt.Executable>
rbdock ($Id: //depot/dev/client3/rdock/2013.1/src/exe/rbdock.cxx#4 $)

>  <Rbt.Library>
libRbt.so (2013.1, Build901 2013/11/27)

>  <Rbt.Parameter_File>
/export/apps/rDock/src/rDock_2013.1_src/data/scripts/dock_solv.prm

>  <Rbt.Receptor>
prm/blind_docking_80.prm

>  <SCORE>
52.336

>  <SCORE.INTER>
50.8984

>  <SCORE.INTER.CONST>
1

>  <SCORE.INTER.POLAR>
0

>  <SCORE.INTER.ROT>
2

>  <SCORE.INTER.SOLV>
35.256

>  <SCORE.INTER.VDW>
17.2469

>  <SCORE.INTER.norm>
1.10649

>  <SCORE.INTRA>
0.506176

>  <SCORE.INTRA.DIHEDRAL>
-0.0113404

>  <SCORE.INTRA.DIHEDRAL.0>
2.40424

>  <SCORE.INTRA.POLAR>
0

>  <SCORE.INTRA.POLAR.0>
0

>  <SCORE.INTRA.REPUL>
0

>  <SCORE.INTRA.REPUL.0>
0

>  <SCORE.INTRA.SOLV>
0.0558508

>  <SCORE.INTRA.SOLV.lig_0>
-134.169

>  <SCORE.INTRA.VDW>
0.483921

>  <SCORE.INTRA.VDW.0>
-2.18386

>  <SCORE.INTRA.norm>
0.0110038

>  <SCORE.RESTR>
0.931412

>  <SCORE.RESTR.CAVITY>
0.931412

>  <SCORE.RESTR.norm>
0.0202481

>  <SCORE.SYSTEM>
0

>  <SCORE.SYSTEM.CONST>
0

>  <SCORE.SYSTEM.DIHEDRAL>
0

>  <SCORE.SYSTEM.SOLV>
0

>  <SCORE.SYSTEM.norm>
0

>  <SCORE.heavy>
46

>  <SCORE.norm>
1.13774

>  <RMSD>
15.572

$$$$
ligand
 OpenBabel02271912143D
libRbt.so/2013.1/901 2013/11/27
 46 52  0  0  0  0  0  0  0  0999 V2000
  -20.1130   -8.0215   17.8519 P   0  0  1  0  0  0  0  0  0  0  0  0
  -17.1122  -12.9160   19.1614 P   0  0  2  0  0  0  0  0  0  0  0  0
  -19.0894   -6.5934   18.0862 O   0  5  0  0  0  0  0  0  0  0  0  0
  -21.7113   -7.5841   17.1935 O   0  0  0  0  0  0  0  0  0  0  0  0
  -19.8904  -10.3224   16.5560 C   0  0  0  0  0  0  0  0  0  0  0  0
  -19.3545   -9.0324   16.8509 O   0  0  0  0  0  0  0  0  0  0  0  0
  -18.7753  -11.1974   16.0159 C   0  0  1  0  0  0  0  0  0  0  0  0
  -18.1339  -10.5311   14.9193 O   0  0  0  0  0  0  0  0  0  0  0  0
  -17.6755  -11.4631   17.0308 C   0  0  1  0  0  0  0  0  0  0  0  0
  -17.9181  -12.6463   17.7886 O   0  0  0  0  0  0  0  0  0  0  0  0
  -16.4320  -11.5857   16.1678 C   0  0  1  0  0  0  0  0  0  0  0  0
  -16.2603  -12.9407   15.7449 O   0  0  0  0  0  0  0  0  0  0  0  0
  -16.7116  -10.7288   14.9471 C   0  0  2  0  0  0  0  0  0  0  0  0
  -18.1938   -8.8287   22.1112 C   0  0  1  0  0  0  0  0  0  0  0  0
  -17.0397   -5.4423   14.5748 N   0  0  0  0  0  0  0  0  0  0  0  0
  -18.0054   -6.3782   14.3651 C   0  0  1  0  0  0  0  0  0  0  0  0
  -18.6268   -8.1473   20.8441 C   0  0  2  0  0  0  0  0  0  0  0  0
  -19.2399   -5.9547   14.0082 N   0  0  0  0  0  0  0  0  0  0  0  0
  -19.6642   -7.2356   21.2095 O   0  0  0  0  0  0  0  0  0  0  0  0
  -19.1378   -9.2668   19.9590 C   0  0  2  0  0  0  0  0  0  0  0  0
  -17.7771   -7.7188   14.4969 N   0  0  0  0  0  0  0  0  0  0  0  0
  -20.2779   -8.8668   19.2110 O   0  0  0  0  0  0  0  0  0  0  0  0
  -16.5574   -8.1942   14.8546 C   0  0  2  0  0  0  0  0  0  0  0  0
  -19.5097  -10.3813   20.9171 C   0  0  2  0  0  0  0  0  0  0  0  0
  -18.7697  -10.1342   22.1116 O   0  0  0  0  0  0  0  0  0  0  0  0
  -15.4751   -7.2229   15.0907 C   0  0  1  0  0  0  0  0  0  0  0  0
  -19.1609  -11.7648   20.3799 C   0  0  0  0  0  0  0  0  0  0  0  0
  -17.7477  -11.8477   20.1849 O   0  0  0  0  0  0  0  0  0  0  0  0
  -15.7827   -5.7902   14.9332 C   0  0  0  0  0  0  0  0  0  0  0  0
  -14.8249   -4.8504   15.1368 O   0  0  0  0  0  0  0  0  0  0  0  0
  -14.3862   -7.9266   15.4195 N   0  0  0  0  0  0  0  0  0  0  0  0
  -14.7333   -9.2467   15.3970 C   0  0  0  0  0  0  0  0  0  0  0  0
  -16.0294   -9.4122   15.0590 N   0  0  1  0  0  0  0  0  0  0  0  0
  -14.0487   -9.3889   25.2534 N   0  0  0  0  0  0  0  0  0  0  0  0
  -15.3640  -12.6262   18.9594 O   0  5  0  0  0  0  0  0  0  0  0  0
  -15.3753   -9.3638   25.5575 C   0  0  2  0  0  0  0  0  0  0  0  0
  -15.7620   -9.5052   26.8522 N   0  0  0  0  0  0  0  0  0  0  0  0
  -17.3696  -14.5431   19.8203 O   0  0  0  0  0  0  0  0  0  0  0  0
  -16.3314   -9.2015   24.6026 N   0  0  0  0  0  0  0  0  0  0  0  0
  -16.0088   -9.0623   23.2954 C   0  0  2  0  0  0  0  0  0  0  0  0
  -14.5928   -9.0785   22.9054 C   0  0  2  0  0  0  0  0  0  0  0  0
  -13.6003   -9.2520   23.9875 C   0  0  0  0  0  0  0  0  0  0  0  0
  -12.2704   -9.2769   23.7245 O   0  0  0  0  0  0  0  0  0  0  0  0
  -14.5594   -8.9114   21.5685 N   0  0  0  0  0  0  0  0  0  0  0  0
  -15.8515   -8.8017   21.1377 C   0  0  0  0  0  0  0  0  0  0  0  0
  -16.7139   -8.8902   22.1757 N   0  0  1  0  0  0  0  0  0  0  0  0
  1  3  1  1  0  0  0
  1  4  2  0  0  0  0
  1  6  1  0  0  0  0
  1 22  1  0  0  0  0
  2 28  1  0  0  0  0
  2 35  1  6  0  0  0
  2 38  2  0  0  0  0
  2 10  1  0  0  0  0
  5  6  1  0  0  0  0
  7  5  1  1  0  0  0
  7  8  1  0  0  0  0
  7  9  1  0  0  0  0
  9 10  1  6  0  0  0
  9 11  1  0  0  0  0
 11 12  1  6  0  0  0
 11 13  1  0  0  0  0
 13  8  1  1  0  0  0
 13 33  1  0  0  0  0
 14 46  1  0  0  0  0
 14 17  1  0  0  0  0
 14 25  1  6  0  0  0
 15 16  1  0  0  0  0
 15 29  1  0  0  0  0
 16 18  1  6  0  0  0
 16 21  1  0  0  0  0
 17 19  1  1  0  0  0
 17 20  1  0  0  0  0
 20 22  1  1  0  0  0
 20 24  1  0  0  0  0
 23 21  1  6  0  0  0
 23 26  1  0  0  0  0
 23 33  1  0  0  0  0
 24 25  1  1  0  0  0
 24 27  1  0  0  0  0
 26 29  1  1  0  0  0
 26 31  1  0  0  0  0
 27 28  1  0  0  0  0
 29 30  2  0  0  0  0
 31 32  1  0  0  0  0
 33 32  1  1  0  0  0
 34 36  1  0  0  0  0
 34 42  1  0  0  0  0
 36 37  1  6  0  0  0
 36 39  1  0  0  0  0
 40 39  1  1  0  0  0
 40 41  1  0  0  0  0
 40 46  1  0  0  0  0
 41 42  1  1  0  0  0
 41 44  1  0  0  0  0
 42 43  2  0  0  0  0
 44 45  1  0  0  0  0
 46 45  1  6  0  0  0
M  CHG  2   3  -1  35  -1
M  END
>  <CHROM.1>
-14.89042754,159.46190710,-17.26363614,-9.40998552,18.84652493,-2.29857965
1.24194780,2.46215895

>  <Name>
ligand

>  <RI>
-1

>  <Rbt.Current_Directory>
/home/itssahil/PROJECTS/Mol_Feturizer/Test_systems_manuscript/rnas/3mum

>  <Rbt.Executable>
rbdock ($Id: //depot/dev/client3/rdock/2013.1/src/exe/rbdock.cxx#4 $)

>  <Rbt.Library>
libRbt.so (2013.1, Build901 2013/11/27)

>  <Rbt.Parameter_File>
/export/apps/rDock/src/rDock_2013.1_src/data/scripts/dock_solv.prm

>  <Rbt.Receptor>
prm/blind_docking_40.prm

>  <SCORE>
29.698

>  <SCORE.INTER>
28.4799

>  <SCORE.INTER.CONST>
1

>  <SCORE.INTER.POLAR>
0

>  <SCORE.INTER.ROT>
2

>  <SCORE.INTER.SOLV>
35.9936

>  <SCORE.INTER.VDW>
2.05544

>  <SCORE.INTER.norm>
0.619129

>  <SCORE.INTRA>
0.245945

>  <SCORE.INTRA.DIHEDRAL>
-0.0262436

>  <SCORE.INTRA.DIHEDRAL.0>
2.40424

>  <SCORE.INTRA.POLAR>
0

>  <SCORE.INTRA.POLAR.0>
0

>  <SCORE.INTRA.REPUL>
0

>  <SCORE.INTRA.REPUL.0>
0

>  <SCORE.INTRA.SOLV>
1.30102

>  <SCORE.INTRA.SOLV.lig_0>
-134.169

>  <SCORE.INTRA.VDW>
-0.391445

>  <SCORE.INTRA.VDW.0>
-2.18386

>  <SCORE.INTRA.norm>
0.00534662

>  <SCORE.RESTR>
0.972077

>  <SCORE.RESTR.CAVITY>
0.972077

>  <SCORE.RESTR.norm>
0.0211321

>  <SCORE.SYSTEM>
0

>  <SCORE.SYSTEM.CONST>
0

>  <SCORE.SYSTEM.DIHEDRAL>
0

>  <SCORE.SYSTEM.SOLV>
0

>  <SCORE.SYSTEM.norm>
0

>  <SCORE.heavy>
46

>  <SCORE.norm>
0.645608

>  <RMSD>
15.574

$$$$
ligand
 OpenBabel02271912143D
libRbt.so/2013.1/901 2013/11/27
 46 52  0  0  0  0  0  0  0  0999 V2000
  -19.4778  -11.5367   17.5709 P   0  0  1  0  0  0  0  0  0  0  0  0
  -14.8260   -9.1807   20.3070 P   0  0  2  0  0  0  0  0  0  0  0  0
  -20.9204  -10.5453   17.8501 O   0  5  0  0  0  0  0  0  0  0  0  0
  -19.8170  -12.8952   16.4669 O   0  0  0  0  0  0  0  0  0  0  0  0
  -17.0058  -11.0923   16.7254 C   0  0  0  0  0  0  0  0  0  0  0  0
  -18.3233  -10.5934   16.9571 O   0  0  0  0  0  0  0  0  0  0  0  0
  -16.0541   -9.9156   16.6238 C   0  0  1  0  0  0  0  0  0  0  0  0
  -16.5433   -8.9887   15.6443 O   0  0  0  0  0  0  0  0  0  0  0  0
  -15.9409   -9.1218   17.9151 C   0  0  1  0  0  0  0  0  0  0  0  0
  -14.8875   -9.5996   18.7489 O   0  0  0  0  0  0  0  0  0  0  0  0
  -15.6833   -7.7065   17.4285 C   0  0  1  0  0  0  0  0  0  0  0  0
  -14.2790   -7.4918   17.2661 O   0  0  0  0  0  0  0  0  0  0  0  0
  -16.3460   -7.6299   16.0657 C   0  0  2  0  0  0  0  0  0  0  0  0
  -19.3187  -10.7976   22.2512 C   0  0  1  0  0  0  0  0  0  0  0  0
  -19.7408   -4.1148   13.9891 N   0  0  0  0  0  0  0  0  0  0  0  0
  -18.5093   -4.4844   13.5427 C   0  0  1  0  0  0  0  0  0  0  0  0
  -19.8015  -10.8651   20.8301 C   0  0  2  0  0  0  0  0  0  0  0  0
  -18.0364   -3.9032   12.4161 N   0  0  0  0  0  0  0  0  0  0  0  0
  -20.7626  -11.9209   20.7794 O   0  0  0  0  0  0  0  0  0  0  0  0
  -18.5628  -11.1828   20.0161 C   0  0  2  0  0  0  0  0  0  0  0  0
  -17.7369   -5.4103   14.1851 N   0  0  0  0  0  0  0  0  0  0  0  0
  -18.8495  -12.0774   18.9499 O   0  0  0  0  0  0  0  0  0  0  0  0
  -18.1666   -6.0231   15.3171 C   0  0  2  0  0  0  0  0  0  0  0  0
  -17.6084  -11.8334   20.9980 C   0  0  2  0  0  0  0  0  0  0  0  0
  -18.0308  -11.4107   22.2935 O   0  0  0  0  0  0  0  0  0  0  0  0
  -19.4923   -5.6568   15.8452 C   0  0  1  0  0  0  0  0  0  0  0  0
  -16.1578  -11.4198   20.7761 C   0  0  0  0  0  0  0  0  0  0  0  0
  -16.0402  -10.0083   20.9656 O   0  0  0  0  0  0  0  0  0  0  0  0
  -20.2788   -4.6520   15.1078 C   0  0  0  0  0  0  0  0  0  0  0  0
  -21.5061   -4.2749   15.5479 O   0  0  0  0  0  0  0  0  0  0  0  0
  -19.6829   -6.3810   16.9535 N   0  0  0  0  0  0  0  0  0  0  0  0
  -18.5710   -7.1529   17.1308 C   0  0  0  0  0  0  0  0  0  0  0  0
  -17.6613   -6.9422   16.1563 N   0  0  1  0  0  0  0  0  0  0  0  0
  -17.1010   -7.4430   25.5973 N   0  0  0  0  0  0  0  0  0  0  0  0
  -15.0742   -7.4277   20.5217 O   0  5  0  0  0  0  0  0  0  0  0  0
  -16.9153   -8.7841   25.4568 C   0  0  2  0  0  0  0  0  0  0  0  0
  -16.0310   -9.4201   26.2689 N   0  0  0  0  0  0  0  0  0  0  0  0
  -13.3190   -9.6670   21.1073 O   0  0  0  0  0  0  0  0  0  0  0  0
  -17.5890   -9.5121   24.5248 N   0  0  0  0  0  0  0  0  0  0  0  0
  -18.4775   -8.9340   23.6830 C   0  0  2  0  0  0  0  0  0  0  0  0
  -18.7229   -7.4896   23.7882 C   0  0  2  0  0  0  0  0  0  0  0  0
  -17.9660   -6.7537   24.8233 C   0  0  0  0  0  0  0  0  0  0  0  0
  -18.1279   -5.4187   24.9969 O   0  0  0  0  0  0  0  0  0  0  0  0
  -19.6455   -7.1866   22.8537 N   0  0  0  0  0  0  0  0  0  0  0  0
  -19.9613   -8.3443   22.2003 C   0  0  0  0  0  0  0  0  0  0  0  0
  -19.2612   -9.3866   22.7025 N   0  0  1  0  0  0  0  0  0  0  0  0
  1  3  1  1  0  0  0
  1  4  2  0  0  0  0
  1  6  1  0  0  0  0
  1 22  1  0  0  0  0
  2 28  1  0  0  0  0
  2 35  1  1  0  0  0
  2 38  2  0  0  0  0
  2 10  1  0  0  0  0
  5  6  1  0  0  0  0
  7  5  1  1  0  0  0
  7  8  1  0  0  0  0
  7  9  1  0  0  0  0
  9 10  1  1  0  0  0
  9 11  1  0  0  0  0
 11 12  1  6  0  0  0
 11 13  1  0  0  0  0
 13  8  1  1  0  0  0
 13 33  1  0  0  0  0
 14 46  1  0  0  0  0
 14 17  1  0  0  0  0
 14 25  1  6  0  0  0
 15 16  1  0  0  0  0
 15 29  1  0  0  0  0
 16 18  1  1  0  0  0
 16 21  1  0  0  0  0
 17 19  1  1  0  0  0
 17 20  1  0  0  0  0
 20 22  1  6  0  0  0
 20 24  1  0  0  0  0
 23 21  1  1  0  0  0
 23 26  1  0  0  0  0
 23 33  1  0  0  0  0
 24 25  1  1  0  0  0
 24 27  1  0  0  0  0
 26 29  1  6  0  0  0
 26 31  1  0  0  0  0
 27 28  1  0  0  0  0
 29 30  2  0  0  0  0
 31 32  1  0  0  0  0
 33 32  1  6  0  0  0
 34 36  1  0  0  0  0
 34 42  1  0  0  0  0
 36 37  1  6  0  0  0
 36 39  1  0  0  0  0
 40 39  1  1  0  0  0
 40 41  1  0  0  0  0
 40 46  1  0  0  0  0
 41 42  1  1  0  0  0
 41 44  1  0  0  0  0
 42 43  2  0  0  0  0
 44 45  1  0  0  0  0
 46 45  1  6  0  0  0
M  CHG  2   3  -1  35  -1
M  END
>  <CHROM.1>
-106.21026994,-155.67836410,-17.82017722,-8.69794881,19.27471451,2.84887197
-1.45623163,0.04107727

>  <Name>
ligand

>  <RI>
0

>  <Rbt.Current_Directory>
/home/itssahil/PROJECTS/Mol_Feturizer/Test_systems_manuscript/rnas/3mum

>  <Rbt.Executable>
rbdock ($Id: //depot/dev/client3/rdock/2013.1/src/exe/rbdock.cxx#4 $)

>  <Rbt.Library>
libRbt.so (2013.1, Build901 2013/11/27)

>  <Rbt.Parameter_File>
/export/apps/rDock/src/rDock_2013.1_src/data/scripts/dock_solv.prm

>  <Rbt.Receptor>
prm/blind_docking_60.prm

>  <SCORE>
16.7195

>  <SCORE.INTER>
16.2258

>  <SCORE.INTER.CONST>
1

>  <SCORE.INTER.POLAR>
0

>  <SCORE.INTER.ROT>
2

>  <SCORE.INTER.SOLV>
38.3213

>  <SCORE.INTER.VDW>
-6.88989

>  <SCORE.INTER.norm>
0.352735

>  <SCORE.INTRA>
0.372664

>  <SCORE.INTRA.DIHEDRAL>
0.0195483

>  <SCORE.INTRA.DIHEDRAL.0>
2.40424

>  <SCORE.INTRA.POLAR>
0

>  <SCORE.INTRA.POLAR.0>
0

>  <SCORE.INTRA.REPUL>
0

>  <SCORE.INTRA.REPUL.0>
0

>  <SCORE.INTRA.SOLV>
0.0316234

>  <SCORE.INTRA.SOLV.lig_0>
-134.169

>  <SCORE.INTRA.VDW>
0.347078

>  <SCORE.INTRA.VDW.0>
-2.18386

>  <SCORE.INTRA.norm>
0.0081014

>  <SCORE.RESTR>
0.121006

>  <SCORE.RESTR.CAVITY>
0.121006

>  <SCORE.RESTR.norm>
0.00263055

>  <SCORE.SYSTEM>
0

>  <SCORE.SYSTEM.CONST>
0

>  <SCORE.SYSTEM.DIHEDRAL>
0

>  <SCORE.SYSTEM.SOLV>
0

>  <SCORE.SYSTEM.norm>
0

>  <SCORE.heavy>
46

>  <SCORE.norm>
0.363467

>  <RMSD>
15.574

$$$$
ligand
 OpenBabel02271912143D
libRbt.so/2013.1/901 2013/11/27
 46 52  0  0  0  0  0  0  0  0999 V2000
  -15.0702  -10.2872   20.5058 P   0  0  1  0  0  0  0  0  0  0  0  0
  -19.2334  -10.4350   16.3438 P   0  0  2  0  0  0  0  0  0  0  0  0
  -14.8158   -8.6229   21.0598 O   0  5  0  0  0  0  0  0  0  0  0  0
  -14.0785  -11.4465   21.4288 O   0  0  0  0  0  0  0  0  0  0  0  0
  -17.1624  -11.8843   20.1965 C   0  0  0  0  0  0  0  0  0  0  0  0
  -16.6350  -10.6421   20.6628 O   0  0  0  0  0  0  0  0  0  0  0  0
  -18.6631  -11.7403   20.0295 C   0  0  1  0  0  0  0  0  0  0  0  0
  -19.2344  -11.2473   21.2496 O   0  0  0  0  0  0  0  0  0  0  0  0
  -19.0543  -10.7332   18.9603 C   0  0  1  0  0  0  0  0  0  0  0  0
  -19.2070  -11.3413   17.6797 O   0  0  0  0  0  0  0  0  0  0  0  0
  -20.3641  -10.1684   19.4813 C   0  0  1  0  0  0  0  0  0  0  0  0
  -21.4591  -10.9641   19.0206 O   0  0  0  0  0  0  0  0  0  0  0  0
  -20.2761  -10.2930   20.9910 C   0  0  2  0  0  0  0  0  0  0  0  0
  -14.7501   -7.8911   16.4274 C   0  0  1  0  0  0  0  0  0  0  0  0
  -19.9945   -7.3149   25.3778 N   0  0  0  0  0  0  0  0  0  0  0  0
  -20.4309   -8.5964   25.2381 C   0  0  1  0  0  0  0  0  0  0  0  0
  -14.6836   -8.2468   17.8856 C   0  0  2  0  0  0  0  0  0  0  0  0
  -20.8662   -9.2478   26.3412 N   0  0  0  0  0  0  0  0  0  0  0  0
  -13.2975   -8.3706   18.2087 O   0  0  0  0  0  0  0  0  0  0  0  0
  -15.4142   -9.5705   17.9939 C   0  0  2  0  0  0  0  0  0  0  0  0
  -20.4491   -9.2445   24.0354 N   0  0  0  0  0  0  0  0  0  0  0  0
  -14.7905  -10.4404   18.9287 O   0  0  0  0  0  0  0  0  0  0  0  0
  -20.0214   -8.6359   22.9004 C   0  0  2  0  0  0  0  0  0  0  0  0
  -15.3453  -10.1678   16.6021 C   0  0  2  0  0  0  0  0  0  0  0  0
  -15.1175   -9.0727   15.7166 O   0  0  0  0  0  0  0  0  0  0  0  0
  -19.5414   -7.2463   22.9957 C   0  0  1  0  0  0  0  0  0  0  0  0
  -16.6290  -10.8867   16.2022 C   0  0  0  0  0  0  0  0  0  0  0  0
  -17.7062   -9.9478   16.1914 O   0  0  0  0  0  0  0  0  0  0  0  0
  -19.5453   -6.6007   24.3205 C   0  0  0  0  0  0  0  0  0  0  0  0
  -19.1154   -5.3219   24.4683 O   0  0  0  0  0  0  0  0  0  0  0  0
  -19.1864   -6.8722   21.7616 N   0  0  0  0  0  0  0  0  0  0  0  0
  -19.4186   -7.9320   20.9330 C   0  0  0  0  0  0  0  0  0  0  0  0
  -19.9186   -8.9882   21.6083 N   0  0  1  0  0  0  0  0  0  0  0  0
  -19.2973   -6.5874   14.1931 N   0  0  0  0  0  0  0  0  0  0  0  0
  -20.3220   -9.0342   16.5269 O   0  5  0  0  0  0  0  0  0  0  0  0
  -18.6238   -7.7701   14.1721 C   0  0  2  0  0  0  0  0  0  0  0  0
  -19.1515   -8.8221   13.4931 N   0  0  0  0  0  0  0  0  0  0  0  0
  -19.6786  -11.3433   14.8861 O   0  0  0  0  0  0  0  0  0  0  0  0
  -17.4341   -7.9345   14.8124 N   0  0  0  0  0  0  0  0  0  0  0  0
  -16.8616   -6.9260   15.5105 C   0  0  2  0  0  0  0  0  0  0  0  0
  -17.5397   -5.6242   15.5675 C   0  0  2  0  0  0  0  0  0  0  0  0
  -18.8257   -5.5050   14.8476 C   0  0  0  0  0  0  0  0  0  0  0  0
  -19.5227   -4.3420   14.8412 O   0  0  0  0  0  0  0  0  0  0  0  0
  -16.7566   -4.8139   16.3067 N   0  0  0  0  0  0  0  0  0  0  0  0
  -15.6670   -5.5411   16.6951 C   0  0  0  0  0  0  0  0  0  0  0  0
  -15.7342   -6.8031   16.2135 N   0  0  1  0  0  0  0  0  0  0  0  0
  1  3  1  1  0  0  0
  1  4  2  0  0  0  0
  1  6  1  0  0  0  0
  1 22  1  0  0  0  0
  2 28  1  0  0  0  0
  2 35  1  1  0  0  0
  2 38  2  0  0  0  0
  2 10  1  0  0  0  0
  5  6  1  0  0  0  0
  7  5  1  1  0  0  0
  7  8  1  0  0  0  0
  7  9  1  0  0  0  0
  9 10  1  6  0  0  0
  9 11  1  0  0  0  0
 11 12  1  6  0  0  0
 11 13  1  0  0  0  0
 13  8  1  6  0  0  0
 13 33  1  0  0  0  0
 14 46  1  0  0  0  0
 14 17  1  0  0  0  0
 14 25  1  6  0  0  0
 15 16  1  0  0  0  0
 15 29  1  0  0  0  0
 16 18  1  6  0  0  0
 16 21  1  0  0  0  0
 17 19  1  6  0  0  0
 17 20  1  0  0  0  0
 20 22  1  1  0  0  0
 20 24  1  0  0  0  0
 23 21  1  6  0  0  0
 23 26  1  0  0  0  0
 23 33  1  0  0  0  0
 24 25  1  6  0  0  0
 24 27  1  0  0  0  0
 26 29  1  1  0  0  0
 26 31  1  0  0  0  0
 27 28  1  0  0  0  0
 29 30  2  0  0  0  0
 31 32  1  0  0  0  0
 33 32  1  1  0  0  0
 34 36  1  0  0  0  0
 34 42  1  0  0  0  0
 36 37  1  1  0  0  0
 36 39  1  0  0  0  0
 40 39  1  6  0  0  0
 40 41  1  0  0  0  0
 40 46  1  0  0  0  0
 41 42  1  6  0  0  0
 41 44  1  0  0  0  0
 42 43  2  0  0  0  0
 44 45  1  0  0  0  0
 46 45  1  1  0  0  0
M  CHG  2   3  -1  35  -1
M  END
>  <CHROM.1>
-78.60276464,-115.43310545,-17.90283806,-8.87488497,18.86556008,-1.84718140
0.46288631,-1.35621685

>  <Name>
ligand

>  <RI>
-1

>  <Rbt.Current_Directory>
/home/itssahil/PROJECTS/Mol_Feturizer/Test_systems_manuscript/rnas/3mum

>  <Rbt.Executable>
rbdock ($Id: //depot/dev/client3/rdock/2013.1/src/exe/rbdock.cxx#4 $)

>  <Rbt.Library>
libRbt.so (2013.1, Build901 2013/11/27)

>  <Rbt.Parameter_File>
/export/apps/rDock/src/rDock_2013.1_src/data/scripts/dock_solv.prm

>  <Rbt.Receptor>
prm/blind_docking_100.prm

>  <SCORE>
42.5613

>  <SCORE.INTER>
38.4929

>  <SCORE.INTER.CONST>
1

>  <SCORE.INTER.POLAR>
0

>  <SCORE.INTER.ROT>
2

>  <SCORE.INTER.SOLV>
28.4424

>  <SCORE.INTER.VDW>
11.2478

>  <SCORE.INTER.norm>
0.836802

>  <SCORE.INTRA>
3.61727

>  <SCORE.INTRA.DIHEDRAL>
-0.0131494

>  <SCORE.INTRA.DIHEDRAL.0>
2.40424

>  <SCORE.INTRA.POLAR>
0

>  <SCORE.INTRA.POLAR.0>
0

>  <SCORE.INTRA.REPUL>
0

>  <SCORE.INTRA.REPUL.0>
0

>  <SCORE.INTRA.SOLV>
8.52902

>  <SCORE.INTRA.SOLV.lig_0>
-134.169

>  <SCORE.INTRA.VDW>
-0.640669

>  <SCORE.INTRA.VDW.0>
-2.18386

>  <SCORE.INTRA.norm>
0.0786362

>  <SCORE.RESTR>
0.451102

>  <SCORE.RESTR.CAVITY>
0.451102

>  <SCORE.RESTR.norm>
0.00980657

>  <SCORE.SYSTEM>
0

>  <SCORE.SYSTEM.CONST>
0

>  <SCORE.SYSTEM.DIHEDRAL>
0

>  <SCORE.SYSTEM.SOLV>
0

>  <SCORE.SYSTEM.norm>
0

>  <SCORE.heavy>
46

>  <SCORE.norm>
0.925245

>  <RMSD>
15.582

$$$$
ligand
 OpenBabel02271912143D
libRbt.so/2013.1/901 2013/11/27
 46 52  0  0  0  0  0  0  0  0999 V2000
  -18.6733  -11.1019   14.9923 P   0  0  1  0  0  0  0  0  0  0  0  0
  -14.9297   -9.6466   19.2985 P   0  0  2  0  0  0  0  0  0  0  0  0
  -20.2758  -10.4168   15.3153 O   0  5  0  0  0  0  0  0  0  0  0  0
  -18.6218  -11.9413   13.4200 O   0  0  0  0  0  0  0  0  0  0  0  0
  -16.1951  -10.1676   14.8984 C   0  0  0  0  0  0  0  0  0  0  0  0
  -17.5931   -9.9055   15.0221 O   0  0  0  0  0  0  0  0  0  0  0  0
  -15.4297   -8.9740   15.4370 C   0  0  1  0  0  0  0  0  0  0  0  0
  -15.8922   -7.7792   14.7915 O   0  0  0  0  0  0  0  0  0  0  0  0
  -15.6456   -8.7435   16.9238 C   0  0  1  0  0  0  0  0  0  0  0  0
  -14.6780   -9.4249   17.7192 O   0  0  0  0  0  0  0  0  0  0  0  0
  -15.5323   -7.2352   17.0590 C   0  0  1  0  0  0  0  0  0  0  0  0
  -14.1693   -6.8636   17.2797 O   0  0  0  0  0  0  0  0  0  0  0  0
  -15.9736   -6.6833   15.7162 C   0  0  2  0  0  0  0  0  0  0  0  0
  -19.3752  -12.2461   19.5393 C   0  0  1  0  0  0  0  0  0  0  0  0
  -19.7904   -3.6618   13.5959 N   0  0  0  0  0  0  0  0  0  0  0  0
  -18.5089   -3.8447   13.1756 C   0  0  1  0  0  0  0  0  0  0  0  0
  -19.6098  -11.7892   18.1274 C   0  0  2  0  0  0  0  0  0  0  0  0
  -18.0991   -3.1858   12.0672 N   0  0  0  0  0  0  0  0  0  0  0  0
  -20.3786  -12.8131   17.4936 O   0  0  0  0  0  0  0  0  0  0  0  0
  -18.2237  -11.6634   17.5269 C   0  0  2  0  0  0  0  0  0  0  0  0
  -17.6262   -4.6594   13.8265 N   0  0  0  0  0  0  0  0  0  0  0  0
  -18.1975  -12.0883   16.1711 O   0  0  0  0  0  0  0  0  0  0  0  0
  -17.9887   -5.3435   14.9410 C   0  0  2  0  0  0  0  0  0  0  0  0
  -17.3499  -12.5690   18.3723 C   0  0  2  0  0  0  0  0  0  0  0  0
  -18.0324  -12.7227   19.6156 O   0  0  0  0  0  0  0  0  0  0  0  0
  -19.3648   -5.1785   15.4407 C   0  0  1  0  0  0  0  0  0  0  0  0
  -15.9625  -11.9882   18.6222 C   0  0  0  0  0  0  0  0  0  0  0  0
  -16.0928  -10.7594   19.3398 O   0  0  0  0  0  0  0  0  0  0  0  0
  -20.2707   -4.2864   14.6953 C   0  0  0  0  0  0  0  0  0  0  0  0
  -21.5490   -4.0954   15.1095 O   0  0  0  0  0  0  0  0  0  0  0  0
  -19.4744   -5.9382   16.5361 N   0  0  0  0  0  0  0  0  0  0  0  0
  -18.2675   -6.5452   16.7320 C   0  0  0  0  0  0  0  0  0  0  0  0
  -17.3758   -6.1925   15.7823 N   0  0  1  0  0  0  0  0  0  0  0  0
  -17.6375   -9.8153   23.8335 N   0  0  0  0  0  0  0  0  0  0  0  0
  -15.4728   -8.1436   20.0901 O   0  5  0  0  0  0  0  0  0  0  0  0
  -17.1511  -10.9170   23.1990 C   0  0  2  0  0  0  0  0  0  0  0  0
  -16.0447  -11.5323   23.6922 N   0  0  0  0  0  0  0  0  0  0  0  0
  -13.5129  -10.2867   20.1536 O   0  0  0  0  0  0  0  0  0  0  0  0
  -17.7390  -11.4243   22.0812 N   0  0  0  0  0  0  0  0  0  0  0  0
  -18.8391  -10.8516   21.5390 C   0  0  2  0  0  0  0  0  0  0  0  0
  -19.4124   -9.6612   22.1807 C   0  0  2  0  0  0  0  0  0  0  0  0
  -18.7334   -9.1604   23.3949 C   0  0  0  0  0  0  0  0  0  0  0  0
  -19.1913   -8.0693   24.0571 O   0  0  0  0  0  0  0  0  0  0  0  0
  -20.4902   -9.3115   21.4510 N   0  0  0  0  0  0  0  0  0  0  0  0
  -20.5948  -10.2046   20.4223 C   0  0  0  0  0  0  0  0  0  0  0  0
  -19.6058  -11.1251   20.4817 N   0  0  1  0  0  0  0  0  0  0  0  0
  1  3  1  1  0  0  0
  1  4  2  0  0  0  0
  1  6  1  0  0  0  0
  1 22  1  0  0  0  0
  2 28  1  0  0  0  0
  2 35  1  1  0  0  0
  2 38  2  0  0  0  0
  2 10  1  0  0  0  0
  5  6  1  0  0  0  0
  7  5  1  6  0  0  0
  7  8  1  0  0  0  0
  7  9  1  0  0  0  0
  9 10  1  1  0  0  0
  9 11  1  0  0  0  0
 11 12  1  6  0  0  0
 11 13  1  0  0  0  0
 13  8  1  6  0  0  0
 13 33  1  0  0  0  0
 14 46  1  0  0  0  0
 14 17  1  0  0  0  0
 14 25  1  6  0  0  0
 15 16  1  0  0  0  0
 15 29  1  0  0  0  0
 16 18  1  1  0  0  0
 16 21  1  0  0  0  0
 17 19  1  6  0  0  0
 17 20  1  0  0  0  0
 20 22  1  6  0  0  0
 20 24  1  0  0  0  0
 23 21  1  1  0  0  0
 23 26  1  0  0  0  0
 23 33  1  0  0  0  0
 24 25  1  1  0  0  0
 24 27  1  0  0  0  0
 26 29  1  6  0  0  0
 26 31  1  0  0  0  0
 27 28  1  0  0  0  0
 29 30  2  0  0  0  0
 31 32  1  0  0  0  0
 33 32  1  6  0  0  0
 34 36  1  0  0  0  0
 34 42  1  0  0  0  0
 36 37  1  6  0  0  0
 36 39  1  0  0  0  0
 40 39  1  1  0  0  0
 40 41  1  0  0  0  0
 40 46  1  0  0  0  0
 41 42  1  1  0  0  0
 41 44  1  0  0  0  0
 42 43  2  0  0  0  0
 44 45  1  0  0  0  0
 46 45  1  6  0  0  0
M  CHG  2   3  -1  35  -1
M  END
>  <CHROM.1>
-82.36810723,-138.31312233,-17.72451892,-9.06309622,17.78793938,-2.67819022
-1.48648273,1.09960689

>  <Name>
ligand

>  <RI>
-1

>  <Rbt.Current_Directory>
/home/itssahil/PROJECTS/Mol_Feturizer/Test_systems_manuscript/rnas/3mum

>  <Rbt.Executable>
rbdock ($Id: //depot/dev/client3/rdock/2013.1/src/exe/rbdock.cxx#4 $)

>  <Rbt.Library>
libRbt.so (2013.1, Build901 2013/11/27)

>  <Rbt.Parameter_File>
/export/apps/rDock/src/rDock_2013.1_src/data/scripts/dock_solv.prm

>  <Rbt.Receptor>
prm/blind_docking_100.prm

>  <SCORE>
58.6329

>  <SCORE.INTER>
58.3359

>  <SCORE.INTER.CONST>
1

>  <SCORE.INTER.POLAR>
0

>  <SCORE.INTER.ROT>
2

>  <SCORE.INTER.SOLV>
34.4377

>  <SCORE.INTER.VDW>
22.478

>  <SCORE.INTER.norm>
1.26817

>  <SCORE.INTRA>
0.0214171

>  <SCORE.INTRA.DIHEDRAL>
0.0153525

>  <SCORE.INTRA.DIHEDRAL.0>
2.40424

>  <SCORE.INTRA.POLAR>
0

>  <SCORE.INTRA.POLAR.0>
0

>  <SCORE.INTRA.REPUL>
0

>  <SCORE.INTRA.REPUL.0>
0

>  <SCORE.INTRA.SOLV>
0.0368952

>  <SCORE.INTRA.SOLV.lig_0>
-134.169

>  <SCORE.INTRA.VDW>
-0.00470672

>  <SCORE.INTRA.VDW.0>
-2.18386

>  <SCORE.INTRA.norm>
0.000465589

>  <SCORE.RESTR>
0.275675

>  <SCORE.RESTR.CAVITY>
0.275675

>  <SCORE.RESTR.norm>
0.00599294

>  <SCORE.SYSTEM>
0

>  <SCORE.SYSTEM.CONST>
0

>  <SCORE.SYSTEM.DIHEDRAL>
0

>  <SCORE.SYSTEM.SOLV>
0

>  <SCORE.SYSTEM.norm>
0

>  <SCORE.heavy>
46

>  <SCORE.norm>
1.27463

>  <RMSD>
15.583

$$$$
ligand
 OpenBabel02271912143D
libRbt.so/2013.1/901 2013/11/27
 46 52  0  0  0  0  0  0  0  0999 V2000
  -19.4664  -11.5374   17.5640 P   0  0  1  0  0  0  0  0  0  0  0  0
  -14.8263   -9.1686   20.3089 P   0  0  2  0  0  0  0  0  0  0  0  0
  -20.9126  -10.5509   17.8417 O   0  5  0  0  0  0  0  0  0  0  0  0
  -19.7996  -12.8962   16.4585 O   0  0  0  0  0  0  0  0  0  0  0  0
  -16.9945  -11.0845   16.7226 C   0  0  0  0  0  0  0  0  0  0  0  0
  -18.3140  -10.5900   16.9527 O   0  0  0  0  0  0  0  0  0  0  0  0
  -16.0464   -9.9047   16.6233 C   0  0  1  0  0  0  0  0  0  0  0  0
  -16.5372   -8.9786   15.6437 O   0  0  0  0  0  0  0  0  0  0  0  0
  -15.9377   -9.1115   17.9154 C   0  0  1  0  0  0  0  0  0  0  0  0
  -14.8841   -9.5866   18.7504 O   0  0  0  0  0  0  0  0  0  0  0  0
  -15.6839   -7.6951   17.4302 C   0  0  1  0  0  0  0  0  0  0  0  0
  -14.2801   -7.4758   17.2700 O   0  0  0  0  0  0  0  0  0  0  0  0
  -16.3448   -7.6196   16.0664 C   0  0  2  0  0  0  0  0  0  0  0  0
  -19.3167  -10.8013   22.2451 C   0  0  1  0  0  0  0  0  0  0  0  0
  -19.8099   -4.2235   13.9093 N   0  0  0  0  0  0  0  0  0  0  0  0
  -18.5863   -4.6060   13.4522 C   0  0  1  0  0  0  0  0  0  0  0  0
  -19.7972  -10.8693   20.8232 C   0  0  2  0  0  0  0  0  0  0  0  0
  -18.1431   -4.0745   12.2896 N   0  0  0  0  0  0  0  0  0  0  0  0
  -20.7548  -11.9281   20.7702 O   0  0  0  0  0  0  0  0  0  0  0  0
  -18.5562  -11.1824   20.0109 C   0  0  2  0  0  0  0  0  0  0  0  0
  -17.7932   -5.4969   14.1185 N   0  0  0  0  0  0  0  0  0  0  0  0
  -18.8384  -12.0772   18.9436 O   0  0  0  0  0  0  0  0  0  0  0  0
  -18.1929   -6.0596   15.2869 C   0  0  2  0  0  0  0  0  0  0  0  0
  -17.6012  -11.8307   20.9938 C   0  0  2  0  0  0  0  0  0  0  0  0
  -18.0269  -11.4103   22.2889 O   0  0  0  0  0  0  0  0  0  0  0  0
  -19.5088   -5.6771   15.8279 C   0  0  1  0  0  0  0  0  0  0  0  0
  -16.1516  -11.4123   20.7743 C   0  0  0  0  0  0  0  0  0  0  0  0
  -16.0388  -10.0006   20.9650 O   0  0  0  0  0  0  0  0  0  0  0  0
  -20.3188   -4.7119   15.0635 C   0  0  0  0  0  0  0  0  0  0  0  0
  -21.5383   -4.3222   15.5139 O   0  0  0  0  0  0  0  0  0  0  0  0
  -19.6693   -6.3507   16.9723 N   0  0  0  0  0  0  0  0  0  0  0  0
  -18.5484   -7.1071   17.1593 C   0  0  0  0  0  0  0  0  0  0  0  0
  -17.6625   -6.9361   16.1556 N   0  0  1  0  0  0  0  0  0  0  0  0
  -17.1667   -7.4550   25.6433 N   0  0  0  0  0  0  0  0  0  0  0  0
  -15.0804   -7.4166   20.5245 O   0  5  0  0  0  0  0  0  0  0  0  0
  -16.9831   -8.7969   25.5075 C   0  0  2  0  0  0  0  0  0  0  0  0
  -16.1211   -9.4363   26.3406 N   0  0  0  0  0  0  0  0  0  0  0  0
  -13.3189   -9.6507   21.1111 O   0  0  0  0  0  0  0  0  0  0  0  0
  -17.6370   -9.5223   24.5596 N   0  0  0  0  0  0  0  0  0  0  0  0
  -18.5027   -8.9409   23.6966 C   0  0  2  0  0  0  0  0  0  0  0  0
  -18.7448   -7.4955   23.7957 C   0  0  2  0  0  0  0  0  0  0  0  0
  -18.0100   -6.7624   24.8487 C   0  0  0  0  0  0  0  0  0  0  0  0
  -18.1706   -5.4267   25.0181 O   0  0  0  0  0  0  0  0  0  0  0  0
  -19.6434   -7.1888   22.8392 N   0  0  0  0  0  0  0  0  0  0  0  0
  -19.9480   -8.3454   22.1785 C   0  0  0  0  0  0  0  0  0  0  0  0
  -19.2644   -9.3905   22.6976 N   0  0  1  0  0  0  0  0  0  0  0  0
  1  3  1  1  0  0  0
  1  4  2  0  0  0  0
  1  6  1  0  0  0  0
  1 22  1  0  0  0  0
  2 28  1  0  0  0  0
  2 35  1  1  0  0  0
  2 38  2  0  0  0  0
  2 10  1  0  0  0  0
  5  6  1  0  0  0  0
  7  5  1  1  0  0  0
  7  8  1  0  0  0  0
  7  9  1  0  0  0  0
  9 10  1  1  0  0  0
  9 11  1  0  0  0  0
 11 12  1  6  0  0  0
 11 13  1  0  0  0  0
 13  8  1  1  0  0  0
 13 33  1  0  0  0  0
 14 46  1  0  0  0  0
 14 17  1  0  0  0  0
 14 25  1  6  0  0  0
 15 16  1  0  0  0  0
 15 29  1  0  0  0  0
 16 18  1  1  0  0  0
 16 21  1  0  0  0  0
 17 19  1  1  0  0  0
 17 20  1  0  0  0  0
 20 22  1  6  0  0  0
 20 24  1  0  0  0  0
 23 21  1  1  0  0  0
 23 26  1  0  0  0  0
 23 33  1  0  0  0  0
 24 25  1  1  0  0  0
 24 27  1  0  0  0  0
 26 29  1  6  0  0  0
 26 31  1  0  0  0  0
 27 28  1  0  0  0  0
 29 30  2  0  0  0  0
 31 32  1  0  0  0  0
 33 32  1  6  0  0  0
 34 36  1  0  0  0  0
 34 42  1  0  0  0  0
 36 37  1  6  0  0  0
 36 39  1  0  0  0  0
 40 39  1  1  0  0  0
 40 41  1  0  0  0  0
 40 46  1  0  0  0  0
 41 42  1  1  0  0  0
 41 44  1  0  0  0  0
 42 43  2  0  0  0  0
 44 45  1  0  0  0  0
 46 45  1  6  0  0  0
M  CHG  2   3  -1  35  -1
M  END
>  <CHROM.1>
-103.19151574,-157.03751728,-17.83281138,-8.70793739,19.26907123,3.06359020
-1.46020123,0.24556548

>  <Name>
ligand

>  <RI>
0

>  <Rbt.Current_Directory>
/home/itssahil/PROJECTS/Mol_Feturizer/Test_systems_manuscript/rnas/3mum

>  <Rbt.Executable>
rbdock ($Id: //depot/dev/client3/rdock/2013.1/src/exe/rbdock.cxx#4 $)

>  <Rbt.Library>
libRbt.so (2013.1, Build901 2013/11/27)

>  <Rbt.Parameter_File>
/export/apps/rDock/src/rDock_2013.1_src/data/scripts/dock_solv.prm

>  <Rbt.Receptor>
prm/blind_docking_60.prm

>  <SCORE>
16.8546

>  <SCORE.INTER>
16.3099

>  <SCORE.INTER.CONST>
1

>  <SCORE.INTER.POLAR>
0

>  <SCORE.INTER.ROT>
2

>  <SCORE.INTER.SOLV>
38.538

>  <SCORE.INTER.VDW>
-6.9061

>  <SCORE.INTER.norm>
0.354562

>  <SCORE.INTRA>
0.424867

>  <SCORE.INTRA.DIHEDRAL>
0.0184663

>  <SCORE.INTRA.DIHEDRAL.0>
2.40424

>  <SCORE.INTRA.POLAR>
0

>  <SCORE.INTRA.POLAR.0>
0

>  <SCORE.INTRA.REPUL>
0

>  <SCORE.INTRA.REPUL.0>
0

>  <SCORE.INTRA.SOLV>
0.0327237

>  <SCORE.INTRA.SOLV.lig_0>
-134.169

>  <SCORE.INTRA.VDW>
0.399272

>  <SCORE.INTRA.VDW.0>
-2.18386

>  <SCORE.INTRA.norm>
0.00923623

>  <SCORE.RESTR>
0.119915

>  <SCORE.RESTR.CAVITY>
0.119915

>  <SCORE.RESTR.norm>
0.00260684

>  <SCORE.SYSTEM>
0

>  <SCORE.SYSTEM.CONST>
0

>  <SCORE.SYSTEM.DIHEDRAL>
0

>  <SCORE.SYSTEM.SOLV>
0

>  <SCORE.SYSTEM.norm>
0

>  <SCORE.heavy>
46

>  <SCORE.norm>
0.366405

>  <RMSD>
15.583

$$$$
ligand
 OpenBabel02271912143D
libRbt.so/2013.1/901 2013/11/27
 46 52  0  0  0  0  0  0  0  0999 V2000
  -19.4574  -11.5118   17.5300 P   0  0  1  0  0  0  0  0  0  0  0  0
  -14.8274   -9.1494   20.2974 P   0  0  2  0  0  0  0  0  0  0  0  0
  -20.9059  -10.5293   17.8099 O   0  5  0  0  0  0  0  0  0  0  0  0
  -19.7858  -12.8652   16.4165 O   0  0  0  0  0  0  0  0  0  0  0  0
  -16.9845  -11.0499   16.6963 C   0  0  0  0  0  0  0  0  0  0  0  0
  -18.3054  -10.5591   16.9262 O   0  0  0  0  0  0  0  0  0  0  0  0
  -16.0383   -9.8679   16.6054 C   0  0  1  0  0  0  0  0  0  0  0  0
  -16.5287   -8.9375   15.6297 O   0  0  0  0  0  0  0  0  0  0  0  0
  -15.9338   -9.0814   17.9019 C   0  0  1  0  0  0  0  0  0  0  0  0
  -14.8811   -9.5591   18.7366 O   0  0  0  0  0  0  0  0  0  0  0  0
  -15.6815   -7.6620   17.4248 C   0  0  1  0  0  0  0  0  0  0  0  0
  -14.2777   -7.4393   17.2689 O   0  0  0  0  0  0  0  0  0  0  0  0
  -16.3397   -7.5804   16.0601 C   0  0  2  0  0  0  0  0  0  0  0  0
  -19.3189  -10.8005   22.2152 C   0  0  1  0  0  0  0  0  0  0  0  0
  -19.9158   -4.3757   13.7943 N   0  0  0  0  0  0  0  0  0  0  0  0
  -18.7078   -4.7843   13.3189 C   0  0  1  0  0  0  0  0  0  0  0  0
  -19.7963  -10.8617   20.7920 C   0  0  2  0  0  0  0  0  0  0  0  0
  -18.3149   -4.3389   12.1032 N   0  0  0  0  0  0  0  0  0  0  0  0
  -20.7519  -11.9219   20.7313 O   0  0  0  0  0  0  0  0  0  0  0  0
  -18.5531  -11.1682   19.9807 C   0  0  2  0  0  0  0  0  0  0  0  0
  -17.8815   -5.6181   14.0180 N   0  0  0  0  0  0  0  0  0  0  0  0
  -18.8314  -12.0578   18.9080 O   0  0  0  0  0  0  0  0  0  0  0  0
  -18.2303   -6.0939   15.2401 C   0  0  2  0  0  0  0  0  0  0  0  0
  -17.5989  -11.8200   20.9621 C   0  0  2  0  0  0  0  0  0  0  0  0
  -18.0282  -11.4074   22.2586 O   0  0  0  0  0  0  0  0  0  0  0  0
  -19.5273   -5.6796   15.8027 C   0  0  1  0  0  0  0  0  0  0  0  0
  -16.1497  -11.3979   20.7480 C   0  0  0  0  0  0  0  0  0  0  0  0
  -16.0398   -9.9870   20.9465 O   0  0  0  0  0  0  0  0  0  0  0  0
  -20.3749   -4.7791   15.0010 C   0  0  0  0  0  0  0  0  0  0  0  0
  -21.5793   -4.3637   15.4689 O   0  0  0  0  0  0  0  0  0  0  0  0
  -19.6372   -6.2663   16.9996 N   0  0  0  0  0  0  0  0  0  0  0  0
  -18.5032   -7.0001   17.1981 C   0  0  0  0  0  0  0  0  0  0  0  0
  -17.6587   -6.8998   16.1500 N   0  0  1  0  0  0  0  0  0  0  0  0
  -17.2784   -7.4913   25.7158 N   0  0  0  0  0  0  0  0  0  0  0  0
  -15.0851   -7.3990   20.5219 O   0  5  0  0  0  0  0  0  0  0  0  0
  -17.1042   -8.8347   25.5823 C   0  0  2  0  0  0  0  0  0  0  0  0
  -16.2857   -9.4869   26.4487 N   0  0  0  0  0  0  0  0  0  0  0  0
  -13.3209   -9.6330   21.1003 O   0  0  0  0  0  0  0  0  0  0  0  0
  -17.7252   -9.5491   24.6044 N   0  0  0  0  0  0  0  0  0  0  0  0
  -18.5467   -8.9547   23.7077 C   0  0  2  0  0  0  0  0  0  0  0  0
  -18.7766   -7.5070   23.8025 C   0  0  2  0  0  0  0  0  0  0  0  0
  -18.0792   -6.7862   24.8888 C   0  0  0  0  0  0  0  0  0  0  0  0
  -18.2319   -5.4494   25.0568 O   0  0  0  0  0  0  0  0  0  0  0  0
  -19.6301   -7.1867   22.8099 N   0  0  0  0  0  0  0  0  0  0  0  0
  -19.9193   -8.3373   22.1320 C   0  0  0  0  0  0  0  0  0  0  0  0
  -19.2702   -9.3920   22.6754 N   0  0  1  0  0  0  0  0  0  0  0  0
  1  3  1  1  0  0  0
  1  4  2  0  0  0  0
  1  6  1  0  0  0  0
  1 22  1  0  0  0  0
  2 28  1  0  0  0  0
  2 35  1  1  0  0  0
  2 38  2  0  0  0  0
  2 10  1  0  0  0  0
  5  6  1  0  0  0  0
  7  5  1  1  0  0  0
  7  8  1  0  0  0  0
  7  9  1  0  0  0  0
  9 10  1  1  0  0  0
  9 11  1  0  0  0  0
 11 12  1  6  0  0  0
 11 13  1  0  0  0  0
 13  8  1  1  0  0  0
 13 33  1  0  0  0  0
 14 46  1  0  0  0  0
 14 17  1  0  0  0  0
 14 25  1  6  0  0  0
 15 16  1  0  0  0  0
 15 29  1  0  0  0  0
 16 18  1  1  0  0  0
 16 21  1  0  0  0  0
 17 19  1  1  0  0  0
 17 20  1  0  0  0  0
 20 22  1  6  0  0  0
 20 24  1  0  0  0  0
 23 21  1  1  0  0  0
 23 26  1  0  0  0  0
 23 33  1  0  0  0  0
 24 25  1  1  0  0  0
 24 27  1  0  0  0  0
 26 29  1  6  0  0  0
 26 31  1  0  0  0  0
 27 28  1  0  0  0  0
 29 30  2  0  0  0  0
 31 32  1  0  0  0  0
 33 32  1  6  0  0  0
 34 36  1  0  0  0  0
 34 42  1  0  0  0  0
 36 37  1  6  0  0  0
 36 39  1  0  0  0  0
 40 39  1  1  0  0  0
 40 41  1  0  0  0  0
 40 46  1  0  0  0  0
 41 42  1  1  0  0  0
 41 44  1  0  0  0  0
 42 43  2  0  0  0  0
 44 45  1  0  0  0  0
 46 45  1  6  0  0  0
M  CHG  2   3  -1  35  -1
M  END
>  <CHROM.1>
-98.00401251,-159.47602006,-17.85484204,-8.71225563,19.24951404,-2.83719978
-1.45539562,0.61495591

>  <Name>
ligand

>  <RI>
-1

>  <Rbt.Current_Directory>
/home/itssahil/PROJECTS/Mol_Feturizer/Test_systems_manuscript/rnas/3mum

>  <Rbt.Executable>
rbdock ($Id: //depot/dev/client3/rdock/2013.1/src/exe/rbdock.cxx#4 $)

>  <Rbt.Library>
libRbt.so (2013.1, Build901 2013/11/27)

>  <Rbt.Parameter_File>
/export/apps/rDock/src/rDock_2013.1_src/data/scripts/dock_solv.prm

>  <Rbt.Receptor>
prm/blind_docking_100.prm

>  <SCORE>
18.5224

>  <SCORE.INTER>
17.1651

>  <SCORE.INTER.CONST>
1

>  <SCORE.INTER.POLAR>
0

>  <SCORE.INTER.ROT>
2

>  <SCORE.INTER.SOLV>
38.9091

>  <SCORE.INTER.VDW>
-6.45966

>  <SCORE.INTER.norm>
0.373154

>  <SCORE.INTRA>
0.548116

>  <SCORE.INTRA.DIHEDRAL>
0.016401

>  <SCORE.INTRA.DIHEDRAL.0>
2.40424

>  <SCORE.INTRA.POLAR>
0

>  <SCORE.INTRA.POLAR.0>
0

>  <SCORE.INTRA.REPUL>
0

>  <SCORE.INTRA.REPUL.0>
0

>  <SCORE.INTRA.SOLV>
0.0345331

>  <SCORE.INTRA.SOLV.lig_0>
-134.169

>  <SCORE.INTRA.VDW>
0.522649

>  <SCORE.INTRA.VDW.0>
-2.18386

>  <SCORE.INTRA.norm>
0.0119156

>  <SCORE.RESTR>
0.809209

>  <SCORE.RESTR.CAVITY>
0.809209

>  <SCORE.RESTR.norm>
0.0175915

>  <SCORE.SYSTEM>
0

>  <SCORE.SYSTEM.CONST>
0

>  <SCORE.SYSTEM.DIHEDRAL>
0

>  <SCORE.SYSTEM.SOLV>
0

>  <SCORE.SYSTEM.norm>
0

>  <SCORE.heavy>
46

>  <SCORE.norm>
0.402661

>  <RMSD>
15.592

$$$$
ligand
 OpenBabel02271912143D
libRbt.so/2013.1/901 2013/11/27
 46 52  0  0  0  0  0  0  0  0999 V2000
  -19.4713  -11.5412   17.5598 P   0  0  1  0  0  0  0  0  0  0  0  0
  -14.8335   -9.1645   20.3018 P   0  0  2  0  0  0  0  0  0  0  0  0
  -20.9188  -10.5567   17.8379 O   0  5  0  0  0  0  0  0  0  0  0  0
  -19.8029  -12.9007   16.4549 O   0  0  0  0  0  0  0  0  0  0  0  0
  -17.0005  -11.0847   16.7171 C   0  0  0  0  0  0  0  0  0  0  0  0
  -18.3206  -10.5922   16.9476 O   0  0  0  0  0  0  0  0  0  0  0  0
  -16.0542   -9.9035   16.6170 C   0  0  1  0  0  0  0  0  0  0  0  0
  -16.5468   -8.9785   15.6374 O   0  0  0  0  0  0  0  0  0  0  0  0
  -15.9461   -9.1098   17.9088 C   0  0  1  0  0  0  0  0  0  0  0  0
  -14.8914   -9.5830   18.7435 O   0  0  0  0  0  0  0  0  0  0  0  0
  -15.6946   -7.6931   17.4231 C   0  0  1  0  0  0  0  0  0  0  0  0
  -14.2912   -7.4717   17.2622 O   0  0  0  0  0  0  0  0  0  0  0  0
  -16.3563   -7.6190   16.0596 C   0  0  2  0  0  0  0  0  0  0  0  0
  -19.3204  -10.8035   22.2406 C   0  0  1  0  0  0  0  0  0  0  0  0
  -19.8001   -4.1801   13.9366 N   0  0  0  0  0  0  0  0  0  0  0  0
  -18.5719   -4.5533   13.4842 C   0  0  1  0  0  0  0  0  0  0  0  0
  -19.8015  -10.8726   20.8190 C   0  0  2  0  0  0  0  0  0  0  0  0
  -18.1169   -3.9982   12.3372 N   0  0  0  0  0  0  0  0  0  0  0  0
  -20.7576  -11.9329   20.7668 O   0  0  0  0  0  0  0  0  0  0  0  0
  -18.5605  -11.1840   20.0061 C   0  0  2  0  0  0  0  0  0  0  0  0
  -17.7853   -5.4574   14.1404 N   0  0  0  0  0  0  0  0  0  0  0  0
  -18.8418  -12.0795   18.9392 O   0  0  0  0  0  0  0  0  0  0  0  0
  -18.1968   -6.0436   15.2931 C   0  0  2  0  0  0  0  0  0  0  0  0
  -17.6040  -11.8306   20.9888 C   0  0  2  0  0  0  0  0  0  0  0  0
  -18.0297  -11.4105   22.2840 O   0  0  0  0  0  0  0  0  0  0  0  0
  -19.5182   -5.6722   15.8283 C   0  0  1  0  0  0  0  0  0  0  0  0
  -16.1551  -11.4101   20.7685 C   0  0  0  0  0  0  0  0  0  0  0  0
  -16.0444   -9.9981   20.9587 O   0  0  0  0  0  0  0  0  0  0  0  0
  -20.3206   -4.6918   15.0754 C   0  0  0  0  0  0  0  0  0  0  0  0
  -21.5447   -4.3112   15.5211 O   0  0  0  0  0  0  0  0  0  0  0  0
  -19.6902   -6.3688   16.9571 N   0  0  0  0  0  0  0  0  0  0  0  0
  -18.5710   -7.1288   17.1402 C   0  0  0  0  0  0  0  0  0  0  0  0
  -17.6750   -6.9375   16.1491 N   0  0  1  0  0  0  0  0  0  0  0  0
  -17.2806   -7.4775   25.7256 N   0  0  0  0  0  0  0  0  0  0  0  0
  -15.0901   -7.4128   20.5170 O   0  5  0  0  0  0  0  0  0  0  0  0
  -17.1085   -8.8219   25.6002 C   0  0  2  0  0  0  0  0  0  0  0  0
  -16.2927   -9.4705   26.4720 N   0  0  0  0  0  0  0  0  0  0  0  0
  -13.3250   -9.6440   21.1034 O   0  0  0  0  0  0  0  0  0  0  0  0
  -17.7289   -9.5410   24.6254 N   0  0  0  0  0  0  0  0  0  0  0  0
  -18.5478   -8.9504   23.7238 C   0  0  2  0  0  0  0  0  0  0  0  0
  -18.7753   -7.5018   23.8097 C   0  0  2  0  0  0  0  0  0  0  0  0
  -18.0787   -6.7758   24.8931 C   0  0  0  0  0  0  0  0  0  0  0  0
  -18.2294   -5.4378   25.0530 O   0  0  0  0  0  0  0  0  0  0  0  0
  -19.6265   -7.1858   22.8137 N   0  0  0  0  0  0  0  0  0  0  0  0
  -19.9164   -8.3398   22.1419 C   0  0  0  0  0  0  0  0  0  0  0  0
  -19.2701   -9.3924   22.6926 N   0  0  1  0  0  0  0  0  0  0  0  0
  1  3  1  1  0  0  0
  1  4  2  0  0  0  0
  1  6  1  0  0  0  0
  1 22  1  0  0  0  0
  2 28  1  0  0  0  0
  2 35  1  1  0  0  0
  2 38  2  0  0  0  0
  2 10  1  0  0  0  0
  5  6  1  0  0  0  0
  7  5  1  1  0  0  0
  7  8  1  0  0  0  0
  7  9  1  0  0  0  0
  9 10  1  1  0  0  0
  9 11  1  0  0  0  0
 11 12  1  6  0  0  0
 11 13  1  0  0  0  0
 13  8  1  1  0  0  0
 13 33  1  0  0  0  0
 14 46  1  0  0  0  0
 14 17  1  0  0  0  0
 14 25  1  6  0  0  0
 15 16  1  0  0  0  0
 15 29  1  0  0  0  0
 16 18  1  1  0  0  0
 16 21  1  0  0  0  0
 17 19  1  1  0  0  0
 17 20  1  0  0  0  0
 20 22  1  6  0  0  0
 20 24  1  0  0  0  0
 23 21  1  1  0  0  0
 23 26  1  0  0  0  0
 23 33  1  0  0  0  0
 24 25  1  1  0  0  0
 24 27  1  0  0  0  0
 26 29  1  6  0  0  0
 26 31  1  0  0  0  0
 27 28  1  0  0  0  0
 29 30  2  0  0  0  0
 31 32  1  0  0  0  0
 33 32  1  6  0  0  0
 34 36  1  0  0  0  0
 34 42  1  0  0  0  0
 36 37  1  6  0  0  0
 36 39  1  0  0  0  0
 40 39  1  1  0  0  0
 40 41  1  0  0  0  0
 40 46  1  0  0  0  0
 41 42  1  1  0  0  0
 41 44  1  0  0  0  0
 42 43  2  0  0  0  0
 44 45  1  0  0  0  0
 46 45  1  6  0  0  0
M  CHG  2   3  -1  35  -1
M  END
>  <CHROM.1>
-104.51935687,-159.74413567,-17.84983726,-8.70612744,19.27661223,-3.01114318
-1.46850658,0.45645185

>  <Name>
ligand

>  <RI>
-1

>  <Rbt.Current_Directory>
/home/itssahil/PROJECTS/Mol_Feturizer/Test_systems_manuscript/rnas/3mum

>  <Rbt.Executable>
rbdock ($Id: //depot/dev/client3/rdock/2013.1/src/exe/rbdock.cxx#4 $)

>  <Rbt.Library>
libRbt.so (2013.1, Build901 2013/11/27)

>  <Rbt.Parameter_File>
/export/apps/rDock/src/rDock_2013.1_src/data/scripts/dock_solv.prm

>  <Rbt.Receptor>
prm/blind_docking_100.prm

>  <SCORE>
17.9139

>  <SCORE.INTER>
16.6608

>  <SCORE.INTER.CONST>
1

>  <SCORE.INTER.POLAR>
0

>  <SCORE.INTER.ROT>
2

>  <SCORE.INTER.SOLV>
38.9866

>  <SCORE.INTER.VDW>
-6.82165

>  <SCORE.INTER.norm>
0.362192

>  <SCORE.INTRA>
0.474522

>  <SCORE.INTRA.DIHEDRAL>
0.0168921

>  <SCORE.INTRA.DIHEDRAL.0>
2.40424

>  <SCORE.INTRA.POLAR>
0

>  <SCORE.INTRA.POLAR.0>
0

>  <SCORE.INTRA.REPUL>
0

>  <SCORE.INTRA.REPUL.0>
0

>  <SCORE.INTRA.SOLV>
0.0321587

>  <SCORE.INTRA.SOLV.lig_0>
-134.169

>  <SCORE.INTRA.VDW>
0.449997

>  <SCORE.INTRA.VDW.0>
-2.18386

>  <SCORE.INTRA.norm>
0.0103157

>  <SCORE.RESTR>
0.778573

>  <SCORE.RESTR.CAVITY>
0.778573

>  <SCORE.RESTR.norm>
0.0169255

>  <SCORE.SYSTEM>
0

>  <SCORE.SYSTEM.CONST>
0

>  <SCORE.SYSTEM.DIHEDRAL>
0

>  <SCORE.SYSTEM.SOLV>
0

>  <SCORE.SYSTEM.norm>
0

>  <SCORE.heavy>
46

>  <SCORE.norm>
0.389433

>  <RMSD>
15.597

$$$$
ligand
 OpenBabel02271912143D
libRbt.so/2013.1/901 2013/11/27
 46 52  0  0  0  0  0  0  0  0999 V2000
  -15.7015   -7.9549   16.3250 P   0  0  1  0  0  0  0  0  0  0  0  0
  -21.4118   -8.5790   15.0290 P   0  0  2  0  0  0  0  0  0  0  0  0
  -14.7343   -7.9342   14.8398 O   0  5  0  0  0  0  0  0  0  0  0  0
  -14.6938   -7.6793   17.7699 O   0  0  0  0  0  0  0  0  0  0  0  0
  -17.8370   -6.6627   17.2157 C   0  0  0  0  0  0  0  0  0  0  0  0
  -16.8355   -6.8147   16.2096 O   0  0  0  0  0  0  0  0  0  0  0  0
  -19.0002   -5.8874   16.6270 C   0  0  1  0  0  0  0  0  0  0  0  0
  -18.5169   -4.6667   16.0490 O   0  0  0  0  0  0  0  0  0  0  0  0
  -19.7018   -6.6234   15.4972 C   0  0  1  0  0  0  0  0  0  0  0  0
  -20.7814   -7.4270   15.9683 O   0  0  0  0  0  0  0  0  0  0  0  0
  -20.1813   -5.4978   14.5977 C   0  0  1  0  0  0  0  0  0  0  0  0
  -21.4778   -5.0585   15.0107 O   0  0  0  0  0  0  0  0  0  0  0  0
  -19.1935   -4.3672   14.8180 C   0  0  2  0  0  0  0  0  0  0  0  0
  -17.4297  -11.6632   13.9295 C   0  0  1  0  0  0  0  0  0  0  0  0
  -18.1402   -5.1672    9.6757 N   0  0  0  0  0  0  0  0  0  0  0  0
  -19.3010   -5.3745   10.3555 C   0  0  1  0  0  0  0  0  0  0  0  0
  -16.5501  -10.5243   14.3613 C   0  0  2  0  0  0  0  0  0  0  0  0
  -20.3663   -5.8520    9.6716 N   0  0  0  0  0  0  0  0  0  0  0  0
  -15.3664  -11.1113   14.9047 O   0  0  0  0  0  0  0  0  0  0  0  0
  -17.3572   -9.7908   15.4141 C   0  0  2  0  0  0  0  0  0  0  0  0
  -19.4299   -5.1238   11.6924 N   0  0  0  0  0  0  0  0  0  0  0  0
  -16.5356   -9.3227   16.4748 O   0  0  0  0  0  0  0  0  0  0  0  0
  -18.3922   -4.6425   12.4225 C   0  0  2  0  0  0  0  0  0  0  0  0
  -18.3427  -10.8185   15.9348 C   0  0  2  0  0  0  0  0  0  0  0  0
  -18.4536  -11.8078   14.9129 O   0  0  0  0  0  0  0  0  0  0  0  0
  -17.1112   -4.4033   11.7353 C   0  0  1  0  0  0  0  0  0  0  0  0
  -19.7184  -10.2273   16.2217 C   0  0  0  0  0  0  0  0  0  0  0  0
  -20.2680   -9.7122   15.0074 O   0  0  0  0  0  0  0  0  0  0  0  0
  -17.0339   -4.6923   10.2922 C   0  0  0  0  0  0  0  0  0  0  0  0
  -15.8794   -4.4921    9.6073 O   0  0  0  0  0  0  0  0  0  0  0  0
  -16.2565   -3.9428   12.6554 N   0  0  0  0  0  0  0  0  0  0  0  0
  -16.9278   -3.8892   13.8429 C   0  0  0  0  0  0  0  0  0  0  0  0
  -18.2042   -4.3072   13.7095 N   0  0  1  0  0  0  0  0  0  0  0  0
  -21.4602  -12.5380   10.7110 N   0  0  0  0  0  0  0  0  0  0  0  0
  -21.7274   -7.9765   13.3803 O   0  5  0  0  0  0  0  0  0  0  0  0
  -21.2344  -13.0023   11.9705 C   0  0  2  0  0  0  0  0  0  0  0  0
  -22.1526  -13.8180   12.5513 N   0  0  0  0  0  0  0  0  0  0  0  0
  -22.8945   -9.2937   15.6914 O   0  0  0  0  0  0  0  0  0  0  0  0
  -20.1143  -12.6741   12.6705 N   0  0  0  0  0  0  0  0  0  0  0  0
  -19.1671  -11.8604   12.1481 C   0  0  2  0  0  0  0  0  0  0  0  0
  -19.3532  -11.3298   10.7910 C   0  0  2  0  0  0  0  0  0  0  0  0
  -20.5865  -11.7262   10.0784 C   0  0  0  0  0  0  0  0  0  0  0  0
  -20.8437  -11.2884    8.8212 O   0  0  0  0  0  0  0  0  0  0  0  0
  -18.2722  -10.5710   10.5225 N   0  0  0  0  0  0  0  0  0  0  0  0
  -17.4619  -10.6099   11.6221 C   0  0  0  0  0  0  0  0  0  0  0  0
  -18.0014  -11.3849   12.5901 N   0  0  1  0  0  0  0  0  0  0  0  0
  1  3  1  6  0  0  0
  1  4  2  0  0  0  0
  1  6  1  0  0  0  0
  1 22  1  0  0  0  0
  2 28  1  0  0  0  0
  2 35  1  6  0  0  0
  2 38  2  0  0  0  0
  2 10  1  0  0  0  0
  5  6  1  0  0  0  0
  7  5  1  6  0  0  0
  7  8  1  0  0  0  0
  7  9  1  0  0  0  0
  9 10  1  1  0  0  0
  9 11  1  0  0  0  0
 11 12  1  1  0  0  0
 11 13  1  0  0  0  0
 13  8  1  1  0  0  0
 13 33  1  0  0  0  0
 14 46  1  0  0  0  0
 14 17  1  0  0  0  0
 14 25  1  1  0  0  0
 15 16  1  0  0  0  0
 15 29  1  0  0  0  0
 16 18  1  1  0  0  0
 16 21  1  0  0  0  0
 17 19  1  1  0  0  0
 17 20  1  0  0  0  0
 20 22  1  1  0  0  0
 20 24  1  0  0  0  0
 23 21  1  1  0  0  0
 23 26  1  0  0  0  0
 23 33  1  0  0  0  0
 24 25  1  6  0  0  0
 24 27  1  0  0  0  0
 26 29  1  6  0  0  0
 26 31  1  0  0  0  0
 27 28  1  0  0  0  0
 29 30  2  0  0  0  0
 31 32  1  0  0  0  0
 33 32  1  6  0  0  0
 34 36  1  0  0  0  0
 34 42  1  0  0  0  0
 36 37  1  1  0  0  0
 36 39  1  0  0  0  0
 40 39  1  6  0  0  0
 40 41  1  0  0  0  0
 40 46  1  0  0  0  0
 41 42  1  6  0  0  0
 41 44  1  0  0  0  0
 42 43  2  0  0  0  0
 44 45  1  0  0  0  0
 46 45  1  1  0  0  0
M  CHG  2   3  -1  35  -1
M  END
>  <CHROM.1>
147.75691178,-151.95121865,-18.69272111,-8.26443389,13.72137166,-0.69440062
1.09495073,2.57249404

>  <Name>
ligand

>  <RI>
0

>  <Rbt.Current_Directory>
/home/itssahil/PROJECTS/Mol_Feturizer/Test_systems_manuscript/rnas/3mum

>  <Rbt.Executable>
rbdock ($Id: //depot/dev/client3/rdock/2013.1/src/exe/rbdock.cxx#4 $)

>  <Rbt.Library>
libRbt.so (2013.1, Build901 2013/11/27)

>  <Rbt.Parameter_File>
/export/apps/rDock/src/rDock_2013.1_src/data/scripts/dock_solv.prm

>  <Rbt.Receptor>
prm/blind_docking_60.prm

>  <SCORE>
87.2948

>  <SCORE.INTER>
85.384

>  <SCORE.INTER.CONST>
1

>  <SCORE.INTER.POLAR>
0

>  <SCORE.INTER.ROT>
2

>  <SCORE.INTER.SOLV>
44.73

>  <SCORE.INTER.VDW>
37.0794

>  <SCORE.INTER.norm>
1.85617

>  <SCORE.INTRA>
0.399992

>  <SCORE.INTRA.DIHEDRAL>
0.0195273

>  <SCORE.INTRA.DIHEDRAL.0>
2.40424

>  <SCORE.INTRA.POLAR>
0

>  <SCORE.INTRA.POLAR.0>
0

>  <SCORE.INTRA.REPUL>
0

>  <SCORE.INTRA.REPUL.0>
0

>  <SCORE.INTRA.SOLV>
0.0950126

>  <SCORE.INTRA.SOLV.lig_0>
-134.169

>  <SCORE.INTRA.VDW>
0.342722

>  <SCORE.INTRA.VDW.0>
-2.18386

>  <SCORE.INTRA.norm>
0.00869547

>  <SCORE.RESTR>
1.51078

>  <SCORE.RESTR.CAVITY>
1.51078

>  <SCORE.RESTR.norm>
0.0328431

>  <SCORE.SYSTEM>
0

>  <SCORE.SYSTEM.CONST>
0

>  <SCORE.SYSTEM.DIHEDRAL>
0

>  <SCORE.SYSTEM.SOLV>
0

>  <SCORE.SYSTEM.norm>
0

>  <SCORE.heavy>
46

>  <SCORE.norm>
1.89771

>  <RMSD>
15.601

$$$$
ligand
 OpenBabel02271912143D
libRbt.so/2013.1/901 2013/11/27
 46 52  0  0  0  0  0  0  0  0999 V2000
  -16.7177   -5.5232   14.5063 P   0  0  1  0  0  0  0  0  0  0  0  0
  -19.7558   -8.9292   18.2272 P   0  0  2  0  0  0  0  0  0  0  0  0
  -16.1300   -6.4830   13.1370 O   0  5  0  0  0  0  0  0  0  0  0  0
  -16.3160   -3.7961   14.3193 O   0  0  0  0  0  0  0  0  0  0  0  0
  -19.0574   -5.1452   15.6921 C   0  0  0  0  0  0  0  0  0  0  0  0
  -18.3146   -5.7163   14.6149 O   0  0  0  0  0  0  0  0  0  0  0  0
  -20.3841   -5.8720   15.8038 C   0  0  1  0  0  0  0  0  0  0  0  0
  -21.0419   -5.8639   14.5290 O   0  0  0  0  0  0  0  0  0  0  0  0
  -20.2358   -7.3382   16.1764 C   0  0  1  0  0  0  0  0  0  0  0  0
  -20.2742   -7.5404   17.5873 O   0  0  0  0  0  0  0  0  0  0  0  0
  -21.4134   -7.9929   15.4760 C   0  0  1  0  0  0  0  0  0  0  0  0
  -22.5623   -7.9743   16.3270 O   0  0  0  0  0  0  0  0  0  0  0  0
  -21.6912   -7.1180   14.2677 C   0  0  2  0  0  0  0  0  0  0  0  0
  -14.8650   -9.3266   16.6460 C   0  0  1  0  0  0  0  0  0  0  0  0
  -19.6738  -11.4100   11.8798 N   0  0  0  0  0  0  0  0  0  0  0  0
  -20.1190  -11.2698   13.1583 C   0  0  1  0  0  0  0  0  0  0  0  0
  -15.2170   -8.3011   15.6060 C   0  0  2  0  0  0  0  0  0  0  0  0
  -20.0598  -12.3449   13.9777 N   0  0  0  0  0  0  0  0  0  0  0  0
  -14.0254   -7.5537   15.3556 O   0  0  0  0  0  0  0  0  0  0  0  0
  -16.2965   -7.4535   16.2494 C   0  0  2  0  0  0  0  0  0  0  0  0
  -20.6167  -10.0935   13.6433 N   0  0  0  0  0  0  0  0  0  0  0  0
  -16.1598   -6.0806   15.9088 O   0  0  0  0  0  0  0  0  0  0  0  0
  -20.6990   -8.9874   12.8614 C   0  0  2  0  0  0  0  0  0  0  0  0
  -16.1008   -7.6408   17.7411 C   0  0  2  0  0  0  0  0  0  0  0  0
  -15.3885   -8.8677   17.8917 O   0  0  0  0  0  0  0  0  0  0  0  0
  -20.2273   -9.0841   11.4691 C   0  0  1  0  0  0  0  0  0  0  0  0
  -17.4175   -7.7201   18.5055 C   0  0  0  0  0  0  0  0  0  0  0  0
  -18.1579   -8.8522   18.0448 O   0  0  0  0  0  0  0  0  0  0  0  0
  -19.7014  -10.3798   11.0036 C   0  0  0  0  0  0  0  0  0  0  0  0
  -19.2520  -10.5274    9.7315 O   0  0  0  0  0  0  0  0  0  0  0  0
  -20.4040   -7.8800   10.9142 N   0  0  0  0  0  0  0  0  0  0  0  0
  -20.9447   -7.0679   11.8691 C   0  0  0  0  0  0  0  0  0  0  0  0
  -21.1221   -7.7245   13.0349 N   0  0  1  0  0  0  0  0  0  0  0  0
  -17.7379  -13.3842   18.2743 N   0  0  0  0  0  0  0  0  0  0  0  0
  -20.4183  -10.3369   17.3552 O   0  5  0  0  0  0  0  0  0  0  0  0
  -17.3706  -12.2544   18.9388 C   0  0  2  0  0  0  0  0  0  0  0  0
  -17.7782  -12.0777   20.2228 N   0  0  0  0  0  0  0  0  0  0  0  0
  -20.1143   -9.0835   19.9580 O   0  0  0  0  0  0  0  0  0  0  0  0
  -16.6057  -11.2911   18.3563 N   0  0  0  0  0  0  0  0  0  0  0  0
  -16.1749  -11.4070   17.0783 C   0  0  2  0  0  0  0  0  0  0  0  0
  -16.5366  -12.6059   16.3104 C   0  0  2  0  0  0  0  0  0  0  0  0
  -17.3641  -13.6196   16.9987 C   0  0  0  0  0  0  0  0  0  0  0  0
  -17.7452  -14.7598   16.3716 O   0  0  0  0  0  0  0  0  0  0  0  0
  -15.9755  -12.4674   15.0930 N   0  0  0  0  0  0  0  0  0  0  0  0
  -15.3116  -11.2732   15.0821 C   0  0  0  0  0  0  0  0  0  0  0  0
  -15.4324  -10.6446   16.2734 N   0  0  1  0  0  0  0  0  0  0  0  0
  1  3  1  6  0  0  0
  1  4  2  0  0  0  0
  1  6  1  0  0  0  0
  1 22  1  0  0  0  0
  2 28  1  0  0  0  0
  2 35  1  6  0  0  0
  2 38  2  0  0  0  0
  2 10  1  0  0  0  0
  5  6  1  0  0  0  0
  7  5  1  6  0  0  0
  7  8  1  0  0  0  0
  7  9  1  0  0  0  0
  9 10  1  1  0  0  0
  9 11  1  0  0  0  0
 11 12  1  1  0  0  0
 11 13  1  0  0  0  0
 13  8  1  1  0  0  0
 13 33  1  0  0  0  0
 14 46  1  0  0  0  0
 14 17  1  0  0  0  0
 14 25  1  1  0  0  0
 15 16  1  0  0  0  0
 15 29  1  0  0  0  0
 16 18  1  1  0  0  0
 16 21  1  0  0  0  0
 17 19  1  1  0  0  0
 17 20  1  0  0  0  0
 20 22  1  1  0  0  0
 20 24  1  0  0  0  0
 23 21  1  1  0  0  0
 23 26  1  0  0  0  0
 23 33  1  0  0  0  0
 24 25  1  6  0  0  0
 24 27  1  0  0  0  0
 26 29  1  6  0  0  0
 26 31  1  0  0  0  0
 27 28  1  0  0  0  0
 29 30  2  0  0  0  0
 31 32  1  0  0  0  0
 33 32  1  6  0  0  0
 34 36  1  0  0  0  0
 34 42  1  0  0  0  0
 36 37  1  6  0  0  0
 36 39  1  0  0  0  0
 40 39  1  1  0  0  0
 40 41  1  0  0  0  0
 40 46  1  0  0  0  0
 41 42  1  1  0  0  0
 41 44  1  0  0  0  0
 42 43  2  0  0  0  0
 44 45  1  0  0  0  0
 46 45  1  6  0  0  0
M  CHG  2   3  -1  35  -1
M  END
>  <CHROM.1>
131.87827237,-128.61169569,-18.35615416,-8.94190027,15.56894709,-2.25624705
0.92028903,2.93462751

>  <Name>
ligand

>  <RI>
-1

>  <Rbt.Current_Directory>
/home/itssahil/PROJECTS/Mol_Feturizer/Test_systems_manuscript/rnas/3mum

>  <Rbt.Executable>
rbdock ($Id: //depot/dev/client3/rdock/2013.1/src/exe/rbdock.cxx#4 $)

>  <Rbt.Library>
libRbt.so (2013.1, Build901 2013/11/27)

>  <Rbt.Parameter_File>
/export/apps/rDock/src/rDock_2013.1_src/data/scripts/dock_solv.prm

>  <Rbt.Receptor>
prm/blind_docking_80.prm

>  <SCORE>
104.829

>  <SCORE.INTER>
103.384

>  <SCORE.INTER.CONST>
1

>  <SCORE.INTER.POLAR>
0

>  <SCORE.INTER.ROT>
2

>  <SCORE.INTER.SOLV>
38.1288

>  <SCORE.INTER.VDW>
51.2795

>  <SCORE.INTER.norm>
2.24747

>  <SCORE.INTRA>
0.872035

>  <SCORE.INTRA.DIHEDRAL>
0.00624532

>  <SCORE.INTRA.DIHEDRAL.0>
2.40424

>  <SCORE.INTRA.POLAR>
0

>  <SCORE.INTRA.POLAR.0>
0

>  <SCORE.INTRA.REPUL>
0

>  <SCORE.INTRA.REPUL.0>
0

>  <SCORE.INTRA.SOLV>
3.71905

>  <SCORE.INTRA.SOLV.lig_0>
-134.169

>  <SCORE.INTRA.VDW>
-0.990612

>  <SCORE.INTRA.VDW.0>
-2.18386

>  <SCORE.INTRA.norm>
0.0189573

>  <SCORE.RESTR>
0.573029

>  <SCORE.RESTR.CAVITY>
0.573029

>  <SCORE.RESTR.norm>
0.0124571

>  <SCORE.SYSTEM>
0

>  <SCORE.SYSTEM.CONST>
0

>  <SCORE.SYSTEM.DIHEDRAL>
0

>  <SCORE.SYSTEM.SOLV>
0

>  <SCORE.SYSTEM.norm>
0

>  <SCORE.heavy>
46

>  <SCORE.norm>
2.27889

>  <RMSD>
15.608

$$$$
ligand
 OpenBabel02271912143D
libRbt.so/2013.1/901 2013/11/27
 46 52  0  0  0  0  0  0  0  0999 V2000
  -17.0562  -13.1711   19.2380 P   0  0  1  0  0  0  0  0  0  0  0  0
  -19.9195   -8.1534   18.0977 P   0  0  2  0  0  0  0  0  0  0  0  0
  -15.3049  -12.9014   19.1942 O   0  5  0  0  0  0  0  0  0  0  0  0
  -17.4524  -14.8436   19.7124 O   0  0  0  0  0  0  0  0  0  0  0  0
  -19.1205  -12.0341   20.4503 C   0  0  0  0  0  0  0  0  0  0  0  0
  -17.7059  -12.1265   20.2801 O   0  0  0  0  0  0  0  0  0  0  0  0
  -19.4448  -10.6954   21.0854 C   0  0  1  0  0  0  0  0  0  0  0  0
  -18.6683  -10.5332   22.2807 O   0  0  0  0  0  0  0  0  0  0  0  0
  -19.0874   -9.5102   20.2035 C   0  0  1  0  0  0  0  0  0  0  0  0
  -20.1747   -9.1130   19.3708 O   0  0  0  0  0  0  0  0  0  0  0  0
  -18.7169   -8.4326   21.2073 C   0  0  1  0  0  0  0  0  0  0  0  0
  -19.8818   -7.6965   21.5889 O   0  0  0  0  0  0  0  0  0  0  0  0
  -18.1990   -9.1831   22.4202 C   0  0  2  0  0  0  0  0  0  0  0  0
  -16.5008  -10.7212   15.2173 C   0  0  1  0  0  0  0  0  0  0  0  0
  -13.7549   -9.3351   25.3217 N   0  0  0  0  0  0  0  0  0  0  0  0
  -15.0509   -9.3685   25.7360 C   0  0  1  0  0  0  0  0  0  0  0  0
  -16.2123  -11.5308   16.4496 C   0  0  2  0  0  0  0  0  0  0  0  0
  -15.2959   -9.4503   27.0641 N   0  0  0  0  0  0  0  0  0  0  0  0
  -15.8370  -12.8335   15.9989 O   0  0  0  0  0  0  0  0  0  0  0  0
  -17.5204  -11.5478   17.2154 C   0  0  2  0  0  0  0  0  0  0  0  0
  -16.1059   -9.3199   24.8692 N   0  0  0  0  0  0  0  0  0  0  0  0
  -17.7514  -12.8064   17.8335 O   0  0  0  0  0  0  0  0  0  0  0  0
  -15.9131   -9.2396   23.5283 C   0  0  2  0  0  0  0  0  0  0  0  0
  -18.5860  -11.2784   16.1711 C   0  0  2  0  0  0  0  0  0  0  0  0
  -17.9191  -10.6305   15.0891 O   0  0  0  0  0  0  0  0  0  0  0  0
  -14.5285   -9.1971   23.0268 C   0  0  1  0  0  0  0  0  0  0  0  0
  -19.7071  -10.3830   16.6867 C   0  0  0  0  0  0  0  0  0  0  0  0
  -19.1612   -9.1136   17.0510 O   0  0  0  0  0  0  0  0  0  0  0  0
  -13.4327   -9.2534   24.0106 C   0  0  0  0  0  0  0  0  0  0  0  0
  -12.1375   -9.2168   23.6065 O   0  0  0  0  0  0  0  0  0  0  0  0
  -14.6003   -9.1131   21.6938 N   0  0  0  0  0  0  0  0  0  0  0  0
  -15.9235   -9.1005   21.3581 C   0  0  0  0  0  0  0  0  0  0  0  0
  -16.7123   -9.1748   22.4507 N   0  0  1  0  0  0  0  0  0  0  0  0
  -17.2559   -5.5755   14.6519 N   0  0  0  0  0  0  0  0  0  0  0  0
  -18.8924   -6.7598   18.5264 O   0  5  0  0  0  0  0  0  0  0  0  0
  -18.1088   -6.6115   14.4231 C   0  0  2  0  0  0  0  0  0  0  0  0
  -19.3681   -6.3498   13.9853 N   0  0  0  0  0  0  0  0  0  0  0  0
  -21.4166   -7.5742   17.3419 O   0  0  0  0  0  0  0  0  0  0  0  0
  -17.7400   -7.9066   14.6201 N   0  0  0  0  0  0  0  0  0  0  0  0
  -16.5019   -8.2300   15.0614 C   0  0  2  0  0  0  0  0  0  0  0  0
  -15.5356   -7.1551   15.3233 C   0  0  2  0  0  0  0  0  0  0  0  0
  -15.9922   -5.7691   15.0853 C   0  0  0  0  0  0  0  0  0  0  0  0
  -15.1700   -4.7118   15.2968 O   0  0  0  0  0  0  0  0  0  0  0  0
  -14.3988   -7.7508   15.7347 N   0  0  0  0  0  0  0  0  0  0  0  0
  -14.6221   -9.0988   15.7397 C   0  0  0  0  0  0  0  0  0  0  0  0
  -15.8812   -9.3794   15.3335 N   0  0  1  0  0  0  0  0  0  0  0  0
  1  3  1  6  0  0  0
  1  4  2  0  0  0  0
  1  6  1  0  0  0  0
  1 22  1  0  0  0  0
  2 28  1  0  0  0  0
  2 35  1  1  0  0  0
  2 38  2  0  0  0  0
  2 10  1  0  0  0  0
  5  6  1  0  0  0  0
  7  5  1  6  0  0  0
  7  8  1  0  0  0  0
  7  9  1  0  0  0  0
  9 10  1  1  0  0  0
  9 11  1  0  0  0  0
 11 12  1  1  0  0  0
 11 13  1  0  0  0  0
 13  8  1  6  0  0  0
 13 33  1  0  0  0  0
 14 46  1  0  0  0  0
 14 17  1  0  0  0  0
 14 25  1  1  0  0  0
 15 16  1  0  0  0  0
 15 29  1  0  0  0  0
 16 18  1  1  0  0  0
 16 21  1  0  0  0  0
 17 19  1  6  0  0  0
 17 20  1  0  0  0  0
 20 22  1  6  0  0  0
 20 24  1  0  0  0  0
 23 21  1  1  0  0  0
 23 26  1  0  0  0  0
 23 33  1  0  0  0  0
 24 25  1  6  0  0  0
 24 27  1  0  0  0  0
 26 29  1  6  0  0  0
 26 31  1  0  0  0  0
 27 28  1  0  0  0  0
 29 30  2  0  0  0  0
 31 32  1  0  0  0  0
 33 32  1  6  0  0  0
 34 36  1  0  0  0  0
 34 42  1  0  0  0  0
 36 37  1  1  0  0  0
 36 39  1  0  0  0  0
 40 39  1  6  0  0  0
 40 41  1  0  0  0  0
 40 46  1  0  0  0  0
 41 42  1  6  0  0  0
 41 44  1  0  0  0  0
 42 43  2  0  0  0  0
 44 45  1  0  0  0  0
 46 45  1  1  0  0  0
M  CHG  2   3  -1  35  -1
M  END
>  <CHROM.1>
-91.76655395,-132.86907869,-17.17951405,-9.54212485,19.02265603,0.86123103
1.21888539,2.44941908

>  <Name>
ligand

>  <RI>
-1

>  <Rbt.Current_Directory>
/home/itssahil/PROJECTS/Mol_Feturizer/Test_systems_manuscript/rnas/3mum

>  <Rbt.Executable>
rbdock ($Id: //depot/dev/client3/rdock/2013.1/src/exe/rbdock.cxx#4 $)

>  <Rbt.Library>
libRbt.so (2013.1, Build901 2013/11/27)

>  <Rbt.Parameter_File>
/export/apps/rDock/src/rDock_2013.1_src/data/scripts/dock_solv.prm

>  <Rbt.Receptor>
prm/blind_docking_40.prm

>  <SCORE>
29.2155

>  <SCORE.INTER>
28.4398

>  <SCORE.INTER.CONST>
1

>  <SCORE.INTER.POLAR>
0

>  <SCORE.INTER.ROT>
2

>  <SCORE.INTER.SOLV>
34.7234

>  <SCORE.INTER.VDW>
2.45206

>  <SCORE.INTER.norm>
0.618257

>  <SCORE.INTRA>
-0.020346

>  <SCORE.INTRA.DIHEDRAL>
0.00985649

>  <SCORE.INTRA.DIHEDRAL.0>
2.40424

>  <SCORE.INTRA.POLAR>
0

>  <SCORE.INTRA.POLAR.0>
0

>  <SCORE.INTRA.REPUL>
0

>  <SCORE.INTRA.REPUL.0>
0

>  <SCORE.INTRA.SOLV>
0.928864

>  <SCORE.INTRA.SOLV.lig_0>
-134.169

>  <SCORE.INTRA.VDW>
-0.489706

>  <SCORE.INTRA.VDW.0>
-2.18386

>  <SCORE.INTRA.norm>
-0.000442305

>  <SCORE.RESTR>
0.796043

>  <SCORE.RESTR.CAVITY>
0.796043

>  <SCORE.RESTR.norm>
0.0173053

>  <SCORE.SYSTEM>
0

>  <SCORE.SYSTEM.CONST>
0

>  <SCORE.SYSTEM.DIHEDRAL>
0

>  <SCORE.SYSTEM.SOLV>
0

>  <SCORE.SYSTEM.norm>
0

>  <SCORE.heavy>
46

>  <SCORE.norm>
0.63512

>  <RMSD>
15.651

$$$$
ligand
 OpenBabel02271912143D
libRbt.so/2013.1/901 2013/11/27
 46 52  0  0  0  0  0  0  0  0999 V2000
  -14.5963   -9.5792   20.5850 P   0  0  1  0  0  0  0  0  0  0  0  0
  -19.3977  -11.6127   17.8485 P   0  0  2  0  0  0  0  0  0  0  0  0
  -14.7846   -7.8558   20.9544 O   0  5  0  0  0  0  0  0  0  0  0  0
  -13.0664  -10.2271   21.2320 O   0  0  0  0  0  0  0  0  0  0  0  0
  -16.0281  -11.7726   20.9876 C   0  0  0  0  0  0  0  0  0  0  0  0
  -15.8498  -10.3743   21.2142 O   0  0  0  0  0  0  0  0  0  0  0  0
  -17.4771  -12.1263   21.2634 C   0  0  1  0  0  0  0  0  0  0  0  0
  -17.8414  -11.6624   22.5711 O   0  0  0  0  0  0  0  0  0  0  0  0
  -18.4509  -11.4567   20.3076 C   0  0  1  0  0  0  0  0  0  0  0  0
  -18.7180  -12.2617   19.1614 O   0  0  0  0  0  0  0  0  0  0  0  0
  -19.6899  -11.2557   21.1622 C   0  0  1  0  0  0  0  0  0  0  0  0
  -20.5310  -12.4095   21.0857 O   0  0  0  0  0  0  0  0  0  0  0  0
  -19.1736  -11.1258   22.5832 C   0  0  2  0  0  0  0  0  0  0  0  0
  -16.1837   -7.8220   16.4777 C   0  0  1  0  0  0  0  0  0  0  0  0
  -16.9348   -7.3895   25.6197 N   0  0  0  0  0  0  0  0  0  0  0  0
  -16.6423   -8.7162   25.5372 C   0  0  1  0  0  0  0  0  0  0  0  0
  -15.6220   -7.9234   17.8675 C   0  0  2  0  0  0  0  0  0  0  0  0
  -15.6508   -9.2024   26.3189 N   0  0  0  0  0  0  0  0  0  0  0  0
  -14.2427   -7.5635   17.7734 O   0  0  0  0  0  0  0  0  0  0  0  0
  -15.8063   -9.3777   18.2532 C   0  0  2  0  0  0  0  0  0  0  0  0
  -17.3084   -9.5700   24.7040 N   0  0  0  0  0  0  0  0  0  0  0  0
  -14.7039   -9.8659   19.0054 O   0  0  0  0  0  0  0  0  0  0  0  0
  -18.3089   -9.1314   23.8988 C   0  0  2  0  0  0  0  0  0  0  0  0
  -15.9057  -10.1202   16.9351 C   0  0  2  0  0  0  0  0  0  0  0  0
  -16.3018   -9.1494   15.9676 O   0  0  0  0  0  0  0  0  0  0  0  0
  -18.6678   -7.7035   23.9515 C   0  0  1  0  0  0  0  0  0  0  0  0
  -16.9274  -11.2513   16.9684 C   0  0  0  0  0  0  0  0  0  0  0  0
  -18.2218  -10.7042   17.2282 O   0  0  0  0  0  0  0  0  0  0  0  0
  -17.9129   -6.8323   24.8697 C   0  0  0  0  0  0  0  0  0  0  0  0
  -18.2004   -5.5090   24.9611 O   0  0  0  0  0  0  0  0  0  0  0  0
  -19.6701   -7.5224   23.0846 N   0  0  0  0  0  0  0  0  0  0  0  0
  -19.9405   -8.7341   22.5170 C   0  0  0  0  0  0  0  0  0  0  0  0
  -19.1306   -9.6993   23.0008 N   0  0  1  0  0  0  0  0  0  0  0  0
  -19.2788   -4.3559   14.0747 N   0  0  0  0  0  0  0  0  0  0  0  0
  -20.8079  -10.6069   18.2734 O   0  5  0  0  0  0  0  0  0  0  0  0
  -18.0229   -4.7716   13.7540 C   0  0  2  0  0  0  0  0  0  0  0  0
  -17.4152   -4.2583   12.6525 N   0  0  0  0  0  0  0  0  0  0  0  0
  -19.8738  -12.8161   16.6348 O   0  0  0  0  0  0  0  0  0  0  0  0
  -17.3532   -5.6891   14.5036 N   0  0  0  0  0  0  0  0  0  0  0  0
  -17.9084   -6.2411   15.6078 C   0  0  2  0  0  0  0  0  0  0  0  0
  -19.2611   -5.8301   16.0065 C   0  0  2  0  0  0  0  0  0  0  0  0
  -19.9356   -4.8259   15.1563 C   0  0  0  0  0  0  0  0  0  0  0  0
  -21.1841   -4.3836   15.4465 O   0  0  0  0  0  0  0  0  0  0  0  0
  -19.5575   -6.5164   17.1279 N   0  0  0  0  0  0  0  0  0  0  0  0
  -18.4816   -7.3064   17.4202 C   0  0  0  0  0  0  0  0  0  0  0  0
  -17.4973   -7.1354   16.5087 N   0  0  1  0  0  0  0  0  0  0  0  0
  1  3  1  1  0  0  0
  1  4  2  0  0  0  0
  1  6  1  0  0  0  0
  1 22  1  0  0  0  0
  2 28  1  0  0  0  0
  2 35  1  1  0  0  0
  2 38  2  0  0  0  0
  2 10  1  0  0  0  0
  5  6  1  0  0  0  0
  7  5  1  6  0  0  0
  7  8  1  0  0  0  0
  7  9  1  0  0  0  0
  9 10  1  6  0  0  0
  9 11  1  0  0  0  0
 11 12  1  1  0  0  0
 11 13  1  0  0  0  0
 13  8  1  6  0  0  0
 13 33  1  0  0  0  0
 14 46  1  0  0  0  0
 14 17  1  0  0  0  0
 14 25  1  1  0  0  0
 15 16  1  0  0  0  0
 15 29  1  0  0  0  0
 16 18  1  1  0  0  0
 16 21  1  0  0  0  0
 17 19  1  6  0  0  0
 17 20  1  0  0  0  0
 20 22  1  6  0  0  0
 20 24  1  0  0  0  0
 23 21  1  1  0  0  0
 23 26  1  0  0  0  0
 23 33  1  0  0  0  0
 24 25  1  6  0  0  0
 24 27  1  0  0  0  0
 26 29  1  6  0  0  0
 26 31  1  0  0  0  0
 27 28  1  0  0  0  0
 29 30  2  0  0  0  0
 31 32  1  0  0  0  0
 33 32  1  6  0  0  0
 34 36  1  0  0  0  0
 34 42  1  0  0  0  0
 36 37  1  6  0  0  0
 36 39  1  0  0  0  0
 40 39  1  1  0  0  0
 40 41  1  0  0  0  0
 40 46  1  0  0  0  0
 41 42  1  1  0  0  0
 41 44  1  0  0  0  0
 42 43  2  0  0  0  0
 44 45  1  0  0  0  0
 46 45  1  6  0  0  0
M  CHG  2   3  -1  35  -1
M  END
>  <CHROM.1>
-35.44417006,139.77413122,-17.64104148,-8.90999522,19.51475795,-0.74164333
-1.43623000,-0.39566134

>  <Name>
ligand

>  <RI>
0

>  <Rbt.Current_Directory>
/home/itssahil/PROJECTS/Mol_Feturizer/Test_systems_manuscript/rnas/3mum

>  <Rbt.Executable>
rbdock ($Id: //depot/dev/client3/rdock/2013.1/src/exe/rbdock.cxx#4 $)

>  <Rbt.Library>
libRbt.so (2013.1, Build901 2013/11/27)

>  <Rbt.Parameter_File>
/export/apps/rDock/src/rDock_2013.1_src/data/scripts/dock_solv.prm

>  <Rbt.Receptor>
prm/blind_docking_60.prm

>  <SCORE>
39.9348

>  <SCORE.INTER>
39.2544

>  <SCORE.INTER.CONST>
1

>  <SCORE.INTER.POLAR>
0

>  <SCORE.INTER.ROT>
2

>  <SCORE.INTER.SOLV>
39.7942

>  <SCORE.INTER.VDW>
7.9715

>  <SCORE.INTER.norm>
0.853355

>  <SCORE.INTRA>
0.235817

>  <SCORE.INTRA.DIHEDRAL>
-0.0241585

>  <SCORE.INTRA.DIHEDRAL.0>
2.40424

>  <SCORE.INTRA.POLAR>
0

>  <SCORE.INTRA.POLAR.0>
0

>  <SCORE.INTRA.REPUL>
0

>  <SCORE.INTRA.REPUL.0>
0

>  <SCORE.INTRA.SOLV>
0.0236985

>  <SCORE.INTRA.SOLV.lig_0>
-134.169

>  <SCORE.INTRA.VDW>
0.236047

>  <SCORE.INTRA.VDW.0>
-2.18386

>  <SCORE.INTRA.norm>
0.00512645

>  <SCORE.RESTR>
0.444668

>  <SCORE.RESTR.CAVITY>
0.444668

>  <SCORE.RESTR.norm>
0.00966669

>  <SCORE.SYSTEM>
0

>  <SCORE.SYSTEM.CONST>
0

>  <SCORE.SYSTEM.DIHEDRAL>
0

>  <SCORE.SYSTEM.SOLV>
0

>  <SCORE.SYSTEM.norm>
0

>  <SCORE.heavy>
46

>  <SCORE.norm>
0.868149

>  <RMSD>
15.652

$$$$
ligand
 OpenBabel02271912143D
libRbt.so/2013.1/901 2013/11/27
 46 52  0  0  0  0  0  0  0  0999 V2000
  -17.0592  -13.1709   19.3004 P   0  0  1  0  0  0  0  0  0  0  0  0
  -19.9034   -8.1677   18.0536 P   0  0  2  0  0  0  0  0  0  0  0  0
  -15.3069  -12.9081   19.2538 O   0  5  0  0  0  0  0  0  0  0  0  0
  -17.4618  -14.8320   19.8082 O   0  0  0  0  0  0  0  0  0  0  0  0
  -19.1213  -12.0023   20.4861 C   0  0  0  0  0  0  0  0  0  0  0  0
  -17.7068  -12.1030   20.3200 O   0  0  0  0  0  0  0  0  0  0  0  0
  -19.4419  -10.6499   21.0933 C   0  0  1  0  0  0  0  0  0  0  0  0
  -18.6666  -10.4660   22.2862 O   0  0  0  0  0  0  0  0  0  0  0  0
  -19.0792   -9.4841   20.1879 C   0  0  1  0  0  0  0  0  0  0  0  0
  -20.1638   -9.1002   19.3457 O   0  0  0  0  0  0  0  0  0  0  0  0
  -18.7064   -8.3876   21.1701 C   0  0  1  0  0  0  0  0  0  0  0  0
  -19.8693   -7.6398   21.5349 O   0  0  0  0  0  0  0  0  0  0  0  0
  -18.1928   -9.1149   22.3989 C   0  0  2  0  0  0  0  0  0  0  0  0
  -16.4894  -10.8054   15.2314 C   0  0  1  0  0  0  0  0  0  0  0  0
  -13.7528   -9.3802   25.2986 N   0  0  0  0  0  0  0  0  0  0  0  0
  -15.0495   -9.4254   25.7098 C   0  0  1  0  0  0  0  0  0  0  0  0
  -16.2055  -11.5906   16.4805 C   0  0  2  0  0  0  0  0  0  0  0  0
  -15.2965   -9.5539   27.0339 N   0  0  0  0  0  0  0  0  0  0  0  0
  -15.8341  -12.9035   16.0569 O   0  0  0  0  0  0  0  0  0  0  0  0
  -17.5148  -11.5876   17.2444 C   0  0  2  0  0  0  0  0  0  0  0  0
  -16.1032   -9.3435   24.8441 N   0  0  0  0  0  0  0  0  0  0  0  0
  -17.7510  -12.8325   17.8877 O   0  0  0  0  0  0  0  0  0  0  0  0
  -15.9085   -9.2160   23.5071 C   0  0  2  0  0  0  0  0  0  0  0  0
  -18.5779  -11.3358   16.1932 C   0  0  2  0  0  0  0  0  0  0  0  0
  -17.9072  -10.7125   15.0992 O   0  0  0  0  0  0  0  0  0  0  0  0
  -14.5232   -9.1588   23.0091 C   0  0  1  0  0  0  0  0  0  0  0  0
  -19.6967  -10.4263   16.6887 C   0  0  0  0  0  0  0  0  0  0  0  0
  -19.1469   -9.1516   17.0279 O   0  0  0  0  0  0  0  0  0  0  0  0
  -13.4287   -9.2526   23.9916 C   0  0  0  0  0  0  0  0  0  0  0  0
  -12.1330   -9.2046   23.5907 O   0  0  0  0  0  0  0  0  0  0  0  0
  -14.5931   -9.0273   21.6798 N   0  0  0  0  0  0  0  0  0  0  0  0
  -15.9158   -8.9997   21.3432 C   0  0  0  0  0  0  0  0  0  0  0  0
  -16.7062   -9.1111   22.4315 N   0  0  1  0  0  0  0  0  0  0  0  0
  -17.2423   -5.6656   14.6117 N   0  0  0  0  0  0  0  0  0  0  0  0
  -18.8721   -6.7691   18.4554 O   0  5  0  0  0  0  0  0  0  0  0  0
  -18.1006   -6.7025   14.4090 C   0  0  2  0  0  0  0  0  0  0  0  0
  -19.3658   -6.4435   13.9868 N   0  0  0  0  0  0  0  0  0  0  0  0
  -21.3974   -7.5989   17.2839 O   0  0  0  0  0  0  0  0  0  0  0  0
  -17.7316   -7.9958   14.6170 N   0  0  0  0  0  0  0  0  0  0  0  0
  -16.4876   -8.3163   15.0438 C   0  0  2  0  0  0  0  0  0  0  0  0
  -15.5153   -7.2404   15.2775 C   0  0  2  0  0  0  0  0  0  0  0  0
  -15.9726   -5.8565   15.0287 C   0  0  0  0  0  0  0  0  0  0  0  0
  -15.1452   -4.7985   15.2143 O   0  0  0  0  0  0  0  0  0  0  0  0
  -14.3737   -7.8334   15.6794 N   0  0  0  0  0  0  0  0  0  0  0  0
  -14.5998   -9.1807   15.7049 C   0  0  0  0  0  0  0  0  0  0  0  0
  -15.8653   -9.4636   15.3212 N   0  0  1  0  0  0  0  0  0  0  0  0
  1  3  1  6  0  0  0
  1  4  2  0  0  0  0
  1  6  1  0  0  0  0
  1 22  1  0  0  0  0
  2 28  1  0  0  0  0
  2 35  1  1  0  0  0
  2 38  2  0  0  0  0
  2 10  1  0  0  0  0
  5  6  1  0  0  0  0
  7  5  1  6  0  0  0
  7  8  1  0  0  0  0
  7  9  1  0  0  0  0
  9 10  1  1  0  0  0
  9 11  1  0  0  0  0
 11 12  1  1  0  0  0
 11 13  1  0  0  0  0
 13  8  1  6  0  0  0
 13 33  1  0  0  0  0
 14 46  1  0  0  0  0
 14 17  1  0  0  0  0
 14 25  1  1  0  0  0
 15 16  1  0  0  0  0
 15 29  1  0  0  0  0
 16 18  1  1  0  0  0
 16 21  1  0  0  0  0
 17 19  1  6  0  0  0
 17 20  1  0  0  0  0
 20 22  1  6  0  0  0
 20 24  1  0  0  0  0
 23 21  1  1  0  0  0
 23 26  1  0  0  0  0
 23 33  1  0  0  0  0
 24 25  1  6  0  0  0
 24 27  1  0  0  0  0
 26 29  1  6  0  0  0
 26 31  1  0  0  0  0
 27 28  1  0  0  0  0
 29 30  2  0  0  0  0
 31 32  1  0  0  0  0
 33 32  1  6  0  0  0
 34 36  1  0  0  0  0
 34 42  1  0  0  0  0
 36 37  1  1  0  0  0
 36 39  1  0  0  0  0
 40 39  1  6  0  0  0
 40 41  1  0  0  0  0
 40 46  1  0  0  0  0
 41 42  1  6  0  0  0
 41 44  1  0  0  0  0
 42 43  2  0  0  0  0
 44 45  1  0  0  0  0
 46 45  1  1  0  0  0
M  CHG  2   3  -1  35  -1
M  END
>  <CHROM.1>
-88.55704796,-131.82503668,-17.17133411,-9.56315976,19.01539403,0.85588607
1.22208566,2.45022531

>  <Name>
ligand

>  <RI>
-1

>  <Rbt.Current_Directory>
/home/itssahil/PROJECTS/Mol_Feturizer/Test_systems_manuscript/rnas/3mum

>  <Rbt.Executable>
rbdock ($Id: //depot/dev/client3/rdock/2013.1/src/exe/rbdock.cxx#4 $)

>  <Rbt.Library>
libRbt.so (2013.1, Build901 2013/11/27)

>  <Rbt.Parameter_File>
/export/apps/rDock/src/rDock_2013.1_src/data/scripts/dock_solv.prm

>  <Rbt.Receptor>
prm/blind_docking_100.prm

>  <SCORE>
28.2383

>  <SCORE.INTER>
27.8254

>  <SCORE.INTER.CONST>
1

>  <SCORE.INTER.POLAR>
0

>  <SCORE.INTER.ROT>
2

>  <SCORE.INTER.SOLV>
34.4423

>  <SCORE.INTER.VDW>
2.13617

>  <SCORE.INTER.norm>
0.6049

>  <SCORE.INTRA>
0.119557

>  <SCORE.INTRA.DIHEDRAL>
0.00866776

>  <SCORE.INTRA.DIHEDRAL.0>
2.40424

>  <SCORE.INTRA.POLAR>
0

>  <SCORE.INTRA.POLAR.0>
0

>  <SCORE.INTRA.REPUL>
0

>  <SCORE.INTRA.REPUL.0>
0

>  <SCORE.INTRA.SOLV>
1.22687

>  <SCORE.INTRA.SOLV.lig_0>
-134.169

>  <SCORE.INTRA.VDW>
-0.498213

>  <SCORE.INTRA.VDW.0>
-2.18386

>  <SCORE.INTRA.norm>
0.00259906

>  <SCORE.RESTR>
0.293297

>  <SCORE.RESTR.CAVITY>
0.293297

>  <SCORE.RESTR.norm>
0.00637603

>  <SCORE.SYSTEM>
0

>  <SCORE.SYSTEM.CONST>
0

>  <SCORE.SYSTEM.DIHEDRAL>
0

>  <SCORE.SYSTEM.SOLV>
0

>  <SCORE.SYSTEM.norm>
0

>  <SCORE.heavy>
46

>  <SCORE.norm>
0.613876

>  <RMSD>
15.656

$$$$
ligand
 OpenBabel02271912143D
libRbt.so/2013.1/901 2013/11/27
 46 52  0  0  0  0  0  0  0  0999 V2000
  -14.6825   -9.2490   20.0844 P   0  0  1  0  0  0  0  0  0  0  0  0
  -19.4458  -11.5907   17.5342 P   0  0  2  0  0  0  0  0  0  0  0  0
  -14.9715   -7.5444   20.4750 O   0  5  0  0  0  0  0  0  0  0  0  0
  -13.0862   -9.7945   20.6620 O   0  0  0  0  0  0  0  0  0  0  0  0
  -15.9440  -11.5369   20.5288 C   0  0  0  0  0  0  0  0  0  0  0  0
  -15.8515  -10.1308   20.7589 O   0  0  0  0  0  0  0  0  0  0  0  0
  -17.3527  -11.9898   20.8619 C   0  0  1  0  0  0  0  0  0  0  0  0
  -17.6923  -11.5585   22.1873 O   0  0  0  0  0  0  0  0  0  0  0  0
  -18.4091  -11.3832   19.9528 C   0  0  1  0  0  0  0  0  0  0  0  0
  -18.6690  -12.1987   18.8124 O   0  0  0  0  0  0  0  0  0  0  0  0
  -19.6218  -11.2714   20.8599 C   0  0  1  0  0  0  0  0  0  0  0  0
  -20.3851  -12.4794   20.8093 O   0  0  0  0  0  0  0  0  0  0  0  0
  -19.0562  -11.1139   22.2591 C   0  0  2  0  0  0  0  0  0  0  0  0
  -16.5568   -7.5831   16.0609 C   0  0  1  0  0  0  0  0  0  0  0  0
  -17.3983   -7.3905   25.6620 N   0  0  0  0  0  0  0  0  0  0  0  0
  -17.0907   -8.7158   25.6245 C   0  0  1  0  0  0  0  0  0  0  0  0
  -15.9316   -7.6531   17.4252 C   0  0  2  0  0  0  0  0  0  0  0  0
  -16.2495   -9.2041   26.5650 N   0  0  0  0  0  0  0  0  0  0  0  0
  -14.5850   -7.1996   17.2766 O   0  0  0  0  0  0  0  0  0  0  0  0
  -16.0004   -9.1185   17.8067 C   0  0  2  0  0  0  0  0  0  0  0  0
  -17.5973   -9.5662   24.6827 N   0  0  0  0  0  0  0  0  0  0  0  0
  -14.8368   -9.5344   18.5084 O   0  0  0  0  0  0  0  0  0  0  0  0
  -18.4429   -9.1254   23.7172 C   0  0  2  0  0  0  0  0  0  0  0  0
  -16.1046   -9.8593   16.4880 C   0  0  2  0  0  0  0  0  0  0  0  0
  -16.6060   -8.9128   15.5456 O   0  0  0  0  0  0  0  0  0  0  0  0
  -18.8110   -7.6989   23.7143 C   0  0  1  0  0  0  0  0  0  0  0  0
  -17.0450  -11.0575   16.5548 C   0  0  0  0  0  0  0  0  0  0  0  0
  -18.3613  -10.6012   16.8727 O   0  0  0  0  0  0  0  0  0  0  0  0
  -18.2320   -6.8313   24.7555 C   0  0  0  0  0  0  0  0  0  0  0  0
  -18.5361   -5.5094   24.8026 O   0  0  0  0  0  0  0  0  0  0  0  0
  -19.6467   -7.5151   22.6863 N   0  0  0  0  0  0  0  0  0  0  0  0
  -19.8088   -8.7240   22.0732 C   0  0  0  0  0  0  0  0  0  0  0  0
  -19.0924   -9.6899   22.6859 N   0  0  1  0  0  0  0  0  0  0  0  0
  -19.9352   -4.2355   13.8817 N   0  0  0  0  0  0  0  0  0  0  0  0
  -20.9018  -10.6855   18.0254 O   0  5  0  0  0  0  0  0  0  0  0  0
  -18.6635   -4.5527   13.5143 C   0  0  2  0  0  0  0  0  0  0  0  0
  -18.1200   -3.9551   12.4219 N   0  0  0  0  0  0  0  0  0  0  0  0
  -19.8898  -12.8176   16.3318 O   0  0  0  0  0  0  0  0  0  0  0  0
  -17.9155   -5.4536   14.2080 N   0  0  0  0  0  0  0  0  0  0  0  0
  -18.4041   -6.0865   15.3002 C   0  0  2  0  0  0  0  0  0  0  0  0
  -19.7700   -5.7836   15.7477 C   0  0  2  0  0  0  0  0  0  0  0  0
  -20.5311   -4.7926   14.9574 C   0  0  0  0  0  0  0  0  0  0  0  0
  -21.7980   -4.4471   15.2953 O   0  0  0  0  0  0  0  0  0  0  0  0
  -19.9910   -6.5338   16.8453 N   0  0  0  0  0  0  0  0  0  0  0  0
  -18.8582   -7.2615   17.0781 C   0  0  0  0  0  0  0  0  0  0  0  0
  -17.9116   -6.9877   16.1520 N   0  0  1  0  0  0  0  0  0  0  0  0
  1  3  1  1  0  0  0
  1  4  2  0  0  0  0
  1  6  1  0  0  0  0
  1 22  1  0  0  0  0
  2 28  1  0  0  0  0
  2 35  1  1  0  0  0
  2 38  2  0  0  0  0
  2 10  1  0  0  0  0
  5  6  1  0  0  0  0
  7  5  1  6  0  0  0
  7  8  1  0  0  0  0
  7  9  1  0  0  0  0
  9 10  1  6  0  0  0
  9 11  1  0  0  0  0
 11 12  1  1  0  0  0
 11 13  1  0  0  0  0
 13  8  1  6  0  0  0
 13 33  1  0  0  0  0
 14 46  1  0  0  0  0
 14 17  1  0  0  0  0
 14 25  1  1  0  0  0
 15 16  1  0  0  0  0
 15 29  1  0  0  0  0
 16 18  1  1  0  0  0
 16 21  1  0  0  0  0
 17 19  1  6  0  0  0
 17 20  1  0  0  0  0
 20 22  1  6  0  0  0
 20 24  1  0  0  0  0
 23 21  1  1  0  0  0
 23 26  1  0  0  0  0
 23 33  1  0  0  0  0
 24 25  1  6  0  0  0
 24 27  1  0  0  0  0
 26 29  1  6  0  0  0
 26 31  1  0  0  0  0
 27 28  1  0  0  0  0
 29 30  2  0  0  0  0
 31 32  1  0  0  0  0
 33 32  1  6  0  0  0
 34 36  1  0  0  0  0
 34 42  1  0  0  0  0
 36 37  1  6  0  0  0
 36 39  1  0  0  0  0
 40 39  1  1  0  0  0
 40 41  1  0  0  0  0
 40 46  1  0  0  0  0
 41 42  1  1  0  0  0
 41 44  1  0  0  0  0
 42 43  2  0  0  0  0
 44 45  1  0  0  0  0
 46 45  1  6  0  0  0
M  CHG  2   3  -1  35  -1
M  END
>  <CHROM.1>
-48.47013474,137.51275086,-17.85159195,-8.78883894,19.20107552,-0.53207520
1.42492326,-2.26019313

>  <Name>
ligand

>  <RI>
0

>  <Rbt.Current_Directory>
/home/itssahil/PROJECTS/Mol_Feturizer/Test_systems_manuscript/rnas/3mum

>  <Rbt.Executable>
rbdock ($Id: //depot/dev/client3/rdock/2013.1/src/exe/rbdock.cxx#4 $)

>  <Rbt.Library>
libRbt.so (2013.1, Build901 2013/11/27)

>  <Rbt.Parameter_File>
/export/apps/rDock/src/rDock_2013.1_src/data/scripts/dock_solv.prm

>  <Rbt.Receptor>
prm/blind_docking_60.prm

>  <SCORE>
39.1243

>  <SCORE.INTER>
38.2604

>  <SCORE.INTER.CONST>
1

>  <SCORE.INTER.POLAR>
0

>  <SCORE.INTER.ROT>
2

>  <SCORE.INTER.SOLV>
39.219

>  <SCORE.INTER.VDW>
7.50063

>  <SCORE.INTER.norm>
0.831749

>  <SCORE.INTRA>
0.526482

>  <SCORE.INTRA.DIHEDRAL>
-0.0236918

>  <SCORE.INTRA.DIHEDRAL.0>
2.40424

>  <SCORE.INTRA.POLAR>
0

>  <SCORE.INTRA.POLAR.0>
0

>  <SCORE.INTRA.REPUL>
0

>  <SCORE.INTRA.REPUL.0>
0

>  <SCORE.INTRA.SOLV>
0.0186728

>  <SCORE.INTRA.SOLV.lig_0>
-134.169

>  <SCORE.INTRA.VDW>
0.528992

>  <SCORE.INTRA.VDW.0>
-2.18386

>  <SCORE.INTRA.norm>
0.0114453

>  <SCORE.RESTR>
0.337416

>  <SCORE.RESTR.CAVITY>
0.337416

>  <SCORE.RESTR.norm>
0.00733513

>  <SCORE.SYSTEM>
0

>  <SCORE.SYSTEM.CONST>
0

>  <SCORE.SYSTEM.DIHEDRAL>
0

>  <SCORE.SYSTEM.SOLV>
0

>  <SCORE.SYSTEM.norm>
0

>  <SCORE.heavy>
46

>  <SCORE.norm>
0.850529

>  <RMSD>
15.662

$$$$
ligand
 OpenBabel02271912143D
libRbt.so/2013.1/901 2013/11/27
 46 52  0  0  0  0  0  0  0  0999 V2000
  -14.7422   -9.1669   20.1544 P   0  0  1  0  0  0  0  0  0  0  0  0
  -19.4655  -11.6896   17.7043 P   0  0  2  0  0  0  0  0  0  0  0  0
  -15.0489   -7.4460   20.4476 O   0  5  0  0  0  0  0  0  0  0  0  0
  -13.1458   -9.6651   20.7728 O   0  0  0  0  0  0  0  0  0  0  0  0
  -15.9873  -11.4379   20.7163 C   0  0  0  0  0  0  0  0  0  0  0  0
  -15.9087  -10.0205   20.8685 O   0  0  0  0  0  0  0  0  0  0  0  0
  -17.3946  -11.8844   21.0640 C   0  0  1  0  0  0  0  0  0  0  0  0
  -17.7481  -11.3831   22.3608 O   0  0  0  0  0  0  0  0  0  0  0  0
  -18.4492  -11.3387   20.1150 C   0  0  1  0  0  0  0  0  0  0  0  0
  -18.6933  -12.2186   19.0199 O   0  0  0  0  0  0  0  0  0  0  0  0
  -19.6698  -11.1877   21.0058 C   0  0  1  0  0  0  0  0  0  0  0  0
  -20.4222  -12.4035   21.0170 O   0  0  0  0  0  0  0  0  0  0  0  0
  -19.1161  -10.9477   22.3981 C   0  0  2  0  0  0  0  0  0  0  0  0
  -16.6001   -7.7440   16.0312 C   0  0  1  0  0  0  0  0  0  0  0  0
  -17.6033   -7.0446   25.6646 N   0  0  0  0  0  0  0  0  0  0  0  0
  -17.2977   -8.3700   25.7130 C   0  0  1  0  0  0  0  0  0  0  0  0
  -15.9847   -7.7325   17.4018 C   0  0  2  0  0  0  0  0  0  0  0  0
  -16.5008   -8.8065   26.7156 N   0  0  0  0  0  0  0  0  0  0  0  0
  -14.6410   -7.2758   17.2378 O   0  0  0  0  0  0  0  0  0  0  0  0
  -16.0438   -9.1751   17.8636 C   0  0  2  0  0  0  0  0  0  0  0  0
  -17.7636   -9.2704   24.7971 N   0  0  0  0  0  0  0  0  0  0  0  0
  -14.8820   -9.5408   18.5956 O   0  0  0  0  0  0  0  0  0  0  0  0
  -18.5640   -8.8827   23.7720 C   0  0  2  0  0  0  0  0  0  0  0  0
  -16.1315   -9.9888   16.5875 C   0  0  2  0  0  0  0  0  0  0  0  0
  -16.6338   -9.1007   15.5903 O   0  0  0  0  0  0  0  0  0  0  0  0
  -18.9280   -7.4584   23.6750 C   0  0  1  0  0  0  0  0  0  0  0  0
  -17.0620  -11.1899   16.7140 C   0  0  0  0  0  0  0  0  0  0  0  0
  -18.3846  -10.7286   16.9966 O   0  0  0  0  0  0  0  0  0  0  0  0
  -18.3941   -6.5355   24.6925 C   0  0  0  0  0  0  0  0  0  0  0  0
  -18.6967   -5.2130   24.6539 O   0  0  0  0  0  0  0  0  0  0  0  0
  -19.7162   -7.3309   22.6020 N   0  0  0  0  0  0  0  0  0  0  0  0
  -19.8537   -8.5713   22.0489 C   0  0  0  0  0  0  0  0  0  0  0  0
  -19.1679   -9.5025   22.7448 N   0  0  1  0  0  0  0  0  0  0  0  0
  -19.8284   -4.2016   13.9342 N   0  0  0  0  0  0  0  0  0  0  0  0
  -20.9330  -10.7716   18.1340 O   0  5  0  0  0  0  0  0  0  0  0  0
  -18.5321   -4.4860   13.6314 C   0  0  2  0  0  0  0  0  0  0  0  0
  -17.9143   -3.7908   12.6410 N   0  0  0  0  0  0  0  0  0  0  0  0
  -19.8898  -12.9853   16.5689 O   0  0  0  0  0  0  0  0  0  0  0  0
  -17.8318   -5.4489   14.2906 N   0  0  0  0  0  0  0  0  0  0  0  0
  -18.3947   -6.1793   15.2815 C   0  0  2  0  0  0  0  0  0  0  0  0
  -19.7905   -5.9164   15.6557 C   0  0  2  0  0  0  0  0  0  0  0  0
  -20.4974   -4.8547   14.9079 C   0  0  0  0  0  0  0  0  0  0  0  0
  -21.7869   -4.5393   15.1844 O   0  0  0  0  0  0  0  0  0  0  0  0
  -20.0865   -6.7647   16.6603 N   0  0  0  0  0  0  0  0  0  0  0  0
  -18.9701   -7.5133   16.9056 C   0  0  0  0  0  0  0  0  0  0  0  0
  -17.9605   -7.1568   16.0794 N   0  0  1  0  0  0  0  0  0  0  0  0
  1  3  1  1  0  0  0
  1  4  2  0  0  0  0
  1  6  1  0  0  0  0
  1 22  1  0  0  0  0
  2 28  1  0  0  0  0
  2 35  1  1  0  0  0
  2 38  2  0  0  0  0
  2 10  1  0  0  0  0
  5  6  1  0  0  0  0
  7  5  1  6  0  0  0
  7  8  1  0  0  0  0
  7  9  1  0  0  0  0
  9 10  1  6  0  0  0
  9 11  1  0  0  0  0
 11 12  1  1  0  0  0
 11 13  1  0  0  0  0
 13  8  1  6  0  0  0
 13 33  1  0  0  0  0
 14 46  1  0  0  0  0
 14 17  1  0  0  0  0
 14 25  1  1  0  0  0
 15 16  1  0  0  0  0
 15 29  1  0  0  0  0
 16 18  1  1  0  0  0
 16 21  1  0  0  0  0
 17 19  1  6  0  0  0
 17 20  1  0  0  0  0
 20 22  1  6  0  0  0
 20 24  1  0  0  0  0
 23 21  1  1  0  0  0
 23 26  1  0  0  0  0
 23 33  1  0  0  0  0
 24 25  1  6  0  0  0
 24 27  1  0  0  0  0
 26 29  1  6  0  0  0
 26 31  1  0  0  0  0
 27 28  1  0  0  0  0
 29 30  2  0  0  0  0
 31 32  1  0  0  0  0
 33 32  1  6  0  0  0
 34 36  1  0  0  0  0
 34 42  1  0  0  0  0
 36 37  1  6  0  0  0
 36 39  1  0  0  0  0
 40 39  1  1  0  0  0
 40 41  1  0  0  0  0
 40 46  1  0  0  0  0
 41 42  1  1  0  0  0
 41 44  1  0  0  0  0
 42 43  2  0  0  0  0
 44 45  1  0  0  0  0
 46 45  1  6  0  0  0
M  CHG  2   3  -1  35  -1
M  END
>  <CHROM.1>
-50.69905158,128.22159059,-17.89996245,-8.74861800,19.26272096,-0.61399902
1.44396871,-2.20594576

>  <Name>
ligand

>  <RI>
0

>  <Rbt.Current_Directory>
/home/itssahil/PROJECTS/Mol_Feturizer/Test_systems_manuscript/rnas/3mum

>  <Rbt.Executable>
rbdock ($Id: //depot/dev/client3/rdock/2013.1/src/exe/rbdock.cxx#4 $)

>  <Rbt.Library>
libRbt.so (2013.1, Build901 2013/11/27)

>  <Rbt.Parameter_File>
/export/apps/rDock/src/rDock_2013.1_src/data/scripts/dock_solv.prm

>  <Rbt.Receptor>
prm/blind_docking_60.prm

>  <SCORE>
40.2437

>  <SCORE.INTER>
39.4421

>  <SCORE.INTER.CONST>
1

>  <SCORE.INTER.POLAR>
0

>  <SCORE.INTER.ROT>
2

>  <SCORE.INTER.SOLV>
40.4961

>  <SCORE.INTER.VDW>
7.86274

>  <SCORE.INTER.norm>
0.857438

>  <SCORE.INTRA>
0.498022

>  <SCORE.INTRA.DIHEDRAL>
-0.0134855

>  <SCORE.INTRA.DIHEDRAL.0>
2.40424

>  <SCORE.INTRA.POLAR>
0

>  <SCORE.INTRA.POLAR.0>
0

>  <SCORE.INTRA.REPUL>
0

>  <SCORE.INTRA.REPUL.0>
0

>  <SCORE.INTRA.SOLV>
0.0493012

>  <SCORE.INTRA.SOLV.lig_0>
-134.169

>  <SCORE.INTRA.VDW>
0.480114

>  <SCORE.INTRA.VDW.0>
-2.18386

>  <SCORE.INTRA.norm>
0.0108266

>  <SCORE.RESTR>
0.303482

>  <SCORE.RESTR.CAVITY>
0.303482

>  <SCORE.RESTR.norm>
0.00659744

>  <SCORE.SYSTEM>
0

>  <SCORE.SYSTEM.CONST>
0

>  <SCORE.SYSTEM.DIHEDRAL>
0

>  <SCORE.SYSTEM.SOLV>
0

>  <SCORE.SYSTEM.norm>
0

>  <SCORE.heavy>
46

>  <SCORE.norm>
0.874862

>  <RMSD>
15.672

$$$$
ligand
 OpenBabel02271912143D
libRbt.so/2013.1/901 2013/11/27
 46 52  0  0  0  0  0  0  0  0999 V2000
  -19.5621  -10.5590   15.4982 P   0  0  1  0  0  0  0  0  0  0  0  0
  -15.1012   -9.8178   19.2702 P   0  0  2  0  0  0  0  0  0  0  0  0
  -20.7950   -9.3115   15.7539 O   0  5  0  0  0  0  0  0  0  0  0  0
  -19.9679  -11.6115   14.1173 O   0  0  0  0  0  0  0  0  0  0  0  0
  -16.9399  -10.5836   15.1149 C   0  0  0  0  0  0  0  0  0  0  0  0
  -18.1457   -9.8307   15.2478 O   0  0  0  0  0  0  0  0  0  0  0  0
  -15.7634   -9.6629   15.3777 C   0  0  1  0  0  0  0  0  0  0  0  0
  -15.8642   -8.5066   14.5346 O   0  0  0  0  0  0  0  0  0  0  0  0
  -15.7256   -9.1281   16.8000 C   0  0  1  0  0  0  0  0  0  0  0  0
  -14.9633   -9.9638   17.6681 O   0  0  0  0  0  0  0  0  0  0  0  0
  -15.0971   -7.7555   16.6357 C   0  0  1  0  0  0  0  0  0  0  0  0
  -13.6732   -7.8549   16.7194 O   0  0  0  0  0  0  0  0  0  0  0  0
  -15.4705   -7.3147   15.2326 C   0  0  2  0  0  0  0  0  0  0  0  0
  -20.1079  -10.6128   20.2074 C   0  0  1  0  0  0  0  0  0  0  0  0
  -20.4843   -6.2383   13.8557 N   0  0  0  0  0  0  0  0  0  0  0  0
  -19.7434   -7.3498   13.5950 C   0  0  1  0  0  0  0  0  0  0  0  0
  -20.3275  -10.3436   18.7457 C   0  0  2  0  0  0  0  0  0  0  0  0
  -20.3177   -8.3501   12.8878 N   0  0  0  0  0  0  0  0  0  0  0  0
  -21.4603  -11.1224   18.3569 O   0  0  0  0  0  0  0  0  0  0  0  0
  -19.0542  -10.8138   18.0710 C   0  0  2  0  0  0  0  0  0  0  0  0
  -18.4507   -7.4920   14.0141 N   0  0  0  0  0  0  0  0  0  0  0  0
  -19.3205  -11.4395   16.8231 O   0  0  0  0  0  0  0  0  0  0  0  0
  -17.8303   -6.5188   14.7279 C   0  0  2  0  0  0  0  0  0  0  0  0
  -18.4496  -11.8149   19.0357 C   0  0  2  0  0  0  0  0  0  0  0  0
  -19.0041  -11.5108   20.3145 O   0  0  0  0  0  0  0  0  0  0  0  0
  -18.5870   -5.2926   15.0348 C   0  0  1  0  0  0  0  0  0  0  0  0
  -16.9293  -11.7253   19.1063 C   0  0  0  0  0  0  0  0  0  0  0  0
  -16.5592  -10.4281   19.5778 O   0  0  0  0  0  0  0  0  0  0  0  0
  -19.9777   -5.1980   14.5561 C   0  0  0  0  0  0  0  0  0  0  0  0
  -20.7225   -4.0919   14.8084 O   0  0  0  0  0  0  0  0  0  0  0  0
  -17.7694   -4.4952   15.7310 N   0  0  0  0  0  0  0  0  0  0  0  0
  -16.5789   -5.1499   15.8635 C   0  0  0  0  0  0  0  0  0  0  0  0
  -16.6095   -6.3592   15.2650 N   0  0  1  0  0  0  0  0  0  0  0  0
  -19.9299   -8.2744   24.8838 N   0  0  0  0  0  0  0  0  0  0  0  0
  -15.0168   -8.1107   19.7796 O   0  5  0  0  0  0  0  0  0  0  0  0
  -20.2521   -9.5575   24.5631 C   0  0  2  0  0  0  0  0  0  0  0  0
  -20.5838  -10.4258   25.5541 N   0  0  0  0  0  0  0  0  0  0  0  0
  -13.8984  -10.7632   20.1688 O   0  0  0  0  0  0  0  0  0  0  0  0
  -20.2521  -10.0013   23.2765 N   0  0  0  0  0  0  0  0  0  0  0  0
  -19.9242   -9.1858   22.2472 C   0  0  2  0  0  0  0  0  0  0  0  0
  -19.5699   -7.7886   22.5301 C   0  0  2  0  0  0  0  0  0  0  0  0
  -19.5935   -7.3636   23.9460 C   0  0  0  0  0  0  0  0  0  0  0  0
  -19.2840   -6.0929   24.3039 O   0  0  0  0  0  0  0  0  0  0  0  0
  -19.3032   -7.2106   21.3422 N   0  0  0  0  0  0  0  0  0  0  0  0
  -19.4694   -8.1637   20.3772 C   0  0  0  0  0  0  0  0  0  0  0  0
  -19.8435   -9.3424   20.9245 N   0  0  1  0  0  0  0  0  0  0  0  0
  1  3  1  1  0  0  0
  1  4  2  0  0  0  0
  1  6  1  0  0  0  0
  1 22  1  0  0  0  0
  2 28  1  0  0  0  0
  2 35  1  1  0  0  0
  2 38  2  0  0  0  0
  2 10  1  0  0  0  0
  5  6  1  0  0  0  0
  7  5  1  1  0  0  0
  7  8  1  0  0  0  0
  7  9  1  0  0  0  0
  9 10  1  1  0  0  0
  9 11  1  0  0  0  0
 11 12  1  6  0  0  0
 11 13  1  0  0  0  0
 13  8  1  6  0  0  0
 13 33  1  0  0  0  0
 14 46  1  0  0  0  0
 14 17  1  0  0  0  0
 14 25  1  6  0  0  0
 15 16  1  0  0  0  0
 15 29  1  0  0  0  0
 16 18  1  6  0  0  0
 16 21  1  0  0  0  0
 17 19  1  6  0  0  0
 17 20  1  0  0  0  0
 20 22  1  6  0  0  0
 20 24  1  0  0  0  0
 23 21  1  6  0  0  0
 23 26  1  0  0  0  0
 23 33  1  0  0  0  0
 24 25  1  1  0  0  0
 24 27  1  0  0  0  0
 26 29  1  1  0  0  0
 26 31  1  0  0  0  0
 27 28  1  0  0  0  0
 29 30  2  0  0  0  0
 31 32  1  0  0  0  0
 33 32  1  1  0  0  0
 34 36  1  0  0  0  0
 34 42  1  0  0  0  0
 36 37  1  1  0  0  0
 36 39  1  0  0  0  0
 40 39  1  6  0  0  0
 40 41  1  0  0  0  0
 40 46  1  0  0  0  0
 41 42  1  6  0  0  0
 41 44  1  0  0  0  0
 42 43  2  0  0  0  0
 44 45  1  0  0  0  0
 46 45  1  1  0  0  0
M  CHG  2   3  -1  35  -1
M  END
>  <CHROM.1>
-0.94735105,163.16943446,-18.22339599,-8.84132149,18.03346158,1.41592878
0.32975729,-1.32683963

>  <Name>
ligand

>  <RI>
-1

>  <Rbt.Current_Directory>
/home/itssahil/PROJECTS/Mol_Feturizer/Test_systems_manuscript/rnas/3mum

>  <Rbt.Executable>
rbdock ($Id: //depot/dev/client3/rdock/2013.1/src/exe/rbdock.cxx#4 $)

>  <Rbt.Library>
libRbt.so (2013.1, Build901 2013/11/27)

>  <Rbt.Parameter_File>
/export/apps/rDock/src/rDock_2013.1_src/data/scripts/dock_solv.prm

>  <Rbt.Receptor>
prm/blind_docking_100.prm

>  <SCORE>
27.0669

>  <SCORE.INTER>
24.1695

>  <SCORE.INTER.CONST>
1

>  <SCORE.INTER.POLAR>
0

>  <SCORE.INTER.ROT>
2

>  <SCORE.INTER.SOLV>
37.8767

>  <SCORE.INTER.VDW>
-1.44587

>  <SCORE.INTER.norm>
0.525425

>  <SCORE.INTRA>
2.38707

>  <SCORE.INTRA.DIHEDRAL>
-0.0257209

>  <SCORE.INTRA.DIHEDRAL.0>
2.40424

>  <SCORE.INTRA.POLAR>
0

>  <SCORE.INTRA.POLAR.0>
0

>  <SCORE.INTRA.REPUL>
0

>  <SCORE.INTRA.REPUL.0>
0

>  <SCORE.INTRA.SOLV>
6.90335

>  <SCORE.INTRA.SOLV.lig_0>
-134.169

>  <SCORE.INTRA.VDW>
-1.05174

>  <SCORE.INTRA.VDW.0>
-2.18386

>  <SCORE.INTRA.norm>
0.0518928

>  <SCORE.RESTR>
0.510336

>  <SCORE.RESTR.CAVITY>
0.510336

>  <SCORE.RESTR.norm>
0.0110943

>  <SCORE.SYSTEM>
0

>  <SCORE.SYSTEM.CONST>
0

>  <SCORE.SYSTEM.DIHEDRAL>
0

>  <SCORE.SYSTEM.SOLV>
0

>  <SCORE.SYSTEM.norm>
0

>  <SCORE.heavy>
46

>  <SCORE.norm>
0.588412

>  <RMSD>
15.675

$$$$
ligand
 OpenBabel02271912143D
libRbt.so/2013.1/901 2013/11/27
 46 52  0  0  0  0  0  0  0  0999 V2000
  -14.6767   -9.2846   20.0594 P   0  0  1  0  0  0  0  0  0  0  0  0
  -19.4639  -11.6242   17.5523 P   0  0  2  0  0  0  0  0  0  0  0  0
  -14.9576   -7.5770   20.4425 O   0  5  0  0  0  0  0  0  0  0  0  0
  -13.0787   -9.8324   20.6300 O   0  0  0  0  0  0  0  0  0  0  0  0
  -15.9431  -11.5658   20.5244 C   0  0  0  0  0  0  0  0  0  0  0  0
  -15.8444  -10.1588   20.7462 O   0  0  0  0  0  0  0  0  0  0  0  0
  -17.3512  -12.0121   20.8689 C   0  0  1  0  0  0  0  0  0  0  0  0
  -17.6810  -11.5723   22.1940 O   0  0  0  0  0  0  0  0  0  0  0  0
  -18.4113  -11.4069   19.9632 C   0  0  1  0  0  0  0  0  0  0  0  0
  -18.6811  -12.2278   18.8289 O   0  0  0  0  0  0  0  0  0  0  0  0
  -19.6178  -11.2860   20.8773 C   0  0  1  0  0  0  0  0  0  0  0  0
  -20.3855  -12.4917   20.8382 O   0  0  0  0  0  0  0  0  0  0  0  0
  -19.0428  -11.1228   22.2720 C   0  0  2  0  0  0  0  0  0  0  0  0
  -16.5709   -7.6345   16.0388 C   0  0  1  0  0  0  0  0  0  0  0  0
  -17.3830   -7.3942   25.6684 N   0  0  0  0  0  0  0  0  0  0  0  0
  -17.0852   -8.7220   25.6401 C   0  0  1  0  0  0  0  0  0  0  0  0
  -15.9373   -7.6991   17.3995 C   0  0  2  0  0  0  0  0  0  0  0  0
  -16.2550   -9.2117   26.5896 N   0  0  0  0  0  0  0  0  0  0  0  0
  -14.5902   -7.2510   17.2399 O   0  0  0  0  0  0  0  0  0  0  0  0
  -16.0087   -9.1622   17.7895 C   0  0  2  0  0  0  0  0  0  0  0  0
  -17.5909   -9.5734   24.6988 N   0  0  0  0  0  0  0  0  0  0  0  0
  -14.8420   -9.5781   18.4861 O   0  0  0  0  0  0  0  0  0  0  0  0
  -18.4258   -9.1313   23.7245 C   0  0  2  0  0  0  0  0  0  0  0  0
  -16.1237   -9.9098   16.4756 C   0  0  2  0  0  0  0  0  0  0  0  0
  -16.6278   -8.9669   15.5312 O   0  0  0  0  0  0  0  0  0  0  0  0
  -18.7831   -7.7021   23.7115 C   0  0  1  0  0  0  0  0  0  0  0  0
  -17.0676  -11.1045   16.5549 C   0  0  0  0  0  0  0  0  0  0  0  0
  -18.3804  -10.6419   16.8786 O   0  0  0  0  0  0  0  0  0  0  0  0
  -18.2055   -6.8335   24.7526 C   0  0  0  0  0  0  0  0  0  0  0  0
  -18.5000   -5.5092   24.7906 O   0  0  0  0  0  0  0  0  0  0  0  0
  -19.6094   -7.5174   22.6761 N   0  0  0  0  0  0  0  0  0  0  0  0
  -19.7759   -8.7283   22.0680 C   0  0  0  0  0  0  0  0  0  0  0  0
  -19.0716   -9.6964   22.6911 N   0  0  1  0  0  0  0  0  0  0  0  0
  -19.9361   -4.2561   13.8870 N   0  0  0  0  0  0  0  0  0  0  0  0
  -20.9138  -10.7113   18.0477 O   0  5  0  0  0  0  0  0  0  0  0  0
  -18.6660   -4.5759   13.5164 C   0  0  2  0  0  0  0  0  0  0  0  0
  -18.1205   -3.9723   12.4283 N   0  0  0  0  0  0  0  0  0  0  0  0
  -19.9197  -12.8561   16.3596 O   0  0  0  0  0  0  0  0  0  0  0  0
  -17.9215   -5.4852   14.2028 N   0  0  0  0  0  0  0  0  0  0  0  0
  -18.4121   -6.1242   15.2905 C   0  0  2  0  0  0  0  0  0  0  0  0
  -19.7765   -5.8189   15.7410 C   0  0  2  0  0  0  0  0  0  0  0  0
  -20.5338   -4.8187   14.9587 C   0  0  0  0  0  0  0  0  0  0  0  0
  -21.7990   -4.4704   15.3000 O   0  0  0  0  0  0  0  0  0  0  0  0
  -20.0002   -6.5765   16.8330 N   0  0  0  0  0  0  0  0  0  0  0  0
  -18.8704   -7.3108   17.0597 C   0  0  0  0  0  0  0  0  0  0  0  0
  -17.9231   -7.0340   16.1352 N   0  0  1  0  0  0  0  0  0  0  0  0
  1  3  1  1  0  0  0
  1  4  2  0  0  0  0
  1  6  1  0  0  0  0
  1 22  1  0  0  0  0
  2 28  1  0  0  0  0
  2 35  1  1  0  0  0
  2 38  2  0  0  0  0
  2 10  1  0  0  0  0
  5  6  1  0  0  0  0
  7  5  1  6  0  0  0
  7  8  1  0  0  0  0
  7  9  1  0  0  0  0
  9 10  1  6  0  0  0
  9 11  1  0  0  0  0
 11 12  1  1  0  0  0
 11 13  1  0  0  0  0
 13  8  1  6  0  0  0
 13 33  1  0  0  0  0
 14 46  1  0  0  0  0
 14 17  1  0  0  0  0
 14 25  1  1  0  0  0
 15 16  1  0  0  0  0
 15 29  1  0  0  0  0
 16 18  1  1  0  0  0
 16 21  1  0  0  0  0
 17 19  1  6  0  0  0
 17 20  1  0  0  0  0
 20 22  1  6  0  0  0
 20 24  1  0  0  0  0
 23 21  1  1  0  0  0
 23 26  1  0  0  0  0
 23 33  1  0  0  0  0
 24 25  1  6  0  0  0
 24 27  1  0  0  0  0
 26 29  1  6  0  0  0
 26 31  1  0  0  0  0
 27 28  1  0  0  0  0
 29 30  2  0  0  0  0
 31 32  1  0  0  0  0
 33 32  1  6  0  0  0
 34 36  1  0  0  0  0
 34 42  1  0  0  0  0
 36 37  1  6  0  0  0
 36 39  1  0  0  0  0
 40 39  1  1  0  0  0
 40 41  1  0  0  0  0
 40 46  1  0  0  0  0
 41 42  1  1  0  0  0
 41 44  1  0  0  0  0
 42 43  2  0  0  0  0
 44 45  1  0  0  0  0
 46 45  1  6  0  0  0
M  CHG  2   3  -1  35  -1
M  END
>  <CHROM.1>
-49.30921893,136.69097920,-17.85157946,-8.81600469,19.19898859,-0.52404899
1.42405220,-2.27087027

>  <Name>
ligand

>  <RI>
-1

>  <Rbt.Current_Directory>
/home/itssahil/PROJECTS/Mol_Feturizer/Test_systems_manuscript/rnas/3mum

>  <Rbt.Executable>
rbdock ($Id: //depot/dev/client3/rdock/2013.1/src/exe/rbdock.cxx#4 $)

>  <Rbt.Library>
libRbt.so (2013.1, Build901 2013/11/27)

>  <Rbt.Parameter_File>
/export/apps/rDock/src/rDock_2013.1_src/data/scripts/dock_solv.prm

>  <Rbt.Receptor>
prm/blind_docking_80.prm

>  <SCORE>
39.9935

>  <SCORE.INTER>
38.4891

>  <SCORE.INTER.CONST>
1

>  <SCORE.INTER.POLAR>
0

>  <SCORE.INTER.ROT>
2

>  <SCORE.INTER.SOLV>
39.4833

>  <SCORE.INTER.VDW>
7.56497

>  <SCORE.INTER.norm>
0.83672

>  <SCORE.INTRA>
0.525964

>  <SCORE.INTRA.DIHEDRAL>
-0.023062

>  <SCORE.INTRA.DIHEDRAL.0>
2.40424

>  <SCORE.INTRA.POLAR>
0

>  <SCORE.INTRA.POLAR.0>
0

>  <SCORE.INTRA.REPUL>
0

>  <SCORE.INTRA.REPUL.0>
0

>  <SCORE.INTRA.SOLV>
0.0212877

>  <SCORE.INTRA.SOLV.lig_0>
-134.169

>  <SCORE.INTRA.VDW>
0.526851

>  <SCORE.INTRA.VDW.0>
-2.18386

>  <SCORE.INTRA.norm>
0.011434

>  <SCORE.RESTR>
0.978421

>  <SCORE.RESTR.CAVITY>
0.978421

>  <SCORE.RESTR.norm>
0.02127

>  <SCORE.SYSTEM>
0

>  <SCORE.SYSTEM.CONST>
0

>  <SCORE.SYSTEM.DIHEDRAL>
0

>  <SCORE.SYSTEM.SOLV>
0

>  <SCORE.SYSTEM.norm>
0

>  <SCORE.heavy>
46

>  <SCORE.norm>
0.869424

>  <RMSD>
15.681

$$$$
ligand
 OpenBabel02271912143D
libRbt.so/2013.1/901 2013/11/27
 46 52  0  0  0  0  0  0  0  0999 V2000
  -19.7042  -11.8058   17.6138 P   0  0  1  0  0  0  0  0  0  0  0  0
  -14.7202   -9.4644   19.7003 P   0  0  2  0  0  0  0  0  0  0  0  0
  -21.0768  -10.7418   17.9679 O   0  5  0  0  0  0  0  0  0  0  0  0
  -20.1999  -13.2185   16.6453 O   0  0  0  0  0  0  0  0  0  0  0  0
  -17.3190  -11.5160   16.4956 C   0  0  0  0  0  0  0  0  0  0  0  0
  -18.5885  -10.9511   16.8238 O   0  0  0  0  0  0  0  0  0  0  0  0
  -16.3445  -10.3872   16.2184 C   0  0  1  0  0  0  0  0  0  0  0  0
  -16.9012   -9.5071   15.2318 O   0  0  0  0  0  0  0  0  0  0  0  0
  -16.0728   -9.5164   17.4343 C   0  0  1  0  0  0  0  0  0  0  0  0
  -14.9556   -9.9807   18.1888 O   0  0  0  0  0  0  0  0  0  0  0  0
  -15.8201   -8.1471   16.8283 C   0  0  1  0  0  0  0  0  0  0  0  0
  -14.4337   -7.9995   16.5112 O   0  0  0  0  0  0  0  0  0  0  0  0
  -16.6168   -8.1328   15.5370 C   0  0  2  0  0  0  0  0  0  0  0  0
  -19.0396  -10.7716   22.1926 C   0  0  1  0  0  0  0  0  0  0  0  0
  -19.8187   -4.2347   13.8801 N   0  0  0  0  0  0  0  0  0  0  0  0
  -18.6102   -4.6198   13.3864 C   0  0  1  0  0  0  0  0  0  0  0  0
  -19.6682  -10.9119   20.8352 C   0  0  2  0  0  0  0  0  0  0  0  0
  -18.1086   -3.9463   12.3256 N   0  0  0  0  0  0  0  0  0  0  0  0
  -20.6637  -11.9296   20.9540 O   0  0  0  0  0  0  0  0  0  0  0  0
  -18.5311  -11.3307   19.9246 C   0  0  2  0  0  0  0  0  0  0  0  0
  -17.8882   -5.6503   13.9187 N   0  0  0  0  0  0  0  0  0  0  0  0
  -18.9553  -12.2806   18.9565 O   0  0  0  0  0  0  0  0  0  0  0  0
  -18.3484   -6.3582   14.9812 C   0  0  2  0  0  0  0  0  0  0  0  0
  -17.5026  -11.9538   20.8479 C   0  0  2  0  0  0  0  0  0  0  0  0
  -17.7752  -11.4315   22.1472 O   0  0  0  0  0  0  0  0  0  0  0  0
  -19.6509   -5.9801   15.5564 C   0  0  1  0  0  0  0  0  0  0  0  0
  -16.0697  -11.6136   20.4534 C   0  0  0  0  0  0  0  0  0  0  0  0
  -15.8867  -10.1985   20.5328 O   0  0  0  0  0  0  0  0  0  0  0  0
  -20.3830   -4.8602   14.9383 C   0  0  0  0  0  0  0  0  0  0  0  0
  -21.5869   -4.4672   15.4264 O   0  0  0  0  0  0  0  0  0  0  0  0
  -19.8786   -6.8088   16.5813 N   0  0  0  0  0  0  0  0  0  0  0  0
  -18.8102   -7.6544   16.6652 C   0  0  0  0  0  0  0  0  0  0  0  0
  -17.8924   -7.3888   15.7120 N   0  0  1  0  0  0  0  0  0  0  0  0
  -16.8655   -7.3535   25.5029 N   0  0  0  0  0  0  0  0  0  0  0  0
  -14.8869   -7.6927   19.8181 O   0  5  0  0  0  0  0  0  0  0  0  0
  -16.8011   -8.7132   25.4878 C   0  0  2  0  0  0  0  0  0  0  0  0
  -16.0762   -9.3537   26.4418 N   0  0  0  0  0  0  0  0  0  0  0  0
  -13.1556   -9.9573   20.3765 O   0  0  0  0  0  0  0  0  0  0  0  0
  -17.4413   -9.4553   24.5435 N   0  0  0  0  0  0  0  0  0  0  0  0
  -18.1730   -8.8745   23.5640 C   0  0  2  0  0  0  0  0  0  0  0  0
  -18.2824   -7.4101   23.5294 C   0  0  2  0  0  0  0  0  0  0  0  0
  -17.5698   -6.6586   24.5847 C   0  0  0  0  0  0  0  0  0  0  0  0
  -17.6148   -5.3043   24.6357 O   0  0  0  0  0  0  0  0  0  0  0  0
  -19.0654   -7.1070   22.4752 N   0  0  0  0  0  0  0  0  0  0  0  0
  -19.4243   -8.2838   21.8807 C   0  0  0  0  0  0  0  0  0  0  0  0
  -18.8895   -9.3377   22.5381 N   0  0  1  0  0  0  0  0  0  0  0  0
  1  3  1  1  0  0  0
  1  4  2  0  0  0  0
  1  6  1  0  0  0  0
  1 22  1  0  0  0  0
  2 28  1  0  0  0  0
  2 35  1  1  0  0  0
  2 38  2  0  0  0  0
  2 10  1  0  0  0  0
  5  6  1  0  0  0  0
  7  5  1  1  0  0  0
  7  8  1  0  0  0  0
  7  9  1  0  0  0  0
  9 10  1  6  0  0  0
  9 11  1  0  0  0  0
 11 12  1  6  0  0  0
 11 13  1  0  0  0  0
 13  8  1  1  0  0  0
 13 33  1  0  0  0  0
 14 46  1  0  0  0  0
 14 17  1  0  0  0  0
 14 25  1  6  0  0  0
 15 16  1  0  0  0  0
 15 29  1  0  0  0  0
 16 18  1  1  0  0  0
 16 21  1  0  0  0  0
 17 19  1  1  0  0  0
 17 20  1  0  0  0  0
 20 22  1  6  0  0  0
 20 24  1  0  0  0  0
 23 21  1  1  0  0  0
 23 26  1  0  0  0  0
 23 33  1  0  0  0  0
 24 25  1  1  0  0  0
 24 27  1  0  0  0  0
 26 29  1  6  0  0  0
 26 31  1  0  0  0  0
 27 28  1  0  0  0  0
 29 30  2  0  0  0  0
 31 32  1  0  0  0  0
 33 32  1  6  0  0  0
 34 36  1  0  0  0  0
 34 42  1  0  0  0  0
 36 37  1  6  0  0  0
 36 39  1  0  0  0  0
 40 39  1  1  0  0  0
 40 41  1  0  0  0  0
 40 46  1  0  0  0  0
 41 42  1  1  0  0  0
 41 44  1  0  0  0  0
 42 43  2  0  0  0  0
 44 45  1  0  0  0  0
 46 45  1  6  0  0  0
M  CHG  2   3  -1  35  -1
M  END
>  <CHROM.1>
-117.74256233,-168.36294931,-17.81097258,-8.89452259,19.02492660,2.95457294
-1.42793465,0.10812073

>  <Name>
ligand

>  <RI>
-1

>  <Rbt.Current_Directory>
/home/itssahil/PROJECTS/Mol_Feturizer/Test_systems_manuscript/rnas/3mum

>  <Rbt.Executable>
rbdock ($Id: //depot/dev/client3/rdock/2013.1/src/exe/rbdock.cxx#4 $)

>  <Rbt.Library>
libRbt.so (2013.1, Build901 2013/11/27)

>  <Rbt.Parameter_File>
/export/apps/rDock/src/rDock_2013.1_src/data/scripts/dock_solv.prm

>  <Rbt.Receptor>
prm/blind_docking_80.prm

>  <SCORE>
22.3546

>  <SCORE.INTER>
21.6818

>  <SCORE.INTER.CONST>
1

>  <SCORE.INTER.POLAR>
0

>  <SCORE.INTER.ROT>
2

>  <SCORE.INTER.SOLV>
40.5839

>  <SCORE.INTER.VDW>
-4.00679

>  <SCORE.INTER.norm>
0.471343

>  <SCORE.INTRA>
0.412151

>  <SCORE.INTRA.DIHEDRAL>
0.0105996

>  <SCORE.INTRA.DIHEDRAL.0>
2.40424

>  <SCORE.INTRA.POLAR>
0

>  <SCORE.INTRA.POLAR.0>
0

>  <SCORE.INTRA.REPUL>
0

>  <SCORE.INTRA.REPUL.0>
0

>  <SCORE.INTRA.SOLV>
0.042582

>  <SCORE.INTRA.SOLV.lig_0>
-134.169

>  <SCORE.INTRA.VDW>
0.38556

>  <SCORE.INTRA.VDW.0>
-2.18386

>  <SCORE.INTRA.norm>
0.0089598

>  <SCORE.RESTR>
0.260693

>  <SCORE.RESTR.CAVITY>
0.260693

>  <SCORE.RESTR.norm>
0.00566724

>  <SCORE.SYSTEM>
0

>  <SCORE.SYSTEM.CONST>
0

>  <SCORE.SYSTEM.DIHEDRAL>
0

>  <SCORE.SYSTEM.SOLV>
0

>  <SCORE.SYSTEM.norm>
0

>  <SCORE.heavy>
46

>  <SCORE.norm>
0.48597

>  <RMSD>
15.683

$$$$
ligand
 OpenBabel02271912143D
libRbt.so/2013.1/901 2013/11/27
 46 52  0  0  0  0  0  0  0  0999 V2000
  -19.5102   -9.7190   20.2067 P   0  0  1  0  0  0  0  0  0  0  0  0
  -15.5552   -7.6283   16.3775 P   0  0  2  0  0  0  0  0  0  0  0  0
  -19.9524  -11.3828   19.7847 O   0  5  0  0  0  0  0  0  0  0  0  0
  -20.3009   -9.1909   21.7151 O   0  0  0  0  0  0  0  0  0  0  0  0
  -17.2451   -8.3989   20.5945 C   0  0  0  0  0  0  0  0  0  0  0  0
  -17.9071   -9.6420   20.3602 O   0  0  0  0  0  0  0  0  0  0  0  0
  -15.7847   -8.5493   20.2132 C   0  0  1  0  0  0  0  0  0  0  0  0
  -15.2275   -9.6823   20.8941 O   0  0  0  0  0  0  0  0  0  0  0  0
  -15.5758   -8.8206   18.7323 C   0  0  1  0  0  0  0  0  0  0  0  0
  -15.4038   -7.6186   17.9849 O   0  0  0  0  0  0  0  0  0  0  0  0
  -14.3279   -9.6857   18.7129 C   0  0  1  0  0  0  0  0  0  0  0  0
  -13.1611   -8.8618   18.6458 O   0  0  0  0  0  0  0  0  0  0  0  0
  -14.3307  -10.4142   20.0440 C   0  0  2  0  0  0  0  0  0  0  0  0
  -20.3214   -9.4087   15.5460 C   0  0  1  0  0  0  0  0  0  0  0  0
  -13.7379  -15.5643   21.1917 N   0  0  0  0  0  0  0  0  0  0  0  0
  -12.9805  -14.5050   21.5874 C   0  0  1  0  0  0  0  0  0  0  0  0
  -20.2755   -9.9192   16.9583 C   0  0  2  0  0  0  0  0  0  0  0  0
  -11.9140  -14.7437   22.3851 N   0  0  0  0  0  0  0  0  0  0  0  0
  -21.6179   -9.8818   17.4456 O   0  0  0  0  0  0  0  0  0  0  0  0
  -19.3756   -8.9446   17.6920 C   0  0  2  0  0  0  0  0  0  0  0  0
  -13.2517  -13.2201   21.2105 N   0  0  0  0  0  0  0  0  0  0  0  0
  -19.8387   -8.6929   19.0117 O   0  0  0  0  0  0  0  0  0  0  0  0
  -14.3105  -12.9281   20.4133 C   0  0  2  0  0  0  0  0  0  0  0  0
  -19.4295   -7.6714   16.8707 C   0  0  2  0  0  0  0  0  0  0  0  0
  -19.8368   -8.0666   15.5618 O   0  0  0  0  0  0  0  0  0  0  0  0
  -15.1615  -14.0394   19.9538 C   0  0  1  0  0  0  0  0  0  0  0  0
  -18.0831   -6.9606   16.7914 C   0  0  0  0  0  0  0  0  0  0  0  0
  -17.1379   -7.8204   16.1515 O   0  0  0  0  0  0  0  0  0  0  0  0
  -14.8184  -15.4034   20.3942 C   0  0  0  0  0  0  0  0  0  0  0  0
  -15.5660  -16.4659   20.0013 O   0  0  0  0  0  0  0  0  0  0  0  0
  -16.1191  -13.5048   19.1881 N   0  0  0  0  0  0  0  0  0  0  0  0
  -15.9058  -12.1569   19.1525 C   0  0  0  0  0  0  0  0  0  0  0  0
  -14.8257  -11.8071   19.8822 N   0  0  1  0  0  0  0  0  0  0  0  0
  -17.8972   -9.7627   10.9237 N   0  0  0  0  0  0  0  0  0  0  0  0
  -14.6497   -8.9789   15.6448 O   0  5  0  0  0  0  0  0  0  0  0  0
  -18.6369   -8.7452   11.4438 C   0  0  2  0  0  0  0  0  0  0  0  0
  -18.8134   -7.6129   10.7139 N   0  0  0  0  0  0  0  0  0  0  0  0
  -15.0626   -6.1037   15.6152 O   0  0  0  0  0  0  0  0  0  0  0  0
  -19.2075   -8.8250   12.6768 N   0  0  0  0  0  0  0  0  0  0  0  0
  -19.0618   -9.9239   13.4536 C   0  0  2  0  0  0  0  0  0  0  0  0
  -18.2765  -11.0566   12.9454 C   0  0  2  0  0  0  0  0  0  0  0  0
  -17.6864  -10.9134   11.5973 C   0  0  0  0  0  0  0  0  0  0  0  0
  -16.9482  -11.9069   11.0438 O   0  0  0  0  0  0  0  0  0  0  0  0
  -18.3042  -12.0048   13.9027 N   0  0  0  0  0  0  0  0  0  0  0  0
  -19.0444  -11.5155   14.9418 C   0  0  0  0  0  0  0  0  0  0  0  0
  -19.4970  -10.2713   14.6661 N   0  0  1  0  0  0  0  0  0  0  0  0
  1  3  1  6  0  0  0
  1  4  2  0  0  0  0
  1  6  1  0  0  0  0
  1 22  1  0  0  0  0
  2 28  1  0  0  0  0
  2 35  1  6  0  0  0
  2 38  2  0  0  0  0
  2 10  1  0  0  0  0
  5  6  1  0  0  0  0
  7  5  1  6  0  0  0
  7  8  1  0  0  0  0
  7  9  1  0  0  0  0
  9 10  1  6  0  0  0
  9 11  1  0  0  0  0
 11 12  1  1  0  0  0
 11 13  1  0  0  0  0
 13  8  1  1  0  0  0
 13 33  1  0  0  0  0
 14 46  1  0  0  0  0
 14 17  1  0  0  0  0
 14 25  1  1  0  0  0
 15 16  1  0  0  0  0
 15 29  1  0  0  0  0
 16 18  1  6  0  0  0
 16 21  1  0  0  0  0
 17 19  1  1  0  0  0
 17 20  1  0  0  0  0
 20 22  1  1  0  0  0
 20 24  1  0  0  0  0
 23 21  1  6  0  0  0
 23 26  1  0  0  0  0
 23 33  1  0  0  0  0
 24 25  1  6  0  0  0
 24 27  1  0  0  0  0
 26 29  1  1  0  0  0
 26 31  1  0  0  0  0
 27 28  1  0  0  0  0
 29 30  2  0  0  0  0
 31 32  1  0  0  0  0
 33 32  1  1  0  0  0
 34 36  1  0  0  0  0
 34 42  1  0  0  0  0
 36 37  1  1  0  0  0
 36 39  1  0  0  0  0
 40 39  1  6  0  0  0
 40 41  1  0  0  0  0
 40 46  1  0  0  0  0
 41 42  1  6  0  0  0
 41 44  1  0  0  0  0
 42 43  2  0  0  0  0
 44 45  1  0  0  0  0
 46 45  1  1  0  0  0
M  CHG  2   3  -1  35  -1
M  END
>  <CHROM.1>
-107.68970383,-162.71285513,-17.04480155,-10.25468514,17.49588370,0.85571856
-0.84772910,1.48861124

>  <Name>
ligand

>  <RI>
-1

>  <Rbt.Current_Directory>
/home/itssahil/PROJECTS/Mol_Feturizer/Test_systems_manuscript/rnas/3mum

>  <Rbt.Executable>
rbdock ($Id: //depot/dev/client3/rdock/2013.1/src/exe/rbdock.cxx#4 $)

>  <Rbt.Library>
libRbt.so (2013.1, Build901 2013/11/27)

>  <Rbt.Parameter_File>
/export/apps/rDock/src/rDock_2013.1_src/data/scripts/dock_solv.prm

>  <Rbt.Receptor>
prm/blind_docking_80.prm

>  <SCORE>
1.37623

>  <SCORE.INTER>
-1.77225

>  <SCORE.INTER.CONST>
1

>  <SCORE.INTER.POLAR>
0

>  <SCORE.INTER.ROT>
2

>  <SCORE.INTER.SOLV>
37.2457

>  <SCORE.INTER.VDW>
-18.5301

>  <SCORE.INTER.norm>
-0.0385272

>  <SCORE.INTRA>
0.456279

>  <SCORE.INTRA.DIHEDRAL>
0.014885

>  <SCORE.INTRA.DIHEDRAL.0>
2.40424

>  <SCORE.INTRA.POLAR>
0

>  <SCORE.INTRA.POLAR.0>
0

>  <SCORE.INTRA.REPUL>
0

>  <SCORE.INTRA.REPUL.0>
0

>  <SCORE.INTRA.SOLV>
0.0307551

>  <SCORE.INTRA.SOLV.lig_0>
-134.169

>  <SCORE.INTRA.VDW>
0.433459

>  <SCORE.INTRA.VDW.0>
-2.18386

>  <SCORE.INTRA.norm>
0.00991911

>  <SCORE.RESTR>
2.6922

>  <SCORE.RESTR.CAVITY>
2.6922

>  <SCORE.RESTR.norm>
0.0585261

>  <SCORE.SYSTEM>
0

>  <SCORE.SYSTEM.CONST>
0

>  <SCORE.SYSTEM.DIHEDRAL>
0

>  <SCORE.SYSTEM.SOLV>
0

>  <SCORE.SYSTEM.norm>
0

>  <SCORE.heavy>
46

>  <SCORE.norm>
0.029918

>  <RMSD>
15.691

$$$$
ligand
 OpenBabel02271912143D
libRbt.so/2013.1/901 2013/11/27
 46 52  0  0  0  0  0  0  0  0999 V2000
  -14.6314   -9.4140   19.9095 P   0  0  1  0  0  0  0  0  0  0  0  0
  -19.5226  -11.7293   17.5875 P   0  0  2  0  0  0  0  0  0  0  0  0
  -14.8773   -7.6960   20.2695 O   0  5  0  0  0  0  0  0  0  0  0  0
  -13.0248   -9.9743   20.4425 O   0  0  0  0  0  0  0  0  0  0  0  0
  -15.9146  -11.6682   20.4530 C   0  0  0  0  0  0  0  0  0  0  0  0
  -15.7901  -10.2591   20.6461 O   0  0  0  0  0  0  0  0  0  0  0  0
  -17.3178  -12.0882   20.8469 C   0  0  1  0  0  0  0  0  0  0  0  0
  -17.6020  -11.6203   22.1729 O   0  0  0  0  0  0  0  0  0  0  0  0
  -18.3959  -11.4842   19.9620 C   0  0  1  0  0  0  0  0  0  0  0  0
  -18.7106  -12.3212   18.8513 O   0  0  0  0  0  0  0  0  0  0  0  0
  -19.5730  -11.3299   20.9089 C   0  0  1  0  0  0  0  0  0  0  0  0
  -20.3580  -12.5250   20.9144 O   0  0  0  0  0  0  0  0  0  0  0  0
  -18.9546  -11.1501   22.2828 C   0  0  2  0  0  0  0  0  0  0  0  0
  -16.6215   -7.8088   15.9170 C   0  0  1  0  0  0  0  0  0  0  0  0
  -17.1738   -7.3922   25.5843 N   0  0  0  0  0  0  0  0  0  0  0  0
  -16.8999   -8.7254   25.5751 C   0  0  1  0  0  0  0  0  0  0  0  0
  -15.9486   -7.8583   17.2594 C   0  0  2  0  0  0  0  0  0  0  0  0
  -16.0630   -9.2130   26.5199 N   0  0  0  0  0  0  0  0  0  0  0  0
  -14.6008   -7.4323   17.0521 O   0  0  0  0  0  0  0  0  0  0  0  0
  -16.0284   -9.3130   17.6779 C   0  0  2  0  0  0  0  0  0  0  0  0
  -17.4360   -9.5842   24.6576 N   0  0  0  0  0  0  0  0  0  0  0  0
  -14.8473   -9.7331   18.3472 O   0  0  0  0  0  0  0  0  0  0  0  0
  -18.2788   -9.1445   23.6891 C   0  0  2  0  0  0  0  0  0  0  0  0
  -16.1927  -10.0822   16.3818 C   0  0  2  0  0  0  0  0  0  0  0  0
  -16.7117   -9.1491   15.4356 O   0  0  0  0  0  0  0  0  0  0  0  0
  -18.6109   -7.7096   23.6560 C   0  0  1  0  0  0  0  0  0  0  0  0
  -17.1501  -11.2616   16.5106 C   0  0  0  0  0  0  0  0  0  0  0  0
  -18.4462  -10.7748   16.8644 O   0  0  0  0  0  0  0  0  0  0  0  0
  -18.0011   -6.8332   24.6719 C   0  0  0  0  0  0  0  0  0  0  0  0
  -18.2716   -5.5033   24.6907 O   0  0  0  0  0  0  0  0  0  0  0  0
  -19.4508   -7.5286   22.6309 N   0  0  0  0  0  0  0  0  0  0  0  0
  -19.6486   -8.7468   22.0475 C   0  0  0  0  0  0  0  0  0  0  0  0
  -18.9513   -9.7161   22.6766 N   0  0  1  0  0  0  0  0  0  0  0  0
  -20.0098   -4.4354   13.7939 N   0  0  0  0  0  0  0  0  0  0  0  0
  -20.9445  -10.7872   18.1087 O   0  5  0  0  0  0  0  0  0  0  0  0
  -18.7566   -4.7815   13.3906 C   0  0  2  0  0  0  0  0  0  0  0  0
  -18.2387   -4.2112   12.2714 N   0  0  0  0  0  0  0  0  0  0  0  0
  -20.0306  -12.9756   16.4314 O   0  0  0  0  0  0  0  0  0  0  0  0
  -18.0023   -5.6846   14.0744 N   0  0  0  0  0  0  0  0  0  0  0  0
  -18.4659   -6.2911   15.1922 C   0  0  2  0  0  0  0  0  0  0  0  0
  -19.8108   -5.9564   15.6787 C   0  0  2  0  0  0  0  0  0  0  0  0
  -20.5799   -4.9644   14.8973 C   0  0  0  0  0  0  0  0  0  0  0  0
  -21.8287   -4.5906   15.2705 O   0  0  0  0  0  0  0  0  0  0  0  0
  -20.0091   -6.6849   16.7951 N   0  0  0  0  0  0  0  0  0  0  0  0
  -18.8823   -7.4294   17.0030 C   0  0  0  0  0  0  0  0  0  0  0  0
  -17.9618   -7.1875   16.0423 N   0  0  1  0  0  0  0  0  0  0  0  0
  1  3  1  1  0  0  0
  1  4  2  0  0  0  0
  1  6  1  0  0  0  0
  1 22  1  0  0  0  0
  2 28  1  0  0  0  0
  2 35  1  1  0  0  0
  2 38  2  0  0  0  0
  2 10  1  0  0  0  0
  5  6  1  0  0  0  0
  7  5  1  6  0  0  0
  7  8  1  0  0  0  0
  7  9  1  0  0  0  0
  9 10  1  6  0  0  0
  9 11  1  0  0  0  0
 11 12  1  1  0  0  0
 11 13  1  0  0  0  0
 13  8  1  6  0  0  0
 13 33  1  0  0  0  0
 14 46  1  0  0  0  0
 14 17  1  0  0  0  0
 14 25  1  1  0  0  0
 15 16  1  0  0  0  0
 15 29  1  0  0  0  0
 16 18  1  1  0  0  0
 16 21  1  0  0  0  0
 17 19  1  6  0  0  0
 17 20  1  0  0  0  0
 20 22  1  6  0  0  0
 20 24  1  0  0  0  0
 23 21  1  1  0  0  0
 23 26  1  0  0  0  0
 23 33  1  0  0  0  0
 24 25  1  6  0  0  0
 24 27  1  0  0  0  0
 26 29  1  6  0  0  0
 26 31  1  0  0  0  0
 27 28  1  0  0  0  0
 29 30  2  0  0  0  0
 31 32  1  0  0  0  0
 33 32  1  6  0  0  0
 34 36  1  0  0  0  0
 34 42  1  0  0  0  0
 36 37  1  6  0  0  0
 36 39  1  0  0  0  0
 40 39  1  1  0  0  0
 40 41  1  0  0  0  0
 40 46  1  0  0  0  0
 41 42  1  1  0  0  0
 41 44  1  0  0  0  0
 42 43  2  0  0  0  0
 44 45  1  0  0  0  0
 46 45  1  6  0  0  0
M  CHG  2   3  -1  35  -1
M  END
>  <CHROM.1>
-50.10469597,137.05043412,-17.82775648,-8.91776449,19.13602574,-0.37880779
1.41081300,-2.43325535

>  <Name>
ligand

>  <RI>
-1

>  <Rbt.Current_Directory>
/home/itssahil/PROJECTS/Mol_Feturizer/Test_systems_manuscript/rnas/3mum

>  <Rbt.Executable>
rbdock ($Id: //depot/dev/client3/rdock/2013.1/src/exe/rbdock.cxx#4 $)

>  <Rbt.Library>
libRbt.so (2013.1, Build901 2013/11/27)

>  <Rbt.Parameter_File>
/export/apps/rDock/src/rDock_2013.1_src/data/scripts/dock_solv.prm

>  <Rbt.Receptor>
prm/blind_docking_40.prm

>  <SCORE>
41.2374

>  <SCORE.INTER>
40.0299

>  <SCORE.INTER.CONST>
1

>  <SCORE.INTER.POLAR>
0

>  <SCORE.INTER.ROT>
2

>  <SCORE.INTER.SOLV>
40.0086

>  <SCORE.INTER.VDW>
8.41707

>  <SCORE.INTER.norm>
0.870215

>  <SCORE.INTRA>
0.569616

>  <SCORE.INTRA.DIHEDRAL>
-0.0235299

>  <SCORE.INTRA.DIHEDRAL.0>
2.40424

>  <SCORE.INTRA.POLAR>
0

>  <SCORE.INTRA.POLAR.0>
0

>  <SCORE.INTRA.REPUL>
0

>  <SCORE.INTRA.REPUL.0>
0

>  <SCORE.INTRA.SOLV>
0.0193569

>  <SCORE.INTRA.SOLV.lig_0>
-134.169

>  <SCORE.INTRA.VDW>
0.571702

>  <SCORE.INTRA.VDW.0>
-2.18386

>  <SCORE.INTRA.norm>
0.012383

>  <SCORE.RESTR>
0.637838

>  <SCORE.RESTR.CAVITY>
0.637838

>  <SCORE.RESTR.norm>
0.013866

>  <SCORE.SYSTEM>
0

>  <SCORE.SYSTEM.CONST>
0

>  <SCORE.SYSTEM.DIHEDRAL>
0

>  <SCORE.SYSTEM.SOLV>
0

>  <SCORE.SYSTEM.norm>
0

>  <SCORE.heavy>
46

>  <SCORE.norm>
0.896464

>  <RMSD>
15.726

$$$$
ligand
 OpenBabel02271912143D
libRbt.so/2013.1/901 2013/11/27
 46 52  0  0  0  0  0  0  0  0999 V2000
  -14.9475   -9.8482   19.2964 P   0  0  1  0  0  0  0  0  0  0  0  0
  -19.4214  -10.7152   15.5670 P   0  0  2  0  0  0  0  0  0  0  0  0
  -14.9840   -8.1907   19.9232 O   0  5  0  0  0  0  0  0  0  0  0  0
  -13.6419  -10.8053   20.0439 O   0  0  0  0  0  0  0  0  0  0  0  0
  -16.6845  -11.8400   19.0994 C   0  0  0  0  0  0  0  0  0  0  0  0
  -16.3779  -10.5333   19.5860 O   0  0  0  0  0  0  0  0  0  0  0  0
  -18.1916  -12.0118   19.0913 C   0  0  1  0  0  0  0  0  0  0  0  0
  -18.7149  -11.6992   20.3898 O   0  0  0  0  0  0  0  0  0  0  0  0
  -18.8980  -11.0701   18.1297 C   0  0  1  0  0  0  0  0  0  0  0  0
  -19.0612  -11.6465   16.8358 O   0  0  0  0  0  0  0  0  0  0  0  0
  -20.2310  -10.8171   18.8117 C   0  0  1  0  0  0  0  0  0  0  0  0
  -21.1812  -11.8087   18.4141 O   0  0  0  0  0  0  0  0  0  0  0  0
  -19.9537  -10.9787   20.2947 C   0  0  2  0  0  0  0  0  0  0  0  0
  -15.5809   -7.2822   15.3605 C   0  0  1  0  0  0  0  0  0  0  0  0
  -20.0808   -8.1394   24.7797 N   0  0  0  0  0  0  0  0  0  0  0  0
  -20.2967   -9.4714   24.6018 C   0  0  1  0  0  0  0  0  0  0  0  0
  -15.2823   -7.6720   16.7804 C   0  0  2  0  0  0  0  0  0  0  0  0
  -20.5898  -10.2226   25.6882 N   0  0  0  0  0  0  0  0  0  0  0  0
  -13.8736   -7.5110   16.9562 O   0  0  0  0  0  0  0  0  0  0  0  0
  -15.7064   -9.1239   16.8796 C   0  0  2  0  0  0  0  0  0  0  0  0
  -20.2323  -10.0739   23.3772 N   0  0  0  0  0  0  0  0  0  0  0  0
  -14.8172   -9.8771   17.6929 O   0  0  0  0  0  0  0  0  0  0  0  0
  -19.9400   -9.3650   22.2575 C   0  0  2  0  0  0  0  0  0  0  0  0
  -15.6687   -9.6384   15.4540 C   0  0  2  0  0  0  0  0  0  0  0  0
  -15.7714   -8.4863   14.6189 O   0  0  0  0  0  0  0  0  0  0  0  0
  -19.7005   -7.9178   22.3942 C   0  0  1  0  0  0  0  0  0  0  0  0
  -16.8116  -10.5975   15.1402 C   0  0  0  0  0  0  0  0  0  0  0  0
  -18.0545   -9.9092   15.2939 O   0  0  0  0  0  0  0  0  0  0  0  0
  -19.7836   -7.3255   23.7411 C   0  0  0  0  0  0  0  0  0  0  0  0
  -19.5735   -5.9976   23.9272 O   0  0  0  0  0  0  0  0  0  0  0  0
  -19.4425   -7.4490   21.1684 N   0  0  0  0  0  0  0  0  0  0  0  0
  -19.5106   -8.5055   20.3066 C   0  0  0  0  0  0  0  0  0  0  0  0
  -19.8086   -9.6527   20.9521 N   0  0  1  0  0  0  0  0  0  0  0  0
  -20.3357   -6.6575   13.2701 N   0  0  0  0  0  0  0  0  0  0  0  0
  -20.7497   -9.5859   15.9426 O   0  5  0  0  0  0  0  0  0  0  0  0
  -19.4150   -7.6385   13.0629 C   0  0  2  0  0  0  0  0  0  0  0  0
  -19.7035   -8.6476   12.2001 N   0  0  0  0  0  0  0  0  0  0  0  0
  -19.8263  -11.6400   14.1080 O   0  0  0  0  0  0  0  0  0  0  0  0
  -18.2098   -7.6420   13.6951 N   0  0  0  0  0  0  0  0  0  0  0  0
  -17.8676   -6.6679   14.5704 C   0  0  2  0  0  0  0  0  0  0  0  0
  -18.8189   -5.5800   14.8334 C   0  0  2  0  0  0  0  0  0  0  0  0
  -20.1090   -5.6275   14.1126 C   0  0  0  0  0  0  0  0  0  0  0  0
  -21.0486   -4.6659   14.2889 O   0  0  0  0  0  0  0  0  0  0  0  0
  -18.2266   -4.7562   15.7205 N   0  0  0  0  0  0  0  0  0  0  0  0
  -16.9964   -5.2784   16.0052 C   0  0  0  0  0  0  0  0  0  0  0  0
  -16.7864   -6.4206   15.3123 N   0  0  1  0  0  0  0  0  0  0  0  0
  1  3  1  1  0  0  0
  1  4  2  0  0  0  0
  1  6  1  0  0  0  0
  1 22  1  0  0  0  0
  2 28  1  0  0  0  0
  2 35  1  1  0  0  0
  2 38  2  0  0  0  0
  2 10  1  0  0  0  0
  5  6  1  0  0  0  0
  7  5  1  1  0  0  0
  7  8  1  0  0  0  0
  7  9  1  0  0  0  0
  9 10  1  6  0  0  0
  9 11  1  0  0  0  0
 11 12  1  6  0  0  0
 11 13  1  0  0  0  0
 13  8  1  6  0  0  0
 13 33  1  0  0  0  0
 14 46  1  0  0  0  0
 14 17  1  0  0  0  0
 14 25  1  6  0  0  0
 15 16  1  0  0  0  0
 15 29  1  0  0  0  0
 16 18  1  6  0  0  0
 16 21  1  0  0  0  0
 17 19  1  6  0  0  0
 17 20  1  0  0  0  0
 20 22  1  1  0  0  0
 20 24  1  0  0  0  0
 23 21  1  6  0  0  0
 23 26  1  0  0  0  0
 23 33  1  0  0  0  0
 24 25  1  6  0  0  0
 24 27  1  0  0  0  0
 26 29  1  1  0  0  0
 26 31  1  0  0  0  0
 27 28  1  0  0  0  0
 29 30  2  0  0  0  0
 31 32  1  0  0  0  0
 33 32  1  1  0  0  0
 34 36  1  0  0  0  0
 34 42  1  0  0  0  0
 36 37  1  1  0  0  0
 36 39  1  0  0  0  0
 40 39  1  6  0  0  0
 40 41  1  0  0  0  0
 40 46  1  0  0  0  0
 41 42  1  6  0  0  0
 41 44  1  0  0  0  0
 42 43  2  0  0  0  0
 44 45  1  0  0  0  0
 46 45  1  1  0  0  0
M  CHG  2   3  -1  35  -1
M  END
>  <CHROM.1>
-84.11363169,-125.00952176,-18.18289004,-8.97750903,17.98796385,-1.71346366
0.35324498,-1.33640301

>  <Name>
ligand

>  <RI>
0

>  <Rbt.Current_Directory>
/home/itssahil/PROJECTS/Mol_Feturizer/Test_systems_manuscript/rnas/3mum

>  <Rbt.Executable>
rbdock ($Id: //depot/dev/client3/rdock/2013.1/src/exe/rbdock.cxx#4 $)

>  <Rbt.Library>
libRbt.so (2013.1, Build901 2013/11/27)

>  <Rbt.Parameter_File>
/export/apps/rDock/src/rDock_2013.1_src/data/scripts/dock_solv.prm

>  <Rbt.Receptor>
prm/blind_docking_60.prm

>  <SCORE>
27.1834

>  <SCORE.INTER>
25.4686

>  <SCORE.INTER.CONST>
1

>  <SCORE.INTER.POLAR>
0

>  <SCORE.INTER.ROT>
2

>  <SCORE.INTER.SOLV>
37.3077

>  <SCORE.INTER.VDW>
-0.390192

>  <SCORE.INTER.norm>
0.553665

>  <SCORE.INTRA>
1.29904

>  <SCORE.INTRA.DIHEDRAL>
7.16435e-05

>  <SCORE.INTRA.DIHEDRAL.0>
2.40424

>  <SCORE.INTRA.POLAR>
0

>  <SCORE.INTRA.POLAR.0>
0

>  <SCORE.INTRA.REPUL>
0

>  <SCORE.INTRA.REPUL.0>
0

>  <SCORE.INTRA.SOLV>
4.23806

>  <SCORE.INTRA.SOLV.lig_0>
-134.169

>  <SCORE.INTRA.VDW>
-0.820024

>  <SCORE.INTRA.VDW.0>
-2.18386

>  <SCORE.INTRA.norm>
0.02824

>  <SCORE.RESTR>
0.41582

>  <SCORE.RESTR.CAVITY>
0.41582

>  <SCORE.RESTR.norm>
0.00903956

>  <SCORE.SYSTEM>
0

>  <SCORE.SYSTEM.CONST>
0

>  <SCORE.SYSTEM.DIHEDRAL>
0

>  <SCORE.SYSTEM.SOLV>
0

>  <SCORE.SYSTEM.norm>
0

>  <SCORE.heavy>
46

>  <SCORE.norm>
0.590945

>  <RMSD>
15.726

$$$$
ligand
 OpenBabel02271912143D
libRbt.so/2013.1/901 2013/11/27
 46 52  0  0  0  0  0  0  0  0999 V2000
  -14.7875   -9.1551   20.1787 P   0  0  1  0  0  0  0  0  0  0  0  0
  -19.4707  -11.7472   17.7242 P   0  0  2  0  0  0  0  0  0  0  0  0
  -15.1030   -7.4290   20.4289 O   0  5  0  0  0  0  0  0  0  0  0  0
  -13.1979   -9.6342   20.8292 O   0  0  0  0  0  0  0  0  0  0  0  0
  -16.0334  -11.4168   20.7753 C   0  0  0  0  0  0  0  0  0  0  0  0
  -15.9609   -9.9961   20.8965 O   0  0  0  0  0  0  0  0  0  0  0  0
  -17.4439  -11.8598   21.1144 C   0  0  1  0  0  0  0  0  0  0  0  0
  -17.8159  -11.3306   22.3948 O   0  0  0  0  0  0  0  0  0  0  0  0
  -18.4874  -11.3390   20.1396 C   0  0  1  0  0  0  0  0  0  0  0  0
  -18.7145  -12.2441   19.0614 O   0  0  0  0  0  0  0  0  0  0  0  0
  -19.7200  -11.1718   21.0106 C   0  0  1  0  0  0  0  0  0  0  0  0
  -20.4691  -12.3894   21.0393 O   0  0  0  0  0  0  0  0  0  0  0  0
  -19.1856  -10.8987   22.4043 C   0  0  2  0  0  0  0  0  0  0  0  0
  -16.5947   -7.8313   16.0004 C   0  0  1  0  0  0  0  0  0  0  0  0
  -18.2715   -7.0046   25.8961 N   0  0  0  0  0  0  0  0  0  0  0  0
  -18.0483   -8.3410   26.0243 C   0  0  1  0  0  0  0  0  0  0  0  0
  -15.9976   -7.7870   17.3783 C   0  0  2  0  0  0  0  0  0  0  0  0
  -17.5220   -8.7931   27.1859 N   0  0  0  0  0  0  0  0  0  0  0  0
  -14.6531   -7.3299   17.2218 O   0  0  0  0  0  0  0  0  0  0  0  0
  -16.0586   -9.2190   17.8718 C   0  0  2  0  0  0  0  0  0  0  0  0
  -18.3360   -9.2373   25.0340 N   0  0  0  0  0  0  0  0  0  0  0  0
  -14.9055   -9.5644   18.6271 O   0  0  0  0  0  0  0  0  0  0  0  0
  -18.8628   -8.8343   23.8501 C   0  0  2  0  0  0  0  0  0  0  0  0
  -16.1271  -10.0615   16.6133 C   0  0  2  0  0  0  0  0  0  0  0  0
  -16.6187   -9.1977   15.5898 O   0  0  0  0  0  0  0  0  0  0  0  0
  -19.1271   -7.3974   23.6604 C   0  0  1  0  0  0  0  0  0  0  0  0
  -17.0558  -11.2624   16.7546 C   0  0  0  0  0  0  0  0  0  0  0  0
  -18.3833  -10.7990   17.0093 O   0  0  0  0  0  0  0  0  0  0  0  0
  -18.7953   -6.4797   24.7649 C   0  0  0  0  0  0  0  0  0  0  0  0
  -19.0180   -5.1461   24.6469 O   0  0  0  0  0  0  0  0  0  0  0  0
  -19.6436   -7.2556   22.4348 N   0  0  0  0  0  0  0  0  0  0  0  0
  -19.7105   -8.4992   21.8756 C   0  0  0  0  0  0  0  0  0  0  0  0
  -19.2461   -9.4463   22.7176 N   0  0  1  0  0  0  0  0  0  0  0  0
  -19.6822   -4.0689   14.0819 N   0  0  0  0  0  0  0  0  0  0  0  0
  -20.9464  -10.8245   18.1138 O   0  5  0  0  0  0  0  0  0  0  0  0
  -18.3669   -4.3238   13.8409 C   0  0  2  0  0  0  0  0  0  0  0  0
  -17.6842   -3.5274   12.9775 N   0  0  0  0  0  0  0  0  0  0  0  0
  -19.8762  -13.0695   16.6128 O   0  0  0  0  0  0  0  0  0  0  0  0
  -17.7106   -5.3555   14.4386 N   0  0  0  0  0  0  0  0  0  0  0  0
  -18.3385   -6.1872   15.3024 C   0  0  2  0  0  0  0  0  0  0  0  0
  -19.7580   -5.9610   15.6050 C   0  0  2  0  0  0  0  0  0  0  0  0
  -20.4150   -4.8215   14.9298 C   0  0  0  0  0  0  0  0  0  0  0  0
  -21.7217   -4.5330   15.1486 O   0  0  0  0  0  0  0  0  0  0  0  0
  -20.1200   -6.9125   16.4882 N   0  0  0  0  0  0  0  0  0  0  0  0
  -19.0206   -7.6878   16.7276 C   0  0  0  0  0  0  0  0  0  0  0  0
  -17.9574   -7.2474   16.0174 N   0  0  1  0  0  0  0  0  0  0  0  0
  1  3  1  1  0  0  0
  1  4  2  0  0  0  0
  1  6  1  0  0  0  0
  1 22  1  0  0  0  0
  2 28  1  0  0  0  0
  2 35  1  1  0  0  0
  2 38  2  0  0  0  0
  2 10  1  0  0  0  0
  5  6  1  0  0  0  0
  7  5  1  6  0  0  0
  7  8  1  0  0  0  0
  7  9  1  0  0  0  0
  9 10  1  6  0  0  0
  9 11  1  0  0  0  0
 11 12  1  1  0  0  0
 11 13  1  0  0  0  0
 13  8  1  6  0  0  0
 13 33  1  0  0  0  0
 14 46  1  0  0  0  0
 14 17  1  0  0  0  0
 14 25  1  1  0  0  0
 15 16  1  0  0  0  0
 15 29  1  0  0  0  0
 16 18  1  1  0  0  0
 16 21  1  0  0  0  0
 17 19  1  6  0  0  0
 17 20  1  0  0  0  0
 20 22  1  6  0  0  0
 20 24  1  0  0  0  0
 23 21  1  1  0  0  0
 23 26  1  0  0  0  0
 23 33  1  0  0  0  0
 24 25  1  6  0  0  0
 24 27  1  0  0  0  0
 26 29  1  6  0  0  0
 26 31  1  0  0  0  0
 27 28  1  0  0  0  0
 29 30  2  0  0  0  0
 31 32  1  0  0  0  0
 33 32  1  6  0  0  0
 34 36  1  0  0  0  0
 34 42  1  0  0  0  0
 36 37  1  6  0  0  0
 36 39  1  0  0  0  0
 40 39  1  1  0  0  0
 40 41  1  0  0  0  0
 40 46  1  0  0  0  0
 41 42  1  1  0  0  0
 41 44  1  0  0  0  0
 42 43  2  0  0  0  0
 44 45  1  0  0  0  0
 46 45  1  6  0  0  0
M  CHG  2   3  -1  35  -1
M  END
>  <CHROM.1>
-63.44181583,120.00664064,-17.97962796,-8.74578812,19.30097840,-1.30521052
1.40643229,-1.52500171

>  <Name>
ligand

>  <RI>
0

>  <Rbt.Current_Directory>
/home/itssahil/PROJECTS/Mol_Feturizer/Test_systems_manuscript/rnas/3mum

>  <Rbt.Executable>
rbdock ($Id: //depot/dev/client3/rdock/2013.1/src/exe/rbdock.cxx#4 $)

>  <Rbt.Library>
libRbt.so (2013.1, Build901 2013/11/27)

>  <Rbt.Parameter_File>
/export/apps/rDock/src/rDock_2013.1_src/data/scripts/dock_solv.prm

>  <Rbt.Receptor>
prm/blind_docking_60.prm

>  <SCORE>
41.9091

>  <SCORE.INTER>
41.1569

>  <SCORE.INTER.CONST>
1

>  <SCORE.INTER.POLAR>
0

>  <SCORE.INTER.ROT>
2

>  <SCORE.INTER.SOLV>
43.1443

>  <SCORE.INTER.VDW>
8.12317

>  <SCORE.INTER.norm>
0.894715

>  <SCORE.INTRA>
0.462848

>  <SCORE.INTRA.DIHEDRAL>
-0.00427483

>  <SCORE.INTRA.DIHEDRAL.0>
2.40424

>  <SCORE.INTRA.POLAR>
0

>  <SCORE.INTRA.POLAR.0>
0

>  <SCORE.INTRA.REPUL>
0

>  <SCORE.INTRA.REPUL.0>
0

>  <SCORE.INTRA.SOLV>
0.0620813

>  <SCORE.INTRA.SOLV.lig_0>
-134.169

>  <SCORE.INTRA.VDW>
0.433945

>  <SCORE.INTRA.VDW.0>
-2.18386

>  <SCORE.INTRA.norm>
0.0100619

>  <SCORE.RESTR>
0.289382

>  <SCORE.RESTR.CAVITY>
0.289382

>  <SCORE.RESTR.norm>
0.00629091

>  <SCORE.SYSTEM>
0

>  <SCORE.SYSTEM.CONST>
0

>  <SCORE.SYSTEM.DIHEDRAL>
0

>  <SCORE.SYSTEM.SOLV>
0

>  <SCORE.SYSTEM.norm>
0

>  <SCORE.heavy>
46

>  <SCORE.norm>
0.911068

>  <RMSD>
15.729

$$$$
ligand
 OpenBabel02271912143D
libRbt.so/2013.1/901 2013/11/27
 46 52  0  0  0  0  0  0  0  0999 V2000
  -15.8111   -7.3790   16.4094 P   0  0  1  0  0  0  0  0  0  0  0  0
  -20.0277   -9.8346   19.7057 P   0  0  2  0  0  0  0  0  0  0  0  0
  -14.9213   -8.6286   15.5213 O   0  5  0  0  0  0  0  0  0  0  0  0
  -15.2520   -5.7417   15.9784 O   0  0  0  0  0  0  0  0  0  0  0  0
  -18.3613   -6.7341   16.7321 C   0  0  0  0  0  0  0  0  0  0  0  0
  -17.3805   -7.5386   16.0768 O   0  0  0  0  0  0  0  0  0  0  0  0
  -19.7111   -7.4131   16.5993 C   0  0  1  0  0  0  0  0  0  0  0  0
  -19.9695   -7.6961   15.2169 O   0  0  0  0  0  0  0  0  0  0  0  0
  -19.7805   -8.7551   17.3097 C   0  0  1  0  0  0  0  0  0  0  0  0
  -20.2398   -8.6284   18.6536 O   0  0  0  0  0  0  0  0  0  0  0  0
  -20.7480   -9.5504   16.4509 C   0  0  1  0  0  0  0  0  0  0  0  0
  -22.0897   -9.3347   16.8956 O   0  0  0  0  0  0  0  0  0  0  0  0
  -20.6020   -8.9753   15.0543 C   0  0  2  0  0  0  0  0  0  0  0  0
  -14.9292  -10.5947   19.7797 C   0  0  1  0  0  0  0  0  0  0  0  0
  -17.4680   -9.4474   10.7943 N   0  0  0  0  0  0  0  0  0  0  0  0
  -18.1270   -8.3499   11.2565 C   0  0  1  0  0  0  0  0  0  0  0  0
  -14.8921   -9.8341   18.4845 C   0  0  2  0  0  0  0  0  0  0  0  0
  -18.0002   -7.1912   10.5695 N   0  0  0  0  0  0  0  0  0  0  0  0
  -13.6296   -9.1667   18.4437 O   0  0  0  0  0  0  0  0  0  0  0  0
  -16.0492   -8.8592   18.5760 C   0  0  2  0  0  0  0  0  0  0  0  0
  -18.9083   -8.3738   12.3771 N   0  0  0  0  0  0  0  0  0  0  0  0
  -15.7236   -7.6013   18.0006 O   0  0  0  0  0  0  0  0  0  0  0  0
  -19.0661   -9.5102   13.1020 C   0  0  2  0  0  0  0  0  0  0  0  0
  -16.3073   -8.7000   20.0614 C   0  0  2  0  0  0  0  0  0  0  0  0
  -15.7572   -9.8613   20.6813 O   0  0  0  0  0  0  0  0  0  0  0  0
  -18.3765  -10.7285   12.6431 C   0  0  1  0  0  0  0  0  0  0  0  0
  -17.7911   -8.5990   20.3970 C   0  0  0  0  0  0  0  0  0  0  0  0
  -18.4441   -9.8050   19.9954 O   0  0  0  0  0  0  0  0  0  0  0  0
  -17.5476  -10.6399   11.4277 C   0  0  0  0  0  0  0  0  0  0  0  0
  -16.8900  -11.7302   10.9577 O   0  0  0  0  0  0  0  0  0  0  0  0
  -18.6889  -11.7008   13.5068 N   0  0  0  0  0  0  0  0  0  0  0  0
  -19.5151  -11.1580   14.4483 C   0  0  0  0  0  0  0  0  0  0  0  0
  -19.7446   -9.8494   14.2105 N   0  0  1  0  0  0  0  0  0  0  0  0
  -17.1678  -13.8165   16.3190 N   0  0  0  0  0  0  0  0  0  0  0  0
  -20.5068  -11.4033   19.0053 O   0  5  0  0  0  0  0  0  0  0  0  0
  -16.8041  -12.5116   16.1857 C   0  0  2  0  0  0  0  0  0  0  0  0
  -17.0170  -11.8812   15.0011 N   0  0  0  0  0  0  0  0  0  0  0  0
  -20.8817   -9.5872   21.2412 O   0  0  0  0  0  0  0  0  0  0  0  0
  -16.2308  -11.8147   17.2045 N   0  0  0  0  0  0  0  0  0  0  0  0
  -15.9873  -12.3898   18.4054 C   0  0  2  0  0  0  0  0  0  0  0  0
  -16.3606  -13.7956   18.6110 C   0  0  2  0  0  0  0  0  0  0  0  0
  -16.9848  -14.4982   17.4697 C   0  0  0  0  0  0  0  0  0  0  0  0
  -17.3653  -15.7961   17.5660 O   0  0  0  0  0  0  0  0  0  0  0  0
  -16.0213  -14.1029   19.8786 N   0  0  0  0  0  0  0  0  0  0  0  0
  -15.4710  -12.9839   20.4373 C   0  0  0  0  0  0  0  0  0  0  0  0
  -15.4557  -11.9618   19.5520 N   0  0  1  0  0  0  0  0  0  0  0  0
  1  3  1  6  0  0  0
  1  4  2  0  0  0  0
  1  6  1  0  0  0  0
  1 22  1  0  0  0  0
  2 28  1  0  0  0  0
  2 35  1  6  0  0  0
  2 38  2  0  0  0  0
  2 10  1  0  0  0  0
  5  6  1  0  0  0  0
  7  5  1  6  0  0  0
  7  8  1  0  0  0  0
  7  9  1  0  0  0  0
  9 10  1  1  0  0  0
  9 11  1  0  0  0  0
 11 12  1  1  0  0  0
 11 13  1  0  0  0  0
 13  8  1  1  0  0  0
 13 33  1  0  0  0  0
 14 46  1  0  0  0  0
 14 17  1  0  0  0  0
 14 25  1  1  0  0  0
 15 16  1  0  0  0  0
 15 29  1  0  0  0  0
 16 18  1  6  0  0  0
 16 21  1  0  0  0  0
 17 19  1  1  0  0  0
 17 20  1  0  0  0  0
 20 22  1  1  0  0  0
 20 24  1  0  0  0  0
 23 21  1  6  0  0  0
 23 26  1  0  0  0  0
 23 33  1  0  0  0  0
 24 25  1  1  0  0  0
 24 27  1  0  0  0  0
 26 29  1  1  0  0  0
 26 31  1  0  0  0  0
 27 28  1  0  0  0  0
 29 30  2  0  0  0  0
 31 32  1  0  0  0  0
 33 32  1  1  0  0  0
 34 36  1  0  0  0  0
 34 42  1  0  0  0  0
 36 37  1  6  0  0  0
 36 39  1  0  0  0  0
 40 39  1  1  0  0  0
 40 41  1  0  0  0  0
 40 46  1  0  0  0  0
 41 42  1  1  0  0  0
 41 44  1  0  0  0  0
 42 43  2  0  0  0  0
 44 45  1  0  0  0  0
 46 45  1  6  0  0  0
M  CHG  2   3  -1  35  -1
M  END
>  <CHROM.1>
-41.59655012,-8.44129490,-17.69604345,-9.96205552,16.72090165,2.06287439
1.19263027,-1.75054674

>  <Name>
ligand

>  <RI>
-1

>  <Rbt.Current_Directory>
/home/itssahil/PROJECTS/Mol_Feturizer/Test_systems_manuscript/rnas/3mum

>  <Rbt.Executable>
rbdock ($Id: //depot/dev/client3/rdock/2013.1/src/exe/rbdock.cxx#4 $)

>  <Rbt.Library>
libRbt.so (2013.1, Build901 2013/11/27)

>  <Rbt.Parameter_File>
/export/apps/rDock/src/rDock_2013.1_src/data/scripts/dock_solv.prm

>  <Rbt.Receptor>
prm/blind_docking_40.prm

>  <SCORE>
24.394

>  <SCORE.INTER>
17.3588

>  <SCORE.INTER.CONST>
1

>  <SCORE.INTER.POLAR>
0

>  <SCORE.INTER.ROT>
2

>  <SCORE.INTER.SOLV>
45.2643

>  <SCORE.INTER.VDW>
-8.44891

>  <SCORE.INTER.norm>
0.377365

>  <SCORE.INTRA>
6.49927

>  <SCORE.INTRA.DIHEDRAL>
0.0110853

>  <SCORE.INTRA.DIHEDRAL.0>
2.40424

>  <SCORE.INTRA.POLAR>
0

>  <SCORE.INTRA.POLAR.0>
0

>  <SCORE.INTRA.REPUL>
0

>  <SCORE.INTRA.REPUL.0>
0

>  <SCORE.INTRA.SOLV>
5.61182

>  <SCORE.INTRA.SOLV.lig_0>
-134.169

>  <SCORE.INTRA.VDW>
3.68781

>  <SCORE.INTRA.VDW.0>
-2.18386

>  <SCORE.INTRA.norm>
0.141288

>  <SCORE.RESTR>
0.535912

>  <SCORE.RESTR.CAVITY>
0.535912

>  <SCORE.RESTR.norm>
0.0116503

>  <SCORE.SYSTEM>
0

>  <SCORE.SYSTEM.CONST>
0

>  <SCORE.SYSTEM.DIHEDRAL>
0

>  <SCORE.SYSTEM.SOLV>
0

>  <SCORE.SYSTEM.norm>
0

>  <SCORE.heavy>
46

>  <SCORE.norm>
0.530303

>  <RMSD>
15.730

$$$$
ligand
 OpenBabel02271912143D
libRbt.so/2013.1/901 2013/11/27
 46 52  0  0  0  0  0  0  0  0999 V2000
  -15.7316   -7.3388   16.5128 P   0  0  1  0  0  0  0  0  0  0  0  0
  -19.8802   -9.8064   19.8857 P   0  0  2  0  0  0  0  0  0  0  0  0
  -14.7945   -8.5910   15.6787 O   0  5  0  0  0  0  0  0  0  0  0  0
  -15.2266   -5.7014   16.0196 O   0  0  0  0  0  0  0  0  0  0  0  0
  -18.3042   -6.7699   16.7988 C   0  0  0  0  0  0  0  0  0  0  0  0
  -17.2928   -7.5654   16.1801 O   0  0  0  0  0  0  0  0  0  0  0  0
  -19.6292   -7.4997   16.6872 C   0  0  1  0  0  0  0  0  0  0  0  0
  -19.8700   -7.8457   15.3160 O   0  0  0  0  0  0  0  0  0  0  0  0
  -19.6565   -8.8143   17.4499 C   0  0  1  0  0  0  0  0  0  0  0  0
  -20.1275   -8.6506   18.7858 O   0  0  0  0  0  0  0  0  0  0  0  0
  -20.5914   -9.6756   16.6191 C   0  0  1  0  0  0  0  0  0  0  0  0
  -21.9422   -9.4890   17.0492 O   0  0  0  0  0  0  0  0  0  0  0  0
  -20.4573   -9.1513   15.2015 C   0  0  2  0  0  0  0  0  0  0  0  0
  -14.7591  -10.3868   20.0115 C   0  0  1  0  0  0  0  0  0  0  0  0
  -17.6084   -9.8230   10.7714 N   0  0  0  0  0  0  0  0  0  0  0  0
  -18.3580   -8.7537   11.1550 C   0  0  1  0  0  0  0  0  0  0  0  0
  -14.7408   -9.6770   18.6874 C   0  0  2  0  0  0  0  0  0  0  0  0
  -18.4205   -7.6861   10.3261 N   0  0  0  0  0  0  0  0  0  0  0  0
  -13.5017   -8.9686   18.6255 O   0  0  0  0  0  0  0  0  0  0  0  0
  -15.9311   -8.7397   18.7352 C   0  0  2  0  0  0  0  0  0  0  0  0
  -19.0470   -8.7183   12.3342 N   0  0  0  0  0  0  0  0  0  0  0  0
  -15.6456   -7.4950   18.1119 O   0  0  0  0  0  0  0  0  0  0  0  0
  -19.0151   -9.7622   13.2006 C   0  0  2  0  0  0  0  0  0  0  0  0
  -16.2029   -8.5311   20.2121 C   0  0  2  0  0  0  0  0  0  0  0  0
  -15.6168   -9.6473   20.8797 O   0  0  0  0  0  0  0  0  0  0  0  0
  -18.2206  -10.9469   12.8322 C   0  0  1  0  0  0  0  0  0  0  0  0
  -17.6911   -8.4681   20.5371 C   0  0  0  0  0  0  0  0  0  0  0  0
  -18.3001   -9.7108   20.1807 O   0  0  0  0  0  0  0  0  0  0  0  0
  -17.4990  -10.9256   11.5473 C   0  0  0  0  0  0  0  0  0  0  0  0
  -16.7523  -11.9890   11.1554 O   0  0  0  0  0  0  0  0  0  0  0  0
  -18.3513  -11.8282   13.8298 N   0  0  0  0  0  0  0  0  0  0  0  0
  -19.1654  -11.2622   14.7681 C   0  0  0  0  0  0  0  0  0  0  0  0
  -19.5657  -10.0280   14.3966 N   0  0  1  0  0  0  0  0  0  0  0  0
  -15.1278  -15.1147   22.2204 N   0  0  0  0  0  0  0  0  0  0  0  0
  -20.3012  -11.4170   19.2459 O   0  5  0  0  0  0  0  0  0  0  0  0
  -14.5661  -13.9709   22.6991 C   0  0  2  0  0  0  0  0  0  0  0  0
  -13.9994  -13.9764   23.9339 N   0  0  0  0  0  0  0  0  0  0  0  0
  -20.7507   -9.5281   21.4065 O   0  0  0  0  0  0  0  0  0  0  0  0
  -14.5540  -12.8165   21.9783 N   0  0  0  0  0  0  0  0  0  0  0  0
  -15.1083  -12.7469   20.7454 C   0  0  2  0  0  0  0  0  0  0  0  0
  -15.7275  -13.9499   20.1736 C   0  0  2  0  0  0  0  0  0  0  0  0
  -15.7046  -15.1748   21.0014 C   0  0  0  0  0  0  0  0  0  0  0  0
  -16.2491  -16.3342   20.5567 O   0  0  0  0  0  0  0  0  0  0  0  0
  -16.1825  -13.6058   18.9526 N   0  0  0  0  0  0  0  0  0  0  0  0
  -15.8820  -12.2867   18.7610 C   0  0  0  0  0  0  0  0  0  0  0  0
  -15.2371  -11.7791   19.8358 N   0  0  1  0  0  0  0  0  0  0  0  0
  1  3  1  6  0  0  0
  1  4  2  0  0  0  0
  1  6  1  0  0  0  0
  1 22  1  0  0  0  0
  2 28  1  0  0  0  0
  2 35  1  6  0  0  0
  2 38  2  0  0  0  0
  2 10  1  0  0  0  0
  5  6  1  0  0  0  0
  7  5  1  6  0  0  0
  7  8  1  0  0  0  0
  7  9  1  0  0  0  0
  9 10  1  1  0  0  0
  9 11  1  0  0  0  0
 11 12  1  1  0  0  0
 11 13  1  0  0  0  0
 13  8  1  1  0  0  0
 13 33  1  0  0  0  0
 14 46  1  0  0  0  0
 14 17  1  0  0  0  0
 14 25  1  1  0  0  0
 15 16  1  0  0  0  0
 15 29  1  0  0  0  0
 16 18  1  6  0  0  0
 16 21  1  0  0  0  0
 17 19  1  1  0  0  0
 17 20  1  0  0  0  0
 20 22  1  1  0  0  0
 20 24  1  0  0  0  0
 23 21  1  6  0  0  0
 23 26  1  0  0  0  0
 23 33  1  0  0  0  0
 24 25  1  1  0  0  0
 24 27  1  0  0  0  0
 26 29  1  1  0  0  0
 26 31  1  0  0  0  0
 27 28  1  0  0  0  0
 29 30  2  0  0  0  0
 31 32  1  0  0  0  0
 33 32  1  1  0  0  0
 34 36  1  0  0  0  0
 34 42  1  0  0  0  0
 36 37  1  1  0  0  0
 36 39  1  0  0  0  0
 40 39  1  6  0  0  0
 40 41  1  0  0  0  0
 40 46  1  0  0  0  0
 41 42  1  6  0  0  0
 41 44  1  0  0  0  0
 42 43  2  0  0  0  0
 44 45  1  0  0  0  0
 46 45  1  1  0  0  0
M  CHG  2   3  -1  35  -1
M  END
>  <CHROM.1>
-49.90658958,165.26102580,-17.37414773,-10.12780980,17.50389614,2.16598671
1.00655747,-1.65101346

>  <Name>
ligand

>  <RI>
0

>  <Rbt.Current_Directory>
/home/itssahil/PROJECTS/Mol_Feturizer/Test_systems_manuscript/rnas/3mum

>  <Rbt.Executable>
rbdock ($Id: //depot/dev/client3/rdock/2013.1/src/exe/rbdock.cxx#4 $)

>  <Rbt.Library>
libRbt.so (2013.1, Build901 2013/11/27)

>  <Rbt.Parameter_File>
/export/apps/rDock/src/rDock_2013.1_src/data/scripts/dock_solv.prm

>  <Rbt.Receptor>
prm/blind_docking_60.prm

>  <SCORE>
13.6878

>  <SCORE.INTER>
9.65295

>  <SCORE.INTER.CONST>
1

>  <SCORE.INTER.POLAR>
0

>  <SCORE.INTER.ROT>
2

>  <SCORE.INTER.SOLV>
40.6225

>  <SCORE.INTER.VDW>
-12.0389

>  <SCORE.INTER.norm>
0.209847

>  <SCORE.INTRA>
1.02284

>  <SCORE.INTRA.DIHEDRAL>
-0.022105

>  <SCORE.INTRA.DIHEDRAL.0>
2.40424

>  <SCORE.INTRA.POLAR>
0

>  <SCORE.INTRA.POLAR.0>
0

>  <SCORE.INTRA.REPUL>
0

>  <SCORE.INTRA.REPUL.0>
0

>  <SCORE.INTRA.SOLV>
0.049674

>  <SCORE.INTRA.SOLV.lig_0>
-134.169

>  <SCORE.INTRA.VDW>
1.00906

>  <SCORE.INTRA.VDW.0>
-2.18386

>  <SCORE.INTRA.norm>
0.0222357

>  <SCORE.RESTR>
3.01203

>  <SCORE.RESTR.CAVITY>
3.01203

>  <SCORE.RESTR.norm>
0.065479

>  <SCORE.SYSTEM>
0

>  <SCORE.SYSTEM.CONST>
0

>  <SCORE.SYSTEM.DIHEDRAL>
0

>  <SCORE.SYSTEM.SOLV>
0

>  <SCORE.SYSTEM.norm>
0

>  <SCORE.heavy>
46

>  <SCORE.norm>
0.297561

>  <RMSD>
15.730

$$$$
ligand
 OpenBabel02271912143D
libRbt.so/2013.1/901 2013/11/27
 46 52  0  0  0  0  0  0  0  0999 V2000
  -15.7692   -7.4176   16.5079 P   0  0  1  0  0  0  0  0  0  0  0  0
  -19.9764   -9.8400   19.8407 P   0  0  2  0  0  0  0  0  0  0  0  0
  -14.8600   -8.6782   15.6560 O   0  5  0  0  0  0  0  0  0  0  0  0
  -15.2265   -5.7850   16.0396 O   0  0  0  0  0  0  0  0  0  0  0  0
  -18.3285   -6.7947   16.8004 C   0  0  0  0  0  0  0  0  0  0  0  0
  -17.3348   -7.6036   16.1707 O   0  0  0  0  0  0  0  0  0  0  0  0
  -19.6696   -7.4924   16.6771 C   0  0  1  0  0  0  0  0  0  0  0  0
  -19.9168   -7.8124   15.3007 O   0  0  0  0  0  0  0  0  0  0  0  0
  -19.7277   -8.8172   17.4201 C   0  0  1  0  0  0  0  0  0  0  0  0
  -20.1962   -8.6627   18.7579 O   0  0  0  0  0  0  0  0  0  0  0  0
  -20.6810   -9.6446   16.5759 C   0  0  1  0  0  0  0  0  0  0  0  0
  -22.0276   -9.4336   17.0077 O   0  0  0  0  0  0  0  0  0  0  0  0
  -20.5335   -9.1025   15.1663 C   0  0  2  0  0  0  0  0  0  0  0  0
  -14.8700  -10.5386   19.9616 C   0  0  1  0  0  0  0  0  0  0  0  0
  -17.4480   -9.6706   10.8827 N   0  0  0  0  0  0  0  0  0  0  0  0
  -18.1346   -8.5741   11.3055 C   0  0  1  0  0  0  0  0  0  0  0  0
  -14.8342   -9.8099   18.6482 C   0  0  2  0  0  0  0  0  0  0  0  0
  -18.0543   -7.4444   10.5653 N   0  0  0  0  0  0  0  0  0  0  0  0
  -13.5792   -9.1290   18.5978 O   0  0  0  0  0  0  0  0  0  0  0  0
  -16.0029   -8.8465   18.7091 C   0  0  2  0  0  0  0  0  0  0  0  0
  -18.8984   -8.5712   12.4383 N   0  0  0  0  0  0  0  0  0  0  0  0
  -15.6885   -7.5995   18.1046 O   0  0  0  0  0  0  0  0  0  0  0  0
  -19.0098   -9.6778   13.2159 C   0  0  2  0  0  0  0  0  0  0  0  0
  -16.2714   -8.6537   20.1887 C   0  0  2  0  0  0  0  0  0  0  0  0
  -15.7116   -9.7928   20.8401 O   0  0  0  0  0  0  0  0  0  0  0  0
  -18.2888  -10.8938   12.8014 C   0  0  1  0  0  0  0  0  0  0  0  0
  -17.7582   -8.5617   20.5135 C   0  0  0  0  0  0  0  0  0  0  0  0
  -18.3949   -9.7848   20.1383 O   0  0  0  0  0  0  0  0  0  0  0  0
  -17.4808  -10.8349   11.5702 C   0  0  0  0  0  0  0  0  0  0  0  0
  -16.7960  -11.9246   11.1393 O   0  0  0  0  0  0  0  0  0  0  0  0
  -18.5580  -11.8351   13.7127 N   0  0  0  0  0  0  0  0  0  0  0  0
  -19.3872  -11.2759   14.6418 C   0  0  0  0  0  0  0  0  0  0  0  0
  -19.6612   -9.9871   14.3492 N   0  0  1  0  0  0  0  0  0  0  0  0
  -17.0673  -13.8656   16.5746 N   0  0  0  0  0  0  0  0  0  0  0  0
  -20.4334  -11.4309   19.1767 O   0  5  0  0  0  0  0  0  0  0  0  0
  -16.7197  -12.5596   16.4118 C   0  0  2  0  0  0  0  0  0  0  0  0
  -16.9400  -11.9588   15.2133 N   0  0  0  0  0  0  0  0  0  0  0  0
  -20.8421   -9.5647   21.3648 O   0  0  0  0  0  0  0  0  0  0  0  0
  -16.1555  -11.8328   17.4147 N   0  0  0  0  0  0  0  0  0  0  0  0
  -15.9053  -12.3774   18.6283 C   0  0  2  0  0  0  0  0  0  0  0  0
  -16.2611  -13.7827   18.8657 C   0  0  2  0  0  0  0  0  0  0  0  0
  -16.8762  -14.5187   17.7405 C   0  0  0  0  0  0  0  0  0  0  0  0
  -17.2406  -15.8187   17.8662 O   0  0  0  0  0  0  0  0  0  0  0  0
  -15.9185  -14.0569   20.1399 N   0  0  0  0  0  0  0  0  0  0  0  0
  -15.3823  -12.9189   20.6732 C   0  0  0  0  0  0  0  0  0  0  0  0
  -15.3794  -11.9169   19.7649 N   0  0  1  0  0  0  0  0  0  0  0  0
  1  3  1  6  0  0  0
  1  4  2  0  0  0  0
  1  6  1  0  0  0  0
  1 22  1  0  0  0  0
  2 28  1  0  0  0  0
  2 35  1  6  0  0  0
  2 38  2  0  0  0  0
  2 10  1  0  0  0  0
  5  6  1  0  0  0  0
  7  5  1  6  0  0  0
  7  8  1  0  0  0  0
  7  9  1  0  0  0  0
  9 10  1  1  0  0  0
  9 11  1  0  0  0  0
 11 12  1  1  0  0  0
 11 13  1  0  0  0  0
 13  8  1  1  0  0  0
 13 33  1  0  0  0  0
 14 46  1  0  0  0  0
 14 17  1  0  0  0  0
 14 25  1  1  0  0  0
 15 16  1  0  0  0  0
 15 29  1  0  0  0  0
 16 18  1  6  0  0  0
 16 21  1  0  0  0  0
 17 19  1  1  0  0  0
 17 20  1  0  0  0  0
 20 22  1  1  0  0  0
 20 24  1  0  0  0  0
 23 21  1  6  0  0  0
 23 26  1  0  0  0  0
 23 33  1  0  0  0  0
 24 25  1  1  0  0  0
 24 27  1  0  0  0  0
 26 29  1  1  0  0  0
 26 31  1  0  0  0  0
 27 28  1  0  0  0  0
 29 30  2  0  0  0  0
 31 32  1  0  0  0  0
 33 32  1  1  0  0  0
 34 36  1  0  0  0  0
 34 42  1  0  0  0  0
 36 37  1  6  0  0  0
 36 39  1  0  0  0  0
 40 39  1  1  0  0  0
 40 41  1  0  0  0  0
 40 46  1  0  0  0  0
 41 42  1  1  0  0  0
 41 44  1  0  0  0  0
 42 43  2  0  0  0  0
 44 45  1  0  0  0  0
 46 45  1  6  0  0  0
M  CHG  2   3  -1  35  -1
M  END
>  <CHROM.1>
-43.61257801,-8.77928486,-17.63635360,-10.01632204,16.86760053,2.06714455
1.18427895,-1.78621476

>  <Name>
ligand

>  <RI>
-1

>  <Rbt.Current_Directory>
/home/itssahil/PROJECTS/Mol_Feturizer/Test_systems_manuscript/rnas/3mum

>  <Rbt.Executable>
rbdock ($Id: //depot/dev/client3/rdock/2013.1/src/exe/rbdock.cxx#4 $)

>  <Rbt.Library>
libRbt.so (2013.1, Build901 2013/11/27)

>  <Rbt.Parameter_File>
/export/apps/rDock/src/rDock_2013.1_src/data/scripts/dock_solv.prm

>  <Rbt.Receptor>
prm/blind_docking_80.prm

>  <SCORE>
25.1195

>  <SCORE.INTER>
16.6722

>  <SCORE.INTER.CONST>
1

>  <SCORE.INTER.POLAR>
0

>  <SCORE.INTER.ROT>
2

>  <SCORE.INTER.SOLV>
44.8164

>  <SCORE.INTER.VDW>
-8.75734

>  <SCORE.INTER.norm>
0.362439

>  <SCORE.INTRA>
7.66755

>  <SCORE.INTRA.DIHEDRAL>
0.0112847

>  <SCORE.INTRA.DIHEDRAL.0>
2.40424

>  <SCORE.INTRA.POLAR>
0

>  <SCORE.INTRA.POLAR.0>
0

>  <SCORE.INTRA.REPUL>
0

>  <SCORE.INTRA.REPUL.0>
0

>  <SCORE.INTRA.SOLV>
5.627

>  <SCORE.INTRA.SOLV.lig_0>
-134.169

>  <SCORE.INTRA.VDW>
4.8484

>  <SCORE.INTRA.VDW.0>
-2.18386

>  <SCORE.INTRA.norm>
0.166686

>  <SCORE.RESTR>
0.779743

>  <SCORE.RESTR.CAVITY>
0.779743

>  <SCORE.RESTR.norm>
0.0169509

>  <SCORE.SYSTEM>
0

>  <SCORE.SYSTEM.CONST>
0

>  <SCORE.SYSTEM.DIHEDRAL>
0

>  <SCORE.SYSTEM.SOLV>
0

>  <SCORE.SYSTEM.norm>
0

>  <SCORE.heavy>
46

>  <SCORE.norm>
0.546075

>  <RMSD>
15.731

$$$$
ligand
 OpenBabel02271912143D
libRbt.so/2013.1/901 2013/11/27
 46 52  0  0  0  0  0  0  0  0999 V2000
  -15.8125   -7.3828   16.4096 P   0  0  1  0  0  0  0  0  0  0  0  0
  -20.0286   -9.8373   19.7075 P   0  0  2  0  0  0  0  0  0  0  0  0
  -14.9220   -8.6327   15.5228 O   0  5  0  0  0  0  0  0  0  0  0  0
  -15.2541   -5.7456   15.9772 O   0  0  0  0  0  0  0  0  0  0  0  0
  -18.3630   -6.7387   16.7314 C   0  0  0  0  0  0  0  0  0  0  0  0
  -17.3819   -7.5434   16.0770 O   0  0  0  0  0  0  0  0  0  0  0  0
  -19.7125   -7.4184   16.5990 C   0  0  1  0  0  0  0  0  0  0  0  0
  -19.9707   -7.7026   15.2168 O   0  0  0  0  0  0  0  0  0  0  0  0
  -19.7815   -8.7598   17.3106 C   0  0  1  0  0  0  0  0  0  0  0  0
  -20.2410   -8.6321   18.6544 O   0  0  0  0  0  0  0  0  0  0  0  0
  -20.7485   -9.5562   16.4523 C   0  0  1  0  0  0  0  0  0  0  0  0
  -22.0904   -9.3407   16.8966 O   0  0  0  0  0  0  0  0  0  0  0  0
  -20.6025   -8.9822   15.0553 C   0  0  2  0  0  0  0  0  0  0  0  0
  -14.9298  -10.5951   19.7828 C   0  0  1  0  0  0  0  0  0  0  0  0
  -17.4683   -9.4569   10.7957 N   0  0  0  0  0  0  0  0  0  0  0  0
  -18.1280   -8.3593   11.2568 C   0  0  1  0  0  0  0  0  0  0  0  0
  -14.8928   -9.8357   18.4870 C   0  0  2  0  0  0  0  0  0  0  0  0
  -18.0018   -7.2012   10.5687 N   0  0  0  0  0  0  0  0  0  0  0  0
  -13.6306   -9.1678   18.4457 O   0  0  0  0  0  0  0  0  0  0  0  0
  -16.0503   -8.8612   18.5774 C   0  0  2  0  0  0  0  0  0  0  0  0
  -18.9092   -8.3825   12.3775 N   0  0  0  0  0  0  0  0  0  0  0  0
  -15.7252   -7.6037   18.0010 O   0  0  0  0  0  0  0  0  0  0  0  0
  -19.0664   -9.5182   13.1035 C   0  0  2  0  0  0  0  0  0  0  0  0
  -16.3087   -8.7008   20.0627 C   0  0  2  0  0  0  0  0  0  0  0  0
  -15.7582   -9.8613   20.6836 O   0  0  0  0  0  0  0  0  0  0  0  0
  -18.3761  -10.7366   12.6458 C   0  0  1  0  0  0  0  0  0  0  0  0
  -17.7926   -8.6002   20.3980 C   0  0  0  0  0  0  0  0  0  0  0  0
  -18.4450   -9.8068   19.9974 O   0  0  0  0  0  0  0  0  0  0  0  0
  -17.5473  -10.6488   11.4303 C   0  0  0  0  0  0  0  0  0  0  0  0
  -16.8891  -11.7392   10.9614 O   0  0  0  0  0  0  0  0  0  0  0  0
  -18.6880  -11.7082   13.5105 N   0  0  0  0  0  0  0  0  0  0  0  0
  -19.5145  -11.1650   14.4514 C   0  0  0  0  0  0  0  0  0  0  0  0
  -19.7447   -9.8567   14.2124 N   0  0  1  0  0  0  0  0  0  0  0  0
  -17.1624  -13.8223   16.3232 N   0  0  0  0  0  0  0  0  0  0  0  0
  -20.5069  -11.4068   19.0084 O   0  5  0  0  0  0  0  0  0  0  0  0
  -16.7987  -12.5175   16.1886 C   0  0  2  0  0  0  0  0  0  0  0  0
  -17.0099  -11.8888   15.0029 N   0  0  0  0  0  0  0  0  0  0  0  0
  -20.8828   -9.5889   21.2426 O   0  0  0  0  0  0  0  0  0  0  0  0
  -16.2271  -11.8191   17.2074 N   0  0  0  0  0  0  0  0  0  0  0  0
  -15.9854  -12.3924   18.4095 C   0  0  2  0  0  0  0  0  0  0  0  0
  -16.3587  -13.7980   18.6164 C   0  0  2  0  0  0  0  0  0  0  0  0
  -16.9811  -14.5023   17.4751 C   0  0  0  0  0  0  0  0  0  0  0  0
  -17.3615  -15.8002   17.5727 O   0  0  0  0  0  0  0  0  0  0  0  0
  -16.0213  -14.1034   19.8850 N   0  0  0  0  0  0  0  0  0  0  0  0
  -15.4721  -12.9836   20.4430 C   0  0  0  0  0  0  0  0  0  0  0  0
  -15.4556  -11.9627   19.5562 N   0  0  1  0  0  0  0  0  0  0  0  0
  1  3  1  6  0  0  0
  1  4  2  0  0  0  0
  1  6  1  0  0  0  0
  1 22  1  0  0  0  0
  2 28  1  0  0  0  0
  2 35  1  6  0  0  0
  2 38  2  0  0  0  0
  2 10  1  0  0  0  0
  5  6  1  0  0  0  0
  7  5  1  6  0  0  0
  7  8  1  0  0  0  0
  7  9  1  0  0  0  0
  9 10  1  1  0  0  0
  9 11  1  0  0  0  0
 11 12  1  1  0  0  0
 11 13  1  0  0  0  0
 13  8  1  1  0  0  0
 13 33  1  0  0  0  0
 14 46  1  0  0  0  0
 14 17  1  0  0  0  0
 14 25  1  1  0  0  0
 15 16  1  0  0  0  0
 15 29  1  0  0  0  0
 16 18  1  6  0  0  0
 16 21  1  0  0  0  0
 17 19  1  1  0  0  0
 17 20  1  0  0  0  0
 20 22  1  1  0  0  0
 20 24  1  0  0  0  0
 23 21  1  6  0  0  0
 23 26  1  0  0  0  0
 23 33  1  0  0  0  0
 24 25  1  1  0  0  0
 24 27  1  0  0  0  0
 26 29  1  1  0  0  0
 26 31  1  0  0  0  0
 27 28  1  0  0  0  0
 29 30  2  0  0  0  0
 31 32  1  0  0  0  0
 33 32  1  1  0  0  0
 34 36  1  0  0  0  0
 34 42  1  0  0  0  0
 36 37  1  6  0  0  0
 36 39  1  0  0  0  0
 40 39  1  1  0  0  0
 40 41  1  0  0  0  0
 40 46  1  0  0  0  0
 41 42  1  1  0  0  0
 41 44  1  0  0  0  0
 42 43  2  0  0  0  0
 44 45  1  0  0  0  0
 46 45  1  6  0  0  0
M  CHG  2   3  -1  35  -1
M  END
>  <CHROM.1>
-41.60988564,-8.35406052,-17.69603351,-9.96651153,16.72291980,2.06120783
1.19124124,-1.74971259

>  <Name>
ligand

>  <RI>
-1

>  <Rbt.Current_Directory>
/home/itssahil/PROJECTS/Mol_Feturizer/Test_systems_manuscript/rnas/3mum

>  <Rbt.Executable>
rbdock ($Id: //depot/dev/client3/rdock/2013.1/src/exe/rbdock.cxx#4 $)

>  <Rbt.Library>
libRbt.so (2013.1, Build901 2013/11/27)

>  <Rbt.Parameter_File>
/export/apps/rDock/src/rDock_2013.1_src/data/scripts/dock_solv.prm

>  <Rbt.Receptor>
prm/blind_docking_40.prm

>  <SCORE>
24.3736

>  <SCORE.INTER>
17.4235

>  <SCORE.INTER.CONST>
1

>  <SCORE.INTER.POLAR>
0

>  <SCORE.INTER.ROT>
2

>  <SCORE.INTER.SOLV>
45.3024

>  <SCORE.INTER.VDW>
-8.41845

>  <SCORE.INTER.norm>
0.378772

>  <SCORE.INTRA>
6.41191

>  <SCORE.INTRA.DIHEDRAL>
0.0109711

>  <SCORE.INTRA.DIHEDRAL.0>
2.40424

>  <SCORE.INTRA.POLAR>
0

>  <SCORE.INTRA.POLAR.0>
0

>  <SCORE.INTRA.REPUL>
0

>  <SCORE.INTRA.REPUL.0>
0

>  <SCORE.INTRA.SOLV>
5.60174

>  <SCORE.INTRA.SOLV.lig_0>
-134.169

>  <SCORE.INTRA.VDW>
3.60556

>  <SCORE.INTRA.VDW.0>
-2.18386

>  <SCORE.INTRA.norm>
0.139389

>  <SCORE.RESTR>
0.538159

>  <SCORE.RESTR.CAVITY>
0.538159

>  <SCORE.RESTR.norm>
0.0116991

>  <SCORE.SYSTEM>
0

>  <SCORE.SYSTEM.CONST>
0

>  <SCORE.SYSTEM.DIHEDRAL>
0

>  <SCORE.SYSTEM.SOLV>
0

>  <SCORE.SYSTEM.norm>
0

>  <SCORE.heavy>
46

>  <SCORE.norm>
0.52986

>  <RMSD>
15.733

$$$$
ligand
 OpenBabel02271912143D
libRbt.so/2013.1/901 2013/11/27
 46 52  0  0  0  0  0  0  0  0999 V2000
  -14.6569   -9.4752   19.6344 P   0  0  1  0  0  0  0  0  0  0  0  0
  -19.6421  -11.9215   17.6751 P   0  0  2  0  0  0  0  0  0  0  0  0
  -14.8748   -7.7297   19.8525 O   0  5  0  0  0  0  0  0  0  0  0  0
  -13.0393  -10.0071   20.1632 O   0  0  0  0  0  0  0  0  0  0  0  0
  -15.9431  -11.6586   20.4103 C   0  0  0  0  0  0  0  0  0  0  0  0
  -15.7991  -10.2397   20.4771 O   0  0  0  0  0  0  0  0  0  0  0  0
  -17.3368  -12.0261   20.8827 C   0  0  1  0  0  0  0  0  0  0  0  0
  -17.5736  -11.4425   22.1717 O   0  0  0  0  0  0  0  0  0  0  0  0
  -18.4372  -11.4872   19.9831 C   0  0  1  0  0  0  0  0  0  0  0  0
  -18.7953  -12.4126   18.9592 O   0  0  0  0  0  0  0  0  0  0  0  0
  -19.5816  -11.2378   20.9496 C   0  0  1  0  0  0  0  0  0  0  0  0
  -20.3772  -12.4183   21.0827 O   0  0  0  0  0  0  0  0  0  0  0  0
  -18.9175  -10.9482   22.2829 C   0  0  2  0  0  0  0  0  0  0  0  0
  -16.7594   -8.1947   15.5827 C   0  0  1  0  0  0  0  0  0  0  0  0
  -17.2251   -6.9701   25.3657 N   0  0  0  0  0  0  0  0  0  0  0  0
  -17.0004   -8.3067   25.4903 C   0  0  1  0  0  0  0  0  0  0  0  0
  -16.0441   -8.1369   16.9027 C   0  0  2  0  0  0  0  0  0  0  0  0
  -16.2471   -8.7345   26.5296 N   0  0  0  0  0  0  0  0  0  0  0  0
  -14.6997   -7.7468   16.6172 O   0  0  0  0  0  0  0  0  0  0  0  0
  -16.1241   -9.5492   17.4473 C   0  0  2  0  0  0  0  0  0  0  0  0
  -17.5049   -9.2262   24.6147 N   0  0  0  0  0  0  0  0  0  0  0  0
  -14.9261   -9.9246   18.1131 O   0  0  0  0  0  0  0  0  0  0  0  0
  -18.2642   -8.8481   23.5555 C   0  0  2  0  0  0  0  0  0  0  0  0
  -16.3374  -10.4248   16.2282 C   0  0  2  0  0  0  0  0  0  0  0  0
  -16.8778   -9.5701   15.2218 O   0  0  0  0  0  0  0  0  0  0  0  0
  -18.5406   -7.4121   23.3760 C   0  0  1  0  0  0  0  0  0  0  0  0
  -17.3013  -11.5771   16.4881 C   0  0  0  0  0  0  0  0  0  0  0  0
  -18.5806  -11.0458   16.8390 O   0  0  0  0  0  0  0  0  0  0  0  0
  -17.9684   -6.4686   24.3530 C   0  0  0  0  0  0  0  0  0  0  0  0
  -18.1905   -5.1346   24.2385 O   0  0  0  0  0  0  0  0  0  0  0  0
  -19.3026   -7.2965   22.2829 N   0  0  0  0  0  0  0  0  0  0  0  0
  -19.5055   -8.5548   21.7940 C   0  0  0  0  0  0  0  0  0  0  0  0
  -18.8879   -9.4859   22.5513 N   0  0  1  0  0  0  0  0  0  0  0  0
  -19.7200   -4.1591   14.0603 N   0  0  0  0  0  0  0  0  0  0  0  0
  -21.0374  -10.9209   18.1574 O   0  5  0  0  0  0  0  0  0  0  0  0
  -18.4292   -4.4590   13.7490 C   0  0  2  0  0  0  0  0  0  0  0  0
  -17.7391   -3.6359   12.9170 N   0  0  0  0  0  0  0  0  0  0  0  0
  -20.1988  -13.2563   16.6472 O   0  0  0  0  0  0  0  0  0  0  0  0
  -17.8047   -5.5616   14.2455 N   0  0  0  0  0  0  0  0  0  0  0  0
  -18.4418   -6.4224   15.0733 C   0  0  2  0  0  0  0  0  0  0  0  0
  -19.8358   -6.1506   15.4481 C   0  0  2  0  0  0  0  0  0  0  0  0
  -20.4584   -4.9349   14.8820 C   0  0  0  0  0  0  0  0  0  0  0  0
  -21.7398   -4.6005   15.1731 O   0  0  0  0  0  0  0  0  0  0  0  0
  -20.2130   -7.1449   16.2760 N   0  0  0  0  0  0  0  0  0  0  0  0
  -19.1465   -7.9875   16.4157 C   0  0  0  0  0  0  0  0  0  0  0  0
  -18.0890   -7.5486   15.6959 N   0  0  1  0  0  0  0  0  0  0  0  0
  1  3  1  1  0  0  0
  1  4  2  0  0  0  0
  1  6  1  0  0  0  0
  1 22  1  0  0  0  0
  2 28  1  0  0  0  0
  2 35  1  1  0  0  0
  2 38  2  0  0  0  0
  2 10  1  0  0  0  0
  5  6  1  0  0  0  0
  7  5  1  6  0  0  0
  7  8  1  0  0  0  0
  7  9  1  0  0  0  0
  9 10  1  6  0  0  0
  9 11  1  0  0  0  0
 11 12  1  1  0  0  0
 11 13  1  0  0  0  0
 13  8  1  6  0  0  0
 13 33  1  0  0  0  0
 14 46  1  0  0  0  0
 14 17  1  0  0  0  0
 14 25  1  1  0  0  0
 15 16  1  0  0  0  0
 15 29  1  0  0  0  0
 16 18  1  1  0  0  0
 16 21  1  0  0  0  0
 17 19  1  6  0  0  0
 17 20  1  0  0  0  0
 20 22  1  6  0  0  0
 20 24  1  0  0  0  0
 23 21  1  1  0  0  0
 23 26  1  0  0  0  0
 23 33  1  0  0  0  0
 24 25  1  6  0  0  0
 24 27  1  0  0  0  0
 26 29  1  6  0  0  0
 26 31  1  0  0  0  0
 27 28  1  0  0  0  0
 29 30  2  0  0  0  0
 31 32  1  0  0  0  0
 33 32  1  6  0  0  0
 34 36  1  0  0  0  0
 34 42  1  0  0  0  0
 36 37  1  6  0  0  0
 36 39  1  0  0  0  0
 40 39  1  1  0  0  0
 40 41  1  0  0  0  0
 40 46  1  0  0  0  0
 41 42  1  1  0  0  0
 41 44  1  0  0  0  0
 42 43  2  0  0  0  0
 44 45  1  0  0  0  0
 46 45  1  6  0  0  0
M  CHG  2   3  -1  35  -1
M  END
>  <CHROM.1>
-56.00685352,113.50153791,-17.84578443,-8.92179817,19.02533196,-0.11010476
1.44142194,-2.72393230

>  <Name>
ligand

>  <RI>
-1

>  <Rbt.Current_Directory>
/home/itssahil/PROJECTS/Mol_Feturizer/Test_systems_manuscript/rnas/3mum

>  <Rbt.Executable>
rbdock ($Id: //depot/dev/client3/rdock/2013.1/src/exe/rbdock.cxx#4 $)

>  <Rbt.Library>
libRbt.so (2013.1, Build901 2013/11/27)

>  <Rbt.Parameter_File>
/export/apps/rDock/src/rDock_2013.1_src/data/scripts/dock_solv.prm

>  <Rbt.Receptor>
prm/blind_docking_40.prm

>  <SCORE>
42.3211

>  <SCORE.INTER>
41.1355

>  <SCORE.INTER.CONST>
1

>  <SCORE.INTER.POLAR>
0

>  <SCORE.INTER.ROT>
2

>  <SCORE.INTER.SOLV>
42.0229

>  <SCORE.INTER.VDW>
8.48272

>  <SCORE.INTER.norm>
0.89425

>  <SCORE.INTRA>
0.407144

>  <SCORE.INTRA.DIHEDRAL>
0.00629587

>  <SCORE.INTRA.DIHEDRAL.0>
2.40424

>  <SCORE.INTRA.POLAR>
0

>  <SCORE.INTRA.POLAR.0>
0

>  <SCORE.INTRA.REPUL>
0

>  <SCORE.INTRA.REPUL.0>
0

>  <SCORE.INTRA.SOLV>
0.0912296

>  <SCORE.INTRA.SOLV.lig_0>
-134.169

>  <SCORE.INTRA.VDW>
0.358381

>  <SCORE.INTRA.VDW.0>
-2.18386

>  <SCORE.INTRA.norm>
0.00885095

>  <SCORE.RESTR>
0.778456

>  <SCORE.RESTR.CAVITY>
0.778456

>  <SCORE.RESTR.norm>
0.0169229

>  <SCORE.SYSTEM>
0

>  <SCORE.SYSTEM.CONST>
0

>  <SCORE.SYSTEM.DIHEDRAL>
0

>  <SCORE.SYSTEM.SOLV>
0

>  <SCORE.SYSTEM.norm>
0

>  <SCORE.heavy>
46

>  <SCORE.norm>
0.920024

>  <RMSD>
15.737

$$$$
ligand
 OpenBabel02271912143D
libRbt.so/2013.1/901 2013/11/27
 46 52  0  0  0  0  0  0  0  0999 V2000
  -14.9597   -9.8480   19.3265 P   0  0  1  0  0  0  0  0  0  0  0  0
  -19.4231  -10.7007   15.5813 P   0  0  2  0  0  0  0  0  0  0  0  0
  -14.9981   -8.1929   19.9597 O   0  5  0  0  0  0  0  0  0  0  0  0
  -13.6561  -10.8080   20.0739 O   0  0  0  0  0  0  0  0  0  0  0  0
  -16.6960  -11.8392   19.1168 C   0  0  0  0  0  0  0  0  0  0  0  0
  -16.3908  -10.5343   19.6095 O   0  0  0  0  0  0  0  0  0  0  0  0
  -18.2030  -12.0110   19.1038 C   0  0  1  0  0  0  0  0  0  0  0  0
  -18.7300  -11.7036   20.4022 O   0  0  0  0  0  0  0  0  0  0  0  0
  -18.9068  -11.0656   18.1441 C   0  0  1  0  0  0  0  0  0  0  0  0
  -19.0664  -11.6369   16.8474 O   0  0  0  0  0  0  0  0  0  0  0  0
  -20.2417  -10.8154   18.8233 C   0  0  1  0  0  0  0  0  0  0  0  0
  -21.1907  -11.8055   18.4192 O   0  0  0  0  0  0  0  0  0  0  0  0
  -19.9685  -10.9828   20.3065 C   0  0  2  0  0  0  0  0  0  0  0  0
  -15.5823   -7.2666   15.3991 C   0  0  1  0  0  0  0  0  0  0  0  0
  -20.1222   -8.1588   24.8002 N   0  0  0  0  0  0  0  0  0  0  0  0
  -20.3396   -9.4896   24.6161 C   0  0  1  0  0  0  0  0  0  0  0  0
  -15.2876   -7.6619   16.8183 C   0  0  2  0  0  0  0  0  0  0  0  0
  -20.6423  -10.2440   25.6977 N   0  0  0  0  0  0  0  0  0  0  0  0
  -13.8795   -7.5014   16.9986 O   0  0  0  0  0  0  0  0  0  0  0  0
  -15.7119   -9.1143   16.9105 C   0  0  2  0  0  0  0  0  0  0  0  0
  -20.2676  -10.0881   23.3899 N   0  0  0  0  0  0  0  0  0  0  0  0
  -14.8249   -9.8705   17.7233 O   0  0  0  0  0  0  0  0  0  0  0  0
  -19.9657   -9.3760   22.2749 C   0  0  2  0  0  0  0  0  0  0  0  0
  -15.6702   -9.6231   15.4830 C   0  0  2  0  0  0  0  0  0  0  0  0
  -15.7707   -8.4677   14.6521 O   0  0  0  0  0  0  0  0  0  0  0  0
  -19.7241   -7.9298   22.4183 C   0  0  1  0  0  0  0  0  0  0  0  0
  -16.8121  -10.5810   15.1623 C   0  0  0  0  0  0  0  0  0  0  0  0
  -18.0555   -9.8935   15.3152 O   0  0  0  0  0  0  0  0  0  0  0  0
  -19.8157   -7.3419   23.7667 C   0  0  0  0  0  0  0  0  0  0  0  0
  -19.6041   -6.0151   23.9588 O   0  0  0  0  0  0  0  0  0  0  0  0
  -19.4561   -7.4573   21.1960 N   0  0  0  0  0  0  0  0  0  0  0  0
  -19.5202   -8.5107   20.3301 C   0  0  0  0  0  0  0  0  0  0  0  0
  -19.8254   -9.6595   20.9695 N   0  0  1  0  0  0  0  0  0  0  0  0
  -20.3902   -6.7098   13.4134 N   0  0  0  0  0  0  0  0  0  0  0  0
  -20.7526   -9.5730   15.9577 O   0  5  0  0  0  0  0  0  0  0  0  0
  -19.4763   -7.6996   13.2183 C   0  0  2  0  0  0  0  0  0  0  0  0
  -19.7887   -8.7394   12.4014 N   0  0  0  0  0  0  0  0  0  0  0  0
  -19.8238  -11.6197   14.1175 O   0  0  0  0  0  0  0  0  0  0  0  0
  -18.2548   -7.6823   13.8182 N   0  0  0  0  0  0  0  0  0  0  0  0
  -17.8885   -6.6772   14.6475 C   0  0  2  0  0  0  0  0  0  0  0  0
  -18.8314   -5.5784   14.8951 C   0  0  2  0  0  0  0  0  0  0  0  0
  -20.1402   -5.6498   14.2110 C   0  0  0  0  0  0  0  0  0  0  0  0
  -21.0738   -4.6805   14.3763 O   0  0  0  0  0  0  0  0  0  0  0  0
  -18.2149   -4.7236   15.7351 N   0  0  0  0  0  0  0  0  0  0  0  0
  -16.9782   -5.2374   16.0064 C   0  0  0  0  0  0  0  0  0  0  0  0
  -16.7878   -6.4049   15.3509 N   0  0  1  0  0  0  0  0  0  0  0  0
  1  3  1  1  0  0  0
  1  4  2  0  0  0  0
  1  6  1  0  0  0  0
  1 22  1  0  0  0  0
  2 28  1  0  0  0  0
  2 35  1  1  0  0  0
  2 38  2  0  0  0  0
  2 10  1  0  0  0  0
  5  6  1  0  0  0  0
  7  5  1  1  0  0  0
  7  8  1  0  0  0  0
  7  9  1  0  0  0  0
  9 10  1  6  0  0  0
  9 11  1  0  0  0  0
 11 12  1  6  0  0  0
 11 13  1  0  0  0  0
 13  8  1  6  0  0  0
 13 33  1  0  0  0  0
 14 46  1  0  0  0  0
 14 17  1  0  0  0  0
 14 25  1  6  0  0  0
 15 16  1  0  0  0  0
 15 29  1  0  0  0  0
 16 18  1  6  0  0  0
 16 21  1  0  0  0  0
 17 19  1  6  0  0  0
 17 20  1  0  0  0  0
 20 22  1  1  0  0  0
 20 24  1  0  0  0  0
 23 21  1  6  0  0  0
 23 26  1  0  0  0  0
 23 33  1  0  0  0  0
 24 25  1  6  0  0  0
 24 27  1  0  0  0  0
 26 29  1  1  0  0  0
 26 31  1  0  0  0  0
 27 28  1  0  0  0  0
 29 30  2  0  0  0  0
 31 32  1  0  0  0  0
 33 32  1  1  0  0  0
 34 36  1  0  0  0  0
 34 42  1  0  0  0  0
 36 37  1  1  0  0  0
 36 39  1  0  0  0  0
 40 39  1  6  0  0  0
 40 41  1  0  0  0  0
 40 46  1  0  0  0  0
 41 42  1  6  0  0  0
 41 44  1  0  0  0  0
 42 43  2  0  0  0  0
 44 45  1  0  0  0  0
 46 45  1  1  0  0  0
M  CHG  2   3  -1  35  -1
M  END
>  <CHROM.1>
-84.40235792,-122.12563206,-18.19941553,-8.98041614,18.02498540,-1.71869620
0.33264757,-1.33827935

>  <Name>
ligand

>  <RI>
-1

>  <Rbt.Current_Directory>
/home/itssahil/PROJECTS/Mol_Feturizer/Test_systems_manuscript/rnas/3mum

>  <Rbt.Executable>
rbdock ($Id: //depot/dev/client3/rdock/2013.1/src/exe/rbdock.cxx#4 $)

>  <Rbt.Library>
libRbt.so (2013.1, Build901 2013/11/27)

>  <Rbt.Parameter_File>
/export/apps/rDock/src/rDock_2013.1_src/data/scripts/dock_solv.prm

>  <Rbt.Receptor>
prm/blind_docking_100.prm

>  <SCORE>
27.0037

>  <SCORE.INTER>
24.9339

>  <SCORE.INTER.CONST>
1

>  <SCORE.INTER.POLAR>
0

>  <SCORE.INTER.ROT>
2

>  <SCORE.INTER.SOLV>
37.3691

>  <SCORE.INTER.VDW>
-0.767116

>  <SCORE.INTER.norm>
0.542041

>  <SCORE.INTRA>
1.86399

>  <SCORE.INTRA.DIHEDRAL>
-0.00401261

>  <SCORE.INTRA.DIHEDRAL.0>
2.40424

>  <SCORE.INTRA.POLAR>
0

>  <SCORE.INTRA.POLAR.0>
0

>  <SCORE.INTRA.REPUL>
0

>  <SCORE.INTRA.REPUL.0>
0

>  <SCORE.INTRA.SOLV>
5.57958

>  <SCORE.INTRA.SOLV.lig_0>
-134.169

>  <SCORE.INTRA.VDW>
-0.92379

>  <SCORE.INTRA.VDW.0>
-2.18386

>  <SCORE.INTRA.norm>
0.0405216

>  <SCORE.RESTR>
0.205822

>  <SCORE.RESTR.CAVITY>
0.205822

>  <SCORE.RESTR.norm>
0.00447438

>  <SCORE.SYSTEM>
0

>  <SCORE.SYSTEM.CONST>
0

>  <SCORE.SYSTEM.DIHEDRAL>
0

>  <SCORE.SYSTEM.SOLV>
0

>  <SCORE.SYSTEM.norm>
0

>  <SCORE.heavy>
46

>  <SCORE.norm>
0.587037

>  <RMSD>
15.743

$$$$
ligand
 OpenBabel02271912143D
libRbt.so/2013.1/901 2013/11/27
 46 52  0  0  0  0  0  0  0  0999 V2000
  -14.5390   -9.6385   19.5725 P   0  0  1  0  0  0  0  0  0  0  0  0
  -19.6212  -11.8793   17.6164 P   0  0  2  0  0  0  0  0  0  0  0  0
  -14.7126   -7.9016   19.8801 O   0  5  0  0  0  0  0  0  0  0  0  0
  -12.9221  -10.2301   20.0362 O   0  0  0  0  0  0  0  0  0  0  0  0
  -15.8558  -11.8294   20.2721 C   0  0  0  0  0  0  0  0  0  0  0  0
  -15.6786  -10.4189   20.4042 O   0  0  0  0  0  0  0  0  0  0  0  0
  -17.2463  -12.1899   20.7592 C   0  0  1  0  0  0  0  0  0  0  0  0
  -17.4406  -11.6653   22.0802 O   0  0  0  0  0  0  0  0  0  0  0  0
  -18.3545  -11.5843   19.9133 C   0  0  1  0  0  0  0  0  0  0  0  0
  -18.7566  -12.4505   18.8545 O   0  0  0  0  0  0  0  0  0  0  0  0
  -19.4707  -11.3582   20.9178 C   0  0  1  0  0  0  0  0  0  0  0  0
  -20.2894  -12.5266   21.0124 O   0  0  0  0  0  0  0  0  0  0  0  0
  -18.7701  -11.1485   22.2473 C   0  0  2  0  0  0  0  0  0  0  0  0
  -16.7040   -8.1166   15.6390 C   0  0  1  0  0  0  0  0  0  0  0  0
  -16.9188   -7.3631   25.4779 N   0  0  0  0  0  0  0  0  0  0  0  0
  -16.7213   -8.7087   25.5321 C   0  0  1  0  0  0  0  0  0  0  0  0
  -15.9577   -8.1388   16.9427 C   0  0  2  0  0  0  0  0  0  0  0  0
  -15.9542   -9.2028   26.5311 N   0  0  0  0  0  0  0  0  0  0  0  0
  -14.6118   -7.7639   16.6446 O   0  0  0  0  0  0  0  0  0  0  0  0
  -16.0570   -9.5741   17.4200 C   0  0  2  0  0  0  0  0  0  0  0  0
  -17.2663   -9.5733   24.6253 N   0  0  0  0  0  0  0  0  0  0  0  0
  -14.8528  -10.0070   18.0380 O   0  0  0  0  0  0  0  0  0  0  0  0
  -18.0410   -9.1276   23.6042 C   0  0  2  0  0  0  0  0  0  0  0  0
  -16.3175  -10.3841   16.1653 C   0  0  2  0  0  0  0  0  0  0  0  0
  -16.8614   -9.4699   15.2147 O   0  0  0  0  0  0  0  0  0  0  0  0
  -18.2891   -7.6791   23.5013 C   0  0  1  0  0  0  0  0  0  0  0  0
  -17.3009  -11.5270   16.3920 C   0  0  0  0  0  0  0  0  0  0  0  0
  -18.5597  -10.9865   16.7986 O   0  0  0  0  0  0  0  0  0  0  0  0
  -17.6737   -6.7969   24.5088 C   0  0  0  0  0  0  0  0  0  0  0  0
  -17.8684   -5.4545   24.4645 O   0  0  0  0  0  0  0  0  0  0  0  0
  -19.0732   -7.4938   22.4336 N   0  0  0  0  0  0  0  0  0  0  0  0
  -19.3154   -8.7221   21.8893 C   0  0  0  0  0  0  0  0  0  0  0  0
  -18.7017   -9.7020   22.5855 N   0  0  1  0  0  0  0  0  0  0  0  0
  -19.7865   -4.2078   14.0301 N   0  0  0  0  0  0  0  0  0  0  0  0
  -20.9824  -10.8740   18.1798 O   0  5  0  0  0  0  0  0  0  0  0  0
  -18.5313   -4.5489   13.6291 C   0  0  2  0  0  0  0  0  0  0  0  0
  -17.9206   -3.8138   12.6633 N   0  0  0  0  0  0  0  0  0  0  0  0
  -20.2310  -13.1499   16.5385 O   0  0  0  0  0  0  0  0  0  0  0  0
  -17.8651   -5.6075   14.1657 N   0  0  0  0  0  0  0  0  0  0  0  0
  -18.4233   -6.3812   15.1258 C   0  0  2  0  0  0  0  0  0  0  0  0
  -19.7755   -6.0611   15.6021 C   0  0  2  0  0  0  0  0  0  0  0  0
  -20.4461   -4.8964   14.9858 C   0  0  0  0  0  0  0  0  0  0  0  0
  -21.6938   -4.5227   15.3627 O   0  0  0  0  0  0  0  0  0  0  0  0
  -20.0753   -6.9704   16.5505 N   0  0  0  0  0  0  0  0  0  0  0  0
  -19.0019   -7.8078   16.6680 C   0  0  0  0  0  0  0  0  0  0  0  0
  -18.0159   -7.4487   15.8150 N   0  0  1  0  0  0  0  0  0  0  0  0
  1  3  1  1  0  0  0
  1  4  2  0  0  0  0
  1  6  1  0  0  0  0
  1 22  1  0  0  0  0
  2 28  1  0  0  0  0
  2 35  1  1  0  0  0
  2 38  2  0  0  0  0
  2 10  1  0  0  0  0
  5  6  1  0  0  0  0
  7  5  1  6  0  0  0
  7  8  1  0  0  0  0
  7  9  1  0  0  0  0
  9 10  1  6  0  0  0
  9 11  1  0  0  0  0
 11 12  1  1  0  0  0
 11 13  1  0  0  0  0
 13  8  1  6  0  0  0
 13 33  1  0  0  0  0
 14 46  1  0  0  0  0
 14 17  1  0  0  0  0
 14 25  1  1  0  0  0
 15 16  1  0  0  0  0
 15 29  1  0  0  0  0
 16 18  1  1  0  0  0
 16 21  1  0  0  0  0
 17 19  1  6  0  0  0
 17 20  1  0  0  0  0
 20 22  1  6  0  0  0
 20 24  1  0  0  0  0
 23 21  1  1  0  0  0
 23 26  1  0  0  0  0
 23 33  1  0  0  0  0
 24 25  1  6  0  0  0
 24 27  1  0  0  0  0
 26 29  1  6  0  0  0
 26 31  1  0  0  0  0
 27 28  1  0  0  0  0
 29 30  2  0  0  0  0
 31 32  1  0  0  0  0
 33 32  1  6  0  0  0
 34 36  1  0  0  0  0
 34 42  1  0  0  0  0
 36 37  1  6  0  0  0
 36 39  1  0  0  0  0
 40 39  1  1  0  0  0
 40 41  1  0  0  0  0
 40 46  1  0  0  0  0
 41 42  1  1  0  0  0
 41 44  1  0  0  0  0
 42 43  2  0  0  0  0
 44 45  1  0  0  0  0
 46 45  1  6  0  0  0
M  CHG  2   3  -1  35  -1
M  END
>  <CHROM.1>
-55.99889033,122.62046385,-17.74734114,-9.01657532,19.02836901,-0.07129456
1.41580855,-2.73419292

>  <Name>
ligand

>  <RI>
-1

>  <Rbt.Current_Directory>
/home/itssahil/PROJECTS/Mol_Feturizer/Test_systems_manuscript/rnas/3mum

>  <Rbt.Executable>
rbdock ($Id: //depot/dev/client3/rdock/2013.1/src/exe/rbdock.cxx#4 $)

>  <Rbt.Library>
libRbt.so (2013.1, Build901 2013/11/27)

>  <Rbt.Parameter_File>
/export/apps/rDock/src/rDock_2013.1_src/data/scripts/dock_solv.prm

>  <Rbt.Receptor>
prm/blind_docking_80.prm

>  <SCORE>
42.9709

>  <SCORE.INTER>
41.7683

>  <SCORE.INTER.CONST>
1

>  <SCORE.INTER.POLAR>
0

>  <SCORE.INTER.ROT>
2

>  <SCORE.INTER.SOLV>
41.5699

>  <SCORE.INTER.VDW>
9.05554

>  <SCORE.INTER.norm>
0.908005

>  <SCORE.INTRA>
0.494774

>  <SCORE.INTRA.DIHEDRAL>
-0.00664173

>  <SCORE.INTRA.DIHEDRAL.0>
2.40424

>  <SCORE.INTRA.POLAR>
0

>  <SCORE.INTRA.POLAR.0>
0

>  <SCORE.INTRA.REPUL>
0

>  <SCORE.INTRA.REPUL.0>
0

>  <SCORE.INTRA.SOLV>
0.0605709

>  <SCORE.INTRA.SOLV.lig_0>
-134.169

>  <SCORE.INTRA.VDW>
0.467809

>  <SCORE.INTRA.VDW.0>
-2.18386

>  <SCORE.INTRA.norm>
0.0107559

>  <SCORE.RESTR>
0.707901

>  <SCORE.RESTR.CAVITY>
0.707901

>  <SCORE.RESTR.norm>
0.0153891

>  <SCORE.SYSTEM>
0

>  <SCORE.SYSTEM.CONST>
0

>  <SCORE.SYSTEM.DIHEDRAL>
0

>  <SCORE.SYSTEM.SOLV>
0

>  <SCORE.SYSTEM.norm>
0

>  <SCORE.heavy>
46

>  <SCORE.norm>
0.934151

>  <RMSD>
15.750

$$$$
ligand
 OpenBabel02271912143D
libRbt.so/2013.1/901 2013/11/27
 46 52  0  0  0  0  0  0  0  0999 V2000
  -19.7228  -11.8378   17.6318 P   0  0  1  0  0  0  0  0  0  0  0  0
  -14.7034   -9.4900   19.6242 P   0  0  2  0  0  0  0  0  0  0  0  0
  -21.0877  -10.7675   17.9968 O   0  5  0  0  0  0  0  0  0  0  0  0
  -20.2358  -13.2577   16.6831 O   0  0  0  0  0  0  0  0  0  0  0  0
  -17.3537  -11.5632   16.4761 C   0  0  0  0  0  0  0  0  0  0  0  0
  -18.6170  -10.9926   16.8180 O   0  0  0  0  0  0  0  0  0  0  0  0
  -16.3809  -10.4392   16.1747 C   0  0  1  0  0  0  0  0  0  0  0  0
  -16.9501   -9.5663   15.1888 O   0  0  0  0  0  0  0  0  0  0  0  0
  -16.0894   -9.5585   17.3788 C   0  0  1  0  0  0  0  0  0  0  0  0
  -14.9622  -10.0189   18.1208 O   0  0  0  0  0  0  0  0  0  0  0  0
  -15.8426   -8.1951   16.7573 C   0  0  1  0  0  0  0  0  0  0  0  0
  -14.4608   -8.0535   16.4185 O   0  0  0  0  0  0  0  0  0  0  0  0
  -16.6582   -8.1901   15.4778 C   0  0  2  0  0  0  0  0  0  0  0  0
  -18.9885  -10.7655   22.1911 C   0  0  1  0  0  0  0  0  0  0  0  0
  -20.3108   -4.9336   13.4169 N   0  0  0  0  0  0  0  0  0  0  0  0
  -19.1787   -5.4251   12.8430 C   0  0  1  0  0  0  0  0  0  0  0  0
  -19.6373  -10.9160   20.8444 C   0  0  2  0  0  0  0  0  0  0  0  0
  -18.8975   -5.0625   11.5702 N   0  0  0  0  0  0  0  0  0  0  0  0
  -20.6332  -11.9304   20.9866 O   0  0  0  0  0  0  0  0  0  0  0  0
  -18.5147  -11.3454   19.9208 C   0  0  2  0  0  0  0  0  0  0  0  0
  -18.3203   -6.2617   13.4988 N   0  0  0  0  0  0  0  0  0  0  0  0
  -18.9553  -12.3026   18.9674 O   0  0  0  0  0  0  0  0  0  0  0  0
  -18.5584   -6.6564   14.7751 C   0  0  2  0  0  0  0  0  0  0  0  0
  -17.4740  -11.9628   20.8343 C   0  0  2  0  0  0  0  0  0  0  0  0
  -17.7263  -11.4286   22.1328 O   0  0  0  0  0  0  0  0  0  0  0  0
  -19.7693   -6.1504   15.4444 C   0  0  1  0  0  0  0  0  0  0  0  0
  -16.0464  -11.6294   20.4158 C   0  0  0  0  0  0  0  0  0  0  0  0
  -15.8591  -10.2142   20.4801 O   0  0  0  0  0  0  0  0  0  0  0  0
  -20.6569   -5.2515   14.6852 C   0  0  0  0  0  0  0  0  0  0  0  0
  -21.7858   -4.7539   15.2510 O   0  0  0  0  0  0  0  0  0  0  0  0
  -19.7774   -6.6688   16.6774 N   0  0  0  0  0  0  0  0  0  0  0  0
  -18.6620   -7.4464   16.7986 C   0  0  0  0  0  0  0  0  0  0  0  0
  -17.9295   -7.4417   15.6651 N   0  0  1  0  0  0  0  0  0  0  0  0
  -16.8900   -7.3310   25.5331 N   0  0  0  0  0  0  0  0  0  0  0  0
  -14.8645   -7.7169   19.7290 O   0  5  0  0  0  0  0  0  0  0  0  0
  -16.8454   -8.6914   25.5395 C   0  0  2  0  0  0  0  0  0  0  0  0
  -16.1666   -9.3283   26.5293 N   0  0  0  0  0  0  0  0  0  0  0  0
  -13.1301   -9.9807   20.2815 O   0  0  0  0  0  0  0  0  0  0  0  0
  -17.4605   -9.4380   24.5822 N   0  0  0  0  0  0  0  0  0  0  0  0
  -18.1460   -8.8612   23.5675 C   0  0  2  0  0  0  0  0  0  0  0  0
  -18.2321   -7.3960   23.5083 C   0  0  2  0  0  0  0  0  0  0  0  0
  -17.5488   -6.6394   24.5791 C   0  0  0  0  0  0  0  0  0  0  0  0
  -17.5754   -5.2841   24.6094 O   0  0  0  0  0  0  0  0  0  0  0  0
  -18.9702   -7.0971   22.4210 N   0  0  0  0  0  0  0  0  0  0  0  0
  -19.3240   -8.2772   21.8299 C   0  0  0  0  0  0  0  0  0  0  0  0
  -18.8301   -9.3289   22.5218 N   0  0  1  0  0  0  0  0  0  0  0  0
  1  3  1  1  0  0  0
  1  4  2  0  0  0  0
  1  6  1  0  0  0  0
  1 22  1  0  0  0  0
  2 28  1  0  0  0  0
  2 35  1  1  0  0  0
  2 38  2  0  0  0  0
  2 10  1  0  0  0  0
  5  6  1  0  0  0  0
  7  5  1  1  0  0  0
  7  8  1  0  0  0  0
  7  9  1  0  0  0  0
  9 10  1  6  0  0  0
  9 11  1  0  0  0  0
 11 12  1  6  0  0  0
 11 13  1  0  0  0  0
 13  8  1  1  0  0  0
 13 33  1  0  0  0  0
 14 46  1  0  0  0  0
 14 17  1  0  0  0  0
 14 25  1  6  0  0  0
 15 16  1  0  0  0  0
 15 29  1  0  0  0  0
 16 18  1  1  0  0  0
 16 21  1  0  0  0  0
 17 19  1  1  0  0  0
 17 20  1  0  0  0  0
 20 22  1  6  0  0  0
 20 24  1  0  0  0  0
 23 21  1  1  0  0  0
 23 26  1  0  0  0  0
 23 33  1  0  0  0  0
 24 25  1  1  0  0  0
 24 27  1  0  0  0  0
 26 29  1  6  0  0  0
 26 31  1  0  0  0  0
 27 28  1  0  0  0  0
 29 30  2  0  0  0  0
 31 32  1  0  0  0  0
 33 32  1  6  0  0  0
 34 36  1  0  0  0  0
 34 42  1  0  0  0  0
 36 37  1  6  0  0  0
 36 39  1  0  0  0  0
 40 39  1  1  0  0  0
 40 41  1  0  0  0  0
 40 46  1  0  0  0  0
 41 42  1  1  0  0  0
 41 44  1  0  0  0  0
 42 43  2  0  0  0  0
 44 45  1  0  0  0  0
 46 45  1  6  0  0  0
M  CHG  2   3  -1  35  -1
M  END
>  <CHROM.1>
-99.85514723,-171.47514756,-17.86393433,-8.98807384,18.95465222,-2.75844470
-1.38321930,0.62138422

>  <Name>
ligand

>  <RI>
-1

>  <Rbt.Current_Directory>
/home/itssahil/PROJECTS/Mol_Feturizer/Test_systems_manuscript/rnas/3mum

>  <Rbt.Executable>
rbdock ($Id: //depot/dev/client3/rdock/2013.1/src/exe/rbdock.cxx#4 $)

>  <Rbt.Library>
libRbt.so (2013.1, Build901 2013/11/27)

>  <Rbt.Parameter_File>
/export/apps/rDock/src/rDock_2013.1_src/data/scripts/dock_solv.prm

>  <Rbt.Receptor>
prm/blind_docking_80.prm

>  <SCORE>
23.5014

>  <SCORE.INTER>
22.6347

>  <SCORE.INTER.CONST>
1

>  <SCORE.INTER.POLAR>
0

>  <SCORE.INTER.ROT>
2

>  <SCORE.INTER.SOLV>
41.2553

>  <SCORE.INTER.VDW>
-3.59527

>  <SCORE.INTER.norm>
0.492059

>  <SCORE.INTRA>
0.668994

>  <SCORE.INTRA.DIHEDRAL>
0.00394813

>  <SCORE.INTRA.DIHEDRAL.0>
2.40424

>  <SCORE.INTRA.POLAR>
0

>  <SCORE.INTRA.POLAR.0>
0

>  <SCORE.INTRA.REPUL>
0

>  <SCORE.INTRA.REPUL.0>
0

>  <SCORE.INTRA.SOLV>
0.0267595

>  <SCORE.INTRA.SOLV.lig_0>
-134.169

>  <SCORE.INTRA.VDW>
0.65364

>  <SCORE.INTRA.VDW.0>
-2.18386

>  <SCORE.INTRA.norm>
0.0145433

>  <SCORE.RESTR>
0.197662

>  <SCORE.RESTR.CAVITY>
0.197662

>  <SCORE.RESTR.norm>
0.004297

>  <SCORE.SYSTEM>
0

>  <SCORE.SYSTEM.CONST>
0

>  <SCORE.SYSTEM.DIHEDRAL>
0

>  <SCORE.SYSTEM.SOLV>
0

>  <SCORE.SYSTEM.norm>
0

>  <SCORE.heavy>
46

>  <SCORE.norm>
0.5109

>  <RMSD>
15.752

$$$$
ligand
 OpenBabel02271912143D
libRbt.so/2013.1/901 2013/11/27
 46 52  0  0  0  0  0  0  0  0999 V2000
  -19.6876  -11.8104   17.6013 P   0  0  1  0  0  0  0  0  0  0  0  0
  -14.7256   -9.4349   19.7016 P   0  0  2  0  0  0  0  0  0  0  0  0
  -21.0689  -10.7571   17.9539 O   0  5  0  0  0  0  0  0  0  0  0  0
  -20.1707  -13.2254   16.6299 O   0  0  0  0  0  0  0  0  0  0  0  0
  -17.3023  -11.5014   16.4886 C   0  0  0  0  0  0  0  0  0  0  0  0
  -18.5766  -10.9464   16.8149 O   0  0  0  0  0  0  0  0  0  0  0  0
  -16.3356  -10.3650   16.2150 C   0  0  1  0  0  0  0  0  0  0  0  0
  -16.8967   -9.4877   15.2283 O   0  0  0  0  0  0  0  0  0  0  0  0
  -16.0730   -9.4939   17.4326 C   0  0  1  0  0  0  0  0  0  0  0  0
  -14.9539   -9.9509   18.1889 O   0  0  0  0  0  0  0  0  0  0  0  0
  -15.8291   -8.1219   16.8290 C   0  0  1  0  0  0  0  0  0  0  0  0
  -14.4432   -7.9636   16.5150 O   0  0  0  0  0  0  0  0  0  0  0  0
  -16.6231   -8.1118   15.5360 C   0  0  2  0  0  0  0  0  0  0  0  0
  -19.0405  -10.7775   22.1829 C   0  0  1  0  0  0  0  0  0  0  0  0
  -20.3402   -4.9780   13.4016 N   0  0  0  0  0  0  0  0  0  0  0  0
  -19.2046   -5.4697   12.8350 C   0  0  1  0  0  0  0  0  0  0  0  0
  -19.6651  -10.9206   20.8240 C   0  0  2  0  0  0  0  0  0  0  0  0
  -18.9379   -5.1428   11.5495 N   0  0  0  0  0  0  0  0  0  0  0  0
  -20.6533  -11.9458   20.9392 O   0  0  0  0  0  0  0  0  0  0  0  0
  -18.5230  -11.3297   19.9152 C   0  0  2  0  0  0  0  0  0  0  0  0
  -18.3287   -6.2720   13.5102 N   0  0  0  0  0  0  0  0  0  0  0  0
  -18.9381  -12.2814   18.9450 O   0  0  0  0  0  0  0  0  0  0  0  0
  -18.5518   -6.6302   14.7999 C   0  0  2  0  0  0  0  0  0  0  0  0
  -17.4918  -11.9463   20.8399 C   0  0  2  0  0  0  0  0  0  0  0  0
  -17.7711  -11.4279   22.1393 O   0  0  0  0  0  0  0  0  0  0  0  0
  -19.7659   -6.1223   15.4621 C   0  0  1  0  0  0  0  0  0  0  0  0
  -16.0607  -11.5950   20.4490 C   0  0  0  0  0  0  0  0  0  0  0  0
  -15.8884  -10.1788   20.5306 O   0  0  0  0  0  0  0  0  0  0  0  0
  -20.6726   -5.2614   14.6818 C   0  0  0  0  0  0  0  0  0  0  0  0
  -21.8052   -4.7638   15.2401 O   0  0  0  0  0  0  0  0  0  0  0  0
  -19.7574   -6.6020   16.7106 N   0  0  0  0  0  0  0  0  0  0  0  0
  -18.6291   -7.3581   16.8478 C   0  0  0  0  0  0  0  0  0  0  0  0
  -17.9046   -7.3775   15.7092 N   0  0  1  0  0  0  0  0  0  0  0  0
  -17.0976   -7.3608   25.6354 N   0  0  0  0  0  0  0  0  0  0  0  0
  -14.9057   -7.6646   19.8214 O   0  5  0  0  0  0  0  0  0  0  0  0
  -17.0480   -8.7211   25.6336 C   0  0  2  0  0  0  0  0  0  0  0  0
  -16.4089   -9.3630   26.6463 N   0  0  0  0  0  0  0  0  0  0  0  0
  -13.1588   -9.9171   20.3805 O   0  0  0  0  0  0  0  0  0  0  0  0
  -17.6195   -9.4627   24.6458 N   0  0  0  0  0  0  0  0  0  0  0  0
  -18.2640   -8.8806   23.6075 C   0  0  2  0  0  0  0  0  0  0  0  0
  -18.3533   -7.4153   23.5555 C   0  0  2  0  0  0  0  0  0  0  0  0
  -17.7184   -6.6645   24.6597 C   0  0  0  0  0  0  0  0  0  0  0  0
  -17.7516   -5.3095   24.6989 O   0  0  0  0  0  0  0  0  0  0  0  0
  -19.0463   -7.1109   22.4404 N   0  0  0  0  0  0  0  0  0  0  0  0
  -19.3702   -8.2877   21.8263 C   0  0  0  0  0  0  0  0  0  0  0  0
  -18.9018   -9.3429   22.5306 N   0  0  1  0  0  0  0  0  0  0  0  0
  1  3  1  1  0  0  0
  1  4  2  0  0  0  0
  1  6  1  0  0  0  0
  1 22  1  0  0  0  0
  2 28  1  0  0  0  0
  2 35  1  1  0  0  0
  2 38  2  0  0  0  0
  2 10  1  0  0  0  0
  5  6  1  0  0  0  0
  7  5  1  1  0  0  0
  7  8  1  0  0  0  0
  7  9  1  0  0  0  0
  9 10  1  6  0  0  0
  9 11  1  0  0  0  0
 11 12  1  6  0  0  0
 11 13  1  0  0  0  0
 13  8  1  1  0  0  0
 13 33  1  0  0  0  0
 14 46  1  0  0  0  0
 14 17  1  0  0  0  0
 14 25  1  6  0  0  0
 15 16  1  0  0  0  0
 15 29  1  0  0  0  0
 16 18  1  1  0  0  0
 16 21  1  0  0  0  0
 17 19  1  1  0  0  0
 17 20  1  0  0  0  0
 20 22  1  6  0  0  0
 20 24  1  0  0  0  0
 23 21  1  1  0  0  0
 23 26  1  0  0  0  0
 23 33  1  0  0  0  0
 24 25  1  1  0  0  0
 24 27  1  0  0  0  0
 26 29  1  6  0  0  0
 26 31  1  0  0  0  0
 27 28  1  0  0  0  0
 29 30  2  0  0  0  0
 31 32  1  0  0  0  0
 33 32  1  6  0  0  0
 34 36  1  0  0  0  0
 34 42  1  0  0  0  0
 36 37  1  6  0  0  0
 36 39  1  0  0  0  0
 40 39  1  1  0  0  0
 40 41  1  0  0  0  0
 40 46  1  0  0  0  0
 41 42  1  1  0  0  0
 41 44  1  0  0  0  0
 42 43  2  0  0  0  0
 44 45  1  0  0  0  0
 46 45  1  6  0  0  0
M  CHG  2   3  -1  35  -1
M  END
>  <CHROM.1>
-97.09848966,-172.96382345,-17.89370464,-8.96866419,18.98354281,-2.52467695
-1.37472883,0.85572935

>  <Name>
ligand

>  <RI>
-1

>  <Rbt.Current_Directory>
/home/itssahil/PROJECTS/Mol_Feturizer/Test_systems_manuscript/rnas/3mum

>  <Rbt.Executable>
rbdock ($Id: //depot/dev/client3/rdock/2013.1/src/exe/rbdock.cxx#4 $)

>  <Rbt.Library>
libRbt.so (2013.1, Build901 2013/11/27)

>  <Rbt.Parameter_File>
/export/apps/rDock/src/rDock_2013.1_src/data/scripts/dock_solv.prm

>  <Rbt.Receptor>
prm/blind_docking_40.prm

>  <SCORE>
25.1942

>  <SCORE.INTER>
24.0625

>  <SCORE.INTER.CONST>
1

>  <SCORE.INTER.POLAR>
0

>  <SCORE.INTER.ROT>
2

>  <SCORE.INTER.SOLV>
41.3711

>  <SCORE.INTER.VDW>
-2.68204

>  <SCORE.INTER.norm>
0.523098

>  <SCORE.INTRA>
0.693642

>  <SCORE.INTRA.DIHEDRAL>
0.00173102

>  <SCORE.INTRA.DIHEDRAL.0>
2.40424

>  <SCORE.INTRA.POLAR>
0

>  <SCORE.INTRA.POLAR.0>
0

>  <SCORE.INTRA.REPUL>
0

>  <SCORE.INTRA.REPUL.0>
0

>  <SCORE.INTRA.SOLV>
0.0268149

>  <SCORE.INTRA.SOLV.lig_0>
-134.169

>  <SCORE.INTRA.VDW>
0.679369

>  <SCORE.INTRA.VDW.0>
-2.18386

>  <SCORE.INTRA.norm>
0.0150792

>  <SCORE.RESTR>
0.438027

>  <SCORE.RESTR.CAVITY>
0.438027

>  <SCORE.RESTR.norm>
0.00952232

>  <SCORE.SYSTEM>
0

>  <SCORE.SYSTEM.CONST>
0

>  <SCORE.SYSTEM.DIHEDRAL>
0

>  <SCORE.SYSTEM.SOLV>
0

>  <SCORE.SYSTEM.norm>
0

>  <SCORE.heavy>
46

>  <SCORE.norm>
0.547699

>  <RMSD>
15.757

$$$$
ligand
 OpenBabel02271912143D
libRbt.so/2013.1/901 2013/11/27
 46 52  0  0  0  0  0  0  0  0999 V2000
  -19.5000   -9.7050   20.1727 P   0  0  1  0  0  0  0  0  0  0  0  0
  -15.5567   -7.6189   16.3289 P   0  0  2  0  0  0  0  0  0  0  0  0
  -19.9383  -11.3716   19.7580 O   0  5  0  0  0  0  0  0  0  0  0  0
  -20.2898   -9.1729   21.6801 O   0  0  0  0  0  0  0  0  0  0  0  0
  -17.2380   -8.3771   20.5516 C   0  0  0  0  0  0  0  0  0  0  0  0
  -17.8969   -9.6230   20.3233 O   0  0  0  0  0  0  0  0  0  0  0  0
  -15.7778   -8.5250   20.1687 C   0  0  1  0  0  0  0  0  0  0  0  0
  -15.2164   -9.6537   20.8533 O   0  0  0  0  0  0  0  0  0  0  0  0
  -15.5704   -8.8018   18.6885 C   0  0  1  0  0  0  0  0  0  0  0  0
  -15.4028   -7.6023   17.9360 O   0  0  0  0  0  0  0  0  0  0  0  0
  -14.3201   -9.6635   18.6707 C   0  0  1  0  0  0  0  0  0  0  0  0
  -13.1557   -8.8367   18.5985 O   0  0  0  0  0  0  0  0  0  0  0  0
  -14.3189  -10.3866   20.0047 C   0  0  2  0  0  0  0  0  0  0  0  0
  -20.3193   -9.4157   15.5120 C   0  0  1  0  0  0  0  0  0  0  0  0
  -13.7105  -15.5304   21.1728 N   0  0  0  0  0  0  0  0  0  0  0  0
  -12.9555  -14.4673   21.5631 C   0  0  1  0  0  0  0  0  0  0  0  0
  -20.2697   -9.9203   16.9263 C   0  0  2  0  0  0  0  0  0  0  0  0
  -11.8873  -14.6998   22.3603 N   0  0  0  0  0  0  0  0  0  0  0  0
  -21.6115   -9.8846   17.4155 O   0  0  0  0  0  0  0  0  0  0  0  0
  -19.3715   -8.9404   17.6546 C   0  0  2  0  0  0  0  0  0  0  0  0
  -13.2308  -13.1847   21.1812 N   0  0  0  0  0  0  0  0  0  0  0  0
  -19.8332   -8.6846   18.9740 O   0  0  0  0  0  0  0  0  0  0  0  0
  -14.2914  -12.8989   20.3843 C   0  0  2  0  0  0  0  0  0  0  0  0
  -19.4301   -7.6707   16.8282 C   0  0  2  0  0  0  0  0  0  0  0  0
  -19.8383   -8.0722   15.5216 O   0  0  0  0  0  0  0  0  0  0  0  0
  -15.1400  -14.0144   19.9305 C   0  0  1  0  0  0  0  0  0  0  0  0
  -18.0858   -6.9565   16.7440 C   0  0  0  0  0  0  0  0  0  0  0  0
  -17.1392   -7.8163   16.1062 O   0  0  0  0  0  0  0  0  0  0  0  0
  -14.7926  -15.3756   20.3761 C   0  0  0  0  0  0  0  0  0  0  0  0
  -15.5378  -16.4417   19.9886 O   0  0  0  0  0  0  0  0  0  0  0  0
  -16.1001  -13.4856   19.1640 N   0  0  0  0  0  0  0  0  0  0  0  0
  -15.8905  -12.1373   19.1226 C   0  0  0  0  0  0  0  0  0  0  0  0
  -14.8103  -11.7815   19.8493 N   0  0  1  0  0  0  0  0  0  0  0  0
  -18.8616  -10.3903   10.5831 N   0  0  0  0  0  0  0  0  0  0  0  0
  -14.6486   -8.9700   15.6003 O   0  5  0  0  0  0  0  0  0  0  0  0
  -19.7189   -9.4510   11.0685 C   0  0  2  0  0  0  0  0  0  0  0  0
  -20.3235   -8.5948   10.2040 N   0  0  0  0  0  0  0  0  0  0  0  0
  -15.0695   -6.0961   15.5597 O   0  0  0  0  0  0  0  0  0  0  0  0
  -19.9909   -9.3403   12.3974 N   0  0  0  0  0  0  0  0  0  0  0  0
  -19.4146  -10.1597   13.3078 C   0  0  2  0  0  0  0  0  0  0  0  0
  -18.4822  -11.1958   12.8443 C   0  0  2  0  0  0  0  0  0  0  0  0
  -18.2311  -11.2707   11.3892 C   0  0  0  0  0  0  0  0  0  0  0  0
  -17.3881  -12.1960   10.8679 O   0  0  0  0  0  0  0  0  0  0  0  0
  -18.0724  -11.8637   13.9408 N   0  0  0  0  0  0  0  0  0  0  0  0
  -18.6903  -11.2968   15.0196 C   0  0  0  0  0  0  0  0  0  0  0  0
  -19.4938  -10.2796   14.6343 N   0  0  1  0  0  0  0  0  0  0  0  0
  1  3  1  6  0  0  0
  1  4  2  0  0  0  0
  1  6  1  0  0  0  0
  1 22  1  0  0  0  0
  2 28  1  0  0  0  0
  2 35  1  6  0  0  0
  2 38  2  0  0  0  0
  2 10  1  0  0  0  0
  5  6  1  0  0  0  0
  7  5  1  6  0  0  0
  7  8  1  0  0  0  0
  7  9  1  0  0  0  0
  9 10  1  6  0  0  0
  9 11  1  0  0  0  0
 11 12  1  1  0  0  0
 11 13  1  0  0  0  0
 13  8  1  1  0  0  0
 13 33  1  0  0  0  0
 14 46  1  0  0  0  0
 14 17  1  0  0  0  0
 14 25  1  1  0  0  0
 15 16  1  0  0  0  0
 15 29  1  0  0  0  0
 16 18  1  6  0  0  0
 16 21  1  0  0  0  0
 17 19  1  1  0  0  0
 17 20  1  0  0  0  0
 20 22  1  1  0  0  0
 20 24  1  0  0  0  0
 23 21  1  6  0  0  0
 23 26  1  0  0  0  0
 23 33  1  0  0  0  0
 24 25  1  6  0  0  0
 24 27  1  0  0  0  0
 26 29  1  1  0  0  0
 26 31  1  0  0  0  0
 27 28  1  0  0  0  0
 29 30  2  0  0  0  0
 31 32  1  0  0  0  0
 33 32  1  1  0  0  0
 34 36  1  0  0  0  0
 34 42  1  0  0  0  0
 36 37  1  1  0  0  0
 36 39  1  0  0  0  0
 40 39  1  6  0  0  0
 40 41  1  0  0  0  0
 40 46  1  0  0  0  0
 41 42  1  6  0  0  0
 41 44  1  0  0  0  0
 42 43  2  0  0  0  0
 44 45  1  0  0  0  0
 46 45  1  1  0  0  0
M  CHG  2   3  -1  35  -1
M  END
>  <CHROM.1>
-107.67772305,174.53254008,-17.14256136,-10.31132739,17.42678799,0.63560427
-0.92928947,1.16657730

>  <Name>
ligand

>  <RI>
-1

>  <Rbt.Current_Directory>
/home/itssahil/PROJECTS/Mol_Feturizer/Test_systems_manuscript/rnas/3mum

>  <Rbt.Executable>
rbdock ($Id: //depot/dev/client3/rdock/2013.1/src/exe/rbdock.cxx#4 $)

>  <Rbt.Library>
libRbt.so (2013.1, Build901 2013/11/27)

>  <Rbt.Parameter_File>
/export/apps/rDock/src/rDock_2013.1_src/data/scripts/dock_solv.prm

>  <Rbt.Receptor>
prm/blind_docking_80.prm

>  <SCORE>
0.593046

>  <SCORE.INTER>
-2.2646

>  <SCORE.INTER.CONST>
1

>  <SCORE.INTER.POLAR>
0

>  <SCORE.INTER.ROT>
2

>  <SCORE.INTER.SOLV>
34.0372

>  <SCORE.INTER.VDW>
-17.7888

>  <SCORE.INTER.norm>
-0.0492305

>  <SCORE.INTRA>
0.537663

>  <SCORE.INTRA.DIHEDRAL>
-0.0147976

>  <SCORE.INTRA.DIHEDRAL.0>
2.40424

>  <SCORE.INTRA.POLAR>
0

>  <SCORE.INTRA.POLAR.0>
0

>  <SCORE.INTRA.REPUL>
0

>  <SCORE.INTRA.REPUL.0>
0

>  <SCORE.INTRA.SOLV>
0.0148591

>  <SCORE.INTRA.SOLV.lig_0>
-134.169

>  <SCORE.INTRA.VDW>
0.537632

>  <SCORE.INTRA.VDW.0>
-2.18386

>  <SCORE.INTRA.norm>
0.0116883

>  <SCORE.RESTR>
2.31999

>  <SCORE.RESTR.CAVITY>
2.31999

>  <SCORE.RESTR.norm>
0.0504345

>  <SCORE.SYSTEM>
0

>  <SCORE.SYSTEM.CONST>
0

>  <SCORE.SYSTEM.DIHEDRAL>
0

>  <SCORE.SYSTEM.SOLV>
0

>  <SCORE.SYSTEM.norm>
0

>  <SCORE.heavy>
46

>  <SCORE.norm>
0.0128923

>  <RMSD>
15.800

$$$$
ligand
 OpenBabel02271912143D
libRbt.so/2013.1/901 2013/11/27
 46 52  0  0  0  0  0  0  0  0999 V2000
  -20.1582   -9.8062   19.5789 P   0  0  1  0  0  0  0  0  0  0  0  0
  -16.0523   -6.7920   16.6240 P   0  0  2  0  0  0  0  0  0  0  0  0
  -20.5166  -11.3304   18.7482 O   0  5  0  0  0  0  0  0  0  0  0  0
  -21.0567   -9.6661   21.1127 O   0  0  0  0  0  0  0  0  0  0  0  0
  -17.9676   -8.5730   20.4178 C   0  0  0  0  0  0  0  0  0  0  0  0
  -18.5710   -9.7373   19.8534 O   0  0  0  0  0  0  0  0  0  0  0  0
  -16.4824   -8.6008   20.1107 C   0  0  1  0  0  0  0  0  0  0  0  0
  -15.9290   -9.8522   20.5415 O   0  0  0  0  0  0  0  0  0  0  0  0
  -16.1748   -8.5091   18.6249 C   0  0  1  0  0  0  0  0  0  0  0  0
  -15.9991   -7.1610   18.1949 O   0  0  0  0  0  0  0  0  0  0  0  0
  -14.8990   -9.3209   18.4862 C   0  0  1  0  0  0  0  0  0  0  0  0
  -13.7593   -8.4827   18.6934 O   0  0  0  0  0  0  0  0  0  0  0  0
  -14.9576  -10.3444   19.6050 C   0  0  2  0  0  0  0  0  0  0  0  0
  -20.6952   -8.4146   15.0787 C   0  0  1  0  0  0  0  0  0  0  0  0
  -14.7194  -15.6340   19.9999 N   0  0  0  0  0  0  0  0  0  0  0  0
  -14.0963  -14.6888   20.7555 C   0  0  1  0  0  0  0  0  0  0  0  0
  -20.7176   -9.2446   16.3309 C   0  0  2  0  0  0  0  0  0  0  0  0
  -13.2905  -15.1025   21.7606 N   0  0  0  0  0  0  0  0  0  0  0  0
  -22.0876   -9.3493   16.7221 O   0  0  0  0  0  0  0  0  0  0  0  0
  -19.8980   -8.4549   17.3321 C   0  0  2  0  0  0  0  0  0  0  0  0
  -14.2495  -13.3487   20.5377 N   0  0  0  0  0  0  0  0  0  0  0  0
  -20.4486   -8.5323   18.6399 O   0  0  0  0  0  0  0  0  0  0  0  0
  -15.0478  -12.8830   19.5440 C   0  0  2  0  0  0  0  0  0  0  0  0
  -19.9456   -7.0245   16.8320 C   0  0  2  0  0  0  0  0  0  0  0  0
  -20.2589   -7.1056   15.4425 O   0  0  0  0  0  0  0  0  0  0  0  0
  -15.7436  -13.8647   18.6940 C   0  0  1  0  0  0  0  0  0  0  0  0
  -18.6220   -6.2898   17.0129 C   0  0  0  0  0  0  0  0  0  0  0  0
  -17.6107   -6.9551   16.2535 O   0  0  0  0  0  0  0  0  0  0  0  0
  -15.5390  -15.2963   18.9783 C   0  0  0  0  0  0  0  0  0  0  0  0
  -16.1535  -16.2455   18.2276 O   0  0  0  0  0  0  0  0  0  0  0  0
  -16.4525  -13.1696   17.7977 N   0  0  0  0  0  0  0  0  0  0  0  0
  -16.2332  -11.8451   18.0450 C   0  0  0  0  0  0  0  0  0  0  0  0
  -15.3937  -11.6683   19.0869 N   0  0  1  0  0  0  0  0  0  0  0  0
  -17.4331  -12.3850   14.0978 N   0  0  0  0  0  0  0  0  0  0  0  0
  -15.0581   -7.9128   15.6563 O   0  5  0  0  0  0  0  0  0  0  0  0
  -18.1438  -12.0991   15.2230 C   0  0  2  0  0  0  0  0  0  0  0  0
  -18.0488  -12.9271   16.2960 N   0  0  0  0  0  0  0  0  0  0  0  0
  -15.5670   -5.1210   16.2770 O   0  0  0  0  0  0  0  0  0  0  0  0
  -18.9507  -11.0064   15.3086 N   0  0  0  0  0  0  0  0  0  0  0  0
  -19.0916  -10.1486   14.2711 C   0  0  2  0  0  0  0  0  0  0  0  0
  -18.3474  -10.4026   13.0303 C   0  0  2  0  0  0  0  0  0  0  0  0
  -17.4829  -11.6016   12.9996 C   0  0  0  0  0  0  0  0  0  0  0  0
  -16.7560  -11.9163   11.8991 O   0  0  0  0  0  0  0  0  0  0  0  0
  -18.6600   -9.4030   12.1821 N   0  0  0  0  0  0  0  0  0  0  0  0
  -19.5375   -8.5782   12.8277 C   0  0  0  0  0  0  0  0  0  0  0  0
  -19.7898   -9.0280   14.0778 N   0  0  1  0  0  0  0  0  0  0  0  0
  1  3  1  6  0  0  0
  1  4  2  0  0  0  0
  1  6  1  0  0  0  0
  1 22  1  0  0  0  0
  2 28  1  0  0  0  0
  2 35  1  6  0  0  0
  2 38  2  0  0  0  0
  2 10  1  0  0  0  0
  5  6  1  0  0  0  0
  7  5  1  6  0  0  0
  7  8  1  0  0  0  0
  7  9  1  0  0  0  0
  9 10  1  1  0  0  0
  9 11  1  0  0  0  0
 11 12  1  1  0  0  0
 11 13  1  0  0  0  0
 13  8  1  1  0  0  0
 13 33  1  0  0  0  0
 14 46  1  0  0  0  0
 14 17  1  0  0  0  0
 14 25  1  1  0  0  0
 15 16  1  0  0  0  0
 15 29  1  0  0  0  0
 16 18  1  6  0  0  0
 16 21  1  0  0  0  0
 17 19  1  1  0  0  0
 17 20  1  0  0  0  0
 20 22  1  1  0  0  0
 20 24  1  0  0  0  0
 23 21  1  6  0  0  0
 23 26  1  0  0  0  0
 23 33  1  0  0  0  0
 24 25  1  6  0  0  0
 24 27  1  0  0  0  0
 26 29  1  1  0  0  0
 26 31  1  0  0  0  0
 27 28  1  0  0  0  0
 29 30  2  0  0  0  0
 31 32  1  0  0  0  0
 33 32  1  1  0  0  0
 34 36  1  0  0  0  0
 34 42  1  0  0  0  0
 36 37  1  6  0  0  0
 36 39  1  0  0  0  0
 40 39  1  1  0  0  0
 40 41  1  0  0  0  0
 40 46  1  0  0  0  0
 41 42  1  1  0  0  0
 41 44  1  0  0  0  0
 42 43  2  0  0  0  0
 44 45  1  0  0  0  0
 46 45  1  6  0  0  0
M  CHG  2   3  -1  35  -1
M  END
>  <CHROM.1>
-94.47351804,-0.47063440,-17.50603776,-10.16195079,17.41318289,-2.99343384
1.04846097,-2.41246779

>  <Name>
ligand

>  <RI>
-1

>  <Rbt.Current_Directory>
/home/itssahil/PROJECTS/Mol_Feturizer/Test_systems_manuscript/rnas/3mum

>  <Rbt.Executable>
rbdock ($Id: //depot/dev/client3/rdock/2013.1/src/exe/rbdock.cxx#4 $)

>  <Rbt.Library>
libRbt.so (2013.1, Build901 2013/11/27)

>  <Rbt.Parameter_File>
/export/apps/rDock/src/rDock_2013.1_src/data/scripts/dock_solv.prm

>  <Rbt.Receptor>
prm/blind_docking_80.prm

>  <SCORE>
43.9055

>  <SCORE.INTER>
35.8264

>  <SCORE.INTER.CONST>
1

>  <SCORE.INTER.POLAR>
0

>  <SCORE.INTER.ROT>
2

>  <SCORE.INTER.SOLV>
37.2254

>  <SCORE.INTER.VDW>
6.54245

>  <SCORE.INTER.norm>
0.778834

>  <SCORE.INTRA>
6.9627

>  <SCORE.INTRA.DIHEDRAL>
-0.00644097

>  <SCORE.INTRA.DIHEDRAL.0>
2.40424

>  <SCORE.INTRA.POLAR>
0

>  <SCORE.INTRA.POLAR.0>
0

>  <SCORE.INTRA.REPUL>
0

>  <SCORE.INTRA.REPUL.0>
0

>  <SCORE.INTRA.SOLV>
4.24273

>  <SCORE.INTRA.SOLV.lig_0>
-134.169

>  <SCORE.INTRA.VDW>
4.84455

>  <SCORE.INTRA.VDW.0>
-2.18386

>  <SCORE.INTRA.norm>
0.151363

>  <SCORE.RESTR>
1.11641

>  <SCORE.RESTR.CAVITY>
1.11641

>  <SCORE.RESTR.norm>
0.0242697

>  <SCORE.SYSTEM>
0

>  <SCORE.SYSTEM.CONST>
0

>  <SCORE.SYSTEM.DIHEDRAL>
0

>  <SCORE.SYSTEM.SOLV>
0

>  <SCORE.SYSTEM.norm>
0

>  <SCORE.heavy>
46

>  <SCORE.norm>
0.954467

>  <RMSD>
15.830

$$$$
ligand
 OpenBabel02271912143D
libRbt.so/2013.1/901 2013/11/27
 46 52  0  0  0  0  0  0  0  0999 V2000
  -19.8766   -9.8787   20.1738 P   0  0  1  0  0  0  0  0  0  0  0  0
  -15.6529   -7.7758   16.6504 P   0  0  2  0  0  0  0  0  0  0  0  0
  -20.3651  -11.4988   19.6462 O   0  5  0  0  0  0  0  0  0  0  0  0
  -20.7192   -9.3917   21.6678 O   0  0  0  0  0  0  0  0  0  0  0  0
  -17.5814   -8.6791   20.7367 C   0  0  0  0  0  0  0  0  0  0  0  0
  -18.2813   -9.8792   20.4075 O   0  0  0  0  0  0  0  0  0  0  0  0
  -16.1112   -8.8738   20.4184 C   0  0  1  0  0  0  0  0  0  0  0  0
  -15.6356  -10.0622   21.0661 O   0  0  0  0  0  0  0  0  0  0  0  0
  -15.8399   -9.0808   18.9372 C   0  0  1  0  0  0  0  0  0  0  0  0
  -15.5816   -7.8520   18.2616 O   0  0  0  0  0  0  0  0  0  0  0  0
  -14.6291   -9.9972   18.9331 C   0  0  1  0  0  0  0  0  0  0  0  0
  -13.4277   -9.2226   18.9642 O   0  0  0  0  0  0  0  0  0  0  0  0
  -14.7283  -10.7897   20.2234 C   0  0  2  0  0  0  0  0  0  0  0  0
  -20.4407   -9.3041   15.5017 C   0  0  1  0  0  0  0  0  0  0  0  0
  -17.0555  -14.1411   16.8256 N   0  0  0  0  0  0  0  0  0  0  0  0
  -16.6938  -12.8426   16.6370 C   0  0  1  0  0  0  0  0  0  0  0  0
  -20.4862   -9.8851   16.8865 C   0  0  2  0  0  0  0  0  0  0  0  0
  -16.9412  -12.2782   15.4324 N   0  0  0  0  0  0  0  0  0  0  0  0
  -21.8487   -9.8133   17.3104 O   0  0  0  0  0  0  0  0  0  0  0  0
  -19.5850   -8.9879   17.7115 C   0  0  2  0  0  0  0  0  0  0  0  0
  -16.0980  -12.0919   17.6107 N   0  0  0  0  0  0  0  0  0  0  0  0
  -20.1026   -8.7816   19.0187 O   0  0  0  0  0  0  0  0  0  0  0  0
  -15.8269  -12.6120   18.8345 C   0  0  2  0  0  0  0  0  0  0  0  0
  -19.5455   -7.6747   16.9549 C   0  0  2  0  0  0  0  0  0  0  0  0
  -19.9028   -7.9868   15.6095 O   0  0  0  0  0  0  0  0  0  0  0  0
  -16.2012  -14.0133   19.0924 C   0  0  1  0  0  0  0  0  0  0  0  0
  -18.1687   -7.0201   16.9767 C   0  0  0  0  0  0  0  0  0  0  0  0
  -17.2288   -7.8876   16.3395 O   0  0  0  0  0  0  0  0  0  0  0  0
  -16.8406  -14.7720   18.0026 C   0  0  0  0  0  0  0  0  0  0  0  0
  -17.2078  -16.0661   18.1832 O   0  0  0  0  0  0  0  0  0  0  0  0
  -15.8420  -14.2862   20.3516 N   0  0  0  0  0  0  0  0  0  0  0  0
  -15.2820  -13.1539   20.8689 C   0  0  0  0  0  0  0  0  0  0  0  0
  -15.2713  -12.1500   19.9668 N   0  0  1  0  0  0  0  0  0  0  0  0
  -17.6723   -9.4863   11.0665 N   0  0  0  0  0  0  0  0  0  0  0  0
  -14.7681   -9.1268   15.8935 O   0  5  0  0  0  0  0  0  0  0  0  0
  -18.3785   -8.4578   11.6110 C   0  0  2  0  0  0  0  0  0  0  0  0
  -18.4129   -7.2622   10.9666 N   0  0  0  0  0  0  0  0  0  0  0  0
  -15.0607   -6.2384   15.9918 O   0  0  0  0  0  0  0  0  0  0  0  0
  -19.0537   -8.5883   12.7855 N   0  0  0  0  0  0  0  0  0  0  0  0
  -19.0514   -9.7520   13.4769 C   0  0  2  0  0  0  0  0  0  0  0  0
  -18.3092  -10.8994   12.9381 C   0  0  2  0  0  0  0  0  0  0  0  0
  -17.6006  -10.6985   11.6561 C   0  0  0  0  0  0  0  0  0  0  0  0
  -16.8914  -11.7005   11.0802 O   0  0  0  0  0  0  0  0  0  0  0  0
  -18.4835  -11.9139   13.8081 N   0  0  0  0  0  0  0  0  0  0  0  0
  -19.2708  -11.4505   14.8242 C   0  0  0  0  0  0  0  0  0  0  0  0
  -19.6094  -10.1574   14.6191 N   0  0  1  0  0  0  0  0  0  0  0  0
  1  3  1  6  0  0  0
  1  4  2  0  0  0  0
  1  6  1  0  0  0  0
  1 22  1  0  0  0  0
  2 28  1  0  0  0  0
  2 35  1  6  0  0  0
  2 38  2  0  0  0  0
  2 10  1  0  0  0  0
  5  6  1  0  0  0  0
  7  5  1  6  0  0  0
  7  8  1  0  0  0  0
  7  9  1  0  0  0  0
  9 10  1  6  0  0  0
  9 11  1  0  0  0  0
 11 12  1  1  0  0  0
 11 13  1  0  0  0  0
 13  8  1  1  0  0  0
 13 33  1  0  0  0  0
 14 46  1  0  0  0  0
 14 17  1  0  0  0  0
 14 25  1  1  0  0  0
 15 16  1  0  0  0  0
 15 29  1  0  0  0  0
 16 18  1  1  0  0  0
 16 21  1  0  0  0  0
 17 19  1  1  0  0  0
 17 20  1  0  0  0  0
 20 22  1  1  0  0  0
 20 24  1  0  0  0  0
 23 21  1  1  0  0  0
 23 26  1  0  0  0  0
 23 33  1  0  0  0  0
 24 25  1  6  0  0  0
 24 27  1  0  0  0  0
 26 29  1  6  0  0  0
 26 31  1  0  0  0  0
 27 28  1  0  0  0  0
 29 30  2  0  0  0  0
 31 32  1  0  0  0  0
 33 32  1  6  0  0  0
 34 36  1  0  0  0  0
 34 42  1  0  0  0  0
 36 37  1  1  0  0  0
 36 39  1  0  0  0  0
 40 39  1  6  0  0  0
 40 41  1  0  0  0  0
 40 46  1  0  0  0  0
 41 42  1  6  0  0  0
 41 44  1  0  0  0  0
 42 43  2  0  0  0  0
 44 45  1  0  0  0  0
 46 45  1  1  0  0  0
M  CHG  2   3  -1  35  -1
M  END
>  <CHROM.1>
105.83024910,-159.61015887,-17.57465906,-10.17962857,17.10359144,1.05296961
-1.14055101,1.37505024

>  <Name>
ligand

>  <RI>
-1

>  <Rbt.Current_Directory>
/home/itssahil/PROJECTS/Mol_Feturizer/Test_systems_manuscript/rnas/3mum

>  <Rbt.Executable>
rbdock ($Id: //depot/dev/client3/rdock/2013.1/src/exe/rbdock.cxx#4 $)

>  <Rbt.Library>
libRbt.so (2013.1, Build901 2013/11/27)

>  <Rbt.Parameter_File>
/export/apps/rDock/src/rDock_2013.1_src/data/scripts/dock_solv.prm

>  <Rbt.Receptor>
prm/blind_docking_100.prm

>  <SCORE>
20.4487

>  <SCORE.INTER>
14.2291

>  <SCORE.INTER.CONST>
1

>  <SCORE.INTER.POLAR>
0

>  <SCORE.INTER.ROT>
2

>  <SCORE.INTER.SOLV>
41.5455

>  <SCORE.INTER.VDW>
-9.29579

>  <SCORE.INTER.norm>
0.309328

>  <SCORE.INTRA>
5.68048

>  <SCORE.INTRA.DIHEDRAL>
0.0220524

>  <SCORE.INTRA.DIHEDRAL.0>
2.40424

>  <SCORE.INTRA.POLAR>
0

>  <SCORE.INTRA.POLAR.0>
0

>  <SCORE.INTRA.REPUL>
0

>  <SCORE.INTRA.REPUL.0>
0

>  <SCORE.INTRA.SOLV>
5.15732

>  <SCORE.INTRA.SOLV.lig_0>
-134.169

>  <SCORE.INTRA.VDW>
3.0908

>  <SCORE.INTRA.VDW.0>
-2.18386

>  <SCORE.INTRA.norm>
0.123489

>  <SCORE.RESTR>
0.539102

>  <SCORE.RESTR.CAVITY>
0.539102

>  <SCORE.RESTR.norm>
0.0117196

>  <SCORE.SYSTEM>
0

>  <SCORE.SYSTEM.CONST>
0

>  <SCORE.SYSTEM.DIHEDRAL>
0

>  <SCORE.SYSTEM.SOLV>
0

>  <SCORE.SYSTEM.norm>
0

>  <SCORE.heavy>
46

>  <SCORE.norm>
0.444536

>  <RMSD>
15.837

$$$$
ligand
 OpenBabel02271912143D
libRbt.so/2013.1/901 2013/11/27
 46 52  0  0  0  0  0  0  0  0999 V2000
  -19.5178   -9.7170   20.1701 P   0  0  1  0  0  0  0  0  0  0  0  0
  -15.5591   -7.6170   16.3499 P   0  0  2  0  0  0  0  0  0  0  0  0
  -19.9546  -11.3820   19.7476 O   0  5  0  0  0  0  0  0  0  0  0  0
  -20.3137   -9.1904   21.6764 O   0  0  0  0  0  0  0  0  0  0  0  0
  -17.2573   -8.3907   20.5630 C   0  0  0  0  0  0  0  0  0  0  0  0
  -17.9154   -9.6356   20.3275 O   0  0  0  0  0  0  0  0  0  0  0  0
  -15.7956   -8.5372   20.1854 C   0  0  1  0  0  0  0  0  0  0  0  0
  -15.2370   -9.6685   20.8681 O   0  0  0  0  0  0  0  0  0  0  0  0
  -15.5823   -8.8086   18.7051 C   0  0  1  0  0  0  0  0  0  0  0  0
  -15.4116   -7.6064   17.9576 O   0  0  0  0  0  0  0  0  0  0  0  0
  -14.3319   -9.6703   18.6891 C   0  0  1  0  0  0  0  0  0  0  0  0
  -13.1673   -8.8433   18.6245 O   0  0  0  0  0  0  0  0  0  0  0  0
  -14.3361  -10.3983   20.0204 C   0  0  2  0  0  0  0  0  0  0  0  0
  -20.3184   -9.4105   15.5073 C   0  0  1  0  0  0  0  0  0  0  0  0
  -13.7129  -15.5501   21.1443 N   0  0  0  0  0  0  0  0  0  0  0  0
  -12.9563  -14.4892   21.5372 C   0  0  1  0  0  0  0  0  0  0  0  0
  -20.2745   -9.9203   16.9199 C   0  0  2  0  0  0  0  0  0  0  0  0
  -11.8819  -14.7264   22.3247 N   0  0  0  0  0  0  0  0  0  0  0  0
  -21.6183   -9.8863   17.4039 O   0  0  0  0  0  0  0  0  0  0  0  0
  -19.3792   -8.9431   17.6554 C   0  0  2  0  0  0  0  0  0  0  0  0
  -13.2359  -13.2040   21.1673 N   0  0  0  0  0  0  0  0  0  0  0  0
  -19.8461   -8.6922   18.9739 O   0  0  0  0  0  0  0  0  0  0  0  0
  -14.3027  -12.9134   20.3805 C   0  0  2  0  0  0  0  0  0  0  0  0
  -19.4345   -7.6704   16.8335 C   0  0  2  0  0  0  0  0  0  0  0  0
  -19.8375   -8.0671   15.5237 O   0  0  0  0  0  0  0  0  0  0  0  0
  -15.1533  -14.0265   19.9243 C   0  0  1  0  0  0  0  0  0  0  0  0
  -18.0897   -6.9560   16.7573 C   0  0  0  0  0  0  0  0  0  0  0  0
  -17.1406   -7.8135   16.1201 O   0  0  0  0  0  0  0  0  0  0  0  0
  -14.8010  -15.3906   20.3568 C   0  0  0  0  0  0  0  0  0  0  0  0
  -15.5477  -16.4547   19.9667 O   0  0  0  0  0  0  0  0  0  0  0  0
  -16.1197  -13.4930   19.1690 N   0  0  0  0  0  0  0  0  0  0  0  0
  -15.9121  -12.1442   19.1364 C   0  0  0  0  0  0  0  0  0  0  0  0
  -14.8270  -11.7926   19.8579 N   0  0  1  0  0  0  0  0  0  0  0  0
  -19.0730  -10.5694   10.5602 N   0  0  0  0  0  0  0  0  0  0  0  0
  -14.6481   -8.9654   15.6199 O   0  5  0  0  0  0  0  0  0  0  0  0
  -19.9597   -9.6572   11.0445 C   0  0  2  0  0  0  0  0  0  0  0  0
  -20.6629   -8.8880   10.1728 N   0  0  0  0  0  0  0  0  0  0  0  0
  -15.0687   -6.0914   15.5883 O   0  0  0  0  0  0  0  0  0  0  0  0
  -20.1654   -9.4892   12.3793 N   0  0  0  0  0  0  0  0  0  0  0  0
  -19.4902  -10.2208   13.2964 C   0  0  2  0  0  0  0  0  0  0  0  0
  -18.5214  -11.2237   12.8346 C   0  0  2  0  0  0  0  0  0  0  0  0
  -18.3457  -11.3645   11.3733 C   0  0  0  0  0  0  0  0  0  0  0  0
  -17.4761  -12.2655   10.8533 O   0  0  0  0  0  0  0  0  0  0  0  0
  -18.0116  -11.8040   13.9390 N   0  0  0  0  0  0  0  0  0  0  0  0
  -18.6041  -11.2157   15.0207 C   0  0  0  0  0  0  0  0  0  0  0  0
  -19.4895  -10.2712   14.6298 N   0  0  1  0  0  0  0  0  0  0  0  0
  1  3  1  6  0  0  0
  1  4  2  0  0  0  0
  1  6  1  0  0  0  0
  1 22  1  0  0  0  0
  2 28  1  0  0  0  0
  2 35  1  6  0  0  0
  2 38  2  0  0  0  0
  2 10  1  0  0  0  0
  5  6  1  0  0  0  0
  7  5  1  6  0  0  0
  7  8  1  0  0  0  0
  7  9  1  0  0  0  0
  9 10  1  6  0  0  0
  9 11  1  0  0  0  0
 11 12  1  1  0  0  0
 11 13  1  0  0  0  0
 13  8  1  1  0  0  0
 13 33  1  0  0  0  0
 14 46  1  0  0  0  0
 14 17  1  0  0  0  0
 14 25  1  1  0  0  0
 15 16  1  0  0  0  0
 15 29  1  0  0  0  0
 16 18  1  6  0  0  0
 16 21  1  0  0  0  0
 17 19  1  1  0  0  0
 17 20  1  0  0  0  0
 20 22  1  1  0  0  0
 20 24  1  0  0  0  0
 23 21  1  6  0  0  0
 23 26  1  0  0  0  0
 23 33  1  0  0  0  0
 24 25  1  6  0  0  0
 24 27  1  0  0  0  0
 26 29  1  1  0  0  0
 26 31  1  0  0  0  0
 27 28  1  0  0  0  0
 29 30  2  0  0  0  0
 31 32  1  0  0  0  0
 33 32  1  1  0  0  0
 34 36  1  0  0  0  0
 34 42  1  0  0  0  0
 36 37  1  1  0  0  0
 36 39  1  0  0  0  0
 40 39  1  6  0  0  0
 40 41  1  0  0  0  0
 40 46  1  0  0  0  0
 41 42  1  6  0  0  0
 41 44  1  0  0  0  0
 42 43  2  0  0  0  0
 44 45  1  0  0  0  0
 46 45  1  1  0  0  0
M  CHG  2   3  -1  35  -1
M  END
>  <CHROM.1>
-108.37422134,168.60538149,-17.17270664,-10.33590384,17.42620234,0.57819405
-0.94075119,1.08746278

>  <Name>
ligand

>  <RI>
-1

>  <Rbt.Current_Directory>
/home/itssahil/PROJECTS/Mol_Feturizer/Test_systems_manuscript/rnas/3mum

>  <Rbt.Executable>
rbdock ($Id: //depot/dev/client3/rdock/2013.1/src/exe/rbdock.cxx#4 $)

>  <Rbt.Library>
libRbt.so (2013.1, Build901 2013/11/27)

>  <Rbt.Parameter_File>
/export/apps/rDock/src/rDock_2013.1_src/data/scripts/dock_solv.prm

>  <Rbt.Receptor>
prm/blind_docking_80.prm

>  <SCORE>
0.241963

>  <SCORE.INTER>
-2.54197

>  <SCORE.INTER.CONST>
1

>  <SCORE.INTER.POLAR>
0

>  <SCORE.INTER.ROT>
2

>  <SCORE.INTER.SOLV>
33.9566

>  <SCORE.INTER.VDW>
-17.9469

>  <SCORE.INTER.norm>
-0.0552603

>  <SCORE.INTRA>
0.49046

>  <SCORE.INTRA.DIHEDRAL>
-0.0223104

>  <SCORE.INTRA.DIHEDRAL.0>
2.40424

>  <SCORE.INTRA.POLAR>
0

>  <SCORE.INTRA.POLAR.0>
0

>  <SCORE.INTRA.REPUL>
0

>  <SCORE.INTRA.REPUL.0>
0

>  <SCORE.INTRA.SOLV>
0.00869087

>  <SCORE.INTRA.SOLV.lig_0>
-134.169

>  <SCORE.INTRA.VDW>
0.49727

>  <SCORE.INTRA.VDW.0>
-2.18386

>  <SCORE.INTRA.norm>
0.0106622

>  <SCORE.RESTR>
2.29347

>  <SCORE.RESTR.CAVITY>
2.29347

>  <SCORE.RESTR.norm>
0.0498581

>  <SCORE.SYSTEM>
0

>  <SCORE.SYSTEM.CONST>
0

>  <SCORE.SYSTEM.DIHEDRAL>
0

>  <SCORE.SYSTEM.SOLV>
0

>  <SCORE.SYSTEM.norm>
0

>  <SCORE.heavy>
46

>  <SCORE.norm>
0.00526006

>  <RMSD>
15.837

$$$$
ligand
 OpenBabel02271912143D
libRbt.so/2013.1/901 2013/11/27
 46 52  0  0  0  0  0  0  0  0999 V2000
  -19.4771  -11.5452   17.4867 P   0  0  1  0  0  0  0  0  0  0  0  0
  -14.9116   -9.1710   20.3495 P   0  0  2  0  0  0  0  0  0  0  0  0
  -20.9302  -10.5585   17.7243 O   0  5  0  0  0  0  0  0  0  0  0  0
  -19.7807  -12.9060   16.3751 O   0  0  0  0  0  0  0  0  0  0  0  0
  -16.9838  -11.0933   16.7103 C   0  0  0  0  0  0  0  0  0  0  0  0
  -18.3090  -10.5987   16.9045 O   0  0  0  0  0  0  0  0  0  0  0  0
  -16.0336   -9.9135   16.6341 C   0  0  1  0  0  0  0  0  0  0  0  0
  -16.4983   -8.9892   15.6403 O   0  0  0  0  0  0  0  0  0  0  0  0
  -15.9593   -9.1181   17.9273 C   0  0  1  0  0  0  0  0  0  0  0  0
  -14.9281   -9.5916   18.7907 O   0  0  0  0  0  0  0  0  0  0  0  0
  -15.6928   -7.7025   17.4466 C   0  0  1  0  0  0  0  0  0  0  0  0
  -14.2853   -7.4832   17.3233 O   0  0  0  0  0  0  0  0  0  0  0  0
  -16.3174   -7.6294   16.0656 C   0  0  2  0  0  0  0  0  0  0  0  0
  -19.4515  -10.8012   22.1688 C   0  0  1  0  0  0  0  0  0  0  0  0
  -19.6354   -4.0749   13.9328 N   0  0  0  0  0  0  0  0  0  0  0  0
  -18.3862   -4.4325   13.5280 C   0  0  1  0  0  0  0  0  0  0  0  0
  -19.8941  -10.8716   20.7348 C   0  0  2  0  0  0  0  0  0  0  0  0
  -17.8700   -3.8257   12.4343 N   0  0  0  0  0  0  0  0  0  0  0  0
  -20.8499  -11.9307   20.6583 O   0  0  0  0  0  0  0  0  0  0  0  0
  -18.6321  -11.1859   19.9562 C   0  0  2  0  0  0  0  0  0  0  0  0
  -17.6377   -5.3711   14.1803 N   0  0  0  0  0  0  0  0  0  0  0  0
  -18.8858  -12.0825   18.8833 O   0  0  0  0  0  0  0  0  0  0  0  0
  -18.1107   -6.0095   15.2804 C   0  0  2  0  0  0  0  0  0  0  0  0
  -17.7033  -11.8323   20.9652 C   0  0  2  0  0  0  0  0  0  0  0  0
  -18.1633  -11.4099   22.2478 O   0  0  0  0  0  0  0  0  0  0  0  0
  -19.4573   -5.6571   15.7629 C   0  0  1  0  0  0  0  0  0  0  0  0
  -16.2485  -11.4141   20.7835 C   0  0  0  0  0  0  0  0  0  0  0  0
  -16.1409  -10.0020   20.9746 O   0  0  0  0  0  0  0  0  0  0  0  0
  -20.2164   -4.6376   15.0169 C   0  0  0  0  0  0  0  0  0  0  0  0
  -21.4612   -4.2723   15.4158 O   0  0  0  0  0  0  0  0  0  0  0  0
  -19.6903   -6.4059   16.8465 N   0  0  0  0  0  0  0  0  0  0  0  0
  -18.5844   -7.1797   17.0511 C   0  0  0  0  0  0  0  0  0  0  0  0
  -17.6371   -6.9460   16.1187 N   0  0  1  0  0  0  0  0  0  0  0  0
  -20.6663   -7.4881   26.0310 N   0  0  0  0  0  0  0  0  0  0  0  0
  -15.1716   -7.4186   20.5553 O   0  5  0  0  0  0  0  0  0  0  0  0
  -20.8788   -8.8292   25.9345 C   0  0  2  0  0  0  0  0  0  0  0  0
  -21.4887   -9.4796   26.9596 N   0  0  0  0  0  0  0  0  0  0  0  0
  -13.4260   -9.6514   21.1921 O   0  0  0  0  0  0  0  0  0  0  0  0
  -20.4978   -9.5432   24.8403 N   0  0  0  0  0  0  0  0  0  0  0  0
  -19.8801   -8.9527   23.7905 C   0  0  2  0  0  0  0  0  0  0  0  0
  -19.6258   -7.5066   23.8349 C   0  0  2  0  0  0  0  0  0  0  0  0
  -20.0675   -6.7842   25.0470 C   0  0  0  0  0  0  0  0  0  0  0  0
  -19.8781   -5.4479   25.1772 O   0  0  0  0  0  0  0  0  0  0  0  0
  -19.0195   -7.1863   22.6747 N   0  0  0  0  0  0  0  0  0  0  0  0
  -18.8925   -8.3367   21.9485 C   0  0  0  0  0  0  0  0  0  0  0  0
  -19.4114   -9.3895   22.6201 N   0  0  1  0  0  0  0  0  0  0  0  0
  1  3  1  1  0  0  0
  1  4  2  0  0  0  0
  1  6  1  0  0  0  0
  1 22  1  0  0  0  0
  2 28  1  0  0  0  0
  2 35  1  1  0  0  0
  2 38  2  0  0  0  0
  2 10  1  0  0  0  0
  5  6  1  0  0  0  0
  7  5  1  1  0  0  0
  7  8  1  0  0  0  0
  7  9  1  0  0  0  0
  9 10  1  1  0  0  0
  9 11  1  0  0  0  0
 11 12  1  6  0  0  0
 11 13  1  0  0  0  0
 13  8  1  1  0  0  0
 13 33  1  0  0  0  0
 14 46  1  0  0  0  0
 14 17  1  0  0  0  0
 14 25  1  6  0  0  0
 15 16  1  0  0  0  0
 15 29  1  0  0  0  0
 16 18  1  1  0  0  0
 16 21  1  0  0  0  0
 17 19  1  1  0  0  0
 17 20  1  0  0  0  0
 20 22  1  6  0  0  0
 20 24  1  0  0  0  0
 23 21  1  1  0  0  0
 23 26  1  0  0  0  0
 23 33  1  0  0  0  0
 24 25  1  1  0  0  0
 24 27  1  0  0  0  0
 26 29  1  6  0  0  0
 26 31  1  0  0  0  0
 27 28  1  0  0  0  0
 29 30  2  0  0  0  0
 31 32  1  0  0  0  0
 33 32  1  6  0  0  0
 34 36  1  0  0  0  0
 34 42  1  0  0  0  0
 36 37  1  1  0  0  0
 36 39  1  0  0  0  0
 40 39  1  6  0  0  0
 40 41  1  0  0  0  0
 40 46  1  0  0  0  0
 41 42  1  6  0  0  0
 41 44  1  0  0  0  0
 42 43  2  0  0  0  0
 44 45  1  0  0  0  0
 46 45  1  1  0  0  0
M  CHG  2   3  -1  35  -1
M  END
>  <CHROM.1>
-107.70363435,135.81301207,-18.23825730,-8.69948341,19.28850726,-1.27825050
-0.99561909,2.11994884

>  <Name>
ligand

>  <RI>
-1

>  <Rbt.Current_Directory>
/home/itssahil/PROJECTS/Mol_Feturizer/Test_systems_manuscript/rnas/3mum

>  <Rbt.Executable>
rbdock ($Id: //depot/dev/client3/rdock/2013.1/src/exe/rbdock.cxx#4 $)

>  <Rbt.Library>
libRbt.so (2013.1, Build901 2013/11/27)

>  <Rbt.Parameter_File>
/export/apps/rDock/src/rDock_2013.1_src/data/scripts/dock_solv.prm

>  <Rbt.Receptor>
prm/blind_docking_40.prm

>  <SCORE>
11.5818

>  <SCORE.INTER>
10.6573

>  <SCORE.INTER.CONST>
1

>  <SCORE.INTER.POLAR>
0

>  <SCORE.INTER.ROT>
2

>  <SCORE.INTER.SOLV>
39.5396

>  <SCORE.INTER.VDW>
-11.0083

>  <SCORE.INTER.norm>
0.231681

>  <SCORE.INTRA>
-0.0433514

>  <SCORE.INTRA.DIHEDRAL>
-0.0262758

>  <SCORE.INTRA.DIHEDRAL.0>
2.40424

>  <SCORE.INTRA.POLAR>
0

>  <SCORE.INTRA.POLAR.0>
0

>  <SCORE.INTRA.REPUL>
0

>  <SCORE.INTRA.REPUL.0>
0

>  <SCORE.INTRA.SOLV>
-0.0207962

>  <SCORE.INTRA.SOLV.lig_0>
-134.169

>  <SCORE.INTRA.VDW>
-0.0198154

>  <SCORE.INTRA.VDW.0>
-2.18386

>  <SCORE.INTRA.norm>
-0.000942421

>  <SCORE.RESTR>
0.967857

>  <SCORE.RESTR.CAVITY>
0.967857

>  <SCORE.RESTR.norm>
0.0210404

>  <SCORE.SYSTEM>
0

>  <SCORE.SYSTEM.CONST>
0

>  <SCORE.SYSTEM.DIHEDRAL>
0

>  <SCORE.SYSTEM.SOLV>
0

>  <SCORE.SYSTEM.norm>
0

>  <SCORE.heavy>
46

>  <SCORE.norm>
0.251779

>  <RMSD>
15.848

$$$$
ligand
 OpenBabel02271912143D
libRbt.so/2013.1/901 2013/11/27
 46 52  0  0  0  0  0  0  0  0999 V2000
  -19.4749  -11.5508   17.4881 P   0  0  1  0  0  0  0  0  0  0  0  0
  -14.9145   -9.1727   20.3557 P   0  0  2  0  0  0  0  0  0  0  0  0
  -20.9282  -10.5631   17.7208 O   0  5  0  0  0  0  0  0  0  0  0  0
  -19.7768  -12.9136   16.3785 O   0  0  0  0  0  0  0  0  0  0  0  0
  -16.9799  -11.1013   16.7159 C   0  0  0  0  0  0  0  0  0  0  0  0
  -18.3053  -10.6058   16.9064 O   0  0  0  0  0  0  0  0  0  0  0  0
  -16.0291   -9.9220   16.6395 C   0  0  1  0  0  0  0  0  0  0  0  0
  -16.4915   -8.9994   15.6429 O   0  0  0  0  0  0  0  0  0  0  0  0
  -15.9572   -9.1241   17.9312 C   0  0  1  0  0  0  0  0  0  0  0  0
  -14.9279   -9.5963   18.7977 O   0  0  0  0  0  0  0  0  0  0  0  0
  -15.6892   -7.7095   17.4484 C   0  0  1  0  0  0  0  0  0  0  0  0
  -14.2814   -7.4910   17.3275 O   0  0  0  0  0  0  0  0  0  0  0  0
  -16.3109   -7.6389   16.0660 C   0  0  2  0  0  0  0  0  0  0  0  0
  -19.4587  -10.7977   22.1688 C   0  0  1  0  0  0  0  0  0  0  0  0
  -19.6164   -4.0749   13.9295 N   0  0  0  0  0  0  0  0  0  0  0  0
  -18.3654   -4.4318   13.5295 C   0  0  1  0  0  0  0  0  0  0  0  0
  -19.8984  -10.8708   20.7340 C   0  0  2  0  0  0  0  0  0  0  0  0
  -17.8436   -3.8215   12.4405 N   0  0  0  0  0  0  0  0  0  0  0  0
  -20.8545  -11.9297   20.6576 O   0  0  0  0  0  0  0  0  0  0  0  0
  -18.6349  -11.1870   19.9586 C   0  0  2  0  0  0  0  0  0  0  0  0
  -17.6207   -5.3731   14.1821 N   0  0  0  0  0  0  0  0  0  0  0  0
  -18.8867  -12.0856   18.8869 O   0  0  0  0  0  0  0  0  0  0  0  0
  -18.0994   -6.0152   15.2777 C   0  0  2  0  0  0  0  0  0  0  0  0
  -17.7085  -11.8318   20.9707 C   0  0  2  0  0  0  0  0  0  0  0  0
  -18.1709  -11.4067   22.2516 O   0  0  0  0  0  0  0  0  0  0  0  0
  -19.4482   -5.6637   15.7549 C   0  0  1  0  0  0  0  0  0  0  0  0
  -16.2531  -11.4145   20.7913 C   0  0  0  0  0  0  0  0  0  0  0  0
  -16.1454  -10.0021   20.9799 O   0  0  0  0  0  0  0  0  0  0  0  0
  -20.2030   -4.6411   15.0088 C   0  0  0  0  0  0  0  0  0  0  0  0
  -21.4496   -4.2765   15.4028 O   0  0  0  0  0  0  0  0  0  0  0  0
  -19.6869   -6.4162   16.8346 N   0  0  0  0  0  0  0  0  0  0  0  0
  -18.5825   -7.1913   17.0420 C   0  0  0  0  0  0  0  0  0  0  0  0
  -17.6304   -6.9549   16.1150 N   0  0  1  0  0  0  0  0  0  0  0  0
  -20.6668   -7.4791   26.0283 N   0  0  0  0  0  0  0  0  0  0  0  0
  -15.1743   -7.4198   20.5576 O   0  5  0  0  0  0  0  0  0  0  0  0
  -20.8780   -8.8206   25.9349 C   0  0  2  0  0  0  0  0  0  0  0  0
  -21.4843   -9.4700   26.9628 N   0  0  0  0  0  0  0  0  0  0  0  0
  -13.4308   -9.6520   21.2023 O   0  0  0  0  0  0  0  0  0  0  0  0
  -20.4992   -9.5361   24.8409 N   0  0  0  0  0  0  0  0  0  0  0  0
  -19.8851   -8.9468   23.7884 C   0  0  2  0  0  0  0  0  0  0  0  0
  -19.6323   -7.5004   23.8295 C   0  0  2  0  0  0  0  0  0  0  0  0
  -20.0716   -6.7763   25.0414 C   0  0  0  0  0  0  0  0  0  0  0  0
  -19.8834   -5.4395   25.1687 O   0  0  0  0  0  0  0  0  0  0  0  0
  -19.0296   -7.1814   22.6670 N   0  0  0  0  0  0  0  0  0  0  0  0
  -18.9032   -8.3330   21.9425 C   0  0  0  0  0  0  0  0  0  0  0  0
  -19.4191   -9.3852   22.6175 N   0  0  1  0  0  0  0  0  0  0  0  0
  1  3  1  1  0  0  0
  1  4  2  0  0  0  0
  1  6  1  0  0  0  0
  1 22  1  0  0  0  0
  2 28  1  0  0  0  0
  2 35  1  1  0  0  0
  2 38  2  0  0  0  0
  2 10  1  0  0  0  0
  5  6  1  0  0  0  0
  7  5  1  1  0  0  0
  7  8  1  0  0  0  0
  7  9  1  0  0  0  0
  9 10  1  1  0  0  0
  9 11  1  0  0  0  0
 11 12  1  6  0  0  0
 11 13  1  0  0  0  0
 13  8  1  1  0  0  0
 13 33  1  0  0  0  0
 14 46  1  0  0  0  0
 14 17  1  0  0  0  0
 14 25  1  6  0  0  0
 15 16  1  0  0  0  0
 15 29  1  0  0  0  0
 16 18  1  1  0  0  0
 16 21  1  0  0  0  0
 17 19  1  1  0  0  0
 17 20  1  0  0  0  0
 20 22  1  6  0  0  0
 20 24  1  0  0  0  0
 23 21  1  1  0  0  0
 23 26  1  0  0  0  0
 23 33  1  0  0  0  0
 24 25  1  1  0  0  0
 24 27  1  0  0  0  0
 26 29  1  6  0  0  0
 26 31  1  0  0  0  0
 27 28  1  0  0  0  0
 29 30  2  0  0  0  0
 31 32  1  0  0  0  0
 33 32  1  6  0  0  0
 34 36  1  0  0  0  0
 34 42  1  0  0  0  0
 36 37  1  1  0  0  0
 36 39  1  0  0  0  0
 40 39  1  6  0  0  0
 40 41  1  0  0  0  0
 40 46  1  0  0  0  0
 41 42  1  6  0  0  0
 41 44  1  0  0  0  0
 42 43  2  0  0  0  0
 44 45  1  0  0  0  0
 46 45  1  1  0  0  0
M  CHG  2   3  -1  35  -1
M  END
>  <CHROM.1>
-108.05483038,136.10303135,-18.23659862,-8.70096172,19.28871407,-1.27347408
-0.99914822,2.12373606

>  <Name>
ligand

>  <RI>
-1

>  <Rbt.Current_Directory>
/home/itssahil/PROJECTS/Mol_Feturizer/Test_systems_manuscript/rnas/3mum

>  <Rbt.Executable>
rbdock ($Id: //depot/dev/client3/rdock/2013.1/src/exe/rbdock.cxx#4 $)

>  <Rbt.Library>
libRbt.so (2013.1, Build901 2013/11/27)

>  <Rbt.Parameter_File>
/export/apps/rDock/src/rDock_2013.1_src/data/scripts/dock_solv.prm

>  <Rbt.Receptor>
prm/blind_docking_40.prm

>  <SCORE>
11.6106

>  <SCORE.INTER>
10.6705

>  <SCORE.INTER.CONST>
1

>  <SCORE.INTER.POLAR>
0

>  <SCORE.INTER.ROT>
2

>  <SCORE.INTER.SOLV>
39.5648

>  <SCORE.INTER.VDW>
-11.0079

>  <SCORE.INTER.norm>
0.231967

>  <SCORE.INTRA>
-0.0275182

>  <SCORE.INTRA.DIHEDRAL>
-0.0265101

>  <SCORE.INTRA.DIHEDRAL.0>
2.40424

>  <SCORE.INTRA.POLAR>
0

>  <SCORE.INTRA.POLAR.0>
0

>  <SCORE.INTRA.REPUL>
0

>  <SCORE.INTRA.REPUL.0>
0

>  <SCORE.INTRA.SOLV>
-0.0220004

>  <SCORE.INTRA.SOLV.lig_0>
-134.169

>  <SCORE.INTRA.VDW>
-0.00326297

>  <SCORE.INTRA.VDW.0>
-2.18386

>  <SCORE.INTRA.norm>
-0.000598222

>  <SCORE.RESTR>
0.967689

>  <SCORE.RESTR.CAVITY>
0.967689

>  <SCORE.RESTR.norm>
0.0210367

>  <SCORE.SYSTEM>
0

>  <SCORE.SYSTEM.CONST>
0

>  <SCORE.SYSTEM.DIHEDRAL>
0

>  <SCORE.SYSTEM.SOLV>
0

>  <SCORE.SYSTEM.norm>
0

>  <SCORE.heavy>
46

>  <SCORE.norm>
0.252405

>  <RMSD>
15.848

$$$$
ligand
 OpenBabel02271912143D
libRbt.so/2013.1/901 2013/11/27
 46 52  0  0  0  0  0  0  0  0999 V2000
  -14.5178   -9.7747   20.7743 P   0  0  1  0  0  0  0  0  0  0  0  0
  -19.5355  -11.7324   18.3941 P   0  0  2  0  0  0  0  0  0  0  0  0
  -14.6015   -8.0222   21.0265 O   0  5  0  0  0  0  0  0  0  0  0  0
  -12.9947  -10.4574   21.4017 O   0  0  0  0  0  0  0  0  0  0  0  0
  -16.0391  -11.8546   21.3929 C   0  0  0  0  0  0  0  0  0  0  0  0
  -15.7800  -10.4556   21.5108 O   0  0  0  0  0  0  0  0  0  0  0  0
  -17.4901  -12.1098   21.7538 C   0  0  1  0  0  0  0  0  0  0  0  0
  -17.7706  -11.5371   23.0388 O   0  0  0  0  0  0  0  0  0  0  0  0
  -18.4712  -11.4569   20.7938 C   0  0  1  0  0  0  0  0  0  0  0  0
  -18.8306  -12.3242   19.7206 O   0  0  0  0  0  0  0  0  0  0  0  0
  -19.6583  -11.1306   21.6829 C   0  0  1  0  0  0  0  0  0  0  0  0
  -20.5593  -12.2401   21.7247 O   0  0  0  0  0  0  0  0  0  0  0  0
  -19.0719  -10.9302   23.0680 C   0  0  2  0  0  0  0  0  0  0  0  0
  -16.1992   -8.2246   16.6214 C   0  0  1  0  0  0  0  0  0  0  0  0
  -16.6953   -7.1437   25.9327 N   0  0  0  0  0  0  0  0  0  0  0  0
  -16.5035   -8.4907   25.9649 C   0  0  1  0  0  0  0  0  0  0  0  0
  -15.5808   -8.2592   17.9902 C   0  0  2  0  0  0  0  0  0  0  0  0
  -15.5910   -8.9863   26.8324 N   0  0  0  0  0  0  0  0  0  0  0  0
  -14.1907   -7.9814   17.8129 O   0  0  0  0  0  0  0  0  0  0  0  0
  -15.8208   -9.6711   18.4867 C   0  0  2  0  0  0  0  0  0  0  0  0
  -17.1938   -9.3554   25.1634 N   0  0  0  0  0  0  0  0  0  0  0  0
  -14.7115  -10.1644   19.2253 O   0  0  0  0  0  0  0  0  0  0  0  0
  -18.1177   -8.9084   24.2756 C   0  0  2  0  0  0  0  0  0  0  0  0
  -16.0176  -10.4971   17.2307 C   0  0  2  0  0  0  0  0  0  0  0  0
  -16.4075   -9.5761   16.2133 O   0  0  0  0  0  0  0  0  0  0  0  0
  -18.3663   -7.4581   24.2026 C   0  0  1  0  0  0  0  0  0  0  0  0
  -17.0928  -11.5665   17.3878 C   0  0  0  0  0  0  0  0  0  0  0  0
  -18.3445  -10.9339   17.6615 O   0  0  0  0  0  0  0  0  0  0  0  0
  -17.5902   -6.5760   25.0923 C   0  0  0  0  0  0  0  0  0  0  0  0
  -17.7777   -5.2319   25.0693 O   0  0  0  0  0  0  0  0  0  0  0  0
  -19.3093   -7.2717   23.2724 N   0  0  0  0  0  0  0  0  0  0  0  0
  -19.6460   -8.5008   22.7831 C   0  0  0  0  0  0  0  0  0  0  0  0
  -18.9376   -9.4824   23.3799 N   0  0  1  0  0  0  0  0  0  0  0  0
  -19.9205   -5.9336   13.7453 N   0  0  0  0  0  0  0  0  0  0  0  0
  -20.8721  -10.6251   18.8041 O   0  5  0  0  0  0  0  0  0  0  0  0
  -18.7872   -6.5766   13.3514 C   0  0  2  0  0  0  0  0  0  0  0  0
  -18.5138   -6.6866   12.0251 N   0  0  0  0  0  0  0  0  0  0  0  0
  -20.1268  -12.9900   17.2909 O   0  0  0  0  0  0  0  0  0  0  0  0
  -17.9155   -7.1160   14.2466 N   0  0  0  0  0  0  0  0  0  0  0  0
  -18.1367   -7.0445   15.5801 C   0  0  2  0  0  0  0  0  0  0  0  0
  -19.3419   -6.3601   16.0667 C   0  0  2  0  0  0  0  0  0  0  0  0
  -20.2477   -5.7894   15.0470 C   0  0  0  0  0  0  0  0  0  0  0  0
  -21.3828   -5.1375   15.4008 O   0  0  0  0  0  0  0  0  0  0  0  0
  -19.3057   -6.4263   17.4123 N   0  0  0  0  0  0  0  0  0  0  0  0
  -18.1701   -7.1029   17.7581 C   0  0  0  0  0  0  0  0  0  0  0  0
  -17.4736   -7.4679   16.6578 N   0  0  1  0  0  0  0  0  0  0  0  0
  1  3  1  1  0  0  0
  1  4  2  0  0  0  0
  1  6  1  0  0  0  0
  1 22  1  0  0  0  0
  2 28  1  0  0  0  0
  2 35  1  1  0  0  0
  2 38  2  0  0  0  0
  2 10  1  0  0  0  0
  5  6  1  0  0  0  0
  7  5  1  6  0  0  0
  7  8  1  0  0  0  0
  7  9  1  0  0  0  0
  9 10  1  6  0  0  0
  9 11  1  0  0  0  0
 11 12  1  1  0  0  0
 11 13  1  0  0  0  0
 13  8  1  6  0  0  0
 13 33  1  0  0  0  0
 14 46  1  0  0  0  0
 14 17  1  0  0  0  0
 14 25  1  1  0  0  0
 15 16  1  0  0  0  0
 15 29  1  0  0  0  0
 16 18  1  1  0  0  0
 16 21  1  0  0  0  0
 17 19  1  6  0  0  0
 17 20  1  0  0  0  0
 20 22  1  6  0  0  0
 20 24  1  0  0  0  0
 23 21  1  1  0  0  0
 23 26  1  0  0  0  0
 23 33  1  0  0  0  0
 24 25  1  6  0  0  0
 24 27  1  0  0  0  0
 26 29  1  6  0  0  0
 26 31  1  0  0  0  0
 27 28  1  0  0  0  0
 29 30  2  0  0  0  0
 31 32  1  0  0  0  0
 33 32  1  6  0  0  0
 34 36  1  0  0  0  0
 34 42  1  0  0  0  0
 36 37  1  6  0  0  0
 36 39  1  0  0  0  0
 40 39  1  1  0  0  0
 40 41  1  0  0  0  0
 40 46  1  0  0  0  0
 41 42  1  1  0  0  0
 41 44  1  0  0  0  0
 42 43  2  0  0  0  0
 44 45  1  0  0  0  0
 46 45  1  6  0  0  0
M  CHG  2   3  -1  35  -1
M  END
>  <CHROM.1>
-41.01875414,166.97198927,-17.66673195,-9.14876690,19.76924738,-0.11055175
1.40372594,-2.85277302

>  <Name>
ligand

>  <RI>
0

>  <Rbt.Current_Directory>
/home/itssahil/PROJECTS/Mol_Feturizer/Test_systems_manuscript/rnas/3mum

>  <Rbt.Executable>
rbdock ($Id: //depot/dev/client3/rdock/2013.1/src/exe/rbdock.cxx#4 $)

>  <Rbt.Library>
libRbt.so (2013.1, Build901 2013/11/27)

>  <Rbt.Parameter_File>
/export/apps/rDock/src/rDock_2013.1_src/data/scripts/dock_solv.prm

>  <Rbt.Receptor>
prm/blind_docking_60.prm

>  <SCORE>
44.0531

>  <SCORE.INTER>
43.1244

>  <SCORE.INTER.CONST>
1

>  <SCORE.INTER.POLAR>
0

>  <SCORE.INTER.ROT>
2

>  <SCORE.INTER.SOLV>
42.4536

>  <SCORE.INTER.VDW>
9.66509

>  <SCORE.INTER.norm>
0.937488

>  <SCORE.INTRA>
0.876573

>  <SCORE.INTRA.DIHEDRAL>
-0.0190877

>  <SCORE.INTRA.DIHEDRAL.0>
2.40424

>  <SCORE.INTRA.POLAR>
0

>  <SCORE.INTRA.POLAR.0>
0

>  <SCORE.INTRA.REPUL>
0

>  <SCORE.INTRA.REPUL.0>
0

>  <SCORE.INTRA.SOLV>
0.0578427

>  <SCORE.INTRA.SOLV.lig_0>
-134.169

>  <SCORE.INTRA.VDW>
0.857195

>  <SCORE.INTRA.VDW.0>
-2.18386

>  <SCORE.INTRA.norm>
0.0190559

>  <SCORE.RESTR>
0.0520902

>  <SCORE.RESTR.CAVITY>
0.0520902

>  <SCORE.RESTR.norm>
0.0011324

>  <SCORE.SYSTEM>
0

>  <SCORE.SYSTEM.CONST>
0

>  <SCORE.SYSTEM.DIHEDRAL>
0

>  <SCORE.SYSTEM.SOLV>
0

>  <SCORE.SYSTEM.norm>
0

>  <SCORE.heavy>
46

>  <SCORE.norm>
0.957676

>  <RMSD>
15.848

$$$$
ligand
 OpenBabel02271912143D
libRbt.so/2013.1/901 2013/11/27
 46 52  0  0  0  0  0  0  0  0999 V2000
  -15.7821   -7.0760   16.3494 P   0  0  1  0  0  0  0  0  0  0  0  0
  -19.9271   -9.7874   19.5342 P   0  0  2  0  0  0  0  0  0  0  0  0
  -14.8018   -8.2675   15.4770 O   0  5  0  0  0  0  0  0  0  0  0  0
  -15.3076   -5.4070   15.9390 O   0  0  0  0  0  0  0  0  0  0  0  0
  -18.3718   -6.5796   16.6146 C   0  0  0  0  0  0  0  0  0  0  0  0
  -17.3316   -7.3230   15.9791 O   0  0  0  0  0  0  0  0  0  0  0  0
  -19.6771   -7.3337   16.4470 C   0  0  1  0  0  0  0  0  0  0  0  0
  -19.8866   -7.6229   15.0576 O   0  0  0  0  0  0  0  0  0  0  0  0
  -19.6862   -8.6816   17.1496 C   0  0  1  0  0  0  0  0  0  0  0  0
  -20.1832   -8.5891   18.4828 O   0  0  0  0  0  0  0  0  0  0  0  0
  -20.5863   -9.5257   16.2646 C   0  0  1  0  0  0  0  0  0  0  0  0
  -21.9482   -9.3895   16.6784 O   0  0  0  0  0  0  0  0  0  0  0  0
  -20.4409   -8.9351   14.8744 C   0  0  2  0  0  0  0  0  0  0  0  0
  -14.7966  -10.2557   19.7251 C   0  0  1  0  0  0  0  0  0  0  0  0
  -19.4677  -11.3200   10.2314 N   0  0  0  0  0  0  0  0  0  0  0  0
  -20.5563  -10.5975   10.6126 C   0  0  1  0  0  0  0  0  0  0  0  0
  -14.7728   -9.4867   18.4346 C   0  0  2  0  0  0  0  0  0  0  0  0
  -21.5608  -10.4354    9.7208 N   0  0  0  0  0  0  0  0  0  0  0  0
  -13.5500   -8.7481   18.4265 O   0  0  0  0  0  0  0  0  0  0  0  0
  -15.9856   -8.5800   18.5031 C   0  0  2  0  0  0  0  0  0  0  0  0
  -20.6743  -10.0365   11.8528 N   0  0  0  0  0  0  0  0  0  0  0  0
  -15.7192   -7.3022   17.9412 O   0  0  0  0  0  0  0  0  0  0  0  0
  -19.6942  -10.1683   12.7821 C   0  0  2  0  0  0  0  0  0  0  0  0
  -16.2869   -8.4444   19.9827 C   0  0  2  0  0  0  0  0  0  0  0  0
  -15.6859   -9.5760   20.6101 O   0  0  0  0  0  0  0  0  0  0  0  0
  -18.4947  -10.9441   12.4215 C   0  0  1  0  0  0  0  0  0  0  0  0
  -17.7815   -8.4302   20.2836 C   0  0  0  0  0  0  0  0  0  0  0  0
  -18.3549   -9.6691   19.8613 O   0  0  0  0  0  0  0  0  0  0  0  0
  -18.4252  -11.5245   11.0686 C   0  0  0  0  0  0  0  0  0  0  0  0
  -17.3451  -12.2495   10.6814 O   0  0  0  0  0  0  0  0  0  0  0  0
  -17.6901  -10.9349   13.4900 N   0  0  0  0  0  0  0  0  0  0  0  0
  -18.3171  -10.2135   14.4647 C   0  0  0  0  0  0  0  0  0  0  0  0
  -19.5155   -9.7539   14.0472 N   0  0  1  0  0  0  0  0  0  0  0  0
  -14.3059  -15.2464   21.2152 N   0  0  0  0  0  0  0  0  0  0  0  0
  -20.2992  -11.3767   18.8156 O   0  5  0  0  0  0  0  0  0  0  0  0
  -13.6868  -14.1307   21.6894 C   0  0  2  0  0  0  0  0  0  0  0  0
  -12.7961  -14.2488   22.7086 N   0  0  0  0  0  0  0  0  0  0  0  0
  -20.8294   -9.5980   21.0502 O   0  0  0  0  0  0  0  0  0  0  0  0
  -13.9323  -12.8952   21.1743 N   0  0  0  0  0  0  0  0  0  0  0  0
  -14.8137  -12.7130   20.1632 C   0  0  2  0  0  0  0  0  0  0  0  0
  -15.5113  -13.8800   19.6073 C   0  0  2  0  0  0  0  0  0  0  0  0
  -15.1988  -15.1962   20.2040 C   0  0  0  0  0  0  0  0  0  0  0  0
  -15.7912  -16.3302   19.7550 O   0  0  0  0  0  0  0  0  0  0  0  0
  -16.3071  -13.4197   18.6218 N   0  0  0  0  0  0  0  0  0  0  0  0
  -16.1351  -12.0657   18.5560 C   0  0  0  0  0  0  0  0  0  0  0  0
  -15.2386  -11.6493   19.4789 N   0  0  1  0  0  0  0  0  0  0  0  0
  1  3  1  6  0  0  0
  1  4  2  0  0  0  0
  1  6  1  0  0  0  0
  1 22  1  0  0  0  0
  2 28  1  0  0  0  0
  2 35  1  6  0  0  0
  2 38  2  0  0  0  0
  2 10  1  0  0  0  0
  5  6  1  0  0  0  0
  7  5  1  6  0  0  0
  7  8  1  0  0  0  0
  7  9  1  0  0  0  0
  9 10  1  1  0  0  0
  9 11  1  0  0  0  0
 11 12  1  1  0  0  0
 11 13  1  0  0  0  0
 13  8  1  1  0  0  0
 13 33  1  0  0  0  0
 14 46  1  0  0  0  0
 14 17  1  0  0  0  0
 14 25  1  1  0  0  0
 15 16  1  0  0  0  0
 15 29  1  0  0  0  0
 16 18  1  1  0  0  0
 16 21  1  0  0  0  0
 17 19  1  1  0  0  0
 17 20  1  0  0  0  0
 20 22  1  1  0  0  0
 20 24  1  0  0  0  0
 23 21  1  1  0  0  0
 23 26  1  0  0  0  0
 23 33  1  0  0  0  0
 24 25  1  1  0  0  0
 24 27  1  0  0  0  0
 26 29  1  6  0  0  0
 26 31  1  0  0  0  0
 27 28  1  0  0  0  0
 29 30  2  0  0  0  0
 31 32  1  0  0  0  0
 33 32  1  6  0  0  0
 34 36  1  0  0  0  0
 34 42  1  0  0  0  0
 36 37  1  1  0  0  0
 36 39  1  0  0  0  0
 40 39  1  6  0  0  0
 40 41  1  0  0  0  0
 40 46  1  0  0  0  0
 41 42  1  6  0  0  0
 41 44  1  0  0  0  0
 42 43  2  0  0  0  0
 44 45  1  0  0  0  0
 46 45  1  1  0  0  0
M  CHG  2   3  -1  35  -1
M  END
>  <CHROM.1>
-109.51976936,147.07040035,-17.50075570,-10.17507537,17.10525618,2.88868652
1.05289641,-2.50829992

>  <Name>
ligand

>  <RI>
-1

>  <Rbt.Current_Directory>
/home/itssahil/PROJECTS/Mol_Feturizer/Test_systems_manuscript/rnas/3mum

>  <Rbt.Executable>
rbdock ($Id: //depot/dev/client3/rdock/2013.1/src/exe/rbdock.cxx#4 $)

>  <Rbt.Library>
libRbt.so (2013.1, Build901 2013/11/27)

>  <Rbt.Parameter_File>
/export/apps/rDock/src/rDock_2013.1_src/data/scripts/dock_solv.prm

>  <Rbt.Receptor>
prm/blind_docking_100.prm

>  <SCORE>
-0.884946

>  <SCORE.INTER>
-2.78963

>  <SCORE.INTER.CONST>
1

>  <SCORE.INTER.POLAR>
0

>  <SCORE.INTER.ROT>
2

>  <SCORE.INTER.SOLV>
36.0561

>  <SCORE.INTER.VDW>
-18.8118

>  <SCORE.INTER.norm>
-0.060644

>  <SCORE.INTRA>
0.102012

>  <SCORE.INTRA.DIHEDRAL>
-0.033261

>  <SCORE.INTRA.DIHEDRAL.0>
2.40424

>  <SCORE.INTRA.POLAR>
0

>  <SCORE.INTRA.POLAR.0>
0

>  <SCORE.INTRA.REPUL>
0

>  <SCORE.INTRA.REPUL.0>
0

>  <SCORE.INTRA.SOLV>
-0.0184605

>  <SCORE.INTRA.SOLV.lig_0>
-134.169

>  <SCORE.INTRA.VDW>
0.127873

>  <SCORE.INTRA.VDW.0>
-2.18386

>  <SCORE.INTRA.norm>
0.00221766

>  <SCORE.RESTR>
1.80267

>  <SCORE.RESTR.CAVITY>
1.80267

>  <SCORE.RESTR.norm>
0.0391884

>  <SCORE.SYSTEM>
0

>  <SCORE.SYSTEM.CONST>
0

>  <SCORE.SYSTEM.DIHEDRAL>
0

>  <SCORE.SYSTEM.SOLV>
0

>  <SCORE.SYSTEM.norm>
0

>  <SCORE.heavy>
46

>  <SCORE.norm>
-0.019238

>  <RMSD>
15.850

$$$$
ligand
 OpenBabel02271912143D
libRbt.so/2013.1/901 2013/11/27
 46 52  0  0  0  0  0  0  0  0999 V2000
  -19.4751  -11.5532   17.5042 P   0  0  1  0  0  0  0  0  0  0  0  0
  -14.9105   -9.1618   20.3540 P   0  0  2  0  0  0  0  0  0  0  0  0
  -20.9300  -10.5688   17.7413 O   0  5  0  0  0  0  0  0  0  0  0  0
  -19.7775  -12.9175   16.3967 O   0  0  0  0  0  0  0  0  0  0  0  0
  -16.9839  -11.0982   16.7230 C   0  0  0  0  0  0  0  0  0  0  0  0
  -18.3099  -10.6058   16.9178 O   0  0  0  0  0  0  0  0  0  0  0  0
  -16.0362   -9.9167   16.6423 C   0  0  1  0  0  0  0  0  0  0  0  0
  -16.5044   -8.9960   15.6466 O   0  0  0  0  0  0  0  0  0  0  0  0
  -15.9617   -9.1176   17.9331 C   0  0  1  0  0  0  0  0  0  0  0  0
  -14.9283   -9.5866   18.7964 O   0  0  0  0  0  0  0  0  0  0  0  0
  -15.6989   -7.7027   17.4483 C   0  0  1  0  0  0  0  0  0  0  0  0
  -14.2920   -7.4809   17.3223 O   0  0  0  0  0  0  0  0  0  0  0  0
  -16.3256   -7.6347   16.0680 C   0  0  2  0  0  0  0  0  0  0  0  0
  -19.4443  -10.7964   22.1843 C   0  0  1  0  0  0  0  0  0  0  0  0
  -19.6432   -4.0730   13.9465 N   0  0  0  0  0  0  0  0  0  0  0  0
  -18.3921   -4.4260   13.5433 C   0  0  1  0  0  0  0  0  0  0  0  0
  -19.8889  -10.8717   20.7511 C   0  0  2  0  0  0  0  0  0  0  0  0
  -17.8737   -3.8118   12.4549 N   0  0  0  0  0  0  0  0  0  0  0  0
  -20.8426  -11.9329   20.6789 O   0  0  0  0  0  0  0  0  0  0  0  0
  -18.6273  -11.1854   19.9715 C   0  0  2  0  0  0  0  0  0  0  0  0
  -17.6440   -5.3673   14.1923 N   0  0  0  0  0  0  0  0  0  0  0  0
  -18.8807  -12.0855   18.9014 O   0  0  0  0  0  0  0  0  0  0  0  0
  -18.1193   -6.0131   15.2871 C   0  0  2  0  0  0  0  0  0  0  0  0
  -17.6958  -11.8272   20.9809 C   0  0  2  0  0  0  0  0  0  0  0  0
  -18.1547  -11.4023   22.2631 O   0  0  0  0  0  0  0  0  0  0  0  0
  -19.4680   -5.6660   15.7676 C   0  0  1  0  0  0  0  0  0  0  0  0
  -16.2421  -11.4065   20.7960 C   0  0  0  0  0  0  0  0  0  0  0  0
  -16.1372   -9.9937   20.9832 O   0  0  0  0  0  0  0  0  0  0  0  0
  -20.2265   -4.6432   15.0254 C   0  0  0  0  0  0  0  0  0  0  0  0
  -21.4732   -4.2825   15.4227 O   0  0  0  0  0  0  0  0  0  0  0  0
  -19.7030   -6.4217   16.8459 N   0  0  0  0  0  0  0  0  0  0  0  0
  -18.5964   -7.1948   17.0493 C   0  0  0  0  0  0  0  0  0  0  0  0
  -17.6466   -6.9539   16.1212 N   0  0  1  0  0  0  0  0  0  0  0  0
  -20.6619   -7.4752   26.0385 N   0  0  0  0  0  0  0  0  0  0  0  0
  -15.1737   -7.4094   20.5554 O   0  5  0  0  0  0  0  0  0  0  0  0
  -20.8719   -8.8169   25.9459 C   0  0  2  0  0  0  0  0  0  0  0  0
  -21.4798   -9.4658   26.9733 N   0  0  0  0  0  0  0  0  0  0  0  0
  -13.4226   -9.6368   21.1958 O   0  0  0  0  0  0  0  0  0  0  0  0
  -20.4906   -9.5332   24.8532 N   0  0  0  0  0  0  0  0  0  0  0  0
  -19.8750   -8.9443   23.8014 C   0  0  2  0  0  0  0  0  0  0  0  0
  -19.6233   -7.4977   23.8416 C   0  0  2  0  0  0  0  0  0  0  0  0
  -20.0654   -6.7728   25.0521 C   0  0  0  0  0  0  0  0  0  0  0  0
  -19.8784   -5.4358   25.1785 O   0  0  0  0  0  0  0  0  0  0  0  0
  -19.0187   -7.1794   22.6800 N   0  0  0  0  0  0  0  0  0  0  0  0
  -18.8901   -8.3315   21.9567 C   0  0  0  0  0  0  0  0  0  0  0  0
  -19.4065   -9.3835   22.6317 N   0  0  1  0  0  0  0  0  0  0  0  0
  1  3  1  1  0  0  0
  1  4  2  0  0  0  0
  1  6  1  0  0  0  0
  1 22  1  0  0  0  0
  2 28  1  0  0  0  0
  2 35  1  1  0  0  0
  2 38  2  0  0  0  0
  2 10  1  0  0  0  0
  5  6  1  0  0  0  0
  7  5  1  1  0  0  0
  7  8  1  0  0  0  0
  7  9  1  0  0  0  0
  9 10  1  1  0  0  0
  9 11  1  0  0  0  0
 11 12  1  6  0  0  0
 11 13  1  0  0  0  0
 13  8  1  1  0  0  0
 13 33  1  0  0  0  0
 14 46  1  0  0  0  0
 14 17  1  0  0  0  0
 14 25  1  6  0  0  0
 15 16  1  0  0  0  0
 15 29  1  0  0  0  0
 16 18  1  1  0  0  0
 16 21  1  0  0  0  0
 17 19  1  1  0  0  0
 17 20  1  0  0  0  0
 20 22  1  6  0  0  0
 20 24  1  0  0  0  0
 23 21  1  1  0  0  0
 23 26  1  0  0  0  0
 23 33  1  0  0  0  0
 24 25  1  1  0  0  0
 24 27  1  0  0  0  0
 26 29  1  6  0  0  0
 26 31  1  0  0  0  0
 27 28  1  0  0  0  0
 29 30  2  0  0  0  0
 31 32  1  0  0  0  0
 33 32  1  6  0  0  0
 34 36  1  0  0  0  0
 34 42  1  0  0  0  0
 36 37  1  1  0  0  0
 36 39  1  0  0  0  0
 40 39  1  6  0  0  0
 40 41  1  0  0  0  0
 40 46  1  0  0  0  0
 41 42  1  6  0  0  0
 41 44  1  0  0  0  0
 42 43  2  0  0  0  0
 44 45  1  0  0  0  0
 46 45  1  1  0  0  0
M  CHG  2   3  -1  35  -1
M  END
>  <CHROM.1>
-108.26600687,135.78013331,-18.23859700,-8.69786819,19.29821246,-1.27913597
-0.99772024,2.11867494

>  <Name>
ligand

>  <RI>
-1

>  <Rbt.Current_Directory>
/home/itssahil/PROJECTS/Mol_Feturizer/Test_systems_manuscript/rnas/3mum

>  <Rbt.Executable>
rbdock ($Id: //depot/dev/client3/rdock/2013.1/src/exe/rbdock.cxx#4 $)

>  <Rbt.Library>
libRbt.so (2013.1, Build901 2013/11/27)

>  <Rbt.Parameter_File>
/export/apps/rDock/src/rDock_2013.1_src/data/scripts/dock_solv.prm

>  <Rbt.Receptor>
prm/blind_docking_100.prm

>  <SCORE>
11.4533

>  <SCORE.INTER>
10.7372

>  <SCORE.INTER.CONST>
1

>  <SCORE.INTER.POLAR>
0

>  <SCORE.INTER.ROT>
2

>  <SCORE.INTER.SOLV>
39.6059

>  <SCORE.INTER.VDW>
-10.9772

>  <SCORE.INTER.norm>
0.233418

>  <SCORE.INTRA>
-0.0346654

>  <SCORE.INTRA.DIHEDRAL>
-0.0261566

>  <SCORE.INTRA.DIHEDRAL.0>
2.40424

>  <SCORE.INTRA.POLAR>
0

>  <SCORE.INTRA.POLAR.0>
0

>  <SCORE.INTRA.REPUL>
0

>  <SCORE.INTRA.REPUL.0>
0

>  <SCORE.INTRA.SOLV>
-0.0208378

>  <SCORE.INTRA.SOLV.lig_0>
-134.169

>  <SCORE.INTRA.VDW>
-0.0111682

>  <SCORE.INTRA.VDW.0>
-2.18386

>  <SCORE.INTRA.norm>
-0.000753596

>  <SCORE.RESTR>
0.750708

>  <SCORE.RESTR.CAVITY>
0.750708

>  <SCORE.RESTR.norm>
0.0163197

>  <SCORE.SYSTEM>
0

>  <SCORE.SYSTEM.CONST>
0

>  <SCORE.SYSTEM.DIHEDRAL>
0

>  <SCORE.SYSTEM.SOLV>
0

>  <SCORE.SYSTEM.norm>
0

>  <SCORE.heavy>
46

>  <SCORE.norm>
0.248984

>  <RMSD>
15.850

$$$$
ligand
 OpenBabel02271912143D
libRbt.so/2013.1/901 2013/11/27
 46 52  0  0  0  0  0  0  0  0999 V2000
  -15.7820   -7.0855   16.3445 P   0  0  1  0  0  0  0  0  0  0  0  0
  -19.9330   -9.7877   19.5294 P   0  0  2  0  0  0  0  0  0  0  0  0
  -14.8024   -8.2793   15.4745 O   0  5  0  0  0  0  0  0  0  0  0  0
  -15.3053   -5.4175   15.9323 O   0  0  0  0  0  0  0  0  0  0  0  0
  -18.3714   -6.5856   16.6069 C   0  0  0  0  0  0  0  0  0  0  0  0
  -17.3316   -7.3311   15.9732 O   0  0  0  0  0  0  0  0  0  0  0  0
  -19.6775   -7.3384   16.4392 C   0  0  1  0  0  0  0  0  0  0  0  0
  -19.8862   -7.6291   15.0500 O   0  0  0  0  0  0  0  0  0  0  0  0
  -19.6887   -8.6853   17.1435 C   0  0  1  0  0  0  0  0  0  0  0  0
  -20.1867   -8.5906   18.4762 O   0  0  0  0  0  0  0  0  0  0  0  0
  -20.5891   -9.5296   16.2588 C   0  0  1  0  0  0  0  0  0  0  0  0
  -21.9512   -9.3912   16.6713 O   0  0  0  0  0  0  0  0  0  0  0  0
  -20.4419   -8.9409   14.8680 C   0  0  2  0  0  0  0  0  0  0  0  0
  -14.8032  -10.2619   19.7252 C   0  0  1  0  0  0  0  0  0  0  0  0
  -19.4679  -11.3336   10.2292 N   0  0  0  0  0  0  0  0  0  0  0  0
  -20.5560  -10.6094   10.6086 C   0  0  1  0  0  0  0  0  0  0  0  0
  -14.7774   -9.4946   18.4337 C   0  0  2  0  0  0  0  0  0  0  0  0
  -21.5597  -10.4476    9.7158 N   0  0  0  0  0  0  0  0  0  0  0  0
  -13.5537   -8.7575   18.4257 O   0  0  0  0  0  0  0  0  0  0  0  0
  -15.9892   -8.5864   18.5000 C   0  0  2  0  0  0  0  0  0  0  0  0
  -20.6743  -10.0465   11.8479 N   0  0  0  0  0  0  0  0  0  0  0  0
  -15.7207   -7.3097   17.9366 O   0  0  0  0  0  0  0  0  0  0  0  0
  -19.6949  -10.1780   12.7780 C   0  0  2  0  0  0  0  0  0  0  0  0
  -16.2916   -8.4485   19.9792 C   0  0  2  0  0  0  0  0  0  0  0  0
  -15.6925   -9.5800   20.6086 O   0  0  0  0  0  0  0  0  0  0  0  0
  -18.4961  -10.9555   12.4194 C   0  0  1  0  0  0  0  0  0  0  0  0
  -17.7864   -8.4321   20.2788 C   0  0  0  0  0  0  0  0  0  0  0  0
  -18.3609   -9.6709   19.8576 O   0  0  0  0  0  0  0  0  0  0  0  0
  -18.4262  -11.5380   11.0674 C   0  0  0  0  0  0  0  0  0  0  0  0
  -17.3466  -12.2647   10.6821 O   0  0  0  0  0  0  0  0  0  0  0  0
  -17.6922  -10.9456   13.4884 N   0  0  0  0  0  0  0  0  0  0  0  0
  -18.3191  -10.2221   14.4616 C   0  0  0  0  0  0  0  0  0  0  0  0
  -19.5167   -9.7619   14.0426 N   0  0  1  0  0  0  0  0  0  0  0  0
  -14.1891  -15.2716   21.1015 N   0  0  0  0  0  0  0  0  0  0  0  0
  -20.3064  -11.3776   18.8125 O   0  5  0  0  0  0  0  0  0  0  0  0
  -13.5538  -14.1582   21.5593 C   0  0  2  0  0  0  0  0  0  0  0  0
  -12.6068  -14.2847   22.5254 N   0  0  0  0  0  0  0  0  0  0  0  0
  -20.8363   -9.5953   21.0443 O   0  0  0  0  0  0  0  0  0  0  0  0
  -13.8378  -12.9167   21.0795 N   0  0  0  0  0  0  0  0  0  0  0  0
  -14.7755  -12.7261   20.1221 C   0  0  2  0  0  0  0  0  0  0  0  0
  -15.4933  -13.8902   19.5861 C   0  0  2  0  0  0  0  0  0  0  0  0
  -15.1372  -15.2130   20.1423 C   0  0  0  0  0  0  0  0  0  0  0  0
  -15.7442  -16.3450   19.7079 O   0  0  0  0  0  0  0  0  0  0  0  0
  -16.3465  -13.4212   18.6542 N   0  0  0  0  0  0  0  0  0  0  0  0
  -16.1896  -12.0648   18.6018 C   0  0  0  0  0  0  0  0  0  0  0  0
  -15.2466  -11.6553   19.4804 N   0  0  1  0  0  0  0  0  0  0  0  0
  1  3  1  6  0  0  0
  1  4  2  0  0  0  0
  1  6  1  0  0  0  0
  1 22  1  0  0  0  0
  2 28  1  0  0  0  0
  2 35  1  6  0  0  0
  2 38  2  0  0  0  0
  2 10  1  0  0  0  0
  5  6  1  0  0  0  0
  7  5  1  6  0  0  0
  7  8  1  0  0  0  0
  7  9  1  0  0  0  0
  9 10  1  1  0  0  0
  9 11  1  0  0  0  0
 11 12  1  1  0  0  0
 11 13  1  0  0  0  0
 13  8  1  1  0  0  0
 13 33  1  0  0  0  0
 14 46  1  0  0  0  0
 14 17  1  0  0  0  0
 14 25  1  1  0  0  0
 15 16  1  0  0  0  0
 15 29  1  0  0  0  0
 16 18  1  1  0  0  0
 16 21  1  0  0  0  0
 17 19  1  1  0  0  0
 17 20  1  0  0  0  0
 20 22  1  1  0  0  0
 20 24  1  0  0  0  0
 23 21  1  1  0  0  0
 23 26  1  0  0  0  0
 23 33  1  0  0  0  0
 24 25  1  1  0  0  0
 24 27  1  0  0  0  0
 26 29  1  6  0  0  0
 26 31  1  0  0  0  0
 27 28  1  0  0  0  0
 29 30  2  0  0  0  0
 31 32  1  0  0  0  0
 33 32  1  6  0  0  0
 34 36  1  0  0  0  0
 34 42  1  0  0  0  0
 36 37  1  1  0  0  0
 36 39  1  0  0  0  0
 40 39  1  6  0  0  0
 40 41  1  0  0  0  0
 40 46  1  0  0  0  0
 41 42  1  6  0  0  0
 41 44  1  0  0  0  0
 42 43  2  0  0  0  0
 44 45  1  0  0  0  0
 46 45  1  1  0  0  0
M  CHG  2   3  -1  35  -1
M  END
>  <CHROM.1>
-109.53408343,143.63123770,-17.49077445,-10.18379006,17.08977615,2.85716901
1.03671364,-2.46573139

>  <Name>
ligand

>  <RI>
-1

>  <Rbt.Current_Directory>
/home/itssahil/PROJECTS/Mol_Feturizer/Test_systems_manuscript/rnas/3mum

>  <Rbt.Executable>
rbdock ($Id: //depot/dev/client3/rdock/2013.1/src/exe/rbdock.cxx#4 $)

>  <Rbt.Library>
libRbt.so (2013.1, Build901 2013/11/27)

>  <Rbt.Parameter_File>
/export/apps/rDock/src/rDock_2013.1_src/data/scripts/dock_solv.prm

>  <Rbt.Receptor>
prm/blind_docking_100.prm

>  <SCORE>
-1.36466

>  <SCORE.INTER>
-3.32149

>  <SCORE.INTER.CONST>
1

>  <SCORE.INTER.POLAR>
0

>  <SCORE.INTER.ROT>
2

>  <SCORE.INTER.SOLV>
36.6446

>  <SCORE.INTER.VDW>
-19.3625

>  <SCORE.INTER.norm>
-0.0722064

>  <SCORE.INTRA>
0.0437465

>  <SCORE.INTRA.DIHEDRAL>
-0.0319532

>  <SCORE.INTRA.DIHEDRAL.0>
2.40424

>  <SCORE.INTRA.POLAR>
0

>  <SCORE.INTRA.POLAR.0>
0

>  <SCORE.INTRA.REPUL>
0

>  <SCORE.INTRA.REPUL.0>
0

>  <SCORE.INTRA.SOLV>
-0.0225254

>  <SCORE.INTRA.SOLV.lig_0>
-134.169

>  <SCORE.INTRA.VDW>
0.0709858

>  <SCORE.INTRA.VDW.0>
-2.18386

>  <SCORE.INTRA.norm>
0.000951011

>  <SCORE.RESTR>
1.91308

>  <SCORE.RESTR.CAVITY>
1.91308

>  <SCORE.RESTR.norm>
0.0415888

>  <SCORE.SYSTEM>
0

>  <SCORE.SYSTEM.CONST>
0

>  <SCORE.SYSTEM.DIHEDRAL>
0

>  <SCORE.SYSTEM.SOLV>
0

>  <SCORE.SYSTEM.norm>
0

>  <SCORE.heavy>
46

>  <SCORE.norm>
-0.0296666

>  <RMSD>
15.851

$$$$
ligand
 OpenBabel02271912143D
libRbt.so/2013.1/901 2013/11/27
 46 52  0  0  0  0  0  0  0  0999 V2000
  -14.8213   -9.1727   20.1790 P   0  0  1  0  0  0  0  0  0  0  0  0
  -19.5176  -11.7101   17.6926 P   0  0  2  0  0  0  0  0  0  0  0  0
  -15.1146   -7.4411   20.4182 O   0  5  0  0  0  0  0  0  0  0  0  0
  -13.2449   -9.6711   20.8467 O   0  0  0  0  0  0  0  0  0  0  0  0
  -16.1048  -11.4136   20.7744 C   0  0  0  0  0  0  0  0  0  0  0  0
  -16.0132   -9.9935   20.8896 O   0  0  0  0  0  0  0  0  0  0  0  0
  -17.5245  -11.8350   21.1022 C   0  0  1  0  0  0  0  0  0  0  0  0
  -17.9009  -11.2944   22.3766 O   0  0  0  0  0  0  0  0  0  0  0  0
  -18.5513  -11.3042   20.1152 C   0  0  1  0  0  0  0  0  0  0  0  0
  -18.7811  -12.2112   19.0392 O   0  0  0  0  0  0  0  0  0  0  0  0
  -19.7896  -11.1154   20.9737 C   0  0  1  0  0  0  0  0  0  0  0  0
  -20.5561  -12.3221   21.0010 O   0  0  0  0  0  0  0  0  0  0  0  0
  -19.2644  -10.8432   22.3711 C   0  0  2  0  0  0  0  0  0  0  0  0
  -16.5703   -7.8436   15.9777 C   0  0  1  0  0  0  0  0  0  0  0  0
  -20.2588   -7.0152   25.9137 N   0  0  0  0  0  0  0  0  0  0  0  0
  -20.3587   -8.3648   26.0589 C   0  0  1  0  0  0  0  0  0  0  0  0
  -15.9856   -7.8011   17.3610 C   0  0  2  0  0  0  0  0  0  0  0  0
  -20.7656   -8.8512   27.2541 N   0  0  0  0  0  0  0  0  0  0  0  0
  -14.6333   -7.3638   17.2150 O   0  0  0  0  0  0  0  0  0  0  0  0
  -16.0716   -9.2297   17.8605 C   0  0  2  0  0  0  0  0  0  0  0  0
  -20.0690   -9.2405   25.0509 N   0  0  0  0  0  0  0  0  0  0  0  0
  -14.9306   -9.5877   18.6283 O   0  0  0  0  0  0  0  0  0  0  0  0
  -19.6551   -8.8032   23.8348 C   0  0  2  0  0  0  0  0  0  0  0  0
  -16.1402  -10.0772   16.6054 C   0  0  2  0  0  0  0  0  0  0  0  0
  -16.6099   -9.2115   15.5733 O   0  0  0  0  0  0  0  0  0  0  0  0
  -19.5330   -7.3503   23.6234 C   0  0  1  0  0  0  0  0  0  0  0  0
  -17.0871  -11.2642   16.7436 C   0  0  0  0  0  0  0  0  0  0  0  0
  -18.4102  -10.7808   16.9835 O   0  0  0  0  0  0  0  0  0  0  0  0
  -19.8592   -6.4562   24.7487 C   0  0  0  0  0  0  0  0  0  0  0  0
  -19.7659   -5.1091   24.6115 O   0  0  0  0  0  0  0  0  0  0  0  0
  -19.1212   -7.1741   22.3631 N   0  0  0  0  0  0  0  0  0  0  0  0
  -18.9885   -8.4115   21.8021 C   0  0  0  0  0  0  0  0  0  0  0  0
  -19.3073   -9.3886   22.6770 N   0  0  1  0  0  0  0  0  0  0  0  0
  -19.5278   -3.9170   14.1879 N   0  0  0  0  0  0  0  0  0  0  0  0
  -20.9837  -10.7648   18.0638 O   0  5  0  0  0  0  0  0  0  0  0  0
  -18.2075   -4.1767   13.9826 C   0  0  2  0  0  0  0  0  0  0  0  0
  -17.4800   -3.3373   13.2002 N   0  0  0  0  0  0  0  0  0  0  0  0
  -19.9314  -13.0319   16.5836 O   0  0  0  0  0  0  0  0  0  0  0  0
  -17.5895   -5.2551   14.5373 N   0  0  0  0  0  0  0  0  0  0  0  0
  -18.2626   -6.1305   15.3200 C   0  0  2  0  0  0  0  0  0  0  0  0
  -19.6899   -5.9017   15.5807 C   0  0  2  0  0  0  0  0  0  0  0  0
  -20.3040   -4.7108   14.9557 C   0  0  0  0  0  0  0  0  0  0  0  0
  -21.6145   -4.4163   15.1413 O   0  0  0  0  0  0  0  0  0  0  0  0
  -20.0998   -6.9022   16.3854 N   0  0  0  0  0  0  0  0  0  0  0  0
  -19.0214   -7.7086   16.6169 C   0  0  0  0  0  0  0  0  0  0  0  0
  -17.9247   -7.2404   15.9791 N   0  0  1  0  0  0  0  0  0  0  0  0
  1  3  1  1  0  0  0
  1  4  2  0  0  0  0
  1  6  1  0  0  0  0
  1 22  1  0  0  0  0
  2 28  1  0  0  0  0
  2 35  1  1  0  0  0
  2 38  2  0  0  0  0
  2 10  1  0  0  0  0
  5  6  1  0  0  0  0
  7  5  1  6  0  0  0
  7  8  1  0  0  0  0
  7  9  1  0  0  0  0
  9 10  1  6  0  0  0
  9 11  1  0  0  0  0
 11 12  1  1  0  0  0
 11 13  1  0  0  0  0
 13  8  1  6  0  0  0
 13 33  1  0  0  0  0
 14 46  1  0  0  0  0
 14 17  1  0  0  0  0
 14 25  1  1  0  0  0
 15 16  1  0  0  0  0
 15 29  1  0  0  0  0
 16 18  1  6  0  0  0
 16 21  1  0  0  0  0
 17 19  1  6  0  0  0
 17 20  1  0  0  0  0
 20 22  1  6  0  0  0
 20 24  1  0  0  0  0
 23 21  1  6  0  0  0
 23 26  1  0  0  0  0
 23 33  1  0  0  0  0
 24 25  1  6  0  0  0
 24 27  1  0  0  0  0
 26 29  1  1  0  0  0
 26 31  1  0  0  0  0
 27 28  1  0  0  0  0
 29 30  2  0  0  0  0
 31 32  1  0  0  0  0
 33 32  1  1  0  0  0
 34 36  1  0  0  0  0
 34 42  1  0  0  0  0
 36 37  1  6  0  0  0
 36 39  1  0  0  0  0
 40 39  1  1  0  0  0
 40 41  1  0  0  0  0
 40 46  1  0  0  0  0
 41 42  1  1  0  0  0
 41 44  1  0  0  0  0
 42 43  2  0  0  0  0
 44 45  1  0  0  0  0
 46 45  1  6  0  0  0
M  CHG  2   3  -1  35  -1
M  END
>  <CHROM.1>
-103.59848826,115.66444667,-18.20109120,-8.71573480,19.29494764,-1.84956243
1.12216639,-1.01593376

>  <Name>
ligand

>  <RI>
0

>  <Rbt.Current_Directory>
/home/itssahil/PROJECTS/Mol_Feturizer/Test_systems_manuscript/rnas/3mum

>  <Rbt.Executable>
rbdock ($Id: //depot/dev/client3/rdock/2013.1/src/exe/rbdock.cxx#4 $)

>  <Rbt.Library>
libRbt.so (2013.1, Build901 2013/11/27)

>  <Rbt.Parameter_File>
/export/apps/rDock/src/rDock_2013.1_src/data/scripts/dock_solv.prm

>  <Rbt.Receptor>
prm/blind_docking_60.prm

>  <SCORE>
38.8199

>  <SCORE.INTER>
37.5786

>  <SCORE.INTER.CONST>
1

>  <SCORE.INTER.POLAR>
0

>  <SCORE.INTER.ROT>
2

>  <SCORE.INTER.SOLV>
41.2807

>  <SCORE.INTER.VDW>
6.35884

>  <SCORE.INTER.norm>
0.816926

>  <SCORE.INTRA>
-0.127448

>  <SCORE.INTRA.DIHEDRAL>
-0.000148248

>  <SCORE.INTRA.DIHEDRAL.0>
2.40424

>  <SCORE.INTRA.POLAR>
0

>  <SCORE.INTRA.POLAR.0>
0

>  <SCORE.INTRA.REPUL>
0

>  <SCORE.INTRA.REPUL.0>
0

>  <SCORE.INTRA.SOLV>
0.0436775

>  <SCORE.INTRA.SOLV.lig_0>
-134.169

>  <SCORE.INTRA.VDW>
-0.149212

>  <SCORE.INTRA.VDW.0>
-2.18386

>  <SCORE.INTRA.norm>
-0.0027706

>  <SCORE.RESTR>
1.36876

>  <SCORE.RESTR.CAVITY>
1.36876

>  <SCORE.RESTR.norm>
0.0297557

>  <SCORE.SYSTEM>
0

>  <SCORE.SYSTEM.CONST>
0

>  <SCORE.SYSTEM.DIHEDRAL>
0

>  <SCORE.SYSTEM.SOLV>
0

>  <SCORE.SYSTEM.norm>
0

>  <SCORE.heavy>
46

>  <SCORE.norm>
0.843911

>  <RMSD>
15.856

$$$$
ligand
 OpenBabel02271912143D
libRbt.so/2013.1/901 2013/11/27
 46 52  0  0  0  0  0  0  0  0999 V2000
  -19.3242  -11.7419   17.4190 P   0  0  1  0  0  0  0  0  0  0  0  0
  -14.6234   -9.8008   20.3872 P   0  0  2  0  0  0  0  0  0  0  0  0
  -20.6646  -10.5924   17.5733 O   0  5  0  0  0  0  0  0  0  0  0  0
  -19.7400  -13.0951   16.3348 O   0  0  0  0  0  0  0  0  0  0  0  0
  -16.7704  -11.5955   16.7262 C   0  0  0  0  0  0  0  0  0  0  0  0
  -18.0375  -10.9505   16.8558 O   0  0  0  0  0  0  0  0  0  0  0  0
  -15.6914  -10.5319   16.6537 C   0  0  1  0  0  0  0  0  0  0  0  0
  -16.0143   -9.5938   15.6175 O   0  0  0  0  0  0  0  0  0  0  0  0
  -15.5733   -9.7089   17.9261 C   0  0  1  0  0  0  0  0  0  0  0  0
  -14.6326  -10.2664   18.8412 O   0  0  0  0  0  0  0  0  0  0  0  0
  -15.1327   -8.3478   17.4168 C   0  0  1  0  0  0  0  0  0  0  0  0
  -13.7060   -8.2907   17.3414 O   0  0  0  0  0  0  0  0  0  0  0  0
  -15.6965   -8.2497   16.0115 C   0  0  2  0  0  0  0  0  0  0  0  0
  -19.3785  -10.8563   22.0761 C   0  0  1  0  0  0  0  0  0  0  0  0
  -20.7192   -7.6909   14.3825 N   0  0  0  0  0  0  0  0  0  0  0  0
  -19.8503   -8.7119   14.1480 C   0  0  1  0  0  0  0  0  0  0  0  0
  -19.7759  -10.9228   20.6288 C   0  0  2  0  0  0  0  0  0  0  0  0
  -20.2762   -9.7549   13.3987 N   0  0  0  0  0  0  0  0  0  0  0  0
  -20.8415  -11.8707   20.5453 O   0  0  0  0  0  0  0  0  0  0  0  0
  -18.5309  -11.4003   19.9080 C   0  0  2  0  0  0  0  0  0  0  0  0
  -18.5733   -8.7226   14.6336 N   0  0  0  0  0  0  0  0  0  0  0  0
  -18.8462  -12.2969   18.8516 O   0  0  0  0  0  0  0  0  0  0  0  0
  -18.0990   -7.7017   15.3916 C   0  0  2  0  0  0  0  0  0  0  0  0
  -17.7165  -12.1136   20.9694 C   0  0  2  0  0  0  0  0  0  0  0  0
  -18.1705  -11.6018   22.2213 O   0  0  0  0  0  0  0  0  0  0  0  0
  -18.9983   -6.5693   15.6729 C   0  0  1  0  0  0  0  0  0  0  0  0
  -16.2184  -11.8660   20.8319 C   0  0  0  0  0  0  0  0  0  0  0  0
  -15.9594  -10.4693   20.9877 O   0  0  0  0  0  0  0  0  0  0  0  0
  -20.3645   -6.6153   15.1219 C   0  0  0  0  0  0  0  0  0  0  0  0
  -21.2362   -5.5998   15.3478 O   0  0  0  0  0  0  0  0  0  0  0  0
  -18.3085   -5.7017   16.4216 N   0  0  0  0  0  0  0  0  0  0  0  0
  -17.0628   -6.2277   16.6093 C   0  0  0  0  0  0  0  0  0  0  0  0
  -16.9320   -7.4223   15.9950 N   0  0  1  0  0  0  0  0  0  0  0  0
  -16.9092   -7.6273   25.3693 N   0  0  0  0  0  0  0  0  0  0  0  0
  -14.6916   -8.0247   20.5341 O   0  5  0  0  0  0  0  0  0  0  0  0
  -16.8484   -8.9835   25.2695 C   0  0  2  0  0  0  0  0  0  0  0  0
  -16.0412   -9.6754   26.1155 N   0  0  0  0  0  0  0  0  0  0  0  0
  -13.2315  -10.4165   21.2991 O   0  0  0  0  0  0  0  0  0  0  0  0
  -17.5724   -9.6722   24.3455 N   0  0  0  0  0  0  0  0  0  0  0  0
  -18.3888   -9.0385   23.4714 C   0  0  2  0  0  0  0  0  0  0  0  0
  -18.4987   -7.5749   23.5318 C   0  0  2  0  0  0  0  0  0  0  0  0
  -17.6927   -6.8831   24.5603 C   0  0  0  0  0  0  0  0  0  0  0  0
  -17.7309   -5.5342   24.6936 O   0  0  0  0  0  0  0  0  0  0  0  0
  -19.3734   -7.2143   22.5720 N   0  0  0  0  0  0  0  0  0  0  0  0
  -19.7863   -8.3560   21.9451 C   0  0  0  0  0  0  0  0  0  0  0  0
  -19.1957   -9.4442   22.4892 N   0  0  1  0  0  0  0  0  0  0  0  0
  1  3  1  1  0  0  0
  1  4  2  0  0  0  0
  1  6  1  0  0  0  0
  1 22  1  0  0  0  0
  2 28  1  0  0  0  0
  2 35  1  1  0  0  0
  2 38  2  0  0  0  0
  2 10  1  0  0  0  0
  5  6  1  0  0  0  0
  7  5  1  1  0  0  0
  7  8  1  0  0  0  0
  7  9  1  0  0  0  0
  9 10  1  1  0  0  0
  9 11  1  0  0  0  0
 11 12  1  6  0  0  0
 11 13  1  0  0  0  0
 13  8  1  1  0  0  0
 13 33  1  0  0  0  0
 14 46  1  0  0  0  0
 14 17  1  0  0  0  0
 14 25  1  6  0  0  0
 15 16  1  0  0  0  0
 15 29  1  0  0  0  0
 16 18  1  6  0  0  0
 16 21  1  0  0  0  0
 17 19  1  1  0  0  0
 17 20  1  0  0  0  0
 20 22  1  6  0  0  0
 20 24  1  0  0  0  0
 23 21  1  6  0  0  0
 23 26  1  0  0  0  0
 23 33  1  0  0  0  0
 24 25  1  1  0  0  0
 24 27  1  0  0  0  0
 26 29  1  1  0  0  0
 26 31  1  0  0  0  0
 27 28  1  0  0  0  0
 29 30  2  0  0  0  0
 31 32  1  0  0  0  0
 33 32  1  1  0  0  0
 34 36  1  0  0  0  0
 34 42  1  0  0  0  0
 36 37  1  6  0  0  0
 36 39  1  0  0  0  0
 40 39  1  1  0  0  0
 40 41  1  0  0  0  0
 40 46  1  0  0  0  0
 41 42  1  1  0  0  0
 41 44  1  0  0  0  0
 42 43  2  0  0  0  0
 44 45  1  0  0  0  0
 46 45  1  6  0  0  0
M  CHG  2   3  -1  35  -1
M  END
>  <CHROM.1>
-16.83329730,-152.85769788,-17.69828528,-9.38416709,19.21827415,1.76380028
-0.10616703,-1.51558252

>  <Name>
ligand

>  <RI>
-1

>  <Rbt.Current_Directory>
/home/itssahil/PROJECTS/Mol_Feturizer/Test_systems_manuscript/rnas/3mum

>  <Rbt.Executable>
rbdock ($Id: //depot/dev/client3/rdock/2013.1/src/exe/rbdock.cxx#4 $)

>  <Rbt.Library>
libRbt.so (2013.1, Build901 2013/11/27)

>  <Rbt.Parameter_File>
/export/apps/rDock/src/rDock_2013.1_src/data/scripts/dock_solv.prm

>  <Rbt.Receptor>
prm/blind_docking_100.prm

>  <SCORE>
58.9059

>  <SCORE.INTER>
58.3217

>  <SCORE.INTER.CONST>
1

>  <SCORE.INTER.POLAR>
0

>  <SCORE.INTER.ROT>
2

>  <SCORE.INTER.SOLV>
36.3026

>  <SCORE.INTER.VDW>
21.8469

>  <SCORE.INTER.norm>
1.26786

>  <SCORE.INTRA>
-0.129116

>  <SCORE.INTRA.DIHEDRAL>
0.0257179

>  <SCORE.INTRA.DIHEDRAL.0>
2.40424

>  <SCORE.INTRA.POLAR>
0

>  <SCORE.INTRA.POLAR.0>
0

>  <SCORE.INTRA.REPUL>
0

>  <SCORE.INTRA.REPUL.0>
0

>  <SCORE.INTRA.SOLV>
0.537551

>  <SCORE.INTRA.SOLV.lig_0>
-134.169

>  <SCORE.INTRA.VDW>
-0.41075

>  <SCORE.INTRA.VDW.0>
-2.18386

>  <SCORE.INTRA.norm>
-0.00280686

>  <SCORE.RESTR>
0.713362

>  <SCORE.RESTR.CAVITY>
0.713362

>  <SCORE.RESTR.norm>
0.0155079

>  <SCORE.SYSTEM>
0

>  <SCORE.SYSTEM.CONST>
0

>  <SCORE.SYSTEM.DIHEDRAL>
0

>  <SCORE.SYSTEM.SOLV>
0

>  <SCORE.SYSTEM.norm>
0

>  <SCORE.heavy>
46

>  <SCORE.norm>
1.28056

>  <RMSD>
15.857

$$$$
ligand
 OpenBabel02271912143D
libRbt.so/2013.1/901 2013/11/27
 46 52  0  0  0  0  0  0  0  0999 V2000
  -15.7872   -7.1028   16.3853 P   0  0  1  0  0  0  0  0  0  0  0  0
  -19.9159   -9.8126   19.5926 P   0  0  2  0  0  0  0  0  0  0  0  0
  -14.8174   -8.2943   15.5012 O   0  5  0  0  0  0  0  0  0  0  0  0
  -15.3107   -5.4338   15.9771 O   0  0  0  0  0  0  0  0  0  0  0  0
  -18.3732   -6.5993   16.6724 C   0  0  0  0  0  0  0  0  0  0  0  0
  -17.3403   -7.3437   16.0262 O   0  0  0  0  0  0  0  0  0  0  0  0
  -19.6821   -7.3488   16.5122 C   0  0  1  0  0  0  0  0  0  0  0  0
  -19.9033   -7.6324   15.1235 O   0  0  0  0  0  0  0  0  0  0  0  0
  -19.6900   -8.6991   17.2101 C   0  0  1  0  0  0  0  0  0  0  0  0
  -20.1764   -8.6098   18.5475 O   0  0  0  0  0  0  0  0  0  0  0  0
  -20.5996   -9.5373   16.3291 C   0  0  1  0  0  0  0  0  0  0  0  0
  -21.9578   -9.3984   16.7540 O   0  0  0  0  0  0  0  0  0  0  0  0
  -20.4631   -8.9422   14.9400 C   0  0  2  0  0  0  0  0  0  0  0  0
  -14.7856  -10.2974   19.7421 C   0  0  1  0  0  0  0  0  0  0  0  0
  -19.4903  -11.2338   10.2501 N   0  0  0  0  0  0  0  0  0  0  0  0
  -20.5669  -10.4967   10.6374 C   0  0  1  0  0  0  0  0  0  0  0  0
  -14.7694   -9.5240   18.4542 C   0  0  2  0  0  0  0  0  0  0  0  0
  -21.5574  -10.2905    9.7390 N   0  0  0  0  0  0  0  0  0  0  0  0
  -13.5443   -8.7891   18.4393 O   0  0  0  0  0  0  0  0  0  0  0  0
  -15.9788   -8.6137   18.5352 C   0  0  2  0  0  0  0  0  0  0  0  0
  -20.6866   -9.9638   11.8897 N   0  0  0  0  0  0  0  0  0  0  0  0
  -15.7127   -7.3348   17.9758 O   0  0  0  0  0  0  0  0  0  0  0  0
  -19.7201  -10.1402   12.8259 C   0  0  2  0  0  0  0  0  0  0  0  0
  -16.2682   -8.4825   20.0176 C   0  0  2  0  0  0  0  0  0  0  0  0
  -15.6659   -9.6181   20.6364 O   0  0  0  0  0  0  0  0  0  0  0  0
  -18.5341  -10.9334   12.4592 C   0  0  1  0  0  0  0  0  0  0  0  0
  -17.7604   -8.4647   20.3302 C   0  0  0  0  0  0  0  0  0  0  0  0
  -18.3409   -9.7003   19.9079 O   0  0  0  0  0  0  0  0  0  0  0  0
  -18.4621  -11.4820   11.0932 C   0  0  0  0  0  0  0  0  0  0  0  0
  -17.3939  -12.2211   10.6998 O   0  0  0  0  0  0  0  0  0  0  0  0
  -17.7416  -10.9684   13.5361 N   0  0  0  0  0  0  0  0  0  0  0  0
  -18.3635  -10.2573   14.5216 C   0  0  0  0  0  0  0  0  0  0  0  0
  -19.5467   -9.7610   14.1027 N   0  0  1  0  0  0  0  0  0  0  0  0
  -14.1235  -15.3213   21.0422 N   0  0  0  0  0  0  0  0  0  0  0  0
  -20.2985  -11.3982   18.8714 O   0  5  0  0  0  0  0  0  0  0  0  0
  -13.4768  -14.2120   21.4940 C   0  0  2  0  0  0  0  0  0  0  0  0
  -12.5017  -14.3478   22.4304 N   0  0  0  0  0  0  0  0  0  0  0  0
  -20.8058   -9.6258   21.1162 O   0  0  0  0  0  0  0  0  0  0  0  0
  -13.7767  -12.9657   21.0369 N   0  0  0  0  0  0  0  0  0  0  0  0
  -14.7424  -12.7660   20.1097 C   0  0  2  0  0  0  0  0  0  0  0  0
  -15.4738  -13.9252   19.5816 C   0  0  2  0  0  0  0  0  0  0  0  0
  -15.0994  -15.2536   20.1120 C   0  0  0  0  0  0  0  0  0  0  0  0
  -15.7171  -16.3817   19.6825 O   0  0  0  0  0  0  0  0  0  0  0  0
  -16.3546  -13.4472   18.6805 N   0  0  0  0  0  0  0  0  0  0  0  0
  -16.2015  -12.0900   18.6392 C   0  0  0  0  0  0  0  0  0  0  0  0
  -15.2338  -11.6887   19.4945 N   0  0  1  0  0  0  0  0  0  0  0  0
  1  3  1  6  0  0  0
  1  4  2  0  0  0  0
  1  6  1  0  0  0  0
  1 22  1  0  0  0  0
  2 28  1  0  0  0  0
  2 35  1  6  0  0  0
  2 38  2  0  0  0  0
  2 10  1  0  0  0  0
  5  6  1  0  0  0  0
  7  5  1  6  0  0  0
  7  8  1  0  0  0  0
  7  9  1  0  0  0  0
  9 10  1  1  0  0  0
  9 11  1  0  0  0  0
 11 12  1  1  0  0  0
 11 13  1  0  0  0  0
 13  8  1  1  0  0  0
 13 33  1  0  0  0  0
 14 46  1  0  0  0  0
 14 17  1  0  0  0  0
 14 25  1  1  0  0  0
 15 16  1  0  0  0  0
 15 29  1  0  0  0  0
 16 18  1  1  0  0  0
 16 21  1  0  0  0  0
 17 19  1  1  0  0  0
 17 20  1  0  0  0  0
 20 22  1  1  0  0  0
 20 24  1  0  0  0  0
 23 21  1  1  0  0  0
 23 26  1  0  0  0  0
 23 33  1  0  0  0  0
 24 25  1  1  0  0  0
 24 27  1  0  0  0  0
 26 29  1  6  0  0  0
 26 31  1  0  0  0  0
 27 28  1  0  0  0  0
 29 30  2  0  0  0  0
 31 32  1  0  0  0  0
 33 32  1  6  0  0  0
 34 36  1  0  0  0  0
 34 42  1  0  0  0  0
 36 37  1  1  0  0  0
 36 39  1  0  0  0  0
 40 39  1  6  0  0  0
 40 41  1  0  0  0  0
 40 46  1  0  0  0  0
 41 42  1  6  0  0  0
 41 44  1  0  0  0  0
 42 43  2  0  0  0  0
 44 45  1  0  0  0  0
 46 45  1  1  0  0  0
M  CHG  2   3  -1  35  -1
M  END
>  <CHROM.1>
-107.56684988,142.36600274,-17.48577502,-10.19346245,17.12180049,2.83867672
1.02596480,-2.42852852

>  <Name>
ligand

>  <RI>
-1

>  <Rbt.Current_Directory>
/home/itssahil/PROJECTS/Mol_Feturizer/Test_systems_manuscript/rnas/3mum

>  <Rbt.Executable>
rbdock ($Id: //depot/dev/client3/rdock/2013.1/src/exe/rbdock.cxx#4 $)

>  <Rbt.Library>
libRbt.so (2013.1, Build901 2013/11/27)

>  <Rbt.Parameter_File>
/export/apps/rDock/src/rDock_2013.1_src/data/scripts/dock_solv.prm

>  <Rbt.Receptor>
prm/blind_docking_80.prm

>  <SCORE>
-2.37538

>  <SCORE.INTER>
-3.84831

>  <SCORE.INTER.CONST>
1

>  <SCORE.INTER.POLAR>
0

>  <SCORE.INTER.ROT>
2

>  <SCORE.INTER.SOLV>
36.3321

>  <SCORE.INTER.VDW>
-19.6096

>  <SCORE.INTER.norm>
-0.083659

>  <SCORE.INTRA>
0.0356154

>  <SCORE.INTRA.DIHEDRAL>
-0.0315675

>  <SCORE.INTRA.DIHEDRAL.0>
2.40424

>  <SCORE.INTRA.POLAR>
0

>  <SCORE.INTRA.POLAR.0>
0

>  <SCORE.INTRA.REPUL>
0

>  <SCORE.INTRA.REPUL.0>
0

>  <SCORE.INTRA.SOLV>
-0.0233845

>  <SCORE.INTRA.SOLV.lig_0>
-134.169

>  <SCORE.INTRA.VDW>
0.0630914

>  <SCORE.INTRA.VDW.0>
-2.18386

>  <SCORE.INTRA.norm>
0.000774249

>  <SCORE.RESTR>
1.43731

>  <SCORE.RESTR.CAVITY>
1.43731

>  <SCORE.RESTR.norm>
0.031246

>  <SCORE.SYSTEM>
0

>  <SCORE.SYSTEM.CONST>
0

>  <SCORE.SYSTEM.DIHEDRAL>
0

>  <SCORE.SYSTEM.SOLV>
0

>  <SCORE.SYSTEM.norm>
0

>  <SCORE.heavy>
46

>  <SCORE.norm>
-0.0516388

>  <RMSD>
15.864

$$$$
ligand
 OpenBabel02271912143D
libRbt.so/2013.1/901 2013/11/27
 46 52  0  0  0  0  0  0  0  0999 V2000
  -15.7924   -7.1048   16.3743 P   0  0  1  0  0  0  0  0  0  0  0  0
  -19.9251   -9.8095   19.5807 P   0  0  2  0  0  0  0  0  0  0  0  0
  -14.8225   -8.2976   15.4920 O   0  5  0  0  0  0  0  0  0  0  0  0
  -15.3147   -5.4364   15.9650 O   0  0  0  0  0  0  0  0  0  0  0  0
  -18.3783   -6.5996   16.6588 C   0  0  0  0  0  0  0  0  0  0  0  0
  -17.3454   -7.3451   16.0141 O   0  0  0  0  0  0  0  0  0  0  0  0
  -19.6875   -7.3486   16.4982 C   0  0  1  0  0  0  0  0  0  0  0  0
  -19.9077   -7.6333   15.1096 O   0  0  0  0  0  0  0  0  0  0  0  0
  -19.6967   -8.6983   17.1973 C   0  0  1  0  0  0  0  0  0  0  0  0
  -20.1841   -8.6076   18.5342 O   0  0  0  0  0  0  0  0  0  0  0  0
  -20.6060   -9.5368   16.3164 C   0  0  1  0  0  0  0  0  0  0  0  0
  -21.9645   -9.3968   16.7400 O   0  0  0  0  0  0  0  0  0  0  0  0
  -20.4681   -8.9430   14.9268 C   0  0  2  0  0  0  0  0  0  0  0  0
  -14.7952  -10.2969   19.7347 C   0  0  1  0  0  0  0  0  0  0  0  0
  -19.4940  -11.2417   10.2407 N   0  0  0  0  0  0  0  0  0  0  0  0
  -20.5708  -10.5041   10.6265 C   0  0  1  0  0  0  0  0  0  0  0  0
  -14.7775   -9.5247   18.4461 C   0  0  2  0  0  0  0  0  0  0  0  0
  -21.5611  -10.2992    9.7276 N   0  0  0  0  0  0  0  0  0  0  0  0
  -13.5521   -8.7905   18.4315 O   0  0  0  0  0  0  0  0  0  0  0  0
  -15.9865   -8.6137   18.5254 C   0  0  2  0  0  0  0  0  0  0  0  0
  -20.6907   -9.9692   11.8780 N   0  0  0  0  0  0  0  0  0  0  0  0
  -15.7193   -7.3354   17.9650 O   0  0  0  0  0  0  0  0  0  0  0  0
  -19.7245  -10.1442   12.8147 C   0  0  2  0  0  0  0  0  0  0  0  0
  -16.2771   -8.4810   20.0074 C   0  0  2  0  0  0  0  0  0  0  0  0
  -15.6759   -9.6164   20.6277 O   0  0  0  0  0  0  0  0  0  0  0  0
  -18.5383  -10.9379   12.4495 C   0  0  1  0  0  0  0  0  0  0  0  0
  -17.7694   -8.4621   20.3187 C   0  0  0  0  0  0  0  0  0  0  0  0
  -18.3503   -9.6978   19.8971 O   0  0  0  0  0  0  0  0  0  0  0  0
  -18.4660  -11.4885   11.0843 C   0  0  0  0  0  0  0  0  0  0  0  0
  -17.3977  -12.2282   10.6923 O   0  0  0  0  0  0  0  0  0  0  0  0
  -17.7461  -10.9712   13.5267 N   0  0  0  0  0  0  0  0  0  0  0  0
  -18.3683  -10.2586   14.5109 C   0  0  0  0  0  0  0  0  0  0  0  0
  -19.5514   -9.7630   14.0910 N   0  0  1  0  0  0  0  0  0  0  0  0
  -14.1117  -15.3235   21.0134 N   0  0  0  0  0  0  0  0  0  0  0  0
  -20.3080  -11.3956   18.8605 O   0  5  0  0  0  0  0  0  0  0  0  0
  -13.4618  -14.2145   21.4614 C   0  0  2  0  0  0  0  0  0  0  0  0
  -12.4766  -14.3514   22.3869 N   0  0  0  0  0  0  0  0  0  0  0  0
  -20.8162   -9.6209   21.1033 O   0  0  0  0  0  0  0  0  0  0  0  0
  -13.7685  -12.9673   21.0111 N   0  0  0  0  0  0  0  0  0  0  0  0
  -14.7443  -12.7664   20.0949 C   0  0  2  0  0  0  0  0  0  0  0  0
  -15.4796  -13.9253   19.5714 C   0  0  2  0  0  0  0  0  0  0  0  0
  -15.0976  -15.2547   20.0939 C   0  0  0  0  0  0  0  0  0  0  0  0
  -15.7182  -16.3825   19.6679 O   0  0  0  0  0  0  0  0  0  0  0  0
  -16.3708  -13.4461   18.6811 N   0  0  0  0  0  0  0  0  0  0  0  0
  -16.2201  -12.0886   18.6420 C   0  0  0  0  0  0  0  0  0  0  0  0
  -15.2439  -11.6882   19.4880 N   0  0  1  0  0  0  0  0  0  0  0  0
  1  3  1  6  0  0  0
  1  4  2  0  0  0  0
  1  6  1  0  0  0  0
  1 22  1  0  0  0  0
  2 28  1  0  0  0  0
  2 35  1  6  0  0  0
  2 38  2  0  0  0  0
  2 10  1  0  0  0  0
  5  6  1  0  0  0  0
  7  5  1  6  0  0  0
  7  8  1  0  0  0  0
  7  9  1  0  0  0  0
  9 10  1  1  0  0  0
  9 11  1  0  0  0  0
 11 12  1  1  0  0  0
 11 13  1  0  0  0  0
 13  8  1  1  0  0  0
 13 33  1  0  0  0  0
 14 46  1  0  0  0  0
 14 17  1  0  0  0  0
 14 25  1  1  0  0  0
 15 16  1  0  0  0  0
 15 29  1  0  0  0  0
 16 18  1  1  0  0  0
 16 21  1  0  0  0  0
 17 19  1  1  0  0  0
 17 20  1  0  0  0  0
 20 22  1  1  0  0  0
 20 24  1  0  0  0  0
 23 21  1  1  0  0  0
 23 26  1  0  0  0  0
 23 33  1  0  0  0  0
 24 25  1  1  0  0  0
 24 27  1  0  0  0  0
 26 29  1  6  0  0  0
 26 31  1  0  0  0  0
 27 28  1  0  0  0  0
 29 30  2  0  0  0  0
 31 32  1  0  0  0  0
 33 32  1  6  0  0  0
 34 36  1  0  0  0  0
 34 42  1  0  0  0  0
 36 37  1  1  0  0  0
 36 39  1  0  0  0  0
 40 39  1  6  0  0  0
 40 41  1  0  0  0  0
 40 46  1  0  0  0  0
 41 42  1  6  0  0  0
 41 44  1  0  0  0  0
 42 43  2  0  0  0  0
 44 45  1  0  0  0  0
 46 45  1  1  0  0  0
M  CHG  2   3  -1  35  -1
M  END
>  <CHROM.1>
-107.62554054,141.66277202,-17.49057893,-10.19453119,17.10935406,2.83318033
1.02324660,-2.42165416

>  <Name>
ligand

>  <RI>
-1

>  <Rbt.Current_Directory>
/home/itssahil/PROJECTS/Mol_Feturizer/Test_systems_manuscript/rnas/3mum

>  <Rbt.Executable>
rbdock ($Id: //depot/dev/client3/rdock/2013.1/src/exe/rbdock.cxx#4 $)

>  <Rbt.Library>
libRbt.so (2013.1, Build901 2013/11/27)

>  <Rbt.Parameter_File>
/export/apps/rDock/src/rDock_2013.1_src/data/scripts/dock_solv.prm

>  <Rbt.Receptor>
prm/blind_docking_80.prm

>  <SCORE>
-2.33399

>  <SCORE.INTER>
-3.79674

>  <SCORE.INTER.CONST>
1

>  <SCORE.INTER.POLAR>
0

>  <SCORE.INTER.ROT>
2

>  <SCORE.INTER.SOLV>
36.4936

>  <SCORE.INTER.VDW>
-19.629

>  <SCORE.INTER.norm>
-0.0825379

>  <SCORE.INTRA>
0.0233253

>  <SCORE.INTRA.DIHEDRAL>
-0.0311252

>  <SCORE.INTRA.DIHEDRAL.0>
2.40424

>  <SCORE.INTRA.POLAR>
0

>  <SCORE.INTRA.POLAR.0>
0

>  <SCORE.INTRA.REPUL>
0

>  <SCORE.INTRA.REPUL.0>
0

>  <SCORE.INTRA.SOLV>
-0.0241707

>  <SCORE.INTRA.SOLV.lig_0>
-134.169

>  <SCORE.INTRA.VDW>
0.0509732

>  <SCORE.INTRA.VDW.0>
-2.18386

>  <SCORE.INTRA.norm>
0.000507072

>  <SCORE.RESTR>
1.43943

>  <SCORE.RESTR.CAVITY>
1.43943

>  <SCORE.RESTR.norm>
0.0312919

>  <SCORE.SYSTEM>
0

>  <SCORE.SYSTEM.CONST>
0

>  <SCORE.SYSTEM.DIHEDRAL>
0

>  <SCORE.SYSTEM.SOLV>
0

>  <SCORE.SYSTEM.norm>
0

>  <SCORE.heavy>
46

>  <SCORE.norm>
-0.0507389

>  <RMSD>
15.867

$$$$
ligand
 OpenBabel02271912143D
libRbt.so/2013.1/901 2013/11/27
 46 52  0  0  0  0  0  0  0  0999 V2000
  -17.7355  -12.7281   15.2717 P   0  0  1  0  0  0  0  0  0  0  0  0
  -21.2261   -8.2335   16.7850 P   0  0  2  0  0  0  0  0  0  0  0  0
  -16.0627  -12.1711   15.0896 O   0  5  0  0  0  0  0  0  0  0  0  0
  -17.8691  -14.4922   15.0494 O   0  0  0  0  0  0  0  0  0  0  0  0
  -19.6068  -12.5331   17.1381 C   0  0  0  0  0  0  0  0  0  0  0  0
  -18.2542  -12.3095   16.7397 O   0  0  0  0  0  0  0  0  0  0  0  0
  -19.9186  -11.6326   18.3182 C   0  0  1  0  0  0  0  0  0  0  0  0
  -18.9338  -11.8295   19.3425 O   0  0  0  0  0  0  0  0  0  0  0  0
  -19.8603  -10.1527   17.9759 C   0  0  1  0  0  0  0  0  0  0  0  0
  -21.1263   -9.6478   17.5574 O   0  0  0  0  0  0  0  0  0  0  0  0
  -19.3955   -9.5166   19.2741 C   0  0  1  0  0  0  0  0  0  0  0  0
  -20.5218   -9.2012   20.0965 O   0  0  0  0  0  0  0  0  0  0  0  0
  -18.5739  -10.5875   19.9675 C   0  0  2  0  0  0  0  0  0  0  0  0
  -18.2406   -8.8278   12.6243 C   0  0  1  0  0  0  0  0  0  0  0  0
  -13.8915   -9.3910   22.1666 N   0  0  0  0  0  0  0  0  0  0  0  0
  -15.1071   -9.5329   22.7620 C   0  0  1  0  0  0  0  0  0  0  0  0
  -17.6332   -9.9985   13.3437 C   0  0  2  0  0  0  0  0  0  0  0  0
  -15.1887   -9.3529   24.1005 N   0  0  0  0  0  0  0  0  0  0  0  0
  -17.2376  -10.9312   12.3364 O   0  0  0  0  0  0  0  0  0  0  0  0
  -18.7508  -10.5393   14.2135 C   0  0  2  0  0  0  0  0  0  0  0  0
  -16.2401   -9.8446   22.0650 N   0  0  0  0  0  0  0  0  0  0  0  0
  -18.7328  -11.9591   14.2702 O   0  0  0  0  0  0  0  0  0  0  0  0
  -16.2108  -10.0371   20.7220 C   0  0  2  0  0  0  0  0  0  0  0  0
  -20.0269  -10.0619   13.5486 C   0  0  2  0  0  0  0  0  0  0  0  0
  -19.6575   -8.9350   12.7554 O   0  0  0  0  0  0  0  0  0  0  0  0
  -14.9196   -9.8923   20.0274 C   0  0  1  0  0  0  0  0  0  0  0  0
  -21.0982   -9.6486   14.5515 C   0  0  0  0  0  0  0  0  0  0  0  0
  -20.6104   -8.5558   15.3325 O   0  0  0  0  0  0  0  0  0  0  0  0
  -13.7327   -9.5553   20.8335 C   0  0  0  0  0  0  0  0  0  0  0  0
  -12.5174   -9.4083   20.2474 O   0  0  0  0  0  0  0  0  0  0  0  0
  -15.1486  -10.1207   18.7296 N   0  0  0  0  0  0  0  0  0  0  0  0
  -16.4799  -10.3902   18.5931 C   0  0  0  0  0  0  0  0  0  0  0  0
  -17.1195  -10.3406   19.7806 N   0  0  1  0  0  0  0  0  0  0  0  0
  -18.7689   -3.6233   12.6784 N   0  0  0  0  0  0  0  0  0  0  0  0
  -20.2678   -6.9728   17.6054 O   0  5  0  0  0  0  0  0  0  0  0  0
  -19.4429   -4.5599   11.9563 C   0  0  2  0  0  0  0  0  0  0  0  0
  -20.4209   -4.1613   11.1016 N   0  0  0  0  0  0  0  0  0  0  0  0
  -22.8930   -7.6643   16.5719 O   0  0  0  0  0  0  0  0  0  0  0  0
  -19.1686   -5.8886   12.0636 N   0  0  0  0  0  0  0  0  0  0  0  0
  -18.2106   -6.3474   12.9027 C   0  0  2  0  0  0  0  0  0  0  0  0
  -17.4467   -5.3841   13.7065 C   0  0  2  0  0  0  0  0  0  0  0  0
  -17.7860   -3.9544   13.5424 C   0  0  0  0  0  0  0  0  0  0  0  0
  -17.1332   -2.9923   14.2402 O   0  0  0  0  0  0  0  0  0  0  0  0
  -16.5658   -6.1008   14.4322 N   0  0  0  0  0  0  0  0  0  0  0  0
  -16.7547   -7.4177   14.1204 C   0  0  0  0  0  0  0  0  0  0  0  0
  -17.7382   -7.5586   13.2029 N   0  0  1  0  0  0  0  0  0  0  0  0
  1  3  1  6  0  0  0
  1  4  2  0  0  0  0
  1  6  1  0  0  0  0
  1 22  1  0  0  0  0
  2 28  1  0  0  0  0
  2 35  1  1  0  0  0
  2 38  2  0  0  0  0
  2 10  1  0  0  0  0
  5  6  1  0  0  0  0
  7  5  1  6  0  0  0
  7  8  1  0  0  0  0
  7  9  1  0  0  0  0
  9 10  1  1  0  0  0
  9 11  1  0  0  0  0
 11 12  1  1  0  0  0
 11 13  1  0  0  0  0
 13  8  1  6  0  0  0
 13 33  1  0  0  0  0
 14 46  1  0  0  0  0
 14 17  1  0  0  0  0
 14 25  1  1  0  0  0
 15 16  1  0  0  0  0
 15 29  1  0  0  0  0
 16 18  1  6  0  0  0
 16 21  1  0  0  0  0
 17 19  1  6  0  0  0
 17 20  1  0  0  0  0
 20 22  1  6  0  0  0
 20 24  1  0  0  0  0
 23 21  1  6  0  0  0
 23 26  1  0  0  0  0
 23 33  1  0  0  0  0
 24 25  1  6  0  0  0
 24 27  1  0  0  0  0
 26 29  1  1  0  0  0
 26 31  1  0  0  0  0
 27 28  1  0  0  0  0
 29 30  2  0  0  0  0
 31 32  1  0  0  0  0
 33 32  1  1  0  0  0
 34 36  1  0  0  0  0
 34 42  1  0  0  0  0
 36 37  1  1  0  0  0
 36 39  1  0  0  0  0
 40 39  1  6  0  0  0
 40 41  1  0  0  0  0
 40 46  1  0  0  0  0
 41 42  1  6  0  0  0
 41 44  1  0  0  0  0
 42 43  2  0  0  0  0
 44 45  1  0  0  0  0
 46 45  1  1  0  0  0
M  CHG  2   3  -1  35  -1
M  END
>  <CHROM.1>
-128.63692771,-171.08935119,-18.17771796,-9.15152329,16.47218145,0.85796251
1.04313227,2.68594871

>  <Name>
ligand

>  <RI>
-1

>  <Rbt.Current_Directory>
/home/itssahil/PROJECTS/Mol_Feturizer/Test_systems_manuscript/rnas/3mum

>  <Rbt.Executable>
rbdock ($Id: //depot/dev/client3/rdock/2013.1/src/exe/rbdock.cxx#4 $)

>  <Rbt.Library>
libRbt.so (2013.1, Build901 2013/11/27)

>  <Rbt.Parameter_File>
/export/apps/rDock/src/rDock_2013.1_src/data/scripts/dock_solv.prm

>  <Rbt.Receptor>
prm/blind_docking_40.prm

>  <SCORE>
34.6711

>  <SCORE.INTER>
33.6139

>  <SCORE.INTER.CONST>
1

>  <SCORE.INTER.POLAR>
0

>  <SCORE.INTER.ROT>
2

>  <SCORE.INTER.SOLV>
41.587

>  <SCORE.INTER.VDW>
3.6136

>  <SCORE.INTER.norm>
0.730738

>  <SCORE.INTRA>
0.372156

>  <SCORE.INTRA.DIHEDRAL>
0.00918162

>  <SCORE.INTRA.DIHEDRAL.0>
2.40424

>  <SCORE.INTRA.POLAR>
0

>  <SCORE.INTRA.POLAR.0>
0

>  <SCORE.INTRA.REPUL>
0

>  <SCORE.INTRA.REPUL.0>
0

>  <SCORE.INTRA.SOLV>
0.0700552

>  <SCORE.INTRA.SOLV.lig_0>
-134.169

>  <SCORE.INTRA.VDW>
0.332538

>  <SCORE.INTRA.VDW.0>
-2.18386

>  <SCORE.INTRA.norm>
0.00809035

>  <SCORE.RESTR>
0.685007

>  <SCORE.RESTR.CAVITY>
0.685007

>  <SCORE.RESTR.norm>
0.0148915

>  <SCORE.SYSTEM>
0

>  <SCORE.SYSTEM.CONST>
0

>  <SCORE.SYSTEM.DIHEDRAL>
0

>  <SCORE.SYSTEM.SOLV>
0

>  <SCORE.SYSTEM.norm>
0

>  <SCORE.heavy>
46

>  <SCORE.norm>
0.753719

>  <RMSD>
15.870

$$$$
ligand
 OpenBabel02271912143D
libRbt.so/2013.1/901 2013/11/27
 46 52  0  0  0  0  0  0  0  0999 V2000
  -19.7913   -9.8804   20.2882 P   0  0  1  0  0  0  0  0  0  0  0  0
  -15.5796   -7.8973   16.6820 P   0  0  2  0  0  0  0  0  0  0  0  0
  -20.2836  -11.5161   19.8151 O   0  5  0  0  0  0  0  0  0  0  0  0
  -20.6274   -9.3445   21.7691 O   0  0  0  0  0  0  0  0  0  0  0  0
  -17.4926   -8.6660   20.8029 C   0  0  0  0  0  0  0  0  0  0  0  0
  -18.1951   -9.8752   20.5154 O   0  0  0  0  0  0  0  0  0  0  0  0
  -16.0239   -8.8726   20.4853 C   0  0  1  0  0  0  0  0  0  0  0  0
  -15.5470  -10.0401   21.1691 O   0  0  0  0  0  0  0  0  0  0  0  0
  -15.7588   -9.1275   19.0104 C   0  0  1  0  0  0  0  0  0  0  0  0
  -15.5019   -7.9215   18.2945 O   0  0  0  0  0  0  0  0  0  0  0  0
  -14.5490  -10.0451   19.0311 C   0  0  1  0  0  0  0  0  0  0  0  0
  -13.3466   -9.2713   19.0324 O   0  0  0  0  0  0  0  0  0  0  0  0
  -14.6438  -10.7954   20.3466 C   0  0  2  0  0  0  0  0  0  0  0  0
  -20.3735   -9.4562   15.6023 C   0  0  1  0  0  0  0  0  0  0  0  0
  -17.0318  -14.2369   17.0838 N   0  0  0  0  0  0  0  0  0  0  0  0
  -16.6764  -12.9433   16.8545 C   0  0  1  0  0  0  0  0  0  0  0  0
  -20.4142   -9.9921   17.0053 C   0  0  2  0  0  0  0  0  0  0  0  0
  -16.9487  -12.4107   15.6409 N   0  0  0  0  0  0  0  0  0  0  0  0
  -21.7748   -9.9052   17.4320 O   0  0  0  0  0  0  0  0  0  0  0  0
  -19.5086   -9.0699   17.7973 C   0  0  2  0  0  0  0  0  0  0  0  0
  -16.0628  -12.1668   17.7964 N   0  0  0  0  0  0  0  0  0  0  0  0
  -20.0208   -8.8209   19.0992 O   0  0  0  0  0  0  0  0  0  0  0  0
  -15.7664  -12.6546   19.0276 C   0  0  2  0  0  0  0  0  0  0  0  0
  -19.4708   -7.7818   16.9986 C   0  0  2  0  0  0  0  0  0  0  0  0
  -19.8338   -8.1367   15.6654 O   0  0  0  0  0  0  0  0  0  0  0  0
  -16.1329  -14.0493   19.3291 C   0  0  1  0  0  0  0  0  0  0  0  0
  -18.0933   -7.1284   16.9938 C   0  0  0  0  0  0  0  0  0  0  0  0
  -17.1569   -8.0172   16.3811 O   0  0  0  0  0  0  0  0  0  0  0  0
  -16.7924  -14.8368   18.2722 C   0  0  0  0  0  0  0  0  0  0  0  0
  -17.1535  -16.1263   18.4936 O   0  0  0  0  0  0  0  0  0  0  0  0
  -15.7483  -14.2890   20.5875 N   0  0  0  0  0  0  0  0  0  0  0  0
  -15.1801  -13.1428   21.0641 C   0  0  0  0  0  0  0  0  0  0  0  0
  -15.1893  -12.1627   20.1363 N   0  0  1  0  0  0  0  0  0  0  0  0
  -17.6096   -9.7797   11.1724 N   0  0  0  0  0  0  0  0  0  0  0  0
  -14.6993   -9.2730   15.9655 O   0  5  0  0  0  0  0  0  0  0  0  0
  -18.3108   -8.7327   11.6872 C   0  0  2  0  0  0  0  0  0  0  0  0
  -18.3405   -7.5562   11.0083 N   0  0  0  0  0  0  0  0  0  0  0  0
  -14.9884   -6.3826   15.9718 O   0  0  0  0  0  0  0  0  0  0  0  0
  -18.9856   -8.8260   12.8654 N   0  0  0  0  0  0  0  0  0  0  0  0
  -18.9879   -9.9690   13.5904 C   0  0  2  0  0  0  0  0  0  0  0  0
  -18.2511  -11.1349   13.0848 C   0  0  2  0  0  0  0  0  0  0  0  0
  -17.5426  -10.9745   11.7970 C   0  0  0  0  0  0  0  0  0  0  0  0
  -16.8383  -11.9960   11.2501 O   0  0  0  0  0  0  0  0  0  0  0  0
  -18.4292  -12.1228   13.9841 N   0  0  0  0  0  0  0  0  0  0  0  0
  -19.2136  -11.6265   14.9868 C   0  0  0  0  0  0  0  0  0  0  0  0
  -19.5467  -10.3384   14.7444 N   0  0  1  0  0  0  0  0  0  0  0  0
  1  3  1  6  0  0  0
  1  4  2  0  0  0  0
  1  6  1  0  0  0  0
  1 22  1  0  0  0  0
  2 28  1  0  0  0  0
  2 35  1  6  0  0  0
  2 38  2  0  0  0  0
  2 10  1  0  0  0  0
  5  6  1  0  0  0  0
  7  5  1  6  0  0  0
  7  8  1  0  0  0  0
  7  9  1  0  0  0  0
  9 10  1  6  0  0  0
  9 11  1  0  0  0  0
 11 12  1  1  0  0  0
 11 13  1  0  0  0  0
 13  8  1  1  0  0  0
 13 33  1  0  0  0  0
 14 46  1  0  0  0  0
 14 17  1  0  0  0  0
 14 25  1  1  0  0  0
 15 16  1  0  0  0  0
 15 29  1  0  0  0  0
 16 18  1  1  0  0  0
 16 21  1  0  0  0  0
 17 19  1  1  0  0  0
 17 20  1  0  0  0  0
 20 22  1  1  0  0  0
 20 24  1  0  0  0  0
 23 21  1  1  0  0  0
 23 26  1  0  0  0  0
 23 33  1  0  0  0  0
 24 25  1  6  0  0  0
 24 27  1  0  0  0  0
 26 29  1  6  0  0  0
 26 31  1  0  0  0  0
 27 28  1  0  0  0  0
 29 30  2  0  0  0  0
 31 32  1  0  0  0  0
 33 32  1  6  0  0  0
 34 36  1  0  0  0  0
 34 42  1  0  0  0  0
 36 37  1  1  0  0  0
 36 39  1  0  0  0  0
 40 39  1  6  0  0  0
 40 41  1  0  0  0  0
 40 46  1  0  0  0  0
 41 42  1  6  0  0  0
 41 44  1  0  0  0  0
 42 43  2  0  0  0  0
 44 45  1  0  0  0  0
 46 45  1  1  0  0  0
M  CHG  2   3  -1  35  -1
M  END
>  <CHROM.1>
104.83776912,-159.29013548,-17.50525681,-10.28080017,17.22275195,1.03479567
-1.15046172,1.32501661

>  <Name>
ligand

>  <RI>
0

>  <Rbt.Current_Directory>
/home/itssahil/PROJECTS/Mol_Feturizer/Test_systems_manuscript/rnas/3mum

>  <Rbt.Executable>
rbdock ($Id: //depot/dev/client3/rdock/2013.1/src/exe/rbdock.cxx#4 $)

>  <Rbt.Library>
libRbt.so (2013.1, Build901 2013/11/27)

>  <Rbt.Parameter_File>
/export/apps/rDock/src/rDock_2013.1_src/data/scripts/dock_solv.prm

>  <Rbt.Receptor>
prm/blind_docking_60.prm

>  <SCORE>
20.2853

>  <SCORE.INTER>
12.639

>  <SCORE.INTER.CONST>
1

>  <SCORE.INTER.POLAR>
0

>  <SCORE.INTER.ROT>
2

>  <SCORE.INTER.SOLV>
41.7753

>  <SCORE.INTER.VDW>
-10.4325

>  <SCORE.INTER.norm>
0.27476

>  <SCORE.INTRA>
6.82267

>  <SCORE.INTRA.DIHEDRAL>
0.0224158

>  <SCORE.INTRA.DIHEDRAL.0>
2.40424

>  <SCORE.INTRA.POLAR>
0

>  <SCORE.INTRA.POLAR.0>
0

>  <SCORE.INTRA.REPUL>
0

>  <SCORE.INTRA.REPUL.0>
0

>  <SCORE.INTRA.SOLV>
5.42444

>  <SCORE.INTRA.SOLV.lig_0>
-134.169

>  <SCORE.INTRA.VDW>
4.09924

>  <SCORE.INTRA.VDW.0>
-2.18386

>  <SCORE.INTRA.norm>
0.148319

>  <SCORE.RESTR>
0.823704

>  <SCORE.RESTR.CAVITY>
0.823704

>  <SCORE.RESTR.norm>
0.0179066

>  <SCORE.SYSTEM>
0

>  <SCORE.SYSTEM.CONST>
0

>  <SCORE.SYSTEM.DIHEDRAL>
0

>  <SCORE.SYSTEM.SOLV>
0

>  <SCORE.SYSTEM.norm>
0

>  <SCORE.heavy>
46

>  <SCORE.norm>
0.440986

>  <RMSD>
15.870

$$$$
ligand
 OpenBabel02271912143D
libRbt.so/2013.1/901 2013/11/27
 46 52  0  0  0  0  0  0  0  0999 V2000
  -19.7972   -9.8917   20.2991 P   0  0  1  0  0  0  0  0  0  0  0  0
  -15.5865   -7.8928   16.7004 P   0  0  2  0  0  0  0  0  0  0  0  0
  -20.2860  -11.5273   19.8221 O   0  5  0  0  0  0  0  0  0  0  0  0
  -20.6355   -9.3605   21.7805 O   0  0  0  0  0  0  0  0  0  0  0  0
  -17.5013   -8.6740   20.8182 C   0  0  0  0  0  0  0  0  0  0  0  0
  -18.2012   -9.8840   20.5275 O   0  0  0  0  0  0  0  0  0  0  0  0
  -16.0319   -8.8772   20.5012 C   0  0  1  0  0  0  0  0  0  0  0  0
  -15.5533  -10.0452   21.1829 O   0  0  0  0  0  0  0  0  0  0  0  0
  -15.7652   -9.1284   19.0260 C   0  0  1  0  0  0  0  0  0  0  0  0
  -15.5100   -7.9204   18.3129 O   0  0  0  0  0  0  0  0  0  0  0  0
  -14.5536  -10.0437   19.0456 C   0  0  1  0  0  0  0  0  0  0  0  0
  -13.3527   -9.2677   19.0496 O   0  0  0  0  0  0  0  0  0  0  0  0
  -14.6481  -10.7970   20.3595 C   0  0  2  0  0  0  0  0  0  0  0  0
  -20.3767   -9.4585   15.6137 C   0  0  1  0  0  0  0  0  0  0  0  0
  -17.0222  -14.2377   17.0857 N   0  0  0  0  0  0  0  0  0  0  0  0
  -16.6683  -12.9432   16.8591 C   0  0  1  0  0  0  0  0  0  0  0  0
  -20.4174   -9.9975   17.0155 C   0  0  2  0  0  0  0  0  0  0  0  0
  -16.9384  -12.4092   15.6456 N   0  0  0  0  0  0  0  0  0  0  0  0
  -21.7785   -9.9141   17.4414 O   0  0  0  0  0  0  0  0  0  0  0  0
  -19.5142   -9.0753   17.8101 C   0  0  2  0  0  0  0  0  0  0  0  0
  -16.0583  -12.1671   17.8037 N   0  0  0  0  0  0  0  0  0  0  0  0
  -20.0278   -8.8301   19.1123 O   0  0  0  0  0  0  0  0  0  0  0  0
  -15.7643  -12.6561   19.0349 C   0  0  2  0  0  0  0  0  0  0  0  0
  -19.4782   -7.7854   17.0143 C   0  0  2  0  0  0  0  0  0  0  0  0
  -19.8396   -8.1381   15.6800 O   0  0  0  0  0  0  0  0  0  0  0  0
  -16.1292  -14.0519   19.3335 C   0  0  1  0  0  0  0  0  0  0  0  0
  -18.1020   -7.1294   17.0119 C   0  0  0  0  0  0  0  0  0  0  0  0
  -17.1634   -8.0150   16.3981 O   0  0  0  0  0  0  0  0  0  0  0  0
  -16.7848  -14.8389   18.2738 C   0  0  0  0  0  0  0  0  0  0  0  0
  -17.1444  -16.1293   18.4924 O   0  0  0  0  0  0  0  0  0  0  0  0
  -15.7474  -14.2927   20.5926 N   0  0  0  0  0  0  0  0  0  0  0  0
  -15.1824  -13.1463   21.0722 C   0  0  0  0  0  0  0  0  0  0  0  0
  -15.1908  -12.1649   20.1458 N   0  0  1  0  0  0  0  0  0  0  0  0
  -17.6153   -9.7696   11.1813 N   0  0  0  0  0  0  0  0  0  0  0  0
  -14.7031   -9.2653   15.9816 O   0  5  0  0  0  0  0  0  0  0  0  0
  -18.3197   -8.7254   11.6974 C   0  0  2  0  0  0  0  0  0  0  0  0
  -18.3540   -7.5485   11.0192 N   0  0  0  0  0  0  0  0  0  0  0  0
  -14.9977   -6.3755   15.9939 O   0  0  0  0  0  0  0  0  0  0  0  0
  -18.9933   -8.8217   12.8761 N   0  0  0  0  0  0  0  0  0  0  0  0
  -18.9910   -9.9652   13.6003 C   0  0  2  0  0  0  0  0  0  0  0  0
  -18.2506  -11.1282   13.0934 C   0  0  2  0  0  0  0  0  0  0  0  0
  -17.5438  -10.9646   11.8051 C   0  0  0  0  0  0  0  0  0  0  0  0
  -16.8364  -11.9832   11.2569 O   0  0  0  0  0  0  0  0  0  0  0  0
  -18.4245  -12.1173   13.9922 N   0  0  0  0  0  0  0  0  0  0  0  0
  -19.2098  -11.6244   14.9958 C   0  0  0  0  0  0  0  0  0  0  0  0
  -19.5476  -10.3373   14.7545 N   0  0  1  0  0  0  0  0  0  0  0  0
  1  3  1  6  0  0  0
  1  4  2  0  0  0  0
  1  6  1  0  0  0  0
  1 22  1  0  0  0  0
  2 28  1  0  0  0  0
  2 35  1  6  0  0  0
  2 38  2  0  0  0  0
  2 10  1  0  0  0  0
  5  6  1  0  0  0  0
  7  5  1  6  0  0  0
  7  8  1  0  0  0  0
  7  9  1  0  0  0  0
  9 10  1  6  0  0  0
  9 11  1  0  0  0  0
 11 12  1  1  0  0  0
 11 13  1  0  0  0  0
 13  8  1  1  0  0  0
 13 33  1  0  0  0  0
 14 46  1  0  0  0  0
 14 17  1  0  0  0  0
 14 25  1  1  0  0  0
 15 16  1  0  0  0  0
 15 29  1  0  0  0  0
 16 18  1  1  0  0  0
 16 21  1  0  0  0  0
 17 19  1  1  0  0  0
 17 20  1  0  0  0  0
 20 22  1  1  0  0  0
 20 24  1  0  0  0  0
 23 21  1  1  0  0  0
 23 26  1  0  0  0  0
 23 33  1  0  0  0  0
 24 25  1  6  0  0  0
 24 27  1  0  0  0  0
 26 29  1  6  0  0  0
 26 31  1  0  0  0  0
 27 28  1  0  0  0  0
 29 30  2  0  0  0  0
 31 32  1  0  0  0  0
 33 32  1  6  0  0  0
 34 36  1  0  0  0  0
 34 42  1  0  0  0  0
 36 37  1  1  0  0  0
 36 39  1  0  0  0  0
 40 39  1  6  0  0  0
 40 41  1  0  0  0  0
 40 46  1  0  0  0  0
 41 42  1  6  0  0  0
 41 44  1  0  0  0  0
 42 43  2  0  0  0  0
 44 45  1  0  0  0  0
 46 45  1  1  0  0  0
M  CHG  2   3  -1  35  -1
M  END
>  <CHROM.1>
104.94789599,-159.44327762,-17.50829596,-10.28158223,17.23392961,1.03749744
-1.14758809,1.32939483

>  <Name>
ligand

>  <RI>
0

>  <Rbt.Current_Directory>
/home/itssahil/PROJECTS/Mol_Feturizer/Test_systems_manuscript/rnas/3mum

>  <Rbt.Executable>
rbdock ($Id: //depot/dev/client3/rdock/2013.1/src/exe/rbdock.cxx#4 $)

>  <Rbt.Library>
libRbt.so (2013.1, Build901 2013/11/27)

>  <Rbt.Parameter_File>
/export/apps/rDock/src/rDock_2013.1_src/data/scripts/dock_solv.prm

>  <Rbt.Receptor>
prm/blind_docking_60.prm

>  <SCORE>
20.2649

>  <SCORE.INTER>
12.7015

>  <SCORE.INTER.CONST>
1

>  <SCORE.INTER.POLAR>
0

>  <SCORE.INTER.ROT>
2

>  <SCORE.INTER.SOLV>
41.6614

>  <SCORE.INTER.VDW>
-10.3528

>  <SCORE.INTER.norm>
0.27612

>  <SCORE.INTRA>
6.72821

>  <SCORE.INTRA.DIHEDRAL>
0.0222926

>  <SCORE.INTRA.DIHEDRAL.0>
2.40424

>  <SCORE.INTRA.POLAR>
0

>  <SCORE.INTRA.POLAR.0>
0

>  <SCORE.INTRA.REPUL>
0

>  <SCORE.INTRA.REPUL.0>
0

>  <SCORE.INTRA.SOLV>
5.39599

>  <SCORE.INTRA.SOLV.lig_0>
-134.169

>  <SCORE.INTRA.VDW>
4.01906

>  <SCORE.INTRA.VDW.0>
-2.18386

>  <SCORE.INTRA.norm>
0.146265

>  <SCORE.RESTR>
0.835183

>  <SCORE.RESTR.CAVITY>
0.835183

>  <SCORE.RESTR.norm>
0.0181561

>  <SCORE.SYSTEM>
0

>  <SCORE.SYSTEM.CONST>
0

>  <SCORE.SYSTEM.DIHEDRAL>
0

>  <SCORE.SYSTEM.SOLV>
0

>  <SCORE.SYSTEM.norm>
0

>  <SCORE.heavy>
46

>  <SCORE.norm>
0.440542

>  <RMSD>
15.873

$$$$
ligand
 OpenBabel02271912143D
libRbt.so/2013.1/901 2013/11/27
 46 52  0  0  0  0  0  0  0  0999 V2000
  -19.7688   -9.8763   20.2945 P   0  0  1  0  0  0  0  0  0  0  0  0
  -15.5566   -7.9117   16.6788 P   0  0  2  0  0  0  0  0  0  0  0  0
  -20.2686  -11.5103   19.8232 O   0  5  0  0  0  0  0  0  0  0  0  0
  -20.5997   -9.3364   21.7769 O   0  0  0  0  0  0  0  0  0  0  0  0
  -17.4642   -8.6709   20.8040 C   0  0  0  0  0  0  0  0  0  0  0  0
  -18.1722   -9.8774   20.5184 O   0  0  0  0  0  0  0  0  0  0  0  0
  -15.9970   -8.8836   20.4834 C   0  0  1  0  0  0  0  0  0  0  0  0
  -15.5234  -10.0526   21.1668 O   0  0  0  0  0  0  0  0  0  0  0  0
  -15.7360   -9.1402   19.0081 C   0  0  1  0  0  0  0  0  0  0  0  0
  -15.4757   -7.9355   18.2911 O   0  0  0  0  0  0  0  0  0  0  0  0
  -14.5298  -10.0626   19.0267 C   0  0  1  0  0  0  0  0  0  0  0  0
  -13.3243   -9.2936   19.0252 O   0  0  0  0  0  0  0  0  0  0  0  0
  -14.6249  -10.8119   20.3428 C   0  0  2  0  0  0  0  0  0  0  0  0
  -20.3590   -9.4518   15.6097 C   0  0  1  0  0  0  0  0  0  0  0  0
  -17.0433  -14.2418   17.0901 N   0  0  0  0  0  0  0  0  0  0  0  0
  -16.6847  -12.9492   16.8601 C   0  0  1  0  0  0  0  0  0  0  0  0
  -20.3989   -9.9869   17.0129 C   0  0  2  0  0  0  0  0  0  0  0  0
  -16.9621  -12.4144   15.6486 N   0  0  0  0  0  0  0  0  0  0  0  0
  -21.7583   -9.8943   17.4425 O   0  0  0  0  0  0  0  0  0  0  0  0
  -19.4880   -9.0680   17.8027 C   0  0  2  0  0  0  0  0  0  0  0  0
  -16.0631  -12.1758   17.7993 N   0  0  0  0  0  0  0  0  0  0  0  0
  -19.9965   -8.8164   19.1056 O   0  0  0  0  0  0  0  0  0  0  0  0
  -15.7614  -12.6659   19.0283 C   0  0  2  0  0  0  0  0  0  0  0  0
  -19.4467   -7.7804   17.0034 C   0  0  2  0  0  0  0  0  0  0  0  0
  -19.8139   -8.1344   15.6710 O   0  0  0  0  0  0  0  0  0  0  0  0
  -16.1310  -14.0596   19.3304 C   0  0  1  0  0  0  0  0  0  0  0  0
  -18.0666   -7.1326   16.9954 C   0  0  0  0  0  0  0  0  0  0  0  0
  -17.1350   -8.0253   16.3812 O   0  0  0  0  0  0  0  0  0  0  0  0
  -16.7992  -14.8438   18.2765 C   0  0  0  0  0  0  0  0  0  0  0  0
  -17.1635  -16.1322   18.4986 O   0  0  0  0  0  0  0  0  0  0  0  0
  -15.7401  -14.3019   20.5864 N   0  0  0  0  0  0  0  0  0  0  0  0
  -15.1653  -13.1582   21.0609 C   0  0  0  0  0  0  0  0  0  0  0  0
  -15.1763  -12.1771   20.1341 N   0  0  1  0  0  0  0  0  0  0  0  0
  -17.6880   -9.8185   11.1264 N   0  0  0  0  0  0  0  0  0  0  0  0
  -14.6833   -9.2912   15.9611 O   0  5  0  0  0  0  0  0  0  0  0  0
  -18.3941   -8.7725   11.6367 C   0  0  2  0  0  0  0  0  0  0  0  0
  -18.4570   -7.6099   10.9365 N   0  0  0  0  0  0  0  0  0  0  0  0
  -14.9608   -6.3997   15.9667 O   0  0  0  0  0  0  0  0  0  0  0  0
  -19.0414   -8.8533   12.8312 N   0  0  0  0  0  0  0  0  0  0  0  0
  -19.0099   -9.9821   13.5775 C   0  0  2  0  0  0  0  0  0  0  0  0
  -18.2662  -11.1462   13.0779 C   0  0  2  0  0  0  0  0  0  0  0  0
  -17.5888  -10.9999   11.7719 C   0  0  0  0  0  0  0  0  0  0  0  0
  -16.8807  -12.0209   11.2288 O   0  0  0  0  0  0  0  0  0  0  0  0
  -18.4091  -12.1192   13.9994 N   0  0  0  0  0  0  0  0  0  0  0  0
  -19.1791  -11.6157   15.0097 C   0  0  0  0  0  0  0  0  0  0  0  0
  -19.5375  -10.3377   14.7504 N   0  0  1  0  0  0  0  0  0  0  0  0
  1  3  1  6  0  0  0
  1  4  2  0  0  0  0
  1  6  1  0  0  0  0
  1 22  1  0  0  0  0
  2 28  1  0  0  0  0
  2 35  1  6  0  0  0
  2 38  2  0  0  0  0
  2 10  1  0  0  0  0
  5  6  1  0  0  0  0
  7  5  1  6  0  0  0
  7  8  1  0  0  0  0
  7  9  1  0  0  0  0
  9 10  1  6  0  0  0
  9 11  1  0  0  0  0
 11 12  1  1  0  0  0
 11 13  1  0  0  0  0
 13  8  1  1  0  0  0
 13 33  1  0  0  0  0
 14 46  1  0  0  0  0
 14 17  1  0  0  0  0
 14 25  1  1  0  0  0
 15 16  1  0  0  0  0
 15 29  1  0  0  0  0
 16 18  1  1  0  0  0
 16 21  1  0  0  0  0
 17 19  1  1  0  0  0
 17 20  1  0  0  0  0
 20 22  1  1  0  0  0
 20 24  1  0  0  0  0
 23 21  1  1  0  0  0
 23 26  1  0  0  0  0
 23 33  1  0  0  0  0
 24 25  1  6  0  0  0
 24 27  1  0  0  0  0
 26 29  1  6  0  0  0
 26 31  1  0  0  0  0
 27 28  1  0  0  0  0
 29 30  2  0  0  0  0
 31 32  1  0  0  0  0
 33 32  1  6  0  0  0
 34 36  1  0  0  0  0
 34 42  1  0  0  0  0
 36 37  1  1  0  0  0
 36 39  1  0  0  0  0
 40 39  1  6  0  0  0
 40 41  1  0  0  0  0
 40 46  1  0  0  0  0
 41 42  1  6  0  0  0
 41 44  1  0  0  0  0
 42 43  2  0  0  0  0
 44 45  1  0  0  0  0
 46 45  1  1  0  0  0
M  CHG  2   3  -1  35  -1
M  END
>  <CHROM.1>
104.61182279,-161.21208136,-17.50080574,-10.29012083,17.21971060,1.00557776
-1.15367159,1.29123253

>  <Name>
ligand

>  <RI>
0

>  <Rbt.Current_Directory>
/home/itssahil/PROJECTS/Mol_Feturizer/Test_systems_manuscript/rnas/3mum

>  <Rbt.Executable>
rbdock ($Id: //depot/dev/client3/rdock/2013.1/src/exe/rbdock.cxx#4 $)

>  <Rbt.Library>
libRbt.so (2013.1, Build901 2013/11/27)

>  <Rbt.Parameter_File>
/export/apps/rDock/src/rDock_2013.1_src/data/scripts/dock_solv.prm

>  <Rbt.Receptor>
prm/blind_docking_60.prm

>  <SCORE>
20.604

>  <SCORE.INTER>
11.8582

>  <SCORE.INTER.CONST>
1

>  <SCORE.INTER.POLAR>
0

>  <SCORE.INTER.ROT>
2

>  <SCORE.INTER.SOLV>
41.1462

>  <SCORE.INTER.VDW>
-10.7432

>  <SCORE.INTER.norm>
0.257788

>  <SCORE.INTRA>
7.93771

>  <SCORE.INTRA.DIHEDRAL>
0.0209729

>  <SCORE.INTRA.DIHEDRAL.0>
2.40424

>  <SCORE.INTRA.POLAR>
0

>  <SCORE.INTRA.POLAR.0>
0

>  <SCORE.INTRA.REPUL>
0

>  <SCORE.INTRA.REPUL.0>
0

>  <SCORE.INTRA.SOLV>
5.48962

>  <SCORE.INTRA.SOLV.lig_0>
-134.169

>  <SCORE.INTRA.VDW>
5.18242

>  <SCORE.INTRA.VDW.0>
-2.18386

>  <SCORE.INTRA.norm>
0.172559

>  <SCORE.RESTR>
0.808075

>  <SCORE.RESTR.CAVITY>
0.808075

>  <SCORE.RESTR.norm>
0.0175668

>  <SCORE.SYSTEM>
0

>  <SCORE.SYSTEM.CONST>
0

>  <SCORE.SYSTEM.DIHEDRAL>
0

>  <SCORE.SYSTEM.SOLV>
0

>  <SCORE.SYSTEM.norm>
0

>  <SCORE.heavy>
46

>  <SCORE.norm>
0.447914

>  <RMSD>
15.875

$$$$
ligand
 OpenBabel02271912143D
libRbt.so/2013.1/901 2013/11/27
 46 52  0  0  0  0  0  0  0  0999 V2000
  -15.8311   -7.0118   16.3984 P   0  0  1  0  0  0  0  0  0  0  0  0
  -19.9674   -9.8126   19.5166 P   0  0  2  0  0  0  0  0  0  0  0  0
  -14.8431   -8.1792   15.5024 O   0  5  0  0  0  0  0  0  0  0  0  0
  -15.3647   -5.3318   16.0249 O   0  0  0  0  0  0  0  0  0  0  0  0
  -18.4239   -6.5346   16.6696 C   0  0  0  0  0  0  0  0  0  0  0  0
  -17.3788   -7.2588   16.0201 O   0  0  0  0  0  0  0  0  0  0  0  0
  -19.7249   -7.2918   16.4833 C   0  0  1  0  0  0  0  0  0  0  0  0
  -19.9306   -7.5520   15.0877 O   0  0  0  0  0  0  0  0  0  0  0  0
  -19.7282   -8.6545   17.1567 C   0  0  1  0  0  0  0  0  0  0  0  0
  -20.2280   -8.5933   18.4907 O   0  0  0  0  0  0  0  0  0  0  0  0
  -20.6224   -9.4840   16.2521 C   0  0  1  0  0  0  0  0  0  0  0  0
  -21.9856   -9.3639   16.6663 O   0  0  0  0  0  0  0  0  0  0  0  0
  -20.4777   -8.8629   14.8753 C   0  0  2  0  0  0  0  0  0  0  0  0
  -14.8349  -10.2582   19.7068 C   0  0  1  0  0  0  0  0  0  0  0  0
  -19.6677  -11.5558   10.3714 N   0  0  0  0  0  0  0  0  0  0  0  0
  -20.7894  -10.9122   10.7957 C   0  0  1  0  0  0  0  0  0  0  0  0
  -14.8129   -9.4616   18.4332 C   0  0  2  0  0  0  0  0  0  0  0  0
  -21.8799  -10.9324    9.9951 N   0  0  0  0  0  0  0  0  0  0  0  0
  -13.5939   -8.7166   18.4433 O   0  0  0  0  0  0  0  0  0  0  0  0
  -16.0306   -8.5628   18.5189 C   0  0  2  0  0  0  0  0  0  0  0  0
  -20.8570  -10.2542   11.9912 N   0  0  0  0  0  0  0  0  0  0  0  0
  -15.7698   -7.2719   17.9851 O   0  0  0  0  0  0  0  0  0  0  0  0
  -19.7905  -10.2031   12.8288 C   0  0  2  0  0  0  0  0  0  0  0  0
  -16.3351   -8.4607   20.0005 C   0  0  2  0  0  0  0  0  0  0  0  0
  -15.7293   -9.6024   20.6046 O   0  0  0  0  0  0  0  0  0  0  0  0
  -18.5516  -10.8866   12.4186 C   0  0  1  0  0  0  0  0  0  0  0  0
  -17.8303   -8.4607   20.2990 C   0  0  0  0  0  0  0  0  0  0  0  0
  -18.3965   -9.6932   19.8490 O   0  0  0  0  0  0  0  0  0  0  0  0
  -18.5398  -11.5790   11.1176 C   0  0  0  0  0  0  0  0  0  0  0  0
  -17.4268  -12.2264   10.6884 O   0  0  0  0  0  0  0  0  0  0  0  0
  -17.6617  -10.7003   13.3997 N   0  0  0  0  0  0  0  0  0  0  0  0
  -18.2739   -9.9579   14.3680 C   0  0  0  0  0  0  0  0  0  0  0  0
  -19.5465   -9.6589   14.0323 N   0  0  1  0  0  0  0  0  0  0  0  0
  -14.1418  -15.2994   20.9210 N   0  0  0  0  0  0  0  0  0  0  0  0
  -20.3300  -11.3880   18.7633 O   0  5  0  0  0  0  0  0  0  0  0  0
  -13.5084  -14.1932   21.3986 C   0  0  2  0  0  0  0  0  0  0  0  0
  -12.5405  -14.3380   22.3411 N   0  0  0  0  0  0  0  0  0  0  0  0
  -20.8733   -9.6606   21.0346 O   0  0  0  0  0  0  0  0  0  0  0  0
  -13.8149  -12.9412   20.9617 N   0  0  0  0  0  0  0  0  0  0  0  0
  -14.7740  -12.7326   20.0297 C   0  0  2  0  0  0  0  0  0  0  0  0
  -15.4910  -13.8881   19.4741 C   0  0  2  0  0  0  0  0  0  0  0  0
  -15.1100  -15.2228   19.9835 C   0  0  0  0  0  0  0  0  0  0  0  0
  -15.7144  -16.3479   19.5280 O   0  0  0  0  0  0  0  0  0  0  0  0
  -16.3679  -13.4010   18.5741 N   0  0  0  0  0  0  0  0  0  0  0  0
  -16.2259  -12.0420   18.5588 C   0  0  0  0  0  0  0  0  0  0  0  0
  -15.2691  -11.6485   19.4298 N   0  0  1  0  0  0  0  0  0  0  0  0
  1  3  1  6  0  0  0
  1  4  2  0  0  0  0
  1  6  1  0  0  0  0
  1 22  1  0  0  0  0
  2 28  1  0  0  0  0
  2 35  1  6  0  0  0
  2 38  2  0  0  0  0
  2 10  1  0  0  0  0
  5  6  1  0  0  0  0
  7  5  1  6  0  0  0
  7  8  1  0  0  0  0
  7  9  1  0  0  0  0
  9 10  1  1  0  0  0
  9 11  1  0  0  0  0
 11 12  1  1  0  0  0
 11 13  1  0  0  0  0
 13  8  1  1  0  0  0
 13 33  1  0  0  0  0
 14 46  1  0  0  0  0
 14 17  1  0  0  0  0
 14 25  1  1  0  0  0
 15 16  1  0  0  0  0
 15 29  1  0  0  0  0
 16 18  1  1  0  0  0
 16 21  1  0  0  0  0
 17 19  1  1  0  0  0
 17 20  1  0  0  0  0
 20 22  1  1  0  0  0
 20 24  1  0  0  0  0
 23 21  1  1  0  0  0
 23 26  1  0  0  0  0
 23 33  1  0  0  0  0
 24 25  1  1  0  0  0
 24 27  1  0  0  0  0
 26 29  1  6  0  0  0
 26 31  1  0  0  0  0
 27 28  1  0  0  0  0
 29 30  2  0  0  0  0
 31 32  1  0  0  0  0
 33 32  1  6  0  0  0
 34 36  1  0  0  0  0
 34 42  1  0  0  0  0
 36 37  1  1  0  0  0
 36 39  1  0  0  0  0
 40 39  1  6  0  0  0
 40 41  1  0  0  0  0
 40 46  1  0  0  0  0
 41 42  1  6  0  0  0
 41 44  1  0  0  0  0
 42 43  2  0  0  0  0
 44 45  1  0  0  0  0
 46 45  1  1  0  0  0
M  CHG  2   3  -1  35  -1
M  END
>  <CHROM.1>
-119.50303927,142.32144862,-17.53512460,-10.18239920,17.08607777,2.93219584
1.01818741,-2.55007654

>  <Name>
ligand

>  <RI>
-1

>  <Rbt.Current_Directory>
/home/itssahil/PROJECTS/Mol_Feturizer/Test_systems_manuscript/rnas/3mum

>  <Rbt.Executable>
rbdock ($Id: //depot/dev/client3/rdock/2013.1/src/exe/rbdock.cxx#4 $)

>  <Rbt.Library>
libRbt.so (2013.1, Build901 2013/11/27)

>  <Rbt.Parameter_File>
/export/apps/rDock/src/rDock_2013.1_src/data/scripts/dock_solv.prm

>  <Rbt.Receptor>
prm/blind_docking_40.prm

>  <SCORE>
-1.30238

>  <SCORE.INTER>
-3.4123

>  <SCORE.INTER.CONST>
1

>  <SCORE.INTER.POLAR>
0

>  <SCORE.INTER.ROT>
2

>  <SCORE.INTER.SOLV>
37.1087

>  <SCORE.INTER.VDW>
-19.5778

>  <SCORE.INTER.norm>
-0.0741804

>  <SCORE.INTRA>
-0.0736158

>  <SCORE.INTRA.DIHEDRAL>
-0.0294424

>  <SCORE.INTRA.DIHEDRAL.0>
2.40424

>  <SCORE.INTRA.POLAR>
0

>  <SCORE.INTRA.POLAR.0>
0

>  <SCORE.INTRA.REPUL>
0

>  <SCORE.INTRA.REPUL.0>
0

>  <SCORE.INTRA.SOLV>
-0.00171752

>  <SCORE.INTRA.SOLV.lig_0>
-134.169

>  <SCORE.INTRA.VDW>
-0.0580359

>  <SCORE.INTRA.VDW.0>
-2.18386

>  <SCORE.INTRA.norm>
-0.00160034

>  <SCORE.RESTR>
2.18353

>  <SCORE.RESTR.CAVITY>
2.18353

>  <SCORE.RESTR.norm>
0.0474681

>  <SCORE.SYSTEM>
0

>  <SCORE.SYSTEM.CONST>
0

>  <SCORE.SYSTEM.DIHEDRAL>
0

>  <SCORE.SYSTEM.SOLV>
0

>  <SCORE.SYSTEM.norm>
0

>  <SCORE.heavy>
46

>  <SCORE.norm>
-0.0283126

>  <RMSD>
15.881

$$$$
ligand
 OpenBabel02271912143D
libRbt.so/2013.1/901 2013/11/27
 46 52  0  0  0  0  0  0  0  0999 V2000
  -19.7820   -9.8871   20.3194 P   0  0  1  0  0  0  0  0  0  0  0  0
  -15.5646   -7.9301   16.7056 P   0  0  2  0  0  0  0  0  0  0  0  0
  -20.2802  -11.5225   19.8516 O   0  5  0  0  0  0  0  0  0  0  0  0
  -20.6157   -9.3435   21.7989 O   0  0  0  0  0  0  0  0  0  0  0  0
  -17.4789   -8.6792   20.8296 C   0  0  0  0  0  0  0  0  0  0  0  0
  -18.1858   -9.8868   20.5460 O   0  0  0  0  0  0  0  0  0  0  0  0
  -16.0111   -8.8919   20.5121 C   0  0  1  0  0  0  0  0  0  0  0  0
  -15.5380  -10.0589   21.1994 O   0  0  0  0  0  0  0  0  0  0  0  0
  -15.7474   -9.1524   19.0379 C   0  0  1  0  0  0  0  0  0  0  0  0
  -15.4865   -7.9495   18.3181 O   0  0  0  0  0  0  0  0  0  0  0  0
  -14.5408  -10.0741   19.0610 C   0  0  1  0  0  0  0  0  0  0  0  0
  -13.3357   -9.3046   19.0595 O   0  0  0  0  0  0  0  0  0  0  0  0
  -14.6378  -10.8200   20.3789 C   0  0  2  0  0  0  0  0  0  0  0  0
  -20.3644   -9.4754   15.6324 C   0  0  1  0  0  0  0  0  0  0  0  0
  -17.0245  -14.2683   17.1224 N   0  0  0  0  0  0  0  0  0  0  0  0
  -16.6623  -12.9775   16.8880 C   0  0  1  0  0  0  0  0  0  0  0  0
  -20.4064  -10.0068   17.0371 C   0  0  2  0  0  0  0  0  0  0  0  0
  -16.9263  -12.4501   15.6703 N   0  0  0  0  0  0  0  0  0  0  0  0
  -21.7666   -9.9137   17.4640 O   0  0  0  0  0  0  0  0  0  0  0  0
  -19.4974   -9.0853   17.8259 C   0  0  2  0  0  0  0  0  0  0  0  0
  -16.0500  -12.1987   17.8289 N   0  0  0  0  0  0  0  0  0  0  0  0
  -20.0082   -8.8305   19.1272 O   0  0  0  0  0  0  0  0  0  0  0  0
  -15.7619  -12.6812   19.0641 C   0  0  2  0  0  0  0  0  0  0  0  0
  -19.4553   -7.7999   17.0232 C   0  0  2  0  0  0  0  0  0  0  0  0
  -19.8201   -8.1577   15.6912 O   0  0  0  0  0  0  0  0  0  0  0  0
  -16.1359  -14.0727   19.3711 C   0  0  1  0  0  0  0  0  0  0  0  0
  -18.0755   -7.1514   17.0158 C   0  0  0  0  0  0  0  0  0  0  0  0
  -17.1424   -8.0453   16.4056 O   0  0  0  0  0  0  0  0  0  0  0  0
  -16.7935  -14.8630   18.3151 C   0  0  0  0  0  0  0  0  0  0  0  0
  -17.1614  -16.1496   18.5414 O   0  0  0  0  0  0  0  0  0  0  0  0
  -15.7586  -14.3074   20.6326 N   0  0  0  0  0  0  0  0  0  0  0  0
  -15.1878  -13.1612   21.1060 C   0  0  0  0  0  0  0  0  0  0  0  0
  -15.1881  -12.1860   20.1730 N   0  0  1  0  0  0  0  0  0  0  0  0
  -17.6386   -9.8352   11.1817 N   0  0  0  0  0  0  0  0  0  0  0  0
  -14.6894   -9.3111   15.9931 O   0  5  0  0  0  0  0  0  0  0  0  0
  -18.3403   -8.7859   11.6911 C   0  0  2  0  0  0  0  0  0  0  0  0
  -18.3817   -7.6172   10.9994 N   0  0  0  0  0  0  0  0  0  0  0  0
  -14.9684   -6.4197   15.9905 O   0  0  0  0  0  0  0  0  0  0  0  0
  -19.0041   -8.8692   12.8763 N   0  0  0  0  0  0  0  0  0  0  0  0
  -18.9943  -10.0041   13.6140 C   0  0  2  0  0  0  0  0  0  0  0  0
  -18.2564  -11.1720   13.1148 C   0  0  2  0  0  0  0  0  0  0  0  0
  -17.5603  -11.0227   11.8190 C   0  0  0  0  0  0  0  0  0  0  0  0
  -16.8559  -12.0468   11.2772 O   0  0  0  0  0  0  0  0  0  0  0  0
  -18.4216  -12.1506   14.0266 N   0  0  0  0  0  0  0  0  0  0  0  0
  -19.1995  -11.6469   15.0307 C   0  0  0  0  0  0  0  0  0  0  0  0
  -19.5410  -10.3633   14.7770 N   0  0  1  0  0  0  0  0  0  0  0  0
  1  3  1  6  0  0  0
  1  4  2  0  0  0  0
  1  6  1  0  0  0  0
  1 22  1  0  0  0  0
  2 28  1  0  0  0  0
  2 35  1  6  0  0  0
  2 38  2  0  0  0  0
  2 10  1  0  0  0  0
  5  6  1  0  0  0  0
  7  5  1  6  0  0  0
  7  8  1  0  0  0  0
  7  9  1  0  0  0  0
  9 10  1  6  0  0  0
  9 11  1  0  0  0  0
 11 12  1  1  0  0  0
 11 13  1  0  0  0  0
 13  8  1  1  0  0  0
 13 33  1  0  0  0  0
 14 46  1  0  0  0  0
 14 17  1  0  0  0  0
 14 25  1  1  0  0  0
 15 16  1  0  0  0  0
 15 29  1  0  0  0  0
 16 18  1  1  0  0  0
 16 21  1  0  0  0  0
 17 19  1  1  0  0  0
 17 20  1  0  0  0  0
 20 22  1  1  0  0  0
 20 24  1  0  0  0  0
 23 21  1  1  0  0  0
 23 26  1  0  0  0  0
 23 33  1  0  0  0  0
 24 25  1  6  0  0  0
 24 27  1  0  0  0  0
 26 29  1  6  0  0  0
 26 31  1  0  0  0  0
 27 28  1  0  0  0  0
 29 30  2  0  0  0  0
 31 32  1  0  0  0  0
 33 32  1  6  0  0  0
 34 36  1  0  0  0  0
 34 42  1  0  0  0  0
 36 37  1  1  0  0  0
 36 39  1  0  0  0  0
 40 39  1  6  0  0  0
 40 41  1  0  0  0  0
 40 46  1  0  0  0  0
 41 42  1  6  0  0  0
 41 44  1  0  0  0  0
 42 43  2  0  0  0  0
 44 45  1  0  0  0  0
 46 45  1  1  0  0  0
M  CHG  2   3  -1  35  -1
M  END
>  <CHROM.1>
105.16961053,-160.11680438,-17.50079827,-10.30700459,17.25157435,1.02760206
-1.14973112,1.31346503

>  <Name>
ligand

>  <RI>
-1

>  <Rbt.Current_Directory>
/home/itssahil/PROJECTS/Mol_Feturizer/Test_systems_manuscript/rnas/3mum

>  <Rbt.Executable>
rbdock ($Id: //depot/dev/client3/rdock/2013.1/src/exe/rbdock.cxx#4 $)

>  <Rbt.Library>
libRbt.so (2013.1, Build901 2013/11/27)

>  <Rbt.Parameter_File>
/export/apps/rDock/src/rDock_2013.1_src/data/scripts/dock_solv.prm

>  <Rbt.Receptor>
prm/blind_docking_100.prm

>  <SCORE>
19.9465

>  <SCORE.INTER>
12.8049

>  <SCORE.INTER.CONST>
1

>  <SCORE.INTER.POLAR>
0

>  <SCORE.INTER.ROT>
2

>  <SCORE.INTER.SOLV>
41.6499

>  <SCORE.INTER.VDW>
-10.28

>  <SCORE.INTER.norm>
0.278368

>  <SCORE.INTRA>
6.67246

>  <SCORE.INTRA.DIHEDRAL>
0.0217671

>  <SCORE.INTRA.DIHEDRAL.0>
2.40424

>  <SCORE.INTRA.POLAR>
0

>  <SCORE.INTRA.POLAR.0>
0

>  <SCORE.INTRA.REPUL>
0

>  <SCORE.INTRA.REPUL.0>
0

>  <SCORE.INTRA.SOLV>
5.33935

>  <SCORE.INTRA.SOLV.lig_0>
-134.169

>  <SCORE.INTRA.VDW>
3.9919

>  <SCORE.INTRA.VDW.0>
-2.18386

>  <SCORE.INTRA.norm>
0.145054

>  <SCORE.RESTR>
0.469109

>  <SCORE.RESTR.CAVITY>
0.469109

>  <SCORE.RESTR.norm>
0.010198

>  <SCORE.SYSTEM>
0

>  <SCORE.SYSTEM.CONST>
0

>  <SCORE.SYSTEM.DIHEDRAL>
0

>  <SCORE.SYSTEM.SOLV>
0

>  <SCORE.SYSTEM.norm>
0

>  <SCORE.heavy>
46

>  <SCORE.norm>
0.43362

>  <RMSD>
15.888

$$$$
ligand
 OpenBabel02271912143D
libRbt.so/2013.1/901 2013/11/27
 46 52  0  0  0  0  0  0  0  0999 V2000
  -14.9343   -8.6031   16.0516 P   0  0  1  0  0  0  0  0  0  0  0  0
  -19.1938   -8.1206   20.0890 P   0  0  2  0  0  0  0  0  0  0  0  0
  -14.5067  -10.3064   15.8119 O   0  5  0  0  0  0  0  0  0  0  0  0
  -14.0369   -7.5369   14.9393 O   0  0  0  0  0  0  0  0  0  0  0  0
  -17.1781   -7.1928   16.0505 C   0  0  0  0  0  0  0  0  0  0  0  0
  -16.5218   -8.4399   15.8220 O   0  0  0  0  0  0  0  0  0  0  0  0
  -18.6615   -7.4528   16.2309 C   0  0  1  0  0  0  0  0  0  0  0  0
  -19.1522   -8.2125   15.1174 O   0  0  0  0  0  0  0  0  0  0  0  0
  -18.9798   -8.2839   17.4631 C   0  0  1  0  0  0  0  0  0  0  0  0
  -19.2221   -7.4726   18.6104 O   0  0  0  0  0  0  0  0  0  0  0  0
  -20.2156   -9.0610   17.0451 C   0  0  1  0  0  0  0  0  0  0  0  0
  -21.3934   -8.3081   17.3458 O   0  0  0  0  0  0  0  0  0  0  0  0
  -20.1028   -9.2032   15.5386 C   0  0  2  0  0  0  0  0  0  0  0  0
  -14.4850  -10.1787   20.5004 C   0  0  1  0  0  0  0  0  0  0  0  0
  -17.7891  -13.7230   17.0912 N   0  0  0  0  0  0  0  0  0  0  0  0
  -18.0912  -12.6180   17.8261 C   0  0  1  0  0  0  0  0  0  0  0  0
  -14.4171  -10.0876   19.0023 C   0  0  2  0  0  0  0  0  0  0  0  0
  -17.7775  -12.6197   19.1422 N   0  0  0  0  0  0  0  0  0  0  0  0
  -13.0419   -9.8870   18.6713 O   0  0  0  0  0  0  0  0  0  0  0  0
  -15.2693   -8.8846   18.6497 C   0  0  2  0  0  0  0  0  0  0  0  0
  -18.6917  -11.5144   17.2894 N   0  0  0  0  0  0  0  0  0  0  0  0
  -14.7098   -8.1404   17.5762 O   0  0  0  0  0  0  0  0  0  0  0  0
  -19.0281  -11.4639   15.9757 C   0  0  2  0  0  0  0  0  0  0  0  0
  -15.2929   -8.0418   19.9096 C   0  0  2  0  0  0  0  0  0  0  0  0
  -14.9822   -8.9307   20.9814 O   0  0  0  0  0  0  0  0  0  0  0  0
  -18.7201  -12.6332   15.1341 C   0  0  1  0  0  0  0  0  0  0  0  0
  -16.6494   -7.3939   20.1633 C   0  0  0  0  0  0  0  0  0  0  0  0
  -17.6309   -8.4178   20.3377 O   0  0  0  0  0  0  0  0  0  0  0  0
  -18.0721  -13.7940   15.7705 C   0  0  0  0  0  0  0  0  0  0  0  0
  -17.7640  -14.8985   15.0444 O   0  0  0  0  0  0  0  0  0  0  0  0
  -19.1357  -12.3419   13.8966 N   0  0  0  0  0  0  0  0  0  0  0  0
  -19.6685  -11.0856   13.9321 C   0  0  0  0  0  0  0  0  0  0  0  0
  -19.6058  -10.5559   15.1719 N   0  0  1  0  0  0  0  0  0  0  0  0
  -14.7512  -15.3327   21.3572 N   0  0  0  0  0  0  0  0  0  0  0  0
  -20.1371   -9.6327   20.1569 O   0  5  0  0  0  0  0  0  0  0  0  0
  -13.7002  -14.5709   20.9473 C   0  0  2  0  0  0  0  0  0  0  0  0
  -12.5023  -15.1661   20.7095 N   0  0  0  0  0  0  0  0  0  0  0  0
  -19.7605   -7.0127   21.3536 O   0  0  0  0  0  0  0  0  0  0  0  0
  -13.8104  -13.2262   20.7679 N   0  0  0  0  0  0  0  0  0  0  0  0
  -14.9754  -12.5757   20.9951 C   0  0  2  0  0  0  0  0  0  0  0  0
  -16.1466  -13.3446   21.4365 C   0  0  2  0  0  0  0  0  0  0  0  0
  -15.9669  -14.8022   21.6081 C   0  0  0  0  0  0  0  0  0  0  0  0
  -16.9915  -15.5944   22.0095 O   0  0  0  0  0  0  0  0  0  0  0  0
  -17.1568  -12.4632   21.5738 N   0  0  0  0  0  0  0  0  0  0  0  0
  -16.6690  -11.2285   21.2502 C   0  0  0  0  0  0  0  0  0  0  0  0
  -15.3643  -11.3026   20.9025 N   0  0  1  0  0  0  0  0  0  0  0  0
  1  3  1  6  0  0  0
  1  4  2  0  0  0  0
  1  6  1  0  0  0  0
  1 22  1  0  0  0  0
  2 28  1  0  0  0  0
  2 35  1  1  0  0  0
  2 38  2  0  0  0  0
  2 10  1  0  0  0  0
  5  6  1  0  0  0  0
  7  5  1  6  0  0  0
  7  8  1  0  0  0  0
  7  9  1  0  0  0  0
  9 10  1  1  0  0  0
  9 11  1  0  0  0  0
 11 12  1  6  0  0  0
 11 13  1  0  0  0  0
 13  8  1  1  0  0  0
 13 33  1  0  0  0  0
 14 46  1  0  0  0  0
 14 17  1  0  0  0  0
 14 25  1  1  0  0  0
 15 16  1  0  0  0  0
 15 29  1  0  0  0  0
 16 18  1  6  0  0  0
 16 21  1  0  0  0  0
 17 19  1  1  0  0  0
 17 20  1  0  0  0  0
 20 22  1  6  0  0  0
 20 24  1  0  0  0  0
 23 21  1  6  0  0  0
 23 26  1  0  0  0  0
 23 33  1  0  0  0  0
 24 25  1  1  0  0  0
 24 27  1  0  0  0  0
 26 29  1  1  0  0  0
 26 31  1  0  0  0  0
 27 28  1  0  0  0  0
 29 30  2  0  0  0  0
 31 32  1  0  0  0  0
 33 32  1  1  0  0  0
 34 36  1  0  0  0  0
 34 42  1  0  0  0  0
 36 37  1  1  0  0  0
 36 39  1  0  0  0  0
 40 39  1  6  0  0  0
 40 41  1  0  0  0  0
 40 46  1  0  0  0  0
 41 42  1  6  0  0  0
 41 44  1  0  0  0  0
 42 43  2  0  0  0  0
 44 45  1  0  0  0  0
 46 45  1  1  0  0  0
M  CHG  2   3  -1  35  -1
M  END
>  <CHROM.1>
101.83895341,83.94922013,-17.02113097,-10.48049657,18.30879660,-2.59524588
0.96852092,-2.93980194

>  <Name>
ligand

>  <RI>
-1

>  <Rbt.Current_Directory>
/home/itssahil/PROJECTS/Mol_Feturizer/Test_systems_manuscript/rnas/3mum

>  <Rbt.Executable>
rbdock ($Id: //depot/dev/client3/rdock/2013.1/src/exe/rbdock.cxx#4 $)

>  <Rbt.Library>
libRbt.so (2013.1, Build901 2013/11/27)

>  <Rbt.Parameter_File>
/export/apps/rDock/src/rDock_2013.1_src/data/scripts/dock_solv.prm

>  <Rbt.Receptor>
prm/blind_docking_80.prm

>  <SCORE>
40.3516

>  <SCORE.INTER>
37.0205

>  <SCORE.INTER.CONST>
1

>  <SCORE.INTER.POLAR>
0

>  <SCORE.INTER.ROT>
2

>  <SCORE.INTER.SOLV>
44.753

>  <SCORE.INTER.VDW>
4.82934

>  <SCORE.INTER.norm>
0.804794

>  <SCORE.INTRA>
2.34786

>  <SCORE.INTRA.DIHEDRAL>
0.0247034

>  <SCORE.INTRA.DIHEDRAL.0>
2.40424

>  <SCORE.INTRA.POLAR>
0

>  <SCORE.INTRA.POLAR.0>
0

>  <SCORE.INTRA.REPUL>
0

>  <SCORE.INTRA.REPUL.0>
0

>  <SCORE.INTRA.SOLV>
6.31777

>  <SCORE.INTRA.SOLV.lig_0>
-134.169

>  <SCORE.INTRA.VDW>
-0.82338

>  <SCORE.INTRA.VDW.0>
-2.18386

>  <SCORE.INTRA.norm>
0.0510404

>  <SCORE.RESTR>
0.983246

>  <SCORE.RESTR.CAVITY>
0.983246

>  <SCORE.RESTR.norm>
0.0213749

>  <SCORE.SYSTEM>
0

>  <SCORE.SYSTEM.CONST>
0

>  <SCORE.SYSTEM.DIHEDRAL>
0

>  <SCORE.SYSTEM.SOLV>
0

>  <SCORE.SYSTEM.norm>
0

>  <SCORE.heavy>
46

>  <SCORE.norm>
0.877209

>  <RMSD>
15.897

$$$$
ligand
 OpenBabel02271912143D
libRbt.so/2013.1/901 2013/11/27
 46 52  0  0  0  0  0  0  0  0999 V2000
  -19.6297   -9.8668   20.8744 P   0  0  1  0  0  0  0  0  0  0  0  0
  -15.5976   -7.8677   17.0768 P   0  0  2  0  0  0  0  0  0  0  0  0
  -20.1408  -11.5024   20.4216 O   0  5  0  0  0  0  0  0  0  0  0  0
  -20.3956   -9.3356   22.3944 O   0  0  0  0  0  0  0  0  0  0  0  0
  -17.3115   -8.6488   21.2821 C   0  0  0  0  0  0  0  0  0  0  0  0
  -18.0246   -9.8589   21.0256 O   0  0  0  0  0  0  0  0  0  0  0  0
  -15.8591   -8.8519   20.8947 C   0  0  1  0  0  0  0  0  0  0  0  0
  -15.3481  -10.0198   21.5526 O   0  0  0  0  0  0  0  0  0  0  0  0
  -15.6638   -9.1032   19.4084 C   0  0  1  0  0  0  0  0  0  0  0  0
  -15.4435   -7.8951   18.6837 O   0  0  0  0  0  0  0  0  0  0  0  0
  -14.4526  -10.0184   19.3696 C   0  0  1  0  0  0  0  0  0  0  0  0
  -13.2530   -9.2422   19.3156 O   0  0  0  0  0  0  0  0  0  0  0  0
  -14.4835  -10.7716   20.6865 C   0  0  2  0  0  0  0  0  0  0  0  0
  -20.4344   -9.4338   16.2223 C   0  0  1  0  0  0  0  0  0  0  0  0
  -17.0023  -14.2162   17.5268 N   0  0  0  0  0  0  0  0  0  0  0  0
  -16.6582  -12.9221   17.2827 C   0  0  1  0  0  0  0  0  0  0  0  0
  -20.4074   -9.9728   17.6245 C   0  0  2  0  0  0  0  0  0  0  0  0
  -16.9818  -12.3899   16.0816 N   0  0  0  0  0  0  0  0  0  0  0  0
  -21.7465   -9.8894   18.1155 O   0  0  0  0  0  0  0  0  0  0  0  0
  -19.4671   -9.0504   18.3746 C   0  0  2  0  0  0  0  0  0  0  0  0
  -16.0066  -12.1449   18.1980 N   0  0  0  0  0  0  0  0  0  0  0  0
  -19.9174   -8.8052   19.7000 O   0  0  0  0  0  0  0  0  0  0  0  0
  -15.6583  -12.6322   19.4158 C   0  0  2  0  0  0  0  0  0  0  0  0
  -19.4697   -7.7605   17.5779 C   0  0  2  0  0  0  0  0  0  0  0  0
  -19.8949   -8.1134   16.2626 O   0  0  0  0  0  0  0  0  0  0  0  0
  -16.0102  -14.0273   19.7324 C   0  0  1  0  0  0  0  0  0  0  0  0
  -18.0951   -7.1045   17.5092 C   0  0  0  0  0  0  0  0  0  0  0  0
  -17.1872   -7.9900   16.8508 O   0  0  0  0  0  0  0  0  0  0  0  0
  -16.7125  -14.8157   18.7042 C   0  0  0  0  0  0  0  0  0  0  0  0
  -17.0626  -16.1055   18.9405 O   0  0  0  0  0  0  0  0  0  0  0  0
  -15.5729  -14.2664   20.9736 N   0  0  0  0  0  0  0  0  0  0  0  0
  -14.9866  -13.1196   21.4259 C   0  0  0  0  0  0  0  0  0  0  0  0
  -15.0358  -12.1395   20.4993 N   0  0  1  0  0  0  0  0  0  0  0  0
  -17.8778   -9.7406   11.6684 N   0  0  0  0  0  0  0  0  0  0  0  0
  -14.7497   -9.2401   16.3163 O   0  5  0  0  0  0  0  0  0  0  0  0
  -18.5552   -8.6959   12.2186 C   0  0  2  0  0  0  0  0  0  0  0  0
  -18.6169   -7.5172   11.5456 N   0  0  0  0  0  0  0  0  0  0  0  0
  -15.0437   -6.3503   16.3427 O   0  0  0  0  0  0  0  0  0  0  0  0
  -19.1748   -8.7935   13.4264 N   0  0  0  0  0  0  0  0  0  0  0  0
  -19.1429   -9.9390   14.1469 C   0  0  2  0  0  0  0  0  0  0  0  0
  -18.4295  -11.1026   13.6040 C   0  0  2  0  0  0  0  0  0  0  0  0
  -17.7814  -10.9375   12.2854 C   0  0  0  0  0  0  0  0  0  0  0  0
  -17.1025  -11.9566   11.7031 O   0  0  0  0  0  0  0  0  0  0  0  0
  -18.5653  -12.0936   14.5072 N   0  0  0  0  0  0  0  0  0  0  0  0
  -19.3029  -11.6012   15.5467 C   0  0  0  0  0  0  0  0  0  0  0  0
  -19.6476  -10.3126   15.3242 N   0  0  1  0  0  0  0  0  0  0  0  0
  1  3  1  6  0  0  0
  1  4  2  0  0  0  0
  1  6  1  0  0  0  0
  1 22  1  0  0  0  0
  2 28  1  0  0  0  0
  2 35  1  6  0  0  0
  2 38  2  0  0  0  0
  2 10  1  0  0  0  0
  5  6  1  0  0  0  0
  7  5  1  6  0  0  0
  7  8  1  0  0  0  0
  7  9  1  0  0  0  0
  9 10  1  6  0  0  0
  9 11  1  0  0  0  0
 11 12  1  1  0  0  0
 11 13  1  0  0  0  0
 13  8  1  1  0  0  0
 13 33  1  0  0  0  0
 14 46  1  0  0  0  0
 14 17  1  0  0  0  0
 14 25  1  1  0  0  0
 15 16  1  0  0  0  0
 15 29  1  0  0  0  0
 16 18  1  1  0  0  0
 16 21  1  0  0  0  0
 17 19  1  1  0  0  0
 17 20  1  0  0  0  0
 20 22  1  1  0  0  0
 20 24  1  0  0  0  0
 23 21  1  1  0  0  0
 23 26  1  0  0  0  0
 23 33  1  0  0  0  0
 24 25  1  6  0  0  0
 24 27  1  0  0  0  0
 26 29  1  6  0  0  0
 26 31  1  0  0  0  0
 27 28  1  0  0  0  0
 29 30  2  0  0  0  0
 31 32  1  0  0  0  0
 33 32  1  6  0  0  0
 34 36  1  0  0  0  0
 34 42  1  0  0  0  0
 36 37  1  1  0  0  0
 36 39  1  0  0  0  0
 40 39  1  6  0  0  0
 40 41  1  0  0  0  0
 40 46  1  0  0  0  0
 41 42  1  6  0  0  0
 41 44  1  0  0  0  0
 42 43  2  0  0  0  0
 44 45  1  0  0  0  0
 46 45  1  1  0  0  0
M  CHG  2   3  -1  35  -1
M  END
>  <CHROM.1>
105.18280558,-159.16836428,-17.48875393,-10.25647221,17.70268038,0.93239994
-1.13196341,1.23530630

>  <Name>
ligand

>  <RI>
-1

>  <Rbt.Current_Directory>
/home/itssahil/PROJECTS/Mol_Feturizer/Test_systems_manuscript/rnas/3mum

>  <Rbt.Executable>
rbdock ($Id: //depot/dev/client3/rdock/2013.1/src/exe/rbdock.cxx#4 $)

>  <Rbt.Library>
libRbt.so (2013.1, Build901 2013/11/27)

>  <Rbt.Parameter_File>
/export/apps/rDock/src/rDock_2013.1_src/data/scripts/dock_solv.prm

>  <Rbt.Receptor>
prm/blind_docking_80.prm

>  <SCORE>
24.4288

>  <SCORE.INTER>
18.055

>  <SCORE.INTER.CONST>
1

>  <SCORE.INTER.POLAR>
0

>  <SCORE.INTER.ROT>
2

>  <SCORE.INTER.SOLV>
36.604

>  <SCORE.INTER.VDW>
-5.09801

>  <SCORE.INTER.norm>
0.3925

>  <SCORE.INTRA>
6.3162

>  <SCORE.INTRA.DIHEDRAL>
0.022455

>  <SCORE.INTRA.DIHEDRAL.0>
2.40424

>  <SCORE.INTRA.POLAR>
0

>  <SCORE.INTRA.POLAR.0>
0

>  <SCORE.INTRA.REPUL>
0

>  <SCORE.INTRA.REPUL.0>
0

>  <SCORE.INTRA.SOLV>
5.3326

>  <SCORE.INTRA.SOLV.lig_0>
-134.169

>  <SCORE.INTRA.VDW>
3.63867

>  <SCORE.INTRA.VDW.0>
-2.18386

>  <SCORE.INTRA.norm>
0.137309

>  <SCORE.RESTR>
0.057624

>  <SCORE.RESTR.CAVITY>
0.057624

>  <SCORE.RESTR.norm>
0.0012527

>  <SCORE.SYSTEM>
0

>  <SCORE.SYSTEM.CONST>
0

>  <SCORE.SYSTEM.DIHEDRAL>
0

>  <SCORE.SYSTEM.SOLV>
0

>  <SCORE.SYSTEM.norm>
0

>  <SCORE.heavy>
46

>  <SCORE.norm>
0.531061

>  <RMSD>
15.901

$$$$
ligand
 OpenBabel02271912143D
libRbt.so/2013.1/901 2013/11/27
 46 52  0  0  0  0  0  0  0  0999 V2000
  -19.6297   -9.8740   20.8732 P   0  0  1  0  0  0  0  0  0  0  0  0
  -15.6294   -7.8512   17.0545 P   0  0  2  0  0  0  0  0  0  0  0  0
  -20.1313  -11.5138   20.4247 O   0  5  0  0  0  0  0  0  0  0  0  0
  -20.3924   -9.3463   22.3961 O   0  0  0  0  0  0  0  0  0  0  0  0
  -17.3183   -8.6392   21.2687 C   0  0  0  0  0  0  0  0  0  0  0  0
  -18.0240   -9.8546   21.0170 O   0  0  0  0  0  0  0  0  0  0  0  0
  -15.8664   -8.8324   20.8748 C   0  0  1  0  0  0  0  0  0  0  0  0
  -15.3440   -9.9959   21.5317 O   0  0  0  0  0  0  0  0  0  0  0  0
  -15.6761   -9.0842   19.3879 C   0  0  1  0  0  0  0  0  0  0  0  0
  -15.4677   -7.8755   18.6608 O   0  0  0  0  0  0  0  0  0  0  0  0
  -14.4587   -9.9908   19.3447 C   0  0  1  0  0  0  0  0  0  0  0  0
  -13.2649   -9.2063   19.2842 O   0  0  0  0  0  0  0  0  0  0  0  0
  -14.4782  -10.7426   20.6626 C   0  0  2  0  0  0  0  0  0  0  0  0
  -20.4589   -9.4526   16.2244 C   0  0  1  0  0  0  0  0  0  0  0  0
  -16.9913  -14.2074   17.5207 N   0  0  0  0  0  0  0  0  0  0  0  0
  -16.6583  -12.9111   17.2737 C   0  0  1  0  0  0  0  0  0  0  0  0
  -20.4216   -9.9896   17.6270 C   0  0  2  0  0  0  0  0  0  0  0  0
  -16.9931  -12.3820   16.0743 N   0  0  0  0  0  0  0  0  0  0  0  0
  -21.7589   -9.9151   18.1241 O   0  0  0  0  0  0  0  0  0  0  0  0
  -19.4844   -9.0597   18.3717 C   0  0  2  0  0  0  0  0  0  0  0  0
  -16.0066  -12.1285   18.1845 N   0  0  0  0  0  0  0  0  0  0  0  0
  -19.9303   -8.8160   19.6988 O   0  0  0  0  0  0  0  0  0  0  0  0
  -15.6472  -12.6125   19.4003 C   0  0  2  0  0  0  0  0  0  0  0  0
  -19.4998   -7.7709   17.5734 C   0  0  2  0  0  0  0  0  0  0  0  0
  -19.9285   -8.1284   16.2605 O   0  0  0  0  0  0  0  0  0  0  0  0
  -15.9869  -14.0100   19.7199 C   0  0  1  0  0  0  0  0  0  0  0  0
  -18.1303   -7.1052   17.4975 C   0  0  0  0  0  0  0  0  0  0  0  0
  -17.2191   -7.9851   16.8361 O   0  0  0  0  0  0  0  0  0  0  0  0
  -16.6899  -14.8041   18.6965 C   0  0  0  0  0  0  0  0  0  0  0  0
  -17.0291  -16.0963   18.9358 O   0  0  0  0  0  0  0  0  0  0  0  0
  -15.5402  -14.2451   20.9586 N   0  0  0  0  0  0  0  0  0  0  0  0
  -14.9595  -13.0937   21.4065 C   0  0  0  0  0  0  0  0  0  0  0  0
  -15.0216  -12.1147   20.4796 N   0  0  1  0  0  0  0  0  0  0  0  0
  -17.8650   -9.7278   11.6896 N   0  0  0  0  0  0  0  0  0  0  0  0
  -14.7753   -9.2186   16.2919 O   0  5  0  0  0  0  0  0  0  0  0  0
  -18.5403   -8.6845   12.2450 C   0  0  2  0  0  0  0  0  0  0  0  0
  -18.5885   -7.4983   11.5842 N   0  0  0  0  0  0  0  0  0  0  0  0
  -15.0896   -6.3309   16.3160 O   0  0  0  0  0  0  0  0  0  0  0  0
  -19.1710   -8.7909   13.4463 N   0  0  0  0  0  0  0  0  0  0  0  0
  -19.1527   -9.9441   14.1548 C   0  0  2  0  0  0  0  0  0  0  0  0
  -18.4422  -11.1066   13.6056 C   0  0  2  0  0  0  0  0  0  0  0  0
  -17.7816  -10.9317   12.2945 C   0  0  0  0  0  0  0  0  0  0  0  0
  -17.1043  -11.9490   11.7072 O   0  0  0  0  0  0  0  0  0  0  0  0
  -18.5922  -12.1062   14.4970 N   0  0  0  0  0  0  0  0  0  0  0  0
  -19.3356  -11.6201   15.5353 C   0  0  0  0  0  0  0  0  0  0  0  0
  -19.6701  -10.3270   15.3237 N   0  0  1  0  0  0  0  0  0  0  0  0
  1  3  1  6  0  0  0
  1  4  2  0  0  0  0
  1  6  1  0  0  0  0
  1 22  1  0  0  0  0
  2 28  1  0  0  0  0
  2 35  1  6  0  0  0
  2 38  2  0  0  0  0
  2 10  1  0  0  0  0
  5  6  1  0  0  0  0
  7  5  1  6  0  0  0
  7  8  1  0  0  0  0
  7  9  1  0  0  0  0
  9 10  1  6  0  0  0
  9 11  1  0  0  0  0
 11 12  1  1  0  0  0
 11 13  1  0  0  0  0
 13  8  1  1  0  0  0
 13 33  1  0  0  0  0
 14 46  1  0  0  0  0
 14 17  1  0  0  0  0
 14 25  1  1  0  0  0
 15 16  1  0  0  0  0
 15 29  1  0  0  0  0
 16 18  1  1  0  0  0
 16 21  1  0  0  0  0
 17 19  1  1  0  0  0
 17 20  1  0  0  0  0
 20 22  1  1  0  0  0
 20 24  1  0  0  0  0
 23 21  1  1  0  0  0
 23 26  1  0  0  0  0
 23 33  1  0  0  0  0
 24 25  1  6  0  0  0
 24 27  1  0  0  0  0
 26 29  1  6  0  0  0
 26 31  1  0  0  0  0
 27 28  1  0  0  0  0
 29 30  2  0  0  0  0
 31 32  1  0  0  0  0
 33 32  1  6  0  0  0
 34 36  1  0  0  0  0
 34 42  1  0  0  0  0
 36 37  1  1  0  0  0
 36 39  1  0  0  0  0
 40 39  1  6  0  0  0
 40 41  1  0  0  0  0
 40 46  1  0  0  0  0
 41 42  1  6  0  0  0
 41 44  1  0  0  0  0
 42 43  2  0  0  0  0
 44 45  1  0  0  0  0
 46 45  1  1  0  0  0
M  CHG  2   3  -1  35  -1
M  END
>  <CHROM.1>
105.08273009,-157.88368127,-17.49500060,-10.25028720,17.69563470,0.93790660
-1.12662133,1.24278273

>  <Name>
ligand

>  <RI>
-1

>  <Rbt.Current_Directory>
/home/itssahil/PROJECTS/Mol_Feturizer/Test_systems_manuscript/rnas/3mum

>  <Rbt.Executable>
rbdock ($Id: //depot/dev/client3/rdock/2013.1/src/exe/rbdock.cxx#4 $)

>  <Rbt.Library>
libRbt.so (2013.1, Build901 2013/11/27)

>  <Rbt.Parameter_File>
/export/apps/rDock/src/rDock_2013.1_src/data/scripts/dock_solv.prm

>  <Rbt.Receptor>
prm/blind_docking_80.prm

>  <SCORE>
24.4553

>  <SCORE.INTER>
18.4145

>  <SCORE.INTER.CONST>
1

>  <SCORE.INTER.POLAR>
0

>  <SCORE.INTER.ROT>
2

>  <SCORE.INTER.SOLV>
36.5072

>  <SCORE.INTER.VDW>
-4.82607

>  <SCORE.INTER.norm>
0.400315

>  <SCORE.INTRA>
5.98755

>  <SCORE.INTRA.DIHEDRAL>
0.0233073

>  <SCORE.INTRA.DIHEDRAL.0>
2.40424

>  <SCORE.INTRA.POLAR>
0

>  <SCORE.INTRA.POLAR.0>
0

>  <SCORE.INTRA.REPUL>
0

>  <SCORE.INTRA.REPUL.0>
0

>  <SCORE.INTRA.SOLV>
5.35494

>  <SCORE.INTRA.SOLV.lig_0>
-134.169

>  <SCORE.INTRA.VDW>
3.29843

>  <SCORE.INTRA.VDW.0>
-2.18386

>  <SCORE.INTRA.norm>
0.130164

>  <SCORE.RESTR>
0.0532315

>  <SCORE.RESTR.CAVITY>
0.0532315

>  <SCORE.RESTR.norm>
0.00115721

>  <SCORE.SYSTEM>
0

>  <SCORE.SYSTEM.CONST>
0

>  <SCORE.SYSTEM.DIHEDRAL>
0

>  <SCORE.SYSTEM.SOLV>
0

>  <SCORE.SYSTEM.norm>
0

>  <SCORE.heavy>
46

>  <SCORE.norm>
0.531636

>  <RMSD>
15.903

$$$$
ligand
 OpenBabel02271912143D
libRbt.so/2013.1/901 2013/11/27
 46 52  0  0  0  0  0  0  0  0999 V2000
  -19.6052   -9.6936   20.0975 P   0  0  1  0  0  0  0  0  0  0  0  0
  -15.5936   -7.5698   16.3461 P   0  0  2  0  0  0  0  0  0  0  0  0
  -20.0443  -11.3520   19.6516 O   0  5  0  0  0  0  0  0  0  0  0  0
  -20.4159   -9.1801   21.6002 O   0  0  0  0  0  0  0  0  0  0  0  0
  -17.3435   -8.3819   20.5307 C   0  0  0  0  0  0  0  0  0  0  0  0
  -18.0043   -9.6212   20.2740 O   0  0  0  0  0  0  0  0  0  0  0  0
  -15.8782   -8.5309   20.1683 C   0  0  1  0  0  0  0  0  0  0  0  0
  -15.3325   -9.6721   20.8449 O   0  0  0  0  0  0  0  0  0  0  0  0
  -15.6491   -8.7870   18.6876 C   0  0  1  0  0  0  0  0  0  0  0  0
  -15.4646   -7.5774   17.9555 O   0  0  0  0  0  0  0  0  0  0  0  0
  -14.4025   -9.6540   18.6765 C   0  0  1  0  0  0  0  0  0  0  0  0
  -13.2335   -8.8317   18.6344 O   0  0  0  0  0  0  0  0  0  0  0  0
  -14.4251  -10.3966   19.9996 C   0  0  2  0  0  0  0  0  0  0  0  0
  -20.3508   -9.3325   15.4294 C   0  0  1  0  0  0  0  0  0  0  0  0
  -14.1633  -15.4970   21.4522 N   0  0  0  0  0  0  0  0  0  0  0  0
  -13.4576  -14.4335   21.9249 C   0  0  1  0  0  0  0  0  0  0  0  0
  -20.3254   -9.8580   16.8367 C   0  0  2  0  0  0  0  0  0  0  0  0
  -12.5477  -14.6530   22.9019 N   0  0  0  0  0  0  0  0  0  0  0  0
  -21.6744   -9.8233   17.3057 O   0  0  0  0  0  0  0  0  0  0  0  0
  -19.4342   -8.8929   17.5932 C   0  0  2  0  0  0  0  0  0  0  0  0
  -13.6291  -13.1631   21.4523 N   0  0  0  0  0  0  0  0  0  0  0  0
  -19.9152   -8.6543   18.9089 O   0  0  0  0  0  0  0  0  0  0  0  0
  -14.5302  -12.8905   20.4749 C   0  0  2  0  0  0  0  0  0  0  0  0
  -19.4745   -7.6110   16.7847 C   0  0  2  0  0  0  0  0  0  0  0  0
  -19.8642   -7.9916   15.4662 O   0  0  0  0  0  0  0  0  0  0  0  0
  -15.3187  -14.0072   19.9257 C   0  0  1  0  0  0  0  0  0  0  0  0
  -18.1259   -6.9019   16.7318 C   0  0  0  0  0  0  0  0  0  0  0  0
  -17.1733   -7.7566   16.0961 O   0  0  0  0  0  0  0  0  0  0  0  0
  -15.0891  -15.3549   20.4764 C   0  0  0  0  0  0  0  0  0  0  0  0
  -15.7857  -16.4215   20.0083 O   0  0  0  0  0  0  0  0  0  0  0  0
  -16.1195  -13.4926   18.9860 N   0  0  0  0  0  0  0  0  0  0  0  0
  -15.8697  -12.1517   18.9292 C   0  0  0  0  0  0  0  0  0  0  0  0
  -14.9201  -11.7868   19.8162 N   0  0  1  0  0  0  0  0  0  0  0  0
  -19.4637  -10.8670   10.5074 N   0  0  0  0  0  0  0  0  0  0  0  0
  -14.6803   -8.9142   15.6119 O   0  5  0  0  0  0  0  0  0  0  0  0
  -20.4002  -10.0090   10.9970 C   0  0  2  0  0  0  0  0  0  0  0  0
  -21.2700   -9.4158   10.1383 N   0  0  0  0  0  0  0  0  0  0  0  0
  -15.0879   -6.0381   15.6070 O   0  0  0  0  0  0  0  0  0  0  0  0
  -20.4937   -9.7240   12.3246 N   0  0  0  0  0  0  0  0  0  0  0  0
  -19.6516  -10.2783   13.2278 C   0  0  2  0  0  0  0  0  0  0  0  0
  -18.6211  -11.2148   12.7601 C   0  0  2  0  0  0  0  0  0  0  0  0
  -18.5727  -11.4893   11.3080 C   0  0  0  0  0  0  0  0  0  0  0  0
  -17.6578  -12.3418   10.7838 O   0  0  0  0  0  0  0  0  0  0  0  0
  -17.9419  -11.6173   13.8523 N   0  0  0  0  0  0  0  0  0  0  0  0
  -18.4917  -10.9850   14.9317 C   0  0  0  0  0  0  0  0  0  0  0  0
  -19.5156  -10.1873   14.5520 N   0  0  1  0  0  0  0  0  0  0  0  0
  1  3  1  6  0  0  0
  1  4  2  0  0  0  0
  1  6  1  0  0  0  0
  1 22  1  0  0  0  0
  2 28  1  0  0  0  0
  2 35  1  6  0  0  0
  2 38  2  0  0  0  0
  2 10  1  0  0  0  0
  5  6  1  0  0  0  0
  7  5  1  6  0  0  0
  7  8  1  0  0  0  0
  7  9  1  0  0  0  0
  9 10  1  6  0  0  0
  9 11  1  0  0  0  0
 11 12  1  1  0  0  0
 11 13  1  0  0  0  0
 13  8  1  1  0  0  0
 13 33  1  0  0  0  0
 14 46  1  0  0  0  0
 14 17  1  0  0  0  0
 14 25  1  1  0  0  0
 15 16  1  0  0  0  0
 15 29  1  0  0  0  0
 16 18  1  6  0  0  0
 16 21  1  0  0  0  0
 17 19  1  1  0  0  0
 17 20  1  0  0  0  0
 20 22  1  1  0  0  0
 20 24  1  0  0  0  0
 23 21  1  6  0  0  0
 23 26  1  0  0  0  0
 23 33  1  0  0  0  0
 24 25  1  6  0  0  0
 24 27  1  0  0  0  0
 26 29  1  1  0  0  0
 26 31  1  0  0  0  0
 27 28  1  0  0  0  0
 29 30  2  0  0  0  0
 31 32  1  0  0  0  0
 33 32  1  1  0  0  0
 34 36  1  0  0  0  0
 34 42  1  0  0  0  0
 36 37  1  6  0  0  0
 36 39  1  0  0  0  0
 40 39  1  1  0  0  0
 40 41  1  0  0  0  0
 40 46  1  0  0  0  0
 41 42  1  1  0  0  0
 41 44  1  0  0  0  0
 42 43  2  0  0  0  0
 44 45  1  0  0  0  0
 46 45  1  6  0  0  0
M  CHG  2   3  -1  35  -1
M  END
>  <CHROM.1>
-98.10690148,157.24836618,-17.31151626,-10.33229829,17.41721987,0.40327379
-1.01943611,0.83240584

>  <Name>
ligand

>  <RI>
-1

>  <Rbt.Current_Directory>
/home/itssahil/PROJECTS/Mol_Feturizer/Test_systems_manuscript/rnas/3mum

>  <Rbt.Executable>
rbdock ($Id: //depot/dev/client3/rdock/2013.1/src/exe/rbdock.cxx#4 $)

>  <Rbt.Library>
libRbt.so (2013.1, Build901 2013/11/27)

>  <Rbt.Parameter_File>
/export/apps/rDock/src/rDock_2013.1_src/data/scripts/dock_solv.prm

>  <Rbt.Receptor>
prm/blind_docking_100.prm

>  <SCORE>
3.94589

>  <SCORE.INTER>
0.276109

>  <SCORE.INTER.CONST>
1

>  <SCORE.INTER.POLAR>
0

>  <SCORE.INTER.ROT>
2

>  <SCORE.INTER.SOLV>
32.8046

>  <SCORE.INTER.VDW>
-15.6841

>  <SCORE.INTER.norm>
0.00600238

>  <SCORE.INTRA>
0.413831

>  <SCORE.INTRA.DIHEDRAL>
-0.0333682

>  <SCORE.INTRA.DIHEDRAL.0>
2.40424

>  <SCORE.INTRA.POLAR>
0

>  <SCORE.INTRA.POLAR.0>
0

>  <SCORE.INTRA.REPUL>
0

>  <SCORE.INTRA.REPUL.0>
0

>  <SCORE.INTRA.SOLV>
-0.002209

>  <SCORE.INTRA.SOLV.lig_0>
-134.169

>  <SCORE.INTRA.VDW>
0.43162

>  <SCORE.INTRA.VDW.0>
-2.18386

>  <SCORE.INTRA.norm>
0.00899633

>  <SCORE.RESTR>
3.25595

>  <SCORE.RESTR.CAVITY>
3.25595

>  <SCORE.RESTR.norm>
0.0707815

>  <SCORE.SYSTEM>
0

>  <SCORE.SYSTEM.CONST>
0

>  <SCORE.SYSTEM.DIHEDRAL>
0

>  <SCORE.SYSTEM.SOLV>
0

>  <SCORE.SYSTEM.norm>
0

>  <SCORE.heavy>
46

>  <SCORE.norm>
0.0857802

>  <RMSD>
15.904

$$$$
ligand
 OpenBabel02271912143D
libRbt.so/2013.1/901 2013/11/27
 46 52  0  0  0  0  0  0  0  0999 V2000
  -15.7929   -7.0866   16.3896 P   0  0  1  0  0  0  0  0  0  0  0  0
  -19.9195   -9.8154   19.5835 P   0  0  2  0  0  0  0  0  0  0  0  0
  -14.8229   -8.2728   15.4987 O   0  5  0  0  0  0  0  0  0  0  0  0
  -15.3173   -5.4151   15.9903 O   0  0  0  0  0  0  0  0  0  0  0  0
  -18.3791   -6.5857   16.6802 C   0  0  0  0  0  0  0  0  0  0  0  0
  -17.3461   -7.3262   16.0297 O   0  0  0  0  0  0  0  0  0  0  0  0
  -19.6877   -7.3349   16.5164 C   0  0  1  0  0  0  0  0  0  0  0  0
  -19.9092   -7.6111   15.1262 O   0  0  0  0  0  0  0  0  0  0  0  0
  -19.6948   -8.6890   17.2069 C   0  0  1  0  0  0  0  0  0  0  0  0
  -20.1808   -8.6071   18.5449 O   0  0  0  0  0  0  0  0  0  0  0  0
  -20.6043   -9.5228   16.3218 C   0  0  1  0  0  0  0  0  0  0  0  0
  -21.9624   -9.3868   16.7478 O   0  0  0  0  0  0  0  0  0  0  0  0
  -20.4685   -8.9202   14.9358 C   0  0  2  0  0  0  0  0  0  0  0  0
  -14.7889  -10.2988   19.7288 C   0  0  1  0  0  0  0  0  0  0  0  0
  -19.6866  -11.5814   10.4082 N   0  0  0  0  0  0  0  0  0  0  0  0
  -20.7932  -10.9089   10.8274 C   0  0  1  0  0  0  0  0  0  0  0  0
  -14.7735   -9.5184   18.4451 C   0  0  2  0  0  0  0  0  0  0  0  0
  -21.8740  -10.8859   10.0138 N   0  0  0  0  0  0  0  0  0  0  0  0
  -13.5487   -8.7829   18.4337 O   0  0  0  0  0  0  0  0  0  0  0  0
  -15.9832   -8.6091   18.5314 C   0  0  2  0  0  0  0  0  0  0  0  0
  -20.8552  -10.2639   12.0302 N   0  0  0  0  0  0  0  0  0  0  0  0
  -15.7179   -7.3271   17.9787 O   0  0  0  0  0  0  0  0  0  0  0  0
  -19.7979  -10.2558   12.8808 C   0  0  2  0  0  0  0  0  0  0  0  0
  -16.2723   -8.4860   20.0145 C   0  0  2  0  0  0  0  0  0  0  0  0
  -15.6693   -9.6247   20.6270 O   0  0  0  0  0  0  0  0  0  0  0  0
  -18.5755  -10.9719   12.4766 C   0  0  1  0  0  0  0  0  0  0  0  0
  -17.7643   -8.4705   20.3276 C   0  0  0  0  0  0  0  0  0  0  0  0
  -18.3444   -9.7041   19.8989 O   0  0  0  0  0  0  0  0  0  0  0  0
  -18.5691  -11.6483   11.1673 C   0  0  0  0  0  0  0  0  0  0  0  0
  -17.4713  -12.3243   10.7431 O   0  0  0  0  0  0  0  0  0  0  0  0
  -17.6923  -10.8250   13.4704 N   0  0  0  0  0  0  0  0  0  0  0  0
  -18.2933  -10.0760   14.4407 C   0  0  0  0  0  0  0  0  0  0  0  0
  -19.5520   -9.7341   14.0939 N   0  0  1  0  0  0  0  0  0  0  0  0
  -14.1227  -15.3295   21.0000 N   0  0  0  0  0  0  0  0  0  0  0  0
  -20.3017  -11.3972   18.8538 O   0  5  0  0  0  0  0  0  0  0  0  0
  -13.4761  -14.2224   21.4573 C   0  0  2  0  0  0  0  0  0  0  0  0
  -12.5000  -14.3629   22.3920 N   0  0  0  0  0  0  0  0  0  0  0  0
  -20.8090   -9.6372   21.1083 O   0  0  0  0  0  0  0  0  0  0  0  0
  -13.7772  -12.9737   21.0076 N   0  0  0  0  0  0  0  0  0  0  0  0
  -14.7439  -12.7693   20.0825 C   0  0  2  0  0  0  0  0  0  0  0  0
  -15.4752  -13.9260   19.5487 C   0  0  2  0  0  0  0  0  0  0  0  0
  -15.0996  -15.2572   20.0711 C   0  0  0  0  0  0  0  0  0  0  0  0
  -15.7171  -16.3832   19.6359 O   0  0  0  0  0  0  0  0  0  0  0  0
  -16.3572  -13.4434   18.6512 N   0  0  0  0  0  0  0  0  0  0  0  0
  -16.2049  -12.0860   18.6173 C   0  0  0  0  0  0  0  0  0  0  0  0
  -15.2366  -11.6889   19.4738 N   0  0  1  0  0  0  0  0  0  0  0  0
  1  3  1  6  0  0  0
  1  4  2  0  0  0  0
  1  6  1  0  0  0  0
  1 22  1  0  0  0  0
  2 28  1  0  0  0  0
  2 35  1  6  0  0  0
  2 38  2  0  0  0  0
  2 10  1  0  0  0  0
  5  6  1  0  0  0  0
  7  5  1  6  0  0  0
  7  8  1  0  0  0  0
  7  9  1  0  0  0  0
  9 10  1  1  0  0  0
  9 11  1  0  0  0  0
 11 12  1  1  0  0  0
 11 13  1  0  0  0  0
 13  8  1  1  0  0  0
 13 33  1  0  0  0  0
 14 46  1  0  0  0  0
 14 17  1  0  0  0  0
 14 25  1  1  0  0  0
 15 16  1  0  0  0  0
 15 29  1  0  0  0  0
 16 18  1  1  0  0  0
 16 21  1  0  0  0  0
 17 19  1  1  0  0  0
 17 20  1  0  0  0  0
 20 22  1  1  0  0  0
 20 24  1  0  0  0  0
 23 21  1  1  0  0  0
 23 26  1  0  0  0  0
 23 33  1  0  0  0  0
 24 25  1  1  0  0  0
 24 27  1  0  0  0  0
 26 29  1  6  0  0  0
 26 31  1  0  0  0  0
 27 28  1  0  0  0  0
 29 30  2  0  0  0  0
 31 32  1  0  0  0  0
 33 32  1  6  0  0  0
 34 36  1  0  0  0  0
 34 42  1  0  0  0  0
 36 37  1  1  0  0  0
 36 39  1  0  0  0  0
 40 39  1  6  0  0  0
 40 41  1  0  0  0  0
 40 46  1  0  0  0  0
 41 42  1  6  0  0  0
 41 44  1  0  0  0  0
 42 43  2  0  0  0  0
 44 45  1  0  0  0  0
 46 45  1  1  0  0  0
M  CHG  2   3  -1  35  -1
M  END
>  <CHROM.1>
-117.19321092,142.32311253,-17.51035317,-10.22459797,17.12863996,2.93396508
1.01692523,-2.55331652

>  <Name>
ligand

>  <RI>
-1

>  <Rbt.Current_Directory>
/home/itssahil/PROJECTS/Mol_Feturizer/Test_systems_manuscript/rnas/3mum

>  <Rbt.Executable>
rbdock ($Id: //depot/dev/client3/rdock/2013.1/src/exe/rbdock.cxx#4 $)

>  <Rbt.Library>
libRbt.so (2013.1, Build901 2013/11/27)

>  <Rbt.Parameter_File>
/export/apps/rDock/src/rDock_2013.1_src/data/scripts/dock_solv.prm

>  <Rbt.Receptor>
prm/blind_docking_80.prm

>  <SCORE>
-2.56641

>  <SCORE.INTER>
-3.8974

>  <SCORE.INTER.CONST>
1

>  <SCORE.INTER.POLAR>
0

>  <SCORE.INTER.ROT>
2

>  <SCORE.INTER.SOLV>
36.7393

>  <SCORE.INTER.VDW>
-19.778

>  <SCORE.INTER.norm>
-0.0847261

>  <SCORE.INTRA>
-0.0710076

>  <SCORE.INTRA.DIHEDRAL>
-0.0298787

>  <SCORE.INTRA.DIHEDRAL.0>
2.40424

>  <SCORE.INTRA.POLAR>
0

>  <SCORE.INTRA.POLAR.0>
0

>  <SCORE.INTRA.REPUL>
0

>  <SCORE.INTRA.REPUL.0>
0

>  <SCORE.INTRA.SOLV>
-0.00936132

>  <SCORE.INTRA.SOLV.lig_0>
-134.169

>  <SCORE.INTRA.VDW>
-0.0513876

>  <SCORE.INTRA.VDW.0>
-2.18386

>  <SCORE.INTRA.norm>
-0.00154364

>  <SCORE.RESTR>
1.402

>  <SCORE.RESTR.CAVITY>
1.402

>  <SCORE.RESTR.norm>
0.0304782

>  <SCORE.SYSTEM>
0

>  <SCORE.SYSTEM.CONST>
0

>  <SCORE.SYSTEM.DIHEDRAL>
0

>  <SCORE.SYSTEM.SOLV>
0

>  <SCORE.SYSTEM.norm>
0

>  <SCORE.heavy>
46

>  <SCORE.norm>
-0.0557915

>  <RMSD>
15.904

$$$$
ligand
 OpenBabel02271912143D
libRbt.so/2013.1/901 2013/11/27
 46 52  0  0  0  0  0  0  0  0999 V2000
  -15.8588   -6.9697   16.3436 P   0  0  1  0  0  0  0  0  0  0  0  0
  -20.0018   -9.7855   19.4393 P   0  0  2  0  0  0  0  0  0  0  0  0
  -14.8694   -8.1327   15.4434 O   0  5  0  0  0  0  0  0  0  0  0  0
  -15.3912   -5.2880   15.9798 O   0  0  0  0  0  0  0  0  0  0  0  0
  -18.4519   -6.4932   16.6123 C   0  0  0  0  0  0  0  0  0  0  0  0
  -17.4057   -7.2143   15.9611 O   0  0  0  0  0  0  0  0  0  0  0  0
  -19.7528   -7.2490   16.4197 C   0  0  1  0  0  0  0  0  0  0  0  0
  -19.9558   -7.5020   15.0223 O   0  0  0  0  0  0  0  0  0  0  0  0
  -19.7577   -8.6152   17.0859 C   0  0  1  0  0  0  0  0  0  0  0  0
  -20.2600   -8.5609   18.4193 O   0  0  0  0  0  0  0  0  0  0  0  0
  -20.6504   -9.4398   16.1753 C   0  0  1  0  0  0  0  0  0  0  0  0
  -22.0144   -9.3214   16.5875 O   0  0  0  0  0  0  0  0  0  0  0  0
  -20.5029   -8.8115   14.8020 C   0  0  2  0  0  0  0  0  0  0  0  0
  -14.8697  -10.2336   19.6369 C   0  0  1  0  0  0  0  0  0  0  0  0
  -19.7878  -11.8029   10.4739 N   0  0  0  0  0  0  0  0  0  0  0  0
  -20.9260  -11.2116   10.9290 C   0  0  1  0  0  0  0  0  0  0  0  0
  -14.8451   -9.4303   18.3675 C   0  0  2  0  0  0  0  0  0  0  0  0
  -22.0634  -11.3799   10.2157 N   0  0  0  0  0  0  0  0  0  0  0  0
  -13.6259   -8.6858   18.3838 O   0  0  0  0  0  0  0  0  0  0  0  0
  -16.0627   -8.5317   18.4556 C   0  0  2  0  0  0  0  0  0  0  0  0
  -20.9648  -10.4631   12.0713 N   0  0  0  0  0  0  0  0  0  0  0  0
  -15.8005   -7.2381   17.9290 O   0  0  0  0  0  0  0  0  0  0  0  0
  -19.8513  -10.2628   12.8207 C   0  0  2  0  0  0  0  0  0  0  0  0
  -16.3700   -8.4372   19.9372 C   0  0  2  0  0  0  0  0  0  0  0  0
  -15.7657   -9.5822   20.5364 O   0  0  0  0  0  0  0  0  0  0  0  0
  -18.5922  -10.8838   12.3740 C   0  0  1  0  0  0  0  0  0  0  0  0
  -17.8657   -8.4384   20.2327 C   0  0  0  0  0  0  0  0  0  0  0  0
  -18.4314   -9.6683   19.7753 O   0  0  0  0  0  0  0  0  0  0  0  0
  -18.6135  -11.6795   11.1336 C   0  0  0  0  0  0  0  0  0  0  0  0
  -17.4839  -12.2756   10.6746 O   0  0  0  0  0  0  0  0  0  0  0  0
  -17.6555  -10.5504   13.2686 N   0  0  0  0  0  0  0  0  0  0  0  0
  -18.2580   -9.7776   14.2190 C   0  0  0  0  0  0  0  0  0  0  0  0
  -19.5704   -9.6034   13.9567 N   0  0  1  0  0  0  0  0  0  0  0  0
  -14.3659  -15.2591   21.0006 N   0  0  0  0  0  0  0  0  0  0  0  0
  -20.3633  -11.3569   18.6771 O   0  5  0  0  0  0  0  0  0  0  0  0
  -13.7548  -14.1534   21.5074 C   0  0  2  0  0  0  0  0  0  0  0  0
  -12.8700  -14.2939   22.5289 N   0  0  0  0  0  0  0  0  0  0  0  0
  -20.9105   -9.6412   20.9563 O   0  0  0  0  0  0  0  0  0  0  0  0
  -14.0027  -12.9060   21.0228 N   0  0  0  0  0  0  0  0  0  0  0  0
  -14.8784  -12.7015   20.0112 C   0  0  2  0  0  0  0  0  0  0  0  0
  -15.5673  -13.8567   19.4208 C   0  0  2  0  0  0  0  0  0  0  0  0
  -15.2526  -15.1865   19.9853 C   0  0  0  0  0  0  0  0  0  0  0  0
  -15.8370  -16.3112   19.5033 O   0  0  0  0  0  0  0  0  0  0  0  0
  -16.3589  -13.3745   18.4424 N   0  0  0  0  0  0  0  0  0  0  0  0
  -16.1926  -12.0186   18.4128 C   0  0  0  0  0  0  0  0  0  0  0  0
  -15.3038  -11.6223   19.3519 N   0  0  1  0  0  0  0  0  0  0  0  0
  1  3  1  6  0  0  0
  1  4  2  0  0  0  0
  1  6  1  0  0  0  0
  1 22  1  0  0  0  0
  2 28  1  0  0  0  0
  2 35  1  6  0  0  0
  2 38  2  0  0  0  0
  2 10  1  0  0  0  0
  5  6  1  0  0  0  0
  7  5  1  6  0  0  0
  7  8  1  0  0  0  0
  7  9  1  0  0  0  0
  9 10  1  1  0  0  0
  9 11  1  0  0  0  0
 11 12  1  1  0  0  0
 11 13  1  0  0  0  0
 13  8  1  1  0  0  0
 13 33  1  0  0  0  0
 14 46  1  0  0  0  0
 14 17  1  0  0  0  0
 14 25  1  1  0  0  0
 15 16  1  0  0  0  0
 15 29  1  0  0  0  0
 16 18  1  1  0  0  0
 16 21  1  0  0  0  0
 17 19  1  1  0  0  0
 17 20  1  0  0  0  0
 20 22  1  1  0  0  0
 20 24  1  0  0  0  0
 23 21  1  1  0  0  0
 23 26  1  0  0  0  0
 23 33  1  0  0  0  0
 24 25  1  1  0  0  0
 24 27  1  0  0  0  0
 26 29  1  6  0  0  0
 26 31  1  0  0  0  0
 27 28  1  0  0  0  0
 29 30  2  0  0  0  0
 31 32  1  0  0  0  0
 33 32  1  6  0  0  0
 34 36  1  0  0  0  0
 34 42  1  0  0  0  0
 36 37  1  1  0  0  0
 36 39  1  0  0  0  0
 40 39  1  6  0  0  0
 40 41  1  0  0  0  0
 40 46  1  0  0  0  0
 41 42  1  6  0  0  0
 41 44  1  0  0  0  0
 42 43  2  0  0  0  0
 44 45  1  0  0  0  0
 46 45  1  1  0  0  0
M  CHG  2   3  -1  35  -1
M  END
>  <CHROM.1>
-127.37722974,147.23346716,-17.59636322,-10.17567487,17.05089009,3.04305922
1.03126530,-2.69679490

>  <Name>
ligand

>  <RI>
-1

>  <Rbt.Current_Directory>
/home/itssahil/PROJECTS/Mol_Feturizer/Test_systems_manuscript/rnas/3mum

>  <Rbt.Executable>
rbdock ($Id: //depot/dev/client3/rdock/2013.1/src/exe/rbdock.cxx#4 $)

>  <Rbt.Library>
libRbt.so (2013.1, Build901 2013/11/27)

>  <Rbt.Parameter_File>
/export/apps/rDock/src/rDock_2013.1_src/data/scripts/dock_solv.prm

>  <Rbt.Receptor>
prm/blind_docking_100.prm

>  <SCORE>
-0.788199

>  <SCORE.INTER>
-2.23098

>  <SCORE.INTER.CONST>
1

>  <SCORE.INTER.POLAR>
0

>  <SCORE.INTER.ROT>
2

>  <SCORE.INTER.SOLV>
36.9598

>  <SCORE.INTER.VDW>
-18.7406

>  <SCORE.INTER.norm>
-0.0484996

>  <SCORE.INTRA>
-0.0579642

>  <SCORE.INTRA.DIHEDRAL>
-0.0300532

>  <SCORE.INTRA.DIHEDRAL.0>
2.40424

>  <SCORE.INTRA.POLAR>
0

>  <SCORE.INTRA.POLAR.0>
0

>  <SCORE.INTRA.REPUL>
0

>  <SCORE.INTRA.REPUL.0>
0

>  <SCORE.INTRA.SOLV>
0.0251959

>  <SCORE.INTRA.SOLV.lig_0>
-134.169

>  <SCORE.INTRA.VDW>
-0.0555355

>  <SCORE.INTRA.VDW.0>
-2.18386

>  <SCORE.INTRA.norm>
-0.00126009

>  <SCORE.RESTR>
1.50075

>  <SCORE.RESTR.CAVITY>
1.50075

>  <SCORE.RESTR.norm>
0.032625

>  <SCORE.SYSTEM>
0

>  <SCORE.SYSTEM.CONST>
0

>  <SCORE.SYSTEM.DIHEDRAL>
0

>  <SCORE.SYSTEM.SOLV>
0

>  <SCORE.SYSTEM.norm>
0

>  <SCORE.heavy>
46

>  <SCORE.norm>
-0.0171348

>  <RMSD>
15.906

$$$$
ligand
 OpenBabel02271912143D
libRbt.so/2013.1/901 2013/11/27
 46 52  0  0  0  0  0  0  0  0999 V2000
  -15.8574   -6.9647   16.3421 P   0  0  1  0  0  0  0  0  0  0  0  0
  -20.0012   -9.7812   19.4360 P   0  0  2  0  0  0  0  0  0  0  0  0
  -14.8680   -8.1274   15.4416 O   0  5  0  0  0  0  0  0  0  0  0  0
  -15.3896   -5.2828   15.9790 O   0  0  0  0  0  0  0  0  0  0  0  0
  -18.4505   -6.4880   16.6106 C   0  0  0  0  0  0  0  0  0  0  0  0
  -17.4043   -7.2089   15.9592 O   0  0  0  0  0  0  0  0  0  0  0  0
  -19.7515   -7.2435   16.4175 C   0  0  1  0  0  0  0  0  0  0  0  0
  -19.9543   -7.4959   15.0199 O   0  0  0  0  0  0  0  0  0  0  0  0
  -19.7566   -8.6100   17.0832 C   0  0  1  0  0  0  0  0  0  0  0  0
  -20.2591   -8.5561   18.4165 O   0  0  0  0  0  0  0  0  0  0  0  0
  -20.6493   -9.4341   16.1721 C   0  0  1  0  0  0  0  0  0  0  0  0
  -22.0133   -9.3158   16.5841 O   0  0  0  0  0  0  0  0  0  0  0  0
  -20.5015   -8.8053   14.7991 C   0  0  2  0  0  0  0  0  0  0  0  0
  -14.8692  -10.2299   19.6343 C   0  0  1  0  0  0  0  0  0  0  0  0
  -19.8021  -11.8596   10.5125 N   0  0  0  0  0  0  0  0  0  0  0  0
  -20.9429  -11.2785   10.9743 C   0  0  1  0  0  0  0  0  0  0  0  0
  -14.8443   -9.4262   18.3652 C   0  0  2  0  0  0  0  0  0  0  0  0
  -22.0877  -11.4769   10.2811 N   0  0  0  0  0  0  0  0  0  0  0  0
  -13.6250   -8.6817   18.3820 O   0  0  0  0  0  0  0  0  0  0  0  0
  -16.0618   -8.5274   18.4535 C   0  0  2  0  0  0  0  0  0  0  0  0
  -20.9769  -10.5110   12.1042 N   0  0  0  0  0  0  0  0  0  0  0  0
  -15.7994   -7.2336   17.9275 O   0  0  0  0  0  0  0  0  0  0  0  0
  -19.8558  -10.2803   12.8333 C   0  0  2  0  0  0  0  0  0  0  0  0
  -16.3694   -8.4335   19.9350 C   0  0  2  0  0  0  0  0  0  0  0  0
  -15.7652   -9.5787   20.5339 O   0  0  0  0  0  0  0  0  0  0  0  0
  -18.5937  -10.8891   12.3786 C   0  0  1  0  0  0  0  0  0  0  0  0
  -17.8651   -8.4346   20.2304 C   0  0  0  0  0  0  0  0  0  0  0  0
  -18.4309   -9.6643   19.7724 O   0  0  0  0  0  0  0  0  0  0  0  0
  -18.6204  -11.7064   11.1525 C   0  0  0  0  0  0  0  0  0  0  0  0
  -17.4883  -12.2926   10.6869 O   0  0  0  0  0  0  0  0  0  0  0  0
  -17.6494  -10.5256   13.2534 N   0  0  0  0  0  0  0  0  0  0  0  0
  -18.2502   -9.7460   14.1993 C   0  0  0  0  0  0  0  0  0  0  0  0
  -19.5689   -9.5970   13.9536 N   0  0  1  0  0  0  0  0  0  0  0  0
  -14.3733  -15.2550   21.0022 N   0  0  0  0  0  0  0  0  0  0  0  0
  -20.3628  -11.3522   18.6732 O   0  5  0  0  0  0  0  0  0  0  0  0
  -13.7629  -14.1495   21.5104 C   0  0  2  0  0  0  0  0  0  0  0  0
  -12.8815  -14.2901   22.5347 N   0  0  0  0  0  0  0  0  0  0  0  0
  -20.9101   -9.6373   20.9530 O   0  0  0  0  0  0  0  0  0  0  0  0
  -14.0084  -12.9021   21.0244 N   0  0  0  0  0  0  0  0  0  0  0  0
  -14.8809  -12.6976   20.0099 C   0  0  2  0  0  0  0  0  0  0  0  0
  -15.5687  -13.8527   19.4180 C   0  0  2  0  0  0  0  0  0  0  0  0
  -15.2567  -15.1824   19.9842 C   0  0  0  0  0  0  0  0  0  0  0  0
  -15.8404  -16.3068   19.5010 O   0  0  0  0  0  0  0  0  0  0  0  0
  -16.3569  -13.3704   18.4369 N   0  0  0  0  0  0  0  0  0  0  0  0
  -16.1896  -12.0146   18.4071 C   0  0  0  0  0  0  0  0  0  0  0  0
  -15.3034  -11.6184   19.3487 N   0  0  1  0  0  0  0  0  0  0  0  0
  1  3  1  6  0  0  0
  1  4  2  0  0  0  0
  1  6  1  0  0  0  0
  1 22  1  0  0  0  0
  2 28  1  0  0  0  0
  2 35  1  6  0  0  0
  2 38  2  0  0  0  0
  2 10  1  0  0  0  0
  5  6  1  0  0  0  0
  7  5  1  6  0  0  0
  7  8  1  0  0  0  0
  7  9  1  0  0  0  0
  9 10  1  1  0  0  0
  9 11  1  0  0  0  0
 11 12  1  1  0  0  0
 11 13  1  0  0  0  0
 13  8  1  1  0  0  0
 13 33  1  0  0  0  0
 14 46  1  0  0  0  0
 14 17  1  0  0  0  0
 14 25  1  1  0  0  0
 15 16  1  0  0  0  0
 15 29  1  0  0  0  0
 16 18  1  1  0  0  0
 16 21  1  0  0  0  0
 17 19  1  1  0  0  0
 17 20  1  0  0  0  0
 20 22  1  1  0  0  0
 20 24  1  0  0  0  0
 23 21  1  1  0  0  0
 23 26  1  0  0  0  0
 23 33  1  0  0  0  0
 24 25  1  1  0  0  0
 24 27  1  0  0  0  0
 26 29  1  6  0  0  0
 26 31  1  0  0  0  0
 27 28  1  0  0  0  0
 29 30  2  0  0  0  0
 31 32  1  0  0  0  0
 33 32  1  6  0  0  0
 34 36  1  0  0  0  0
 34 42  1  0  0  0  0
 36 37  1  1  0  0  0
 36 39  1  0  0  0  0
 40 39  1  6  0  0  0
 40 41  1  0  0  0  0
 40 46  1  0  0  0  0
 41 42  1  6  0  0  0
 41 44  1  0  0  0  0
 42 43  2  0  0  0  0
 44 45  1  0  0  0  0
 46 45  1  1  0  0  0
M  CHG  2   3  -1  35  -1
M  END
>  <CHROM.1>
-128.98299815,147.41403085,-17.59796438,-10.17753710,17.05315608,3.05714852
1.02965050,-2.71544188

>  <Name>
ligand

>  <RI>
-1

>  <Rbt.Current_Directory>
/home/itssahil/PROJECTS/Mol_Feturizer/Test_systems_manuscript/rnas/3mum

>  <Rbt.Executable>
rbdock ($Id: //depot/dev/client3/rdock/2013.1/src/exe/rbdock.cxx#4 $)

>  <Rbt.Library>
libRbt.so (2013.1, Build901 2013/11/27)

>  <Rbt.Parameter_File>
/export/apps/rDock/src/rDock_2013.1_src/data/scripts/dock_solv.prm

>  <Rbt.Receptor>
prm/blind_docking_100.prm

>  <SCORE>
-0.715802

>  <SCORE.INTER>
-2.13057

>  <SCORE.INTER.CONST>
1

>  <SCORE.INTER.POLAR>
0

>  <SCORE.INTER.ROT>
2

>  <SCORE.INTER.SOLV>
37.1268

>  <SCORE.INTER.VDW>
-18.7293

>  <SCORE.INTER.norm>
-0.0463168

>  <SCORE.INTRA>
-0.0611047

>  <SCORE.INTRA.DIHEDRAL>
-0.0298195

>  <SCORE.INTRA.DIHEDRAL.0>
2.40424

>  <SCORE.INTRA.POLAR>
0

>  <SCORE.INTRA.POLAR.0>
0

>  <SCORE.INTRA.REPUL>
0

>  <SCORE.INTRA.REPUL.0>
0

>  <SCORE.INTRA.SOLV>
0.0287601

>  <SCORE.INTRA.SOLV.lig_0>
-134.169

>  <SCORE.INTRA.VDW>
-0.060575

>  <SCORE.INTRA.VDW.0>
-2.18386

>  <SCORE.INTRA.norm>
-0.00132836

>  <SCORE.RESTR>
1.47587

>  <SCORE.RESTR.CAVITY>
1.47587

>  <SCORE.RESTR.norm>
0.0320842

>  <SCORE.SYSTEM>
0

>  <SCORE.SYSTEM.CONST>
0

>  <SCORE.SYSTEM.DIHEDRAL>
0

>  <SCORE.SYSTEM.SOLV>
0

>  <SCORE.SYSTEM.norm>
0

>  <SCORE.heavy>
46

>  <SCORE.norm>
-0.0155609

>  <RMSD>
15.908

$$$$
ligand
 OpenBabel02271912143D
libRbt.so/2013.1/901 2013/11/27
 46 52  0  0  0  0  0  0  0  0999 V2000
  -19.6065   -9.6956   20.0919 P   0  0  1  0  0  0  0  0  0  0  0  0
  -15.5928   -7.5703   16.3437 P   0  0  2  0  0  0  0  0  0  0  0  0
  -20.0455  -11.3537   19.6451 O   0  5  0  0  0  0  0  0  0  0  0  0
  -20.4180   -9.1827   21.5945 O   0  0  0  0  0  0  0  0  0  0  0  0
  -17.3449   -8.3843   20.5271 C   0  0  0  0  0  0  0  0  0  0  0  0
  -18.0057   -9.6235   20.2694 O   0  0  0  0  0  0  0  0  0  0  0  0
  -15.8794   -8.5332   20.1653 C   0  0  1  0  0  0  0  0  0  0  0  0
  -15.3341   -9.6748   20.8416 O   0  0  0  0  0  0  0  0  0  0  0  0
  -15.6496   -8.7886   18.6846 C   0  0  1  0  0  0  0  0  0  0  0  0
  -15.4646   -7.5787   17.9531 O   0  0  0  0  0  0  0  0  0  0  0  0
  -14.4030   -9.6558   18.6736 C   0  0  1  0  0  0  0  0  0  0  0  0
  -13.2340   -8.8335   18.6326 O   0  0  0  0  0  0  0  0  0  0  0  0
  -14.4264  -10.3990   19.9964 C   0  0  2  0  0  0  0  0  0  0  0  0
  -20.3496   -9.3321   15.4237 C   0  0  1  0  0  0  0  0  0  0  0  0
  -14.1659  -15.5001   21.4466 N   0  0  0  0  0  0  0  0  0  0  0  0
  -13.4604  -14.4370   21.9203 C   0  0  1  0  0  0  0  0  0  0  0  0
  -20.3250   -9.8583   16.8308 C   0  0  2  0  0  0  0  0  0  0  0  0
  -12.5510  -14.6570   22.8977 N   0  0  0  0  0  0  0  0  0  0  0  0
  -21.6743   -9.8237   17.2990 O   0  0  0  0  0  0  0  0  0  0  0  0
  -19.4342   -8.8937   17.5882 C   0  0  2  0  0  0  0  0  0  0  0  0
  -13.6315  -13.1663   21.4482 N   0  0  0  0  0  0  0  0  0  0  0  0
  -19.9158   -8.6557   18.9038 O   0  0  0  0  0  0  0  0  0  0  0  0
  -14.5321  -12.8931   20.4705 C   0  0  2  0  0  0  0  0  0  0  0  0
  -19.4739   -7.6114   16.7803 C   0  0  2  0  0  0  0  0  0  0  0  0
  -19.8629   -7.9912   15.4614 O   0  0  0  0  0  0  0  0  0  0  0  0
  -15.3203  -14.0095   19.9202 C   0  0  1  0  0  0  0  0  0  0  0  0
  -18.1252   -6.9024   16.7284 C   0  0  0  0  0  0  0  0  0  0  0  0
  -17.1723   -7.7568   16.0928 O   0  0  0  0  0  0  0  0  0  0  0  0
  -15.0912  -15.3574   20.4704 C   0  0  0  0  0  0  0  0  0  0  0  0
  -15.7876  -16.4238   20.0014 O   0  0  0  0  0  0  0  0  0  0  0  0
  -16.1205  -13.4943   18.9804 N   0  0  0  0  0  0  0  0  0  0  0  0
  -15.8706  -12.1534   18.9243 C   0  0  0  0  0  0  0  0  0  0  0  0
  -14.9215  -11.7891   19.8120 N   0  0  1  0  0  0  0  0  0  0  0  0
  -19.4854  -10.8938   10.5061 N   0  0  0  0  0  0  0  0  0  0  0  0
  -14.6792   -8.9144   15.6093 O   0  5  0  0  0  0  0  0  0  0  0  0
  -20.4250  -10.0396   10.9965 C   0  0  2  0  0  0  0  0  0  0  0  0
  -21.3054   -9.4591   10.1399 N   0  0  0  0  0  0  0  0  0  0  0  0
  -15.0865   -6.0383   15.6056 O   0  0  0  0  0  0  0  0  0  0  0  0
  -20.5114   -9.7462   12.3227 N   0  0  0  0  0  0  0  0  0  0  0  0
  -19.6586  -10.2877   13.2237 C   0  0  2  0  0  0  0  0  0  0  0  0
  -18.6243  -11.2195   12.7551 C   0  0  2  0  0  0  0  0  0  0  0  0
  -18.5840  -11.5037   11.3047 C   0  0  0  0  0  0  0  0  0  0  0  0
  -17.6663  -12.3528   10.7799 O   0  0  0  0  0  0  0  0  0  0  0  0
  -17.9344  -11.6092   13.8453 N   0  0  0  0  0  0  0  0  0  0  0  0
  -18.4814  -10.9737   14.9242 C   0  0  0  0  0  0  0  0  0  0  0  0
  -19.5141  -10.1865   14.5463 N   0  0  1  0  0  0  0  0  0  0  0  0
  1  3  1  6  0  0  0
  1  4  2  0  0  0  0
  1  6  1  0  0  0  0
  1 22  1  0  0  0  0
  2 28  1  0  0  0  0
  2 35  1  6  0  0  0
  2 38  2  0  0  0  0
  2 10  1  0  0  0  0
  5  6  1  0  0  0  0
  7  5  1  6  0  0  0
  7  8  1  0  0  0  0
  7  9  1  0  0  0  0
  9 10  1  6  0  0  0
  9 11  1  0  0  0  0
 11 12  1  1  0  0  0
 11 13  1  0  0  0  0
 13  8  1  1  0  0  0
 13 33  1  0  0  0  0
 14 46  1  0  0  0  0
 14 17  1  0  0  0  0
 14 25  1  1  0  0  0
 15 16  1  0  0  0  0
 15 29  1  0  0  0  0
 16 18  1  6  0  0  0
 16 21  1  0  0  0  0
 17 19  1  1  0  0  0
 17 20  1  0  0  0  0
 20 22  1  1  0  0  0
 20 24  1  0  0  0  0
 23 21  1  6  0  0  0
 23 26  1  0  0  0  0
 23 33  1  0  0  0  0
 24 25  1  6  0  0  0
 24 27  1  0  0  0  0
 26 29  1  1  0  0  0
 26 31  1  0  0  0  0
 27 28  1  0  0  0  0
 29 30  2  0  0  0  0
 31 32  1  0  0  0  0
 33 32  1  1  0  0  0
 34 36  1  0  0  0  0
 34 42  1  0  0  0  0
 36 37  1  6  0  0  0
 36 39  1  0  0  0  0
 40 39  1  1  0  0  0
 40 41  1  0  0  0  0
 40 46  1  0  0  0  0
 41 42  1  1  0  0  0
 41 44  1  0  0  0  0
 42 43  2  0  0  0  0
 44 45  1  0  0  0  0
 46 45  1  6  0  0  0
M  CHG  2   3  -1  35  -1
M  END
>  <CHROM.1>
-98.10359268,156.49548563,-17.31426051,-10.33638089,17.41309510,0.39402394
-1.02016782,0.82014751

>  <Name>
ligand

>  <RI>
-1

>  <Rbt.Current_Directory>
/home/itssahil/PROJECTS/Mol_Feturizer/Test_systems_manuscript/rnas/3mum

>  <Rbt.Executable>
rbdock ($Id: //depot/dev/client3/rdock/2013.1/src/exe/rbdock.cxx#4 $)

>  <Rbt.Library>
libRbt.so (2013.1, Build901 2013/11/27)

>  <Rbt.Parameter_File>
/export/apps/rDock/src/rDock_2013.1_src/data/scripts/dock_solv.prm

>  <Rbt.Receptor>
prm/blind_docking_100.prm

>  <SCORE>
3.93864

>  <SCORE.INTER>
0.282297

>  <SCORE.INTER.CONST>
1

>  <SCORE.INTER.POLAR>
0

>  <SCORE.INTER.ROT>
2

>  <SCORE.INTER.SOLV>
32.822

>  <SCORE.INTER.VDW>
-15.6858

>  <SCORE.INTER.norm>
0.00613689

>  <SCORE.INTRA>
0.401235

>  <SCORE.INTRA.DIHEDRAL>
-0.0337277

>  <SCORE.INTRA.DIHEDRAL.0>
2.40424

>  <SCORE.INTRA.POLAR>
0

>  <SCORE.INTRA.POLAR.0>
0

>  <SCORE.INTRA.REPUL>
0

>  <SCORE.INTRA.REPUL.0>
0

>  <SCORE.INTRA.SOLV>
-0.00314411

>  <SCORE.INTRA.SOLV.lig_0>
-134.169

>  <SCORE.INTRA.VDW>
0.419671

>  <SCORE.INTRA.VDW.0>
-2.18386

>  <SCORE.INTRA.norm>
0.0087225

>  <SCORE.RESTR>
3.25511

>  <SCORE.RESTR.CAVITY>
3.25511

>  <SCORE.RESTR.norm>
0.0707632

>  <SCORE.SYSTEM>
0

>  <SCORE.SYSTEM.CONST>
0

>  <SCORE.SYSTEM.DIHEDRAL>
0

>  <SCORE.SYSTEM.SOLV>
0

>  <SCORE.SYSTEM.norm>
0

>  <SCORE.heavy>
46

>  <SCORE.norm>
0.0856226

>  <RMSD>
15.908

$$$$
ligand
 OpenBabel02271912143D
libRbt.so/2013.1/901 2013/11/27
 46 52  0  0  0  0  0  0  0  0999 V2000
  -15.8415   -7.0209   16.4052 P   0  0  1  0  0  0  0  0  0  0  0  0
  -19.9689   -9.8129   19.5431 P   0  0  2  0  0  0  0  0  0  0  0  0
  -14.8612   -8.1903   15.5034 O   0  5  0  0  0  0  0  0  0  0  0  0
  -15.3727   -5.3420   16.0303 O   0  0  0  0  0  0  0  0  0  0  0  0
  -18.4316   -6.5372   16.6900 C   0  0  0  0  0  0  0  0  0  0  0  0
  -17.3917   -7.2637   16.0348 O   0  0  0  0  0  0  0  0  0  0  0  0
  -19.7355   -7.2908   16.5101 C   0  0  1  0  0  0  0  0  0  0  0  0
  -19.9490   -7.5497   15.1154 O   0  0  0  0  0  0  0  0  0  0  0  0
  -19.7388   -8.6539   17.1827 C   0  0  1  0  0  0  0  0  0  0  0  0
  -20.2315   -8.5923   18.5193 O   0  0  0  0  0  0  0  0  0  0  0  0
  -20.6398   -9.4806   16.2822 C   0  0  1  0  0  0  0  0  0  0  0  0
  -22.0006   -9.3572   16.7035 O   0  0  0  0  0  0  0  0  0  0  0  0
  -20.5006   -8.8590   14.9050 C   0  0  2  0  0  0  0  0  0  0  0  0
  -14.8366  -10.2719   19.7065 C   0  0  1  0  0  0  0  0  0  0  0  0
  -19.7570  -11.6523   10.4511 N   0  0  0  0  0  0  0  0  0  0  0  0
  -20.8804  -11.0219   10.8903 C   0  0  1  0  0  0  0  0  0  0  0  0
  -14.8191   -9.4745   18.4332 C   0  0  2  0  0  0  0  0  0  0  0  0
  -21.9921  -11.0866   10.1218 N   0  0  0  0  0  0  0  0  0  0  0  0
  -13.5982   -8.7327   18.4375 O   0  0  0  0  0  0  0  0  0  0  0  0
  -16.0340   -8.5727   18.5258 C   0  0  2  0  0  0  0  0  0  0  0  0
  -20.9293  -10.3341   12.0699 N   0  0  0  0  0  0  0  0  0  0  0  0
  -15.7727   -7.2821   17.9914 O   0  0  0  0  0  0  0  0  0  0  0  0
  -19.8413  -10.2380   12.8752 C   0  0  2  0  0  0  0  0  0  0  0  0
  -16.3306   -8.4707   20.0090 C   0  0  2  0  0  0  0  0  0  0  0  0
  -15.7247   -9.6143   20.6093 O   0  0  0  0  0  0  0  0  0  0  0  0
  -18.5994  -10.9054   12.4478 C   0  0  1  0  0  0  0  0  0  0  0  0
  -17.8242   -8.4670   20.3152 C   0  0  0  0  0  0  0  0  0  0  0  0
  -18.3959   -9.6977   19.8675 O   0  0  0  0  0  0  0  0  0  0  0  0
  -18.6085  -11.6315   11.1653 C   0  0  0  0  0  0  0  0  0  0  0  0
  -17.4938  -12.2661   10.7215 O   0  0  0  0  0  0  0  0  0  0  0  0
  -17.6869  -10.6741   13.3980 N   0  0  0  0  0  0  0  0  0  0  0  0
  -18.2882   -9.9196   14.3638 C   0  0  0  0  0  0  0  0  0  0  0  0
  -19.5759   -9.6570   14.0568 N   0  0  1  0  0  0  0  0  0  0  0  0
  -14.1342  -15.3174   20.8973 N   0  0  0  0  0  0  0  0  0  0  0  0
  -20.3394  -11.3869   18.7907 O   0  5  0  0  0  0  0  0  0  0  0  0
  -13.4937  -14.2133   21.3703 C   0  0  2  0  0  0  0  0  0  0  0  0
  -12.5142  -14.3619   22.3001 N   0  0  0  0  0  0  0  0  0  0  0  0
  -20.8665   -9.6594   21.0658 O   0  0  0  0  0  0  0  0  0  0  0  0
  -13.8041  -12.9597   20.9408 N   0  0  0  0  0  0  0  0  0  0  0  0
  -14.7746  -12.7473   20.0215 C   0  0  2  0  0  0  0  0  0  0  0  0
  -15.4997  -13.9003   19.4716 C   0  0  2  0  0  0  0  0  0  0  0  0
  -15.1140  -15.2370   19.9723 C   0  0  0  0  0  0  0  0  0  0  0  0
  -15.7253  -16.3601   19.5212 O   0  0  0  0  0  0  0  0  0  0  0  0
  -16.3872  -13.4096   18.5839 N   0  0  0  0  0  0  0  0  0  0  0  0
  -16.2438  -12.0508   18.5708 C   0  0  0  0  0  0  0  0  0  0  0  0
  -15.2759  -11.6608   19.4310 N   0  0  1  0  0  0  0  0  0  0  0  0
  1  3  1  6  0  0  0
  1  4  2  0  0  0  0
  1  6  1  0  0  0  0
  1 22  1  0  0  0  0
  2 28  1  0  0  0  0
  2 35  1  6  0  0  0
  2 38  2  0  0  0  0
  2 10  1  0  0  0  0
  5  6  1  0  0  0  0
  7  5  1  6  0  0  0
  7  8  1  0  0  0  0
  7  9  1  0  0  0  0
  9 10  1  1  0  0  0
  9 11  1  0  0  0  0
 11 12  1  1  0  0  0
 11 13  1  0  0  0  0
 13  8  1  1  0  0  0
 13 33  1  0  0  0  0
 14 46  1  0  0  0  0
 14 17  1  0  0  0  0
 14 25  1  1  0  0  0
 15 16  1  0  0  0  0
 15 29  1  0  0  0  0
 16 18  1  1  0  0  0
 16 21  1  0  0  0  0
 17 19  1  1  0  0  0
 17 20  1  0  0  0  0
 20 22  1  1  0  0  0
 20 24  1  0  0  0  0
 23 21  1  1  0  0  0
 23 26  1  0  0  0  0
 23 33  1  0  0  0  0
 24 25  1  1  0  0  0
 24 27  1  0  0  0  0
 26 29  1  6  0  0  0
 26 31  1  0  0  0  0
 27 28  1  0  0  0  0
 29 30  2  0  0  0  0
 31 32  1  0  0  0  0
 33 32  1  6  0  0  0
 34 36  1  0  0  0  0
 34 42  1  0  0  0  0
 36 37  1  1  0  0  0
 36 39  1  0  0  0  0
 40 39  1  6  0  0  0
 40 41  1  0  0  0  0
 40 46  1  0  0  0  0
 41 42  1  6  0  0  0
 41 44  1  0  0  0  0
 42 43  2  0  0  0  0
 44 45  1  0  0  0  0
 46 45  1  1  0  0  0
M  CHG  2   3  -1  35  -1
M  END
>  <CHROM.1>
-121.96175898,141.87437931,-17.55226298,-10.19859850,17.10399550,2.95924936
1.01023569,-2.58151453

>  <Name>
ligand

>  <RI>
-1

>  <Rbt.Current_Directory>
/home/itssahil/PROJECTS/Mol_Feturizer/Test_systems_manuscript/rnas/3mum

>  <Rbt.Executable>
rbdock ($Id: //depot/dev/client3/rdock/2013.1/src/exe/rbdock.cxx#4 $)

>  <Rbt.Library>
libRbt.so (2013.1, Build901 2013/11/27)

>  <Rbt.Parameter_File>
/export/apps/rDock/src/rDock_2013.1_src/data/scripts/dock_solv.prm

>  <Rbt.Receptor>
prm/blind_docking_40.prm

>  <SCORE>
-1.47063

>  <SCORE.INTER>
-3.54645

>  <SCORE.INTER.CONST>
1

>  <SCORE.INTER.POLAR>
0

>  <SCORE.INTER.ROT>
2

>  <SCORE.INTER.SOLV>
37.0719

>  <SCORE.INTER.VDW>
-19.6549

>  <SCORE.INTER.norm>
-0.0770967

>  <SCORE.INTRA>
-0.100099

>  <SCORE.INTRA.DIHEDRAL>
-0.0287047

>  <SCORE.INTRA.DIHEDRAL.0>
2.40424

>  <SCORE.INTRA.POLAR>
0

>  <SCORE.INTRA.POLAR.0>
0

>  <SCORE.INTRA.REPUL>
0

>  <SCORE.INTRA.REPUL.0>
0

>  <SCORE.INTRA.SOLV>
0.00523278

>  <SCORE.INTRA.SOLV.lig_0>
-134.169

>  <SCORE.INTRA.VDW>
-0.0883625

>  <SCORE.INTRA.VDW.0>
-2.18386

>  <SCORE.INTRA.norm>
-0.00217605

>  <SCORE.RESTR>
2.17592

>  <SCORE.RESTR.CAVITY>
2.17592

>  <SCORE.RESTR.norm>
0.0473026

>  <SCORE.SYSTEM>
0

>  <SCORE.SYSTEM.CONST>
0

>  <SCORE.SYSTEM.DIHEDRAL>
0

>  <SCORE.SYSTEM.SOLV>
0

>  <SCORE.SYSTEM.norm>
0

>  <SCORE.heavy>
46

>  <SCORE.norm>
-0.0319702

>  <RMSD>
15.908

$$$$
ligand
 OpenBabel02271912143D
libRbt.so/2013.1/901 2013/11/27
 46 52  0  0  0  0  0  0  0  0999 V2000
  -19.6910   -9.8636   20.8218 P   0  0  1  0  0  0  0  0  0  0  0  0
  -15.6307   -7.8534   17.0602 P   0  0  2  0  0  0  0  0  0  0  0  0
  -20.1956  -11.4996   20.3629 O   0  5  0  0  0  0  0  0  0  0  0  0
  -20.4706   -9.3354   22.3359 O   0  0  0  0  0  0  0  0  0  0  0  0
  -17.3784   -8.6423   21.2503 C   0  0  0  0  0  0  0  0  0  0  0  0
  -18.0873   -9.8532   20.9864 O   0  0  0  0  0  0  0  0  0  0  0  0
  -15.9225   -8.8425   20.8748 C   0  0  1  0  0  0  0  0  0  0  0  0
  -15.4150  -10.0103   21.5355 O   0  0  0  0  0  0  0  0  0  0  0  0
  -15.7143   -9.0917   19.3898 C   0  0  1  0  0  0  0  0  0  0  0  0
  -15.4900   -7.8825   18.6684 O   0  0  0  0  0  0  0  0  0  0  0  0
  -14.5014  -10.0048   19.3601 C   0  0  1  0  0  0  0  0  0  0  0  0
  -13.3026   -9.2266   19.3170 O   0  0  0  0  0  0  0  0  0  0  0  0
  -14.5420  -10.7596   20.6759 C   0  0  2  0  0  0  0  0  0  0  0  0
  -20.4576   -9.4267   16.1636 C   0  0  1  0  0  0  0  0  0  0  0  0
  -17.0053  -14.2127   17.4820 N   0  0  0  0  0  0  0  0  0  0  0  0
  -16.6578  -12.9191   17.2408 C   0  0  1  0  0  0  0  0  0  0  0  0
  -20.4414   -9.9672   17.5654 C   0  0  2  0  0  0  0  0  0  0  0  0
  -16.9612  -12.3899   16.0331 N   0  0  0  0  0  0  0  0  0  0  0  0
  -21.7846   -9.8867   18.0453 O   0  0  0  0  0  0  0  0  0  0  0  0
  -19.5089   -9.0441   18.3244 C   0  0  2  0  0  0  0  0  0  0  0  0
  -16.0220  -12.1394   18.1652 N   0  0  0  0  0  0  0  0  0  0  0  0
  -19.9707   -8.8012   19.6462 O   0  0  0  0  0  0  0  0  0  0  0  0
  -15.6942  -12.6237   19.3898 C   0  0  2  0  0  0  0  0  0  0  0  0
  -19.5070   -7.7534   17.5291 C   0  0  2  0  0  0  0  0  0  0  0  0
  -19.9206   -8.1054   16.2099 O   0  0  0  0  0  0  0  0  0  0  0  0
  -16.0508  -14.0183   19.7036 C   0  0  1  0  0  0  0  0  0  0  0  0
  -18.1331   -7.0949   17.4726 C   0  0  0  0  0  0  0  0  0  0  0  0
  -17.2181   -7.9782   16.8209 O   0  0  0  0  0  0  0  0  0  0  0  0
  -16.7352  -14.8094   18.6655 C   0  0  0  0  0  0  0  0  0  0  0  0
  -17.0887  -16.0988   18.8989 O   0  0  0  0  0  0  0  0  0  0  0  0
  -15.6345  -14.2543   20.9527 N   0  0  0  0  0  0  0  0  0  0  0  0
  -15.0565  -13.1061   21.4121 C   0  0  0  0  0  0  0  0  0  0  0  0
  -15.0904  -12.1283   20.4825 N   0  0  1  0  0  0  0  0  0  0  0  0
  -17.9133   -9.7422   11.6035 N   0  0  0  0  0  0  0  0  0  0  0  0
  -14.7742   -9.2236   16.3054 O   0  5  0  0  0  0  0  0  0  0  0  0
  -18.6032   -8.7017   12.1460 C   0  0  2  0  0  0  0  0  0  0  0  0
  -18.6837   -7.5305   11.4619 N   0  0  0  0  0  0  0  0  0  0  0  0
  -15.0732   -6.3343   16.3325 O   0  0  0  0  0  0  0  0  0  0  0  0
  -19.2170   -8.7962   13.3570 N   0  0  0  0  0  0  0  0  0  0  0  0
  -19.1666   -9.9340   14.0884 C   0  0  2  0  0  0  0  0  0  0  0  0
  -18.4390  -11.0928   13.5541 C   0  0  2  0  0  0  0  0  0  0  0  0
  -17.7980  -10.9315   12.2316 C   0  0  0  0  0  0  0  0  0  0  0  0
  -17.1070  -11.9467   11.6566 O   0  0  0  0  0  0  0  0  0  0  0  0
  -18.5577  -12.0768   14.4674 N   0  0  0  0  0  0  0  0  0  0  0  0
  -19.2984  -11.5846   15.5048 C   0  0  0  0  0  0  0  0  0  0  0  0
  -19.6618  -10.3032   15.2711 N   0  0  1  0  0  0  0  0  0  0  0  0
  1  3  1  6  0  0  0
  1  4  2  0  0  0  0
  1  6  1  0  0  0  0
  1 22  1  0  0  0  0
  2 28  1  0  0  0  0
  2 35  1  6  0  0  0
  2 38  2  0  0  0  0
  2 10  1  0  0  0  0
  5  6  1  0  0  0  0
  7  5  1  6  0  0  0
  7  8  1  0  0  0  0
  7  9  1  0  0  0  0
  9 10  1  6  0  0  0
  9 11  1  0  0  0  0
 11 12  1  1  0  0  0
 11 13  1  0  0  0  0
 13  8  1  1  0  0  0
 13 33  1  0  0  0  0
 14 46  1  0  0  0  0
 14 17  1  0  0  0  0
 14 25  1  1  0  0  0
 15 16  1  0  0  0  0
 15 29  1  0  0  0  0
 16 18  1  1  0  0  0
 16 21  1  0  0  0  0
 17 19  1  1  0  0  0
 17 20  1  0  0  0  0
 20 22  1  1  0  0  0
 20 24  1  0  0  0  0
 23 21  1  1  0  0  0
 23 26  1  0  0  0  0
 23 33  1  0  0  0  0
 24 25  1  6  0  0  0
 24 27  1  0  0  0  0
 26 29  1  6  0  0  0
 26 31  1  0  0  0  0
 27 28  1  0  0  0  0
 29 30  2  0  0  0  0
 31 32  1  0  0  0  0
 33 32  1  6  0  0  0
 34 36  1  0  0  0  0
 34 42  1  0  0  0  0
 36 37  1  1  0  0  0
 36 39  1  0  0  0  0
 40 39  1  6  0  0  0
 40 41  1  0  0  0  0
 40 46  1  0  0  0  0
 41 42  1  6  0  0  0
 41 44  1  0  0  0  0
 42 43  2  0  0  0  0
 44 45  1  0  0  0  0
 46 45  1  1  0  0  0
M  CHG  2   3  -1  35  -1
M  END
>  <CHROM.1>
105.71665827,-160.33037762,-17.52608639,-10.24896532,17.66360745,0.94848539
-1.12656645,1.24874366

>  <Name>
ligand

>  <RI>
-1

>  <Rbt.Current_Directory>
/home/itssahil/PROJECTS/Mol_Feturizer/Test_systems_manuscript/rnas/3mum

>  <Rbt.Executable>
rbdock ($Id: //depot/dev/client3/rdock/2013.1/src/exe/rbdock.cxx#4 $)

>  <Rbt.Library>
libRbt.so (2013.1, Build901 2013/11/27)

>  <Rbt.Parameter_File>
/export/apps/rDock/src/rDock_2013.1_src/data/scripts/dock_solv.prm

>  <Rbt.Receptor>
prm/blind_docking_80.prm

>  <SCORE>
24.3261

>  <SCORE.INTER>
18.1952

>  <SCORE.INTER.CONST>
1

>  <SCORE.INTER.POLAR>
0

>  <SCORE.INTER.ROT>
2

>  <SCORE.INTER.SOLV>
36.6726

>  <SCORE.INTER.VDW>
-5.0274

>  <SCORE.INTER.norm>
0.395548

>  <SCORE.INTRA>
6.04265

>  <SCORE.INTRA.DIHEDRAL>
0.0215291

>  <SCORE.INTRA.DIHEDRAL.0>
2.40424

>  <SCORE.INTRA.POLAR>
0

>  <SCORE.INTRA.POLAR.0>
0

>  <SCORE.INTRA.REPUL>
0

>  <SCORE.INTRA.REPUL.0>
0

>  <SCORE.INTRA.SOLV>
5.19131

>  <SCORE.INTRA.SOLV.lig_0>
-134.169

>  <SCORE.INTRA.VDW>
3.43623

>  <SCORE.INTRA.VDW.0>
-2.18386

>  <SCORE.INTRA.norm>
0.131362

>  <SCORE.RESTR>
0.0882611

>  <SCORE.RESTR.CAVITY>
0.0882611

>  <SCORE.RESTR.norm>
0.00191872

>  <SCORE.SYSTEM>
0

>  <SCORE.SYSTEM.CONST>
0

>  <SCORE.SYSTEM.DIHEDRAL>
0

>  <SCORE.SYSTEM.SOLV>
0

>  <SCORE.SYSTEM.norm>
0

>  <SCORE.heavy>
46

>  <SCORE.norm>
0.528829

>  <RMSD>
15.911

$$$$
ligand
 OpenBabel02271912143D
libRbt.so/2013.1/901 2013/11/27
 46 52  0  0  0  0  0  0  0  0999 V2000
  -19.6464   -9.8770   20.8623 P   0  0  1  0  0  0  0  0  0  0  0  0
  -15.5940   -7.8839   17.0832 P   0  0  2  0  0  0  0  0  0  0  0  0
  -20.1629  -11.5093   20.4032 O   0  5  0  0  0  0  0  0  0  0  0  0
  -20.4150   -9.3470   22.3815 O   0  0  0  0  0  0  0  0  0  0  0  0
  -17.3245   -8.6700   21.2809 C   0  0  0  0  0  0  0  0  0  0  0  0
  -18.0418   -9.8763   21.0186 O   0  0  0  0  0  0  0  0  0  0  0  0
  -15.8718   -8.8780   20.8975 C   0  0  1  0  0  0  0  0  0  0  0  0
  -15.3677  -10.0500   21.5536 O   0  0  0  0  0  0  0  0  0  0  0  0
  -15.6728   -9.1258   19.4111 C   0  0  1  0  0  0  0  0  0  0  0  0
  -15.4451   -7.9167   18.6906 O   0  0  0  0  0  0  0  0  0  0  0  0
  -14.4653  -10.0460   19.3735 C   0  0  1  0  0  0  0  0  0  0  0  0
  -13.2623   -9.2747   19.3255 O   0  0  0  0  0  0  0  0  0  0  0  0
  -14.5035  -10.8029   20.6881 C   0  0  2  0  0  0  0  0  0  0  0  0
  -20.4346   -9.4273   16.2090 C   0  0  1  0  0  0  0  0  0  0  0  0
  -16.9935  -14.2394   17.4970 N   0  0  0  0  0  0  0  0  0  0  0  0
  -16.6381  -12.9479   17.2555 C   0  0  1  0  0  0  0  0  0  0  0  0
  -20.4143   -9.9705   17.6097 C   0  0  2  0  0  0  0  0  0  0  0  0
  -16.9399  -12.4164   16.0484 N   0  0  0  0  0  0  0  0  0  0  0  0
  -21.7545   -9.8829   18.0967 O   0  0  0  0  0  0  0  0  0  0  0  0
  -19.4725   -9.0542   18.3655 C   0  0  2  0  0  0  0  0  0  0  0  0
  -15.9960  -12.1725   18.1792 N   0  0  0  0  0  0  0  0  0  0  0  0
  -19.9259   -8.8109   19.6901 O   0  0  0  0  0  0  0  0  0  0  0  0
  -15.6695  -12.6593   19.4032 C   0  0  2  0  0  0  0  0  0  0  0  0
  -19.4671   -7.7621   17.5725 C   0  0  2  0  0  0  0  0  0  0  0  0
  -19.8896   -8.1093   16.2548 O   0  0  0  0  0  0  0  0  0  0  0  0
  -16.0345  -14.0516   19.7172 C   0  0  1  0  0  0  0  0  0  0  0  0
  -18.0897   -7.1115   17.5099 C   0  0  0  0  0  0  0  0  0  0  0  0
  -17.1833   -7.9990   16.8519 O   0  0  0  0  0  0  0  0  0  0  0  0
  -16.7255  -14.8380   18.6799 C   0  0  0  0  0  0  0  0  0  0  0  0
  -17.0868  -16.1253   18.9135 O   0  0  0  0  0  0  0  0  0  0  0  0
  -15.6179  -14.2906   20.9656 N   0  0  0  0  0  0  0  0  0  0  0  0
  -15.0318  -13.1462   21.4245 C   0  0  0  0  0  0  0  0  0  0  0  0
  -15.0609  -12.1679   20.4952 N   0  0  1  0  0  0  0  0  0  0  0  0
  -17.8846   -9.7386   11.6517 N   0  0  0  0  0  0  0  0  0  0  0  0
  -14.7494   -9.2577   16.3215 O   0  5  0  0  0  0  0  0  0  0  0  0
  -18.5618   -8.6935   12.2015 C   0  0  2  0  0  0  0  0  0  0  0  0
  -18.6252   -7.5157   11.5271 N   0  0  0  0  0  0  0  0  0  0  0  0
  -15.0314   -6.3668   16.3553 O   0  0  0  0  0  0  0  0  0  0  0  0
  -19.1795   -8.7900   13.4104 N   0  0  0  0  0  0  0  0  0  0  0  0
  -19.1459   -9.9344   14.1323 C   0  0  2  0  0  0  0  0  0  0  0  0
  -18.4326  -11.0984   13.5898 C   0  0  2  0  0  0  0  0  0  0  0  0
  -17.7866  -10.9346   12.2700 C   0  0  0  0  0  0  0  0  0  0  0  0
  -17.1079  -11.9540   11.6880 O   0  0  0  0  0  0  0  0  0  0  0  0
  -18.5665  -12.0883   14.4945 N   0  0  0  0  0  0  0  0  0  0  0  0
  -19.3028  -11.5950   15.5345 C   0  0  0  0  0  0  0  0  0  0  0  0
  -19.6486  -10.3069   15.3109 N   0  0  1  0  0  0  0  0  0  0  0  0
  1  3  1  6  0  0  0
  1  4  2  0  0  0  0
  1  6  1  0  0  0  0
  1 22  1  0  0  0  0
  2 28  1  0  0  0  0
  2 35  1  6  0  0  0
  2 38  2  0  0  0  0
  2 10  1  0  0  0  0
  5  6  1  0  0  0  0
  7  5  1  6  0  0  0
  7  8  1  0  0  0  0
  7  9  1  0  0  0  0
  9 10  1  6  0  0  0
  9 11  1  0  0  0  0
 11 12  1  1  0  0  0
 11 13  1  0  0  0  0
 13  8  1  1  0  0  0
 13 33  1  0  0  0  0
 14 46  1  0  0  0  0
 14 17  1  0  0  0  0
 14 25  1  1  0  0  0
 15 16  1  0  0  0  0
 15 29  1  0  0  0  0
 16 18  1  1  0  0  0
 16 21  1  0  0  0  0
 17 19  1  1  0  0  0
 17 20  1  0  0  0  0
 20 22  1  1  0  0  0
 20 24  1  0  0  0  0
 23 21  1  1  0  0  0
 23 26  1  0  0  0  0
 23 33  1  0  0  0  0
 24 25  1  6  0  0  0
 24 27  1  0  0  0  0
 26 29  1  6  0  0  0
 26 31  1  0  0  0  0
 27 28  1  0  0  0  0
 29 30  2  0  0  0  0
 31 32  1  0  0  0  0
 33 32  1  6  0  0  0
 34 36  1  0  0  0  0
 34 42  1  0  0  0  0
 36 37  1  1  0  0  0
 36 39  1  0  0  0  0
 40 39  1  6  0  0  0
 40 41  1  0  0  0  0
 40 46  1  0  0  0  0
 41 42  1  6  0  0  0
 41 44  1  0  0  0  0
 42 43  2  0  0  0  0
 44 45  1  0  0  0  0
 46 45  1  1  0  0  0
M  CHG  2   3  -1  35  -1
M  END
>  <CHROM.1>
105.94842826,-159.61872669,-17.49567331,-10.26859350,17.69365390,0.94201753
-1.12952719,1.24755517

>  <Name>
ligand

>  <RI>
-1

>  <Rbt.Current_Directory>
/home/itssahil/PROJECTS/Mol_Feturizer/Test_systems_manuscript/rnas/3mum

>  <Rbt.Executable>
rbdock ($Id: //depot/dev/client3/rdock/2013.1/src/exe/rbdock.cxx#4 $)

>  <Rbt.Library>
libRbt.so (2013.1, Build901 2013/11/27)

>  <Rbt.Parameter_File>
/export/apps/rDock/src/rDock_2013.1_src/data/scripts/dock_solv.prm

>  <Rbt.Receptor>
prm/blind_docking_80.prm

>  <SCORE>
24.2122

>  <SCORE.INTER>
18.5663

>  <SCORE.INTER.CONST>
1

>  <SCORE.INTER.POLAR>
0

>  <SCORE.INTER.ROT>
2

>  <SCORE.INTER.SOLV>
36.9

>  <SCORE.INTER.VDW>
-4.85582

>  <SCORE.INTER.norm>
0.403615

>  <SCORE.INTRA>
5.54679

>  <SCORE.INTRA.DIHEDRAL>
0.0220297

>  <SCORE.INTRA.DIHEDRAL.0>
2.40424

>  <SCORE.INTRA.POLAR>
0

>  <SCORE.INTRA.POLAR.0>
0

>  <SCORE.INTRA.REPUL>
0

>  <SCORE.INTRA.REPUL.0>
0

>  <SCORE.INTRA.SOLV>
5.12569

>  <SCORE.INTRA.SOLV.lig_0>
-134.169

>  <SCORE.INTRA.VDW>
2.97294

>  <SCORE.INTRA.VDW.0>
-2.18386

>  <SCORE.INTRA.norm>
0.120582

>  <SCORE.RESTR>
0.0991086

>  <SCORE.RESTR.CAVITY>
0.0991086

>  <SCORE.RESTR.norm>
0.00215454

>  <SCORE.SYSTEM>
0

>  <SCORE.SYSTEM.CONST>
0

>  <SCORE.SYSTEM.DIHEDRAL>
0

>  <SCORE.SYSTEM.SOLV>
0

>  <SCORE.SYSTEM.norm>
0

>  <SCORE.heavy>
46

>  <SCORE.norm>
0.526352

>  <RMSD>
15.912

$$$$
ligand
 OpenBabel02271912143D
libRbt.so/2013.1/901 2013/11/27
 46 52  0  0  0  0  0  0  0  0999 V2000
  -15.8627   -6.9656   16.3456 P   0  0  1  0  0  0  0  0  0  0  0  0
  -20.0052   -9.7876   19.4363 P   0  0  2  0  0  0  0  0  0  0  0  0
  -14.8720   -8.1270   15.4447 O   0  5  0  0  0  0  0  0  0  0  0  0
  -15.3962   -5.2832   15.9837 O   0  0  0  0  0  0  0  0  0  0  0  0
  -18.4563   -6.4913   16.6134 C   0  0  0  0  0  0  0  0  0  0  0  0
  -17.4093   -7.2109   15.9620 O   0  0  0  0  0  0  0  0  0  0  0  0
  -19.7566   -7.2478   16.4194 C   0  0  1  0  0  0  0  0  0  0  0  0
  -19.9587   -7.4995   15.0216 O   0  0  0  0  0  0  0  0  0  0  0  0
  -19.7608   -8.6147   17.0843 C   0  0  1  0  0  0  0  0  0  0  0  0
  -20.2638   -8.5621   18.4174 O   0  0  0  0  0  0  0  0  0  0  0  0
  -20.6524   -9.4390   16.1724 C   0  0  1  0  0  0  0  0  0  0  0  0
  -22.0167   -9.3221   16.5839 O   0  0  0  0  0  0  0  0  0  0  0  0
  -20.5047   -8.8093   14.7997 C   0  0  2  0  0  0  0  0  0  0  0  0
  -14.8730  -10.2321   19.6361 C   0  0  1  0  0  0  0  0  0  0  0  0
  -19.8064  -11.8823   10.5264 N   0  0  0  0  0  0  0  0  0  0  0  0
  -20.9486  -11.3059   10.9906 C   0  0  1  0  0  0  0  0  0  0  0  0
  -14.8483   -9.4275   18.3675 C   0  0  2  0  0  0  0  0  0  0  0  0
  -22.0955  -11.5152   10.3039 N   0  0  0  0  0  0  0  0  0  0  0  0
  -13.6297   -8.6821   18.3852 O   0  0  0  0  0  0  0  0  0  0  0  0
  -16.0665   -8.5299   18.4559 C   0  0  2  0  0  0  0  0  0  0  0  0
  -20.9821  -10.5325   12.1164 N   0  0  0  0  0  0  0  0  0  0  0  0
  -15.8051   -7.2355   17.9308 O   0  0  0  0  0  0  0  0  0  0  0  0
  -19.8591  -10.2908   12.8389 C   0  0  2  0  0  0  0  0  0  0  0  0
  -16.3747   -8.4371   19.9374 C   0  0  2  0  0  0  0  0  0  0  0  0
  -15.7699   -9.5822   20.5358 O   0  0  0  0  0  0  0  0  0  0  0  0
  -18.5953  -10.8941   12.3815 C   0  0  1  0  0  0  0  0  0  0  0  0
  -17.8706   -8.4397   20.2322 C   0  0  0  0  0  0  0  0  0  0  0  0
  -18.4351   -9.6696   19.7733 O   0  0  0  0  0  0  0  0  0  0  0  0
  -18.6226  -11.7182   11.1599 C   0  0  0  0  0  0  0  0  0  0  0  0
  -17.4890  -12.2997   10.6921 O   0  0  0  0  0  0  0  0  0  0  0  0
  -17.6492  -10.5199   13.2498 N   0  0  0  0  0  0  0  0  0  0  0  0
  -18.2504   -9.7389   14.1943 C   0  0  0  0  0  0  0  0  0  0  0  0
  -19.5712   -9.5996   13.9541 N   0  0  1  0  0  0  0  0  0  0  0  0
  -14.3781  -15.2569   21.0053 N   0  0  0  0  0  0  0  0  0  0  0  0
  -20.3652  -11.3584   18.6723 O   0  5  0  0  0  0  0  0  0  0  0  0
  -13.7695  -14.1511   21.5149 C   0  0  2  0  0  0  0  0  0  0  0  0
  -12.8904  -14.2913   22.5413 N   0  0  0  0  0  0  0  0  0  0  0  0
  -20.9148   -9.6454   20.9530 O   0  0  0  0  0  0  0  0  0  0  0  0
  -14.0143  -12.9039   21.0283 N   0  0  0  0  0  0  0  0  0  0  0  0
  -14.8844  -12.6998   20.0117 C   0  0  2  0  0  0  0  0  0  0  0  0
  -15.5704  -13.8551   19.4181 C   0  0  2  0  0  0  0  0  0  0  0  0
  -15.2592  -15.1847   19.9851 C   0  0  0  0  0  0  0  0  0  0  0  0
  -15.8412  -16.3094   19.5006 O   0  0  0  0  0  0  0  0  0  0  0  0
  -16.3565  -13.3732   18.4352 N   0  0  0  0  0  0  0  0  0  0  0  0
  -16.1896  -12.0174   18.4058 C   0  0  0  0  0  0  0  0  0  0  0  0
  -15.3059  -11.6208   19.3495 N   0  0  1  0  0  0  0  0  0  0  0  0
  1  3  1  6  0  0  0
  1  4  2  0  0  0  0
  1  6  1  0  0  0  0
  1 22  1  0  0  0  0
  2 28  1  0  0  0  0
  2 35  1  6  0  0  0
  2 38  2  0  0  0  0
  2 10  1  0  0  0  0
  5  6  1  0  0  0  0
  7  5  1  6  0  0  0
  7  8  1  0  0  0  0
  7  9  1  0  0  0  0
  9 10  1  1  0  0  0
  9 11  1  0  0  0  0
 11 12  1  1  0  0  0
 11 13  1  0  0  0  0
 13  8  1  1  0  0  0
 13 33  1  0  0  0  0
 14 46  1  0  0  0  0
 14 17  1  0  0  0  0
 14 25  1  1  0  0  0
 15 16  1  0  0  0  0
 15 29  1  0  0  0  0
 16 18  1  1  0  0  0
 16 21  1  0  0  0  0
 17 19  1  1  0  0  0
 17 20  1  0  0  0  0
 20 22  1  1  0  0  0
 20 24  1  0  0  0  0
 23 21  1  1  0  0  0
 23 26  1  0  0  0  0
 23 33  1  0  0  0  0
 24 25  1  1  0  0  0
 24 27  1  0  0  0  0
 26 29  1  6  0  0  0
 26 31  1  0  0  0  0
 27 28  1  0  0  0  0
 29 30  2  0  0  0  0
 31 32  1  0  0  0  0
 33 32  1  6  0  0  0
 34 36  1  0  0  0  0
 34 42  1  0  0  0  0
 36 37  1  1  0  0  0
 36 39  1  0  0  0  0
 40 39  1  6  0  0  0
 40 41  1  0  0  0  0
 40 46  1  0  0  0  0
 41 42  1  6  0  0  0
 41 44  1  0  0  0  0
 42 43  2  0  0  0  0
 44 45  1  0  0  0  0
 46 45  1  1  0  0  0
M  CHG  2   3  -1  35  -1
M  END
>  <CHROM.1>
-129.53435359,147.53799506,-17.60191962,-10.18271100,17.05609081,3.06070570
1.02925154,-2.72049922

>  <Name>
ligand

>  <RI>
-1

>  <Rbt.Current_Directory>
/home/itssahil/PROJECTS/Mol_Feturizer/Test_systems_manuscript/rnas/3mum

>  <Rbt.Executable>
rbdock ($Id: //depot/dev/client3/rdock/2013.1/src/exe/rbdock.cxx#4 $)

>  <Rbt.Library>
libRbt.so (2013.1, Build901 2013/11/27)

>  <Rbt.Parameter_File>
/export/apps/rDock/src/rDock_2013.1_src/data/scripts/dock_solv.prm

>  <Rbt.Receptor>
prm/blind_docking_100.prm

>  <SCORE>
-0.751518

>  <SCORE.INTER>
-2.17279

>  <SCORE.INTER.CONST>
1

>  <SCORE.INTER.POLAR>
0

>  <SCORE.INTER.ROT>
2

>  <SCORE.INTER.SOLV>
37.1599

>  <SCORE.INTER.VDW>
-18.7685

>  <SCORE.INTER.norm>
-0.0472345

>  <SCORE.INTRA>
-0.0608022

>  <SCORE.INTRA.DIHEDRAL>
-0.029755

>  <SCORE.INTRA.DIHEDRAL.0>
2.40424

>  <SCORE.INTRA.POLAR>
0

>  <SCORE.INTRA.POLAR.0>
0

>  <SCORE.INTRA.REPUL>
0

>  <SCORE.INTRA.REPUL.0>
0

>  <SCORE.INTRA.SOLV>
0.0299799

>  <SCORE.INTRA.SOLV.lig_0>
-134.169

>  <SCORE.INTRA.VDW>
-0.0609146

>  <SCORE.INTRA.VDW.0>
-2.18386

>  <SCORE.INTRA.norm>
-0.00132179

>  <SCORE.RESTR>
1.48207

>  <SCORE.RESTR.CAVITY>
1.48207

>  <SCORE.RESTR.norm>
0.0322189

>  <SCORE.SYSTEM>
0

>  <SCORE.SYSTEM.CONST>
0

>  <SCORE.SYSTEM.DIHEDRAL>
0

>  <SCORE.SYSTEM.SOLV>
0

>  <SCORE.SYSTEM.norm>
0

>  <SCORE.heavy>
46

>  <SCORE.norm>
-0.0163373

>  <RMSD>
15.914

$$$$
ligand
 OpenBabel02271912143D
libRbt.so/2013.1/901 2013/11/27
 46 52  0  0  0  0  0  0  0  0999 V2000
  -15.7948   -7.0526   16.4289 P   0  0  1  0  0  0  0  0  0  0  0  0
  -19.9405   -9.8297   19.5557 P   0  0  2  0  0  0  0  0  0  0  0  0
  -14.8161   -8.2255   15.5299 O   0  5  0  0  0  0  0  0  0  0  0  0
  -15.3190   -5.3753   16.0551 O   0  0  0  0  0  0  0  0  0  0  0  0
  -18.3839   -6.5597   16.7066 C   0  0  0  0  0  0  0  0  0  0  0  0
  -17.3448   -7.2899   16.0542 O   0  0  0  0  0  0  0  0  0  0  0  0
  -19.6900   -7.3088   16.5232 C   0  0  1  0  0  0  0  0  0  0  0  0
  -19.9006   -7.5671   15.1279 O   0  0  0  0  0  0  0  0  0  0  0  0
  -19.6999   -8.6718   17.1959 C   0  0  1  0  0  0  0  0  0  0  0  0
  -20.1960   -8.6083   18.5311 O   0  0  0  0  0  0  0  0  0  0  0  0
  -20.6013   -9.4954   16.2930 C   0  0  1  0  0  0  0  0  0  0  0  0
  -21.9628   -9.3672   16.7106 O   0  0  0  0  0  0  0  0  0  0  0  0
  -20.4562   -8.8745   14.9162 C   0  0  2  0  0  0  0  0  0  0  0  0
  -14.8103  -10.3067   19.7332 C   0  0  1  0  0  0  0  0  0  0  0  0
  -19.7361  -11.7489   10.5103 N   0  0  0  0  0  0  0  0  0  0  0  0
  -20.8625  -11.1267   10.9536 C   0  0  1  0  0  0  0  0  0  0  0  0
  -14.7866   -9.5095   18.4599 C   0  0  2  0  0  0  0  0  0  0  0  0
  -21.9845  -11.2247   10.2038 N   0  0  0  0  0  0  0  0  0  0  0  0
  -13.5630   -8.7720   18.4674 O   0  0  0  0  0  0  0  0  0  0  0  0
  -15.9985   -8.6034   18.5491 C   0  0  2  0  0  0  0  0  0  0  0  0
  -20.9044  -10.4152   12.1192 N   0  0  0  0  0  0  0  0  0  0  0  0
  -15.7312   -7.3138   18.0153 O   0  0  0  0  0  0  0  0  0  0  0  0
  -19.8059  -10.2854   12.9054 C   0  0  2  0  0  0  0  0  0  0  0  0
  -16.2988   -8.5002   20.0315 C   0  0  2  0  0  0  0  0  0  0  0  0
  -15.6985   -9.6458   20.6335 O   0  0  0  0  0  0  0  0  0  0  0  0
  -18.5603  -10.9425   12.4729 C   0  0  1  0  0  0  0  0  0  0  0  0
  -17.7932   -8.4913   20.3336 C   0  0  0  0  0  0  0  0  0  0  0  0
  -18.3680   -9.7200   19.8844 O   0  0  0  0  0  0  0  0  0  0  0  0
  -18.5774  -11.6955   11.2061 C   0  0  0  0  0  0  0  0  0  0  0  0
  -17.4597  -12.3220   10.7585 O   0  0  0  0  0  0  0  0  0  0  0  0
  -17.6373  -10.6773   13.4040 N   0  0  0  0  0  0  0  0  0  0  0  0
  -18.2358   -9.9120   14.3630 C   0  0  0  0  0  0  0  0  0  0  0  0
  -19.5320   -9.6757   14.0705 N   0  0  1  0  0  0  0  0  0  0  0  0
  -14.1562  -15.3514   20.9546 N   0  0  0  0  0  0  0  0  0  0  0  0
  -20.3145  -11.4024   18.8025 O   0  5  0  0  0  0  0  0  0  0  0  0
  -13.5162  -14.2492   21.4328 C   0  0  2  0  0  0  0  0  0  0  0  0
  -12.5518  -14.3998   22.3778 N   0  0  0  0  0  0  0  0  0  0  0  0
  -20.8417   -9.6729   21.0760 O   0  0  0  0  0  0  0  0  0  0  0  0
  -13.8126  -12.9955   20.9937 N   0  0  0  0  0  0  0  0  0  0  0  0
  -14.7679  -12.7811   20.0590 C   0  0  2  0  0  0  0  0  0  0  0  0
  -15.4915  -13.9320   19.5027 C   0  0  2  0  0  0  0  0  0  0  0  0
  -15.1214  -15.2689   20.0145 C   0  0  0  0  0  0  0  0  0  0  0  0
  -15.7326  -16.3902   19.5587 O   0  0  0  0  0  0  0  0  0  0  0  0
  -16.3626  -13.4397   18.5999 N   0  0  0  0  0  0  0  0  0  0  0  0
  -16.2109  -12.0819   18.5835 C   0  0  0  0  0  0  0  0  0  0  0  0
  -15.2537  -11.6941   19.4566 N   0  0  1  0  0  0  0  0  0  0  0  0
  1  3  1  6  0  0  0
  1  4  2  0  0  0  0
  1  6  1  0  0  0  0
  1 22  1  0  0  0  0
  2 28  1  0  0  0  0
  2 35  1  6  0  0  0
  2 38  2  0  0  0  0
  2 10  1  0  0  0  0
  5  6  1  0  0  0  0
  7  5  1  6  0  0  0
  7  8  1  0  0  0  0
  7  9  1  0  0  0  0
  9 10  1  1  0  0  0
  9 11  1  0  0  0  0
 11 12  1  1  0  0  0
 11 13  1  0  0  0  0
 13  8  1  1  0  0  0
 13 33  1  0  0  0  0
 14 46  1  0  0  0  0
 14 17  1  0  0  0  0
 14 25  1  1  0  0  0
 15 16  1  0  0  0  0
 15 29  1  0  0  0  0
 16 18  1  1  0  0  0
 16 21  1  0  0  0  0
 17 19  1  1  0  0  0
 17 20  1  0  0  0  0
 20 22  1  1  0  0  0
 20 24  1  0  0  0  0
 23 21  1  1  0  0  0
 23 26  1  0  0  0  0
 23 33  1  0  0  0  0
 24 25  1  1  0  0  0
 24 27  1  0  0  0  0
 26 29  1  6  0  0  0
 26 31  1  0  0  0  0
 27 28  1  0  0  0  0
 29 30  2  0  0  0  0
 31 32  1  0  0  0  0
 33 32  1  6  0  0  0
 34 36  1  0  0  0  0
 34 42  1  0  0  0  0
 36 37  1  1  0  0  0
 36 39  1  0  0  0  0
 40 39  1  6  0  0  0
 40 41  1  0  0  0  0
 40 46  1  0  0  0  0
 41 42  1  6  0  0  0
 41 44  1  0  0  0  0
 42 43  2  0  0  0  0
 44 45  1  0  0  0  0
 46 45  1  1  0  0  0
M  CHG  2   3  -1  35  -1
M  END
>  <CHROM.1>
-123.87782578,142.62990790,-17.52434473,-10.23223280,17.13131935,2.98512205
1.01527641,-2.61558653

>  <Name>
ligand

>  <RI>
-1

>  <Rbt.Current_Directory>
/home/itssahil/PROJECTS/Mol_Feturizer/Test_systems_manuscript/rnas/3mum

>  <Rbt.Executable>
rbdock ($Id: //depot/dev/client3/rdock/2013.1/src/exe/rbdock.cxx#4 $)

>  <Rbt.Library>
libRbt.so (2013.1, Build901 2013/11/27)

>  <Rbt.Parameter_File>
/export/apps/rDock/src/rDock_2013.1_src/data/scripts/dock_solv.prm

>  <Rbt.Receptor>
prm/blind_docking_40.prm

>  <SCORE>
-2.00627

>  <SCORE.INTER>
-4.20113

>  <SCORE.INTER.CONST>
1

>  <SCORE.INTER.POLAR>
0

>  <SCORE.INTER.ROT>
2

>  <SCORE.INTER.SOLV>
36.8813

>  <SCORE.INTER.VDW>
-20.0278

>  <SCORE.INTER.norm>
-0.0913289

>  <SCORE.INTRA>
-0.100505

>  <SCORE.INTRA.DIHEDRAL>
-0.0288

>  <SCORE.INTRA.DIHEDRAL.0>
2.40424

>  <SCORE.INTRA.POLAR>
0

>  <SCORE.INTRA.POLAR.0>
0

>  <SCORE.INTRA.REPUL>
0

>  <SCORE.INTRA.REPUL.0>
0

>  <SCORE.INTRA.SOLV>
0.0113434

>  <SCORE.INTRA.SOLV.lig_0>
-134.169

>  <SCORE.INTRA.VDW>
-0.0917768

>  <SCORE.INTRA.VDW.0>
-2.18386

>  <SCORE.INTRA.norm>
-0.00218489

>  <SCORE.RESTR>
2.29536

>  <SCORE.RESTR.CAVITY>
2.29536

>  <SCORE.RESTR.norm>
0.0498992

>  <SCORE.SYSTEM>
0

>  <SCORE.SYSTEM.CONST>
0

>  <SCORE.SYSTEM.DIHEDRAL>
0

>  <SCORE.SYSTEM.SOLV>
0

>  <SCORE.SYSTEM.norm>
0

>  <SCORE.heavy>
46

>  <SCORE.norm>
-0.0436146

>  <RMSD>
15.914

$$$$
ligand
 OpenBabel02271912143D
libRbt.so/2013.1/901 2013/11/27
 46 52  0  0  0  0  0  0  0  0999 V2000
  -15.8634   -6.9725   16.3434 P   0  0  1  0  0  0  0  0  0  0  0  0
  -20.0031   -9.7882   19.4435 P   0  0  2  0  0  0  0  0  0  0  0  0
  -14.8752   -8.1355   15.4419 O   0  5  0  0  0  0  0  0  0  0  0  0
  -15.3961   -5.2908   15.9792 O   0  0  0  0  0  0  0  0  0  0  0  0
  -18.4562   -6.4958   16.6152 C   0  0  0  0  0  0  0  0  0  0  0  0
  -17.4109   -7.2168   15.9626 O   0  0  0  0  0  0  0  0  0  0  0  0
  -19.7574   -7.2514   16.4240 C   0  0  1  0  0  0  0  0  0  0  0  0
  -19.9621   -7.5041   15.0268 O   0  0  0  0  0  0  0  0  0  0  0  0
  -19.7617   -8.6176   17.0901 C   0  0  1  0  0  0  0  0  0  0  0  0
  -20.2624   -8.5634   18.4240 O   0  0  0  0  0  0  0  0  0  0  0  0
  -20.6555   -9.4420   16.1804 C   0  0  1  0  0  0  0  0  0  0  0  0
  -22.0190   -9.3235   16.5942 O   0  0  0  0  0  0  0  0  0  0  0  0
  -20.5096   -8.8136   14.8070 C   0  0  2  0  0  0  0  0  0  0  0  0
  -14.8709  -10.2369   19.6351 C   0  0  1  0  0  0  0  0  0  0  0  0
  -19.8079  -11.8360   10.4982 N   0  0  0  0  0  0  0  0  0  0  0  0
  -20.9468  -11.2495   10.9580 C   0  0  1  0  0  0  0  0  0  0  0  0
  -14.8477   -9.4335   18.3658 C   0  0  2  0  0  0  0  0  0  0  0  0
  -22.0888  -11.4325   10.2559 N   0  0  0  0  0  0  0  0  0  0  0  0
  -13.6284   -8.6891   18.3807 O   0  0  0  0  0  0  0  0  0  0  0  0
  -16.0650   -8.5347   18.4554 C   0  0  2  0  0  0  0  0  0  0  0  0
  -20.9817  -10.4917   12.0943 N   0  0  0  0  0  0  0  0  0  0  0  0
  -15.8034   -7.2411   17.9287 O   0  0  0  0  0  0  0  0  0  0  0  0
  -19.8635  -10.2766   12.8325 C   0  0  2  0  0  0  0  0  0  0  0  0
  -16.3706   -8.4404   19.9374 C   0  0  2  0  0  0  0  0  0  0  0  0
  -15.7657   -9.5855   20.5357 O   0  0  0  0  0  0  0  0  0  0  0  0
  -18.6035  -10.8917   12.3804 C   0  0  1  0  0  0  0  0  0  0  0  0
  -17.8660   -8.4414   20.2347 C   0  0  0  0  0  0  0  0  0  0  0  0
  -18.4323   -9.6713   19.7777 O   0  0  0  0  0  0  0  0  0  0  0  0
  -18.6290  -11.6980   11.1470 C   0  0  0  0  0  0  0  0  0  0  0  0
  -17.4988  -12.2894   10.6834 O   0  0  0  0  0  0  0  0  0  0  0  0
  -17.6618  -10.5437   13.2642 N   0  0  0  0  0  0  0  0  0  0  0  0
  -18.2622   -9.7674   14.2131 C   0  0  0  0  0  0  0  0  0  0  0  0
  -19.5781   -9.6055   13.9605 N   0  0  1  0  0  0  0  0  0  0  0  0
  -14.3800  -15.2607   21.0096 N   0  0  0  0  0  0  0  0  0  0  0  0
  -20.3657  -11.3594   18.6815 O   0  5  0  0  0  0  0  0  0  0  0  0
  -13.7698  -14.1549   21.5174 C   0  0  2  0  0  0  0  0  0  0  0  0
  -12.8899  -14.2949   22.5432 N   0  0  0  0  0  0  0  0  0  0  0  0
  -20.9100   -9.6440   20.9617 O   0  0  0  0  0  0  0  0  0  0  0  0
  -14.0137  -12.9080   21.0295 N   0  0  0  0  0  0  0  0  0  0  0  0
  -14.8845  -12.7042   20.0135 C   0  0  2  0  0  0  0  0  0  0  0  0
  -15.5722  -13.8595   19.4218 C   0  0  2  0  0  0  0  0  0  0  0  0
  -15.2618  -15.1887   19.9900 C   0  0  0  0  0  0  0  0  0  0  0  0
  -15.8455  -16.3134   19.5073 O   0  0  0  0  0  0  0  0  0  0  0  0
  -16.3586  -13.3779   18.4390 N   0  0  0  0  0  0  0  0  0  0  0  0
  -16.1904  -12.0223   18.4079 C   0  0  0  0  0  0  0  0  0  0  0  0
  -15.3055  -11.6255   19.3504 N   0  0  1  0  0  0  0  0  0  0  0  0
  1  3  1  6  0  0  0
  1  4  2  0  0  0  0
  1  6  1  0  0  0  0
  1 22  1  0  0  0  0
  2 28  1  0  0  0  0
  2 35  1  6  0  0  0
  2 38  2  0  0  0  0
  2 10  1  0  0  0  0
  5  6  1  0  0  0  0
  7  5  1  6  0  0  0
  7  8  1  0  0  0  0
  7  9  1  0  0  0  0
  9 10  1  1  0  0  0
  9 11  1  0  0  0  0
 11 12  1  1  0  0  0
 11 13  1  0  0  0  0
 13  8  1  1  0  0  0
 13 33  1  0  0  0  0
 14 46  1  0  0  0  0
 14 17  1  0  0  0  0
 14 25  1  1  0  0  0
 15 16  1  0  0  0  0
 15 29  1  0  0  0  0
 16 18  1  1  0  0  0
 16 21  1  0  0  0  0
 17 19  1  1  0  0  0
 17 20  1  0  0  0  0
 20 22  1  1  0  0  0
 20 24  1  0  0  0  0
 23 21  1  1  0  0  0
 23 26  1  0  0  0  0
 23 33  1  0  0  0  0
 24 25  1  1  0  0  0
 24 27  1  0  0  0  0
 26 29  1  6  0  0  0
 26 31  1  0  0  0  0
 27 28  1  0  0  0  0
 29 30  2  0  0  0  0
 31 32  1  0  0  0  0
 33 32  1  6  0  0  0
 34 36  1  0  0  0  0
 34 42  1  0  0  0  0
 36 37  1  1  0  0  0
 36 39  1  0  0  0  0
 40 39  1  6  0  0  0
 40 41  1  0  0  0  0
 40 46  1  0  0  0  0
 41 42  1  6  0  0  0
 41 44  1  0  0  0  0
 42 43  2  0  0  0  0
 44 45  1  0  0  0  0
 46 45  1  1  0  0  0
M  CHG  2   3  -1  35  -1
M  END
>  <CHROM.1>
-128.15995531,147.58900565,-17.60293735,-10.18152268,17.05583080,3.05374023
1.03049561,-2.71053497

>  <Name>
ligand

>  <RI>
-1

>  <Rbt.Current_Directory>
/home/itssahil/PROJECTS/Mol_Feturizer/Test_systems_manuscript/rnas/3mum

>  <Rbt.Executable>
rbdock ($Id: //depot/dev/client3/rdock/2013.1/src/exe/rbdock.cxx#4 $)

>  <Rbt.Library>
libRbt.so (2013.1, Build901 2013/11/27)

>  <Rbt.Parameter_File>
/export/apps/rDock/src/rDock_2013.1_src/data/scripts/dock_solv.prm

>  <Rbt.Receptor>
prm/blind_docking_100.prm

>  <SCORE>
-0.757193

>  <SCORE.INTER>
-2.20023

>  <SCORE.INTER.CONST>
1

>  <SCORE.INTER.POLAR>
0

>  <SCORE.INTER.ROT>
2

>  <SCORE.INTER.SOLV>
36.9554

>  <SCORE.INTER.VDW>
-18.7186

>  <SCORE.INTER.norm>
-0.047831

>  <SCORE.INTRA>
-0.0550488

>  <SCORE.INTRA.DIHEDRAL>
-0.0299984

>  <SCORE.INTRA.DIHEDRAL.0>
2.40424

>  <SCORE.INTRA.POLAR>
0

>  <SCORE.INTRA.POLAR.0>
0

>  <SCORE.INTRA.REPUL>
0

>  <SCORE.INTRA.REPUL.0>
0

>  <SCORE.INTRA.SOLV>
0.0272954

>  <SCORE.INTRA.SOLV.lig_0>
-134.169

>  <SCORE.INTRA.VDW>
-0.0536973

>  <SCORE.INTRA.VDW.0>
-2.18386

>  <SCORE.INTRA.norm>
-0.00119671

>  <SCORE.RESTR>
1.49808

>  <SCORE.RESTR.CAVITY>
1.49808

>  <SCORE.RESTR.norm>
0.032567

>  <SCORE.SYSTEM>
0

>  <SCORE.SYSTEM.CONST>
0

>  <SCORE.SYSTEM.DIHEDRAL>
0

>  <SCORE.SYSTEM.SOLV>
0

>  <SCORE.SYSTEM.norm>
0

>  <SCORE.heavy>
46

>  <SCORE.norm>
-0.0164607

>  <RMSD>
15.915

$$$$
ligand
 OpenBabel02271912143D
libRbt.so/2013.1/901 2013/11/27
 46 52  0  0  0  0  0  0  0  0999 V2000
  -19.6356   -9.8933   20.8731 P   0  0  1  0  0  0  0  0  0  0  0  0
  -15.6059   -7.8758   17.0828 P   0  0  2  0  0  0  0  0  0  0  0  0
  -20.1488  -11.5258   20.4113 O   0  5  0  0  0  0  0  0  0  0  0  0
  -20.3994   -9.3703   22.3971 O   0  0  0  0  0  0  0  0  0  0  0  0
  -17.3159   -8.6799   21.2854 C   0  0  0  0  0  0  0  0  0  0  0  0
  -18.0304   -9.8878   21.0226 O   0  0  0  0  0  0  0  0  0  0  0  0
  -15.8641   -8.8820   20.8952 C   0  0  1  0  0  0  0  0  0  0  0  0
  -15.3535  -10.0542   21.5456 O   0  0  0  0  0  0  0  0  0  0  0  0
  -15.6707   -9.1248   19.4072 C   0  0  1  0  0  0  0  0  0  0  0  0
  -15.4500   -7.9128   18.6894 O   0  0  0  0  0  0  0  0  0  0  0  0
  -14.4604  -10.0409   19.3617 C   0  0  1  0  0  0  0  0  0  0  0  0
  -13.2601   -9.2655   19.3109 O   0  0  0  0  0  0  0  0  0  0  0  0
  -14.4906  -10.8018   20.6742 C   0  0  2  0  0  0  0  0  0  0  0  0
  -20.4451   -9.4324   16.2246 C   0  0  1  0  0  0  0  0  0  0  0  0
  -16.9915  -14.2339   17.4871 N   0  0  0  0  0  0  0  0  0  0  0  0
  -16.6427  -12.9402   17.2486 C   0  0  1  0  0  0  0  0  0  0  0  0
  -20.4171   -9.9796   17.6235 C   0  0  2  0  0  0  0  0  0  0  0  0
  -16.9555  -12.4047   16.0460 N   0  0  0  0  0  0  0  0  0  0  0  0
  -21.7555   -9.8979   18.1165 O   0  0  0  0  0  0  0  0  0  0  0  0
  -19.4750   -9.0625   18.3780 C   0  0  2  0  0  0  0  0  0  0  0  0
  -15.9967  -12.1663   18.1708 N   0  0  0  0  0  0  0  0  0  0  0  0
  -19.9236   -8.8246   19.7052 O   0  0  0  0  0  0  0  0  0  0  0  0
  -15.6592  -12.6570   19.3902 C   0  0  2  0  0  0  0  0  0  0  0  0
  -19.4773   -7.7680   17.5888 C   0  0  2  0  0  0  0  0  0  0  0  0
  -19.9043   -8.1128   16.2720 O   0  0  0  0  0  0  0  0  0  0  0  0
  -16.0167  -14.0520   19.7009 C   0  0  1  0  0  0  0  0  0  0  0  0
  -18.1022   -7.1128   17.5224 C   0  0  0  0  0  0  0  0  0  0  0  0
  -17.1958   -7.9953   16.8579 O   0  0  0  0  0  0  0  0  0  0  0  0
  -16.7125  -14.8366   18.6654 C   0  0  0  0  0  0  0  0  0  0  0  0
  -17.0673  -16.1262   18.8962 O   0  0  0  0  0  0  0  0  0  0  0  0
  -15.5899  -14.2948   20.9451 N   0  0  0  0  0  0  0  0  0  0  0  0
  -15.0047  -13.1502   21.4045 C   0  0  0  0  0  0  0  0  0  0  0  0
  -15.0443  -12.1681   20.4797 N   0  0  1  0  0  0  0  0  0  0  0  0
  -17.9282   -9.7270   11.6478 N   0  0  0  0  0  0  0  0  0  0  0  0
  -14.7601   -9.2445   16.3134 O   0  5  0  0  0  0  0  0  0  0  0  0
  -18.6082   -8.6864   12.2027 C   0  0  2  0  0  0  0  0  0  0  0  0
  -18.6848   -7.5092   11.5287 N   0  0  0  0  0  0  0  0  0  0  0  0
  -15.0514   -6.3547   16.3570 O   0  0  0  0  0  0  0  0  0  0  0  0
  -19.2159   -8.7869   13.4163 N   0  0  0  0  0  0  0  0  0  0  0  0
  -19.1690   -9.9310   14.1380 C   0  0  2  0  0  0  0  0  0  0  0  0
  -18.4521  -11.0902   13.5902 C   0  0  2  0  0  0  0  0  0  0  0  0
  -17.8173  -10.9222   12.2654 C   0  0  0  0  0  0  0  0  0  0  0  0
  -17.1362  -11.9371   11.6783 O   0  0  0  0  0  0  0  0  0  0  0  0
  -18.5722  -12.0808   14.4960 N   0  0  0  0  0  0  0  0  0  0  0  0
  -19.3038  -11.5924   15.5415 C   0  0  0  0  0  0  0  0  0  0  0  0
  -19.6601  -10.3067   15.3204 N   0  0  1  0  0  0  0  0  0  0  0  0
  1  3  1  6  0  0  0
  1  4  2  0  0  0  0
  1  6  1  0  0  0  0
  1 22  1  0  0  0  0
  2 28  1  0  0  0  0
  2 35  1  6  0  0  0
  2 38  2  0  0  0  0
  2 10  1  0  0  0  0
  5  6  1  0  0  0  0
  7  5  1  6  0  0  0
  7  8  1  0  0  0  0
  7  9  1  0  0  0  0
  9 10  1  6  0  0  0
  9 11  1  0  0  0  0
 11 12  1  1  0  0  0
 11 13  1  0  0  0  0
 13  8  1  1  0  0  0
 13 33  1  0  0  0  0
 14 46  1  0  0  0  0
 14 17  1  0  0  0  0
 14 25  1  1  0  0  0
 15 16  1  0  0  0  0
 15 29  1  0  0  0  0
 16 18  1  1  0  0  0
 16 21  1  0  0  0  0
 17 19  1  1  0  0  0
 17 20  1  0  0  0  0
 20 22  1  1  0  0  0
 20 24  1  0  0  0  0
 23 21  1  1  0  0  0
 23 26  1  0  0  0  0
 23 33  1  0  0  0  0
 24 25  1  6  0  0  0
 24 27  1  0  0  0  0
 26 29  1  6  0  0  0
 26 31  1  0  0  0  0
 27 28  1  0  0  0  0
 29 30  2  0  0  0  0
 31 32  1  0  0  0  0
 33 32  1  6  0  0  0
 34 36  1  0  0  0  0
 34 42  1  0  0  0  0
 36 37  1  1  0  0  0
 36 39  1  0  0  0  0
 40 39  1  6  0  0  0
 40 41  1  0  0  0  0
 40 46  1  0  0  0  0
 41 42  1  6  0  0  0
 41 44  1  0  0  0  0
 42 43  2  0  0  0  0
 44 45  1  0  0  0  0
 46 45  1  1  0  0  0
M  CHG  2   3  -1  35  -1
M  END
>  <CHROM.1>
105.74882992,-159.95149925,-17.49969720,-10.26866623,17.69370591,0.92952666
-1.12627446,1.23763273

>  <Name>
ligand

>  <RI>
-1

>  <Rbt.Current_Directory>
/home/itssahil/PROJECTS/Mol_Feturizer/Test_systems_manuscript/rnas/3mum

>  <Rbt.Executable>
rbdock ($Id: //depot/dev/client3/rdock/2013.1/src/exe/rbdock.cxx#4 $)

>  <Rbt.Library>
libRbt.so (2013.1, Build901 2013/11/27)

>  <Rbt.Parameter_File>
/export/apps/rDock/src/rDock_2013.1_src/data/scripts/dock_solv.prm

>  <Rbt.Receptor>
prm/blind_docking_100.prm

>  <SCORE>
24.1546

>  <SCORE.INTER>
18.1694

>  <SCORE.INTER.CONST>
1

>  <SCORE.INTER.POLAR>
0

>  <SCORE.INTER.ROT>
2

>  <SCORE.INTER.SOLV>
36.3158

>  <SCORE.INTER.VDW>
-4.92567

>  <SCORE.INTER.norm>
0.394986

>  <SCORE.INTRA>
5.88245

>  <SCORE.INTRA.DIHEDRAL>
0.0218124

>  <SCORE.INTRA.DIHEDRAL.0>
2.40424

>  <SCORE.INTRA.POLAR>
0

>  <SCORE.INTRA.POLAR.0>
0

>  <SCORE.INTRA.REPUL>
0

>  <SCORE.INTRA.REPUL.0>
0

>  <SCORE.INTRA.SOLV>
5.18111

>  <SCORE.INTRA.SOLV.lig_0>
-134.169

>  <SCORE.INTRA.VDW>
3.28099

>  <SCORE.INTRA.VDW.0>
-2.18386

>  <SCORE.INTRA.norm>
0.127879

>  <SCORE.RESTR>
0.102759

>  <SCORE.RESTR.CAVITY>
0.102759

>  <SCORE.RESTR.norm>
0.00223388

>  <SCORE.SYSTEM>
0

>  <SCORE.SYSTEM.CONST>
0

>  <SCORE.SYSTEM.DIHEDRAL>
0

>  <SCORE.SYSTEM.SOLV>
0

>  <SCORE.SYSTEM.norm>
0

>  <SCORE.heavy>
46

>  <SCORE.norm>
0.5251

>  <RMSD>
15.918

$$$$
ligand
 OpenBabel02271912143D
libRbt.so/2013.1/901 2013/11/27
 46 52  0  0  0  0  0  0  0  0999 V2000
  -19.4577  -11.5903   17.5650 P   0  0  1  0  0  0  0  0  0  0  0  0
  -14.9052   -9.1282   20.3738 P   0  0  2  0  0  0  0  0  0  0  0  0
  -20.9184  -10.6117   17.7893 O   0  5  0  0  0  0  0  0  0  0  0  0
  -19.7526  -12.9727   16.4782 O   0  0  0  0  0  0  0  0  0  0  0  0
  -16.9702  -11.1311   16.7742 C   0  0  0  0  0  0  0  0  0  0  0  0
  -18.2990  -10.6443   16.9633 O   0  0  0  0  0  0  0  0  0  0  0  0
  -16.0302   -9.9449   16.6750 C   0  0  1  0  0  0  0  0  0  0  0  0
  -16.5052   -9.0421   15.6664 O   0  0  0  0  0  0  0  0  0  0  0  0
  -15.9593   -9.1264   17.9538 C   0  0  1  0  0  0  0  0  0  0  0  0
  -14.9220   -9.5761   18.8227 O   0  0  0  0  0  0  0  0  0  0  0  0
  -15.7060   -7.7172   17.4478 C   0  0  1  0  0  0  0  0  0  0  0  0
  -14.3007   -7.4884   17.3169 O   0  0  0  0  0  0  0  0  0  0  0  0
  -16.3347   -7.6736   16.0674 C   0  0  2  0  0  0  0  0  0  0  0  0
  -19.4265  -10.7643   22.2334 C   0  0  1  0  0  0  0  0  0  0  0  0
  -20.2470   -5.2547   13.4150 N   0  0  0  0  0  0  0  0  0  0  0  0
  -19.0834   -5.7764   12.9393 C   0  0  1  0  0  0  0  0  0  0  0  0
  -19.8722  -10.8635   20.8020 C   0  0  2  0  0  0  0  0  0  0  0  0
  -18.8402   -5.6915   11.6110 N   0  0  0  0  0  0  0  0  0  0  0  0
  -20.8192  -11.9318   20.7466 O   0  0  0  0  0  0  0  0  0  0  0  0
  -18.6095  -11.1808   20.0256 C   0  0  2  0  0  0  0  0  0  0  0  0
  -18.1571   -6.3752   13.7457 N   0  0  0  0  0  0  0  0  0  0  0  0
  -18.8583  -12.0981   18.9693 O   0  0  0  0  0  0  0  0  0  0  0  0
  -18.3548   -6.4871   15.0836 C   0  0  2  0  0  0  0  0  0  0  0  0
  -17.6728  -11.8017   21.0433 C   0  0  2  0  0  0  0  0  0  0  0  0
  -18.1331  -11.3607   22.3196 O   0  0  0  0  0  0  0  0  0  0  0  0
  -19.5976   -5.9356   15.6509 C   0  0  1  0  0  0  0  0  0  0  0  0
  -16.2220  -11.3745   20.8504 C   0  0  0  0  0  0  0  0  0  0  0  0
  -16.1259   -9.9585   21.0166 O   0  0  0  0  0  0  0  0  0  0  0  0
  -20.5585   -5.3020   14.7304 C   0  0  0  0  0  0  0  0  0  0  0  0
  -21.7194   -4.7759   15.1967 O   0  0  0  0  0  0  0  0  0  0  0  0
  -19.5565   -6.1602   16.9688 N   0  0  0  0  0  0  0  0  0  0  0  0
  -18.3822   -6.8035   17.2350 C   0  0  0  0  0  0  0  0  0  0  0  0
  -17.6599   -7.0004   16.1121 N   0  0  1  0  0  0  0  0  0  0  0  0
  -20.6484   -7.3963   26.0455 N   0  0  0  0  0  0  0  0  0  0  0  0
  -15.1793   -7.3747   20.5497 O   0  5  0  0  0  0  0  0  0  0  0  0
  -20.8485   -8.7408   25.9737 C   0  0  2  0  0  0  0  0  0  0  0  0
  -21.4456   -9.3792   27.0139 N   0  0  0  0  0  0  0  0  0  0  0  0
  -13.4134   -9.5813   21.2207 O   0  0  0  0  0  0  0  0  0  0  0  0
  -20.4678   -9.4701   24.8895 N   0  0  0  0  0  0  0  0  0  0  0  0
  -19.8626   -8.8920   23.8256 C   0  0  2  0  0  0  0  0  0  0  0  0
  -19.6220   -7.4431   23.8433 C   0  0  2  0  0  0  0  0  0  0  0  0
  -20.0629   -6.7039   25.0455 C   0  0  0  0  0  0  0  0  0  0  0  0
  -19.8855   -5.3638   25.1512 O   0  0  0  0  0  0  0  0  0  0  0  0
  -19.0263   -7.1372   22.6736 N   0  0  0  0  0  0  0  0  0  0  0  0
  -18.8928   -8.2988   21.9666 C   0  0  0  0  0  0  0  0  0  0  0  0
  -19.3972   -9.3447   22.6599 N   0  0  1  0  0  0  0  0  0  0  0  0
  1  3  1  1  0  0  0
  1  4  2  0  0  0  0
  1  6  1  0  0  0  0
  1 22  1  0  0  0  0
  2 28  1  0  0  0  0
  2 35  1  1  0  0  0
  2 38  2  0  0  0  0
  2 10  1  0  0  0  0
  5  6  1  0  0  0  0
  7  5  1  1  0  0  0
  7  8  1  0  0  0  0
  7  9  1  0  0  0  0
  9 10  1  1  0  0  0
  9 11  1  0  0  0  0
 11 12  1  6  0  0  0
 11 13  1  0  0  0  0
 13  8  1  1  0  0  0
 13 33  1  0  0  0  0
 14 46  1  0  0  0  0
 14 17  1  0  0  0  0
 14 25  1  6  0  0  0
 15 16  1  0  0  0  0
 15 29  1  0  0  0  0
 16 18  1  1  0  0  0
 16 21  1  0  0  0  0
 17 19  1  1  0  0  0
 17 20  1  0  0  0  0
 20 22  1  6  0  0  0
 20 24  1  0  0  0  0
 23 21  1  1  0  0  0
 23 26  1  0  0  0  0
 23 33  1  0  0  0  0
 24 25  1  1  0  0  0
 24 27  1  0  0  0  0
 26 29  1  6  0  0  0
 26 31  1  0  0  0  0
 27 28  1  0  0  0  0
 29 30  2  0  0  0  0
 31 32  1  0  0  0  0
 33 32  1  6  0  0  0
 34 36  1  0  0  0  0
 34 42  1  0  0  0  0
 36 37  1  1  0  0  0
 36 39  1  0  0  0  0
 40 39  1  6  0  0  0
 40 41  1  0  0  0  0
 40 46  1  0  0  0  0
 41 42  1  6  0  0  0
 41 44  1  0  0  0  0
 42 43  2  0  0  0  0
 44 45  1  0  0  0  0
 46 45  1  1  0  0  0
M  CHG  2   3  -1  35  -1
M  END
>  <CHROM.1>
-81.12344511,136.04940497,-18.29746933,-8.81890953,19.26374904,-1.40750292
-0.80318389,1.88997866

>  <Name>
ligand

>  <RI>
-1

>  <Rbt.Current_Directory>
/home/itssahil/PROJECTS/Mol_Feturizer/Test_systems_manuscript/rnas/3mum

>  <Rbt.Executable>
rbdock ($Id: //depot/dev/client3/rdock/2013.1/src/exe/rbdock.cxx#4 $)

>  <Rbt.Library>
libRbt.so (2013.1, Build901 2013/11/27)

>  <Rbt.Parameter_File>
/export/apps/rDock/src/rDock_2013.1_src/data/scripts/dock_solv.prm

>  <Rbt.Receptor>
prm/blind_docking_100.prm

>  <SCORE>
14.3909

>  <SCORE.INTER>
13.2485

>  <SCORE.INTER.CONST>
1

>  <SCORE.INTER.POLAR>
0

>  <SCORE.INTER.ROT>
2

>  <SCORE.INTER.SOLV>
40.0697

>  <SCORE.INTER.VDW>
-9.45754

>  <SCORE.INTER.norm>
0.288012

>  <SCORE.INTRA>
0.387814

>  <SCORE.INTRA.DIHEDRAL>
-0.027586

>  <SCORE.INTRA.DIHEDRAL.0>
2.40424

>  <SCORE.INTRA.POLAR>
0

>  <SCORE.INTRA.POLAR.0>
0

>  <SCORE.INTRA.REPUL>
0

>  <SCORE.INTRA.REPUL.0>
0

>  <SCORE.INTRA.SOLV>
0.00171091

>  <SCORE.INTRA.SOLV.lig_0>
-134.169

>  <SCORE.INTRA.VDW>
0.400752

>  <SCORE.INTRA.VDW.0>
-2.18386

>  <SCORE.INTRA.norm>
0.00843075

>  <SCORE.RESTR>
0.754544

>  <SCORE.RESTR.CAVITY>
0.754544

>  <SCORE.RESTR.norm>
0.0164031

>  <SCORE.SYSTEM>
0

>  <SCORE.SYSTEM.CONST>
0

>  <SCORE.SYSTEM.DIHEDRAL>
0

>  <SCORE.SYSTEM.SOLV>
0

>  <SCORE.SYSTEM.norm>
0

>  <SCORE.heavy>
46

>  <SCORE.norm>
0.312846

>  <RMSD>
15.923

$$$$
ligand
 OpenBabel02271912143D
libRbt.so/2013.1/901 2013/11/27
 46 52  0  0  0  0  0  0  0  0999 V2000
  -19.6431   -9.8889   20.8761 P   0  0  1  0  0  0  0  0  0  0  0  0
  -15.5983   -7.8935   17.0902 P   0  0  2  0  0  0  0  0  0  0  0  0
  -20.1600  -11.5212   20.4174 O   0  5  0  0  0  0  0  0  0  0  0  0
  -20.4090   -9.3596   22.3968 O   0  0  0  0  0  0  0  0  0  0  0  0
  -17.3208   -8.6814   21.2908 C   0  0  0  0  0  0  0  0  0  0  0  0
  -18.0382   -9.8878   21.0294 O   0  0  0  0  0  0  0  0  0  0  0  0
  -15.8687   -8.8888   20.9046 C   0  0  1  0  0  0  0  0  0  0  0  0
  -15.3631  -10.0608   21.5594 O   0  0  0  0  0  0  0  0  0  0  0  0
  -15.6724   -9.1361   19.4178 C   0  0  1  0  0  0  0  0  0  0  0  0
  -15.4463   -7.9267   18.6972 O   0  0  0  0  0  0  0  0  0  0  0  0
  -14.4647  -10.0559   19.3776 C   0  0  1  0  0  0  0  0  0  0  0  0
  -13.2620   -9.2843   19.3277 O   0  0  0  0  0  0  0  0  0  0  0  0
  -14.5003  -10.8132   20.6921 C   0  0  2  0  0  0  0  0  0  0  0  0
  -20.4400   -9.4380   16.2244 C   0  0  1  0  0  0  0  0  0  0  0  0
  -16.9881  -14.2519   17.5016 N   0  0  0  0  0  0  0  0  0  0  0  0
  -16.6324  -12.9607   17.2595 C   0  0  1  0  0  0  0  0  0  0  0  0
  -20.4170   -9.9816   17.6249 C   0  0  2  0  0  0  0  0  0  0  0  0
  -16.9333  -12.4301   16.0518 N   0  0  0  0  0  0  0  0  0  0  0  0
  -21.7563   -9.8946   18.1144 O   0  0  0  0  0  0  0  0  0  0  0  0
  -19.4740   -9.0653   18.3792 C   0  0  2  0  0  0  0  0  0  0  0  0
  -15.9910  -12.1846   18.1831 N   0  0  0  0  0  0  0  0  0  0  0  0
  -19.9251   -8.8225   19.7047 O   0  0  0  0  0  0  0  0  0  0  0  0
  -15.6654  -12.6705   19.4077 C   0  0  2  0  0  0  0  0  0  0  0  0
  -19.4705   -7.7729   17.5866 C   0  0  2  0  0  0  0  0  0  0  0  0
  -19.8954   -8.1199   16.2696 O   0  0  0  0  0  0  0  0  0  0  0  0
  -16.0308  -14.0625   19.7225 C   0  0  1  0  0  0  0  0  0  0  0  0
  -18.0934   -7.1219   17.5217 C   0  0  0  0  0  0  0  0  0  0  0  0
  -17.1880   -8.0089   16.8617 O   0  0  0  0  0  0  0  0  0  0  0  0
  -16.7211  -14.8497   18.6852 C   0  0  0  0  0  0  0  0  0  0  0  0
  -17.0826  -16.1367   18.9195 O   0  0  0  0  0  0  0  0  0  0  0  0
  -15.6151  -14.3006   20.9713 N   0  0  0  0  0  0  0  0  0  0  0  0
  -15.0293  -13.1560   21.4298 C   0  0  0  0  0  0  0  0  0  0  0  0
  -15.0576  -12.1784   20.4997 N   0  0  1  0  0  0  0  0  0  0  0  0
  -17.9546   -9.7671   11.6328 N   0  0  0  0  0  0  0  0  0  0  0  0
  -14.7547   -9.2668   16.3265 O   0  5  0  0  0  0  0  0  0  0  0  0
  -18.6378   -8.7251   12.1809 C   0  0  2  0  0  0  0  0  0  0  0  0
  -18.7277   -7.5562   11.4942 N   0  0  0  0  0  0  0  0  0  0  0  0
  -15.0375   -6.3760   16.3617 O   0  0  0  0  0  0  0  0  0  0  0  0
  -19.2360   -8.8160   13.4000 N   0  0  0  0  0  0  0  0  0  0  0  0
  -19.1756   -9.9514   14.1343 C   0  0  2  0  0  0  0  0  0  0  0  0
  -18.4545  -11.1117   13.5944 C   0  0  2  0  0  0  0  0  0  0  0  0
  -17.8306  -10.9543   12.2632 C   0  0  0  0  0  0  0  0  0  0  0  0
  -17.1467  -11.9711   11.6826 O   0  0  0  0  0  0  0  0  0  0  0  0
  -18.5610  -12.0928   14.5122 N   0  0  0  0  0  0  0  0  0  0  0  0
  -19.2885  -11.5976   15.5576 C   0  0  0  0  0  0  0  0  0  0  0  0
  -19.6555  -10.3170   15.3245 N   0  0  1  0  0  0  0  0  0  0  0  0
  1  3  1  6  0  0  0
  1  4  2  0  0  0  0
  1  6  1  0  0  0  0
  1 22  1  0  0  0  0
  2 28  1  0  0  0  0
  2 35  1  6  0  0  0
  2 38  2  0  0  0  0
  2 10  1  0  0  0  0
  5  6  1  0  0  0  0
  7  5  1  6  0  0  0
  7  8  1  0  0  0  0
  7  9  1  0  0  0  0
  9 10  1  6  0  0  0
  9 11  1  0  0  0  0
 11 12  1  1  0  0  0
 11 13  1  0  0  0  0
 13  8  1  1  0  0  0
 13 33  1  0  0  0  0
 14 46  1  0  0  0  0
 14 17  1  0  0  0  0
 14 25  1  1  0  0  0
 15 16  1  0  0  0  0
 15 29  1  0  0  0  0
 16 18  1  1  0  0  0
 16 21  1  0  0  0  0
 17 19  1  1  0  0  0
 17 20  1  0  0  0  0
 20 22  1  1  0  0  0
 20 24  1  0  0  0  0
 23 21  1  1  0  0  0
 23 26  1  0  0  0  0
 23 33  1  0  0  0  0
 24 25  1  6  0  0  0
 24 27  1  0  0  0  0
 26 29  1  6  0  0  0
 26 31  1  0  0  0  0
 27 28  1  0  0  0  0
 29 30  2  0  0  0  0
 31 32  1  0  0  0  0
 33 32  1  6  0  0  0
 34 36  1  0  0  0  0
 34 42  1  0  0  0  0
 36 37  1  1  0  0  0
 36 39  1  0  0  0  0
 40 39  1  6  0  0  0
 40 41  1  0  0  0  0
 40 46  1  0  0  0  0
 41 42  1  6  0  0  0
 41 44  1  0  0  0  0
 42 43  2  0  0  0  0
 44 45  1  0  0  0  0
 46 45  1  1  0  0  0
M  CHG  2   3  -1  35  -1
M  END
>  <CHROM.1>
106.11091075,-160.89520692,-17.50350579,-10.28132755,17.69980619,0.92867502
-1.12521227,1.23220699

>  <Name>
ligand

>  <RI>
-1

>  <Rbt.Current_Directory>
/home/itssahil/PROJECTS/Mol_Feturizer/Test_systems_manuscript/rnas/3mum

>  <Rbt.Executable>
rbdock ($Id: //depot/dev/client3/rdock/2013.1/src/exe/rbdock.cxx#4 $)

>  <Rbt.Library>
libRbt.so (2013.1, Build901 2013/11/27)

>  <Rbt.Parameter_File>
/export/apps/rDock/src/rDock_2013.1_src/data/scripts/dock_solv.prm

>  <Rbt.Receptor>
prm/blind_docking_80.prm

>  <SCORE>
24.2031

>  <SCORE.INTER>
18.3599

>  <SCORE.INTER.CONST>
1

>  <SCORE.INTER.POLAR>
0

>  <SCORE.INTER.ROT>
2

>  <SCORE.INTER.SOLV>
36.2905

>  <SCORE.INTER.VDW>
-4.79021

>  <SCORE.INTER.norm>
0.399129

>  <SCORE.INTRA>
5.73849

>  <SCORE.INTRA.DIHEDRAL>
0.0210281

>  <SCORE.INTRA.DIHEDRAL.0>
2.40424

>  <SCORE.INTRA.POLAR>
0

>  <SCORE.INTRA.POLAR.0>
0

>  <SCORE.INTRA.REPUL>
0

>  <SCORE.INTRA.REPUL.0>
0

>  <SCORE.INTRA.SOLV>
5.09511

>  <SCORE.INTRA.SOLV.lig_0>
-134.169

>  <SCORE.INTRA.VDW>
3.18042

>  <SCORE.INTRA.VDW.0>
-2.18386

>  <SCORE.INTRA.norm>
0.12475

>  <SCORE.RESTR>
0.104697

>  <SCORE.RESTR.CAVITY>
0.104697

>  <SCORE.RESTR.norm>
0.00227603

>  <SCORE.SYSTEM>
0

>  <SCORE.SYSTEM.CONST>
0

>  <SCORE.SYSTEM.DIHEDRAL>
0

>  <SCORE.SYSTEM.SOLV>
0

>  <SCORE.SYSTEM.norm>
0

>  <SCORE.heavy>
46

>  <SCORE.norm>
0.526154

>  <RMSD>
15.929

$$$$
ligand
 OpenBabel02271912143D
libRbt.so/2013.1/901 2013/11/27
 46 52  0  0  0  0  0  0  0  0999 V2000
  -15.8541   -7.3988   16.3249 P   0  0  1  0  0  0  0  0  0  0  0  0
  -20.1490   -9.8455   19.5255 P   0  0  2  0  0  0  0  0  0  0  0  0
  -14.9914   -8.6430   15.4032 O   0  5  0  0  0  0  0  0  0  0  0  0
  -15.2516   -5.7639   15.9465 O   0  0  0  0  0  0  0  0  0  0  0  0
  -18.3889   -6.6995   16.6554 C   0  0  0  0  0  0  0  0  0  0  0  0
  -17.4253   -7.5084   15.9804 O   0  0  0  0  0  0  0  0  0  0  0  0
  -19.7547   -7.3397   16.4958 C   0  0  1  0  0  0  0  0  0  0  0  0
  -20.0128   -7.5738   15.1042 O   0  0  0  0  0  0  0  0  0  0  0  0
  -19.8618   -8.7004   17.1647 C   0  0  1  0  0  0  0  0  0  0  0  0
  -20.3249   -8.6029   18.5097 O   0  0  0  0  0  0  0  0  0  0  0  0
  -20.8444   -9.4444   16.2776 C   0  0  1  0  0  0  0  0  0  0  0  0
  -22.1826   -9.2083   16.7224 O   0  0  0  0  0  0  0  0  0  0  0  0
  -20.6765   -8.8310   14.8998 C   0  0  2  0  0  0  0  0  0  0  0  0
  -15.0718  -10.7366   19.5996 C   0  0  1  0  0  0  0  0  0  0  0  0
  -18.9126   -9.9687   10.0226 N   0  0  0  0  0  0  0  0  0  0  0  0
  -19.7625   -8.9822   10.4186 C   0  0  1  0  0  0  0  0  0  0  0  0
  -15.0086   -9.9383   18.3284 C   0  0  2  0  0  0  0  0  0  0  0  0
  -20.2573   -8.1475    9.4756 N   0  0  0  0  0  0  0  0  0  0  0  0
  -13.7294   -9.3022   18.3137 O   0  0  0  0  0  0  0  0  0  0  0  0
  -16.1412   -8.9376   18.4442 C   0  0  2  0  0  0  0  0  0  0  0  0
  -20.1351   -8.8056   11.7212 N   0  0  0  0  0  0  0  0  0  0  0  0
  -15.7809   -7.6715   17.9089 O   0  0  0  0  0  0  0  0  0  0  0  0
  -19.6653   -9.6145   12.7043 C   0  0  2  0  0  0  0  0  0  0  0  0
  -16.4031   -8.8170   19.9326 C   0  0  2  0  0  0  0  0  0  0  0  0
  -15.8858  -10.0102   20.5193 O   0  0  0  0  0  0  0  0  0  0  0  0
  -18.7439  -10.7010   12.3291 C   0  0  1  0  0  0  0  0  0  0  0  0
  -17.8856   -8.6886   20.2643 C   0  0  0  0  0  0  0  0  0  0  0  0
  -18.5667   -9.8649   19.8232 O   0  0  0  0  0  0  0  0  0  0  0  0
  -18.3787  -10.8407   10.9081 C   0  0  0  0  0  0  0  0  0  0  0  0
  -17.5348  -11.8238   10.5040 O   0  0  0  0  0  0  0  0  0  0  0  0
  -18.4316  -11.3521   13.4550 N   0  0  0  0  0  0  0  0  0  0  0  0
  -19.0974  -10.7390   14.4769 C   0  0  0  0  0  0  0  0  0  0  0  0
  -19.8369   -9.7006   14.0337 N   0  0  1  0  0  0  0  0  0  0  0  0
  -16.9991  -13.9288   15.9302 N   0  0  0  0  0  0  0  0  0  0  0  0
  -20.6638  -11.3795   18.7753 O   0  5  0  0  0  0  0  0  0  0  0  0
  -16.5569  -12.6458   15.8239 C   0  0  2  0  0  0  0  0  0  0  0  0
  -16.5827  -12.0335   14.6112 N   0  0  0  0  0  0  0  0  0  0  0  0
  -21.0047   -9.6232   21.0638 O   0  0  0  0  0  0  0  0  0  0  0  0
  -16.0869  -11.9533   16.8971 N   0  0  0  0  0  0  0  0  0  0  0  0
  -16.0302  -12.5114   18.1290 C   0  0  2  0  0  0  0  0  0  0  0  0
  -16.4962  -13.8929   18.3075 C   0  0  2  0  0  0  0  0  0  0  0  0
  -17.0011  -14.5916   17.1062 C   0  0  0  0  0  0  0  0  0  0  0  0
  -17.4547  -15.8676   17.1737 O   0  0  0  0  0  0  0  0  0  0  0  0
  -16.3400  -14.1865   19.6136 N   0  0  0  0  0  0  0  0  0  0  0  0
  -15.8121  -13.0820   20.2206 C   0  0  0  0  0  0  0  0  0  0  0  0
  -15.6314  -12.0824   19.3279 N   0  0  1  0  0  0  0  0  0  0  0  0
  1  3  1  6  0  0  0
  1  4  2  0  0  0  0
  1  6  1  0  0  0  0
  1 22  1  0  0  0  0
  2 28  1  0  0  0  0
  2 35  1  6  0  0  0
  2 38  2  0  0  0  0
  2 10  1  0  0  0  0
  5  6  1  0  0  0  0
  7  5  1  6  0  0  0
  7  8  1  0  0  0  0
  7  9  1  0  0  0  0
  9 10  1  1  0  0  0
  9 11  1  0  0  0  0
 11 12  1  1  0  0  0
 11 13  1  0  0  0  0
 13  8  1  1  0  0  0
 13 33  1  0  0  0  0
 14 46  1  0  0  0  0
 14 17  1  0  0  0  0
 14 25  1  1  0  0  0
 15 16  1  0  0  0  0
 15 29  1  0  0  0  0
 16 18  1  6  0  0  0
 16 21  1  0  0  0  0
 17 19  1  1  0  0  0
 17 20  1  0  0  0  0
 20 22  1  1  0  0  0
 20 24  1  0  0  0  0
 23 21  1  6  0  0  0
 23 26  1  0  0  0  0
 23 33  1  0  0  0  0
 24 25  1  1  0  0  0
 24 27  1  0  0  0  0
 26 29  1  1  0  0  0
 26 31  1  0  0  0  0
 27 28  1  0  0  0  0
 29 30  2  0  0  0  0
 31 32  1  0  0  0  0
 33 32  1  1  0  0  0
 34 36  1  0  0  0  0
 34 42  1  0  0  0  0
 36 37  1  6  0  0  0
 36 39  1  0  0  0  0
 40 39  1  1  0  0  0
 40 41  1  0  0  0  0
 40 46  1  0  0  0  0
 41 42  1  1  0  0  0
 41 44  1  0  0  0  0
 42 43  2  0  0  0  0
 44 45  1  0  0  0  0
 46 45  1  6  0  0  0
M  CHG  2   3  -1  35  -1
M  END
>  <CHROM.1>
-76.17094354,-0.56702322,-17.91344841,-10.03348294,16.47095118,2.27107916
1.08503233,-2.01618817

>  <Name>
ligand

>  <RI>
0

>  <Rbt.Current_Directory>
/home/itssahil/PROJECTS/Mol_Feturizer/Test_systems_manuscript/rnas/3mum

>  <Rbt.Executable>
rbdock ($Id: //depot/dev/client3/rdock/2013.1/src/exe/rbdock.cxx#4 $)

>  <Rbt.Library>
libRbt.so (2013.1, Build901 2013/11/27)

>  <Rbt.Parameter_File>
/export/apps/rDock/src/rDock_2013.1_src/data/scripts/dock_solv.prm

>  <Rbt.Receptor>
prm/blind_docking_60.prm

>  <SCORE>
27.3712

>  <SCORE.INTER>
21.8813

>  <SCORE.INTER.CONST>
1

>  <SCORE.INTER.POLAR>
0

>  <SCORE.INTER.ROT>
2

>  <SCORE.INTER.SOLV>
42.6415

>  <SCORE.INTER.VDW>
-4.55964

>  <SCORE.INTER.norm>
0.475681

>  <SCORE.INTRA>
5.41538

>  <SCORE.INTRA.DIHEDRAL>
-0.00550363

>  <SCORE.INTRA.DIHEDRAL.0>
2.40424

>  <SCORE.INTRA.POLAR>
0

>  <SCORE.INTRA.POLAR.0>
0

>  <SCORE.INTRA.REPUL>
0

>  <SCORE.INTRA.REPUL.0>
0

>  <SCORE.INTRA.SOLV>
4.24189

>  <SCORE.INTRA.SOLV.lig_0>
-134.169

>  <SCORE.INTRA.VDW>
3.29719

>  <SCORE.INTRA.VDW.0>
-2.18386

>  <SCORE.INTRA.norm>
0.117726

>  <SCORE.RESTR>
0.0745036

>  <SCORE.RESTR.CAVITY>
0.0745036

>  <SCORE.RESTR.norm>
0.00161964

>  <SCORE.SYSTEM>
0

>  <SCORE.SYSTEM.CONST>
0

>  <SCORE.SYSTEM.DIHEDRAL>
0

>  <SCORE.SYSTEM.SOLV>
0

>  <SCORE.SYSTEM.norm>
0

>  <SCORE.heavy>
46

>  <SCORE.norm>
0.595026

>  <RMSD>
15.930

$$$$
ligand
 OpenBabel02271912143D
libRbt.so/2013.1/901 2013/11/27
 46 52  0  0  0  0  0  0  0  0999 V2000
  -19.3505  -11.8556   17.6663 P   0  0  1  0  0  0  0  0  0  0  0  0
  -14.7439   -9.6661   20.6094 P   0  0  2  0  0  0  0  0  0  0  0  0
  -20.7440  -10.7700   17.8128 O   0  5  0  0  0  0  0  0  0  0  0  0
  -19.7026  -13.2367   16.5949 O   0  0  0  0  0  0  0  0  0  0  0  0
  -16.8075  -11.5937   16.9680 C   0  0  0  0  0  0  0  0  0  0  0  0
  -18.1037  -11.0087   17.0940 O   0  0  0  0  0  0  0  0  0  0  0  0
  -15.7806  -10.4805   16.8843 C   0  0  1  0  0  0  0  0  0  0  0  0
  -16.1492   -9.5681   15.8405 O   0  0  0  0  0  0  0  0  0  0  0  0
  -15.7002   -9.6415   18.1492 C   0  0  1  0  0  0  0  0  0  0  0  0
  -14.7329  -10.1454   19.0676 O   0  0  0  0  0  0  0  0  0  0  0  0
  -15.3258   -8.2655   17.6272 C   0  0  1  0  0  0  0  0  0  0  0  0
  -13.9035   -8.1411   17.5489 O   0  0  0  0  0  0  0  0  0  0  0  0
  -15.8954   -8.2069   16.2220 C   0  0  2  0  0  0  0  0  0  0  0  0
  -19.4411  -10.9323   22.3156 C   0  0  1  0  0  0  0  0  0  0  0  0
  -20.7234   -7.5553   14.1105 N   0  0  0  0  0  0  0  0  0  0  0  0
  -19.7728   -8.4810   13.8074 C   0  0  1  0  0  0  0  0  0  0  0  0
  -19.8367  -11.0305   20.8696 C   0  0  2  0  0  0  0  0  0  0  0  0
  -20.0459   -9.3844   12.8379 N   0  0  0  0  0  0  0  0  0  0  0  0
  -20.8560  -12.0289   20.7962 O   0  0  0  0  0  0  0  0  0  0  0  0
  -18.5712  -11.4544   20.1510 C   0  0  2  0  0  0  0  0  0  0  0  0
  -18.5615   -8.5308   14.4373 N   0  0  0  0  0  0  0  0  0  0  0  0
  -18.8447  -12.3744   19.1030 O   0  0  0  0  0  0  0  0  0  0  0  0
  -18.2401   -7.6488   15.4174 C   0  0  2  0  0  0  0  0  0  0  0  0
  -17.7224  -12.1187   21.2172 C   0  0  2  0  0  0  0  0  0  0  0  0
  -18.1987  -11.6180   22.4653 O   0  0  0  0  0  0  0  0  0  0  0  0
  -19.2330   -6.6234   15.7823 C   0  0  1  0  0  0  0  0  0  0  0  0
  -16.2380  -11.8011   21.0750 C   0  0  0  0  0  0  0  0  0  0  0  0
  -16.0458  -10.3923   21.2181 O   0  0  0  0  0  0  0  0  0  0  0  0
  -20.5218   -6.6208   15.0673 C   0  0  0  0  0  0  0  0  0  0  0  0
  -21.4739   -5.6991   15.3606 O   0  0  0  0  0  0  0  0  0  0  0  0
  -18.6875   -5.8819   16.7526 N   0  0  0  0  0  0  0  0  0  0  0  0
  -17.4417   -6.3842   16.9962 C   0  0  0  0  0  0  0  0  0  0  0  0
  -17.1690   -7.4396   16.2003 N   0  0  1  0  0  0  0  0  0  0  0  0
  -16.9774   -7.5330   25.4371 N   0  0  0  0  0  0  0  0  0  0  0  0
  -14.8966   -7.8941   20.7408 O   0  5  0  0  0  0  0  0  0  0  0  0
  -16.8334   -8.8826   25.3331 C   0  0  2  0  0  0  0  0  0  0  0  0
  -15.9273   -9.5159   26.1229 N   0  0  0  0  0  0  0  0  0  0  0  0
  -13.3231  -10.2066   21.5243 O   0  0  0  0  0  0  0  0  0  0  0  0
  -17.5702   -9.6216   24.4594 N   0  0  0  0  0  0  0  0  0  0  0  0
  -18.4834   -9.0470   23.6420 C   0  0  2  0  0  0  0  0  0  0  0  0
  -18.6861   -7.5938   23.7101 C   0  0  2  0  0  0  0  0  0  0  0  0
  -17.8609   -6.8457   24.6825 C   0  0  0  0  0  0  0  0  0  0  0  0
  -17.9797   -5.5018   24.8185 O   0  0  0  0  0  0  0  0  0  0  0  0
  -19.6449   -7.2960   22.8111 N   0  0  0  0  0  0  0  0  0  0  0  0
  -20.0219   -8.4652   22.2129 C   0  0  0  0  0  0  0  0  0  0  0  0
  -19.3254   -9.5095   22.7160 N   0  0  1  0  0  0  0  0  0  0  0  0
  1  3  1  1  0  0  0
  1  4  2  0  0  0  0
  1  6  1  0  0  0  0
  1 22  1  0  0  0  0
  2 28  1  0  0  0  0
  2 35  1  1  0  0  0
  2 38  2  0  0  0  0
  2 10  1  0  0  0  0
  5  6  1  0  0  0  0
  7  5  1  1  0  0  0
  7  8  1  0  0  0  0
  7  9  1  0  0  0  0
  9 10  1  1  0  0  0
  9 11  1  0  0  0  0
 11 12  1  6  0  0  0
 11 13  1  0  0  0  0
 13  8  1  1  0  0  0
 13 33  1  0  0  0  0
 14 46  1  0  0  0  0
 14 17  1  0  0  0  0
 14 25  1  6  0  0  0
 15 16  1  0  0  0  0
 15 29  1  0  0  0  0
 16 18  1  6  0  0  0
 16 21  1  0  0  0  0
 17 19  1  1  0  0  0
 17 20  1  0  0  0  0
 20 22  1  6  0  0  0
 20 24  1  0  0  0  0
 23 21  1  6  0  0  0
 23 26  1  0  0  0  0
 23 33  1  0  0  0  0
 24 25  1  1  0  0  0
 24 27  1  0  0  0  0
 26 29  1  1  0  0  0
 26 31  1  0  0  0  0
 27 28  1  0  0  0  0
 29 30  2  0  0  0  0
 31 32  1  0  0  0  0
 33 32  1  1  0  0  0
 34 36  1  0  0  0  0
 34 42  1  0  0  0  0
 36 37  1  6  0  0  0
 36 39  1  0  0  0  0
 40 39  1  1  0  0  0
 40 41  1  0  0  0  0
 40 46  1  0  0  0  0
 41 42  1  1  0  0  0
 41 44  1  0  0  0  0
 42 43  2  0  0  0  0
 44 45  1  0  0  0  0
 46 45  1  6  0  0  0
M  CHG  2   3  -1  35  -1
M  END
>  <CHROM.1>
-29.80691340,-148.93600895,-17.79708575,-9.36658354,19.37433932,1.80283647
-0.58180574,-1.39524263

>  <Name>
ligand

>  <RI>
0

>  <Rbt.Current_Directory>
/home/itssahil/PROJECTS/Mol_Feturizer/Test_systems_manuscript/rnas/3mum

>  <Rbt.Executable>
rbdock ($Id: //depot/dev/client3/rdock/2013.1/src/exe/rbdock.cxx#4 $)

>  <Rbt.Library>
libRbt.so (2013.1, Build901 2013/11/27)

>  <Rbt.Parameter_File>
/export/apps/rDock/src/rDock_2013.1_src/data/scripts/dock_solv.prm

>  <Rbt.Receptor>
prm/blind_docking_60.prm

>  <SCORE>
57.217

>  <SCORE.INTER>
57.1068

>  <SCORE.INTER.CONST>
1

>  <SCORE.INTER.POLAR>
0

>  <SCORE.INTER.ROT>
2

>  <SCORE.INTER.SOLV>
35.5143

>  <SCORE.INTER.VDW>
21.2998

>  <SCORE.INTER.norm>
1.24145

>  <SCORE.INTRA>
0.110203

>  <SCORE.INTRA.DIHEDRAL>
0.0269314

>  <SCORE.INTRA.DIHEDRAL.0>
2.40424

>  <SCORE.INTRA.POLAR>
0

>  <SCORE.INTRA.POLAR.0>
0

>  <SCORE.INTRA.REPUL>
0

>  <SCORE.INTRA.REPUL.0>
0

>  <SCORE.INTRA.SOLV>
0.0674253

>  <SCORE.INTRA.SOLV.lig_0>
-134.169

>  <SCORE.INTRA.VDW>
0.0630244

>  <SCORE.INTRA.VDW.0>
-2.18386

>  <SCORE.INTRA.norm>
0.00239571

>  <SCORE.RESTR>
0

>  <SCORE.RESTR.CAVITY>
0

>  <SCORE.RESTR.norm>
0

>  <SCORE.SYSTEM>
0

>  <SCORE.SYSTEM.CONST>
0

>  <SCORE.SYSTEM.DIHEDRAL>
0

>  <SCORE.SYSTEM.SOLV>
0

>  <SCORE.SYSTEM.norm>
0

>  <SCORE.heavy>
46

>  <SCORE.norm>
1.24385

>  <RMSD>
15.930

$$$$
ligand
 OpenBabel02271912143D
libRbt.so/2013.1/901 2013/11/27
 46 52  0  0  0  0  0  0  0  0999 V2000
  -15.8747   -6.9607   16.3261 P   0  0  1  0  0  0  0  0  0  0  0  0
  -20.0244   -9.7755   19.4138 P   0  0  2  0  0  0  0  0  0  0  0  0
  -14.8875   -8.1235   15.4234 O   0  5  0  0  0  0  0  0  0  0  0  0
  -15.4036   -5.2790   15.9665 O   0  0  0  0  0  0  0  0  0  0  0  0
  -18.4669   -6.4795   16.5952 C   0  0  0  0  0  0  0  0  0  0  0  0
  -17.4221   -7.2011   15.9426 O   0  0  0  0  0  0  0  0  0  0  0  0
  -19.7693   -7.2321   16.4004 C   0  0  1  0  0  0  0  0  0  0  0  0
  -19.9725   -7.4812   15.0023 O   0  0  0  0  0  0  0  0  0  0  0  0
  -19.7773   -8.5999   17.0633 C   0  0  1  0  0  0  0  0  0  0  0  0
  -20.2798   -8.5478   18.3967 O   0  0  0  0  0  0  0  0  0  0  0  0
  -20.6714   -9.4204   16.1505 C   0  0  1  0  0  0  0  0  0  0  0  0
  -22.0353   -9.3002   16.5626 O   0  0  0  0  0  0  0  0  0  0  0  0
  -20.5222   -8.7891   14.7787 C   0  0  2  0  0  0  0  0  0  0  0  0
  -14.8934  -10.2346   19.6117 C   0  0  1  0  0  0  0  0  0  0  0  0
  -19.8573  -11.9716   10.5808 N   0  0  0  0  0  0  0  0  0  0  0  0
  -21.0015  -11.4105   11.0587 C   0  0  1  0  0  0  0  0  0  0  0  0
  -14.8667   -9.4283   18.3443 C   0  0  2  0  0  0  0  0  0  0  0  0
  -22.1603  -11.6695   10.4100 N   0  0  0  0  0  0  0  0  0  0  0  0
  -13.6460   -8.6863   18.3628 O   0  0  0  0  0  0  0  0  0  0  0  0
  -16.0824   -8.5274   18.4343 C   0  0  2  0  0  0  0  0  0  0  0  0
  -21.0253  -10.6044   12.1616 N   0  0  0  0  0  0  0  0  0  0  0  0
  -15.8175   -7.2330   17.9109 O   0  0  0  0  0  0  0  0  0  0  0  0
  -19.8903  -10.3126   12.8458 C   0  0  2  0  0  0  0  0  0  0  0  0
  -16.3900   -8.4359   19.9160 C   0  0  2  0  0  0  0  0  0  0  0  0
  -15.7882   -9.5835   20.5126 O   0  0  0  0  0  0  0  0  0  0  0  0
  -18.6237  -10.8973   12.3721 C   0  0  1  0  0  0  0  0  0  0  0  0
  -17.8858   -8.4346   20.2111 C   0  0  0  0  0  0  0  0  0  0  0  0
  -18.4539   -9.6623   19.7505 O   0  0  0  0  0  0  0  0  0  0  0  0
  -18.6619  -11.7585   11.1767 C   0  0  0  0  0  0  0  0  0  0  0  0
  -17.5263  -12.3251   10.6956 O   0  0  0  0  0  0  0  0  0  0  0  0
  -17.6650  -10.4732   13.2029 N   0  0  0  0  0  0  0  0  0  0  0  0
  -18.2612   -9.6794   14.1399 C   0  0  0  0  0  0  0  0  0  0  0  0
  -19.5911   -9.5809   13.9318 N   0  0  1  0  0  0  0  0  0  0  0  0
  -14.4563  -15.2566   21.0107 N   0  0  0  0  0  0  0  0  0  0  0  0
  -20.3890  -11.3442   18.6476 O   0  5  0  0  0  0  0  0  0  0  0  0
  -13.8496  -14.1526   21.5265 C   0  0  2  0  0  0  0  0  0  0  0  0
  -12.9900  -14.2941   22.5691 N   0  0  0  0  0  0  0  0  0  0  0  0
  -20.9333   -9.6329   20.9309 O   0  0  0  0  0  0  0  0  0  0  0  0
  -14.0775  -12.9059   21.0303 N   0  0  0  0  0  0  0  0  0  0  0  0
  -14.9279  -12.7005   19.9975 C   0  0  2  0  0  0  0  0  0  0  0  0
  -15.6107  -13.8539   19.3965 C   0  0  2  0  0  0  0  0  0  0  0  0
  -15.3185  -15.1831   19.9746 C   0  0  0  0  0  0  0  0  0  0  0  0
  -15.8992  -16.3060   19.4844 O   0  0  0  0  0  0  0  0  0  0  0  0
  -16.3758  -13.3712   18.3976 N   0  0  0  0  0  0  0  0  0  0  0  0
  -16.1995  -12.0166   18.3655 C   0  0  0  0  0  0  0  0  0  0  0  0
  -15.3303  -11.6217   19.3233 N   0  0  1  0  0  0  0  0  0  0  0  0
  1  3  1  6  0  0  0
  1  4  2  0  0  0  0
  1  6  1  0  0  0  0
  1 22  1  0  0  0  0
  2 28  1  0  0  0  0
  2 35  1  6  0  0  0
  2 38  2  0  0  0  0
  2 10  1  0  0  0  0
  5  6  1  0  0  0  0
  7  5  1  6  0  0  0
  7  8  1  0  0  0  0
  7  9  1  0  0  0  0
  9 10  1  1  0  0  0
  9 11  1  0  0  0  0
 11 12  1  1  0  0  0
 11 13  1  0  0  0  0
 13  8  1  1  0  0  0
 13 33  1  0  0  0  0
 14 46  1  0  0  0  0
 14 17  1  0  0  0  0
 14 25  1  1  0  0  0
 15 16  1  0  0  0  0
 15 29  1  0  0  0  0
 16 18  1  1  0  0  0
 16 21  1  0  0  0  0
 17 19  1  1  0  0  0
 17 20  1  0  0  0  0
 20 22  1  1  0  0  0
 20 24  1  0  0  0  0
 23 21  1  1  0  0  0
 23 26  1  0  0  0  0
 23 33  1  0  0  0  0
 24 25  1  1  0  0  0
 24 27  1  0  0  0  0
 26 29  1  6  0  0  0
 26 31  1  0  0  0  0
 27 28  1  0  0  0  0
 29 30  2  0  0  0  0
 31 32  1  0  0  0  0
 33 32  1  6  0  0  0
 34 36  1  0  0  0  0
 34 42  1  0  0  0  0
 36 37  1  1  0  0  0
 36 39  1  0  0  0  0
 40 39  1  6  0  0  0
 40 41  1  0  0  0  0
 40 46  1  0  0  0  0
 41 42  1  6  0  0  0
 41 44  1  0  0  0  0
 42 43  2  0  0  0  0
 44 45  1  0  0  0  0
 46 45  1  1  0  0  0
M  CHG  2   3  -1  35  -1
M  END
>  <CHROM.1>
-132.40405482,148.65033392,-17.63016392,-10.18549885,17.04513089,3.09757652
1.02985769,-2.76607570

>  <Name>
ligand

>  <RI>
-1

>  <Rbt.Current_Directory>
/home/itssahil/PROJECTS/Mol_Feturizer/Test_systems_manuscript/rnas/3mum

>  <Rbt.Executable>
rbdock ($Id: //depot/dev/client3/rdock/2013.1/src/exe/rbdock.cxx#4 $)

>  <Rbt.Library>
libRbt.so (2013.1, Build901 2013/11/27)

>  <Rbt.Parameter_File>
/export/apps/rDock/src/rDock_2013.1_src/data/scripts/dock_solv.prm

>  <Rbt.Receptor>
prm/blind_docking_100.prm

>  <SCORE>
-0.194981

>  <SCORE.INTER>
-1.53319

>  <SCORE.INTER.CONST>
1

>  <SCORE.INTER.POLAR>
0

>  <SCORE.INTER.ROT>
2

>  <SCORE.INTER.SOLV>
37.2364

>  <SCORE.INTER.VDW>
-18.3676

>  <SCORE.INTER.norm>
-0.0333301

>  <SCORE.INTRA>
-0.030058

>  <SCORE.INTRA.DIHEDRAL>
-0.029497

>  <SCORE.INTRA.DIHEDRAL.0>
2.40424

>  <SCORE.INTRA.POLAR>
0

>  <SCORE.INTRA.POLAR.0>
0

>  <SCORE.INTRA.REPUL>
0

>  <SCORE.INTRA.REPUL.0>
0

>  <SCORE.INTRA.SOLV>
0.0365841

>  <SCORE.INTRA.SOLV.lig_0>
-134.169

>  <SCORE.INTRA.VDW>
-0.0336015

>  <SCORE.INTRA.VDW.0>
-2.18386

>  <SCORE.INTRA.norm>
-0.000653435

>  <SCORE.RESTR>
1.36826

>  <SCORE.RESTR.CAVITY>
1.36826

>  <SCORE.RESTR.norm>
0.0297448

>  <SCORE.SYSTEM>
0

>  <SCORE.SYSTEM.CONST>
0

>  <SCORE.SYSTEM.DIHEDRAL>
0

>  <SCORE.SYSTEM.SOLV>
0

>  <SCORE.SYSTEM.norm>
0

>  <SCORE.heavy>
46

>  <SCORE.norm>
-0.00423872

>  <RMSD>
15.931

$$$$
ligand
 OpenBabel02271912143D
libRbt.so/2013.1/901 2013/11/27
 46 52  0  0  0  0  0  0  0  0999 V2000
  -15.8245   -7.0331   16.3989 P   0  0  1  0  0  0  0  0  0  0  0  0
  -19.9800   -9.8133   19.5099 P   0  0  2  0  0  0  0  0  0  0  0  0
  -14.8534   -8.2039   15.4889 O   0  5  0  0  0  0  0  0  0  0  0  0
  -15.3404   -5.3554   16.0379 O   0  0  0  0  0  0  0  0  0  0  0  0
  -18.4105   -6.5288   16.6847 C   0  0  0  0  0  0  0  0  0  0  0  0
  -17.3763   -7.2592   16.0248 O   0  0  0  0  0  0  0  0  0  0  0  0
  -19.7208   -7.2694   16.4974 C   0  0  1  0  0  0  0  0  0  0  0  0
  -19.9350   -7.5153   15.1004 O   0  0  0  0  0  0  0  0  0  0  0  0
  -19.7370   -8.6377   17.1591 C   0  0  1  0  0  0  0  0  0  0  0  0
  -20.2307   -8.5824   18.4956 O   0  0  0  0  0  0  0  0  0  0  0  0
  -20.6442   -9.4492   16.2511 C   0  0  1  0  0  0  0  0  0  0  0  0
  -22.0043   -9.3171   16.6718 O   0  0  0  0  0  0  0  0  0  0  0  0
  -20.4979   -8.8179   14.8790 C   0  0  2  0  0  0  0  0  0  0  0  0
  -14.8521  -10.3190   19.6752 C   0  0  1  0  0  0  0  0  0  0  0  0
  -19.8349  -11.7770   10.5204 N   0  0  0  0  0  0  0  0  0  0  0  0
  -20.9627  -11.1707   10.9818 C   0  0  1  0  0  0  0  0  0  0  0  0
  -14.8262   -9.5117   18.4084 C   0  0  2  0  0  0  0  0  0  0  0  0
  -22.1029  -11.3119   10.2671 N   0  0  0  0  0  0  0  0  0  0  0  0
  -13.5987   -8.7808   18.4199 O   0  0  0  0  0  0  0  0  0  0  0  0
  -16.0331   -8.5999   18.5068 C   0  0  2  0  0  0  0  0  0  0  0  0
  -20.9885  -10.4333   12.1317 N   0  0  0  0  0  0  0  0  0  0  0  0
  -15.7598   -7.3075   17.9830 O   0  0  0  0  0  0  0  0  0  0  0  0
  -19.8716  -10.2601   12.8829 C   0  0  2  0  0  0  0  0  0  0  0  0
  -16.3306   -8.5071   19.9905 C   0  0  2  0  0  0  0  0  0  0  0  0
  -15.7354   -9.6607   20.5823 O   0  0  0  0  0  0  0  0  0  0  0  0
  -18.6235  -10.8983   12.4296 C   0  0  1  0  0  0  0  0  0  0  0  0
  -17.8244   -8.4927   20.2950 C   0  0  0  0  0  0  0  0  0  0  0  0
  -18.4064   -9.7147   19.8369 O   0  0  0  0  0  0  0  0  0  0  0  0
  -18.6586  -11.6808   11.1812 C   0  0  0  0  0  0  0  0  0  0  0  0
  -17.5396  -12.2917   10.7158 O   0  0  0  0  0  0  0  0  0  0  0  0
  -17.6811  -10.5903   13.3274 N   0  0  0  0  0  0  0  0  0  0  0  0
  -18.2701   -9.8168   14.2857 C   0  0  0  0  0  0  0  0  0  0  0  0
  -19.5793   -9.6173   14.0255 N   0  0  1  0  0  0  0  0  0  0  0  0
  -14.3006  -15.3673   20.9316 N   0  0  0  0  0  0  0  0  0  0  0  0
  -20.3635  -11.3779   18.7446 O   0  5  0  0  0  0  0  0  0  0  0  0
  -13.6631  -14.2716   21.4273 C   0  0  2  0  0  0  0  0  0  0  0  0
  -12.7321  -14.4309   22.4039 N   0  0  0  0  0  0  0  0  0  0  0  0
  -20.8780   -9.6641   21.0328 O   0  0  0  0  0  0  0  0  0  0  0  0
  -13.9295  -13.0158   20.9753 N   0  0  0  0  0  0  0  0  0  0  0  0
  -14.8510  -12.7927   20.0092 C   0  0  2  0  0  0  0  0  0  0  0  0
  -15.5702  -13.9364   19.4328 C   0  0  2  0  0  0  0  0  0  0  0  0
  -15.2336  -15.2761   19.9602 C   0  0  0  0  0  0  0  0  0  0  0  0
  -15.8433  -16.3913   19.4878 O   0  0  0  0  0  0  0  0  0  0  0  0
  -16.4051  -13.4364   18.5005 N   0  0  0  0  0  0  0  0  0  0  0  0
  -16.2362  -12.0805   18.4854 C   0  0  0  0  0  0  0  0  0  0  0  0
  -15.3034  -11.7018   19.3882 N   0  0  1  0  0  0  0  0  0  0  0  0
  1  3  1  6  0  0  0
  1  4  2  0  0  0  0
  1  6  1  0  0  0  0
  1 22  1  0  0  0  0
  2 28  1  0  0  0  0
  2 35  1  6  0  0  0
  2 38  2  0  0  0  0
  2 10  1  0  0  0  0
  5  6  1  0  0  0  0
  7  5  1  6  0  0  0
  7  8  1  0  0  0  0
  7  9  1  0  0  0  0
  9 10  1  1  0  0  0
  9 11  1  0  0  0  0
 11 12  1  1  0  0  0
 11 13  1  0  0  0  0
 13  8  1  1  0  0  0
 13 33  1  0  0  0  0
 14 46  1  0  0  0  0
 14 17  1  0  0  0  0
 14 25  1  1  0  0  0
 15 16  1  0  0  0  0
 15 29  1  0  0  0  0
 16 18  1  1  0  0  0
 16 21  1  0  0  0  0
 17 19  1  1  0  0  0
 17 20  1  0  0  0  0
 20 22  1  1  0  0  0
 20 24  1  0  0  0  0
 23 21  1  1  0  0  0
 23 26  1  0  0  0  0
 23 33  1  0  0  0  0
 24 25  1  1  0  0  0
 24 27  1  0  0  0  0
 26 29  1  6  0  0  0
 26 31  1  0  0  0  0
 27 28  1  0  0  0  0
 29 30  2  0  0  0  0
 31 32  1  0  0  0  0
 33 32  1  6  0  0  0
 34 36  1  0  0  0  0
 34 42  1  0  0  0  0
 36 37  1  1  0  0  0
 36 39  1  0  0  0  0
 40 39  1  6  0  0  0
 40 41  1  0  0  0  0
 40 46  1  0  0  0  0
 41 42  1  6  0  0  0
 41 44  1  0  0  0  0
 42 43  2  0  0  0  0
 44 45  1  0  0  0  0
 46 45  1  1  0  0  0
M  CHG  2   3  -1  35  -1
M  END
>  <CHROM.1>
-126.74941199,144.73420917,-17.58213242,-10.22065494,17.09453151,3.03825489
1.02124827,-2.67476259

>  <Name>
ligand

>  <RI>
-1

>  <Rbt.Current_Directory>
/home/itssahil/PROJECTS/Mol_Feturizer/Test_systems_manuscript/rnas/3mum

>  <Rbt.Executable>
rbdock ($Id: //depot/dev/client3/rdock/2013.1/src/exe/rbdock.cxx#4 $)

>  <Rbt.Library>
libRbt.so (2013.1, Build901 2013/11/27)

>  <Rbt.Parameter_File>
/export/apps/rDock/src/rDock_2013.1_src/data/scripts/dock_solv.prm

>  <Rbt.Receptor>
prm/blind_docking_80.prm

>  <SCORE>
-2.46426

>  <SCORE.INTER>
-3.6732

>  <SCORE.INTER.CONST>
1

>  <SCORE.INTER.POLAR>
0

>  <SCORE.INTER.ROT>
2

>  <SCORE.INTER.SOLV>
36.6096

>  <SCORE.INTER.VDW>
-19.5853

>  <SCORE.INTER.norm>
-0.0798521

>  <SCORE.INTRA>
-0.0978164

>  <SCORE.INTRA.DIHEDRAL>
-0.0293303

>  <SCORE.INTRA.DIHEDRAL.0>
2.40424

>  <SCORE.INTRA.POLAR>
0

>  <SCORE.INTRA.POLAR.0>
0

>  <SCORE.INTRA.REPUL>
0

>  <SCORE.INTRA.REPUL.0>
0

>  <SCORE.INTRA.SOLV>
0.0208322

>  <SCORE.INTRA.SOLV.lig_0>
-134.169

>  <SCORE.INTRA.VDW>
-0.0935673

>  <SCORE.INTRA.VDW.0>
-2.18386

>  <SCORE.INTRA.norm>
-0.00212644

>  <SCORE.RESTR>
1.30675

>  <SCORE.RESTR.CAVITY>
1.30675

>  <SCORE.RESTR.norm>
0.0284076

>  <SCORE.SYSTEM>
0

>  <SCORE.SYSTEM.CONST>
0

>  <SCORE.SYSTEM.DIHEDRAL>
0

>  <SCORE.SYSTEM.SOLV>
0

>  <SCORE.SYSTEM.norm>
0

>  <SCORE.heavy>
46

>  <SCORE.norm>
-0.0535709

>  <RMSD>
15.936

$$$$
ligand
 OpenBabel02271912143D
libRbt.so/2013.1/901 2013/11/27
 46 52  0  0  0  0  0  0  0  0999 V2000
  -14.8296   -9.2055   20.2048 P   0  0  1  0  0  0  0  0  0  0  0  0
  -19.5207  -11.7085   17.6740 P   0  0  2  0  0  0  0  0  0  0  0  0
  -15.1403   -7.4870   20.5079 O   0  5  0  0  0  0  0  0  0  0  0  0
  -13.2411   -9.7086   20.8397 O   0  0  0  0  0  0  0  0  0  0  0  0
  -16.0815  -11.4810   20.7324 C   0  0  0  0  0  0  0  0  0  0  0  0
  -16.0051  -10.0648   20.8970 O   0  0  0  0  0  0  0  0  0  0  0  0
  -17.4931  -11.9303   21.0583 C   0  0  1  0  0  0  0  0  0  0  0  0
  -17.8632  -11.4396   22.3545 O   0  0  0  0  0  0  0  0  0  0  0  0
  -18.5355  -11.3771   20.1003 C   0  0  1  0  0  0  0  0  0  0  0  0
  -18.7653  -12.2481   18.9950 O   0  0  0  0  0  0  0  0  0  0  0  0
  -19.7674  -11.2333   20.9766 C   0  0  1  0  0  0  0  0  0  0  0  0
  -20.5197  -12.4491   20.9683 O   0  0  0  0  0  0  0  0  0  0  0  0
  -19.2317  -11.0044   22.3777 C   0  0  2  0  0  0  0  0  0  0  0  0
  -16.6345   -7.7494   16.0697 C   0  0  1  0  0  0  0  0  0  0  0  0
  -20.5735   -7.2973   25.9343 N   0  0  0  0  0  0  0  0  0  0  0  0
  -20.7096   -8.6492   26.0121 C   0  0  1  0  0  0  0  0  0  0  0  0
  -16.0368   -7.7490   17.4481 C   0  0  2  0  0  0  0  0  0  0  0  0
  -21.2597   -9.1733   27.1316 N   0  0  0  0  0  0  0  0  0  0  0  0
  -14.6911   -7.2910   17.3051 O   0  0  0  0  0  0  0  0  0  0  0  0
  -16.1016   -9.1952   17.8975 C   0  0  2  0  0  0  0  0  0  0  0  0
  -20.3180   -9.4909   25.0096 N   0  0  0  0  0  0  0  0  0  0  0  0
  -14.9493   -9.5668   18.6414 O   0  0  0  0  0  0  0  0  0  0  0  0
  -19.7593   -9.0152   23.8681 C   0  0  2  0  0  0  0  0  0  0  0  0
  -16.1728   -9.9986   16.6138 C   0  0  2  0  0  0  0  0  0  0  0  0
  -16.6624   -9.1026   15.6175 O   0  0  0  0  0  0  0  0  0  0  0  0
  -19.5920   -7.5579   23.7313 C   0  0  1  0  0  0  0  0  0  0  0  0
  -17.1047  -11.2008   16.7187 C   0  0  0  0  0  0  0  0  0  0  0  0
  -18.4309  -10.7417   16.9880 O   0  0  0  0  0  0  0  0  0  0  0  0
  -20.0332   -6.7016   24.8467 C   0  0  0  0  0  0  0  0  0  0  0  0
  -19.9046   -5.3524   24.7760 O   0  0  0  0  0  0  0  0  0  0  0  0
  -19.0341   -7.3412   22.5351 N   0  0  0  0  0  0  0  0  0  0  0  0
  -18.8555   -8.5585   21.9435 C   0  0  0  0  0  0  0  0  0  0  0  0
  -19.2882   -9.5622   22.7353 N   0  0  1  0  0  0  0  0  0  0  0  0
  -19.8458   -4.2116   13.9392 N   0  0  0  0  0  0  0  0  0  0  0  0
  -20.9937  -10.7941   18.0922 O   0  5  0  0  0  0  0  0  0  0  0  0
  -18.5469   -4.4960   13.6481 C   0  0  2  0  0  0  0  0  0  0  0  0
  -17.9207   -3.8021   12.6620 N   0  0  0  0  0  0  0  0  0  0  0  0
  -19.9301  -12.9950   16.5228 O   0  0  0  0  0  0  0  0  0  0  0  0
  -17.8519   -5.4576   14.3149 N   0  0  0  0  0  0  0  0  0  0  0  0
  -18.4231   -6.1867   15.3020 C   0  0  2  0  0  0  0  0  0  0  0  0
  -19.8223   -5.9236   15.6637 C   0  0  2  0  0  0  0  0  0  0  0  0
  -20.5231   -4.8634   14.9081 C   0  0  0  0  0  0  0  0  0  0  0  0
  -21.8150   -4.5481   15.1729 O   0  0  0  0  0  0  0  0  0  0  0  0
  -20.1266   -6.7705   16.6670 N   0  0  0  0  0  0  0  0  0  0  0  0
  -19.0121   -7.5183   16.9231 C   0  0  0  0  0  0  0  0  0  0  0  0
  -17.9956   -7.1627   16.1052 N   0  0  1  0  0  0  0  0  0  0  0  0
  1  3  1  1  0  0  0
  1  4  2  0  0  0  0
  1  6  1  0  0  0  0
  1 22  1  0  0  0  0
  2 28  1  0  0  0  0
  2 35  1  1  0  0  0
  2 38  2  0  0  0  0
  2 10  1  0  0  0  0
  5  6  1  0  0  0  0
  7  5  1  6  0  0  0
  7  8  1  0  0  0  0
  7  9  1  0  0  0  0
  9 10  1  6  0  0  0
  9 11  1  0  0  0  0
 11 12  1  1  0  0  0
 11 13  1  0  0  0  0
 13  8  1  6  0  0  0
 13 33  1  0  0  0  0
 14 46  1  0  0  0  0
 14 17  1  0  0  0  0
 14 25  1  1  0  0  0
 15 16  1  0  0  0  0
 15 29  1  0  0  0  0
 16 18  1  6  0  0  0
 16 21  1  0  0  0  0
 17 19  1  6  0  0  0
 17 20  1  0  0  0  0
 20 22  1  6  0  0  0
 20 24  1  0  0  0  0
 23 21  1  6  0  0  0
 23 26  1  0  0  0  0
 23 33  1  0  0  0  0
 24 25  1  6  0  0  0
 24 27  1  0  0  0  0
 26 29  1  1  0  0  0
 26 31  1  0  0  0  0
 27 28  1  0  0  0  0
 29 30  2  0  0  0  0
 31 32  1  0  0  0  0
 33 32  1  1  0  0  0
 34 36  1  0  0  0  0
 34 42  1  0  0  0  0
 36 37  1  6  0  0  0
 36 39  1  0  0  0  0
 40 39  1  1  0  0  0
 40 41  1  0  0  0  0
 40 46  1  0  0  0  0
 41 42  1  1  0  0  0
 41 44  1  0  0  0  0
 42 43  2  0  0  0  0
 44 45  1  0  0  0  0
 46 45  1  6  0  0  0
M  CHG  2   3  -1  35  -1
M  END
>  <CHROM.1>
-110.98281513,128.82413483,-18.28037443,-8.80075200,19.29958964,-1.77813796
0.99270280,-1.08914398

>  <Name>
ligand

>  <RI>
-1

>  <Rbt.Current_Directory>
/home/itssahil/PROJECTS/Mol_Feturizer/Test_systems_manuscript/rnas/3mum

>  <Rbt.Executable>
rbdock ($Id: //depot/dev/client3/rdock/2013.1/src/exe/rbdock.cxx#4 $)

>  <Rbt.Library>
libRbt.so (2013.1, Build901 2013/11/27)

>  <Rbt.Parameter_File>
/export/apps/rDock/src/rDock_2013.1_src/data/scripts/dock_solv.prm

>  <Rbt.Receptor>
prm/blind_docking_40.prm

>  <SCORE>
30.0516

>  <SCORE.INTER>
29.126

>  <SCORE.INTER.CONST>
1

>  <SCORE.INTER.POLAR>
0

>  <SCORE.INTER.ROT>
2

>  <SCORE.INTER.SOLV>
40.8919

>  <SCORE.INTER.VDW>
0.853368

>  <SCORE.INTER.norm>
0.633174

>  <SCORE.INTRA>
-0.113515

>  <SCORE.INTRA.DIHEDRAL>
-0.0175946

>  <SCORE.INTRA.DIHEDRAL.0>
2.40424

>  <SCORE.INTRA.POLAR>
0

>  <SCORE.INTRA.POLAR.0>
0

>  <SCORE.INTRA.REPUL>
0

>  <SCORE.INTRA.REPUL.0>
0

>  <SCORE.INTRA.SOLV>
0.00201636

>  <SCORE.INTRA.SOLV.lig_0>
-134.169

>  <SCORE.INTRA.VDW>
-0.105726

>  <SCORE.INTRA.VDW.0>
-2.18386

>  <SCORE.INTRA.norm>
-0.00246772

>  <SCORE.RESTR>
1.0391

>  <SCORE.RESTR.CAVITY>
1.0391

>  <SCORE.RESTR.norm>
0.0225891

>  <SCORE.SYSTEM>
0

>  <SCORE.SYSTEM.CONST>
0

>  <SCORE.SYSTEM.DIHEDRAL>
0

>  <SCORE.SYSTEM.SOLV>
0

>  <SCORE.SYSTEM.norm>
0

>  <SCORE.heavy>
46

>  <SCORE.norm>
0.653295

>  <RMSD>
15.956

$$$$
ligand
 OpenBabel02271912143D
libRbt.so/2013.1/901 2013/11/27
 46 52  0  0  0  0  0  0  0  0999 V2000
  -15.8992   -6.9532   16.3240 P   0  0  1  0  0  0  0  0  0  0  0  0
  -20.0330   -9.7821   19.4199 P   0  0  2  0  0  0  0  0  0  0  0  0
  -14.9111   -8.1124   15.4176 O   0  5  0  0  0  0  0  0  0  0  0  0
  -15.4336   -5.2699   15.9646 O   0  0  0  0  0  0  0  0  0  0  0  0
  -18.4920   -6.4793   16.6003 C   0  0  0  0  0  0  0  0  0  0  0  0
  -17.4469   -7.1975   15.9442 O   0  0  0  0  0  0  0  0  0  0  0  0
  -19.7928   -7.2353   16.4082 C   0  0  1  0  0  0  0  0  0  0  0  0
  -19.9990   -7.4838   15.0105 O   0  0  0  0  0  0  0  0  0  0  0  0
  -19.7953   -8.6037   17.0700 C   0  0  1  0  0  0  0  0  0  0  0  0
  -20.2944   -8.5542   18.4047 O   0  0  0  0  0  0  0  0  0  0  0  0
  -20.6895   -9.4259   16.1587 C   0  0  1  0  0  0  0  0  0  0  0  0
  -22.0527   -9.3098   16.5745 O   0  0  0  0  0  0  0  0  0  0  0  0
  -20.5457   -8.7929   14.7871 C   0  0  2  0  0  0  0  0  0  0  0  0
  -14.9002  -10.2273   19.6040 C   0  0  1  0  0  0  0  0  0  0  0  0
  -19.9146  -12.2032   10.7667 N   0  0  0  0  0  0  0  0  0  0  0  0
  -21.0639  -11.6822   11.2767 C   0  0  1  0  0  0  0  0  0  0  0  0
  -14.8791   -9.4198   18.3373 C   0  0  2  0  0  0  0  0  0  0  0  0
  -22.2383  -12.0544   10.7173 N   0  0  0  0  0  0  0  0  0  0  0  0
  -13.6604   -8.6745   18.3532 O   0  0  0  0  0  0  0  0  0  0  0  0
  -16.0971   -8.5223   18.4312 C   0  0  2  0  0  0  0  0  0  0  0  0
  -21.0774  -10.8070   12.3257 N   0  0  0  0  0  0  0  0  0  0  0  0
  -15.8370   -7.2267   17.9083 O   0  0  0  0  0  0  0  0  0  0  0  0
  -19.9268  -10.4012   12.9198 C   0  0  2  0  0  0  0  0  0  0  0  0
  -16.4010   -8.4329   19.9138 C   0  0  2  0  0  0  0  0  0  0  0  0
  -15.7945   -9.5795   20.5078 O   0  0  0  0  0  0  0  0  0  0  0  0
  -18.6538  -10.9379   12.4080 C   0  0  1  0  0  0  0  0  0  0  0  0
  -17.8960   -8.4361   20.2129 C   0  0  0  0  0  0  0  0  0  0  0  0
  -18.4619   -9.6649   19.7527 O   0  0  0  0  0  0  0  0  0  0  0  0
  -18.7037  -11.8780   11.2741 C   0  0  0  0  0  0  0  0  0  0  0  0
  -17.5628  -12.4052   10.7617 O   0  0  0  0  0  0  0  0  0  0  0  0
  -17.6791  -10.4013   13.1504 N   0  0  0  0  0  0  0  0  0  0  0  0
  -18.2715   -9.5844   14.0698 C   0  0  0  0  0  0  0  0  0  0  0  0
  -19.6146   -9.5814   13.9370 N   0  0  1  0  0  0  0  0  0  0  0  0
  -14.4498  -15.2487   21.0007 N   0  0  0  0  0  0  0  0  0  0  0  0
  -20.3953  -11.3511   18.6534 O   0  5  0  0  0  0  0  0  0  0  0  0
  -13.8452  -14.1435   21.5163 C   0  0  2  0  0  0  0  0  0  0  0  0
  -12.9843  -14.2833   22.5580 N   0  0  0  0  0  0  0  0  0  0  0  0
  -20.9382   -9.6434   20.9396 O   0  0  0  0  0  0  0  0  0  0  0  0
  -14.0765  -12.8972   21.0208 N   0  0  0  0  0  0  0  0  0  0  0  0
  -14.9284  -12.6934   19.9888 C   0  0  2  0  0  0  0  0  0  0  0  0
  -15.6091  -13.8483   19.3882 C   0  0  2  0  0  0  0  0  0  0  0  0
  -15.3131  -15.1769   19.9654 C   0  0  0  0  0  0  0  0  0  0  0  0
  -15.8916  -16.3011   19.4754 O   0  0  0  0  0  0  0  0  0  0  0  0
  -16.3763  -13.3670   18.3901 N   0  0  0  0  0  0  0  0  0  0  0  0
  -16.2033  -12.0119   18.3584 C   0  0  0  0  0  0  0  0  0  0  0  0
  -15.3340  -11.6153   19.3154 N   0  0  1  0  0  0  0  0  0  0  0  0
  1  3  1  6  0  0  0
  1  4  2  0  0  0  0
  1  6  1  0  0  0  0
  1 22  1  0  0  0  0
  2 28  1  0  0  0  0
  2 35  1  6  0  0  0
  2 38  2  0  0  0  0
  2 10  1  0  0  0  0
  5  6  1  0  0  0  0
  7  5  1  6  0  0  0
  7  8  1  0  0  0  0
  7  9  1  0  0  0  0
  9 10  1  1  0  0  0
  9 11  1  0  0  0  0
 11 12  1  1  0  0  0
 11 13  1  0  0  0  0
 13  8  1  1  0  0  0
 13 33  1  0  0  0  0
 14 46  1  0  0  0  0
 14 17  1  0  0  0  0
 14 25  1  1  0  0  0
 15 16  1  0  0  0  0
 15 29  1  0  0  0  0
 16 18  1  1  0  0  0
 16 21  1  0  0  0  0
 17 19  1  1  0  0  0
 17 20  1  0  0  0  0
 20 22  1  1  0  0  0
 20 24  1  0  0  0  0
 23 21  1  1  0  0  0
 23 26  1  0  0  0  0
 23 33  1  0  0  0  0
 24 25  1  1  0  0  0
 24 27  1  0  0  0  0
 26 29  1  6  0  0  0
 26 31  1  0  0  0  0
 27 28  1  0  0  0  0
 29 30  2  0  0  0  0
 31 32  1  0  0  0  0
 33 32  1  6  0  0  0
 34 36  1  0  0  0  0
 34 42  1  0  0  0  0
 36 37  1  1  0  0  0
 36 39  1  0  0  0  0
 40 39  1  6  0  0  0
 40 41  1  0  0  0  0
 40 46  1  0  0  0  0
 41 42  1  6  0  0  0
 41 44  1  0  0  0  0
 42 43  2  0  0  0  0
 44 45  1  0  0  0  0
 46 45  1  1  0  0  0
M  CHG  2   3  -1  35  -1
M  END
>  <CHROM.1>
-138.46445101,148.75243271,-17.64771380,-10.20854645,17.06468919,3.13526891
1.01655061,-2.81633554

>  <Name>
ligand

>  <RI>
-1

>  <Rbt.Current_Directory>
/home/itssahil/PROJECTS/Mol_Feturizer/Test_systems_manuscript/rnas/3mum

>  <Rbt.Executable>
rbdock ($Id: //depot/dev/client3/rdock/2013.1/src/exe/rbdock.cxx#4 $)

>  <Rbt.Library>
libRbt.so (2013.1, Build901 2013/11/27)

>  <Rbt.Parameter_File>
/export/apps/rDock/src/rDock_2013.1_src/data/scripts/dock_solv.prm

>  <Rbt.Receptor>
prm/blind_docking_100.prm

>  <SCORE>
-0.111052

>  <SCORE.INTER>
-1.39172

>  <SCORE.INTER.CONST>
1

>  <SCORE.INTER.POLAR>
0

>  <SCORE.INTER.ROT>
2

>  <SCORE.INTER.SOLV>
37.8524

>  <SCORE.INTER.VDW>
-18.4786

>  <SCORE.INTER.norm>
-0.0302548

>  <SCORE.INTRA>
-0.0598629

>  <SCORE.INTRA.DIHEDRAL>
-0.0287238

>  <SCORE.INTRA.DIHEDRAL.0>
2.40424

>  <SCORE.INTRA.POLAR>
0

>  <SCORE.INTRA.POLAR.0>
0

>  <SCORE.INTRA.REPUL>
0

>  <SCORE.INTRA.REPUL.0>
0

>  <SCORE.INTRA.SOLV>
0.0449251

>  <SCORE.INTRA.SOLV.lig_0>
-134.169

>  <SCORE.INTRA.VDW>
-0.0679636

>  <SCORE.INTRA.VDW.0>
-2.18386

>  <SCORE.INTRA.norm>
-0.00130137

>  <SCORE.RESTR>
1.34053

>  <SCORE.RESTR.CAVITY>
1.34053

>  <SCORE.RESTR.norm>
0.029142

>  <SCORE.SYSTEM>
0

>  <SCORE.SYSTEM.CONST>
0

>  <SCORE.SYSTEM.DIHEDRAL>
0

>  <SCORE.SYSTEM.SOLV>
0

>  <SCORE.SYSTEM.norm>
0

>  <SCORE.heavy>
46

>  <SCORE.norm>
-0.00241417

>  <RMSD>
15.962

$$$$
ligand
 OpenBabel02271912143D
libRbt.so/2013.1/901 2013/11/27
 46 52  0  0  0  0  0  0  0  0999 V2000
  -15.8988   -6.9508   16.3226 P   0  0  1  0  0  0  0  0  0  0  0  0
  -20.0365   -9.7839   19.4095 P   0  0  2  0  0  0  0  0  0  0  0  0
  -14.9105   -8.1087   15.4146 O   0  5  0  0  0  0  0  0  0  0  0  0
  -15.4321   -5.2670   15.9670 O   0  0  0  0  0  0  0  0  0  0  0  0
  -18.4915   -6.4762   16.5978 C   0  0  0  0  0  0  0  0  0  0  0  0
  -17.4463   -7.1936   15.9411 O   0  0  0  0  0  0  0  0  0  0  0  0
  -19.7926   -7.2312   16.4031 C   0  0  1  0  0  0  0  0  0  0  0  0
  -19.9978   -7.4767   15.0047 O   0  0  0  0  0  0  0  0  0  0  0  0
  -19.7962   -8.6010   17.0621 C   0  0  1  0  0  0  0  0  0  0  0  0
  -20.2965   -8.5538   18.3965 O   0  0  0  0  0  0  0  0  0  0  0  0
  -20.6902   -9.4208   16.1485 C   0  0  1  0  0  0  0  0  0  0  0  0
  -22.0536   -9.3049   16.5634 O   0  0  0  0  0  0  0  0  0  0  0  0
  -20.5449   -8.7852   14.7783 C   0  0  2  0  0  0  0  0  0  0  0  0
  -14.9040  -10.2320   19.5968 C   0  0  1  0  0  0  0  0  0  0  0  0
  -19.9200  -12.3598   10.9022 N   0  0  0  0  0  0  0  0  0  0  0  0
  -21.0706  -11.8662   11.4360 C   0  0  1  0  0  0  0  0  0  0  0  0
  -14.8815   -9.4220   18.3317 C   0  0  2  0  0  0  0  0  0  0  0  0
  -22.2482  -12.3182   10.9465 N   0  0  0  0  0  0  0  0  0  0  0  0
  -13.6624   -8.6773   18.3501 O   0  0  0  0  0  0  0  0  0  0  0  0
  -16.0991   -8.5240   18.4265 C   0  0  2  0  0  0  0  0  0  0  0  0
  -21.0821  -10.9412   12.4415 N   0  0  0  0  0  0  0  0  0  0  0  0
  -15.8380   -7.2276   17.9064 O   0  0  0  0  0  0  0  0  0  0  0  0
  -19.9284  -10.4551   12.9650 C   0  0  2  0  0  0  0  0  0  0  0  0
  -16.4042   -8.4375   19.9090 C   0  0  2  0  0  0  0  0  0  0  0  0
  -15.7987   -9.5856   20.5012 O   0  0  0  0  0  0  0  0  0  0  0  0
  -18.6537  -10.9589   12.4248 C   0  0  1  0  0  0  0  0  0  0  0  0
  -17.8994   -8.4405   20.2069 C   0  0  0  0  0  0  0  0  0  0  0  0
  -18.4656   -9.6682   19.7438 O   0  0  0  0  0  0  0  0  0  0  0  0
  -18.7059  -11.9556   11.3404 C   0  0  0  0  0  0  0  0  0  0  0  0
  -17.5635  -12.4559   10.8049 O   0  0  0  0  0  0  0  0  0  0  0  0
  -17.6757  -10.3427   13.0977 N   0  0  0  0  0  0  0  0  0  0  0  0
  -18.2675   -9.5084   14.0017 C   0  0  0  0  0  0  0  0  0  0  0  0
  -19.6136   -9.5724   13.9273 N   0  0  1  0  0  0  0  0  0  0  0  0
  -14.4767  -15.2537   20.9998 N   0  0  0  0  0  0  0  0  0  0  0  0
  -20.3989  -11.3512   18.6395 O   0  5  0  0  0  0  0  0  0  0  0  0
  -13.8744  -14.1495   21.5202 C   0  0  2  0  0  0  0  0  0  0  0  0
  -13.0229  -14.2907   22.5695 N   0  0  0  0  0  0  0  0  0  0  0  0
  -20.9428   -9.6478   20.9287 O   0  0  0  0  0  0  0  0  0  0  0  0
  -14.0986  -12.9030   21.0221 N   0  0  0  0  0  0  0  0  0  0  0  0
  -14.9410  -12.6979   19.9826 C   0  0  2  0  0  0  0  0  0  0  0  0
  -15.6188  -13.8515   19.3765 C   0  0  2  0  0  0  0  0  0  0  0  0
  -15.3308  -15.1805   19.9570 C   0  0  0  0  0  0  0  0  0  0  0  0
  -15.9074  -16.3037   19.4624 O   0  0  0  0  0  0  0  0  0  0  0  0
  -16.3762  -13.3691   18.3715 N   0  0  0  0  0  0  0  0  0  0  0  0
  -16.1999  -12.0144   18.3406 C   0  0  0  0  0  0  0  0  0  0  0  0
  -15.3383  -11.6192   19.3051 N   0  0  1  0  0  0  0  0  0  0  0  0
  1  3  1  6  0  0  0
  1  4  2  0  0  0  0
  1  6  1  0  0  0  0
  1 22  1  0  0  0  0
  2 28  1  0  0  0  0
  2 35  1  6  0  0  0
  2 38  2  0  0  0  0
  2 10  1  0  0  0  0
  5  6  1  0  0  0  0
  7  5  1  6  0  0  0
  7  8  1  0  0  0  0
  7  9  1  0  0  0  0
  9 10  1  1  0  0  0
  9 11  1  0  0  0  0
 11 12  1  1  0  0  0
 11 13  1  0  0  0  0
 13  8  1  1  0  0  0
 13 33  1  0  0  0  0
 14 46  1  0  0  0  0
 14 17  1  0  0  0  0
 14 25  1  1  0  0  0
 15 16  1  0  0  0  0
 15 29  1  0  0  0  0
 16 18  1  1  0  0  0
 16 21  1  0  0  0  0
 17 19  1  1  0  0  0
 17 20  1  0  0  0  0
 20 22  1  1  0  0  0
 20 24  1  0  0  0  0
 23 21  1  1  0  0  0
 23 26  1  0  0  0  0
 23 33  1  0  0  0  0
 24 25  1  1  0  0  0
 24 27  1  0  0  0  0
 26 29  1  6  0  0  0
 26 31  1  0  0  0  0
 27 28  1  0  0  0  0
 29 30  2  0  0  0  0
 31 32  1  0  0  0  0
 33 32  1  6  0  0  0
 34 36  1  0  0  0  0
 34 42  1  0  0  0  0
 36 37  1  1  0  0  0
 36 39  1  0  0  0  0
 40 39  1  6  0  0  0
 40 41  1  0  0  0  0
 40 46  1  0  0  0  0
 41 42  1  6  0  0  0
 41 44  1  0  0  0  0
 42 43  2  0  0  0  0
 44 45  1  0  0  0  0
 46 45  1  1  0  0  0
M  CHG  2   3  -1  35  -1
M  END
>  <CHROM.1>
-143.12265121,149.24090755,-17.65245424,-10.22507440,17.07335276,-3.11489137
1.01155320,-2.85615237

>  <Name>
ligand

>  <RI>
-1

>  <Rbt.Current_Directory>
/home/itssahil/PROJECTS/Mol_Feturizer/Test_systems_manuscript/rnas/3mum

>  <Rbt.Executable>
rbdock ($Id: //depot/dev/client3/rdock/2013.1/src/exe/rbdock.cxx#4 $)

>  <Rbt.Library>
libRbt.so (2013.1, Build901 2013/11/27)

>  <Rbt.Parameter_File>
/export/apps/rDock/src/rDock_2013.1_src/data/scripts/dock_solv.prm

>  <Rbt.Receptor>
prm/blind_docking_100.prm

>  <SCORE>
-0.0670833

>  <SCORE.INTER>
-1.3385

>  <SCORE.INTER.CONST>
1

>  <SCORE.INTER.POLAR>
0

>  <SCORE.INTER.ROT>
2

>  <SCORE.INTER.SOLV>
38.0927

>  <SCORE.INTER.VDW>
-18.5232

>  <SCORE.INTER.norm>
-0.0290979

>  <SCORE.INTRA>
-0.0600829

>  <SCORE.INTRA.DIHEDRAL>
-0.0283717

>  <SCORE.INTRA.DIHEDRAL.0>
2.40424

>  <SCORE.INTRA.POLAR>
0

>  <SCORE.INTRA.POLAR.0>
0

>  <SCORE.INTRA.REPUL>
0

>  <SCORE.INTRA.REPUL.0>
0

>  <SCORE.INTRA.SOLV>
0.0520978

>  <SCORE.INTRA.SOLV.lig_0>
-134.169

>  <SCORE.INTRA.VDW>
-0.071946

>  <SCORE.INTRA.VDW.0>
-2.18386

>  <SCORE.INTRA.norm>
-0.00130615

>  <SCORE.RESTR>
1.3315

>  <SCORE.RESTR.CAVITY>
1.3315

>  <SCORE.RESTR.norm>
0.0289457

>  <SCORE.SYSTEM>
0

>  <SCORE.SYSTEM.CONST>
0

>  <SCORE.SYSTEM.DIHEDRAL>
0

>  <SCORE.SYSTEM.SOLV>
0

>  <SCORE.SYSTEM.norm>
0

>  <SCORE.heavy>
46

>  <SCORE.norm>
-0.00145833

>  <RMSD>
15.975

$$$$
ligand
 OpenBabel02271912143D
libRbt.so/2013.1/901 2013/11/27
 46 52  0  0  0  0  0  0  0  0999 V2000
  -19.6624   -9.7127   20.0288 P   0  0  1  0  0  0  0  0  0  0  0  0
  -15.6663   -7.4347   16.3521 P   0  0  2  0  0  0  0  0  0  0  0  0
  -20.0880  -11.3589   19.5284 O   0  5  0  0  0  0  0  0  0  0  0  0
  -20.4779   -9.2553   21.5471 O   0  0  0  0  0  0  0  0  0  0  0  0
  -17.4115   -8.3979   20.5066 C   0  0  0  0  0  0  0  0  0  0  0  0
  -18.0622   -9.6333   20.2088 O   0  0  0  0  0  0  0  0  0  0  0  0
  -15.9448   -8.5232   20.1404 C   0  0  1  0  0  0  0  0  0  0  0  0
  -15.3903   -9.6816   20.7795 O   0  0  0  0  0  0  0  0  0  0  0  0
  -15.7130   -8.7286   18.6523 C   0  0  1  0  0  0  0  0  0  0  0  0
  -15.5379   -7.4942   17.9604 O   0  0  0  0  0  0  0  0  0  0  0  0
  -14.4595   -9.5849   18.6135 C   0  0  1  0  0  0  0  0  0  0  0  0
  -13.2972   -8.7523   18.5993 O   0  0  0  0  0  0  0  0  0  0  0  0
  -14.4768  -10.3707   19.9114 C   0  0  2  0  0  0  0  0  0  0  0  0
  -20.4088   -9.2042   15.3747 C   0  0  1  0  0  0  0  0  0  0  0  0
  -14.0034  -15.5434   21.0125 N   0  0  0  0  0  0  0  0  0  0  0  0
  -13.2797  -14.4950   21.4916 C   0  0  1  0  0  0  0  0  0  0  0  0
  -20.3798   -9.7755   16.7639 C   0  0  2  0  0  0  0  0  0  0  0  0
  -12.2873  -14.7532   22.3743 N   0  0  0  0  0  0  0  0  0  0  0  0
  -21.7293   -9.7669   17.2328 O   0  0  0  0  0  0  0  0  0  0  0  0
  -19.4967   -8.8287   17.5524 C   0  0  2  0  0  0  0  0  0  0  0  0
  -13.5128  -13.2022   21.1159 N   0  0  0  0  0  0  0  0  0  0  0  0
  -19.9802   -8.6373   18.8749 O   0  0  0  0  0  0  0  0  0  0  0  0
  -14.4973  -12.8909   20.2354 C   0  0  2  0  0  0  0  0  0  0  0  0
  -19.5469   -7.5213   16.7865 C   0  0  2  0  0  0  0  0  0  0  0  0
  -19.9329   -7.8613   15.4558 O   0  0  0  0  0  0  0  0  0  0  0  0
  -15.3090  -13.9896   19.6837 C   0  0  1  0  0  0  0  0  0  0  0  0
  -18.2040   -6.8001   16.7578 C   0  0  0  0  0  0  0  0  0  0  0  0
  -17.2443   -7.6258   16.0950 O   0  0  0  0  0  0  0  0  0  0  0  0
  -15.0101  -15.3628   20.1273 C   0  0  0  0  0  0  0  0  0  0  0  0
  -15.7244  -16.4144   19.6519 O   0  0  0  0  0  0  0  0  0  0  0  0
  -16.1947  -13.4367   18.8477 N   0  0  0  0  0  0  0  0  0  0  0  0
  -15.9746  -12.0894   18.8552 C   0  0  0  0  0  0  0  0  0  0  0  0
  -14.9606  -11.7580   19.6821 N   0  0  1  0  0  0  0  0  0  0  0  0
  -20.0712  -11.4128   10.6443 N   0  0  0  0  0  0  0  0  0  0  0  0
  -14.7419   -8.7469   15.5747 O   0  5  0  0  0  0  0  0  0  0  0  0
  -21.0795  -10.6825   11.1948 C   0  0  2  0  0  0  0  0  0  0  0  0
  -22.2000  -10.4426   10.4649 N   0  0  0  0  0  0  0  0  0  0  0  0
  -15.1725   -5.8756   15.6641 O   0  0  0  0  0  0  0  0  0  0  0  0
  -21.0013  -10.1820   12.4580 N   0  0  0  0  0  0  0  0  0  0  0  0
  -19.9085  -10.3817   13.2314 C   0  0  2  0  0  0  0  0  0  0  0  0
  -18.7883  -11.1648   12.6932 C   0  0  2  0  0  0  0  0  0  0  0  0
  -18.9339  -11.6873   11.3178 C   0  0  0  0  0  0  0  0  0  0  0  0
  -17.9537  -12.4229   10.7376 O   0  0  0  0  0  0  0  0  0  0  0  0
  -17.8533  -11.2160   13.6625 N   0  0  0  0  0  0  0  0  0  0  0  0
  -18.3355  -10.5175   14.7332 C   0  0  0  0  0  0  0  0  0  0  0  0
  -19.5664  -10.0230   14.4702 N   0  0  1  0  0  0  0  0  0  0  0  0
  1  3  1  6  0  0  0
  1  4  2  0  0  0  0
  1  6  1  0  0  0  0
  1 22  1  0  0  0  0
  2 28  1  0  0  0  0
  2 35  1  6  0  0  0
  2 38  2  0  0  0  0
  2 10  1  0  0  0  0
  5  6  1  0  0  0  0
  7  5  1  6  0  0  0
  7  8  1  0  0  0  0
  7  9  1  0  0  0  0
  9 10  1  6  0  0  0
  9 11  1  0  0  0  0
 11 12  1  1  0  0  0
 11 13  1  0  0  0  0
 13  8  1  1  0  0  0
 13 33  1  0  0  0  0
 14 46  1  0  0  0  0
 14 17  1  0  0  0  0
 14 25  1  1  0  0  0
 15 16  1  0  0  0  0
 15 29  1  0  0  0  0
 16 18  1  6  0  0  0
 16 21  1  0  0  0  0
 17 19  1  1  0  0  0
 17 20  1  0  0  0  0
 20 22  1  1  0  0  0
 20 24  1  0  0  0  0
 23 21  1  6  0  0  0
 23 26  1  0  0  0  0
 23 33  1  0  0  0  0
 24 25  1  6  0  0  0
 24 27  1  0  0  0  0
 26 29  1  1  0  0  0
 26 31  1  0  0  0  0
 27 28  1  0  0  0  0
 29 30  2  0  0  0  0
 31 32  1  0  0  0  0
 33 32  1  1  0  0  0
 34 36  1  0  0  0  0
 34 42  1  0  0  0  0
 36 37  1  6  0  0  0
 36 39  1  0  0  0  0
 40 39  1  1  0  0  0
 40 41  1  0  0  0  0
 40 46  1  0  0  0  0
 41 42  1  1  0  0  0
 41 44  1  0  0  0  0
 42 43  2  0  0  0  0
 44 45  1  0  0  0  0
 46 45  1  6  0  0  0
M  CHG  2   3  -1  35  -1
M  END
>  <CHROM.1>
-103.25108843,137.11963343,-17.40584469,-10.34006589,17.33684314,0.22952682
-0.97929504,0.61944692

>  <Name>
ligand

>  <RI>
-1

>  <Rbt.Current_Directory>
/home/itssahil/PROJECTS/Mol_Feturizer/Test_systems_manuscript/rnas/3mum

>  <Rbt.Executable>
rbdock ($Id: //depot/dev/client3/rdock/2013.1/src/exe/rbdock.cxx#4 $)

>  <Rbt.Library>
libRbt.so (2013.1, Build901 2013/11/27)

>  <Rbt.Parameter_File>
/export/apps/rDock/src/rDock_2013.1_src/data/scripts/dock_solv.prm

>  <Rbt.Receptor>
prm/blind_docking_100.prm

>  <SCORE>
3.07671

>  <SCORE.INTER>
-0.191166

>  <SCORE.INTER.CONST>
1

>  <SCORE.INTER.POLAR>
0

>  <SCORE.INTER.ROT>
2

>  <SCORE.INTER.SOLV>
34.0715

>  <SCORE.INTER.VDW>
-16.4179

>  <SCORE.INTER.norm>
-0.00415579

>  <SCORE.INTRA>
0.0274177

>  <SCORE.INTRA.DIHEDRAL>
-0.0281468

>  <SCORE.INTRA.DIHEDRAL.0>
2.40424

>  <SCORE.INTRA.POLAR>
0

>  <SCORE.INTRA.POLAR.0>
0

>  <SCORE.INTRA.REPUL>
0

>  <SCORE.INTRA.REPUL.0>
0

>  <SCORE.INTRA.SOLV>
-0.024469

>  <SCORE.INTRA.SOLV.lig_0>
-134.169

>  <SCORE.INTRA.VDW>
0.0537256

>  <SCORE.INTRA.VDW.0>
-2.18386

>  <SCORE.INTRA.norm>
0.000596037

>  <SCORE.RESTR>
3.24045

>  <SCORE.RESTR.CAVITY>
3.24045

>  <SCORE.RESTR.norm>
0.0704447

>  <SCORE.SYSTEM>
0

>  <SCORE.SYSTEM.CONST>
0

>  <SCORE.SYSTEM.DIHEDRAL>
0

>  <SCORE.SYSTEM.SOLV>
0

>  <SCORE.SYSTEM.norm>
0

>  <SCORE.heavy>
46

>  <SCORE.norm>
0.0668849

>  <RMSD>
15.975

$$$$
ligand
 OpenBabel02271912143D
libRbt.so/2013.1/901 2013/11/27
 46 52  0  0  0  0  0  0  0  0999 V2000
  -15.8787   -6.9448   16.3990 P   0  0  1  0  0  0  0  0  0  0  0  0
  -20.0384   -9.8187   19.4179 P   0  0  2  0  0  0  0  0  0  0  0  0
  -14.8900   -8.0898   15.4753 O   0  5  0  0  0  0  0  0  0  0  0  0
  -15.4054   -5.2565   16.0750 O   0  0  0  0  0  0  0  0  0  0  0  0
  -18.4712   -6.4672   16.6712 C   0  0  0  0  0  0  0  0  0  0  0  0
  -17.4252   -7.1762   16.0066 O   0  0  0  0  0  0  0  0  0  0  0  0
  -19.7737   -7.2146   16.4577 C   0  0  1  0  0  0  0  0  0  0  0  0
  -19.9734   -7.4350   15.0543 O   0  0  0  0  0  0  0  0  0  0  0  0
  -19.7843   -8.5956   17.0926 C   0  0  1  0  0  0  0  0  0  0  0  0
  -20.2903   -8.5703   18.4254 O   0  0  0  0  0  0  0  0  0  0  0  0
  -20.6767   -9.3967   16.1609 C   0  0  1  0  0  0  0  0  0  0  0  0
  -22.0415   -9.2838   16.5718 O   0  0  0  0  0  0  0  0  0  0  0  0
  -20.5235   -8.7376   14.8027 C   0  0  2  0  0  0  0  0  0  0  0  0
  -14.9082  -10.2858   19.6197 C   0  0  1  0  0  0  0  0  0  0  0  0
  -19.8867  -12.4126   11.0236 N   0  0  0  0  0  0  0  0  0  0  0  0
  -21.0372  -11.9510   11.5855 C   0  0  1  0  0  0  0  0  0  0  0  0
  -14.8777   -9.4538   18.3690 C   0  0  2  0  0  0  0  0  0  0  0  0
  -22.2111  -12.4697   11.1573 N   0  0  0  0  0  0  0  0  0  0  0  0
  -13.6565   -8.7133   18.4058 O   0  0  0  0  0  0  0  0  0  0  0  0
  -16.0930   -8.5540   18.4742 C   0  0  2  0  0  0  0  0  0  0  0  0
  -21.0519  -10.9935   12.5600 N   0  0  0  0  0  0  0  0  0  0  0  0
  -15.8258   -7.2494   17.9780 O   0  0  0  0  0  0  0  0  0  0  0  0
  -19.9020  -10.4405   13.0221 C   0  0  2  0  0  0  0  0  0  0  0  0
  -16.4044   -8.4924   19.9567 C   0  0  2  0  0  0  0  0  0  0  0  0
  -15.8049   -9.6525   20.5313 O   0  0  0  0  0  0  0  0  0  0  0  0
  -18.6274  -10.9073   12.4493 C   0  0  1  0  0  0  0  0  0  0  0  0
  -17.9009   -8.4961   20.2479 C   0  0  0  0  0  0  0  0  0  0  0  0
  -18.4687   -9.7136   19.7609 O   0  0  0  0  0  0  0  0  0  0  0  0
  -18.6761  -11.9418   11.4008 C   0  0  0  0  0  0  0  0  0  0  0  0
  -17.5336  -12.4105   10.8377 O   0  0  0  0  0  0  0  0  0  0  0  0
  -17.6531  -10.2269   13.0631 N   0  0  0  0  0  0  0  0  0  0  0  0
  -18.2470   -9.3883   13.9619 C   0  0  0  0  0  0  0  0  0  0  0  0
  -19.5908   -9.5127   13.9421 N   0  0  1  0  0  0  0  0  0  0  0  0
  -14.3057  -15.3550   20.7637 N   0  0  0  0  0  0  0  0  0  0  0  0
  -20.4022  -11.3712   18.6190 O   0  5  0  0  0  0  0  0  0  0  0  0
  -13.6793  -14.2641   21.2838 C   0  0  2  0  0  0  0  0  0  0  0  0
  -12.7468  -14.4357   22.2569 N   0  0  0  0  0  0  0  0  0  0  0  0
  -20.9511   -9.7063   20.9353 O   0  0  0  0  0  0  0  0  0  0  0  0
  -13.9584  -13.0013   20.8597 N   0  0  0  0  0  0  0  0  0  0  0  0
  -14.8820  -12.7662   19.8985 C   0  0  2  0  0  0  0  0  0  0  0  0
  -15.5896  -13.9040   19.2967 C   0  0  2  0  0  0  0  0  0  0  0  0
  -15.2394  -15.2516   19.7942 C   0  0  0  0  0  0  0  0  0  0  0  0
  -15.8378  -16.3621   19.2970 O   0  0  0  0  0  0  0  0  0  0  0  0
  -16.4295  -13.3919   18.3755 N   0  0  0  0  0  0  0  0  0  0  0  0
  -16.2743  -12.0344   18.3905 C   0  0  0  0  0  0  0  0  0  0  0  0
  -15.3454  -11.6663   19.3019 N   0  0  1  0  0  0  0  0  0  0  0  0
  1  3  1  6  0  0  0
  1  4  2  0  0  0  0
  1  6  1  0  0  0  0
  1 22  1  0  0  0  0
  2 28  1  0  0  0  0
  2 35  1  6  0  0  0
  2 38  2  0  0  0  0
  2 10  1  0  0  0  0
  5  6  1  0  0  0  0
  7  5  1  6  0  0  0
  7  8  1  0  0  0  0
  7  9  1  0  0  0  0
  9 10  1  1  0  0  0
  9 11  1  0  0  0  0
 11 12  1  1  0  0  0
 11 13  1  0  0  0  0
 13  8  1  1  0  0  0
 13 33  1  0  0  0  0
 14 46  1  0  0  0  0
 14 17  1  0  0  0  0
 14 25  1  1  0  0  0
 15 16  1  0  0  0  0
 15 29  1  0  0  0  0
 16 18  1  1  0  0  0
 16 21  1  0  0  0  0
 17 19  1  1  0  0  0
 17 20  1  0  0  0  0
 20 22  1  1  0  0  0
 20 24  1  0  0  0  0
 23 21  1  1  0  0  0
 23 26  1  0  0  0  0
 23 33  1  0  0  0  0
 24 25  1  1  0  0  0
 24 27  1  0  0  0  0
 26 29  1  6  0  0  0
 26 31  1  0  0  0  0
 27 28  1  0  0  0  0
 29 30  2  0  0  0  0
 31 32  1  0  0  0  0
 33 32  1  6  0  0  0
 34 36  1  0  0  0  0
 34 42  1  0  0  0  0
 36 37  1  1  0  0  0
 36 39  1  0  0  0  0
 40 39  1  6  0  0  0
 40 41  1  0  0  0  0
 40 46  1  0  0  0  0
 41 42  1  6  0  0  0
 41 44  1  0  0  0  0
 42 43  2  0  0  0  0
 44 45  1  0  0  0  0
 46 45  1  1  0  0  0
M  CHG  2   3  -1  35  -1
M  END
>  <CHROM.1>
-147.77627604,144.19470029,-17.62334979,-10.24677868,17.08276018,-3.12856803
0.99026950,-2.81272696

>  <Name>
ligand

>  <RI>
-1

>  <Rbt.Current_Directory>
/home/itssahil/PROJECTS/Mol_Feturizer/Test_systems_manuscript/rnas/3mum

>  <Rbt.Executable>
rbdock ($Id: //depot/dev/client3/rdock/2013.1/src/exe/rbdock.cxx#4 $)

>  <Rbt.Library>
libRbt.so (2013.1, Build901 2013/11/27)

>  <Rbt.Parameter_File>
/export/apps/rDock/src/rDock_2013.1_src/data/scripts/dock_solv.prm

>  <Rbt.Receptor>
prm/blind_docking_40.prm

>  <SCORE>
-0.927328

>  <SCORE.INTER>
-2.74742

>  <SCORE.INTER.CONST>
1

>  <SCORE.INTER.POLAR>
0

>  <SCORE.INTER.ROT>
2

>  <SCORE.INTER.SOLV>
39.0257

>  <SCORE.INTER.VDW>
-19.7735

>  <SCORE.INTER.norm>
-0.0597266

>  <SCORE.INTRA>
-0.131958

>  <SCORE.INTRA.DIHEDRAL>
-0.0267605

>  <SCORE.INTRA.DIHEDRAL.0>
2.40424

>  <SCORE.INTRA.POLAR>
0

>  <SCORE.INTRA.POLAR.0>
0

>  <SCORE.INTRA.REPUL>
0

>  <SCORE.INTRA.REPUL.0>
0

>  <SCORE.INTRA.SOLV>
0.0465457

>  <SCORE.INTRA.SOLV.lig_0>
-134.169

>  <SCORE.INTRA.VDW>
-0.14185

>  <SCORE.INTRA.VDW.0>
-2.18386

>  <SCORE.INTRA.norm>
-0.00286865

>  <SCORE.RESTR>
1.95205

>  <SCORE.RESTR.CAVITY>
1.95205

>  <SCORE.RESTR.norm>
0.0424359

>  <SCORE.SYSTEM>
0

>  <SCORE.SYSTEM.CONST>
0

>  <SCORE.SYSTEM.DIHEDRAL>
0

>  <SCORE.SYSTEM.SOLV>
0

>  <SCORE.SYSTEM.norm>
0

>  <SCORE.heavy>
46

>  <SCORE.norm>
-0.0201593

>  <RMSD>
15.975

$$$$
ligand
 OpenBabel02271912143D
libRbt.so/2013.1/901 2013/11/27
 46 52  0  0  0  0  0  0  0  0999 V2000
  -15.8762   -6.9540   16.3901 P   0  0  1  0  0  0  0  0  0  0  0  0
  -20.0339   -9.8221   19.4172 P   0  0  2  0  0  0  0  0  0  0  0  0
  -14.8880   -8.1007   15.4680 O   0  5  0  0  0  0  0  0  0  0  0  0
  -15.4032   -5.2663   16.0624 O   0  0  0  0  0  0  0  0  0  0  0  0
  -18.4686   -6.4759   16.6629 C   0  0  0  0  0  0  0  0  0  0  0  0
  -17.4230   -7.1862   15.9991 O   0  0  0  0  0  0  0  0  0  0  0  0
  -19.7711   -7.2239   16.4516 C   0  0  1  0  0  0  0  0  0  0  0  0
  -19.9717   -7.4472   15.0488 O   0  0  0  0  0  0  0  0  0  0  0  0
  -19.7813   -8.6037   17.0893 C   0  0  1  0  0  0  0  0  0  0  0  0
  -20.2865   -8.5757   18.4224 O   0  0  0  0  0  0  0  0  0  0  0  0
  -20.6742   -9.4066   16.1597 C   0  0  1  0  0  0  0  0  0  0  0  0
  -22.0388   -9.2931   16.5713 O   0  0  0  0  0  0  0  0  0  0  0  0
  -20.5218   -8.7503   14.8001 C   0  0  2  0  0  0  0  0  0  0  0  0
  -14.9036  -10.2884   19.6169 C   0  0  1  0  0  0  0  0  0  0  0  0
  -19.8902  -12.3843   10.9808 N   0  0  0  0  0  0  0  0  0  0  0  0
  -21.0409  -11.9141   11.5350 C   0  0  1  0  0  0  0  0  0  0  0  0
  -14.8739   -9.4590   18.3645 C   0  0  2  0  0  0  0  0  0  0  0  0
  -22.2167  -12.4108   11.0861 N   0  0  0  0  0  0  0  0  0  0  0  0
  -13.6527   -8.7183   18.3990 O   0  0  0  0  0  0  0  0  0  0  0  0
  -16.0892   -8.5590   18.4686 C   0  0  2  0  0  0  0  0  0  0  0  0
  -21.0542  -10.9693   12.5218 N   0  0  0  0  0  0  0  0  0  0  0  0
  -15.8223   -7.2554   17.9697 O   0  0  0  0  0  0  0  0  0  0  0  0
  -19.9025  -10.4384   13.0048 C   0  0  2  0  0  0  0  0  0  0  0  0
  -16.3997   -8.4945   19.9511 C   0  0  2  0  0  0  0  0  0  0  0  0
  -15.7998   -9.6534   20.5278 O   0  0  0  0  0  0  0  0  0  0  0  0
  -18.6276  -10.9153   12.4410 C   0  0  1  0  0  0  0  0  0  0  0  0
  -17.8960   -8.4976   20.2433 C   0  0  0  0  0  0  0  0  0  0  0  0
  -18.4640   -9.7162   19.7591 O   0  0  0  0  0  0  0  0  0  0  0  0
  -18.6779  -11.9354   11.3785 C   0  0  0  0  0  0  0  0  0  0  0  0
  -17.5352  -12.4126   10.8229 O   0  0  0  0  0  0  0  0  0  0  0  0
  -17.6515  -10.2566   13.0753 N   0  0  0  0  0  0  0  0  0  0  0  0
  -18.2445   -9.4217   13.9779 C   0  0  0  0  0  0  0  0  0  0  0  0
  -19.5896   -9.5270   13.9406 N   0  0  1  0  0  0  0  0  0  0  0  0
  -14.2922  -15.3560   20.7631 N   0  0  0  0  0  0  0  0  0  0  0  0
  -20.3980  -11.3762   18.6216 O   0  5  0  0  0  0  0  0  0  0  0  0
  -13.6647  -14.2641   21.2798 C   0  0  2  0  0  0  0  0  0  0  0  0
  -12.7281  -14.4340   22.2493 N   0  0  0  0  0  0  0  0  0  0  0  0
  -20.9457   -9.7068   20.9349 O   0  0  0  0  0  0  0  0  0  0  0  0
  -13.9465  -13.0020   20.8556 N   0  0  0  0  0  0  0  0  0  0  0  0
  -14.8741  -12.7685   19.8979 C   0  0  2  0  0  0  0  0  0  0  0  0
  -15.5832  -13.9075   19.2999 C   0  0  2  0  0  0  0  0  0  0  0  0
  -15.2299  -15.2543   19.7974 C   0  0  0  0  0  0  0  0  0  0  0  0
  -15.8293  -16.3658   19.3035 O   0  0  0  0  0  0  0  0  0  0  0  0
  -16.4271  -13.3969   18.3816 N   0  0  0  0  0  0  0  0  0  0  0  0
  -16.2731  -12.0393   18.3948 C   0  0  0  0  0  0  0  0  0  0  0  0
  -15.3408  -11.6696   19.3020 N   0  0  1  0  0  0  0  0  0  0  0  0
  1  3  1  6  0  0  0
  1  4  2  0  0  0  0
  1  6  1  0  0  0  0
  1 22  1  0  0  0  0
  2 28  1  0  0  0  0
  2 35  1  6  0  0  0
  2 38  2  0  0  0  0
  2 10  1  0  0  0  0
  5  6  1  0  0  0  0
  7  5  1  6  0  0  0
  7  8  1  0  0  0  0
  7  9  1  0  0  0  0
  9 10  1  1  0  0  0
  9 11  1  0  0  0  0
 11 12  1  1  0  0  0
 11 13  1  0  0  0  0
 13  8  1  1  0  0  0
 13 33  1  0  0  0  0
 14 46  1  0  0  0  0
 14 17  1  0  0  0  0
 14 25  1  1  0  0  0
 15 16  1  0  0  0  0
 15 29  1  0  0  0  0
 16 18  1  1  0  0  0
 16 21  1  0  0  0  0
 17 19  1  1  0  0  0
 17 20  1  0  0  0  0
 20 22  1  1  0  0  0
 20 24  1  0  0  0  0
 23 21  1  1  0  0  0
 23 26  1  0  0  0  0
 23 33  1  0  0  0  0
 24 25  1  1  0  0  0
 24 27  1  0  0  0  0
 26 29  1  6  0  0  0
 26 31  1  0  0  0  0
 27 28  1  0  0  0  0
 29 30  2  0  0  0  0
 31 32  1  0  0  0  0
 33 32  1  6  0  0  0
 34 36  1  0  0  0  0
 34 42  1  0  0  0  0
 36 37  1  1  0  0  0
 36 39  1  0  0  0  0
 40 39  1  6  0  0  0
 40 41  1  0  0  0  0
 40 46  1  0  0  0  0
 41 42  1  6  0  0  0
 41 44  1  0  0  0  0
 42 43  2  0  0  0  0
 44 45  1  0  0  0  0
 46 45  1  1  0  0  0
M  CHG  2   3  -1  35  -1
M  END
>  <CHROM.1>
-146.39682921,143.98723513,-17.61971375,-10.24952541,17.07555706,-3.13835552
0.99097040,-2.80308787

>  <Name>
ligand

>  <RI>
-1

>  <Rbt.Current_Directory>
/home/itssahil/PROJECTS/Mol_Feturizer/Test_systems_manuscript/rnas/3mum

>  <Rbt.Executable>
rbdock ($Id: //depot/dev/client3/rdock/2013.1/src/exe/rbdock.cxx#4 $)

>  <Rbt.Library>
libRbt.so (2013.1, Build901 2013/11/27)

>  <Rbt.Parameter_File>
/export/apps/rDock/src/rDock_2013.1_src/data/scripts/dock_solv.prm

>  <Rbt.Receptor>
prm/blind_docking_40.prm

>  <SCORE>
-1.10443

>  <SCORE.INTER>
-2.94721

>  <SCORE.INTER.CONST>
1

>  <SCORE.INTER.POLAR>
0

>  <SCORE.INTER.ROT>
2

>  <SCORE.INTER.SOLV>
38.9388

>  <SCORE.INTER.VDW>
-19.8777

>  <SCORE.INTER.norm>
-0.0640697

>  <SCORE.INTRA>
-0.140278

>  <SCORE.INTRA.DIHEDRAL>
-0.0267016

>  <SCORE.INTRA.DIHEDRAL.0>
2.40424

>  <SCORE.INTRA.POLAR>
0

>  <SCORE.INTRA.POLAR.0>
0

>  <SCORE.INTRA.REPUL>
0

>  <SCORE.INTRA.REPUL.0>
0

>  <SCORE.INTRA.SOLV>
0.046807

>  <SCORE.INTRA.SOLV.lig_0>
-134.169

>  <SCORE.INTRA.VDW>
-0.150331

>  <SCORE.INTRA.VDW.0>
-2.18386

>  <SCORE.INTRA.norm>
-0.00304953

>  <SCORE.RESTR>
1.98306

>  <SCORE.RESTR.CAVITY>
1.98306

>  <SCORE.RESTR.norm>
0.0431099

>  <SCORE.SYSTEM>
0

>  <SCORE.SYSTEM.CONST>
0

>  <SCORE.SYSTEM.DIHEDRAL>
0

>  <SCORE.SYSTEM.SOLV>
0

>  <SCORE.SYSTEM.norm>
0

>  <SCORE.heavy>
46

>  <SCORE.norm>
-0.0240094

>  <RMSD>
15.975

$$$$
ligand
 OpenBabel02271912143D
libRbt.so/2013.1/901 2013/11/27
 46 52  0  0  0  0  0  0  0  0999 V2000
  -15.8645   -7.0238   16.3660 P   0  0  1  0  0  0  0  0  0  0  0  0
  -20.0605   -9.7970   19.4285 P   0  0  2  0  0  0  0  0  0  0  0  0
  -14.8892   -8.1956   15.4618 O   0  5  0  0  0  0  0  0  0  0  0  0
  -15.3705   -5.3469   16.0146 O   0  0  0  0  0  0  0  0  0  0  0  0
  -18.4511   -6.5103   16.6284 C   0  0  0  0  0  0  0  0  0  0  0  0
  -17.4135   -7.2427   15.9763 O   0  0  0  0  0  0  0  0  0  0  0  0
  -19.7625   -7.2453   16.4262 C   0  0  1  0  0  0  0  0  0  0  0  0
  -19.9641   -7.4862   15.0265 O   0  0  0  0  0  0  0  0  0  0  0  0
  -19.7903   -8.6155   17.0836 C   0  0  1  0  0  0  0  0  0  0  0  0
  -20.2966   -8.5621   18.4155 O   0  0  0  0  0  0  0  0  0  0  0  0
  -20.6918   -9.4208   16.1645 C   0  0  1  0  0  0  0  0  0  0  0  0
  -22.0554   -9.2846   16.5725 O   0  0  0  0  0  0  0  0  0  0  0  0
  -20.5299   -8.7860   14.7958 C   0  0  2  0  0  0  0  0  0  0  0  0
  -14.9364  -10.3231   19.6417 C   0  0  1  0  0  0  0  0  0  0  0  0
  -19.8569  -11.8095   10.4833 N   0  0  0  0  0  0  0  0  0  0  0  0
  -20.9899  -11.2120   10.9432 C   0  0  1  0  0  0  0  0  0  0  0  0
  -14.8951   -9.5122   18.3776 C   0  0  2  0  0  0  0  0  0  0  0  0
  -22.1334  -11.3821   10.2401 N   0  0  0  0  0  0  0  0  0  0  0  0
  -13.6650   -8.7861   18.4030 O   0  0  0  0  0  0  0  0  0  0  0  0
  -16.0995   -8.5960   18.4671 C   0  0  2  0  0  0  0  0  0  0  0  0
  -21.0177  -10.4554   12.0805 N   0  0  0  0  0  0  0  0  0  0  0  0
  -15.8161   -7.3031   17.9498 O   0  0  0  0  0  0  0  0  0  0  0  0
  -19.8978  -10.2529   12.8197 C   0  0  2  0  0  0  0  0  0  0  0  0
  -16.4108   -8.5064   19.9481 C   0  0  2  0  0  0  0  0  0  0  0  0
  -15.8259   -9.6641   20.5421 O   0  0  0  0  0  0  0  0  0  0  0  0
  -18.6439  -10.8805   12.3675 C   0  0  1  0  0  0  0  0  0  0  0  0
  -17.9075   -8.4871   20.2383 C   0  0  0  0  0  0  0  0  0  0  0  0
  -18.4898   -9.7055   19.7709 O   0  0  0  0  0  0  0  0  0  0  0  0
  -18.6771  -11.6848   11.1329 C   0  0  0  0  0  0  0  0  0  0  0  0
  -17.5527  -12.2871   10.6692 O   0  0  0  0  0  0  0  0  0  0  0  0
  -17.6993  -10.5434   13.2524 N   0  0  0  0  0  0  0  0  0  0  0  0
  -18.2922   -9.7622   14.2020 C   0  0  0  0  0  0  0  0  0  0  0  0
  -19.6062   -9.5863   13.9488 N   0  0  1  0  0  0  0  0  0  0  0  0
  -14.9748  -15.2829   21.3050 N   0  0  0  0  0  0  0  0  0  0  0  0
  -20.4426  -11.3579   18.6548 O   0  5  0  0  0  0  0  0  0  0  0  0
  -14.4036  -14.1810   21.8640 C   0  0  2  0  0  0  0  0  0  0  0  0
  -13.7277  -14.3063   23.0360 N   0  0  0  0  0  0  0  0  0  0  0  0
  -20.9725   -9.6488   20.9431 O   0  0  0  0  0  0  0  0  0  0  0  0
  -14.4882  -12.9522   21.2851 N   0  0  0  0  0  0  0  0  0  0  0  0
  -15.1533  -12.7631   20.1214 C   0  0  2  0  0  0  0  0  0  0  0  0
  -15.7886  -13.9153   19.4685 C   0  0  2  0  0  0  0  0  0  0  0  0
  -15.6575  -15.2250   20.1419 C   0  0  0  0  0  0  0  0  0  0  0  0
  -16.2082  -16.3457   19.6132 O   0  0  0  0  0  0  0  0  0  0  0  0
  -16.3613  -13.4513   18.3402 N   0  0  0  0  0  0  0  0  0  0  0  0
  -16.1154  -12.1086   18.2791 C   0  0  0  0  0  0  0  0  0  0  0  0
  -15.3902  -11.7032   19.3462 N   0  0  1  0  0  0  0  0  0  0  0  0
  1  3  1  6  0  0  0
  1  4  2  0  0  0  0
  1  6  1  0  0  0  0
  1 22  1  0  0  0  0
  2 28  1  0  0  0  0
  2 35  1  6  0  0  0
  2 38  2  0  0  0  0
  2 10  1  0  0  0  0
  5  6  1  0  0  0  0
  7  5  1  6  0  0  0
  7  8  1  0  0  0  0
  7  9  1  0  0  0  0
  9 10  1  1  0  0  0
  9 11  1  0  0  0  0
 11 12  1  1  0  0  0
 11 13  1  0  0  0  0
 13  8  1  1  0  0  0
 13 33  1  0  0  0  0
 14 46  1  0  0  0  0
 14 17  1  0  0  0  0
 14 25  1  1  0  0  0
 15 16  1  0  0  0  0
 15 29  1  0  0  0  0
 16 18  1  1  0  0  0
 16 21  1  0  0  0  0
 17 19  1  1  0  0  0
 17 20  1  0  0  0  0
 20 22  1  1  0  0  0
 20 24  1  0  0  0  0
 23 21  1  1  0  0  0
 23 26  1  0  0  0  0
 23 33  1  0  0  0  0
 24 25  1  1  0  0  0
 24 27  1  0  0  0  0
 26 29  1  6  0  0  0
 26 31  1  0  0  0  0
 27 28  1  0  0  0  0
 29 30  2  0  0  0  0
 31 32  1  0  0  0  0
 33 32  1  6  0  0  0
 34 36  1  0  0  0  0
 34 42  1  0  0  0  0
 36 37  1  1  0  0  0
 36 39  1  0  0  0  0
 40 39  1  6  0  0  0
 40 41  1  0  0  0  0
 40 46  1  0  0  0  0
 41 42  1  6  0  0  0
 41 44  1  0  0  0  0
 42 43  2  0  0  0  0
 44 45  1  0  0  0  0
 46 45  1  1  0  0  0
M  CHG  2   3  -1  35  -1
M  END
>  <CHROM.1>
-128.60971880,158.26944352,-17.70442246,-10.20425195,17.08586209,-3.08047415
1.07896759,-2.88743244

>  <Name>
ligand

>  <RI>
0

>  <Rbt.Current_Directory>
/home/itssahil/PROJECTS/Mol_Feturizer/Test_systems_manuscript/rnas/3mum

>  <Rbt.Executable>
rbdock ($Id: //depot/dev/client3/rdock/2013.1/src/exe/rbdock.cxx#4 $)

>  <Rbt.Library>
libRbt.so (2013.1, Build901 2013/11/27)

>  <Rbt.Parameter_File>
/export/apps/rDock/src/rDock_2013.1_src/data/scripts/dock_solv.prm

>  <Rbt.Receptor>
prm/blind_docking_60.prm

>  <SCORE>
4.27455

>  <SCORE.INTER>
1.05331

>  <SCORE.INTER.CONST>
1

>  <SCORE.INTER.POLAR>
0

>  <SCORE.INTER.ROT>
2

>  <SCORE.INTER.SOLV>
36.7182

>  <SCORE.INTER.VDW>
-16.4705

>  <SCORE.INTER.norm>
0.0228981

>  <SCORE.INTRA>
0.109748

>  <SCORE.INTRA.DIHEDRAL>
-0.0279429

>  <SCORE.INTRA.DIHEDRAL.0>
2.40424

>  <SCORE.INTRA.POLAR>
0

>  <SCORE.INTRA.POLAR.0>
0

>  <SCORE.INTRA.REPUL>
0

>  <SCORE.INTRA.REPUL.0>
0

>  <SCORE.INTRA.SOLV>
0.0413186

>  <SCORE.INTRA.SOLV.lig_0>
-134.169

>  <SCORE.INTRA.VDW>
0.10306

>  <SCORE.INTRA.VDW.0>
-2.18386

>  <SCORE.INTRA.norm>
0.00238582

>  <SCORE.RESTR>
3.11149

>  <SCORE.RESTR.CAVITY>
3.11149

>  <SCORE.RESTR.norm>
0.0676411

>  <SCORE.SYSTEM>
0

>  <SCORE.SYSTEM.CONST>
0

>  <SCORE.SYSTEM.DIHEDRAL>
0

>  <SCORE.SYSTEM.SOLV>
0

>  <SCORE.SYSTEM.norm>
0

>  <SCORE.heavy>
46

>  <SCORE.norm>
0.092925

>  <RMSD>
15.976

$$$$
ligand
 OpenBabel02271912143D
libRbt.so/2013.1/901 2013/11/27
 46 52  0  0  0  0  0  0  0  0999 V2000
  -15.8750   -6.9498   16.3968 P   0  0  1  0  0  0  0  0  0  0  0  0
  -20.0394   -9.8189   19.4138 P   0  0  2  0  0  0  0  0  0  0  0  0
  -14.8881   -8.0958   15.4724 O   0  5  0  0  0  0  0  0  0  0  0  0
  -15.3990   -5.2621   16.0738 O   0  0  0  0  0  0  0  0  0  0  0  0
  -18.4668   -6.4682   16.6692 C   0  0  0  0  0  0  0  0  0  0  0  0
  -17.4219   -7.1785   16.0042 O   0  0  0  0  0  0  0  0  0  0  0  0
  -19.7704   -7.2134   16.4553 C   0  0  1  0  0  0  0  0  0  0  0  0
  -19.9705   -7.4326   15.0517 O   0  0  0  0  0  0  0  0  0  0  0  0
  -19.7833   -8.5948   17.0893 C   0  0  1  0  0  0  0  0  0  0  0  0
  -20.2892   -8.5695   18.4221 O   0  0  0  0  0  0  0  0  0  0  0  0
  -20.6769   -9.3939   16.1570 C   0  0  1  0  0  0  0  0  0  0  0  0
  -22.0416   -9.2791   16.5680 O   0  0  0  0  0  0  0  0  0  0  0  0
  -20.5226   -8.7342   14.7993 C   0  0  2  0  0  0  0  0  0  0  0  0
  -14.9100  -10.2944   19.6154 C   0  0  1  0  0  0  0  0  0  0  0  0
  -19.8912  -12.4138   11.0237 N   0  0  0  0  0  0  0  0  0  0  0  0
  -21.0408  -11.9516   11.5868 C   0  0  1  0  0  0  0  0  0  0  0  0
  -14.8781   -9.4617   18.3653 C   0  0  2  0  0  0  0  0  0  0  0  0
  -22.2154  -12.4710   11.1610 N   0  0  0  0  0  0  0  0  0  0  0  0
  -13.6557   -8.7232   18.4025 O   0  0  0  0  0  0  0  0  0  0  0  0
  -16.0919   -8.5599   18.4710 C   0  0  2  0  0  0  0  0  0  0  0  0
  -21.0542  -10.9929   12.5602 N   0  0  0  0  0  0  0  0  0  0  0  0
  -15.8226   -7.2555   17.9757 O   0  0  0  0  0  0  0  0  0  0  0  0
  -19.9037  -10.4392   13.0198 C   0  0  2  0  0  0  0  0  0  0  0  0
  -16.4032   -8.4989   19.9535 C   0  0  2  0  0  0  0  0  0  0  0  0
  -15.8057   -9.6602   20.5274 O   0  0  0  0  0  0  0  0  0  0  0  0
  -18.6299  -10.9065   12.4457 C   0  0  1  0  0  0  0  0  0  0  0  0
  -17.8998   -8.5003   20.2447 C   0  0  0  0  0  0  0  0  0  0  0  0
  -18.4695   -9.7166   19.7570 O   0  0  0  0  0  0  0  0  0  0  0  0
  -18.6800  -11.9424   11.3985 C   0  0  0  0  0  0  0  0  0  0  0  0
  -17.5383  -12.4116   10.8343 O   0  0  0  0  0  0  0  0  0  0  0  0
  -17.6547  -10.2253   13.0572 N   0  0  0  0  0  0  0  0  0  0  0  0
  -18.2473   -9.3857   13.9558 C   0  0  0  0  0  0  0  0  0  0  0  0
  -19.5911   -9.5102   13.9382 N   0  0  1  0  0  0  0  0  0  0  0  0
  -14.3189  -15.3649   20.7594 N   0  0  0  0  0  0  0  0  0  0  0  0
  -20.4056  -11.3703   18.6139 O   0  5  0  0  0  0  0  0  0  0  0  0
  -13.6912  -14.2754   21.2806 C   0  0  2  0  0  0  0  0  0  0  0  0
  -12.7604  -14.4489   22.2550 N   0  0  0  0  0  0  0  0  0  0  0  0
  -20.9519   -9.7061   20.9312 O   0  0  0  0  0  0  0  0  0  0  0  0
  -13.9672  -13.0120   20.8564 N   0  0  0  0  0  0  0  0  0  0  0  0
  -14.8889  -12.7749   19.8939 C   0  0  2  0  0  0  0  0  0  0  0  0
  -15.5978  -13.9113   19.2908 C   0  0  2  0  0  0  0  0  0  0  0  0
  -15.2510  -15.2596   19.7886 C   0  0  0  0  0  0  0  0  0  0  0  0
  -15.8508  -16.3689   19.2903 O   0  0  0  0  0  0  0  0  0  0  0  0
  -16.4354  -13.3973   18.3685 N   0  0  0  0  0  0  0  0  0  0  0  0
  -16.2776  -12.0401   18.3840 C   0  0  0  0  0  0  0  0  0  0  0  0
  -15.3493  -11.6740   19.2967 N   0  0  1  0  0  0  0  0  0  0  0  0
  1  3  1  6  0  0  0
  1  4  2  0  0  0  0
  1  6  1  0  0  0  0
  1 22  1  0  0  0  0
  2 28  1  0  0  0  0
  2 35  1  6  0  0  0
  2 38  2  0  0  0  0
  2 10  1  0  0  0  0
  5  6  1  0  0  0  0
  7  5  1  6  0  0  0
  7  8  1  0  0  0  0
  7  9  1  0  0  0  0
  9 10  1  1  0  0  0
  9 11  1  0  0  0  0
 11 12  1  1  0  0  0
 11 13  1  0  0  0  0
 13  8  1  1  0  0  0
 13 33  1  0  0  0  0
 14 46  1  0  0  0  0
 14 17  1  0  0  0  0
 14 25  1  1  0  0  0
 15 16  1  0  0  0  0
 15 29  1  0  0  0  0
 16 18  1  1  0  0  0
 16 21  1  0  0  0  0
 17 19  1  1  0  0  0
 17 20  1  0  0  0  0
 20 22  1  1  0  0  0
 20 24  1  0  0  0  0
 23 21  1  1  0  0  0
 23 26  1  0  0  0  0
 23 33  1  0  0  0  0
 24 25  1  1  0  0  0
 24 27  1  0  0  0  0
 26 29  1  6  0  0  0
 26 31  1  0  0  0  0
 27 28  1  0  0  0  0
 29 30  2  0  0  0  0
 31 32  1  0  0  0  0
 33 32  1  6  0  0  0
 34 36  1  0  0  0  0
 34 42  1  0  0  0  0
 36 37  1  1  0  0  0
 36 39  1  0  0  0  0
 40 39  1  6  0  0  0
 40 41  1  0  0  0  0
 40 46  1  0  0  0  0
 41 42  1  6  0  0  0
 41 44  1  0  0  0  0
 42 43  2  0  0  0  0
 44 45  1  0  0  0  0
 46 45  1  1  0  0  0
M  CHG  2   3  -1  35  -1
M  END
>  <CHROM.1>
-147.94627501,144.28310516,-17.62527039,-10.25004075,17.07942966,-3.12407037
0.99088809,-2.81655498

>  <Name>
ligand

>  <RI>
-1

>  <Rbt.Current_Directory>
/home/itssahil/PROJECTS/Mol_Feturizer/Test_systems_manuscript/rnas/3mum

>  <Rbt.Executable>
rbdock ($Id: //depot/dev/client3/rdock/2013.1/src/exe/rbdock.cxx#4 $)

>  <Rbt.Library>
libRbt.so (2013.1, Build901 2013/11/27)

>  <Rbt.Parameter_File>
/export/apps/rDock/src/rDock_2013.1_src/data/scripts/dock_solv.prm

>  <Rbt.Receptor>
prm/blind_docking_40.prm

>  <SCORE>
-0.955742

>  <SCORE.INTER>
-2.77174

>  <SCORE.INTER.CONST>
1

>  <SCORE.INTER.POLAR>
0

>  <SCORE.INTER.ROT>
2

>  <SCORE.INTER.SOLV>
38.9892

>  <SCORE.INTER.VDW>
-19.7776

>  <SCORE.INTER.norm>
-0.0602553

>  <SCORE.INTRA>
-0.147815

>  <SCORE.INTRA.DIHEDRAL>
-0.0267977

>  <SCORE.INTRA.DIHEDRAL.0>
2.40424

>  <SCORE.INTRA.POLAR>
0

>  <SCORE.INTRA.POLAR.0>
0

>  <SCORE.INTRA.REPUL>
0

>  <SCORE.INTRA.REPUL.0>
0

>  <SCORE.INTRA.SOLV>
0.0465499

>  <SCORE.INTRA.SOLV.lig_0>
-134.169

>  <SCORE.INTRA.VDW>
-0.157691

>  <SCORE.INTRA.VDW.0>
-2.18386

>  <SCORE.INTRA.norm>
-0.00321338

>  <SCORE.RESTR>
1.96382

>  <SCORE.RESTR.CAVITY>
1.96382

>  <SCORE.RESTR.norm>
0.0426917

>  <SCORE.SYSTEM>
0

>  <SCORE.SYSTEM.CONST>
0

>  <SCORE.SYSTEM.DIHEDRAL>
0

>  <SCORE.SYSTEM.SOLV>
0

>  <SCORE.SYSTEM.norm>
0

>  <SCORE.heavy>
46

>  <SCORE.norm>
-0.020777

>  <RMSD>
15.978

$$$$
ligand
 OpenBabel02271912143D
libRbt.so/2013.1/901 2013/11/27
 46 52  0  0  0  0  0  0  0  0999 V2000
  -17.4973   -5.3536   14.4874 P   0  0  1  0  0  0  0  0  0  0  0  0
  -19.8624   -9.2437   18.2223 P   0  0  2  0  0  0  0  0  0  0  0  0
  -16.6967   -6.1966   13.1494 O   0  5  0  0  0  0  0  0  0  0  0  0
  -17.4505   -3.5843   14.2718 O   0  0  0  0  0  0  0  0  0  0  0  0
  -19.8907   -5.4396   15.6220 C   0  0  0  0  0  0  0  0  0  0  0  0
  -19.0238   -5.8657   14.5707 O   0  0  0  0  0  0  0  0  0  0  0  0
  -21.0443   -6.4192   15.7245 C   0  0  1  0  0  0  0  0  0  0  0  0
  -21.6616   -6.5663   14.4379 O   0  0  0  0  0  0  0  0  0  0  0  0
  -20.6098   -7.8181   16.1303 C   0  0  1  0  0  0  0  0  0  0  0  0
  -20.6376   -8.0003   17.5442 O   0  0  0  0  0  0  0  0  0  0  0  0
  -21.6141   -8.7102   15.4222 C   0  0  1  0  0  0  0  0  0  0  0  0
  -22.7614   -8.9115   16.2514 O   0  0  0  0  0  0  0  0  0  0  0  0
  -22.0369   -7.9305   14.1910 C   0  0  2  0  0  0  0  0  0  0  0  0
  -14.9590   -8.6644   16.7396 C   0  0  1  0  0  0  0  0  0  0  0  0
  -21.7413  -11.5547   10.3218 N   0  0  0  0  0  0  0  0  0  0  0  0
  -22.6426  -11.4556   11.3368 C   0  0  1  0  0  0  0  0  0  0  0  0
  -15.4886   -7.7494   15.6721 C   0  0  2  0  0  0  0  0  0  0  0  0
  -23.6202  -12.3875   11.4173 N   0  0  0  0  0  0  0  0  0  0  0  0
  -14.4684   -6.7796   15.4281 O   0  0  0  0  0  0  0  0  0  0  0  0
  -16.7317   -7.1285   16.2778 C   0  0  2  0  0  0  0  0  0  0  0  0
  -22.5967  -10.4609   12.2722 N   0  0  0  0  0  0  0  0  0  0  0  0
  -16.8691   -5.7624   15.9112 O   0  0  0  0  0  0  0  0  0  0  0  0
  -21.6376   -9.5015   12.2342 C   0  0  2  0  0  0  0  0  0  0  0  0
  -16.5352   -7.2471   17.7764 C   0  0  2  0  0  0  0  0  0  0  0  0
  -15.5922   -8.3008   17.9656 O   0  0  0  0  0  0  0  0  0  0  0  0
  -20.6346   -9.5641   11.1570 C   0  0  1  0  0  0  0  0  0  0  0  0
  -17.8250   -7.5798   18.5181 C   0  0  0  0  0  0  0  0  0  0  0  0
  -18.3097   -8.8463   18.0676 O   0  0  0  0  0  0  0  0  0  0  0  0
  -20.7366  -10.6606   10.1775 C   0  0  0  0  0  0  0  0  0  0  0  0
  -19.8400  -10.7690    9.1644 O   0  0  0  0  0  0  0  0  0  0  0  0
  -19.8063   -8.5293   11.3364 N   0  0  0  0  0  0  0  0  0  0  0  0
  -20.2359   -7.8517   12.4409 C   0  0  0  0  0  0  0  0  0  0  0  0
  -21.3294   -8.4290   12.9818 N   0  0  1  0  0  0  0  0  0  0  0  0
  -17.3406  -13.0791   18.2250 N   0  0  0  0  0  0  0  0  0  0  0  0
  -20.2058  -10.7711   17.3679 O   0  5  0  0  0  0  0  0  0  0  0  0
  -17.2697  -11.8736   18.8533 C   0  0  2  0  0  0  0  0  0  0  0  0
  -17.8918  -11.7118   20.0502 N   0  0  0  0  0  0  0  0  0  0  0  0
  -20.2203   -9.4387   19.9491 O   0  0  0  0  0  0  0  0  0  0  0  0
  -16.5935  -10.8202   18.3190 N   0  0  0  0  0  0  0  0  0  0  0  0
  -15.9597  -10.9181   17.1270 C   0  0  2  0  0  0  0  0  0  0  0  0
  -15.9982  -12.1952   16.4023 C   0  0  2  0  0  0  0  0  0  0  0  0
  -16.7430  -13.3043   17.0357 C   0  0  0  0  0  0  0  0  0  0  0  0
  -16.8315  -14.5207   16.4430 O   0  0  0  0  0  0  0  0  0  0  0  0
  -15.2882  -12.0175   15.2706 N   0  0  0  0  0  0  0  0  0  0  0  0
  -14.8358  -10.7282   15.2698 C   0  0  0  0  0  0  0  0  0  0  0  0
  -15.2385  -10.0763   16.3842 N   0  0  1  0  0  0  0  0  0  0  0  0
  1  3  1  6  0  0  0
  1  4  2  0  0  0  0
  1  6  1  0  0  0  0
  1 22  1  0  0  0  0
  2 28  1  0  0  0  0
  2 35  1  6  0  0  0
  2 38  2  0  0  0  0
  2 10  1  0  0  0  0
  5  6  1  0  0  0  0
  7  5  1  6  0  0  0
  7  8  1  0  0  0  0
  7  9  1  0  0  0  0
  9 10  1  1  0  0  0
  9 11  1  0  0  0  0
 11 12  1  1  0  0  0
 11 13  1  0  0  0  0
 13  8  1  1  0  0  0
 13 33  1  0  0  0  0
 14 46  1  0  0  0  0
 14 17  1  0  0  0  0
 14 25  1  1  0  0  0
 15 16  1  0  0  0  0
 15 29  1  0  0  0  0
 16 18  1  1  0  0  0
 16 21  1  0  0  0  0
 17 19  1  1  0  0  0
 17 20  1  0  0  0  0
 20 22  1  1  0  0  0
 20 24  1  0  0  0  0
 23 21  1  1  0  0  0
 23 26  1  0  0  0  0
 23 33  1  0  0  0  0
 24 25  1  6  0  0  0
 24 27  1  0  0  0  0
 26 29  1  6  0  0  0
 26 31  1  0  0  0  0
 27 28  1  0  0  0  0
 29 30  2  0  0  0  0
 31 32  1  0  0  0  0
 33 32  1  6  0  0  0
 34 36  1  0  0  0  0
 34 42  1  0  0  0  0
 36 37  1  6  0  0  0
 36 39  1  0  0  0  0
 40 39  1  1  0  0  0
 40 41  1  0  0  0  0
 40 46  1  0  0  0  0
 41 42  1  1  0  0  0
 41 44  1  0  0  0  0
 42 43  2  0  0  0  0
 44 45  1  0  0  0  0
 46 45  1  6  0  0  0
M  CHG  2   3  -1  35  -1
M  END
>  <CHROM.1>
-162.10206251,-120.66400137,-18.75089643,-8.98103685,15.39810485,-2.91554046
0.84485702,2.88801187

>  <Name>
ligand

>  <RI>
0

>  <Rbt.Current_Directory>
/home/itssahil/PROJECTS/Mol_Feturizer/Test_systems_manuscript/rnas/3mum

>  <Rbt.Executable>
rbdock ($Id: //depot/dev/client3/rdock/2013.1/src/exe/rbdock.cxx#4 $)

>  <Rbt.Library>
libRbt.so (2013.1, Build901 2013/11/27)

>  <Rbt.Parameter_File>
/export/apps/rDock/src/rDock_2013.1_src/data/scripts/dock_solv.prm

>  <Rbt.Receptor>
prm/blind_docking_60.prm

>  <SCORE>
107.451

>  <SCORE.INTER>
104.893

>  <SCORE.INTER.CONST>
1

>  <SCORE.INTER.POLAR>
0

>  <SCORE.INTER.ROT>
2

>  <SCORE.INTER.SOLV>
34.3097

>  <SCORE.INTER.VDW>
53.5586

>  <SCORE.INTER.norm>
2.28028

>  <SCORE.INTRA>
1.64889

>  <SCORE.INTRA.DIHEDRAL>
0.00025771

>  <SCORE.INTRA.DIHEDRAL.0>
2.40424

>  <SCORE.INTRA.POLAR>
0

>  <SCORE.INTRA.POLAR.0>
0

>  <SCORE.INTRA.REPUL>
0

>  <SCORE.INTRA.REPUL.0>
0

>  <SCORE.INTRA.SOLV>
6.2723

>  <SCORE.INTRA.SOLV.lig_0>
-134.169

>  <SCORE.INTRA.VDW>
-1.48739

>  <SCORE.INTRA.VDW.0>
-2.18386

>  <SCORE.INTRA.norm>
0.0358454

>  <SCORE.RESTR>
0.909615

>  <SCORE.RESTR.CAVITY>
0.909615

>  <SCORE.RESTR.norm>
0.0197742

>  <SCORE.SYSTEM>
0

>  <SCORE.SYSTEM.CONST>
0

>  <SCORE.SYSTEM.DIHEDRAL>
0

>  <SCORE.SYSTEM.SOLV>
0

>  <SCORE.SYSTEM.norm>
0

>  <SCORE.heavy>
46

>  <SCORE.norm>
2.3359

>  <RMSD>
15.980

$$$$
ligand
 OpenBabel02271912143D
libRbt.so/2013.1/901 2013/11/27
 46 52  0  0  0  0  0  0  0  0999 V2000
  -15.8340   -7.0168   16.3994 P   0  0  1  0  0  0  0  0  0  0  0  0
  -19.9857   -9.8177   19.4970 P   0  0  2  0  0  0  0  0  0  0  0  0
  -14.8611   -8.1820   15.4842 O   0  5  0  0  0  0  0  0  0  0  0  0
  -15.3525   -5.3368   16.0462 O   0  0  0  0  0  0  0  0  0  0  0  0
  -18.4208   -6.5178   16.6872 C   0  0  0  0  0  0  0  0  0  0  0  0
  -17.3855   -7.2436   16.0241 O   0  0  0  0  0  0  0  0  0  0  0  0
  -19.7300   -7.2596   16.4962 C   0  0  1  0  0  0  0  0  0  0  0  0
  -19.9436   -7.4995   15.0981 O   0  0  0  0  0  0  0  0  0  0  0  0
  -19.7441   -8.6310   17.1517 C   0  0  1  0  0  0  0  0  0  0  0  0
  -20.2381   -8.5825   18.4884 O   0  0  0  0  0  0  0  0  0  0  0  0
  -20.6500   -9.4397   16.2398 C   0  0  1  0  0  0  0  0  0  0  0  0
  -22.0104   -9.3117   16.6610 O   0  0  0  0  0  0  0  0  0  0  0  0
  -20.5045   -8.8020   14.8707 C   0  0  2  0  0  0  0  0  0  0  0  0
  -14.8571  -10.3161   19.6609 C   0  0  1  0  0  0  0  0  0  0  0  0
  -19.9267  -12.2556   10.8793 N   0  0  0  0  0  0  0  0  0  0  0  0
  -21.0695  -11.7340   11.4032 C   0  0  1  0  0  0  0  0  0  0  0  0
  -14.8322   -9.5030   18.3977 C   0  0  2  0  0  0  0  0  0  0  0  0
  -22.2516  -12.1180   10.8686 N   0  0  0  0  0  0  0  0  0  0  0  0
  -13.6059   -8.7703   18.4127 O   0  0  0  0  0  0  0  0  0  0  0  0
  -16.0406   -8.5936   18.5001 C   0  0  2  0  0  0  0  0  0  0  0  0
  -21.0691  -10.8467   12.4421 N   0  0  0  0  0  0  0  0  0  0  0  0
  -15.7691   -7.2984   17.9823 O   0  0  0  0  0  0  0  0  0  0  0  0
  -19.9103  -10.4289   13.0115 C   0  0  2  0  0  0  0  0  0  0  0  0
  -16.3384   -8.5080   19.9842 C   0  0  2  0  0  0  0  0  0  0  0  0
  -15.7415   -9.6634   20.5708 O   0  0  0  0  0  0  0  0  0  0  0  0
  -18.6438  -10.9657   12.4839 C   0  0  1  0  0  0  0  0  0  0  0  0
  -17.8323   -8.4973   20.2886 C   0  0  0  0  0  0  0  0  0  0  0  0
  -18.4123   -9.7181   19.8247 O   0  0  0  0  0  0  0  0  0  0  0  0
  -18.7088  -11.9191   11.3619 C   0  0  0  0  0  0  0  0  0  0  0  0
  -17.5744  -12.4469   10.8359 O   0  0  0  0  0  0  0  0  0  0  0  0
  -17.6590  -10.4161   13.2030 N   0  0  0  0  0  0  0  0  0  0  0  0
  -18.2393   -9.5912   14.1231 C   0  0  0  0  0  0  0  0  0  0  0  0
  -19.5845   -9.5959   14.0136 N   0  0  1  0  0  0  0  0  0  0  0  0
  -14.2957  -15.3696   20.8921 N   0  0  0  0  0  0  0  0  0  0  0  0
  -20.3667  -11.3794   18.7246 O   0  5  0  0  0  0  0  0  0  0  0  0
  -13.6597  -14.2751   21.3927 C   0  0  2  0  0  0  0  0  0  0  0  0
  -12.7275  -14.4376   22.3677 N   0  0  0  0  0  0  0  0  0  0  0  0
  -20.8841   -9.6767   21.0205 O   0  0  0  0  0  0  0  0  0  0  0  0
  -13.9287  -13.0176   20.9470 N   0  0  0  0  0  0  0  0  0  0  0  0
  -14.8513  -12.7914   19.9827 C   0  0  2  0  0  0  0  0  0  0  0  0
  -15.5690  -13.9336   19.4014 C   0  0  2  0  0  0  0  0  0  0  0  0
  -15.2296  -15.2752   19.9219 C   0  0  0  0  0  0  0  0  0  0  0  0
  -15.8377  -16.3892   19.4446 O   0  0  0  0  0  0  0  0  0  0  0  0
  -16.4056  -13.4305   18.4722 N   0  0  0  0  0  0  0  0  0  0  0  0
  -16.2391  -12.0743   18.4635 C   0  0  0  0  0  0  0  0  0  0  0  0
  -15.3061  -11.6983   19.3674 N   0  0  1  0  0  0  0  0  0  0  0  0
  1  3  1  6  0  0  0
  1  4  2  0  0  0  0
  1  6  1  0  0  0  0
  1 22  1  0  0  0  0
  2 28  1  0  0  0  0
  2 35  1  6  0  0  0
  2 38  2  0  0  0  0
  2 10  1  0  0  0  0
  5  6  1  0  0  0  0
  7  5  1  6  0  0  0
  7  8  1  0  0  0  0
  7  9  1  0  0  0  0
  9 10  1  1  0  0  0
  9 11  1  0  0  0  0
 11 12  1  1  0  0  0
 11 13  1  0  0  0  0
 13  8  1  1  0  0  0
 13 33  1  0  0  0  0
 14 46  1  0  0  0  0
 14 17  1  0  0  0  0
 14 25  1  1  0  0  0
 15 16  1  0  0  0  0
 15 29  1  0  0  0  0
 16 18  1  1  0  0  0
 16 21  1  0  0  0  0
 17 19  1  1  0  0  0
 17 20  1  0  0  0  0
 20 22  1  1  0  0  0
 20 24  1  0  0  0  0
 23 21  1  1  0  0  0
 23 26  1  0  0  0  0
 23 33  1  0  0  0  0
 24 25  1  1  0  0  0
 24 27  1  0  0  0  0
 26 29  1  6  0  0  0
 26 31  1  0  0  0  0
 27 28  1  0  0  0  0
 29 30  2  0  0  0  0
 31 32  1  0  0  0  0
 33 32  1  6  0  0  0
 34 36  1  0  0  0  0
 34 42  1  0  0  0  0
 36 37  1  1  0  0  0
 36 39  1  0  0  0  0
 40 39  1  6  0  0  0
 40 41  1  0  0  0  0
 40 46  1  0  0  0  0
 41 42  1  6  0  0  0
 41 44  1  0  0  0  0
 42 43  2  0  0  0  0
 44 45  1  0  0  0  0
 46 45  1  1  0  0  0
M  CHG  2   3  -1  35  -1
M  END
>  <CHROM.1>
-139.94994636,144.67443650,-17.59636686,-10.26594637,17.12108917,3.12762307
0.99850603,-2.78990647

>  <Name>
ligand

>  <RI>
-1

>  <Rbt.Current_Directory>
/home/itssahil/PROJECTS/Mol_Feturizer/Test_systems_manuscript/rnas/3mum

>  <Rbt.Executable>
rbdock ($Id: //depot/dev/client3/rdock/2013.1/src/exe/rbdock.cxx#4 $)

>  <Rbt.Library>
libRbt.so (2013.1, Build901 2013/11/27)

>  <Rbt.Parameter_File>
/export/apps/rDock/src/rDock_2013.1_src/data/scripts/dock_solv.prm

>  <Rbt.Receptor>
prm/blind_docking_80.prm

>  <SCORE>
-2.48637

>  <SCORE.INTER>
-3.62015

>  <SCORE.INTER.CONST>
1

>  <SCORE.INTER.POLAR>
0

>  <SCORE.INTER.ROT>
2

>  <SCORE.INTER.SOLV>
37.98

>  <SCORE.INTER.VDW>
-20.0068

>  <SCORE.INTER.norm>
-0.0786988

>  <SCORE.INTRA>
-0.145266

>  <SCORE.INTRA.DIHEDRAL>
-0.0274349

>  <SCORE.INTRA.DIHEDRAL.0>
2.40424

>  <SCORE.INTRA.POLAR>
0

>  <SCORE.INTRA.POLAR.0>
0

>  <SCORE.INTRA.REPUL>
0

>  <SCORE.INTRA.REPUL.0>
0

>  <SCORE.INTRA.SOLV>
0.0428312

>  <SCORE.INTRA.SOLV.lig_0>
-134.169

>  <SCORE.INTRA.VDW>
-0.152964

>  <SCORE.INTRA.VDW.0>
-2.18386

>  <SCORE.INTRA.norm>
-0.00315795

>  <SCORE.RESTR>
1.27904

>  <SCORE.RESTR.CAVITY>
1.27904

>  <SCORE.RESTR.norm>
0.0278053

>  <SCORE.SYSTEM>
0

>  <SCORE.SYSTEM.CONST>
0

>  <SCORE.SYSTEM.DIHEDRAL>
0

>  <SCORE.SYSTEM.SOLV>
0

>  <SCORE.SYSTEM.norm>
0

>  <SCORE.heavy>
46

>  <SCORE.norm>
-0.0540515

>  <RMSD>
15.980

$$$$
ligand
 OpenBabel02271912143D
libRbt.so/2013.1/901 2013/11/27
 46 52  0  0  0  0  0  0  0  0999 V2000
  -15.8030   -7.0877   16.4208 P   0  0  1  0  0  0  0  0  0  0  0  0
  -20.0225   -9.8239   19.4844 P   0  0  2  0  0  0  0  0  0  0  0  0
  -14.8324   -8.2689   15.5239 O   0  5  0  0  0  0  0  0  0  0  0  0
  -15.2985   -5.4152   16.0637 O   0  0  0  0  0  0  0  0  0  0  0  0
  -18.3873   -6.5582   16.6747 C   0  0  0  0  0  0  0  0  0  0  0  0
  -17.3523   -7.2993   16.0282 O   0  0  0  0  0  0  0  0  0  0  0  0
  -19.7024   -7.2864   16.4723 C   0  0  1  0  0  0  0  0  0  0  0  0
  -19.9020   -7.5320   15.0731 O   0  0  0  0  0  0  0  0  0  0  0  0
  -19.7397   -8.6537   17.1354 C   0  0  1  0  0  0  0  0  0  0  0  0
  -20.2490   -8.5919   18.4658 O   0  0  0  0  0  0  0  0  0  0  0  0
  -20.6436   -9.4576   16.2174 C   0  0  1  0  0  0  0  0  0  0  0  0
  -22.0074   -9.3119   16.6215 O   0  0  0  0  0  0  0  0  0  0  0  0
  -20.4747   -8.8295   14.8465 C   0  0  2  0  0  0  0  0  0  0  0  0
  -14.9021  -10.3787   19.7124 C   0  0  1  0  0  0  0  0  0  0  0  0
  -19.7889  -11.8047   10.5024 N   0  0  0  0  0  0  0  0  0  0  0  0
  -20.9165  -11.1877   10.9499 C   0  0  1  0  0  0  0  0  0  0  0  0
  -14.8530   -9.5733   18.4451 C   0  0  2  0  0  0  0  0  0  0  0  0
  -22.0498  -11.3209   10.2229 N   0  0  0  0  0  0  0  0  0  0  0  0
  -13.6188   -8.8542   18.4706 O   0  0  0  0  0  0  0  0  0  0  0  0
  -16.0522   -8.6498   18.5278 C   0  0  2  0  0  0  0  0  0  0  0  0
  -20.9486  -10.4473   12.0977 N   0  0  0  0  0  0  0  0  0  0  0  0
  -15.7601   -7.3607   18.0059 O   0  0  0  0  0  0  0  0  0  0  0  0
  -19.8387  -10.2818   12.8608 C   0  0  2  0  0  0  0  0  0  0  0  0
  -16.3667   -8.5522   20.0077 C   0  0  2  0  0  0  0  0  0  0  0  0
  -15.7899   -9.7108   20.6080 O   0  0  0  0  0  0  0  0  0  0  0  0
  -18.5912  -10.9317   12.4229 C   0  0  1  0  0  0  0  0  0  0  0  0
  -17.8639   -8.5231   20.2941 C   0  0  0  0  0  0  0  0  0  0  0  0
  -18.4521   -9.7400   19.8303 O   0  0  0  0  0  0  0  0  0  0  0  0
  -18.6192  -11.7169   11.1760 C   0  0  0  0  0  0  0  0  0  0  0  0
  -17.5003  -12.3384   10.7245 O   0  0  0  0  0  0  0  0  0  0  0  0
  -17.6562  -10.6296   13.3303 N   0  0  0  0  0  0  0  0  0  0  0  0
  -18.2491   -9.8488   14.2803 C   0  0  0  0  0  0  0  0  0  0  0  0
  -19.5536   -9.6387   14.0050 N   0  0  1  0  0  0  0  0  0  0  0  0
  -14.9775  -15.3303   21.3987 N   0  0  0  0  0  0  0  0  0  0  0  0
  -20.4118  -11.3858   18.7164 O   0  5  0  0  0  0  0  0  0  0  0  0
  -14.4017  -14.2293   21.9548 C   0  0  2  0  0  0  0  0  0  0  0  0
  -13.7313  -14.3533   23.1301 N   0  0  0  0  0  0  0  0  0  0  0  0
  -20.9373   -9.6641   20.9962 O   0  0  0  0  0  0  0  0  0  0  0  0
  -14.4765  -13.0027   21.3698 N   0  0  0  0  0  0  0  0  0  0  0  0
  -15.1358  -12.8150   20.2027 C   0  0  2  0  0  0  0  0  0  0  0  0
  -15.7755  -13.9664   19.5526 C   0  0  2  0  0  0  0  0  0  0  0  0
  -15.6552  -15.2737   20.2326 C   0  0  0  0  0  0  0  0  0  0  0  0
  -16.2105  -16.3935   19.7070 O   0  0  0  0  0  0  0  0  0  0  0  0
  -16.3409  -13.5042   18.4198 N   0  0  0  0  0  0  0  0  0  0  0  0
  -16.0865  -12.1633   18.3535 C   0  0  0  0  0  0  0  0  0  0  0  0
  -15.3631  -11.7574   19.4215 N   0  0  1  0  0  0  0  0  0  0  0  0
  1  3  1  6  0  0  0
  1  4  2  0  0  0  0
  1  6  1  0  0  0  0
  1 22  1  0  0  0  0
  2 28  1  0  0  0  0
  2 35  1  6  0  0  0
  2 38  2  0  0  0  0
  2 10  1  0  0  0  0
  5  6  1  0  0  0  0
  7  5  1  6  0  0  0
  7  8  1  0  0  0  0
  7  9  1  0  0  0  0
  9 10  1  1  0  0  0
  9 11  1  0  0  0  0
 11 12  1  1  0  0  0
 11 13  1  0  0  0  0
 13  8  1  1  0  0  0
 13 33  1  0  0  0  0
 14 46  1  0  0  0  0
 14 17  1  0  0  0  0
 14 25  1  1  0  0  0
 15 16  1  0  0  0  0
 15 29  1  0  0  0  0
 16 18  1  1  0  0  0
 16 21  1  0  0  0  0
 17 19  1  1  0  0  0
 17 20  1  0  0  0  0
 20 22  1  1  0  0  0
 20 24  1  0  0  0  0
 23 21  1  1  0  0  0
 23 26  1  0  0  0  0
 23 33  1  0  0  0  0
 24 25  1  1  0  0  0
 24 27  1  0  0  0  0
 26 29  1  6  0  0  0
 26 31  1  0  0  0  0
 27 28  1  0  0  0  0
 29 30  2  0  0  0  0
 31 32  1  0  0  0  0
 33 32  1  6  0  0  0
 34 36  1  0  0  0  0
 34 42  1  0  0  0  0
 36 37  1  1  0  0  0
 36 39  1  0  0  0  0
 40 39  1  6  0  0  0
 40 41  1  0  0  0  0
 40 46  1  0  0  0  0
 41 42  1  6  0  0  0
 41 44  1  0  0  0  0
 42 43  2  0  0  0  0
 44 45  1  0  0  0  0
 46 45  1  1  0  0  0
M  CHG  2   3  -1  35  -1
M  END
>  <CHROM.1>
-126.85830168,158.36464783,-17.66142738,-10.24682084,17.14467493,-3.08075931
1.08686135,-2.88582786

>  <Name>
ligand

>  <RI>
0

>  <Rbt.Current_Directory>
/home/itssahil/PROJECTS/Mol_Feturizer/Test_systems_manuscript/rnas/3mum

>  <Rbt.Executable>
rbdock ($Id: //depot/dev/client3/rdock/2013.1/src/exe/rbdock.cxx#4 $)

>  <Rbt.Library>
libRbt.so (2013.1, Build901 2013/11/27)

>  <Rbt.Parameter_File>
/export/apps/rDock/src/rDock_2013.1_src/data/scripts/dock_solv.prm

>  <Rbt.Receptor>
prm/blind_docking_60.prm

>  <SCORE>
3.58922

>  <SCORE.INTER>
0.190118

>  <SCORE.INTER.CONST>
1

>  <SCORE.INTER.POLAR>
0

>  <SCORE.INTER.ROT>
2

>  <SCORE.INTER.SOLV>
36.5124

>  <SCORE.INTER.VDW>
-16.9774

>  <SCORE.INTER.norm>
0.00413301

>  <SCORE.INTRA>
0.11852

>  <SCORE.INTRA.DIHEDRAL>
-0.028192

>  <SCORE.INTRA.DIHEDRAL.0>
2.40424

>  <SCORE.INTRA.POLAR>
0

>  <SCORE.INTRA.POLAR.0>
0

>  <SCORE.INTRA.REPUL>
0

>  <SCORE.INTRA.REPUL.0>
0

>  <SCORE.INTRA.SOLV>
0.0376832

>  <SCORE.INTRA.SOLV.lig_0>
-134.169

>  <SCORE.INTRA.VDW>
0.113775

>  <SCORE.INTRA.VDW.0>
-2.18386

>  <SCORE.INTRA.norm>
0.00257653

>  <SCORE.RESTR>
3.28058

>  <SCORE.RESTR.CAVITY>
3.28058

>  <SCORE.RESTR.norm>
0.071317

>  <SCORE.SYSTEM>
0

>  <SCORE.SYSTEM.CONST>
0

>  <SCORE.SYSTEM.DIHEDRAL>
0

>  <SCORE.SYSTEM.SOLV>
0

>  <SCORE.SYSTEM.norm>
0

>  <SCORE.heavy>
46

>  <SCORE.norm>
0.0780266

>  <RMSD>
15.981

$$$$
ligand
 OpenBabel02271912143D
libRbt.so/2013.1/901 2013/11/27
 46 52  0  0  0  0  0  0  0  0999 V2000
  -19.8722   -9.2900   18.3607 P   0  0  1  0  0  0  0  0  0  0  0  0
  -17.7852   -5.6958   14.1892 P   0  0  2  0  0  0  0  0  0  0  0  0
  -20.1409  -10.9109   17.6955 O   0  5  0  0  0  0  0  0  0  0  0  0
  -20.2077   -9.2337   20.1110 O   0  0  0  0  0  0  0  0  0  0  0  0
  -17.8602   -7.5656   18.4000 C   0  0  0  0  0  0  0  0  0  0  0  0
  -18.3433   -8.8683   18.0715 O   0  0  0  0  0  0  0  0  0  0  0  0
  -16.5993   -7.3011   17.5995 C   0  0  1  0  0  0  0  0  0  0  0  0
  -15.6690   -8.3736   17.8056 O   0  0  0  0  0  0  0  0  0  0  0  0
  -16.8396   -7.2528   16.0994 C   0  0  1  0  0  0  0  0  0  0  0  0
  -17.1243   -5.9322   15.6432 O   0  0  0  0  0  0  0  0  0  0  0  0
  -15.5388   -7.7849   15.5244 C   0  0  1  0  0  0  0  0  0  0  0  0
  -14.6132   -6.7124   15.3309 O   0  0  0  0  0  0  0  0  0  0  0  0
  -14.9870   -8.7151   16.5887 C   0  0  2  0  0  0  0  0  0  0  0  0
  -22.1918   -8.3678   14.3301 C   0  0  1  0  0  0  0  0  0  0  0  0
  -17.3224  -13.2943   17.9190 N   0  0  0  0  0  0  0  0  0  0  0  0
  -17.3138  -12.1097   18.5893 C   0  0  1  0  0  0  0  0  0  0  0  0
  -21.6049   -9.0923   15.5082 C   0  0  2  0  0  0  0  0  0  0  0  0
  -17.9776  -12.0358   19.7660 N   0  0  0  0  0  0  0  0  0  0  0  0
  -22.7026   -9.4557   16.3472 O   0  0  0  0  0  0  0  0  0  0  0  0
  -20.6933   -8.0781   16.1701 C   0  0  2  0  0  0  0  0  0  0  0  0
  -16.6631  -11.0018   18.1247 N   0  0  0  0  0  0  0  0  0  0  0  0
  -20.7384   -8.1765   17.5870 O   0  0  0  0  0  0  0  0  0  0  0  0
  -15.9850  -11.0239   16.9495 C   0  0  2  0  0  0  0  0  0  0  0  0
  -21.2242   -6.7294   15.7256 C   0  0  2  0  0  0  0  0  0  0  0  0
  -21.9615   -6.9737   14.5289 O   0  0  0  0  0  0  0  0  0  0  0  0
  -15.9600  -12.2832   16.1852 C   0  0  1  0  0  0  0  0  0  0  0  0
  -20.1162   -5.7208   15.4433 C   0  0  0  0  0  0  0  0  0  0  0  0
  -19.2993   -6.2101   14.3778 O   0  0  0  0  0  0  0  0  0  0  0  0
  -16.6810  -13.4438   16.7376 C   0  0  0  0  0  0  0  0  0  0  0  0
  -16.6917  -14.6298   16.0778 O   0  0  0  0  0  0  0  0  0  0  0  0
  -15.2343  -12.0559   15.0849 N   0  0  0  0  0  0  0  0  0  0  0  0
  -14.8208  -10.7557   15.1322 C   0  0  0  0  0  0  0  0  0  0  0  0
  -15.2658  -10.1348   16.2449 N   0  0  1  0  0  0  0  0  0  0  0  0
  -19.5945  -12.2941   12.0483 N   0  0  0  0  0  0  0  0  0  0  0  0
  -16.9528   -6.6476   12.9314 O   0  5  0  0  0  0  0  0  0  0  0  0
  -20.0398  -12.1721   13.3289 C   0  0  2  0  0  0  0  0  0  0  0  0
  -19.8197  -13.1851   14.2072 N   0  0  0  0  0  0  0  0  0  0  0  0
  -17.8305   -3.9891   13.7062 O   0  0  0  0  0  0  0  0  0  0  0  0
  -20.7019  -11.0640   13.7600 N   0  0  0  0  0  0  0  0  0  0  0  0
  -20.9569  -10.0252   12.9305 C   0  0  2  0  0  0  0  0  0  0  0  0
  -20.4985  -10.0971   11.5368 C   0  0  2  0  0  0  0  0  0  0  0  0
  -19.7799  -11.3233   11.1289 C   0  0  0  0  0  0  0  0  0  0  0  0
  -19.3169  -11.4790    9.8640 O   0  0  0  0  0  0  0  0  0  0  0  0
  -20.8699   -8.9427   10.9490 N   0  0  0  0  0  0  0  0  0  0  0  0
  -21.5181   -8.1943   11.8907 C   0  0  0  0  0  0  0  0  0  0  0  0
  -21.5647   -8.8461   13.0747 N   0  0  1  0  0  0  0  0  0  0  0  0
  1  3  1  6  0  0  0
  1  4  2  0  0  0  0
  1  6  1  0  0  0  0
  1 22  1  0  0  0  0
  2 28  1  0  0  0  0
  2 35  1  6  0  0  0
  2 38  2  0  0  0  0
  2 10  1  0  0  0  0
  5  6  1  0  0  0  0
  7  5  1  1  0  0  0
  7  8  1  0  0  0  0
  7  9  1  0  0  0  0
  9 10  1  6  0  0  0
  9 11  1  0  0  0  0
 11 12  1  1  0  0  0
 11 13  1  0  0  0  0
 13  8  1  1  0  0  0
 13 33  1  0  0  0  0
 14 46  1  0  0  0  0
 14 17  1  0  0  0  0
 14 25  1  1  0  0  0
 15 16  1  0  0  0  0
 15 29  1  0  0  0  0
 16 18  1  1  0  0  0
 16 21  1  0  0  0  0
 17 19  1  1  0  0  0
 17 20  1  0  0  0  0
 20 22  1  1  0  0  0
 20 24  1  0  0  0  0
 23 21  1  1  0  0  0
 23 26  1  0  0  0  0
 23 33  1  0  0  0  0
 24 25  1  6  0  0  0
 24 27  1  0  0  0  0
 26 29  1  6  0  0  0
 26 31  1  0  0  0  0
 27 28  1  0  0  0  0
 29 30  2  0  0  0  0
 31 32  1  0  0  0  0
 33 32  1  6  0  0  0
 34 36  1  0  0  0  0
 34 42  1  0  0  0  0
 36 37  1  6  0  0  0
 36 39  1  0  0  0  0
 40 39  1  1  0  0  0
 40 41  1  0  0  0  0
 40 46  1  0  0  0  0
 41 42  1  1  0  0  0
 41 44  1  0  0  0  0
 42 43  2  0  0  0  0
 44 45  1  0  0  0  0
 46 45  1  6  0  0  0
M  CHG  2   3  -1  35  -1
M  END
>  <CHROM.1>
-2.71768078,22.26173079,-18.61824906,-9.25137802,15.50380038,-0.49846757
-0.89580767,0.01439297

>  <Name>
ligand

>  <RI>
-1

>  <Rbt.Current_Directory>
/home/itssahil/PROJECTS/Mol_Feturizer/Test_systems_manuscript/rnas/3mum

>  <Rbt.Executable>
rbdock ($Id: //depot/dev/client3/rdock/2013.1/src/exe/rbdock.cxx#4 $)

>  <Rbt.Library>
libRbt.so (2013.1, Build901 2013/11/27)

>  <Rbt.Parameter_File>
/export/apps/rDock/src/rDock_2013.1_src/data/scripts/dock_solv.prm

>  <Rbt.Receptor>
prm/blind_docking_80.prm

>  <SCORE>
111.655

>  <SCORE.INTER>
108.063

>  <SCORE.INTER.CONST>
1

>  <SCORE.INTER.POLAR>
0

>  <SCORE.INTER.ROT>
2

>  <SCORE.INTER.SOLV>
36.9515

>  <SCORE.INTER.VDW>
54.7912

>  <SCORE.INTER.norm>
2.34919

>  <SCORE.INTRA>
2.66308

>  <SCORE.INTRA.DIHEDRAL>
-0.0288001

>  <SCORE.INTRA.DIHEDRAL.0>
2.40424

>  <SCORE.INTRA.POLAR>
0

>  <SCORE.INTRA.POLAR.0>
0

>  <SCORE.INTRA.REPUL>
0

>  <SCORE.INTRA.REPUL.0>
0

>  <SCORE.INTRA.SOLV>
7.19286

>  <SCORE.INTRA.SOLV.lig_0>
-134.169

>  <SCORE.INTRA.VDW>
-0.918952

>  <SCORE.INTRA.VDW.0>
-2.18386

>  <SCORE.INTRA.norm>
0.0578929

>  <SCORE.RESTR>
0.929272

>  <SCORE.RESTR.CAVITY>
0.929272

>  <SCORE.RESTR.norm>
0.0202016

>  <SCORE.SYSTEM>
0

>  <SCORE.SYSTEM.CONST>
0

>  <SCORE.SYSTEM.DIHEDRAL>
0

>  <SCORE.SYSTEM.SOLV>
0

>  <SCORE.SYSTEM.norm>
0

>  <SCORE.heavy>
46

>  <SCORE.norm>
2.42728

>  <RMSD>
15.997

$$$$
ligand
 OpenBabel02271912143D
libRbt.so/2013.1/901 2013/11/27
 46 52  0  0  0  0  0  0  0  0999 V2000
  -15.8678   -7.0107   16.3736 P   0  0  1  0  0  0  0  0  0  0  0  0
  -20.0585   -9.7968   19.4316 P   0  0  2  0  0  0  0  0  0  0  0  0
  -14.8947   -8.1786   15.4621 O   0  5  0  0  0  0  0  0  0  0  0  0
  -15.3739   -5.3324   16.0290 O   0  0  0  0  0  0  0  0  0  0  0  0
  -18.4537   -6.4976   16.6435 C   0  0  0  0  0  0  0  0  0  0  0  0
  -17.4176   -7.2273   15.9860 O   0  0  0  0  0  0  0  0  0  0  0  0
  -19.7657   -7.2312   16.4406 C   0  0  1  0  0  0  0  0  0  0  0  0
  -19.9702   -7.4656   15.0401 O   0  0  0  0  0  0  0  0  0  0  0  0
  -19.7926   -8.6045   17.0917 C   0  0  1  0  0  0  0  0  0  0  0  0
  -20.2963   -8.5571   18.4248 O   0  0  0  0  0  0  0  0  0  0  0  0
  -20.6962   -9.4052   16.1707 C   0  0  1  0  0  0  0  0  0  0  0  0
  -22.0590   -9.2705   16.5820 O   0  0  0  0  0  0  0  0  0  0  0  0
  -20.5368   -8.7642   14.8046 C   0  0  2  0  0  0  0  0  0  0  0  0
  -14.9342  -10.3254   19.6321 C   0  0  1  0  0  0  0  0  0  0  0  0
  -19.9340  -12.0699   10.6935 N   0  0  0  0  0  0  0  0  0  0  0  0
  -21.0753  -11.5214   11.1925 C   0  0  1  0  0  0  0  0  0  0  0  0
  -14.8952   -9.5086   18.3717 C   0  0  2  0  0  0  0  0  0  0  0  0
  -22.2485  -11.8310   10.5939 N   0  0  0  0  0  0  0  0  0  0  0  0
  -13.6648   -8.7830   18.3981 O   0  0  0  0  0  0  0  0  0  0  0  0
  -16.0991   -8.5925   18.4679 C   0  0  2  0  0  0  0  0  0  0  0  0
  -21.0822  -10.6792   12.2683 N   0  0  0  0  0  0  0  0  0  0  0  0
  -15.8163   -7.2973   17.9560 O   0  0  0  0  0  0  0  0  0  0  0  0
  -19.9323  -10.3362   12.9021 C   0  0  2  0  0  0  0  0  0  0  0  0
  -16.4075   -8.5097   19.9499 C   0  0  2  0  0  0  0  0  0  0  0  0
  -15.8217   -9.6703   20.5374 O   0  0  0  0  0  0  0  0  0  0  0  0
  -18.6679  -10.9051   12.4037 C   0  0  1  0  0  0  0  0  0  0  0  0
  -17.9035   -8.4912   20.2432 C   0  0  0  0  0  0  0  0  0  0  0  0
  -18.4871   -9.7073   19.7713 O   0  0  0  0  0  0  0  0  0  0  0  0
  -18.7247  -11.8070   11.2395 C   0  0  0  0  0  0  0  0  0  0  0  0
  -17.5920  -12.3612   10.7377 O   0  0  0  0  0  0  0  0  0  0  0  0
  -17.6927  -10.4293   13.1857 N   0  0  0  0  0  0  0  0  0  0  0  0
  -18.2767   -9.6192   14.1164 C   0  0  0  0  0  0  0  0  0  0  0  0
  -19.6151   -9.5609   13.9520 N   0  0  1  0  0  0  0  0  0  0  0  0
  -14.9783  -15.2913   21.2770 N   0  0  0  0  0  0  0  0  0  0  0  0
  -20.4427  -11.3539   18.6515 O   0  5  0  0  0  0  0  0  0  0  0  0
  -14.4065  -14.1920   21.8404 C   0  0  2  0  0  0  0  0  0  0  0  0
  -13.7316  -14.3223   23.0125 N   0  0  0  0  0  0  0  0  0  0  0  0
  -20.9675   -9.6552   20.9487 O   0  0  0  0  0  0  0  0  0  0  0  0
  -14.4895  -12.9610   21.2661 N   0  0  0  0  0  0  0  0  0  0  0  0
  -15.1537  -12.7669   20.1027 C   0  0  2  0  0  0  0  0  0  0  0  0
  -15.7895  -13.9162   19.4450 C   0  0  2  0  0  0  0  0  0  0  0  0
  -15.6601  -15.2285   20.1136 C   0  0  0  0  0  0  0  0  0  0  0  0
  -16.2114  -16.3467   19.5804 O   0  0  0  0  0  0  0  0  0  0  0  0
  -16.3610  -13.4474   18.3180 N   0  0  0  0  0  0  0  0  0  0  0  0
  -16.1138  -12.1047   18.2621 C   0  0  0  0  0  0  0  0  0  0  0  0
  -15.3890  -11.7040   19.3312 N   0  0  1  0  0  0  0  0  0  0  0  0
  1  3  1  6  0  0  0
  1  4  2  0  0  0  0
  1  6  1  0  0  0  0
  1 22  1  0  0  0  0
  2 28  1  0  0  0  0
  2 35  1  6  0  0  0
  2 38  2  0  0  0  0
  2 10  1  0  0  0  0
  5  6  1  0  0  0  0
  7  5  1  6  0  0  0
  7  8  1  0  0  0  0
  7  9  1  0  0  0  0
  9 10  1  1  0  0  0
  9 11  1  0  0  0  0
 11 12  1  1  0  0  0
 11 13  1  0  0  0  0
 13  8  1  1  0  0  0
 13 33  1  0  0  0  0
 14 46  1  0  0  0  0
 14 17  1  0  0  0  0
 14 25  1  1  0  0  0
 15 16  1  0  0  0  0
 15 29  1  0  0  0  0
 16 18  1  1  0  0  0
 16 21  1  0  0  0  0
 17 19  1  1  0  0  0
 17 20  1  0  0  0  0
 20 22  1  1  0  0  0
 20 24  1  0  0  0  0
 23 21  1  1  0  0  0
 23 26  1  0  0  0  0
 23 33  1  0  0  0  0
 24 25  1  1  0  0  0
 24 27  1  0  0  0  0
 26 29  1  6  0  0  0
 26 31  1  0  0  0  0
 27 28  1  0  0  0  0
 29 30  2  0  0  0  0
 31 32  1  0  0  0  0
 33 32  1  6  0  0  0
 34 36  1  0  0  0  0
 34 42  1  0  0  0  0
 36 37  1  1  0  0  0
 36 39  1  0  0  0  0
 40 39  1  6  0  0  0
 40 41  1  0  0  0  0
 40 46  1  0  0  0  0
 41 42  1  6  0  0  0
 41 44  1  0  0  0  0
 42 43  2  0  0  0  0
 44 45  1  0  0  0  0
 46 45  1  1  0  0  0
M  CHG  2   3  -1  35  -1
M  END
>  <CHROM.1>
-136.27845397,158.43724520,-17.71463695,-10.22630448,17.10631379,-3.02987311
1.06169128,-2.95101839

>  <Name>
ligand

>  <RI>
0

>  <Rbt.Current_Directory>
/home/itssahil/PROJECTS/Mol_Feturizer/Test_systems_manuscript/rnas/3mum

>  <Rbt.Executable>
rbdock ($Id: //depot/dev/client3/rdock/2013.1/src/exe/rbdock.cxx#4 $)

>  <Rbt.Library>
libRbt.so (2013.1, Build901 2013/11/27)

>  <Rbt.Parameter_File>
/export/apps/rDock/src/rDock_2013.1_src/data/scripts/dock_solv.prm

>  <Rbt.Receptor>
prm/blind_docking_60.prm

>  <SCORE>
4.21762

>  <SCORE.INTER>
1.01871

>  <SCORE.INTER.CONST>
1

>  <SCORE.INTER.POLAR>
0

>  <SCORE.INTER.ROT>
2

>  <SCORE.INTER.SOLV>
37.4568

>  <SCORE.INTER.VDW>
-16.7398

>  <SCORE.INTER.norm>
0.0221459

>  <SCORE.INTRA>
0.0881481

>  <SCORE.INTRA.DIHEDRAL>
-0.0267017

>  <SCORE.INTRA.DIHEDRAL.0>
2.40424

>  <SCORE.INTRA.POLAR>
0

>  <SCORE.INTRA.POLAR.0>
0

>  <SCORE.INTRA.REPUL>
0

>  <SCORE.INTRA.REPUL.0>
0

>  <SCORE.INTRA.SOLV>
0.0542495

>  <SCORE.INTRA.SOLV.lig_0>
-134.169

>  <SCORE.INTRA.VDW>
0.0743742

>  <SCORE.INTRA.VDW.0>
-2.18386

>  <SCORE.INTRA.norm>
0.00191626

>  <SCORE.RESTR>
3.11076

>  <SCORE.RESTR.CAVITY>
3.11076

>  <SCORE.RESTR.norm>
0.0676252

>  <SCORE.SYSTEM>
0

>  <SCORE.SYSTEM.CONST>
0

>  <SCORE.SYSTEM.DIHEDRAL>
0

>  <SCORE.SYSTEM.SOLV>
0

>  <SCORE.SYSTEM.norm>
0

>  <SCORE.heavy>
46

>  <SCORE.norm>
0.0916873

>  <RMSD>
16.001

$$$$
ligand
 OpenBabel02271912143D
libRbt.so/2013.1/901 2013/11/27
 46 52  0  0  0  0  0  0  0  0999 V2000
  -19.6700   -9.7602   20.0285 P   0  0  1  0  0  0  0  0  0  0  0  0
  -15.6466   -7.4549   16.3988 P   0  0  2  0  0  0  0  0  0  0  0  0
  -20.0984  -11.3993   19.5075 O   0  5  0  0  0  0  0  0  0  0  0  0
  -20.4921   -9.3169   21.5474 O   0  0  0  0  0  0  0  0  0  0  0  0
  -17.4173   -8.4584   20.5329 C   0  0  0  0  0  0  0  0  0  0  0  0
  -18.0705   -9.6882   20.2179 O   0  0  0  0  0  0  0  0  0  0  0  0
  -15.9492   -8.5845   20.1732 C   0  0  1  0  0  0  0  0  0  0  0  0
  -15.4019   -9.7519   20.8023 O   0  0  0  0  0  0  0  0  0  0  0  0
  -15.7100   -8.7742   18.6841 C   0  0  1  0  0  0  0  0  0  0  0  0
  -15.5271   -7.5328   18.0070 O   0  0  0  0  0  0  0  0  0  0  0  0
  -14.4592   -9.6342   18.6425 C   0  0  1  0  0  0  0  0  0  0  0  0
  -13.2940   -8.8054   18.6438 O   0  0  0  0  0  0  0  0  0  0  0  0
  -14.4861  -10.4343   19.9315 C   0  0  2  0  0  0  0  0  0  0  0  0
  -20.3897   -9.1975   15.3764 C   0  0  1  0  0  0  0  0  0  0  0  0
  -14.0150  -15.6234   20.9532 N   0  0  0  0  0  0  0  0  0  0  0  0
  -13.2871  -14.5834   21.4440 C   0  0  1  0  0  0  0  0  0  0  0  0
  -20.3700   -9.7842   16.7593 C   0  0  2  0  0  0  0  0  0  0  0  0
  -12.2905  -14.8561   22.3175 N   0  0  0  0  0  0  0  0  0  0  0  0
  -21.7220   -9.7764   17.2211 O   0  0  0  0  0  0  0  0  0  0  0  0
  -19.4881   -8.8493   17.5630 C   0  0  2  0  0  0  0  0  0  0  0  0
  -13.5201  -13.2849   21.0888 N   0  0  0  0  0  0  0  0  0  0  0  0
  -19.9780   -8.6710   18.8849 O   0  0  0  0  0  0  0  0  0  0  0  0
  -14.5088  -12.9590   20.2182 C   0  0  2  0  0  0  0  0  0  0  0  0
  -19.5298   -7.5333   16.8114 C   0  0  2  0  0  0  0  0  0  0  0  0
  -19.9098   -7.8572   15.4750 O   0  0  0  0  0  0  0  0  0  0  0  0
  -15.3251  -14.0482   19.6545 C   0  0  1  0  0  0  0  0  0  0  0  0
  -18.1844   -6.8163   16.7979 C   0  0  0  0  0  0  0  0  0  0  0  0
  -17.2239   -7.6378   16.1311 O   0  0  0  0  0  0  0  0  0  0  0  0
  -15.0260  -15.4283   20.0761 C   0  0  0  0  0  0  0  0  0  0  0  0
  -15.7444  -16.4717   19.5889 O   0  0  0  0  0  0  0  0  0  0  0  0
  -16.2143  -13.4816   18.8315 N   0  0  0  0  0  0  0  0  0  0  0  0
  -15.9920  -12.1350   18.8578 C   0  0  0  0  0  0  0  0  0  0  0  0
  -14.9732  -11.8174   19.6842 N   0  0  1  0  0  0  0  0  0  0  0  0
  -20.1001  -11.4896   10.6827 N   0  0  0  0  0  0  0  0  0  0  0  0
  -14.7224   -8.7616   15.6117 O   0  5  0  0  0  0  0  0  0  0  0  0
  -21.1163  -10.7785   11.2438 C   0  0  2  0  0  0  0  0  0  0  0  0
  -22.2608  -10.5865   10.5372 N   0  0  0  0  0  0  0  0  0  0  0  0
  -15.1440   -5.8899   15.7308 O   0  0  0  0  0  0  0  0  0  0  0  0
  -21.0227  -10.2507   12.4947 N   0  0  0  0  0  0  0  0  0  0  0  0
  -19.9061  -10.4025   13.2445 C   0  0  2  0  0  0  0  0  0  0  0  0
  -18.7762  -11.1628   12.6941 C   0  0  2  0  0  0  0  0  0  0  0  0
  -18.9392  -11.7168   11.3330 C   0  0  0  0  0  0  0  0  0  0  0  0
  -17.9517  -12.4346   10.7431 O   0  0  0  0  0  0  0  0  0  0  0  0
  -17.8169  -11.1669   13.6408 N   0  0  0  0  0  0  0  0  0  0  0  0
  -18.2940  -10.4615   14.7094 C   0  0  0  0  0  0  0  0  0  0  0  0
  -19.5452  -10.0090   14.4674 N   0  0  1  0  0  0  0  0  0  0  0  0
  1  3  1  6  0  0  0
  1  4  2  0  0  0  0
  1  6  1  0  0  0  0
  1 22  1  0  0  0  0
  2 28  1  0  0  0  0
  2 35  1  6  0  0  0
  2 38  2  0  0  0  0
  2 10  1  0  0  0  0
  5  6  1  0  0  0  0
  7  5  1  6  0  0  0
  7  8  1  0  0  0  0
  7  9  1  0  0  0  0
  9 10  1  6  0  0  0
  9 11  1  0  0  0  0
 11 12  1  1  0  0  0
 11 13  1  0  0  0  0
 13  8  1  1  0  0  0
 13 33  1  0  0  0  0
 14 46  1  0  0  0  0
 14 17  1  0  0  0  0
 14 25  1  1  0  0  0
 15 16  1  0  0  0  0
 15 29  1  0  0  0  0
 16 18  1  6  0  0  0
 16 21  1  0  0  0  0
 17 19  1  1  0  0  0
 17 20  1  0  0  0  0
 20 22  1  1  0  0  0
 20 24  1  0  0  0  0
 23 21  1  6  0  0  0
 23 26  1  0  0  0  0
 23 33  1  0  0  0  0
 24 25  1  6  0  0  0
 24 27  1  0  0  0  0
 26 29  1  1  0  0  0
 26 31  1  0  0  0  0
 27 28  1  0  0  0  0
 29 30  2  0  0  0  0
 31 32  1  0  0  0  0
 33 32  1  1  0  0  0
 34 36  1  0  0  0  0
 34 42  1  0  0  0  0
 36 37  1  6  0  0  0
 36 39  1  0  0  0  0
 40 39  1  1  0  0  0
 40 41  1  0  0  0  0
 40 46  1  0  0  0  0
 41 42  1  1  0  0  0
 41 44  1  0  0  0  0
 42 43  2  0  0  0  0
 44 45  1  0  0  0  0
 46 45  1  6  0  0  0
M  CHG  2   3  -1  35  -1
M  END
>  <CHROM.1>
-103.90367017,134.01536902,-17.40610477,-10.38031240,17.34564622,0.20700301
-0.97877297,0.59730880

>  <Name>
ligand

>  <RI>
-1

>  <Rbt.Current_Directory>
/home/itssahil/PROJECTS/Mol_Feturizer/Test_systems_manuscript/rnas/3mum

>  <Rbt.Executable>
rbdock ($Id: //depot/dev/client3/rdock/2013.1/src/exe/rbdock.cxx#4 $)

>  <Rbt.Library>
libRbt.so (2013.1, Build901 2013/11/27)

>  <Rbt.Parameter_File>
/export/apps/rDock/src/rDock_2013.1_src/data/scripts/dock_solv.prm

>  <Rbt.Receptor>
prm/blind_docking_40.prm

>  <SCORE>
2.13555

>  <SCORE.INTER>
-0.999177

>  <SCORE.INTER.CONST>
1

>  <SCORE.INTER.POLAR>
0

>  <SCORE.INTER.ROT>
2

>  <SCORE.INTER.SOLV>
33.932

>  <SCORE.INTER.VDW>
-16.9101

>  <SCORE.INTER.norm>
-0.0217212

>  <SCORE.INTRA>
-0.00144295

>  <SCORE.INTRA.DIHEDRAL>
-0.0249218

>  <SCORE.INTRA.DIHEDRAL.0>
2.40424

>  <SCORE.INTRA.POLAR>
0

>  <SCORE.INTRA.POLAR.0>
0

>  <SCORE.INTRA.REPUL>
0

>  <SCORE.INTRA.REPUL.0>
0

>  <SCORE.INTRA.SOLV>
-0.0130216

>  <SCORE.INTRA.SOLV.lig_0>
-134.169

>  <SCORE.INTRA.VDW>
0.0175288

>  <SCORE.INTRA.VDW.0>
-2.18386

>  <SCORE.INTRA.norm>
-3.13685e-05

>  <SCORE.RESTR>
3.13617

>  <SCORE.RESTR.CAVITY>
3.13617

>  <SCORE.RESTR.norm>
0.0681775

>  <SCORE.SYSTEM>
0

>  <SCORE.SYSTEM.CONST>
0

>  <SCORE.SYSTEM.DIHEDRAL>
0

>  <SCORE.SYSTEM.SOLV>
0

>  <SCORE.SYSTEM.norm>
0

>  <SCORE.heavy>
46

>  <SCORE.norm>
0.0464249

>  <RMSD>
16.003

$$$$
ligand
 OpenBabel02271912143D
libRbt.so/2013.1/901 2013/11/27
 46 52  0  0  0  0  0  0  0  0999 V2000
  -15.8379   -7.0124   16.4954 P   0  0  1  0  0  0  0  0  0  0  0  0
  -20.0815   -9.9131   19.3682 P   0  0  2  0  0  0  0  0  0  0  0  0
  -14.8561   -8.1430   15.5471 O   0  5  0  0  0  0  0  0  0  0  0  0
  -15.3333   -5.3226   16.2323 O   0  0  0  0  0  0  0  0  0  0  0  0
  -18.4256   -6.5010   16.7513 C   0  0  0  0  0  0  0  0  0  0  0  0
  -17.3828   -7.2053   16.0769 O   0  0  0  0  0  0  0  0  0  0  0  0
  -19.7371   -7.2195   16.4978 C   0  0  1  0  0  0  0  0  0  0  0  0
  -19.9225   -7.3911   15.0856 O   0  0  0  0  0  0  0  0  0  0  0  0
  -19.7781   -8.6199   17.0872 C   0  0  1  0  0  0  0  0  0  0  0  0
  -20.3006   -8.6293   18.4139 O   0  0  0  0  0  0  0  0  0  0  0  0
  -20.6714   -9.3756   16.1191 C   0  0  1  0  0  0  0  0  0  0  0  0
  -22.0394   -9.2535   16.5168 O   0  0  0  0  0  0  0  0  0  0  0  0
  -20.4903   -8.6756   14.7851 C   0  0  2  0  0  0  0  0  0  0  0  0
  -14.9625  -10.4713   19.6173 C   0  0  1  0  0  0  0  0  0  0  0  0
  -19.8369  -12.4758   11.1348 N   0  0  0  0  0  0  0  0  0  0  0  0
  -20.9824  -12.0510   11.7347 C   0  0  1  0  0  0  0  0  0  0  0  0
  -14.9027   -9.6000   18.3949 C   0  0  2  0  0  0  0  0  0  0  0  0
  -22.1455  -12.6494   11.3888 N   0  0  0  0  0  0  0  0  0  0  0  0
  -13.6702   -8.8813   18.4706 O   0  0  0  0  0  0  0  0  0  0  0  0
  -16.1045   -8.6840   18.5144 C   0  0  2  0  0  0  0  0  0  0  0  0
  -21.0023  -11.0534   12.6681 N   0  0  0  0  0  0  0  0  0  0  0  0
  -15.8100   -7.3687   18.0642 O   0  0  0  0  0  0  0  0  0  0  0  0
  -19.8634  -10.4206   13.0476 C   0  0  2  0  0  0  0  0  0  0  0  0
  -16.4337   -8.6653   19.9942 C   0  0  2  0  0  0  0  0  0  0  0  0
  -15.8604   -9.8531   20.5381 O   0  0  0  0  0  0  0  0  0  0  0  0
  -18.5945  -10.8443   12.4307 C   0  0  1  0  0  0  0  0  0  0  0  0
  -17.9337   -8.6536   20.2669 C   0  0  0  0  0  0  0  0  0  0  0  0
  -18.5148   -9.8452   19.7337 O   0  0  0  0  0  0  0  0  0  0  0  0
  -18.6371  -11.9255   11.4300 C   0  0  0  0  0  0  0  0  0  0  0  0
  -17.4993  -12.3578   10.8295 O   0  0  0  0  0  0  0  0  0  0  0  0
  -17.6303  -10.0870   12.9653 N   0  0  0  0  0  0  0  0  0  0  0  0
  -18.2250   -9.2419   13.8574 C   0  0  0  0  0  0  0  0  0  0  0  0
  -19.5593   -9.4378   13.9112 N   0  0  1  0  0  0  0  0  0  0  0  0
  -17.9917  -13.2659   16.3952 N   0  0  0  0  0  0  0  0  0  0  0  0
  -20.4601  -11.4328   18.5149 O   0  5  0  0  0  0  0  0  0  0  0  0
  -17.8095  -11.9190   16.4701 C   0  0  2  0  0  0  0  0  0  0  0  0
  -18.4768  -11.1102   15.6061 N   0  0  0  0  0  0  0  0  0  0  0  0
  -21.0115   -9.8348   20.8772 O   0  0  0  0  0  0  0  0  0  0  0  0
  -16.9764  -11.3535   17.3857 N   0  0  0  0  0  0  0  0  0  0  0  0
  -16.2795  -12.1071   18.2681 C   0  0  2  0  0  0  0  0  0  0  0  0
  -16.4367  -13.5673   18.2382 C   0  0  2  0  0  0  0  0  0  0  0  0
  -17.3598  -14.1225   17.2254 C   0  0  0  0  0  0  0  0  0  0  0  0
  -17.5712  -15.4580   17.1238 O   0  0  0  0  0  0  0  0  0  0  0  0
  -15.6498  -14.0596   19.2153 N   0  0  0  0  0  0  0  0  0  0  0  0
  -15.0351  -12.9989   19.8187 C   0  0  0  0  0  0  0  0  0  0  0  0
  -15.4178  -11.8334   19.2494 N   0  0  1  0  0  0  0  0  0  0  0  0
  1  3  1  6  0  0  0
  1  4  2  0  0  0  0
  1  6  1  0  0  0  0
  1 22  1  0  0  0  0
  2 28  1  0  0  0  0
  2 35  1  6  0  0  0
  2 38  2  0  0  0  0
  2 10  1  0  0  0  0
  5  6  1  0  0  0  0
  7  5  1  6  0  0  0
  7  8  1  0  0  0  0
  7  9  1  0  0  0  0
  9 10  1  1  0  0  0
  9 11  1  0  0  0  0
 11 12  1  1  0  0  0
 11 13  1  0  0  0  0
 13  8  1  1  0  0  0
 13 33  1  0  0  0  0
 14 46  1  0  0  0  0
 14 17  1  0  0  0  0
 14 25  1  1  0  0  0
 15 16  1  0  0  0  0
 15 29  1  0  0  0  0
 16 18  1  1  0  0  0
 16 21  1  0  0  0  0
 17 19  1  1  0  0  0
 17 20  1  0  0  0  0
 20 22  1  1  0  0  0
 20 24  1  0  0  0  0
 23 21  1  1  0  0  0
 23 26  1  0  0  0  0
 23 33  1  0  0  0  0
 24 25  1  1  0  0  0
 24 27  1  0  0  0  0
 26 29  1  6  0  0  0
 26 31  1  0  0  0  0
 27 28  1  0  0  0  0
 29 30  2  0  0  0  0
 31 32  1  0  0  0  0
 33 32  1  6  0  0  0
 34 36  1  0  0  0  0
 34 42  1  0  0  0  0
 36 37  1  6  0  0  0
 36 39  1  0  0  0  0
 40 39  1  1  0  0  0
 40 41  1  0  0  0  0
 40 46  1  0  0  0  0
 41 42  1  1  0  0  0
 41 44  1  0  0  0  0
 42 43  2  0  0  0  0
 44 45  1  0  0  0  0
 46 45  1  6  0  0  0
M  CHG  2   3  -1  35  -1
M  END
>  <CHROM.1>
-154.67555797,-32.80459668,-18.02742630,-10.07751079,16.61445940,0.23892428
-1.07433203,0.02244452

>  <Name>
ligand

>  <RI>
0

>  <Rbt.Current_Directory>
/home/itssahil/PROJECTS/Mol_Feturizer/Test_systems_manuscript/rnas/3mum

>  <Rbt.Executable>
rbdock ($Id: //depot/dev/client3/rdock/2013.1/src/exe/rbdock.cxx#4 $)

>  <Rbt.Library>
libRbt.so (2013.1, Build901 2013/11/27)

>  <Rbt.Parameter_File>
/export/apps/rDock/src/rDock_2013.1_src/data/scripts/dock_solv.prm

>  <Rbt.Receptor>
prm/blind_docking_60.prm

>  <SCORE>
1.80687

>  <SCORE.INTER>
-2.59918

>  <SCORE.INTER.CONST>
1

>  <SCORE.INTER.POLAR>
0

>  <SCORE.INTER.ROT>
2

>  <SCORE.INTER.SOLV>
38.8076

>  <SCORE.INTER.VDW>
-19.602

>  <SCORE.INTER.norm>
-0.0565039

>  <SCORE.INTRA>
4.3927

>  <SCORE.INTRA.DIHEDRAL>
0.026439

>  <SCORE.INTRA.DIHEDRAL.0>
2.40424

>  <SCORE.INTRA.POLAR>
0

>  <SCORE.INTRA.POLAR.0>
0

>  <SCORE.INTRA.REPUL>
0

>  <SCORE.INTRA.REPUL.0>
0

>  <SCORE.INTRA.SOLV>
11.8965

>  <SCORE.INTRA.SOLV.lig_0>
-134.169

>  <SCORE.INTRA.VDW>
-1.56876

>  <SCORE.INTRA.VDW.0>
-2.18386

>  <SCORE.INTRA.norm>
0.0954934

>  <SCORE.RESTR>
0.0133544

>  <SCORE.RESTR.CAVITY>
0.0133544

>  <SCORE.RESTR.norm>
0.000290313

>  <SCORE.SYSTEM>
0

>  <SCORE.SYSTEM.CONST>
0

>  <SCORE.SYSTEM.DIHEDRAL>
0

>  <SCORE.SYSTEM.SOLV>
0

>  <SCORE.SYSTEM.norm>
0

>  <SCORE.heavy>
46

>  <SCORE.norm>
0.0392798

>  <RMSD>
16.009

$$$$
ligand
 OpenBabel02271912143D
libRbt.so/2013.1/901 2013/11/27
 46 52  0  0  0  0  0  0  0  0999 V2000
  -21.0287   -8.3481   16.9888 P   0  0  1  0  0  0  0  0  0  0  0  0
  -17.7544  -13.0856   15.7592 P   0  0  2  0  0  0  0  0  0  0  0  0
  -20.0884   -7.1819   17.9362 O   0  5  0  0  0  0  0  0  0  0  0  0
  -22.6489   -7.7185   16.5914 O   0  0  0  0  0  0  0  0  0  0  0  0
  -20.6743   -9.6750   14.7223 C   0  0  0  0  0  0  0  0  0  0  0  0
  -20.2131   -8.6823   15.6388 O   0  0  0  0  0  0  0  0  0  0  0  0
  -19.5108  -10.1054   13.8495 C   0  0  1  0  0  0  0  0  0  0  0  0
  -18.9077   -8.9485   13.2530 O   0  0  0  0  0  0  0  0  0  0  0  0
  -18.3983  -10.7899   14.6268 C   0  0  1  0  0  0  0  0  0  0  0  0
  -18.5736  -12.2038   14.6830 O   0  0  0  0  0  0  0  0  0  0  0  0
  -17.1493  -10.4021   13.8550 C   0  0  1  0  0  0  0  0  0  0  0  0
  -16.9003  -11.3520   12.8158 O   0  0  0  0  0  0  0  0  0  0  0  0
  -17.4765   -9.0635   13.2196 C   0  0  2  0  0  0  0  0  0  0  0  0
  -19.0694  -11.0870   20.3259 C   0  0  1  0  0  0  0  0  0  0  0  0
  -17.6767   -3.9608   14.6742 N   0  0  0  0  0  0  0  0  0  0  0  0
  -18.5196   -4.6544   13.8612 C   0  0  1  0  0  0  0  0  0  0  0  0
  -19.5397   -9.8843   19.5581 C   0  0  2  0  0  0  0  0  0  0  0  0
  -19.5717   -3.9974   13.3207 N   0  0  0  0  0  0  0  0  0  0  0  0
  -20.6277   -9.3309   20.3003 O   0  0  0  0  0  0  0  0  0  0  0  0
  -19.9855  -10.4326   18.2170 C   0  0  2  0  0  0  0  0  0  0  0  0
  -18.3438   -5.9775   13.5696 N   0  0  0  0  0  0  0  0  0  0  0  0
  -21.1461   -9.7679   17.7367 O   0  0  0  0  0  0  0  0  0  0  0  0
  -17.3059   -6.6815   14.0879 C   0  0  2  0  0  0  0  0  0  0  0  0
  -20.2938  -11.8940   18.4772 C   0  0  2  0  0  0  0  0  0  0  0  0
  -19.5700  -12.2432   19.6559 O   0  0  0  0  0  0  0  0  0  0  0  0
  -16.3613   -5.9771   14.9723 C   0  0  1  0  0  0  0  0  0  0  0  0
  -19.8663  -12.8026   17.3299 C   0  0  0  0  0  0  0  0  0  0  0  0
  -18.4505  -12.7071   17.1610 O   0  0  0  0  0  0  0  0  0  0  0  0
  -16.6040   -4.5502   15.2498 C   0  0  0  0  0  0  0  0  0  0  0  0
  -15.7665   -3.8501   16.0564 O   0  0  0  0  0  0  0  0  0  0  0  0
  -15.4372   -6.8698   15.3438 N   0  0  0  0  0  0  0  0  0  0  0  0
  -15.7553   -8.0561   14.7479 C   0  0  0  0  0  0  0  0  0  0  0  0
  -16.8706   -7.9489   13.9954 N   0  0  1  0  0  0  0  0  0  0  0  0
  -14.8845   -9.6888   23.1366 N   0  0  0  0  0  0  0  0  0  0  0  0
  -16.0255  -12.6483   15.7806 O   0  5  0  0  0  0  0  0  0  0  0  0
  -16.2076   -9.4879   23.3852 C   0  0  2  0  0  0  0  0  0  0  0  0
  -16.5783   -8.8378   24.5192 N   0  0  0  0  0  0  0  0  0  0  0  0
  -17.9190  -14.8341   15.5074 O   0  0  0  0  0  0  0  0  0  0  0  0
  -17.1759   -9.9196   22.5317 N   0  0  0  0  0  0  0  0  0  0  0  0
  -16.8694  -10.5788   21.3899 C   0  0  2  0  0  0  0  0  0  0  0  0
  -15.4578  -10.8232   21.0653 C   0  0  2  0  0  0  0  0  0  0  0  0
  -14.4517  -10.3257   22.0278 C   0  0  0  0  0  0  0  0  0  0  0  0
  -13.1247  -10.5021   21.8119 O   0  0  0  0  0  0  0  0  0  0  0  0
  -15.4411  -11.4773   19.8870 N   0  0  0  0  0  0  0  0  0  0  0  0
  -16.7388  -11.6417   19.4922 C   0  0  0  0  0  0  0  0  0  0  0  0
  -17.5885  -11.0999   20.3941 N   0  0  1  0  0  0  0  0  0  0  0  0
  1  3  1  1  0  0  0
  1  4  2  0  0  0  0
  1  6  1  0  0  0  0
  1 22  1  0  0  0  0
  2 28  1  0  0  0  0
  2 35  1  1  0  0  0
  2 38  2  0  0  0  0
  2 10  1  0  0  0  0
  5  6  1  0  0  0  0
  7  5  1  1  0  0  0
  7  8  1  0  0  0  0
  7  9  1  0  0  0  0
  9 10  1  6  0  0  0
  9 11  1  0  0  0  0
 11 12  1  6  0  0  0
 11 13  1  0  0  0  0
 13  8  1  1  0  0  0
 13 33  1  0  0  0  0
 14 46  1  0  0  0  0
 14 17  1  0  0  0  0
 14 25  1  6  0  0  0
 15 16  1  0  0  0  0
 15 29  1  0  0  0  0
 16 18  1  6  0  0  0
 16 21  1  0  0  0  0
 17 19  1  1  0  0  0
 17 20  1  0  0  0  0
 20 22  1  1  0  0  0
 20 24  1  0  0  0  0
 23 21  1  6  0  0  0
 23 26  1  0  0  0  0
 23 33  1  0  0  0  0
 24 25  1  1  0  0  0
 24 27  1  0  0  0  0
 26 29  1  1  0  0  0
 26 31  1  0  0  0  0
 27 28  1  0  0  0  0
 29 30  2  0  0  0  0
 31 32  1  0  0  0  0
 33 32  1  1  0  0  0
 34 36  1  0  0  0  0
 34 42  1  0  0  0  0
 36 37  1  1  0  0  0
 36 39  1  0  0  0  0
 40 39  1  6  0  0  0
 40 41  1  0  0  0  0
 40 46  1  0  0  0  0
 41 42  1  6  0  0  0
 41 44  1  0  0  0  0
 42 43  2  0  0  0  0
 44 45  1  0  0  0  0
 46 45  1  1  0  0  0
M  CHG  2   3  -1  35  -1
M  END
>  <CHROM.1>
-35.93295152,93.12980074,-18.05734325,-9.51085929,17.17265192,-2.15894715
1.20481463,2.60654490

>  <Name>
ligand

>  <RI>
0

>  <Rbt.Current_Directory>
/home/itssahil/PROJECTS/Mol_Feturizer/Test_systems_manuscript/rnas/3mum

>  <Rbt.Executable>
rbdock ($Id: //depot/dev/client3/rdock/2013.1/src/exe/rbdock.cxx#4 $)

>  <Rbt.Library>
libRbt.so (2013.1, Build901 2013/11/27)

>  <Rbt.Parameter_File>
/export/apps/rDock/src/rDock_2013.1_src/data/scripts/dock_solv.prm

>  <Rbt.Receptor>
prm/blind_docking_60.prm

>  <SCORE>
62.9711

>  <SCORE.INTER>
62.9768

>  <SCORE.INTER.CONST>
1

>  <SCORE.INTER.POLAR>
0

>  <SCORE.INTER.ROT>
2

>  <SCORE.INTER.SOLV>
42.5322

>  <SCORE.INTER.VDW>
22.8738

>  <SCORE.INTER.norm>
1.36906

>  <SCORE.INTRA>
-0.00564596

>  <SCORE.INTRA.DIHEDRAL>
0.0264967

>  <SCORE.INTRA.DIHEDRAL.0>
2.40424

>  <SCORE.INTRA.POLAR>
0

>  <SCORE.INTRA.POLAR.0>
0

>  <SCORE.INTRA.REPUL>
0

>  <SCORE.INTRA.REPUL.0>
0

>  <SCORE.INTRA.SOLV>
0.109819

>  <SCORE.INTRA.SOLV.lig_0>
-134.169

>  <SCORE.INTRA.VDW>
-0.0738037

>  <SCORE.INTRA.VDW.0>
-2.18386

>  <SCORE.INTRA.norm>
-0.000122738

>  <SCORE.RESTR>
0

>  <SCORE.RESTR.CAVITY>
0

>  <SCORE.RESTR.norm>
0

>  <SCORE.SYSTEM>
0

>  <SCORE.SYSTEM.CONST>
0

>  <SCORE.SYSTEM.DIHEDRAL>
0

>  <SCORE.SYSTEM.SOLV>
0

>  <SCORE.SYSTEM.norm>
0

>  <SCORE.heavy>
46

>  <SCORE.norm>
1.36894

>  <RMSD>
16.009

$$$$
ligand
 OpenBabel02271912143D
libRbt.so/2013.1/901 2013/11/27
 46 52  0  0  0  0  0  0  0  0999 V2000
  -15.8274   -7.0293   16.4561 P   0  0  1  0  0  0  0  0  0  0  0  0
  -20.0573   -9.8851   19.3936 P   0  0  2  0  0  0  0  0  0  0  0  0
  -14.8511   -8.1744   15.5194 O   0  5  0  0  0  0  0  0  0  0  0  0
  -15.3234   -5.3438   16.1655 O   0  0  0  0  0  0  0  0  0  0  0  0
  -18.4135   -6.5128   16.7180 C   0  0  0  0  0  0  0  0  0  0  0  0
  -17.3746   -7.2275   16.0486 O   0  0  0  0  0  0  0  0  0  0  0  0
  -19.7267   -7.2342   16.4819 C   0  0  1  0  0  0  0  0  0  0  0  0
  -19.9195   -7.4265   15.0735 O   0  0  0  0  0  0  0  0  0  0  0  0
  -19.7653   -8.6258   17.0922 C   0  0  1  0  0  0  0  0  0  0  0  0
  -20.2807   -8.6154   18.4216 O   0  0  0  0  0  0  0  0  0  0  0  0
  -20.6639   -9.3952   16.1400 C   0  0  1  0  0  0  0  0  0  0  0  0
  -22.0297   -9.2665   16.5430 O   0  0  0  0  0  0  0  0  0  0  0  0
  -20.4895   -8.7150   14.7948 C   0  0  2  0  0  0  0  0  0  0  0  0
  -14.9373  -10.4424   19.6240 C   0  0  1  0  0  0  0  0  0  0  0  0
  -19.8736  -12.4685   11.0901 N   0  0  0  0  0  0  0  0  0  0  0  0
  -21.0183  -12.0186   11.6729 C   0  0  1  0  0  0  0  0  0  0  0  0
  -14.8835   -9.5892   18.3886 C   0  0  2  0  0  0  0  0  0  0  0  0
  -22.1916  -12.5739   11.2909 N   0  0  0  0  0  0  0  0  0  0  0  0
  -13.6503   -8.8702   18.4472 O   0  0  0  0  0  0  0  0  0  0  0  0
  -16.0843   -8.6709   18.5009 C   0  0  2  0  0  0  0  0  0  0  0  0
  -21.0280  -11.0376   12.6238 N   0  0  0  0  0  0  0  0  0  0  0  0
  -15.7915   -7.3625   18.0299 O   0  0  0  0  0  0  0  0  0  0  0  0
  -19.8787  -10.4478   13.0395 C   0  0  2  0  0  0  0  0  0  0  0  0
  -16.4057   -8.6302   19.9819 C   0  0  2  0  0  0  0  0  0  0  0  0
  -15.8301   -9.8101   20.5403 O   0  0  0  0  0  0  0  0  0  0  0  0
  -18.6102  -10.9002   12.4425 C   0  0  1  0  0  0  0  0  0  0  0  0
  -17.9042   -8.6136   20.2623 C   0  0  0  0  0  0  0  0  0  0  0  0
  -18.4887   -9.8127   19.7497 O   0  0  0  0  0  0  0  0  0  0  0  0
  -18.6641  -11.9616   11.4214 C   0  0  0  0  0  0  0  0  0  0  0  0
  -17.5272  -12.4187   10.8378 O   0  0  0  0  0  0  0  0  0  0  0  0
  -17.6351  -10.1832   13.0117 N   0  0  0  0  0  0  0  0  0  0  0  0
  -18.2229   -9.3358   13.9061 C   0  0  0  0  0  0  0  0  0  0  0  0
  -19.5635   -9.4905   13.9274 N   0  0  1  0  0  0  0  0  0  0  0  0
  -18.0572  -13.2744   16.5234 N   0  0  0  0  0  0  0  0  0  0  0  0
  -20.4410  -11.4170   18.5647 O   0  5  0  0  0  0  0  0  0  0  0  0
  -17.8824  -11.9259   16.5857 C   0  0  2  0  0  0  0  0  0  0  0  0
  -18.5857  -11.1261   15.7420 N   0  0  0  0  0  0  0  0  0  0  0  0
  -20.9793   -9.7841   20.9061 O   0  0  0  0  0  0  0  0  0  0  0  0
  -17.0219  -11.3499   17.4688 N   0  0  0  0  0  0  0  0  0  0  0  0
  -16.2888  -12.0942   18.3296 C   0  0  2  0  0  0  0  0  0  0  0  0
  -16.4362  -13.5555   18.3119 C   0  0  2  0  0  0  0  0  0  0  0  0
  -17.3902  -14.1223   17.3348 C   0  0  0  0  0  0  0  0  0  0  0  0
  -17.5951  -15.4598   17.2467 O   0  0  0  0  0  0  0  0  0  0  0  0
  -15.6117  -14.0374   19.2629 N   0  0  0  0  0  0  0  0  0  0  0  0
  -14.9841  -12.9694   19.8394 C   0  0  0  0  0  0  0  0  0  0  0  0
  -15.3952  -11.8095   19.2787 N   0  0  1  0  0  0  0  0  0  0  0  0
  1  3  1  6  0  0  0
  1  4  2  0  0  0  0
  1  6  1  0  0  0  0
  1 22  1  0  0  0  0
  2 28  1  0  0  0  0
  2 35  1  6  0  0  0
  2 38  2  0  0  0  0
  2 10  1  0  0  0  0
  5  6  1  0  0  0  0
  7  5  1  6  0  0  0
  7  8  1  0  0  0  0
  7  9  1  0  0  0  0
  9 10  1  1  0  0  0
  9 11  1  0  0  0  0
 11 12  1  1  0  0  0
 11 13  1  0  0  0  0
 13  8  1  1  0  0  0
 13 33  1  0  0  0  0
 14 46  1  0  0  0  0
 14 17  1  0  0  0  0
 14 25  1  1  0  0  0
 15 16  1  0  0  0  0
 15 29  1  0  0  0  0
 16 18  1  1  0  0  0
 16 21  1  0  0  0  0
 17 19  1  1  0  0  0
 17 20  1  0  0  0  0
 20 22  1  1  0  0  0
 20 24  1  0  0  0  0
 23 21  1  1  0  0  0
 23 26  1  0  0  0  0
 23 33  1  0  0  0  0
 24 25  1  1  0  0  0
 24 27  1  0  0  0  0
 26 29  1  6  0  0  0
 26 31  1  0  0  0  0
 27 28  1  0  0  0  0
 29 30  2  0  0  0  0
 31 32  1  0  0  0  0
 33 32  1  6  0  0  0
 34 36  1  0  0  0  0
 34 42  1  0  0  0  0
 36 37  1  6  0  0  0
 36 39  1  0  0  0  0
 40 39  1  1  0  0  0
 40 41  1  0  0  0  0
 40 46  1  0  0  0  0
 41 42  1  1  0  0  0
 41 44  1  0  0  0  0
 42 43  2  0  0  0  0
 44 45  1  0  0  0  0
 46 45  1  6  0  0  0
M  CHG  2   3  -1  35  -1
M  END
>  <CHROM.1>
-151.66330250,-34.66975497,-18.02748269,-10.07943724,16.62717930,0.19334832
-1.07536168,-0.02152968

>  <Name>
ligand

>  <RI>
-1

>  <Rbt.Current_Directory>
/home/itssahil/PROJECTS/Mol_Feturizer/Test_systems_manuscript/rnas/3mum

>  <Rbt.Executable>
rbdock ($Id: //depot/dev/client3/rdock/2013.1/src/exe/rbdock.cxx#4 $)

>  <Rbt.Library>
libRbt.so (2013.1, Build901 2013/11/27)

>  <Rbt.Parameter_File>
/export/apps/rDock/src/rDock_2013.1_src/data/scripts/dock_solv.prm

>  <Rbt.Receptor>
prm/blind_docking_100.prm

>  <SCORE>
1.53868

>  <SCORE.INTER>
-3.13406

>  <SCORE.INTER.CONST>
1

>  <SCORE.INTER.POLAR>
0

>  <SCORE.INTER.ROT>
2

>  <SCORE.INTER.SOLV>
38.7068

>  <SCORE.INTER.VDW>
-19.925

>  <SCORE.INTER.norm>
-0.0681317

>  <SCORE.INTRA>
4.67273

>  <SCORE.INTRA.DIHEDRAL>
0.0259509

>  <SCORE.INTRA.DIHEDRAL.0>
2.40424

>  <SCORE.INTRA.POLAR>
0

>  <SCORE.INTRA.POLAR.0>
0

>  <SCORE.INTRA.REPUL>
0

>  <SCORE.INTRA.REPUL.0>
0

>  <SCORE.INTRA.SOLV>
12.5827

>  <SCORE.INTRA.SOLV.lig_0>
-134.169

>  <SCORE.INTRA.VDW>
-1.6316

>  <SCORE.INTRA.VDW.0>
-2.18386

>  <SCORE.INTRA.norm>
0.101581

>  <SCORE.RESTR>
0

>  <SCORE.RESTR.CAVITY>
0

>  <SCORE.RESTR.norm>
0

>  <SCORE.SYSTEM>
0

>  <SCORE.SYSTEM.CONST>
0

>  <SCORE.SYSTEM.DIHEDRAL>
0

>  <SCORE.SYSTEM.SOLV>
0

>  <SCORE.SYSTEM.norm>
0

>  <SCORE.heavy>
46

>  <SCORE.norm>
0.0334495

>  <RMSD>
16.011

$$$$
ligand
 OpenBabel02271912143D
libRbt.so/2013.1/901 2013/11/27
 46 52  0  0  0  0  0  0  0  0999 V2000
  -15.8315   -7.0278   16.4445 P   0  0  1  0  0  0  0  0  0  0  0  0
  -20.0432   -9.8747   19.4164 P   0  0  2  0  0  0  0  0  0  0  0  0
  -14.8598   -8.1758   15.5066 O   0  5  0  0  0  0  0  0  0  0  0  0
  -15.3301   -5.3431   16.1445 O   0  0  0  0  0  0  0  0  0  0  0  0
  -18.4164   -6.5117   16.7189 C   0  0  0  0  0  0  0  0  0  0  0  0
  -17.3808   -7.2284   16.0463 O   0  0  0  0  0  0  0  0  0  0  0  0
  -19.7305   -7.2348   16.4929 C   0  0  1  0  0  0  0  0  0  0  0  0
  -19.9311   -7.4326   15.0863 O   0  0  0  0  0  0  0  0  0  0  0  0
  -19.7648   -8.6241   17.1087 C   0  0  1  0  0  0  0  0  0  0  0  0
  -20.2728   -8.6089   18.4409 O   0  0  0  0  0  0  0  0  0  0  0  0
  -20.6683   -9.3975   16.1645 C   0  0  1  0  0  0  0  0  0  0  0  0
  -22.0319   -9.2681   16.5747 O   0  0  0  0  0  0  0  0  0  0  0  0
  -20.5018   -8.7224   14.8158 C   0  0  2  0  0  0  0  0  0  0  0  0
  -14.9217  -10.4282   19.6203 C   0  0  1  0  0  0  0  0  0  0  0  0
  -19.9100  -12.4467   11.0778 N   0  0  0  0  0  0  0  0  0  0  0  0
  -21.0525  -11.9885   11.6583 C   0  0  1  0  0  0  0  0  0  0  0  0
  -14.8752   -9.5797   18.3813 C   0  0  2  0  0  0  0  0  0  0  0  0
  -22.2302  -12.5256   11.2641 N   0  0  0  0  0  0  0  0  0  0  0  0
  -13.6422   -8.8598   18.4303 O   0  0  0  0  0  0  0  0  0  0  0  0
  -16.0759   -8.6617   18.4969 C   0  0  2  0  0  0  0  0  0  0  0  0
  -21.0559  -11.0168   12.6188 N   0  0  0  0  0  0  0  0  0  0  0  0
  -15.7865   -7.3549   18.0192 O   0  0  0  0  0  0  0  0  0  0  0  0
  -19.9019  -10.4453   13.0470 C   0  0  2  0  0  0  0  0  0  0  0  0
  -16.3890   -8.6155   19.9795 C   0  0  2  0  0  0  0  0  0  0  0  0
  -15.8097   -9.7930   20.5391 O   0  0  0  0  0  0  0  0  0  0  0  0
  -18.6355  -10.9074   12.4529 C   0  0  1  0  0  0  0  0  0  0  0  0
  -17.8860   -8.5987   20.2682 C   0  0  0  0  0  0  0  0  0  0  0  0
  -18.4726   -9.8001   19.7635 O   0  0  0  0  0  0  0  0  0  0  0  0
  -18.6963  -11.9580   11.4211 C   0  0  0  0  0  0  0  0  0  0  0  0
  -17.5617  -12.4233   10.8396 O   0  0  0  0  0  0  0  0  0  0  0  0
  -17.6550  -10.2080   13.0348 N   0  0  0  0  0  0  0  0  0  0  0  0
  -18.2377   -9.3623   13.9342 C   0  0  0  0  0  0  0  0  0  0  0  0
  -19.5802   -9.5007   13.9462 N   0  0  1  0  0  0  0  0  0  0  0  0
  -18.0687  -13.2726   16.5586 N   0  0  0  0  0  0  0  0  0  0  0  0
  -20.4306  -11.4099   18.5956 O   0  5  0  0  0  0  0  0  0  0  0  0
  -17.8957  -11.9236   16.6161 C   0  0  2  0  0  0  0  0  0  0  0  0
  -18.6092  -11.1269   15.7781 N   0  0  0  0  0  0  0  0  0  0  0  0
  -20.9568   -9.7685   20.9337 O   0  0  0  0  0  0  0  0  0  0  0  0
  -17.0270  -11.3442   17.4889 N   0  0  0  0  0  0  0  0  0  0  0  0
  -16.2836  -12.0852   18.3436 C   0  0  2  0  0  0  0  0  0  0  0  0
  -16.4285  -13.5469   18.3306 C   0  0  2  0  0  0  0  0  0  0  0  0
  -17.3917  -14.1175   17.3648 C   0  0  0  0  0  0  0  0  0  0  0  0
  -17.5951  -15.4555   17.2818 O   0  0  0  0  0  0  0  0  0  0  0  0
  -15.5933  -14.0253   19.2740 N   0  0  0  0  0  0  0  0  0  0  0  0
  -14.9616  -12.9549   19.8417 C   0  0  0  0  0  0  0  0  0  0  0  0
  -15.3806  -11.7969   19.2827 N   0  0  1  0  0  0  0  0  0  0  0  0
  1  3  1  6  0  0  0
  1  4  2  0  0  0  0
  1  6  1  0  0  0  0
  1 22  1  0  0  0  0
  2 28  1  0  0  0  0
  2 35  1  6  0  0  0
  2 38  2  0  0  0  0
  2 10  1  0  0  0  0
  5  6  1  0  0  0  0
  7  5  1  6  0  0  0
  7  8  1  0  0  0  0
  7  9  1  0  0  0  0
  9 10  1  1  0  0  0
  9 11  1  0  0  0  0
 11 12  1  1  0  0  0
 11 13  1  0  0  0  0
 13  8  1  1  0  0  0
 13 33  1  0  0  0  0
 14 46  1  0  0  0  0
 14 17  1  0  0  0  0
 14 25  1  1  0  0  0
 15 16  1  0  0  0  0
 15 29  1  0  0  0  0
 16 18  1  1  0  0  0
 16 21  1  0  0  0  0
 17 19  1  1  0  0  0
 17 20  1  0  0  0  0
 20 22  1  1  0  0  0
 20 24  1  0  0  0  0
 23 21  1  1  0  0  0
 23 26  1  0  0  0  0
 23 33  1  0  0  0  0
 24 25  1  1  0  0  0
 24 27  1  0  0  0  0
 26 29  1  6  0  0  0
 26 31  1  0  0  0  0
 27 28  1  0  0  0  0
 29 30  2  0  0  0  0
 31 32  1  0  0  0  0
 33 32  1  6  0  0  0
 34 36  1  0  0  0  0
 34 42  1  0  0  0  0
 36 37  1  6  0  0  0
 36 39  1  0  0  0  0
 40 39  1  1  0  0  0
 40 41  1  0  0  0  0
 40 46  1  0  0  0  0
 41 42  1  1  0  0  0
 41 44  1  0  0  0  0
 42 43  2  0  0  0  0
 44 45  1  0  0  0  0
 46 45  1  6  0  0  0
M  CHG  2   3  -1  35  -1
M  END
>  <CHROM.1>
-150.40465405,-34.96964449,-18.03062342,-10.07369174,16.63584576,0.18467131
-1.07185100,-0.02663768

>  <Name>
ligand

>  <RI>
-1

>  <Rbt.Current_Directory>
/home/itssahil/PROJECTS/Mol_Feturizer/Test_systems_manuscript/rnas/3mum

>  <Rbt.Executable>
rbdock ($Id: //depot/dev/client3/rdock/2013.1/src/exe/rbdock.cxx#4 $)

>  <Rbt.Library>
libRbt.so (2013.1, Build901 2013/11/27)

>  <Rbt.Parameter_File>
/export/apps/rDock/src/rDock_2013.1_src/data/scripts/dock_solv.prm

>  <Rbt.Receptor>
prm/blind_docking_100.prm

>  <SCORE>
1.49709

>  <SCORE.INTER>
-3.30965

>  <SCORE.INTER.CONST>
1

>  <SCORE.INTER.POLAR>
0

>  <SCORE.INTER.ROT>
2

>  <SCORE.INTER.SOLV>
38.5851

>  <SCORE.INTER.VDW>
-20.0015

>  <SCORE.INTER.norm>
-0.0719489

>  <SCORE.INTRA>
4.80674

>  <SCORE.INTRA.DIHEDRAL>
0.0258468

>  <SCORE.INTRA.DIHEDRAL.0>
2.40424

>  <SCORE.INTRA.POLAR>
0

>  <SCORE.INTRA.POLAR.0>
0

>  <SCORE.INTRA.REPUL>
0

>  <SCORE.INTRA.REPUL.0>
0

>  <SCORE.INTRA.SOLV>
12.6782

>  <SCORE.INTRA.SOLV.lig_0>
-134.169

>  <SCORE.INTRA.VDW>
-1.54526

>  <SCORE.INTRA.VDW.0>
-2.18386

>  <SCORE.INTRA.norm>
0.104494

>  <SCORE.RESTR>
0

>  <SCORE.RESTR.CAVITY>
0

>  <SCORE.RESTR.norm>
0

>  <SCORE.SYSTEM>
0

>  <SCORE.SYSTEM.CONST>
0

>  <SCORE.SYSTEM.DIHEDRAL>
0

>  <SCORE.SYSTEM.SOLV>
0

>  <SCORE.SYSTEM.norm>
0

>  <SCORE.heavy>
46

>  <SCORE.norm>
0.0325454

>  <RMSD>
16.012

$$$$
ligand
 OpenBabel02271912143D
libRbt.so/2013.1/901 2013/11/27
 46 52  0  0  0  0  0  0  0  0999 V2000
  -15.8647   -7.0116   16.3735 P   0  0  1  0  0  0  0  0  0  0  0  0
  -20.0556   -9.7971   19.4319 P   0  0  2  0  0  0  0  0  0  0  0  0
  -14.8920   -8.1797   15.4618 O   0  5  0  0  0  0  0  0  0  0  0  0
  -15.3706   -5.3334   16.0290 O   0  0  0  0  0  0  0  0  0  0  0  0
  -18.4506   -6.4981   16.6438 C   0  0  0  0  0  0  0  0  0  0  0  0
  -17.4147   -7.2280   15.9861 O   0  0  0  0  0  0  0  0  0  0  0  0
  -19.7627   -7.2315   16.4410 C   0  0  1  0  0  0  0  0  0  0  0  0
  -19.9674   -7.4657   15.0406 O   0  0  0  0  0  0  0  0  0  0  0  0
  -19.7898   -8.6047   17.0920 C   0  0  1  0  0  0  0  0  0  0  0  0
  -20.2933   -8.5574   18.4252 O   0  0  0  0  0  0  0  0  0  0  0  0
  -20.6937   -9.4052   16.1711 C   0  0  1  0  0  0  0  0  0  0  0  0
  -22.0563   -9.2703   16.5826 O   0  0  0  0  0  0  0  0  0  0  0  0
  -20.5343   -8.7641   14.8050 C   0  0  2  0  0  0  0  0  0  0  0  0
  -14.9314  -10.3267   19.6317 C   0  0  1  0  0  0  0  0  0  0  0  0
  -19.9490  -12.2252   10.8211 N   0  0  0  0  0  0  0  0  0  0  0  0
  -21.0927  -11.7008   11.3404 C   0  0  1  0  0  0  0  0  0  0  0  0
  -14.8924   -9.5099   18.3713 C   0  0  2  0  0  0  0  0  0  0  0  0
  -22.2737  -12.0838   10.8025 N   0  0  0  0  0  0  0  0  0  0  0  0
  -13.6619   -8.7845   18.3976 O   0  0  0  0  0  0  0  0  0  0  0  0
  -16.0960   -8.5935   18.4677 C   0  0  2  0  0  0  0  0  0  0  0  0
  -21.0942  -10.8119   12.3779 N   0  0  0  0  0  0  0  0  0  0  0  0
  -15.8131   -7.2984   17.9559 O   0  0  0  0  0  0  0  0  0  0  0  0
  -19.9366  -10.3950   12.9504 C   0  0  2  0  0  0  0  0  0  0  0  0
  -16.4042   -8.5107   19.9498 C   0  0  2  0  0  0  0  0  0  0  0  0
  -15.8186   -9.6715   20.5372 O   0  0  0  0  0  0  0  0  0  0  0  0
  -18.6693  -10.9347   12.4278 C   0  0  1  0  0  0  0  0  0  0  0  0
  -17.9002   -8.4920   20.2433 C   0  0  0  0  0  0  0  0  0  0  0  0
  -18.4841   -9.7080   19.7714 O   0  0  0  0  0  0  0  0  0  0  0  0
  -18.7322  -11.8897   11.3071 C   0  0  0  0  0  0  0  0  0  0  0  0
  -17.5969  -12.4203   10.7857 O   0  0  0  0  0  0  0  0  0  0  0  0
  -17.6860  -10.3855   13.1493 N   0  0  0  0  0  0  0  0  0  0  0  0
  -18.2680   -9.5582   14.0661 C   0  0  0  0  0  0  0  0  0  0  0  0
  -19.6128   -9.5610   13.9523 N   0  0  1  0  0  0  0  0  0  0  0  0
  -14.9693  -15.2941   21.2723 N   0  0  0  0  0  0  0  0  0  0  0  0
  -20.4402  -11.3541   18.6518 O   0  5  0  0  0  0  0  0  0  0  0  0
  -14.3964  -14.1952   21.8352 C   0  0  2  0  0  0  0  0  0  0  0  0
  -13.7184  -14.3262   23.0053 N   0  0  0  0  0  0  0  0  0  0  0  0
  -20.9643   -9.6555   20.9492 O   0  0  0  0  0  0  0  0  0  0  0  0
  -14.4814  -12.9636   21.2621 N   0  0  0  0  0  0  0  0  0  0  0  0
  -15.1487  -12.7688   20.1007 C   0  0  2  0  0  0  0  0  0  0  0  0
  -15.7859  -13.9176   19.4436 C   0  0  2  0  0  0  0  0  0  0  0  0
  -15.6542  -15.2305   20.1107 C   0  0  0  0  0  0  0  0  0  0  0  0
  -16.2065  -16.3484   19.5780 O   0  0  0  0  0  0  0  0  0  0  0  0
  -16.3605  -13.4481   18.3186 N   0  0  0  0  0  0  0  0  0  0  0  0
  -16.1140  -12.1053   18.2632 C   0  0  0  0  0  0  0  0  0  0  0  0
  -15.3865  -11.7052   19.3307 N   0  0  1  0  0  0  0  0  0  0  0  0
  1  3  1  6  0  0  0
  1  4  2  0  0  0  0
  1  6  1  0  0  0  0
  1 22  1  0  0  0  0
  2 28  1  0  0  0  0
  2 35  1  6  0  0  0
  2 38  2  0  0  0  0
  2 10  1  0  0  0  0
  5  6  1  0  0  0  0
  7  5  1  6  0  0  0
  7  8  1  0  0  0  0
  7  9  1  0  0  0  0
  9 10  1  1  0  0  0
  9 11  1  0  0  0  0
 11 12  1  1  0  0  0
 11 13  1  0  0  0  0
 13  8  1  1  0  0  0
 13 33  1  0  0  0  0
 14 46  1  0  0  0  0
 14 17  1  0  0  0  0
 14 25  1  1  0  0  0
 15 16  1  0  0  0  0
 15 29  1  0  0  0  0
 16 18  1  1  0  0  0
 16 21  1  0  0  0  0
 17 19  1  1  0  0  0
 17 20  1  0  0  0  0
 20 22  1  1  0  0  0
 20 24  1  0  0  0  0
 23 21  1  1  0  0  0
 23 26  1  0  0  0  0
 23 33  1  0  0  0  0
 24 25  1  1  0  0  0
 24 27  1  0  0  0  0
 26 29  1  6  0  0  0
 26 31  1  0  0  0  0
 27 28  1  0  0  0  0
 29 30  2  0  0  0  0
 31 32  1  0  0  0  0
 33 32  1  6  0  0  0
 34 36  1  0  0  0  0
 34 42  1  0  0  0  0
 36 37  1  1  0  0  0
 36 39  1  0  0  0  0
 40 39  1  6  0  0  0
 40 41  1  0  0  0  0
 40 46  1  0  0  0  0
 41 42  1  6  0  0  0
 41 44  1  0  0  0  0
 42 43  2  0  0  0  0
 44 45  1  0  0  0  0
 46 45  1  1  0  0  0
M  CHG  2   3  -1  35  -1
M  END
>  <CHROM.1>
-140.38437233,158.28208424,-17.71311528,-10.24389368,17.11959997,-3.00919310
1.05305495,-2.97814239

>  <Name>
ligand

>  <RI>
0

>  <Rbt.Current_Directory>
/home/itssahil/PROJECTS/Mol_Feturizer/Test_systems_manuscript/rnas/3mum

>  <Rbt.Executable>
rbdock ($Id: //depot/dev/client3/rdock/2013.1/src/exe/rbdock.cxx#4 $)

>  <Rbt.Library>
libRbt.so (2013.1, Build901 2013/11/27)

>  <Rbt.Parameter_File>
/export/apps/rDock/src/rDock_2013.1_src/data/scripts/dock_solv.prm

>  <Rbt.Receptor>
prm/blind_docking_60.prm

>  <SCORE>
4.15016

>  <SCORE.INTER>
0.948464

>  <SCORE.INTER.CONST>
1

>  <SCORE.INTER.POLAR>
0

>  <SCORE.INTER.ROT>
2

>  <SCORE.INTER.SOLV>
37.8041

>  <SCORE.INTER.VDW>
-16.9024

>  <SCORE.INTER.norm>
0.0206188

>  <SCORE.INTRA>
0.0719913

>  <SCORE.INTRA.DIHEDRAL>
-0.0263489

>  <SCORE.INTRA.DIHEDRAL.0>
2.40424

>  <SCORE.INTRA.POLAR>
0

>  <SCORE.INTRA.POLAR.0>
0

>  <SCORE.INTRA.REPUL>
0

>  <SCORE.INTRA.REPUL.0>
0

>  <SCORE.INTRA.SOLV>
0.0600937

>  <SCORE.INTRA.SOLV.lig_0>
-134.169

>  <SCORE.INTRA.VDW>
0.0551189

>  <SCORE.INTRA.VDW.0>
-2.18386

>  <SCORE.INTRA.norm>
0.00156503

>  <SCORE.RESTR>
3.12971

>  <SCORE.RESTR.CAVITY>
3.12971

>  <SCORE.RESTR.norm>
0.0680371

>  <SCORE.SYSTEM>
0

>  <SCORE.SYSTEM.CONST>
0

>  <SCORE.SYSTEM.DIHEDRAL>
0

>  <SCORE.SYSTEM.SOLV>
0

>  <SCORE.SYSTEM.norm>
0

>  <SCORE.heavy>
46

>  <SCORE.norm>
0.0902209

>  <RMSD>
16.013

$$$$
ligand
 OpenBabel02271912143D
libRbt.so/2013.1/901 2013/11/27
 46 52  0  0  0  0  0  0  0  0999 V2000
  -15.8393   -7.0169   16.4525 P   0  0  1  0  0  0  0  0  0  0  0  0
  -20.0860   -9.8961   19.3425 P   0  0  2  0  0  0  0  0  0  0  0  0
  -14.8627   -8.1535   15.5057 O   0  5  0  0  0  0  0  0  0  0  0  0
  -15.3302   -5.3295   16.1830 O   0  0  0  0  0  0  0  0  0  0  0  0
  -18.4250   -6.4970   16.7118 C   0  0  0  0  0  0  0  0  0  0  0  0
  -17.3856   -7.2066   16.0375 O   0  0  0  0  0  0  0  0  0  0  0  0
  -19.7392   -7.2125   16.4630 C   0  0  1  0  0  0  0  0  0  0  0  0
  -19.9278   -7.3879   15.0517 O   0  0  0  0  0  0  0  0  0  0  0  0
  -19.7832   -8.6109   17.0569 C   0  0  1  0  0  0  0  0  0  0  0  0
  -20.3031   -8.6147   18.3846 O   0  0  0  0  0  0  0  0  0  0  0  0
  -20.6805   -9.3669   16.0929 C   0  0  1  0  0  0  0  0  0  0  0  0
  -22.0474   -9.2396   16.4928 O   0  0  0  0  0  0  0  0  0  0  0  0
  -20.5000   -8.6717   14.7563 C   0  0  2  0  0  0  0  0  0  0  0  0
  -14.9682  -10.4687   19.5834 C   0  0  1  0  0  0  0  0  0  0  0  0
  -19.8608  -12.5064   11.1398 N   0  0  0  0  0  0  0  0  0  0  0  0
  -21.0031  -12.0797   11.7443 C   0  0  1  0  0  0  0  0  0  0  0  0
  -14.9081   -9.6014   18.3581 C   0  0  2  0  0  0  0  0  0  0  0  0
  -22.1667  -12.6859   11.4135 N   0  0  0  0  0  0  0  0  0  0  0  0
  -13.6734   -8.8862   18.4292 O   0  0  0  0  0  0  0  0  0  0  0  0
  -16.1070   -8.6815   18.4771 C   0  0  2  0  0  0  0  0  0  0  0  0
  -21.0196  -11.0727   12.6676 N   0  0  0  0  0  0  0  0  0  0  0  0
  -15.8095   -7.3685   18.0223 O   0  0  0  0  0  0  0  0  0  0  0  0
  -19.8801  -10.4320   13.0318 C   0  0  2  0  0  0  0  0  0  0  0  0
  -16.4333   -8.6572   19.9575 C   0  0  2  0  0  0  0  0  0  0  0  0
  -15.8625   -9.8450   20.5040 O   0  0  0  0  0  0  0  0  0  0  0  0
  -18.6144  -10.8574   12.4094 C   0  0  1  0  0  0  0  0  0  0  0  0
  -17.9327   -8.6402   20.2330 C   0  0  0  0  0  0  0  0  0  0  0  0
  -18.5184   -9.8317   19.7047 O   0  0  0  0  0  0  0  0  0  0  0  0
  -18.6608  -11.9488   11.4201 C   0  0  0  0  0  0  0  0  0  0  0  0
  -17.5260  -12.3831   10.8153 O   0  0  0  0  0  0  0  0  0  0  0  0
  -17.6489  -10.0911   12.9287 N   0  0  0  0  0  0  0  0  0  0  0  0
  -18.2398   -9.2392   13.8168 C   0  0  0  0  0  0  0  0  0  0  0  0
  -19.5729   -9.4393   13.8830 N   0  0  1  0  0  0  0  0  0  0  0  0
  -18.0367  -13.2617   16.3972 N   0  0  0  0  0  0  0  0  0  0  0  0
  -20.4707  -11.4173   18.4946 O   0  5  0  0  0  0  0  0  0  0  0  0
  -17.8533  -11.9148   16.4703 C   0  0  2  0  0  0  0  0  0  0  0  0
  -18.5308  -11.1056   15.6147 N   0  0  0  0  0  0  0  0  0  0  0  0
  -21.0128   -9.8104   20.8530 O   0  0  0  0  0  0  0  0  0  0  0  0
  -17.0091  -11.3498   17.3760 N   0  0  0  0  0  0  0  0  0  0  0  0
  -16.3018  -12.1038   18.2497 C   0  0  2  0  0  0  0  0  0  0  0  0
  -16.4597  -13.5639   18.2213 C   0  0  2  0  0  0  0  0  0  0  0  0
  -17.3951  -14.1186   17.2196 C   0  0  0  0  0  0  0  0  0  0  0  0
  -17.6080  -15.4540   17.1201 O   0  0  0  0  0  0  0  0  0  0  0  0
  -15.6612  -14.0567   19.1887 N   0  0  0  0  0  0  0  0  0  0  0  0
  -15.0390  -12.9964   19.7850 C   0  0  0  0  0  0  0  0  0  0  0  0
  -15.4283  -11.8306   19.2207 N   0  0  1  0  0  0  0  0  0  0  0  0
  1  3  1  6  0  0  0
  1  4  2  0  0  0  0
  1  6  1  0  0  0  0
  1 22  1  0  0  0  0
  2 28  1  0  0  0  0
  2 35  1  6  0  0  0
  2 38  2  0  0  0  0
  2 10  1  0  0  0  0
  5  6  1  0  0  0  0
  7  5  1  6  0  0  0
  7  8  1  0  0  0  0
  7  9  1  0  0  0  0
  9 10  1  1  0  0  0
  9 11  1  0  0  0  0
 11 12  1  1  0  0  0
 11 13  1  0  0  0  0
 13  8  1  1  0  0  0
 13 33  1  0  0  0  0
 14 46  1  0  0  0  0
 14 17  1  0  0  0  0
 14 25  1  1  0  0  0
 15 16  1  0  0  0  0
 15 29  1  0  0  0  0
 16 18  1  1  0  0  0
 16 21  1  0  0  0  0
 17 19  1  1  0  0  0
 17 20  1  0  0  0  0
 20 22  1  1  0  0  0
 20 24  1  0  0  0  0
 23 21  1  1  0  0  0
 23 26  1  0  0  0  0
 23 33  1  0  0  0  0
 24 25  1  1  0  0  0
 24 27  1  0  0  0  0
 26 29  1  6  0  0  0
 26 31  1  0  0  0  0
 27 28  1  0  0  0  0
 29 30  2  0  0  0  0
 31 32  1  0  0  0  0
 33 32  1  6  0  0  0
 34 36  1  0  0  0  0
 34 42  1  0  0  0  0
 36 37  1  6  0  0  0
 36 39  1  0  0  0  0
 40 39  1  1  0  0  0
 40 41  1  0  0  0  0
 40 46  1  0  0  0  0
 41 42  1  1  0  0  0
 41 44  1  0  0  0  0
 42 43  2  0  0  0  0
 44 45  1  0  0  0  0
 46 45  1  6  0  0  0
M  CHG  2   3  -1  35  -1
M  END
>  <CHROM.1>
-155.32338977,-33.43536648,-18.04000594,-10.07718836,16.59011097,0.22372051
-1.07254373,-0.00032311

>  <Name>
ligand

>  <RI>
0

>  <Rbt.Current_Directory>
/home/itssahil/PROJECTS/Mol_Feturizer/Test_systems_manuscript/rnas/3mum

>  <Rbt.Executable>
rbdock ($Id: //depot/dev/client3/rdock/2013.1/src/exe/rbdock.cxx#4 $)

>  <Rbt.Library>
libRbt.so (2013.1, Build901 2013/11/27)

>  <Rbt.Parameter_File>
/export/apps/rDock/src/rDock_2013.1_src/data/scripts/dock_solv.prm

>  <Rbt.Receptor>
prm/blind_docking_60.prm

>  <SCORE>
1.77128

>  <SCORE.INTER>
-2.58253

>  <SCORE.INTER.CONST>
1

>  <SCORE.INTER.POLAR>
0

>  <SCORE.INTER.ROT>
2

>  <SCORE.INTER.SOLV>
38.9131

>  <SCORE.INTER.VDW>
-19.626

>  <SCORE.INTER.norm>
-0.056142

>  <SCORE.INTRA>
4.34479

>  <SCORE.INTRA.DIHEDRAL>
0.0262382

>  <SCORE.INTRA.DIHEDRAL.0>
2.40424

>  <SCORE.INTRA.POLAR>
0

>  <SCORE.INTRA.POLAR.0>
0

>  <SCORE.INTRA.REPUL>
0

>  <SCORE.INTRA.REPUL.0>
0

>  <SCORE.INTRA.SOLV>
12.1535

>  <SCORE.INTRA.SOLV.lig_0>
-134.169

>  <SCORE.INTRA.VDW>
-1.74507

>  <SCORE.INTRA.VDW.0>
-2.18386

>  <SCORE.INTRA.norm>
0.094452

>  <SCORE.RESTR>
0.00902171

>  <SCORE.RESTR.CAVITY>
0.00902171

>  <SCORE.RESTR.norm>
0.000196124

>  <SCORE.SYSTEM>
0

>  <SCORE.SYSTEM.CONST>
0

>  <SCORE.SYSTEM.DIHEDRAL>
0

>  <SCORE.SYSTEM.SOLV>
0

>  <SCORE.SYSTEM.norm>
0

>  <SCORE.heavy>
46

>  <SCORE.norm>
0.0385061

>  <RMSD>
16.016

$$$$
ligand
 OpenBabel02271912143D
libRbt.so/2013.1/901 2013/11/27
 46 52  0  0  0  0  0  0  0  0999 V2000
  -19.6691   -9.7074   20.0192 P   0  0  1  0  0  0  0  0  0  0  0  0
  -15.6762   -7.4127   16.3494 P   0  0  2  0  0  0  0  0  0  0  0  0
  -20.0930  -11.3524   19.5134 O   0  5  0  0  0  0  0  0  0  0  0  0
  -20.4848   -9.2560   21.5392 O   0  0  0  0  0  0  0  0  0  0  0  0
  -17.4195   -8.3917   20.5010 C   0  0  0  0  0  0  0  0  0  0  0  0
  -18.0689   -9.6269   20.1992 O   0  0  0  0  0  0  0  0  0  0  0  0
  -15.9529   -8.5141   20.1341 C   0  0  1  0  0  0  0  0  0  0  0  0
  -15.3969   -9.6741   20.7692 O   0  0  0  0  0  0  0  0  0  0  0  0
  -15.7211   -8.7143   18.6453 C   0  0  1  0  0  0  0  0  0  0  0  0
  -15.5475   -7.4774   17.9575 O   0  0  0  0  0  0  0  0  0  0  0  0
  -14.4666   -9.5691   18.6034 C   0  0  1  0  0  0  0  0  0  0  0  0
  -13.3052   -8.7352   18.5918 O   0  0  0  0  0  0  0  0  0  0  0  0
  -14.4828  -10.3593   19.8987 C   0  0  2  0  0  0  0  0  0  0  0  0
  -20.4169   -9.1842   15.3670 C   0  0  1  0  0  0  0  0  0  0  0  0
  -14.0162  -15.5331   20.9970 N   0  0  0  0  0  0  0  0  0  0  0  0
  -13.2954  -14.4853   21.4818 C   0  0  1  0  0  0  0  0  0  0  0  0
  -20.3871   -9.7601   16.7543 C   0  0  2  0  0  0  0  0  0  0  0  0
  -12.3086  -14.7443   22.3704 N   0  0  0  0  0  0  0  0  0  0  0  0
  -21.7365   -9.7546   17.2235 O   0  0  0  0  0  0  0  0  0  0  0  0
  -19.5049   -8.8150   17.5457 C   0  0  2  0  0  0  0  0  0  0  0  0
  -13.5262  -13.1921   21.1061 N   0  0  0  0  0  0  0  0  0  0  0  0
  -19.9883   -8.6286   18.8690 O   0  0  0  0  0  0  0  0  0  0  0  0
  -14.5053  -12.8798   20.2198 C   0  0  2  0  0  0  0  0  0  0  0  0
  -19.5567   -7.5050   16.7842 C   0  0  2  0  0  0  0  0  0  0  0  0
  -19.9426   -7.8411   15.4525 O   0  0  0  0  0  0  0  0  0  0  0  0
  -15.3135  -13.9779   19.6618 C   0  0  1  0  0  0  0  0  0  0  0  0
  -18.2145   -6.7823   16.7577 C   0  0  0  0  0  0  0  0  0  0  0  0
  -17.2541   -7.6047   16.0920 O   0  0  0  0  0  0  0  0  0  0  0  0
  -15.0173  -15.3517   20.1058 C   0  0  0  0  0  0  0  0  0  0  0  0
  -15.7285  -16.4027   19.6247 O   0  0  0  0  0  0  0  0  0  0  0  0
  -16.1939  -13.4241   18.8209 N   0  0  0  0  0  0  0  0  0  0  0  0
  -15.9739  -12.0769   18.8313 C   0  0  0  0  0  0  0  0  0  0  0  0
  -14.9651  -11.7463   19.6648 N   0  0  1  0  0  0  0  0  0  0  0  0
  -20.2657  -11.8130   10.8465 N   0  0  0  0  0  0  0  0  0  0  0  0
  -14.7505   -8.7213   15.5675 O   0  5  0  0  0  0  0  0  0  0  0  0
  -21.2953  -11.1387   11.4281 C   0  0  2  0  0  0  0  0  0  0  0  0
  -22.4974  -11.0906   10.7969 N   0  0  0  0  0  0  0  0  0  0  0  0
  -15.1843   -5.8507   15.6666 O   0  0  0  0  0  0  0  0  0  0  0  0
  -21.1590  -10.5076   12.6262 N   0  0  0  0  0  0  0  0  0  0  0  0
  -19.9848  -10.5145   13.2995 C   0  0  2  0  0  0  0  0  0  0  0  0
  -18.8375  -11.2283   12.7237 C   0  0  2  0  0  0  0  0  0  0  0  0
  -19.0482  -11.8993   11.4231 C   0  0  0  0  0  0  0  0  0  0  0  0
  -18.0485  -12.5849   10.8155 O   0  0  0  0  0  0  0  0  0  0  0  0
  -17.8182  -11.0846   13.5936 N   0  0  0  0  0  0  0  0  0  0  0  0
  -18.2764  -10.3349   14.6401 C   0  0  0  0  0  0  0  0  0  0  0  0
  -19.5739   -9.9990   14.4596 N   0  0  1  0  0  0  0  0  0  0  0  0
  1  3  1  6  0  0  0
  1  4  2  0  0  0  0
  1  6  1  0  0  0  0
  1 22  1  0  0  0  0
  2 28  1  0  0  0  0
  2 35  1  6  0  0  0
  2 38  2  0  0  0  0
  2 10  1  0  0  0  0
  5  6  1  0  0  0  0
  7  5  1  6  0  0  0
  7  8  1  0  0  0  0
  7  9  1  0  0  0  0
  9 10  1  6  0  0  0
  9 11  1  0  0  0  0
 11 12  1  1  0  0  0
 11 13  1  0  0  0  0
 13  8  1  1  0  0  0
 13 33  1  0  0  0  0
 14 46  1  0  0  0  0
 14 17  1  0  0  0  0
 14 25  1  1  0  0  0
 15 16  1  0  0  0  0
 15 29  1  0  0  0  0
 16 18  1  6  0  0  0
 16 21  1  0  0  0  0
 17 19  1  1  0  0  0
 17 20  1  0  0  0  0
 20 22  1  1  0  0  0
 20 24  1  0  0  0  0
 23 21  1  6  0  0  0
 23 26  1  0  0  0  0
 23 33  1  0  0  0  0
 24 25  1  6  0  0  0
 24 27  1  0  0  0  0
 26 29  1  1  0  0  0
 26 31  1  0  0  0  0
 27 28  1  0  0  0  0
 29 30  2  0  0  0  0
 31 32  1  0  0  0  0
 33 32  1  1  0  0  0
 34 36  1  0  0  0  0
 34 42  1  0  0  0  0
 36 37  1  6  0  0  0
 36 39  1  0  0  0  0
 40 39  1  1  0  0  0
 40 41  1  0  0  0  0
 40 46  1  0  0  0  0
 41 42  1  1  0  0  0
 41 44  1  0  0  0  0
 42 43  2  0  0  0  0
 44 45  1  0  0  0  0
 46 45  1  6  0  0  0
M  CHG  2   3  -1  35  -1
M  END
>  <CHROM.1>
-102.85531368,127.07208679,-17.43436944,-10.37084954,17.35009399,0.14209537
-0.96570588,0.49286354

>  <Name>
ligand

>  <RI>
-1

>  <Rbt.Current_Directory>
/home/itssahil/PROJECTS/Mol_Feturizer/Test_systems_manuscript/rnas/3mum

>  <Rbt.Executable>
rbdock ($Id: //depot/dev/client3/rdock/2013.1/src/exe/rbdock.cxx#4 $)

>  <Rbt.Library>
libRbt.so (2013.1, Build901 2013/11/27)

>  <Rbt.Parameter_File>
/export/apps/rDock/src/rDock_2013.1_src/data/scripts/dock_solv.prm

>  <Rbt.Receptor>
prm/blind_docking_100.prm

>  <SCORE>
3.28525

>  <SCORE.INTER>
0.169298

>  <SCORE.INTER.CONST>
1

>  <SCORE.INTER.POLAR>
0

>  <SCORE.INTER.ROT>
2

>  <SCORE.INTER.SOLV>
34.8776

>  <SCORE.INTER.VDW>
-16.4463

>  <SCORE.INTER.norm>
0.00368039

>  <SCORE.INTRA>
-0.052724

>  <SCORE.INTRA.DIHEDRAL>
-0.0164444

>  <SCORE.INTRA.DIHEDRAL.0>
2.40424

>  <SCORE.INTRA.POLAR>
0

>  <SCORE.INTRA.POLAR.0>
0

>  <SCORE.INTRA.REPUL>
0

>  <SCORE.INTRA.REPUL.0>
0

>  <SCORE.INTRA.SOLV>
0.00953158

>  <SCORE.INTRA.SOLV.lig_0>
-134.169

>  <SCORE.INTRA.VDW>
-0.0492676

>  <SCORE.INTRA.VDW.0>
-2.18386

>  <SCORE.INTRA.norm>
-0.00114617

>  <SCORE.RESTR>
3.16868

>  <SCORE.RESTR.CAVITY>
3.16868

>  <SCORE.RESTR.norm>
0.0688843

>  <SCORE.SYSTEM>
0

>  <SCORE.SYSTEM.CONST>
0

>  <SCORE.SYSTEM.DIHEDRAL>
0

>  <SCORE.SYSTEM.SOLV>
0

>  <SCORE.SYSTEM.norm>
0

>  <SCORE.heavy>
46

>  <SCORE.norm>
0.0714185

>  <RMSD>
16.017

$$$$
ligand
 OpenBabel02271912143D
libRbt.so/2013.1/901 2013/11/27
 46 52  0  0  0  0  0  0  0  0999 V2000
  -15.8629   -7.0033   16.4685 P   0  0  1  0  0  0  0  0  0  0  0  0
  -20.0863   -9.9087   19.3664 P   0  0  2  0  0  0  0  0  0  0  0  0
  -14.8765   -8.1346   15.5256 O   0  5  0  0  0  0  0  0  0  0  0  0
  -15.3678   -5.3125   16.1940 O   0  0  0  0  0  0  0  0  0  0  0  0
  -18.4529   -6.5041   16.7255 C   0  0  0  0  0  0  0  0  0  0  0  0
  -17.4074   -7.2071   16.0537 O   0  0  0  0  0  0  0  0  0  0  0  0
  -19.7610   -7.2312   16.4786 C   0  0  1  0  0  0  0  0  0  0  0  0
  -19.9477   -7.4126   15.0678 O   0  0  0  0  0  0  0  0  0  0  0  0
  -19.7935   -8.6282   17.0768 C   0  0  1  0  0  0  0  0  0  0  0  0
  -20.3137   -8.6321   18.4044 O   0  0  0  0  0  0  0  0  0  0  0  0
  -20.6843   -9.3946   16.1149 C   0  0  1  0  0  0  0  0  0  0  0  0
  -22.0522   -9.2774   16.5141 O   0  0  0  0  0  0  0  0  0  0  0  0
  -20.5091   -8.7020   14.7762 C   0  0  2  0  0  0  0  0  0  0  0  0
  -14.9640  -10.4379   19.6105 C   0  0  1  0  0  0  0  0  0  0  0  0
  -19.8286  -12.5792   11.2130 N   0  0  0  0  0  0  0  0  0  0  0  0
  -20.9733  -12.1659   11.8223 C   0  0  1  0  0  0  0  0  0  0  0  0
  -14.9108   -9.5740   18.3825 C   0  0  2  0  0  0  0  0  0  0  0  0
  -22.1277  -12.8001   11.5125 N   0  0  0  0  0  0  0  0  0  0  0  0
  -13.6821   -8.8483   18.4517 O   0  0  0  0  0  0  0  0  0  0  0  0
  -16.1173   -8.6637   18.4983 C   0  0  2  0  0  0  0  0  0  0  0  0
  -21.0009  -11.1452   12.7301 N   0  0  0  0  0  0  0  0  0  0  0  0
  -15.8305   -7.3497   18.0395 O   0  0  0  0  0  0  0  0  0  0  0  0
  -19.8710  -10.4763   13.0729 C   0  0  2  0  0  0  0  0  0  0  0  0
  -16.4442   -8.6375   19.9785 C   0  0  2  0  0  0  0  0  0  0  0  0
  -15.8637   -9.8188   20.5288 O   0  0  0  0  0  0  0  0  0  0  0  0
  -18.6031  -10.8862   12.4445 C   0  0  1  0  0  0  0  0  0  0  0  0
  -17.9438   -8.6321   20.2536 C   0  0  0  0  0  0  0  0  0  0  0  0
  -18.5194   -9.8301   19.7288 O   0  0  0  0  0  0  0  0  0  0  0  0
  -18.6373  -11.9937   11.4726 C   0  0  0  0  0  0  0  0  0  0  0  0
  -17.5000  -12.4147   10.8631 O   0  0  0  0  0  0  0  0  0  0  0  0
  -17.6482  -10.0930   12.9422 N   0  0  0  0  0  0  0  0  0  0  0  0
  -18.2473   -9.2392   13.8230 C   0  0  0  0  0  0  0  0  0  0  0  0
  -19.5754   -9.4647   13.9056 N   0  0  1  0  0  0  0  0  0  0  0  0
  -17.8765  -13.2810   16.3237 N   0  0  0  0  0  0  0  0  0  0  0  0
  -20.4581  -11.4356   18.5231 O   0  5  0  0  0  0  0  0  0  0  0  0
  -17.6888  -11.9339   16.3788 C   0  0  2  0  0  0  0  0  0  0  0  0
  -18.3149  -11.1393   15.4719 N   0  0  0  0  0  0  0  0  0  0  0  0
  -21.0142   -9.8259   20.8764 O   0  0  0  0  0  0  0  0  0  0  0  0
  -16.8903  -11.3544   17.3163 N   0  0  0  0  0  0  0  0  0  0  0  0
  -16.2351  -12.0937   18.2417 C   0  0  2  0  0  0  0  0  0  0  0  0
  -16.4003  -13.5532   18.2349 C   0  0  2  0  0  0  0  0  0  0  0  0
  -17.2847  -14.1239   17.1965 C   0  0  0  0  0  0  0  0  0  0  0  0
  -17.5003  -15.4600   17.1133 O   0  0  0  0  0  0  0  0  0  0  0  0
  -15.6573  -14.0298   19.2533 N   0  0  0  0  0  0  0  0  0  0  0  0
  -15.0611  -12.9604   19.8599 C   0  0  0  0  0  0  0  0  0  0  0  0
  -15.4126  -11.8048   19.2519 N   0  0  1  0  0  0  0  0  0  0  0  0
  1  3  1  6  0  0  0
  1  4  2  0  0  0  0
  1  6  1  0  0  0  0
  1 22  1  0  0  0  0
  2 28  1  0  0  0  0
  2 35  1  6  0  0  0
  2 38  2  0  0  0  0
  2 10  1  0  0  0  0
  5  6  1  0  0  0  0
  7  5  1  6  0  0  0
  7  8  1  0  0  0  0
  7  9  1  0  0  0  0
  9 10  1  1  0  0  0
  9 11  1  0  0  0  0
 11 12  1  1  0  0  0
 11 13  1  0  0  0  0
 13  8  1  1  0  0  0
 13 33  1  0  0  0  0
 14 46  1  0  0  0  0
 14 17  1  0  0  0  0
 14 25  1  1  0  0  0
 15 16  1  0  0  0  0
 15 29  1  0  0  0  0
 16 18  1  1  0  0  0
 16 21  1  0  0  0  0
 17 19  1  1  0  0  0
 17 20  1  0  0  0  0
 20 22  1  1  0  0  0
 20 24  1  0  0  0  0
 23 21  1  1  0  0  0
 23 26  1  0  0  0  0
 23 33  1  0  0  0  0
 24 25  1  1  0  0  0
 24 27  1  0  0  0  0
 26 29  1  6  0  0  0
 26 31  1  0  0  0  0
 27 28  1  0  0  0  0
 29 30  2  0  0  0  0
 31 32  1  0  0  0  0
 33 32  1  6  0  0  0
 34 36  1  0  0  0  0
 34 42  1  0  0  0  0
 36 37  1  6  0  0  0
 36 39  1  0  0  0  0
 40 39  1  1  0  0  0
 40 41  1  0  0  0  0
 40 46  1  0  0  0  0
 41 42  1  1  0  0  0
 41 44  1  0  0  0  0
 42 43  2  0  0  0  0
 44 45  1  0  0  0  0
 46 45  1  6  0  0  0
M  CHG  2   3  -1  35  -1
M  END
>  <CHROM.1>
-156.45538598,-30.14543300,-18.02270750,-10.08689250,16.60770981,0.30248464
-1.06593480,0.07148984

>  <Name>
ligand

>  <RI>
-1

>  <Rbt.Current_Directory>
/home/itssahil/PROJECTS/Mol_Feturizer/Test_systems_manuscript/rnas/3mum

>  <Rbt.Executable>
rbdock ($Id: //depot/dev/client3/rdock/2013.1/src/exe/rbdock.cxx#4 $)

>  <Rbt.Library>
libRbt.so (2013.1, Build901 2013/11/27)

>  <Rbt.Parameter_File>
/export/apps/rDock/src/rDock_2013.1_src/data/scripts/dock_solv.prm

>  <Rbt.Receptor>
prm/blind_docking_100.prm

>  <SCORE>
2.37456

>  <SCORE.INTER>
-1.99742

>  <SCORE.INTER.CONST>
1

>  <SCORE.INTER.POLAR>
0

>  <SCORE.INTER.ROT>
2

>  <SCORE.INTER.SOLV>
39.0178

>  <SCORE.INTER.VDW>
-19.2709

>  <SCORE.INTER.norm>
-0.0434222

>  <SCORE.INTRA>
4.37198

>  <SCORE.INTRA.DIHEDRAL>
0.0267251

>  <SCORE.INTRA.DIHEDRAL.0>
2.40424

>  <SCORE.INTRA.POLAR>
0

>  <SCORE.INTRA.POLAR.0>
0

>  <SCORE.INTRA.REPUL>
0

>  <SCORE.INTRA.REPUL.0>
0

>  <SCORE.INTRA.SOLV>
10.8886

>  <SCORE.INTRA.SOLV.lig_0>
-134.169

>  <SCORE.INTRA.VDW>
-1.08566

>  <SCORE.INTRA.VDW.0>
-2.18386

>  <SCORE.INTRA.norm>
0.0950431

>  <SCORE.RESTR>
0

>  <SCORE.RESTR.CAVITY>
0

>  <SCORE.RESTR.norm>
0

>  <SCORE.SYSTEM>
0

>  <SCORE.SYSTEM.CONST>
0

>  <SCORE.SYSTEM.DIHEDRAL>
0

>  <SCORE.SYSTEM.SOLV>
0

>  <SCORE.SYSTEM.norm>
0

>  <SCORE.heavy>
46

>  <SCORE.norm>
0.0516208

>  <RMSD>
16.017

$$$$
ligand
 OpenBabel02271912143D
libRbt.so/2013.1/901 2013/11/27
 46 52  0  0  0  0  0  0  0  0999 V2000
  -15.8361   -7.0220   16.4741 P   0  0  1  0  0  0  0  0  0  0  0  0
  -20.0869   -9.8974   19.3617 P   0  0  2  0  0  0  0  0  0  0  0  0
  -14.8625   -8.1589   15.5247 O   0  5  0  0  0  0  0  0  0  0  0  0
  -15.3237   -5.3351   16.2073 O   0  0  0  0  0  0  0  0  0  0  0  0
  -18.4205   -6.4971   16.7360 C   0  0  0  0  0  0  0  0  0  0  0  0
  -17.3831   -7.2076   16.0598 O   0  0  0  0  0  0  0  0  0  0  0  0
  -19.7363   -7.2093   16.4868 C   0  0  1  0  0  0  0  0  0  0  0  0
  -19.9262   -7.3819   15.0753 O   0  0  0  0  0  0  0  0  0  0  0  0
  -19.7829   -8.6088   17.0782 C   0  0  1  0  0  0  0  0  0  0  0  0
  -20.3019   -8.6138   18.4062 O   0  0  0  0  0  0  0  0  0  0  0  0
  -20.6825   -9.3612   16.1134 C   0  0  1  0  0  0  0  0  0  0  0  0
  -22.0488   -9.2317   16.5145 O   0  0  0  0  0  0  0  0  0  0  0  0
  -20.5013   -8.6639   14.7780 C   0  0  2  0  0  0  0  0  0  0  0  0
  -14.9702  -10.4812   19.5983 C   0  0  1  0  0  0  0  0  0  0  0  0
  -19.8753  -12.4793   11.1388 N   0  0  0  0  0  0  0  0  0  0  0  0
  -21.0168  -12.0491   11.7424 C   0  0  1  0  0  0  0  0  0  0  0  0
  -14.9091   -9.6118   18.3745 C   0  0  2  0  0  0  0  0  0  0  0  0
  -22.1832  -12.6455   11.4040 N   0  0  0  0  0  0  0  0  0  0  0  0
  -13.6728   -8.8993   18.4461 O   0  0  0  0  0  0  0  0  0  0  0  0
  -16.1060   -8.6896   18.4959 C   0  0  2  0  0  0  0  0  0  0  0  0
  -21.0297  -11.0480   12.6721 N   0  0  0  0  0  0  0  0  0  0  0  0
  -15.8059   -7.3764   18.0433 O   0  0  0  0  0  0  0  0  0  0  0  0
  -19.8873  -10.4170   13.0442 C   0  0  2  0  0  0  0  0  0  0  0  0
  -16.4312   -8.6672   19.9765 C   0  0  2  0  0  0  0  0  0  0  0  0
  -15.8626   -9.8572   20.5205 O   0  0  0  0  0  0  0  0  0  0  0  0
  -18.6224  -10.8467   12.4230 C   0  0  1  0  0  0  0  0  0  0  0  0
  -17.9304   -8.6476   20.2531 C   0  0  0  0  0  0  0  0  0  0  0  0
  -18.5189   -9.8369   19.7230 O   0  0  0  0  0  0  0  0  0  0  0  0
  -18.6726  -11.9314   11.4266 C   0  0  0  0  0  0  0  0  0  0  0  0
  -17.5387  -12.3691   10.8226 O   0  0  0  0  0  0  0  0  0  0  0  0
  -17.6536  -10.0901   12.9505 N   0  0  0  0  0  0  0  0  0  0  0  0
  -18.2419   -9.2401   13.8421 C   0  0  0  0  0  0  0  0  0  0  0  0
  -19.5764   -9.4319   13.9027 N   0  0  1  0  0  0  0  0  0  0  0  0
  -18.0259  -13.2642   16.3912 N   0  0  0  0  0  0  0  0  0  0  0  0
  -20.4754  -11.4162   18.5114 O   0  5  0  0  0  0  0  0  0  0  0  0
  -17.8372  -11.9181   16.4643 C   0  0  2  0  0  0  0  0  0  0  0  0
  -18.5045  -11.1069   15.6026 N   0  0  0  0  0  0  0  0  0  0  0  0
  -21.0126   -9.8124   20.8730 O   0  0  0  0  0  0  0  0  0  0  0  0
  -16.9976  -11.3558   17.3760 N   0  0  0  0  0  0  0  0  0  0  0  0
  -16.3005  -12.1119   18.2560 C   0  0  2  0  0  0  0  0  0  0  0  0
  -16.4645  -13.5713   18.2279 C   0  0  2  0  0  0  0  0  0  0  0  0
  -17.3945  -14.1230   17.2195 C   0  0  0  0  0  0  0  0  0  0  0  0
  -17.6124  -15.4576   17.1197 O   0  0  0  0  0  0  0  0  0  0  0  0
  -15.6757  -14.0666   19.2020 N   0  0  0  0  0  0  0  0  0  0  0  0
  -15.0536  -13.0083   19.8020 C   0  0  0  0  0  0  0  0  0  0  0  0
  -15.4333  -11.8415   19.2334 N   0  0  1  0  0  0  0  0  0  0  0  0
  1  3  1  6  0  0  0
  1  4  2  0  0  0  0
  1  6  1  0  0  0  0
  1 22  1  0  0  0  0
  2 28  1  0  0  0  0
  2 35  1  6  0  0  0
  2 38  2  0  0  0  0
  2 10  1  0  0  0  0
  5  6  1  0  0  0  0
  7  5  1  6  0  0  0
  7  8  1  0  0  0  0
  7  9  1  0  0  0  0
  9 10  1  1  0  0  0
  9 11  1  0  0  0  0
 11 12  1  1  0  0  0
 11 13  1  0  0  0  0
 13  8  1  1  0  0  0
 13 33  1  0  0  0  0
 14 46  1  0  0  0  0
 14 17  1  0  0  0  0
 14 25  1  1  0  0  0
 15 16  1  0  0  0  0
 15 29  1  0  0  0  0
 16 18  1  1  0  0  0
 16 21  1  0  0  0  0
 17 19  1  1  0  0  0
 17 20  1  0  0  0  0
 20 22  1  1  0  0  0
 20 24  1  0  0  0  0
 23 21  1  1  0  0  0
 23 26  1  0  0  0  0
 23 33  1  0  0  0  0
 24 25  1  1  0  0  0
 24 27  1  0  0  0  0
 26 29  1  6  0  0  0
 26 31  1  0  0  0  0
 27 28  1  0  0  0  0
 29 30  2  0  0  0  0
 31 32  1  0  0  0  0
 33 32  1  6  0  0  0
 34 36  1  0  0  0  0
 34 42  1  0  0  0  0
 36 37  1  6  0  0  0
 36 39  1  0  0  0  0
 40 39  1  1  0  0  0
 40 41  1  0  0  0  0
 40 46  1  0  0  0  0
 41 42  1  1  0  0  0
 41 44  1  0  0  0  0
 42 43  2  0  0  0  0
 44 45  1  0  0  0  0
 46 45  1  6  0  0  0
M  CHG  2   3  -1  35  -1
M  END
>  <CHROM.1>
-154.89240289,-32.90904946,-18.04112881,-10.07655878,16.60407497,0.22712596
-1.07170923,0.00904621

>  <Name>
ligand

>  <RI>
0

>  <Rbt.Current_Directory>
/home/itssahil/PROJECTS/Mol_Feturizer/Test_systems_manuscript/rnas/3mum

>  <Rbt.Executable>
rbdock ($Id: //depot/dev/client3/rdock/2013.1/src/exe/rbdock.cxx#4 $)

>  <Rbt.Library>
libRbt.so (2013.1, Build901 2013/11/27)

>  <Rbt.Parameter_File>
/export/apps/rDock/src/rDock_2013.1_src/data/scripts/dock_solv.prm

>  <Rbt.Receptor>
prm/blind_docking_60.prm

>  <SCORE>
1.74347

>  <SCORE.INTER>
-2.62061

>  <SCORE.INTER.CONST>
1

>  <SCORE.INTER.POLAR>
0

>  <SCORE.INTER.ROT>
2

>  <SCORE.INTER.SOLV>
38.8425

>  <SCORE.INTER.VDW>
-19.6279

>  <SCORE.INTER.norm>
-0.0569698

>  <SCORE.INTRA>
4.35449

>  <SCORE.INTRA.DIHEDRAL>
0.0264028

>  <SCORE.INTRA.DIHEDRAL.0>
2.40424

>  <SCORE.INTRA.POLAR>
0

>  <SCORE.INTRA.POLAR.0>
0

>  <SCORE.INTRA.REPUL>
0

>  <SCORE.INTRA.REPUL.0>
0

>  <SCORE.INTRA.SOLV>
11.9407

>  <SCORE.INTRA.SOLV.lig_0>
-134.169

>  <SCORE.INTRA.VDW>
-1.62907

>  <SCORE.INTRA.VDW.0>
-2.18386

>  <SCORE.INTRA.norm>
0.0946628

>  <SCORE.RESTR>
0.00958801

>  <SCORE.RESTR.CAVITY>
0.00958801

>  <SCORE.RESTR.norm>
0.000208435

>  <SCORE.SYSTEM>
0

>  <SCORE.SYSTEM.CONST>
0

>  <SCORE.SYSTEM.DIHEDRAL>
0

>  <SCORE.SYSTEM.SOLV>
0

>  <SCORE.SYSTEM.norm>
0

>  <SCORE.heavy>
46

>  <SCORE.norm>
0.0379015

>  <RMSD>
16.017

$$$$
ligand
 OpenBabel02271912143D
libRbt.so/2013.1/901 2013/11/27
 46 52  0  0  0  0  0  0  0  0999 V2000
  -19.2961   -9.9656   21.5201 P   0  0  1  0  0  0  0  0  0  0  0  0
  -15.5775   -7.9234   17.4363 P   0  0  2  0  0  0  0  0  0  0  0  0
  -19.8650  -11.5847   21.0767 O   0  5  0  0  0  0  0  0  0  0  0  0
  -19.9227   -9.4614   23.1115 O   0  0  0  0  0  0  0  0  0  0  0  0
  -16.9362   -8.7828   21.7547 C   0  0  0  0  0  0  0  0  0  0  0  0
  -17.6840   -9.9787   21.5335 O   0  0  0  0  0  0  0  0  0  0  0  0
  -15.5249   -8.9927   21.2400 C   0  0  1  0  0  0  0  0  0  0  0  0
  -14.9746  -10.1810   21.8257 O   0  0  0  0  0  0  0  0  0  0  0  0
  -15.4604   -9.2117   19.7372 C   0  0  1  0  0  0  0  0  0  0  0  0
  -15.2872   -7.9897   19.0232 O   0  0  0  0  0  0  0  0  0  0  0  0
  -14.2688  -10.1389   19.5746 C   0  0  1  0  0  0  0  0  0  0  0  0
  -13.0683   -9.3748   19.4353 O   0  0  0  0  0  0  0  0  0  0  0  0
  -14.1969  -10.9220   20.8723 C   0  0  2  0  0  0  0  0  0  0  0  0
  -20.4894   -9.4164   16.9648 C   0  0  1  0  0  0  0  0  0  0  0  0
  -16.9445  -14.2926   17.8256 N   0  0  0  0  0  0  0  0  0  0  0  0
  -16.5940  -13.0014   17.5755 C   0  0  1  0  0  0  0  0  0  0  0  0
  -20.3497   -9.9880   18.3472 C   0  0  2  0  0  0  0  0  0  0  0  0
  -16.9762  -12.4512   16.3999 N   0  0  0  0  0  0  0  0  0  0  0  0
  -21.6408   -9.9014   18.9528 O   0  0  0  0  0  0  0  0  0  0  0  0
  -19.3370   -9.0935   19.0343 C   0  0  2  0  0  0  0  0  0  0  0  0
  -15.8795  -12.2443   18.4603 N   0  0  0  0  0  0  0  0  0  0  0  0
  -19.6693   -8.8741   20.3984 O   0  0  0  0  0  0  0  0  0  0  0  0
  -15.4710  -12.7502   19.6514 C   0  0  2  0  0  0  0  0  0  0  0  0
  -19.3910   -7.7856   18.2694 C   0  0  2  0  0  0  0  0  0  0  0  0
  -19.9314   -8.1033   16.9879 O   0  0  0  0  0  0  0  0  0  0  0  0
  -15.8268  -14.1431   19.9734 C   0  0  1  0  0  0  0  0  0  0  0  0
  -18.0190   -7.1432   18.0977 C   0  0  0  0  0  0  0  0  0  0  0  0
  -17.1820   -8.0231   17.3447 O   0  0  0  0  0  0  0  0  0  0  0  0
  -16.5985  -14.9093   18.9786 C   0  0  0  0  0  0  0  0  0  0  0  0
  -16.9553  -16.1961   19.2214 O   0  0  0  0  0  0  0  0  0  0  0  0
  -15.3242  -14.4025   21.1855 N   0  0  0  0  0  0  0  0  0  0  0  0
  -14.6950  -13.2699   21.6154 C   0  0  0  0  0  0  0  0  0  0  0  0
  -14.7806  -12.2791   20.7029 N   0  0  1  0  0  0  0  0  0  0  0  0
  -18.5101   -9.7046   12.1307 N   0  0  0  0  0  0  0  0  0  0  0  0
  -14.8153   -9.2870   16.5760 O   0  5  0  0  0  0  0  0  0  0  0  0
  -19.1458   -8.6735   12.7518 C   0  0  2  0  0  0  0  0  0  0  0  0
  -19.3270   -7.5057   12.0815 N   0  0  0  0  0  0  0  0  0  0  0  0
  -15.0688   -6.3956   16.6913 O   0  0  0  0  0  0  0  0  0  0  0  0
  -19.6072   -8.7743   14.0282 N   0  0  0  0  0  0  0  0  0  0  0  0
  -19.4507   -9.9092   14.7491 C   0  0  2  0  0  0  0  0  0  0  0  0
  -18.7747  -11.0579   14.1318 C   0  0  2  0  0  0  0  0  0  0  0  0
  -18.3008  -10.8902   12.7413 C   0  0  0  0  0  0  0  0  0  0  0  0
  -17.6683  -11.8960   12.0880 O   0  0  0  0  0  0  0  0  0  0  0  0
  -18.7665  -12.0411   15.0535 N   0  0  0  0  0  0  0  0  0  0  0  0
  -19.3841  -11.5577   16.1725 C   0  0  0  0  0  0  0  0  0  0  0  0
  -19.7934  -10.2828   15.9834 N   0  0  1  0  0  0  0  0  0  0  0  0
  1  3  1  6  0  0  0
  1  4  2  0  0  0  0
  1  6  1  0  0  0  0
  1 22  1  0  0  0  0
  2 28  1  0  0  0  0
  2 35  1  6  0  0  0
  2 38  2  0  0  0  0
  2 10  1  0  0  0  0
  5  6  1  0  0  0  0
  7  5  1  1  0  0  0
  7  8  1  0  0  0  0
  7  9  1  0  0  0  0
  9 10  1  6  0  0  0
  9 11  1  0  0  0  0
 11 12  1  1  0  0  0
 11 13  1  0  0  0  0
 13  8  1  1  0  0  0
 13 33  1  0  0  0  0
 14 46  1  0  0  0  0
 14 17  1  0  0  0  0
 14 25  1  1  0  0  0
 15 16  1  0  0  0  0
 15 29  1  0  0  0  0
 16 18  1  1  0  0  0
 16 21  1  0  0  0  0
 17 19  1  1  0  0  0
 17 20  1  0  0  0  0
 20 22  1  1  0  0  0
 20 24  1  0  0  0  0
 23 21  1  1  0  0  0
 23 26  1  0  0  0  0
 23 33  1  0  0  0  0
 24 25  1  6  0  0  0
 24 27  1  0  0  0  0
 26 29  1  6  0  0  0
 26 31  1  0  0  0  0
 27 28  1  0  0  0  0
 29 30  2  0  0  0  0
 31 32  1  0  0  0  0
 33 32  1  6  0  0  0
 34 36  1  0  0  0  0
 34 42  1  0  0  0  0
 36 37  1  1  0  0  0
 36 39  1  0  0  0  0
 40 39  1  6  0  0  0
 40 41  1  0  0  0  0
 40 46  1  0  0  0  0
 41 42  1  6  0  0  0
 41 44  1  0  0  0  0
 42 43  2  0  0  0  0
 44 45  1  0  0  0  0
 46 45  1  1  0  0  0
M  CHG  2   3  -1  35  -1
M  END
>  <CHROM.1>
107.00501695,-162.97884559,-17.44990738,-10.31463800,18.15677252,0.73927612
-1.08568922,1.07863814

>  <Name>
ligand

>  <RI>
-1

>  <Rbt.Current_Directory>
/home/itssahil/PROJECTS/Mol_Feturizer/Test_systems_manuscript/rnas/3mum

>  <Rbt.Executable>
rbdock ($Id: //depot/dev/client3/rdock/2013.1/src/exe/rbdock.cxx#4 $)

>  <Rbt.Library>
libRbt.so (2013.1, Build901 2013/11/27)

>  <Rbt.Parameter_File>
/export/apps/rDock/src/rDock_2013.1_src/data/scripts/dock_solv.prm

>  <Rbt.Receptor>
prm/blind_docking_80.prm

>  <SCORE>
23.7887

>  <SCORE.INTER>
18.0707

>  <SCORE.INTER.CONST>
1

>  <SCORE.INTER.POLAR>
0

>  <SCORE.INTER.ROT>
2

>  <SCORE.INTER.SOLV>
30.3011

>  <SCORE.INTER.VDW>
-2.9866

>  <SCORE.INTER.norm>
0.392841

>  <SCORE.INTRA>
5.30387

>  <SCORE.INTRA.DIHEDRAL>
0.0190846

>  <SCORE.INTRA.DIHEDRAL.0>
2.40424

>  <SCORE.INTRA.POLAR>
0

>  <SCORE.INTRA.POLAR.0>
0

>  <SCORE.INTRA.REPUL>
0

>  <SCORE.INTRA.REPUL.0>
0

>  <SCORE.INTRA.SOLV>
4.91089

>  <SCORE.INTRA.SOLV.lig_0>
-134.169

>  <SCORE.INTRA.VDW>
2.83888

>  <SCORE.INTRA.VDW.0>
-2.18386

>  <SCORE.INTRA.norm>
0.115301

>  <SCORE.RESTR>
0.414154

>  <SCORE.RESTR.CAVITY>
0.414154

>  <SCORE.RESTR.norm>
0.00900335

>  <SCORE.SYSTEM>
0

>  <SCORE.SYSTEM.CONST>
0

>  <SCORE.SYSTEM.DIHEDRAL>
0

>  <SCORE.SYSTEM.SOLV>
0

>  <SCORE.SYSTEM.norm>
0

>  <SCORE.heavy>
46

>  <SCORE.norm>
0.517146

>  <RMSD>
16.021

$$$$
ligand
 OpenBabel02271912143D
libRbt.so/2013.1/901 2013/11/27
 46 52  0  0  0  0  0  0  0  0999 V2000
  -15.8785   -6.9935   16.4391 P   0  0  1  0  0  0  0  0  0  0  0  0
  -20.1285   -9.9055   19.2911 P   0  0  2  0  0  0  0  0  0  0  0  0
  -14.8971   -8.1199   15.4852 O   0  5  0  0  0  0  0  0  0  0  0  0
  -15.3716   -5.3029   16.1861 O   0  0  0  0  0  0  0  0  0  0  0  0
  -18.4659   -6.4804   16.6954 C   0  0  0  0  0  0  0  0  0  0  0  0
  -17.4233   -7.1822   16.0179 O   0  0  0  0  0  0  0  0  0  0  0  0
  -19.7780   -7.1959   16.4365 C   0  0  1  0  0  0  0  0  0  0  0  0
  -19.9622   -7.3592   15.0232 O   0  0  0  0  0  0  0  0  0  0  0  0
  -19.8213   -8.5997   17.0178 C   0  0  1  0  0  0  0  0  0  0  0  0
  -20.3450   -8.6161   18.3439 O   0  0  0  0  0  0  0  0  0  0  0  0
  -20.7145   -9.3487   16.0446 C   0  0  1  0  0  0  0  0  0  0  0  0
  -22.0827   -9.2272   16.4416 O   0  0  0  0  0  0  0  0  0  0  0  0
  -20.5313   -8.6413   14.7147 C   0  0  2  0  0  0  0  0  0  0  0  0
  -15.0104  -10.4714   19.5419 C   0  0  1  0  0  0  0  0  0  0  0  0
  -19.8135  -12.6589   11.3182 N   0  0  0  0  0  0  0  0  0  0  0  0
  -20.9486  -12.2733   11.9626 C   0  0  1  0  0  0  0  0  0  0  0  0
  -14.9483   -9.5931   18.3245 C   0  0  2  0  0  0  0  0  0  0  0  0
  -22.0807  -12.9808   11.7426 N   0  0  0  0  0  0  0  0  0  0  0  0
  -13.7151   -8.8764   18.4055 O   0  0  0  0  0  0  0  0  0  0  0  0
  -16.1492   -8.6764   18.4482 C   0  0  2  0  0  0  0  0  0  0  0  0
  -20.9878  -11.2095   12.8190 N   0  0  0  0  0  0  0  0  0  0  0  0
  -15.8526   -7.3589   18.0058 O   0  0  0  0  0  0  0  0  0  0  0  0
  -19.8804  -10.4669   13.0716 C   0  0  2  0  0  0  0  0  0  0  0  0
  -16.4798   -8.6657   19.9277 C   0  0  2  0  0  0  0  0  0  0  0  0
  -15.9085   -9.8573   20.4653 O   0  0  0  0  0  0  0  0  0  0  0  0
  -18.6235  -10.8438   12.4017 C   0  0  1  0  0  0  0  0  0  0  0  0
  -17.9800   -8.6538   20.1990 C   0  0  0  0  0  0  0  0  0  0  0  0
  -18.5620   -9.8416   19.6584 O   0  0  0  0  0  0  0  0  0  0  0  0
  -18.6443  -12.0006   11.4887 C   0  0  0  0  0  0  0  0  0  0  0  0
  -17.5162  -12.3941   10.8448 O   0  0  0  0  0  0  0  0  0  0  0  0
  -17.6899   -9.9780   12.8113 N   0  0  0  0  0  0  0  0  0  0  0  0
  -18.2916   -9.1112   13.6775 C   0  0  0  0  0  0  0  0  0  0  0  0
  -19.6003   -9.3995   13.8374 N   0  0  1  0  0  0  0  0  0  0  0  0
  -17.6637  -13.2941   16.0262 N   0  0  0  0  0  0  0  0  0  0  0  0
  -20.5080  -11.4198   18.4287 O   0  5  0  0  0  0  0  0  0  0  0  0
  -17.4356  -11.9530   16.0736 C   0  0  2  0  0  0  0  0  0  0  0  0
  -17.9359  -11.1598   15.0904 N   0  0  0  0  0  0  0  0  0  0  0  0
  -21.0598   -9.8348   20.7996 O   0  0  0  0  0  0  0  0  0  0  0  0
  -16.7190  -11.3780   17.0776 N   0  0  0  0  0  0  0  0  0  0  0  0
  -16.1897  -12.1163   18.0811 C   0  0  2  0  0  0  0  0  0  0  0  0
  -16.4045  -13.5694   18.0863 C   0  0  2  0  0  0  0  0  0  0  0  0
  -17.1957  -14.1351   16.9727 C   0  0  0  0  0  0  0  0  0  0  0  0
  -17.4482  -15.4650   16.8942 O   0  0  0  0  0  0  0  0  0  0  0  0
  -15.7884  -14.0460   19.1862 N   0  0  0  0  0  0  0  0  0  0  0  0
  -15.2213  -12.9827   19.8303 C   0  0  0  0  0  0  0  0  0  0  0  0
  -15.4670  -11.8308   19.1658 N   0  0  1  0  0  0  0  0  0  0  0  0
  1  3  1  6  0  0  0
  1  4  2  0  0  0  0
  1  6  1  0  0  0  0
  1 22  1  0  0  0  0
  2 28  1  0  0  0  0
  2 35  1  6  0  0  0
  2 38  2  0  0  0  0
  2 10  1  0  0  0  0
  5  6  1  0  0  0  0
  7  5  1  6  0  0  0
  7  8  1  0  0  0  0
  7  9  1  0  0  0  0
  9 10  1  1  0  0  0
  9 11  1  0  0  0  0
 11 12  1  1  0  0  0
 11 13  1  0  0  0  0
 13  8  1  1  0  0  0
 13 33  1  0  0  0  0
 14 46  1  0  0  0  0
 14 17  1  0  0  0  0
 14 25  1  1  0  0  0
 15 16  1  0  0  0  0
 15 29  1  0  0  0  0
 16 18  1  1  0  0  0
 16 21  1  0  0  0  0
 17 19  1  1  0  0  0
 17 20  1  0  0  0  0
 20 22  1  1  0  0  0
 20 24  1  0  0  0  0
 23 21  1  1  0  0  0
 23 26  1  0  0  0  0
 23 33  1  0  0  0  0
 24 25  1  1  0  0  0
 24 27  1  0  0  0  0
 26 29  1  6  0  0  0
 26 31  1  0  0  0  0
 27 28  1  0  0  0  0
 29 30  2  0  0  0  0
 31 32  1  0  0  0  0
 33 32  1  6  0  0  0
 34 36  1  0  0  0  0
 34 42  1  0  0  0  0
 36 37  1  6  0  0  0
 36 39  1  0  0  0  0
 40 39  1  1  0  0  0
 40 41  1  0  0  0  0
 40 46  1  0  0  0  0
 41 42  1  1  0  0  0
 41 44  1  0  0  0  0
 42 43  2  0  0  0  0
 44 45  1  0  0  0  0
 46 45  1  6  0  0  0
M  CHG  2   3  -1  35  -1
M  END
>  <CHROM.1>
-162.19463607,-23.79808174,-18.02359641,-10.08783749,16.53807372,0.41257204
-1.04967091,0.16921201

>  <Name>
ligand

>  <RI>
0

>  <Rbt.Current_Directory>
/home/itssahil/PROJECTS/Mol_Feturizer/Test_systems_manuscript/rnas/3mum

>  <Rbt.Executable>
rbdock ($Id: //depot/dev/client3/rdock/2013.1/src/exe/rbdock.cxx#4 $)

>  <Rbt.Library>
libRbt.so (2013.1, Build901 2013/11/27)

>  <Rbt.Parameter_File>
/export/apps/rDock/src/rDock_2013.1_src/data/scripts/dock_solv.prm

>  <Rbt.Receptor>
prm/blind_docking_60.prm

>  <SCORE>
4.63292

>  <SCORE.INTER>
0.175494

>  <SCORE.INTER.CONST>
1

>  <SCORE.INTER.POLAR>
0

>  <SCORE.INTER.ROT>
2

>  <SCORE.INTER.SOLV>
39.6992

>  <SCORE.INTER.VDW>
-18.0494

>  <SCORE.INTER.norm>
0.00381509

>  <SCORE.INTRA>
4.45742

>  <SCORE.INTRA.DIHEDRAL>
0.0249819

>  <SCORE.INTRA.DIHEDRAL.0>
2.40424

>  <SCORE.INTRA.POLAR>
0

>  <SCORE.INTRA.POLAR.0>
0

>  <SCORE.INTRA.REPUL>
0

>  <SCORE.INTRA.REPUL.0>
0

>  <SCORE.INTRA.SOLV>
9.16408

>  <SCORE.INTRA.SOLV.lig_0>
-134.169

>  <SCORE.INTRA.VDW>
-0.137108

>  <SCORE.INTRA.VDW.0>
-2.18386

>  <SCORE.INTRA.norm>
0.0969005

>  <SCORE.RESTR>
0

>  <SCORE.RESTR.CAVITY>
0

>  <SCORE.RESTR.norm>
0

>  <SCORE.SYSTEM>
0

>  <SCORE.SYSTEM.CONST>
0

>  <SCORE.SYSTEM.DIHEDRAL>
0

>  <SCORE.SYSTEM.SOLV>
0

>  <SCORE.SYSTEM.norm>
0

>  <SCORE.heavy>
46

>  <SCORE.norm>
0.100716

>  <RMSD>
16.022

$$$$
ligand
 OpenBabel02271912143D
libRbt.so/2013.1/901 2013/11/27
 46 52  0  0  0  0  0  0  0  0999 V2000
  -19.6661   -9.7107   20.0179 P   0  0  1  0  0  0  0  0  0  0  0  0
  -15.6766   -7.4111   16.3475 P   0  0  2  0  0  0  0  0  0  0  0  0
  -20.0900  -11.3553   19.5106 O   0  5  0  0  0  0  0  0  0  0  0  0
  -20.4807   -9.2611   21.5389 O   0  0  0  0  0  0  0  0  0  0  0  0
  -17.4165   -8.3950   20.4993 C   0  0  0  0  0  0  0  0  0  0  0  0
  -18.0658   -9.6300   20.1967 O   0  0  0  0  0  0  0  0  0  0  0  0
  -15.9501   -8.5167   20.1312 C   0  0  1  0  0  0  0  0  0  0  0  0
  -15.3933   -9.6772   20.7646 O   0  0  0  0  0  0  0  0  0  0  0  0
  -15.7194   -8.7152   18.6420 C   0  0  1  0  0  0  0  0  0  0  0  0
  -15.5466   -7.4775   17.9554 O   0  0  0  0  0  0  0  0  0  0  0  0
  -14.4648   -9.5696   18.5982 C   0  0  1  0  0  0  0  0  0  0  0  0
  -13.3036   -8.7354   18.5865 O   0  0  0  0  0  0  0  0  0  0  0  0
  -14.4798  -10.3612   19.8926 C   0  0  2  0  0  0  0  0  0  0  0  0
  -20.4177   -9.1826   15.3668 C   0  0  1  0  0  0  0  0  0  0  0  0
  -14.0194  -15.5349   20.9945 N   0  0  0  0  0  0  0  0  0  0  0  0
  -13.2998  -14.4872   21.4814 C   0  0  1  0  0  0  0  0  0  0  0  0
  -20.3866   -9.7600   16.7534 C   0  0  2  0  0  0  0  0  0  0  0  0
  -12.3162  -14.7464   22.3735 N   0  0  0  0  0  0  0  0  0  0  0  0
  -21.7356   -9.7553   17.2236 O   0  0  0  0  0  0  0  0  0  0  0  0
  -19.5040   -8.8155   17.5452 C   0  0  2  0  0  0  0  0  0  0  0  0
  -13.5287  -13.1940   21.1044 N   0  0  0  0  0  0  0  0  0  0  0  0
  -19.9865   -8.6307   18.8690 O   0  0  0  0  0  0  0  0  0  0  0  0
  -14.5045  -12.8816   20.2146 C   0  0  2  0  0  0  0  0  0  0  0  0
  -19.5567   -7.5048   16.7852 C   0  0  2  0  0  0  0  0  0  0  0  0
  -19.9435   -7.8395   15.4534 O   0  0  0  0  0  0  0  0  0  0  0  0
  -15.3113  -13.9795   19.6542 C   0  0  1  0  0  0  0  0  0  0  0  0
  -18.2148   -6.7817   16.7584 C   0  0  0  0  0  0  0  0  0  0  0  0
  -17.2546   -7.6031   16.0910 O   0  0  0  0  0  0  0  0  0  0  0  0
  -15.0173  -15.3533   20.0997 C   0  0  0  0  0  0  0  0  0  0  0  0
  -15.7274  -16.4042   19.6166 O   0  0  0  0  0  0  0  0  0  0  0  0
  -16.1886  -13.4257   18.8100 N   0  0  0  0  0  0  0  0  0  0  0  0
  -15.9679  -12.0785   18.8207 C   0  0  0  0  0  0  0  0  0  0  0  0
  -14.9619  -11.7481   19.6576 N   0  0  1  0  0  0  0  0  0  0  0  0
  -20.2853  -11.8531   10.8702 N   0  0  0  0  0  0  0  0  0  0  0  0
  -14.7512   -8.7186   15.5634 O   0  5  0  0  0  0  0  0  0  0  0  0
  -21.3163  -11.1853   11.4567 C   0  0  2  0  0  0  0  0  0  0  0  0
  -22.5259  -11.1573   10.8386 N   0  0  0  0  0  0  0  0  0  0  0  0
  -15.1856   -5.8482   15.6659 O   0  0  0  0  0  0  0  0  0  0  0  0
  -21.1743  -10.5411   12.6472 N   0  0  0  0  0  0  0  0  0  0  0  0
  -19.9928  -10.5277   13.3074 C   0  0  2  0  0  0  0  0  0  0  0  0
  -18.8435  -11.2336   12.7256 C   0  0  2  0  0  0  0  0  0  0  0  0
  -19.0606  -11.9196   11.4340 C   0  0  0  0  0  0  0  0  0  0  0  0
  -18.0597  -12.5992   10.8218 O   0  0  0  0  0  0  0  0  0  0  0  0
  -17.8164  -11.0696   13.5827 N   0  0  0  0  0  0  0  0  0  0  0  0
  -18.2718  -10.3151   14.6270 C   0  0  0  0  0  0  0  0  0  0  0  0
  -19.5751   -9.9962   14.4579 N   0  0  1  0  0  0  0  0  0  0  0  0
  1  3  1  6  0  0  0
  1  4  2  0  0  0  0
  1  6  1  0  0  0  0
  1 22  1  0  0  0  0
  2 28  1  0  0  0  0
  2 35  1  6  0  0  0
  2 38  2  0  0  0  0
  2 10  1  0  0  0  0
  5  6  1  0  0  0  0
  7  5  1  6  0  0  0
  7  8  1  0  0  0  0
  7  9  1  0  0  0  0
  9 10  1  6  0  0  0
  9 11  1  0  0  0  0
 11 12  1  1  0  0  0
 11 13  1  0  0  0  0
 13  8  1  1  0  0  0
 13 33  1  0  0  0  0
 14 46  1  0  0  0  0
 14 17  1  0  0  0  0
 14 25  1  1  0  0  0
 15 16  1  0  0  0  0
 15 29  1  0  0  0  0
 16 18  1  6  0  0  0
 16 21  1  0  0  0  0
 17 19  1  1  0  0  0
 17 20  1  0  0  0  0
 20 22  1  1  0  0  0
 20 24  1  0  0  0  0
 23 21  1  6  0  0  0
 23 26  1  0  0  0  0
 23 33  1  0  0  0  0
 24 25  1  6  0  0  0
 24 27  1  0  0  0  0
 26 29  1  1  0  0  0
 26 31  1  0  0  0  0
 27 28  1  0  0  0  0
 29 30  2  0  0  0  0
 31 32  1  0  0  0  0
 33 32  1  1  0  0  0
 34 36  1  0  0  0  0
 34 42  1  0  0  0  0
 36 37  1  6  0  0  0
 36 39  1  0  0  0  0
 40 39  1  1  0  0  0
 40 41  1  0  0  0  0
 40 46  1  0  0  0  0
 41 42  1  1  0  0  0
 41 44  1  0  0  0  0
 42 43  2  0  0  0  0
 44 45  1  0  0  0  0
 46 45  1  6  0  0  0
M  CHG  2   3  -1  35  -1
M  END
>  <CHROM.1>
-102.59539804,125.99401601,-17.43595036,-10.37568871,17.35024424,0.13143603
-0.96415724,0.47829669

>  <Name>
ligand

>  <RI>
-1

>  <Rbt.Current_Directory>
/home/itssahil/PROJECTS/Mol_Feturizer/Test_systems_manuscript/rnas/3mum

>  <Rbt.Executable>
rbdock ($Id: //depot/dev/client3/rdock/2013.1/src/exe/rbdock.cxx#4 $)

>  <Rbt.Library>
libRbt.so (2013.1, Build901 2013/11/27)

>  <Rbt.Parameter_File>
/export/apps/rDock/src/rDock_2013.1_src/data/scripts/dock_solv.prm

>  <Rbt.Receptor>
prm/blind_docking_100.prm

>  <SCORE>
3.27273

>  <SCORE.INTER>
0.156869

>  <SCORE.INTER.CONST>
1

>  <SCORE.INTER.POLAR>
0

>  <SCORE.INTER.ROT>
2

>  <SCORE.INTER.SOLV>
34.923

>  <SCORE.INTER.VDW>
-16.4697

>  <SCORE.INTER.norm>
0.00341019

>  <SCORE.INTRA>
-0.0572522

>  <SCORE.INTRA.DIHEDRAL>
-0.0149972

>  <SCORE.INTRA.DIHEDRAL.0>
2.40424

>  <SCORE.INTRA.POLAR>
0

>  <SCORE.INTRA.POLAR.0>
0

>  <SCORE.INTRA.REPUL>
0

>  <SCORE.INTRA.REPUL.0>
0

>  <SCORE.INTRA.SOLV>
0.0125637

>  <SCORE.INTRA.SOLV.lig_0>
-134.169

>  <SCORE.INTRA.VDW>
-0.0560355

>  <SCORE.INTRA.VDW.0>
-2.18386

>  <SCORE.INTRA.norm>
-0.00124461

>  <SCORE.RESTR>
3.17311

>  <SCORE.RESTR.CAVITY>
3.17311

>  <SCORE.RESTR.norm>
0.0689806

>  <SCORE.SYSTEM>
0

>  <SCORE.SYSTEM.CONST>
0

>  <SCORE.SYSTEM.DIHEDRAL>
0

>  <SCORE.SYSTEM.SOLV>
0

>  <SCORE.SYSTEM.norm>
0

>  <SCORE.heavy>
46

>  <SCORE.norm>
0.0711462

>  <RMSD>
16.023

$$$$
ligand
 OpenBabel02271912143D
libRbt.so/2013.1/901 2013/11/27
 46 52  0  0  0  0  0  0  0  0999 V2000
  -15.8500   -7.0183   16.4351 P   0  0  1  0  0  0  0  0  0  0  0  0
  -20.0935   -9.8921   19.3351 P   0  0  2  0  0  0  0  0  0  0  0  0
  -14.8772   -8.1561   15.4859 O   0  5  0  0  0  0  0  0  0  0  0  0
  -15.3393   -5.3315   16.1647 O   0  0  0  0  0  0  0  0  0  0  0  0
  -18.4343   -6.4950   16.7008 C   0  0  0  0  0  0  0  0  0  0  0  0
  -17.3976   -7.2058   16.0239 O   0  0  0  0  0  0  0  0  0  0  0  0
  -19.7501   -7.2086   16.4551 C   0  0  1  0  0  0  0  0  0  0  0  0
  -19.9423   -7.3836   15.0443 O   0  0  0  0  0  0  0  0  0  0  0  0
  -19.7945   -8.6071   17.0489 C   0  0  1  0  0  0  0  0  0  0  0  0
  -20.3112   -8.6102   18.3779 O   0  0  0  0  0  0  0  0  0  0  0  0
  -20.6952   -9.3617   16.0870 C   0  0  1  0  0  0  0  0  0  0  0  0
  -22.0609   -9.2325   16.4903 O   0  0  0  0  0  0  0  0  0  0  0  0
  -20.5170   -8.6665   14.7500 C   0  0  2  0  0  0  0  0  0  0  0  0
  -14.9759  -10.4717   19.5635 C   0  0  1  0  0  0  0  0  0  0  0  0
  -19.8972  -12.4738   11.1013 N   0  0  0  0  0  0  0  0  0  0  0  0
  -21.0384  -12.0412   11.7039 C   0  0  1  0  0  0  0  0  0  0  0  0
  -14.9177   -9.6043   18.3382 C   0  0  2  0  0  0  0  0  0  0  0  0
  -22.2062  -12.6325   11.3615 N   0  0  0  0  0  0  0  0  0  0  0  0
  -13.6818   -8.8908   18.4063 O   0  0  0  0  0  0  0  0  0  0  0  0
  -16.1150   -8.6828   18.4602 C   0  0  2  0  0  0  0  0  0  0  0  0
  -21.0496  -11.0428   12.6364 N   0  0  0  0  0  0  0  0  0  0  0  0
  -15.8168   -7.3701   18.0048 O   0  0  0  0  0  0  0  0  0  0  0  0
  -19.9057  -10.4169   13.0124 C   0  0  2  0  0  0  0  0  0  0  0  0
  -16.4376   -8.6582   19.9414 C   0  0  2  0  0  0  0  0  0  0  0  0
  -15.8671   -9.8468   20.4863 O   0  0  0  0  0  0  0  0  0  0  0  0
  -18.6411  -10.8492   12.3926 C   0  0  1  0  0  0  0  0  0  0  0  0
  -17.9364   -8.6392   20.2206 C   0  0  0  0  0  0  0  0  0  0  0  0
  -18.5249   -9.8299   19.6934 O   0  0  0  0  0  0  0  0  0  0  0  0
  -18.6932  -11.9309   11.3929 C   0  0  0  0  0  0  0  0  0  0  0  0
  -17.5597  -12.3709   10.7899 O   0  0  0  0  0  0  0  0  0  0  0  0
  -17.6708  -10.0975   12.9240 N   0  0  0  0  0  0  0  0  0  0  0  0
  -18.2577   -9.2480   13.8169 C   0  0  0  0  0  0  0  0  0  0  0  0
  -19.5931   -9.4353   13.8744 N   0  0  1  0  0  0  0  0  0  0  0  0
  -18.0759  -13.2579   16.4020 N   0  0  0  0  0  0  0  0  0  0  0  0
  -20.4823  -11.4126   18.4879 O   0  5  0  0  0  0  0  0  0  0  0  0
  -17.8928  -11.9112   16.4771 C   0  0  2  0  0  0  0  0  0  0  0  0
  -18.5800  -11.1000   15.6311 N   0  0  0  0  0  0  0  0  0  0  0  0
  -21.0165   -9.8053   20.8479 O   0  0  0  0  0  0  0  0  0  0  0  0
  -17.0395  -11.3481   17.3754 N   0  0  0  0  0  0  0  0  0  0  0  0
  -16.3223  -12.1040   18.2393 C   0  0  2  0  0  0  0  0  0  0  0  0
  -16.4793  -13.5642   18.2083 C   0  0  2  0  0  0  0  0  0  0  0  0
  -17.4249  -14.1167   17.2150 C   0  0  0  0  0  0  0  0  0  0  0  0
  -17.6378  -15.4520   17.1139 O   0  0  0  0  0  0  0  0  0  0  0  0
  -15.6701  -14.0591   19.1657 N   0  0  0  0  0  0  0  0  0  0  0  0
  -15.0425  -13.0000   19.7584 C   0  0  0  0  0  0  0  0  0  0  0  0
  -15.4387  -11.8329   19.2017 N   0  0  1  0  0  0  0  0  0  0  0  0
  1  3  1  6  0  0  0
  1  4  2  0  0  0  0
  1  6  1  0  0  0  0
  1 22  1  0  0  0  0
  2 28  1  0  0  0  0
  2 35  1  6  0  0  0
  2 38  2  0  0  0  0
  2 10  1  0  0  0  0
  5  6  1  0  0  0  0
  7  5  1  6  0  0  0
  7  8  1  0  0  0  0
  7  9  1  0  0  0  0
  9 10  1  1  0  0  0
  9 11  1  0  0  0  0
 11 12  1  1  0  0  0
 11 13  1  0  0  0  0
 13  8  1  1  0  0  0
 13 33  1  0  0  0  0
 14 46  1  0  0  0  0
 14 17  1  0  0  0  0
 14 25  1  1  0  0  0
 15 16  1  0  0  0  0
 15 29  1  0  0  0  0
 16 18  1  1  0  0  0
 16 21  1  0  0  0  0
 17 19  1  1  0  0  0
 17 20  1  0  0  0  0
 20 22  1  1  0  0  0
 20 24  1  0  0  0  0
 23 21  1  1  0  0  0
 23 26  1  0  0  0  0
 23 33  1  0  0  0  0
 24 25  1  1  0  0  0
 24 27  1  0  0  0  0
 26 29  1  6  0  0  0
 26 31  1  0  0  0  0
 27 28  1  0  0  0  0
 29 30  2  0  0  0  0
 31 32  1  0  0  0  0
 33 32  1  6  0  0  0
 34 36  1  0  0  0  0
 34 42  1  0  0  0  0
 36 37  1  6  0  0  0
 36 39  1  0  0  0  0
 40 39  1  1  0  0  0
 40 41  1  0  0  0  0
 40 46  1  0  0  0  0
 41 42  1  1  0  0  0
 41 44  1  0  0  0  0
 42 43  2  0  0  0  0
 44 45  1  0  0  0  0
 46 45  1  6  0  0  0
M  CHG  2   3  -1  35  -1
M  END
>  <CHROM.1>
-154.47822548,-33.94858983,-18.05723704,-10.07235870,16.57637044,0.20870386
-1.07174641,-0.01030387

>  <Name>
ligand

>  <RI>
0

>  <Rbt.Current_Directory>
/home/itssahil/PROJECTS/Mol_Feturizer/Test_systems_manuscript/rnas/3mum

>  <Rbt.Executable>
rbdock ($Id: //depot/dev/client3/rdock/2013.1/src/exe/rbdock.cxx#4 $)

>  <Rbt.Library>
libRbt.so (2013.1, Build901 2013/11/27)

>  <Rbt.Parameter_File>
/export/apps/rDock/src/rDock_2013.1_src/data/scripts/dock_solv.prm

>  <Rbt.Receptor>
prm/blind_docking_60.prm

>  <SCORE>
1.78587

>  <SCORE.INTER>
-2.65061

>  <SCORE.INTER.CONST>
1

>  <SCORE.INTER.POLAR>
0

>  <SCORE.INTER.ROT>
2

>  <SCORE.INTER.SOLV>
38.8509

>  <SCORE.INTER.VDW>
-19.6507

>  <SCORE.INTER.norm>
-0.0576219

>  <SCORE.INTRA>
4.43354

>  <SCORE.INTRA.DIHEDRAL>
0.0261203

>  <SCORE.INTRA.DIHEDRAL.0>
2.40424

>  <SCORE.INTRA.POLAR>
0

>  <SCORE.INTRA.POLAR.0>
0

>  <SCORE.INTRA.REPUL>
0

>  <SCORE.INTRA.REPUL.0>
0

>  <SCORE.INTRA.SOLV>
12.3423

>  <SCORE.INTRA.SOLV.lig_0>
-134.169

>  <SCORE.INTRA.VDW>
-1.75068

>  <SCORE.INTRA.VDW.0>
-2.18386

>  <SCORE.INTRA.norm>
0.0963813

>  <SCORE.RESTR>
0.00293775

>  <SCORE.RESTR.CAVITY>
0.00293775

>  <SCORE.RESTR.norm>
6.38641e-05

>  <SCORE.SYSTEM>
0

>  <SCORE.SYSTEM.CONST>
0

>  <SCORE.SYSTEM.DIHEDRAL>
0

>  <SCORE.SYSTEM.SOLV>
0

>  <SCORE.SYSTEM.norm>
0

>  <SCORE.heavy>
46

>  <SCORE.norm>
0.0388232

>  <RMSD>
16.024

$$$$
ligand
 OpenBabel02271912143D
libRbt.so/2013.1/901 2013/11/27
 46 52  0  0  0  0  0  0  0  0999 V2000
  -15.8496   -7.0254   16.4509 P   0  0  1  0  0  0  0  0  0  0  0  0
  -20.0820   -9.9011   19.3651 P   0  0  2  0  0  0  0  0  0  0  0  0
  -14.8718   -8.1642   15.5081 O   0  5  0  0  0  0  0  0  0  0  0  0
  -15.3458   -5.3380   16.1714 O   0  0  0  0  0  0  0  0  0  0  0  0
  -18.4362   -6.5114   16.7129 C   0  0  0  0  0  0  0  0  0  0  0  0
  -17.3962   -7.2216   16.0402 O   0  0  0  0  0  0  0  0  0  0  0  0
  -19.7488   -7.2318   16.4707 C   0  0  1  0  0  0  0  0  0  0  0  0
  -19.9399   -7.4152   15.0608 O   0  0  0  0  0  0  0  0  0  0  0  0
  -19.7877   -8.6272   17.0721 C   0  0  1  0  0  0  0  0  0  0  0  0
  -20.3047   -8.6254   18.4009 O   0  0  0  0  0  0  0  0  0  0  0  0
  -20.6849   -9.3908   16.1140 C   0  0  1  0  0  0  0  0  0  0  0  0
  -22.0513   -9.2652   16.5162 O   0  0  0  0  0  0  0  0  0  0  0  0
  -20.5091   -8.7021   14.7734 C   0  0  2  0  0  0  0  0  0  0  0  0
  -14.9621  -10.4581   19.5982 C   0  0  1  0  0  0  0  0  0  0  0  0
  -19.8635  -12.5695   11.1930 N   0  0  0  0  0  0  0  0  0  0  0  0
  -21.0052  -12.1452   11.8004 C   0  0  1  0  0  0  0  0  0  0  0  0
  -14.9071   -9.5971   18.3682 C   0  0  2  0  0  0  0  0  0  0  0  0
  -22.1662  -12.7636   11.4834 N   0  0  0  0  0  0  0  0  0  0  0  0
  -13.6743   -8.8781   18.4329 O   0  0  0  0  0  0  0  0  0  0  0  0
  -16.1083   -8.6799   18.4849 C   0  0  2  0  0  0  0  0  0  0  0  0
  -21.0235  -11.1288   12.7132 N   0  0  0  0  0  0  0  0  0  0  0  0
  -15.8154   -7.3685   18.0225 O   0  0  0  0  0  0  0  0  0  0  0  0
  -19.8868  -10.4756   13.0634 C   0  0  2  0  0  0  0  0  0  0  0  0
  -16.4315   -8.6487   19.9658 C   0  0  2  0  0  0  0  0  0  0  0  0
  -15.8562   -9.8320   20.5173 O   0  0  0  0  0  0  0  0  0  0  0  0
  -18.6218  -10.8979   12.4373 C   0  0  1  0  0  0  0  0  0  0  0  0
  -17.9304   -8.6344   20.2444 C   0  0  0  0  0  0  0  0  0  0  0  0
  -18.5138   -9.8304   19.7236 O   0  0  0  0  0  0  0  0  0  0  0  0
  -18.6661  -11.9999   11.4598 C   0  0  0  0  0  0  0  0  0  0  0  0
  -17.5319  -12.4318   10.8522 O   0  0  0  0  0  0  0  0  0  0  0  0
  -17.6590  -10.1189   12.9425 N   0  0  0  0  0  0  0  0  0  0  0  0
  -18.2507   -9.2623   13.8254 C   0  0  0  0  0  0  0  0  0  0  0  0
  -19.5818   -9.4718   13.9022 N   0  0  1  0  0  0  0  0  0  0  0  0
  -17.9827  -13.2817   16.3932 N   0  0  0  0  0  0  0  0  0  0  0  0
  -20.4642  -11.4278   18.5262 O   0  5  0  0  0  0  0  0  0  0  0  0
  -17.7973  -11.9345   16.4537 C   0  0  2  0  0  0  0  0  0  0  0  0
  -18.4583  -11.1340   15.5772 N   0  0  0  0  0  0  0  0  0  0  0  0
  -21.0059   -9.8099   20.8772 O   0  0  0  0  0  0  0  0  0  0  0  0
  -16.9673  -11.3607   17.3669 N   0  0  0  0  0  0  0  0  0  0  0  0
  -16.2767  -12.1059   18.2613 C   0  0  2  0  0  0  0  0  0  0  0  0
  -16.4375  -13.5659   18.2472 C   0  0  2  0  0  0  0  0  0  0  0  0
  -17.3571  -14.1303   17.2363 C   0  0  0  0  0  0  0  0  0  0  0  0
  -17.5714  -15.4664   17.1489 O   0  0  0  0  0  0  0  0  0  0  0  0
  -15.6567  -14.0490   19.2337 N   0  0  0  0  0  0  0  0  0  0  0  0
  -15.0422  -12.9831   19.8281 C   0  0  0  0  0  0  0  0  0  0  0  0
  -15.4191  -11.8232   19.2436 N   0  0  1  0  0  0  0  0  0  0  0  0
  1  3  1  6  0  0  0
  1  4  2  0  0  0  0
  1  6  1  0  0  0  0
  1 22  1  0  0  0  0
  2 28  1  0  0  0  0
  2 35  1  6  0  0  0
  2 38  2  0  0  0  0
  2 10  1  0  0  0  0
  5  6  1  0  0  0  0
  7  5  1  6  0  0  0
  7  8  1  0  0  0  0
  7  9  1  0  0  0  0
  9 10  1  1  0  0  0
  9 11  1  0  0  0  0
 11 12  1  1  0  0  0
 11 13  1  0  0  0  0
 13  8  1  1  0  0  0
 13 33  1  0  0  0  0
 14 46  1  0  0  0  0
 14 17  1  0  0  0  0
 14 25  1  1  0  0  0
 15 16  1  0  0  0  0
 15 29  1  0  0  0  0
 16 18  1  1  0  0  0
 16 21  1  0  0  0  0
 17 19  1  1  0  0  0
 17 20  1  0  0  0  0
 20 22  1  1  0  0  0
 20 24  1  0  0  0  0
 23 21  1  1  0  0  0
 23 26  1  0  0  0  0
 23 33  1  0  0  0  0
 24 25  1  1  0  0  0
 24 27  1  0  0  0  0
 26 29  1  6  0  0  0
 26 31  1  0  0  0  0
 27 28  1  0  0  0  0
 29 30  2  0  0  0  0
 31 32  1  0  0  0  0
 33 32  1  6  0  0  0
 34 36  1  0  0  0  0
 34 42  1  0  0  0  0
 36 37  1  6  0  0  0
 36 39  1  0  0  0  0
 40 39  1  1  0  0  0
 40 41  1  0  0  0  0
 40 46  1  0  0  0  0
 41 42  1  1  0  0  0
 41 44  1  0  0  0  0
 42 43  2  0  0  0  0
 44 45  1  0  0  0  0
 46 45  1  6  0  0  0
M  CHG  2   3  -1  35  -1
M  END
>  <CHROM.1>
-155.79457739,-32.24552228,-18.03585739,-10.09327068,16.60686845,0.25211106
-1.06817217,0.02102536

>  <Name>
ligand

>  <RI>
-1

>  <Rbt.Current_Directory>
/home/itssahil/PROJECTS/Mol_Feturizer/Test_systems_manuscript/rnas/3mum

>  <Rbt.Executable>
rbdock ($Id: //depot/dev/client3/rdock/2013.1/src/exe/rbdock.cxx#4 $)

>  <Rbt.Library>
libRbt.so (2013.1, Build901 2013/11/27)

>  <Rbt.Parameter_File>
/export/apps/rDock/src/rDock_2013.1_src/data/scripts/dock_solv.prm

>  <Rbt.Receptor>
prm/blind_docking_80.prm

>  <SCORE>
1.70231

>  <SCORE.INTER>
-2.62021

>  <SCORE.INTER.CONST>
1

>  <SCORE.INTER.POLAR>
0

>  <SCORE.INTER.ROT>
2

>  <SCORE.INTER.SOLV>
38.9945

>  <SCORE.INTER.VDW>
-19.6783

>  <SCORE.INTER.norm>
-0.0569611

>  <SCORE.INTRA>
4.28713

>  <SCORE.INTRA.DIHEDRAL>
0.0265058

>  <SCORE.INTRA.DIHEDRAL.0>
2.40424

>  <SCORE.INTRA.POLAR>
0

>  <SCORE.INTRA.POLAR.0>
0

>  <SCORE.INTRA.REPUL>
0

>  <SCORE.INTRA.REPUL.0>
0

>  <SCORE.INTRA.SOLV>
11.6996

>  <SCORE.INTRA.SOLV.lig_0>
-134.169

>  <SCORE.INTRA.VDW>
-1.57594

>  <SCORE.INTRA.VDW.0>
-2.18386

>  <SCORE.INTRA.norm>
0.0931985

>  <SCORE.RESTR>
0.035393

>  <SCORE.RESTR.CAVITY>
0.035393

>  <SCORE.RESTR.norm>
0.000769414

>  <SCORE.SYSTEM>
0

>  <SCORE.SYSTEM.CONST>
0

>  <SCORE.SYSTEM.DIHEDRAL>
0

>  <SCORE.SYSTEM.SOLV>
0

>  <SCORE.SYSTEM.norm>
0

>  <SCORE.heavy>
46

>  <SCORE.norm>
0.0370068

>  <RMSD>
16.028

$$$$
ligand
 OpenBabel02271912143D
libRbt.so/2013.1/901 2013/11/27
 46 52  0  0  0  0  0  0  0  0999 V2000
  -19.7388   -9.7849   20.1500 P   0  0  1  0  0  0  0  0  0  0  0  0
  -15.6100   -7.6470   16.5362 P   0  0  2  0  0  0  0  0  0  0  0  0
  -20.1915  -11.4272   19.6604 O   0  5  0  0  0  0  0  0  0  0  0  0
  -20.5768   -9.2894   21.6438 O   0  0  0  0  0  0  0  0  0  0  0  0
  -17.4689   -8.5164   20.6620 C   0  0  0  0  0  0  0  0  0  0  0  0
  -18.1415   -9.7402   20.3649 O   0  0  0  0  0  0  0  0  0  0  0  0
  -15.9979   -8.6801   20.3304 C   0  0  1  0  0  0  0  0  0  0  0  0
  -15.4848   -9.8428   20.9960 O   0  0  0  0  0  0  0  0  0  0  0  0
  -15.7380   -8.9099   18.8505 C   0  0  1  0  0  0  0  0  0  0  0  0
  -15.5188   -7.6889   18.1477 O   0  0  0  0  0  0  0  0  0  0  0  0
  -14.5042   -9.7953   18.8505 C   0  0  1  0  0  0  0  0  0  0  0  0
  -13.3227   -8.9900   18.8521 O   0  0  0  0  0  0  0  0  0  0  0  0
  -14.5687  -10.5638   20.1572 C   0  0  2  0  0  0  0  0  0  0  0  0
  -20.3697   -9.3190   15.4743 C   0  0  1  0  0  0  0  0  0  0  0  0
  -15.0505  -15.5336   21.9634 N   0  0  0  0  0  0  0  0  0  0  0  0
  -14.4399  -14.4653   22.5451 C   0  0  1  0  0  0  0  0  0  0  0  0
  -20.3849   -9.8729   16.8708 C   0  0  2  0  0  0  0  0  0  0  0  0
  -13.8571  -14.6414   23.7534 N   0  0  0  0  0  0  0  0  0  0  0  0
  -21.7439   -9.8273   17.3091 O   0  0  0  0  0  0  0  0  0  0  0  0
  -19.4977   -8.9368   17.6672 C   0  0  2  0  0  0  0  0  0  0  0  0
  -14.3906  -13.2321   21.9590 N   0  0  0  0  0  0  0  0  0  0  0  0
  -20.0057   -8.7174   18.9760 O   0  0  0  0  0  0  0  0  0  0  0  0
  -14.9615  -13.0034   20.7493 C   0  0  2  0  0  0  0  0  0  0  0  0
  -19.5003   -7.6385   16.8843 C   0  0  2  0  0  0  0  0  0  0  0  0
  -19.8645   -7.9866   15.5496 O   0  0  0  0  0  0  0  0  0  0  0  0
  -15.6332  -14.1276   20.0744 C   0  0  1  0  0  0  0  0  0  0  0  0
  -18.1406   -6.9489   16.8769 C   0  0  0  0  0  0  0  0  0  0  0  0
  -17.1860   -7.8049   16.2461 O   0  0  0  0  0  0  0  0  0  0  0  0
  -15.6537  -15.4337   20.7569 C   0  0  0  0  0  0  0  0  0  0  0  0
  -16.2571  -16.5051   20.1824 O   0  0  0  0  0  0  0  0  0  0  0  0
  -16.1032  -13.6591   18.9131 N   0  0  0  0  0  0  0  0  0  0  0  0
  -15.7628  -12.3391   18.8399 C   0  0  0  0  0  0  0  0  0  0  0  0
  -15.0795  -11.9424   19.9342 N   0  0  1  0  0  0  0  0  0  0  0  0
  -19.8126  -11.3192   10.6725 N   0  0  0  0  0  0  0  0  0  0  0  0
  -14.6995   -8.9901   15.7960 O   0  5  0  0  0  0  0  0  0  0  0  0
  -20.7965  -10.5252   11.1767 C   0  0  2  0  0  0  0  0  0  0  0  0
  -21.8222  -10.1466   10.3700 N   0  0  0  0  0  0  0  0  0  0  0  0
  -15.0648   -6.1086   15.8404 O   0  0  0  0  0  0  0  0  0  0  0  0
  -20.7863  -10.0955   12.4681 N   0  0  0  0  0  0  0  0  0  0  0  0
  -19.7884  -10.4337   13.3178 C   0  0  2  0  0  0  0  0  0  0  0  0
  -18.6992  -11.2914   12.8324 C   0  0  2  0  0  0  0  0  0  0  0  0
  -18.7684  -11.7310   11.4225 C   0  0  0  0  0  0  0  0  0  0  0  0
  -17.8101  -12.5264   10.8862 O   0  0  0  0  0  0  0  0  0  0  0  0
  -17.8620  -11.4764   13.8722 N   0  0  0  0  0  0  0  0  0  0  0  0
  -18.3730  -10.7881   14.9362 C   0  0  0  0  0  0  0  0  0  0  0  0
  -19.5268  -10.1685   14.5991 N   0  0  1  0  0  0  0  0  0  0  0  0
  1  3  1  6  0  0  0
  1  4  2  0  0  0  0
  1  6  1  0  0  0  0
  1 22  1  0  0  0  0
  2 28  1  0  0  0  0
  2 35  1  6  0  0  0
  2 38  2  0  0  0  0
  2 10  1  0  0  0  0
  5  6  1  0  0  0  0
  7  5  1  6  0  0  0
  7  8  1  0  0  0  0
  7  9  1  0  0  0  0
  9 10  1  6  0  0  0
  9 11  1  0  0  0  0
 11 12  1  1  0  0  0
 11 13  1  0  0  0  0
 13  8  1  1  0  0  0
 13 33  1  0  0  0  0
 14 46  1  0  0  0  0
 14 17  1  0  0  0  0
 14 25  1  1  0  0  0
 15 16  1  0  0  0  0
 15 29  1  0  0  0  0
 16 18  1  6  0  0  0
 16 21  1  0  0  0  0
 17 19  1  1  0  0  0
 17 20  1  0  0  0  0
 20 22  1  1  0  0  0
 20 24  1  0  0  0  0
 23 21  1  6  0  0  0
 23 26  1  0  0  0  0
 23 33  1  0  0  0  0
 24 25  1  6  0  0  0
 24 27  1  0  0  0  0
 26 29  1  1  0  0  0
 26 31  1  0  0  0  0
 27 28  1  0  0  0  0
 29 30  2  0  0  0  0
 31 32  1  0  0  0  0
 33 32  1  1  0  0  0
 34 36  1  0  0  0  0
 34 42  1  0  0  0  0
 36 37  1  6  0  0  0
 36 39  1  0  0  0  0
 40 39  1  1  0  0  0
 40 41  1  0  0  0  0
 40 46  1  0  0  0  0
 41 42  1  1  0  0  0
 41 44  1  0  0  0  0
 42 43  2  0  0  0  0
 44 45  1  0  0  0  0
 46 45  1  6  0  0  0
M  CHG  2   3  -1  35  -1
M  END
>  <CHROM.1>
-81.84730482,143.64956801,-17.50752364,-10.44704701,17.57371736,0.03123129
-1.10996388,0.35945278

>  <Name>
ligand

>  <RI>
0

>  <Rbt.Current_Directory>
/home/itssahil/PROJECTS/Mol_Feturizer/Test_systems_manuscript/rnas/3mum

>  <Rbt.Executable>
rbdock ($Id: //depot/dev/client3/rdock/2013.1/src/exe/rbdock.cxx#4 $)

>  <Rbt.Library>
libRbt.so (2013.1, Build901 2013/11/27)

>  <Rbt.Parameter_File>
/export/apps/rDock/src/rDock_2013.1_src/data/scripts/dock_solv.prm

>  <Rbt.Receptor>
prm/blind_docking_60.prm

>  <SCORE>
10.6484

>  <SCORE.INTER>
6.30454

>  <SCORE.INTER.CONST>
1

>  <SCORE.INTER.POLAR>
0

>  <SCORE.INTER.ROT>
2

>  <SCORE.INTER.SOLV>
33.6936

>  <SCORE.INTER.VDW>
-11.9615

>  <SCORE.INTER.norm>
0.137055

>  <SCORE.INTRA>
0.471905

>  <SCORE.INTRA.DIHEDRAL>
-0.0333835

>  <SCORE.INTRA.DIHEDRAL.0>
2.40424

>  <SCORE.INTRA.POLAR>
0

>  <SCORE.INTRA.POLAR.0>
0

>  <SCORE.INTRA.REPUL>
0

>  <SCORE.INTRA.REPUL.0>
0

>  <SCORE.INTRA.SOLV>
0.000526659

>  <SCORE.INTRA.SOLV.lig_0>
-134.169

>  <SCORE.INTRA.VDW>
0.488334

>  <SCORE.INTRA.VDW.0>
-2.18386

>  <SCORE.INTRA.norm>
0.0102588

>  <SCORE.RESTR>
3.87195

>  <SCORE.RESTR.CAVITY>
3.87195

>  <SCORE.RESTR.norm>
0.0841729

>  <SCORE.SYSTEM>
0

>  <SCORE.SYSTEM.CONST>
0

>  <SCORE.SYSTEM.DIHEDRAL>
0

>  <SCORE.SYSTEM.SOLV>
0

>  <SCORE.SYSTEM.norm>
0

>  <SCORE.heavy>
46

>  <SCORE.norm>
0.231487

>  <RMSD>
16.088

$$$$
ligand
 OpenBabel02271912143D
libRbt.so/2013.1/901 2013/11/27
 46 52  0  0  0  0  0  0  0  0999 V2000
  -20.0400   -9.9337   19.6427 P   0  0  1  0  0  0  0  0  0  0  0  0
  -15.7970   -7.2269   16.5855 P   0  0  2  0  0  0  0  0  0  0  0  0
  -20.4496  -11.4825   18.8842 O   0  5  0  0  0  0  0  0  0  0  0  0
  -20.9452   -9.6841   21.1585 O   0  0  0  0  0  0  0  0  0  0  0  0
  -17.8107   -8.7445   20.4424 C   0  0  0  0  0  0  0  0  0  0  0  0
  -18.4537   -9.9116   19.9297 O   0  0  0  0  0  0  0  0  0  0  0  0
  -16.3253   -8.8436   20.1522 C   0  0  1  0  0  0  0  0  0  0  0  0
  -15.8238  -10.0923   20.6494 O   0  0  0  0  0  0  0  0  0  0  0  0
  -16.0020   -8.8372   18.6670 C   0  0  1  0  0  0  0  0  0  0  0  0
  -15.7711   -7.5196   18.1731 O   0  0  0  0  0  0  0  0  0  0  0  0
  -14.7571   -9.7027   18.5812 C   0  0  1  0  0  0  0  0  0  0  0  0
  -13.5879   -8.8990   18.7587 O   0  0  0  0  0  0  0  0  0  0  0  0
  -14.8643  -10.6666   19.7482 C   0  0  2  0  0  0  0  0  0  0  0  0
  -20.4858   -8.7468   15.0744 C   0  0  1  0  0  0  0  0  0  0  0  0
  -17.8048  -13.4542   16.3167 N   0  0  0  0  0  0  0  0  0  0  0  0
  -17.6206  -12.1078   16.3918 C   0  0  1  0  0  0  0  0  0  0  0  0
  -20.5503   -9.5124   16.3655 C   0  0  2  0  0  0  0  0  0  0  0  0
  -18.2548  -11.3241   15.4894 N   0  0  0  0  0  0  0  0  0  0  0  0
  -21.9266   -9.5458   16.7474 O   0  0  0  0  0  0  0  0  0  0  0  0
  -19.7094   -8.7059   17.3351 C   0  0  2  0  0  0  0  0  0  0  0  0
  -16.8287  -11.5213   17.3382 N   0  0  0  0  0  0  0  0  0  0  0  0
  -20.2735   -8.6977   18.6394 O   0  0  0  0  0  0  0  0  0  0  0  0
  -16.1699  -12.2632   18.2640 C   0  0  2  0  0  0  0  0  0  0  0  0
  -19.6980   -7.3012   16.7650 C   0  0  2  0  0  0  0  0  0  0  0  0
  -20.0026   -7.4389   15.3780 O   0  0  0  0  0  0  0  0  0  0  0  0
  -16.3374  -13.7264   18.2291 C   0  0  1  0  0  0  0  0  0  0  0  0
  -18.3488   -6.6091   16.9231 C   0  0  0  0  0  0  0  0  0  0  0  0
  -17.3575   -7.3489   16.2076 O   0  0  0  0  0  0  0  0  0  0  0  0
  -17.2042  -14.3003   17.1844 C   0  0  0  0  0  0  0  0  0  0  0  0
  -17.3963  -15.6415   17.1044 O   0  0  0  0  0  0  0  0  0  0  0  0
  -15.6044  -14.2257   19.2303 N   0  0  0  0  0  0  0  0  0  0  0  0
  -15.0111  -13.1722   19.8641 C   0  0  0  0  0  0  0  0  0  0  0  0
  -15.3465  -11.9970   19.2913 N   0  0  1  0  0  0  0  0  0  0  0  0
  -20.2655  -12.1738   11.1279 N   0  0  0  0  0  0  0  0  0  0  0  0
  -14.8386   -8.4310   15.6842 O   0  5  0  0  0  0  0  0  0  0  0  0
  -21.3370  -11.7419   11.8478 C   0  0  2  0  0  0  0  0  0  0  0  0
  -22.5725  -12.2238   11.5525 N   0  0  0  0  0  0  0  0  0  0  0  0
  -15.2452   -5.5947   16.1620 O   0  0  0  0  0  0  0  0  0  0  0  0
  -21.2108  -10.8385   12.8579 N   0  0  0  0  0  0  0  0  0  0  0  0
  -20.0076  -10.3175   13.1943 C   0  0  2  0  0  0  0  0  0  0  0  0
  -18.8132  -10.7473   12.4552 C   0  0  2  0  0  0  0  0  0  0  0  0
  -19.0127  -11.7349   11.3730 C   0  0  0  0  0  0  0  0  0  0  0  0
  -17.9694  -12.1926   10.6378 O   0  0  0  0  0  0  0  0  0  0  0  0
  -17.7681  -10.0908   12.9965 N   0  0  0  0  0  0  0  0  0  0  0  0
  -18.2563   -9.3008   13.9989 C   0  0  0  0  0  0  0  0  0  0  0  0
  -19.5962   -9.4428   14.1141 N   0  0  1  0  0  0  0  0  0  0  0  0
  1  3  1  6  0  0  0
  1  4  2  0  0  0  0
  1  6  1  0  0  0  0
  1 22  1  0  0  0  0
  2 28  1  0  0  0  0
  2 35  1  6  0  0  0
  2 38  2  0  0  0  0
  2 10  1  0  0  0  0
  5  6  1  0  0  0  0
  7  5  1  6  0  0  0
  7  8  1  0  0  0  0
  7  9  1  0  0  0  0
  9 10  1  1  0  0  0
  9 11  1  0  0  0  0
 11 12  1  1  0  0  0
 11 13  1  0  0  0  0
 13  8  1  1  0  0  0
 13 33  1  0  0  0  0
 14 46  1  0  0  0  0
 14 17  1  0  0  0  0
 14 25  1  1  0  0  0
 15 16  1  0  0  0  0
 15 29  1  0  0  0  0
 16 18  1  1  0  0  0
 16 21  1  0  0  0  0
 17 19  1  1  0  0  0
 17 20  1  0  0  0  0
 20 22  1  1  0  0  0
 20 24  1  0  0  0  0
 23 21  1  1  0  0  0
 23 26  1  0  0  0  0
 23 33  1  0  0  0  0
 24 25  1  6  0  0  0
 24 27  1  0  0  0  0
 26 29  1  6  0  0  0
 26 31  1  0  0  0  0
 27 28  1  0  0  0  0
 29 30  2  0  0  0  0
 31 32  1  0  0  0  0
 33 32  1  6  0  0  0
 34 36  1  0  0  0  0
 34 42  1  0  0  0  0
 36 37  1  6  0  0  0
 36 39  1  0  0  0  0
 40 39  1  1  0  0  0
 40 41  1  0  0  0  0
 40 46  1  0  0  0  0
 41 42  1  1  0  0  0
 41 44  1  0  0  0  0
 42 43  2  0  0  0  0
 44 45  1  0  0  0  0
 46 45  1  6  0  0  0
M  CHG  2   3  -1  35  -1
M  END
>  <CHROM.1>
85.81560253,93.68475946,-18.02317459,-10.15021563,16.73293804,0.29918511
-1.03204811,0.17058863

>  <Name>
ligand

>  <RI>
0

>  <Rbt.Current_Directory>
/home/itssahil/PROJECTS/Mol_Feturizer/Test_systems_manuscript/rnas/3mum

>  <Rbt.Executable>
rbdock ($Id: //depot/dev/client3/rdock/2013.1/src/exe/rbdock.cxx#4 $)

>  <Rbt.Library>
libRbt.so (2013.1, Build901 2013/11/27)

>  <Rbt.Parameter_File>
/export/apps/rDock/src/rDock_2013.1_src/data/scripts/dock_solv.prm

>  <Rbt.Receptor>
prm/blind_docking_60.prm

>  <SCORE>
7.4926

>  <SCORE.INTER>
4.23536

>  <SCORE.INTER.CONST>
1

>  <SCORE.INTER.POLAR>
0

>  <SCORE.INTER.ROT>
2

>  <SCORE.INTER.SOLV>
38.3855

>  <SCORE.INTER.VDW>
-14.9049

>  <SCORE.INTER.norm>
0.0920731

>  <SCORE.INTRA>
3.25283

>  <SCORE.INTRA.DIHEDRAL>
0.0264603

>  <SCORE.INTRA.DIHEDRAL.0>
2.40424

>  <SCORE.INTRA.POLAR>
0

>  <SCORE.INTRA.POLAR.0>
0

>  <SCORE.INTRA.REPUL>
0

>  <SCORE.INTRA.REPUL.0>
0

>  <SCORE.INTRA.SOLV>
9.34773

>  <SCORE.INTRA.SOLV.lig_0>
-134.169

>  <SCORE.INTRA.VDW>
-1.43427

>  <SCORE.INTRA.VDW.0>
-2.18386

>  <SCORE.INTRA.norm>
0.0707136

>  <SCORE.RESTR>
0.00441336

>  <SCORE.RESTR.CAVITY>
0.00441336

>  <SCORE.RESTR.norm>
9.59426e-05

>  <SCORE.SYSTEM>
0

>  <SCORE.SYSTEM.CONST>
0

>  <SCORE.SYSTEM.DIHEDRAL>
0

>  <SCORE.SYSTEM.SOLV>
0

>  <SCORE.SYSTEM.norm>
0

>  <SCORE.heavy>
46

>  <SCORE.norm>
0.162883

>  <RMSD>
16.090

$$$$
ligand
 OpenBabel02271912143D
libRbt.so/2013.1/901 2013/11/27
 46 52  0  0  0  0  0  0  0  0999 V2000
  -20.0082   -9.9216   19.6940 P   0  0  1  0  0  0  0  0  0  0  0  0
  -15.7791   -7.2472   16.5895 P   0  0  2  0  0  0  0  0  0  0  0  0
  -20.4272  -11.4743   18.9488 O   0  5  0  0  0  0  0  0  0  0  0  0
  -20.9023   -9.6592   21.2142 O   0  0  0  0  0  0  0  0  0  0  0  0
  -17.7704   -8.7330   20.4702 C   0  0  0  0  0  0  0  0  0  0  0  0
  -18.4199   -9.9018   19.9699 O   0  0  0  0  0  0  0  0  0  0  0  0
  -16.2872   -8.8382   20.1706 C   0  0  1  0  0  0  0  0  0  0  0  0
  -15.7857  -10.0849   20.6729 O   0  0  0  0  0  0  0  0  0  0  0  0
  -15.9741   -8.8427   18.6832 C   0  0  1  0  0  0  0  0  0  0  0  0
  -15.7431   -7.5292   18.1788 O   0  0  0  0  0  0  0  0  0  0  0  0
  -14.7322   -9.7122   18.5948 C   0  0  1  0  0  0  0  0  0  0  0  0
  -13.5596   -8.9105   18.7588 O   0  0  0  0  0  0  0  0  0  0  0  0
  -14.8339  -10.6679   19.7690 C   0  0  2  0  0  0  0  0  0  0  0  0
  -20.4822   -8.7645   15.1209 C   0  0  1  0  0  0  0  0  0  0  0  0
  -17.9102  -13.4611   16.4634 N   0  0  0  0  0  0  0  0  0  0  0  0
  -17.7383  -12.1132   16.5418 C   0  0  1  0  0  0  0  0  0  0  0  0
  -20.5399   -9.5212   16.4175 C   0  0  2  0  0  0  0  0  0  0  0  0
  -18.4261  -11.3295   15.6796 N   0  0  0  0  0  0  0  0  0  0  0  0
  -21.9136   -9.5482   16.8090 O   0  0  0  0  0  0  0  0  0  0  0  0
  -19.6902   -8.7104   17.3759 C   0  0  2  0  0  0  0  0  0  0  0  0
  -16.9068  -11.5254   17.4527 N   0  0  0  0  0  0  0  0  0  0  0  0
  -20.2453   -8.6918   18.6839 O   0  0  0  0  0  0  0  0  0  0  0  0
  -16.1936  -12.2672   18.3374 C   0  0  2  0  0  0  0  0  0  0  0  0
  -19.6789   -7.3096   16.7961 C   0  0  2  0  0  0  0  0  0  0  0  0
  -19.9934   -7.4559   15.4122 O   0  0  0  0  0  0  0  0  0  0  0  0
  -16.3455  -13.7321   18.2972 C   0  0  1  0  0  0  0  0  0  0  0  0
  -18.3268   -6.6201   16.9402 C   0  0  0  0  0  0  0  0  0  0  0  0
  -17.3424   -7.3675   16.2230 O   0  0  0  0  0  0  0  0  0  0  0  0
  -17.2569  -14.3074   17.2920 C   0  0  0  0  0  0  0  0  0  0  0  0
  -17.4370  -15.6500   17.2093 O   0  0  0  0  0  0  0  0  0  0  0  0
  -15.5573  -14.2310   19.2558 N   0  0  0  0  0  0  0  0  0  0  0  0
  -14.9453  -13.1759   19.8688 C   0  0  0  0  0  0  0  0  0  0  0  0
  -15.3228  -12.0000   19.3245 N   0  0  1  0  0  0  0  0  0  0  0  0
  -20.3113  -12.1285   11.1181 N   0  0  0  0  0  0  0  0  0  0  0  0
  -14.8301   -8.4600   15.6898 O   0  5  0  0  0  0  0  0  0  0  0  0
  -21.3788  -11.6782   11.8326 C   0  0  2  0  0  0  0  0  0  0  0  0
  -22.6239  -12.1191   11.5142 N   0  0  0  0  0  0  0  0  0  0  0  0
  -15.2258   -5.6194   16.1511 O   0  0  0  0  0  0  0  0  0  0  0  0
  -21.2393  -10.7962   12.8597 N   0  0  0  0  0  0  0  0  0  0  0  0
  -20.0260  -10.3161   13.2195 C   0  0  2  0  0  0  0  0  0  0  0  0
  -18.8353  -10.7676   12.4873 C   0  0  2  0  0  0  0  0  0  0  0  0
  -19.0496  -11.7303   11.3858 C   0  0  0  0  0  0  0  0  0  0  0  0
  -18.0108  -12.2054   10.6552 O   0  0  0  0  0  0  0  0  0  0  0  0
  -17.7786  -10.1508   13.0524 N   0  0  0  0  0  0  0  0  0  0  0  0
  -18.2563   -9.3643   14.0625 C   0  0  0  0  0  0  0  0  0  0  0  0
  -19.6011   -9.4694   14.1592 N   0  0  1  0  0  0  0  0  0  0  0  0
  1  3  1  6  0  0  0
  1  4  2  0  0  0  0
  1  6  1  0  0  0  0
  1 22  1  0  0  0  0
  2 28  1  0  0  0  0
  2 35  1  6  0  0  0
  2 38  2  0  0  0  0
  2 10  1  0  0  0  0
  5  6  1  0  0  0  0
  7  5  1  6  0  0  0
  7  8  1  0  0  0  0
  7  9  1  0  0  0  0
  9 10  1  1  0  0  0
  9 11  1  0  0  0  0
 11 12  1  1  0  0  0
 11 13  1  0  0  0  0
 13  8  1  1  0  0  0
 13 33  1  0  0  0  0
 14 46  1  0  0  0  0
 14 17  1  0  0  0  0
 14 25  1  1  0  0  0
 15 16  1  0  0  0  0
 15 29  1  0  0  0  0
 16 18  1  1  0  0  0
 16 21  1  0  0  0  0
 17 19  1  1  0  0  0
 17 20  1  0  0  0  0
 20 22  1  1  0  0  0
 20 24  1  0  0  0  0
 23 21  1  1  0  0  0
 23 26  1  0  0  0  0
 23 33  1  0  0  0  0
 24 25  1  6  0  0  0
 24 27  1  0  0  0  0
 26 29  1  6  0  0  0
 26 31  1  0  0  0  0
 27 28  1  0  0  0  0
 29 30  2  0  0  0  0
 31 32  1  0  0  0  0
 33 32  1  6  0  0  0
 34 36  1  0  0  0  0
 34 42  1  0  0  0  0
 36 37  1  6  0  0  0
 36 39  1  0  0  0  0
 40 39  1  1  0  0  0
 40 41  1  0  0  0  0
 40 46  1  0  0  0  0
 41 42  1  1  0  0  0
 41 44  1  0  0  0  0
 42 43  2  0  0  0  0
 44 45  1  0  0  0  0
 46 45  1  6  0  0  0
M  CHG  2   3  -1  35  -1
M  END
>  <CHROM.1>
83.04042119,95.99229945,-18.02475202,-10.15241760,16.77279757,0.24109265
-1.03384473,0.11610922

>  <Name>
ligand

>  <RI>
0

>  <Rbt.Current_Directory>
/home/itssahil/PROJECTS/Mol_Feturizer/Test_systems_manuscript/rnas/3mum

>  <Rbt.Executable>
rbdock ($Id: //depot/dev/client3/rdock/2013.1/src/exe/rbdock.cxx#4 $)

>  <Rbt.Library>
libRbt.so (2013.1, Build901 2013/11/27)

>  <Rbt.Parameter_File>
/export/apps/rDock/src/rDock_2013.1_src/data/scripts/dock_solv.prm

>  <Rbt.Receptor>
prm/blind_docking_60.prm

>  <SCORE>
6.6248

>  <SCORE.INTER>
3.21571

>  <SCORE.INTER.CONST>
1

>  <SCORE.INTER.POLAR>
0

>  <SCORE.INTER.ROT>
2

>  <SCORE.INTER.SOLV>
38.1745

>  <SCORE.INTER.VDW>
-15.5144

>  <SCORE.INTER.norm>
0.0699068

>  <SCORE.INTRA>
3.2998

>  <SCORE.INTRA.DIHEDRAL>
0.0255477

>  <SCORE.INTRA.DIHEDRAL.0>
2.40424

>  <SCORE.INTRA.POLAR>
0

>  <SCORE.INTRA.POLAR.0>
0

>  <SCORE.INTRA.REPUL>
0

>  <SCORE.INTRA.REPUL.0>
0

>  <SCORE.INTRA.SOLV>
10.1512

>  <SCORE.INTRA.SOLV.lig_0>
-134.169

>  <SCORE.INTRA.VDW>
-1.78856

>  <SCORE.INTRA.VDW.0>
-2.18386

>  <SCORE.INTRA.norm>
0.0717347

>  <SCORE.RESTR>
0.109291

>  <SCORE.RESTR.CAVITY>
0.109291

>  <SCORE.RESTR.norm>
0.00237589

>  <SCORE.SYSTEM>
0

>  <SCORE.SYSTEM.CONST>
0

>  <SCORE.SYSTEM.DIHEDRAL>
0

>  <SCORE.SYSTEM.SOLV>
0

>  <SCORE.SYSTEM.norm>
0

>  <SCORE.heavy>
46

>  <SCORE.norm>
0.144017

>  <RMSD>
16.094

$$$$
ligand
 OpenBabel02271912143D
libRbt.so/2013.1/901 2013/11/27
 46 52  0  0  0  0  0  0  0  0999 V2000
  -19.8779   -9.8627   19.8766 P   0  0  1  0  0  0  0  0  0  0  0  0
  -15.7385   -7.3206   16.5480 P   0  0  2  0  0  0  0  0  0  0  0  0
  -20.2973  -11.4561   19.2230 O   0  5  0  0  0  0  0  0  0  0  0  0
  -20.7432   -9.5279   21.3993 O   0  0  0  0  0  0  0  0  0  0  0  0
  -17.6360   -8.6161   20.5423 C   0  0  0  0  0  0  0  0  0  0  0  0
  -18.2845   -9.8151   20.1179 O   0  0  0  0  0  0  0  0  0  0  0  0
  -16.1583   -8.7246   20.2177 C   0  0  1  0  0  0  0  0  0  0  0  0
  -15.6349   -9.9387   20.7743 O   0  0  0  0  0  0  0  0  0  0  0  0
  -15.8756   -8.8050   18.7264 C   0  0  1  0  0  0  0  0  0  0  0  0
  -15.6674   -7.5181   18.1489 O   0  0  0  0  0  0  0  0  0  0  0  0
  -14.6276   -9.6675   18.6580 C   0  0  1  0  0  0  0  0  0  0  0  0
  -13.4596   -8.8485   18.7550 O   0  0  0  0  0  0  0  0  0  0  0  0
  -14.6963  -10.5607   19.8827 C   0  0  2  0  0  0  0  0  0  0  0  0
  -20.4560   -8.9527   15.2598 C   0  0  1  0  0  0  0  0  0  0  0  0
  -17.9318  -13.5377   16.9060 N   0  0  0  0  0  0  0  0  0  0  0  0
  -17.7898  -12.1843   16.9274 C   0  0  1  0  0  0  0  0  0  0  0  0
  -20.4801   -9.6403   16.5954 C   0  0  2  0  0  0  0  0  0  0  0  0
  -18.5588  -11.4472   16.0931 N   0  0  0  0  0  0  0  0  0  0  0  0
  -21.8452   -9.6581   17.0164 O   0  0  0  0  0  0  0  0  0  0  0  0
  -19.6187   -8.7730   17.4918 C   0  0  2  0  0  0  0  0  0  0  0  0
  -16.9096  -11.5460   17.7548 N   0  0  0  0  0  0  0  0  0  0  0  0
  -20.1472   -8.6900   18.8084 O   0  0  0  0  0  0  0  0  0  0  0  0
  -16.1148  -12.2400   18.6082 C   0  0  2  0  0  0  0  0  0  0  0  0
  -19.6326   -7.4047   16.8391 C   0  0  2  0  0  0  0  0  0  0  0  0
  -19.9738   -7.6265   15.4717 O   0  0  0  0  0  0  0  0  0  0  0  0
  -16.2311  -13.7085   18.6273 C   0  0  1  0  0  0  0  0  0  0  0  0
  -18.2844   -6.6973   16.9185 C   0  0  0  0  0  0  0  0  0  0  0  0
  -17.3078   -7.4732   16.2212 O   0  0  0  0  0  0  0  0  0  0  0  0
  -17.1981  -14.3393   17.7113 C   0  0  0  0  0  0  0  0  0  0  0  0
  -17.3488  -15.6879   17.6860 O   0  0  0  0  0  0  0  0  0  0  0  0
  -15.3624  -14.1554   19.5409 N   0  0  0  0  0  0  0  0  0  0  0  0
  -14.7349  -13.0657   20.0723 C   0  0  0  0  0  0  0  0  0  0  0  0
  -15.1815  -11.9185   19.5192 N   0  0  1  0  0  0  0  0  0  0  0  0
  -20.3580  -12.1337   11.1078 N   0  0  0  0  0  0  0  0  0  0  0  0
  -14.7966   -8.5712   15.6938 O   0  5  0  0  0  0  0  0  0  0  0  0
  -21.4200  -11.6093   11.7786 C   0  0  2  0  0  0  0  0  0  0  0  0
  -22.6792  -11.9062   11.3633 N   0  0  0  0  0  0  0  0  0  0  0  0
  -15.2097   -5.7137   16.0131 O   0  0  0  0  0  0  0  0  0  0  0  0
  -21.2613  -10.7931   12.8560 N   0  0  0  0  0  0  0  0  0  0  0  0
  -20.0324  -10.4559   13.3126 C   0  0  2  0  0  0  0  0  0  0  0  0
  -18.8471  -10.9932   12.6316 C   0  0  2  0  0  0  0  0  0  0  0  0
  -19.0832  -11.8787   11.4713 C   0  0  0  0  0  0  0  0  0  0  0  0
  -18.0510  -12.4241   10.7815 O   0  0  0  0  0  0  0  0  0  0  0  0
  -17.7737  -10.5135   13.2904 N   0  0  0  0  0  0  0  0  0  0  0  0
  -18.2361   -9.7284   14.3087 C   0  0  0  0  0  0  0  0  0  0  0  0
  -19.5881   -9.7000   14.3184 N   0  0  1  0  0  0  0  0  0  0  0  0
  1  3  1  6  0  0  0
  1  4  2  0  0  0  0
  1  6  1  0  0  0  0
  1 22  1  0  0  0  0
  2 28  1  0  0  0  0
  2 35  1  6  0  0  0
  2 38  2  0  0  0  0
  2 10  1  0  0  0  0
  5  6  1  0  0  0  0
  7  5  1  6  0  0  0
  7  8  1  0  0  0  0
  7  9  1  0  0  0  0
  9 10  1  1  0  0  0
  9 11  1  0  0  0  0
 11 12  1  1  0  0  0
 11 13  1  0  0  0  0
 13  8  1  1  0  0  0
 13 33  1  0  0  0  0
 14 46  1  0  0  0  0
 14 17  1  0  0  0  0
 14 25  1  1  0  0  0
 15 16  1  0  0  0  0
 15 29  1  0  0  0  0
 16 18  1  1  0  0  0
 16 21  1  0  0  0  0
 17 19  1  1  0  0  0
 17 20  1  0  0  0  0
 20 22  1  1  0  0  0
 20 24  1  0  0  0  0
 23 21  1  1  0  0  0
 23 26  1  0  0  0  0
 23 33  1  0  0  0  0
 24 25  1  6  0  0  0
 24 27  1  0  0  0  0
 26 29  1  6  0  0  0
 26 31  1  0  0  0  0
 27 28  1  0  0  0  0
 29 30  2  0  0  0  0
 31 32  1  0  0  0  0
 33 32  1  6  0  0  0
 34 36  1  0  0  0  0
 34 42  1  0  0  0  0
 36 37  1  6  0  0  0
 36 39  1  0  0  0  0
 40 39  1  1  0  0  0
 40 41  1  0  0  0  0
 40 46  1  0  0  0  0
 41 42  1  1  0  0  0
 41 44  1  0  0  0  0
 42 43  2  0  0  0  0
 44 45  1  0  0  0  0
 46 45  1  6  0  0  0
M  CHG  2   3  -1  35  -1
M  END
>  <CHROM.1>
79.69966663,105.78637585,-17.96765048,-10.18698512,16.90696633,0.17099532
-1.03343342,0.04791397

>  <Name>
ligand

>  <RI>
-1

>  <Rbt.Current_Directory>
/home/itssahil/PROJECTS/Mol_Feturizer/Test_systems_manuscript/rnas/3mum

>  <Rbt.Executable>
rbdock ($Id: //depot/dev/client3/rdock/2013.1/src/exe/rbdock.cxx#4 $)

>  <Rbt.Library>
libRbt.so (2013.1, Build901 2013/11/27)

>  <Rbt.Parameter_File>
/export/apps/rDock/src/rDock_2013.1_src/data/scripts/dock_solv.prm

>  <Rbt.Receptor>
prm/blind_docking_80.prm

>  <SCORE>
5.30062

>  <SCORE.INTER>
0.549008

>  <SCORE.INTER.CONST>
1

>  <SCORE.INTER.POLAR>
0

>  <SCORE.INTER.ROT>
2

>  <SCORE.INTER.SOLV>
37.2369

>  <SCORE.INTER.VDW>
-16.9796

>  <SCORE.INTER.norm>
0.011935

>  <SCORE.INTRA>
4.65068

>  <SCORE.INTRA.DIHEDRAL>
0.0179942

>  <SCORE.INTRA.DIHEDRAL.0>
2.40424

>  <SCORE.INTRA.POLAR>
0

>  <SCORE.INTRA.POLAR.0>
0

>  <SCORE.INTRA.REPUL>
0

>  <SCORE.INTRA.REPUL.0>
0

>  <SCORE.INTRA.SOLV>
11.298

>  <SCORE.INTRA.SOLV.lig_0>
-134.169

>  <SCORE.INTRA.VDW>
-1.0073

>  <SCORE.INTRA.VDW.0>
-2.18386

>  <SCORE.INTRA.norm>
0.101102

>  <SCORE.RESTR>
0.100931

>  <SCORE.RESTR.CAVITY>
0.100931

>  <SCORE.RESTR.norm>
0.00219415

>  <SCORE.SYSTEM>
0

>  <SCORE.SYSTEM.CONST>
0

>  <SCORE.SYSTEM.DIHEDRAL>
0

>  <SCORE.SYSTEM.SOLV>
0

>  <SCORE.SYSTEM.norm>
0

>  <SCORE.heavy>
46

>  <SCORE.norm>
0.115231

>  <RMSD>
16.094

$$$$
ligand
 OpenBabel02271912143D
libRbt.so/2013.1/901 2013/11/27
 46 52  0  0  0  0  0  0  0  0999 V2000
  -20.0394   -9.9369   19.6513 P   0  0  1  0  0  0  0  0  0  0  0  0
  -15.7947   -7.2357   16.5916 P   0  0  2  0  0  0  0  0  0  0  0  0
  -20.4519  -11.4848   18.8927 O   0  5  0  0  0  0  0  0  0  0  0  0
  -20.9431   -9.6863   21.1678 O   0  0  0  0  0  0  0  0  0  0  0  0
  -17.8078   -8.7512   20.4496 C   0  0  0  0  0  0  0  0  0  0  0  0
  -18.4529   -9.9172   19.9371 O   0  0  0  0  0  0  0  0  0  0  0  0
  -16.3227   -8.8525   20.1583 C   0  0  1  0  0  0  0  0  0  0  0  0
  -15.8227  -10.1020   20.6549 O   0  0  0  0  0  0  0  0  0  0  0  0
  -16.0005   -8.8462   18.6728 C   0  0  1  0  0  0  0  0  0  0  0  0
  -15.7680   -7.5289   18.1791 O   0  0  0  0  0  0  0  0  0  0  0  0
  -14.7570   -9.7135   18.5860 C   0  0  1  0  0  0  0  0  0  0  0  0
  -13.5864   -8.9116   18.7628 O   0  0  0  0  0  0  0  0  0  0  0  0
  -14.8647  -10.6775   19.7528 C   0  0  2  0  0  0  0  0  0  0  0  0
  -20.4868   -8.7482   15.0836 C   0  0  1  0  0  0  0  0  0  0  0  0
  -17.8173  -13.4594   16.3270 N   0  0  0  0  0  0  0  0  0  0  0  0
  -17.6320  -12.1132   16.4030 C   0  0  1  0  0  0  0  0  0  0  0  0
  -20.5515   -9.5141   16.3746 C   0  0  2  0  0  0  0  0  0  0  0  0
  -18.2681  -11.3281   15.5032 N   0  0  0  0  0  0  0  0  0  0  0  0
  -21.9276   -9.5454   16.7575 O   0  0  0  0  0  0  0  0  0  0  0  0
  -19.7087   -8.7091   17.3438 C   0  0  2  0  0  0  0  0  0  0  0  0
  -16.8368  -11.5283   17.3477 N   0  0  0  0  0  0  0  0  0  0  0  0
  -20.2718   -8.7003   18.6485 O   0  0  0  0  0  0  0  0  0  0  0  0
  -16.1759  -12.2716   18.2708 C   0  0  2  0  0  0  0  0  0  0  0  0
  -19.6956   -7.3042   16.7739 C   0  0  2  0  0  0  0  0  0  0  0  0
  -20.0014   -7.4411   15.3872 O   0  0  0  0  0  0  0  0  0  0  0  0
  -16.3446  -13.7347   18.2349 C   0  0  1  0  0  0  0  0  0  0  0  0
  -18.3452   -6.6141   16.9312 C   0  0  0  0  0  0  0  0  0  0  0  0
  -17.3556   -7.3553   16.2148 O   0  0  0  0  0  0  0  0  0  0  0  0
  -17.2149  -14.3069   17.1921 C   0  0  0  0  0  0  0  0  0  0  0  0
  -17.4082  -15.6478   17.1113 O   0  0  0  0  0  0  0  0  0  0  0  0
  -15.6091  -14.2355   19.2335 N   0  0  0  0  0  0  0  0  0  0  0  0
  -15.0131  -13.1831   19.8666 C   0  0  0  0  0  0  0  0  0  0  0  0
  -15.3493  -12.0071   19.2960 N   0  0  1  0  0  0  0  0  0  0  0  0
  -20.2756  -12.1680   11.1303 N   0  0  0  0  0  0  0  0  0  0  0  0
  -14.8386   -8.4410   15.6894 O   0  5  0  0  0  0  0  0  0  0  0  0
  -21.3461  -11.7339   11.8504 C   0  0  2  0  0  0  0  0  0  0  0  0
  -22.5831  -12.2110   11.5533 N   0  0  0  0  0  0  0  0  0  0  0  0
  -15.2406   -5.6042   16.1681 O   0  0  0  0  0  0  0  0  0  0  0  0
  -21.2175  -10.8330   12.8624 N   0  0  0  0  0  0  0  0  0  0  0  0
  -20.0128  -10.3168   13.2007 C   0  0  2  0  0  0  0  0  0  0  0  0
  -18.8194  -10.7492   12.4614 C   0  0  2  0  0  0  0  0  0  0  0  0
  -19.0215  -11.7339   11.3772 C   0  0  0  0  0  0  0  0  0  0  0  0
  -17.9793  -12.1937   10.6417 O   0  0  0  0  0  0  0  0  0  0  0  0
  -17.7724  -10.0973   13.0048 N   0  0  0  0  0  0  0  0  0  0  0  0
  -18.2585   -9.3078   14.0084 C   0  0  0  0  0  0  0  0  0  0  0  0
  -19.5990   -9.4453   14.1225 N   0  0  1  0  0  0  0  0  0  0  0  0
  1  3  1  6  0  0  0
  1  4  2  0  0  0  0
  1  6  1  0  0  0  0
  1 22  1  0  0  0  0
  2 28  1  0  0  0  0
  2 35  1  6  0  0  0
  2 38  2  0  0  0  0
  2 10  1  0  0  0  0
  5  6  1  0  0  0  0
  7  5  1  6  0  0  0
  7  8  1  0  0  0  0
  7  9  1  0  0  0  0
  9 10  1  1  0  0  0
  9 11  1  0  0  0  0
 11 12  1  1  0  0  0
 11 13  1  0  0  0  0
 13  8  1  1  0  0  0
 13 33  1  0  0  0  0
 14 46  1  0  0  0  0
 14 17  1  0  0  0  0
 14 25  1  1  0  0  0
 15 16  1  0  0  0  0
 15 29  1  0  0  0  0
 16 18  1  1  0  0  0
 16 21  1  0  0  0  0
 17 19  1  1  0  0  0
 17 20  1  0  0  0  0
 20 22  1  1  0  0  0
 20 24  1  0  0  0  0
 23 21  1  1  0  0  0
 23 26  1  0  0  0  0
 23 33  1  0  0  0  0
 24 25  1  6  0  0  0
 24 27  1  0  0  0  0
 26 29  1  6  0  0  0
 26 31  1  0  0  0  0
 27 28  1  0  0  0  0
 29 30  2  0  0  0  0
 31 32  1  0  0  0  0
 33 32  1  6  0  0  0
 34 36  1  0  0  0  0
 34 42  1  0  0  0  0
 36 37  1  6  0  0  0
 36 39  1  0  0  0  0
 40 39  1  1  0  0  0
 40 41  1  0  0  0  0
 40 46  1  0  0  0  0
 41 42  1  1  0  0  0
 41 44  1  0  0  0  0
 42 43  2  0  0  0  0
 44 45  1  0  0  0  0
 46 45  1  6  0  0  0
M  CHG  2   3  -1  35  -1
M  END
>  <CHROM.1>
85.67545568,93.85461183,-18.02576363,-10.15494952,16.73982360,0.29493826
-1.03179247,0.16809325

>  <Name>
ligand

>  <RI>
0

>  <Rbt.Current_Directory>
/home/itssahil/PROJECTS/Mol_Feturizer/Test_systems_manuscript/rnas/3mum

>  <Rbt.Executable>
rbdock ($Id: //depot/dev/client3/rdock/2013.1/src/exe/rbdock.cxx#4 $)

>  <Rbt.Library>
libRbt.so (2013.1, Build901 2013/11/27)

>  <Rbt.Parameter_File>
/export/apps/rDock/src/rDock_2013.1_src/data/scripts/dock_solv.prm

>  <Rbt.Receptor>
prm/blind_docking_60.prm

>  <SCORE>
7.51981

>  <SCORE.INTER>
4.24828

>  <SCORE.INTER.CONST>
1

>  <SCORE.INTER.POLAR>
0

>  <SCORE.INTER.ROT>
2

>  <SCORE.INTER.SOLV>
38.3801

>  <SCORE.INTER.VDW>
-14.8945

>  <SCORE.INTER.norm>
0.0923539

>  <SCORE.INTRA>
3.26018

>  <SCORE.INTRA.DIHEDRAL>
0.0264118

>  <SCORE.INTRA.DIHEDRAL.0>
2.40424

>  <SCORE.INTRA.POLAR>
0

>  <SCORE.INTRA.POLAR.0>
0

>  <SCORE.INTRA.REPUL>
0

>  <SCORE.INTRA.REPUL.0>
0

>  <SCORE.INTRA.SOLV>
9.38079

>  <SCORE.INTRA.SOLV.lig_0>
-134.169

>  <SCORE.INTRA.VDW>
-1.44342

>  <SCORE.INTRA.VDW.0>
-2.18386

>  <SCORE.INTRA.norm>
0.0708735

>  <SCORE.RESTR>
0.0113435

>  <SCORE.RESTR.CAVITY>
0.0113435

>  <SCORE.RESTR.norm>
0.000246597

>  <SCORE.SYSTEM>
0

>  <SCORE.SYSTEM.CONST>
0

>  <SCORE.SYSTEM.DIHEDRAL>
0

>  <SCORE.SYSTEM.SOLV>
0

>  <SCORE.SYSTEM.norm>
0

>  <SCORE.heavy>
46

>  <SCORE.norm>
0.163474

>  <RMSD>
16.095

$$$$
ligand
 OpenBabel02271912143D
libRbt.so/2013.1/901 2013/11/27
 46 52  0  0  0  0  0  0  0  0999 V2000
  -19.9641   -9.9080   19.7786 P   0  0  1  0  0  0  0  0  0  0  0  0
  -15.7582   -7.2847   16.5997 P   0  0  2  0  0  0  0  0  0  0  0  0
  -20.3830  -11.4761   19.0662 O   0  5  0  0  0  0  0  0  0  0  0  0
  -20.8508   -9.6180   21.2981 O   0  0  0  0  0  0  0  0  0  0  0  0
  -17.7252   -8.6989   20.5194 C   0  0  0  0  0  0  0  0  0  0  0  0
  -18.3744   -9.8789   20.0456 O   0  0  0  0  0  0  0  0  0  0  0  0
  -16.2433   -8.8063   20.2140 C   0  0  1  0  0  0  0  0  0  0  0  0
  -15.7360  -10.0416   20.7380 O   0  0  0  0  0  0  0  0  0  0  0  0
  -15.9381   -8.8393   18.7253 C   0  0  1  0  0  0  0  0  0  0  0  0
  -15.7131   -7.5353   18.1940 O   0  0  0  0  0  0  0  0  0  0  0  0
  -14.6944   -9.7072   18.6474 C   0  0  1  0  0  0  0  0  0  0  0  0
  -13.5231   -8.8996   18.7894 O   0  0  0  0  0  0  0  0  0  0  0  0
  -14.7875  -10.6399   19.8407 C   0  0  2  0  0  0  0  0  0  0  0  0
  -20.4651   -8.8420   15.1862 C   0  0  1  0  0  0  0  0  0  0  0  0
  -17.8573  -13.5067   16.5925 N   0  0  0  0  0  0  0  0  0  0  0  0
  -17.6859  -12.1573   16.6412 C   0  0  1  0  0  0  0  0  0  0  0  0
  -20.5141   -9.5733   16.4978 C   0  0  2  0  0  0  0  0  0  0  0  0
  -18.3724  -11.3932   15.7606 N   0  0  0  0  0  0  0  0  0  0  0  0
  -21.8856   -9.5960   16.8970 O   0  0  0  0  0  0  0  0  0  0  0  0
  -19.6614   -8.7418   17.4355 C   0  0  2  0  0  0  0  0  0  0  0  0
  -16.8561  -11.5492   17.5403 N   0  0  0  0  0  0  0  0  0  0  0  0
  -20.2096   -8.6988   18.7458 O   0  0  0  0  0  0  0  0  0  0  0  0
  -16.1443  -12.2711   18.4425 C   0  0  2  0  0  0  0  0  0  0  0  0
  -19.6568   -7.3526   16.8283 C   0  0  2  0  0  0  0  0  0  0  0  0
  -19.9782   -7.5268   15.4493 O   0  0  0  0  0  0  0  0  0  0  0  0
  -16.2958  -13.7365   18.4346 C   0  0  1  0  0  0  0  0  0  0  0  0
  -18.3057   -6.6571   16.9517 C   0  0  0  0  0  0  0  0  0  0  0  0
  -17.3232   -7.4160   16.2440 O   0  0  0  0  0  0  0  0  0  0  0  0
  -17.2053  -14.3342   17.4408 C   0  0  0  0  0  0  0  0  0  0  0  0
  -17.3850  -15.6784   17.3876 O   0  0  0  0  0  0  0  0  0  0  0  0
  -15.5092  -14.2138   19.4054 N   0  0  0  0  0  0  0  0  0  0  0  0
  -14.8985  -13.1452   19.9959 C   0  0  0  0  0  0  0  0  0  0  0  0
  -15.2753  -11.9817   19.4250 N   0  0  1  0  0  0  0  0  0  0  0  0
  -20.3179  -12.1791   11.1600 N   0  0  0  0  0  0  0  0  0  0  0  0
  -14.8109   -8.5125   15.7190 O   0  5  0  0  0  0  0  0  0  0  0  0
  -21.3847  -11.7051   11.8601 C   0  0  2  0  0  0  0  0  0  0  0  0
  -22.6357  -12.1093   11.5172 N   0  0  0  0  0  0  0  0  0  0  0  0
  -15.2114   -5.6644   16.1265 O   0  0  0  0  0  0  0  0  0  0  0  0
  -21.2387  -10.8351   12.8964 N   0  0  0  0  0  0  0  0  0  0  0  0
  -20.0190  -10.3911   13.2804 C   0  0  2  0  0  0  0  0  0  0  0  0
  -18.8288  -10.8695   12.5647 C   0  0  2  0  0  0  0  0  0  0  0  0
  -19.0505  -11.8177   11.4521 C   0  0  0  0  0  0  0  0  0  0  0  0
  -18.0127  -12.3155   10.7353 O   0  0  0  0  0  0  0  0  0  0  0  0
  -17.7655  -10.2862   13.1525 N   0  0  0  0  0  0  0  0  0  0  0  0
  -18.2387   -9.4946   14.1607 C   0  0  0  0  0  0  0  0  0  0  0  0
  -19.5873   -9.5636   14.2339 N   0  0  1  0  0  0  0  0  0  0  0  0
  1  3  1  6  0  0  0
  1  4  2  0  0  0  0
  1  6  1  0  0  0  0
  1 22  1  0  0  0  0
  2 28  1  0  0  0  0
  2 35  1  6  0  0  0
  2 38  2  0  0  0  0
  2 10  1  0  0  0  0
  5  6  1  0  0  0  0
  7  5  1  6  0  0  0
  7  8  1  0  0  0  0
  7  9  1  0  0  0  0
  9 10  1  1  0  0  0
  9 11  1  0  0  0  0
 11 12  1  1  0  0  0
 11 13  1  0  0  0  0
 13  8  1  1  0  0  0
 13 33  1  0  0  0  0
 14 46  1  0  0  0  0
 14 17  1  0  0  0  0
 14 25  1  1  0  0  0
 15 16  1  0  0  0  0
 15 29  1  0  0  0  0
 16 18  1  1  0  0  0
 16 21  1  0  0  0  0
 17 19  1  1  0  0  0
 17 20  1  0  0  0  0
 20 22  1  1  0  0  0
 20 24  1  0  0  0  0
 23 21  1  1  0  0  0
 23 26  1  0  0  0  0
 23 33  1  0  0  0  0
 24 25  1  6  0  0  0
 24 27  1  0  0  0  0
 26 29  1  6  0  0  0
 26 31  1  0  0  0  0
 27 28  1  0  0  0  0
 29 30  2  0  0  0  0
 31 32  1  0  0  0  0
 33 32  1  6  0  0  0
 34 36  1  0  0  0  0
 34 42  1  0  0  0  0
 36 37  1  6  0  0  0
 36 39  1  0  0  0  0
 40 39  1  1  0  0  0
 40 41  1  0  0  0  0
 40 46  1  0  0  0  0
 41 42  1  1  0  0  0
 41 44  1  0  0  0  0
 42 43  2  0  0  0  0
 44 45  1  0  0  0  0
 46 45  1  6  0  0  0
M  CHG  2   3  -1  35  -1
M  END
>  <CHROM.1>
83.49112883,98.64188885,-17.99484465,-10.17997277,16.84062636,0.24681000
-1.03102938,0.12015301

>  <Name>
ligand

>  <RI>
-1

>  <Rbt.Current_Directory>
/home/itssahil/PROJECTS/Mol_Feturizer/Test_systems_manuscript/rnas/3mum

>  <Rbt.Executable>
rbdock ($Id: //depot/dev/client3/rdock/2013.1/src/exe/rbdock.cxx#4 $)

>  <Rbt.Library>
libRbt.so (2013.1, Build901 2013/11/27)

>  <Rbt.Parameter_File>
/export/apps/rDock/src/rDock_2013.1_src/data/scripts/dock_solv.prm

>  <Rbt.Receptor>
prm/blind_docking_40.prm

>  <SCORE>
5.94299

>  <SCORE.INTER>
2.20681

>  <SCORE.INTER.CONST>
1

>  <SCORE.INTER.POLAR>
0

>  <SCORE.INTER.ROT>
2

>  <SCORE.INTER.SOLV>
37.9754

>  <SCORE.INTER.VDW>
-16.1206

>  <SCORE.INTER.norm>
0.0479742

>  <SCORE.INTRA>
3.73618

>  <SCORE.INTRA.DIHEDRAL>
0.0242305

>  <SCORE.INTRA.DIHEDRAL.0>
2.40424

>  <SCORE.INTRA.POLAR>
0

>  <SCORE.INTRA.POLAR.0>
0

>  <SCORE.INTRA.REPUL>
0

>  <SCORE.INTRA.REPUL.0>
0

>  <SCORE.INTRA.SOLV>
10.006

>  <SCORE.INTRA.SOLV.lig_0>
-134.169

>  <SCORE.INTRA.VDW>
-1.27893

>  <SCORE.INTRA.VDW.0>
-2.18386

>  <SCORE.INTRA.norm>
0.0812213

>  <SCORE.RESTR>
0

>  <SCORE.RESTR.CAVITY>
0

>  <SCORE.RESTR.norm>
0

>  <SCORE.SYSTEM>
0

>  <SCORE.SYSTEM.CONST>
0

>  <SCORE.SYSTEM.DIHEDRAL>
0

>  <SCORE.SYSTEM.SOLV>
0

>  <SCORE.SYSTEM.norm>
0

>  <SCORE.heavy>
46

>  <SCORE.norm>
0.129195

>  <RMSD>
16.099

$$$$
ligand
 OpenBabel02271912143D
libRbt.so/2013.1/901 2013/11/27
 46 52  0  0  0  0  0  0  0  0999 V2000
  -19.8444   -9.8998   19.8999 P   0  0  1  0  0  0  0  0  0  0  0  0
  -15.6976   -7.3609   16.5782 P   0  0  2  0  0  0  0  0  0  0  0  0
  -20.2692  -11.4898   19.2415 O   0  5  0  0  0  0  0  0  0  0  0  0
  -20.7083   -9.5670   21.4238 O   0  0  0  0  0  0  0  0  0  0  0  0
  -17.5983   -8.6626   20.5689 C   0  0  0  0  0  0  0  0  0  0  0  0
  -18.2509   -9.8582   20.1409 O   0  0  0  0  0  0  0  0  0  0  0  0
  -16.1211   -8.7749   20.2436 C   0  0  1  0  0  0  0  0  0  0  0  0
  -15.6014   -9.9925   20.7963 O   0  0  0  0  0  0  0  0  0  0  0  0
  -15.8390   -8.8516   18.7520 C   0  0  1  0  0  0  0  0  0  0  0  0
  -15.6267   -7.5635   18.1784 O   0  0  0  0  0  0  0  0  0  0  0  0
  -14.5938   -9.7179   18.6806 C   0  0  1  0  0  0  0  0  0  0  0  0
  -13.4231   -8.9030   18.7799 O   0  0  0  0  0  0  0  0  0  0  0  0
  -14.6651  -10.6146   19.9025 C   0  0  2  0  0  0  0  0  0  0  0  0
  -20.4207   -8.9736   15.2862 C   0  0  1  0  0  0  0  0  0  0  0  0
  -17.8877  -13.5741   16.8943 N   0  0  0  0  0  0  0  0  0  0  0  0
  -17.7376  -12.2215   16.9163 C   0  0  1  0  0  0  0  0  0  0  0  0
  -20.4467   -9.6653   16.6196 C   0  0  2  0  0  0  0  0  0  0  0  0
  -18.4933  -11.4803   16.0736 N   0  0  0  0  0  0  0  0  0  0  0  0
  -21.8118   -9.6799   17.0409 O   0  0  0  0  0  0  0  0  0  0  0  0
  -19.5823   -8.8036   17.5185 C   0  0  2  0  0  0  0  0  0  0  0  0
  -16.8621  -11.5881   17.7524 N   0  0  0  0  0  0  0  0  0  0  0  0
  -20.1102   -8.7229   18.8354 O   0  0  0  0  0  0  0  0  0  0  0  0
  -16.0805  -12.2862   18.6145 C   0  0  2  0  0  0  0  0  0  0  0  0
  -19.5918   -7.4332   16.8700 C   0  0  2  0  0  0  0  0  0  0  0  0
  -19.9341   -7.6496   15.5020 O   0  0  0  0  0  0  0  0  0  0  0  0
  -16.2060  -13.7540   18.6334 C   0  0  1  0  0  0  0  0  0  0  0  0
  -18.2413   -6.7304   16.9512 C   0  0  0  0  0  0  0  0  0  0  0  0
  -17.2674   -7.5074   16.2513 O   0  0  0  0  0  0  0  0  0  0  0  0
  -17.1673  -14.3796   17.7078 C   0  0  0  0  0  0  0  0  0  0  0  0
  -17.3261  -15.7272   17.6819 O   0  0  0  0  0  0  0  0  0  0  0  0
  -15.3497  -14.2055   19.5563 N   0  0  0  0  0  0  0  0  0  0  0  0
  -14.7211  -13.1193   20.0935 C   0  0  0  0  0  0  0  0  0  0  0  0
  -15.1549  -11.9697   19.5349 N   0  0  1  0  0  0  0  0  0  0  0  0
  -20.3352  -12.1913   11.1622 N   0  0  0  0  0  0  0  0  0  0  0  0
  -14.7600   -8.6119   15.7199 O   0  5  0  0  0  0  0  0  0  0  0  0
  -21.3952  -11.6714   11.8396 C   0  0  2  0  0  0  0  0  0  0  0  0
  -22.6557  -11.9845   11.4407 N   0  0  0  0  0  0  0  0  0  0  0  0
  -15.1637   -5.7541   16.0482 O   0  0  0  0  0  0  0  0  0  0  0  0
  -21.2331  -10.8438   12.9079 N   0  0  0  0  0  0  0  0  0  0  0  0
  -20.0030  -10.4902   13.3482 C   0  0  2  0  0  0  0  0  0  0  0  0
  -18.8196  -11.0219   12.6592 C   0  0  2  0  0  0  0  0  0  0  0  0
  -19.0592  -11.9203   11.5096 C   0  0  0  0  0  0  0  0  0  0  0  0
  -18.0291  -12.4616   10.8136 O   0  0  0  0  0  0  0  0  0  0  0  0
  -17.7441  -10.5255   13.3020 N   0  0  0  0  0  0  0  0  0  0  0  0
  -18.2034   -9.7359   14.3181 C   0  0  0  0  0  0  0  0  0  0  0  0
  -19.5555   -9.7208   14.3422 N   0  0  1  0  0  0  0  0  0  0  0  0
  1  3  1  6  0  0  0
  1  4  2  0  0  0  0
  1  6  1  0  0  0  0
  1 22  1  0  0  0  0
  2 28  1  0  0  0  0
  2 35  1  6  0  0  0
  2 38  2  0  0  0  0
  2 10  1  0  0  0  0
  5  6  1  0  0  0  0
  7  5  1  6  0  0  0
  7  8  1  0  0  0  0
  7  9  1  0  0  0  0
  9 10  1  1  0  0  0
  9 11  1  0  0  0  0
 11 12  1  1  0  0  0
 11 13  1  0  0  0  0
 13  8  1  1  0  0  0
 13 33  1  0  0  0  0
 14 46  1  0  0  0  0
 14 17  1  0  0  0  0
 14 25  1  1  0  0  0
 15 16  1  0  0  0  0
 15 29  1  0  0  0  0
 16 18  1  1  0  0  0
 16 21  1  0  0  0  0
 17 19  1  1  0  0  0
 17 20  1  0  0  0  0
 20 22  1  1  0  0  0
 20 24  1  0  0  0  0
 23 21  1  1  0  0  0
 23 26  1  0  0  0  0
 23 33  1  0  0  0  0
 24 25  1  6  0  0  0
 24 27  1  0  0  0  0
 26 29  1  6  0  0  0
 26 31  1  0  0  0  0
 27 28  1  0  0  0  0
 29 30  2  0  0  0  0
 31 32  1  0  0  0  0
 33 32  1  6  0  0  0
 34 36  1  0  0  0  0
 34 42  1  0  0  0  0
 36 37  1  6  0  0  0
 36 39  1  0  0  0  0
 40 39  1  1  0  0  0
 40 41  1  0  0  0  0
 40 46  1  0  0  0  0
 41 42  1  1  0  0  0
 41 44  1  0  0  0  0
 42 43  2  0  0  0  0
 44 45  1  0  0  0  0
 46 45  1  6  0  0  0
M  CHG  2   3  -1  35  -1
M  END
>  <CHROM.1>
80.36948487,104.59189360,-17.93359636,-10.22672219,16.93047227,0.18018512
-1.03018682,0.05489162

>  <Name>
ligand

>  <RI>
-1

>  <Rbt.Current_Directory>
/home/itssahil/PROJECTS/Mol_Feturizer/Test_systems_manuscript/rnas/3mum

>  <Rbt.Executable>
rbdock ($Id: //depot/dev/client3/rdock/2013.1/src/exe/rbdock.cxx#4 $)

>  <Rbt.Library>
libRbt.so (2013.1, Build901 2013/11/27)

>  <Rbt.Parameter_File>
/export/apps/rDock/src/rDock_2013.1_src/data/scripts/dock_solv.prm

>  <Rbt.Receptor>
prm/blind_docking_40.prm

>  <SCORE>
5.10779

>  <SCORE.INTER>
0.601562

>  <SCORE.INTER.CONST>
1

>  <SCORE.INTER.POLAR>
0

>  <SCORE.INTER.ROT>
2

>  <SCORE.INTER.SOLV>
37.345

>  <SCORE.INTER.VDW>
-16.9806

>  <SCORE.INTER.norm>
0.0130774

>  <SCORE.INTRA>
4.47771

>  <SCORE.INTRA.DIHEDRAL>
0.0192609

>  <SCORE.INTRA.DIHEDRAL.0>
2.40424

>  <SCORE.INTRA.POLAR>
0

>  <SCORE.INTRA.POLAR.0>
0

>  <SCORE.INTRA.REPUL>
0

>  <SCORE.INTRA.REPUL.0>
0

>  <SCORE.INTRA.SOLV>
11.0809

>  <SCORE.INTRA.SOLV.lig_0>
-134.169

>  <SCORE.INTRA.VDW>
-1.07235

>  <SCORE.INTRA.VDW.0>
-2.18386

>  <SCORE.INTRA.norm>
0.0973416

>  <SCORE.RESTR>
0.0285166

>  <SCORE.RESTR.CAVITY>
0.0285166

>  <SCORE.RESTR.norm>
0.000619925

>  <SCORE.SYSTEM>
0

>  <SCORE.SYSTEM.CONST>
0

>  <SCORE.SYSTEM.DIHEDRAL>
0

>  <SCORE.SYSTEM.SOLV>
0

>  <SCORE.SYSTEM.norm>
0

>  <SCORE.heavy>
46

>  <SCORE.norm>
0.111039

>  <RMSD>
16.103

$$$$
ligand
 OpenBabel02271912143D
libRbt.so/2013.1/901 2013/11/27
 46 52  0  0  0  0  0  0  0  0999 V2000
  -20.0611   -9.9152   19.6832 P   0  0  1  0  0  0  0  0  0  0  0  0
  -15.7863   -7.2766   16.6108 P   0  0  2  0  0  0  0  0  0  0  0  0
  -20.4863  -11.4652   18.9359 O   0  5  0  0  0  0  0  0  0  0  0  0
  -20.9652   -9.6446   21.1961 O   0  0  0  0  0  0  0  0  0  0  0  0
  -17.8202   -8.7436   20.4765 C   0  0  0  0  0  0  0  0  0  0  0  0
  -18.4749   -9.9077   19.9719 O   0  0  0  0  0  0  0  0  0  0  0  0
  -16.3356   -8.8606   20.1889 C   0  0  1  0  0  0  0  0  0  0  0  0
  -15.8479  -10.1108   20.6961 O   0  0  0  0  0  0  0  0  0  0  0  0
  -16.0106   -8.8688   18.7040 C   0  0  1  0  0  0  0  0  0  0  0  0
  -15.7653   -7.5576   18.2005 O   0  0  0  0  0  0  0  0  0  0  0  0
  -14.7749   -9.7480   18.6263 C   0  0  1  0  0  0  0  0  0  0  0  0
  -13.5974   -8.9555   18.7991 O   0  0  0  0  0  0  0  0  0  0  0  0
  -14.8935  -10.7020   19.8004 C   0  0  2  0  0  0  0  0  0  0  0  0
  -20.4892   -8.7582   15.1056 C   0  0  1  0  0  0  0  0  0  0  0  0
  -17.4196  -13.5520   16.1006 N   0  0  0  0  0  0  0  0  0  0  0  0
  -17.1525  -12.2176   16.1208 C   0  0  1  0  0  0  0  0  0  0  0  0
  -20.5633   -9.5133   16.4023 C   0  0  2  0  0  0  0  0  0  0  0  0
  -17.5689  -11.4661   15.0756 N   0  0  0  0  0  0  0  0  0  0  0  0
  -21.9403   -9.5292   16.7828 O   0  0  0  0  0  0  0  0  0  0  0  0
  -19.7150   -8.7085   17.3669 C   0  0  2  0  0  0  0  0  0  0  0  0
  -16.4878  -11.6119   17.1494 N   0  0  0  0  0  0  0  0  0  0  0  0
  -20.2804   -8.6844   18.6704 O   0  0  0  0  0  0  0  0  0  0  0  0
  -16.0480  -12.3216   18.2191 C   0  0  2  0  0  0  0  0  0  0  0  0
  -19.6881   -7.3083   16.7861 C   0  0  2  0  0  0  0  0  0  0  0  0
  -19.9926   -7.4532   15.3999 O   0  0  0  0  0  0  0  0  0  0  0  0
  -16.3140  -13.7703   18.2488 C   0  0  1  0  0  0  0  0  0  0  0  0
  -18.3318   -6.6293   16.9406 C   0  0  0  0  0  0  0  0  0  0  0  0
  -17.3476   -7.3850   16.2319 O   0  0  0  0  0  0  0  0  0  0  0  0
  -17.0350  -14.3663   17.1099 C   0  0  0  0  0  0  0  0  0  0  0  0
  -17.3089  -15.6953   17.0833 O   0  0  0  0  0  0  0  0  0  0  0  0
  -15.7960  -14.2375   19.3900 N   0  0  0  0  0  0  0  0  0  0  0  0
  -15.2406  -13.1781   20.0478 C   0  0  0  0  0  0  0  0  0  0  0  0
  -15.3893  -12.0306   19.3530 N   0  0  1  0  0  0  0  0  0  0  0  0
  -20.3019  -12.2105   11.1794 N   0  0  0  0  0  0  0  0  0  0  0  0
  -14.8396   -8.4975   15.7197 O   0  5  0  0  0  0  0  0  0  0  0  0
  -21.3697  -11.7611   11.8941 C   0  0  2  0  0  0  0  0  0  0  0  0
  -22.6104  -12.2292   11.5983 N   0  0  0  0  0  0  0  0  0  0  0  0
  -15.2167   -5.6536   16.1756 O   0  0  0  0  0  0  0  0  0  0  0  0
  -21.2347  -10.8535   12.8993 N   0  0  0  0  0  0  0  0  0  0  0  0
  -20.0260  -10.3457   13.2358 C   0  0  2  0  0  0  0  0  0  0  0  0
  -18.8352  -10.7946   12.5022 C   0  0  2  0  0  0  0  0  0  0  0  0
  -19.0443  -11.7859   11.4253 C   0  0  0  0  0  0  0  0  0  0  0  0
  -18.0049  -12.2608   10.6954 O   0  0  0  0  0  0  0  0  0  0  0  0
  -17.7834  -10.1481   13.0425 N   0  0  0  0  0  0  0  0  0  0  0  0
  -18.2641   -9.3463   14.0390 C   0  0  0  0  0  0  0  0  0  0  0  0
  -19.6060   -9.4708   14.1516 N   0  0  1  0  0  0  0  0  0  0  0  0
  1  3  1  6  0  0  0
  1  4  2  0  0  0  0
  1  6  1  0  0  0  0
  1 22  1  0  0  0  0
  2 28  1  0  0  0  0
  2 35  1  6  0  0  0
  2 38  2  0  0  0  0
  2 10  1  0  0  0  0
  5  6  1  0  0  0  0
  7  5  1  6  0  0  0
  7  8  1  0  0  0  0
  7  9  1  0  0  0  0
  9 10  1  1  0  0  0
  9 11  1  0  0  0  0
 11 12  1  1  0  0  0
 11 13  1  0  0  0  0
 13  8  1  1  0  0  0
 13 33  1  0  0  0  0
 14 46  1  0  0  0  0
 14 17  1  0  0  0  0
 14 25  1  1  0  0  0
 15 16  1  0  0  0  0
 15 29  1  0  0  0  0
 16 18  1  1  0  0  0
 16 21  1  0  0  0  0
 17 19  1  1  0  0  0
 17 20  1  0  0  0  0
 20 22  1  1  0  0  0
 20 24  1  0  0  0  0
 23 21  1  1  0  0  0
 23 26  1  0  0  0  0
 23 33  1  0  0  0  0
 24 25  1  6  0  0  0
 24 27  1  0  0  0  0
 26 29  1  6  0  0  0
 26 31  1  0  0  0  0
 27 28  1  0  0  0  0
 29 30  2  0  0  0  0
 31 32  1  0  0  0  0
 33 32  1  6  0  0  0
 34 36  1  0  0  0  0
 34 42  1  0  0  0  0
 36 37  1  6  0  0  0
 36 39  1  0  0  0  0
 40 39  1  1  0  0  0
 40 41  1  0  0  0  0
 40 46  1  0  0  0  0
 41 42  1  1  0  0  0
 41 44  1  0  0  0  0
 42 43  2  0  0  0  0
 44 45  1  0  0  0  0
 46 45  1  6  0  0  0
M  CHG  2   3  -1  35  -1
M  END
>  <CHROM.1>
96.59849539,93.85577205,-17.99605837,-10.18161428,16.74606214,0.46250362
-1.00036923,0.35668370

>  <Name>
ligand

>  <RI>
-1

>  <Rbt.Current_Directory>
/home/itssahil/PROJECTS/Mol_Feturizer/Test_systems_manuscript/rnas/3mum

>  <Rbt.Executable>
rbdock ($Id: //depot/dev/client3/rdock/2013.1/src/exe/rbdock.cxx#4 $)

>  <Rbt.Library>
libRbt.so (2013.1, Build901 2013/11/27)

>  <Rbt.Parameter_File>
/export/apps/rDock/src/rDock_2013.1_src/data/scripts/dock_solv.prm

>  <Rbt.Receptor>
prm/blind_docking_40.prm

>  <SCORE>
12.1727

>  <SCORE.INTER>
7.71602

>  <SCORE.INTER.CONST>
1

>  <SCORE.INTER.POLAR>
0

>  <SCORE.INTER.ROT>
2

>  <SCORE.INTER.SOLV>
39.293

>  <SCORE.INTER.VDW>
-12.887

>  <SCORE.INTER.norm>
0.16774

>  <SCORE.INTRA>
4.45664

>  <SCORE.INTRA.DIHEDRAL>
0.0262963

>  <SCORE.INTRA.DIHEDRAL.0>
2.40424

>  <SCORE.INTRA.POLAR>
0

>  <SCORE.INTRA.POLAR.0>
0

>  <SCORE.INTRA.REPUL>
0

>  <SCORE.INTRA.REPUL.0>
0

>  <SCORE.INTRA.SOLV>
7.38129

>  <SCORE.INTRA.SOLV.lig_0>
-134.169

>  <SCORE.INTRA.VDW>
0.752849

>  <SCORE.INTRA.VDW.0>
-2.18386

>  <SCORE.INTRA.norm>
0.0968836

>  <SCORE.RESTR>
0

>  <SCORE.RESTR.CAVITY>
0

>  <SCORE.RESTR.norm>
0

>  <SCORE.SYSTEM>
0

>  <SCORE.SYSTEM.CONST>
0

>  <SCORE.SYSTEM.DIHEDRAL>
0

>  <SCORE.SYSTEM.SOLV>
0

>  <SCORE.SYSTEM.norm>
0

>  <SCORE.heavy>
46

>  <SCORE.norm>
0.264623

>  <RMSD>
16.103

$$$$
ligand
 OpenBabel02271912143D
libRbt.so/2013.1/901 2013/11/27
 46 52  0  0  0  0  0  0  0  0999 V2000
  -19.9070   -9.9095   19.8456 P   0  0  1  0  0  0  0  0  0  0  0  0
  -15.7383   -7.3308   16.5824 P   0  0  2  0  0  0  0  0  0  0  0  0
  -20.3271  -11.4915   19.1654 O   0  5  0  0  0  0  0  0  0  0  0  0
  -20.7810   -9.5950   21.3676 O   0  0  0  0  0  0  0  0  0  0  0  0
  -17.6655   -8.6804   20.5445 C   0  0  0  0  0  0  0  0  0  0  0  0
  -18.3151   -9.8707   20.0978 O   0  0  0  0  0  0  0  0  0  0  0  0
  -16.1861   -8.7887   20.2277 C   0  0  1  0  0  0  0  0  0  0  0  0
  -15.6700  -10.0128   20.7692 O   0  0  0  0  0  0  0  0  0  0  0  0
  -15.8940   -8.8475   18.7372 C   0  0  1  0  0  0  0  0  0  0  0  0
  -15.6781   -7.5526   18.1805 O   0  0  0  0  0  0  0  0  0  0  0  0
  -14.6483   -9.7128   18.6637 C   0  0  1  0  0  0  0  0  0  0  0  0
  -13.4784   -8.8991   18.7806 O   0  0  0  0  0  0  0  0  0  0  0  0
  -14.7277  -10.6241   19.8743 C   0  0  2  0  0  0  0  0  0  0  0  0
  -20.4525   -8.9280   15.2396 C   0  0  1  0  0  0  0  0  0  0  0  0
  -17.9621  -13.5448   16.8410 N   0  0  0  0  0  0  0  0  0  0  0  0
  -17.8173  -12.1922   16.8852 C   0  0  1  0  0  0  0  0  0  0  0  0
  -20.4873   -9.6357   16.5644 C   0  0  2  0  0  0  0  0  0  0  0  0
  -18.5828  -11.4398   16.0614 N   0  0  0  0  0  0  0  0  0  0  0  0
  -21.8552   -9.6554   16.9764 O   0  0  0  0  0  0  0  0  0  0  0  0
  -19.6290   -8.7848   17.4793 C   0  0  2  0  0  0  0  0  0  0  0  0
  -16.9378  -11.5696   17.7251 N   0  0  0  0  0  0  0  0  0  0  0  0
  -20.1657   -8.7200   18.7936 O   0  0  0  0  0  0  0  0  0  0  0  0
  -16.1465  -12.2792   18.5688 C   0  0  2  0  0  0  0  0  0  0  0  0
  -19.6344   -7.4068   16.8472 C   0  0  2  0  0  0  0  0  0  0  0  0
  -19.9675   -7.6068   15.4745 O   0  0  0  0  0  0  0  0  0  0  0  0
  -16.2658  -13.7476   18.5633 C   0  0  1  0  0  0  0  0  0  0  0  0
  -18.2845   -6.7050   16.9459 C   0  0  0  0  0  0  0  0  0  0  0  0
  -17.3059   -7.4734   16.2433 O   0  0  0  0  0  0  0  0  0  0  0  0
  -17.2319  -14.3612   17.6347 C   0  0  0  0  0  0  0  0  0  0  0  0
  -17.3853  -15.7089   17.5868 O   0  0  0  0  0  0  0  0  0  0  0  0
  -15.4003  -14.2114   19.4715 N   0  0  0  0  0  0  0  0  0  0  0  0
  -14.7719  -13.1319   20.0223 C   0  0  0  0  0  0  0  0  0  0  0  0
  -15.2148  -11.9748   19.4872 N   0  0  1  0  0  0  0  0  0  0  0  0
  -20.3394  -12.1295   11.1036 N   0  0  0  0  0  0  0  0  0  0  0  0
  -14.7948   -8.5714   15.7155 O   0  5  0  0  0  0  0  0  0  0  0  0
  -21.4038  -11.6217   11.7833 C   0  0  2  0  0  0  0  0  0  0  0  0
  -22.6615  -11.9448   11.3837 N   0  0  0  0  0  0  0  0  0  0  0  0
  -15.2010   -5.7177   16.0753 O   0  0  0  0  0  0  0  0  0  0  0  0
  -21.2488  -10.7967   12.8546 N   0  0  0  0  0  0  0  0  0  0  0  0
  -20.0217  -10.4336   13.2958 C   0  0  2  0  0  0  0  0  0  0  0  0
  -18.8339  -10.9520   12.6044 C   0  0  2  0  0  0  0  0  0  0  0  0
  -19.0658  -11.8482   11.4516 C   0  0  0  0  0  0  0  0  0  0  0  0
  -18.0310  -12.3776   10.7532 O   0  0  0  0  0  0  0  0  0  0  0  0
  -17.7626  -10.4483   13.2487 N   0  0  0  0  0  0  0  0  0  0  0  0
  -18.2287   -9.6666   14.2679 C   0  0  0  0  0  0  0  0  0  0  0  0
  -19.5809   -9.6639   14.2925 N   0  0  1  0  0  0  0  0  0  0  0  0
  1  3  1  6  0  0  0
  1  4  2  0  0  0  0
  1  6  1  0  0  0  0
  1 22  1  0  0  0  0
  2 28  1  0  0  0  0
  2 35  1  6  0  0  0
  2 38  2  0  0  0  0
  2 10  1  0  0  0  0
  5  6  1  0  0  0  0
  7  5  1  6  0  0  0
  7  8  1  0  0  0  0
  7  9  1  0  0  0  0
  9 10  1  1  0  0  0
  9 11  1  0  0  0  0
 11 12  1  1  0  0  0
 11 13  1  0  0  0  0
 13  8  1  1  0  0  0
 13 33  1  0  0  0  0
 14 46  1  0  0  0  0
 14 17  1  0  0  0  0
 14 25  1  1  0  0  0
 15 16  1  0  0  0  0
 15 29  1  0  0  0  0
 16 18  1  1  0  0  0
 16 21  1  0  0  0  0
 17 19  1  1  0  0  0
 17 20  1  0  0  0  0
 20 22  1  1  0  0  0
 20 24  1  0  0  0  0
 23 21  1  1  0  0  0
 23 26  1  0  0  0  0
 23 33  1  0  0  0  0
 24 25  1  6  0  0  0
 24 27  1  0  0  0  0
 26 29  1  6  0  0  0
 26 31  1  0  0  0  0
 27 28  1  0  0  0  0
 29 30  2  0  0  0  0
 31 32  1  0  0  0  0
 33 32  1  6  0  0  0
 34 36  1  0  0  0  0
 34 42  1  0  0  0  0
 36 37  1  6  0  0  0
 36 39  1  0  0  0  0
 40 39  1  1  0  0  0
 40 41  1  0  0  0  0
 40 46  1  0  0  0  0
 41 42  1  1  0  0  0
 41 44  1  0  0  0  0
 42 43  2  0  0  0  0
 44 45  1  0  0  0  0
 46 45  1  6  0  0  0
M  CHG  2   3  -1  35  -1
M  END
>  <CHROM.1>
79.44696928,103.78424864,-17.97980226,-10.20411320,16.89154531,0.16572909
-1.03679344,0.04487233

>  <Name>
ligand

>  <RI>
-1

>  <Rbt.Current_Directory>
/home/itssahil/PROJECTS/Mol_Feturizer/Test_systems_manuscript/rnas/3mum

>  <Rbt.Executable>
rbdock ($Id: //depot/dev/client3/rdock/2013.1/src/exe/rbdock.cxx#4 $)

>  <Rbt.Library>
libRbt.so (2013.1, Build901 2013/11/27)

>  <Rbt.Parameter_File>
/export/apps/rDock/src/rDock_2013.1_src/data/scripts/dock_solv.prm

>  <Rbt.Receptor>
prm/blind_docking_40.prm

>  <SCORE>
5.23475

>  <SCORE.INTER>
0.866827

>  <SCORE.INTER.CONST>
1

>  <SCORE.INTER.POLAR>
0

>  <SCORE.INTER.ROT>
2

>  <SCORE.INTER.SOLV>
37.3458

>  <SCORE.INTER.VDW>
-16.8041

>  <SCORE.INTER.norm>
0.0188441

>  <SCORE.INTRA>
4.35664

>  <SCORE.INTRA.DIHEDRAL>
0.019941

>  <SCORE.INTRA.DIHEDRAL.0>
2.40424

>  <SCORE.INTRA.POLAR>
0

>  <SCORE.INTRA.POLAR.0>
0

>  <SCORE.INTRA.REPUL>
0

>  <SCORE.INTRA.REPUL.0>
0

>  <SCORE.INTRA.SOLV>
11.3737

>  <SCORE.INTRA.SOLV.lig_0>
-134.169

>  <SCORE.INTRA.VDW>
-1.34016

>  <SCORE.INTRA.VDW.0>
-2.18386

>  <SCORE.INTRA.norm>
0.0947095

>  <SCORE.RESTR>
0.0112902

>  <SCORE.RESTR.CAVITY>
0.0112902

>  <SCORE.RESTR.norm>
0.000245438

>  <SCORE.SYSTEM>
0

>  <SCORE.SYSTEM.CONST>
0

>  <SCORE.SYSTEM.DIHEDRAL>
0

>  <SCORE.SYSTEM.SOLV>
0

>  <SCORE.SYSTEM.norm>
0

>  <SCORE.heavy>
46

>  <SCORE.norm>
0.113799

>  <RMSD>
16.110

$$$$
ligand
 OpenBabel02271912143D
libRbt.so/2013.1/901 2013/11/27
 46 52  0  0  0  0  0  0  0  0999 V2000
  -15.9619   -7.7184   17.5112 P   0  0  1  0  0  0  0  0  0  0  0  0
  -18.4786  -10.3681   22.1288 P   0  0  2  0  0  0  0  0  0  0  0  0
  -15.2064   -8.9211   16.4508 O   0  5  0  0  0  0  0  0  0  0  0  0
  -15.8377   -6.0738   16.8337 O   0  0  0  0  0  0  0  0  0  0  0  0
  -18.3511   -7.3941   18.6113 C   0  0  0  0  0  0  0  0  0  0  0  0
  -17.5092   -8.1220   17.7170 O   0  0  0  0  0  0  0  0  0  0  0  0
  -19.5465   -8.2593   18.9623 C   0  0  1  0  0  0  0  0  0  0  0  0
  -20.1763   -8.7156   17.7568 O   0  0  0  0  0  0  0  0  0  0  0  0
  -19.1725   -9.5179   19.7281 C   0  0  1  0  0  0  0  0  0  0  0  0
  -19.2013   -9.3166   21.1394 O   0  0  0  0  0  0  0  0  0  0  0  0
  -20.2190  -10.5209   19.2755 C   0  0  1  0  0  0  0  0  0  0  0  0
  -21.3699  -10.4437   20.1204 O   0  0  0  0  0  0  0  0  0  0  0  0
  -20.6130  -10.0784   17.8785 C   0  0  2  0  0  0  0  0  0  0  0  0
  -13.5618  -10.4206   20.5795 C   0  0  1  0  0  0  0  0  0  0  0  0
  -18.2124  -10.3202   13.1487 N   0  0  0  0  0  0  0  0  0  0  0  0
  -18.7468   -9.2422   13.7848 C   0  0  1  0  0  0  0  0  0  0  0  0
  -14.0557   -9.7997   19.3037 C   0  0  2  0  0  0  0  0  0  0  0  0
  -18.6851   -8.0397   13.1676 N   0  0  0  0  0  0  0  0  0  0  0  0
  -12.9946   -8.9756   18.8179 O   0  0  0  0  0  0  0  0  0  0  0  0
  -15.2670   -8.9859   19.7140 C   0  0  2  0  0  0  0  0  0  0  0  0
  -19.3415   -9.3274   15.0119 N   0  0  0  0  0  0  0  0  0  0  0  0
  -15.3453   -7.7616   18.9968 O   0  0  0  0  0  0  0  0  0  0  0  0
  -19.4269  -10.5095   15.6731 C   0  0  2  0  0  0  0  0  0  0  0  0
  -15.0683   -8.7107   21.1916 C   0  0  2  0  0  0  0  0  0  0  0  0
  -14.1721   -9.7168   21.6605 O   0  0  0  0  0  0  0  0  0  0  0  0
  -18.8664  -11.7090   15.0270 C   0  0  1  0  0  0  0  0  0  0  0  0
  -16.3679   -8.7770   21.9861 C   0  0  0  0  0  0  0  0  0  0  0  0
  -16.9106  -10.0951   21.8849 O   0  0  0  0  0  0  0  0  0  0  0  0
  -18.2373  -11.5536   13.7033 C   0  0  0  0  0  0  0  0  0  0  0  0
  -17.7052  -12.6238   13.0602 O   0  0  0  0  0  0  0  0  0  0  0  0
  -19.0762  -12.7336   15.8608 N   0  0  0  0  0  0  0  0  0  0  0  0
  -19.7214  -12.2394   16.9576 C   0  0  0  0  0  0  0  0  0  0  0  0
  -19.9344  -10.9110   16.8501 N   0  0  1  0  0  0  0  0  0  0  0  0
  -16.5888  -14.1610   18.5265 N   0  0  0  0  0  0  0  0  0  0  0  0
  -18.8939  -12.0509   21.7084 O   0  5  0  0  0  0  0  0  0  0  0  0
  -16.5431  -12.8287   18.2515 C   0  0  2  0  0  0  0  0  0  0  0  0
  -17.3758  -12.3171   17.3076 N   0  0  0  0  0  0  0  0  0  0  0  0
  -18.8361  -10.0813   23.8428 O   0  0  0  0  0  0  0  0  0  0  0  0
  -15.6862  -11.9885   18.8934 N   0  0  0  0  0  0  0  0  0  0  0  0
  -14.8283  -12.4398   19.8381 C   0  0  2  0  0  0  0  0  0  0  0  0
  -14.8327  -13.8682   20.1806 C   0  0  2  0  0  0  0  0  0  0  0  0
  -15.7896  -14.7299   19.4538 C   0  0  0  0  0  0  0  0  0  0  0  0
  -15.8680  -16.0602   19.7039 O   0  0  0  0  0  0  0  0  0  0  0  0
  -13.9037  -14.0368   21.1422 N   0  0  0  0  0  0  0  0  0  0  0  0
  -13.3467  -12.8142   21.3914 C   0  0  0  0  0  0  0  0  0  0  0  0
  -13.9057  -11.8625   20.6100 N   0  0  1  0  0  0  0  0  0  0  0  0
  1  3  1  6  0  0  0
  1  4  2  0  0  0  0
  1  6  1  0  0  0  0
  1 22  1  0  0  0  0
  2 28  1  0  0  0  0
  2 35  1  6  0  0  0
  2 38  2  0  0  0  0
  2 10  1  0  0  0  0
  5  6  1  0  0  0  0
  7  5  1  6  0  0  0
  7  8  1  0  0  0  0
  7  9  1  0  0  0  0
  9 10  1  1  0  0  0
  9 11  1  0  0  0  0
 11 12  1  1  0  0  0
 11 13  1  0  0  0  0
 13  8  1  6  0  0  0
 13 33  1  0  0  0  0
 14 46  1  0  0  0  0
 14 17  1  0  0  0  0
 14 25  1  1  0  0  0
 15 16  1  0  0  0  0
 15 29  1  0  0  0  0
 16 18  1  6  0  0  0
 16 21  1  0  0  0  0
 17 19  1  1  0  0  0
 17 20  1  0  0  0  0
 20 22  1  6  0  0  0
 20 24  1  0  0  0  0
 23 21  1  6  0  0  0
 23 26  1  0  0  0  0
 23 33  1  0  0  0  0
 24 25  1  1  0  0  0
 24 27  1  0  0  0  0
 26 29  1  1  0  0  0
 26 31  1  0  0  0  0
 27 28  1  0  0  0  0
 29 30  2  0  0  0  0
 31 32  1  0  0  0  0
 33 32  1  1  0  0  0
 34 36  1  0  0  0  0
 34 42  1  0  0  0  0
 36 37  1  6  0  0  0
 36 39  1  0  0  0  0
 40 39  1  1  0  0  0
 40 41  1  0  0  0  0
 40 46  1  0  0  0  0
 41 42  1  1  0  0  0
 41 44  1  0  0  0  0
 42 43  2  0  0  0  0
 44 45  1  0  0  0  0
 46 45  1  6  0  0  0
M  CHG  2   3  -1  35  -1
M  END
>  <CHROM.1>
-24.89500883,-17.84253602,-17.17360917,-10.45026066,18.62368773,2.66216923
1.03646697,-2.36950032

>  <Name>
ligand

>  <RI>
-1

>  <Rbt.Current_Directory>
/home/itssahil/PROJECTS/Mol_Feturizer/Test_systems_manuscript/rnas/3mum

>  <Rbt.Executable>
rbdock ($Id: //depot/dev/client3/rdock/2013.1/src/exe/rbdock.cxx#4 $)

>  <Rbt.Library>
libRbt.so (2013.1, Build901 2013/11/27)

>  <Rbt.Parameter_File>
/export/apps/rDock/src/rDock_2013.1_src/data/scripts/dock_solv.prm

>  <Rbt.Receptor>
prm/blind_docking_80.prm

>  <SCORE>
47.3877

>  <SCORE.INTER>
38.8231

>  <SCORE.INTER.CONST>
1

>  <SCORE.INTER.POLAR>
0

>  <SCORE.INTER.ROT>
2

>  <SCORE.INTER.SOLV>
28.4313

>  <SCORE.INTER.VDW>
11.4716

>  <SCORE.INTER.norm>
0.843981

>  <SCORE.INTRA>
8.48726

>  <SCORE.INTRA.DIHEDRAL>
0.0217916

>  <SCORE.INTRA.DIHEDRAL.0>
2.40424

>  <SCORE.INTRA.POLAR>
0

>  <SCORE.INTRA.POLAR.0>
0

>  <SCORE.INTRA.REPUL>
0

>  <SCORE.INTRA.REPUL.0>
0

>  <SCORE.INTRA.SOLV>
7.72594

>  <SCORE.INTRA.SOLV.lig_0>
-134.169

>  <SCORE.INTRA.VDW>
4.61339

>  <SCORE.INTRA.VDW.0>
-2.18386

>  <SCORE.INTRA.norm>
0.184506

>  <SCORE.RESTR>
0.0773348

>  <SCORE.RESTR.CAVITY>
0.0773348

>  <SCORE.RESTR.norm>
0.00168119

>  <SCORE.SYSTEM>
0

>  <SCORE.SYSTEM.CONST>
0

>  <SCORE.SYSTEM.DIHEDRAL>
0

>  <SCORE.SYSTEM.SOLV>
0

>  <SCORE.SYSTEM.norm>
0

>  <SCORE.heavy>
46

>  <SCORE.norm>
1.03017

>  <RMSD>
16.118

$$$$
ligand
 OpenBabel02271912143D
libRbt.so/2013.1/901 2013/11/27
 46 52  0  0  0  0  0  0  0  0999 V2000
  -14.4786   -9.9917   20.7951 P   0  0  1  0  0  0  0  0  0  0  0  0
  -19.5820  -11.7395   18.4336 P   0  0  2  0  0  0  0  0  0  0  0  0
  -14.5002   -8.2417   21.0757 O   0  5  0  0  0  0  0  0  0  0  0  0
  -12.9740  -10.7357   21.3967 O   0  0  0  0  0  0  0  0  0  0  0  0
  -16.0642  -12.0285   21.3958 C   0  0  0  0  0  0  0  0  0  0  0  0
  -15.7565  -10.6411   21.5331 O   0  0  0  0  0  0  0  0  0  0  0  0
  -17.5197  -12.2401   21.7668 C   0  0  1  0  0  0  0  0  0  0  0  0
  -17.7686  -11.6789   23.0633 O   0  0  0  0  0  0  0  0  0  0  0  0
  -18.4868  -11.5389   20.8268 C   0  0  1  0  0  0  0  0  0  0  0  0
  -18.8854  -12.3761   19.7437 O   0  0  0  0  0  0  0  0  0  0  0  0
  -19.6538  -11.1868   21.7325 C   0  0  1  0  0  0  0  0  0  0  0  0
  -20.5917  -12.2656   21.7657 O   0  0  0  0  0  0  0  0  0  0  0  0
  -19.0481  -11.0287   23.1148 C   0  0  2  0  0  0  0  0  0  0  0  0
  -16.1446   -8.3190   16.6837 C   0  0  1  0  0  0  0  0  0  0  0  0
  -19.9613   -7.0356   26.4933 N   0  0  0  0  0  0  0  0  0  0  0  0
  -20.3557   -8.3357   26.5757 C   0  0  1  0  0  0  0  0  0  0  0  0
  -15.5151   -8.3965   18.0457 C   0  0  2  0  0  0  0  0  0  0  0  0
  -21.0866   -8.7155   27.6490 N   0  0  0  0  0  0  0  0  0  0  0  0
  -14.1180   -8.1632   17.8592 O   0  0  0  0  0  0  0  0  0  0  0  0
  -15.7985   -9.8073   18.5223 C   0  0  2  0  0  0  0  0  0  0  0  0
  -20.0469   -9.2641   25.6220 N   0  0  0  0  0  0  0  0  0  0  0  0
  -14.6999  -10.3497   19.2421 O   0  0  0  0  0  0  0  0  0  0  0  0
  -19.3148   -8.9339   24.5281 C   0  0  2  0  0  0  0  0  0  0  0  0
  -16.0349  -10.6058   17.2554 C   0  0  2  0  0  0  0  0  0  0  0  0
  -16.4027   -9.6558   16.2565 O   0  0  0  0  0  0  0  0  0  0  0  0
  -18.8650   -7.5380   24.3884 C   0  0  1  0  0  0  0  0  0  0  0  0
  -17.1445  -11.6405   17.4062 C   0  0  0  0  0  0  0  0  0  0  0  0
  -18.3713  -10.9702   17.7021 O   0  0  0  0  0  0  0  0  0  0  0  0
  -19.2291   -6.5828   25.4501 C   0  0  0  0  0  0  0  0  0  0  0  0
  -18.8432   -5.2838   25.3741 O   0  0  0  0  0  0  0  0  0  0  0  0
  -18.1779   -7.4637   23.2433 N   0  0  0  0  0  0  0  0  0  0  0  0
  -18.1828   -8.7094   22.6849 C   0  0  0  0  0  0  0  0  0  0  0  0
  -18.8617   -9.5915   23.4481 N   0  0  1  0  0  0  0  0  0  0  0  0
  -19.7901   -5.8228   13.8823 N   0  0  0  0  0  0  0  0  0  0  0  0
  -20.8763  -10.5942   18.8741 O   0  5  0  0  0  0  0  0  0  0  0  0
  -18.6804   -6.4933   13.4676 C   0  0  2  0  0  0  0  0  0  0  0  0
  -18.4134   -6.5761   12.1380 N   0  0  0  0  0  0  0  0  0  0  0  0
  -20.2260  -12.9584   17.3166 O   0  0  0  0  0  0  0  0  0  0  0  0
  -17.8261   -7.0869   14.3452 N   0  0  0  0  0  0  0  0  0  0  0  0
  -18.0422   -7.0446   15.6808 C   0  0  2  0  0  0  0  0  0  0  0  0
  -19.2222   -6.3328   16.1894 C   0  0  2  0  0  0  0  0  0  0  0  0
  -20.1097   -5.7034   15.1884 C   0  0  0  0  0  0  0  0  0  0  0  0
  -21.2210   -5.0228   15.5631 O   0  0  0  0  0  0  0  0  0  0  0  0
  -19.1858   -6.4372   17.5326 N   0  0  0  0  0  0  0  0  0  0  0  0
  -18.0735   -7.1618   17.8564 C   0  0  0  0  0  0  0  0  0  0  0  0
  -17.3921   -7.5201   16.7446 N   0  0  1  0  0  0  0  0  0  0  0  0
  1  3  1  1  0  0  0
  1  4  2  0  0  0  0
  1  6  1  0  0  0  0
  1 22  1  0  0  0  0
  2 28  1  0  0  0  0
  2 35  1  1  0  0  0
  2 38  2  0  0  0  0
  2 10  1  0  0  0  0
  5  6  1  0  0  0  0
  7  5  1  6  0  0  0
  7  8  1  0  0  0  0
  7  9  1  0  0  0  0
  9 10  1  6  0  0  0
  9 11  1  0  0  0  0
 11 12  1  1  0  0  0
 11 13  1  0  0  0  0
 13  8  1  6  0  0  0
 13 33  1  0  0  0  0
 14 46  1  0  0  0  0
 14 17  1  0  0  0  0
 14 25  1  1  0  0  0
 15 16  1  0  0  0  0
 15 29  1  0  0  0  0
 16 18  1  6  0  0  0
 16 21  1  0  0  0  0
 17 19  1  6  0  0  0
 17 20  1  0  0  0  0
 20 22  1  6  0  0  0
 20 24  1  0  0  0  0
 23 21  1  6  0  0  0
 23 26  1  0  0  0  0
 23 33  1  0  0  0  0
 24 25  1  6  0  0  0
 24 27  1  0  0  0  0
 26 29  1  1  0  0  0
 26 31  1  0  0  0  0
 27 28  1  0  0  0  0
 29 30  2  0  0  0  0
 31 32  1  0  0  0  0
 33 32  1  1  0  0  0
 34 36  1  0  0  0  0
 34 42  1  0  0  0  0
 36 37  1  6  0  0  0
 36 39  1  0  0  0  0
 40 39  1  1  0  0  0
 40 41  1  0  0  0  0
 40 46  1  0  0  0  0
 41 42  1  1  0  0  0
 41 44  1  0  0  0  0
 42 43  2  0  0  0  0
 44 45  1  0  0  0  0
 46 45  1  6  0  0  0
M  CHG  2   3  -1  35  -1
M  END
>  <CHROM.1>
-117.70920245,166.18945561,-17.98307914,-9.20318576,19.88260680,-1.69637199
0.85156016,-1.32384267

>  <Name>
ligand

>  <RI>
-1

>  <Rbt.Current_Directory>
/home/itssahil/PROJECTS/Mol_Feturizer/Test_systems_manuscript/rnas/3mum

>  <Rbt.Executable>
rbdock ($Id: //depot/dev/client3/rdock/2013.1/src/exe/rbdock.cxx#4 $)

>  <Rbt.Library>
libRbt.so (2013.1, Build901 2013/11/27)

>  <Rbt.Parameter_File>
/export/apps/rDock/src/rDock_2013.1_src/data/scripts/dock_solv.prm

>  <Rbt.Receptor>
prm/blind_docking_80.prm

>  <SCORE>
51.5962

>  <SCORE.INTER>
50.5988

>  <SCORE.INTER.CONST>
1

>  <SCORE.INTER.POLAR>
0

>  <SCORE.INTER.ROT>
2

>  <SCORE.INTER.SOLV>
42.4412

>  <SCORE.INTER.VDW>
14.6521

>  <SCORE.INTER.norm>
1.09997

>  <SCORE.INTRA>
0.346327

>  <SCORE.INTRA.DIHEDRAL>
-0.023378

>  <SCORE.INTRA.DIHEDRAL.0>
2.40424

>  <SCORE.INTRA.POLAR>
0

>  <SCORE.INTRA.POLAR.0>
0

>  <SCORE.INTRA.REPUL>
0

>  <SCORE.INTRA.REPUL.0>
0

>  <SCORE.INTRA.SOLV>
0.0216974

>  <SCORE.INTRA.SOLV.lig_0>
-134.169

>  <SCORE.INTRA.VDW>
0.347168

>  <SCORE.INTRA.VDW.0>
-2.18386

>  <SCORE.INTRA.norm>
0.00752886

>  <SCORE.RESTR>
0.651126

>  <SCORE.RESTR.CAVITY>
0.651126

>  <SCORE.RESTR.norm>
0.0141549

>  <SCORE.SYSTEM>
0

>  <SCORE.SYSTEM.CONST>
0

>  <SCORE.SYSTEM.DIHEDRAL>
0

>  <SCORE.SYSTEM.SOLV>
0

>  <SCORE.SYSTEM.norm>
0

>  <SCORE.heavy>
46

>  <SCORE.norm>
1.12166

>  <RMSD>
16.127

$$$$
ligand
 OpenBabel02271912143D
libRbt.so/2013.1/901 2013/11/27
 46 52  0  0  0  0  0  0  0  0999 V2000
  -20.2639   -9.9326   19.2683 P   0  0  1  0  0  0  0  0  0  0  0  0
  -15.8860   -7.1010   16.5313 P   0  0  2  0  0  0  0  0  0  0  0  0
  -20.6764  -11.4172   18.3921 O   0  5  0  0  0  0  0  0  0  0  0  0
  -21.2101   -9.7715   20.7710 O   0  0  0  0  0  0  0  0  0  0  0  0
  -18.0402   -8.8437   20.2130 C   0  0  0  0  0  0  0  0  0  0  0  0
  -18.6868   -9.9602   19.6018 O   0  0  0  0  0  0  0  0  0  0  0  0
  -16.5485   -8.9504   19.9597 C   0  0  1  0  0  0  0  0  0  0  0  0
  -16.0832  -10.2398   20.3830 O   0  0  0  0  0  0  0  0  0  0  0  0
  -16.1805   -8.8473   18.4885 C   0  0  1  0  0  0  0  0  0  0  0  0
  -15.9128   -7.5033   18.0947 O   0  0  0  0  0  0  0  0  0  0  0  0
  -14.9483   -9.7280   18.3787 C   0  0  1  0  0  0  0  0  0  0  0  0
  -13.7717   -8.9607   18.6455 O   0  0  0  0  0  0  0  0  0  0  0  0
  -15.1067  -10.7682   19.4720 C   0  0  2  0  0  0  0  0  0  0  0  0
  -20.5518   -8.4242   14.7829 C   0  0  1  0  0  0  0  0  0  0  0  0
  -15.7063  -16.0090   20.0780 N   0  0  0  0  0  0  0  0  0  0  0  0
  -15.1417  -15.1068   20.9263 C   0  0  1  0  0  0  0  0  0  0  0  0
  -20.6681   -9.2760   16.0150 C   0  0  2  0  0  0  0  0  0  0  0  0
  -14.6470  -15.5573   22.1024 N   0  0  0  0  0  0  0  0  0  0  0  0
  -22.0556   -9.3098   16.3537 O   0  0  0  0  0  0  0  0  0  0  0  0
  -19.8434   -8.5545   17.0625 C   0  0  2  0  0  0  0  0  0  0  0  0
  -15.0530  -13.7745   20.6370 N   0  0  0  0  0  0  0  0  0  0  0  0
  -20.4464   -8.6260   18.3473 O   0  0  0  0  0  0  0  0  0  0  0  0
  -15.5357  -13.2727   19.4722 C   0  0  2  0  0  0  0  0  0  0  0  0
  -19.7913   -7.1142   16.5922 C   0  0  2  0  0  0  0  0  0  0  0  0
  -20.0562   -7.1498   15.1909 O   0  0  0  0  0  0  0  0  0  0  0  0
  -16.1546  -14.2076   18.5164 C   0  0  1  0  0  0  0  0  0  0  0  0
  -18.4361   -6.4601   16.8372 C   0  0  0  0  0  0  0  0  0  0  0  0
  -17.4361   -7.1672   16.1008 O   0  0  0  0  0  0  0  0  0  0  0  0
  -16.2214  -15.6329   18.8852 C   0  0  0  0  0  0  0  0  0  0  0  0
  -16.7794  -16.5399   18.0437 O   0  0  0  0  0  0  0  0  0  0  0  0
  -16.5408  -13.4843   17.4597 N   0  0  0  0  0  0  0  0  0  0  0  0
  -16.1989  -12.1863   17.7088 C   0  0  0  0  0  0  0  0  0  0  0  0
  -15.5971  -12.0545   18.9097 N   0  0  1  0  0  0  0  0  0  0  0  0
  -19.3588  -12.8812   12.3171 N   0  0  0  0  0  0  0  0  0  0  0  0
  -14.9211   -8.2576   15.5763 O   0  5  0  0  0  0  0  0  0  0  0  0
  -20.3242  -12.6294   13.2432 C   0  0  2  0  0  0  0  0  0  0  0  0
  -21.1475  -13.6370   13.6341 N   0  0  0  0  0  0  0  0  0  0  0  0
  -15.2943   -5.4540   16.2387 O   0  0  0  0  0  0  0  0  0  0  0  0
  -20.4930  -11.3956   13.7923 N   0  0  0  0  0  0  0  0  0  0  0  0
  -19.7086  -10.3508   13.4383 C   0  0  2  0  0  0  0  0  0  0  0  0
  -18.6469  -10.5612   12.4452 C   0  0  2  0  0  0  0  0  0  0  0  0
  -18.5087  -11.9241   11.8889 C   0  0  0  0  0  0  0  0  0  0  0  0
  -17.5560  -12.2146   10.9688 O   0  0  0  0  0  0  0  0  0  0  0  0
  -18.0230   -9.3765   12.2914 N   0  0  0  0  0  0  0  0  0  0  0  0
  -18.6396   -8.4793   13.1171 C   0  0  0  0  0  0  0  0  0  0  0  0
  -19.6455   -9.0687   13.8025 N   0  0  1  0  0  0  0  0  0  0  0  0
  1  3  1  6  0  0  0
  1  4  2  0  0  0  0
  1  6  1  0  0  0  0
  1 22  1  0  0  0  0
  2 28  1  0  0  0  0
  2 35  1  6  0  0  0
  2 38  2  0  0  0  0
  2 10  1  0  0  0  0
  5  6  1  0  0  0  0
  7  5  1  6  0  0  0
  7  8  1  0  0  0  0
  7  9  1  0  0  0  0
  9 10  1  1  0  0  0
  9 11  1  0  0  0  0
 11 12  1  1  0  0  0
 11 13  1  0  0  0  0
 13  8  1  1  0  0  0
 13 33  1  0  0  0  0
 14 46  1  0  0  0  0
 14 17  1  0  0  0  0
 14 25  1  1  0  0  0
 15 16  1  0  0  0  0
 15 29  1  0  0  0  0
 16 18  1  6  0  0  0
 16 21  1  0  0  0  0
 17 19  1  1  0  0  0
 17 20  1  0  0  0  0
 20 22  1  1  0  0  0
 20 24  1  0  0  0  0
 23 21  1  6  0  0  0
 23 26  1  0  0  0  0
 23 33  1  0  0  0  0
 24 25  1  6  0  0  0
 24 27  1  0  0  0  0
 26 29  1  1  0  0  0
 26 31  1  0  0  0  0
 27 28  1  0  0  0  0
 29 30  2  0  0  0  0
 31 32  1  0  0  0  0
 33 32  1  1  0  0  0
 34 36  1  0  0  0  0
 34 42  1  0  0  0  0
 36 37  1  6  0  0  0
 36 39  1  0  0  0  0
 40 39  1  1  0  0  0
 40 41  1  0  0  0  0
 40 46  1  0  0  0  0
 41 42  1  1  0  0  0
 41 44  1  0  0  0  0
 42 43  2  0  0  0  0
 44 45  1  0  0  0  0
 46 45  1  6  0  0  0
M  CHG  2   3  -1  35  -1
M  END
>  <CHROM.1>
-81.91991566,47.67315141,-17.81814974,-10.42583304,17.06133695,-0.48984668
-1.05296664,0.11091600

>  <Name>
ligand

>  <RI>
-1

>  <Rbt.Current_Directory>
/home/itssahil/PROJECTS/Mol_Feturizer/Test_systems_manuscript/rnas/3mum

>  <Rbt.Executable>
rbdock ($Id: //depot/dev/client3/rdock/2013.1/src/exe/rbdock.cxx#4 $)

>  <Rbt.Library>
libRbt.so (2013.1, Build901 2013/11/27)

>  <Rbt.Parameter_File>
/export/apps/rDock/src/rDock_2013.1_src/data/scripts/dock_solv.prm

>  <Rbt.Receptor>
prm/blind_docking_100.prm

>  <SCORE>
21.012

>  <SCORE.INTER>
18.753

>  <SCORE.INTER.CONST>
1

>  <SCORE.INTER.POLAR>
0

>  <SCORE.INTER.ROT>
2

>  <SCORE.INTER.SOLV>
42.1142

>  <SCORE.INTER.VDW>
-6.46938

>  <SCORE.INTER.norm>
0.407675

>  <SCORE.INTRA>
0.552193

>  <SCORE.INTRA.DIHEDRAL>
-0.0246291

>  <SCORE.INTRA.DIHEDRAL.0>
2.40424

>  <SCORE.INTRA.POLAR>
0

>  <SCORE.INTRA.POLAR.0>
0

>  <SCORE.INTRA.REPUL>
0

>  <SCORE.INTRA.REPUL.0>
0

>  <SCORE.INTRA.SOLV>
0.0382213

>  <SCORE.INTRA.SOLV.lig_0>
-134.169

>  <SCORE.INTRA.VDW>
0.545397

>  <SCORE.INTRA.VDW.0>
-2.18386

>  <SCORE.INTRA.norm>
0.0120042

>  <SCORE.RESTR>
1.70676

>  <SCORE.RESTR.CAVITY>
1.70676

>  <SCORE.RESTR.norm>
0.0371035

>  <SCORE.SYSTEM>
0

>  <SCORE.SYSTEM.CONST>
0

>  <SCORE.SYSTEM.DIHEDRAL>
0

>  <SCORE.SYSTEM.SOLV>
0

>  <SCORE.SYSTEM.norm>
0

>  <SCORE.heavy>
46

>  <SCORE.norm>
0.456782

>  <RMSD>
16.163

$$$$
ligand
 OpenBabel02271912143D
libRbt.so/2013.1/901 2013/11/27
 46 52  0  0  0  0  0  0  0  0999 V2000
  -18.9252   -9.1999   22.2787 P   0  0  1  0  0  0  0  0  0  0  0  0
  -16.9431  -13.2526   18.4941 P   0  0  2  0  0  0  0  0  0  0  0  0
  -18.2617   -7.6068   21.8744 O   0  5  0  0  0  0  0  0  0  0  0  0
  -20.0747   -9.1077   23.6387 O   0  0  0  0  0  0  0  0  0  0  0  0
  -20.1965  -11.1152   20.9599 C   0  0  0  0  0  0  0  0  0  0  0  0
  -19.6555   -9.7940   20.9698 O   0  0  0  0  0  0  0  0  0  0  0  0
  -20.3629  -11.5589   19.5191 C   0  0  1  0  0  0  0  0  0  0  0  0
  -21.1228  -10.5763   18.8014 O   0  0  0  0  0  0  0  0  0  0  0  0
  -19.0446  -11.6798   18.7721 C   0  0  1  0  0  0  0  0  0  0  0  0
  -18.4925  -12.9911   18.8654 O   0  0  0  0  0  0  0  0  0  0  0  0
  -19.4225  -11.3223   17.3454 C   0  0  1  0  0  0  0  0  0  0  0  0
  -19.8390  -12.4943   16.6401 O   0  0  0  0  0  0  0  0  0  0  0  0
  -20.6100  -10.3863   17.4734 C   0  0  2  0  0  0  0  0  0  0  0  0
  -14.3200  -10.1398   21.6576 C   0  0  1  0  0  0  0  0  0  0  0  0
  -19.3910   -6.4213   14.1590 N   0  0  0  0  0  0  0  0  0  0  0  0
  -19.7652   -7.6972   13.8685 C   0  0  1  0  0  0  0  0  0  0  0  0
  -15.6152   -9.4042   21.8545 C   0  0  2  0  0  0  0  0  0  0  0  0
  -19.8530   -8.0575   12.5673 N   0  0  0  0  0  0  0  0  0  0  0  0
  -15.5827   -8.8765   23.1817 O   0  0  0  0  0  0  0  0  0  0  0  0
  -16.6888  -10.4612   21.6878 C   0  0  2  0  0  0  0  0  0  0  0  0
  -20.0504   -8.6220   14.8330 N   0  0  0  0  0  0  0  0  0  0  0  0
  -17.7636  -10.2668   22.5969 O   0  0  0  0  0  0  0  0  0  0  0  0
  -19.9792   -8.3098   16.1517 C   0  0  2  0  0  0  0  0  0  0  0  0
  -15.9906  -11.7745   21.9817 C   0  0  2  0  0  0  0  0  0  0  0  0
  -14.6000  -11.5343   21.7724 O   0  0  0  0  0  0  0  0  0  0  0  0
  -19.5755   -6.9419   16.5210 C   0  0  1  0  0  0  0  0  0  0  0  0
  -16.4535  -12.9075   21.0726 C   0  0  0  0  0  0  0  0  0  0  0  0
  -16.1452  -12.5747   19.7175 O   0  0  0  0  0  0  0  0  0  0  0  0
  -19.2811   -5.9891   15.4359 C   0  0  0  0  0  0  0  0  0  0  0  0
  -18.9037   -4.7159   15.7166 O   0  0  0  0  0  0  0  0  0  0  0  0
  -19.5740   -6.8845   17.8574 N   0  0  0  0  0  0  0  0  0  0  0  0
  -19.9449   -8.1151   18.3174 C   0  0  0  0  0  0  0  0  0  0  0  0
  -20.1872   -8.9709   17.3023 N   0  0  1  0  0  0  0  0  0  0  0  0
  -15.3813   -9.2610   16.6108 N   0  0  0  0  0  0  0  0  0  0  0  0
  -16.5015  -12.4749   16.9511 O   0  5  0  0  0  0  0  0  0  0  0  0
  -16.2200   -9.5780   17.6351 C   0  0  2  0  0  0  0  0  0  0  0  0
  -17.5512   -9.6966   17.3900 N   0  0  0  0  0  0  0  0  0  0  0  0
  -16.5152  -14.9734   18.4327 O   0  0  0  0  0  0  0  0  0  0  0  0
  -15.7670   -9.7802   18.9024 N   0  0  0  0  0  0  0  0  0  0  0  0
  -14.4534   -9.6696   19.2098 C   0  0  2  0  0  0  0  0  0  0  0  0
  -13.4986   -9.3324   18.1457 C   0  0  2  0  0  0  0  0  0  0  0  0
  -14.0496   -9.1304   16.7886 C   0  0  0  0  0  0  0  0  0  0  0  0
  -13.2452   -8.8189   15.7423 O   0  0  0  0  0  0  0  0  0  0  0  0
  -12.2792   -9.2991   18.7186 N   0  0  0  0  0  0  0  0  0  0  0  0
  -12.4421   -9.5876   20.0442 C   0  0  0  0  0  0  0  0  0  0  0  0
  -13.7446   -9.8108   20.3314 N   0  0  1  0  0  0  0  0  0  0  0  0
  1  3  1  6  0  0  0
  1  4  2  0  0  0  0
  1  6  1  0  0  0  0
  1 22  1  0  0  0  0
  2 28  1  0  0  0  0
  2 35  1  6  0  0  0
  2 38  2  0  0  0  0
  2 10  1  0  0  0  0
  5  6  1  0  0  0  0
  7  5  1  1  0  0  0
  7  8  1  0  0  0  0
  7  9  1  0  0  0  0
  9 10  1  6  0  0  0
  9 11  1  0  0  0  0
 11 12  1  6  0  0  0
 11 13  1  0  0  0  0
 13  8  1  1  0  0  0
 13 33  1  0  0  0  0
 14 46  1  0  0  0  0
 14 17  1  0  0  0  0
 14 25  1  6  0  0  0
 15 16  1  0  0  0  0
 15 29  1  0  0  0  0
 16 18  1  1  0  0  0
 16 21  1  0  0  0  0
 17 19  1  1  0  0  0
 17 20  1  0  0  0  0
 20 22  1  1  0  0  0
 20 24  1  0  0  0  0
 23 21  1  1  0  0  0
 23 26  1  0  0  0  0
 23 33  1  0  0  0  0
 24 25  1  6  0  0  0
 24 27  1  0  0  0  0
 26 29  1  6  0  0  0
 26 31  1  0  0  0  0
 27 28  1  0  0  0  0
 29 30  2  0  0  0  0
 31 32  1  0  0  0  0
 33 32  1  6  0  0  0
 34 36  1  0  0  0  0
 34 42  1  0  0  0  0
 36 37  1  1  0  0  0
 36 39  1  0  0  0  0
 40 39  1  6  0  0  0
 40 41  1  0  0  0  0
 40 46  1  0  0  0  0
 41 42  1  6  0  0  0
 41 44  1  0  0  0  0
 42 43  2  0  0  0  0
 44 45  1  0  0  0  0
 46 45  1  1  0  0  0
M  CHG  2   3  -1  35  -1
M  END
>  <CHROM.1>
-161.71282638,-39.61186329,-17.52562224,-9.93522967,18.82205349,1.05013655
-0.12773473,1.97880917

>  <Name>
ligand

>  <RI>
-1

>  <Rbt.Current_Directory>
/home/itssahil/PROJECTS/Mol_Feturizer/Test_systems_manuscript/rnas/3mum

>  <Rbt.Executable>
rbdock ($Id: //depot/dev/client3/rdock/2013.1/src/exe/rbdock.cxx#4 $)

>  <Rbt.Library>
libRbt.so (2013.1, Build901 2013/11/27)

>  <Rbt.Parameter_File>
/export/apps/rDock/src/rDock_2013.1_src/data/scripts/dock_solv.prm

>  <Rbt.Receptor>
prm/blind_docking_80.prm

>  <SCORE>
57.1521

>  <SCORE.INTER>
49.841

>  <SCORE.INTER.CONST>
1

>  <SCORE.INTER.POLAR>
0

>  <SCORE.INTER.ROT>
2

>  <SCORE.INTER.SOLV>
22.8934

>  <SCORE.INTER.VDW>
20.6629

>  <SCORE.INTER.norm>
1.0835

>  <SCORE.INTRA>
6.51617

>  <SCORE.INTRA.DIHEDRAL>
0.0225502

>  <SCORE.INTRA.DIHEDRAL.0>
2.40424

>  <SCORE.INTRA.POLAR>
0

>  <SCORE.INTRA.POLAR.0>
0

>  <SCORE.INTRA.REPUL>
0

>  <SCORE.INTRA.REPUL.0>
0

>  <SCORE.INTRA.SOLV>
14.2156

>  <SCORE.INTRA.SOLV.lig_0>
-134.169

>  <SCORE.INTRA.VDW>
-0.602884

>  <SCORE.INTRA.VDW.0>
-2.18386

>  <SCORE.INTRA.norm>
0.141656

>  <SCORE.RESTR>
0.794913

>  <SCORE.RESTR.CAVITY>
0.794913

>  <SCORE.RESTR.norm>
0.0172807

>  <SCORE.SYSTEM>
0

>  <SCORE.SYSTEM.CONST>
0

>  <SCORE.SYSTEM.DIHEDRAL>
0

>  <SCORE.SYSTEM.SOLV>
0

>  <SCORE.SYSTEM.norm>
0

>  <SCORE.heavy>
46

>  <SCORE.norm>
1.24244

>  <RMSD>
16.178

$$$$
ligand
 OpenBabel02271912143D
libRbt.so/2013.1/901 2013/11/27
 46 52  0  0  0  0  0  0  0  0999 V2000
  -14.7776   -8.5641   18.8763 P   0  0  1  0  0  0  0  0  0  0  0  0
  -17.0557  -13.5379   16.6975 P   0  0  2  0  0  0  0  0  0  0  0  0
  -16.0465   -7.3418   19.0701 O   0  5  0  0  0  0  0  0  0  0  0  0
  -13.2062   -7.9832   19.4866 O   0  0  0  0  0  0  0  0  0  0  0  0
  -14.4508  -11.0908   19.6059 C   0  0  0  0  0  0  0  0  0  0  0  0
  -15.2271   -9.8942   19.6687 O   0  0  0  0  0  0  0  0  0  0  0  0
  -15.3286  -12.2587   20.0133 C   0  0  1  0  0  0  0  0  0  0  0  0
  -15.9324  -11.9817   21.2848 O   0  0  0  0  0  0  0  0  0  0  0  0
  -16.4851  -12.5026   19.0576 C   0  0  1  0  0  0  0  0  0  0  0  0
  -16.1432  -13.4242   18.0247 O   0  0  0  0  0  0  0  0  0  0  0  0
  -17.5745  -13.0450   19.9658 C   0  0  1  0  0  0  0  0  0  0  0  0
  -17.4638  -14.4668   20.0694 O   0  0  0  0  0  0  0  0  0  0  0  0
  -17.2940  -12.4366   21.3273 C   0  0  2  0  0  0  0  0  0  0  0  0
  -17.0448   -8.7777   14.7181 C   0  0  1  0  0  0  0  0  0  0  0  0
  -18.6328   -8.3907   24.4944 N   0  0  0  0  0  0  0  0  0  0  0  0
  -17.6354   -9.3043   24.6457 C   0  0  1  0  0  0  0  0  0  0  0  0
  -16.5791   -8.3182   16.0705 C   0  0  2  0  0  0  0  0  0  0  0  0
  -16.8460   -9.2141   25.7409 N   0  0  0  0  0  0  0  0  0  0  0  0
  -15.7618   -7.1678   15.8473 O   0  0  0  0  0  0  0  0  0  0  0  0
  -15.7829   -9.4845   16.6215 C   0  0  2  0  0  0  0  0  0  0  0  0
  -17.4043  -10.3034   23.7428 N   0  0  0  0  0  0  0  0  0  0  0  0
  -14.6424   -9.0463   17.3472 O   0  0  0  0  0  0  0  0  0  0  0  0
  -18.1663  -10.4355   22.6277 C   0  0  2  0  0  0  0  0  0  0  0  0
  -15.3508  -10.2721   15.4003 C   0  0  2  0  0  0  0  0  0  0  0  0
  -16.2631   -9.9173   14.3624 O   0  0  0  0  0  0  0  0  0  0  0  0
  -19.2623   -9.4738   22.4171 C   0  0  1  0  0  0  0  0  0  0  0  0
  -15.3944  -11.7798   15.6223 C   0  0  0  0  0  0  0  0  0  0  0  0
  -16.7389  -12.1715   15.9069 O   0  0  0  0  0  0  0  0  0  0  0  0
  -19.4618   -8.4181   23.4259 C   0  0  0  0  0  0  0  0  0  0  0  0
  -20.4562   -7.5052   23.2849 O   0  0  0  0  0  0  0  0  0  0  0  0
  -19.8614   -9.8122   21.2701 N   0  0  0  0  0  0  0  0  0  0  0  0
  -19.2084  -10.9052   20.7776 C   0  0  0  0  0  0  0  0  0  0  0  0
  -18.1952  -11.2824   21.5855 N   0  0  1  0  0  0  0  0  0  0  0  0
  -21.5236   -8.8291   12.0150 N   0  0  0  0  0  0  0  0  0  0  0  0
  -18.7893  -13.6384   17.1042 O   0  5  0  0  0  0  0  0  0  0  0  0
  -20.2832   -8.4141   11.6379 C   0  0  2  0  0  0  0  0  0  0  0  0
  -20.0984   -7.9322   10.3811 N   0  0  0  0  0  0  0  0  0  0  0  0
  -16.6130  -14.9031   15.6543 O   0  0  0  0  0  0  0  0  0  0  0  0
  -19.2171   -8.4670   12.4822 N   0  0  0  0  0  0  0  0  0  0  0  0
  -19.3370   -8.9431   13.7436 C   0  0  2  0  0  0  0  0  0  0  0  0
  -20.6518   -9.4033   14.2095 C   0  0  2  0  0  0  0  0  0  0  0  0
  -21.7727   -9.3158   13.2492 C   0  0  0  0  0  0  0  0  0  0  0  0
  -23.0231   -9.7144   13.5899 O   0  0  0  0  0  0  0  0  0  0  0  0
  -20.4887   -9.8082   15.4846 N   0  0  0  0  0  0  0  0  0  0  0  0
  -19.1735   -9.6255   15.8066 C   0  0  0  0  0  0  0  0  0  0  0  0
  -18.4901   -9.1053   14.7619 N   0  0  1  0  0  0  0  0  0  0  0  0
  1  3  1  1  0  0  0
  1  4  2  0  0  0  0
  1  6  1  0  0  0  0
  1 22  1  0  0  0  0
  2 28  1  0  0  0  0
  2 35  1  1  0  0  0
  2 38  2  0  0  0  0
  2 10  1  0  0  0  0
  5  6  1  0  0  0  0
  7  5  1  6  0  0  0
  7  8  1  0  0  0  0
  7  9  1  0  0  0  0
  9 10  1  6  0  0  0
  9 11  1  0  0  0  0
 11 12  1  1  0  0  0
 11 13  1  0  0  0  0
 13  8  1  6  0  0  0
 13 33  1  0  0  0  0
 14 46  1  0  0  0  0
 14 17  1  0  0  0  0
 14 25  1  1  0  0  0
 15 16  1  0  0  0  0
 15 29  1  0  0  0  0
 16 18  1  1  0  0  0
 16 21  1  0  0  0  0
 17 19  1  6  0  0  0
 17 20  1  0  0  0  0
 20 22  1  6  0  0  0
 20 24  1  0  0  0  0
 23 21  1  1  0  0  0
 23 26  1  0  0  0  0
 23 33  1  0  0  0  0
 24 25  1  6  0  0  0
 24 27  1  0  0  0  0
 26 29  1  6  0  0  0
 26 31  1  0  0  0  0
 27 28  1  0  0  0  0
 29 30  2  0  0  0  0
 31 32  1  0  0  0  0
 33 32  1  6  0  0  0
 34 36  1  0  0  0  0
 34 42  1  0  0  0  0
 36 37  1  6  0  0  0
 36 39  1  0  0  0  0
 40 39  1  1  0  0  0
 40 41  1  0  0  0  0
 40 46  1  0  0  0  0
 41 42  1  1  0  0  0
 41 44  1  0  0  0  0
 42 43  2  0  0  0  0
 44 45  1  0  0  0  0
 46 45  1  6  0  0  0
M  CHG  2   3  -1  35  -1
M  END
>  <CHROM.1>
-57.47275804,147.48396337,-17.55814534,-10.26391110,18.00353560,-1.29088445
0.69503931,-1.68184604

>  <Name>
ligand

>  <RI>
-1

>  <Rbt.Current_Directory>
/home/itssahil/PROJECTS/Mol_Feturizer/Test_systems_manuscript/rnas/3mum

>  <Rbt.Executable>
rbdock ($Id: //depot/dev/client3/rdock/2013.1/src/exe/rbdock.cxx#4 $)

>  <Rbt.Library>
libRbt.so (2013.1, Build901 2013/11/27)

>  <Rbt.Parameter_File>
/export/apps/rDock/src/rDock_2013.1_src/data/scripts/dock_solv.prm

>  <Rbt.Receptor>
prm/blind_docking_80.prm

>  <SCORE>
67.8721

>  <SCORE.INTER>
66.5759

>  <SCORE.INTER.CONST>
1

>  <SCORE.INTER.POLAR>
0

>  <SCORE.INTER.ROT>
2

>  <SCORE.INTER.SOLV>
38.6241

>  <SCORE.INTER.VDW>
26.5759

>  <SCORE.INTER.norm>
1.4473

>  <SCORE.INTRA>
0.755679

>  <SCORE.INTRA.DIHEDRAL>
-0.0310173

>  <SCORE.INTRA.DIHEDRAL.0>
2.40424

>  <SCORE.INTRA.POLAR>
0

>  <SCORE.INTRA.POLAR.0>
0

>  <SCORE.INTRA.REPUL>
0

>  <SCORE.INTRA.REPUL.0>
0

>  <SCORE.INTRA.SOLV>
0.0230038

>  <SCORE.INTRA.SOLV.lig_0>
-134.169

>  <SCORE.INTRA.VDW>
0.759685

>  <SCORE.INTRA.VDW.0>
-2.18386

>  <SCORE.INTRA.norm>
0.0164278

>  <SCORE.RESTR>
0.540599

>  <SCORE.RESTR.CAVITY>
0.540599

>  <SCORE.RESTR.norm>
0.0117522

>  <SCORE.SYSTEM>
0

>  <SCORE.SYSTEM.CONST>
0

>  <SCORE.SYSTEM.DIHEDRAL>
0

>  <SCORE.SYSTEM.SOLV>
0

>  <SCORE.SYSTEM.norm>
0

>  <SCORE.heavy>
46

>  <SCORE.norm>
1.47548

>  <RMSD>
16.181

$$$$
ligand
 OpenBabel02271912143D
libRbt.so/2013.1/901 2013/11/27
 46 52  0  0  0  0  0  0  0  0999 V2000
  -14.0788   -9.2059   20.2131 P   0  0  1  0  0  0  0  0  0  0  0  0
  -17.3293  -12.6938   16.7570 P   0  0  2  0  0  0  0  0  0  0  0  0
  -15.1108   -8.0195   21.0312 O   0  5  0  0  0  0  0  0  0  0  0  0
  -12.3810   -9.0763   20.7421 O   0  0  0  0  0  0  0  0  0  0  0  0
  -14.0848  -11.8393   19.9155 C   0  0  0  0  0  0  0  0  0  0  0  0
  -14.6506  -10.6802   20.5277 O   0  0  0  0  0  0  0  0  0  0  0  0
  -15.0907  -12.9713   20.0013 C   0  0  1  0  0  0  0  0  0  0  0  0
  -15.5095  -13.1359   21.3635 O   0  0  0  0  0  0  0  0  0  0  0  0
  -16.3629  -12.7050   19.2133 C   0  0  1  0  0  0  0  0  0  0  0  0
  -16.2794  -13.1946   17.8767 O   0  0  0  0  0  0  0  0  0  0  0  0
  -17.4260  -13.4306   20.0191 C   0  0  1  0  0  0  0  0  0  0  0  0
  -17.5326  -14.7874   19.5808 O   0  0  0  0  0  0  0  0  0  0  0  0
  -16.9145  -13.4215   21.4476 C   0  0  2  0  0  0  0  0  0  0  0  0
  -16.7646   -7.5703   16.6652 C   0  0  1  0  0  0  0  0  0  0  0  0
  -16.6262   -9.8858   25.3984 N   0  0  0  0  0  0  0  0  0  0  0  0
  -15.6762  -10.7524   24.9522 C   0  0  1  0  0  0  0  0  0  0  0  0
  -16.0958   -7.7146   18.0028 C   0  0  2  0  0  0  0  0  0  0  0  0
  -14.4719  -10.7543   25.5689 N   0  0  0  0  0  0  0  0  0  0  0  0
  -15.1333   -6.6624   18.0892 O   0  0  0  0  0  0  0  0  0  0  0  0
  -15.4430   -9.0820   17.9625 C   0  0  2  0  0  0  0  0  0  0  0  0
  -15.8913  -11.6161   23.9157 N   0  0  0  0  0  0  0  0  0  0  0  0
  -14.1791   -9.0806   18.6122 O   0  0  0  0  0  0  0  0  0  0  0  0
  -17.0807  -11.6516   23.2632 C   0  0  2  0  0  0  0  0  0  0  0  0
  -15.2688   -9.3867   16.4876 C   0  0  2  0  0  0  0  0  0  0  0  0
  -16.2145   -8.5661   15.8038 O   0  0  0  0  0  0  0  0  0  0  0  0
  -18.1451  -10.7356   23.7087 C   0  0  1  0  0  0  0  0  0  0  0  0
  -15.5285  -10.8508   16.1508 C   0  0  0  0  0  0  0  0  0  0  0  0
  -16.8819  -11.1724   16.4778 O   0  0  0  0  0  0  0  0  0  0  0  0
  -17.8530   -9.8272   24.8318 C   0  0  0  0  0  0  0  0  0  0  0  0
  -18.7956   -8.9625   25.2855 O   0  0  0  0  0  0  0  0  0  0  0  0
  -19.2057  -10.9621   22.9258 N   0  0  0  0  0  0  0  0  0  0  0  0
  -18.8582  -11.9458   22.0454 C   0  0  0  0  0  0  0  0  0  0  0  0
  -17.5897  -12.3621   22.2433 N   0  0  1  0  0  0  0  0  0  0  0  0
  -21.1773   -9.0790   14.2944 N   0  0  0  0  0  0  0  0  0  0  0  0
  -19.0060  -12.7523   17.3620 O   0  5  0  0  0  0  0  0  0  0  0  0
  -19.9011   -9.0481   13.8218 C   0  0  2  0  0  0  0  0  0  0  0  0
  -19.6539   -9.4619   12.5515 N   0  0  0  0  0  0  0  0  0  0  0  0
  -17.2182  -13.5977   15.2342 O   0  0  0  0  0  0  0  0  0  0  0  0
  -18.8599   -8.6149   14.5837 N   0  0  0  0  0  0  0  0  0  0  0  0
  -19.0421   -8.1967   15.8581 C   0  0  2  0  0  0  0  0  0  0  0  0
  -20.3978   -8.2042   16.4234 C   0  0  2  0  0  0  0  0  0  0  0  0
  -21.4885   -8.6799   15.5459 C   0  0  0  0  0  0  0  0  0  0  0  0
  -22.7727   -8.7201   15.9792 O   0  0  0  0  0  0  0  0  0  0  0  0
  -20.2927   -7.7354   17.6826 N   0  0  0  0  0  0  0  0  0  0  0  0
  -18.9742   -7.4548   17.9058 C   0  0  0  0  0  0  0  0  0  0  0  0
  -18.2314   -7.7304   16.8098 N   0  0  1  0  0  0  0  0  0  0  0  0
  1  3  1  1  0  0  0
  1  4  2  0  0  0  0
  1  6  1  0  0  0  0
  1 22  1  0  0  0  0
  2 28  1  0  0  0  0
  2 35  1  1  0  0  0
  2 38  2  0  0  0  0
  2 10  1  0  0  0  0
  5  6  1  0  0  0  0
  7  5  1  1  0  0  0
  7  8  1  0  0  0  0
  7  9  1  0  0  0  0
  9 10  1  6  0  0  0
  9 11  1  0  0  0  0
 11 12  1  6  0  0  0
 11 13  1  0  0  0  0
 13  8  1  6  0  0  0
 13 33  1  0  0  0  0
 14 46  1  0  0  0  0
 14 17  1  0  0  0  0
 14 25  1  6  0  0  0
 15 16  1  0  0  0  0
 15 29  1  0  0  0  0
 16 18  1  1  0  0  0
 16 21  1  0  0  0  0
 17 19  1  6  0  0  0
 17 20  1  0  0  0  0
 20 22  1  1  0  0  0
 20 24  1  0  0  0  0
 23 21  1  1  0  0  0
 23 26  1  0  0  0  0
 23 33  1  0  0  0  0
 24 25  1  6  0  0  0
 24 27  1  0  0  0  0
 26 29  1  6  0  0  0
 26 31  1  0  0  0  0
 27 28  1  0  0  0  0
 29 30  2  0  0  0  0
 31 32  1  0  0  0  0
 33 32  1  6  0  0  0
 34 36  1  0  0  0  0
 34 42  1  0  0  0  0
 36 37  1  1  0  0  0
 36 39  1  0  0  0  0
 40 39  1  6  0  0  0
 40 41  1  0  0  0  0
 40 46  1  0  0  0  0
 41 42  1  6  0  0  0
 41 44  1  0  0  0  0
 42 43  2  0  0  0  0
 44 45  1  0  0  0  0
 46 45  1  1  0  0  0
M  CHG  2   3  -1  35  -1
M  END
>  <CHROM.1>
-31.61046772,-151.17375434,-17.07039453,-10.36209932,19.09409089,-1.02672162
-0.84042805,-0.93841897

>  <Name>
ligand

>  <RI>
-1

>  <Rbt.Current_Directory>
/home/itssahil/PROJECTS/Mol_Feturizer/Test_systems_manuscript/rnas/3mum

>  <Rbt.Executable>
rbdock ($Id: //depot/dev/client3/rdock/2013.1/src/exe/rbdock.cxx#4 $)

>  <Rbt.Library>
libRbt.so (2013.1, Build901 2013/11/27)

>  <Rbt.Parameter_File>
/export/apps/rDock/src/rDock_2013.1_src/data/scripts/dock_solv.prm

>  <Rbt.Receptor>
prm/blind_docking_40.prm

>  <SCORE>
52.8911

>  <SCORE.INTER>
51.6651

>  <SCORE.INTER.CONST>
1

>  <SCORE.INTER.POLAR>
0

>  <SCORE.INTER.ROT>
2

>  <SCORE.INTER.SOLV>
35.7946

>  <SCORE.INTER.VDW>
17.5785

>  <SCORE.INTER.norm>
1.12315

>  <SCORE.INTRA>
0.271088

>  <SCORE.INTRA.DIHEDRAL>
0.0268342

>  <SCORE.INTRA.DIHEDRAL.0>
2.40424

>  <SCORE.INTRA.POLAR>
0

>  <SCORE.INTRA.POLAR.0>
0

>  <SCORE.INTRA.REPUL>
0

>  <SCORE.INTRA.REPUL.0>
0

>  <SCORE.INTRA.SOLV>
0.0715425

>  <SCORE.INTRA.SOLV.lig_0>
-134.169

>  <SCORE.INTRA.VDW>
0.2219

>  <SCORE.INTRA.VDW.0>
-2.18386

>  <SCORE.INTRA.norm>
0.00589322

>  <SCORE.RESTR>
0.954951

>  <SCORE.RESTR.CAVITY>
0.954951

>  <SCORE.RESTR.norm>
0.0207598

>  <SCORE.SYSTEM>
0

>  <SCORE.SYSTEM.CONST>
0

>  <SCORE.SYSTEM.DIHEDRAL>
0

>  <SCORE.SYSTEM.SOLV>
0

>  <SCORE.SYSTEM.norm>
0

>  <SCORE.heavy>
46

>  <SCORE.norm>
1.14981

>  <RMSD>
16.206

$$$$
ligand
 OpenBabel02271912143D
libRbt.so/2013.1/901 2013/11/27
 46 52  0  0  0  0  0  0  0  0999 V2000
  -19.1993  -10.0385   21.7762 P   0  0  1  0  0  0  0  0  0  0  0  0
  -15.4945   -8.1780   17.5942 P   0  0  2  0  0  0  0  0  0  0  0  0
  -19.8783  -11.6156   21.3365 O   0  5  0  0  0  0  0  0  0  0  0  0
  -19.7440   -9.5152   23.3913 O   0  0  0  0  0  0  0  0  0  0  0  0
  -16.7661   -9.0019   21.9459 C   0  0  0  0  0  0  0  0  0  0  0  0
  -17.5912  -10.1484   21.7378 O   0  0  0  0  0  0  0  0  0  0  0  0
  -15.3869   -9.2903   21.3843 C   0  0  1  0  0  0  0  0  0  0  0  0
  -14.8911  -10.5158   21.9413 O   0  0  0  0  0  0  0  0  0  0  0  0
  -15.3829   -9.4962   19.8784 C   0  0  1  0  0  0  0  0  0  0  0  0
  -15.1590   -8.2790   19.1703 O   0  0  0  0  0  0  0  0  0  0  0  0
  -14.2551  -10.4913   19.6693 C   0  0  1  0  0  0  0  0  0  0  0  0
  -13.0157   -9.7990   19.4986 O   0  0  0  0  0  0  0  0  0  0  0  0
  -14.1897  -11.2915   20.9569 C   0  0  2  0  0  0  0  0  0  0  0  0
  -20.4997   -9.3688   17.2665 C   0  0  1  0  0  0  0  0  0  0  0  0
  -17.0419  -14.5415   17.8754 N   0  0  0  0  0  0  0  0  0  0  0  0
  -16.5929  -13.2841   17.6112 C   0  0  1  0  0  0  0  0  0  0  0  0
  -20.3514   -9.9628   18.6385 C   0  0  2  0  0  0  0  0  0  0  0  0
  -16.8889  -12.7388   16.4088 N   0  0  0  0  0  0  0  0  0  0  0  0
  -21.6152   -9.8057   19.2859 O   0  0  0  0  0  0  0  0  0  0  0  0
  -19.2656   -9.1382   19.3010 C   0  0  2  0  0  0  0  0  0  0  0  0
  -15.8631  -12.5558   18.5076 N   0  0  0  0  0  0  0  0  0  0  0  0
  -19.5411   -8.9143   20.6770 O   0  0  0  0  0  0  0  0  0  0  0  0
  -15.5384  -13.0583   19.7256 C   0  0  2  0  0  0  0  0  0  0  0  0
  -19.2647   -7.8211   18.5502 C   0  0  2  0  0  0  0  0  0  0  0  0
  -19.8632   -8.0917   17.2837 O   0  0  0  0  0  0  0  0  0  0  0  0
  -16.0026  -14.4150   20.0637 C   0  0  1  0  0  0  0  0  0  0  0  0
  -17.8626   -7.2602   18.3405 C   0  0  0  0  0  0  0  0  0  0  0  0
  -17.1041   -8.1804   17.5531 O   0  0  0  0  0  0  0  0  0  0  0  0
  -16.7856  -15.1513   19.0553 C   0  0  0  0  0  0  0  0  0  0  0  0
  -17.2403  -16.4041   19.3118 O   0  0  0  0  0  0  0  0  0  0  0  0
  -15.5677  -14.6776   21.3010 N   0  0  0  0  0  0  0  0  0  0  0  0
  -14.8789  -13.5803   21.7311 C   0  0  0  0  0  0  0  0  0  0  0  0
  -14.8592  -12.6093   20.7939 N   0  0  1  0  0  0  0  0  0  0  0  0
  -19.2424   -9.9266   12.2191 N   0  0  0  0  0  0  0  0  0  0  0  0
  -14.8432   -9.5753   16.6975 O   0  5  0  0  0  0  0  0  0  0  0  0
  -19.8613   -8.8936   12.8537 C   0  0  2  0  0  0  0  0  0  0  0  0
  -20.2351   -7.8023   12.1358 N   0  0  0  0  0  0  0  0  0  0  0  0
  -14.9183   -6.6753   16.8472 O   0  0  0  0  0  0  0  0  0  0  0  0
  -20.1185   -8.9178   14.1900 N   0  0  0  0  0  0  0  0  0  0  0  0
  -19.7643   -9.9737   14.9592 C   0  0  2  0  0  0  0  0  0  0  0  0
  -19.0954  -11.1206   14.3306 C   0  0  2  0  0  0  0  0  0  0  0  0
  -18.8484  -11.0386   12.8752 C   0  0  0  0  0  0  0  0  0  0  0  0
  -18.2395  -12.0495   12.2074 O   0  0  0  0  0  0  0  0  0  0  0  0
  -18.8700  -12.0191   15.3095 N   0  0  0  0  0  0  0  0  0  0  0  0
  -19.3524  -11.4870   16.4720 C   0  0  0  0  0  0  0  0  0  0  0  0
  -19.8884  -10.2644   16.2555 N   0  0  1  0  0  0  0  0  0  0  0  0
  1  3  1  6  0  0  0
  1  4  2  0  0  0  0
  1  6  1  0  0  0  0
  1 22  1  0  0  0  0
  2 28  1  0  0  0  0
  2 35  1  6  0  0  0
  2 38  2  0  0  0  0
  2 10  1  0  0  0  0
  5  6  1  0  0  0  0
  7  5  1  1  0  0  0
  7  8  1  0  0  0  0
  7  9  1  0  0  0  0
  9 10  1  6  0  0  0
  9 11  1  0  0  0  0
 11 12  1  1  0  0  0
 11 13  1  0  0  0  0
 13  8  1  1  0  0  0
 13 33  1  0  0  0  0
 14 46  1  0  0  0  0
 14 17  1  0  0  0  0
 14 25  1  1  0  0  0
 15 16  1  0  0  0  0
 15 29  1  0  0  0  0
 16 18  1  1  0  0  0
 16 21  1  0  0  0  0
 17 19  1  1  0  0  0
 17 20  1  0  0  0  0
 20 22  1  1  0  0  0
 20 24  1  0  0  0  0
 23 21  1  1  0  0  0
 23 26  1  0  0  0  0
 23 33  1  0  0  0  0
 24 25  1  6  0  0  0
 24 27  1  0  0  0  0
 26 29  1  6  0  0  0
 26 31  1  0  0  0  0
 27 28  1  0  0  0  0
 29 30  2  0  0  0  0
 31 32  1  0  0  0  0
 33 32  1  6  0  0  0
 34 36  1  0  0  0  0
 34 42  1  0  0  0  0
 36 37  1  1  0  0  0
 36 39  1  0  0  0  0
 40 39  1  6  0  0  0
 40 41  1  0  0  0  0
 40 46  1  0  0  0  0
 41 42  1  6  0  0  0
 41 44  1  0  0  0  0
 42 43  2  0  0  0  0
 44 45  1  0  0  0  0
 46 45  1  1  0  0  0
M  CHG  2   3  -1  35  -1
M  END
>  <CHROM.1>
111.60600902,-174.60176334,-17.52370000,-10.49191680,18.32583593,0.60142884
-1.05580403,0.94707375

>  <Name>
ligand

>  <RI>
-1

>  <Rbt.Current_Directory>
/home/itssahil/PROJECTS/Mol_Feturizer/Test_systems_manuscript/rnas/3mum

>  <Rbt.Executable>
rbdock ($Id: //depot/dev/client3/rdock/2013.1/src/exe/rbdock.cxx#4 $)

>  <Rbt.Library>
libRbt.so (2013.1, Build901 2013/11/27)

>  <Rbt.Parameter_File>
/export/apps/rDock/src/rDock_2013.1_src/data/scripts/dock_solv.prm

>  <Rbt.Receptor>
prm/blind_docking_100.prm

>  <SCORE>
21.2932

>  <SCORE.INTER>
17.358

>  <SCORE.INTER.CONST>
1

>  <SCORE.INTER.POLAR>
0

>  <SCORE.INTER.ROT>
2

>  <SCORE.INTER.SOLV>
30.644

>  <SCORE.INTER.VDW>
-3.576

>  <SCORE.INTER.norm>
0.377348

>  <SCORE.INTRA>
3.48139

>  <SCORE.INTRA.DIHEDRAL>
0.00438636

>  <SCORE.INTRA.DIHEDRAL.0>
2.40424

>  <SCORE.INTRA.POLAR>
0

>  <SCORE.INTRA.POLAR.0>
0

>  <SCORE.INTRA.REPUL>
0

>  <SCORE.INTRA.REPUL.0>
0

>  <SCORE.INTRA.SOLV>
4.28773

>  <SCORE.INTRA.SOLV.lig_0>
-134.169

>  <SCORE.INTRA.VDW>
1.33533

>  <SCORE.INTRA.VDW.0>
-2.18386

>  <SCORE.INTRA.norm>
0.0756824

>  <SCORE.RESTR>
0.453809

>  <SCORE.RESTR.CAVITY>
0.453809

>  <SCORE.RESTR.norm>
0.00986541

>  <SCORE.SYSTEM>
0

>  <SCORE.SYSTEM.CONST>
0

>  <SCORE.SYSTEM.DIHEDRAL>
0

>  <SCORE.SYSTEM.SOLV>
0

>  <SCORE.SYSTEM.norm>
0

>  <SCORE.heavy>
46

>  <SCORE.norm>
0.462896

>  <RMSD>
16.239

$$$$
ligand
 OpenBabel02271912143D
libRbt.so/2013.1/901 2013/11/27
 46 52  0  0  0  0  0  0  0  0999 V2000
  -18.6326   -9.0620   22.6603 P   0  0  1  0  0  0  0  0  0  0  0  0
  -17.1204  -13.3676   18.9386 P   0  0  2  0  0  0  0  0  0  0  0  0
  -17.9895   -7.5097   22.0961 O   0  5  0  0  0  0  0  0  0  0  0  0
  -19.6325   -8.8667   24.1237 O   0  0  0  0  0  0  0  0  0  0  0  0
  -20.0647  -11.0213   21.5955 C   0  0  0  0  0  0  0  0  0  0  0  0
  -19.5047   -9.7139   21.4713 O   0  0  0  0  0  0  0  0  0  0  0  0
  -20.3874  -11.5431   20.2083 C   0  0  1  0  0  0  0  0  0  0  0  0
  -21.2022  -10.5868   19.5159 O   0  0  0  0  0  0  0  0  0  0  0  0
  -19.1562  -11.7355   19.3379 C   0  0  1  0  0  0  0  0  0  0  0  0
  -18.6183  -13.0512   19.4514 O   0  0  0  0  0  0  0  0  0  0  0  0
  -19.6750  -11.4522   17.9392 C   0  0  1  0  0  0  0  0  0  0  0  0
  -20.1812  -12.6532   17.3513 O   0  0  0  0  0  0  0  0  0  0  0  0
  -20.8275  -10.4845   18.1331 C   0  0  2  0  0  0  0  0  0  0  0  0
  -14.1328  -10.1370   21.6247 C   0  0  1  0  0  0  0  0  0  0  0  0
  -19.8724   -6.7518   14.4797 N   0  0  0  0  0  0  0  0  0  0  0  0
  -20.2912   -8.0350   14.3053 C   0  0  1  0  0  0  0  0  0  0  0  0
  -15.3885   -9.3630   21.9101 C   0  0  2  0  0  0  0  0  0  0  0  0
  -20.5079   -8.4711   13.0430 N   0  0  0  0  0  0  0  0  0  0  0  0
  -15.2095   -8.7609   23.1932 O   0  0  0  0  0  0  0  0  0  0  0  0
  -16.4903  -10.4040   21.9179 C   0  0  2  0  0  0  0  0  0  0  0  0
  -20.4966   -8.8940   15.3477 N   0  0  0  0  0  0  0  0  0  0  0  0
  -17.4613  -10.1342   22.9198 O   0  0  0  0  0  0  0  0  0  0  0  0
  -20.2954   -8.5046   16.6320 C   0  0  2  0  0  0  0  0  0  0  0  0
  -15.7863  -11.7133   22.2156 C   0  0  2  0  0  0  0  0  0  0  0  0
  -14.4214  -11.5161   21.8502 O   0  0  0  0  0  0  0  0  0  0  0  0
  -19.8385   -7.1255   16.8763 C   0  0  1  0  0  0  0  0  0  0  0  0
  -16.3594  -12.8860   21.4278 C   0  0  0  0  0  0  0  0  0  0  0  0
  -16.1887  -12.6384   20.0308 O   0  0  0  0  0  0  0  0  0  0  0  0
  -19.6350   -6.2458   15.7115 C   0  0  0  0  0  0  0  0  0  0  0  0
  -19.2140   -4.9661   15.8760 O   0  0  0  0  0  0  0  0  0  0  0  0
  -19.7087   -6.9878   18.2004 N   0  0  0  0  0  0  0  0  0  0  0  0
  -20.0519   -8.1807   18.7686 C   0  0  0  0  0  0  0  0  0  0  0  0
  -20.4024   -9.0909   17.8357 N   0  0  1  0  0  0  0  0  0  0  0  0
  -15.7072   -9.3958   16.6911 N   0  0  0  0  0  0  0  0  0  0  0  0
  -16.8297  -12.6895   17.3149 O   0  5  0  0  0  0  0  0  0  0  0  0
  -16.4411   -9.6193   17.8155 C   0  0  2  0  0  0  0  0  0  0  0  0
  -17.7960   -9.6650   17.7251 N   0  0  0  0  0  0  0  0  0  0  0  0
  -16.7287  -15.0981   18.9356 O   0  0  0  0  0  0  0  0  0  0  0  0
  -15.8597   -9.7985   19.0329 N   0  0  0  0  0  0  0  0  0  0  0  0
  -14.5156   -9.7572   19.1875 C   0  0  2  0  0  0  0  0  0  0  0  0
  -13.6698   -9.5224   18.0097 C   0  0  2  0  0  0  0  0  0  0  0  0
  -14.3586   -9.3409   16.7140 C   0  0  0  0  0  0  0  0  0  0  0  0
  -13.6615   -9.1217   15.5718 O   0  0  0  0  0  0  0  0  0  0  0  0
  -12.3934   -9.5418   18.4419 N   0  0  0  0  0  0  0  0  0  0  0  0
  -12.4213   -9.7667   19.7893 C   0  0  0  0  0  0  0  0  0  0  0  0
  -13.6935   -9.8973   20.2291 N   0  0  1  0  0  0  0  0  0  0  0  0
  1  3  1  6  0  0  0
  1  4  2  0  0  0  0
  1  6  1  0  0  0  0
  1 22  1  0  0  0  0
  2 28  1  0  0  0  0
  2 35  1  6  0  0  0
  2 38  2  0  0  0  0
  2 10  1  0  0  0  0
  5  6  1  0  0  0  0
  7  5  1  1  0  0  0
  7  8  1  0  0  0  0
  7  9  1  0  0  0  0
  9 10  1  6  0  0  0
  9 11  1  0  0  0  0
 11 12  1  1  0  0  0
 11 13  1  0  0  0  0
 13  8  1  1  0  0  0
 13 33  1  0  0  0  0
 14 46  1  0  0  0  0
 14 17  1  0  0  0  0
 14 25  1  6  0  0  0
 15 16  1  0  0  0  0
 15 29  1  0  0  0  0
 16 18  1  6  0  0  0
 16 21  1  0  0  0  0
 17 19  1  1  0  0  0
 17 20  1  0  0  0  0
 20 22  1  1  0  0  0
 20 24  1  0  0  0  0
 23 21  1  6  0  0  0
 23 26  1  0  0  0  0
 23 33  1  0  0  0  0
 24 25  1  6  0  0  0
 24 27  1  0  0  0  0
 26 29  1  1  0  0  0
 26 31  1  0  0  0  0
 27 28  1  0  0  0  0
 29 30  2  0  0  0  0
 31 32  1  0  0  0  0
 33 32  1  1  0  0  0
 34 36  1  0  0  0  0
 34 42  1  0  0  0  0
 36 37  1  1  0  0  0
 36 39  1  0  0  0  0
 40 39  1  6  0  0  0
 40 41  1  0  0  0  0
 40 46  1  0  0  0  0
 41 42  1  6  0  0  0
 41 44  1  0  0  0  0
 42 43  2  0  0  0  0
 44 45  1  0  0  0  0
 46 45  1  1  0  0  0
M  CHG  2   3  -1  35  -1
M  END
>  <CHROM.1>
-162.24976473,-37.08221878,-17.61074104,-10.01145492,19.12956944,0.96685054
-0.16661521,1.91984317

>  <Name>
ligand

>  <RI>
-1

>  <Rbt.Current_Directory>
/home/itssahil/PROJECTS/Mol_Feturizer/Test_systems_manuscript/rnas/3mum

>  <Rbt.Executable>
rbdock ($Id: //depot/dev/client3/rdock/2013.1/src/exe/rbdock.cxx#4 $)

>  <Rbt.Library>
libRbt.so (2013.1, Build901 2013/11/27)

>  <Rbt.Parameter_File>
/export/apps/rDock/src/rDock_2013.1_src/data/scripts/dock_solv.prm

>  <Rbt.Receptor>
prm/blind_docking_80.prm

>  <SCORE>
54.3923

>  <SCORE.INTER>
49.1198

>  <SCORE.INTER.CONST>
1

>  <SCORE.INTER.POLAR>
0

>  <SCORE.INTER.ROT>
2

>  <SCORE.INTER.SOLV>
25.1584

>  <SCORE.INTER.VDW>
19.4271

>  <SCORE.INTER.norm>
1.06782

>  <SCORE.INTRA>
4.98896

>  <SCORE.INTRA.DIHEDRAL>
0.0241106

>  <SCORE.INTRA.DIHEDRAL.0>
2.40424

>  <SCORE.INTRA.POLAR>
0

>  <SCORE.INTRA.POLAR.0>
0

>  <SCORE.INTRA.REPUL>
0

>  <SCORE.INTRA.REPUL.0>
0

>  <SCORE.INTRA.SOLV>
13.5009

>  <SCORE.INTRA.SOLV.lig_0>
-134.169

>  <SCORE.INTRA.VDW>
-1.77355

>  <SCORE.INTRA.VDW.0>
-2.18386

>  <SCORE.INTRA.norm>
0.108456

>  <SCORE.RESTR>
0.283608

>  <SCORE.RESTR.CAVITY>
0.283608

>  <SCORE.RESTR.norm>
0.00616538

>  <SCORE.SYSTEM>
0

>  <SCORE.SYSTEM.CONST>
0

>  <SCORE.SYSTEM.DIHEDRAL>
0

>  <SCORE.SYSTEM.SOLV>
0

>  <SCORE.SYSTEM.norm>
0

>  <SCORE.heavy>
46

>  <SCORE.norm>
1.18244

>  <RMSD>
16.280

$$$$
ligand
 OpenBabel02271912143D
libRbt.so/2013.1/901 2013/11/27
 46 52  0  0  0  0  0  0  0  0999 V2000
  -18.2457  -13.4363   17.4909 P   0  0  1  0  0  0  0  0  0  0  0  0
  -14.4352   -9.0289   18.3457 P   0  0  2  0  0  0  0  0  0  0  0  0
  -19.8946  -12.9020   17.8617 O   0  5  0  0  0  0  0  0  0  0  0  0
  -18.2199  -15.1079   16.8710 O   0  0  0  0  0  0  0  0  0  0  0  0
  -16.2559  -12.5429   15.9856 C   0  0  0  0  0  0  0  0  0  0  0  0
  -17.6166  -12.4273   16.4021 O   0  0  0  0  0  0  0  0  0  0  0  0
  -15.8251  -11.2254   15.3696 C   0  0  1  0  0  0  0  0  0  0  0  0
  -16.7545  -10.8518   14.3426 O   0  0  0  0  0  0  0  0  0  0  0  0
  -15.8256  -10.0715   16.3590 C   0  0  1  0  0  0  0  0  0  0  0  0
  -14.5625   -9.9142   17.0015 O   0  0  0  0  0  0  0  0  0  0  0  0
  -16.1756   -8.8745   15.4925 C   0  0  1  0  0  0  0  0  0  0  0  0
  -14.9858   -8.3009   14.9449 O   0  0  0  0  0  0  0  0  0  0  0  0
  -17.0089   -9.4384   14.3567 C   0  0  2  0  0  0  0  0  0  0  0  0
  -17.6971  -11.2510   21.6623 C   0  0  1  0  0  0  0  0  0  0  0  0
  -20.7800   -7.4197   17.5025 N   0  0  0  0  0  0  0  0  0  0  0  0
  -19.4304   -7.4281   17.6785 C   0  0  1  0  0  0  0  0  0  0  0  0
  -18.3206  -11.9073   20.4632 C   0  0  2  0  0  0  0  0  0  0  0  0
  -18.9277   -6.8557   18.7967 N   0  0  0  0  0  0  0  0  0  0  0  0
  -18.8261  -13.1670   20.9090 O   0  0  0  0  0  0  0  0  0  0  0  0
  -17.1822  -12.0677   19.4752 C   0  0  2  0  0  0  0  0  0  0  0  0
  -18.5706   -7.9907   16.7780 N   0  0  0  0  0  0  0  0  0  0  0  0
  -17.2722  -13.2947   18.7641 O   0  0  0  0  0  0  0  0  0  0  0  0
  -19.0246   -8.5752   15.6405 C   0  0  2  0  0  0  0  0  0  0  0  0
  -15.9257  -12.0493   20.3233 C   0  0  2  0  0  0  0  0  0  0  0  0
  -16.2825  -11.3921   21.5382 O   0  0  0  0  0  0  0  0  0  0  0  0
  -20.4783   -8.5962   15.4026 C   0  0  1  0  0  0  0  0  0  0  0  0
  -14.7745  -11.3016   19.6598 C   0  0  0  0  0  0  0  0  0  0  0  0
  -15.1549   -9.9383   19.4627 O   0  0  0  0  0  0  0  0  0  0  0  0
  -21.3549   -7.9728   16.4102 C   0  0  0  0  0  0  0  0  0  0  0  0
  -22.7019   -7.9632   16.2445 O   0  0  0  0  0  0  0  0  0  0  0  0
  -20.6725   -9.2229   14.2370 N   0  0  0  0  0  0  0  0  0  0  0  0
  -19.4450   -9.5807   13.7586 C   0  0  0  0  0  0  0  0  0  0  0  0
  -18.4569   -9.1969   14.5939 N   0  0  1  0  0  0  0  0  0  0  0  0
  -20.3274   -7.6403   24.3848 N   0  0  0  0  0  0  0  0  0  0  0  0
  -15.2731   -7.4635   18.1778 O   0  5  0  0  0  0  0  0  0  0  0  0
  -20.1689   -8.9702   24.6278 C   0  0  2  0  0  0  0  0  0  0  0  0
  -20.7470   -9.5169   25.7292 N   0  0  0  0  0  0  0  0  0  0  0  0
  -12.7565   -8.7502   18.8482 O   0  0  0  0  0  0  0  0  0  0  0  0
  -19.4466   -9.7738   23.8003 N   0  0  0  0  0  0  0  0  0  0  0  0
  -18.8418   -9.2862   22.6918 C   0  0  2  0  0  0  0  0  0  0  0  0
  -18.9791   -7.8585   22.3748 C   0  0  2  0  0  0  0  0  0  0  0  0
  -19.7805   -7.0378   23.3077 C   0  0  0  0  0  0  0  0  0  0  0  0
  -19.9652   -5.7112   23.0962 O   0  0  0  0  0  0  0  0  0  0  0  0
  -18.2979   -7.6507   21.2306 N   0  0  0  0  0  0  0  0  0  0  0  0
  -17.7640   -8.8492   20.8491 C   0  0  0  0  0  0  0  0  0  0  0  0
  -18.0950   -9.8243   21.7258 N   0  0  1  0  0  0  0  0  0  0  0  0
  1  3  1  1  0  0  0
  1  4  2  0  0  0  0
  1  6  1  0  0  0  0
  1 22  1  0  0  0  0
  2 28  1  0  0  0  0
  2 35  1  6  0  0  0
  2 38  2  0  0  0  0
  2 10  1  0  0  0  0
  5  6  1  0  0  0  0
  7  5  1  1  0  0  0
  7  8  1  0  0  0  0
  7  9  1  0  0  0  0
  9 10  1  6  0  0  0
  9 11  1  0  0  0  0
 11 12  1  6  0  0  0
 11 13  1  0  0  0  0
 13  8  1  1  0  0  0
 13 33  1  0  0  0  0
 14 46  1  0  0  0  0
 14 17  1  0  0  0  0
 14 25  1  6  0  0  0
 15 16  1  0  0  0  0
 15 29  1  0  0  0  0
 16 18  1  1  0  0  0
 16 21  1  0  0  0  0
 17 19  1  1  0  0  0
 17 20  1  0  0  0  0
 20 22  1  1  0  0  0
 20 24  1  0  0  0  0
 23 21  1  1  0  0  0
 23 26  1  0  0  0  0
 23 33  1  0  0  0  0
 24 25  1  1  0  0  0
 24 27  1  0  0  0  0
 26 29  1  6  0  0  0
 26 31  1  0  0  0  0
 27 28  1  0  0  0  0
 29 30  2  0  0  0  0
 31 32  1  0  0  0  0
 33 32  1  6  0  0  0
 34 36  1  0  0  0  0
 34 42  1  0  0  0  0
 36 37  1  1  0  0  0
 36 39  1  0  0  0  0
 40 39  1  6  0  0  0
 40 41  1  0  0  0  0
 40 46  1  0  0  0  0
 41 42  1  6  0  0  0
 41 44  1  0  0  0  0
 42 43  2  0  0  0  0
 44 45  1  0  0  0  0
 46 45  1  1  0  0  0
M  CHG  2   3  -1  35  -1
M  END
>  <CHROM.1>
116.59030308,114.99453879,-17.84229731,-9.90526485,18.64715567,-1.19532570
-0.77019229,1.62163289

>  <Name>
ligand

>  <RI>
-1

>  <Rbt.Current_Directory>
/home/itssahil/PROJECTS/Mol_Feturizer/Test_systems_manuscript/rnas/3mum

>  <Rbt.Executable>
rbdock ($Id: //depot/dev/client3/rdock/2013.1/src/exe/rbdock.cxx#4 $)

>  <Rbt.Library>
libRbt.so (2013.1, Build901 2013/11/27)

>  <Rbt.Parameter_File>
/export/apps/rDock/src/rDock_2013.1_src/data/scripts/dock_solv.prm

>  <Rbt.Receptor>
prm/blind_docking_40.prm

>  <SCORE>
57.0369

>  <SCORE.INTER>
54.7671

>  <SCORE.INTER.CONST>
1

>  <SCORE.INTER.POLAR>
0

>  <SCORE.INTER.ROT>
2

>  <SCORE.INTER.SOLV>
50.5669

>  <SCORE.INTER.VDW>
14.7224

>  <SCORE.INTER.norm>
1.19059

>  <SCORE.INTRA>
1.32797

>  <SCORE.INTRA.DIHEDRAL>
0.00416649

>  <SCORE.INTRA.DIHEDRAL.0>
2.40424

>  <SCORE.INTRA.POLAR>
0

>  <SCORE.INTRA.POLAR.0>
0

>  <SCORE.INTRA.REPUL>
0

>  <SCORE.INTRA.REPUL.0>
0

>  <SCORE.INTRA.SOLV>
3.57453

>  <SCORE.INTRA.SOLV.lig_0>
-134.169

>  <SCORE.INTRA.VDW>
-0.461382

>  <SCORE.INTRA.VDW.0>
-2.18386

>  <SCORE.INTRA.norm>
0.0288689

>  <SCORE.RESTR>
0.941852

>  <SCORE.RESTR.CAVITY>
0.941852

>  <SCORE.RESTR.norm>
0.020475

>  <SCORE.SYSTEM>
0

>  <SCORE.SYSTEM.CONST>
0

>  <SCORE.SYSTEM.DIHEDRAL>
0

>  <SCORE.SYSTEM.SOLV>
0

>  <SCORE.SYSTEM.norm>
0

>  <SCORE.heavy>
46

>  <SCORE.norm>
1.23993

>  <RMSD>
16.284

$$$$
ligand
 OpenBabel02271912143D
libRbt.so/2013.1/901 2013/11/27
 46 52  0  0  0  0  0  0  0  0999 V2000
  -19.2016  -10.0434   21.7893 P   0  0  1  0  0  0  0  0  0  0  0  0
  -15.5156   -8.1858   17.5895 P   0  0  2  0  0  0  0  0  0  0  0  0
  -19.8841  -11.6200   21.3529 O   0  5  0  0  0  0  0  0  0  0  0  0
  -19.7381   -9.5197   23.4071 O   0  0  0  0  0  0  0  0  0  0  0  0
  -16.7669   -9.0088   21.9472 C   0  0  0  0  0  0  0  0  0  0  0  0
  -17.5939  -10.1546   21.7431 O   0  0  0  0  0  0  0  0  0  0  0  0
  -15.3906   -9.2983   21.3790 C   0  0  1  0  0  0  0  0  0  0  0  0
  -14.8931  -10.5242   21.9335 O   0  0  0  0  0  0  0  0  0  0  0  0
  -15.3941   -9.5041   19.8730 C   0  0  1  0  0  0  0  0  0  0  0  0
  -15.1726   -8.2871   19.1639 O   0  0  0  0  0  0  0  0  0  0  0  0
  -14.2681  -10.5002   19.6585 C   0  0  1  0  0  0  0  0  0  0  0  0
  -13.0290   -9.8089   19.4817 O   0  0  0  0  0  0  0  0  0  0  0  0
  -14.1972  -11.3005   20.9457 C   0  0  2  0  0  0  0  0  0  0  0  0
  -20.5234   -9.3725   17.2860 C   0  0  1  0  0  0  0  0  0  0  0  0
  -17.0427  -14.5590   17.8672 N   0  0  0  0  0  0  0  0  0  0  0  0
  -16.5903  -13.3037   17.5991 C   0  0  1  0  0  0  0  0  0  0  0  0
  -20.3689   -9.9667   18.6573 C   0  0  2  0  0  0  0  0  0  0  0  0
  -16.8803  -12.7633   16.3931 N   0  0  0  0  0  0  0  0  0  0  0  0
  -21.6295   -9.8086   19.3107 O   0  0  0  0  0  0  0  0  0  0  0  0
  -19.2792   -9.1430   19.3144 C   0  0  2  0  0  0  0  0  0  0  0  0
  -15.8628  -12.5727   18.4952 N   0  0  0  0  0  0  0  0  0  0  0  0
  -19.5479   -8.9190   20.6918 O   0  0  0  0  0  0  0  0  0  0  0  0
  -15.5441  -13.0703   19.7168 C   0  0  2  0  0  0  0  0  0  0  0  0
  -19.2809   -7.8259   18.5637 C   0  0  2  0  0  0  0  0  0  0  0  0
  -19.8858   -8.0960   17.3002 O   0  0  0  0  0  0  0  0  0  0  0  0
  -16.0123  -14.4245   20.0592 C   0  0  1  0  0  0  0  0  0  0  0  0
  -17.8794   -7.2661   18.3472 C   0  0  0  0  0  0  0  0  0  0  0  0
  -17.1255   -8.1869   17.5561 O   0  0  0  0  0  0  0  0  0  0  0  0
  -16.7925  -15.1639   19.0509 C   0  0  0  0  0  0  0  0  0  0  0  0
  -17.2507  -16.4146   19.3112 O   0  0  0  0  0  0  0  0  0  0  0  0
  -15.5831  -14.6823   21.2995 N   0  0  0  0  0  0  0  0  0  0  0  0
  -14.8940  -13.5844   21.7274 C   0  0  0  0  0  0  0  0  0  0  0  0
  -14.8685  -12.6177   20.7859 N   0  0  1  0  0  0  0  0  0  0  0  0
  -19.5773  -10.0755   12.1890 N   0  0  0  0  0  0  0  0  0  0  0  0
  -14.8698   -9.5836   16.6896 O   0  5  0  0  0  0  0  0  0  0  0  0
  -20.2267   -9.0607   12.8227 C   0  0  2  0  0  0  0  0  0  0  0  0
  -20.7293   -8.0340   12.0885 N   0  0  0  0  0  0  0  0  0  0  0  0
  -14.9419   -6.6835   16.8397 O   0  0  0  0  0  0  0  0  0  0  0  0
  -20.3890   -9.0405   14.1738 N   0  0  0  0  0  0  0  0  0  0  0  0
  -19.9049  -10.0310   14.9591 C   0  0  2  0  0  0  0  0  0  0  0  0
  -19.1970  -11.1553   14.3326 C   0  0  2  0  0  0  0  0  0  0  0  0
  -19.0572  -11.1244   12.8610 C   0  0  0  0  0  0  0  0  0  0  0  0
  -18.4218  -12.1194   12.1941 O   0  0  0  0  0  0  0  0  0  0  0  0
  -18.8384  -11.9884   15.3295 N   0  0  0  0  0  0  0  0  0  0  0  0
  -19.2782  -11.4381   16.5003 C   0  0  0  0  0  0  0  0  0  0  0  0
  -19.9177  -10.2686   16.2720 N   0  0  1  0  0  0  0  0  0  0  0  0
  1  3  1  6  0  0  0
  1  4  2  0  0  0  0
  1  6  1  0  0  0  0
  1 22  1  0  0  0  0
  2 28  1  0  0  0  0
  2 35  1  6  0  0  0
  2 38  2  0  0  0  0
  2 10  1  0  0  0  0
  5  6  1  0  0  0  0
  7  5  1  1  0  0  0
  7  8  1  0  0  0  0
  7  9  1  0  0  0  0
  9 10  1  6  0  0  0
  9 11  1  0  0  0  0
 11 12  1  1  0  0  0
 11 13  1  0  0  0  0
 13  8  1  1  0  0  0
 13 33  1  0  0  0  0
 14 46  1  0  0  0  0
 14 17  1  0  0  0  0
 14 25  1  1  0  0  0
 15 16  1  0  0  0  0
 15 29  1  0  0  0  0
 16 18  1  1  0  0  0
 16 21  1  0  0  0  0
 17 19  1  1  0  0  0
 17 20  1  0  0  0  0
 20 22  1  1  0  0  0
 20 24  1  0  0  0  0
 23 21  1  1  0  0  0
 23 26  1  0  0  0  0
 23 33  1  0  0  0  0
 24 25  1  6  0  0  0
 24 27  1  0  0  0  0
 26 29  1  6  0  0  0
 26 31  1  0  0  0  0
 27 28  1  0  0  0  0
 29 30  2  0  0  0  0
 31 32  1  0  0  0  0
 33 32  1  6  0  0  0
 34 36  1  0  0  0  0
 34 42  1  0  0  0  0
 36 37  1  1  0  0  0
 36 39  1  0  0  0  0
 40 39  1  6  0  0  0
 40 41  1  0  0  0  0
 40 46  1  0  0  0  0
 41 42  1  6  0  0  0
 41 44  1  0  0  0  0
 42 43  2  0  0  0  0
 44 45  1  0  0  0  0
 46 45  1  1  0  0  0
M  CHG  2   3  -1  35  -1
M  END
>  <CHROM.1>
112.18730122,179.18032826,-17.57193487,-10.51504274,18.32487747,0.56606324
-1.02814346,0.89693395

>  <Name>
ligand

>  <RI>
-1

>  <Rbt.Current_Directory>
/home/itssahil/PROJECTS/Mol_Feturizer/Test_systems_manuscript/rnas/3mum

>  <Rbt.Executable>
rbdock ($Id: //depot/dev/client3/rdock/2013.1/src/exe/rbdock.cxx#4 $)

>  <Rbt.Library>
libRbt.so (2013.1, Build901 2013/11/27)

>  <Rbt.Parameter_File>
/export/apps/rDock/src/rDock_2013.1_src/data/scripts/dock_solv.prm

>  <Rbt.Receptor>
prm/blind_docking_100.prm

>  <SCORE>
21.1821

>  <SCORE.INTER>
16.9495

>  <SCORE.INTER.CONST>
1

>  <SCORE.INTER.POLAR>
0

>  <SCORE.INTER.ROT>
2

>  <SCORE.INTER.SOLV>
31.8162

>  <SCORE.INTER.VDW>
-4.23906

>  <SCORE.INTER.norm>
0.368468

>  <SCORE.INTRA>
3.74637

>  <SCORE.INTRA.DIHEDRAL>
-0.00460889

>  <SCORE.INTRA.DIHEDRAL.0>
2.40424

>  <SCORE.INTRA.POLAR>
0

>  <SCORE.INTRA.POLAR.0>
0

>  <SCORE.INTRA.REPUL>
0

>  <SCORE.INTRA.REPUL.0>
0

>  <SCORE.INTRA.SOLV>
4.24068

>  <SCORE.INTRA.SOLV.lig_0>
-134.169

>  <SCORE.INTRA.VDW>
1.62833

>  <SCORE.INTRA.VDW.0>
-2.18386

>  <SCORE.INTRA.norm>
0.0814428

>  <SCORE.RESTR>
0.486215

>  <SCORE.RESTR.CAVITY>
0.486215

>  <SCORE.RESTR.norm>
0.0105699

>  <SCORE.SYSTEM>
0

>  <SCORE.SYSTEM.CONST>
0

>  <SCORE.SYSTEM.DIHEDRAL>
0

>  <SCORE.SYSTEM.SOLV>
0

>  <SCORE.SYSTEM.norm>
0

>  <SCORE.heavy>
46

>  <SCORE.norm>
0.460481

>  <RMSD>
16.292

$$$$
ligand
 OpenBabel02271912143D
libRbt.so/2013.1/901 2013/11/27
 46 52  0  0  0  0  0  0  0  0999 V2000
  -15.4398   -8.2134   17.5676 P   0  0  1  0  0  0  0  0  0  0  0  0
  -19.0090  -10.0318   21.8839 P   0  0  2  0  0  0  0  0  0  0  0  0
  -14.8121   -9.6034   16.6644 O   0  5  0  0  0  0  0  0  0  0  0  0
  -14.9014   -6.6695   16.8564 O   0  0  0  0  0  0  0  0  0  0  0  0
  -17.8358   -7.3629   18.3155 C   0  0  0  0  0  0  0  0  0  0  0  0
  -17.0500   -8.2946   17.5719 O   0  0  0  0  0  0  0  0  0  0  0  0
  -19.2158   -7.9554   18.5283 C   0  0  1  0  0  0  0  0  0  0  0  0
  -19.7646   -8.3541   17.2642 O   0  0  0  0  0  0  0  0  0  0  0  0
  -19.2040   -9.2129   19.3821 C   0  0  1  0  0  0  0  0  0  0  0  0
  -19.3724   -8.9229   20.7680 O   0  0  0  0  0  0  0  0  0  0  0  0
  -20.3641  -10.0190   18.8249 C   0  0  1  0  0  0  0  0  0  0  0  0
  -21.5745   -9.6673   19.4998 O   0  0  0  0  0  0  0  0  0  0  0  0
  -20.4785   -9.5956   17.3723 C   0  0  2  0  0  0  0  0  0  0  0  0
  -14.0461  -11.1360   21.0306 C   0  0  1  0  0  0  0  0  0  0  0  0
  -19.0484  -10.9771   12.4490 N   0  0  0  0  0  0  0  0  0  0  0  0
  -19.6611   -9.8394   12.8765 C   0  0  1  0  0  0  0  0  0  0  0  0
  -14.2373  -10.5109   19.6778 C   0  0  2  0  0  0  0  0  0  0  0  0
  -19.9723   -8.8965   11.9574 N   0  0  0  0  0  0  0  0  0  0  0  0
  -12.9787   -9.9408   19.3145 O   0  0  0  0  0  0  0  0  0  0  0  0
  -15.3024   -9.4531   19.8883 C   0  0  2  0  0  0  0  0  0  0  0  0
  -19.9743   -9.6160   14.1875 N   0  0  0  0  0  0  0  0  0  0  0  0
  -15.0402   -8.2838   19.1246 O   0  0  0  0  0  0  0  0  0  0  0  0
  -19.6815  -10.5293   15.1475 C   0  0  2  0  0  0  0  0  0  0  0  0
  -15.2436   -9.1310   21.3686 C   0  0  2  0  0  0  0  0  0  0  0  0
  -14.6358  -10.2614   21.9916 O   0  0  0  0  0  0  0  0  0  0  0  0
  -19.0206  -11.7805   14.7377 C   0  0  1  0  0  0  0  0  0  0  0  0
  -16.6208   -8.8939   21.9780 C   0  0  0  0  0  0  0  0  0  0  0  0
  -17.4001  -10.0848   21.8492 O   0  0  0  0  0  0  0  0  0  0  0  0
  -18.7076  -11.9637   13.3092 C   0  0  0  0  0  0  0  0  0  0  0  0
  -18.1002  -13.0966   12.8737 O   0  0  0  0  0  0  0  0  0  0  0  0
  -18.8460  -12.5090   15.8458 N   0  0  0  0  0  0  0  0  0  0  0  0
  -19.3537  -11.7897   16.8891 C   0  0  0  0  0  0  0  0  0  0  0  0
  -19.8551  -10.6063   16.4772 N   0  0  1  0  0  0  0  0  0  0  0  0
  -16.8121  -14.6551   18.3224 N   0  0  0  0  0  0  0  0  0  0  0  0
  -19.6969  -11.6243   21.4696 O   0  5  0  0  0  0  0  0  0  0  0  0
  -16.3859  -13.4147   17.9582 C   0  0  2  0  0  0  0  0  0  0  0  0
  -16.6791  -12.9509   16.7153 N   0  0  0  0  0  0  0  0  0  0  0  0
  -19.5183   -9.5754   23.5211 O   0  0  0  0  0  0  0  0  0  0  0  0
  -15.6719  -12.6205   18.8018 N   0  0  0  0  0  0  0  0  0  0  0  0
  -15.3434  -13.0296   20.0496 C   0  0  2  0  0  0  0  0  0  0  0  0
  -15.7777  -14.3581   20.5013 C   0  0  2  0  0  0  0  0  0  0  0  0
  -16.5551  -15.1722   19.5426 C   0  0  0  0  0  0  0  0  0  0  0  0
  -17.0011  -16.4099   19.8709 O   0  0  0  0  0  0  0  0  0  0  0  0
  -15.3313  -14.5004   21.7650 N   0  0  0  0  0  0  0  0  0  0  0  0
  -14.6612  -13.3558   22.0932 C   0  0  0  0  0  0  0  0  0  0  0  0
  -14.6740  -12.4787   21.0639 N   0  0  1  0  0  0  0  0  0  0  0  0
  1  3  1  6  0  0  0
  1  4  2  0  0  0  0
  1  6  1  0  0  0  0
  1 22  1  0  0  0  0
  2 28  1  0  0  0  0
  2 35  1  6  0  0  0
  2 38  2  0  0  0  0
  2 10  1  0  0  0  0
  5  6  1  0  0  0  0
  7  5  1  6  0  0  0
  7  8  1  0  0  0  0
  7  9  1  0  0  0  0
  9 10  1  1  0  0  0
  9 11  1  0  0  0  0
 11 12  1  1  0  0  0
 11 13  1  0  0  0  0
 13  8  1  1  0  0  0
 13 33  1  0  0  0  0
 14 46  1  0  0  0  0
 14 17  1  0  0  0  0
 14 25  1  1  0  0  0
 15 16  1  0  0  0  0
 15 29  1  0  0  0  0
 16 18  1  6  0  0  0
 16 21  1  0  0  0  0
 17 19  1  1  0  0  0
 17 20  1  0  0  0  0
 20 22  1  6  0  0  0
 20 24  1  0  0  0  0
 23 21  1  6  0  0  0
 23 26  1  0  0  0  0
 23 33  1  0  0  0  0
 24 25  1  1  0  0  0
 24 27  1  0  0  0  0
 26 29  1  1  0  0  0
 26 31  1  0  0  0  0
 27 28  1  0  0  0  0
 29 30  2  0  0  0  0
 31 32  1  0  0  0  0
 33 32  1  1  0  0  0
 34 36  1  0  0  0  0
 34 42  1  0  0  0  0
 36 37  1  6  0  0  0
 36 39  1  0  0  0  0
 40 39  1  1  0  0  0
 40 41  1  0  0  0  0
 40 46  1  0  0  0  0
 41 42  1  1  0  0  0
 41 44  1  0  0  0  0
 42 43  2  0  0  0  0
 44 45  1  0  0  0  0
 46 45  1  6  0  0  0
M  CHG  2   3  -1  35  -1
M  END
>  <CHROM.1>
-58.27608334,-1.79578551,-17.39370704,-10.65962361,18.49214995,2.57436628
1.05255821,-2.35032336

>  <Name>
ligand

>  <RI>
-1

>  <Rbt.Current_Directory>
/home/itssahil/PROJECTS/Mol_Feturizer/Test_systems_manuscript/rnas/3mum

>  <Rbt.Executable>
rbdock ($Id: //depot/dev/client3/rdock/2013.1/src/exe/rbdock.cxx#4 $)

>  <Rbt.Library>
libRbt.so (2013.1, Build901 2013/11/27)

>  <Rbt.Parameter_File>
/export/apps/rDock/src/rDock_2013.1_src/data/scripts/dock_solv.prm

>  <Rbt.Receptor>
prm/blind_docking_80.prm

>  <SCORE>
50.7288

>  <SCORE.INTER>
45.7712

>  <SCORE.INTER.CONST>
1

>  <SCORE.INTER.POLAR>
0

>  <SCORE.INTER.ROT>
2

>  <SCORE.INTER.SOLV>
29.2556

>  <SCORE.INTER.VDW>
15.829

>  <SCORE.INTER.norm>
0.995027

>  <SCORE.INTRA>
4.35966

>  <SCORE.INTRA.DIHEDRAL>
-0.00070642

>  <SCORE.INTRA.DIHEDRAL.0>
2.40424

>  <SCORE.INTRA.POLAR>
0

>  <SCORE.INTRA.POLAR.0>
0

>  <SCORE.INTRA.REPUL>
0

>  <SCORE.INTRA.REPUL.0>
0

>  <SCORE.INTRA.SOLV>
4.38421

>  <SCORE.INTRA.SOLV.lig_0>
-134.169

>  <SCORE.INTRA.VDW>
2.16791

>  <SCORE.INTRA.VDW.0>
-2.18386

>  <SCORE.INTRA.norm>
0.0947752

>  <SCORE.RESTR>
0.597939

>  <SCORE.RESTR.CAVITY>
0.597939

>  <SCORE.RESTR.norm>
0.0129987

>  <SCORE.SYSTEM>
0

>  <SCORE.SYSTEM.CONST>
0

>  <SCORE.SYSTEM.DIHEDRAL>
0

>  <SCORE.SYSTEM.SOLV>
0

>  <SCORE.SYSTEM.norm>
0

>  <SCORE.heavy>
46

>  <SCORE.norm>
1.1028

>  <RMSD>
16.299

$$$$
ligand
 OpenBabel02271912143D
libRbt.so/2013.1/901 2013/11/27
 46 52  0  0  0  0  0  0  0  0999 V2000
  -19.1903  -10.0380   21.7889 P   0  0  1  0  0  0  0  0  0  0  0  0
  -15.5089   -8.2049   17.5743 P   0  0  2  0  0  0  0  0  0  0  0  0
  -19.8784  -11.6140   21.3592 O   0  5  0  0  0  0  0  0  0  0  0  0
  -19.7214   -9.5074   23.4062 O   0  0  0  0  0  0  0  0  0  0  0  0
  -16.7522   -9.0101   21.9377 C   0  0  0  0  0  0  0  0  0  0  0  0
  -17.5831  -10.1541   21.7393 O   0  0  0  0  0  0  0  0  0  0  0  0
  -15.3781   -9.3055   21.3671 C   0  0  1  0  0  0  0  0  0  0  0  0
  -14.8829  -10.5311   21.9245 O   0  0  0  0  0  0  0  0  0  0  0  0
  -15.3858   -9.5162   19.8618 C   0  0  1  0  0  0  0  0  0  0  0  0
  -15.1623   -8.3022   19.1482 O   0  0  0  0  0  0  0  0  0  0  0  0
  -14.2632  -10.5163   19.6479 C   0  0  1  0  0  0  0  0  0  0  0  0
  -13.0225   -9.8293   19.4659 O   0  0  0  0  0  0  0  0  0  0  0  0
  -14.1916  -11.3126   20.9375 C   0  0  2  0  0  0  0  0  0  0  0  0
  -20.5208   -9.3778   17.2866 C   0  0  1  0  0  0  0  0  0  0  0  0
  -17.0109  -14.5927   17.8578 N   0  0  0  0  0  0  0  0  0  0  0  0
  -16.5486  -13.3428   17.5815 C   0  0  1  0  0  0  0  0  0  0  0  0
  -20.3648   -9.9680   18.6594 C   0  0  2  0  0  0  0  0  0  0  0  0
  -16.8194  -12.8149   16.3655 N   0  0  0  0  0  0  0  0  0  0  0  0
  -21.6233   -9.8040   19.3153 O   0  0  0  0  0  0  0  0  0  0  0  0
  -19.2711   -9.1454   19.3113 C   0  0  2  0  0  0  0  0  0  0  0  0
  -15.8299  -12.6049   18.4791 N   0  0  0  0  0  0  0  0  0  0  0  0
  -19.5358   -8.9161   20.6885 O   0  0  0  0  0  0  0  0  0  0  0  0
  -15.5303  -13.0900   19.7106 C   0  0  2  0  0  0  0  0  0  0  0  0
  -19.2707   -7.8308   18.5562 C   0  0  2  0  0  0  0  0  0  0  0  0
  -19.8794   -8.1032   17.2950 O   0  0  0  0  0  0  0  0  0  0  0  0
  -16.0099  -14.4379   20.0620 C   0  0  1  0  0  0  0  0  0  0  0  0
  -17.8680   -7.2758   18.3346 C   0  0  0  0  0  0  0  0  0  0  0  0
  -17.1188   -8.2014   17.5447 O   0  0  0  0  0  0  0  0  0  0  0  0
  -16.7799  -15.1851   19.0516 C   0  0  0  0  0  0  0  0  0  0  0  0
  -17.2478  -16.4306   19.3200 O   0  0  0  0  0  0  0  0  0  0  0  0
  -15.5990  -14.6835   21.3109 N   0  0  0  0  0  0  0  0  0  0  0  0
  -14.9103  -13.5840   21.7357 C   0  0  0  0  0  0  0  0  0  0  0  0
  -14.8672  -12.6283   20.7836 N   0  0  1  0  0  0  0  0  0  0  0  0
  -19.7786  -10.2106   12.1754 N   0  0  0  0  0  0  0  0  0  0  0  0
  -14.8693   -9.6076   16.6775 O   0  5  0  0  0  0  0  0  0  0  0  0
  -20.4461   -9.2060   12.8065 C   0  0  2  0  0  0  0  0  0  0  0  0
  -21.0310   -8.2296   12.0645 N   0  0  0  0  0  0  0  0  0  0  0  0
  -14.9324   -6.7069   16.8182 O   0  0  0  0  0  0  0  0  0  0  0  0
  -20.5466   -9.1470   14.1624 N   0  0  0  0  0  0  0  0  0  0  0  0
  -19.9795  -10.0863   14.9551 C   0  0  2  0  0  0  0  0  0  0  0  0
  -19.2480  -11.1972   14.3319 C   0  0  2  0  0  0  0  0  0  0  0  0
  -19.1781  -11.2104   12.8551 C   0  0  0  0  0  0  0  0  0  0  0  0
  -18.5270  -12.1970   12.1908 O   0  0  0  0  0  0  0  0  0  0  0  0
  -18.8040  -11.9780   15.3367 N   0  0  0  0  0  0  0  0  0  0  0  0
  -19.2152  -11.4090   16.5090 C   0  0  0  0  0  0  0  0  0  0  0  0
  -19.9202  -10.2790   16.2741 N   0  0  1  0  0  0  0  0  0  0  0  0
  1  3  1  6  0  0  0
  1  4  2  0  0  0  0
  1  6  1  0  0  0  0
  1 22  1  0  0  0  0
  2 28  1  0  0  0  0
  2 35  1  6  0  0  0
  2 38  2  0  0  0  0
  2 10  1  0  0  0  0
  5  6  1  0  0  0  0
  7  5  1  1  0  0  0
  7  8  1  0  0  0  0
  7  9  1  0  0  0  0
  9 10  1  6  0  0  0
  9 11  1  0  0  0  0
 11 12  1  1  0  0  0
 11 13  1  0  0  0  0
 13  8  1  1  0  0  0
 13 33  1  0  0  0  0
 14 46  1  0  0  0  0
 14 17  1  0  0  0  0
 14 25  1  1  0  0  0
 15 16  1  0  0  0  0
 15 29  1  0  0  0  0
 16 18  1  1  0  0  0
 16 21  1  0  0  0  0
 17 19  1  1  0  0  0
 17 20  1  0  0  0  0
 20 22  1  1  0  0  0
 20 24  1  0  0  0  0
 23 21  1  1  0  0  0
 23 26  1  0  0  0  0
 23 33  1  0  0  0  0
 24 25  1  6  0  0  0
 24 27  1  0  0  0  0
 26 29  1  6  0  0  0
 26 31  1  0  0  0  0
 27 28  1  0  0  0  0
 29 30  2  0  0  0  0
 31 32  1  0  0  0  0
 33 32  1  6  0  0  0
 34 36  1  0  0  0  0
 34 42  1  0  0  0  0
 36 37  1  1  0  0  0
 36 39  1  0  0  0  0
 40 39  1  6  0  0  0
 40 41  1  0  0  0  0
 40 46  1  0  0  0  0
 41 42  1  6  0  0  0
 41 44  1  0  0  0  0
 42 43  2  0  0  0  0
 44 45  1  0  0  0  0
 46 45  1  1  0  0  0
M  CHG  2   3  -1  35  -1
M  END
>  <CHROM.1>
113.22764646,174.95628880,-17.58638445,-10.53992734,18.31854580,0.55059682
-1.00804010,0.86932677

>  <Name>
ligand

>  <RI>
-1

>  <Rbt.Current_Directory>
/home/itssahil/PROJECTS/Mol_Feturizer/Test_systems_manuscript/rnas/3mum

>  <Rbt.Executable>
rbdock ($Id: //depot/dev/client3/rdock/2013.1/src/exe/rbdock.cxx#4 $)

>  <Rbt.Library>
libRbt.so (2013.1, Build901 2013/11/27)

>  <Rbt.Parameter_File>
/export/apps/rDock/src/rDock_2013.1_src/data/scripts/dock_solv.prm

>  <Rbt.Receptor>
prm/blind_docking_80.prm

>  <SCORE>
21.6158

>  <SCORE.INTER>
17.3099

>  <SCORE.INTER.CONST>
1

>  <SCORE.INTER.POLAR>
0

>  <SCORE.INTER.ROT>
2

>  <SCORE.INTER.SOLV>
32.7625

>  <SCORE.INTER.VDW>
-4.31424

>  <SCORE.INTER.norm>
0.376302

>  <SCORE.INTRA>
3.39979

>  <SCORE.INTRA.DIHEDRAL>
-0.0107825

>  <SCORE.INTRA.DIHEDRAL.0>
2.40424

>  <SCORE.INTRA.POLAR>
0

>  <SCORE.INTRA.POLAR.0>
0

>  <SCORE.INTRA.REPUL>
0

>  <SCORE.INTRA.REPUL.0>
0

>  <SCORE.INTRA.SOLV>
4.09113

>  <SCORE.INTRA.SOLV.lig_0>
-134.169

>  <SCORE.INTRA.VDW>
1.35962

>  <SCORE.INTRA.VDW.0>
-2.18386

>  <SCORE.INTRA.norm>
0.0739086

>  <SCORE.RESTR>
0.906133

>  <SCORE.RESTR.CAVITY>
0.906133

>  <SCORE.RESTR.norm>
0.0196985

>  <SCORE.SYSTEM>
0

>  <SCORE.SYSTEM.CONST>
0

>  <SCORE.SYSTEM.DIHEDRAL>
0

>  <SCORE.SYSTEM.SOLV>
0

>  <SCORE.SYSTEM.norm>
0

>  <SCORE.heavy>
46

>  <SCORE.norm>
0.469909

>  <RMSD>
16.323

$$$$
ligand
 OpenBabel02271912143D
libRbt.so/2013.1/901 2013/11/27
 46 52  0  0  0  0  0  0  0  0999 V2000
  -19.1706  -10.0724   21.8531 P   0  0  1  0  0  0  0  0  0  0  0  0
  -15.5048   -8.2276   17.6299 P   0  0  2  0  0  0  0  0  0  0  0  0
  -19.8616  -11.6464   21.4208 O   0  5  0  0  0  0  0  0  0  0  0  0
  -19.6947   -9.5470   23.4743 O   0  0  0  0  0  0  0  0  0  0  0  0
  -16.7310   -9.0468   21.9955 C   0  0  0  0  0  0  0  0  0  0  0  0
  -17.5636  -10.1895   21.7966 O   0  0  0  0  0  0  0  0  0  0  0  0
  -15.3596   -9.3412   21.4184 C   0  0  1  0  0  0  0  0  0  0  0  0
  -14.8630  -10.5691   21.9695 O   0  0  0  0  0  0  0  0  0  0  0  0
  -15.3735   -9.5468   19.9124 C   0  0  1  0  0  0  0  0  0  0  0  0
  -15.1520   -8.3305   19.2021 O   0  0  0  0  0  0  0  0  0  0  0  0
  -14.2525  -10.5469   19.6905 C   0  0  1  0  0  0  0  0  0  0  0  0
  -13.0120   -9.8602   19.5059 O   0  0  0  0  0  0  0  0  0  0  0  0
  -14.1763  -11.3477   20.9771 C   0  0  2  0  0  0  0  0  0  0  0  0
  -20.5187   -9.3958   17.3585 C   0  0  1  0  0  0  0  0  0  0  0  0
  -17.0218  -14.6100   17.9024 N   0  0  0  0  0  0  0  0  0  0  0  0
  -16.5614  -13.3586   17.6294 C   0  0  1  0  0  0  0  0  0  0  0  0
  -20.3576   -9.9908   18.7286 C   0  0  2  0  0  0  0  0  0  0  0  0
  -16.8421  -12.8239   16.4186 N   0  0  0  0  0  0  0  0  0  0  0  0
  -21.6134   -9.8281   19.3902 O   0  0  0  0  0  0  0  0  0  0  0  0
  -19.2607   -9.1713   19.3789 C   0  0  2  0  0  0  0  0  0  0  0  0
  -15.8351  -12.6259   18.5251 N   0  0  0  0  0  0  0  0  0  0  0  0
  -19.5197   -8.9465   20.7579 O   0  0  0  0  0  0  0  0  0  0  0  0
  -15.5256  -13.1179   19.7514 C   0  0  2  0  0  0  0  0  0  0  0  0
  -19.2623   -7.8540   18.6283 C   0  0  2  0  0  0  0  0  0  0  0  0
  -19.8763   -8.1216   17.3687 O   0  0  0  0  0  0  0  0  0  0  0  0
  -16.0026  -14.4677   20.0992 C   0  0  1  0  0  0  0  0  0  0  0  0
  -17.8602   -7.2993   18.4030 C   0  0  0  0  0  0  0  0  0  0  0  0
  -17.1148   -8.2228   17.6069 O   0  0  0  0  0  0  0  0  0  0  0  0
  -16.7811  -15.2091   19.0910 C   0  0  0  0  0  0  0  0  0  0  0  0
  -17.2471  -16.4559   19.3563 O   0  0  0  0  0  0  0  0  0  0  0  0
  -15.5814  -14.7203   21.3433 N   0  0  0  0  0  0  0  0  0  0  0  0
  -14.8890  -13.6234   21.7685 C   0  0  0  0  0  0  0  0  0  0  0  0
  -14.8535  -12.6624   20.8214 N   0  0  1  0  0  0  0  0  0  0  0  0
  -19.7374  -10.1751   12.2447 N   0  0  0  0  0  0  0  0  0  0  0  0
  -14.8699   -9.6277   16.7257 O   0  5  0  0  0  0  0  0  0  0  0  0
  -20.3943   -9.1675   12.8820 C   0  0  2  0  0  0  0  0  0  0  0  0
  -20.9549   -8.1718   12.1469 N   0  0  0  0  0  0  0  0  0  0  0  0
  -14.9303   -6.7274   16.8767 O   0  0  0  0  0  0  0  0  0  0  0  0
  -20.5080   -9.1243   14.2375 N   0  0  0  0  0  0  0  0  0  0  0  0
  -19.9652  -10.0833   15.0236 C   0  0  2  0  0  0  0  0  0  0  0  0
  -19.2461  -11.1984   14.3934 C   0  0  2  0  0  0  0  0  0  0  0  0
  -19.1610  -11.1937   12.9173 C   0  0  0  0  0  0  0  0  0  0  0  0
  -18.5197  -12.1826   12.2469 O   0  0  0  0  0  0  0  0  0  0  0  0
  -18.8259  -11.9995   15.3925 N   0  0  0  0  0  0  0  0  0  0  0  0
  -19.2396  -11.4387   16.5678 C   0  0  0  0  0  0  0  0  0  0  0  0
  -19.9229  -10.2940   16.3405 N   0  0  1  0  0  0  0  0  0  0  0  0
  1  3  1  6  0  0  0
  1  4  2  0  0  0  0
  1  6  1  0  0  0  0
  1 22  1  0  0  0  0
  2 28  1  0  0  0  0
  2 35  1  6  0  0  0
  2 38  2  0  0  0  0
  2 10  1  0  0  0  0
  5  6  1  0  0  0  0
  7  5  1  1  0  0  0
  7  8  1  0  0  0  0
  7  9  1  0  0  0  0
  9 10  1  6  0  0  0
  9 11  1  0  0  0  0
 11 12  1  1  0  0  0
 11 13  1  0  0  0  0
 13  8  1  1  0  0  0
 13 33  1  0  0  0  0
 14 46  1  0  0  0  0
 14 17  1  0  0  0  0
 14 25  1  1  0  0  0
 15 16  1  0  0  0  0
 15 29  1  0  0  0  0
 16 18  1  1  0  0  0
 16 21  1  0  0  0  0
 17 19  1  1  0  0  0
 17 20  1  0  0  0  0
 20 22  1  1  0  0  0
 20 24  1  0  0  0  0
 23 21  1  1  0  0  0
 23 26  1  0  0  0  0
 23 33  1  0  0  0  0
 24 25  1  6  0  0  0
 24 27  1  0  0  0  0
 26 29  1  6  0  0  0
 26 31  1  0  0  0  0
 27 28  1  0  0  0  0
 29 30  2  0  0  0  0
 31 32  1  0  0  0  0
 33 32  1  6  0  0  0
 34 36  1  0  0  0  0
 34 42  1  0  0  0  0
 36 37  1  1  0  0  0
 36 39  1  0  0  0  0
 40 39  1  6  0  0  0
 40 41  1  0  0  0  0
 40 46  1  0  0  0  0
 41 42  1  6  0  0  0
 41 44  1  0  0  0  0
 42 43  2  0  0  0  0
 44 45  1  0  0  0  0
 46 45  1  1  0  0  0
M  CHG  2   3  -1  35  -1
M  END
>  <CHROM.1>
112.95601558,176.31427589,-17.57563431,-10.55904212,18.37544869,0.54711497
-1.01244435,0.87373183

>  <Name>
ligand

>  <RI>
-1

>  <Rbt.Current_Directory>
/home/itssahil/PROJECTS/Mol_Feturizer/Test_systems_manuscript/rnas/3mum

>  <Rbt.Executable>
rbdock ($Id: //depot/dev/client3/rdock/2013.1/src/exe/rbdock.cxx#4 $)

>  <Rbt.Library>
libRbt.so (2013.1, Build901 2013/11/27)

>  <Rbt.Parameter_File>
/export/apps/rDock/src/rDock_2013.1_src/data/scripts/dock_solv.prm

>  <Rbt.Receptor>
prm/blind_docking_100.prm

>  <SCORE>
20.8978

>  <SCORE.INTER>
16.8448

>  <SCORE.INTER.CONST>
1

>  <SCORE.INTER.POLAR>
0

>  <SCORE.INTER.ROT>
2

>  <SCORE.INTER.SOLV>
32.3972

>  <SCORE.INTER.VDW>
-4.50254

>  <SCORE.INTER.norm>
0.366191

>  <SCORE.INTRA>
3.48576

>  <SCORE.INTRA.DIHEDRAL>
-0.0088361

>  <SCORE.INTRA.DIHEDRAL.0>
2.40424

>  <SCORE.INTRA.POLAR>
0

>  <SCORE.INTRA.POLAR.0>
0

>  <SCORE.INTRA.REPUL>
0

>  <SCORE.INTRA.REPUL.0>
0

>  <SCORE.INTRA.SOLV>
4.12568

>  <SCORE.INTRA.SOLV.lig_0>
-134.169

>  <SCORE.INTRA.VDW>
1.42734

>  <SCORE.INTRA.VDW.0>
-2.18386

>  <SCORE.INTRA.norm>
0.0757775

>  <SCORE.RESTR>
0.567262

>  <SCORE.RESTR.CAVITY>
0.567262

>  <SCORE.RESTR.norm>
0.0123318

>  <SCORE.SYSTEM>
0

>  <SCORE.SYSTEM.CONST>
0

>  <SCORE.SYSTEM.DIHEDRAL>
0

>  <SCORE.SYSTEM.SOLV>
0

>  <SCORE.SYSTEM.norm>
0

>  <SCORE.heavy>
46

>  <SCORE.norm>
0.454301

>  <RMSD>
16.339

$$$$
ligand
 OpenBabel02271912143D
libRbt.so/2013.1/901 2013/11/27
 46 52  0  0  0  0  0  0  0  0999 V2000
  -19.2629   -9.3130   21.8203 P   0  0  1  0  0  0  0  0  0  0  0  0
  -17.0140  -13.4052   18.2325 P   0  0  2  0  0  0  0  0  0  0  0  0
  -18.6008   -7.7177   21.4222 O   0  5  0  0  0  0  0  0  0  0  0  0
  -20.4878   -9.2129   23.1121 O   0  0  0  0  0  0  0  0  0  0  0  0
  -20.4306  -11.2723   20.4708 C   0  0  0  0  0  0  0  0  0  0  0  0
  -19.9102   -9.9428   20.4848 O   0  0  0  0  0  0  0  0  0  0  0  0
  -20.5098  -11.7456   19.0320 C   0  0  1  0  0  0  0  0  0  0  0  0
  -21.2424  -10.7887   18.2539 O   0  0  0  0  0  0  0  0  0  0  0  0
  -19.1502  -11.8601   18.3620 C   0  0  1  0  0  0  0  0  0  0  0  0
  -18.5853  -13.1607   18.5118 O   0  0  0  0  0  0  0  0  0  0  0  0
  -19.4529  -11.5355   16.9098 C   0  0  1  0  0  0  0  0  0  0  0  0
  -19.8122  -12.7269   16.2056 O   0  0  0  0  0  0  0  0  0  0  0  0
  -20.6590  -10.6158   16.9530 C   0  0  2  0  0  0  0  0  0  0  0  0
  -14.6171  -10.1929   21.4750 C   0  0  1  0  0  0  0  0  0  0  0  0
  -19.5541   -6.6268   13.6274 N   0  0  0  0  0  0  0  0  0  0  0  0
  -19.9307   -7.9028   13.3406 C   0  0  1  0  0  0  0  0  0  0  0  0
  -15.9317   -9.4738   21.5850 C   0  0  2  0  0  0  0  0  0  0  0  0
  -20.0543   -8.2564   12.0404 N   0  0  0  0  0  0  0  0  0  0  0  0
  -15.9811   -8.9207   22.9013 O   0  0  0  0  0  0  0  0  0  0  0  0
  -16.9789  -10.5504   21.3797 C   0  0  2  0  0  0  0  0  0  0  0  0
  -20.1838   -8.8343   14.3076 N   0  0  0  0  0  0  0  0  0  0  0  0
  -18.1056  -10.3555   22.2236 O   0  0  0  0  0  0  0  0  0  0  0  0
  -20.0760   -8.5291   15.6255 C   0  0  2  0  0  0  0  0  0  0  0  0
  -16.2794  -11.8469   21.7379 C   0  0  2  0  0  0  0  0  0  0  0  0
  -14.8829  -11.5891   21.6015 O   0  0  0  0  0  0  0  0  0  0  0  0
  -19.6681   -7.1614   15.9908 C   0  0  1  0  0  0  0  0  0  0  0  0
  -16.6744  -13.0038   20.8269 C   0  0  0  0  0  0  0  0  0  0  0  0
  -16.2956  -12.6920   19.4847 O   0  0  0  0  0  0  0  0  0  0  0  0
  -19.4094   -6.2012   14.9031 C   0  0  0  0  0  0  0  0  0  0  0  0
  -19.0298   -4.9278   15.1799 O   0  0  0  0  0  0  0  0  0  0  0  0
  -19.6283   -7.1113   17.3268 N   0  0  0  0  0  0  0  0  0  0  0  0
  -19.9801   -8.3462   17.7904 C   0  0  0  0  0  0  0  0  0  0  0  0
  -20.2477   -9.1975   16.7778 N   0  0  1  0  0  0  0  0  0  0  0  0
  -15.4207   -9.3142   16.3809 N   0  0  0  0  0  0  0  0  0  0  0  0
  -16.4980  -12.6500   16.7014 O   0  5  0  0  0  0  0  0  0  0  0  0
  -16.3130   -9.6112   17.3650 C   0  0  2  0  0  0  0  0  0  0  0  0
  -17.6330   -9.7056   17.0574 N   0  0  0  0  0  0  0  0  0  0  0  0
  -16.5585  -15.1200   18.2290 O   0  0  0  0  0  0  0  0  0  0  0  0
  -15.9245   -9.8169   18.6531 N   0  0  0  0  0  0  0  0  0  0  0  0
  -14.6251   -9.7300   19.0222 C   0  0  2  0  0  0  0  0  0  0  0  0
  -13.6146   -9.4151   18.0036 C   0  0  2  0  0  0  0  0  0  0  0  0
  -14.0966   -9.2081   16.6213 C   0  0  0  0  0  0  0  0  0  0  0  0
  -13.2377   -8.9161   15.6135 O   0  0  0  0  0  0  0  0  0  0  0  0
  -12.4233   -9.4026   18.6338 N   0  0  0  0  0  0  0  0  0  0  0  0
  -12.6545   -9.6828   19.9510 C   0  0  0  0  0  0  0  0  0  0  0  0
  -13.9732   -9.8801   20.1767 N   0  0  1  0  0  0  0  0  0  0  0  0
  1  3  1  6  0  0  0
  1  4  2  0  0  0  0
  1  6  1  0  0  0  0
  1 22  1  0  0  0  0
  2 28  1  0  0  0  0
  2 35  1  6  0  0  0
  2 38  2  0  0  0  0
  2 10  1  0  0  0  0
  5  6  1  0  0  0  0
  7  5  1  1  0  0  0
  7  8  1  0  0  0  0
  7  9  1  0  0  0  0
  9 10  1  6  0  0  0
  9 11  1  0  0  0  0
 11 12  1  6  0  0  0
 11 13  1  0  0  0  0
 13  8  1  1  0  0  0
 13 33  1  0  0  0  0
 14 46  1  0  0  0  0
 14 17  1  0  0  0  0
 14 25  1  6  0  0  0
 15 16  1  0  0  0  0
 15 29  1  0  0  0  0
 16 18  1  6  0  0  0
 16 21  1  0  0  0  0
 17 19  1  1  0  0  0
 17 20  1  0  0  0  0
 20 22  1  1  0  0  0
 20 24  1  0  0  0  0
 23 21  1  6  0  0  0
 23 26  1  0  0  0  0
 23 33  1  0  0  0  0
 24 25  1  6  0  0  0
 24 27  1  0  0  0  0
 26 29  1  1  0  0  0
 26 31  1  0  0  0  0
 27 28  1  0  0  0  0
 29 30  2  0  0  0  0
 31 32  1  0  0  0  0
 33 32  1  1  0  0  0
 34 36  1  0  0  0  0
 34 42  1  0  0  0  0
 36 37  1  1  0  0  0
 36 39  1  0  0  0  0
 40 39  1  6  0  0  0
 40 41  1  0  0  0  0
 40 46  1  0  0  0  0
 41 42  1  6  0  0  0
 41 44  1  0  0  0  0
 42 43  2  0  0  0  0
 44 45  1  0  0  0  0
 46 45  1  1  0  0  0
M  CHG  2   3  -1  35  -1
M  END
>  <CHROM.1>
-156.62248883,-37.41289667,-17.68911722,-10.07192538,18.46352649,1.06791452
-0.07621914,1.98097515

>  <Name>
ligand

>  <RI>
-1

>  <Rbt.Current_Directory>
/home/itssahil/PROJECTS/Mol_Feturizer/Test_systems_manuscript/rnas/3mum

>  <Rbt.Executable>
rbdock ($Id: //depot/dev/client3/rdock/2013.1/src/exe/rbdock.cxx#4 $)

>  <Rbt.Library>
libRbt.so (2013.1, Build901 2013/11/27)

>  <Rbt.Parameter_File>
/export/apps/rDock/src/rDock_2013.1_src/data/scripts/dock_solv.prm

>  <Rbt.Receptor>
prm/blind_docking_40.prm

>  <SCORE>
54.7688

>  <SCORE.INTER>
49.43

>  <SCORE.INTER.CONST>
1

>  <SCORE.INTER.POLAR>
0

>  <SCORE.INTER.ROT>
2

>  <SCORE.INTER.SOLV>
24.1829

>  <SCORE.INTER.VDW>
19.959

>  <SCORE.INTER.norm>
1.07457

>  <SCORE.INTRA>
5.13497

>  <SCORE.INTRA.DIHEDRAL>
0.0244297

>  <SCORE.INTRA.DIHEDRAL.0>
2.40424

>  <SCORE.INTRA.POLAR>
0

>  <SCORE.INTRA.POLAR.0>
0

>  <SCORE.INTRA.REPUL>
0

>  <SCORE.INTRA.REPUL.0>
0

>  <SCORE.INTRA.SOLV>
13.5441

>  <SCORE.INTRA.SOLV.lig_0>
-134.169

>  <SCORE.INTRA.VDW>
-1.64931

>  <SCORE.INTRA.VDW.0>
-2.18386

>  <SCORE.INTRA.norm>
0.11163

>  <SCORE.RESTR>
0.203848

>  <SCORE.RESTR.CAVITY>
0.203848

>  <SCORE.RESTR.norm>
0.00443149

>  <SCORE.SYSTEM>
0

>  <SCORE.SYSTEM.CONST>
0

>  <SCORE.SYSTEM.DIHEDRAL>
0

>  <SCORE.SYSTEM.SOLV>
0

>  <SCORE.SYSTEM.norm>
0

>  <SCORE.heavy>
46

>  <SCORE.norm>
1.19063

>  <RMSD>
16.340

$$$$
ligand
 OpenBabel02271912143D
libRbt.so/2013.1/901 2013/11/27
 46 52  0  0  0  0  0  0  0  0999 V2000
  -19.5577  -10.8589   22.8069 P   0  0  1  0  0  0  0  0  0  0  0  0
  -15.8062   -8.0627   19.2314 P   0  0  2  0  0  0  0  0  0  0  0  0
  -19.6546  -12.5748   22.3733 O   0  5  0  0  0  0  0  0  0  0  0  0
  -20.5333  -10.4899   24.2530 O   0  0  0  0  0  0  0  0  0  0  0  0
  -17.6078   -9.1428   23.3327 C   0  0  0  0  0  0  0  0  0  0  0  0
  -18.0108  -10.4865   23.0672 O   0  0  0  0  0  0  0  0  0  0  0  0
  -16.1222   -9.0191   23.0523 C   0  0  1  0  0  0  0  0  0  0  0  0
  -15.4127  -10.0308   23.7810 O   0  0  0  0  0  0  0  0  0  0  0  0
  -15.7663   -9.2436   21.5918 C   0  0  1  0  0  0  0  0  0  0  0  0
  -15.7691   -8.0288   20.8452 O   0  0  0  0  0  0  0  0  0  0  0  0
  -14.3814   -9.8624   21.6655 C   0  0  1  0  0  0  0  0  0  0  0  0
  -13.3855   -8.8365   21.6687 O   0  0  0  0  0  0  0  0  0  0  0  0
  -14.3402  -10.5819   23.0009 C   0  0  2  0  0  0  0  0  0  0  0  0
  -20.0928  -10.6935   18.0991 C   0  0  1  0  0  0  0  0  0  0  0  0
  -16.0103  -14.5328   19.8713 N   0  0  0  0  0  0  0  0  0  0  0  0
  -15.9832  -13.1950   19.6227 C   0  0  1  0  0  0  0  0  0  0  0  0
  -20.0495  -11.1899   19.5165 C   0  0  2  0  0  0  0  0  0  0  0  0
  -16.4358  -12.7578   18.4249 N   0  0  0  0  0  0  0  0  0  0  0  0
  -21.4057  -11.4030   19.9119 O   0  0  0  0  0  0  0  0  0  0  0  0
  -19.3977  -10.0672   20.2991 C   0  0  2  0  0  0  0  0  0  0  0  0
  -15.5233  -12.2831   20.5303 N   0  0  0  0  0  0  0  0  0  0  0  0
  -19.9881   -9.9086   21.5819 O   0  0  0  0  0  0  0  0  0  0  0  0
  -15.0571  -12.6709   21.7443 C   0  0  2  0  0  0  0  0  0  0  0  0
  -19.6301   -8.8242   19.4628 C   0  0  2  0  0  0  0  0  0  0  0  0
  -19.8671   -9.2850   18.1336 O   0  0  0  0  0  0  0  0  0  0  0  0
  -15.0672  -14.1086   22.0657 C   0  0  1  0  0  0  0  0  0  0  0  0
  -18.4362   -7.8760   19.4671 C   0  0  0  0  0  0  0  0  0  0  0  0
  -17.3068   -8.5443   18.9013 O   0  0  0  0  0  0  0  0  0  0  0  0
  -15.5750  -15.0434   21.0458 C   0  0  0  0  0  0  0  0  0  0  0  0
  -15.6089  -16.3787   21.2868 O   0  0  0  0  0  0  0  0  0  0  0  0
  -14.5728  -14.2340   23.3022 N   0  0  0  0  0  0  0  0  0  0  0  0
  -14.2683  -12.9799   23.7472 C   0  0  0  0  0  0  0  0  0  0  0  0
  -14.5567  -12.0420   22.8206 N   0  0  1  0  0  0  0  0  0  0  0  0
  -15.7845  -10.0877   15.1939 N   0  0  0  0  0  0  0  0  0  0  0  0
  -14.6186   -9.2205   18.5755 O   0  5  0  0  0  0  0  0  0  0  0  0
  -16.5425   -9.1551   15.8331 C   0  0  2  0  0  0  0  0  0  0  0  0
  -16.1872   -7.8459   15.7569 N   0  0  0  0  0  0  0  0  0  0  0  0
  -15.5534   -6.4715   18.4883 O   0  0  0  0  0  0  0  0  0  0  0  0
  -17.6492   -9.4926   16.5498 N   0  0  0  0  0  0  0  0  0  0  0  0
  -18.0496  -10.7802   16.6679 C   0  0  2  0  0  0  0  0  0  0  0  0
  -17.2734  -11.8320   15.9978 C   0  0  2  0  0  0  0  0  0  0  0  0
  -16.0852  -11.4032   15.2295 C   0  0  0  0  0  0  0  0  0  0  0  0
  -15.3089  -12.3022   14.5753 O   0  0  0  0  0  0  0  0  0  0  0  0
  -17.8918  -12.9985   16.2681 N   0  0  0  0  0  0  0  0  0  0  0  0
  -18.9744  -12.7154   17.0523 C   0  0  0  0  0  0  0  0  0  0  0  0
  -19.0649  -11.3864   17.2858 N   0  0  1  0  0  0  0  0  0  0  0  0
  1  3  1  6  0  0  0
  1  4  2  0  0  0  0
  1  6  1  0  0  0  0
  1 22  1  0  0  0  0
  2 28  1  0  0  0  0
  2 35  1  6  0  0  0
  2 38  2  0  0  0  0
  2 10  1  0  0  0  0
  5  6  1  0  0  0  0
  7  5  1  6  0  0  0
  7  8  1  0  0  0  0
  7  9  1  0  0  0  0
  9 10  1  6  0  0  0
  9 11  1  0  0  0  0
 11 12  1  1  0  0  0
 11 13  1  0  0  0  0
 13  8  1  1  0  0  0
 13 33  1  0  0  0  0
 14 46  1  0  0  0  0
 14 17  1  0  0  0  0
 14 25  1  1  0  0  0
 15 16  1  0  0  0  0
 15 29  1  0  0  0  0
 16 18  1  1  0  0  0
 16 21  1  0  0  0  0
 17 19  1  1  0  0  0
 17 20  1  0  0  0  0
 20 22  1  1  0  0  0
 20 24  1  0  0  0  0
 23 21  1  1  0  0  0
 23 26  1  0  0  0  0
 23 33  1  0  0  0  0
 24 25  1  6  0  0  0
 24 27  1  0  0  0  0
 26 29  1  6  0  0  0
 26 31  1  0  0  0  0
 27 28  1  0  0  0  0
 29 30  2  0  0  0  0
 31 32  1  0  0  0  0
 33 32  1  6  0  0  0
 34 36  1  0  0  0  0
 34 42  1  0  0  0  0
 36 37  1  1  0  0  0
 36 39  1  0  0  0  0
 40 39  1  6  0  0  0
 40 41  1  0  0  0  0
 40 46  1  0  0  0  0
 41 42  1  6  0  0  0
 41 44  1  0  0  0  0
 42 43  2  0  0  0  0
 44 45  1  0  0  0  0
 46 45  1  1  0  0  0
M  CHG  2   3  -1  35  -1
M  END
>  <CHROM.1>
100.23889742,-118.60801336,-17.02470829,-10.76017323,19.97121875,1.37396856
-0.90998196,1.68279805

>  <Name>
ligand

>  <RI>
-1

>  <Rbt.Current_Directory>
/home/itssahil/PROJECTS/Mol_Feturizer/Test_systems_manuscript/rnas/3mum

>  <Rbt.Executable>
rbdock ($Id: //depot/dev/client3/rdock/2013.1/src/exe/rbdock.cxx#4 $)

>  <Rbt.Library>
libRbt.so (2013.1, Build901 2013/11/27)

>  <Rbt.Parameter_File>
/export/apps/rDock/src/rDock_2013.1_src/data/scripts/dock_solv.prm

>  <Rbt.Receptor>
prm/blind_docking_40.prm

>  <SCORE>
30.0853

>  <SCORE.INTER>
23.6351

>  <SCORE.INTER.CONST>
1

>  <SCORE.INTER.POLAR>
0

>  <SCORE.INTER.ROT>
2

>  <SCORE.INTER.SOLV>
39.2285

>  <SCORE.INTER.VDW>
-2.25274

>  <SCORE.INTER.norm>
0.513808

>  <SCORE.INTRA>
4.76412

>  <SCORE.INTRA.DIHEDRAL>
-0.00250225

>  <SCORE.INTRA.DIHEDRAL.0>
2.40424

>  <SCORE.INTRA.POLAR>
0

>  <SCORE.INTRA.POLAR.0>
0

>  <SCORE.INTRA.REPUL>
0

>  <SCORE.INTRA.REPUL.0>
0

>  <SCORE.INTRA.SOLV>
14.2472

>  <SCORE.INTRA.SOLV.lig_0>
-134.169

>  <SCORE.INTRA.VDW>
-2.35822

>  <SCORE.INTRA.VDW.0>
-2.18386

>  <SCORE.INTRA.norm>
0.103568

>  <SCORE.RESTR>
1.68599

>  <SCORE.RESTR.CAVITY>
1.68599

>  <SCORE.RESTR.norm>
0.0366519

>  <SCORE.SYSTEM>
0

>  <SCORE.SYSTEM.CONST>
0

>  <SCORE.SYSTEM.DIHEDRAL>
0

>  <SCORE.SYSTEM.SOLV>
0

>  <SCORE.SYSTEM.norm>
0

>  <SCORE.heavy>
46

>  <SCORE.norm>
0.654027

>  <RMSD>
16.345

$$$$
ligand
 OpenBabel02271912143D
libRbt.so/2013.1/901 2013/11/27
 46 52  0  0  0  0  0  0  0  0999 V2000
  -15.5164   -8.3445   17.7146 P   0  0  1  0  0  0  0  0  0  0  0  0
  -18.2667  -10.1515   22.5979 P   0  0  2  0  0  0  0  0  0  0  0  0
  -14.9505   -9.7388   16.7779 O   0  5  0  0  0  0  0  0  0  0  0  0
  -15.1882   -6.8085   16.8708 O   0  0  0  0  0  0  0  0  0  0  0  0
  -17.8174   -7.5919   18.7928 C   0  0  0  0  0  0  0  0  0  0  0  0
  -17.0991   -8.5130   17.9719 O   0  0  0  0  0  0  0  0  0  0  0  0
  -19.1099   -8.2482   19.2394 C   0  0  1  0  0  0  0  0  0  0  0  0
  -19.8200   -8.7345   18.0917 O   0  0  0  0  0  0  0  0  0  0  0  0
  -18.8911   -9.4620   20.1277 C   0  0  1  0  0  0  0  0  0  0  0  0
  -18.8632   -9.1173   21.5110 O   0  0  0  0  0  0  0  0  0  0  0  0
  -20.0713  -10.3552   19.7881 C   0  0  1  0  0  0  0  0  0  0  0  0
  -21.1837  -10.0388   20.6289 O   0  0  0  0  0  0  0  0  0  0  0  0
  -20.4320  -10.0067   18.3559 C   0  0  2  0  0  0  0  0  0  0  0  0
  -13.4344  -11.0224   21.0268 C   0  0  1  0  0  0  0  0  0  0  0  0
  -18.4059  -11.0772   13.5662 N   0  0  0  0  0  0  0  0  0  0  0  0
  -18.8130   -9.8835   14.0777 C   0  0  1  0  0  0  0  0  0  0  0  0
  -13.8677  -10.4724   19.6976 C   0  0  2  0  0  0  0  0  0  0  0  0
  -18.7093   -8.7840   13.2960 N   0  0  0  0  0  0  0  0  0  0  0  0
  -12.7166   -9.8521   19.1220 O   0  0  0  0  0  0  0  0  0  0  0  0
  -14.9507   -9.4655   20.0309 C   0  0  2  0  0  0  0  0  0  0  0  0
  -19.3214   -9.7542   15.3392 N   0  0  0  0  0  0  0  0  0  0  0  0
  -14.8801   -8.3204   19.1922 O   0  0  0  0  0  0  0  0  0  0  0  0
  -19.4440  -10.8257   16.1629 C   0  0  2  0  0  0  0  0  0  0  0  0
  -14.6862   -9.0720   21.4709 C   0  0  2  0  0  0  0  0  0  0  0  0
  -13.9225  -10.1374   22.0341 O   0  0  0  0  0  0  0  0  0  0  0  0
  -19.0205  -12.1430   15.6569 C   0  0  1  0  0  0  0  0  0  0  0  0
  -15.9660   -8.8821   22.2774 C   0  0  0  0  0  0  0  0  0  0  0  0
  -16.6817  -10.1184   22.3160 O   0  0  0  0  0  0  0  0  0  0  0  0
  -18.4797  -12.2187   14.2880 C   0  0  0  0  0  0  0  0  0  0  0  0
  -18.0748  -13.4056   13.7688 O   0  0  0  0  0  0  0  0  0  0  0  0
  -19.2427  -13.0256   16.6370 N   0  0  0  0  0  0  0  0  0  0  0  0
  -19.7689  -12.3375   17.6921 C   0  0  0  0  0  0  0  0  0  0  0  0
  -19.8922  -11.0226   17.4137 N   0  0  1  0  0  0  0  0  0  0  0  0
  -16.5694  -14.7116   19.0445 N   0  0  0  0  0  0  0  0  0  0  0  0
  -18.9114  -11.7967   22.3557 O   0  5  0  0  0  0  0  0  0  0  0  0
  -16.3048  -13.4564   18.5891 C   0  0  2  0  0  0  0  0  0  0  0  0
  -16.9034  -13.0246   17.4484 N   0  0  0  0  0  0  0  0  0  0  0  0
  -18.5467   -9.6478   24.2760 O   0  0  0  0  0  0  0  0  0  0  0  0
  -15.4559  -12.6162   19.2415 N   0  0  0  0  0  0  0  0  0  0  0  0
  -14.8247  -12.9916   20.3786 C   0  0  2  0  0  0  0  0  0  0  0  0
  -15.0722  -14.3340   20.9210 C   0  0  2  0  0  0  0  0  0  0  0  0
  -16.0085  -15.1988   20.1716 C   0  0  0  0  0  0  0  0  0  0  0  0
  -16.3009  -16.4527   20.5967 O   0  0  0  0  0  0  0  0  0  0  0  0
  -14.3367  -14.4367   22.0456 N   0  0  0  0  0  0  0  0  0  0  0  0
  -13.6687  -13.2557   22.2067 C   0  0  0  0  0  0  0  0  0  0  0  0
  -13.9667  -12.3942   21.2077 N   0  0  1  0  0  0  0  0  0  0  0  0
  1  3  1  6  0  0  0
  1  4  2  0  0  0  0
  1  6  1  0  0  0  0
  1 22  1  0  0  0  0
  2 28  1  0  0  0  0
  2 35  1  6  0  0  0
  2 38  2  0  0  0  0
  2 10  1  0  0  0  0
  5  6  1  0  0  0  0
  7  5  1  6  0  0  0
  7  8  1  0  0  0  0
  7  9  1  0  0  0  0
  9 10  1  1  0  0  0
  9 11  1  0  0  0  0
 11 12  1  1  0  0  0
 11 13  1  0  0  0  0
 13  8  1  6  0  0  0
 13 33  1  0  0  0  0
 14 46  1  0  0  0  0
 14 17  1  0  0  0  0
 14 25  1  1  0  0  0
 15 16  1  0  0  0  0
 15 29  1  0  0  0  0
 16 18  1  6  0  0  0
 16 21  1  0  0  0  0
 17 19  1  1  0  0  0
 17 20  1  0  0  0  0
 20 22  1  6  0  0  0
 20 24  1  0  0  0  0
 23 21  1  6  0  0  0
 23 26  1  0  0  0  0
 23 33  1  0  0  0  0
 24 25  1  1  0  0  0
 24 27  1  0  0  0  0
 26 29  1  1  0  0  0
 26 31  1  0  0  0  0
 27 28  1  0  0  0  0
 29 30  2  0  0  0  0
 31 32  1  0  0  0  0
 33 32  1  1  0  0  0
 34 36  1  0  0  0  0
 34 42  1  0  0  0  0
 36 37  1  6  0  0  0
 36 39  1  0  0  0  0
 40 39  1  1  0  0  0
 40 41  1  0  0  0  0
 40 46  1  0  0  0  0
 41 42  1  1  0  0  0
 41 44  1  0  0  0  0
 42 43  2  0  0  0  0
 44 45  1  0  0  0  0
 46 45  1  6  0  0  0
M  CHG  2   3  -1  35  -1
M  END
>  <CHROM.1>
-29.81663268,-6.85529491,-17.03739335,-10.78755591,19.06269523,2.64395092
1.02214583,-2.39585114

>  <Name>
ligand

>  <RI>
-1

>  <Rbt.Current_Directory>
/home/itssahil/PROJECTS/Mol_Feturizer/Test_systems_manuscript/rnas/3mum

>  <Rbt.Executable>
rbdock ($Id: //depot/dev/client3/rdock/2013.1/src/exe/rbdock.cxx#4 $)

>  <Rbt.Library>
libRbt.so (2013.1, Build901 2013/11/27)

>  <Rbt.Parameter_File>
/export/apps/rDock/src/rDock_2013.1_src/data/scripts/dock_solv.prm

>  <Rbt.Receptor>
prm/blind_docking_40.prm

>  <SCORE>
47.2141

>  <SCORE.INTER>
42.2445

>  <SCORE.INTER.CONST>
1

>  <SCORE.INTER.POLAR>
0

>  <SCORE.INTER.ROT>
2

>  <SCORE.INTER.SOLV>
28.1482

>  <SCORE.INTER.VDW>
13.8469

>  <SCORE.INTER.norm>
0.918359

>  <SCORE.INTRA>
3.21632

>  <SCORE.INTRA.DIHEDRAL>
0.00965081

>  <SCORE.INTRA.DIHEDRAL.0>
2.40424

>  <SCORE.INTRA.POLAR>
0

>  <SCORE.INTRA.POLAR.0>
0

>  <SCORE.INTRA.REPUL>
0

>  <SCORE.INTRA.REPUL.0>
0

>  <SCORE.INTRA.SOLV>
5.60927

>  <SCORE.INTRA.SOLV.lig_0>
-134.169

>  <SCORE.INTRA.VDW>
0.406861

>  <SCORE.INTRA.VDW.0>
-2.18386

>  <SCORE.INTRA.norm>
0.06992

>  <SCORE.RESTR>
1.75323

>  <SCORE.RESTR.CAVITY>
1.75323

>  <SCORE.RESTR.norm>
0.0381136

>  <SCORE.SYSTEM>
0

>  <SCORE.SYSTEM.CONST>
0

>  <SCORE.SYSTEM.DIHEDRAL>
0

>  <SCORE.SYSTEM.SOLV>
0

>  <SCORE.SYSTEM.norm>
0

>  <SCORE.heavy>
46

>  <SCORE.norm>
1.02639

>  <RMSD>
16.349

$$$$
ligand
 OpenBabel02271912143D
libRbt.so/2013.1/901 2013/11/27
 46 52  0  0  0  0  0  0  0  0999 V2000
  -20.0307  -10.3192   19.3677 P   0  0  1  0  0  0  0  0  0  0  0  0
  -16.7036   -7.3366   15.5323 P   0  0  2  0  0  0  0  0  0  0  0  0
  -20.8932  -11.6293   18.5422 O   0  5  0  0  0  0  0  0  0  0  0  0
  -20.3303  -10.3396   21.1253 O   0  0  0  0  0  0  0  0  0  0  0  0
  -17.5132   -9.5047   19.5169 C   0  0  0  0  0  0  0  0  0  0  0  0
  -18.4547  -10.4797   19.0682 O   0  0  0  0  0  0  0  0  0  0  0  0
  -16.2417   -9.6495   18.7026 C   0  0  1  0  0  0  0  0  0  0  0  0
  -15.7924  -11.0108   18.7566 O   0  0  0  0  0  0  0  0  0  0  0  0
  -16.4359   -9.3429   17.2265 C   0  0  1  0  0  0  0  0  0  0  0  0
  -16.1922   -7.9704   16.9264 O   0  0  0  0  0  0  0  0  0  0  0  0
  -15.4329  -10.2598   16.5489 C   0  0  1  0  0  0  0  0  0  0  0  0
  -14.1669   -9.6047   16.4374 O   0  0  0  0  0  0  0  0  0  0  0  0
  -15.2846  -11.4447   17.4851 C   0  0  2  0  0  0  0  0  0  0  0  0
  -21.7972   -8.1321   15.5503 C   0  0  1  0  0  0  0  0  0  0  0  0
  -19.1050  -13.2516   14.2709 N   0  0  0  0  0  0  0  0  0  0  0  0
  -18.6365  -11.9822   14.4166 C   0  0  1  0  0  0  0  0  0  0  0  0
  -21.5386   -9.1544   16.6204 C   0  0  2  0  0  0  0  0  0  0  0  0
  -19.1890  -11.0056   13.6605 N   0  0  0  0  0  0  0  0  0  0  0  0
  -22.6973   -9.1668   17.4562 O   0  0  0  0  0  0  0  0  0  0  0  0
  -20.3132   -8.6450   17.3530 C   0  0  2  0  0  0  0  0  0  0  0  0
  -17.6394  -11.6578   15.2926 N   0  0  0  0  0  0  0  0  0  0  0  0
  -20.4015   -8.8797   18.7518 O   0  0  0  0  0  0  0  0  0  0  0  0
  -17.0515  -12.6008   16.0717 C   0  0  2  0  0  0  0  0  0  0  0  0
  -20.2865   -7.1546   17.0768 C   0  0  2  0  0  0  0  0  0  0  0  0
  -21.0536   -6.9624   15.8894 O   0  0  0  0  0  0  0  0  0  0  0  0
  -17.5239  -13.9914   15.9553 C   0  0  1  0  0  0  0  0  0  0  0  0
  -18.8757   -6.6173   16.8633 C   0  0  0  0  0  0  0  0  0  0  0  0
  -18.3006   -7.2553   15.7213 O   0  0  0  0  0  0  0  0  0  0  0  0
  -18.6020  -14.2791   14.9925 C   0  0  0  0  0  0  0  0  0  0  0  0
  -19.0778  -15.5414   14.8434 O   0  0  0  0  0  0  0  0  0  0  0  0
  -16.8049  -14.7195   16.8166 N   0  0  0  0  0  0  0  0  0  0  0  0
  -15.9379  -13.8704   17.4418 C   0  0  0  0  0  0  0  0  0  0  0  0
  -16.0818  -12.6029   17.0011 N   0  0  1  0  0  0  0  0  0  0  0  0
  -19.0760   -7.1859   11.1836 N   0  0  0  0  0  0  0  0  0  0  0  0
  -16.2894   -8.3831   14.1488 O   0  5  0  0  0  0  0  0  0  0  0  0
  -19.2605   -6.4032   12.2819 C   0  0  2  0  0  0  0  0  0  0  0  0
  -18.6762   -5.1775   12.3288 N   0  0  0  0  0  0  0  0  0  0  0  0
  -16.0913   -5.6975   15.2380 O   0  0  0  0  0  0  0  0  0  0  0  0
  -20.0140   -6.8103   13.3396 N   0  0  0  0  0  0  0  0  0  0  0  0
  -20.6156   -8.0227   13.3542 C   0  0  2  0  0  0  0  0  0  0  0  0
  -20.4556   -8.9115   12.1958 C   0  0  2  0  0  0  0  0  0  0  0  0
  -19.6307   -8.4118   11.0751 C   0  0  0  0  0  0  0  0  0  0  0  0
  -19.4284   -9.1602    9.9626 O   0  0  0  0  0  0  0  0  0  0  0  0
  -21.1575  -10.0294   12.4679 N   0  0  0  0  0  0  0  0  0  0  0  0
  -21.7178   -9.8696   13.7039 C   0  0  0  0  0  0  0  0  0  0  0  0
  -21.3922   -8.6662   14.2279 N   0  0  1  0  0  0  0  0  0  0  0  0
  1  3  1  6  0  0  0
  1  4  2  0  0  0  0
  1  6  1  0  0  0  0
  1 22  1  0  0  0  0
  2 28  1  0  0  0  0
  2 35  1  6  0  0  0
  2 38  2  0  0  0  0
  2 10  1  0  0  0  0
  5  6  1  0  0  0  0
  7  5  1  1  0  0  0
  7  8  1  0  0  0  0
  7  9  1  0  0  0  0
  9 10  1  1  0  0  0
  9 11  1  0  0  0  0
 11 12  1  1  0  0  0
 11 13  1  0  0  0  0
 13  8  1  1  0  0  0
 13 33  1  0  0  0  0
 14 46  1  0  0  0  0
 14 17  1  0  0  0  0
 14 25  1  1  0  0  0
 15 16  1  0  0  0  0
 15 29  1  0  0  0  0
 16 18  1  1  0  0  0
 16 21  1  0  0  0  0
 17 19  1  1  0  0  0
 17 20  1  0  0  0  0
 20 22  1  1  0  0  0
 20 24  1  0  0  0  0
 23 21  1  1  0  0  0
 23 26  1  0  0  0  0
 23 33  1  0  0  0  0
 24 25  1  6  0  0  0
 24 27  1  0  0  0  0
 26 29  1  6  0  0  0
 26 31  1  0  0  0  0
 27 28  1  0  0  0  0
 29 30  2  0  0  0  0
 31 32  1  0  0  0  0
 33 32  1  6  0  0  0
 34 36  1  0  0  0  0
 34 42  1  0  0  0  0
 36 37  1  1  0  0  0
 36 39  1  0  0  0  0
 40 39  1  6  0  0  0
 40 41  1  0  0  0  0
 40 46  1  0  0  0  0
 41 42  1  6  0  0  0
 41 44  1  0  0  0  0
 42 43  2  0  0  0  0
 44 45  1  0  0  0  0
 46 45  1  1  0  0  0
M  CHG  2   3  -1  35  -1
M  END
>  <CHROM.1>
101.81713769,-130.25530273,-18.63027059,-9.67723038,15.86793388,0.39810714
-1.22919964,1.16294586

>  <Name>
ligand

>  <RI>
-1

>  <Rbt.Current_Directory>
/home/itssahil/PROJECTS/Mol_Feturizer/Test_systems_manuscript/rnas/3mum

>  <Rbt.Executable>
rbdock ($Id: //depot/dev/client3/rdock/2013.1/src/exe/rbdock.cxx#4 $)

>  <Rbt.Library>
libRbt.so (2013.1, Build901 2013/11/27)

>  <Rbt.Parameter_File>
/export/apps/rDock/src/rDock_2013.1_src/data/scripts/dock_solv.prm

>  <Rbt.Receptor>
prm/blind_docking_40.prm

>  <SCORE>
82.3459

>  <SCORE.INTER>
79.1331

>  <SCORE.INTER.CONST>
1

>  <SCORE.INTER.POLAR>
0

>  <SCORE.INTER.ROT>
2

>  <SCORE.INTER.SOLV>
35.3325

>  <SCORE.INTER.VDW>
36.0446

>  <SCORE.INTER.norm>
1.72029

>  <SCORE.INTRA>
2.70373

>  <SCORE.INTRA.DIHEDRAL>
0.0133555

>  <SCORE.INTRA.DIHEDRAL.0>
2.40424

>  <SCORE.INTRA.POLAR>
0

>  <SCORE.INTRA.POLAR.0>
0

>  <SCORE.INTRA.REPUL>
0

>  <SCORE.INTRA.REPUL.0>
0

>  <SCORE.INTRA.SOLV>
8.3042

>  <SCORE.INTRA.SOLV.lig_0>
-134.169

>  <SCORE.INTRA.VDW>
-1.45505

>  <SCORE.INTRA.VDW.0>
-2.18386

>  <SCORE.INTRA.norm>
0.0587767

>  <SCORE.RESTR>
0.509048

>  <SCORE.RESTR.CAVITY>
0.509048

>  <SCORE.RESTR.norm>
0.0110663

>  <SCORE.SYSTEM>
0

>  <SCORE.SYSTEM.CONST>
0

>  <SCORE.SYSTEM.DIHEDRAL>
0

>  <SCORE.SYSTEM.SOLV>
0

>  <SCORE.SYSTEM.norm>
0

>  <SCORE.heavy>
46

>  <SCORE.norm>
1.79013

>  <RMSD>
16.376

$$$$
ligand
 OpenBabel02271912143D
libRbt.so/2013.1/901 2013/11/27
 46 52  0  0  0  0  0  0  0  0999 V2000
  -17.1677  -13.5285   18.2513 P   0  0  1  0  0  0  0  0  0  0  0  0
  -19.2694   -9.2421   21.6990 P   0  0  2  0  0  0  0  0  0  0  0  0
  -16.5580  -12.8497   16.7317 O   0  5  0  0  0  0  0  0  0  0  0  0
  -16.8805  -15.2855   18.3488 O   0  0  0  0  0  0  0  0  0  0  0  0
  -16.8030  -13.0361   20.8297 C   0  0  0  0  0  0  0  0  0  0  0  0
  -16.4369  -12.7746   19.4747 O   0  0  0  0  0  0  0  0  0  0  0  0
  -16.3283  -11.8811   21.6906 C   0  0  1  0  0  0  0  0  0  0  0  0
  -14.9297  -11.6583   21.4621 O   0  0  0  0  0  0  0  0  0  0  0  0
  -17.0104  -10.5642   21.3575 C   0  0  1  0  0  0  0  0  0  0  0  0
  -18.1853  -10.3552   22.1379 O   0  0  0  0  0  0  0  0  0  0  0  0
  -15.9367   -9.5336   21.6594 C   0  0  1  0  0  0  0  0  0  0  0  0
  -16.0114   -9.1347   23.0304 O   0  0  0  0  0  0  0  0  0  0  0  0
  -14.6210  -10.2559   21.4359 C   0  0  2  0  0  0  0  0  0  0  0  0
  -20.6865  -10.6337   16.9416 C   0  0  1  0  0  0  0  0  0  0  0  0
  -15.4440   -9.1831   16.3012 N   0  0  0  0  0  0  0  0  0  0  0  0
  -16.3500   -9.4937   17.2682 C   0  0  1  0  0  0  0  0  0  0  0  0
  -19.4382  -11.4693   16.9160 C   0  0  2  0  0  0  0  0  0  0  0  0
  -17.6575   -9.5517   16.9248 N   0  0  0  0  0  0  0  0  0  0  0  0
  -19.7226  -12.5957   16.0844 O   0  0  0  0  0  0  0  0  0  0  0  0
  -19.2121  -11.8701   18.3603 C   0  0  2  0  0  0  0  0  0  0  0  0
  -15.9926   -9.7502   18.5617 N   0  0  0  0  0  0  0  0  0  0  0  0
  -18.7285  -13.2020   18.4668 O   0  0  0  0  0  0  0  0  0  0  0  0
  -14.6952   -9.7028   18.9569 C   0  0  2  0  0  0  0  0  0  0  0  0
  -20.5760  -11.7587   19.0129 C   0  0  2  0  0  0  0  0  0  0  0  0
  -21.3312  -10.8685   18.1928 O   0  0  0  0  0  0  0  0  0  0  0  0
  -13.6731   -9.3741   17.9481 C   0  0  1  0  0  0  0  0  0  0  0  0
  -20.5095  -11.2087   20.4333 C   0  0  0  0  0  0  0  0  0  0  0  0
  -19.9640   -9.8884   20.3980 O   0  0  0  0  0  0  0  0  0  0  0  0
  -14.1204   -9.1069   16.5695 C   0  0  0  0  0  0  0  0  0  0  0  0
  -13.2234   -8.8001   15.5982 O   0  0  0  0  0  0  0  0  0  0  0  0
  -12.4901   -9.3959   18.5719 N   0  0  0  0  0  0  0  0  0  0  0  0
  -12.7254   -9.7143   19.8783 C   0  0  0  0  0  0  0  0  0  0  0  0
  -14.0414   -9.8997   20.1136 N   0  0  1  0  0  0  0  0  0  0  0  0
  -19.9832   -6.7673   13.4884 N   0  0  0  0  0  0  0  0  0  0  0  0
  -18.4851   -7.6944   21.2863 O   0  5  0  0  0  0  0  0  0  0  0  0
  -20.3051   -8.0734   13.2802 C   0  0  2  0  0  0  0  0  0  0  0  0
  -20.4947   -8.5156   12.0095 N   0  0  0  0  0  0  0  0  0  0  0  0
  -20.5242   -8.9617   22.9216 O   0  0  0  0  0  0  0  0  0  0  0  0
  -20.4446   -8.9548   14.3078 N   0  0  0  0  0  0  0  0  0  0  0  0
  -20.2751   -8.5725   15.5952 C   0  0  2  0  0  0  0  0  0  0  0  0
  -19.9237   -7.1756   15.8832 C   0  0  2  0  0  0  0  0  0  0  0  0
  -19.7803   -6.2670   14.7257 C   0  0  0  0  0  0  0  0  0  0  0  0
  -19.4556   -4.9612   14.8928 O   0  0  0  0  0  0  0  0  0  0  0  0
  -19.8066   -7.0761   17.2222 N   0  0  0  0  0  0  0  0  0  0  0  0
  -20.0667   -8.3100   17.7483 C   0  0  0  0  0  0  0  0  0  0  0  0
  -20.3438   -9.2016   16.7699 N   0  0  1  0  0  0  0  0  0  0  0  0
  1  3  1  6  0  0  0
  1  4  2  0  0  0  0
  1  6  1  0  0  0  0
  1 22  1  0  0  0  0
  2 28  1  0  0  0  0
  2 35  1  6  0  0  0
  2 38  2  0  0  0  0
  2 10  1  0  0  0  0
  5  6  1  0  0  0  0
  7  5  1  6  0  0  0
  7  8  1  0  0  0  0
  7  9  1  0  0  0  0
  9 10  1  1  0  0  0
  9 11  1  0  0  0  0
 11 12  1  1  0  0  0
 11 13  1  0  0  0  0
 13  8  1  6  0  0  0
 13 33  1  0  0  0  0
 14 46  1  0  0  0  0
 14 17  1  0  0  0  0
 14 25  1  1  0  0  0
 15 16  1  0  0  0  0
 15 29  1  0  0  0  0
 16 18  1  6  0  0  0
 16 21  1  0  0  0  0
 17 19  1  6  0  0  0
 17 20  1  0  0  0  0
 20 22  1  6  0  0  0
 20 24  1  0  0  0  0
 23 21  1  6  0  0  0
 23 26  1  0  0  0  0
 23 33  1  0  0  0  0
 24 25  1  6  0  0  0
 24 27  1  0  0  0  0
 26 29  1  1  0  0  0
 26 31  1  0  0  0  0
 27 28  1  0  0  0  0
 29 30  2  0  0  0  0
 31 32  1  0  0  0  0
 33 32  1  1  0  0  0
 34 36  1  0  0  0  0
 34 42  1  0  0  0  0
 36 37  1  1  0  0  0
 36 39  1  0  0  0  0
 40 39  1  6  0  0  0
 40 41  1  0  0  0  0
 40 46  1  0  0  0  0
 41 42  1  6  0  0  0
 41 44  1  0  0  0  0
 42 43  2  0  0  0  0
 44 45  1  0  0  0  0
 46 45  1  1  0  0  0
M  CHG  2   3  -1  35  -1
M  END
>  <CHROM.1>
78.41979009,90.67185090,-17.79522414,-10.08689604,18.40764227,1.02495524
-0.04263056,1.99897196

>  <Name>
ligand

>  <RI>
-1

>  <Rbt.Current_Directory>
/home/itssahil/PROJECTS/Mol_Feturizer/Test_systems_manuscript/rnas/3mum

>  <Rbt.Executable>
rbdock ($Id: //depot/dev/client3/rdock/2013.1/src/exe/rbdock.cxx#4 $)

>  <Rbt.Library>
libRbt.so (2013.1, Build901 2013/11/27)

>  <Rbt.Parameter_File>
/export/apps/rDock/src/rDock_2013.1_src/data/scripts/dock_solv.prm

>  <Rbt.Receptor>
prm/blind_docking_80.prm

>  <SCORE>
55.9893

>  <SCORE.INTER>
51.6746

>  <SCORE.INTER.CONST>
1

>  <SCORE.INTER.POLAR>
0

>  <SCORE.INTER.ROT>
2

>  <SCORE.INTER.SOLV>
25.7721

>  <SCORE.INTER.VDW>
20.9257

>  <SCORE.INTER.norm>
1.12336

>  <SCORE.INTRA>
3.88722

>  <SCORE.INTRA.DIHEDRAL>
0.0262935

>  <SCORE.INTRA.DIHEDRAL.0>
2.40424

>  <SCORE.INTRA.POLAR>
0

>  <SCORE.INTRA.POLAR.0>
0

>  <SCORE.INTRA.REPUL>
0

>  <SCORE.INTRA.REPUL.0>
0

>  <SCORE.INTRA.SOLV>
11.7343

>  <SCORE.INTRA.SOLV.lig_0>
-134.169

>  <SCORE.INTRA.VDW>
-1.99309

>  <SCORE.INTRA.VDW.0>
-2.18386

>  <SCORE.INTRA.norm>
0.0845048

>  <SCORE.RESTR>
0.427412

>  <SCORE.RESTR.CAVITY>
0.427412

>  <SCORE.RESTR.norm>
0.00929156

>  <SCORE.SYSTEM>
0

>  <SCORE.SYSTEM.CONST>
0

>  <SCORE.SYSTEM.DIHEDRAL>
0

>  <SCORE.SYSTEM.SOLV>
0

>  <SCORE.SYSTEM.norm>
0

>  <SCORE.heavy>
46

>  <SCORE.norm>
1.21716

>  <RMSD>
16.408

$$$$
ligand
 OpenBabel02271912143D
libRbt.so/2013.1/901 2013/11/27
 46 52  0  0  0  0  0  0  0  0999 V2000
  -16.7063   -7.1239   15.7916 P   0  0  1  0  0  0  0  0  0  0  0  0
  -19.9956  -10.6682   19.1524 P   0  0  2  0  0  0  0  0  0  0  0  0
  -16.2518   -7.9500   14.2907 O   0  5  0  0  0  0  0  0  0  0  0  0
  -16.1327   -5.4357   15.8127 O   0  0  0  0  0  0  0  0  0  0  0  0
  -18.9673   -6.6734   17.0987 C   0  0  0  0  0  0  0  0  0  0  0  0
  -18.3118   -7.1697   15.9314 O   0  0  0  0  0  0  0  0  0  0  0  0
  -20.3590   -7.2730   17.1637 C   0  0  1  0  0  0  0  0  0  0  0  0
  -21.0410   -7.0328   15.9247 O   0  0  0  0  0  0  0  0  0  0  0  0
  -20.3546   -8.7827   17.3403 C   0  0  1  0  0  0  0  0  0  0  0  0
  -20.3820   -9.1630   18.7142 O   0  0  0  0  0  0  0  0  0  0  0  0
  -21.6090   -9.2197   16.6043 C   0  0  1  0  0  0  0  0  0  0  0  0
  -22.7304   -9.1985   17.4911 O   0  0  0  0  0  0  0  0  0  0  0  0
  -21.8221   -8.1711   15.5285 C   0  0  2  0  0  0  0  0  0  0  0  0
  -15.2087  -11.3398   17.3599 C   0  0  1  0  0  0  0  0  0  0  0  0
  -19.1789   -7.1695   11.0337 N   0  0  0  0  0  0  0  0  0  0  0  0
  -19.4031   -6.3503   12.0972 C   0  0  1  0  0  0  0  0  0  0  0  0
  -15.4762  -10.1572   16.4728 C   0  0  2  0  0  0  0  0  0  0  0  0
  -18.9050   -5.0932   12.0525 N   0  0  0  0  0  0  0  0  0  0  0  0
  -14.2197   -9.5057   16.2777 O   0  0  0  0  0  0  0  0  0  0  0  0
  -16.4477   -9.2979   17.2574 C   0  0  2  0  0  0  0  0  0  0  0  0
  -20.1092   -6.7446   13.1985 N   0  0  0  0  0  0  0  0  0  0  0  0
  -16.1776   -7.9127   17.0905 O   0  0  0  0  0  0  0  0  0  0  0  0
  -20.6274   -7.9952   13.2927 C   0  0  2  0  0  0  0  0  0  0  0  0
  -16.2389   -9.6973   18.7049 C   0  0  2  0  0  0  0  0  0  0  0  0
  -15.6539  -10.9981   18.6719 O   0  0  0  0  0  0  0  0  0  0  0  0
  -20.4162   -8.9216   12.1668 C   0  0  1  0  0  0  0  0  0  0  0  0
  -17.5392   -9.7445   19.4995 C   0  0  0  0  0  0  0  0  0  0  0  0
  -18.4027  -10.7273   18.9244 O   0  0  0  0  0  0  0  0  0  0  0  0
  -19.6461   -8.4386   11.0067 C   0  0  0  0  0  0  0  0  0  0  0  0
  -19.4210   -9.2474    9.9404 O   0  0  0  0  0  0  0  0  0  0  0  0
  -21.0185  -10.0710   12.4908 N   0  0  0  0  0  0  0  0  0  0  0  0
  -21.5763   -9.9036   13.7255 C   0  0  0  0  0  0  0  0  0  0  0  0
  -21.3465   -8.6646   14.2088 N   0  0  1  0  0  0  0  0  0  0  0  0
  -16.7924  -16.2051   18.4507 N   0  0  0  0  0  0  0  0  0  0  0  0
  -20.8193  -11.8767   18.1317 O   0  5  0  0  0  0  0  0  0  0  0  0
  -16.0932  -15.3241   19.2173 C   0  0  2  0  0  0  0  0  0  0  0  0
  -15.7181  -15.6881   20.4714 N   0  0  0  0  0  0  0  0  0  0  0  0
  -20.3290  -11.0111   20.8609 O   0  0  0  0  0  0  0  0  0  0  0  0
  -15.7566  -14.0846   18.7671 N   0  0  0  0  0  0  0  0  0  0  0  0
  -16.1076  -13.6623   17.5299 C   0  0  2  0  0  0  0  0  0  0  0  0
  -16.8610  -14.5698   16.6544 C   0  0  2  0  0  0  0  0  0  0  0  0
  -17.1923  -15.9047   17.1968 C   0  0  0  0  0  0  0  0  0  0  0  0
  -17.8826  -16.8109   16.4614 O   0  0  0  0  0  0  0  0  0  0  0  0
  -17.0642  -13.9087   15.4977 N   0  0  0  0  0  0  0  0  0  0  0  0
  -16.4903  -12.6752   15.6253 C   0  0  0  0  0  0  0  0  0  0  0  0
  -15.9174  -12.5347   16.8423 N   0  0  1  0  0  0  0  0  0  0  0  0
  1  3  1  6  0  0  0
  1  4  2  0  0  0  0
  1  6  1  0  0  0  0
  1 22  1  0  0  0  0
  2 28  1  0  0  0  0
  2 35  1  6  0  0  0
  2 38  2  0  0  0  0
  2 10  1  0  0  0  0
  5  6  1  0  0  0  0
  7  5  1  6  0  0  0
  7  8  1  0  0  0  0
  7  9  1  0  0  0  0
  9 10  1  1  0  0  0
  9 11  1  0  0  0  0
 11 12  1  1  0  0  0
 11 13  1  0  0  0  0
 13  8  1  1  0  0  0
 13 33  1  0  0  0  0
 14 46  1  0  0  0  0
 14 17  1  0  0  0  0
 14 25  1  1  0  0  0
 15 16  1  0  0  0  0
 15 29  1  0  0  0  0
 16 18  1  6  0  0  0
 16 21  1  0  0  0  0
 17 19  1  1  0  0  0
 17 20  1  0  0  0  0
 20 22  1  1  0  0  0
 20 24  1  0  0  0  0
 23 21  1  6  0  0  0
 23 26  1  0  0  0  0
 23 33  1  0  0  0  0
 24 25  1  6  0  0  0
 24 27  1  0  0  0  0
 26 29  1  1  0  0  0
 26 31  1  0  0  0  0
 27 28  1  0  0  0  0
 29 30  2  0  0  0  0
 31 32  1  0  0  0  0
 33 32  1  1  0  0  0
 34 36  1  0  0  0  0
 34 42  1  0  0  0  0
 36 37  1  1  0  0  0
 36 39  1  0  0  0  0
 40 39  1  6  0  0  0
 40 41  1  0  0  0  0
 40 46  1  0  0  0  0
 41 42  1  6  0  0  0
 41 44  1  0  0  0  0
 42 43  2  0  0  0  0
 44 45  1  0  0  0  0
 46 45  1  1  0  0  0
M  CHG  2   3  -1  35  -1
M  END
>  <CHROM.1>
-19.81444005,-165.84019817,-18.36122401,-10.02145670,16.29189608,-2.04625519
-0.76606150,2.15919443

>  <Name>
ligand

>  <RI>
-1

>  <Rbt.Current_Directory>
/home/itssahil/PROJECTS/Mol_Feturizer/Test_systems_manuscript/rnas/3mum

>  <Rbt.Executable>
rbdock ($Id: //depot/dev/client3/rdock/2013.1/src/exe/rbdock.cxx#4 $)

>  <Rbt.Library>
libRbt.so (2013.1, Build901 2013/11/27)

>  <Rbt.Parameter_File>
/export/apps/rDock/src/rDock_2013.1_src/data/scripts/dock_solv.prm

>  <Rbt.Receptor>
prm/blind_docking_80.prm

>  <SCORE>
81.7996

>  <SCORE.INTER>
79.9043

>  <SCORE.INTER.CONST>
1

>  <SCORE.INTER.POLAR>
0

>  <SCORE.INTER.ROT>
2

>  <SCORE.INTER.SOLV>
34.6918

>  <SCORE.INTER.VDW>
36.7723

>  <SCORE.INTER.norm>
1.73705

>  <SCORE.INTRA>
0.0586279

>  <SCORE.INTRA.DIHEDRAL>
0.0170253

>  <SCORE.INTRA.DIHEDRAL.0>
2.40424

>  <SCORE.INTRA.POLAR>
0

>  <SCORE.INTRA.POLAR.0>
0

>  <SCORE.INTRA.REPUL>
0

>  <SCORE.INTRA.REPUL.0>
0

>  <SCORE.INTRA.SOLV>
0.0693305

>  <SCORE.INTRA.SOLV.lig_0>
-134.169

>  <SCORE.INTRA.VDW>
0.01545

>  <SCORE.INTRA.VDW.0>
-2.18386

>  <SCORE.INTRA.norm>
0.00127452

>  <SCORE.RESTR>
1.83671

>  <SCORE.RESTR.CAVITY>
1.83671

>  <SCORE.RESTR.norm>
0.0399284

>  <SCORE.SYSTEM>
0

>  <SCORE.SYSTEM.CONST>
0

>  <SCORE.SYSTEM.DIHEDRAL>
0

>  <SCORE.SYSTEM.SOLV>
0

>  <SCORE.SYSTEM.norm>
0

>  <SCORE.heavy>
46

>  <SCORE.norm>
1.77825

>  <RMSD>
16.438

$$$$
ligand
 OpenBabel02271912143D
libRbt.so/2013.1/901 2013/11/27
 46 52  0  0  0  0  0  0  0  0999 V2000
  -14.4265   -9.0938   20.1567 P   0  0  1  0  0  0  0  0  0  0  0  0
  -18.9537  -12.3241   18.2213 P   0  0  2  0  0  0  0  0  0  0  0  0
  -14.9516   -7.4313   20.4761 O   0  5  0  0  0  0  0  0  0  0  0  0
  -12.7188   -9.3418   20.6058 O   0  0  0  0  0  0  0  0  0  0  0  0
  -15.2584  -11.5121   20.8517 C   0  0  0  0  0  0  0  0  0  0  0  0
  -15.3744  -10.0959   20.9912 O   0  0  0  0  0  0  0  0  0  0  0  0
  -16.5410  -12.1534   21.3460 C   0  0  1  0  0  0  0  0  0  0  0  0
  -16.8287  -11.6861   22.6715 O   0  0  0  0  0  0  0  0  0  0  0  0
  -17.7568  -11.7851   20.5114 C   0  0  1  0  0  0  0  0  0  0  0  0
  -17.9803  -12.7107   19.4500 O   0  0  0  0  0  0  0  0  0  0  0  0
  -18.8877  -11.7984   21.5248 C   0  0  1  0  0  0  0  0  0  0  0  0
  -19.4475  -13.1108   21.6178 O   0  0  0  0  0  0  0  0  0  0  0  0
  -18.2348  -11.4550   22.8508 C   0  0  2  0  0  0  0  0  0  0  0  0
  -16.8894   -8.0322   16.2473 C   0  0  1  0  0  0  0  0  0  0  0  0
  -20.8161   -7.9042   25.8377 N   0  0  0  0  0  0  0  0  0  0  0  0
  -20.9161   -9.2616   25.8407 C   0  0  1  0  0  0  0  0  0  0  0  0
  -16.1443   -7.9063   17.5458 C   0  0  2  0  0  0  0  0  0  0  0  0
  -21.7817   -9.8373   26.7067 N   0  0  0  0  0  0  0  0  0  0  0  0
  -14.9068   -7.2609   17.2408 O   0  0  0  0  0  0  0  0  0  0  0  0
  -15.9421   -9.3334   18.0149 C   0  0  2  0  0  0  0  0  0  0  0  0
  -20.1840  -10.0589   25.0070 N   0  0  0  0  0  0  0  0  0  0  0  0
  -14.6698   -9.5120   18.6221 O   0  0  0  0  0  0  0  0  0  0  0  0
  -19.3011   -9.5306   24.1221 C   0  0  2  0  0  0  0  0  0  0  0  0
  -16.0402  -10.1740   16.7571 C   0  0  2  0  0  0  0  0  0  0  0  0
  -16.7681   -9.3870   15.8158 O   0  0  0  0  0  0  0  0  0  0  0  0
  -19.1565   -8.0652   24.0758 C   0  0  1  0  0  0  0  0  0  0  0  0
  -16.7653  -11.4959   16.9834 C   0  0  0  0  0  0  0  0  0  0  0  0
  -18.1052  -11.2280   17.4019 O   0  0  0  0  0  0  0  0  0  0  0  0
  -19.9731   -7.2584   25.0001 C   0  0  0  0  0  0  0  0  0  0  0  0
  -19.8824   -5.9042   25.0013 O   0  0  0  0  0  0  0  0  0  0  0  0
  -18.2461   -7.7940   23.1342 N   0  0  0  0  0  0  0  0  0  0  0  0
  -17.8349   -8.9860   22.6112 C   0  0  0  0  0  0  0  0  0  0  0  0
  -18.4630  -10.0270   23.1973 N   0  0  1  0  0  0  0  0  0  0  0  0
  -21.8400   -9.1069   14.9415 N   0  0  0  0  0  0  0  0  0  0  0  0
  -20.4882  -11.6232   18.8000 O   0  5  0  0  0  0  0  0  0  0  0  0
  -20.6838   -9.6997   14.5359 C   0  0  2  0  0  0  0  0  0  0  0  0
  -20.7420  -10.7401   13.6639 N   0  0  0  0  0  0  0  0  0  0  0  0
  -19.2973  -13.6880   17.1399 O   0  0  0  0  0  0  0  0  0  0  0  0
  -19.4658   -9.2831   14.9776 N   0  0  0  0  0  0  0  0  0  0  0  0
  -19.3438   -8.2567   15.8516 C   0  0  2  0  0  0  0  0  0  0  0  0
  -20.5562   -7.5749   16.3237 C   0  0  2  0  0  0  0  0  0  0  0  0
  -21.8494   -8.0685   15.8041 C   0  0  0  0  0  0  0  0  0  0  0  0
  -23.0215   -7.5003   16.1808 O   0  0  0  0  0  0  0  0  0  0  0  0
  -20.1491   -6.6013   17.1619 N   0  0  0  0  0  0  0  0  0  0  0  0
  -18.7854   -6.6590   17.2242 C   0  0  0  0  0  0  0  0  0  0  0  0
  -18.3093   -7.6497   16.4362 N   0  0  1  0  0  0  0  0  0  0  0  0
  1  3  1  1  0  0  0
  1  4  2  0  0  0  0
  1  6  1  0  0  0  0
  1 22  1  0  0  0  0
  2 28  1  0  0  0  0
  2 35  1  1  0  0  0
  2 38  2  0  0  0  0
  2 10  1  0  0  0  0
  5  6  1  0  0  0  0
  7  5  1  6  0  0  0
  7  8  1  0  0  0  0
  7  9  1  0  0  0  0
  9 10  1  6  0  0  0
  9 11  1  0  0  0  0
 11 12  1  1  0  0  0
 11 13  1  0  0  0  0
 13  8  1  6  0  0  0
 13 33  1  0  0  0  0
 14 46  1  0  0  0  0
 14 17  1  0  0  0  0
 14 25  1  1  0  0  0
 15 16  1  0  0  0  0
 15 29  1  0  0  0  0
 16 18  1  6  0  0  0
 16 21  1  0  0  0  0
 17 19  1  6  0  0  0
 17 20  1  0  0  0  0
 20 22  1  6  0  0  0
 20 24  1  0  0  0  0
 23 21  1  6  0  0  0
 23 26  1  0  0  0  0
 23 33  1  0  0  0  0
 24 25  1  6  0  0  0
 24 27  1  0  0  0  0
 26 29  1  1  0  0  0
 26 31  1  0  0  0  0
 27 28  1  0  0  0  0
 29 30  2  0  0  0  0
 31 32  1  0  0  0  0
 33 32  1  1  0  0  0
 34 36  1  0  0  0  0
 34 42  1  0  0  0  0
 36 37  1  1  0  0  0
 36 39  1  0  0  0  0
 40 39  1  6  0  0  0
 40 41  1  0  0  0  0
 40 46  1  0  0  0  0
 41 42  1  6  0  0  0
 41 44  1  0  0  0  0
 42 43  2  0  0  0  0
 44 45  1  0  0  0  0
 46 45  1  1  0  0  0
M  CHG  2   3  -1  35  -1
M  END
>  <CHROM.1>
-137.74999360,-141.69276825,-18.21340684,-9.66717777,19.63956301,-1.58606874
0.14420255,-1.57239751

>  <Name>
ligand

>  <RI>
0

>  <Rbt.Current_Directory>
/home/itssahil/PROJECTS/Mol_Feturizer/Test_systems_manuscript/rnas/3mum

>  <Rbt.Executable>
rbdock ($Id: //depot/dev/client3/rdock/2013.1/src/exe/rbdock.cxx#4 $)

>  <Rbt.Library>
libRbt.so (2013.1, Build901 2013/11/27)

>  <Rbt.Parameter_File>
/export/apps/rDock/src/rDock_2013.1_src/data/scripts/dock_solv.prm

>  <Rbt.Receptor>
prm/blind_docking_60.prm

>  <SCORE>
41.9011

>  <SCORE.INTER>
41.2566

>  <SCORE.INTER.CONST>
1

>  <SCORE.INTER.POLAR>
0

>  <SCORE.INTER.ROT>
2

>  <SCORE.INTER.SOLV>
50.2036

>  <SCORE.INTER.VDW>
5.83654

>  <SCORE.INTER.norm>
0.896883

>  <SCORE.INTRA>
-0.391946

>  <SCORE.INTRA.DIHEDRAL>
0.0239276

>  <SCORE.INTRA.DIHEDRAL.0>
2.40424

>  <SCORE.INTRA.POLAR>
0

>  <SCORE.INTRA.POLAR.0>
0

>  <SCORE.INTRA.REPUL>
0

>  <SCORE.INTRA.REPUL.0>
0

>  <SCORE.INTRA.SOLV>
0.0777396

>  <SCORE.INTRA.SOLV.lig_0>
-134.169

>  <SCORE.INTRA.VDW>
-0.442779

>  <SCORE.INTRA.VDW.0>
-2.18386

>  <SCORE.INTRA.norm>
-0.00852056

>  <SCORE.RESTR>
1.03646

>  <SCORE.RESTR.CAVITY>
1.03646

>  <SCORE.RESTR.norm>
0.0225318

>  <SCORE.SYSTEM>
0

>  <SCORE.SYSTEM.CONST>
0

>  <SCORE.SYSTEM.DIHEDRAL>
0

>  <SCORE.SYSTEM.SOLV>
0

>  <SCORE.SYSTEM.norm>
0

>  <SCORE.heavy>
46

>  <SCORE.norm>
0.910894

>  <RMSD>
16.466

$$$$
ligand
 OpenBabel02271912143D
libRbt.so/2013.1/901 2013/11/27
 46 52  0  0  0  0  0  0  0  0999 V2000
  -18.7054  -10.5611   22.3974 P   0  0  1  0  0  0  0  0  0  0  0  0
  -15.5054   -8.4561   17.9246 P   0  0  2  0  0  0  0  0  0  0  0  0
  -19.3939  -12.1376   21.9702 O   0  5  0  0  0  0  0  0  0  0  0  0
  -19.0864  -10.1113   24.0801 O   0  0  0  0  0  0  0  0  0  0  0  0
  -16.2903   -9.4709   22.3504 C   0  0  0  0  0  0  0  0  0  0  0  0
  -17.1086  -10.6292   22.1856 O   0  0  0  0  0  0  0  0  0  0  0  0
  -14.9728   -9.7038   21.6359 C   0  0  1  0  0  0  0  0  0  0  0  0
  -14.3950  -10.9362   22.0891 O   0  0  0  0  0  0  0  0  0  0  0  0
  -15.1243   -9.8541   20.1309 C   0  0  1  0  0  0  0  0  0  0  0  0
  -15.0024   -8.6065   19.4515 O   0  0  0  0  0  0  0  0  0  0  0  0
  -14.0044  -10.8123   19.7655 C   0  0  1  0  0  0  0  0  0  0  0  0
  -12.8050  -10.0835   19.4924 O   0  0  0  0  0  0  0  0  0  0  0  0
  -13.7859  -11.6574   21.0067 C   0  0  2  0  0  0  0  0  0  0  0  0
  -20.4910   -9.7590   18.0794 C   0  0  1  0  0  0  0  0  0  0  0  0
  -16.8957  -14.8558   18.1271 N   0  0  0  0  0  0  0  0  0  0  0  0
  -16.5063  -13.5777   17.8679 C   0  0  1  0  0  0  0  0  0  0  0  0
  -20.1855  -10.3991   19.4039 C   0  0  2  0  0  0  0  0  0  0  0  0
  -16.9471  -12.9930   16.7302 N   0  0  0  0  0  0  0  0  0  0  0  0
  -21.3764  -10.2976   20.1863 O   0  0  0  0  0  0  0  0  0  0  0  0
  -19.0530   -9.5725   19.9801 C   0  0  2  0  0  0  0  0  0  0  0  0
  -15.6963  -12.8667   18.7076 N   0  0  0  0  0  0  0  0  0  0  0  0
  -19.1855   -9.4063   21.3851 O   0  0  0  0  0  0  0  0  0  0  0  0
  -15.2261  -13.4085   19.8595 C   0  0  2  0  0  0  0  0  0  0  0  0
  -19.1595   -8.2291   19.2855 C   0  0  2  0  0  0  0  0  0  0  0  0
  -19.8833   -8.4679   18.0795 O   0  0  0  0  0  0  0  0  0  0  0  0
  -15.6203  -14.7891   20.1895 C   0  0  1  0  0  0  0  0  0  0  0  0
  -17.7997   -7.6259   18.9515 C   0  0  0  0  0  0  0  0  0  0  0  0
  -17.1099   -8.4973   18.0531 O   0  0  0  0  0  0  0  0  0  0  0  0
  -16.4956  -15.5050   19.2442 C   0  0  0  0  0  0  0  0  0  0  0  0
  -16.8917  -16.7784   19.4966 O   0  0  0  0  0  0  0  0  0  0  0  0
  -15.0437  -15.0892   21.3585 N   0  0  0  0  0  0  0  0  0  0  0  0
  -14.3347  -13.9922   21.7553 C   0  0  0  0  0  0  0  0  0  0  0  0
  -14.4411  -12.9847   20.8636 N   0  0  1  0  0  0  0  0  0  0  0  0
  -19.3493   -9.9312   12.9770 N   0  0  0  0  0  0  0  0  0  0  0  0
  -14.9238   -9.8029   16.9103 O   0  5  0  0  0  0  0  0  0  0  0  0
  -19.8689   -8.9156   13.7196 C   0  0  2  0  0  0  0  0  0  0  0  0
  -20.1560   -7.7324   13.1167 N   0  0  0  0  0  0  0  0  0  0  0  0
  -15.0435   -6.9131   17.1805 O   0  0  0  0  0  0  0  0  0  0  0  0
  -20.1106   -9.0469   15.0525 N   0  0  0  0  0  0  0  0  0  0  0  0
  -19.8392  -10.1984   15.7103 C   0  0  2  0  0  0  0  0  0  0  0  0
  -19.2796  -11.3316   14.9618 C   0  0  2  0  0  0  0  0  0  0  0  0
  -19.0445  -11.1307   13.5159 C   0  0  0  0  0  0  0  0  0  0  0  0
  -18.5334  -12.1203   12.7426 O   0  0  0  0  0  0  0  0  0  0  0  0
  -19.1204  -12.3363   15.8459 N   0  0  0  0  0  0  0  0  0  0  0  0
  -19.5406  -11.8801   17.0634 C   0  0  0  0  0  0  0  0  0  0  0  0
  -19.9718  -10.6013   16.9754 N   0  0  1  0  0  0  0  0  0  0  0  0
  1  3  1  6  0  0  0
  1  4  2  0  0  0  0
  1  6  1  0  0  0  0
  1 22  1  0  0  0  0
  2 28  1  0  0  0  0
  2 35  1  6  0  0  0
  2 38  2  0  0  0  0
  2 10  1  0  0  0  0
  5  6  1  0  0  0  0
  7  5  1  1  0  0  0
  7  8  1  0  0  0  0
  7  9  1  0  0  0  0
  9 10  1  6  0  0  0
  9 11  1  0  0  0  0
 11 12  1  1  0  0  0
 11 13  1  0  0  0  0
 13  8  1  1  0  0  0
 13 33  1  0  0  0  0
 14 46  1  0  0  0  0
 14 17  1  0  0  0  0
 14 25  1  1  0  0  0
 15 16  1  0  0  0  0
 15 29  1  0  0  0  0
 16 18  1  1  0  0  0
 16 21  1  0  0  0  0
 17 19  1  1  0  0  0
 17 20  1  0  0  0  0
 20 22  1  1  0  0  0
 20 24  1  0  0  0  0
 23 21  1  1  0  0  0
 23 26  1  0  0  0  0
 23 33  1  0  0  0  0
 24 25  1  6  0  0  0
 24 27  1  0  0  0  0
 26 29  1  6  0  0  0
 26 31  1  0  0  0  0
 27 28  1  0  0  0  0
 29 30  2  0  0  0  0
 31 32  1  0  0  0  0
 33 32  1  6  0  0  0
 34 36  1  0  0  0  0
 34 42  1  0  0  0  0
 36 37  1  1  0  0  0
 36 39  1  0  0  0  0
 40 39  1  6  0  0  0
 40 41  1  0  0  0  0
 40 46  1  0  0  0  0
 41 42  1  6  0  0  0
 41 44  1  0  0  0  0
 42 43  2  0  0  0  0
 44 45  1  0  0  0  0
 46 45  1  1  0  0  0
M  CHG  2   3  -1  35  -1
M  END
>  <CHROM.1>
111.21328103,-165.87943584,-17.35255922,-10.82637113,18.78308618,0.50297938
-1.00786385,0.92705147

>  <Name>
ligand

>  <RI>
-1

>  <Rbt.Current_Directory>
/home/itssahil/PROJECTS/Mol_Feturizer/Test_systems_manuscript/rnas/3mum

>  <Rbt.Executable>
rbdock ($Id: //depot/dev/client3/rdock/2013.1/src/exe/rbdock.cxx#4 $)

>  <Rbt.Library>
libRbt.so (2013.1, Build901 2013/11/27)

>  <Rbt.Parameter_File>
/export/apps/rDock/src/rDock_2013.1_src/data/scripts/dock_solv.prm

>  <Rbt.Receptor>
prm/blind_docking_40.prm

>  <SCORE>
18.045

>  <SCORE.INTER>
13.3923

>  <SCORE.INTER.CONST>
1

>  <SCORE.INTER.POLAR>
0

>  <SCORE.INTER.ROT>
2

>  <SCORE.INTER.SOLV>
29.857

>  <SCORE.INTER.VDW>
-5.95746

>  <SCORE.INTER.norm>
0.291137

>  <SCORE.INTRA>
2.8329

>  <SCORE.INTRA.DIHEDRAL>
0.0154791

>  <SCORE.INTRA.DIHEDRAL.0>
2.40424

>  <SCORE.INTRA.POLAR>
0

>  <SCORE.INTRA.POLAR.0>
0

>  <SCORE.INTRA.REPUL>
0

>  <SCORE.INTRA.REPUL.0>
0

>  <SCORE.INTRA.SOLV>
4.26741

>  <SCORE.INTRA.SOLV.lig_0>
-134.169

>  <SCORE.INTRA.VDW>
0.691457

>  <SCORE.INTRA.VDW.0>
-2.18386

>  <SCORE.INTRA.norm>
0.0615848

>  <SCORE.RESTR>
1.8198

>  <SCORE.RESTR.CAVITY>
1.8198

>  <SCORE.RESTR.norm>
0.0395608

>  <SCORE.SYSTEM>
0

>  <SCORE.SYSTEM.CONST>
0

>  <SCORE.SYSTEM.DIHEDRAL>
0

>  <SCORE.SYSTEM.SOLV>
0

>  <SCORE.SYSTEM.norm>
0

>  <SCORE.heavy>
46

>  <SCORE.norm>
0.392283

>  <RMSD>
16.524

$$$$
ligand
 OpenBabel02271912143D
libRbt.so/2013.1/901 2013/11/27
 46 52  0  0  0  0  0  0  0  0999 V2000
  -14.7683   -9.3743   17.8803 P   0  0  1  0  0  0  0  0  0  0  0  0
  -20.6058   -9.8971   17.3087 P   0  0  2  0  0  0  0  0  0  0  0  0
  -14.2196  -10.2003   19.3495 O   0  5  0  0  0  0  0  0  0  0  0  0
  -13.3999   -8.7150   16.9465 O   0  0  0  0  0  0  0  0  0  0  0  0
  -16.2584  -10.0197   15.7859 C   0  0  0  0  0  0  0  0  0  0  0  0
  -15.5994  -10.4267   16.9853 O   0  0  0  0  0  0  0  0  0  0  0  0
  -17.3184  -11.0491   15.4433 C   0  0  1  0  0  0  0  0  0  0  0  0
  -16.7231  -12.3538   15.4072 O   0  0  0  0  0  0  0  0  0  0  0  0
  -18.4278  -11.1360   16.4787 C   0  0  1  0  0  0  0  0  0  0  0  0
  -19.5138  -10.2627   16.1770 O   0  0  0  0  0  0  0  0  0  0  0  0
  -18.8398  -12.5965   16.4210 C   0  0  1  0  0  0  0  0  0  0  0  0
  -19.8560  -12.7807   15.4321 O   0  0  0  0  0  0  0  0  0  0  0  0
  -17.5938  -13.3419   15.9800 C   0  0  2  0  0  0  0  0  0  0  0  0
  -17.8451   -7.8198   21.1351 C   0  0  1  0  0  0  0  0  0  0  0  0
  -16.1631  -13.0304   21.0838 N   0  0  0  0  0  0  0  0  0  0  0  0
  -16.8377  -12.1236   20.3256 C   0  0  1  0  0  0  0  0  0  0  0  0
  -16.6468   -8.4552   20.4889 C   0  0  2  0  0  0  0  0  0  0  0  0
  -17.2191  -10.9623   20.9057 N   0  0  0  0  0  0  0  0  0  0  0  0
  -15.5351   -7.6043   20.7738 O   0  0  0  0  0  0  0  0  0  0  0  0
  -16.9766   -8.4857   19.0097 C   0  0  2  0  0  0  0  0  0  0  0  0
  -17.1396  -12.3378   19.0104 N   0  0  0  0  0  0  0  0  0  0  0  0
  -15.8334   -8.2143   18.2104 O   0  0  0  0  0  0  0  0  0  0  0  0
  -16.7812  -13.4866   18.3832 C   0  0  2  0  0  0  0  0  0  0  0  0
  -18.0138   -7.3964   18.8199 C   0  0  2  0  0  0  0  0  0  0  0  0
  -18.5996   -7.1852   20.1035 O   0  0  0  0  0  0  0  0  0  0  0  0
  -16.0457  -14.5010   19.1581 C   0  0  1  0  0  0  0  0  0  0  0  0
  -19.1005   -7.7810   17.8221 C   0  0  0  0  0  0  0  0  0  0  0  0
  -19.7976   -8.9290   18.3100 O   0  0  0  0  0  0  0  0  0  0  0  0
  -15.7497  -14.2126   20.5728 C   0  0  0  0  0  0  0  0  0  0  0  0
  -15.0742  -15.1096   21.3352 O   0  0  0  0  0  0  0  0  0  0  0  0
  -15.8042  -15.5232   18.3300 N   0  0  0  0  0  0  0  0  0  0  0  0
  -16.3381  -15.1979   17.1164 C   0  0  0  0  0  0  0  0  0  0  0  0
  -16.9223  -13.9815   17.1425 N   0  0  1  0  0  0  0  0  0  0  0  0
  -19.4130   -9.6002   25.7978 N   0  0  0  0  0  0  0  0  0  0  0  0
  -21.1696  -11.3554   18.1668 O   0  5  0  0  0  0  0  0  0  0  0  0
  -18.5955   -8.5549   25.4944 C   0  0  2  0  0  0  0  0  0  0  0  0
  -18.0719   -7.8082   26.5014 N   0  0  0  0  0  0  0  0  0  0  0  0
  -22.0034   -9.0059   16.6759 O   0  0  0  0  0  0  0  0  0  0  0  0
  -18.2847   -8.2314   24.2094 N   0  0  0  0  0  0  0  0  0  0  0  0
  -18.7806   -8.9335   23.1638 C   0  0  2  0  0  0  0  0  0  0  0  0
  -19.6666  -10.0749   23.4280 C   0  0  2  0  0  0  0  0  0  0  0  0
  -19.9630  -10.3810   24.8438 C   0  0  0  0  0  0  0  0  0  0  0  0
  -20.7683  -11.4171   25.1854 O   0  0  0  0  0  0  0  0  0  0  0  0
  -19.9987  -10.5907   22.2280 N   0  0  0  0  0  0  0  0  0  0  0  0
  -19.3780   -9.8362   21.2727 C   0  0  0  0  0  0  0  0  0  0  0  0
  -18.6487   -8.8480   21.8387 N   0  0  1  0  0  0  0  0  0  0  0  0
  1  3  1  1  0  0  0
  1  4  2  0  0  0  0
  1  6  1  0  0  0  0
  1 22  1  0  0  0  0
  2 28  1  0  0  0  0
  2 35  1  1  0  0  0
  2 38  2  0  0  0  0
  2 10  1  0  0  0  0
  5  6  1  0  0  0  0
  7  5  1  1  0  0  0
  7  8  1  0  0  0  0
  7  9  1  0  0  0  0
  9 10  1  6  0  0  0
  9 11  1  0  0  0  0
 11 12  1  6  0  0  0
 11 13  1  0  0  0  0
 13  8  1  1  0  0  0
 13 33  1  0  0  0  0
 14 46  1  0  0  0  0
 14 17  1  0  0  0  0
 14 25  1  6  0  0  0
 15 16  1  0  0  0  0
 15 29  1  0  0  0  0
 16 18  1  6  0  0  0
 16 21  1  0  0  0  0
 17 19  1  6  0  0  0
 17 20  1  0  0  0  0
 20 22  1  6  0  0  0
 20 24  1  0  0  0  0
 23 21  1  6  0  0  0
 23 26  1  0  0  0  0
 23 33  1  0  0  0  0
 24 25  1  1  0  0  0
 24 27  1  0  0  0  0
 26 29  1  1  0  0  0
 26 31  1  0  0  0  0
 27 28  1  0  0  0  0
 29 30  2  0  0  0  0
 31 32  1  0  0  0  0
 33 32  1  1  0  0  0
 34 36  1  0  0  0  0
 34 42  1  0  0  0  0
 36 37  1  6  0  0  0
 36 39  1  0  0  0  0
 40 39  1  1  0  0  0
 40 41  1  0  0  0  0
 40 46  1  0  0  0  0
 41 42  1  1  0  0  0
 41 44  1  0  0  0  0
 42 43  2  0  0  0  0
 44 45  1  0  0  0  0
 46 45  1  6  0  0  0
M  CHG  2   3  -1  35  -1
M  END
>  <CHROM.1>
78.19072358,111.53909867,-17.73991272,-10.54233156,19.43846787,1.12425673
1.03657994,-1.55148084

>  <Name>
ligand

>  <RI>
0

>  <Rbt.Current_Directory>
/home/itssahil/PROJECTS/Mol_Feturizer/Test_systems_manuscript/rnas/3mum

>  <Rbt.Executable>
rbdock ($Id: //depot/dev/client3/rdock/2013.1/src/exe/rbdock.cxx#4 $)

>  <Rbt.Library>
libRbt.so (2013.1, Build901 2013/11/27)

>  <Rbt.Parameter_File>
/export/apps/rDock/src/rDock_2013.1_src/data/scripts/dock_solv.prm

>  <Rbt.Receptor>
prm/blind_docking_60.prm

>  <SCORE>
46.8123

>  <SCORE.INTER>
39.3644

>  <SCORE.INTER.CONST>
1

>  <SCORE.INTER.POLAR>
0

>  <SCORE.INTER.ROT>
2

>  <SCORE.INTER.SOLV>
38.8595

>  <SCORE.INTER.VDW>
8.35645

>  <SCORE.INTER.norm>
0.855748

>  <SCORE.INTRA>
5.64264

>  <SCORE.INTRA.DIHEDRAL>
0.0110873

>  <SCORE.INTRA.DIHEDRAL.0>
2.40424

>  <SCORE.INTRA.POLAR>
0

>  <SCORE.INTRA.POLAR.0>
0

>  <SCORE.INTRA.REPUL>
0

>  <SCORE.INTRA.REPUL.0>
0

>  <SCORE.INTRA.SOLV>
11.778

>  <SCORE.INTRA.SOLV.lig_0>
-134.169

>  <SCORE.INTRA.VDW>
-0.251892

>  <SCORE.INTRA.VDW.0>
-2.18386

>  <SCORE.INTRA.norm>
0.122666

>  <SCORE.RESTR>
1.80528

>  <SCORE.RESTR.CAVITY>
1.80528

>  <SCORE.RESTR.norm>
0.0392451

>  <SCORE.SYSTEM>
0

>  <SCORE.SYSTEM.CONST>
0

>  <SCORE.SYSTEM.DIHEDRAL>
0

>  <SCORE.SYSTEM.SOLV>
0

>  <SCORE.SYSTEM.norm>
0

>  <SCORE.heavy>
46

>  <SCORE.norm>
1.01766

>  <RMSD>
16.531

$$$$
ligand
 OpenBabel02271912143D
libRbt.so/2013.1/901 2013/11/27
 46 52  0  0  0  0  0  0  0  0999 V2000
  -14.7584   -9.4287   17.9695 P   0  0  1  0  0  0  0  0  0  0  0  0
  -20.5935   -9.9430   17.3669 P   0  0  2  0  0  0  0  0  0  0  0  0
  -14.2207  -10.2422   19.4496 O   0  5  0  0  0  0  0  0  0  0  0  0
  -13.3827   -8.7813   17.0380 O   0  0  0  0  0  0  0  0  0  0  0  0
  -16.2372  -10.0900   15.8721 C   0  0  0  0  0  0  0  0  0  0  0  0
  -15.5865  -10.4874   17.0792 O   0  0  0  0  0  0  0  0  0  0  0  0
  -17.2975  -11.1201   15.5325 C   0  0  1  0  0  0  0  0  0  0  0  0
  -16.7051  -12.4265   15.5121 O   0  0  0  0  0  0  0  0  0  0  0  0
  -18.4135  -11.1948   16.5618 C   0  0  1  0  0  0  0  0  0  0  0  0
  -19.4955  -10.3218   16.2453 O   0  0  0  0  0  0  0  0  0  0  0  0
  -18.8286  -12.6547   16.5151 C   0  0  1  0  0  0  0  0  0  0  0  0
  -19.8391  -12.8457   15.5218 O   0  0  0  0  0  0  0  0  0  0  0  0
  -17.5817  -13.4071   16.0888 C   0  0  2  0  0  0  0  0  0  0  0  0
  -17.8513   -7.8368   21.1907 C   0  0  1  0  0  0  0  0  0  0  0  0
  -16.1832  -13.0524   21.1987 N   0  0  0  0  0  0  0  0  0  0  0  0
  -16.8513  -12.1512   20.4280 C   0  0  1  0  0  0  0  0  0  0  0  0
  -16.6506   -8.4810   20.5578 C   0  0  2  0  0  0  0  0  0  0  0  0
  -17.2342  -10.9840   20.9952 N   0  0  0  0  0  0  0  0  0  0  0  0
  -15.5386   -7.6301   20.8416 O   0  0  0  0  0  0  0  0  0  0  0  0
  -16.9714   -8.5244   19.0770 C   0  0  2  0  0  0  0  0  0  0  0  0
  -17.1451  -12.3767   19.1129 N   0  0  0  0  0  0  0  0  0  0  0  0
  -15.8226   -8.2632   18.2823 O   0  0  0  0  0  0  0  0  0  0  0  0
  -16.7848  -13.5317   18.4984 C   0  0  2  0  0  0  0  0  0  0  0  0
  -18.0048   -7.4345   18.8707 C   0  0  2  0  0  0  0  0  0  0  0  0
  -18.5979   -7.2101   20.1486 O   0  0  0  0  0  0  0  0  0  0  0  0
  -16.0562  -14.5404   19.2871 C   0  0  1  0  0  0  0  0  0  0  0  0
  -19.0863   -7.8258   17.8698 C   0  0  0  0  0  0  0  0  0  0  0  0
  -19.7892   -8.9676   18.3641 O   0  0  0  0  0  0  0  0  0  0  0  0
  -15.7687  -14.2398   20.7010 C   0  0  0  0  0  0  0  0  0  0  0  0
  -15.0998  -15.1312   21.4757 O   0  0  0  0  0  0  0  0  0  0  0  0
  -15.8113  -15.5705   18.4697 N   0  0  0  0  0  0  0  0  0  0  0  0
  -16.3368  -15.2551   17.2499 C   0  0  0  0  0  0  0  0  0  0  0  0
  -16.9189  -14.0374   17.2612 N   0  0  1  0  0  0  0  0  0  0  0  0
  -19.4515   -9.5704   25.8600 N   0  0  0  0  0  0  0  0  0  0  0  0
  -21.1660  -11.3919   18.2350 O   0  5  0  0  0  0  0  0  0  0  0  0
  -18.6296   -8.5300   25.5520 C   0  0  2  0  0  0  0  0  0  0  0  0
  -18.1101   -7.7753   26.5552 N   0  0  0  0  0  0  0  0  0  0  0  0
  -21.9850   -9.0545   16.7173 O   0  0  0  0  0  0  0  0  0  0  0  0
  -18.3103   -8.2191   24.2660 N   0  0  0  0  0  0  0  0  0  0  0  0
  -18.8017   -8.9295   23.2239 C   0  0  2  0  0  0  0  0  0  0  0  0
  -19.6921  -10.0662   23.4932 C   0  0  2  0  0  0  0  0  0  0  0  0
  -19.9977  -10.3586   24.9100 C   0  0  0  0  0  0  0  0  0  0  0  0
  -20.8076  -11.3895   25.2563 O   0  0  0  0  0  0  0  0  0  0  0  0
  -20.0184  -10.5922   22.2960 N   0  0  0  0  0  0  0  0  0  0  0  0
  -19.3901   -9.8481   21.3376 C   0  0  0  0  0  0  0  0  0  0  0  0
  -18.6617   -8.8565   21.8989 N   0  0  1  0  0  0  0  0  0  0  0  0
  1  3  1  1  0  0  0
  1  4  2  0  0  0  0
  1  6  1  0  0  0  0
  1 22  1  0  0  0  0
  2 28  1  0  0  0  0
  2 35  1  1  0  0  0
  2 38  2  0  0  0  0
  2 10  1  0  0  0  0
  5  6  1  0  0  0  0
  7  5  1  1  0  0  0
  7  8  1  0  0  0  0
  7  9  1  0  0  0  0
  9 10  1  6  0  0  0
  9 11  1  0  0  0  0
 11 12  1  6  0  0  0
 11 13  1  0  0  0  0
 13  8  1  1  0  0  0
 13 33  1  0  0  0  0
 14 46  1  0  0  0  0
 14 17  1  0  0  0  0
 14 25  1  6  0  0  0
 15 16  1  0  0  0  0
 15 29  1  0  0  0  0
 16 18  1  6  0  0  0
 16 21  1  0  0  0  0
 17 19  1  6  0  0  0
 17 20  1  0  0  0  0
 20 22  1  6  0  0  0
 20 24  1  0  0  0  0
 23 21  1  6  0  0  0
 23 26  1  0  0  0  0
 23 33  1  0  0  0  0
 24 25  1  1  0  0  0
 24 27  1  0  0  0  0
 26 29  1  1  0  0  0
 26 31  1  0  0  0  0
 27 28  1  0  0  0  0
 29 30  2  0  0  0  0
 31 32  1  0  0  0  0
 33 32  1  1  0  0  0
 34 36  1  0  0  0  0
 34 42  1  0  0  0  0
 36 37  1  6  0  0  0
 36 39  1  0  0  0  0
 40 39  1  1  0  0  0
 40 41  1  0  0  0  0
 40 46  1  0  0  0  0
 41 42  1  1  0  0  0
 41 44  1  0  0  0  0
 42 43  2  0  0  0  0
 44 45  1  0  0  0  0
 46 45  1  6  0  0  0
M  CHG  2   3  -1  35  -1
M  END
>  <CHROM.1>
78.23004616,111.52681436,-17.74240516,-10.57531773,19.52017428,1.11188921
1.03923671,-1.54994437

>  <Name>
ligand

>  <RI>
-1

>  <Rbt.Current_Directory>
/home/itssahil/PROJECTS/Mol_Feturizer/Test_systems_manuscript/rnas/3mum

>  <Rbt.Executable>
rbdock ($Id: //depot/dev/client3/rdock/2013.1/src/exe/rbdock.cxx#4 $)

>  <Rbt.Library>
libRbt.so (2013.1, Build901 2013/11/27)

>  <Rbt.Parameter_File>
/export/apps/rDock/src/rDock_2013.1_src/data/scripts/dock_solv.prm

>  <Rbt.Receptor>
prm/blind_docking_80.prm

>  <SCORE>
45.3058

>  <SCORE.INTER>
38.8597

>  <SCORE.INTER.CONST>
1

>  <SCORE.INTER.POLAR>
0

>  <SCORE.INTER.ROT>
2

>  <SCORE.INTER.SOLV>
38.7546

>  <SCORE.INTER.VDW>
8.05495

>  <SCORE.INTER.norm>
0.844776

>  <SCORE.INTRA>
5.64326

>  <SCORE.INTRA.DIHEDRAL>
0.0111075

>  <SCORE.INTRA.DIHEDRAL.0>
2.40424

>  <SCORE.INTRA.POLAR>
0

>  <SCORE.INTRA.POLAR.0>
0

>  <SCORE.INTRA.REPUL>
0

>  <SCORE.INTRA.REPUL.0>
0

>  <SCORE.INTRA.SOLV>
11.7657

>  <SCORE.INTRA.SOLV.lig_0>
-134.169

>  <SCORE.INTRA.VDW>
-0.245143

>  <SCORE.INTRA.VDW.0>
-2.18386

>  <SCORE.INTRA.norm>
0.12268

>  <SCORE.RESTR>
0.802873

>  <SCORE.RESTR.CAVITY>
0.802873

>  <SCORE.RESTR.norm>
0.0174538

>  <SCORE.SYSTEM>
0

>  <SCORE.SYSTEM.CONST>
0

>  <SCORE.SYSTEM.DIHEDRAL>
0

>  <SCORE.SYSTEM.SOLV>
0

>  <SCORE.SYSTEM.norm>
0

>  <SCORE.heavy>
46

>  <SCORE.norm>
0.984909

>  <RMSD>
16.579

$$$$
ligand
 OpenBabel02271912143D
libRbt.so/2013.1/901 2013/11/27
 46 52  0  0  0  0  0  0  0  0999 V2000
  -15.0249   -9.7705   16.6117 P   0  0  1  0  0  0  0  0  0  0  0  0
  -20.3544  -10.8443   18.8744 P   0  0  2  0  0  0  0  0  0  0  0  0
  -15.1119   -9.7033   14.8426 O   0  5  0  0  0  0  0  0  0  0  0  0
  -13.3857   -9.3947   17.2042 O   0  0  0  0  0  0  0  0  0  0  0  0
  -16.3232   -8.6268   18.6192 C   0  0  0  0  0  0  0  0  0  0  0  0
  -16.0904   -8.7209   17.2137 O   0  0  0  0  0  0  0  0  0  0  0  0
  -17.6627   -7.9516   18.8435 C   0  0  1  0  0  0  0  0  0  0  0  0
  -17.6966   -6.7083   18.1285 O   0  0  0  0  0  0  0  0  0  0  0  0
  -18.8376   -8.7579   18.3143 C   0  0  1  0  0  0  0  0  0  0  0  0
  -19.3780   -9.6319   19.3029 O   0  0  0  0  0  0  0  0  0  0  0  0
  -19.8308   -7.6875   17.8976 C   0  0  1  0  0  0  0  0  0  0  0  0
  -20.6691   -7.3395   19.0025 O   0  0  0  0  0  0  0  0  0  0  0  0
  -18.9840   -6.4822   17.5334 C   0  0  2  0  0  0  0  0  0  0  0  0
  -17.5576  -13.6396   15.5665 C   0  0  1  0  0  0  0  0  0  0  0  0
  -20.4017   -8.2138   12.7185 N   0  0  0  0  0  0  0  0  0  0  0  0
  -20.8216   -8.6401   13.9409 C   0  0  1  0  0  0  0  0  0  0  0  0
  -16.6752  -12.4305   15.4373 C   0  0  2  0  0  0  0  0  0  0  0  0
  -21.7260   -9.6452   13.9919 N   0  0  0  0  0  0  0  0  0  0  0  0
  -15.3589  -12.9173   15.1700 O   0  0  0  0  0  0  0  0  0  0  0  0
  -16.7650  -11.7413   16.7844 C   0  0  2  0  0  0  0  0  0  0  0  0
  -20.3661   -8.0986   15.1096 N   0  0  0  0  0  0  0  0  0  0  0  0
  -15.5144  -11.1942   17.1795 O   0  0  0  0  0  0  0  0  0  0  0  0
  -19.4607   -7.0877   15.1121 C   0  0  2  0  0  0  0  0  0  0  0  0
  -17.1844  -12.8308   17.7516 C   0  0  2  0  0  0  0  0  0  0  0  0
  -17.8007  -13.8434   16.9578 O   0  0  0  0  0  0  0  0  0  0  0  0
  -18.9707   -6.5906   13.8148 C   0  0  1  0  0  0  0  0  0  0  0  0
  -18.1712  -12.3396   18.8050 C   0  0  0  0  0  0  0  0  0  0  0  0
  -19.3616  -11.8886   18.1557 O   0  0  0  0  0  0  0  0  0  0  0  0
  -19.4995   -7.2145   12.5887 C   0  0  0  0  0  0  0  0  0  0  0  0
  -19.0835   -6.7981   11.3657 O   0  0  0  0  0  0  0  0  0  0  0  0
  -18.0958   -5.6137   14.0780 N   0  0  0  0  0  0  0  0  0  0  0  0
  -18.0230   -5.4884   15.4354 C   0  0  0  0  0  0  0  0  0  0  0  0
  -18.8359   -6.3675   16.0583 N   0  0  1  0  0  0  0  0  0  0  0  0
  -19.9118  -10.8930   11.7872 N   0  0  0  0  0  0  0  0  0  0  0  0
  -21.6156  -10.2963   17.7386 O   0  5  0  0  0  0  0  0  0  0  0  0
  -18.6386  -10.8087   12.2613 C   0  0  2  0  0  0  0  0  0  0  0  0
  -17.7867   -9.9009   11.7170 N   0  0  0  0  0  0  0  0  0  0  0  0
  -21.1154  -11.6566   20.2561 O   0  0  0  0  0  0  0  0  0  0  0  0
  -18.1886  -11.6081   13.2668 N   0  0  0  0  0  0  0  0  0  0  0  0
  -18.9877  -12.5356   13.8441 C   0  0  2  0  0  0  0  0  0  0  0  0
  -20.3737  -12.6719   13.3771 C   0  0  2  0  0  0  0  0  0  0  0  0
  -20.8063  -11.7721   12.2866 C   0  0  0  0  0  0  0  0  0  0  0  0
  -22.0677  -11.8228   11.7918 O   0  0  0  0  0  0  0  0  0  0  0  0
  -20.9366  -13.6453   14.1201 N   0  0  0  0  0  0  0  0  0  0  0  0
  -19.9849  -14.0980   14.9898 C   0  0  0  0  0  0  0  0  0  0  0  0
  -18.8220  -13.4286   14.8216 N   0  0  1  0  0  0  0  0  0  0  0  0
  1  3  1  6  0  0  0
  1  4  2  0  0  0  0
  1  6  1  0  0  0  0
  1 22  1  0  0  0  0
  2 28  1  0  0  0  0
  2 35  1  6  0  0  0
  2 38  2  0  0  0  0
  2 10  1  0  0  0  0
  5  6  1  0  0  0  0
  7  5  1  6  0  0  0
  7  8  1  0  0  0  0
  7  9  1  0  0  0  0
  9 10  1  1  0  0  0
  9 11  1  0  0  0  0
 11 12  1  1  0  0  0
 11 13  1  0  0  0  0
 13  8  1  1  0  0  0
 13 33  1  0  0  0  0
 14 46  1  0  0  0  0
 14 17  1  0  0  0  0
 14 25  1  1  0  0  0
 15 16  1  0  0  0  0
 15 29  1  0  0  0  0
 16 18  1  1  0  0  0
 16 21  1  0  0  0  0
 17 19  1  1  0  0  0
 17 20  1  0  0  0  0
 20 22  1  1  0  0  0
 20 24  1  0  0  0  0
 23 21  1  1  0  0  0
 23 26  1  0  0  0  0
 23 33  1  0  0  0  0
 24 25  1  6  0  0  0
 24 27  1  0  0  0  0
 26 29  1  6  0  0  0
 26 31  1  0  0  0  0
 27 28  1  0  0  0  0
 29 30  2  0  0  0  0
 31 32  1  0  0  0  0
 33 32  1  6  0  0  0
 34 36  1  0  0  0  0
 34 42  1  0  0  0  0
 36 37  1  6  0  0  0
 36 39  1  0  0  0  0
 40 39  1  1  0  0  0
 40 41  1  0  0  0  0
 40 46  1  0  0  0  0
 41 42  1  1  0  0  0
 41 44  1  0  0  0  0
 42 43  2  0  0  0  0
 44 45  1  0  0  0  0
 46 45  1  6  0  0  0
M  CHG  2   3  -1  35  -1
M  END
>  <CHROM.1>
124.29349602,20.36521656,-18.57078024,-10.01431426,15.85207893,-0.20576546
1.17239294,-3.10073379

>  <Name>
ligand

>  <RI>
-1

>  <Rbt.Current_Directory>
/home/itssahil/PROJECTS/Mol_Feturizer/Test_systems_manuscript/rnas/3mum

>  <Rbt.Executable>
rbdock ($Id: //depot/dev/client3/rdock/2013.1/src/exe/rbdock.cxx#4 $)

>  <Rbt.Library>
libRbt.so (2013.1, Build901 2013/11/27)

>  <Rbt.Parameter_File>
/export/apps/rDock/src/rDock_2013.1_src/data/scripts/dock_solv.prm

>  <Rbt.Receptor>
prm/blind_docking_80.prm

>  <SCORE>
52.604

>  <SCORE.INTER>
49.0957

>  <SCORE.INTER.CONST>
1

>  <SCORE.INTER.POLAR>
0

>  <SCORE.INTER.ROT>
2

>  <SCORE.INTER.SOLV>
55.7418

>  <SCORE.INTER.VDW>
9.21654

>  <SCORE.INTER.norm>
1.0673

>  <SCORE.INTRA>
2.78963

>  <SCORE.INTRA.DIHEDRAL>
-0.0288602

>  <SCORE.INTRA.DIHEDRAL.0>
2.40424

>  <SCORE.INTRA.POLAR>
0

>  <SCORE.INTRA.POLAR.0>
0

>  <SCORE.INTRA.REPUL>
0

>  <SCORE.INTRA.REPUL.0>
0

>  <SCORE.INTRA.SOLV>
8.06724

>  <SCORE.INTRA.SOLV.lig_0>
-134.169

>  <SCORE.INTRA.VDW>
-1.22956

>  <SCORE.INTRA.VDW.0>
-2.18386

>  <SCORE.INTRA.norm>
0.0606442

>  <SCORE.RESTR>
0.718679

>  <SCORE.RESTR.CAVITY>
0.718679

>  <SCORE.RESTR.norm>
0.0156234

>  <SCORE.SYSTEM>
0

>  <SCORE.SYSTEM.CONST>
0

>  <SCORE.SYSTEM.DIHEDRAL>
0

>  <SCORE.SYSTEM.SOLV>
0

>  <SCORE.SYSTEM.norm>
0

>  <SCORE.heavy>
46

>  <SCORE.norm>
1.14357

>  <RMSD>
16.631

$$$$
ligand
 OpenBabel02271912143D
libRbt.so/2013.1/901 2013/11/27
 46 52  0  0  0  0  0  0  0  0999 V2000
  -16.1135   -8.7459   16.6094 P   0  0  1  0  0  0  0  0  0  0  0  0
  -18.8942  -10.0430   21.6355 P   0  0  2  0  0  0  0  0  0  0  0  0
  -15.0270  -10.0691   16.1505 O   0  5  0  0  0  0  0  0  0  0  0  0
  -16.1349   -7.4558   15.3788 O   0  0  0  0  0  0  0  0  0  0  0  0
  -18.6671   -8.5369   17.2865 C   0  0  0  0  0  0  0  0  0  0  0  0
  -17.5945   -9.3502   16.8106 O   0  0  0  0  0  0  0  0  0  0  0  0
  -19.7577   -9.4422   17.8266 C   0  0  1  0  0  0  0  0  0  0  0  0
  -20.1135  -10.4094   16.8286 O   0  0  0  0  0  0  0  0  0  0  0  0
  -19.3225  -10.2491   19.0390 C   0  0  1  0  0  0  0  0  0  0  0  0
  -19.6031   -9.5735   20.2629 O   0  0  0  0  0  0  0  0  0  0  0  0
  -20.1205  -11.5339   18.9029 C   0  0  1  0  0  0  0  0  0  0  0  0
  -21.3882  -11.3946   19.5493 O   0  0  0  0  0  0  0  0  0  0  0  0
  -20.3522  -11.6997   17.4125 C   0  0  2  0  0  0  0  0  0  0  0  0
  -13.8445   -9.6591   20.6708 C   0  0  1  0  0  0  0  0  0  0  0  0
  -16.1782  -14.8948   18.1617 N   0  0  0  0  0  0  0  0  0  0  0  0
  -16.7965  -14.0694   19.0499 C   0  0  1  0  0  0  0  0  0  0  0  0
  -14.2198   -9.6388   19.2161 C   0  0  2  0  0  0  0  0  0  0  0  0
  -16.3185  -14.0176   20.3146 N   0  0  0  0  0  0  0  0  0  0  0  0
  -13.2329   -8.8453   18.5549 O   0  0  0  0  0  0  0  0  0  0  0  0
  -15.5897   -8.9909   19.1799 C   0  0  2  0  0  0  0  0  0  0  0  0
  -17.8710  -13.2947   18.7152 N   0  0  0  0  0  0  0  0  0  0  0  0
  -15.7389   -8.1395   18.0519 O   0  0  0  0  0  0  0  0  0  0  0  0
  -18.3891  -13.3122   17.4611 C   0  0  2  0  0  0  0  0  0  0  0  0
  -15.6701   -8.1792   20.4579 C   0  0  2  0  0  0  0  0  0  0  0  0
  -14.7168   -8.7560   21.3488 O   0  0  0  0  0  0  0  0  0  0  0  0
  -17.7548  -14.1868   16.4595 C   0  0  1  0  0  0  0  0  0  0  0  0
  -17.0532   -8.2184   21.0981 C   0  0  0  0  0  0  0  0  0  0  0  0
  -17.3671   -9.5674   21.4500 O   0  0  0  0  0  0  0  0  0  0  0  0
  -16.5993  -14.9989   16.8805 C   0  0  0  0  0  0  0  0  0  0  0  0
  -15.9745  -15.8219   16.0005 O   0  0  0  0  0  0  0  0  0  0  0  0
  -18.4321  -14.0250   15.3175 N   0  0  0  0  0  0  0  0  0  0  0  0
  -19.4239  -13.1183   15.5582 C   0  0  0  0  0  0  0  0  0  0  0  0
  -19.4020  -12.6884   16.8374 N   0  0  1  0  0  0  0  0  0  0  0  0
  -14.8596  -12.5389   24.9187 N   0  0  0  0  0  0  0  0  0  0  0  0
  -18.9782  -11.8126   21.8412 O   0  5  0  0  0  0  0  0  0  0  0  0
  -14.8155  -11.1862   24.7734 C   0  0  2  0  0  0  0  0  0  0  0  0
  -15.0680  -10.3949   25.8486 N   0  0  0  0  0  0  0  0  0  0  0  0
  -19.5562   -9.2480   23.0769 O   0  0  0  0  0  0  0  0  0  0  0  0
  -14.5261  -10.5976   23.5808 N   0  0  0  0  0  0  0  0  0  0  0  0
  -14.2723  -11.3325   22.4728 C   0  0  2  0  0  0  0  0  0  0  0  0
  -14.3023  -12.7980   22.5675 C   0  0  2  0  0  0  0  0  0  0  0  0
  -14.6167  -13.3790   23.8903 C   0  0  0  0  0  0  0  0  0  0  0  0
  -14.6646  -14.7214   24.0752 O   0  0  0  0  0  0  0  0  0  0  0  0
  -14.0073  -13.2696   21.3399 N   0  0  0  0  0  0  0  0  0  0  0  0
  -13.8089  -12.1913   20.5245 C   0  0  0  0  0  0  0  0  0  0  0  0
  -13.9662  -11.0353   21.2085 N   0  0  1  0  0  0  0  0  0  0  0  0
  1  3  1  6  0  0  0
  1  4  2  0  0  0  0
  1  6  1  0  0  0  0
  1 22  1  0  0  0  0
  2 28  1  0  0  0  0
  2 35  1  1  0  0  0
  2 38  2  0  0  0  0
  2 10  1  0  0  0  0
  5  6  1  0  0  0  0
  7  5  1  6  0  0  0
  7  8  1  0  0  0  0
  7  9  1  0  0  0  0
  9 10  1  1  0  0  0
  9 11  1  0  0  0  0
 11 12  1  1  0  0  0
 11 13  1  0  0  0  0
 13  8  1  6  0  0  0
 13 33  1  0  0  0  0
 14 46  1  0  0  0  0
 14 17  1  0  0  0  0
 14 25  1  1  0  0  0
 15 16  1  0  0  0  0
 15 29  1  0  0  0  0
 16 18  1  6  0  0  0
 16 21  1  0  0  0  0
 17 19  1  6  0  0  0
 17 20  1  0  0  0  0
 20 22  1  6  0  0  0
 20 24  1  0  0  0  0
 23 21  1  6  0  0  0
 23 26  1  0  0  0  0
 23 33  1  0  0  0  0
 24 25  1  1  0  0  0
 24 27  1  0  0  0  0
 26 29  1  1  0  0  0
 26 31  1  0  0  0  0
 27 28  1  0  0  0  0
 29 30  2  0  0  0  0
 31 32  1  0  0  0  0
 33 32  1  1  0  0  0
 34 36  1  0  0  0  0
 34 42  1  0  0  0  0
 36 37  1  6  0  0  0
 36 39  1  0  0  0  0
 40 39  1  1  0  0  0
 40 41  1  0  0  0  0
 40 46  1  0  0  0  0
 41 42  1  1  0  0  0
 41 44  1  0  0  0  0
 42 43  2  0  0  0  0
 44 45  1  0  0  0  0
 46 45  1  6  0  0  0
M  CHG  2   3  -1  35  -1
M  END
>  <CHROM.1>
111.75806914,-149.84415181,-16.82934331,-11.08161874,19.61845973,-3.14137440
1.09831944,-3.13577856

>  <Name>
ligand

>  <RI>
0

>  <Rbt.Current_Directory>
/home/itssahil/PROJECTS/Mol_Feturizer/Test_systems_manuscript/rnas/3mum

>  <Rbt.Executable>
rbdock ($Id: //depot/dev/client3/rdock/2013.1/src/exe/rbdock.cxx#4 $)

>  <Rbt.Library>
libRbt.so (2013.1, Build901 2013/11/27)

>  <Rbt.Parameter_File>
/export/apps/rDock/src/rDock_2013.1_src/data/scripts/dock_solv.prm

>  <Rbt.Receptor>
prm/blind_docking_60.prm

>  <SCORE>
12.9726

>  <SCORE.INTER>
9.41123

>  <SCORE.INTER.CONST>
1

>  <SCORE.INTER.POLAR>
0

>  <SCORE.INTER.ROT>
2

>  <SCORE.INTER.SOLV>
29.1403

>  <SCORE.INTER.VDW>
-8.3726

>  <SCORE.INTER.norm>
0.204592

>  <SCORE.INTRA>
1.59093

>  <SCORE.INTRA.DIHEDRAL>
0.0248504

>  <SCORE.INTRA.DIHEDRAL.0>
2.40424

>  <SCORE.INTRA.POLAR>
0

>  <SCORE.INTRA.POLAR.0>
0

>  <SCORE.INTRA.REPUL>
0

>  <SCORE.INTRA.REPUL.0>
0

>  <SCORE.INTRA.SOLV>
4.10772

>  <SCORE.INTRA.SOLV.lig_0>
-134.169

>  <SCORE.INTRA.VDW>
-0.47536

>  <SCORE.INTRA.VDW.0>
-2.18386

>  <SCORE.INTRA.norm>
0.0345853

>  <SCORE.RESTR>
1.97047

>  <SCORE.RESTR.CAVITY>
1.97047

>  <SCORE.RESTR.norm>
0.0428364

>  <SCORE.SYSTEM>
0

>  <SCORE.SYSTEM.CONST>
0

>  <SCORE.SYSTEM.DIHEDRAL>
0

>  <SCORE.SYSTEM.SOLV>
0

>  <SCORE.SYSTEM.norm>
0

>  <SCORE.heavy>
46

>  <SCORE.norm>
0.282014

>  <RMSD>
16.655

$$$$
ligand
 OpenBabel02271912143D
libRbt.so/2013.1/901 2013/11/27
 46 52  0  0  0  0  0  0  0  0999 V2000
  -16.0956   -8.7790   16.8509 P   0  0  1  0  0  0  0  0  0  0  0  0
  -18.7978  -10.0364   21.9295 P   0  0  2  0  0  0  0  0  0  0  0  0
  -14.9956  -10.0936   16.3996 O   0  5  0  0  0  0  0  0  0  0  0  0
  -16.1501   -7.5088   15.6007 O   0  0  0  0  0  0  0  0  0  0  0  0
  -18.6438   -8.5958   17.5553 C   0  0  0  0  0  0  0  0  0  0  0  0
  -17.5653   -9.4011   17.0792 O   0  0  0  0  0  0  0  0  0  0  0  0
  -19.7148   -9.5080   18.1225 C   0  0  1  0  0  0  0  0  0  0  0  0
  -20.0682  -10.4957   17.1439 O   0  0  0  0  0  0  0  0  0  0  0  0
  -19.2536  -10.2894   19.3419 C   0  0  1  0  0  0  0  0  0  0  0  0
  -19.5296   -9.5988   20.5585 O   0  0  0  0  0  0  0  0  0  0  0  0
  -20.0346  -11.5874   19.2354 C   0  0  1  0  0  0  0  0  0  0  0  0
  -21.2965  -11.4561   19.8948 O   0  0  0  0  0  0  0  0  0  0  0  0
  -20.2814  -11.7799   17.7506 C   0  0  2  0  0  0  0  0  0  0  0  0
  -13.7659   -9.5957   20.8984 C   0  0  1  0  0  0  0  0  0  0  0  0
  -15.9733  -14.8017   18.4586 N   0  0  0  0  0  0  0  0  0  0  0  0
  -16.5804  -13.9554   19.3347 C   0  0  1  0  0  0  0  0  0  0  0  0
  -14.1586   -9.6037   19.4483 C   0  0  2  0  0  0  0  0  0  0  0  0
  -16.0505  -13.8288   20.5732 N   0  0  0  0  0  0  0  0  0  0  0  0
  -13.1911   -8.8067   18.7630 O   0  0  0  0  0  0  0  0  0  0  0  0
  -15.5381   -8.9760   19.4184 C   0  0  2  0  0  0  0  0  0  0  0  0
  -17.6939  -13.2320   19.0132 N   0  0  0  0  0  0  0  0  0  0  0  0
  -15.7129   -8.1447   18.2792 O   0  0  0  0  0  0  0  0  0  0  0  0
  -18.2645  -13.3251   17.7855 C   0  0  2  0  0  0  0  0  0  0  0  0
  -15.6151   -8.1456   20.6845 C   0  0  2  0  0  0  0  0  0  0  0  0
  -14.6431   -8.6946   21.5728 O   0  0  0  0  0  0  0  0  0  0  0  0
  -17.6446  -14.2252   16.7976 C   0  0  1  0  0  0  0  0  0  0  0  0
  -16.9898   -8.1945   21.3418 C   0  0  0  0  0  0  0  0  0  0  0  0
  -17.2800   -9.5421   21.7183 O   0  0  0  0  0  0  0  0  0  0  0  0
  -16.4453  -14.9794   17.2035 C   0  0  0  0  0  0  0  0  0  0  0  0
  -15.8314  -15.8227   16.3351 O   0  0  0  0  0  0  0  0  0  0  0  0
  -18.3755  -14.1391   15.6807 N   0  0  0  0  0  0  0  0  0  0  0  0
  -19.3861  -13.2541   15.9236 C   0  0  0  0  0  0  0  0  0  0  0  0
  -19.3239  -12.7639   17.1796 N   0  0  1  0  0  0  0  0  0  0  0  0
  -14.5949  -12.4209   25.2227 N   0  0  0  0  0  0  0  0  0  0  0  0
  -18.8538  -11.8036   22.1638 O   0  5  0  0  0  0  0  0  0  0  0  0
  -14.5605  -11.0701   25.0579 C   0  0  2  0  0  0  0  0  0  0  0  0
  -14.7700  -10.2651   26.1322 N   0  0  0  0  0  0  0  0  0  0  0  0
  -19.4543   -9.2284   23.3663 O   0  0  0  0  0  0  0  0  0  0  0  0
  -14.3228  -10.4969   23.8466 N   0  0  0  0  0  0  0  0  0  0  0  0
  -14.1136  -11.2459   22.7387 C   0  0  2  0  0  0  0  0  0  0  0  0
  -14.1357  -12.7101   22.8539 C   0  0  2  0  0  0  0  0  0  0  0  0
  -14.3930  -13.2741   24.1963 C   0  0  0  0  0  0  0  0  0  0  0  0
  -14.4295  -14.6140   24.4008 O   0  0  0  0  0  0  0  0  0  0  0  0
  -13.8910  -13.1973   21.6214 N   0  0  0  0  0  0  0  0  0  0  0  0
  -13.7297  -12.1296   20.7842 C   0  0  0  0  0  0  0  0  0  0  0  0
  -13.8614  -10.9649   21.4589 N   0  0  1  0  0  0  0  0  0  0  0  0
  1  3  1  6  0  0  0
  1  4  2  0  0  0  0
  1  6  1  0  0  0  0
  1 22  1  0  0  0  0
  2 28  1  0  0  0  0
  2 35  1  1  0  0  0
  2 38  2  0  0  0  0
  2 10  1  0  0  0  0
  5  6  1  0  0  0  0
  7  5  1  6  0  0  0
  7  8  1  0  0  0  0
  7  9  1  0  0  0  0
  9 10  1  1  0  0  0
  9 11  1  0  0  0  0
 11 12  1  1  0  0  0
 11 13  1  0  0  0  0
 13  8  1  6  0  0  0
 13 33  1  0  0  0  0
 14 46  1  0  0  0  0
 14 17  1  0  0  0  0
 14 25  1  1  0  0  0
 15 16  1  0  0  0  0
 15 29  1  0  0  0  0
 16 18  1  6  0  0  0
 16 21  1  0  0  0  0
 17 19  1  6  0  0  0
 17 20  1  0  0  0  0
 20 22  1  6  0  0  0
 20 24  1  0  0  0  0
 23 21  1  6  0  0  0
 23 26  1  0  0  0  0
 23 33  1  0  0  0  0
 24 25  1  1  0  0  0
 24 27  1  0  0  0  0
 26 29  1  1  0  0  0
 26 31  1  0  0  0  0
 27 28  1  0  0  0  0
 29 30  2  0  0  0  0
 31 32  1  0  0  0  0
 33 32  1  1  0  0  0
 34 36  1  0  0  0  0
 34 42  1  0  0  0  0
 36 37  1  6  0  0  0
 36 39  1  0  0  0  0
 40 39  1  1  0  0  0
 40 41  1  0  0  0  0
 40 46  1  0  0  0  0
 41 42  1  1  0  0  0
 41 44  1  0  0  0  0
 42 43  2  0  0  0  0
 44 45  1  0  0  0  0
 46 45  1  6  0  0  0
M  CHG  2   3  -1  35  -1
M  END
>  <CHROM.1>
109.00422114,-151.69631296,-16.72315557,-11.06593826,19.90210520,3.05880531
1.07693748,-3.06252901

>  <Name>
ligand

>  <RI>
-1

>  <Rbt.Current_Directory>
/home/itssahil/PROJECTS/Mol_Feturizer/Test_systems_manuscript/rnas/3mum

>  <Rbt.Executable>
rbdock ($Id: //depot/dev/client3/rdock/2013.1/src/exe/rbdock.cxx#4 $)

>  <Rbt.Library>
libRbt.so (2013.1, Build901 2013/11/27)

>  <Rbt.Parameter_File>
/export/apps/rDock/src/rDock_2013.1_src/data/scripts/dock_solv.prm

>  <Rbt.Receptor>
prm/blind_docking_100.prm

>  <SCORE>
8.31998

>  <SCORE.INTER>
4.06697

>  <SCORE.INTER.CONST>
1

>  <SCORE.INTER.POLAR>
0

>  <SCORE.INTER.ROT>
2

>  <SCORE.INTER.SOLV>
26.977

>  <SCORE.INTER.VDW>
-11.2143

>  <SCORE.INTER.norm>
0.0884124

>  <SCORE.INTRA>
2.26219

>  <SCORE.INTRA.DIHEDRAL>
0.0251366

>  <SCORE.INTRA.DIHEDRAL.0>
2.40424

>  <SCORE.INTRA.POLAR>
0

>  <SCORE.INTRA.POLAR.0>
0

>  <SCORE.INTRA.REPUL>
0

>  <SCORE.INTRA.REPUL.0>
0

>  <SCORE.INTRA.SOLV>
4.59817

>  <SCORE.INTRA.SOLV.lig_0>
-134.169

>  <SCORE.INTRA.VDW>
-0.049467

>  <SCORE.INTRA.VDW.0>
-2.18386

>  <SCORE.INTRA.norm>
0.0491779

>  <SCORE.RESTR>
1.99083

>  <SCORE.RESTR.CAVITY>
1.99083

>  <SCORE.RESTR.norm>
0.0432788

>  <SCORE.SYSTEM>
0

>  <SCORE.SYSTEM.CONST>
0

>  <SCORE.SYSTEM.DIHEDRAL>
0

>  <SCORE.SYSTEM.SOLV>
0

>  <SCORE.SYSTEM.norm>
0

>  <SCORE.heavy>
46

>  <SCORE.norm>
0.180869

>  <RMSD>
16.659

$$$$
ligand
 OpenBabel02271912143D
libRbt.so/2013.1/901 2013/11/27
 46 52  0  0  0  0  0  0  0  0999 V2000
  -16.0833   -8.8556   16.8192 P   0  0  1  0  0  0  0  0  0  0  0  0
  -18.7594  -10.0230   21.9330 P   0  0  2  0  0  0  0  0  0  0  0  0
  -15.0027  -10.1883   16.3743 O   0  5  0  0  0  0  0  0  0  0  0  0
  -16.1329   -7.5991   15.5550 O   0  0  0  0  0  0  0  0  0  0  0  0
  -18.6235   -8.6340   17.5415 C   0  0  0  0  0  0  0  0  0  0  0  0
  -17.5584   -9.4575   17.0662 O   0  0  0  0  0  0  0  0  0  0  0  0
  -19.7006   -9.5269   18.1275 C   0  0  1  0  0  0  0  0  0  0  0  0
  -20.0736  -10.5213   17.1632 O   0  0  0  0  0  0  0  0  0  0  0  0
  -19.2390  -10.2999   19.3522 C   0  0  1  0  0  0  0  0  0  0  0  0
  -19.4969   -9.5922   20.5629 O   0  0  0  0  0  0  0  0  0  0  0  0
  -20.0361  -11.5896   19.2666 C   0  0  1  0  0  0  0  0  0  0  0  0
  -21.2910  -11.4357   19.9344 O   0  0  0  0  0  0  0  0  0  0  0  0
  -20.2971  -11.7959   17.7862 C   0  0  2  0  0  0  0  0  0  0  0  0
  -13.7311   -9.6542   20.8572 C   0  0  1  0  0  0  0  0  0  0  0  0
  -16.0070  -14.8448   18.4873 N   0  0  0  0  0  0  0  0  0  0  0  0
  -16.5951  -13.9790   19.3573 C   0  0  1  0  0  0  0  0  0  0  0  0
  -14.1355   -9.6739   19.4104 C   0  0  2  0  0  0  0  0  0  0  0  0
  -16.0479  -13.8372   20.5866 N   0  0  0  0  0  0  0  0  0  0  0  0
  -13.1641   -8.8963   18.7084 O   0  0  0  0  0  0  0  0  0  0  0  0
  -15.5076   -9.0302   19.3843 C   0  0  2  0  0  0  0  0  0  0  0  0
  -17.7062  -13.2508   19.0385 N   0  0  0  0  0  0  0  0  0  0  0  0
  -15.6817   -8.2098   18.2371 O   0  0  0  0  0  0  0  0  0  0  0  0
  -18.2937  -13.3585   17.8200 C   0  0  2  0  0  0  0  0  0  0  0  0
  -15.5646   -8.1846   20.6414 C   0  0  2  0  0  0  0  0  0  0  0  0
  -14.5921   -8.7351   21.5282 O   0  0  0  0  0  0  0  0  0  0  0  0
  -17.6949  -14.2802   16.8390 C   0  0  1  0  0  0  0  0  0  0  0  0
  -16.9345   -8.2096   21.3101 C   0  0  0  0  0  0  0  0  0  0  0  0
  -17.2376   -9.5493   21.7042 O   0  0  0  0  0  0  0  0  0  0  0  0
  -16.4970  -15.0386   17.2415 C   0  0  0  0  0  0  0  0  0  0  0  0
  -15.9021  -15.9013   16.3790 O   0  0  0  0  0  0  0  0  0  0  0  0
  -18.4395  -14.2055   15.7304 N   0  0  0  0  0  0  0  0  0  0  0  0
  -19.4390  -13.3076   15.9720 C   0  0  0  0  0  0  0  0  0  0  0  0
  -19.3559  -12.7977   17.2189 N   0  0  1  0  0  0  0  0  0  0  0  0
  -14.5678  -12.4201   25.2182 N   0  0  0  0  0  0  0  0  0  0  0  0
  -18.8345  -11.7866   22.1879 O   0  5  0  0  0  0  0  0  0  0  0  0
  -14.5198  -11.0718   25.0375 C   0  0  2  0  0  0  0  0  0  0  0  0
  -14.7151  -10.2522   26.1034 N   0  0  0  0  0  0  0  0  0  0  0  0
  -19.3946   -9.1910   23.3656 O   0  0  0  0  0  0  0  0  0  0  0  0
  -14.2823  -10.5152   23.8185 N   0  0  0  0  0  0  0  0  0  0  0  0
  -14.0868  -11.2792   22.7183 C   0  0  2  0  0  0  0  0  0  0  0  0
  -14.1240  -12.7416   22.8507 C   0  0  2  0  0  0  0  0  0  0  0  0
  -14.3803  -13.2872   24.2007 C   0  0  0  0  0  0  0  0  0  0  0  0
  -14.4301  -14.6242   24.4210 O   0  0  0  0  0  0  0  0  0  0  0  0
  -13.8909  -13.2456   21.6227 N   0  0  0  0  0  0  0  0  0  0  0  0
  -13.7225  -12.1894   20.7723 C   0  0  0  0  0  0  0  0  0  0  0  0
  -13.8383  -11.0157   21.4341 N   0  0  1  0  0  0  0  0  0  0  0  0
  1  3  1  6  0  0  0
  1  4  2  0  0  0  0
  1  6  1  0  0  0  0
  1 22  1  0  0  0  0
  2 28  1  0  0  0  0
  2 35  1  1  0  0  0
  2 38  2  0  0  0  0
  2 10  1  0  0  0  0
  5  6  1  0  0  0  0
  7  5  1  6  0  0  0
  7  8  1  0  0  0  0
  7  9  1  0  0  0  0
  9 10  1  1  0  0  0
  9 11  1  0  0  0  0
 11 12  1  1  0  0  0
 11 13  1  0  0  0  0
 13  8  1  6  0  0  0
 13 33  1  0  0  0  0
 14 46  1  0  0  0  0
 14 17  1  0  0  0  0
 14 25  1  1  0  0  0
 15 16  1  0  0  0  0
 15 29  1  0  0  0  0
 16 18  1  6  0  0  0
 16 21  1  0  0  0  0
 17 19  1  6  0  0  0
 17 20  1  0  0  0  0
 20 22  1  6  0  0  0
 20 24  1  0  0  0  0
 23 21  1  6  0  0  0
 23 26  1  0  0  0  0
 23 33  1  0  0  0  0
 24 25  1  1  0  0  0
 24 27  1  0  0  0  0
 26 29  1  1  0  0  0
 26 31  1  0  0  0  0
 27 28  1  0  0  0  0
 29 30  2  0  0  0  0
 31 32  1  0  0  0  0
 33 32  1  1  0  0  0
 34 36  1  0  0  0  0
 34 42  1  0  0  0  0
 36 37  1  6  0  0  0
 36 39  1  0  0  0  0
 40 39  1  1  0  0  0
 40 41  1  0  0  0  0
 40 46  1  0  0  0  0
 41 42  1  1  0  0  0
 41 44  1  0  0  0  0
 42 43  2  0  0  0  0
 44 45  1  0  0  0  0
 46 45  1  6  0  0  0
M  CHG  2   3  -1  35  -1
M  END
>  <CHROM.1>
108.56728492,-151.51902663,-16.71309026,-11.09845067,19.90020402,3.07744848
1.07039544,-3.08835819

>  <Name>
ligand

>  <RI>
-1

>  <Rbt.Current_Directory>
/home/itssahil/PROJECTS/Mol_Feturizer/Test_systems_manuscript/rnas/3mum

>  <Rbt.Executable>
rbdock ($Id: //depot/dev/client3/rdock/2013.1/src/exe/rbdock.cxx#4 $)

>  <Rbt.Library>
libRbt.so (2013.1, Build901 2013/11/27)

>  <Rbt.Parameter_File>
/export/apps/rDock/src/rDock_2013.1_src/data/scripts/dock_solv.prm

>  <Rbt.Receptor>
prm/blind_docking_40.prm

>  <SCORE>
7.25608

>  <SCORE.INTER>
3.86209

>  <SCORE.INTER.CONST>
1

>  <SCORE.INTER.POLAR>
0

>  <SCORE.INTER.ROT>
2

>  <SCORE.INTER.SOLV>
26.9949

>  <SCORE.INTER.VDW>
-11.3569

>  <SCORE.INTER.norm>
0.0839585

>  <SCORE.INTRA>
2.37424

>  <SCORE.INTRA.DIHEDRAL>
0.0252327

>  <SCORE.INTRA.DIHEDRAL.0>
2.40424

>  <SCORE.INTRA.POLAR>
0

>  <SCORE.INTRA.POLAR.0>
0

>  <SCORE.INTRA.REPUL>
0

>  <SCORE.INTRA.REPUL.0>
0

>  <SCORE.INTRA.SOLV>
4.67062

>  <SCORE.INTRA.SOLV.lig_0>
-134.169

>  <SCORE.INTRA.VDW>
0.0263119

>  <SCORE.INTRA.VDW.0>
-2.18386

>  <SCORE.INTRA.norm>
0.0516139

>  <SCORE.RESTR>
1.01975

>  <SCORE.RESTR.CAVITY>
1.01975

>  <SCORE.RESTR.norm>
0.0221684

>  <SCORE.SYSTEM>
0

>  <SCORE.SYSTEM.CONST>
0

>  <SCORE.SYSTEM.DIHEDRAL>
0

>  <SCORE.SYSTEM.SOLV>
0

>  <SCORE.SYSTEM.norm>
0

>  <SCORE.heavy>
46

>  <SCORE.norm>
0.157741

>  <RMSD>
16.685

$$$$
ligand
 OpenBabel02271912143D
libRbt.so/2013.1/901 2013/11/27
 46 52  0  0  0  0  0  0  0  0999 V2000
  -18.7392   -9.8908   21.9406 P   0  0  1  0  0  0  0  0  0  0  0  0
  -16.1785   -8.9712   16.7182 P   0  0  2  0  0  0  0  0  0  0  0  0
  -18.8048  -11.6264   22.2943 O   0  5  0  0  0  0  0  0  0  0  0  0
  -19.3660   -8.9189   23.2978 O   0  0  0  0  0  0  0  0  0  0  0  0
  -16.8580   -8.1748   21.2057 C   0  0  0  0  0  0  0  0  0  0  0  0
  -17.2083   -9.4926   21.6290 O   0  0  0  0  0  0  0  0  0  0  0  0
  -15.4967   -8.2270   20.5386 C   0  0  1  0  0  0  0  0  0  0  0  0
  -14.5579   -8.8618   21.4181 O   0  0  0  0  0  0  0  0  0  0  0  0
  -15.4843   -9.0543   19.2635 C   0  0  1  0  0  0  0  0  0  0  0  0
  -15.7590   -8.2650   18.1083 O   0  0  0  0  0  0  0  0  0  0  0  0
  -14.0787   -9.6285   19.2387 C   0  0  1  0  0  0  0  0  0  0  0  0
  -13.1928   -8.7278   18.5691 O   0  0  0  0  0  0  0  0  0  0  0  0
  -13.6640   -9.7228   20.6952 C   0  0  2  0  0  0  0  0  0  0  0  0
  -20.3961  -11.6976   17.8827 C   0  0  1  0  0  0  0  0  0  0  0  0
  -14.7032  -12.9597   24.7739 N   0  0  0  0  0  0  0  0  0  0  0  0
  -14.6765  -11.5993   24.7441 C   0  0  1  0  0  0  0  0  0  0  0  0
  -19.9770  -11.5551   19.3184 C   0  0  2  0  0  0  0  0  0  0  0  0
  -14.9440  -10.9291   25.8887 N   0  0  0  0  0  0  0  0  0  0  0  0
  -21.1787  -11.5399   20.0908 O   0  0  0  0  0  0  0  0  0  0  0  0
  -19.2452  -10.2289   19.3771 C   0  0  2  0  0  0  0  0  0  0  0  0
  -14.3893  -10.8897   23.6124 N   0  0  0  0  0  0  0  0  0  0  0  0
  -19.5220   -9.5286   20.5823 O   0  0  0  0  0  0  0  0  0  0  0  0
  -14.1162  -11.5146   22.4392 C   0  0  2  0  0  0  0  0  0  0  0  0
  -19.7658   -9.4444   18.1889 C   0  0  2  0  0  0  0  0  0  0  0  0
  -20.2777  -10.4123   17.2743 O   0  0  0  0  0  0  0  0  0  0  0  0
  -14.1287  -12.9877   22.4172 C   0  0  1  0  0  0  0  0  0  0  0  0
  -18.6820   -8.6200   17.5031 C   0  0  0  0  0  0  0  0  0  0  0  0
  -17.6729   -9.4991   17.0023 O   0  0  0  0  0  0  0  0  0  0  0  0
  -14.4460  -13.6971   23.6695 C   0  0  0  0  0  0  0  0  0  0  0  0
  -14.4712  -15.0535   23.7090 O   0  0  0  0  0  0  0  0  0  0  0  0
  -13.8278  -13.3604   21.1684 N   0  0  0  0  0  0  0  0  0  0  0  0
  -13.6343  -12.2222   20.4400 C   0  0  0  0  0  0  0  0  0  0  0  0
  -13.8044  -11.1163   21.1949 N   0  0  1  0  0  0  0  0  0  0  0  0
  -16.1945  -14.7820   18.3312 N   0  0  0  0  0  0  0  0  0  0  0  0
  -15.0969  -10.3341   16.3263 O   0  5  0  0  0  0  0  0  0  0  0  0
  -16.7301  -13.9044   19.2232 C   0  0  2  0  0  0  0  0  0  0  0  0
  -16.1443  -13.7546   20.4399 N   0  0  0  0  0  0  0  0  0  0  0  0
  -16.2339   -7.8470   15.3467 O   0  0  0  0  0  0  0  0  0  0  0  0
  -17.8386  -13.1691   18.9352 N   0  0  0  0  0  0  0  0  0  0  0  0
  -18.4701  -13.2794   17.7431 C   0  0  2  0  0  0  0  0  0  0  0  0
  -17.9374  -14.2085   16.7378 C   0  0  2  0  0  0  0  0  0  0  0  0
  -16.7280  -14.9750   17.1062 C   0  0  0  0  0  0  0  0  0  0  0  0
  -16.1627  -15.8543   16.2426 O   0  0  0  0  0  0  0  0  0  0  0  0
  -18.7398  -14.1108   15.6594 N   0  0  0  0  0  0  0  0  0  0  0  0
  -19.7107  -13.1955   15.9536 C   0  0  0  0  0  0  0  0  0  0  0  0
  -19.5426  -12.6997   17.2006 N   0  0  1  0  0  0  0  0  0  0  0  0
  1  3  1  1  0  0  0
  1  4  2  0  0  0  0
  1  6  1  0  0  0  0
  1 22  1  0  0  0  0
  2 28  1  0  0  0  0
  2 35  1  6  0  0  0
  2 38  2  0  0  0  0
  2 10  1  0  0  0  0
  5  6  1  0  0  0  0
  7  5  1  1  0  0  0
  7  8  1  0  0  0  0
  7  9  1  0  0  0  0
  9 10  1  6  0  0  0
  9 11  1  0  0  0  0
 11 12  1  6  0  0  0
 11 13  1  0  0  0  0
 13  8  1  1  0  0  0
 13 33  1  0  0  0  0
 14 46  1  0  0  0  0
 14 17  1  0  0  0  0
 14 25  1  6  0  0  0
 15 16  1  0  0  0  0
 15 29  1  0  0  0  0
 16 18  1  1  0  0  0
 16 21  1  0  0  0  0
 17 19  1  1  0  0  0
 17 20  1  0  0  0  0
 20 22  1  1  0  0  0
 20 24  1  0  0  0  0
 23 21  1  1  0  0  0
 23 26  1  0  0  0  0
 23 33  1  0  0  0  0
 24 25  1  6  0  0  0
 24 27  1  0  0  0  0
 26 29  1  6  0  0  0
 26 31  1  0  0  0  0
 27 28  1  0  0  0  0
 29 30  2  0  0  0  0
 31 32  1  0  0  0  0
 33 32  1  6  0  0  0
 34 36  1  0  0  0  0
 34 42  1  0  0  0  0
 36 37  1  1  0  0  0
 36 39  1  0  0  0  0
 40 39  1  6  0  0  0
 40 41  1  0  0  0  0
 40 46  1  0  0  0  0
 41 42  1  6  0  0  0
 41 44  1  0  0  0  0
 42 43  2  0  0  0  0
 44 45  1  0  0  0  0
 46 45  1  1  0  0  0
M  CHG  2   3  -1  35  -1
M  END
>  <CHROM.1>
-31.38545250,-6.72604606,-16.77902352,-11.14658680,19.77244988,0.08084490
-1.04388754,0.13775189

>  <Name>
ligand

>  <RI>
-1

>  <Rbt.Current_Directory>
/home/itssahil/PROJECTS/Mol_Feturizer/Test_systems_manuscript/rnas/3mum

>  <Rbt.Executable>
rbdock ($Id: //depot/dev/client3/rdock/2013.1/src/exe/rbdock.cxx#4 $)

>  <Rbt.Library>
libRbt.so (2013.1, Build901 2013/11/27)

>  <Rbt.Parameter_File>
/export/apps/rDock/src/rDock_2013.1_src/data/scripts/dock_solv.prm

>  <Rbt.Receptor>
prm/blind_docking_40.prm

>  <SCORE>
12.1415

>  <SCORE.INTER>
7.51445

>  <SCORE.INTER.CONST>
1

>  <SCORE.INTER.POLAR>
0

>  <SCORE.INTER.ROT>
2

>  <SCORE.INTER.SOLV>
27.1903

>  <SCORE.INTER.VDW>
-8.98714

>  <SCORE.INTER.norm>
0.163358

>  <SCORE.INTRA>
3.37135

>  <SCORE.INTRA.DIHEDRAL>
0.00946719

>  <SCORE.INTRA.DIHEDRAL.0>
2.40424

>  <SCORE.INTRA.POLAR>
0

>  <SCORE.INTRA.POLAR.0>
0

>  <SCORE.INTRA.REPUL>
0

>  <SCORE.INTRA.REPUL.0>
0

>  <SCORE.INTRA.SOLV>
5.56316

>  <SCORE.INTRA.SOLV.lig_0>
-134.169

>  <SCORE.INTRA.VDW>
0.585034

>  <SCORE.INTRA.VDW.0>
-2.18386

>  <SCORE.INTRA.norm>
0.0732901

>  <SCORE.RESTR>
1.25566

>  <SCORE.RESTR.CAVITY>
1.25566

>  <SCORE.RESTR.norm>
0.0272969

>  <SCORE.SYSTEM>
0

>  <SCORE.SYSTEM.CONST>
0

>  <SCORE.SYSTEM.DIHEDRAL>
0

>  <SCORE.SYSTEM.SOLV>
0

>  <SCORE.SYSTEM.norm>
0

>  <SCORE.heavy>
46

>  <SCORE.norm>
0.263945

>  <RMSD>
16.723

$$$$
ligand
 OpenBabel02271912143D
libRbt.so/2013.1/901 2013/11/27
 46 52  0  0  0  0  0  0  0  0999 V2000
  -15.1737  -10.0702   16.2966 P   0  0  1  0  0  0  0  0  0  0  0  0
  -20.0992  -11.0171   19.3817 P   0  0  2  0  0  0  0  0  0  0  0  0
  -15.4390  -10.4504   14.5858 O   0  5  0  0  0  0  0  0  0  0  0  0
  -13.5390   -9.4164   16.5791 O   0  0  0  0  0  0  0  0  0  0  0  0
  -16.3943   -8.5848   18.1207 C   0  0  0  0  0  0  0  0  0  0  0  0
  -16.2896   -9.0025   16.7595 O   0  0  0  0  0  0  0  0  0  0  0  0
  -17.7746   -7.9960   18.3411 C   0  0  1  0  0  0  0  0  0  0  0  0
  -18.0207   -6.9761   17.3627 O   0  0  0  0  0  0  0  0  0  0  0  0
  -18.8944   -9.0086   18.1646 C   0  0  1  0  0  0  0  0  0  0  0  0
  -19.2322   -9.6552   19.3897 O   0  0  0  0  0  0  0  0  0  0  0  0
  -20.0401   -8.1663   17.6316 C   0  0  1  0  0  0  0  0  0  0  0  0
  -20.8018   -7.6314   18.7170 O   0  0  0  0  0  0  0  0  0  0  0  0
  -19.3772   -7.0186   16.8928 C   0  0  2  0  0  0  0  0  0  0  0  0
  -17.3329  -14.2854   16.5106 C   0  0  1  0  0  0  0  0  0  0  0  0
  -18.6903   -5.0625   12.0046 N   0  0  0  0  0  0  0  0  0  0  0  0
  -18.5708   -4.4322   13.2050 C   0  0  1  0  0  0  0  0  0  0  0  0
  -16.6124  -13.0728   15.9932 C   0  0  2  0  0  0  0  0  0  0  0  0
  -18.2327   -3.1221   13.2087 N   0  0  0  0  0  0  0  0  0  0  0  0
  -15.2810  -13.4925   15.6896 O   0  0  0  0  0  0  0  0  0  0  0  0
  -16.6500  -12.0827   17.1403 C   0  0  2  0  0  0  0  0  0  0  0  0
  -18.7806   -5.0658   14.3971 N   0  0  0  0  0  0  0  0  0  0  0  0
  -15.4384  -11.3467   17.2396 O   0  0  0  0  0  0  0  0  0  0  0  0
  -19.1194   -6.3789   14.4472 C   0  0  2  0  0  0  0  0  0  0  0  0
  -16.8454  -12.9318   18.3810 C   0  0  2  0  0  0  0  0  0  0  0  0
  -17.4148  -14.1596   17.9296 O   0  0  0  0  0  0  0  0  0  0  0  0
  -19.2651   -7.1079   13.1753 C   0  0  1  0  0  0  0  0  0  0  0  0
  -17.7754  -12.2845   19.4010 C   0  0  0  0  0  0  0  0  0  0  0  0
  -19.0671  -12.1149   18.8140 O   0  0  0  0  0  0  0  0  0  0  0  0
  -19.0255   -6.3703   11.9221 C   0  0  0  0  0  0  0  0  0  0  0  0
  -19.1461   -6.9900   10.7206 O   0  0  0  0  0  0  0  0  0  0  0  0
  -19.6047   -8.3643   13.4840 N   0  0  0  0  0  0  0  0  0  0  0  0
  -19.6751   -8.4435   14.8450 C   0  0  0  0  0  0  0  0  0  0  0  0
  -19.3870   -7.2596   15.4255 N   0  0  1  0  0  0  0  0  0  0  0  0
  -20.4837  -12.4399   12.7643 N   0  0  0  0  0  0  0  0  0  0  0  0
  -21.5193  -10.8804   18.3114 O   0  5  0  0  0  0  0  0  0  0  0  0
  -19.2066  -12.0897   13.0791 C   0  0  2  0  0  0  0  0  0  0  0  0
  -18.5845  -11.1254   12.3518 N   0  0  0  0  0  0  0  0  0  0  0  0
  -20.6240  -11.5265   20.9983 O   0  0  0  0  0  0  0  0  0  0  0  0
  -18.5289  -12.6771   14.1029 N   0  0  0  0  0  0  0  0  0  0  0  0
  -19.0926  -13.6481   14.8589 C   0  0  2  0  0  0  0  0  0  0  0  0
  -20.4704  -14.0671   14.5692 C   0  0  2  0  0  0  0  0  0  0  0  0
  -21.1569  -13.3886   13.4491 C   0  0  0  0  0  0  0  0  0  0  0  0
  -22.4304  -13.7064   13.1091 O   0  0  0  0  0  0  0  0  0  0  0  0
  -20.7789  -15.0239   15.4667 N   0  0  0  0  0  0  0  0  0  0  0  0
  -19.6840  -15.2052   16.2638 C   0  0  0  0  0  0  0  0  0  0  0  0
  -18.6794  -14.3775   15.8970 N   0  0  1  0  0  0  0  0  0  0  0  0
  1  3  1  6  0  0  0
  1  4  2  0  0  0  0
  1  6  1  0  0  0  0
  1 22  1  0  0  0  0
  2 28  1  0  0  0  0
  2 35  1  6  0  0  0
  2 38  2  0  0  0  0
  2 10  1  0  0  0  0
  5  6  1  0  0  0  0
  7  5  1  6  0  0  0
  7  8  1  0  0  0  0
  7  9  1  0  0  0  0
  9 10  1  1  0  0  0
  9 11  1  0  0  0  0
 11 12  1  1  0  0  0
 11 13  1  0  0  0  0
 13  8  1  1  0  0  0
 13 33  1  0  0  0  0
 14 46  1  0  0  0  0
 14 17  1  0  0  0  0
 14 25  1  1  0  0  0
 15 16  1  0  0  0  0
 15 29  1  0  0  0  0
 16 18  1  6  0  0  0
 16 21  1  0  0  0  0
 17 19  1  1  0  0  0
 17 20  1  0  0  0  0
 20 22  1  1  0  0  0
 20 24  1  0  0  0  0
 23 21  1  6  0  0  0
 23 26  1  0  0  0  0
 23 33  1  0  0  0  0
 24 25  1  6  0  0  0
 24 27  1  0  0  0  0
 26 29  1  1  0  0  0
 26 31  1  0  0  0  0
 27 28  1  0  0  0  0
 29 30  2  0  0  0  0
 31 32  1  0  0  0  0
 33 32  1  1  0  0  0
 34 36  1  0  0  0  0
 34 42  1  0  0  0  0
 36 37  1  6  0  0  0
 36 39  1  0  0  0  0
 40 39  1  1  0  0  0
 40 41  1  0  0  0  0
 40 46  1  0  0  0  0
 41 42  1  1  0  0  0
 41 44  1  0  0  0  0
 42 43  2  0  0  0  0
 44 45  1  0  0  0  0
 46 45  1  6  0  0  0
M  CHG  2   3  -1  35  -1
M  END
>  <CHROM.1>
-76.56938683,11.76855722,-18.48574714,-10.23536914,15.99329928,-1.56320770
1.27480897,2.71960417

>  <Name>
ligand

>  <RI>
0

>  <Rbt.Current_Directory>
/home/itssahil/PROJECTS/Mol_Feturizer/Test_systems_manuscript/rnas/3mum

>  <Rbt.Executable>
rbdock ($Id: //depot/dev/client3/rdock/2013.1/src/exe/rbdock.cxx#4 $)

>  <Rbt.Library>
libRbt.so (2013.1, Build901 2013/11/27)

>  <Rbt.Parameter_File>
/export/apps/rDock/src/rDock_2013.1_src/data/scripts/dock_solv.prm

>  <Rbt.Receptor>
prm/blind_docking_60.prm

>  <SCORE>
71.5143

>  <SCORE.INTER>
69.1653

>  <SCORE.INTER.CONST>
1

>  <SCORE.INTER.POLAR>
0

>  <SCORE.INTER.ROT>
2

>  <SCORE.INTER.SOLV>
45.0951

>  <SCORE.INTER.VDW>
26.1452

>  <SCORE.INTER.norm>
1.50359

>  <SCORE.INTRA>
1.95428

>  <SCORE.INTRA.DIHEDRAL>
-0.0224182

>  <SCORE.INTRA.DIHEDRAL.0>
2.40424

>  <SCORE.INTRA.POLAR>
0

>  <SCORE.INTRA.POLAR.0>
0

>  <SCORE.INTRA.REPUL>
0

>  <SCORE.INTRA.REPUL.0>
0

>  <SCORE.INTRA.SOLV>
1.98391

>  <SCORE.INTRA.SOLV.lig_0>
-134.169

>  <SCORE.INTRA.VDW>
0.97353

>  <SCORE.INTRA.VDW.0>
-2.18386

>  <SCORE.INTRA.norm>
0.0424842

>  <SCORE.RESTR>
0.394705

>  <SCORE.RESTR.CAVITY>
0.394705

>  <SCORE.RESTR.norm>
0.00858054

>  <SCORE.SYSTEM>
0

>  <SCORE.SYSTEM.CONST>
0

>  <SCORE.SYSTEM.DIHEDRAL>
0

>  <SCORE.SYSTEM.SOLV>
0

>  <SCORE.SYSTEM.norm>
0

>  <SCORE.heavy>
46

>  <SCORE.norm>
1.55466

>  <RMSD>
16.752

$$$$
ligand
 OpenBabel02271912143D
libRbt.so/2013.1/901 2013/11/27
 46 52  0  0  0  0  0  0  0  0999 V2000
  -20.4897  -10.6545   18.6110 P   0  0  1  0  0  0  0  0  0  0  0  0
  -15.9224  -13.9688   20.2938 P   0  0  2  0  0  0  0  0  0  0  0  0
  -20.0001   -8.9559   18.4815 O   0  5  0  0  0  0  0  0  0  0  0  0
  -22.1814  -10.8920   18.1000 O   0  0  0  0  0  0  0  0  0  0  0  0
  -19.5839  -12.9654   17.6823 C   0  0  0  0  0  0  0  0  0  0  0  0
  -19.5007  -11.5402   17.6963 O   0  0  0  0  0  0  0  0  0  0  0  0
  -18.2761  -13.5211   17.1516 C   0  0  1  0  0  0  0  0  0  0  0  0
  -17.9740  -12.9089   15.8899 O   0  0  0  0  0  0  0  0  0  0  0  0
  -17.0867  -13.2163   18.0476 C   0  0  1  0  0  0  0  0  0  0  0  0
  -16.8613  -14.2443   19.0095 O   0  0  0  0  0  0  0  0  0  0  0  0
  -15.9359  -13.0957   17.0641 C   0  0  1  0  0  0  0  0  0  0  0  0
  -15.3418  -14.3777   16.8450 O   0  0  0  0  0  0  0  0  0  0  0  0
  -16.5708  -12.6280   15.7677 C   0  0  2  0  0  0  0  0  0  0  0  0
  -18.1321   -9.9597   22.6651 C   0  0  1  0  0  0  0  0  0  0  0  0
  -18.6814   -7.9225   14.5043 N   0  0  0  0  0  0  0  0  0  0  0  0
  -19.2792   -9.1440   14.5568 C   0  0  1  0  0  0  0  0  0  0  0  0
  -18.8542   -9.7131   21.3709 C   0  0  2  0  0  0  0  0  0  0  0  0
  -20.5949   -9.2259   14.2519 N   0  0  0  0  0  0  0  0  0  0  0  0
  -20.1133   -9.1322   21.7148 O   0  0  0  0  0  0  0  0  0  0  0  0
  -19.0114  -11.0864   20.7486 C   0  0  2  0  0  0  0  0  0  0  0  0
  -18.6064  -10.2826   14.8998 N   0  0  0  0  0  0  0  0  0  0  0  0
  -20.2665  -11.2281   20.0976 O   0  0  0  0  0  0  0  0  0  0  0  0
  -17.2870  -10.2533   15.2161 C   0  0  2  0  0  0  0  0  0  0  0  0
  -18.9173  -12.0537   21.9122 C   0  0  2  0  0  0  0  0  0  0  0  0
  -18.2281  -11.3551   22.9477 O   0  0  0  0  0  0  0  0  0  0  0  0
  -16.5906   -8.9558   15.1719 C   0  0  1  0  0  0  0  0  0  0  0  0
  -18.1550  -13.3271   21.5632 C   0  0  0  0  0  0  0  0  0  0  0  0
  -16.8142  -12.9859   21.2057 O   0  0  0  0  0  0  0  0  0  0  0  0
  -17.3701   -7.7630   14.7952 C   0  0  0  0  0  0  0  0  0  0  0  0
  -16.7811   -6.5416   14.7367 O   0  0  0  0  0  0  0  0  0  0  0  0
  -15.3179   -9.1859   15.5126 N   0  0  0  0  0  0  0  0  0  0  0  0
  -15.1979  -10.5237   15.7564 C   0  0  0  0  0  0  0  0  0  0  0  0
  -16.3715  -11.1664   15.5797 N   0  0  1  0  0  0  0  0  0  0  0  0
  -13.4805   -9.7917   25.0530 N   0  0  0  0  0  0  0  0  0  0  0  0
  -14.3948  -13.1755   19.8272 O   0  5  0  0  0  0  0  0  0  0  0  0
  -14.6679  -10.2912   25.4927 C   0  0  2  0  0  0  0  0  0  0  0  0
  -14.7344  -10.8536   26.7277 N   0  0  0  0  0  0  0  0  0  0  0  0
  -15.5664  -15.4320   21.2320 O   0  0  0  0  0  0  0  0  0  0  0  0
  -15.7956  -10.2463   24.7321 N   0  0  0  0  0  0  0  0  0  0  0  0
  -15.7906   -9.7049   23.4915 C   0  0  2  0  0  0  0  0  0  0  0  0
  -14.5390   -9.1466   22.9628 C   0  0  2  0  0  0  0  0  0  0  0  0
  -13.3492   -9.2191   23.8376 C   0  0  0  0  0  0  0  0  0  0  0  0
  -12.1508   -8.7277   23.4366 O   0  0  0  0  0  0  0  0  0  0  0  0
  -14.8184   -8.6713   21.7330 N   0  0  0  0  0  0  0  0  0  0  0  0
  -16.1420   -8.9108   21.4930 C   0  0  0  0  0  0  0  0  0  0  0  0
  -16.7188   -9.5270   22.5496 N   0  0  1  0  0  0  0  0  0  0  0  0
  1  3  1  6  0  0  0
  1  4  2  0  0  0  0
  1  6  1  0  0  0  0
  1 22  1  0  0  0  0
  2 28  1  0  0  0  0
  2 35  1  6  0  0  0
  2 38  2  0  0  0  0
  2 10  1  0  0  0  0
  5  6  1  0  0  0  0
  7  5  1  1  0  0  0
  7  8  1  0  0  0  0
  7  9  1  0  0  0  0
  9 10  1  1  0  0  0
  9 11  1  0  0  0  0
 11 12  1  6  0  0  0
 11 13  1  0  0  0  0
 13  8  1  1  0  0  0
 13 33  1  0  0  0  0
 14 46  1  0  0  0  0
 14 17  1  0  0  0  0
 14 25  1  6  0  0  0
 15 16  1  0  0  0  0
 15 29  1  0  0  0  0
 16 18  1  6  0  0  0
 16 21  1  0  0  0  0
 17 19  1  1  0  0  0
 17 20  1  0  0  0  0
 20 22  1  1  0  0  0
 20 24  1  0  0  0  0
 23 21  1  6  0  0  0
 23 26  1  0  0  0  0
 23 33  1  0  0  0  0
 24 25  1  1  0  0  0
 24 27  1  0  0  0  0
 26 29  1  1  0  0  0
 26 31  1  0  0  0  0
 27 28  1  0  0  0  0
 29 30  2  0  0  0  0
 31 32  1  0  0  0  0
 33 32  1  1  0  0  0
 34 36  1  0  0  0  0
 34 42  1  0  0  0  0
 36 37  1  6  0  0  0
 36 39  1  0  0  0  0
 40 39  1  1  0  0  0
 40 41  1  0  0  0  0
 40 46  1  0  0  0  0
 41 42  1  1  0  0  0
 41 44  1  0  0  0  0
 42 43  2  0  0  0  0
 44 45  1  0  0  0  0
 46 45  1  6  0  0  0
M  CHG  2   3  -1  35  -1
M  END
>  <CHROM.1>
-16.89175298,-174.72627997,-17.23642385,-10.96907708,19.40615350,2.84959137
1.18440374,-2.78694093

>  <Name>
ligand

>  <RI>
-1

>  <Rbt.Current_Directory>
/home/itssahil/PROJECTS/Mol_Feturizer/Test_systems_manuscript/rnas/3mum

>  <Rbt.Executable>
rbdock ($Id: //depot/dev/client3/rdock/2013.1/src/exe/rbdock.cxx#4 $)

>  <Rbt.Library>
libRbt.so (2013.1, Build901 2013/11/27)

>  <Rbt.Parameter_File>
/export/apps/rDock/src/rDock_2013.1_src/data/scripts/dock_solv.prm

>  <Rbt.Receptor>
prm/blind_docking_40.prm

>  <SCORE>
31.0765

>  <SCORE.INTER>
30.0507

>  <SCORE.INTER.CONST>
1

>  <SCORE.INTER.POLAR>
0

>  <SCORE.INTER.ROT>
2

>  <SCORE.INTER.SOLV>
38.1663

>  <SCORE.INTER.VDW>
2.37839

>  <SCORE.INTER.norm>
0.653277

>  <SCORE.INTRA>
0.163322

>  <SCORE.INTRA.DIHEDRAL>
0.00546767

>  <SCORE.INTRA.DIHEDRAL.0>
2.40424

>  <SCORE.INTRA.POLAR>
0

>  <SCORE.INTRA.POLAR.0>
0

>  <SCORE.INTRA.REPUL>
0

>  <SCORE.INTRA.REPUL.0>
0

>  <SCORE.INTRA.SOLV>
0.507067

>  <SCORE.INTRA.SOLV.lig_0>
-134.169

>  <SCORE.INTRA.VDW>
-0.0929455

>  <SCORE.INTRA.VDW.0>
-2.18386

>  <SCORE.INTRA.norm>
0.00355047

>  <SCORE.RESTR>
0.862414

>  <SCORE.RESTR.CAVITY>
0.862414

>  <SCORE.RESTR.norm>
0.0187481

>  <SCORE.SYSTEM>
0

>  <SCORE.SYSTEM.CONST>
0

>  <SCORE.SYSTEM.DIHEDRAL>
0

>  <SCORE.SYSTEM.SOLV>
0

>  <SCORE.SYSTEM.norm>
0

>  <SCORE.heavy>
46

>  <SCORE.norm>
0.675576

>  <RMSD>
16.829

$$$$
ligand
 OpenBabel02271912143D
libRbt.so/2013.1/901 2013/11/27
 46 52  0  0  0  0  0  0  0  0999 V2000
  -15.8702   -9.0631   15.4546 P   0  0  1  0  0  0  0  0  0  0  0  0
  -20.1329  -10.6790   19.1821 P   0  0  2  0  0  0  0  0  0  0  0  0
  -16.1583   -9.7642   13.8523 O   0  5  0  0  0  0  0  0  0  0  0  0
  -14.4433   -7.9938   15.4576 O   0  0  0  0  0  0  0  0  0  0  0  0
  -17.2898   -7.6493   17.1893 C   0  0  0  0  0  0  0  0  0  0  0  0
  -17.1852   -8.2403   15.8939 O   0  0  0  0  0  0  0  0  0  0  0  0
  -18.7544   -7.3877   17.4848 C   0  0  1  0  0  0  0  0  0  0  0  0
  -19.3297   -6.6280   16.4124 O   0  0  0  0  0  0  0  0  0  0  0  0
  -19.5847   -8.6577   17.5755 C   0  0  1  0  0  0  0  0  0  0  0  0
  -19.6491   -9.1634   18.9072 O   0  0  0  0  0  0  0  0  0  0  0  0
  -20.9464   -8.2165   17.0685 C   0  0  1  0  0  0  0  0  0  0  0  0
  -21.7350   -7.7176   18.1518 O   0  0  0  0  0  0  0  0  0  0  0  0
  -20.6610   -7.0746   16.1108 C   0  0  2  0  0  0  0  0  0  0  0  0
  -16.8441  -13.5881   16.4804 C   0  0  1  0  0  0  0  0  0  0  0  0
  -19.9529   -5.9629   10.9673 N   0  0  0  0  0  0  0  0  0  0  0  0
  -19.7635   -5.1623   12.0516 C   0  0  1  0  0  0  0  0  0  0  0  0
  -16.5032  -12.3348   15.7253 C   0  0  2  0  0  0  0  0  0  0  0  0
  -19.3366   -3.8952   11.8443 N   0  0  0  0  0  0  0  0  0  0  0  0
  -15.1357  -12.4598   15.3308 O   0  0  0  0  0  0  0  0  0  0  0  0
  -16.7074  -11.2140   16.7252 C   0  0  2  0  0  0  0  0  0  0  0  0
  -19.9890   -5.5846   13.3312 N   0  0  0  0  0  0  0  0  0  0  0  0
  -15.7232  -10.1985   16.5851 O   0  0  0  0  0  0  0  0  0  0  0  0
  -20.4155   -6.8462   13.5920 C   0  0  2  0  0  0  0  0  0  0  0  0
  -16.5812  -11.8762   18.0831 C   0  0  2  0  0  0  0  0  0  0  0  0
  -16.8469  -13.2615   17.8695 O   0  0  0  0  0  0  0  0  0  0  0  0
  -20.6394   -7.7534   12.4530 C   0  0  1  0  0  0  0  0  0  0  0  0
  -17.5660  -11.3214   19.1062 C   0  0  0  0  0  0  0  0  0  0  0  0
  -18.8987  -11.5678   18.6533 O   0  0  0  0  0  0  0  0  0  0  0  0
  -20.3784   -7.2403   11.0963 C   0  0  0  0  0  0  0  0  0  0  0  0
  -20.5682   -8.0306   10.0093 O   0  0  0  0  0  0  0  0  0  0  0  0
  -21.0570   -8.9185   12.9602 N   0  0  0  0  0  0  0  0  0  0  0  0
  -21.1018   -8.7781   14.3174 C   0  0  0  0  0  0  0  0  0  0  0  0
  -20.7205   -7.5413   14.7002 N   0  0  1  0  0  0  0  0  0  0  0  0
  -20.8181  -12.9371   13.1410 N   0  0  0  0  0  0  0  0  0  0  0  0
  -21.6176  -11.0653   18.2726 O   0  5  0  0  0  0  0  0  0  0  0  0
  -19.6760  -12.2113   13.2880 C   0  0  2  0  0  0  0  0  0  0  0  0
  -19.4597  -11.1430   12.4768 N   0  0  0  0  0  0  0  0  0  0  0  0
  -20.3829  -11.0367   20.9019 O   0  0  0  0  0  0  0  0  0  0  0  0
  -18.7389  -12.5225   14.2247 N   0  0  0  0  0  0  0  0  0  0  0  0
  -18.8946  -13.5785   15.0570 C   0  0  2  0  0  0  0  0  0  0  0  0
  -20.1086  -14.3984   14.9484 C   0  0  2  0  0  0  0  0  0  0  0  0
  -21.0925  -14.0076   13.9163 C   0  0  0  0  0  0  0  0  0  0  0  0
  -22.2439  -14.7026   13.7435 O   0  0  0  0  0  0  0  0  0  0  0  0
  -20.0102  -15.3589   15.8887 N   0  0  0  0  0  0  0  0  0  0  0  0
  -18.8256  -15.1706   16.5432 C   0  0  0  0  0  0  0  0  0  0  0  0
  -18.1639  -14.1025   16.0429 N   0  0  1  0  0  0  0  0  0  0  0  0
  1  3  1  6  0  0  0
  1  4  2  0  0  0  0
  1  6  1  0  0  0  0
  1 22  1  0  0  0  0
  2 28  1  0  0  0  0
  2 35  1  6  0  0  0
  2 38  2  0  0  0  0
  2 10  1  0  0  0  0
  5  6  1  0  0  0  0
  7  5  1  6  0  0  0
  7  8  1  0  0  0  0
  7  9  1  0  0  0  0
  9 10  1  1  0  0  0
  9 11  1  0  0  0  0
 11 12  1  1  0  0  0
 11 13  1  0  0  0  0
 13  8  1  1  0  0  0
 13 33  1  0  0  0  0
 14 46  1  0  0  0  0
 14 17  1  0  0  0  0
 14 25  1  1  0  0  0
 15 16  1  0  0  0  0
 15 29  1  0  0  0  0
 16 18  1  6  0  0  0
 16 21  1  0  0  0  0
 17 19  1  1  0  0  0
 17 20  1  0  0  0  0
 20 22  1  6  0  0  0
 20 24  1  0  0  0  0
 23 21  1  6  0  0  0
 23 26  1  0  0  0  0
 23 33  1  0  0  0  0
 24 25  1  6  0  0  0
 24 27  1  0  0  0  0
 26 29  1  1  0  0  0
 26 31  1  0  0  0  0
 27 28  1  0  0  0  0
 29 30  2  0  0  0  0
 31 32  1  0  0  0  0
 33 32  1  1  0  0  0
 34 36  1  0  0  0  0
 34 42  1  0  0  0  0
 36 37  1  6  0  0  0
 36 39  1  0  0  0  0
 40 39  1  1  0  0  0
 40 41  1  0  0  0  0
 40 46  1  0  0  0  0
 41 42  1  1  0  0  0
 41 44  1  0  0  0  0
 42 43  2  0  0  0  0
 44 45  1  0  0  0  0
 46 45  1  6  0  0  0
M  CHG  2   3  -1  35  -1
M  END
>  <CHROM.1>
-57.39115889,4.32205204,-18.95958461,-10.06594896,15.58402779,-2.09546909
1.23875901,3.06121250

>  <Name>
ligand

>  <RI>
-1

>  <Rbt.Current_Directory>
/home/itssahil/PROJECTS/Mol_Feturizer/Test_systems_manuscript/rnas/3mum

>  <Rbt.Executable>
rbdock ($Id: //depot/dev/client3/rdock/2013.1/src/exe/rbdock.cxx#4 $)

>  <Rbt.Library>
libRbt.so (2013.1, Build901 2013/11/27)

>  <Rbt.Parameter_File>
/export/apps/rDock/src/rDock_2013.1_src/data/scripts/dock_solv.prm

>  <Rbt.Receptor>
prm/blind_docking_40.prm

>  <SCORE>
67.801

>  <SCORE.INTER>
64.9364

>  <SCORE.INTER.CONST>
1

>  <SCORE.INTER.POLAR>
0

>  <SCORE.INTER.ROT>
2

>  <SCORE.INTER.SOLV>
39.2694

>  <SCORE.INTER.VDW>
25.2678

>  <SCORE.INTER.norm>
1.41166

>  <SCORE.INTRA>
2.66647

>  <SCORE.INTRA.DIHEDRAL>
-0.00932622

>  <SCORE.INTRA.DIHEDRAL.0>
2.40424

>  <SCORE.INTRA.POLAR>
0

>  <SCORE.INTRA.POLAR.0>
0

>  <SCORE.INTRA.REPUL>
0

>  <SCORE.INTRA.REPUL.0>
0

>  <SCORE.INTRA.SOLV>
3.36893

>  <SCORE.INTRA.SOLV.lig_0>
-134.169

>  <SCORE.INTRA.VDW>
0.986671

>  <SCORE.INTRA.VDW.0>
-2.18386

>  <SCORE.INTRA.norm>
0.0579668

>  <SCORE.RESTR>
0.198062

>  <SCORE.RESTR.CAVITY>
0.198062

>  <SCORE.RESTR.norm>
0.00430568

>  <SCORE.SYSTEM>
0

>  <SCORE.SYSTEM.CONST>
0

>  <SCORE.SYSTEM.DIHEDRAL>
0

>  <SCORE.SYSTEM.SOLV>
0

>  <SCORE.SYSTEM.norm>
0

>  <SCORE.heavy>
46

>  <SCORE.norm>
1.47393

>  <RMSD>
16.928

$$$$
ligand
 OpenBabel02271912143D
libRbt.so/2013.1/901 2013/11/27
 46 52  0  0  0  0  0  0  0  0999 V2000
  -15.9930   -8.7893   17.0596 P   0  0  1  0  0  0  0  0  0  0  0  0
  -18.9030   -9.7752   22.0832 P   0  0  2  0  0  0  0  0  0  0  0  0
  -15.0017  -10.1972   16.6387 O   0  5  0  0  0  0  0  0  0  0  0  0
  -15.9102   -7.5273   15.8027 O   0  0  0  0  0  0  0  0  0  0  0  0
  -18.5303   -8.3817   17.7068 C   0  0  0  0  0  0  0  0  0  0  0  0
  -17.5157   -9.2804   17.2583 O   0  0  0  0  0  0  0  0  0  0  0  0
  -19.6883   -9.1940   18.2544 C   0  0  1  0  0  0  0  0  0  0  0  0
  -20.1049  -10.1537   17.2729 O   0  0  0  0  0  0  0  0  0  0  0  0
  -19.3231  -10.0045   19.4874 C   0  0  1  0  0  0  0  0  0  0  0  0
  -19.5643   -9.2847   20.6943 O   0  0  0  0  0  0  0  0  0  0  0  0
  -20.2112  -11.2307   19.3696 C   0  0  1  0  0  0  0  0  0  0  0  0
  -21.4708  -10.9863   20.0004 O   0  0  0  0  0  0  0  0  0  0  0  0
  -20.4417  -11.4106   17.8806 C   0  0  2  0  0  0  0  0  0  0  0  0
  -13.8307   -9.7785   21.1612 C   0  0  1  0  0  0  0  0  0  0  0  0
  -20.0225  -15.9361   15.1352 N   0  0  0  0  0  0  0  0  0  0  0  0
  -21.1376  -15.2163   15.4368 C   0  0  1  0  0  0  0  0  0  0  0  0
  -14.1913   -9.7619   19.7028 C   0  0  2  0  0  0  0  0  0  0  0  0
  -22.3330  -15.6759   15.0004 N   0  0  0  0  0  0  0  0  0  0  0  0
  -13.1437   -9.0560   19.0354 O   0  0  0  0  0  0  0  0  0  0  0  0
  -15.5101   -9.0173   19.6397 C   0  0  2  0  0  0  0  0  0  0  0  0
  -21.0970  -14.0581   16.1603 N   0  0  0  0  0  0  0  0  0  0  0  0
  -15.5876   -8.1813   18.4931 O   0  0  0  0  0  0  0  0  0  0  0  0
  -19.9233  -13.5544   16.6188 C   0  0  2  0  0  0  0  0  0  0  0  0
  -15.5421   -8.1751   20.8999 C   0  0  2  0  0  0  0  0  0  0  0  0
  -14.6408   -8.8005   21.8119 O   0  0  0  0  0  0  0  0  0  0  0  0
  -18.6857  -14.2968   16.3227 C   0  0  1  0  0  0  0  0  0  0  0  0
  -16.9298   -8.1005   21.5270 C   0  0  0  0  0  0  0  0  0  0  0  0
  -17.3438   -9.4155   21.9032 O   0  0  0  0  0  0  0  0  0  0  0  0
  -18.7936  -15.5393   15.5375 C   0  0  0  0  0  0  0  0  0  0  0  0
  -17.6873  -16.2652   15.2354 O   0  0  0  0  0  0  0  0  0  0  0  0
  -17.6795  -13.6125   16.8781 N   0  0  0  0  0  0  0  0  0  0  0  0
  -18.2204  -12.5166   17.4863 C   0  0  0  0  0  0  0  0  0  0  0  0
  -19.5610  -12.4775   17.3353 N   0  0  1  0  0  0  0  0  0  0  0  0
  -15.2797  -14.6918   20.0990 N   0  0  0  0  0  0  0  0  0  0  0  0
  -19.1170  -11.5293   22.3242 O   0  5  0  0  0  0  0  0  0  0  0  0
  -15.1926  -13.6118   19.2750 C   0  0  2  0  0  0  0  0  0  0  0  0
  -15.5080  -13.7527   17.9610 N   0  0  0  0  0  0  0  0  0  0  0  0
  -19.5177   -8.9041   23.5014 O   0  0  0  0  0  0  0  0  0  0  0  0
  -14.7976  -12.3901   19.7263 N   0  0  0  0  0  0  0  0  0  0  0  0
  -14.4642  -12.1890   21.0226 C   0  0  2  0  0  0  0  0  0  0  0  0
  -14.5411  -13.3163   21.9612 C   0  0  2  0  0  0  0  0  0  0  0  0
  -14.9824  -14.6169   21.4136 C   0  0  0  0  0  0  0  0  0  0  0  0
  -15.0865  -15.7136   22.2041 O   0  0  0  0  0  0  0  0  0  0  0  0
  -14.1712  -12.8400   23.1665 N   0  0  0  0  0  0  0  0  0  0  0  0
  -13.8770  -11.5149   23.0098 C   0  0  0  0  0  0  0  0  0  0  0  0
  -14.0566  -11.1307   21.7257 N   0  0  1  0  0  0  0  0  0  0  0  0
  1  3  1  6  0  0  0
  1  4  2  0  0  0  0
  1  6  1  0  0  0  0
  1 22  1  0  0  0  0
  2 28  1  0  0  0  0
  2 35  1  1  0  0  0
  2 38  2  0  0  0  0
  2 10  1  0  0  0  0
  5  6  1  0  0  0  0
  7  5  1  6  0  0  0
  7  8  1  0  0  0  0
  7  9  1  0  0  0  0
  9 10  1  1  0  0  0
  9 11  1  0  0  0  0
 11 12  1  1  0  0  0
 11 13  1  0  0  0  0
 13  8  1  6  0  0  0
 13 33  1  0  0  0  0
 14 46  1  0  0  0  0
 14 17  1  0  0  0  0
 14 25  1  1  0  0  0
 15 16  1  0  0  0  0
 15 29  1  0  0  0  0
 16 18  1  1  0  0  0
 16 21  1  0  0  0  0
 17 19  1  6  0  0  0
 17 20  1  0  0  0  0
 20 22  1  6  0  0  0
 20 24  1  0  0  0  0
 23 21  1  1  0  0  0
 23 26  1  0  0  0  0
 23 33  1  0  0  0  0
 24 25  1  1  0  0  0
 24 27  1  0  0  0  0
 26 29  1  6  0  0  0
 26 31  1  0  0  0  0
 27 28  1  0  0  0  0
 29 30  2  0  0  0  0
 31 32  1  0  0  0  0
 33 32  1  6  0  0  0
 34 36  1  0  0  0  0
 34 42  1  0  0  0  0
 36 37  1  6  0  0  0
 36 39  1  0  0  0  0
 40 39  1  1  0  0  0
 40 41  1  0  0  0  0
 40 46  1  0  0  0  0
 41 42  1  1  0  0  0
 41 44  1  0  0  0  0
 42 43  2  0  0  0  0
 44 45  1  0  0  0  0
 46 45  1  6  0  0  0
M  CHG  2   3  -1  35  -1
M  END
>  <CHROM.1>
-116.69297758,2.73966280,-17.30056951,-11.35828209,19.13315298,0.78843249
-0.65350412,0.31166475

>  <Name>
ligand

>  <RI>
-1

>  <Rbt.Current_Directory>
/home/itssahil/PROJECTS/Mol_Feturizer/Test_systems_manuscript/rnas/3mum

>  <Rbt.Executable>
rbdock ($Id: //depot/dev/client3/rdock/2013.1/src/exe/rbdock.cxx#4 $)

>  <Rbt.Library>
libRbt.so (2013.1, Build901 2013/11/27)

>  <Rbt.Parameter_File>
/export/apps/rDock/src/rDock_2013.1_src/data/scripts/dock_solv.prm

>  <Rbt.Receptor>
prm/blind_docking_40.prm

>  <SCORE>
16.0177

>  <SCORE.INTER>
11.3971

>  <SCORE.INTER.CONST>
1

>  <SCORE.INTER.POLAR>
0

>  <SCORE.INTER.ROT>
2

>  <SCORE.INTER.SOLV>
34.3269

>  <SCORE.INTER.VDW>
-8.77755

>  <SCORE.INTER.norm>
0.247764

>  <SCORE.INTRA>
3.09081

>  <SCORE.INTRA.DIHEDRAL>
-0.00816555

>  <SCORE.INTRA.DIHEDRAL.0>
2.40424

>  <SCORE.INTRA.POLAR>
0

>  <SCORE.INTRA.POLAR.0>
0

>  <SCORE.INTRA.REPUL>
0

>  <SCORE.INTRA.REPUL.0>
0

>  <SCORE.INTRA.SOLV>
3.7309

>  <SCORE.INTRA.SOLV.lig_0>
-134.169

>  <SCORE.INTRA.VDW>
1.22944

>  <SCORE.INTRA.VDW.0>
-2.18386

>  <SCORE.INTRA.norm>
0.0671915

>  <SCORE.RESTR>
1.52975

>  <SCORE.RESTR.CAVITY>
1.52975

>  <SCORE.RESTR.norm>
0.0332555

>  <SCORE.SYSTEM>
0

>  <SCORE.SYSTEM.CONST>
0

>  <SCORE.SYSTEM.DIHEDRAL>
0

>  <SCORE.SYSTEM.SOLV>
0

>  <SCORE.SYSTEM.norm>
0

>  <SCORE.heavy>
46

>  <SCORE.norm>
0.348211

>  <RMSD>
16.986

$$$$
ligand
 OpenBabel02271912143D
libRbt.so/2013.1/901 2013/11/27
 46 52  0  0  0  0  0  0  0  0999 V2000
  -19.3018  -10.4372   20.0981 P   0  0  1  0  0  0  0  0  0  0  0  0
  -15.7005   -9.6814   15.5008 P   0  0  2  0  0  0  0  0  0  0  0  0
  -20.9839  -10.5407   19.5489 O   0  5  0  0  0  0  0  0  0  0  0  0
  -19.1677  -10.6926   21.8576 O   0  0  0  0  0  0  0  0  0  0  0  0
  -17.0222  -11.6296   19.4619 C   0  0  0  0  0  0  0  0  0  0  0  0
  -18.4388  -11.5447   19.3058 O   0  0  0  0  0  0  0  0  0  0  0  0
  -16.4499  -12.3886   18.2799 C   0  0  1  0  0  0  0  0  0  0  0  0
  -17.1313  -13.6436   18.1429 O   0  0  0  0  0  0  0  0  0  0  0  0
  -16.6463  -11.6715   16.9541 C   0  0  1  0  0  0  0  0  0  0  0  0
  -15.5487  -10.8184   16.6370 O   0  0  0  0  0  0  0  0  0  0  0  0
  -16.7844  -12.8128   15.9619 C   0  0  1  0  0  0  0  0  0  0  0  0
  -15.4966  -13.1965   15.4734 O   0  0  0  0  0  0  0  0  0  0  0  0
  -17.3622  -13.9652   16.7623 C   0  0  2  0  0  0  0  0  0  0  0  0
  -19.6310   -6.7641   17.1187 C   0  0  1  0  0  0  0  0  0  0  0  0
  -21.2746  -16.0783   13.8606 N   0  0  0  0  0  0  0  0  0  0  0  0
  -19.9290  -16.2341   13.7286 C   0  0  1  0  0  0  0  0  0  0  0  0
  -19.9917   -7.9138   18.0161 C   0  0  2  0  0  0  0  0  0  0  0  0
  -19.4715  -17.0278   12.7328 N   0  0  0  0  0  0  0  0  0  0  0  0
  -20.5995   -7.3451   19.1773 O   0  0  0  0  0  0  0  0  0  0  0  0
  -18.6700   -8.5839   18.3352 C   0  0  2  0  0  0  0  0  0  0  0  0
  -19.0291  -15.6222   14.5547 N   0  0  0  0  0  0  0  0  0  0  0  0
  -18.6228   -9.0395   19.6804 O   0  0  0  0  0  0  0  0  0  0  0  0
  -19.4370  -14.8184   15.5692 C   0  0  2  0  0  0  0  0  0  0  0  0
  -17.6250   -7.5080   18.1139 C   0  0  2  0  0  0  0  0  0  0  0  0
  -18.2251   -6.5527   17.2407 O   0  0  0  0  0  0  0  0  0  0  0  0
  -20.8841  -14.6133   15.7542 C   0  0  1  0  0  0  0  0  0  0  0  0
  -16.3474   -8.0454   17.4788 C   0  0  0  0  0  0  0  0  0  0  0  0
  -16.6566   -8.5859   16.1926 O   0  0  0  0  0  0  0  0  0  0  0  0
  -21.8053  -15.3006   14.8316 C   0  0  0  0  0  0  0  0  0  0  0  0
  -23.1484  -15.1479   14.9536 O   0  0  0  0  0  0  0  0  0  0  0  0
  -21.0297  -13.7896   16.7979 N   0  0  0  0  0  0  0  0  0  0  0  0
  -19.7791  -13.4840   17.2520 C   0  0  0  0  0  0  0  0  0  0  0  0
  -18.8236  -14.0954   16.5206 N   0  0  1  0  0  0  0  0  0  0  0  0
  -19.7583   -4.9708   12.2058 N   0  0  0  0  0  0  0  0  0  0  0  0
  -16.4598  -10.3318   14.0240 O   0  5  0  0  0  0  0  0  0  0  0  0
  -19.3177   -4.3659   13.3429 C   0  0  2  0  0  0  0  0  0  0  0  0
  -18.8145   -3.1059   13.2717 N   0  0  0  0  0  0  0  0  0  0  0  0
  -14.1652   -8.8976   15.0803 O   0  0  0  0  0  0  0  0  0  0  0  0
  -19.3641   -4.9850   14.5540 N   0  0  0  0  0  0  0  0  0  0  0  0
  -19.8480   -6.2421   14.6874 C   0  0  2  0  0  0  0  0  0  0  0  0
  -20.3412   -6.9459   13.4962 C   0  0  2  0  0  0  0  0  0  0  0  0
  -20.2704   -6.2198   12.2101 C   0  0  0  0  0  0  0  0  0  0  0  0
  -20.7044   -6.7872   11.0576 O   0  0  0  0  0  0  0  0  0  0  0  0
  -20.7687   -8.1544   13.9121 N   0  0  0  0  0  0  0  0  0  0  0  0
  -20.5611   -8.2196   15.2611 C   0  0  0  0  0  0  0  0  0  0  0  0
  -20.0125   -7.0717   15.7195 N   0  0  1  0  0  0  0  0  0  0  0  0
  1  3  1  6  0  0  0
  1  4  2  0  0  0  0
  1  6  1  0  0  0  0
  1 22  1  0  0  0  0
  2 28  1  0  0  0  0
  2 35  1  6  0  0  0
  2 38  2  0  0  0  0
  2 10  1  0  0  0  0
  5  6  1  0  0  0  0
  7  5  1  1  0  0  0
  7  8  1  0  0  0  0
  7  9  1  0  0  0  0
  9 10  1  6  0  0  0
  9 11  1  0  0  0  0
 11 12  1  1  0  0  0
 11 13  1  0  0  0  0
 13  8  1  1  0  0  0
 13 33  1  0  0  0  0
 14 46  1  0  0  0  0
 14 17  1  0  0  0  0
 14 25  1  6  0  0  0
 15 16  1  0  0  0  0
 15 29  1  0  0  0  0
 16 18  1  6  0  0  0
 16 21  1  0  0  0  0
 17 19  1  1  0  0  0
 17 20  1  0  0  0  0
 20 22  1  1  0  0  0
 20 24  1  0  0  0  0
 23 21  1  6  0  0  0
 23 26  1  0  0  0  0
 23 33  1  0  0  0  0
 24 25  1  6  0  0  0
 24 27  1  0  0  0  0
 26 29  1  1  0  0  0
 26 31  1  0  0  0  0
 27 28  1  0  0  0  0
 29 30  2  0  0  0  0
 31 32  1  0  0  0  0
 33 32  1  1  0  0  0
 34 36  1  0  0  0  0
 34 42  1  0  0  0  0
 36 37  1  6  0  0  0
 36 39  1  0  0  0  0
 40 39  1  1  0  0  0
 40 41  1  0  0  0  0
 40 46  1  0  0  0  0
 41 42  1  1  0  0  0
 41 44  1  0  0  0  0
 42 43  2  0  0  0  0
 44 45  1  0  0  0  0
 46 45  1  6  0  0  0
M  CHG  2   3  -1  35  -1
M  END
>  <CHROM.1>
-154.03310316,178.63883561,-18.73437666,-10.31855014,16.25376978,-1.66852625
-1.22173567,-0.22705799

>  <Name>
ligand

>  <RI>
-1

>  <Rbt.Current_Directory>
/home/itssahil/PROJECTS/Mol_Feturizer/Test_systems_manuscript/rnas/3mum

>  <Rbt.Executable>
rbdock ($Id: //depot/dev/client3/rdock/2013.1/src/exe/rbdock.cxx#4 $)

>  <Rbt.Library>
libRbt.so (2013.1, Build901 2013/11/27)

>  <Rbt.Parameter_File>
/export/apps/rDock/src/rDock_2013.1_src/data/scripts/dock_solv.prm

>  <Rbt.Receptor>
prm/blind_docking_80.prm

>  <SCORE>
6.61189

>  <SCORE.INTER>
5.45188

>  <SCORE.INTER.CONST>
1

>  <SCORE.INTER.POLAR>
0

>  <SCORE.INTER.ROT>
2

>  <SCORE.INTER.SOLV>
39.0817

>  <SCORE.INTER.VDW>
-14.326

>  <SCORE.INTER.norm>
0.118519

>  <SCORE.INTRA>
0.3697

>  <SCORE.INTRA.DIHEDRAL>
-0.00330387

>  <SCORE.INTRA.DIHEDRAL.0>
2.40424

>  <SCORE.INTRA.POLAR>
0

>  <SCORE.INTRA.POLAR.0>
0

>  <SCORE.INTRA.REPUL>
0

>  <SCORE.INTRA.REPUL.0>
0

>  <SCORE.INTRA.SOLV>
0.0763667

>  <SCORE.INTRA.SOLV.lig_0>
-134.169

>  <SCORE.INTRA.VDW>
0.333169

>  <SCORE.INTRA.VDW.0>
-2.18386

>  <SCORE.INTRA.norm>
0.00803696

>  <SCORE.RESTR>
0.790315

>  <SCORE.RESTR.CAVITY>
0.790315

>  <SCORE.RESTR.norm>
0.0171808

>  <SCORE.SYSTEM>
0

>  <SCORE.SYSTEM.CONST>
0

>  <SCORE.SYSTEM.DIHEDRAL>
0

>  <SCORE.SYSTEM.SOLV>
0

>  <SCORE.SYSTEM.norm>
0

>  <SCORE.heavy>
46

>  <SCORE.norm>
0.143737

>  <RMSD>
17.023

$$$$
ligand
 OpenBabel02271912143D
libRbt.so/2013.1/901 2013/11/27
 46 52  0  0  0  0  0  0  0  0999 V2000
  -19.2868  -10.4271   20.1050 P   0  0  1  0  0  0  0  0  0  0  0  0
  -15.7063   -9.6816   15.4898 P   0  0  2  0  0  0  0  0  0  0  0  0
  -20.9711  -10.5347   19.5634 O   0  5  0  0  0  0  0  0  0  0  0  0
  -19.1447  -10.6766   21.8648 O   0  0  0  0  0  0  0  0  0  0  0  0
  -17.0083  -11.6186   19.4629 C   0  0  0  0  0  0  0  0  0  0  0  0
  -18.4257  -11.5361   19.3126 O   0  0  0  0  0  0  0  0  0  0  0  0
  -16.4402  -12.3807   18.2809 C   0  0  1  0  0  0  0  0  0  0  0  0
  -17.1204  -13.6370   18.1509 O   0  0  0  0  0  0  0  0  0  0  0  0
  -16.6432  -11.6682   16.9536 C   0  0  1  0  0  0  0  0  0  0  0  0
  -15.5481  -10.8147   16.6290 O   0  0  0  0  0  0  0  0  0  0  0  0
  -16.7841  -12.8129   15.9658 C   0  0  1  0  0  0  0  0  0  0  0  0
  -15.4978  -13.1965   15.4730 O   0  0  0  0  0  0  0  0  0  0  0  0
  -17.3568  -13.9635   16.7724 C   0  0  2  0  0  0  0  0  0  0  0  0
  -19.6338   -6.7642   17.1151 C   0  0  1  0  0  0  0  0  0  0  0  0
  -21.2812  -16.1499   13.9420 N   0  0  0  0  0  0  0  0  0  0  0  0
  -19.9363  -16.3136   13.8122 C   0  0  1  0  0  0  0  0  0  0  0  0
  -19.9891   -7.9115   18.0178 C   0  0  2  0  0  0  0  0  0  0  0  0
  -19.4832  -17.1377   12.8395 N   0  0  0  0  0  0  0  0  0  0  0  0
  -20.5926   -7.3398   19.1797 O   0  0  0  0  0  0  0  0  0  0  0  0
  -18.6651   -8.5788   18.3333 C   0  0  2  0  0  0  0  0  0  0  0  0
  -19.0330  -15.6801   14.6180 N   0  0  0  0  0  0  0  0  0  0  0  0
  -18.6114   -9.0300   19.6798 O   0  0  0  0  0  0  0  0  0  0  0  0
  -19.4365  -14.8454   15.6090 C   0  0  2  0  0  0  0  0  0  0  0  0
  -17.6225   -7.5023   18.1040 C   0  0  2  0  0  0  0  0  0  0  0  0
  -18.2276   -6.5506   17.2303 O   0  0  0  0  0  0  0  0  0  0  0  0
  -20.8827  -14.6306   15.7906 C   0  0  1  0  0  0  0  0  0  0  0  0
  -16.3469   -8.0400   17.4652 C   0  0  0  0  0  0  0  0  0  0  0  0
  -16.6609   -8.5852   16.1821 O   0  0  0  0  0  0  0  0  0  0  0  0
  -21.8077  -15.3422   14.8906 C   0  0  0  0  0  0  0  0  0  0  0  0
  -23.1501  -15.1819   15.0106 O   0  0  0  0  0  0  0  0  0  0  0  0
  -21.0237  -13.7759   16.8098 N   0  0  0  0  0  0  0  0  0  0  0  0
  -19.7714  -13.4608   17.2522 C   0  0  0  0  0  0  0  0  0  0  0  0
  -18.8191  -14.0964   16.5375 N   0  0  1  0  0  0  0  0  0  0  0  0
  -19.7906   -4.9848   12.1981 N   0  0  0  0  0  0  0  0  0  0  0  0
  -16.4712  -10.3379   14.0183 O   0  5  0  0  0  0  0  0  0  0  0  0
  -19.3465   -4.3753   13.3313 C   0  0  2  0  0  0  0  0  0  0  0  0
  -18.8479   -3.1138   13.2544 N   0  0  0  0  0  0  0  0  0  0  0  0
  -14.1740   -8.8972   15.0601 O   0  0  0  0  0  0  0  0  0  0  0  0
  -19.3851   -4.9913   14.5443 N   0  0  0  0  0  0  0  0  0  0  0  0
  -19.8641   -6.2496   14.6835 C   0  0  2  0  0  0  0  0  0  0  0  0
  -20.3606   -6.9583   13.4965 C   0  0  2  0  0  0  0  0  0  0  0  0
  -20.2984   -6.2355   12.2082 C   0  0  0  0  0  0  0  0  0  0  0  0
  -20.7360   -6.8075   11.0593 O   0  0  0  0  0  0  0  0  0  0  0  0
  -20.7821   -8.1671   13.9177 N   0  0  0  0  0  0  0  0  0  0  0  0
  -20.5678   -8.2279   15.2659 C   0  0  0  0  0  0  0  0  0  0  0  0
  -20.0209   -7.0769   15.7185 N   0  0  1  0  0  0  0  0  0  0  0  0
  1  3  1  6  0  0  0
  1  4  2  0  0  0  0
  1  6  1  0  0  0  0
  1 22  1  0  0  0  0
  2 28  1  0  0  0  0
  2 35  1  6  0  0  0
  2 38  2  0  0  0  0
  2 10  1  0  0  0  0
  5  6  1  0  0  0  0
  7  5  1  1  0  0  0
  7  8  1  0  0  0  0
  7  9  1  0  0  0  0
  9 10  1  6  0  0  0
  9 11  1  0  0  0  0
 11 12  1  1  0  0  0
 11 13  1  0  0  0  0
 13  8  1  1  0  0  0
 13 33  1  0  0  0  0
 14 46  1  0  0  0  0
 14 17  1  0  0  0  0
 14 25  1  6  0  0  0
 15 16  1  0  0  0  0
 15 29  1  0  0  0  0
 16 18  1  6  0  0  0
 16 21  1  0  0  0  0
 17 19  1  1  0  0  0
 17 20  1  0  0  0  0
 20 22  1  1  0  0  0
 20 24  1  0  0  0  0
 23 21  1  6  0  0  0
 23 26  1  0  0  0  0
 23 33  1  0  0  0  0
 24 25  1  6  0  0  0
 24 27  1  0  0  0  0
 26 29  1  1  0  0  0
 26 31  1  0  0  0  0
 27 28  1  0  0  0  0
 29 30  2  0  0  0  0
 31 32  1  0  0  0  0
 33 32  1  1  0  0  0
 34 36  1  0  0  0  0
 34 42  1  0  0  0  0
 36 37  1  6  0  0  0
 36 39  1  0  0  0  0
 40 39  1  1  0  0  0
 40 41  1  0  0  0  0
 40 46  1  0  0  0  0
 41 42  1  1  0  0  0
 41 44  1  0  0  0  0
 42 43  2  0  0  0  0
 44 45  1  0  0  0  0
 46 45  1  6  0  0  0
M  CHG  2   3  -1  35  -1
M  END
>  <CHROM.1>
-152.49708765,178.51574146,-18.73699674,-10.32640156,16.26315695,-1.66313910
-1.21492144,-0.22500688

>  <Name>
ligand

>  <RI>
-1

>  <Rbt.Current_Directory>
/home/itssahil/PROJECTS/Mol_Feturizer/Test_systems_manuscript/rnas/3mum

>  <Rbt.Executable>
rbdock ($Id: //depot/dev/client3/rdock/2013.1/src/exe/rbdock.cxx#4 $)

>  <Rbt.Library>
libRbt.so (2013.1, Build901 2013/11/27)

>  <Rbt.Parameter_File>
/export/apps/rDock/src/rDock_2013.1_src/data/scripts/dock_solv.prm

>  <Rbt.Receptor>
prm/blind_docking_80.prm

>  <SCORE>
6.27834

>  <SCORE.INTER>
5.03445

>  <SCORE.INTER.CONST>
1

>  <SCORE.INTER.POLAR>
0

>  <SCORE.INTER.ROT>
2

>  <SCORE.INTER.SOLV>
38.7023

>  <SCORE.INTER.VDW>
-14.4778

>  <SCORE.INTER.norm>
0.109445

>  <SCORE.INTRA>
0.362865

>  <SCORE.INTRA.DIHEDRAL>
-0.00343041

>  <SCORE.INTRA.DIHEDRAL.0>
2.40424

>  <SCORE.INTRA.POLAR>
0

>  <SCORE.INTRA.POLAR.0>
0

>  <SCORE.INTRA.REPUL>
0

>  <SCORE.INTRA.REPUL.0>
0

>  <SCORE.INTRA.SOLV>
0.0795216

>  <SCORE.INTRA.SOLV.lig_0>
-134.169

>  <SCORE.INTRA.VDW>
0.32482

>  <SCORE.INTRA.VDW.0>
-2.18386

>  <SCORE.INTRA.norm>
0.00788838

>  <SCORE.RESTR>
0.881025

>  <SCORE.RESTR.CAVITY>
0.881025

>  <SCORE.RESTR.norm>
0.0191527

>  <SCORE.SYSTEM>
0

>  <SCORE.SYSTEM.CONST>
0

>  <SCORE.SYSTEM.DIHEDRAL>
0

>  <SCORE.SYSTEM.SOLV>
0

>  <SCORE.SYSTEM.norm>
0

>  <SCORE.heavy>
46

>  <SCORE.norm>
0.136486

>  <RMSD>
17.029

$$$$
ligand
 OpenBabel02271912143D
libRbt.so/2013.1/901 2013/11/27
 46 52  0  0  0  0  0  0  0  0999 V2000
  -19.2921  -10.4441   20.0970 P   0  0  1  0  0  0  0  0  0  0  0  0
  -15.7027   -9.6878   15.4904 P   0  0  2  0  0  0  0  0  0  0  0  0
  -20.9758  -10.5449   19.5524 O   0  5  0  0  0  0  0  0  0  0  0  0
  -19.1533  -10.7017   21.8559 O   0  0  0  0  0  0  0  0  0  0  0  0
  -17.0158  -11.6389   19.4530 C   0  0  0  0  0  0  0  0  0  0  0  0
  -18.4327  -11.5519   19.3010 O   0  0  0  0  0  0  0  0  0  0  0  0
  -16.4479  -12.3972   18.2685 C   0  0  1  0  0  0  0  0  0  0  0  0
  -17.1312  -13.6511   18.1320 O   0  0  0  0  0  0  0  0  0  0  0  0
  -16.6470  -11.6784   16.9441 C   0  0  1  0  0  0  0  0  0  0  0  0
  -15.5492  -10.8264   16.6249 O   0  0  0  0  0  0  0  0  0  0  0  0
  -16.7894  -12.8184   15.9510 C   0  0  1  0  0  0  0  0  0  0  0  0
  -15.5035  -13.2032   15.4585 O   0  0  0  0  0  0  0  0  0  0  0  0
  -17.3664  -13.9709   16.7518 C   0  0  2  0  0  0  0  0  0  0  0  0
  -19.6248   -6.7672   17.1227 C   0  0  1  0  0  0  0  0  0  0  0  0
  -21.2897  -16.0721   13.8559 N   0  0  0  0  0  0  0  0  0  0  0  0
  -19.9446  -16.2290   13.7196 C   0  0  1  0  0  0  0  0  0  0  0  0
  -19.9845   -7.9175   18.0198 C   0  0  2  0  0  0  0  0  0  0  0  0
  -19.4909  -17.0204   12.7203 N   0  0  0  0  0  0  0  0  0  0  0  0
  -20.5882   -7.3493   19.1833 O   0  0  0  0  0  0  0  0  0  0  0  0
  -18.6628   -8.5897   18.3344 C   0  0  2  0  0  0  0  0  0  0  0  0
  -19.0416  -15.6202   14.5446 N   0  0  0  0  0  0  0  0  0  0  0  0
  -18.6124   -9.0469   19.6789 O   0  0  0  0  0  0  0  0  0  0  0  0
  -19.4457  -14.8187   15.5625 C   0  0  2  0  0  0  0  0  0  0  0  0
  -17.6170   -7.5150   18.1114 C   0  0  2  0  0  0  0  0  0  0  0  0
  -18.2183   -6.5578   17.2410 O   0  0  0  0  0  0  0  0  0  0  0  0
  -20.8920  -14.6126   15.7523 C   0  0  1  0  0  0  0  0  0  0  0  0
  -16.3419   -8.0533   17.4721 C   0  0  0  0  0  0  0  0  0  0  0  0
  -16.6554   -8.5919   16.1861 O   0  0  0  0  0  0  0  0  0  0  0  0
  -21.8167  -15.2964   14.8306 C   0  0  0  0  0  0  0  0  0  0  0  0
  -23.1592  -15.1426   14.9570 O   0  0  0  0  0  0  0  0  0  0  0  0
  -21.0337  -13.7915   16.7987 N   0  0  0  0  0  0  0  0  0  0  0  0
  -19.7814  -13.4885   17.2499 C   0  0  0  0  0  0  0  0  0  0  0  0
  -18.8288  -14.0989   16.5140 N   0  0  1  0  0  0  0  0  0  0  0  0
  -19.8577   -4.9302   12.2299 N   0  0  0  0  0  0  0  0  0  0  0  0
  -16.4671  -10.3356   14.0150 O   0  5  0  0  0  0  0  0  0  0  0  0
  -19.4247   -4.3231   13.3687 C   0  0  2  0  0  0  0  0  0  0  0  0
  -18.9618   -3.0473   13.3055 N   0  0  0  0  0  0  0  0  0  0  0  0
  -14.1676   -8.9056   15.0665 O   0  0  0  0  0  0  0  0  0  0  0  0
  -19.4395   -4.9554   14.5738 N   0  0  0  0  0  0  0  0  0  0  0  0
  -19.8826   -6.2282   14.6991 C   0  0  2  0  0  0  0  0  0  0  0  0
  -20.3656   -6.9353   13.5056 C   0  0  2  0  0  0  0  0  0  0  0  0
  -20.3305   -6.1947   12.2264 C   0  0  0  0  0  0  0  0  0  0  0  0
  -20.7582   -6.7639   11.0725 O   0  0  0  0  0  0  0  0  0  0  0  0
  -20.7509   -8.1607   13.9134 N   0  0  0  0  0  0  0  0  0  0  0  0
  -20.5278   -8.2327   15.2595 C   0  0  0  0  0  0  0  0  0  0  0  0
  -20.0106   -7.0727   15.7242 N   0  0  1  0  0  0  0  0  0  0  0  0
  1  3  1  6  0  0  0
  1  4  2  0  0  0  0
  1  6  1  0  0  0  0
  1 22  1  0  0  0  0
  2 28  1  0  0  0  0
  2 35  1  6  0  0  0
  2 38  2  0  0  0  0
  2 10  1  0  0  0  0
  5  6  1  0  0  0  0
  7  5  1  1  0  0  0
  7  8  1  0  0  0  0
  7  9  1  0  0  0  0
  9 10  1  6  0  0  0
  9 11  1  0  0  0  0
 11 12  1  1  0  0  0
 11 13  1  0  0  0  0
 13  8  1  1  0  0  0
 13 33  1  0  0  0  0
 14 46  1  0  0  0  0
 14 17  1  0  0  0  0
 14 25  1  6  0  0  0
 15 16  1  0  0  0  0
 15 29  1  0  0  0  0
 16 18  1  6  0  0  0
 16 21  1  0  0  0  0
 17 19  1  1  0  0  0
 17 20  1  0  0  0  0
 20 22  1  1  0  0  0
 20 24  1  0  0  0  0
 23 21  1  6  0  0  0
 23 26  1  0  0  0  0
 23 33  1  0  0  0  0
 24 25  1  6  0  0  0
 24 27  1  0  0  0  0
 26 29  1  1  0  0  0
 26 31  1  0  0  0  0
 27 28  1  0  0  0  0
 29 30  2  0  0  0  0
 31 32  1  0  0  0  0
 33 32  1  1  0  0  0
 34 36  1  0  0  0  0
 34 42  1  0  0  0  0
 36 37  1  6  0  0  0
 36 39  1  0  0  0  0
 40 39  1  1  0  0  0
 40 41  1  0  0  0  0
 40 46  1  0  0  0  0
 41 42  1  1  0  0  0
 41 44  1  0  0  0  0
 42 43  2  0  0  0  0
 44 45  1  0  0  0  0
 46 45  1  6  0  0  0
M  CHG  2   3  -1  35  -1
M  END
>  <CHROM.1>
-154.12410511,176.66038133,-18.74555868,-10.31733139,16.25285263,-1.64375515
-1.20793135,-0.20241038

>  <Name>
ligand

>  <RI>
-1

>  <Rbt.Current_Directory>
/home/itssahil/PROJECTS/Mol_Feturizer/Test_systems_manuscript/rnas/3mum

>  <Rbt.Executable>
rbdock ($Id: //depot/dev/client3/rdock/2013.1/src/exe/rbdock.cxx#4 $)

>  <Rbt.Library>
libRbt.so (2013.1, Build901 2013/11/27)

>  <Rbt.Parameter_File>
/export/apps/rDock/src/rDock_2013.1_src/data/scripts/dock_solv.prm

>  <Rbt.Receptor>
prm/blind_docking_80.prm

>  <SCORE>
6.66427

>  <SCORE.INTER>
5.52132

>  <SCORE.INTER.CONST>
1

>  <SCORE.INTER.POLAR>
0

>  <SCORE.INTER.ROT>
2

>  <SCORE.INTER.SOLV>
39.5834

>  <SCORE.INTER.VDW>
-14.4469

>  <SCORE.INTER.norm>
0.120029

>  <SCORE.INTRA>
0.360354

>  <SCORE.INTRA.DIHEDRAL>
-0.00613213

>  <SCORE.INTRA.DIHEDRAL.0>
2.40424

>  <SCORE.INTRA.POLAR>
0

>  <SCORE.INTRA.POLAR.0>
0

>  <SCORE.INTRA.REPUL>
0

>  <SCORE.INTRA.REPUL.0>
0

>  <SCORE.INTRA.SOLV>
0.0748844

>  <SCORE.INTRA.SOLV.lig_0>
-134.169

>  <SCORE.INTRA.VDW>
0.325978

>  <SCORE.INTRA.VDW.0>
-2.18386

>  <SCORE.INTRA.norm>
0.00783378

>  <SCORE.RESTR>
0.782604

>  <SCORE.RESTR.CAVITY>
0.782604

>  <SCORE.RESTR.norm>
0.0170131

>  <SCORE.SYSTEM>
0

>  <SCORE.SYSTEM.CONST>
0

>  <SCORE.SYSTEM.DIHEDRAL>
0

>  <SCORE.SYSTEM.SOLV>
0

>  <SCORE.SYSTEM.norm>
0

>  <SCORE.heavy>
46

>  <SCORE.norm>
0.144876

>  <RMSD>
17.034

$$$$
ligand
 OpenBabel02271912143D
libRbt.so/2013.1/901 2013/11/27
 46 52  0  0  0  0  0  0  0  0999 V2000
  -18.7252   -9.9061   21.9821 P   0  0  1  0  0  0  0  0  0  0  0  0
  -16.2410   -8.9127   16.7363 P   0  0  2  0  0  0  0  0  0  0  0  0
  -18.7873  -11.6466   22.3115 O   0  5  0  0  0  0  0  0  0  0  0  0
  -19.3309   -8.9536   23.3623 O   0  0  0  0  0  0  0  0  0  0  0  0
  -16.8534   -8.1811   21.2444 C   0  0  0  0  0  0  0  0  0  0  0  0
  -17.1987   -9.5046   21.6537 O   0  0  0  0  0  0  0  0  0  0  0  0
  -15.5022   -8.2246   20.5566 C   0  0  1  0  0  0  0  0  0  0  0  0
  -14.5511   -8.8728   21.4128 O   0  0  0  0  0  0  0  0  0  0  0  0
  -15.5095   -9.0333   19.2696 C   0  0  1  0  0  0  0  0  0  0  0  0
  -15.8004   -8.2271   18.1301 O   0  0  0  0  0  0  0  0  0  0  0  0
  -14.1049   -9.6082   19.2156 C   0  0  1  0  0  0  0  0  0  0  0  0
  -13.2282   -8.6985   18.5461 O   0  0  0  0  0  0  0  0  0  0  0  0
  -13.6688   -9.7239   20.6644 C   0  0  2  0  0  0  0  0  0  0  0  0
  -20.4436  -11.6526   17.9233 C   0  0  1  0  0  0  0  0  0  0  0  0
  -14.7889  -13.0177   24.6755 N   0  0  0  0  0  0  0  0  0  0  0  0
  -14.7831  -11.6567   24.6597 C   0  0  1  0  0  0  0  0  0  0  0  0
  -20.0032  -11.5313   19.3546 C   0  0  2  0  0  0  0  0  0  0  0  0
  -15.0985  -11.0024   25.8012 N   0  0  0  0  0  0  0  0  0  0  0  0
  -21.1934  -11.5264   20.1448 O   0  0  0  0  0  0  0  0  0  0  0  0
  -19.2693  -10.2066   19.4217 C   0  0  2  0  0  0  0  0  0  0  0  0
  -14.4703  -10.9314   23.5449 N   0  0  0  0  0  0  0  0  0  0  0  0
  -19.5276   -9.5237   20.6409 O   0  0  0  0  0  0  0  0  0  0  0  0
  -14.1491  -11.5401   22.3753 C   0  0  2  0  0  0  0  0  0  0  0  0
  -19.8067   -9.4045   18.2528 C   0  0  2  0  0  0  0  0  0  0  0  0
  -20.3330  -10.3586   17.3320 O   0  0  0  0  0  0  0  0  0  0  0  0
  -14.1373  -13.0129   22.3389 C   0  0  1  0  0  0  0  0  0  0  0  0
  -18.7324   -8.5711   17.5631 C   0  0  0  0  0  0  0  0  0  0  0  0
  -17.7316   -9.4436   17.0347 O   0  0  0  0  0  0  0  0  0  0  0  0
  -14.4840  -13.7397   23.5732 C   0  0  0  0  0  0  0  0  0  0  0  0
  -14.4887  -15.0967   23.5989 O   0  0  0  0  0  0  0  0  0  0  0  0
  -13.7898  -13.3682   21.0971 N   0  0  0  0  0  0  0  0  0  0  0  0
  -13.5908  -12.2198   20.3864 C   0  0  0  0  0  0  0  0  0  0  0  0
  -13.8032  -11.1244   21.1458 N   0  0  1  0  0  0  0  0  0  0  0  0
  -20.4511  -16.0251   15.0511 N   0  0  0  0  0  0  0  0  0  0  0  0
  -15.1667  -10.2706   16.3087 O   0  5  0  0  0  0  0  0  0  0  0  0
  -21.4931  -15.3375   15.5938 C   0  0  2  0  0  0  0  0  0  0  0  0
  -22.7595  -15.7896   15.3993 N   0  0  0  0  0  0  0  0  0  0  0  0
  -16.3156   -7.7687   15.3822 O   0  0  0  0  0  0  0  0  0  0  0  0
  -21.3070  -14.2066   16.3277 N   0  0  0  0  0  0  0  0  0  0  0  0
  -20.0703  -13.7036   16.5504 C   0  0  2  0  0  0  0  0  0  0  0  0
  -18.9055  -14.4033   15.9925 C   0  0  2  0  0  0  0  0  0  0  0  0
  -19.1703  -15.6292   15.2094 C   0  0  0  0  0  0  0  0  0  0  0  0
  -18.1584  -16.3436   14.6580 O   0  0  0  0  0  0  0  0  0  0  0  0
  -17.8178  -13.7032   16.3709 N   0  0  0  0  0  0  0  0  0  0  0  0
  -18.2531  -12.6383   17.1081 C   0  0  0  0  0  0  0  0  0  0  0  0
  -19.6012  -12.6453   17.2142 N   0  0  1  0  0  0  0  0  0  0  0  0
  1  3  1  1  0  0  0
  1  4  2  0  0  0  0
  1  6  1  0  0  0  0
  1 22  1  0  0  0  0
  2 28  1  0  0  0  0
  2 35  1  6  0  0  0
  2 38  2  0  0  0  0
  2 10  1  0  0  0  0
  5  6  1  0  0  0  0
  7  5  1  1  0  0  0
  7  8  1  0  0  0  0
  7  9  1  0  0  0  0
  9 10  1  6  0  0  0
  9 11  1  0  0  0  0
 11 12  1  6  0  0  0
 11 13  1  0  0  0  0
 13  8  1  1  0  0  0
 13 33  1  0  0  0  0
 14 46  1  0  0  0  0
 14 17  1  0  0  0  0
 14 25  1  6  0  0  0
 15 16  1  0  0  0  0
 15 29  1  0  0  0  0
 16 18  1  1  0  0  0
 16 21  1  0  0  0  0
 17 19  1  1  0  0  0
 17 20  1  0  0  0  0
 20 22  1  1  0  0  0
 20 24  1  0  0  0  0
 23 21  1  1  0  0  0
 23 26  1  0  0  0  0
 23 33  1  0  0  0  0
 24 25  1  6  0  0  0
 24 27  1  0  0  0  0
 26 29  1  6  0  0  0
 26 31  1  0  0  0  0
 27 28  1  0  0  0  0
 29 30  2  0  0  0  0
 31 32  1  0  0  0  0
 33 32  1  6  0  0  0
 34 36  1  0  0  0  0
 34 42  1  0  0  0  0
 36 37  1  6  0  0  0
 36 39  1  0  0  0  0
 40 39  1  1  0  0  0
 40 41  1  0  0  0  0
 40 46  1  0  0  0  0
 41 42  1  1  0  0  0
 41 44  1  0  0  0  0
 42 43  2  0  0  0  0
 44 45  1  0  0  0  0
 46 45  1  6  0  0  0
M  CHG  2   3  -1  35  -1
M  END
>  <CHROM.1>
-28.48507276,125.24756709,-17.27433340,-11.27101925,19.41098301,0.19891284
0.93484814,2.47026139

>  <Name>
ligand

>  <RI>
0

>  <Rbt.Current_Directory>
/home/itssahil/PROJECTS/Mol_Feturizer/Test_systems_manuscript/rnas/3mum

>  <Rbt.Executable>
rbdock ($Id: //depot/dev/client3/rdock/2013.1/src/exe/rbdock.cxx#4 $)

>  <Rbt.Library>
libRbt.so (2013.1, Build901 2013/11/27)

>  <Rbt.Parameter_File>
/export/apps/rDock/src/rDock_2013.1_src/data/scripts/dock_solv.prm

>  <Rbt.Receptor>
prm/blind_docking_60.prm

>  <SCORE>
12.3062

>  <SCORE.INTER>
8.24316

>  <SCORE.INTER.CONST>
1

>  <SCORE.INTER.POLAR>
0

>  <SCORE.INTER.ROT>
2

>  <SCORE.INTER.SOLV>
32.9248

>  <SCORE.INTER.VDW>
-10.4128

>  <SCORE.INTER.norm>
0.179199

>  <SCORE.INTRA>
-0.162515

>  <SCORE.INTRA.DIHEDRAL>
-0.0075049

>  <SCORE.INTRA.DIHEDRAL.0>
2.40424

>  <SCORE.INTRA.POLAR>
0

>  <SCORE.INTRA.POLAR.0>
0

>  <SCORE.INTRA.REPUL>
0

>  <SCORE.INTRA.REPUL.0>
0

>  <SCORE.INTRA.SOLV>
0.0546404

>  <SCORE.INTRA.SOLV.lig_0>
-134.169

>  <SCORE.INTRA.VDW>
-0.186082

>  <SCORE.INTRA.VDW.0>
-2.18386

>  <SCORE.INTRA.norm>
-0.00353293

>  <SCORE.RESTR>
4.22552

>  <SCORE.RESTR.CAVITY>
4.22552

>  <SCORE.RESTR.norm>
0.0918592

>  <SCORE.SYSTEM>
0

>  <SCORE.SYSTEM.CONST>
0

>  <SCORE.SYSTEM.DIHEDRAL>
0

>  <SCORE.SYSTEM.SOLV>
0

>  <SCORE.SYSTEM.norm>
0

>  <SCORE.heavy>
46

>  <SCORE.norm>
0.267525

>  <RMSD>
17.055

$$$$
ligand
 OpenBabel02271912143D
libRbt.so/2013.1/901 2013/11/27
 46 52  0  0  0  0  0  0  0  0999 V2000
  -15.6277   -9.6693   15.5654 P   0  0  1  0  0  0  0  0  0  0  0  0
  -19.2851  -10.4838   20.1080 P   0  0  2  0  0  0  0  0  0  0  0  0
  -16.4063  -10.1698   14.0538 O   0  5  0  0  0  0  0  0  0  0  0  0
  -14.0131   -8.9712   15.2736 O   0  0  0  0  0  0  0  0  0  0  0  0
  -16.2628   -8.0830   17.5911 C   0  0  0  0  0  0  0  0  0  0  0  0
  -16.5787   -8.5910   16.2948 O   0  0  0  0  0  0  0  0  0  0  0  0
  -17.5234   -7.5032   18.2038 C   0  0  1  0  0  0  0  0  0  0  0  0
  -18.1041   -6.5567   17.2957 O   0  0  0  0  0  0  0  0  0  0  0  0
  -18.6030   -8.5437   18.4534 C   0  0  1  0  0  0  0  0  0  0  0  0
  -18.5114   -9.1105   19.7585 O   0  0  0  0  0  0  0  0  0  0  0  0
  -19.8890   -7.7586   18.2635 C   0  0  1  0  0  0  0  0  0  0  0  0
  -20.2874   -7.1633   19.5009 O   0  0  0  0  0  0  0  0  0  0  0  0
  -19.5370   -6.6534   17.2852 C   0  0  2  0  0  0  0  0  0  0  0  0
  -17.4498  -13.8949   16.7060 C   0  0  1  0  0  0  0  0  0  0  0  0
  -19.9373   -5.2337   12.1845 N   0  0  0  0  0  0  0  0  0  0  0  0
  -19.3785   -4.5536   13.2225 C   0  0  1  0  0  0  0  0  0  0  0  0
  -16.9757  -12.7088   15.9150 C   0  0  2  0  0  0  0  0  0  0  0  0
  -18.8359   -3.3394   12.9734 N   0  0  0  0  0  0  0  0  0  0  0  0
  -15.7941  -13.1265   15.2291 O   0  0  0  0  0  0  0  0  0  0  0  0
  -16.6852  -11.6434   16.9533 C   0  0  2  0  0  0  0  0  0  0  0  0
  -19.3473   -5.0445   14.4972 N   0  0  0  0  0  0  0  0  0  0  0  0
  -15.5328  -10.8827   16.6178 O   0  0  0  0  0  0  0  0  0  0  0  0
  -19.8759   -6.2575   14.7982 C   0  0  2  0  0  0  0  0  0  0  0  0
  -16.4462  -12.4089   18.2399 C   0  0  2  0  0  0  0  0  0  0  0  0
  -17.0831  -13.6738   18.0672 O   0  0  0  0  0  0  0  0  0  0  0  0
  -20.4964   -7.0342   13.7110 C   0  0  1  0  0  0  0  0  0  0  0  0
  -17.0291  -11.7088   19.4624 C   0  0  0  0  0  0  0  0  0  0  0  0
  -18.4456  -11.6008   19.3079 O   0  0  0  0  0  0  0  0  0  0  0  0
  -20.4990   -6.4520   12.3571 C   0  0  0  0  0  0  0  0  0  0  0  0
  -21.0574   -7.1217   11.3170 O   0  0  0  0  0  0  0  0  0  0  0  0
  -20.9430   -8.1728   14.2525 N   0  0  0  0  0  0  0  0  0  0  0  0
  -20.6385   -8.1370   15.5827 C   0  0  0  0  0  0  0  0  0  0  0  0
  -20.0017   -6.9942   15.9143 N   0  0  1  0  0  0  0  0  0  0  0  0
  -21.2719  -16.4208   14.1801 N   0  0  0  0  0  0  0  0  0  0  0  0
  -20.9749  -10.4438   19.5390 O   0  5  0  0  0  0  0  0  0  0  0  0
  -19.9215  -16.5225   14.0427 C   0  0  2  0  0  0  0  0  0  0  0  0
  -19.4108  -17.3958   13.1357 N   0  0  0  0  0  0  0  0  0  0  0  0
  -19.2521  -10.8901   21.8349 O   0  0  0  0  0  0  0  0  0  0  0  0
  -19.0621  -15.7753   14.7879 N   0  0  0  0  0  0  0  0  0  0  0  0
  -19.5103  -14.8934   15.7119 C   0  0  2  0  0  0  0  0  0  0  0  0
  -20.9581  -14.7370   15.9040 C   0  0  2  0  0  0  0  0  0  0  0  0
  -21.8412  -15.5714   15.0615 C   0  0  0  0  0  0  0  0  0  0  0  0
  -23.1909  -15.4943   15.1659 O   0  0  0  0  0  0  0  0  0  0  0  0
  -21.1210  -13.8017   16.8607 N   0  0  0  0  0  0  0  0  0  0  0  0
  -19.8763  -13.3960   17.2520 C   0  0  0  0  0  0  0  0  0  0  0  0
  -18.9169  -14.0507   16.5593 N   0  0  1  0  0  0  0  0  0  0  0  0
  1  3  1  6  0  0  0
  1  4  2  0  0  0  0
  1  6  1  0  0  0  0
  1 22  1  0  0  0  0
  2 28  1  0  0  0  0
  2 35  1  6  0  0  0
  2 38  2  0  0  0  0
  2 10  1  0  0  0  0
  5  6  1  0  0  0  0
  7  5  1  6  0  0  0
  7  8  1  0  0  0  0
  7  9  1  0  0  0  0
  9 10  1  1  0  0  0
  9 11  1  0  0  0  0
 11 12  1  1  0  0  0
 11 13  1  0  0  0  0
 13  8  1  6  0  0  0
 13 33  1  0  0  0  0
 14 46  1  0  0  0  0
 14 17  1  0  0  0  0
 14 25  1  1  0  0  0
 15 16  1  0  0  0  0
 15 29  1  0  0  0  0
 16 18  1  1  0  0  0
 16 21  1  0  0  0  0
 17 19  1  1  0  0  0
 17 20  1  0  0  0  0
 20 22  1  6  0  0  0
 20 24  1  0  0  0  0
 23 21  1  1  0  0  0
 23 26  1  0  0  0  0
 23 33  1  0  0  0  0
 24 25  1  6  0  0  0
 24 27  1  0  0  0  0
 26 29  1  6  0  0  0
 26 31  1  0  0  0  0
 27 28  1  0  0  0  0
 29 30  2  0  0  0  0
 31 32  1  0  0  0  0
 33 32  1  6  0  0  0
 34 36  1  0  0  0  0
 34 42  1  0  0  0  0
 36 37  1  1  0  0  0
 36 39  1  0  0  0  0
 40 39  1  6  0  0  0
 40 41  1  0  0  0  0
 40 46  1  0  0  0  0
 41 42  1  6  0  0  0
 41 44  1  0  0  0  0
 42 43  2  0  0  0  0
 44 45  1  0  0  0  0
 46 45  1  1  0  0  0
M  CHG  2   3  -1  35  -1
M  END
>  <CHROM.1>
-63.89419768,98.12533312,-18.74986021,-10.37601522,16.34138531,-1.43198644
1.18164998,2.89712017

>  <Name>
ligand

>  <RI>
-1

>  <Rbt.Current_Directory>
/home/itssahil/PROJECTS/Mol_Feturizer/Test_systems_manuscript/rnas/3mum

>  <Rbt.Executable>
rbdock ($Id: //depot/dev/client3/rdock/2013.1/src/exe/rbdock.cxx#4 $)

>  <Rbt.Library>
libRbt.so (2013.1, Build901 2013/11/27)

>  <Rbt.Parameter_File>
/export/apps/rDock/src/rDock_2013.1_src/data/scripts/dock_solv.prm

>  <Rbt.Receptor>
prm/blind_docking_80.prm

>  <SCORE>
11.344

>  <SCORE.INTER>
9.89457

>  <SCORE.INTER.CONST>
1

>  <SCORE.INTER.POLAR>
0

>  <SCORE.INTER.ROT>
2

>  <SCORE.INTER.SOLV>
38.1986

>  <SCORE.INTER.VDW>
-11.0698

>  <SCORE.INTER.norm>
0.215099

>  <SCORE.INTRA>
0.383884

>  <SCORE.INTRA.DIHEDRAL>
0.020386

>  <SCORE.INTRA.DIHEDRAL.0>
2.40424

>  <SCORE.INTRA.POLAR>
0

>  <SCORE.INTRA.POLAR.0>
0

>  <SCORE.INTRA.REPUL>
0

>  <SCORE.INTRA.REPUL.0>
0

>  <SCORE.INTRA.SOLV>
0.104206

>  <SCORE.INTRA.SOLV.lig_0>
-134.169

>  <SCORE.INTRA.VDW>
0.321588

>  <SCORE.INTRA.VDW.0>
-2.18386

>  <SCORE.INTRA.norm>
0.00834531

>  <SCORE.RESTR>
1.06551

>  <SCORE.RESTR.CAVITY>
1.06551

>  <SCORE.RESTR.norm>
0.0231632

>  <SCORE.SYSTEM>
0

>  <SCORE.SYSTEM.CONST>
0

>  <SCORE.SYSTEM.DIHEDRAL>
0

>  <SCORE.SYSTEM.SOLV>
0

>  <SCORE.SYSTEM.norm>
0

>  <SCORE.heavy>
46

>  <SCORE.norm>
0.246608

>  <RMSD>
17.067

$$$$
ligand
 OpenBabel02271912143D
libRbt.so/2013.1/901 2013/11/27
 46 52  0  0  0  0  0  0  0  0999 V2000
  -16.0172   -8.7922   16.9983 P   0  0  1  0  0  0  0  0  0  0  0  0
  -19.1710   -9.9145   21.8429 P   0  0  2  0  0  0  0  0  0  0  0  0
  -15.0168  -10.1941   16.5794 O   0  5  0  0  0  0  0  0  0  0  0  0
  -15.8657   -7.4911   15.7886 O   0  0  0  0  0  0  0  0  0  0  0  0
  -18.5798   -8.3839   17.5370 C   0  0  0  0  0  0  0  0  0  0  0  0
  -17.5511   -9.2764   17.1083 O   0  0  0  0  0  0  0  0  0  0  0  0
  -19.7683   -9.2036   18.0021 C   0  0  1  0  0  0  0  0  0  0  0  0
  -20.1441  -10.1276   16.9711 O   0  0  0  0  0  0  0  0  0  0  0  0
  -19.4681  -10.0565   19.2240 C   0  0  1  0  0  0  0  0  0  0  0  0
  -19.7617   -9.3739   20.4409 O   0  0  0  0  0  0  0  0  0  0  0  0
  -20.3580  -11.2706   19.0242 C   0  0  1  0  0  0  0  0  0  0  0  0
  -21.6447  -11.0359   19.6020 O   0  0  0  0  0  0  0  0  0  0  0  0
  -20.5183  -11.4005   17.5209 C   0  0  2  0  0  0  0  0  0  0  0  0
  -14.0606   -9.9314   21.1637 C   0  0  1  0  0  0  0  0  0  0  0  0
  -20.0328  -16.2246   15.3562 N   0  0  0  0  0  0  0  0  0  0  0  0
  -21.1609  -15.5658   15.7382 C   0  0  1  0  0  0  0  0  0  0  0  0
  -14.3509   -9.8647   19.6911 C   0  0  2  0  0  0  0  0  0  0  0  0
  -22.3521  -16.1835   15.5647 N   0  0  0  0  0  0  0  0  0  0  0  0
  -13.2677   -9.1467   19.0976 O   0  0  0  0  0  0  0  0  0  0  0  0
  -15.6600   -9.1072   19.5896 C   0  0  2  0  0  0  0  0  0  0  0  0
  -21.1366  -14.3156   16.2887 N   0  0  0  0  0  0  0  0  0  0  0  0
  -15.6767   -8.2341   18.4685 O   0  0  0  0  0  0  0  0  0  0  0  0
  -19.9681  -13.6530   16.4816 C   0  0  2  0  0  0  0  0  0  0  0  0
  -15.7463   -8.3059   20.8737 C   0  0  2  0  0  0  0  0  0  0  0  0
  -14.8940   -8.9680   21.8067 O   0  0  0  0  0  0  0  0  0  0  0  0
  -18.7164  -14.3230   16.0880 C   0  0  1  0  0  0  0  0  0  0  0  0
  -17.1618   -8.2397   21.4362 C   0  0  0  0  0  0  0  0  0  0  0  0
  -17.6025   -9.5625   21.7492 O   0  0  0  0  0  0  0  0  0  0  0  0
  -18.8070  -15.6709   15.4991 C   0  0  0  0  0  0  0  0  0  0  0  0
  -17.6870  -16.3366   15.1188 O   0  0  0  0  0  0  0  0  0  0  0  0
  -17.7175  -13.4826   16.3793 N   0  0  0  0  0  0  0  0  0  0  0  0
  -18.2754  -12.3598   16.9193 C   0  0  0  0  0  0  0  0  0  0  0  0
  -19.6200  -12.4568   16.9836 N   0  0  1  0  0  0  0  0  0  0  0  0
  -15.6178  -14.7625   19.8974 N   0  0  0  0  0  0  0  0  0  0  0  0
  -19.4086  -11.6736   22.0162 O   0  5  0  0  0  0  0  0  0  0  0  0
  -15.4990  -13.6531   19.1177 C   0  0  2  0  0  0  0  0  0  0  0  0
  -15.8078  -13.7342   17.7971 N   0  0  0  0  0  0  0  0  0  0  0  0
  -19.8467   -9.0843   23.2579 O   0  0  0  0  0  0  0  0  0  0  0  0
  -15.0784  -12.4600   19.6197 N   0  0  0  0  0  0  0  0  0  0  0  0
  -14.7500  -12.3185   20.9252 C   0  0  2  0  0  0  0  0  0  0  0  0
  -14.8606  -13.4800   21.8177 C   0  0  2  0  0  0  0  0  0  0  0  0
  -15.3284  -14.7469   21.2159 C   0  0  0  0  0  0  0  0  0  0  0  0
  -15.4644  -15.8713   21.9613 O   0  0  0  0  0  0  0  0  0  0  0  0
  -14.4884  -13.0609   23.0433 N   0  0  0  0  0  0  0  0  0  0  0  0
  -14.1617  -11.7381   22.9414 C   0  0  0  0  0  0  0  0  0  0  0  0
  -14.3227  -11.2990   21.6725 N   0  0  1  0  0  0  0  0  0  0  0  0
  1  3  1  6  0  0  0
  1  4  2  0  0  0  0
  1  6  1  0  0  0  0
  1 22  1  0  0  0  0
  2 28  1  0  0  0  0
  2 35  1  1  0  0  0
  2 38  2  0  0  0  0
  2 10  1  0  0  0  0
  5  6  1  0  0  0  0
  7  5  1  6  0  0  0
  7  8  1  0  0  0  0
  7  9  1  0  0  0  0
  9 10  1  1  0  0  0
  9 11  1  0  0  0  0
 11 12  1  1  0  0  0
 11 13  1  0  0  0  0
 13  8  1  6  0  0  0
 13 33  1  0  0  0  0
 14 46  1  0  0  0  0
 14 17  1  0  0  0  0
 14 25  1  1  0  0  0
 15 16  1  0  0  0  0
 15 29  1  0  0  0  0
 16 18  1  1  0  0  0
 16 21  1  0  0  0  0
 17 19  1  6  0  0  0
 17 20  1  0  0  0  0
 20 22  1  6  0  0  0
 20 24  1  0  0  0  0
 23 21  1  1  0  0  0
 23 26  1  0  0  0  0
 23 33  1  0  0  0  0
 24 25  1  1  0  0  0
 24 27  1  0  0  0  0
 26 29  1  6  0  0  0
 26 31  1  0  0  0  0
 27 28  1  0  0  0  0
 29 30  2  0  0  0  0
 31 32  1  0  0  0  0
 33 32  1  6  0  0  0
 34 36  1  0  0  0  0
 34 42  1  0  0  0  0
 36 37  1  6  0  0  0
 36 39  1  0  0  0  0
 40 39  1  1  0  0  0
 40 41  1  0  0  0  0
 40 46  1  0  0  0  0
 41 42  1  1  0  0  0
 41 44  1  0  0  0  0
 42 43  2  0  0  0  0
 44 45  1  0  0  0  0
 46 45  1  6  0  0  0
M  CHG  2   3  -1  35  -1
M  END
>  <CHROM.1>
-133.09720543,0.19264304,-17.45779636,-11.45341960,19.00099060,0.78915436
-0.69607930,0.22119353

>  <Name>
ligand

>  <RI>
-1

>  <Rbt.Current_Directory>
/home/itssahil/PROJECTS/Mol_Feturizer/Test_systems_manuscript/rnas/3mum

>  <Rbt.Executable>
rbdock ($Id: //depot/dev/client3/rdock/2013.1/src/exe/rbdock.cxx#4 $)

>  <Rbt.Library>
libRbt.so (2013.1, Build901 2013/11/27)

>  <Rbt.Parameter_File>
/export/apps/rDock/src/rDock_2013.1_src/data/scripts/dock_solv.prm

>  <Rbt.Receptor>
prm/blind_docking_100.prm

>  <SCORE>
16.6655

>  <SCORE.INTER>
11.0943

>  <SCORE.INTER.CONST>
1

>  <SCORE.INTER.POLAR>
0

>  <SCORE.INTER.ROT>
2

>  <SCORE.INTER.SOLV>
33.3944

>  <SCORE.INTER.VDW>
-8.66861

>  <SCORE.INTER.norm>
0.24118

>  <SCORE.INTRA>
3.38405

>  <SCORE.INTRA.DIHEDRAL>
-0.00158698

>  <SCORE.INTRA.DIHEDRAL.0>
2.40424

>  <SCORE.INTRA.POLAR>
0

>  <SCORE.INTRA.POLAR.0>
0

>  <SCORE.INTRA.REPUL>
0

>  <SCORE.INTRA.REPUL.0>
0

>  <SCORE.INTRA.SOLV>
4.13146

>  <SCORE.INTRA.SOLV.lig_0>
-134.169

>  <SCORE.INTRA.VDW>
1.31911

>  <SCORE.INTRA.VDW.0>
-2.18386

>  <SCORE.INTRA.norm>
0.0735663

>  <SCORE.RESTR>
2.1872

>  <SCORE.RESTR.CAVITY>
2.1872

>  <SCORE.RESTR.norm>
0.0475478

>  <SCORE.SYSTEM>
0

>  <SCORE.SYSTEM.CONST>
0

>  <SCORE.SYSTEM.DIHEDRAL>
0

>  <SCORE.SYSTEM.SOLV>
0

>  <SCORE.SYSTEM.norm>
0

>  <SCORE.heavy>
46

>  <SCORE.norm>
0.362294

>  <RMSD>
17.101

$$$$
ligand
 OpenBabel02271912143D
libRbt.so/2013.1/901 2013/11/27
 46 52  0  0  0  0  0  0  0  0999 V2000
  -20.3181  -10.7600   19.0822 P   0  0  1  0  0  0  0  0  0  0  0  0
  -15.8005  -10.5763   15.3094 P   0  0  2  0  0  0  0  0  0  0  0  0
  -21.8385  -11.0117   18.2065 O   0  5  0  0  0  0  0  0  0  0  0  0
  -20.5715  -10.7381   20.8470 O   0  0  0  0  0  0  0  0  0  0  0  0
  -17.9491  -11.9462   19.1487 C   0  0  0  0  0  0  0  0  0  0  0  0
  -19.2975  -11.9413   18.6794 O   0  0  0  0  0  0  0  0  0  0  0  0
  -17.1284  -12.8540   18.2527 C   0  0  1  0  0  0  0  0  0  0  0  0
  -17.7575  -14.1408   18.1716 O   0  0  0  0  0  0  0  0  0  0  0  0
  -17.0327  -12.3563   16.8197 C   0  0  1  0  0  0  0  0  0  0  0  0
  -15.8962  -11.5196   16.6163 O   0  0  0  0  0  0  0  0  0  0  0  0
  -16.9450  -13.6403   16.0137 C   0  0  1  0  0  0  0  0  0  0  0  0
  -15.5797  -14.0438   15.8812 O   0  0  0  0  0  0  0  0  0  0  0  0
  -17.6789  -14.6784   16.8421 C   0  0  2  0  0  0  0  0  0  0  0  0
  -20.0032   -7.6011   15.5610 C   0  0  1  0  0  0  0  0  0  0  0  0
  -21.2517  -13.7048   13.0369 N   0  0  0  0  0  0  0  0  0  0  0  0
  -19.9727  -13.2529   13.1481 C   0  0  1  0  0  0  0  0  0  0  0  0
  -20.5465   -8.6133   16.5293 C   0  0  2  0  0  0  0  0  0  0  0  0
  -19.4963  -12.4365   12.1799 N   0  0  0  0  0  0  0  0  0  0  0  0
  -21.3964   -7.8979   17.4275 O   0  0  0  0  0  0  0  0  0  0  0  0
  -19.3238   -9.1749   17.2274 C   0  0  2  0  0  0  0  0  0  0  0  0
  -19.1586  -13.5867   14.1933 N   0  0  0  0  0  0  0  0  0  0  0  0
  -19.5704   -9.4174   18.6057 O   0  0  0  0  0  0  0  0  0  0  0  0
  -19.5882  -14.4035   15.1882 C   0  0  2  0  0  0  0  0  0  0  0  0
  -18.2605   -8.1057   17.0699 C   0  0  2  0  0  0  0  0  0  0  0  0
  -18.6591   -7.3191   15.9484 O   0  0  0  0  0  0  0  0  0  0  0  0
  -20.9667  -14.9184   15.1179 C   0  0  1  0  0  0  0  0  0  0  0  0
  -16.8724   -8.6837   16.8181 C   0  0  0  0  0  0  0  0  0  0  0  0
  -16.8899   -9.4261   15.5972 O   0  0  0  0  0  0  0  0  0  0  0  0
  -21.7965  -14.5233   13.9657 C   0  0  0  0  0  0  0  0  0  0  0  0
  -23.0740  -14.9663   13.8489 O   0  0  0  0  0  0  0  0  0  0  0  0
  -21.1516  -15.6833   16.1995 N   0  0  0  0  0  0  0  0  0  0  0  0
  -19.9885  -15.6649   16.9139 C   0  0  0  0  0  0  0  0  0  0  0  0
  -19.0513  -14.9007   16.3145 N   0  0  1  0  0  0  0  0  0  0  0  0
  -19.2657   -6.5121   10.4975 N   0  0  0  0  0  0  0  0  0  0  0  0
  -16.2149  -11.4739   13.8251 O   0  5  0  0  0  0  0  0  0  0  0  0
  -19.1131   -5.7160   11.5911 C   0  0  2  0  0  0  0  0  0  0  0  0
  -18.7040   -4.4311   11.4244 N   0  0  0  0  0  0  0  0  0  0  0  0
  -14.2140   -9.8070   15.1118 O   0  0  0  0  0  0  0  0  0  0  0  0
  -19.3573   -6.1671   12.8517 N   0  0  0  0  0  0  0  0  0  0  0  0
  -19.7605   -7.4385   13.0820 C   0  0  2  0  0  0  0  0  0  0  0  0
  -19.9458   -8.3449   11.9411 C   0  0  2  0  0  0  0  0  0  0  0  0
  -19.6708   -7.7961   10.5960 C   0  0  0  0  0  0  0  0  0  0  0  0
  -19.8166   -8.5566    9.4830 O   0  0  0  0  0  0  0  0  0  0  0  0
  -20.3551   -9.5244   12.4486 N   0  0  0  0  0  0  0  0  0  0  0  0
  -20.4218   -9.3844   13.8062 C   0  0  0  0  0  0  0  0  0  0  0  0
  -20.0674   -8.1336   14.1789 N   0  0  1  0  0  0  0  0  0  0  0  0
  1  3  1  6  0  0  0
  1  4  2  0  0  0  0
  1  6  1  0  0  0  0
  1 22  1  0  0  0  0
  2 28  1  0  0  0  0
  2 35  1  6  0  0  0
  2 38  2  0  0  0  0
  2 10  1  0  0  0  0
  5  6  1  0  0  0  0
  7  5  1  1  0  0  0
  7  8  1  0  0  0  0
  7  9  1  0  0  0  0
  9 10  1  1  0  0  0
  9 11  1  0  0  0  0
 11 12  1  1  0  0  0
 11 13  1  0  0  0  0
 13  8  1  1  0  0  0
 13 33  1  0  0  0  0
 14 46  1  0  0  0  0
 14 17  1  0  0  0  0
 14 25  1  1  0  0  0
 15 16  1  0  0  0  0
 15 29  1  0  0  0  0
 16 18  1  1  0  0  0
 16 21  1  0  0  0  0
 17 19  1  1  0  0  0
 17 20  1  0  0  0  0
 20 22  1  1  0  0  0
 20 24  1  0  0  0  0
 23 21  1  1  0  0  0
 23 26  1  0  0  0  0
 23 33  1  0  0  0  0
 24 25  1  6  0  0  0
 24 27  1  0  0  0  0
 26 29  1  6  0  0  0
 26 31  1  0  0  0  0
 27 28  1  0  0  0  0
 29 30  2  0  0  0  0
 31 32  1  0  0  0  0
 33 32  1  6  0  0  0
 34 36  1  0  0  0  0
 34 42  1  0  0  0  0
 36 37  1  1  0  0  0
 36 39  1  0  0  0  0
 40 39  1  6  0  0  0
 40 41  1  0  0  0  0
 40 46  1  0  0  0  0
 41 42  1  6  0  0  0
 41 44  1  0  0  0  0
 42 43  2  0  0  0  0
 44 45  1  0  0  0  0
 46 45  1  1  0  0  0
M  CHG  2   3  -1  35  -1
M  END
>  <CHROM.1>
123.49329090,174.40767308,-18.98865917,-10.80553951,15.42541107,-1.52566672
-1.25843790,-0.59264229

>  <Name>
ligand

>  <RI>
0

>  <Rbt.Current_Directory>
/home/itssahil/PROJECTS/Mol_Feturizer/Test_systems_manuscript/rnas/3mum

>  <Rbt.Executable>
rbdock ($Id: //depot/dev/client3/rdock/2013.1/src/exe/rbdock.cxx#4 $)

>  <Rbt.Library>
libRbt.so (2013.1, Build901 2013/11/27)

>  <Rbt.Parameter_File>
/export/apps/rDock/src/rDock_2013.1_src/data/scripts/dock_solv.prm

>  <Rbt.Receptor>
prm/blind_docking_60.prm

>  <SCORE>
30.6061

>  <SCORE.INTER>
27.3249

>  <SCORE.INTER.CONST>
1

>  <SCORE.INTER.POLAR>
0

>  <SCORE.INTER.ROT>
2

>  <SCORE.INTER.SOLV>
44.2412

>  <SCORE.INTER.VDW>
-1.4638

>  <SCORE.INTER.norm>
0.594019

>  <SCORE.INTRA>
1.53668

>  <SCORE.INTRA.DIHEDRAL>
-0.0134509

>  <SCORE.INTRA.DIHEDRAL.0>
2.40424

>  <SCORE.INTRA.POLAR>
0

>  <SCORE.INTRA.POLAR.0>
0

>  <SCORE.INTRA.REPUL>
0

>  <SCORE.INTRA.REPUL.0>
0

>  <SCORE.INTRA.SOLV>
2.48778

>  <SCORE.INTRA.SOLV.lig_0>
-134.169

>  <SCORE.INTRA.VDW>
0.299514

>  <SCORE.INTRA.VDW.0>
-2.18386

>  <SCORE.INTRA.norm>
0.033406

>  <SCORE.RESTR>
1.74454

>  <SCORE.RESTR.CAVITY>
1.74454

>  <SCORE.RESTR.norm>
0.0379248

>  <SCORE.SYSTEM>
0

>  <SCORE.SYSTEM.CONST>
0

>  <SCORE.SYSTEM.DIHEDRAL>
0

>  <SCORE.SYSTEM.SOLV>
0

>  <SCORE.SYSTEM.norm>
0

>  <SCORE.heavy>
46

>  <SCORE.norm>
0.66535

>  <RMSD>
17.377

$$$$
ligand
 OpenBabel02271912143D
libRbt.so/2013.1/901 2013/11/27
 46 52  0  0  0  0  0  0  0  0999 V2000
  -20.3107  -10.7453   19.0921 P   0  0  1  0  0  0  0  0  0  0  0  0
  -15.8109  -10.5826   15.2972 P   0  0  2  0  0  0  0  0  0  0  0  0
  -21.8356  -10.9987   18.2247 O   0  5  0  0  0  0  0  0  0  0  0  0
  -20.5557  -10.7157   20.8580 O   0  0  0  0  0  0  0  0  0  0  0  0
  -17.9428  -11.9339   19.1523 C   0  0  0  0  0  0  0  0  0  0  0  0
  -19.2934  -11.9294   18.6894 O   0  0  0  0  0  0  0  0  0  0  0  0
  -17.1274  -12.8464   18.2562 C   0  0  1  0  0  0  0  0  0  0  0  0
  -17.7583  -14.1327   18.1835 O   0  0  0  0  0  0  0  0  0  0  0  0
  -17.0380  -12.3547   16.8207 C   0  0  1  0  0  0  0  0  0  0  0  0
  -15.9015  -11.5203   16.6084 O   0  0  0  0  0  0  0  0  0  0  0  0
  -16.9556  -13.6422   16.0197 C   0  0  1  0  0  0  0  0  0  0  0  0
  -15.5914  -14.0478   15.8824 O   0  0  0  0  0  0  0  0  0  0  0  0
  -17.6867  -14.6760   16.8559 C   0  0  2  0  0  0  0  0  0  0  0  0
  -20.0089   -7.6014   15.5563 C   0  0  1  0  0  0  0  0  0  0  0  0
  -21.2623  -13.7497   13.0415 N   0  0  0  0  0  0  0  0  0  0  0  0
  -19.9800  -13.3044   13.1412 C   0  0  1  0  0  0  0  0  0  0  0  0
  -20.5488   -8.6089   16.5314 C   0  0  2  0  0  0  0  0  0  0  0  0
  -19.5006  -12.5096   12.1568 N   0  0  0  0  0  0  0  0  0  0  0  0
  -21.3936   -7.8888   17.4306 O   0  0  0  0  0  0  0  0  0  0  0  0
  -19.3234   -9.1690   17.2260 C   0  0  2  0  0  0  0  0  0  0  0  0
  -19.1656  -13.6241   14.1905 N   0  0  0  0  0  0  0  0  0  0  0  0
  -19.5637   -9.4054   18.6065 O   0  0  0  0  0  0  0  0  0  0  0  0
  -19.5982  -14.4192   15.2016 C   0  0  2  0  0  0  0  0  0  0  0  0
  -18.2597   -8.1017   17.0590 C   0  0  2  0  0  0  0  0  0  0  0  0
  -18.6626   -7.3193   15.9362 O   0  0  0  0  0  0  0  0  0  0  0  0
  -20.9803  -14.9261   15.1441 C   0  0  1  0  0  0  0  0  0  0  0  0
  -16.8734   -8.6824   16.8031 C   0  0  0  0  0  0  0  0  0  0  0  0
  -16.8976   -9.4298   15.5853 O   0  0  0  0  0  0  0  0  0  0  0  0
  -21.8102  -14.5470   13.9867 C   0  0  0  0  0  0  0  0  0  0  0  0
  -23.0910  -14.9836   13.8811 O   0  0  0  0  0  0  0  0  0  0  0  0
  -21.1677  -15.6693   16.2403 N   0  0  0  0  0  0  0  0  0  0  0  0
  -20.0027  -15.6454   16.9515 C   0  0  0  0  0  0  0  0  0  0  0  0
  -19.0618  -14.8989   16.3358 N   0  0  1  0  0  0  0  0  0  0  0  0
  -19.2801   -6.5389   10.4860 N   0  0  0  0  0  0  0  0  0  0  0  0
  -16.2334  -11.4858   13.8186 O   0  5  0  0  0  0  0  0  0  0  0  0
  -19.1196   -5.7389   11.5755 C   0  0  2  0  0  0  0  0  0  0  0  0
  -18.7035   -4.4572   11.4020 N   0  0  0  0  0  0  0  0  0  0  0  0
  -14.2244   -9.8159   15.0888 O   0  0  0  0  0  0  0  0  0  0  0  0
  -19.3627   -6.1830   12.8388 N   0  0  0  0  0  0  0  0  0  0  0  0
  -19.7726   -7.4511   13.0759 C   0  0  2  0  0  0  0  0  0  0  0  0
  -19.9666   -8.3614   11.9396 C   0  0  2  0  0  0  0  0  0  0  0  0
  -19.6923   -7.8201   10.5913 C   0  0  0  0  0  0  0  0  0  0  0  0
  -19.8459   -8.5846    9.4821 O   0  0  0  0  0  0  0  0  0  0  0  0
  -20.3812   -9.5363   12.4535 N   0  0  0  0  0  0  0  0  0  0  0  0
  -20.4431   -9.3898   13.8106 C   0  0  0  0  0  0  0  0  0  0  0  0
  -20.0803   -8.1395   14.1767 N   0  0  1  0  0  0  0  0  0  0  0  0
  1  3  1  6  0  0  0
  1  4  2  0  0  0  0
  1  6  1  0  0  0  0
  1 22  1  0  0  0  0
  2 28  1  0  0  0  0
  2 35  1  6  0  0  0
  2 38  2  0  0  0  0
  2 10  1  0  0  0  0
  5  6  1  0  0  0  0
  7  5  1  1  0  0  0
  7  8  1  0  0  0  0
  7  9  1  0  0  0  0
  9 10  1  1  0  0  0
  9 11  1  0  0  0  0
 11 12  1  1  0  0  0
 11 13  1  0  0  0  0
 13  8  1  1  0  0  0
 13 33  1  0  0  0  0
 14 46  1  0  0  0  0
 14 17  1  0  0  0  0
 14 25  1  1  0  0  0
 15 16  1  0  0  0  0
 15 29  1  0  0  0  0
 16 18  1  1  0  0  0
 16 21  1  0  0  0  0
 17 19  1  1  0  0  0
 17 20  1  0  0  0  0
 20 22  1  1  0  0  0
 20 24  1  0  0  0  0
 23 21  1  1  0  0  0
 23 26  1  0  0  0  0
 23 33  1  0  0  0  0
 24 25  1  6  0  0  0
 24 27  1  0  0  0  0
 26 29  1  6  0  0  0
 26 31  1  0  0  0  0
 27 28  1  0  0  0  0
 29 30  2  0  0  0  0
 31 32  1  0  0  0  0
 33 32  1  6  0  0  0
 34 36  1  0  0  0  0
 34 42  1  0  0  0  0
 36 37  1  1  0  0  0
 36 39  1  0  0  0  0
 40 39  1  6  0  0  0
 40 41  1  0  0  0  0
 40 46  1  0  0  0  0
 41 42  1  6  0  0  0
 41 44  1  0  0  0  0
 42 43  2  0  0  0  0
 44 45  1  0  0  0  0
 46 45  1  1  0  0  0
M  CHG  2   3  -1  35  -1
M  END
>  <CHROM.1>
124.39571176,174.69416438,-18.99565398,-10.81189080,15.42699531,-1.52574477
-1.26050394,-0.59525020

>  <Name>
ligand

>  <RI>
-1

>  <Rbt.Current_Directory>
/home/itssahil/PROJECTS/Mol_Feturizer/Test_systems_manuscript/rnas/3mum

>  <Rbt.Executable>
rbdock ($Id: //depot/dev/client3/rdock/2013.1/src/exe/rbdock.cxx#4 $)

>  <Rbt.Library>
libRbt.so (2013.1, Build901 2013/11/27)

>  <Rbt.Parameter_File>
/export/apps/rDock/src/rDock_2013.1_src/data/scripts/dock_solv.prm

>  <Rbt.Receptor>
prm/blind_docking_40.prm

>  <SCORE>
29.4063

>  <SCORE.INTER>
27.2335

>  <SCORE.INTER.CONST>
1

>  <SCORE.INTER.POLAR>
0

>  <SCORE.INTER.ROT>
2

>  <SCORE.INTER.SOLV>
44.376

>  <SCORE.INTER.VDW>
-1.56966

>  <SCORE.INTER.norm>
0.592033

>  <SCORE.INTRA>
1.48842

>  <SCORE.INTRA.DIHEDRAL>
-0.013224

>  <SCORE.INTRA.DIHEDRAL.0>
2.40424

>  <SCORE.INTRA.POLAR>
0

>  <SCORE.INTRA.POLAR.0>
0

>  <SCORE.INTRA.REPUL>
0

>  <SCORE.INTRA.REPUL.0>
0

>  <SCORE.INTRA.SOLV>
2.34677

>  <SCORE.INTRA.SOLV.lig_0>
-134.169

>  <SCORE.INTRA.VDW>
0.321645

>  <SCORE.INTRA.VDW.0>
-2.18386

>  <SCORE.INTRA.norm>
0.0323569

>  <SCORE.RESTR>
0.684423

>  <SCORE.RESTR.CAVITY>
0.684423

>  <SCORE.RESTR.norm>
0.0148788

>  <SCORE.SYSTEM>
0

>  <SCORE.SYSTEM.CONST>
0

>  <SCORE.SYSTEM.DIHEDRAL>
0

>  <SCORE.SYSTEM.SOLV>
0

>  <SCORE.SYSTEM.norm>
0

>  <SCORE.heavy>
46

>  <SCORE.norm>
0.639268

>  <RMSD>
17.385

$$$$
ligand
 OpenBabel02271912143D
libRbt.so/2013.1/901 2013/11/27
 46 52  0  0  0  0  0  0  0  0999 V2000
  -20.3181  -10.7496   19.0902 P   0  0  1  0  0  0  0  0  0  0  0  0
  -15.8212  -10.5670   15.2928 P   0  0  2  0  0  0  0  0  0  0  0  0
  -21.8430  -11.0040   18.2232 O   0  5  0  0  0  0  0  0  0  0  0  0
  -20.5620  -10.7253   20.8564 O   0  0  0  0  0  0  0  0  0  0  0  0
  -17.9477  -11.9333   19.1456 C   0  0  0  0  0  0  0  0  0  0  0  0
  -19.2986  -11.9304   18.6836 O   0  0  0  0  0  0  0  0  0  0  0  0
  -17.1309  -12.8417   18.2465 C   0  0  1  0  0  0  0  0  0  0  0  0
  -17.7592  -14.1291   18.1707 O   0  0  0  0  0  0  0  0  0  0  0  0
  -17.0435  -12.3459   16.8123 C   0  0  1  0  0  0  0  0  0  0  0  0
  -15.9089  -11.5084   16.6015 O   0  0  0  0  0  0  0  0  0  0  0  0
  -16.9589  -13.6310   16.0077 C   0  0  1  0  0  0  0  0  0  0  0  0
  -15.5939  -14.0334   15.8684 O   0  0  0  0  0  0  0  0  0  0  0  0
  -17.6873  -14.6686   16.8416 C   0  0  2  0  0  0  0  0  0  0  0  0
  -20.0254   -7.5955   15.5628 C   0  0  1  0  0  0  0  0  0  0  0  0
  -21.2635  -13.7493   13.0261 N   0  0  0  0  0  0  0  0  0  0  0  0
  -19.9815  -13.3031   13.1252 C   0  0  1  0  0  0  0  0  0  0  0  0
  -20.5625   -8.6068   16.5355 C   0  0  2  0  0  0  0  0  0  0  0  0
  -19.5026  -12.5092   12.1398 N   0  0  0  0  0  0  0  0  0  0  0  0
  -21.4082   -7.8909   17.4372 O   0  0  0  0  0  0  0  0  0  0  0  0
  -19.3355   -9.1661   17.2278 C   0  0  2  0  0  0  0  0  0  0  0  0
  -19.1669  -13.6210   14.1749 N   0  0  0  0  0  0  0  0  0  0  0  0
  -19.5743   -9.4069   18.6078 O   0  0  0  0  0  0  0  0  0  0  0  0
  -19.5990  -14.4151   15.1870 C   0  0  2  0  0  0  0  0  0  0  0  0
  -18.2741   -8.0961   17.0630 C   0  0  2  0  0  0  0  0  0  0  0  0
  -18.6795   -7.3115   15.9425 O   0  0  0  0  0  0  0  0  0  0  0  0
  -20.9807  -14.9229   15.1302 C   0  0  1  0  0  0  0  0  0  0  0  0
  -16.8868   -8.6732   16.8045 C   0  0  0  0  0  0  0  0  0  0  0  0
  -16.9102   -9.4173   15.5848 O   0  0  0  0  0  0  0  0  0  0  0  0
  -21.8109  -14.5458   13.9724 C   0  0  0  0  0  0  0  0  0  0  0  0
  -23.0915  -14.9833   13.8674 O   0  0  0  0  0  0  0  0  0  0  0  0
  -21.1676  -15.6649   16.2273 N   0  0  0  0  0  0  0  0  0  0  0  0
  -20.0027  -15.6393   16.9385 C   0  0  0  0  0  0  0  0  0  0  0  0
  -19.0623  -14.8930   16.3218 N   0  0  1  0  0  0  0  0  0  0  0  0
  -19.5521   -6.4479   10.4807 N   0  0  0  0  0  0  0  0  0  0  0  0
  -16.2428  -11.4671   13.8120 O   0  5  0  0  0  0  0  0  0  0  0  0
  -19.4233   -5.6433   11.5712 C   0  0  2  0  0  0  0  0  0  0  0  0
  -19.1209   -4.3305   11.3950 N   0  0  0  0  0  0  0  0  0  0  0  0
  -14.2366   -9.7964   15.0854 O   0  0  0  0  0  0  0  0  0  0  0  0
  -19.5876   -6.1131   12.8379 N   0  0  0  0  0  0  0  0  0  0  0  0
  -19.8830   -7.4122   13.0775 C   0  0  2  0  0  0  0  0  0  0  0  0
  -20.0375   -8.3292   11.9404 C   0  0  2  0  0  0  0  0  0  0  0  0
  -19.8530   -7.7594   10.5886 C   0  0  0  0  0  0  0  0  0  0  0  0
  -19.9784   -8.5279    9.4785 O   0  0  0  0  0  0  0  0  0  0  0  0
  -20.3363   -9.5373   12.4576 N   0  0  0  0  0  0  0  0  0  0  0  0
  -20.3660   -9.4041   13.8172 C   0  0  0  0  0  0  0  0  0  0  0  0
  -20.0966   -8.1300   14.1818 N   0  0  1  0  0  0  0  0  0  0  0  0
  1  3  1  6  0  0  0
  1  4  2  0  0  0  0
  1  6  1  0  0  0  0
  1 22  1  0  0  0  0
  2 28  1  0  0  0  0
  2 35  1  6  0  0  0
  2 38  2  0  0  0  0
  2 10  1  0  0  0  0
  5  6  1  0  0  0  0
  7  5  1  1  0  0  0
  7  8  1  0  0  0  0
  7  9  1  0  0  0  0
  9 10  1  1  0  0  0
  9 11  1  0  0  0  0
 11 12  1  1  0  0  0
 11 13  1  0  0  0  0
 13  8  1  1  0  0  0
 13 33  1  0  0  0  0
 14 46  1  0  0  0  0
 14 17  1  0  0  0  0
 14 25  1  1  0  0  0
 15 16  1  0  0  0  0
 15 29  1  0  0  0  0
 16 18  1  1  0  0  0
 16 21  1  0  0  0  0
 17 19  1  1  0  0  0
 17 20  1  0  0  0  0
 20 22  1  1  0  0  0
 20 24  1  0  0  0  0
 23 21  1  1  0  0  0
 23 26  1  0  0  0  0
 23 33  1  0  0  0  0
 24 25  1  6  0  0  0
 24 27  1  0  0  0  0
 26 29  1  6  0  0  0
 26 31  1  0  0  0  0
 27 28  1  0  0  0  0
 29 30  2  0  0  0  0
 31 32  1  0  0  0  0
 33 32  1  6  0  0  0
 34 36  1  0  0  0  0
 34 42  1  0  0  0  0
 36 37  1  1  0  0  0
 36 39  1  0  0  0  0
 40 39  1  6  0  0  0
 40 41  1  0  0  0  0
 40 46  1  0  0  0  0
 41 42  1  6  0  0  0
 41 44  1  0  0  0  0
 42 43  2  0  0  0  0
 44 45  1  0  0  0  0
 46 45  1  1  0  0  0
M  CHG  2   3  -1  35  -1
M  END
>  <CHROM.1>
124.64172036,169.70350136,-19.03233715,-10.79680653,15.42185824,-1.42831418
-1.25231096,-0.49872792

>  <Name>
ligand

>  <RI>
-1

>  <Rbt.Current_Directory>
/home/itssahil/PROJECTS/Mol_Feturizer/Test_systems_manuscript/rnas/3mum

>  <Rbt.Executable>
rbdock ($Id: //depot/dev/client3/rdock/2013.1/src/exe/rbdock.cxx#4 $)

>  <Rbt.Library>
libRbt.so (2013.1, Build901 2013/11/27)

>  <Rbt.Parameter_File>
/export/apps/rDock/src/rDock_2013.1_src/data/scripts/dock_solv.prm

>  <Rbt.Receptor>
prm/blind_docking_40.prm

>  <SCORE>
29.5391

>  <SCORE.INTER>
27.3958

>  <SCORE.INTER.CONST>
1

>  <SCORE.INTER.POLAR>
0

>  <SCORE.INTER.ROT>
2

>  <SCORE.INTER.SOLV>
43.675

>  <SCORE.INTER.VDW>
-1.22781

>  <SCORE.INTER.norm>
0.59556

>  <SCORE.INTRA>
1.47224

>  <SCORE.INTRA.DIHEDRAL>
-0.0197953

>  <SCORE.INTRA.DIHEDRAL.0>
2.40424

>  <SCORE.INTRA.POLAR>
0

>  <SCORE.INTRA.POLAR.0>
0

>  <SCORE.INTRA.REPUL>
0

>  <SCORE.INTRA.REPUL.0>
0

>  <SCORE.INTRA.SOLV>
2.3663

>  <SCORE.INTRA.SOLV.lig_0>
-134.169

>  <SCORE.INTRA.VDW>
0.298986

>  <SCORE.INTRA.VDW.0>
-2.18386

>  <SCORE.INTRA.norm>
0.0320052

>  <SCORE.RESTR>
0.671093

>  <SCORE.RESTR.CAVITY>
0.671093

>  <SCORE.RESTR.norm>
0.014589

>  <SCORE.SYSTEM>
0

>  <SCORE.SYSTEM.CONST>
0

>  <SCORE.SYSTEM.DIHEDRAL>
0

>  <SCORE.SYSTEM.SOLV>
0

>  <SCORE.SYSTEM.norm>
0

>  <SCORE.heavy>
46

>  <SCORE.norm>
0.642155

>  <RMSD>
17.406

$$$$
ligand
 OpenBabel02271912143D
libRbt.so/2013.1/901 2013/11/27
 46 52  0  0  0  0  0  0  0  0999 V2000
  -20.3142  -10.7589   19.0947 P   0  0  1  0  0  0  0  0  0  0  0  0
  -15.8181  -10.5861   15.2958 P   0  0  2  0  0  0  0  0  0  0  0  0
  -21.8402  -11.0073   18.2279 O   0  5  0  0  0  0  0  0  0  0  0  0
  -20.5573  -10.7361   20.8610 O   0  0  0  0  0  0  0  0  0  0  0  0
  -17.9475  -11.9503   19.1478 C   0  0  0  0  0  0  0  0  0  0  0  0
  -19.2985  -11.9425   18.6862 O   0  0  0  0  0  0  0  0  0  0  0  0
  -17.1340  -12.8602   18.2472 C   0  0  1  0  0  0  0  0  0  0  0  0
  -17.7664  -14.1455   18.1700 O   0  0  0  0  0  0  0  0  0  0  0  0
  -17.0455  -12.3629   16.8136 C   0  0  1  0  0  0  0  0  0  0  0  0
  -15.9083  -11.5289   16.6034 O   0  0  0  0  0  0  0  0  0  0  0  0
  -16.9653  -13.6473   16.0073 C   0  0  1  0  0  0  0  0  0  0  0  0
  -15.6017  -14.0539   15.8670 O   0  0  0  0  0  0  0  0  0  0  0  0
  -17.6967  -14.6836   16.8403 C   0  0  2  0  0  0  0  0  0  0  0  0
  -20.0126   -7.6014   15.5711 C   0  0  1  0  0  0  0  0  0  0  0  0
  -21.2628  -13.7704   13.0138 N   0  0  0  0  0  0  0  0  0  0  0  0
  -19.9780  -13.3319   13.1108 C   0  0  1  0  0  0  0  0  0  0  0  0
  -20.5525   -8.6122   16.5427 C   0  0  2  0  0  0  0  0  0  0  0  0
  -19.4928  -12.5488   12.1198 N   0  0  0  0  0  0  0  0  0  0  0  0
  -21.3957   -7.8947   17.4457 O   0  0  0  0  0  0  0  0  0  0  0  0
  -19.3271   -9.1763   17.2338 C   0  0  2  0  0  0  0  0  0  0  0  0
  -19.1665  -13.6470   14.1639 N   0  0  0  0  0  0  0  0  0  0  0  0
  -19.5662   -9.4180   18.6136 O   0  0  0  0  0  0  0  0  0  0  0  0
  -19.6049  -14.4303   15.1816 C   0  0  2  0  0  0  0  0  0  0  0  0
  -18.2624   -8.1096   17.0700 C   0  0  2  0  0  0  0  0  0  0  0  0
  -18.6656   -7.3223   15.9506 O   0  0  0  0  0  0  0  0  0  0  0  0
  -20.9900  -14.9294   15.1273 C   0  0  1  0  0  0  0  0  0  0  0  0
  -16.8770   -8.6907   16.8103 C   0  0  0  0  0  0  0  0  0  0  0  0
  -16.9032   -9.4333   15.5896 O   0  0  0  0  0  0  0  0  0  0  0  0
  -21.8165  -14.5559   13.9656 C   0  0  0  0  0  0  0  0  0  0  0  0
  -23.0997  -14.9857   13.8626 O   0  0  0  0  0  0  0  0  0  0  0  0
  -21.1829  -15.6617   16.2298 N   0  0  0  0  0  0  0  0  0  0  0  0
  -20.0186  -15.6382   16.9421 C   0  0  0  0  0  0  0  0  0  0  0  0
  -19.0726  -14.9030   16.3207 N   0  0  1  0  0  0  0  0  0  0  0  0
  -19.6823   -6.4179   10.4859 N   0  0  0  0  0  0  0  0  0  0  0  0
  -16.2431  -11.4830   13.8140 O   0  5  0  0  0  0  0  0  0  0  0  0
  -19.5683   -5.6121   11.5771 C   0  0  2  0  0  0  0  0  0  0  0  0
  -19.3259   -4.2869   11.4008 N   0  0  0  0  0  0  0  0  0  0  0  0
  -14.2310   -9.8203   15.0888 O   0  0  0  0  0  0  0  0  0  0  0  0
  -19.6890   -6.0927   12.8447 N   0  0  0  0  0  0  0  0  0  0  0  0
  -19.9237   -7.4041   13.0843 C   0  0  2  0  0  0  0  0  0  0  0  0
  -20.0594   -8.3232   11.9465 C   0  0  2  0  0  0  0  0  0  0  0  0
  -19.9244   -7.7416   10.5939 C   0  0  0  0  0  0  0  0  0  0  0  0
  -20.0370   -8.5111    9.4832 O   0  0  0  0  0  0  0  0  0  0  0  0
  -20.2965   -9.5447   12.4642 N   0  0  0  0  0  0  0  0  0  0  0  0
  -20.3070   -9.4174   13.8246 C   0  0  0  0  0  0  0  0  0  0  0  0
  -20.0860   -8.1340   14.1894 N   0  0  1  0  0  0  0  0  0  0  0  0
  1  3  1  6  0  0  0
  1  4  2  0  0  0  0
  1  6  1  0  0  0  0
  1 22  1  0  0  0  0
  2 28  1  0  0  0  0
  2 35  1  6  0  0  0
  2 38  2  0  0  0  0
  2 10  1  0  0  0  0
  5  6  1  0  0  0  0
  7  5  1  1  0  0  0
  7  8  1  0  0  0  0
  7  9  1  0  0  0  0
  9 10  1  1  0  0  0
  9 11  1  0  0  0  0
 11 12  1  1  0  0  0
 11 13  1  0  0  0  0
 13  8  1  1  0  0  0
 13 33  1  0  0  0  0
 14 46  1  0  0  0  0
 14 17  1  0  0  0  0
 14 25  1  1  0  0  0
 15 16  1  0  0  0  0
 15 29  1  0  0  0  0
 16 18  1  1  0  0  0
 16 21  1  0  0  0  0
 17 19  1  1  0  0  0
 17 20  1  0  0  0  0
 20 22  1  1  0  0  0
 20 24  1  0  0  0  0
 23 21  1  1  0  0  0
 23 26  1  0  0  0  0
 23 33  1  0  0  0  0
 24 25  1  6  0  0  0
 24 27  1  0  0  0  0
 26 29  1  6  0  0  0
 26 31  1  0  0  0  0
 27 28  1  0  0  0  0
 29 30  2  0  0  0  0
 31 32  1  0  0  0  0
 33 32  1  6  0  0  0
 34 36  1  0  0  0  0
 34 42  1  0  0  0  0
 36 37  1  1  0  0  0
 36 39  1  0  0  0  0
 40 39  1  6  0  0  0
 40 41  1  0  0  0  0
 40 46  1  0  0  0  0
 41 42  1  6  0  0  0
 41 44  1  0  0  0  0
 42 43  2  0  0  0  0
 44 45  1  0  0  0  0
 46 45  1  1  0  0  0
M  CHG  2   3  -1  35  -1
M  END
>  <CHROM.1>
125.19910068,166.85824624,-19.04477687,-10.80472853,15.42386699,-1.38609012
-1.24709273,-0.45624729

>  <Name>
ligand

>  <RI>
-1

>  <Rbt.Current_Directory>
/home/itssahil/PROJECTS/Mol_Feturizer/Test_systems_manuscript/rnas/3mum

>  <Rbt.Executable>
rbdock ($Id: //depot/dev/client3/rdock/2013.1/src/exe/rbdock.cxx#4 $)

>  <Rbt.Library>
libRbt.so (2013.1, Build901 2013/11/27)

>  <Rbt.Parameter_File>
/export/apps/rDock/src/rDock_2013.1_src/data/scripts/dock_solv.prm

>  <Rbt.Receptor>
prm/blind_docking_40.prm

>  <SCORE>
29.4661

>  <SCORE.INTER>
27.3702

>  <SCORE.INTER.CONST>
1

>  <SCORE.INTER.POLAR>
0

>  <SCORE.INTER.ROT>
2

>  <SCORE.INTER.SOLV>
43.6497

>  <SCORE.INTER.VDW>
-1.23646

>  <SCORE.INTER.norm>
0.595004

>  <SCORE.INTRA>
1.42083

>  <SCORE.INTRA.DIHEDRAL>
-0.0231973

>  <SCORE.INTRA.DIHEDRAL.0>
2.40424

>  <SCORE.INTRA.POLAR>
0

>  <SCORE.INTRA.POLAR.0>
0

>  <SCORE.INTRA.REPUL>
0

>  <SCORE.INTRA.REPUL.0>
0

>  <SCORE.INTRA.SOLV>
2.30668

>  <SCORE.INTRA.SOLV.lig_0>
-134.169

>  <SCORE.INTRA.VDW>
0.279086

>  <SCORE.INTRA.VDW.0>
-2.18386

>  <SCORE.INTRA.norm>
0.0308875

>  <SCORE.RESTR>
0.67505

>  <SCORE.RESTR.CAVITY>
0.67505

>  <SCORE.RESTR.norm>
0.014675

>  <SCORE.SYSTEM>
0

>  <SCORE.SYSTEM.CONST>
0

>  <SCORE.SYSTEM.DIHEDRAL>
0

>  <SCORE.SYSTEM.SOLV>
0

>  <SCORE.SYSTEM.norm>
0

>  <SCORE.heavy>
46

>  <SCORE.norm>
0.640566

>  <RMSD>
17.422

$$$$
ligand
 OpenBabel02271912143D
libRbt.so/2013.1/901 2013/11/27
 46 52  0  0  0  0  0  0  0  0999 V2000
  -20.3284  -10.7584   19.0575 P   0  0  1  0  0  0  0  0  0  0  0  0
  -15.8224  -10.6186   15.2690 P   0  0  2  0  0  0  0  0  0  0  0  0
  -21.8472  -11.0553   18.1933 O   0  5  0  0  0  0  0  0  0  0  0  0
  -20.5781  -10.6905   20.8217 O   0  0  0  0  0  0  0  0  0  0  0  0
  -17.9432  -11.9096   19.1508 C   0  0  0  0  0  0  0  0  0  0  0  0
  -19.2925  -11.9364   18.6851 O   0  0  0  0  0  0  0  0  0  0  0  0
  -17.1120  -12.8309   18.2784 C   0  0  1  0  0  0  0  0  0  0  0  0
  -17.7235  -14.1279   18.2350 O   0  0  0  0  0  0  0  0  0  0  0  0
  -17.0266  -12.3722   16.8317 C   0  0  1  0  0  0  0  0  0  0  0  0
  -15.9021  -11.5261   16.6020 O   0  0  0  0  0  0  0  0  0  0  0  0
  -16.9230  -13.6770   16.0618 C   0  0  1  0  0  0  0  0  0  0  0  0
  -15.5526  -14.0653   15.9370 O   0  0  0  0  0  0  0  0  0  0  0  0
  -17.6406  -14.7014   16.9209 C   0  0  2  0  0  0  0  0  0  0  0  0
  -20.0651   -7.6954   15.4484 C   0  0  1  0  0  0  0  0  0  0  0  0
  -21.2894  -13.7580   13.1807 N   0  0  0  0  0  0  0  0  0  0  0  0
  -20.0250  -13.2660   13.2886 C   0  0  1  0  0  0  0  0  0  0  0  0
  -20.5922   -8.6874   16.4461 C   0  0  2  0  0  0  0  0  0  0  0  0
  -19.5879  -12.4111   12.3353 N   0  0  0  0  0  0  0  0  0  0  0  0
  -21.4499   -7.9588   17.3262 O   0  0  0  0  0  0  0  0  0  0  0  0
  -19.3603   -9.2123   17.1564 C   0  0  2  0  0  0  0  0  0  0  0  0
  -19.1877  -13.5971   14.3162 N   0  0  0  0  0  0  0  0  0  0  0  0
  -19.6003   -9.4195   18.5416 O   0  0  0  0  0  0  0  0  0  0  0  0
  -19.5777  -14.4516   15.2956 C   0  0  2  0  0  0  0  0  0  0  0  0
  -18.3123   -8.1335   16.9662 C   0  0  2  0  0  0  0  0  0  0  0  0
  -18.7242   -7.3842   15.8242 O   0  0  0  0  0  0  0  0  0  0  0  0
  -20.9390  -15.0109   15.2282 C   0  0  1  0  0  0  0  0  0  0  0  0
  -16.9169   -8.6993   16.7269 C   0  0  0  0  0  0  0  0  0  0  0  0
  -16.9269   -9.4757   15.5273 O   0  0  0  0  0  0  0  0  0  0  0  0
  -21.7953  -14.6166   14.0954 C   0  0  0  0  0  0  0  0  0  0  0  0
  -23.0586  -15.0995   13.9820 O   0  0  0  0  0  0  0  0  0  0  0  0
  -21.0852  -15.8073   16.2928 N   0  0  0  0  0  0  0  0  0  0  0  0
  -19.9149  -15.7667   16.9945 C   0  0  0  0  0  0  0  0  0  0  0  0
  -19.0110  -14.9573   16.4034 N   0  0  1  0  0  0  0  0  0  0  0  0
  -19.6543   -6.6634   10.3362 N   0  0  0  0  0  0  0  0  0  0  0  0
  -16.2279  -11.5630   13.8114 O   0  5  0  0  0  0  0  0  0  0  0  0
  -19.5470   -5.8274   11.4051 C   0  0  2  0  0  0  0  0  0  0  0  0
  -19.2891   -4.5103   11.1938 N   0  0  0  0  0  0  0  0  0  0  0  0
  -14.2471   -9.8334   15.0456 O   0  0  0  0  0  0  0  0  0  0  0  0
  -19.6896   -6.2698   12.6842 N   0  0  0  0  0  0  0  0  0  0  0  0
  -19.9407   -7.5713   12.9585 C   0  0  2  0  0  0  0  0  0  0  0  0
  -20.0702   -8.5217   11.8460 C   0  0  2  0  0  0  0  0  0  0  0  0
  -19.9111   -7.9810   10.4791 C   0  0  0  0  0  0  0  0  0  0  0  0
  -20.0163   -8.7814    9.3897 O   0  0  0  0  0  0  0  0  0  0  0  0
  -20.3264   -9.7254   12.3955 N   0  0  0  0  0  0  0  0  0  0  0  0
  -20.3540   -9.5584   13.7513 C   0  0  0  0  0  0  0  0  0  0  0  0
  -20.1252   -8.2672   14.0819 N   0  0  1  0  0  0  0  0  0  0  0  0
  1  3  1  6  0  0  0
  1  4  2  0  0  0  0
  1  6  1  0  0  0  0
  1 22  1  0  0  0  0
  2 28  1  0  0  0  0
  2 35  1  6  0  0  0
  2 38  2  0  0  0  0
  2 10  1  0  0  0  0
  5  6  1  0  0  0  0
  7  5  1  1  0  0  0
  7  8  1  0  0  0  0
  7  9  1  0  0  0  0
  9 10  1  1  0  0  0
  9 11  1  0  0  0  0
 11 12  1  1  0  0  0
 11 13  1  0  0  0  0
 13  8  1  1  0  0  0
 13 33  1  0  0  0  0
 14 46  1  0  0  0  0
 14 17  1  0  0  0  0
 14 25  1  1  0  0  0
 15 16  1  0  0  0  0
 15 29  1  0  0  0  0
 16 18  1  1  0  0  0
 16 21  1  0  0  0  0
 17 19  1  1  0  0  0
 17 20  1  0  0  0  0
 20 22  1  1  0  0  0
 20 24  1  0  0  0  0
 23 21  1  1  0  0  0
 23 26  1  0  0  0  0
 23 33  1  0  0  0  0
 24 25  1  6  0  0  0
 24 27  1  0  0  0  0
 26 29  1  6  0  0  0
 26 31  1  0  0  0  0
 27 28  1  0  0  0  0
 29 30  2  0  0  0  0
 31 32  1  0  0  0  0
 33 32  1  6  0  0  0
 34 36  1  0  0  0  0
 34 42  1  0  0  0  0
 36 37  1  1  0  0  0
 36 39  1  0  0  0  0
 40 39  1  6  0  0  0
 40 41  1  0  0  0  0
 40 46  1  0  0  0  0
 41 42  1  6  0  0  0
 41 44  1  0  0  0  0
 42 43  2  0  0  0  0
 44 45  1  0  0  0  0
 46 45  1  1  0  0  0
M  CHG  2   3  -1  35  -1
M  END
>  <CHROM.1>
120.25135214,168.45586647,-19.04554566,-10.86624860,15.40660467,-1.38616232
-1.22719490,-0.49405711

>  <Name>
ligand

>  <RI>
-1

>  <Rbt.Current_Directory>
/home/itssahil/PROJECTS/Mol_Feturizer/Test_systems_manuscript/rnas/3mum

>  <Rbt.Executable>
rbdock ($Id: //depot/dev/client3/rdock/2013.1/src/exe/rbdock.cxx#4 $)

>  <Rbt.Library>
libRbt.so (2013.1, Build901 2013/11/27)

>  <Rbt.Parameter_File>
/export/apps/rDock/src/rDock_2013.1_src/data/scripts/dock_solv.prm

>  <Rbt.Receptor>
prm/blind_docking_80.prm

>  <SCORE>
27.9506

>  <SCORE.INTER>
26.0559

>  <SCORE.INTER.CONST>
1

>  <SCORE.INTER.POLAR>
0

>  <SCORE.INTER.ROT>
2

>  <SCORE.INTER.SOLV>
43.0109

>  <SCORE.INTER.VDW>
-1.89968

>  <SCORE.INTER.norm>
0.566434

>  <SCORE.INTRA>
1.72031

>  <SCORE.INTRA.DIHEDRAL>
-0.0204642

>  <SCORE.INTRA.DIHEDRAL.0>
2.40424

>  <SCORE.INTRA.POLAR>
0

>  <SCORE.INTRA.POLAR.0>
0

>  <SCORE.INTRA.REPUL>
0

>  <SCORE.INTRA.REPUL.0>
0

>  <SCORE.INTRA.SOLV>
3.05117

>  <SCORE.INTRA.SOLV.lig_0>
-134.169

>  <SCORE.INTRA.VDW>
0.204955

>  <SCORE.INTRA.VDW.0>
-2.18386

>  <SCORE.INTRA.norm>
0.037398

>  <SCORE.RESTR>
0.17436

>  <SCORE.RESTR.CAVITY>
0.17436

>  <SCORE.RESTR.norm>
0.00379044

>  <SCORE.SYSTEM>
0

>  <SCORE.SYSTEM.CONST>
0

>  <SCORE.SYSTEM.DIHEDRAL>
0

>  <SCORE.SYSTEM.SOLV>
0

>  <SCORE.SYSTEM.norm>
0

>  <SCORE.heavy>
46

>  <SCORE.norm>
0.607622

>  <RMSD>
17.448

$$$$
ligand
 OpenBabel02271912143D
libRbt.so/2013.1/901 2013/11/27
 46 52  0  0  0  0  0  0  0  0999 V2000
  -20.3740  -11.1541   19.1260 P   0  0  1  0  0  0  0  0  0  0  0  0
  -15.9848  -10.4249   15.2686 P   0  0  2  0  0  0  0  0  0  0  0  0
  -21.9205  -11.3073   18.2736 O   0  5  0  0  0  0  0  0  0  0  0  0
  -20.5692  -11.3662   20.8856 O   0  0  0  0  0  0  0  0  0  0  0  0
  -17.9950  -12.3104   18.9614 C   0  0  0  0  0  0  0  0  0  0  0  0
  -19.3582  -12.2603   18.5397 O   0  0  0  0  0  0  0  0  0  0  0  0
  -17.1973  -13.0835   17.9286 C   0  0  1  0  0  0  0  0  0  0  0  0
  -17.8189  -14.3560   17.6995 O   0  0  0  0  0  0  0  0  0  0  0  0
  -17.1529  -12.4015   16.5708 C   0  0  1  0  0  0  0  0  0  0  0  0
  -16.0301  -11.5320   16.4429 O   0  0  0  0  0  0  0  0  0  0  0  0
  -17.0819  -13.5680   15.6012 C   0  0  1  0  0  0  0  0  0  0  0  0
  -15.7187  -13.9344   15.3737 O   0  0  0  0  0  0  0  0  0  0  0  0
  -17.7800  -14.7142   16.3093 C   0  0  2  0  0  0  0  0  0  0  0  0
  -20.1997   -7.5585   16.0410 C   0  0  1  0  0  0  0  0  0  0  0  0
  -21.3742  -13.5712   12.5718 N   0  0  0  0  0  0  0  0  0  0  0  0
  -20.0785  -13.1658   12.6679 C   0  0  1  0  0  0  0  0  0  0  0  0
  -20.7029   -8.6949   16.8850 C   0  0  2  0  0  0  0  0  0  0  0  0
  -19.5885  -12.3554   11.7016 N   0  0  0  0  0  0  0  0  0  0  0  0
  -21.5283   -8.1133   17.8957 O   0  0  0  0  0  0  0  0  0  0  0  0
  -19.4536   -9.3283   17.4644 C   0  0  2  0  0  0  0  0  0  0  0  0
  -19.2607  -13.5402   13.6964 N   0  0  0  0  0  0  0  0  0  0  0  0
  -19.6527   -9.7519   18.8062 O   0  0  0  0  0  0  0  0  0  0  0  0
  -19.7036  -14.3531   14.6887 C   0  0  2  0  0  0  0  0  0  0  0  0
  -18.4044   -8.2351   17.4148 C   0  0  2  0  0  0  0  0  0  0  0  0
  -18.8457   -7.3135   16.4192 O   0  0  0  0  0  0  0  0  0  0  0  0
  -21.1003  -14.8184   14.6343 C   0  0  1  0  0  0  0  0  0  0  0  0
  -17.0209   -8.7587   17.0455 C   0  0  0  0  0  0  0  0  0  0  0  0
  -17.0729   -9.3352   15.7390 O   0  0  0  0  0  0  0  0  0  0  0  0
  -21.9332  -14.3810   13.4999 C   0  0  0  0  0  0  0  0  0  0  0  0
  -23.2272  -14.7775   13.3981 O   0  0  0  0  0  0  0  0  0  0  0  0
  -21.2955  -15.5890   15.7100 N   0  0  0  0  0  0  0  0  0  0  0  0
  -20.1217  -15.6198   16.4063 C   0  0  0  0  0  0  0  0  0  0  0  0
  -19.1673  -14.8820   15.8008 N   0  0  1  0  0  0  0  0  0  0  0  0
  -19.2198   -5.9739   11.1525 N   0  0  0  0  0  0  0  0  0  0  0  0
  -16.4411  -11.1256   13.6933 O   0  5  0  0  0  0  0  0  0  0  0  0
  -18.9856   -5.3436   12.3360 C   0  0  2  0  0  0  0  0  0  0  0  0
  -18.4064   -4.1146   12.3299 N   0  0  0  0  0  0  0  0  0  0  0  0
  -14.4116   -9.6174   15.1232 O   0  0  0  0  0  0  0  0  0  0  0  0
  -19.3134   -5.9070   13.5308 N   0  0  0  0  0  0  0  0  0  0  0  0
  -19.8864   -7.1313   13.6017 C   0  0  2  0  0  0  0  0  0  0  0  0
  -20.1667   -7.8599   12.3575 C   0  0  2  0  0  0  0  0  0  0  0  0
  -19.7935   -7.1943   11.0910 C   0  0  0  0  0  0  0  0  0  0  0  0
  -20.0159   -7.7882    9.8925 O   0  0  0  0  0  0  0  0  0  0  0  0
  -20.7392   -9.0265   12.7148 N   0  0  0  0  0  0  0  0  0  0  0  0
  -20.8147   -9.0440   14.0790 C   0  0  0  0  0  0  0  0  0  0  0  0
  -20.3054   -7.9064   14.6037 N   0  0  1  0  0  0  0  0  0  0  0  0
  1  3  1  6  0  0  0
  1  4  2  0  0  0  0
  1  6  1  0  0  0  0
  1 22  1  0  0  0  0
  2 28  1  0  0  0  0
  2 35  1  6  0  0  0
  2 38  2  0  0  0  0
  2 10  1  0  0  0  0
  5  6  1  0  0  0  0
  7  5  1  1  0  0  0
  7  8  1  0  0  0  0
  7  9  1  0  0  0  0
  9 10  1  1  0  0  0
  9 11  1  0  0  0  0
 11 12  1  1  0  0  0
 11 13  1  0  0  0  0
 13  8  1  1  0  0  0
 13 33  1  0  0  0  0
 14 46  1  0  0  0  0
 14 17  1  0  0  0  0
 14 25  1  1  0  0  0
 15 16  1  0  0  0  0
 15 29  1  0  0  0  0
 16 18  1  1  0  0  0
 16 21  1  0  0  0  0
 17 19  1  1  0  0  0
 17 20  1  0  0  0  0
 20 22  1  1  0  0  0
 20 24  1  0  0  0  0
 23 21  1  1  0  0  0
 23 26  1  0  0  0  0
 23 33  1  0  0  0  0
 24 25  1  6  0  0  0
 24 27  1  0  0  0  0
 26 29  1  6  0  0  0
 26 31  1  0  0  0  0
 27 28  1  0  0  0  0
 29 30  2  0  0  0  0
 31 32  1  0  0  0  0
 33 32  1  6  0  0  0
 34 36  1  0  0  0  0
 34 42  1  0  0  0  0
 36 37  1  1  0  0  0
 36 39  1  0  0  0  0
 40 39  1  6  0  0  0
 40 41  1  0  0  0  0
 40 46  1  0  0  0  0
 41 42  1  6  0  0  0
 41 44  1  0  0  0  0
 42 43  2  0  0  0  0
 44 45  1  0  0  0  0
 46 45  1  1  0  0  0
M  CHG  2   3  -1  35  -1
M  END
>  <CHROM.1>
130.89071283,-176.94216537,-19.10797952,-10.75343839,15.43312537,-1.61642235
-1.29633572,-0.53492951

>  <Name>
ligand

>  <RI>
-1

>  <Rbt.Current_Directory>
/home/itssahil/PROJECTS/Mol_Feturizer/Test_systems_manuscript/rnas/3mum

>  <Rbt.Executable>
rbdock ($Id: //depot/dev/client3/rdock/2013.1/src/exe/rbdock.cxx#4 $)

>  <Rbt.Library>
libRbt.so (2013.1, Build901 2013/11/27)

>  <Rbt.Parameter_File>
/export/apps/rDock/src/rDock_2013.1_src/data/scripts/dock_solv.prm

>  <Rbt.Receptor>
prm/blind_docking_40.prm

>  <SCORE>
41.2684

>  <SCORE.INTER>
39.5699

>  <SCORE.INTER.CONST>
1

>  <SCORE.INTER.POLAR>
0

>  <SCORE.INTER.ROT>
2

>  <SCORE.INTER.SOLV>
44.5545

>  <SCORE.INTER.VDW>
6.59512

>  <SCORE.INTER.norm>
0.860216

>  <SCORE.INTRA>
1.17976

>  <SCORE.INTRA.DIHEDRAL>
-0.00241415

>  <SCORE.INTRA.DIHEDRAL.0>
2.40424

>  <SCORE.INTRA.POLAR>
0

>  <SCORE.INTRA.POLAR.0>
0

>  <SCORE.INTRA.REPUL>
0

>  <SCORE.INTRA.REPUL.0>
0

>  <SCORE.INTRA.SOLV>
1.354

>  <SCORE.INTRA.SOLV.lig_0>
-134.169

>  <SCORE.INTRA.VDW>
0.503973

>  <SCORE.INTRA.VDW.0>
-2.18386

>  <SCORE.INTRA.norm>
0.0256471

>  <SCORE.RESTR>
0.518672

>  <SCORE.RESTR.CAVITY>
0.518672

>  <SCORE.RESTR.norm>
0.0112755

>  <SCORE.SYSTEM>
0

>  <SCORE.SYSTEM.CONST>
0

>  <SCORE.SYSTEM.DIHEDRAL>
0

>  <SCORE.SYSTEM.SOLV>
0

>  <SCORE.SYSTEM.norm>
0

>  <SCORE.heavy>
46

>  <SCORE.norm>
0.897138

>  <RMSD>
17.504

$$$$
ligand
 OpenBabel02271912143D
libRbt.so/2013.1/901 2013/11/27
 46 52  0  0  0  0  0  0  0  0999 V2000
  -20.2952  -11.2832   19.1696 P   0  0  1  0  0  0  0  0  0  0  0  0
  -15.9211  -10.4502   15.3162 P   0  0  2  0  0  0  0  0  0  0  0  0
  -21.8338  -11.4929   18.3149 O   0  5  0  0  0  0  0  0  0  0  0  0
  -20.4883  -11.4854   20.9306 O   0  0  0  0  0  0  0  0  0  0  0  0
  -17.8805  -12.3651   19.0212 C   0  0  0  0  0  0  0  0  0  0  0  0
  -19.2434  -12.3619   18.5958 O   0  0  0  0  0  0  0  0  0  0  0  0
  -17.0560  -13.1218   17.9974 C   0  0  1  0  0  0  0  0  0  0  0  0
  -17.6363  -14.4153   17.7784 O   0  0  0  0  0  0  0  0  0  0  0  0
  -17.0295  -12.4510   16.6336 C   0  0  1  0  0  0  0  0  0  0  0  0
  -15.9344  -11.5476   16.5004 O   0  0  0  0  0  0  0  0  0  0  0  0
  -16.9191  -13.6234   15.6747 C   0  0  1  0  0  0  0  0  0  0  0  0
  -15.5443  -13.9485   15.4539 O   0  0  0  0  0  0  0  0  0  0  0  0
  -17.5825  -14.7847   16.3916 C   0  0  2  0  0  0  0  0  0  0  0  0
  -20.2265   -7.7118   16.0524 C   0  0  1  0  0  0  0  0  0  0  0  0
  -21.3484  -13.4556   12.8924 N   0  0  0  0  0  0  0  0  0  0  0  0
  -20.0896  -12.9563   13.0283 C   0  0  1  0  0  0  0  0  0  0  0  0
  -20.6958   -8.8560   16.9055 C   0  0  2  0  0  0  0  0  0  0  0  0
  -19.6929  -11.9814   12.1781 N   0  0  0  0  0  0  0  0  0  0  0  0
  -21.5418   -8.2917   17.9089 O   0  0  0  0  0  0  0  0  0  0  0  0
  -19.4286   -9.4442   17.4936 C   0  0  2  0  0  0  0  0  0  0  0  0
  -19.2188  -13.3960   13.9850 N   0  0  0  0  0  0  0  0  0  0  0  0
  -19.6178   -9.8617   18.8387 O   0  0  0  0  0  0  0  0  0  0  0  0
  -19.5678  -14.3728   14.8600 C   0  0  2  0  0  0  0  0  0  0  0  0
  -18.4144   -8.3189   17.4366 C   0  0  2  0  0  0  0  0  0  0  0  0
  -18.8820   -7.4206   16.4316 O   0  0  0  0  0  0  0  0  0  0  0  0
  -20.9212  -14.9458   14.7583 C   0  0  1  0  0  0  0  0  0  0  0  0
  -17.0141   -8.8017   17.0754 C   0  0  0  0  0  0  0  0  0  0  0  0
  -17.0443   -9.3913   15.7740 O   0  0  0  0  0  0  0  0  0  0  0  0
  -21.8148  -14.4306   13.7056 C   0  0  0  0  0  0  0  0  0  0  0  0
  -23.0728  -14.9203   13.5653 O   0  0  0  0  0  0  0  0  0  0  0  0
  -21.0250  -15.8708   15.7188 N   0  0  0  0  0  0  0  0  0  0  0  0
  -19.8364  -15.8949   16.3899 C   0  0  0  0  0  0  0  0  0  0  0  0
  -18.9624  -15.0009   15.8814 N   0  0  1  0  0  0  0  0  0  0  0  0
  -19.1827   -6.1886   11.1576 N   0  0  0  0  0  0  0  0  0  0  0  0
  -16.3508  -11.1792   13.7462 O   0  5  0  0  0  0  0  0  0  0  0  0
  -18.9591   -5.5457   12.3365 C   0  0  2  0  0  0  0  0  0  0  0  0
  -18.3739   -4.3196   12.3229 N   0  0  0  0  0  0  0  0  0  0  0  0
  -14.3738   -9.5947   15.1672 O   0  0  0  0  0  0  0  0  0  0  0  0
  -19.3034   -6.0937   13.5337 N   0  0  0  0  0  0  0  0  0  0  0  0
  -19.8831   -7.3143   13.6122 C   0  0  2  0  0  0  0  0  0  0  0  0
  -20.1525   -8.0561   12.3732 C   0  0  2  0  0  0  0  0  0  0  0  0
  -19.7616   -7.4069   11.1036 C   0  0  0  0  0  0  0  0  0  0  0  0
  -19.9730   -8.0136    9.9096 O   0  0  0  0  0  0  0  0  0  0  0  0
  -20.7347   -9.2157   12.7373 N   0  0  0  0  0  0  0  0  0  0  0  0
  -20.8261   -9.2170   14.1007 C   0  0  0  0  0  0  0  0  0  0  0  0
  -20.3173   -8.0759   14.6181 N   0  0  1  0  0  0  0  0  0  0  0  0
  1  3  1  6  0  0  0
  1  4  2  0  0  0  0
  1  6  1  0  0  0  0
  1 22  1  0  0  0  0
  2 28  1  0  0  0  0
  2 35  1  6  0  0  0
  2 38  2  0  0  0  0
  2 10  1  0  0  0  0
  5  6  1  0  0  0  0
  7  5  1  1  0  0  0
  7  8  1  0  0  0  0
  7  9  1  0  0  0  0
  9 10  1  1  0  0  0
  9 11  1  0  0  0  0
 11 12  1  1  0  0  0
 11 13  1  0  0  0  0
 13  8  1  1  0  0  0
 13 33  1  0  0  0  0
 14 46  1  0  0  0  0
 14 17  1  0  0  0  0
 14 25  1  1  0  0  0
 15 16  1  0  0  0  0
 15 29  1  0  0  0  0
 16 18  1  1  0  0  0
 16 21  1  0  0  0  0
 17 19  1  1  0  0  0
 17 20  1  0  0  0  0
 20 22  1  1  0  0  0
 20 24  1  0  0  0  0
 23 21  1  1  0  0  0
 23 26  1  0  0  0  0
 23 33  1  0  0  0  0
 24 25  1  6  0  0  0
 24 27  1  0  0  0  0
 26 29  1  6  0  0  0
 26 31  1  0  0  0  0
 27 28  1  0  0  0  0
 29 30  2  0  0  0  0
 31 32  1  0  0  0  0
 33 32  1  6  0  0  0
 34 36  1  0  0  0  0
 34 42  1  0  0  0  0
 36 37  1  1  0  0  0
 36 39  1  0  0  0  0
 40 39  1  6  0  0  0
 40 41  1  0  0  0  0
 40 46  1  0  0  0  0
 41 42  1  6  0  0  0
 41 44  1  0  0  0  0
 42 43  2  0  0  0  0
 44 45  1  0  0  0  0
 46 45  1  1  0  0  0
M  CHG  2   3  -1  35  -1
M  END
>  <CHROM.1>
121.79279179,-174.78830597,-19.03750066,-10.84509753,15.50464175,-1.54979816
-1.25902715,-0.50079006

>  <Name>
ligand

>  <RI>
-1

>  <Rbt.Current_Directory>
/home/itssahil/PROJECTS/Mol_Feturizer/Test_systems_manuscript/rnas/3mum

>  <Rbt.Executable>
rbdock ($Id: //depot/dev/client3/rdock/2013.1/src/exe/rbdock.cxx#4 $)

>  <Rbt.Library>
libRbt.so (2013.1, Build901 2013/11/27)

>  <Rbt.Parameter_File>
/export/apps/rDock/src/rDock_2013.1_src/data/scripts/dock_solv.prm

>  <Rbt.Receptor>
prm/blind_docking_80.prm

>  <SCORE>
39.51

>  <SCORE.INTER>
37.8221

>  <SCORE.INTER.CONST>
1

>  <SCORE.INTER.POLAR>
0

>  <SCORE.INTER.ROT>
2

>  <SCORE.INTER.SOLV>
43.3238

>  <SCORE.INTER.VDW>
5.84015

>  <SCORE.INTER.norm>
0.82222

>  <SCORE.INTRA>
1.52682

>  <SCORE.INTRA.DIHEDRAL>
0.00224989

>  <SCORE.INTRA.DIHEDRAL.0>
2.40424

>  <SCORE.INTRA.POLAR>
0

>  <SCORE.INTRA.POLAR.0>
0

>  <SCORE.INTRA.REPUL>
0

>  <SCORE.INTRA.REPUL.0>
0

>  <SCORE.INTRA.SOLV>
2.61862

>  <SCORE.INTRA.SOLV.lig_0>
-134.169

>  <SCORE.INTRA.VDW>
0.216385

>  <SCORE.INTRA.VDW.0>
-2.18386

>  <SCORE.INTRA.norm>
0.0331917

>  <SCORE.RESTR>
0.16104

>  <SCORE.RESTR.CAVITY>
0.16104

>  <SCORE.RESTR.norm>
0.00350087

>  <SCORE.SYSTEM>
0

>  <SCORE.SYSTEM.CONST>
0

>  <SCORE.SYSTEM.DIHEDRAL>
0

>  <SCORE.SYSTEM.SOLV>
0

>  <SCORE.SYSTEM.norm>
0

>  <SCORE.heavy>
46

>  <SCORE.norm>
0.858913

>  <RMSD>
17.511

$$$$
ligand
 OpenBabel02271912143D
libRbt.so/2013.1/901 2013/11/27
 46 52  0  0  0  0  0  0  0  0999 V2000
  -20.2580  -11.2930   19.1788 P   0  0  1  0  0  0  0  0  0  0  0  0
  -15.8827  -10.4963   15.3190 P   0  0  2  0  0  0  0  0  0  0  0  0
  -21.7961  -11.5121   18.3256 O   0  5  0  0  0  0  0  0  0  0  0  0
  -20.4517  -11.4777   20.9416 O   0  0  0  0  0  0  0  0  0  0  0  0
  -17.8426  -12.3750   19.0422 C   0  0  0  0  0  0  0  0  0  0  0  0
  -19.2053  -12.3769   18.6162 O   0  0  0  0  0  0  0  0  0  0  0  0
  -17.0173  -13.1415   18.0262 C   0  0  1  0  0  0  0  0  0  0  0  0
  -17.5969  -14.4375   17.8201 O   0  0  0  0  0  0  0  0  0  0  0  0
  -16.9906  -12.4844   16.6559 C   0  0  1  0  0  0  0  0  0  0  0  0
  -15.8960  -11.5818   16.5141 O   0  0  0  0  0  0  0  0  0  0  0  0
  -16.8792  -13.6663   15.7088 C   0  0  1  0  0  0  0  0  0  0  0  0
  -15.5041  -13.9928   15.4918 O   0  0  0  0  0  0  0  0  0  0  0  0
  -17.5423  -14.8207   16.4370 C   0  0  2  0  0  0  0  0  0  0  0  0
  -20.1898   -7.7529   16.0261 C   0  0  1  0  0  0  0  0  0  0  0  0
  -21.3436  -13.4568   12.9899 N   0  0  0  0  0  0  0  0  0  0  0  0
  -20.0908  -12.9442   13.1319 C   0  0  1  0  0  0  0  0  0  0  0  0
  -20.6589   -8.8888   16.8904 C   0  0  2  0  0  0  0  0  0  0  0  0
  -19.7115  -11.9436   12.3039 N   0  0  0  0  0  0  0  0  0  0  0  0
  -21.5056   -8.3149   17.8878 O   0  0  0  0  0  0  0  0  0  0  0  0
  -19.3917   -9.4705   17.4848 C   0  0  2  0  0  0  0  0  0  0  0  0
  -19.2093  -13.3955   14.0732 N   0  0  0  0  0  0  0  0  0  0  0  0
  -19.5812   -9.8746   18.8340 O   0  0  0  0  0  0  0  0  0  0  0  0
  -19.5408  -14.3979   14.9257 C   0  0  2  0  0  0  0  0  0  0  0  0
  -18.3780   -8.3452   17.4169 C   0  0  2  0  0  0  0  0  0  0  0  0
  -18.8457   -7.4573   16.4029 O   0  0  0  0  0  0  0  0  0  0  0  0
  -20.8870  -14.9862   14.8166 C   0  0  1  0  0  0  0  0  0  0  0  0
  -16.9773   -8.8308   17.0611 C   0  0  0  0  0  0  0  0  0  0  0  0
  -17.0067   -9.4335   15.7658 O   0  0  0  0  0  0  0  0  0  0  0  0
  -21.7929  -14.4575   13.7812 C   0  0  0  0  0  0  0  0  0  0  0  0
  -23.0451  -14.9602   13.6352 O   0  0  0  0  0  0  0  0  0  0  0  0
  -20.9736  -15.9358   15.7546 N   0  0  0  0  0  0  0  0  0  0  0  0
  -19.7813  -15.9604   16.4191 C   0  0  0  0  0  0  0  0  0  0  0  0
  -18.9219  -15.0427   15.9284 N   0  0  1  0  0  0  0  0  0  0  0  0
  -19.8567   -6.0330   11.0967 N   0  0  0  0  0  0  0  0  0  0  0  0
  -16.3114  -11.2412   13.7562 O   0  5  0  0  0  0  0  0  0  0  0  0
  -19.7217   -5.3524   12.2678 C   0  0  2  0  0  0  0  0  0  0  0  0
  -19.4531   -4.0210   12.2342 N   0  0  0  0  0  0  0  0  0  0  0  0
  -14.3358   -9.6415   15.1621 O   0  0  0  0  0  0  0  0  0  0  0  0
  -19.8469   -5.9648   13.4767 N   0  0  0  0  0  0  0  0  0  0  0  0
  -20.1074   -7.2895   13.5747 C   0  0  2  0  0  0  0  0  0  0  0  0
  -20.2665   -8.0772   12.3451 C   0  0  2  0  0  0  0  0  0  0  0  0
  -20.1253   -7.3554   11.0625 C   0  0  0  0  0  0  0  0  0  0  0  0
  -20.2582   -7.9979    9.8758 O   0  0  0  0  0  0  0  0  0  0  0  0
  -20.5263   -9.3427   12.7292 N   0  0  0  0  0  0  0  0  0  0  0  0
  -20.5285   -9.3630   14.0954 C   0  0  0  0  0  0  0  0  0  0  0  0
  -20.2799   -8.1314   14.5954 N   0  0  1  0  0  0  0  0  0  0  0  0
  1  3  1  6  0  0  0
  1  4  2  0  0  0  0
  1  6  1  0  0  0  0
  1 22  1  0  0  0  0
  2 28  1  0  0  0  0
  2 35  1  6  0  0  0
  2 38  2  0  0  0  0
  2 10  1  0  0  0  0
  5  6  1  0  0  0  0
  7  5  1  1  0  0  0
  7  8  1  0  0  0  0
  7  9  1  0  0  0  0
  9 10  1  1  0  0  0
  9 11  1  0  0  0  0
 11 12  1  1  0  0  0
 11 13  1  0  0  0  0
 13  8  1  1  0  0  0
 13 33  1  0  0  0  0
 14 46  1  0  0  0  0
 14 17  1  0  0  0  0
 14 25  1  1  0  0  0
 15 16  1  0  0  0  0
 15 29  1  0  0  0  0
 16 18  1  1  0  0  0
 16 21  1  0  0  0  0
 17 19  1  1  0  0  0
 17 20  1  0  0  0  0
 20 22  1  1  0  0  0
 20 24  1  0  0  0  0
 23 21  1  1  0  0  0
 23 26  1  0  0  0  0
 23 33  1  0  0  0  0
 24 25  1  6  0  0  0
 24 27  1  0  0  0  0
 26 29  1  6  0  0  0
 26 31  1  0  0  0  0
 27 28  1  0  0  0  0
 29 30  2  0  0  0  0
 31 32  1  0  0  0  0
 33 32  1  6  0  0  0
 34 36  1  0  0  0  0
 34 42  1  0  0  0  0
 36 37  1  1  0  0  0
 36 39  1  0  0  0  0
 40 39  1  6  0  0  0
 40 41  1  0  0  0  0
 40 46  1  0  0  0  0
 41 42  1  6  0  0  0
 41 44  1  0  0  0  0
 42 43  2  0  0  0  0
 44 45  1  0  0  0  0
 46 45  1  6  0  0  0
M  CHG  2   3  -1  35  -1
M  END
>  <CHROM.1>
119.66443372,170.70965390,-19.08078467,-10.85620461,15.51509583,-1.31549591
-1.21112677,-0.28920607

>  <Name>
ligand

>  <RI>
-1

>  <Rbt.Current_Directory>
/home/itssahil/PROJECTS/Mol_Feturizer/Test_systems_manuscript/rnas/3mum

>  <Rbt.Executable>
rbdock ($Id: //depot/dev/client3/rdock/2013.1/src/exe/rbdock.cxx#4 $)

>  <Rbt.Library>
libRbt.so (2013.1, Build901 2013/11/27)

>  <Rbt.Parameter_File>
/export/apps/rDock/src/rDock_2013.1_src/data/scripts/dock_solv.prm

>  <Rbt.Receptor>
prm/blind_docking_80.prm

>  <SCORE>
38.6391

>  <SCORE.INTER>
36.6374

>  <SCORE.INTER.CONST>
1

>  <SCORE.INTER.POLAR>
0

>  <SCORE.INTER.ROT>
2

>  <SCORE.INTER.SOLV>
42.7262

>  <SCORE.INTER.VDW>
5.2495

>  <SCORE.INTER.norm>
0.796465

>  <SCORE.INTRA>
1.77978

>  <SCORE.INTRA.DIHEDRAL>
-0.0176127

>  <SCORE.INTRA.DIHEDRAL.0>
2.40424

>  <SCORE.INTRA.POLAR>
0

>  <SCORE.INTRA.POLAR.0>
0

>  <SCORE.INTRA.REPUL>
0

>  <SCORE.INTRA.REPUL.0>
0

>  <SCORE.INTRA.SOLV>
3.14376

>  <SCORE.INTRA.SOLV.lig_0>
-134.169

>  <SCORE.INTRA.VDW>
0.216707

>  <SCORE.INTRA.VDW.0>
-2.18386

>  <SCORE.INTRA.norm>
0.0386908

>  <SCORE.RESTR>
0.221966

>  <SCORE.RESTR.CAVITY>
0.221966

>  <SCORE.RESTR.norm>
0.00482535

>  <SCORE.SYSTEM>
0

>  <SCORE.SYSTEM.CONST>
0

>  <SCORE.SYSTEM.DIHEDRAL>
0

>  <SCORE.SYSTEM.SOLV>
0

>  <SCORE.SYSTEM.norm>
0

>  <SCORE.heavy>
46

>  <SCORE.norm>
0.839981

>  <RMSD>
17.556

$$$$
ligand
 OpenBabel02271912143D
libRbt.so/2013.1/901 2013/11/27
 46 52  0  0  0  0  0  0  0  0999 V2000
   -4.6063   -5.4347   -2.2635 P   0  0  1  0  0  0  0  0  0  0  0  0
   -2.6537   -0.2849   -0.1797 P   0  0  2  0  0  0  0  0  0  0  0  0
   -3.2824   -6.6115   -2.3289 O   0  5  0  0  0  0  0  0  0  0  0  0
   -6.1602   -6.1657   -2.7437 O   0  0  0  0  0  0  0  0  0  0  0  0
   -5.6108   -3.8102   -0.4263 C   0  0  0  0  0  0  0  0  0  0  0  0
   -4.7011   -4.8586   -0.7607 O   0  0  0  0  0  0  0  0  0  0  0  0
   -5.1498   -3.1639    0.8663 C   0  0  1  0  0  0  0  0  0  0  0  0
   -4.9773   -4.1740    1.8703 O   0  0  0  0  0  0  0  0  0  0  0  0
   -3.8003   -2.4752    0.7451 C   0  0  1  0  0  0  0  0  0  0  0  0
   -3.9283   -1.1029    0.3797 O   0  0  0  0  0  0  0  0  0  0  0  0
   -3.2028   -2.6410    2.1313 C   0  0  1  0  0  0  0  0  0  0  0  0
   -3.5957   -1.5503    2.9683 O   0  0  0  0  0  0  0  0  0  0  0  0
   -3.8174   -3.9165    2.6771 C   0  0  2  0  0  0  0  0  0  0  0  0
   -1.1328   -2.9502   -4.3223 C   0  0  1  0  0  0  0  0  0  0  0  0
   -1.8836   -8.4054    4.7514 N   0  0  0  0  0  0  0  0  0  0  0  0
   -2.8536   -7.5842    5.2382 C   0  0  1  0  0  0  0  0  0  0  0  0
   -1.9419   -4.0891   -3.7696 C   0  0  2  0  0  0  0  0  0  0  0  0
   -3.4386   -7.9117    6.4134 N   0  0  0  0  0  0  0  0  0  0  0  0
   -2.4131   -4.8335   -4.8942 O   0  0  0  0  0  0  0  0  0  0  0  0
   -3.0740   -3.4258   -3.0106 C   0  0  2  0  0  0  0  0  0  0  0  0
   -3.2542   -6.4488    4.5923 N   0  0  0  0  0  0  0  0  0  0  0  0
   -4.2954   -4.1363   -3.1615 O   0  0  0  0  0  0  0  0  0  0  0  0
   -2.7003   -6.0778    3.4103 C   0  0  2  0  0  0  0  0  0  0  0  0
   -3.1970   -2.0448   -3.6239 C   0  0  2  0  0  0  0  0  0  0  0  0
   -1.9372   -1.7746   -4.2364 O   0  0  0  0  0  0  0  0  0  0  0  0
   -1.6428   -6.9306    2.8405 C   0  0  1  0  0  0  0  0  0  0  0  0
   -3.5034   -0.9643   -2.5929 C   0  0  0  0  0  0  0  0  0  0  0  0
   -2.4305   -0.8995   -1.6511 O   0  0  0  0  0  0  0  0  0  0  0  0
   -1.2540   -8.1426    3.5834 C   0  0  0  0  0  0  0  0  0  0  0  0
   -0.2851   -8.9651    3.1072 O   0  0  0  0  0  0  0  0  0  0  0  0
   -1.2581   -6.3591    1.6940 N   0  0  0  0  0  0  0  0  0  0  0  0
   -2.0041   -5.2271    1.5338 C   0  0  0  0  0  0  0  0  0  0  0  0
   -2.8668   -5.0537    2.5572 N   0  0  1  0  0  0  0  0  0  0  0  0
    1.8443   -4.9584   -0.5180 N   0  0  0  0  0  0  0  0  0  0  0  0
   -1.2113   -0.5505    0.8351 O   0  5  0  0  0  0  0  0  0  0  0  0
    0.6396   -5.3768   -0.9941 C   0  0  2  0  0  0  0  0  0  0  0  0
    0.0598   -6.4805   -0.4540 N   0  0  0  0  0  0  0  0  0  0  0  0
   -2.9509    1.4569   -0.3405 O   0  0  0  0  0  0  0  0  0  0  0  0
   -0.0057   -4.7232   -1.9985 N   0  0  0  0  0  0  0  0  0  0  0  0
    0.5243   -3.6222   -2.5807 C   0  0  2  0  0  0  0  0  0  0  0  0
    1.8214   -3.1206   -2.1078 C   0  0  2  0  0  0  0  0  0  0  0  0
    2.4711   -3.8690   -1.0106 C   0  0  0  0  0  0  0  0  0  0  0  0
    3.6682   -3.4800   -0.5065 O   0  0  0  0  0  0  0  0  0  0  0  0
    2.1019   -2.0257   -2.8418 N   0  0  0  0  0  0  0  0  0  0  0  0
    1.0686   -1.8445   -3.7173 C   0  0  0  0  0  0  0  0  0  0  0  0
    0.1267   -2.8012   -3.5545 N   0  0  1  0  0  0  0  0  0  0  0  0
  1  3  1  6  0  0  0
  1  4  2  0  0  0  0
  1  6  1  0  0  0  0
  1 22  1  0  0  0  0
  2 28  1  0  0  0  0
  2 35  1  1  0  0  0
  2 38  2  0  0  0  0
  2 10  1  0  0  0  0
  5  6  1  0  0  0  0
  7  5  1  6  0  0  0
  7  8  1  0  0  0  0
  7  9  1  0  0  0  0
  9 10  1  1  0  0  0
  9 11  1  0  0  0  0
 11 12  1  1  0  0  0
 11 13  1  0  0  0  0
 13  8  1  6  0  0  0
 13 33  1  0  0  0  0
 14 46  1  0  0  0  0
 14 17  1  0  0  0  0
 14 25  1  1  0  0  0
 15 16  1  0  0  0  0
 15 29  1  0  0  0  0
 16 18  1  1  0  0  0
 16 21  1  0  0  0  0
 17 19  1  6  0  0  0
 17 20  1  0  0  0  0
 20 22  1  6  0  0  0
 20 24  1  0  0  0  0
 23 21  1  1  0  0  0
 23 26  1  0  0  0  0
 23 33  1  0  0  0  0
 24 25  1  1  0  0  0
 24 27  1  0  0  0  0
 26 29  1  6  0  0  0
 26 31  1  0  0  0  0
 27 28  1  0  0  0  0
 29 30  2  0  0  0  0
 31 32  1  0  0  0  0
 33 32  1  6  0  0  0
 34 36  1  0  0  0  0
 34 42  1  0  0  0  0
 36 37  1  6  0  0  0
 36 39  1  0  0  0  0
 40 39  1  1  0  0  0
 40 41  1  0  0  0  0
 40 46  1  0  0  0  0
 41 42  1  1  0  0  0
 41 44  1  0  0  0  0
 42 43  2  0  0  0  0
 44 45  1  0  0  0  0
 46 45  1  6  0  0  0
M  CHG  2   3  -1  35  -1
M  END
>  <CHROM.1>
-98.95755581,4.55981519,-2.16060300,-4.01418944,-0.27435290,1.41362035,0.35277254
-0.91055800

>  <Name>
ligand

>  <RI>
-1

>  <Rbt.Current_Directory>
/home/itssahil/PROJECTS/Mol_Feturizer/Test_systems_manuscript/rnas/3mum

>  <Rbt.Executable>
rbdock ($Id: //depot/dev/client3/rdock/2013.1/src/exe/rbdock.cxx#4 $)

>  <Rbt.Library>
libRbt.so (2013.1, Build901 2013/11/27)

>  <Rbt.Parameter_File>
/export/apps/rDock/src/rDock_2013.1_src/data/scripts/dock_solv.prm

>  <Rbt.Receptor>
prm/blind_docking_20.prm

>  <SCORE>
-5.70687

>  <SCORE.INTER>
-10.0999

>  <SCORE.INTER.CONST>
1

>  <SCORE.INTER.POLAR>
0

>  <SCORE.INTER.ROT>
2

>  <SCORE.INTER.SOLV>
41.0028

>  <SCORE.INTER.VDW>
-25.3342

>  <SCORE.INTER.norm>
-0.219562

>  <SCORE.INTRA>
2.68508

>  <SCORE.INTRA.DIHEDRAL>
-0.0133627

>  <SCORE.INTRA.DIHEDRAL.0>
2.40424

>  <SCORE.INTRA.POLAR>
0

>  <SCORE.INTRA.POLAR.0>
0

>  <SCORE.INTRA.REPUL>
0

>  <SCORE.INTRA.REPUL.0>
0

>  <SCORE.INTRA.SOLV>
3.45291

>  <SCORE.INTRA.SOLV.lig_0>
-134.169

>  <SCORE.INTRA.VDW>
0.965308

>  <SCORE.INTRA.VDW.0>
-2.18386

>  <SCORE.INTRA.norm>
0.0583713

>  <SCORE.RESTR>
1.70792

>  <SCORE.RESTR.CAVITY>
1.70792

>  <SCORE.RESTR.norm>
0.0371287

>  <SCORE.SYSTEM>
0

>  <SCORE.SYSTEM.CONST>
0

>  <SCORE.SYSTEM.DIHEDRAL>
0

>  <SCORE.SYSTEM.SOLV>
0

>  <SCORE.SYSTEM.norm>
0

>  <SCORE.heavy>
46

>  <SCORE.norm>
-0.124062

>  <RMSD>
18.957

$$$$
ligand
 OpenBabel02271912143D
libRbt.so/2013.1/901 2013/11/27
 46 52  0  0  0  0  0  0  0  0999 V2000
   -5.5619   -5.5589   -2.0359 P   0  0  1  0  0  0  0  0  0  0  0  0
   -2.9584   -0.6536   -0.0774 P   0  0  2  0  0  0  0  0  0  0  0  0
   -4.4492   -6.9334   -1.9163 O   0  5  0  0  0  0  0  0  0  0  0  0
   -7.1719   -6.0644   -2.6118 O   0  0  0  0  0  0  0  0  0  0  0  0
   -6.4273   -3.6706   -0.3902 C   0  0  0  0  0  0  0  0  0  0  0  0
   -5.6794   -4.8714   -0.5824 O   0  0  0  0  0  0  0  0  0  0  0  0
   -5.9702   -3.0173    0.9002 C   0  0  1  0  0  0  0  0  0  0  0  0
   -6.0469   -3.9693    1.9707 O   0  0  0  0  0  0  0  0  0  0  0  0
   -4.5202   -2.5629    0.8622 C   0  0  1  0  0  0  0  0  0  0  0  0
   -4.3909   -1.2167    0.4104 O   0  0  0  0  0  0  0  0  0  0  0  0
   -4.0702   -2.7246    2.3035 C   0  0  1  0  0  0  0  0  0  0  0  0
   -4.3430   -1.5294    3.0394 O   0  0  0  0  0  0  0  0  0  0  0  0
   -4.9281   -3.8444    2.8626 C   0  0  2  0  0  0  0  0  0  0  0  0
   -1.5739   -3.8103   -3.9109 C   0  0  1  0  0  0  0  0  0  0  0  0
   -0.5995   -6.5504    1.4018 N   0  0  0  0  0  0  0  0  0  0  0  0
   -0.9354   -5.2595    1.1316 C   0  0  1  0  0  0  0  0  0  0  0  0
   -2.6010   -4.7642   -3.3700 C   0  0  2  0  0  0  0  0  0  0  0  0
   -0.0812   -4.5183    0.3889 N   0  0  0  0  0  0  0  0  0  0  0  0
   -3.0977   -5.5006   -4.4889 O   0  0  0  0  0  0  0  0  0  0  0  0
   -3.6649   -3.8774   -2.7540 C   0  0  2  0  0  0  0  0  0  0  0  0
   -2.0946   -4.6884    1.5754 N   0  0  0  0  0  0  0  0  0  0  0  0
   -4.9709   -4.3928   -2.9739 O   0  0  0  0  0  0  0  0  0  0  0  0
   -2.9831   -5.3886    2.3251 C   0  0  2  0  0  0  0  0  0  0  0  0
   -3.5094   -2.5407   -3.4524 C   0  0  2  0  0  0  0  0  0  0  0  0
   -2.1777   -2.5185   -3.9636 O   0  0  0  0  0  0  0  0  0  0  0  0
   -2.6691   -6.7923    2.6439 C   0  0  1  0  0  0  0  0  0  0  0  0
   -3.7143   -1.3558   -2.5152 C   0  0  0  0  0  0  0  0  0  0  0  0
   -2.7236   -1.3973   -1.4861 O   0  0  0  0  0  0  0  0  0  0  0  0
   -1.4034   -7.3519    2.1373 C   0  0  0  0  0  0  0  0  0  0  0  0
   -1.0623   -8.6393    2.3989 O   0  0  0  0  0  0  0  0  0  0  0  0
   -3.6854   -7.2613    3.3762 N   0  0  0  0  0  0  0  0  0  0  0  0
   -4.5859   -6.2453    3.5194 C   0  0  0  0  0  0  0  0  0  0  0  0
   -4.1716   -5.1243    2.8923 N   0  0  1  0  0  0  0  0  0  0  0  0
    2.7784   -1.2228   -2.5958 N   0  0  0  0  0  0  0  0  0  0  0  0
   -1.6648   -1.0743    1.0759 O   0  5  0  0  0  0  0  0  0  0  0  0
    1.8291   -0.9165   -3.5219 C   0  0  2  0  0  0  0  0  0  0  0  0
    1.9579    0.2217   -4.2526 N   0  0  0  0  0  0  0  0  0  0  0  0
   -2.9507    1.0978   -0.3616 O   0  0  0  0  0  0  0  0  0  0  0  0
    0.7497   -1.7162   -3.7405 N   0  0  0  0  0  0  0  0  0  0  0  0
    0.5630   -2.8590   -3.0396 C   0  0  2  0  0  0  0  0  0  0  0  0
    1.5556   -3.2445   -2.0277 C   0  0  2  0  0  0  0  0  0  0  0  0
    2.7091   -2.3389   -1.8397 C   0  0  0  0  0  0  0  0  0  0  0  0
    3.6773   -2.6130   -0.9309 O   0  0  0  0  0  0  0  0  0  0  0  0
    1.1341   -4.4104   -1.4992 N   0  0  0  0  0  0  0  0  0  0  0  0
   -0.0370   -4.7415   -2.1206 C   0  0  0  0  0  0  0  0  0  0  0  0
   -0.3721   -3.8109   -3.0429 N   0  0  1  0  0  0  0  0  0  0  0  0
  1  3  1  1  0  0  0
  1  4  2  0  0  0  0
  1  6  1  0  0  0  0
  1 22  1  0  0  0  0
  2 28  1  0  0  0  0
  2 35  1  1  0  0  0
  2 38  2  0  0  0  0
  2 10  1  0  0  0  0
  5  6  1  0  0  0  0
  7  5  1  6  0  0  0
  7  8  1  0  0  0  0
  7  9  1  0  0  0  0
  9 10  1  1  0  0  0
  9 11  1  0  0  0  0
 11 12  1  1  0  0  0
 11 13  1  0  0  0  0
 13  8  1  6  0  0  0
 13 33  1  0  0  0  0
 14 46  1  0  0  0  0
 14 17  1  0  0  0  0
 14 25  1  1  0  0  0
 15 16  1  0  0  0  0
 15 29  1  0  0  0  0
 16 18  1  6  0  0  0
 16 21  1  0  0  0  0
 17 19  1  6  0  0  0
 17 20  1  0  0  0  0
 20 22  1  6  0  0  0
 20 24  1  0  0  0  0
 23 21  1  6  0  0  0
 23 26  1  0  0  0  0
 23 33  1  0  0  0  0
 24 25  1  1  0  0  0
 24 27  1  0  0  0  0
 26 29  1  1  0  0  0
 26 31  1  0  0  0  0
 27 28  1  0  0  0  0
 29 30  2  0  0  0  0
 31 32  1  0  0  0  0
 33 32  1  1  0  0  0
 34 36  1  0  0  0  0
 34 42  1  0  0  0  0
 36 37  1  1  0  0  0
 36 39  1  0  0  0  0
 40 39  1  6  0  0  0
 40 41  1  0  0  0  0
 40 46  1  0  0  0  0
 41 42  1  6  0  0  0
 41 44  1  0  0  0  0
 42 43  2  0  0  0  0
 44 45  1  0  0  0  0
 46 45  1  1  0  0  0
M  CHG  2   3  -1  35  -1
M  END
>  <CHROM.1>
106.01722805,-162.31467042,-2.49645904,-3.68522604,-0.65576937,2.39744400
0.02756205,2.21378362

>  <Name>
ligand

>  <RI>
-1

>  <Rbt.Current_Directory>
/home/itssahil/PROJECTS/Mol_Feturizer/Test_systems_manuscript/rnas/3mum

>  <Rbt.Executable>
rbdock ($Id: //depot/dev/client3/rdock/2013.1/src/exe/rbdock.cxx#4 $)

>  <Rbt.Library>
libRbt.so (2013.1, Build901 2013/11/27)

>  <Rbt.Parameter_File>
/export/apps/rDock/src/rDock_2013.1_src/data/scripts/dock_solv.prm

>  <Rbt.Receptor>
prm/blind_docking_20.prm

>  <SCORE>
9.44066

>  <SCORE.INTER>
2.81696

>  <SCORE.INTER.CONST>
1

>  <SCORE.INTER.POLAR>
0

>  <SCORE.INTER.ROT>
2

>  <SCORE.INTER.SOLV>
38.4659

>  <SCORE.INTER.VDW>
-15.8773

>  <SCORE.INTER.norm>
0.0612382

>  <SCORE.INTRA>
6.30305

>  <SCORE.INTRA.DIHEDRAL>
0.0198332

>  <SCORE.INTRA.DIHEDRAL.0>
2.40424

>  <SCORE.INTRA.POLAR>
0

>  <SCORE.INTRA.POLAR.0>
0

>  <SCORE.INTRA.REPUL>
0

>  <SCORE.INTRA.REPUL.0>
0

>  <SCORE.INTRA.SOLV>
5.12018

>  <SCORE.INTRA.SOLV.lig_0>
-134.169

>  <SCORE.INTRA.VDW>
3.73305

>  <SCORE.INTRA.VDW.0>
-2.18386

>  <SCORE.INTRA.norm>
0.137023

>  <SCORE.RESTR>
0.320657

>  <SCORE.RESTR.CAVITY>
0.320657

>  <SCORE.RESTR.norm>
0.00697079

>  <SCORE.SYSTEM>
0

>  <SCORE.SYSTEM.CONST>
0

>  <SCORE.SYSTEM.DIHEDRAL>
0

>  <SCORE.SYSTEM.SOLV>
0

>  <SCORE.SYSTEM.norm>
0

>  <SCORE.heavy>
46

>  <SCORE.norm>
0.205232

>  <RMSD>
19.190

$$$$
ligand
 OpenBabel02271912143D
libRbt.so/2013.1/901 2013/11/27
 46 52  0  0  0  0  0  0  0  0999 V2000
   -3.6655   -2.6154   -3.3756 P   0  0  1  0  0  0  0  0  0  0  0  0
   -3.2595   -3.1008    2.4790 P   0  0  2  0  0  0  0  0  0  0  0  0
   -3.2159   -4.1449   -4.1504 O   0  5  0  0  0  0  0  0  0  0  0  0
   -4.2077   -1.4076   -4.5700 O   0  0  0  0  0  0  0  0  0  0  0  0
   -5.3339   -1.8827   -1.4512 C   0  0  0  0  0  0  0  0  0  0  0  0
   -4.8376   -2.9108   -2.3087 O   0  0  0  0  0  0  0  0  0  0  0  0
   -6.0364   -2.5320   -0.2741 C   0  0  1  0  0  0  0  0  0  0  0  0
   -7.0185   -3.4598   -0.7565 O   0  0  0  0  0  0  0  0  0  0  0  0
   -5.1035   -3.3474    0.6065 C   0  0  1  0  0  0  0  0  0  0  0  0
   -4.5505   -2.5710    1.6668 O   0  0  0  0  0  0  0  0  0  0  0  0
   -6.0005   -4.4583    1.1233 C   0  0  1  0  0  0  0  0  0  0  0  0
   -6.6486   -4.0445    2.3288 O   0  0  0  0  0  0  0  0  0  0  0  0
   -7.0538   -4.6491    0.0479 C   0  0  2  0  0  0  0  0  0  0  0  0
    0.3569   -3.7502   -1.1373 C   0  0  1  0  0  0  0  0  0  0  0  0
   -3.6969   -8.6038   -1.0851 N   0  0  0  0  0  0  0  0  0  0  0  0
   -3.5950   -7.6399   -0.1297 C   0  0  1  0  0  0  0  0  0  0  0  0
   -0.7684   -3.7291   -2.1325 C   0  0  2  0  0  0  0  0  0  0  0  0
   -2.5033   -7.6444    0.6697 N   0  0  0  0  0  0  0  0  0  0  0  0
   -0.2336   -3.1752   -3.3359 O   0  0  0  0  0  0  0  0  0  0  0  0
   -1.8182   -2.8306   -1.5092 C   0  0  2  0  0  0  0  0  0  0  0  0
   -4.5438   -6.6734    0.0499 N   0  0  0  0  0  0  0  0  0  0  0  0
   -2.4646   -2.0229   -2.4835 O   0  0  0  0  0  0  0  0  0  0  0  0
   -5.6575   -6.6267   -0.7241 C   0  0  2  0  0  0  0  0  0  0  0  0
   -1.0535   -1.9570   -0.5344 C   0  0  2  0  0  0  0  0  0  0  0  0
    0.1499   -2.6630   -0.2365 O   0  0  0  0  0  0  0  0  0  0  0  0
   -5.8157   -7.6458   -1.7761 C   0  0  1  0  0  0  0  0  0  0  0  0
   -1.8227   -1.6961    0.7559 C   0  0  0  0  0  0  0  0  0  0  0  0
   -2.0581   -2.9397    1.4191 O   0  0  0  0  0  0  0  0  0  0  0  0
   -4.7587   -8.6627   -1.9209 C   0  0  0  0  0  0  0  0  0  0  0  0
   -4.8504   -9.6252   -2.8733 O   0  0  0  0  0  0  0  0  0  0  0  0
   -6.9718   -7.3874   -2.3971 N   0  0  0  0  0  0  0  0  0  0  0  0
   -7.5184   -6.2894   -1.7978 C   0  0  0  0  0  0  0  0  0  0  0  0
   -6.7365   -5.8302   -0.7981 N   0  0  1  0  0  0  0  0  0  0  0  0
    3.4041   -7.4393    0.9777 N   0  0  0  0  0  0  0  0  0  0  0  0
   -3.4462   -4.8083    2.9589 O   0  5  0  0  0  0  0  0  0  0  0  0
    3.7468   -6.2895    0.3348 C   0  0  2  0  0  0  0  0  0  0  0  0
    5.0611   -5.9797    0.1848 N   0  0  0  0  0  0  0  0  0  0  0  0
   -2.8781   -2.1228    3.9094 O   0  0  0  0  0  0  0  0  0  0  0  0
    2.8117   -5.4357   -0.1643 N   0  0  0  0  0  0  0  0  0  0  0  0
    1.4874   -5.6864   -0.0401 C   0  0  2  0  0  0  0  0  0  0  0  0
    1.0554   -6.9136    0.6418 C   0  0  2  0  0  0  0  0  0  0  0  0
    2.1169   -7.8044    1.1573 C   0  0  0  0  0  0  0  0  0  0  0  0
    1.8149   -8.9605    1.7982 O   0  0  0  0  0  0  0  0  0  0  0  0
   -0.2920   -6.9162    0.6134 N   0  0  0  0  0  0  0  0  0  0  0  0
   -0.6897   -5.7790   -0.0313 C   0  0  0  0  0  0  0  0  0  0  0  0
    0.3793   -5.0487   -0.4221 N   0  0  1  0  0  0  0  0  0  0  0  0
  1  3  1  6  0  0  0
  1  4  2  0  0  0  0
  1  6  1  0  0  0  0
  1 22  1  0  0  0  0
  2 28  1  0  0  0  0
  2 35  1  1  0  0  0
  2 38  2  0  0  0  0
  2 10  1  0  0  0  0
  5  6  1  0  0  0  0
  7  5  1  6  0  0  0
  7  8  1  0  0  0  0
  7  9  1  0  0  0  0
  9 10  1  1  0  0  0
  9 11  1  0  0  0  0
 11 12  1  1  0  0  0
 11 13  1  0  0  0  0
 13  8  1  6  0  0  0
 13 33  1  0  0  0  0
 14 46  1  0  0  0  0
 14 17  1  0  0  0  0
 14 25  1  1  0  0  0
 15 16  1  0  0  0  0
 15 29  1  0  0  0  0
 16 18  1  6  0  0  0
 16 21  1  0  0  0  0
 17 19  1  6  0  0  0
 17 20  1  0  0  0  0
 20 22  1  6  0  0  0
 20 24  1  0  0  0  0
 23 21  1  6  0  0  0
 23 26  1  0  0  0  0
 23 33  1  0  0  0  0
 24 25  1  1  0  0  0
 24 27  1  0  0  0  0
 26 29  1  1  0  0  0
 26 31  1  0  0  0  0
 27 28  1  0  0  0  0
 29 30  2  0  0  0  0
 31 32  1  0  0  0  0
 33 32  1  1  0  0  0
 34 36  1  0  0  0  0
 34 42  1  0  0  0  0
 36 37  1  1  0  0  0
 36 39  1  0  0  0  0
 40 39  1  6  0  0  0
 40 41  1  0  0  0  0
 40 46  1  0  0  0  0
 41 42  1  6  0  0  0
 41 44  1  0  0  0  0
 42 43  2  0  0  0  0
 44 45  1  0  0  0  0
 46 45  1  1  0  0  0
M  CHG  2   3  -1  35  -1
M  END
>  <CHROM.1>
113.54943891,143.78101057,-2.65770327,-4.76237081,-0.40975961,-2.91542730
0.16364314,3.08568366

>  <Name>
ligand

>  <RI>
-1

>  <Rbt.Current_Directory>
/home/itssahil/PROJECTS/Mol_Feturizer/Test_systems_manuscript/rnas/3mum

>  <Rbt.Executable>
rbdock ($Id: //depot/dev/client3/rdock/2013.1/src/exe/rbdock.cxx#4 $)

>  <Rbt.Library>
libRbt.so (2013.1, Build901 2013/11/27)

>  <Rbt.Parameter_File>
/export/apps/rDock/src/rDock_2013.1_src/data/scripts/dock_solv.prm

>  <Rbt.Receptor>
prm/blind_docking_20.prm

>  <SCORE>
28.1285

>  <SCORE.INTER>
21.3459

>  <SCORE.INTER.CONST>
1

>  <SCORE.INTER.POLAR>
0

>  <SCORE.INTER.ROT>
2

>  <SCORE.INTER.SOLV>
36.995

>  <SCORE.INTER.VDW>
-3.03441

>  <SCORE.INTER.norm>
0.464041

>  <SCORE.INTRA>
3.76624

>  <SCORE.INTRA.DIHEDRAL>
-0.0289459

>  <SCORE.INTRA.DIHEDRAL.0>
2.40424

>  <SCORE.INTRA.POLAR>
0

>  <SCORE.INTRA.POLAR.0>
0

>  <SCORE.INTRA.REPUL>
0

>  <SCORE.INTRA.REPUL.0>
0

>  <SCORE.INTRA.SOLV>
4.1009

>  <SCORE.INTRA.SOLV.lig_0>
-134.169

>  <SCORE.INTRA.VDW>
1.73026

>  <SCORE.INTRA.VDW.0>
-2.18386

>  <SCORE.INTRA.norm>
0.0818747

>  <SCORE.RESTR>
3.01638

>  <SCORE.RESTR.CAVITY>
3.01638

>  <SCORE.RESTR.norm>
0.0655735

>  <SCORE.SYSTEM>
0

>  <SCORE.SYSTEM.CONST>
0

>  <SCORE.SYSTEM.DIHEDRAL>
0

>  <SCORE.SYSTEM.SOLV>
0

>  <SCORE.SYSTEM.norm>
0

>  <SCORE.heavy>
46

>  <SCORE.norm>
0.61149

>  <RMSD>
19.221

$$$$
ligand
 OpenBabel02271912143D
libRbt.so/2013.1/901 2013/11/27
 46 52  0  0  0  0  0  0  0  0999 V2000
   -3.1723   -3.1399    2.4868 P   0  0  1  0  0  0  0  0  0  0  0  0
   -3.6150   -2.6847   -3.3675 P   0  0  2  0  0  0  0  0  0  0  0  0
   -3.3315   -4.8338    2.9839 O   0  5  0  0  0  0  0  0  0  0  0  0
   -2.8230   -2.0771    3.8752 O   0  0  0  0  0  0  0  0  0  0  0  0
   -1.6995   -1.8090    0.7309 C   0  0  0  0  0  0  0  0  0  0  0  0
   -1.9902   -3.0390    1.3951 O   0  0  0  0  0  0  0  0  0  0  0  0
   -0.9204   -2.1149   -0.5341 C   0  0  1  0  0  0  0  0  0  0  0  0
    0.2186   -2.9244   -0.2096 O   0  0  0  0  0  0  0  0  0  0  0  0
   -1.7159   -2.9192   -1.5494 C   0  0  1  0  0  0  0  0  0  0  0  0
   -2.4188   -2.0827   -2.4656 O   0  0  0  0  0  0  0  0  0  0  0  0
   -0.6505   -3.7511   -2.2414 C   0  0  1  0  0  0  0  0  0  0  0  0
   -0.1109   -3.0308   -3.3525 O   0  0  0  0  0  0  0  0  0  0  0  0
    0.4431   -3.9344   -1.2056 C   0  0  2  0  0  0  0  0  0  0  0  0
   -6.9832   -4.5645    0.0528 C   0  0  1  0  0  0  0  0  0  0  0  0
    2.8778   -7.8231    1.4671 N   0  0  0  0  0  0  0  0  0  0  0  0
    3.3782   -6.6305    1.0430 C   0  0  1  0  0  0  0  0  0  0  0  0
   -5.8573   -4.5162    1.0465 C   0  0  2  0  0  0  0  0  0  0  0  0
    4.6733   -6.3477    1.3138 N   0  0  0  0  0  0  0  0  0  0  0  0
   -6.4542   -4.2779    2.3224 O   0  0  0  0  0  0  0  0  0  0  0  0
   -4.9940   -3.3547    0.5955 C   0  0  2  0  0  0  0  0  0  0  0  0
    2.6296   -5.7164    0.3570 N   0  0  0  0  0  0  0  0  0  0  0  0
   -4.4773   -2.6241    1.6994 O   0  0  0  0  0  0  0  0  0  0  0  0
    1.3260   -5.9516    0.0625 C   0  0  2  0  0  0  0  0  0  0  0  0
   -5.9204   -2.4757   -0.2216 C   0  0  2  0  0  0  0  0  0  0  0  0
   -6.9885   -3.3207   -0.6464 O   0  0  0  0  0  0  0  0  0  0  0  0
    0.7354   -7.2297    0.4962 C   0  0  1  0  0  0  0  0  0  0  0  0
   -5.2368   -1.8680   -1.4414 C   0  0  0  0  0  0  0  0  0  0  0  0
   -4.8027   -2.9197   -2.3060 O   0  0  0  0  0  0  0  0  0  0  0  0
    1.5930   -8.1752    1.2329 C   0  0  0  0  0  0  0  0  0  0  0  0
    1.1033   -9.3681    1.6562 O   0  0  0  0  0  0  0  0  0  0  0  0
   -0.5385   -7.2275    0.0885 N   0  0  0  0  0  0  0  0  0  0  0  0
   -0.7562   -6.0452   -0.5583 C   0  0  0  0  0  0  0  0  0  0  0  0
    0.3550   -5.2794   -0.5775 N   0  0  1  0  0  0  0  0  0  0  0  0
   -3.9306   -8.6237   -1.2014 N   0  0  0  0  0  0  0  0  0  0  0  0
   -3.1441   -4.2259   -4.1316 O   0  5  0  0  0  0  0  0  0  0  0  0
   -3.7841   -7.6949   -0.2171 C   0  0  2  0  0  0  0  0  0  0  0  0
   -2.7095   -7.7696    0.6109 N   0  0  0  0  0  0  0  0  0  0  0  0
   -4.1921   -1.5596   -4.6122 O   0  0  0  0  0  0  0  0  0  0  0  0
   -4.6832   -6.6897   -0.0341 N   0  0  0  0  0  0  0  0  0  0  0  0
   -5.7766   -6.5668   -0.8224 C   0  0  2  0  0  0  0  0  0  0  0  0
   -5.9879   -7.5378   -1.9041 C   0  0  2  0  0  0  0  0  0  0  0  0
   -4.9744   -8.6033   -2.0572 C   0  0  0  0  0  0  0  0  0  0  0  0
   -5.0832   -9.5429   -3.0288 O   0  0  0  0  0  0  0  0  0  0  0  0
   -7.1273   -7.1780   -2.5276 N   0  0  0  0  0  0  0  0  0  0  0  0
   -7.6083   -6.0681   -1.8922 C   0  0  0  0  0  0  0  0  0  0  0  0
   -6.7946   -5.7057   -0.8746 N   0  0  1  0  0  0  0  0  0  0  0  0
  1  3  1  1  0  0  0
  1  4  2  0  0  0  0
  1  6  1  0  0  0  0
  1 22  1  0  0  0  0
  2 28  1  0  0  0  0
  2 35  1  6  0  0  0
  2 38  2  0  0  0  0
  2 10  1  0  0  0  0
  5  6  1  0  0  0  0
  7  5  1  1  0  0  0
  7  8  1  0  0  0  0
  7  9  1  0  0  0  0
  9 10  1  6  0  0  0
  9 11  1  0  0  0  0
 11 12  1  6  0  0  0
 11 13  1  0  0  0  0
 13  8  1  1  0  0  0
 13 33  1  0  0  0  0
 14 46  1  0  0  0  0
 14 17  1  0  0  0  0
 14 25  1  6  0  0  0
 15 16  1  0  0  0  0
 15 29  1  0  0  0  0
 16 18  1  6  0  0  0
 16 21  1  0  0  0  0
 17 19  1  1  0  0  0
 17 20  1  0  0  0  0
 20 22  1  1  0  0  0
 20 24  1  0  0  0  0
 23 21  1  6  0  0  0
 23 26  1  0  0  0  0
 23 33  1  0  0  0  0
 24 25  1  6  0  0  0
 24 27  1  0  0  0  0
 26 29  1  1  0  0  0
 26 31  1  0  0  0  0
 27 28  1  0  0  0  0
 29 30  2  0  0  0  0
 31 32  1  0  0  0  0
 33 32  1  1  0  0  0
 34 36  1  0  0  0  0
 34 42  1  0  0  0  0
 36 37  1  1  0  0  0
 36 39  1  0  0  0  0
 40 39  1  6  0  0  0
 40 41  1  0  0  0  0
 40 46  1  0  0  0  0
 41 42  1  6  0  0  0
 41 44  1  0  0  0  0
 42 43  2  0  0  0  0
 44 45  1  0  0  0  0
 46 45  1  1  0  0  0
M  CHG  2   3  -1  35  -1
M  END
>  <CHROM.1>
-84.64868643,0.48228571,-2.71517908,-4.84905508,-0.40385448,-2.88028824,0.23470370
3.09615876

>  <Name>
ligand

>  <RI>
-1

>  <Rbt.Current_Directory>
/home/itssahil/PROJECTS/Mol_Feturizer/Test_systems_manuscript/rnas/3mum

>  <Rbt.Executable>
rbdock ($Id: //depot/dev/client3/rdock/2013.1/src/exe/rbdock.cxx#4 $)

>  <Rbt.Library>
libRbt.so (2013.1, Build901 2013/11/27)

>  <Rbt.Parameter_File>
/export/apps/rDock/src/rDock_2013.1_src/data/scripts/dock_solv.prm

>  <Rbt.Receptor>
prm/blind_docking_80.prm

>  <SCORE>
21.7899

>  <SCORE.INTER>
16.3739

>  <SCORE.INTER.CONST>
1

>  <SCORE.INTER.POLAR>
0

>  <SCORE.INTER.ROT>
2

>  <SCORE.INTER.SOLV>
36.5522

>  <SCORE.INTER.VDW>
-6.2015

>  <SCORE.INTER.norm>
0.355954

>  <SCORE.INTRA>
5.0603

>  <SCORE.INTRA.DIHEDRAL>
-0.00777952

>  <SCORE.INTRA.DIHEDRAL.0>
2.40424

>  <SCORE.INTRA.POLAR>
0

>  <SCORE.INTRA.POLAR.0>
0

>  <SCORE.INTRA.REPUL>
0

>  <SCORE.INTRA.REPUL.0>
0

>  <SCORE.INTRA.SOLV>
4.10282

>  <SCORE.INTRA.SOLV.lig_0>
-134.169

>  <SCORE.INTRA.VDW>
3.01278

>  <SCORE.INTRA.VDW.0>
-2.18386

>  <SCORE.INTRA.norm>
0.110007

>  <SCORE.RESTR>
0.355732

>  <SCORE.RESTR.CAVITY>
0.355732

>  <SCORE.RESTR.norm>
0.00773329

>  <SCORE.SYSTEM>
0

>  <SCORE.SYSTEM.CONST>
0

>  <SCORE.SYSTEM.DIHEDRAL>
0

>  <SCORE.SYSTEM.SOLV>
0

>  <SCORE.SYSTEM.norm>
0

>  <SCORE.heavy>
46

>  <SCORE.norm>
0.473693

>  <RMSD>
19.226

$$$$
ligand
 OpenBabel02271912143D
libRbt.so/2013.1/901 2013/11/27
 46 52  0  0  0  0  0  0  0  0999 V2000
   -3.1149   -3.1584    2.4463 P   0  0  1  0  0  0  0  0  0  0  0  0
   -3.6349   -2.7038   -3.4017 P   0  0  2  0  0  0  0  0  0  0  0  0
   -3.2739   -4.8515    2.9463 O   0  5  0  0  0  0  0  0  0  0  0  0
   -2.7426   -2.0964    3.8294 O   0  0  0  0  0  0  0  0  0  0  0  0
   -1.6607   -1.8341    0.6701 C   0  0  0  0  0  0  0  0  0  0  0  0
   -1.9472   -3.0626    1.3387 O   0  0  0  0  0  0  0  0  0  0  0  0
   -0.9000   -2.1435   -0.6052 C   0  0  1  0  0  0  0  0  0  0  0  0
    0.2401   -2.9573   -0.2957 O   0  0  0  0  0  0  0  0  0  0  0  0
   -1.7123   -2.9450   -1.6093 C   0  0  1  0  0  0  0  0  0  0  0  0
   -2.4242   -2.1062   -2.5162 O   0  0  0  0  0  0  0  0  0  0  0  0
   -0.6596   -3.7813   -2.3153 C   0  0  1  0  0  0  0  0  0  0  0  0
   -0.1323   -3.0636   -3.4339 O   0  0  0  0  0  0  0  0  0  0  0  0
    0.4472   -3.9686   -1.2943 C   0  0  2  0  0  0  0  0  0  0  0  0
   -6.9639   -4.5691    0.0647 C   0  0  1  0  0  0  0  0  0  0  0  0
    2.7679   -7.6958    1.6914 N   0  0  0  0  0  0  0  0  0  0  0  0
    3.2462   -6.4787    1.3142 C   0  0  1  0  0  0  0  0  0  0  0  0
   -5.8245   -4.5248    1.0430 C   0  0  2  0  0  0  0  0  0  0  0  0
    4.4826   -6.1202    1.7308 N   0  0  0  0  0  0  0  0  0  0  0  0
   -6.4031   -4.2837    2.3268 O   0  0  0  0  0  0  0  0  0  0  0  0
   -4.9628   -3.3669    0.5799 C   0  0  2  0  0  0  0  0  0  0  0  0
    2.5328   -5.6130    0.5344 N   0  0  0  0  0  0  0  0  0  0  0  0
   -4.4283   -2.6378    1.6764 O   0  0  0  0  0  0  0  0  0  0  0  0
    1.2880   -5.9246    0.0927 C   0  0  2  0  0  0  0  0  0  0  0  0
   -5.8967   -2.4846   -0.2250 C   0  0  2  0  0  0  0  0  0  0  0  0
   -6.9738   -3.3255   -0.6349 O   0  0  0  0  0  0  0  0  0  0  0  0
    0.7240   -7.2322    0.4700 C   0  0  1  0  0  0  0  0  0  0  0  0
   -5.2273   -1.8800   -1.4541 C   0  0  0  0  0  0  0  0  0  0  0  0
   -4.8090   -2.9338   -2.3241 O   0  0  0  0  0  0  0  0  0  0  0  0
    1.5414   -8.1226    1.3131 C   0  0  0  0  0  0  0  0  0  0  0  0
    1.0738   -9.3395    1.6908 O   0  0  0  0  0  0  0  0  0  0  0  0
   -0.4914   -7.3057   -0.0837 N   0  0  0  0  0  0  0  0  0  0  0  0
   -0.6983   -6.1414   -0.7657 C   0  0  0  0  0  0  0  0  0  0  0  0
    0.3623   -5.3130   -0.6645 N   0  0  1  0  0  0  0  0  0  0  0  0
   -3.9329   -8.6277   -1.2427 N   0  0  0  0  0  0  0  0  0  0  0  0
   -3.1804   -4.2471   -4.1714 O   0  5  0  0  0  0  0  0  0  0  0  0
   -3.7682   -7.6975   -0.2626 C   0  0  2  0  0  0  0  0  0  0  0  0
   -2.6778   -7.7703    0.5447 N   0  0  0  0  0  0  0  0  0  0  0  0
   -4.2244   -1.5770   -4.6390 O   0  0  0  0  0  0  0  0  0  0  0  0
   -4.6643   -6.6927   -0.0636 N   0  0  0  0  0  0  0  0  0  0  0  0
   -5.7728   -6.5716   -0.8309 C   0  0  2  0  0  0  0  0  0  0  0  0
   -6.0042   -7.5443   -1.9071 C   0  0  2  0  0  0  0  0  0  0  0  0
   -4.9930   -8.6092   -2.0783 C   0  0  0  0  0  0  0  0  0  0  0  0
   -5.1198   -9.5502   -3.0463 O   0  0  0  0  0  0  0  0  0  0  0  0
   -7.1556   -7.1862   -2.5090 N   0  0  0  0  0  0  0  0  0  0  0  0
   -7.6251   -6.0757   -1.8660 C   0  0  0  0  0  0  0  0  0  0  0  0
   -6.7923   -5.7114   -0.8647 N   0  0  1  0  0  0  0  0  0  0  0  0
  1  3  1  1  0  0  0
  1  4  2  0  0  0  0
  1  6  1  0  0  0  0
  1 22  1  0  0  0  0
  2 28  1  0  0  0  0
  2 35  1  6  0  0  0
  2 38  2  0  0  0  0
  2 10  1  0  0  0  0
  5  6  1  0  0  0  0
  7  5  1  1  0  0  0
  7  8  1  0  0  0  0
  7  9  1  0  0  0  0
  9 10  1  6  0  0  0
  9 11  1  0  0  0  0
 11 12  1  6  0  0  0
 11 13  1  0  0  0  0
 13  8  1  1  0  0  0
 13 33  1  0  0  0  0
 14 46  1  0  0  0  0
 14 17  1  0  0  0  0
 14 25  1  6  0  0  0
 15 16  1  0  0  0  0
 15 29  1  0  0  0  0
 16 18  1  6  0  0  0
 16 21  1  0  0  0  0
 17 19  1  1  0  0  0
 17 20  1  0  0  0  0
 20 22  1  1  0  0  0
 20 24  1  0  0  0  0
 23 21  1  6  0  0  0
 23 26  1  0  0  0  0
 23 33  1  0  0  0  0
 24 25  1  6  0  0  0
 24 27  1  0  0  0  0
 26 29  1  1  0  0  0
 26 31  1  0  0  0  0
 27 28  1  0  0  0  0
 29 30  2  0  0  0  0
 31 32  1  0  0  0  0
 33 32  1  1  0  0  0
 34 36  1  0  0  0  0
 34 42  1  0  0  0  0
 36 37  1  1  0  0  0
 36 39  1  0  0  0  0
 40 39  1  6  0  0  0
 40 41  1  0  0  0  0
 40 46  1  0  0  0  0
 41 42  1  6  0  0  0
 41 44  1  0  0  0  0
 42 43  2  0  0  0  0
 44 45  1  0  0  0  0
 46 45  1  1  0  0  0
M  CHG  2   3  -1  35  -1
M  END
>  <CHROM.1>
-76.35913781,0.05684942,-2.71681321,-4.85075308,-0.41381081,-0.24875110,-0.26151841
-0.06633176

>  <Name>
ligand

>  <RI>
-1

>  <Rbt.Current_Directory>
/home/itssahil/PROJECTS/Mol_Feturizer/Test_systems_manuscript/rnas/3mum

>  <Rbt.Executable>
rbdock ($Id: //depot/dev/client3/rdock/2013.1/src/exe/rbdock.cxx#4 $)

>  <Rbt.Library>
libRbt.so (2013.1, Build901 2013/11/27)

>  <Rbt.Parameter_File>
/export/apps/rDock/src/rDock_2013.1_src/data/scripts/dock_solv.prm

>  <Rbt.Receptor>
prm/blind_docking_80.prm

>  <SCORE>
23.0744

>  <SCORE.INTER>
17.9379

>  <SCORE.INTER.CONST>
1

>  <SCORE.INTER.POLAR>
0

>  <SCORE.INTER.ROT>
2

>  <SCORE.INTER.SOLV>
37.4337

>  <SCORE.INTER.VDW>
-5.4526

>  <SCORE.INTER.norm>
0.389955

>  <SCORE.INTRA>
4.79468

>  <SCORE.INTRA.DIHEDRAL>
-0.00642704

>  <SCORE.INTRA.DIHEDRAL.0>
2.40424

>  <SCORE.INTRA.POLAR>
0

>  <SCORE.INTRA.POLAR.0>
0

>  <SCORE.INTRA.REPUL>
0

>  <SCORE.INTRA.REPUL.0>
0

>  <SCORE.INTRA.SOLV>
4.15415

>  <SCORE.INTRA.SOLV.lig_0>
-134.169

>  <SCORE.INTRA.VDW>
2.72082

>  <SCORE.INTRA.VDW.0>
-2.18386

>  <SCORE.INTRA.norm>
0.104232

>  <SCORE.RESTR>
0.341753

>  <SCORE.RESTR.CAVITY>
0.341753

>  <SCORE.RESTR.norm>
0.00742941

>  <SCORE.SYSTEM>
0

>  <SCORE.SYSTEM.CONST>
0

>  <SCORE.SYSTEM.DIHEDRAL>
0

>  <SCORE.SYSTEM.SOLV>
0

>  <SCORE.SYSTEM.norm>
0

>  <SCORE.heavy>
46

>  <SCORE.norm>
0.501617

>  <RMSD>
19.234

$$$$
ligand
 OpenBabel02271912143D
libRbt.so/2013.1/901 2013/11/27
 46 52  0  0  0  0  0  0  0  0999 V2000
   -3.6173   -2.6866   -3.3519 P   0  0  1  0  0  0  0  0  0  0  0  0
   -3.3513   -3.1628    2.5114 P   0  0  2  0  0  0  0  0  0  0  0  0
   -3.1185   -4.2072   -4.1140 O   0  5  0  0  0  0  0  0  0  0  0  0
   -4.1522   -1.4898   -4.5606 O   0  0  0  0  0  0  0  0  0  0  0  0
   -5.3481   -1.9860   -1.4712 C   0  0  0  0  0  0  0  0  0  0  0  0
   -4.8103   -3.0044   -2.3151 O   0  0  0  0  0  0  0  0  0  0  0  0
   -6.0676   -2.6486   -0.3119 C   0  0  1  0  0  0  0  0  0  0  0  0
   -7.0189   -3.5953   -0.8185 O   0  0  0  0  0  0  0  0  0  0  0  0
   -5.1419   -3.4455    0.5927 C   0  0  1  0  0  0  0  0  0  0  0  0
   -4.6312   -2.6582    1.6662 O   0  0  0  0  0  0  0  0  0  0  0  0
   -6.0300   -4.5735    1.0873 C   0  0  1  0  0  0  0  0  0  0  0  0
   -6.7165   -4.1721    2.2756 O   0  0  0  0  0  0  0  0  0  0  0  0
   -7.0517   -4.7849   -0.0145 C   0  0  2  0  0  0  0  0  0  0  0  0
    0.3680   -3.7425   -1.0112 C   0  0  1  0  0  0  0  0  0  0  0  0
   -3.5883   -8.6709   -1.0620 N   0  0  0  0  0  0  0  0  0  0  0  0
   -3.5292   -7.7045   -0.1055 C   0  0  1  0  0  0  0  0  0  0  0  0
   -0.7318   -3.7435   -2.0347 C   0  0  2  0  0  0  0  0  0  0  0  0
   -2.4572   -7.6862    0.7198 N   0  0  0  0  0  0  0  0  0  0  0  0
   -0.1773   -3.1796   -3.2245 O   0  0  0  0  0  0  0  0  0  0  0  0
   -1.8144   -2.8654   -1.4390 C   0  0  2  0  0  0  0  0  0  0  0  0
   -4.5016   -6.7575    0.0502 N   0  0  0  0  0  0  0  0  0  0  0  0
   -2.4512   -2.0706   -2.4300 O   0  0  0  0  0  0  0  0  0  0  0  0
   -5.5971   -6.7341   -0.7505 C   0  0  2  0  0  0  0  0  0  0  0  0
   -1.0918   -1.9769   -0.4456 C   0  0  2  0  0  0  0  0  0  0  0  0
    0.1171   -2.6594   -0.1166 O   0  0  0  0  0  0  0  0  0  0  0  0
   -5.7090   -7.7569   -1.8049 C   0  0  1  0  0  0  0  0  0  0  0  0
   -1.8985   -1.7307    0.8245 C   0  0  0  0  0  0  0  0  0  0  0  0
   -2.1267   -2.9786    1.4823 O   0  0  0  0  0  0  0  0  0  0  0  0
   -4.6283   -8.7520   -1.9231 C   0  0  0  0  0  0  0  0  0  0  0  0
   -4.6774   -9.7168   -2.8763 O   0  0  0  0  0  0  0  0  0  0  0  0
   -6.8549   -7.5226   -2.4537 N   0  0  0  0  0  0  0  0  0  0  0  0
   -7.4381   -6.4355   -1.8690 C   0  0  0  0  0  0  0  0  0  0  0  0
   -6.6901   -5.9598   -0.8512 N   0  0  1  0  0  0  0  0  0  0  0  0
    3.4339   -7.5071    0.9373 N   0  0  0  0  0  0  0  0  0  0  0  0
   -3.5170   -4.8735    2.9876 O   0  5  0  0  0  0  0  0  0  0  0  0
    3.7692   -6.3674    0.2727 C   0  0  2  0  0  0  0  0  0  0  0  0
    5.0804   -6.0923    0.0472 N   0  0  0  0  0  0  0  0  0  0  0  0
   -3.0255   -2.1773    3.9504 O   0  0  0  0  0  0  0  0  0  0  0  0
    2.8297   -5.4902   -0.1748 N   0  0  0  0  0  0  0  0  0  0  0  0
    1.5085   -5.7061    0.0254 C   0  0  2  0  0  0  0  0  0  0  0  0
    1.0843   -6.9207    0.7342 C   0  0  2  0  0  0  0  0  0  0  0  0
    2.1500   -7.8382    1.1910 C   0  0  0  0  0  0  0  0  0  0  0  0
    1.8550   -8.9851    1.8513 O   0  0  0  0  0  0  0  0  0  0  0  0
   -0.2621   -6.8881    0.7827 N   0  0  0  0  0  0  0  0  0  0  0  0
   -0.6662   -5.7418    0.1584 C   0  0  0  0  0  0  0  0  0  0  0  0
    0.3974   -5.0402   -0.2947 N   0  0  1  0  0  0  0  0  0  0  0  0
  1  3  1  6  0  0  0
  1  4  2  0  0  0  0
  1  6  1  0  0  0  0
  1 22  1  0  0  0  0
  2 28  1  0  0  0  0
  2 35  1  1  0  0  0
  2 38  2  0  0  0  0
  2 10  1  0  0  0  0
  5  6  1  0  0  0  0
  7  5  1  6  0  0  0
  7  8  1  0  0  0  0
  7  9  1  0  0  0  0
  9 10  1  1  0  0  0
  9 11  1  0  0  0  0
 11 12  1  1  0  0  0
 11 13  1  0  0  0  0
 13  8  1  6  0  0  0
 13 33  1  0  0  0  0
 14 46  1  0  0  0  0
 14 17  1  0  0  0  0
 14 25  1  1  0  0  0
 15 16  1  0  0  0  0
 15 29  1  0  0  0  0
 16 18  1  6  0  0  0
 16 21  1  0  0  0  0
 17 19  1  6  0  0  0
 17 20  1  0  0  0  0
 20 22  1  6  0  0  0
 20 24  1  0  0  0  0
 23 21  1  6  0  0  0
 23 26  1  0  0  0  0
 23 33  1  0  0  0  0
 24 25  1  1  0  0  0
 24 27  1  0  0  0  0
 26 29  1  1  0  0  0
 26 31  1  0  0  0  0
 27 28  1  0  0  0  0
 29 30  2  0  0  0  0
 31 32  1  0  0  0  0
 33 32  1  1  0  0  0
 34 36  1  0  0  0  0
 34 42  1  0  0  0  0
 36 37  1  1  0  0  0
 36 39  1  0  0  0  0
 40 39  1  6  0  0  0
 40 41  1  0  0  0  0
 40 46  1  0  0  0  0
 41 42  1  6  0  0  0
 41 44  1  0  0  0  0
 42 43  2  0  0  0  0
 44 45  1  0  0  0  0
 46 45  1  1  0  0  0
M  CHG  2   3  -1  35  -1
M  END
>  <CHROM.1>
113.44619792,138.38268529,-2.64334281,-4.82743674,-0.38720352,-2.91875906
0.16576964,3.10781712

>  <Name>
ligand

>  <RI>
0

>  <Rbt.Current_Directory>
/home/itssahil/PROJECTS/Mol_Feturizer/Test_systems_manuscript/rnas/3mum

>  <Rbt.Executable>
rbdock ($Id: //depot/dev/client3/rdock/2013.1/src/exe/rbdock.cxx#4 $)

>  <Rbt.Library>
libRbt.so (2013.1, Build901 2013/11/27)

>  <Rbt.Parameter_File>
/export/apps/rDock/src/rDock_2013.1_src/data/scripts/dock_solv.prm

>  <Rbt.Receptor>
prm/blind_docking_60.prm

>  <SCORE>
25.0098

>  <SCORE.INTER>
20.2357

>  <SCORE.INTER.CONST>
1

>  <SCORE.INTER.POLAR>
0

>  <SCORE.INTER.ROT>
2

>  <SCORE.INTER.SOLV>
37.7328

>  <SCORE.INTER.VDW>
-4.0205

>  <SCORE.INTER.norm>
0.439906

>  <SCORE.INTRA>
3.60214

>  <SCORE.INTRA.DIHEDRAL>
-0.0252722

>  <SCORE.INTRA.DIHEDRAL.0>
2.40424

>  <SCORE.INTRA.POLAR>
0

>  <SCORE.INTRA.POLAR.0>
0

>  <SCORE.INTRA.REPUL>
0

>  <SCORE.INTRA.REPUL.0>
0

>  <SCORE.INTRA.SOLV>
4.09086

>  <SCORE.INTRA.SOLV.lig_0>
-134.169

>  <SCORE.INTRA.VDW>
1.56935

>  <SCORE.INTRA.VDW.0>
-2.18386

>  <SCORE.INTRA.norm>
0.0783074

>  <SCORE.RESTR>
1.17196

>  <SCORE.RESTR.CAVITY>
1.17196

>  <SCORE.RESTR.norm>
0.0254773

>  <SCORE.SYSTEM>
0

>  <SCORE.SYSTEM.CONST>
0

>  <SCORE.SYSTEM.DIHEDRAL>
0

>  <SCORE.SYSTEM.SOLV>
0

>  <SCORE.SYSTEM.norm>
0

>  <SCORE.heavy>
46

>  <SCORE.norm>
0.54369

>  <RMSD>
19.238

$$$$
ligand
 OpenBabel02271912143D
libRbt.so/2013.1/901 2013/11/27
 46 52  0  0  0  0  0  0  0  0999 V2000
   -3.6518   -2.6377   -3.3945 P   0  0  1  0  0  0  0  0  0  0  0  0
   -3.2188   -3.1257    2.4579 P   0  0  2  0  0  0  0  0  0  0  0  0
   -3.2028   -4.1658   -4.1722 O   0  5  0  0  0  0  0  0  0  0  0  0
   -4.2016   -1.4302   -4.5858 O   0  0  0  0  0  0  0  0  0  0  0  0
   -5.3130   -1.9093   -1.4623 C   0  0  0  0  0  0  0  0  0  0  0  0
   -4.8186   -2.9359   -2.3226 O   0  0  0  0  0  0  0  0  0  0  0  0
   -6.0090   -2.5606   -0.2825 C   0  0  1  0  0  0  0  0  0  0  0  0
   -6.9915   -3.4900   -0.7610 O   0  0  0  0  0  0  0  0  0  0  0  0
   -5.0707   -3.3747    0.5934 C   0  0  1  0  0  0  0  0  0  0  0  0
   -4.5143   -2.5978    1.6518 O   0  0  0  0  0  0  0  0  0  0  0  0
   -5.9632   -4.4877    1.1137 C   0  0  1  0  0  0  0  0  0  0  0  0
   -6.6067   -4.0758    2.3223 O   0  0  0  0  0  0  0  0  0  0  0  0
   -7.0209   -4.6798    0.0428 C   0  0  2  0  0  0  0  0  0  0  0  0
    0.3827   -3.7660   -1.1749 C   0  0  1  0  0  0  0  0  0  0  0  0
   -3.6651   -8.6319   -1.1026 N   0  0  0  0  0  0  0  0  0  0  0  0
   -3.5613   -7.6690   -0.1463 C   0  0  1  0  0  0  0  0  0  0  0  0
   -0.7471   -3.7465   -2.1651 C   0  0  2  0  0  0  0  0  0  0  0  0
   -2.4678   -7.6740    0.6505 N   0  0  0  0  0  0  0  0  0  0  0  0
   -0.2187   -3.1909   -3.3705 O   0  0  0  0  0  0  0  0  0  0  0  0
   -1.7958   -2.8504   -1.5366 C   0  0  2  0  0  0  0  0  0  0  0  0
   -4.5101   -6.7031    0.0367 N   0  0  0  0  0  0  0  0  0  0  0  0
   -2.4481   -2.0434   -2.5075 O   0  0  0  0  0  0  0  0  0  0  0  0
   -5.6257   -6.6560   -0.7347 C   0  0  2  0  0  0  0  0  0  0  0  0
   -1.0284   -1.9759   -0.5646 C   0  0  2  0  0  0  0  0  0  0  0  0
    0.1776   -2.6798   -0.2725 O   0  0  0  0  0  0  0  0  0  0  0  0
   -5.7858   -7.6740   -1.7876 C   0  0  1  0  0  0  0  0  0  0  0  0
   -1.7923   -1.7172    0.7292 C   0  0  0  0  0  0  0  0  0  0  0  0
   -2.0225   -2.9617    1.3927 O   0  0  0  0  0  0  0  0  0  0  0  0
   -4.7288   -8.6902   -1.9360 C   0  0  0  0  0  0  0  0  0  0  0  0
   -4.8224   -9.6517   -2.8893 O   0  0  0  0  0  0  0  0  0  0  0  0
   -6.9435   -7.4153   -2.4055 N   0  0  0  0  0  0  0  0  0  0  0  0
   -7.4891   -6.3182   -1.8037 C   0  0  0  0  0  0  0  0  0  0  0  0
   -6.7052   -5.8598   -0.8052 N   0  0  1  0  0  0  0  0  0  0  0  0
    3.4444   -7.4207    0.9784 N   0  0  0  0  0  0  0  0  0  0  0  0
   -3.4001   -4.8338    2.9376 O   0  5  0  0  0  0  0  0  0  0  0  0
    3.7822   -6.2662    0.3412 C   0  0  2  0  0  0  0  0  0  0  0  0
    5.0946   -5.9407    0.2095 N   0  0  0  0  0  0  0  0  0  0  0  0
   -2.8329   -2.1478    3.8871 O   0  0  0  0  0  0  0  0  0  0  0  0
    2.8439   -5.4232   -0.1699 N   0  0  0  0  0  0  0  0  0  0  0  0
    1.5211   -5.6897   -0.0640 C   0  0  2  0  0  0  0  0  0  0  0  0
    1.0944   -6.9227    0.6109 C   0  0  2  0  0  0  0  0  0  0  0  0
    2.1594   -7.8013    1.1401 C   0  0  0  0  0  0  0  0  0  0  0  0
    1.8624   -8.9616    1.7758 O   0  0  0  0  0  0  0  0  0  0  0  0
   -0.2523   -6.9413    0.5641 N   0  0  0  0  0  0  0  0  0  0  0  0
   -0.6546   -5.8082   -0.0850 C   0  0  0  0  0  0  0  0  0  0  0  0
    0.4108   -5.0648   -0.4606 N   0  0  1  0  0  0  0  0  0  0  0  0
  1  3  1  6  0  0  0
  1  4  2  0  0  0  0
  1  6  1  0  0  0  0
  1 22  1  0  0  0  0
  2 28  1  0  0  0  0
  2 35  1  1  0  0  0
  2 38  2  0  0  0  0
  2 10  1  0  0  0  0
  5  6  1  0  0  0  0
  7  5  1  6  0  0  0
  7  8  1  0  0  0  0
  7  9  1  0  0  0  0
  9 10  1  1  0  0  0
  9 11  1  0  0  0  0
 11 12  1  1  0  0  0
 11 13  1  0  0  0  0
 13  8  1  6  0  0  0
 13 33  1  0  0  0  0
 14 46  1  0  0  0  0
 14 17  1  0  0  0  0
 14 25  1  1  0  0  0
 15 16  1  0  0  0  0
 15 29  1  0  0  0  0
 16 18  1  6  0  0  0
 16 21  1  0  0  0  0
 17 19  1  6  0  0  0
 17 20  1  0  0  0  0
 20 22  1  6  0  0  0
 20 24  1  0  0  0  0
 23 21  1  6  0  0  0
 23 26  1  0  0  0  0
 23 33  1  0  0  0  0
 24 25  1  1  0  0  0
 24 27  1  0  0  0  0
 26 29  1  1  0  0  0
 26 31  1  0  0  0  0
 27 28  1  0  0  0  0
 29 30  2  0  0  0  0
 31 32  1  0  0  0  0
 33 32  1  1  0  0  0
 34 36  1  0  0  0  0
 34 42  1  0  0  0  0
 36 37  1  1  0  0  0
 36 39  1  0  0  0  0
 40 39  1  6  0  0  0
 40 41  1  0  0  0  0
 40 46  1  0  0  0  0
 41 42  1  6  0  0  0
 41 44  1  0  0  0  0
 42 43  2  0  0  0  0
 44 45  1  0  0  0  0
 46 45  1  1  0  0  0
M  CHG  2   3  -1  35  -1
M  END
>  <CHROM.1>
113.70272749,144.96779937,-2.62729309,-4.78161280,-0.42806746,-2.92071484
0.16445566,3.08123339

>  <Name>
ligand

>  <RI>
-1

>  <Rbt.Current_Directory>
/home/itssahil/PROJECTS/Mol_Feturizer/Test_systems_manuscript/rnas/3mum

>  <Rbt.Executable>
rbdock ($Id: //depot/dev/client3/rdock/2013.1/src/exe/rbdock.cxx#4 $)

>  <Rbt.Library>
libRbt.so (2013.1, Build901 2013/11/27)

>  <Rbt.Parameter_File>
/export/apps/rDock/src/rDock_2013.1_src/data/scripts/dock_solv.prm

>  <Rbt.Receptor>
prm/blind_docking_20.prm

>  <SCORE>
27.981

>  <SCORE.INTER>
21.2231

>  <SCORE.INTER.CONST>
1

>  <SCORE.INTER.POLAR>
0

>  <SCORE.INTER.ROT>
2

>  <SCORE.INTER.SOLV>
36.5944

>  <SCORE.INTER.VDW>
-2.98274

>  <SCORE.INTER.norm>
0.461371

>  <SCORE.INTRA>
3.69643

>  <SCORE.INTRA.DIHEDRAL>
-0.0295082

>  <SCORE.INTRA.DIHEDRAL.0>
2.40424

>  <SCORE.INTRA.POLAR>
0

>  <SCORE.INTRA.POLAR.0>
0

>  <SCORE.INTRA.REPUL>
0

>  <SCORE.INTRA.REPUL.0>
0

>  <SCORE.INTRA.SOLV>
4.08594

>  <SCORE.INTRA.SOLV.lig_0>
-134.169

>  <SCORE.INTRA.VDW>
1.66821

>  <SCORE.INTRA.VDW.0>
-2.18386

>  <SCORE.INTRA.norm>
0.0803571

>  <SCORE.RESTR>
3.06147

>  <SCORE.RESTR.CAVITY>
3.06147

>  <SCORE.RESTR.norm>
0.0665536

>  <SCORE.SYSTEM>
0

>  <SCORE.SYSTEM.CONST>
0

>  <SCORE.SYSTEM.DIHEDRAL>
0

>  <SCORE.SYSTEM.SOLV>
0

>  <SCORE.SYSTEM.norm>
0

>  <SCORE.heavy>
46

>  <SCORE.norm>
0.608282

>  <RMSD>
19.252

$$$$
ligand
 OpenBabel02271912143D
libRbt.so/2013.1/901 2013/11/27
 46 52  0  0  0  0  0  0  0  0999 V2000
   -2.6764   -0.3558   -0.1708 P   0  0  1  0  0  0  0  0  0  0  0  0
   -4.6663   -5.5619   -2.0718 P   0  0  2  0  0  0  0  0  0  0  0  0
   -1.1528   -0.5662    0.7101 O   0  5  0  0  0  0  0  0  0  0  0  0
   -3.1172    1.3654   -0.3205 O   0  0  0  0  0  0  0  0  0  0  0  0
   -3.6190   -1.0983   -2.5338 C   0  0  0  0  0  0  0  0  0  0  0  0
   -2.5156   -1.0199   -1.6311 O   0  0  0  0  0  0  0  0  0  0  0  0
   -3.3200   -2.1631   -3.5718 C   0  0  1  0  0  0  0  0  0  0  0  0
   -2.0467   -1.8965   -4.1765 O   0  0  0  0  0  0  0  0  0  0  0  0
   -3.2071   -3.5601   -2.9835 C   0  0  1  0  0  0  0  0  0  0  0  0
   -4.4574   -4.2455   -2.9831 O   0  0  0  0  0  0  0  0  0  0  0  0
   -2.1897   -4.2338   -3.8875 C   0  0  1  0  0  0  0  0  0  0  0  0
   -2.8496   -4.8416   -5.0009 O   0  0  0  0  0  0  0  0  0  0  0  0
   -1.3101   -3.1089   -4.4006 C   0  0  2  0  0  0  0  0  0  0  0  0
   -3.6652   -3.9735    2.7295 C   0  0  1  0  0  0  0  0  0  0  0  0
    3.6576   -1.2591   -4.0964 N   0  0  0  0  0  0  0  0  0  0  0  0
    2.7183   -1.0397   -5.0566 C   0  0  1  0  0  0  0  0  0  0  0  0
   -2.9833   -2.7940    2.0962 C   0  0  2  0  0  0  0  0  0  0  0  0
    3.0463   -0.2472   -6.1030 N   0  0  0  0  0  0  0  0  0  0  0  0
   -3.1422   -1.7007    3.0020 O   0  0  0  0  0  0  0  0  0  0  0  0
   -3.7289   -2.5694    0.7957 C   0  0  2  0  0  0  0  0  0  0  0  0
    1.4676   -1.5873   -5.0064 N   0  0  0  0  0  0  0  0  0  0  0  0
   -3.8768   -1.1859    0.5066 O   0  0  0  0  0  0  0  0  0  0  0  0
    1.0892   -2.3871   -3.9774 C   0  0  2  0  0  0  0  0  0  0  0  0
   -5.0889   -3.2032    1.0126 C   0  0  2  0  0  0  0  0  0  0  0  0
   -4.9168   -4.1487    2.0670 O   0  0  0  0  0  0  0  0  0  0  0  0
    2.0698   -2.6595   -2.9123 C   0  0  1  0  0  0  0  0  0  0  0  0
   -5.6147   -3.9157   -0.2285 C   0  0  0  0  0  0  0  0  0  0  0  0
   -4.7200   -4.9752   -0.5732 O   0  0  0  0  0  0  0  0  0  0  0  0
    3.4025   -2.0399   -3.0218 C   0  0  0  0  0  0  0  0  0  0  0  0
    4.3464   -2.2563   -2.0708 O   0  0  0  0  0  0  0  0  0  0  0  0
    1.4704   -3.4654   -2.0289 N   0  0  0  0  0  0  0  0  0  0  0  0
    0.2048   -3.6982   -2.4847 C   0  0  0  0  0  0  0  0  0  0  0  0
   -0.0279   -3.0569   -3.6493 N   0  0  1  0  0  0  0  0  0  0  0  0
   -2.4338   -8.5997    4.8389 N   0  0  0  0  0  0  0  0  0  0  0  0
   -3.3059   -6.7013   -2.2497 O   0  5  0  0  0  0  0  0  0  0  0  0
   -3.3254   -7.6607    5.2584 C   0  0  2  0  0  0  0  0  0  0  0  0
   -4.0486   -7.8893    6.3857 N   0  0  0  0  0  0  0  0  0  0  0  0
   -6.1921   -6.4073   -2.3963 O   0  0  0  0  0  0  0  0  0  0  0  0
   -3.5178   -6.4953    4.5822 N   0  0  0  0  0  0  0  0  0  0  0  0
   -2.8323   -6.2137    3.4495 C   0  0  2  0  0  0  0  0  0  0  0  0
   -1.8534   -7.1875    2.9483 C   0  0  2  0  0  0  0  0  0  0  0  0
   -1.6843   -8.4318    3.7287 C   0  0  0  0  0  0  0  0  0  0  0  0
   -0.8023   -9.3878    3.3455 O   0  0  0  0  0  0  0  0  0  0  0  0
   -1.3177   -6.6555    1.8318 N   0  0  0  0  0  0  0  0  0  0  0  0
   -1.9103   -5.4405    1.6328 C   0  0  0  0  0  0  0  0  0  0  0  0
   -2.8136   -5.1806    2.6051 N   0  0  1  0  0  0  0  0  0  0  0  0
  1  3  1  1  0  0  0
  1  4  2  0  0  0  0
  1  6  1  0  0  0  0
  1 22  1  0  0  0  0
  2 28  1  0  0  0  0
  2 35  1  6  0  0  0
  2 38  2  0  0  0  0
  2 10  1  0  0  0  0
  5  6  1  0  0  0  0
  7  5  1  1  0  0  0
  7  8  1  0  0  0  0
  7  9  1  0  0  0  0
  9 10  1  6  0  0  0
  9 11  1  0  0  0  0
 11 12  1  6  0  0  0
 11 13  1  0  0  0  0
 13  8  1  1  0  0  0
 13 33  1  0  0  0  0
 14 46  1  0  0  0  0
 14 17  1  0  0  0  0
 14 25  1  6  0  0  0
 15 16  1  0  0  0  0
 15 29  1  0  0  0  0
 16 18  1  6  0  0  0
 16 21  1  0  0  0  0
 17 19  1  1  0  0  0
 17 20  1  0  0  0  0
 20 22  1  1  0  0  0
 20 24  1  0  0  0  0
 23 21  1  6  0  0  0
 23 26  1  0  0  0  0
 23 33  1  0  0  0  0
 24 25  1  1  0  0  0
 24 27  1  0  0  0  0
 26 29  1  1  0  0  0
 26 31  1  0  0  0  0
 27 28  1  0  0  0  0
 29 30  2  0  0  0  0
 31 32  1  0  0  0  0
 33 32  1  1  0  0  0
 34 36  1  0  0  0  0
 34 42  1  0  0  0  0
 36 37  1  6  0  0  0
 36 39  1  0  0  0  0
 40 39  1  1  0  0  0
 40 41  1  0  0  0  0
 40 46  1  0  0  0  0
 41 42  1  1  0  0  0
 41 44  1  0  0  0  0
 42 43  2  0  0  0  0
 44 45  1  0  0  0  0
 46 45  1  6  0  0  0
M  CHG  2   3  -1  35  -1
M  END
>  <CHROM.1>
-77.58778228,152.58915976,-2.06032045,-3.74227738,-0.61565410,1.11955318
0.10262591,-0.92905065

>  <Name>
ligand

>  <RI>
0

>  <Rbt.Current_Directory>
/home/itssahil/PROJECTS/Mol_Feturizer/Test_systems_manuscript/rnas/3mum

>  <Rbt.Executable>
rbdock ($Id: //depot/dev/client3/rdock/2013.1/src/exe/rbdock.cxx#4 $)

>  <Rbt.Library>
libRbt.so (2013.1, Build901 2013/11/27)

>  <Rbt.Parameter_File>
/export/apps/rDock/src/rDock_2013.1_src/data/scripts/dock_solv.prm

>  <Rbt.Receptor>
prm/blind_docking_60.prm

>  <SCORE>
-3.54067

>  <SCORE.INTER>
-6.40639

>  <SCORE.INTER.CONST>
1

>  <SCORE.INTER.POLAR>
0

>  <SCORE.INTER.ROT>
2

>  <SCORE.INTER.SOLV>
39.1054

>  <SCORE.INTER.VDW>
-22.2394

>  <SCORE.INTER.norm>
-0.139269

>  <SCORE.INTRA>
0.686797

>  <SCORE.INTRA.DIHEDRAL>
-0.0345227

>  <SCORE.INTRA.DIHEDRAL.0>
2.40424

>  <SCORE.INTRA.POLAR>
0

>  <SCORE.INTRA.POLAR.0>
0

>  <SCORE.INTRA.REPUL>
0

>  <SCORE.INTRA.REPUL.0>
0

>  <SCORE.INTRA.SOLV>
0.0165881

>  <SCORE.INTRA.SOLV.lig_0>
-134.169

>  <SCORE.INTRA.VDW>
0.695764

>  <SCORE.INTRA.VDW.0>
-2.18386

>  <SCORE.INTRA.norm>
0.0149304

>  <SCORE.RESTR>
2.17892

>  <SCORE.RESTR.CAVITY>
2.17892

>  <SCORE.RESTR.norm>
0.0473679

>  <SCORE.SYSTEM>
0

>  <SCORE.SYSTEM.CONST>
0

>  <SCORE.SYSTEM.DIHEDRAL>
0

>  <SCORE.SYSTEM.SOLV>
0

>  <SCORE.SYSTEM.norm>
0

>  <SCORE.heavy>
46

>  <SCORE.norm>
-0.076971

>  <RMSD>
19.297

$$$$
ligand
 OpenBabel02271912143D
libRbt.so/2013.1/901 2013/11/27
 46 52  0  0  0  0  0  0  0  0999 V2000
   -5.3700   -5.5080   -2.2758 P   0  0  1  0  0  0  0  0  0  0  0  0
   -2.9674   -0.5659   -0.1593 P   0  0  2  0  0  0  0  0  0  0  0  0
   -4.2135   -6.8469   -2.1685 O   0  5  0  0  0  0  0  0  0  0  0  0
   -6.9521   -6.0533   -2.8913 O   0  0  0  0  0  0  0  0  0  0  0  0
   -6.3264   -3.6892   -0.6023 C   0  0  0  0  0  0  0  0  0  0  0  0
   -5.5350   -4.8594   -0.8091 O   0  0  0  0  0  0  0  0  0  0  0  0
   -5.9133   -3.0518    0.7106 C   0  0  1  0  0  0  0  0  0  0  0  0
   -5.9755   -4.0308    1.7573 O   0  0  0  0  0  0  0  0  0  0  0  0
   -4.4791   -2.5482    0.7085 C   0  0  1  0  0  0  0  0  0  0  0  0
   -4.3879   -1.1881    0.2902 O   0  0  0  0  0  0  0  0  0  0  0  0
   -4.0480   -2.7288    2.1533 C   0  0  1  0  0  0  0  0  0  0  0  0
   -4.3735   -1.5612    2.9118 O   0  0  0  0  0  0  0  0  0  0  0  0
   -4.8767   -3.8896    2.6713 C   0  0  2  0  0  0  0  0  0  0  0  0
   -1.4129   -3.5829   -4.0399 C   0  0  1  0  0  0  0  0  0  0  0  0
   -0.4368   -6.4150    1.2211 N   0  0  0  0  0  0  0  0  0  0  0  0
   -0.8120   -5.1301    0.9744 C   0  0  1  0  0  0  0  0  0  0  0  0
   -2.4159   -4.5831   -3.5392 C   0  0  2  0  0  0  0  0  0  0  0  0
    0.0281   -4.3440    0.2624 N   0  0  0  0  0  0  0  0  0  0  0  0
   -2.8686   -5.3091   -4.6833 O   0  0  0  0  0  0  0  0  0  0  0  0
   -3.5194   -3.7473   -2.9216 C   0  0  2  0  0  0  0  0  0  0  0  0
   -1.9966   -4.6086    1.4119 N   0  0  0  0  0  0  0  0  0  0  0  0
   -4.8033   -4.3008   -3.1761 O   0  0  0  0  0  0  0  0  0  0  0  0
   -2.8724   -5.3551    2.1312 C   0  0  2  0  0  0  0  0  0  0  0  0
   -3.3976   -2.3901   -3.5861 C   0  0  2  0  0  0  0  0  0  0  0  0
   -2.0591   -2.3111   -4.0732 O   0  0  0  0  0  0  0  0  0  0  0  0
   -2.5161   -6.7544    2.4236 C   0  0  1  0  0  0  0  0  0  0  0  0
   -3.6582   -1.2351   -2.6255 C   0  0  0  0  0  0  0  0  0  0  0  0
   -2.6841   -1.2678   -1.5805 O   0  0  0  0  0  0  0  0  0  0  0  0
   -1.2244   -7.2596    1.9252 C   0  0  0  0  0  0  0  0  0  0  0  0
   -0.8440   -8.5405    2.1634 O   0  0  0  0  0  0  0  0  0  0  0  0
   -3.5272   -7.2738    3.1285 N   0  0  0  0  0  0  0  0  0  0  0  0
   -4.4637   -6.2922    3.2797 C   0  0  0  0  0  0  0  0  0  0  0  0
   -4.0778   -5.1438    2.6847 N   0  0  1  0  0  0  0  0  0  0  0  0
    2.8784   -0.9292   -2.6573 N   0  0  0  0  0  0  0  0  0  0  0  0
   -1.6797   -0.9703    1.0065 O   0  5  0  0  0  0  0  0  0  0  0  0
    1.9409   -0.6392   -3.6007 C   0  0  2  0  0  0  0  0  0  0  0  0
    2.0660    0.4988   -4.3324 N   0  0  0  0  0  0  0  0  0  0  0  0
   -3.0143    1.1909   -0.4027 O   0  0  0  0  0  0  0  0  0  0  0  0
    0.8772   -1.4550   -3.8355 N   0  0  0  0  0  0  0  0  0  0  0  0
    0.6948   -2.5985   -3.1345 C   0  0  2  0  0  0  0  0  0  0  0  0
    1.6751   -2.9669   -2.1045 C   0  0  2  0  0  0  0  0  0  0  0  0
    2.8120   -2.0442   -1.8992 C   0  0  0  0  0  0  0  0  0  0  0  0
    3.7682   -2.3018   -0.9730 O   0  0  0  0  0  0  0  0  0  0  0  0
    1.2613   -4.1373   -1.5799 N   0  0  0  0  0  0  0  0  0  0  0  0
    0.1061   -4.4869   -2.2204 C   0  0  0  0  0  0  0  0  0  0  0  0
   -0.2263   -3.5637   -3.1511 N   0  0  1  0  0  0  0  0  0  0  0  0
  1  3  1  1  0  0  0
  1  4  2  0  0  0  0
  1  6  1  0  0  0  0
  1 22  1  0  0  0  0
  2 28  1  0  0  0  0
  2 35  1  1  0  0  0
  2 38  2  0  0  0  0
  2 10  1  0  0  0  0
  5  6  1  0  0  0  0
  7  5  1  6  0  0  0
  7  8  1  0  0  0  0
  7  9  1  0  0  0  0
  9 10  1  1  0  0  0
  9 11  1  0  0  0  0
 11 12  1  1  0  0  0
 11 13  1  0  0  0  0
 13  8  1  6  0  0  0
 13 33  1  0  0  0  0
 14 46  1  0  0  0  0
 14 17  1  0  0  0  0
 14 25  1  1  0  0  0
 15 16  1  0  0  0  0
 15 29  1  0  0  0  0
 16 18  1  6  0  0  0
 16 21  1  0  0  0  0
 17 19  1  6  0  0  0
 17 20  1  0  0  0  0
 20 22  1  6  0  0  0
 20 24  1  0  0  0  0
 23 21  1  6  0  0  0
 23 26  1  0  0  0  0
 23 33  1  0  0  0  0
 24 25  1  1  0  0  0
 24 27  1  0  0  0  0
 26 29  1  1  0  0  0
 26 31  1  0  0  0  0
 27 28  1  0  0  0  0
 29 30  2  0  0  0  0
 31 32  1  0  0  0  0
 33 32  1  1  0  0  0
 34 36  1  0  0  0  0
 34 42  1  0  0  0  0
 36 37  1  1  0  0  0
 36 39  1  0  0  0  0
 40 39  1  6  0  0  0
 40 41  1  0  0  0  0
 40 46  1  0  0  0  0
 41 42  1  6  0  0  0
 41 44  1  0  0  0  0
 42 43  2  0  0  0  0
 44 45  1  0  0  0  0
 46 45  1  1  0  0  0
M  CHG  2   3  -1  35  -1
M  END
>  <CHROM.1>
105.93623689,-164.18158461,-2.38788994,-3.57105099,-0.80713538,2.39323268
0.05541523,2.23395496

>  <Name>
ligand

>  <RI>
-1

>  <Rbt.Current_Directory>
/home/itssahil/PROJECTS/Mol_Feturizer/Test_systems_manuscript/rnas/3mum

>  <Rbt.Executable>
rbdock ($Id: //depot/dev/client3/rdock/2013.1/src/exe/rbdock.cxx#4 $)

>  <Rbt.Library>
libRbt.so (2013.1, Build901 2013/11/27)

>  <Rbt.Parameter_File>
/export/apps/rDock/src/rDock_2013.1_src/data/scripts/dock_solv.prm

>  <Rbt.Receptor>
prm/blind_docking_20.prm

>  <SCORE>
10.201

>  <SCORE.INTER>
2.8845

>  <SCORE.INTER.CONST>
1

>  <SCORE.INTER.POLAR>
0

>  <SCORE.INTER.ROT>
2

>  <SCORE.INTER.SOLV>
39.156

>  <SCORE.INTER.VDW>
-16.0623

>  <SCORE.INTER.norm>
0.0627064

>  <SCORE.INTRA>
7.09211

>  <SCORE.INTRA.DIHEDRAL>
0.0180748

>  <SCORE.INTRA.DIHEDRAL.0>
2.40424

>  <SCORE.INTRA.POLAR>
0

>  <SCORE.INTRA.POLAR.0>
0

>  <SCORE.INTRA.REPUL>
0

>  <SCORE.INTRA.REPUL.0>
0

>  <SCORE.INTRA.SOLV>
5.14274

>  <SCORE.INTRA.SOLV.lig_0>
-134.169

>  <SCORE.INTRA.VDW>
4.5117

>  <SCORE.INTRA.VDW.0>
-2.18386

>  <SCORE.INTRA.norm>
0.154176

>  <SCORE.RESTR>
0.224364

>  <SCORE.RESTR.CAVITY>
0.224364

>  <SCORE.RESTR.norm>
0.00487749

>  <SCORE.SYSTEM>
0

>  <SCORE.SYSTEM.CONST>
0

>  <SCORE.SYSTEM.DIHEDRAL>
0

>  <SCORE.SYSTEM.SOLV>
0

>  <SCORE.SYSTEM.norm>
0

>  <SCORE.heavy>
46

>  <SCORE.norm>
0.22176

>  <RMSD>
19.339

$$$$
ligand
 OpenBabel02271912143D
libRbt.so/2013.1/901 2013/11/27
 46 52  0  0  0  0  0  0  0  0999 V2000
   -0.5784   -5.7394   -0.5926 P   0  0  1  0  0  0  0  0  0  0  0  0
   -3.9813   -0.9867   -1.3061 P   0  0  2  0  0  0  0  0  0  0  0  0
   -1.5656   -7.1361   -0.1273 O   0  5  0  0  0  0  0  0  0  0  0  0
    1.1333   -6.1877   -0.8121 O   0  0  0  0  0  0  0  0  0  0  0  0
   -0.6486   -3.9265   -2.5245 C   0  0  0  0  0  0  0  0  0  0  0  0
   -1.1750   -5.1275   -1.9597 O   0  0  0  0  0  0  0  0  0  0  0  0
   -1.6769   -3.3497   -3.4787 C   0  0  1  0  0  0  0  0  0  0  0  0
   -2.0684   -4.3552   -4.4239 O   0  0  0  0  0  0  0  0  0  0  0  0
   -2.9604   -2.9173   -2.7887 C   0  0  1  0  0  0  0  0  0  0  0  0
   -2.9176   -1.5515   -2.3816 O   0  0  0  0  0  0  0  0  0  0  0  0
   -4.0207   -3.1619   -3.8479 C   0  0  1  0  0  0  0  0  0  0  0  0
   -4.1667   -2.0029   -4.6724 O   0  0  0  0  0  0  0  0  0  0  0  0
   -3.4771   -4.2956   -4.6975 C   0  0  2  0  0  0  0  0  0  0  0  0
   -3.3070   -3.9593    2.8517 C   0  0  1  0  0  0  0  0  0  0  0  0
   -7.6992   -7.4994   -5.0171 N   0  0  0  0  0  0  0  0  0  0  0  0
   -7.5122   -6.2697   -5.5695 C   0  0  1  0  0  0  0  0  0  0  0  0
   -2.6116   -4.9235    1.9330 C   0  0  2  0  0  0  0  0  0  0  0  0
   -8.5130   -5.7435   -6.3127 N   0  0  0  0  0  0  0  0  0  0  0  0
   -1.6246   -5.5919    2.7205 O   0  0  0  0  0  0  0  0  0  0  0  0
   -1.9898   -4.0533    0.8588 C   0  0  2  0  0  0  0  0  0  0  0  0
   -6.3630   -5.5502   -5.4011 N   0  0  0  0  0  0  0  0  0  0  0  0
   -0.7120   -4.5352    0.4662 O   0  0  0  0  0  0  0  0  0  0  0  0
   -5.3297   -6.0345   -4.6668 C   0  0  2  0  0  0  0  0  0  0  0  0
   -1.8556   -2.6844    1.4965 C   0  0  2  0  0  0  0  0  0  0  0  0
   -2.7983   -2.6568    2.5670 O   0  0  0  0  0  0  0  0  0  0  0  0
   -5.4815   -7.3609   -4.0439 C   0  0  1  0  0  0  0  0  0  0  0  0
   -2.1547   -1.5473    0.5260 C   0  0  0  0  0  0  0  0  0  0  0  0
   -3.5071   -1.6589    0.0781 O   0  0  0  0  0  0  0  0  0  0  0  0
   -6.7442   -8.0889   -4.2620 C   0  0  0  0  0  0  0  0  0  0  0  0
   -6.9405   -9.3140   -3.7120 O   0  0  0  0  0  0  0  0  0  0  0  0
   -4.3484   -7.6097   -3.3781 N   0  0  0  0  0  0  0  0  0  0  0  0
   -3.5290   -6.5320   -3.5535 C   0  0  0  0  0  0  0  0  0  0  0  0
   -4.1109   -5.5873   -4.3220 N   0  0  1  0  0  0  0  0  0  0  0  0
   -7.1174   -5.2131   -0.5064 N   0  0  0  0  0  0  0  0  0  0  0  0
   -5.6448   -1.4885   -1.7082 O   0  5  0  0  0  0  0  0  0  0  0  0
   -5.7663   -5.2680   -0.6619 C   0  0  2  0  0  0  0  0  0  0  0  0
   -5.2514   -5.7107   -1.8387 N   0  0  0  0  0  0  0  0  0  0  0  0
   -3.9243    0.7768   -1.1196 O   0  0  0  0  0  0  0  0  0  0  0  0
   -4.9103   -4.8929    0.3274 N   0  0  0  0  0  0  0  0  0  0  0  0
   -5.3628   -4.4498    1.5237 C   0  0  2  0  0  0  0  0  0  0  0  0
   -6.8116   -4.3655    1.7505 C   0  0  2  0  0  0  0  0  0  0  0  0
   -7.6908   -4.7812    0.6368 C   0  0  0  0  0  0  0  0  0  0  0  0
   -9.0411   -4.7355    0.7523 O   0  0  0  0  0  0  0  0  0  0  0  0
   -6.9789   -3.8902    3.0005 N   0  0  0  0  0  0  0  0  0  0  0  0
   -5.7359   -3.6908    3.5319 C   0  0  0  0  0  0  0  0  0  0  0  0
   -4.7733   -4.0250    2.6428 N   0  0  1  0  0  0  0  0  0  0  0  0
  1  3  1  1  0  0  0
  1  4  2  0  0  0  0
  1  6  1  0  0  0  0
  1 22  1  0  0  0  0
  2 28  1  0  0  0  0
  2 35  1  6  0  0  0
  2 38  2  0  0  0  0
  2 10  1  0  0  0  0
  5  6  1  0  0  0  0
  7  5  1  1  0  0  0
  7  8  1  0  0  0  0
  7  9  1  0  0  0  0
  9 10  1  6  0  0  0
  9 11  1  0  0  0  0
 11 12  1  6  0  0  0
 11 13  1  0  0  0  0
 13  8  1  1  0  0  0
 13 33  1  0  0  0  0
 14 46  1  0  0  0  0
 14 17  1  0  0  0  0
 14 25  1  6  0  0  0
 15 16  1  0  0  0  0
 15 29  1  0  0  0  0
 16 18  1  1  0  0  0
 16 21  1  0  0  0  0
 17 19  1  1  0  0  0
 17 20  1  0  0  0  0
 20 22  1  1  0  0  0
 20 24  1  0  0  0  0
 23 21  1  1  0  0  0
 23 26  1  0  0  0  0
 23 33  1  0  0  0  0
 24 25  1  1  0  0  0
 24 27  1  0  0  0  0
 26 29  1  6  0  0  0
 26 31  1  0  0  0  0
 27 28  1  0  0  0  0
 29 30  2  0  0  0  0
 31 32  1  0  0  0  0
 33 32  1  6  0  0  0
 34 36  1  0  0  0  0
 34 42  1  0  0  0  0
 36 37  1  1  0  0  0
 36 39  1  0  0  0  0
 40 39  1  6  0  0  0
 40 41  1  0  0  0  0
 40 46  1  0  0  0  0
 41 42  1  6  0  0  0
 41 44  1  0  0  0  0
 42 43  2  0  0  0  0
 44 45  1  0  0  0  0
 46 45  1  1  0  0  0
M  CHG  2   3  -1  35  -1
M  END
>  <CHROM.1>
-165.07910871,-23.52708142,-4.04884269,-4.45121747,-1.31413719,-1.04748698
-0.21342051,-1.92032965

>  <Name>
ligand

>  <RI>
-1

>  <Rbt.Current_Directory>
/home/itssahil/PROJECTS/Mol_Feturizer/Test_systems_manuscript/rnas/3mum

>  <Rbt.Executable>
rbdock ($Id: //depot/dev/client3/rdock/2013.1/src/exe/rbdock.cxx#4 $)

>  <Rbt.Library>
libRbt.so (2013.1, Build901 2013/11/27)

>  <Rbt.Parameter_File>
/export/apps/rDock/src/rDock_2013.1_src/data/scripts/dock_solv.prm

>  <Rbt.Receptor>
prm/blind_docking_20.prm

>  <SCORE>
63.5508

>  <SCORE.INTER>
57.8755

>  <SCORE.INTER.CONST>
1

>  <SCORE.INTER.POLAR>
0

>  <SCORE.INTER.ROT>
2

>  <SCORE.INTER.SOLV>
44.4365

>  <SCORE.INTER.VDW>
18.8382

>  <SCORE.INTER.norm>
1.25816

>  <SCORE.INTRA>
4.19125

>  <SCORE.INTRA.DIHEDRAL>
0.0245045

>  <SCORE.INTRA.DIHEDRAL.0>
2.40424

>  <SCORE.INTRA.POLAR>
0

>  <SCORE.INTRA.POLAR.0>
0

>  <SCORE.INTRA.REPUL>
0

>  <SCORE.INTRA.REPUL.0>
0

>  <SCORE.INTRA.SOLV>
9.14519

>  <SCORE.INTRA.SOLV.lig_0>
-134.169

>  <SCORE.INTRA.VDW>
-0.393593

>  <SCORE.INTRA.VDW.0>
-2.18386

>  <SCORE.INTRA.norm>
0.0911142

>  <SCORE.RESTR>
1.48404

>  <SCORE.RESTR.CAVITY>
1.48404

>  <SCORE.RESTR.norm>
0.0322617

>  <SCORE.SYSTEM>
0

>  <SCORE.SYSTEM.CONST>
0

>  <SCORE.SYSTEM.DIHEDRAL>
0

>  <SCORE.SYSTEM.SOLV>
0

>  <SCORE.SYSTEM.norm>
0

>  <SCORE.heavy>
46

>  <SCORE.norm>
1.38154

>  <RMSD>
19.341

$$$$
ligand
 OpenBabel02271912143D
libRbt.so/2013.1/901 2013/11/27
 46 52  0  0  0  0  0  0  0  0999 V2000
   -5.3743   -5.4964   -2.2900 P   0  0  1  0  0  0  0  0  0  0  0  0
   -2.9643   -0.5626   -0.1626 P   0  0  2  0  0  0  0  0  0  0  0  0
   -4.2183   -6.8362   -2.1897 O   0  5  0  0  0  0  0  0  0  0  0  0
   -6.9581   -6.0389   -2.9037 O   0  0  0  0  0  0  0  0  0  0  0  0
   -6.3259   -3.6826   -0.6083 C   0  0  0  0  0  0  0  0  0  0  0  0
   -5.5356   -4.8525   -0.8208 O   0  0  0  0  0  0  0  0  0  0  0  0
   -5.9095   -3.0497    0.7058 C   0  0  1  0  0  0  0  0  0  0  0  0
   -5.9698   -4.0322    1.7494 O   0  0  0  0  0  0  0  0  0  0  0  0
   -4.4751   -2.5469    0.7020 C   0  0  1  0  0  0  0  0  0  0  0  0
   -4.3841   -1.1855    0.2881 O   0  0  0  0  0  0  0  0  0  0  0  0
   -4.0408   -2.7325    2.1453 C   0  0  1  0  0  0  0  0  0  0  0  0
   -4.3639   -1.5672    2.9083 O   0  0  0  0  0  0  0  0  0  0  0  0
   -4.8688   -3.8946    2.6613 C   0  0  2  0  0  0  0  0  0  0  0  0
   -1.4202   -3.5675   -4.0567 C   0  0  1  0  0  0  0  0  0  0  0  0
   -0.4317   -6.4162    1.1964 N   0  0  0  0  0  0  0  0  0  0  0  0
   -0.8065   -5.1301    0.9553 C   0  0  1  0  0  0  0  0  0  0  0  0
   -2.4226   -4.5689   -3.5570 C   0  0  2  0  0  0  0  0  0  0  0  0
    0.0333   -4.3415    0.2459 N   0  0  0  0  0  0  0  0  0  0  0  0
   -2.8783   -5.2909   -4.7025 O   0  0  0  0  0  0  0  0  0  0  0  0
   -3.5243   -3.7345   -2.9342 C   0  0  2  0  0  0  0  0  0  0  0  0
   -1.9904   -4.6098    1.3962 N   0  0  0  0  0  0  0  0  0  0  0  0
   -4.8090   -4.2865   -3.1876 O   0  0  0  0  0  0  0  0  0  0  0  0
   -2.8658   -5.3589    2.1132 C   0  0  2  0  0  0  0  0  0  0  0  0
   -3.4033   -2.3751   -3.5944 C   0  0  2  0  0  0  0  0  0  0  0  0
   -2.0658   -2.2953   -4.0844 O   0  0  0  0  0  0  0  0  0  0  0  0
   -2.5100   -6.7595    2.3994 C   0  0  1  0  0  0  0  0  0  0  0  0
   -3.6610   -1.2233   -2.6295 C   0  0  0  0  0  0  0  0  0  0  0  0
   -2.6845   -1.2599   -1.5868 O   0  0  0  0  0  0  0  0  0  0  0  0
   -1.2190   -7.2633    1.8977 C   0  0  0  0  0  0  0  0  0  0  0  0
   -0.8391   -8.5454    2.1303 O   0  0  0  0  0  0  0  0  0  0  0  0
   -3.5207   -7.2814    3.1032 N   0  0  0  0  0  0  0  0  0  0  0  0
   -4.4565   -6.2998    3.2593 C   0  0  0  0  0  0  0  0  0  0  0  0
   -4.0706   -5.1492    2.6688 N   0  0  1  0  0  0  0  0  0  0  0  0
    2.8824   -0.9270   -2.6841 N   0  0  0  0  0  0  0  0  0  0  0  0
   -1.6742   -0.9714    0.9989 O   0  5  0  0  0  0  0  0  0  0  0  0
    1.9437   -0.6341   -3.6254 C   0  0  2  0  0  0  0  0  0  0  0  0
    2.0707    0.5033   -4.3576 N   0  0  0  0  0  0  0  0  0  0  0  0
   -3.0108    1.1951   -0.4002 O   0  0  0  0  0  0  0  0  0  0  0  0
    0.8769   -1.4467   -3.8578 N   0  0  0  0  0  0  0  0  0  0  0  0
    0.6925   -2.5895   -3.1562 C   0  0  2  0  0  0  0  0  0  0  0  0
    1.6740   -2.9608   -2.1283 C   0  0  2  0  0  0  0  0  0  0  0  0
    2.8142   -2.0416   -1.9257 C   0  0  0  0  0  0  0  0  0  0  0  0
    3.7716   -2.3021   -1.0015 O   0  0  0  0  0  0  0  0  0  0  0  0
    1.2577   -4.1298   -1.6025 N   0  0  0  0  0  0  0  0  0  0  0  0
    0.1000   -4.4759   -2.2405 C   0  0  0  0  0  0  0  0  0  0  0  0
   -0.2316   -3.5519   -3.1706 N   0  0  1  0  0  0  0  0  0  0  0  0
  1  3  1  1  0  0  0
  1  4  2  0  0  0  0
  1  6  1  0  0  0  0
  1 22  1  0  0  0  0
  2 28  1  0  0  0  0
  2 35  1  1  0  0  0
  2 38  2  0  0  0  0
  2 10  1  0  0  0  0
  5  6  1  0  0  0  0
  7  5  1  6  0  0  0
  7  8  1  0  0  0  0
  7  9  1  0  0  0  0
  9 10  1  1  0  0  0
  9 11  1  0  0  0  0
 11 12  1  1  0  0  0
 11 13  1  0  0  0  0
 13  8  1  6  0  0  0
 13 33  1  0  0  0  0
 14 46  1  0  0  0  0
 14 17  1  0  0  0  0
 14 25  1  1  0  0  0
 15 16  1  0  0  0  0
 15 29  1  0  0  0  0
 16 18  1  6  0  0  0
 16 21  1  0  0  0  0
 17 19  1  6  0  0  0
 17 20  1  0  0  0  0
 20 22  1  6  0  0  0
 20 24  1  0  0  0  0
 23 21  1  6  0  0  0
 23 26  1  0  0  0  0
 23 33  1  0  0  0  0
 24 25  1  1  0  0  0
 24 27  1  0  0  0  0
 26 29  1  1  0  0  0
 26 31  1  0  0  0  0
 27 28  1  0  0  0  0
 29 30  2  0  0  0  0
 31 32  1  0  0  0  0
 33 32  1  1  0  0  0
 34 36  1  0  0  0  0
 34 42  1  0  0  0  0
 36 37  1  1  0  0  0
 36 39  1  0  0  0  0
 40 39  1  6  0  0  0
 40 41  1  0  0  0  0
 40 46  1  0  0  0  0
 41 42  1  6  0  0  0
 41 44  1  0  0  0  0
 42 43  2  0  0  0  0
 44 45  1  0  0  0  0
 46 45  1  1  0  0  0
M  CHG  2   3  -1  35  -1
M  END
>  <CHROM.1>
106.02521082,-164.42879922,-2.38688594,-3.56638521,-0.82230090,2.39216147
0.05306523,2.23607064

>  <Name>
ligand

>  <RI>
-1

>  <Rbt.Current_Directory>
/home/itssahil/PROJECTS/Mol_Feturizer/Test_systems_manuscript/rnas/3mum

>  <Rbt.Executable>
rbdock ($Id: //depot/dev/client3/rdock/2013.1/src/exe/rbdock.cxx#4 $)

>  <Rbt.Library>
libRbt.so (2013.1, Build901 2013/11/27)

>  <Rbt.Parameter_File>
/export/apps/rDock/src/rDock_2013.1_src/data/scripts/dock_solv.prm

>  <Rbt.Receptor>
prm/blind_docking_20.prm

>  <SCORE>
10.118

>  <SCORE.INTER>
2.84336

>  <SCORE.INTER.CONST>
1

>  <SCORE.INTER.POLAR>
0

>  <SCORE.INTER.ROT>
2

>  <SCORE.INTER.SOLV>
39.0668

>  <SCORE.INTER.VDW>
-16.06

>  <SCORE.INTER.norm>
0.0618122

>  <SCORE.INTRA>
7.04882

>  <SCORE.INTRA.DIHEDRAL>
0.0178134

>  <SCORE.INTRA.DIHEDRAL.0>
2.40424

>  <SCORE.INTRA.POLAR>
0

>  <SCORE.INTRA.POLAR.0>
0

>  <SCORE.INTRA.REPUL>
0

>  <SCORE.INTRA.REPUL.0>
0

>  <SCORE.INTRA.SOLV>
5.12435

>  <SCORE.INTRA.SOLV.lig_0>
-134.169

>  <SCORE.INTRA.VDW>
4.47774

>  <SCORE.INTRA.VDW.0>
-2.18386

>  <SCORE.INTRA.norm>
0.153235

>  <SCORE.RESTR>
0.225835

>  <SCORE.RESTR.CAVITY>
0.225835

>  <SCORE.RESTR.norm>
0.00490946

>  <SCORE.SYSTEM>
0

>  <SCORE.SYSTEM.CONST>
0

>  <SCORE.SYSTEM.DIHEDRAL>
0

>  <SCORE.SYSTEM.SOLV>
0

>  <SCORE.SYSTEM.norm>
0

>  <SCORE.heavy>
46

>  <SCORE.norm>
0.219957

>  <RMSD>
19.352

$$$$
ligand
 OpenBabel02271912143D
libRbt.so/2013.1/901 2013/11/27
 46 52  0  0  0  0  0  0  0  0999 V2000
   -5.3650   -5.4976   -2.2982 P   0  0  1  0  0  0  0  0  0  0  0  0
   -2.9753   -0.5528   -0.1734 P   0  0  2  0  0  0  0  0  0  0  0  0
   -4.2041   -6.8331   -2.1953 O   0  5  0  0  0  0  0  0  0  0  0  0
   -6.9461   -6.0465   -2.9130 O   0  0  0  0  0  0  0  0  0  0  0  0
   -6.3250   -3.6855   -0.6194 C   0  0  0  0  0  0  0  0  0  0  0  0
   -5.5302   -4.8528   -0.8298 O   0  0  0  0  0  0  0  0  0  0  0  0
   -5.9123   -3.0498    0.6945 C   0  0  1  0  0  0  0  0  0  0  0  0
   -5.9702   -4.0314    1.7390 O   0  0  0  0  0  0  0  0  0  0  0  0
   -4.4797   -2.5417    0.6917 C   0  0  1  0  0  0  0  0  0  0  0  0
   -4.3933   -1.1804    0.2765 O   0  0  0  0  0  0  0  0  0  0  0  0
   -4.0463   -2.7242    2.1356 C   0  0  1  0  0  0  0  0  0  0  0  0
   -4.3745   -1.5594    2.8971 O   0  0  0  0  0  0  0  0  0  0  0  0
   -4.8706   -3.8889    2.6520 C   0  0  2  0  0  0  0  0  0  0  0  0
   -1.4160   -3.5561   -4.0627 C   0  0  1  0  0  0  0  0  0  0  0  0
   -0.4199   -6.3938    1.1998 N   0  0  0  0  0  0  0  0  0  0  0  0
   -0.7987   -5.1091    0.9579 C   0  0  1  0  0  0  0  0  0  0  0  0
   -2.4153   -4.5606   -3.5631 C   0  0  2  0  0  0  0  0  0  0  0  0
    0.0403   -4.3172    0.2511 N   0  0  0  0  0  0  0  0  0  0  0  0
   -2.8671   -5.2854   -4.7083 O   0  0  0  0  0  0  0  0  0  0  0  0
   -3.5207   -3.7296   -2.9422 C   0  0  2  0  0  0  0  0  0  0  0  0
   -1.9858   -4.5933    1.3953 N   0  0  0  0  0  0  0  0  0  0  0  0
   -4.8031   -4.2866   -3.1964 O   0  0  0  0  0  0  0  0  0  0  0  0
   -2.8606   -5.3456    2.1096 C   0  0  2  0  0  0  0  0  0  0  0  0
   -3.4040   -2.3705   -3.6038 C   0  0  2  0  0  0  0  0  0  0  0  0
   -2.0663   -2.2862   -4.0923 O   0  0  0  0  0  0  0  0  0  0  0  0
   -2.5005   -6.7450    2.3966 C   0  0  1  0  0  0  0  0  0  0  0  0
   -3.6670   -1.2186   -2.6402 C   0  0  0  0  0  0  0  0  0  0  0  0
   -2.6915   -1.2505   -1.5965 O   0  0  0  0  0  0  0  0  0  0  0  0
   -1.2062   -7.2440    1.8987 C   0  0  0  0  0  0  0  0  0  0  0  0
   -0.8223   -8.5247    2.1321 O   0  0  0  0  0  0  0  0  0  0  0  0
   -3.5114   -7.2707    3.0972 N   0  0  0  0  0  0  0  0  0  0  0  0
   -4.4513   -6.2927    3.2508 C   0  0  0  0  0  0  0  0  0  0  0  0
   -4.0678   -5.1405    2.6616 N   0  0  1  0  0  0  0  0  0  0  0  0
    2.8949   -0.9169   -2.7139 N   0  0  0  0  0  0  0  0  0  0  0  0
   -1.6849   -0.9557    0.9899 O   0  5  0  0  0  0  0  0  0  0  0  0
    1.9584   -0.6309   -3.6596 C   0  0  2  0  0  0  0  0  0  0  0  0
    2.0907    0.4979   -4.4041 N   0  0  0  0  0  0  0  0  0  0  0  0
   -3.0280    1.2045   -0.4128 O   0  0  0  0  0  0  0  0  0  0  0  0
    0.8888   -1.4419   -3.8843 N   0  0  0  0  0  0  0  0  0  0  0  0
    0.6993   -2.5762   -3.1704 C   0  0  2  0  0  0  0  0  0  0  0  0
    1.6781   -2.9398   -2.1373 C   0  0  2  0  0  0  0  0  0  0  0  0
    2.8216   -2.0228   -1.9434 C   0  0  0  0  0  0  0  0  0  0  0  0
    3.7769   -2.2767   -1.0152 O   0  0  0  0  0  0  0  0  0  0  0  0
    1.2567   -4.1014   -1.5992 N   0  0  0  0  0  0  0  0  0  0  0  0
    0.0985   -4.4502   -2.2347 C   0  0  0  0  0  0  0  0  0  0  0  0
   -0.2285   -3.5352   -3.1753 N   0  0  1  0  0  0  0  0  0  0  0  0
  1  3  1  1  0  0  0
  1  4  2  0  0  0  0
  1  6  1  0  0  0  0
  1 22  1  0  0  0  0
  2 28  1  0  0  0  0
  2 35  1  1  0  0  0
  2 38  2  0  0  0  0
  2 10  1  0  0  0  0
  5  6  1  0  0  0  0
  7  5  1  6  0  0  0
  7  8  1  0  0  0  0
  7  9  1  0  0  0  0
  9 10  1  1  0  0  0
  9 11  1  0  0  0  0
 11 12  1  1  0  0  0
 11 13  1  0  0  0  0
 13  8  1  6  0  0  0
 13 33  1  0  0  0  0
 14 46  1  0  0  0  0
 14 17  1  0  0  0  0
 14 25  1  1  0  0  0
 15 16  1  0  0  0  0
 15 29  1  0  0  0  0
 16 18  1  6  0  0  0
 16 21  1  0  0  0  0
 17 19  1  6  0  0  0
 17 20  1  0  0  0  0
 20 22  1  6  0  0  0
 20 24  1  0  0  0  0
 23 21  1  6  0  0  0
 23 26  1  0  0  0  0
 23 33  1  0  0  0  0
 24 25  1  1  0  0  0
 24 27  1  0  0  0  0
 26 29  1  1  0  0  0
 26 31  1  0  0  0  0
 27 28  1  0  0  0  0
 29 30  2  0  0  0  0
 31 32  1  0  0  0  0
 33 32  1  1  0  0  0
 34 36  1  0  0  0  0
 34 42  1  0  0  0  0
 36 37  1  1  0  0  0
 36 39  1  0  0  0  0
 40 39  1  6  0  0  0
 40 41  1  0  0  0  0
 40 46  1  0  0  0  0
 41 42  1  6  0  0  0
 41 44  1  0  0  0  0
 42 43  2  0  0  0  0
 44 45  1  0  0  0  0
 46 45  1  1  0  0  0
M  CHG  2   3  -1  35  -1
M  END
>  <CHROM.1>
106.15567344,-165.14255817,-2.38374869,-3.55697023,-0.83154012,2.39187239
0.05416313,2.23245614

>  <Name>
ligand

>  <RI>
-1

>  <Rbt.Current_Directory>
/home/itssahil/PROJECTS/Mol_Feturizer/Test_systems_manuscript/rnas/3mum

>  <Rbt.Executable>
rbdock ($Id: //depot/dev/client3/rdock/2013.1/src/exe/rbdock.cxx#4 $)

>  <Rbt.Library>
libRbt.so (2013.1, Build901 2013/11/27)

>  <Rbt.Parameter_File>
/export/apps/rDock/src/rDock_2013.1_src/data/scripts/dock_solv.prm

>  <Rbt.Receptor>
prm/blind_docking_20.prm

>  <SCORE>
10.2203

>  <SCORE.INTER>
2.89256

>  <SCORE.INTER.CONST>
1

>  <SCORE.INTER.POLAR>
0

>  <SCORE.INTER.ROT>
2

>  <SCORE.INTER.SOLV>
39.0628

>  <SCORE.INTER.VDW>
-16.0259

>  <SCORE.INTER.norm>
0.0628818

>  <SCORE.INTRA>
7.11263

>  <SCORE.INTRA.DIHEDRAL>
0.0170579

>  <SCORE.INTRA.DIHEDRAL.0>
2.40424

>  <SCORE.INTRA.POLAR>
0

>  <SCORE.INTRA.POLAR.0>
0

>  <SCORE.INTRA.REPUL>
0

>  <SCORE.INTRA.REPUL.0>
0

>  <SCORE.INTRA.SOLV>
5.09812

>  <SCORE.INTRA.SOLV.lig_0>
-134.169

>  <SCORE.INTRA.VDW>
4.55505

>  <SCORE.INTRA.VDW.0>
-2.18386

>  <SCORE.INTRA.norm>
0.154622

>  <SCORE.RESTR>
0.215092

>  <SCORE.RESTR.CAVITY>
0.215092

>  <SCORE.RESTR.norm>
0.00467592

>  <SCORE.SYSTEM>
0

>  <SCORE.SYSTEM.CONST>
0

>  <SCORE.SYSTEM.DIHEDRAL>
0

>  <SCORE.SYSTEM.SOLV>
0

>  <SCORE.SYSTEM.norm>
0

>  <SCORE.heavy>
46

>  <SCORE.norm>
0.22218

>  <RMSD>
19.360

$$$$
ligand
 OpenBabel02271912143D
libRbt.so/2013.1/901 2013/11/27
 46 52  0  0  0  0  0  0  0  0999 V2000
   -5.3869   -5.4880   -2.2644 P   0  0  1  0  0  0  0  0  0  0  0  0
   -2.9548   -0.5546   -0.1615 P   0  0  2  0  0  0  0  0  0  0  0  0
   -4.2282   -6.8267   -2.1812 O   0  5  0  0  0  0  0  0  0  0  0  0
   -6.9780   -6.0314   -2.8581 O   0  0  0  0  0  0  0  0  0  0  0  0
   -6.3185   -3.6778   -0.5678 C   0  0  0  0  0  0  0  0  0  0  0  0
   -5.5297   -4.8465   -0.7923 O   0  0  0  0  0  0  0  0  0  0  0  0
   -5.8856   -3.0463    0.7417 C   0  0  1  0  0  0  0  0  0  0  0  0
   -5.9312   -4.0304    1.7845 O   0  0  0  0  0  0  0  0  0  0  0  0
   -4.4519   -2.5419    0.7199 C   0  0  1  0  0  0  0  0  0  0  0  0
   -4.3679   -1.1798    0.3068 O   0  0  0  0  0  0  0  0  0  0  0  0
   -3.9986   -2.7291    2.1571 C   0  0  1  0  0  0  0  0  0  0  0  0
   -4.3130   -1.5653    2.9260 O   0  0  0  0  0  0  0  0  0  0  0  0
   -4.8185   -3.8929    2.6822 C   0  0  2  0  0  0  0  0  0  0  0  0
   -1.4584   -3.5521   -4.0798 C   0  0  1  0  0  0  0  0  0  0  0  0
   -0.3869   -6.4002    1.1767 N   0  0  0  0  0  0  0  0  0  0  0  0
   -0.7645   -5.1132    0.9458 C   0  0  1  0  0  0  0  0  0  0  0  0
   -2.4531   -4.5554   -3.5686 C   0  0  2  0  0  0  0  0  0  0  0  0
    0.0705   -4.3191    0.2365 N   0  0  0  0  0  0  0  0  0  0  0  0
   -2.9229   -5.2762   -4.7091 O   0  0  0  0  0  0  0  0  0  0  0  0
   -3.5474   -3.7232   -2.9302 C   0  0  2  0  0  0  0  0  0  0  0  0
   -1.9464   -4.5969    1.3965 N   0  0  0  0  0  0  0  0  0  0  0  0
   -4.8348   -4.2762   -3.1675 O   0  0  0  0  0  0  0  0  0  0  0  0
   -2.8170   -5.3514    2.1137 C   0  0  2  0  0  0  0  0  0  0  0  0
   -3.4366   -2.3627   -3.5899 C   0  0  2  0  0  0  0  0  0  0  0  0
   -2.1057   -2.2806   -4.0972 O   0  0  0  0  0  0  0  0  0  0  0  0
   -2.4580   -6.7534    2.3893 C   0  0  1  0  0  0  0  0  0  0  0  0
   -3.6830   -1.2125   -2.6200 C   0  0  0  0  0  0  0  0  0  0  0  0
   -2.6929   -1.2495   -1.5902 O   0  0  0  0  0  0  0  0  0  0  0  0
   -1.1693   -7.2526    1.8772 C   0  0  0  0  0  0  0  0  0  0  0  0
   -0.7867   -8.5356    2.0997 O   0  0  0  0  0  0  0  0  0  0  0  0
   -3.4641   -7.2808    3.0954 N   0  0  0  0  0  0  0  0  0  0  0  0
   -4.4002   -6.3013    3.2630 C   0  0  0  0  0  0  0  0  0  0  0  0
   -4.0189   -5.1466    2.6774 N   0  0  1  0  0  0  0  0  0  0  0  0
    2.9169   -0.9665   -2.8388 N   0  0  0  0  0  0  0  0  0  0  0  0
   -1.6491   -0.9637    0.9824 O   0  5  0  0  0  0  0  0  0  0  0  0
    1.9725   -0.6810   -3.7766 C   0  0  2  0  0  0  0  0  0  0  0  0
    2.1142    0.4316   -4.5435 N   0  0  0  0  0  0  0  0  0  0  0  0
   -3.0064    1.2034   -0.3959 O   0  0  0  0  0  0  0  0  0  0  0  0
    0.8857   -1.4767   -3.9718 N   0  0  0  0  0  0  0  0  0  0  0  0
    0.6862   -2.5943   -3.2347 C   0  0  2  0  0  0  0  0  0  0  0  0
    1.6727   -2.9566   -2.2085 C   0  0  2  0  0  0  0  0  0  0  0  0
    2.8348   -2.0569   -2.0471 C   0  0  0  0  0  0  0  0  0  0  0  0
    3.7984   -2.3110   -1.1276 O   0  0  0  0  0  0  0  0  0  0  0  0
    1.2385   -4.1006   -1.6435 N   0  0  0  0  0  0  0  0  0  0  0  0
    0.0656   -4.4400   -2.2566 C   0  0  0  0  0  0  0  0  0  0  0  0
   -0.2584   -3.5365   -3.2093 N   0  0  1  0  0  0  0  0  0  0  0  0
  1  3  1  1  0  0  0
  1  4  2  0  0  0  0
  1  6  1  0  0  0  0
  1 22  1  0  0  0  0
  2 28  1  0  0  0  0
  2 35  1  1  0  0  0
  2 38  2  0  0  0  0
  2 10  1  0  0  0  0
  5  6  1  0  0  0  0
  7  5  1  6  0  0  0
  7  8  1  0  0  0  0
  7  9  1  0  0  0  0
  9 10  1  1  0  0  0
  9 11  1  0  0  0  0
 11 12  1  1  0  0  0
 11 13  1  0  0  0  0
 13  8  1  6  0  0  0
 13 33  1  0  0  0  0
 14 46  1  0  0  0  0
 14 17  1  0  0  0  0
 14 25  1  1  0  0  0
 15 16  1  0  0  0  0
 15 29  1  0  0  0  0
 16 18  1  6  0  0  0
 16 21  1  0  0  0  0
 17 19  1  6  0  0  0
 17 20  1  0  0  0  0
 20 22  1  6  0  0  0
 20 24  1  0  0  0  0
 23 21  1  6  0  0  0
 23 26  1  0  0  0  0
 23 33  1  0  0  0  0
 24 25  1  1  0  0  0
 24 27  1  0  0  0  0
 26 29  1  1  0  0  0
 26 31  1  0  0  0  0
 27 28  1  0  0  0  0
 29 30  2  0  0  0  0
 31 32  1  0  0  0  0
 33 32  1  1  0  0  0
 34 36  1  0  0  0  0
 34 42  1  0  0  0  0
 36 37  1  1  0  0  0
 36 39  1  0  0  0  0
 40 39  1  6  0  0  0
 40 41  1  0  0  0  0
 40 46  1  0  0  0  0
 41 42  1  6  0  0  0
 41 44  1  0  0  0  0
 42 43  2  0  0  0  0
 44 45  1  0  0  0  0
 46 45  1  1  0  0  0
M  CHG  2   3  -1  35  -1
M  END
>  <CHROM.1>
106.53110504,-166.61550728,-2.37514376,-3.56234837,-0.83947718,2.38460712
0.03918027,2.22902257

>  <Name>
ligand

>  <RI>
-1

>  <Rbt.Current_Directory>
/home/itssahil/PROJECTS/Mol_Feturizer/Test_systems_manuscript/rnas/3mum

>  <Rbt.Executable>
rbdock ($Id: //depot/dev/client3/rdock/2013.1/src/exe/rbdock.cxx#4 $)

>  <Rbt.Library>
libRbt.so (2013.1, Build901 2013/11/27)

>  <Rbt.Parameter_File>
/export/apps/rDock/src/rDock_2013.1_src/data/scripts/dock_solv.prm

>  <Rbt.Receptor>
prm/blind_docking_20.prm

>  <SCORE>
10.086

>  <SCORE.INTER>
2.7711

>  <SCORE.INTER.CONST>
1

>  <SCORE.INTER.POLAR>
0

>  <SCORE.INTER.ROT>
2

>  <SCORE.INTER.SOLV>
38.4544

>  <SCORE.INTER.VDW>
-15.9041

>  <SCORE.INTER.norm>
0.0602412

>  <SCORE.INTRA>
7.06406

>  <SCORE.INTRA.DIHEDRAL>
0.015401

>  <SCORE.INTRA.DIHEDRAL.0>
2.40424

>  <SCORE.INTRA.POLAR>
0

>  <SCORE.INTRA.POLAR.0>
0

>  <SCORE.INTRA.REPUL>
0

>  <SCORE.INTRA.REPUL.0>
0

>  <SCORE.INTRA.SOLV>
5.01971

>  <SCORE.INTRA.SOLV.lig_0>
-134.169

>  <SCORE.INTRA.VDW>
4.54651

>  <SCORE.INTRA.VDW.0>
-2.18386

>  <SCORE.INTRA.norm>
0.153567

>  <SCORE.RESTR>
0.250864

>  <SCORE.RESTR.CAVITY>
0.250864

>  <SCORE.RESTR.norm>
0.00545357

>  <SCORE.SYSTEM>
0

>  <SCORE.SYSTEM.CONST>
0

>  <SCORE.SYSTEM.DIHEDRAL>
0

>  <SCORE.SYSTEM.SOLV>
0

>  <SCORE.SYSTEM.norm>
0

>  <SCORE.heavy>
46

>  <SCORE.norm>
0.219261

>  <RMSD>
19.371

$$$$
ligand
 OpenBabel02271912143D
libRbt.so/2013.1/901 2013/11/27
 46 52  0  0  0  0  0  0  0  0999 V2000
   -3.4570   -1.7022   -3.1182 P   0  0  1  0  0  0  0  0  0  0  0  0
   -3.9407   -3.6185    2.4289 P   0  0  2  0  0  0  0  0  0  0  0  0
   -2.8382   -2.9944   -4.1617 O   0  5  0  0  0  0  0  0  0  0  0  0
   -3.8523   -0.2355   -4.0519 O   0  0  0  0  0  0  0  0  0  0  0  0
   -5.4275   -1.4623   -1.3623 C   0  0  0  0  0  0  0  0  0  0  0  0
   -4.7680   -2.2483   -2.3551 O   0  0  0  0  0  0  0  0  0  0  0  0
   -6.2790   -2.3800   -0.5058 C   0  0  1  0  0  0  0  0  0  0  0  0
   -7.1406   -3.1572   -1.3493 O   0  0  0  0  0  0  0  0  0  0  0  0
   -5.4639   -3.3901    0.2853 C   0  0  1  0  0  0  0  0  0  0  0  0
   -5.1094   -2.9009    1.5769 O   0  0  0  0  0  0  0  0  0  0  0  0
   -6.3889   -4.5917    0.3667 C   0  0  1  0  0  0  0  0  0  0  0  0
   -7.2295   -4.4863    1.5184 O   0  0  0  0  0  0  0  0  0  0  0  0
   -7.2562   -4.5081   -0.8756 C   0  0  2  0  0  0  0  0  0  0  0  0
    0.2110   -3.3655   -0.6171 C   0  0  1  0  0  0  0  0  0  0  0  0
   -3.7563   -8.2353   -2.3079 N   0  0  0  0  0  0  0  0  0  0  0  0
   -3.8587   -7.5631   -1.1289 C   0  0  1  0  0  0  0  0  0  0  0  0
   -0.7476   -3.0963   -1.7422 C   0  0  2  0  0  0  0  0  0  0  0  0
   -2.9667   -7.8460   -0.1517 N   0  0  0  0  0  0  0  0  0  0  0  0
   -0.0542   -2.2641   -2.6737 O   0  0  0  0  0  0  0  0  0  0  0  0
   -1.9129   -2.3765   -1.0927 C   0  0  2  0  0  0  0  0  0  0  0  0
   -4.8183   -6.6186   -0.8970 N   0  0  0  0  0  0  0  0  0  0  0  0
   -2.4303   -1.3515   -1.9301 O   0  0  0  0  0  0  0  0  0  0  0  0
   -5.7371   -6.3003   -1.8437 C   0  0  2  0  0  0  0  0  0  0  0  0
   -1.3397   -1.7726    0.1743 C   0  0  2  0  0  0  0  0  0  0  0  0
   -0.1717   -2.5337    0.4774 O   0  0  0  0  0  0  0  0  0  0  0  0
   -5.6689   -6.9967   -3.1401 C   0  0  1  0  0  0  0  0  0  0  0  0
   -2.3075   -1.8360    1.3506 C   0  0  0  0  0  0  0  0  0  0  0  0
   -2.5970   -3.2042    1.6443 O   0  0  0  0  0  0  0  0  0  0  0  0
   -4.6116   -8.0057   -3.3303 C   0  0  0  0  0  0  0  0  0  0  0  0
   -4.4999   -8.6780   -4.5040 O   0  0  0  0  0  0  0  0  0  0  0  0
   -6.6611   -6.5118   -3.8946 N   0  0  0  0  0  0  0  0  0  0  0  0
   -7.3184   -5.5759   -3.1491 C   0  0  0  0  0  0  0  0  0  0  0  0
   -6.7697   -5.4449   -1.9230 N   0  0  1  0  0  0  0  0  0  0  0  0
    3.0403   -7.4899    0.9169 N   0  0  0  0  0  0  0  0  0  0  0  0
   -4.1369   -5.3911    2.4417 O   0  5  0  0  0  0  0  0  0  0  0  0
    3.4370   -6.2202    0.6279 C   0  0  2  0  0  0  0  0  0  0  0  0
    4.7517   -5.8951    0.7364 N   0  0  0  0  0  0  0  0  0  0  0  0
   -3.8200   -3.0248    4.0965 O   0  0  0  0  0  0  0  0  0  0  0  0
    2.5557   -5.2613    0.2328 N   0  0  0  0  0  0  0  0  0  0  0  0
    1.2331   -5.5227    0.1127 C   0  0  2  0  0  0  0  0  0  0  0  0
    0.7446   -6.8762    0.4081 C   0  0  2  0  0  0  0  0  0  0  0  0
    1.7499   -7.8762    0.8268 C   0  0  0  0  0  0  0  0  0  0  0  0
    1.3939   -9.1518    1.1177 O   0  0  0  0  0  0  0  0  0  0  0  0
   -0.5867   -6.8594    0.1994 N   0  0  0  0  0  0  0  0  0  0  0  0
   -0.9231   -5.5948   -0.1938 C   0  0  0  0  0  0  0  0  0  0  0  0
    0.1701   -4.8004   -0.2462 N   0  0  1  0  0  0  0  0  0  0  0  0
  1  3  1  6  0  0  0
  1  4  2  0  0  0  0
  1  6  1  0  0  0  0
  1 22  1  0  0  0  0
  2 28  1  0  0  0  0
  2 35  1  6  0  0  0
  2 38  2  0  0  0  0
  2 10  1  0  0  0  0
  5  6  1  0  0  0  0
  7  5  1  6  0  0  0
  7  8  1  0  0  0  0
  7  9  1  0  0  0  0
  9 10  1  1  0  0  0
  9 11  1  0  0  0  0
 11 12  1  1  0  0  0
 11 13  1  0  0  0  0
 13  8  1  6  0  0  0
 13 33  1  0  0  0  0
 14 46  1  0  0  0  0
 14 17  1  0  0  0  0
 14 25  1  1  0  0  0
 15 16  1  0  0  0  0
 15 29  1  0  0  0  0
 16 18  1  6  0  0  0
 16 21  1  0  0  0  0
 17 19  1  6  0  0  0
 17 20  1  0  0  0  0
 20 22  1  6  0  0  0
 20 24  1  0  0  0  0
 23 21  1  6  0  0  0
 23 26  1  0  0  0  0
 23 33  1  0  0  0  0
 24 25  1  1  0  0  0
 24 27  1  0  0  0  0
 26 29  1  1  0  0  0
 26 31  1  0  0  0  0
 27 28  1  0  0  0  0
 29 30  2  0  0  0  0
 31 32  1  0  0  0  0
 33 32  1  1  0  0  0
 34 36  1  0  0  0  0
 34 42  1  0  0  0  0
 36 37  1  1  0  0  0
 36 39  1  0  0  0  0
 40 39  1  6  0  0  0
 40 41  1  0  0  0  0
 40 46  1  0  0  0  0
 41 42  1  6  0  0  0
 41 44  1  0  0  0  0
 42 43  2  0  0  0  0
 44 45  1  0  0  0  0
 46 45  1  1  0  0  0
M  CHG  2   3  -1  35  -1
M  END
>  <CHROM.1>
118.19930163,142.34334992,-2.85391410,-4.53728893,-0.64380564,-2.93259430
0.30475244,-2.97886538

>  <Name>
ligand

>  <RI>
-1

>  <Rbt.Current_Directory>
/home/itssahil/PROJECTS/Mol_Feturizer/Test_systems_manuscript/rnas/3mum

>  <Rbt.Executable>
rbdock ($Id: //depot/dev/client3/rdock/2013.1/src/exe/rbdock.cxx#4 $)

>  <Rbt.Library>
libRbt.so (2013.1, Build901 2013/11/27)

>  <Rbt.Parameter_File>
/export/apps/rDock/src/rDock_2013.1_src/data/scripts/dock_solv.prm

>  <Rbt.Receptor>
prm/blind_docking_20.prm

>  <SCORE>
34.4459

>  <SCORE.INTER>
31.0904

>  <SCORE.INTER.CONST>
1

>  <SCORE.INTER.POLAR>
0

>  <SCORE.INTER.ROT>
2

>  <SCORE.INTER.SOLV>
34.2905

>  <SCORE.INTER.VDW>
4.36345

>  <SCORE.INTER.norm>
0.675879

>  <SCORE.INTRA>
1.70416

>  <SCORE.INTRA.DIHEDRAL>
-0.0290211

>  <SCORE.INTRA.DIHEDRAL.0>
2.40424

>  <SCORE.INTRA.POLAR>
0

>  <SCORE.INTRA.POLAR.0>
0

>  <SCORE.INTRA.REPUL>
0

>  <SCORE.INTRA.REPUL.0>
0

>  <SCORE.INTRA.SOLV>
3.43643

>  <SCORE.INTRA.SOLV.lig_0>
-134.169

>  <SCORE.INTRA.VDW>
0.000457943

>  <SCORE.INTRA.VDW.0>
-2.18386

>  <SCORE.INTRA.norm>
0.037047

>  <SCORE.RESTR>
1.65126

>  <SCORE.RESTR.CAVITY>
1.65126

>  <SCORE.RESTR.norm>
0.0358969

>  <SCORE.SYSTEM>
0

>  <SCORE.SYSTEM.CONST>
0

>  <SCORE.SYSTEM.DIHEDRAL>
0

>  <SCORE.SYSTEM.SOLV>
0

>  <SCORE.SYSTEM.norm>
0

>  <SCORE.heavy>
46

>  <SCORE.norm>
0.748823

>  <RMSD>
19.400

$$$$
ligand
 OpenBabel02271912143D
libRbt.so/2013.1/901 2013/11/27
 46 52  0  0  0  0  0  0  0  0999 V2000
   -2.6581   -0.2884   -0.2302 P   0  0  1  0  0  0  0  0  0  0  0  0
   -4.6189   -5.4805   -2.1983 P   0  0  2  0  0  0  0  0  0  0  0  0
   -1.1485   -0.5054    0.6731 O   0  5  0  0  0  0  0  0  0  0  0  0
   -3.0963    1.4339   -0.3747 O   0  0  0  0  0  0  0  0  0  0  0  0
   -3.5638   -1.0142   -2.6127 C   0  0  0  0  0  0  0  0  0  0  0  0
   -2.4747   -0.9424   -1.6923 O   0  0  0  0  0  0  0  0  0  0  0  0
   -3.2487   -2.0718   -3.6533 C   0  0  1  0  0  0  0  0  0  0  0  0
   -1.9660   -1.8014   -4.2361 O   0  0  0  0  0  0  0  0  0  0  0  0
   -3.1453   -3.4729   -3.0730 C   0  0  1  0  0  0  0  0  0  0  0  0
   -4.3956   -4.1580   -3.0970 O   0  0  0  0  0  0  0  0  0  0  0  0
   -2.1140   -4.1406   -3.9656 C   0  0  1  0  0  0  0  0  0  0  0  0
   -2.7564   -4.7405   -5.0934 O   0  0  0  0  0  0  0  0  0  0  0  0
   -1.2262   -3.0124   -4.4570 C   0  0  2  0  0  0  0  0  0  0  0  0
   -3.6929   -3.9258    2.6291 C   0  0  1  0  0  0  0  0  0  0  0  0
    3.9957   -2.0513   -4.4358 N   0  0  0  0  0  0  0  0  0  0  0  0
    3.1120   -1.9641   -5.4672 C   0  0  1  0  0  0  0  0  0  0  0  0
   -3.0009   -2.7422    2.0148 C   0  0  2  0  0  0  0  0  0  0  0  0
    3.5790   -1.5848   -6.6792 N   0  0  0  0  0  0  0  0  0  0  0  0
   -3.1739   -1.6552    2.9256 O   0  0  0  0  0  0  0  0  0  0  0  0
   -3.7261   -2.5083    0.7043 C   0  0  2  0  0  0  0  0  0  0  0  0
    1.7824   -2.2457   -5.3278 N   0  0  0  0  0  0  0  0  0  0  0  0
   -3.8692   -1.1228    0.4226 O   0  0  0  0  0  0  0  0  0  0  0  0
    1.2646   -2.6281   -4.1331 C   0  0  2  0  0  0  0  0  0  0  0  0
   -5.0894   -3.1433    0.8955 C   0  0  2  0  0  0  0  0  0  0  0  0
   -4.9340   -4.0961    1.9459 O   0  0  0  0  0  0  0  0  0  0  0  0
    2.1792   -2.7414   -2.9837 C   0  0  1  0  0  0  0  0  0  0  0  0
   -5.5958   -3.8470   -0.3586 C   0  0  0  0  0  0  0  0  0  0  0  0
   -4.6960   -4.9043   -0.6967 O   0  0  0  0  0  0  0  0  0  0  0  0
    3.6026   -2.4241   -3.1964 C   0  0  0  0  0  0  0  0  0  0  0  0
    4.4912   -2.5119   -2.1743 O   0  0  0  0  0  0  0  0  0  0  0  0
    1.4429   -3.1340   -1.9383 N   0  0  0  0  0  0  0  0  0  0  0  0
    0.1560   -3.2661   -2.3743 C   0  0  0  0  0  0  0  0  0  0  0  0
    0.0441   -2.9660   -3.6854 N   0  0  1  0  0  0  0  0  0  0  0  0
   -2.4188   -8.5188    4.7854 N   0  0  0  0  0  0  0  0  0  0  0  0
   -3.2560   -6.6191   -2.3627 O   0  5  0  0  0  0  0  0  0  0  0  0
   -3.3073   -7.5763    5.2042 C   0  0  2  0  0  0  0  0  0  0  0  0
   -4.0139   -7.7911    6.3446 N   0  0  0  0  0  0  0  0  0  0  0  0
   -6.1395   -6.3233   -2.5525 O   0  0  0  0  0  0  0  0  0  0  0  0
   -3.5123   -6.4211    4.5146 N   0  0  0  0  0  0  0  0  0  0  0  0
   -2.8435   -6.1535    3.3686 C   0  0  2  0  0  0  0  0  0  0  0  0
   -1.8689   -7.1316    2.8674 C   0  0  2  0  0  0  0  0  0  0  0  0
   -1.6854   -8.3644    3.6627 C   0  0  0  0  0  0  0  0  0  0  0  0
   -0.8062   -9.3233    3.2805 O   0  0  0  0  0  0  0  0  0  0  0  0
   -1.3505   -6.6140    1.7362 N   0  0  0  0  0  0  0  0  0  0  0  0
   -1.9493   -5.4034    1.5285 C   0  0  0  0  0  0  0  0  0  0  0  0
   -2.8396   -5.1324    2.5097 N   0  0  1  0  0  0  0  0  0  0  0  0
  1  3  1  1  0  0  0
  1  4  2  0  0  0  0
  1  6  1  0  0  0  0
  1 22  1  0  0  0  0
  2 28  1  0  0  0  0
  2 35  1  6  0  0  0
  2 38  2  0  0  0  0
  2 10  1  0  0  0  0
  5  6  1  0  0  0  0
  7  5  1  1  0  0  0
  7  8  1  0  0  0  0
  7  9  1  0  0  0  0
  9 10  1  6  0  0  0
  9 11  1  0  0  0  0
 11 12  1  6  0  0  0
 11 13  1  0  0  0  0
 13  8  1  1  0  0  0
 13 33  1  0  0  0  0
 14 46  1  0  0  0  0
 14 17  1  0  0  0  0
 14 25  1  6  0  0  0
 15 16  1  0  0  0  0
 15 29  1  0  0  0  0
 16 18  1  6  0  0  0
 16 21  1  0  0  0  0
 17 19  1  1  0  0  0
 17 20  1  0  0  0  0
 20 22  1  1  0  0  0
 20 24  1  0  0  0  0
 23 21  1  6  0  0  0
 23 26  1  0  0  0  0
 23 33  1  0  0  0  0
 24 25  1  1  0  0  0
 24 27  1  0  0  0  0
 26 29  1  1  0  0  0
 26 31  1  0  0  0  0
 27 28  1  0  0  0  0
 29 30  2  0  0  0  0
 31 32  1  0  0  0  0
 33 32  1  1  0  0  0
 34 36  1  0  0  0  0
 34 42  1  0  0  0  0
 36 37  1  6  0  0  0
 36 39  1  0  0  0  0
 40 39  1  1  0  0  0
 40 41  1  0  0  0  0
 40 46  1  0  0  0  0
 41 42  1  1  0  0  0
 41 44  1  0  0  0  0
 42 43  2  0  0  0  0
 44 45  1  0  0  0  0
 46 45  1  6  0  0  0
M  CHG  2   3  -1  35  -1
M  END
>  <CHROM.1>
-97.94888017,150.50169331,-1.99939321,-3.76216786,-0.72254348,1.07116727
0.26393582,-0.90644935

>  <Name>
ligand

>  <RI>
-1

>  <Rbt.Current_Directory>
/home/itssahil/PROJECTS/Mol_Feturizer/Test_systems_manuscript/rnas/3mum

>  <Rbt.Executable>
rbdock ($Id: //depot/dev/client3/rdock/2013.1/src/exe/rbdock.cxx#4 $)

>  <Rbt.Library>
libRbt.so (2013.1, Build901 2013/11/27)

>  <Rbt.Parameter_File>
/export/apps/rDock/src/rDock_2013.1_src/data/scripts/dock_solv.prm

>  <Rbt.Receptor>
prm/blind_docking_20.prm

>  <SCORE>
-5.00412

>  <SCORE.INTER>
-7.673

>  <SCORE.INTER.CONST>
1

>  <SCORE.INTER.POLAR>
0

>  <SCORE.INTER.ROT>
2

>  <SCORE.INTER.SOLV>
41.1944

>  <SCORE.INTER.VDW>
-23.7801

>  <SCORE.INTER.norm>
-0.166804

>  <SCORE.INTRA>
0.3008

>  <SCORE.INTRA.DIHEDRAL>
-0.0351142

>  <SCORE.INTRA.DIHEDRAL.0>
2.40424

>  <SCORE.INTRA.POLAR>
0

>  <SCORE.INTRA.POLAR.0>
0

>  <SCORE.INTRA.REPUL>
0

>  <SCORE.INTRA.REPUL.0>
0

>  <SCORE.INTRA.SOLV>
-0.0104573

>  <SCORE.INTRA.SOLV.lig_0>
-134.169

>  <SCORE.INTRA.VDW>
0.323586

>  <SCORE.INTRA.VDW.0>
-2.18386

>  <SCORE.INTRA.norm>
0.00653914

>  <SCORE.RESTR>
2.36808

>  <SCORE.RESTR.CAVITY>
2.36808

>  <SCORE.RESTR.norm>
0.0514799

>  <SCORE.SYSTEM>
0

>  <SCORE.SYSTEM.CONST>
0

>  <SCORE.SYSTEM.DIHEDRAL>
0

>  <SCORE.SYSTEM.SOLV>
0

>  <SCORE.SYSTEM.norm>
0

>  <SCORE.heavy>
46

>  <SCORE.norm>
-0.108785

>  <RMSD>
19.402

$$$$
ligand
 OpenBabel02271912143D
libRbt.so/2013.1/901 2013/11/27
 46 52  0  0  0  0  0  0  0  0999 V2000
   -2.6493   -0.2936   -0.2216 P   0  0  1  0  0  0  0  0  0  0  0  0
   -4.6185   -5.4782   -2.2011 P   0  0  2  0  0  0  0  0  0  0  0  0
   -1.1391   -0.5147    0.6796 O   0  5  0  0  0  0  0  0  0  0  0  0
   -3.0854    1.4297   -0.3612 O   0  0  0  0  0  0  0  0  0  0  0  0
   -3.5582   -1.0121   -2.6051 C   0  0  0  0  0  0  0  0  0  0  0  0
   -2.4681   -0.9440   -1.6856 O   0  0  0  0  0  0  0  0  0  0  0  0
   -3.2455   -2.0674   -3.6487 C   0  0  1  0  0  0  0  0  0  0  0  0
   -1.9631   -1.7970   -4.2320 O   0  0  0  0  0  0  0  0  0  0  0  0
   -3.1432   -3.4701   -3.0722 C   0  0  1  0  0  0  0  0  0  0  0  0
   -4.3944   -4.1536   -3.0966 O   0  0  0  0  0  0  0  0  0  0  0  0
   -2.1137   -4.1368   -3.9675 C   0  0  1  0  0  0  0  0  0  0  0  0
   -2.7580   -4.7329   -5.0962 O   0  0  0  0  0  0  0  0  0  0  0  0
   -1.2250   -3.0084   -4.4568 C   0  0  2  0  0  0  0  0  0  0  0  0
   -3.6857   -3.9371    2.6293 C   0  0  1  0  0  0  0  0  0  0  0  0
    3.9904   -2.0130   -4.4279 N   0  0  0  0  0  0  0  0  0  0  0  0
    3.1046   -1.9156   -5.4566 C   0  0  1  0  0  0  0  0  0  0  0  0
   -2.9929   -2.7527    2.0174 C   0  0  2  0  0  0  0  0  0  0  0  0
    3.5672   -1.5144   -6.6632 N   0  0  0  0  0  0  0  0  0  0  0  0
   -3.1636   -1.6679    2.9312 O   0  0  0  0  0  0  0  0  0  0  0  0
   -3.7191   -2.5145    0.7083 C   0  0  2  0  0  0  0  0  0  0  0  0
    1.7771   -2.2082   -5.3198 N   0  0  0  0  0  0  0  0  0  0  0  0
   -3.8607   -1.1282    0.4303 O   0  0  0  0  0  0  0  0  0  0  0  0
    1.2636   -2.6126   -4.1305 C   0  0  2  0  0  0  0  0  0  0  0  0
   -5.0831   -3.1483    0.8992 C   0  0  2  0  0  0  0  0  0  0  0  0
   -4.9278   -4.1040    1.9469 O   0  0  0  0  0  0  0  0  0  0  0  0
    2.1807   -2.7378   -2.9843 C   0  0  1  0  0  0  0  0  0  0  0  0
   -5.5916   -3.8481   -0.3563 C   0  0  0  0  0  0  0  0  0  0  0  0
   -4.6934   -4.9057   -0.6979 O   0  0  0  0  0  0  0  0  0  0  0  0
    3.6016   -2.4076   -3.1940 C   0  0  0  0  0  0  0  0  0  0  0  0
    4.4924   -2.5055   -2.1747 O   0  0  0  0  0  0  0  0  0  0  0  0
    1.4487   -3.1516   -1.9441 N   0  0  0  0  0  0  0  0  0  0  0  0
    0.1620   -3.2854   -2.3803 C   0  0  0  0  0  0  0  0  0  0  0  0
    0.0461   -2.9656   -3.6864 N   0  0  1  0  0  0  0  0  0  0  0  0
   -2.4157   -8.5374    4.7723 N   0  0  0  0  0  0  0  0  0  0  0  0
   -3.2573   -6.6180   -2.3699 O   0  5  0  0  0  0  0  0  0  0  0  0
   -3.3025   -7.5950    5.1944 C   0  0  2  0  0  0  0  0  0  0  0  0
   -4.0085   -7.8118    6.3348 N   0  0  0  0  0  0  0  0  0  0  0  0
   -6.1406   -6.3181   -2.5560 O   0  0  0  0  0  0  0  0  0  0  0  0
   -3.5068   -6.4376    4.5080 N   0  0  0  0  0  0  0  0  0  0  0  0
   -2.8386   -6.1678    3.3621 C   0  0  2  0  0  0  0  0  0  0  0  0
   -1.8657   -7.1458    2.8575 C   0  0  2  0  0  0  0  0  0  0  0  0
   -1.6830   -8.3810    3.6493 C   0  0  0  0  0  0  0  0  0  0  0  0
   -0.8053   -9.3399    3.2638 O   0  0  0  0  0  0  0  0  0  0  0  0
   -1.3476   -6.6258    1.7272 N   0  0  0  0  0  0  0  0  0  0  0  0
   -1.9450   -5.4139    1.5233 C   0  0  0  0  0  0  0  0  0  0  0  0
   -2.8341   -5.1444    2.5060 N   0  0  1  0  0  0  0  0  0  0  0  0
  1  3  1  1  0  0  0
  1  4  2  0  0  0  0
  1  6  1  0  0  0  0
  1 22  1  0  0  0  0
  2 28  1  0  0  0  0
  2 35  1  6  0  0  0
  2 38  2  0  0  0  0
  2 10  1  0  0  0  0
  5  6  1  0  0  0  0
  7  5  1  1  0  0  0
  7  8  1  0  0  0  0
  7  9  1  0  0  0  0
  9 10  1  6  0  0  0
  9 11  1  0  0  0  0
 11 12  1  6  0  0  0
 11 13  1  0  0  0  0
 13  8  1  1  0  0  0
 13 33  1  0  0  0  0
 14 46  1  0  0  0  0
 14 17  1  0  0  0  0
 14 25  1  6  0  0  0
 15 16  1  0  0  0  0
 15 29  1  0  0  0  0
 16 18  1  6  0  0  0
 16 21  1  0  0  0  0
 17 19  1  1  0  0  0
 17 20  1  0  0  0  0
 20 22  1  1  0  0  0
 20 24  1  0  0  0  0
 23 21  1  6  0  0  0
 23 26  1  0  0  0  0
 23 33  1  0  0  0  0
 24 25  1  1  0  0  0
 24 27  1  0  0  0  0
 26 29  1  1  0  0  0
 26 31  1  0  0  0  0
 27 28  1  0  0  0  0
 29 30  2  0  0  0  0
 31 32  1  0  0  0  0
 33 32  1  1  0  0  0
 34 36  1  0  0  0  0
 34 42  1  0  0  0  0
 36 37  1  6  0  0  0
 36 39  1  0  0  0  0
 40 39  1  1  0  0  0
 40 41  1  0  0  0  0
 40 46  1  0  0  0  0
 41 42  1  1  0  0  0
 41 44  1  0  0  0  0
 42 43  2  0  0  0  0
 44 45  1  0  0  0  0
 46 45  1  6  0  0  0
M  CHG  2   3  -1  35  -1
M  END
>  <CHROM.1>
-97.07527041,150.51152378,-1.99627618,-3.76247866,-0.72246171,1.07311887
0.25848784,-0.90490385

>  <Name>
ligand

>  <RI>
-1

>  <Rbt.Current_Directory>
/home/itssahil/PROJECTS/Mol_Feturizer/Test_systems_manuscript/rnas/3mum

>  <Rbt.Executable>
rbdock ($Id: //depot/dev/client3/rdock/2013.1/src/exe/rbdock.cxx#4 $)

>  <Rbt.Library>
libRbt.so (2013.1, Build901 2013/11/27)

>  <Rbt.Parameter_File>
/export/apps/rDock/src/rDock_2013.1_src/data/scripts/dock_solv.prm

>  <Rbt.Receptor>
prm/blind_docking_20.prm

>  <SCORE>
-5.13504

>  <SCORE.INTER>
-7.8631

>  <SCORE.INTER.CONST>
1

>  <SCORE.INTER.POLAR>
0

>  <SCORE.INTER.ROT>
2

>  <SCORE.INTER.SOLV>
40.8922

>  <SCORE.INTER.VDW>
-23.8061

>  <SCORE.INTER.norm>
-0.170937

>  <SCORE.INTRA>
0.316779

>  <SCORE.INTRA.DIHEDRAL>
-0.035178

>  <SCORE.INTRA.DIHEDRAL.0>
2.40424

>  <SCORE.INTRA.POLAR>
0

>  <SCORE.INTRA.POLAR.0>
0

>  <SCORE.INTRA.REPUL>
0

>  <SCORE.INTRA.REPUL.0>
0

>  <SCORE.INTRA.SOLV>
-0.0099303

>  <SCORE.INTRA.SOLV.lig_0>
-134.169

>  <SCORE.INTRA.VDW>
0.339333

>  <SCORE.INTRA.VDW.0>
-2.18386

>  <SCORE.INTRA.norm>
0.0068865

>  <SCORE.RESTR>
2.41128

>  <SCORE.RESTR.CAVITY>
2.41128

>  <SCORE.RESTR.norm>
0.0524192

>  <SCORE.SYSTEM>
0

>  <SCORE.SYSTEM.CONST>
0

>  <SCORE.SYSTEM.DIHEDRAL>
0

>  <SCORE.SYSTEM.SOLV>
0

>  <SCORE.SYSTEM.norm>
0

>  <SCORE.heavy>
46

>  <SCORE.norm>
-0.111631

>  <RMSD>
19.404

$$$$
ligand
 OpenBabel02271912143D
libRbt.so/2013.1/901 2013/11/27
 46 52  0  0  0  0  0  0  0  0999 V2000
   -2.6436   -0.2843   -0.2291 P   0  0  1  0  0  0  0  0  0  0  0  0
   -4.6089   -5.4729   -2.2021 P   0  0  2  0  0  0  0  0  0  0  0  0
   -1.1322   -0.5029    0.6706 O   0  5  0  0  0  0  0  0  0  0  0  0
   -3.0819    1.4383   -0.3698 O   0  0  0  0  0  0  0  0  0  0  0  0
   -3.5543   -1.0059   -2.6110 C   0  0  0  0  0  0  0  0  0  0  0  0
   -2.4632   -0.9358   -1.6928 O   0  0  0  0  0  0  0  0  0  0  0  0
   -3.2414   -2.0618   -3.6541 C   0  0  1  0  0  0  0  0  0  0  0  0
   -1.9600   -1.7904   -4.2390 O   0  0  0  0  0  0  0  0  0  0  0  0
   -3.1369   -3.4639   -3.0765 C   0  0  1  0  0  0  0  0  0  0  0  0
   -4.3873   -4.1488   -3.0990 O   0  0  0  0  0  0  0  0  0  0  0  0
   -2.1076   -4.1301   -3.9723 C   0  0  1  0  0  0  0  0  0  0  0  0
   -2.7523   -4.7280   -5.0998 O   0  0  0  0  0  0  0  0  0  0  0  0
   -1.2207   -3.0011   -4.4636 C   0  0  2  0  0  0  0  0  0  0  0  0
   -3.6727   -3.9265    2.6260 C   0  0  1  0  0  0  0  0  0  0  0  0
    4.0018   -2.0430   -4.4522 N   0  0  0  0  0  0  0  0  0  0  0  0
    3.1160   -1.9543   -5.4817 C   0  0  1  0  0  0  0  0  0  0  0  0
   -2.9819   -2.7419    2.0123 C   0  0  2  0  0  0  0  0  0  0  0  0
    3.5807   -1.5742   -6.6943 N   0  0  0  0  0  0  0  0  0  0  0  0
   -3.1529   -1.6564    2.9253 O   0  0  0  0  0  0  0  0  0  0  0  0
   -3.7098   -2.5057    0.7038 C   0  0  2  0  0  0  0  0  0  0  0  0
    1.7865   -2.2353   -5.3398 N   0  0  0  0  0  0  0  0  0  0  0  0
   -3.8534   -1.1197    0.4247 O   0  0  0  0  0  0  0  0  0  0  0  0
    1.2709   -2.6185   -4.1445 C   0  0  2  0  0  0  0  0  0  0  0  0
   -5.0728   -3.1409    0.8967 C   0  0  2  0  0  0  0  0  0  0  0  0
   -4.9153   -4.0955    1.9451 O   0  0  0  0  0  0  0  0  0  0  0  0
    2.1878   -2.7334   -2.9971 C   0  0  1  0  0  0  0  0  0  0  0  0
   -5.5819   -3.8424   -0.3576 C   0  0  0  0  0  0  0  0  0  0  0  0
   -4.6828   -4.8993   -0.6993 O   0  0  0  0  0  0  0  0  0  0  0  0
    3.6110   -2.4166   -3.2124 C   0  0  0  0  0  0  0  0  0  0  0  0
    4.5017   -2.5060   -2.1922 O   0  0  0  0  0  0  0  0  0  0  0  0
    1.4535   -3.1266   -1.9505 N   0  0  0  0  0  0  0  0  0  0  0  0
    0.1657   -3.2576   -2.3840 C   0  0  0  0  0  0  0  0  0  0  0  0
    0.0512   -2.9561   -3.6945 N   0  0  1  0  0  0  0  0  0  0  0  0
   -2.3904   -8.5206    4.7750 N   0  0  0  0  0  0  0  0  0  0  0  0
   -3.2465   -6.6113   -2.3713 O   0  5  0  0  0  0  0  0  0  0  0  0
   -3.2773   -7.5785    5.1976 C   0  0  2  0  0  0  0  0  0  0  0  0
   -3.9797   -7.7939    6.3405 N   0  0  0  0  0  0  0  0  0  0  0  0
   -6.1303   -6.3149   -2.5546 O   0  0  0  0  0  0  0  0  0  0  0  0
   -3.4850   -6.4229    4.5094 N   0  0  0  0  0  0  0  0  0  0  0  0
   -2.8205   -6.1546    3.3611 C   0  0  2  0  0  0  0  0  0  0  0  0
   -1.8477   -7.1323    2.8557 C   0  0  2  0  0  0  0  0  0  0  0  0
   -1.6611   -8.3656    3.6496 C   0  0  0  0  0  0  0  0  0  0  0  0
   -0.7832   -9.3241    3.2636 O   0  0  0  0  0  0  0  0  0  0  0  0
   -1.3335   -6.6139    1.7229 N   0  0  0  0  0  0  0  0  0  0  0  0
   -1.9331   -5.4034    1.5181 C   0  0  0  0  0  0  0  0  0  0  0  0
   -2.8198   -5.1329    2.5028 N   0  0  1  0  0  0  0  0  0  0  0  0
  1  3  1  1  0  0  0
  1  4  2  0  0  0  0
  1  6  1  0  0  0  0
  1 22  1  0  0  0  0
  2 28  1  0  0  0  0
  2 35  1  6  0  0  0
  2 38  2  0  0  0  0
  2 10  1  0  0  0  0
  5  6  1  0  0  0  0
  7  5  1  1  0  0  0
  7  8  1  0  0  0  0
  7  9  1  0  0  0  0
  9 10  1  6  0  0  0
  9 11  1  0  0  0  0
 11 12  1  6  0  0  0
 11 13  1  0  0  0  0
 13  8  1  1  0  0  0
 13 33  1  0  0  0  0
 14 46  1  0  0  0  0
 14 17  1  0  0  0  0
 14 25  1  6  0  0  0
 15 16  1  0  0  0  0
 15 29  1  0  0  0  0
 16 18  1  6  0  0  0
 16 21  1  0  0  0  0
 17 19  1  1  0  0  0
 17 20  1  0  0  0  0
 20 22  1  1  0  0  0
 20 24  1  0  0  0  0
 23 21  1  6  0  0  0
 23 26  1  0  0  0  0
 23 33  1  0  0  0  0
 24 25  1  1  0  0  0
 24 27  1  0  0  0  0
 26 29  1  1  0  0  0
 26 31  1  0  0  0  0
 27 28  1  0  0  0  0
 29 30  2  0  0  0  0
 31 32  1  0  0  0  0
 33 32  1  1  0  0  0
 34 36  1  0  0  0  0
 34 42  1  0  0  0  0
 36 37  1  6  0  0  0
 36 39  1  0  0  0  0
 40 39  1  1  0  0  0
 40 41  1  0  0  0  0
 40 46  1  0  0  0  0
 41 42  1  1  0  0  0
 41 44  1  0  0  0  0
 42 43  2  0  0  0  0
 44 45  1  0  0  0  0
 46 45  1  6  0  0  0
M  CHG  2   3  -1  35  -1
M  END
>  <CHROM.1>
-98.00202892,150.38799077,-1.98568598,-3.75722836,-0.72855778,1.07312544
0.26506350,-0.90587546

>  <Name>
ligand

>  <RI>
-1

>  <Rbt.Current_Directory>
/home/itssahil/PROJECTS/Mol_Feturizer/Test_systems_manuscript/rnas/3mum

>  <Rbt.Executable>
rbdock ($Id: //depot/dev/client3/rdock/2013.1/src/exe/rbdock.cxx#4 $)

>  <Rbt.Library>
libRbt.so (2013.1, Build901 2013/11/27)

>  <Rbt.Parameter_File>
/export/apps/rDock/src/rDock_2013.1_src/data/scripts/dock_solv.prm

>  <Rbt.Receptor>
prm/blind_docking_20.prm

>  <SCORE>
-5.14379

>  <SCORE.INTER>
-7.85432

>  <SCORE.INTER.CONST>
1

>  <SCORE.INTER.POLAR>
0

>  <SCORE.INTER.ROT>
2

>  <SCORE.INTER.SOLV>
41.1432

>  <SCORE.INTER.VDW>
-23.8839

>  <SCORE.INTER.norm>
-0.170746

>  <SCORE.INTRA>
0.297872

>  <SCORE.INTRA.DIHEDRAL>
-0.0351102

>  <SCORE.INTRA.DIHEDRAL.0>
2.40424

>  <SCORE.INTRA.POLAR>
0

>  <SCORE.INTRA.POLAR.0>
0

>  <SCORE.INTRA.REPUL>
0

>  <SCORE.INTRA.REPUL.0>
0

>  <SCORE.INTRA.SOLV>
-0.0106163

>  <SCORE.INTRA.SOLV.lig_0>
-134.169

>  <SCORE.INTRA.VDW>
0.320736

>  <SCORE.INTRA.VDW.0>
-2.18386

>  <SCORE.INTRA.norm>
0.00647548

>  <SCORE.RESTR>
2.41265

>  <SCORE.RESTR.CAVITY>
2.41265

>  <SCORE.RESTR.norm>
0.052449

>  <SCORE.SYSTEM>
0

>  <SCORE.SYSTEM.CONST>
0

>  <SCORE.SYSTEM.DIHEDRAL>
0

>  <SCORE.SYSTEM.SOLV>
0

>  <SCORE.SYSTEM.norm>
0

>  <SCORE.heavy>
46

>  <SCORE.norm>
-0.111822

>  <RMSD>
19.411

$$$$
ligand
 OpenBabel02271912143D
libRbt.so/2013.1/901 2013/11/27
 46 52  0  0  0  0  0  0  0  0999 V2000
   -4.7006   -5.4550   -2.2624 P   0  0  1  0  0  0  0  0  0  0  0  0
   -2.6425   -0.3353   -0.2059 P   0  0  2  0  0  0  0  0  0  0  0  0
   -3.3926   -6.6473   -2.3590 O   0  5  0  0  0  0  0  0  0  0  0  0
   -6.2729   -6.1658   -2.7117 O   0  0  0  0  0  0  0  0  0  0  0  0
   -5.6464   -3.8242   -0.3998 C   0  0  0  0  0  0  0  0  0  0  0  0
   -4.7567   -4.8824   -0.7563 O   0  0  0  0  0  0  0  0  0  0  0  0
   -5.1506   -3.1874    0.8845 C   0  0  1  0  0  0  0  0  0  0  0  0
   -4.9692   -4.2025    1.8818 O   0  0  0  0  0  0  0  0  0  0  0  0
   -3.7957   -2.5145    0.7368 C   0  0  1  0  0  0  0  0  0  0  0  0
   -3.9149   -1.1397    0.3780 O   0  0  0  0  0  0  0  0  0  0  0  0
   -3.1711   -2.6917    2.1096 C   0  0  1  0  0  0  0  0  0  0  0  0
   -3.5331   -1.5990    2.9577 O   0  0  0  0  0  0  0  0  0  0  0  0
   -3.7894   -3.9614    2.6646 C   0  0  2  0  0  0  0  0  0  0  0  0
   -1.2416   -3.0061   -4.3871 C   0  0  1  0  0  0  0  0  0  0  0  0
   -1.8573   -8.4727    4.6914 N   0  0  0  0  0  0  0  0  0  0  0  0
   -2.8054   -7.6403    5.2018 C   0  0  1  0  0  0  0  0  0  0  0  0
   -2.0525   -4.1369   -3.8206 C   0  0  2  0  0  0  0  0  0  0  0  0
   -3.3650   -7.9611    6.3912 N   0  0  0  0  0  0  0  0  0  0  0  0
   -2.5562   -4.8721   -4.9372 O   0  0  0  0  0  0  0  0  0  0  0  0
   -3.1603   -3.4624   -3.0361 C   0  0  2  0  0  0  0  0  0  0  0  0
   -3.2086   -6.5003    4.5658 N   0  0  0  0  0  0  0  0  0  0  0  0
   -4.3931   -4.1577   -3.1632 O   0  0  0  0  0  0  0  0  0  0  0  0
   -2.6798   -6.1356    3.3704 C   0  0  2  0  0  0  0  0  0  0  0  0
   -3.2795   -2.0781   -3.6428 C   0  0  2  0  0  0  0  0  0  0  0  0
   -2.0297   -1.8212   -4.2810 O   0  0  0  0  0  0  0  0  0  0  0  0
   -1.6466   -7.0006    2.7749 C   0  0  1  0  0  0  0  0  0  0  0  0
   -3.5510   -0.9972   -2.6026 C   0  0  0  0  0  0  0  0  0  0  0  0
   -2.4579   -0.9481   -1.6835 O   0  0  0  0  0  0  0  0  0  0  0  0
   -1.2537   -8.2171    3.5082 C   0  0  0  0  0  0  0  0  0  0  0  0
   -0.3065   -9.0507    3.0084 O   0  0  0  0  0  0  0  0  0  0  0  0
   -1.2837   -6.4335    1.6191 N   0  0  0  0  0  0  0  0  0  0  0  0
   -2.0202   -5.2929    1.4772 C   0  0  0  0  0  0  0  0  0  0  0  0
   -2.8554   -5.1096    2.5215 N   0  0  1  0  0  0  0  0  0  0  0  0
    3.8578   -1.9035   -4.7733 N   0  0  0  0  0  0  0  0  0  0  0  0
   -1.1824   -0.6213    0.7774 O   0  5  0  0  0  0  0  0  0  0  0  0
    2.9007   -1.9490   -5.7402 C   0  0  2  0  0  0  0  0  0  0  0  0
    3.2426   -1.6724   -7.0257 N   0  0  0  0  0  0  0  0  0  0  0  0
   -2.9221    1.4104   -0.3556 O   0  0  0  0  0  0  0  0  0  0  0  0
    1.6065   -2.2632   -5.4600 N   0  0  0  0  0  0  0  0  0  0  0  0
    1.2037   -2.5417   -4.1981 C   0  0  2  0  0  0  0  0  0  0  0  0
    2.1920   -2.5115   -3.1117 C   0  0  2  0  0  0  0  0  0  0  0  0
    3.5828   -2.1695   -3.4788 C   0  0  0  0  0  0  0  0  0  0  0  0
    4.5644   -2.1194   -2.5447 O   0  0  0  0  0  0  0  0  0  0  0  0
    1.5322   -2.8335   -1.9816 N   0  0  0  0  0  0  0  0  0  0  0  0
    0.2253   -3.0481   -2.3180 C   0  0  0  0  0  0  0  0  0  0  0  0
    0.0356   -2.8745   -3.6457 N   0  0  1  0  0  0  0  0  0  0  0  0
  1  3  1  6  0  0  0
  1  4  2  0  0  0  0
  1  6  1  0  0  0  0
  1 22  1  0  0  0  0
  2 28  1  0  0  0  0
  2 35  1  1  0  0  0
  2 38  2  0  0  0  0
  2 10  1  0  0  0  0
  5  6  1  0  0  0  0
  7  5  1  6  0  0  0
  7  8  1  0  0  0  0
  7  9  1  0  0  0  0
  9 10  1  1  0  0  0
  9 11  1  0  0  0  0
 11 12  1  1  0  0  0
 11 13  1  0  0  0  0
 13  8  1  6  0  0  0
 13 33  1  0  0  0  0
 14 46  1  0  0  0  0
 14 17  1  0  0  0  0
 14 25  1  1  0  0  0
 15 16  1  0  0  0  0
 15 29  1  0  0  0  0
 16 18  1  1  0  0  0
 16 21  1  0  0  0  0
 17 19  1  6  0  0  0
 17 20  1  0  0  0  0
 20 22  1  6  0  0  0
 20 24  1  0  0  0  0
 23 21  1  1  0  0  0
 23 26  1  0  0  0  0
 23 33  1  0  0  0  0
 24 25  1  1  0  0  0
 24 27  1  0  0  0  0
 26 29  1  6  0  0  0
 26 31  1  0  0  0  0
 27 28  1  0  0  0  0
 29 30  2  0  0  0  0
 31 32  1  0  0  0  0
 33 32  1  6  0  0  0
 34 36  1  0  0  0  0
 34 42  1  0  0  0  0
 36 37  1  1  0  0  0
 36 39  1  0  0  0  0
 40 39  1  6  0  0  0
 40 41  1  0  0  0  0
 40 46  1  0  0  0  0
 41 42  1  6  0  0  0
 41 44  1  0  0  0  0
 42 43  2  0  0  0  0
 44 45  1  0  0  0  0
 46 45  1  1  0  0  0
M  CHG  2   3  -1  35  -1
M  END
>  <CHROM.1>
-99.22416883,143.52680193,-1.96953858,-3.72276015,-0.77146907,2.04236191
-0.23287699,2.20091695

>  <Name>
ligand

>  <RI>
-1

>  <Rbt.Current_Directory>
/home/itssahil/PROJECTS/Mol_Feturizer/Test_systems_manuscript/rnas/3mum

>  <Rbt.Executable>
rbdock ($Id: //depot/dev/client3/rdock/2013.1/src/exe/rbdock.cxx#4 $)

>  <Rbt.Library>
libRbt.so (2013.1, Build901 2013/11/27)

>  <Rbt.Parameter_File>
/export/apps/rDock/src/rDock_2013.1_src/data/scripts/dock_solv.prm

>  <Rbt.Receptor>
prm/blind_docking_20.prm

>  <SCORE>
-10.3461

>  <SCORE.INTER>
-12.9719

>  <SCORE.INTER.CONST>
1

>  <SCORE.INTER.POLAR>
0

>  <SCORE.INTER.ROT>
2

>  <SCORE.INTER.SOLV>
40.1391

>  <SCORE.INTER.VDW>
-26.961

>  <SCORE.INTER.norm>
-0.281998

>  <SCORE.INTRA>
0.158951

>  <SCORE.INTRA.DIHEDRAL>
-0.0332225

>  <SCORE.INTRA.DIHEDRAL.0>
2.40424

>  <SCORE.INTRA.POLAR>
0

>  <SCORE.INTRA.POLAR.0>
0

>  <SCORE.INTRA.REPUL>
0

>  <SCORE.INTRA.REPUL.0>
0

>  <SCORE.INTRA.SOLV>
-0.0192711

>  <SCORE.INTRA.SOLV.lig_0>
-134.169

>  <SCORE.INTRA.VDW>
0.185198

>  <SCORE.INTRA.VDW.0>
-2.18386

>  <SCORE.INTRA.norm>
0.00345545

>  <SCORE.RESTR>
2.46684

>  <SCORE.RESTR.CAVITY>
2.46684

>  <SCORE.RESTR.norm>
0.053627

>  <SCORE.SYSTEM>
0

>  <SCORE.SYSTEM.CONST>
0

>  <SCORE.SYSTEM.DIHEDRAL>
0

>  <SCORE.SYSTEM.SOLV>
0

>  <SCORE.SYSTEM.norm>
0

>  <SCORE.heavy>
46

>  <SCORE.norm>
-0.224916

>  <RMSD>
19.451

$$$$
ligand
 OpenBabel02271912143D
libRbt.so/2013.1/901 2013/11/27
 46 52  0  0  0  0  0  0  0  0999 V2000
   -5.0645   -5.5524   -2.1808 P   0  0  1  0  0  0  0  0  0  0  0  0
   -2.8923   -0.4608   -0.1723 P   0  0  2  0  0  0  0  0  0  0  0  0
   -3.8208   -6.8141   -2.1254 O   0  5  0  0  0  0  0  0  0  0  0  0
   -6.6342   -6.1997   -2.7253 O   0  0  0  0  0  0  0  0  0  0  0  0
   -6.0602   -3.7942   -0.4659 C   0  0  0  0  0  0  0  0  0  0  0  0
   -5.2054   -4.9118   -0.7080 O   0  0  0  0  0  0  0  0  0  0  0  0
   -5.6309   -3.1281    0.8275 C   0  0  1  0  0  0  0  0  0  0  0  0
   -5.5835   -4.1064    1.8757 O   0  0  0  0  0  0  0  0  0  0  0  0
   -4.2335   -2.5336    0.7615 C   0  0  1  0  0  0  0  0  0  0  0  0
   -4.2485   -1.1716    0.3399 O   0  0  0  0  0  0  0  0  0  0  0  0
   -3.7279   -2.6824    2.1857 C   0  0  1  0  0  0  0  0  0  0  0  0
   -4.0935   -1.5361    2.9581 O   0  0  0  0  0  0  0  0  0  0  0  0
   -4.4565   -3.8926    2.7398 C   0  0  2  0  0  0  0  0  0  0  0  0
   -1.3215   -3.3822   -4.1190 C   0  0  1  0  0  0  0  0  0  0  0  0
   -0.6058   -6.6091    0.2932 N   0  0  0  0  0  0  0  0  0  0  0  0
   -1.1792   -5.4267   -0.0612 C   0  0  1  0  0  0  0  0  0  0  0  0
   -2.2350   -4.4433   -3.5743 C   0  0  2  0  0  0  0  0  0  0  0  0
   -0.7438   -4.8171   -1.1879 N   0  0  0  0  0  0  0  0  0  0  0  0
   -2.6906   -5.1999   -4.6973 O   0  0  0  0  0  0  0  0  0  0  0  0
   -3.3613   -3.6784   -2.9080 C   0  0  2  0  0  0  0  0  0  0  0  0
   -2.1720   -4.8378    0.6696 N   0  0  0  0  0  0  0  0  0  0  0  0
   -4.6171   -4.3137   -3.1051 O   0  0  0  0  0  0  0  0  0  0  0  0
   -2.6419   -5.4078    1.8079 C   0  0  2  0  0  0  0  0  0  0  0  0
   -3.3566   -2.3178   -3.5769 C   0  0  2  0  0  0  0  0  0  0  0  0
   -2.0488   -2.1545   -4.1232 O   0  0  0  0  0  0  0  0  0  0  0  0
   -2.0573   -6.6908    2.2351 C   0  0  1  0  0  0  0  0  0  0  0  0
   -3.6477   -1.1795   -2.6054 C   0  0  0  0  0  0  0  0  0  0  0  0
   -2.6280   -1.1468   -1.6049 O   0  0  0  0  0  0  0  0  0  0  0  0
   -0.9892   -7.2764    1.4055 C   0  0  0  0  0  0  0  0  0  0  0  0
   -0.4145   -8.4569    1.7495 O   0  0  0  0  0  0  0  0  0  0  0  0
   -2.6818   -7.0462    3.3632 N   0  0  0  0  0  0  0  0  0  0  0  0
   -3.5979   -6.0739    3.6442 C   0  0  0  0  0  0  0  0  0  0  0  0
   -3.5790   -5.0930    2.7174 N   0  0  1  0  0  0  0  0  0  0  0  0
    2.9954   -0.5983   -3.1274 N   0  0  0  0  0  0  0  0  0  0  0  0
   -1.5307   -0.7787    0.9349 O   0  5  0  0  0  0  0  0  0  0  0  0
    2.0177   -0.3902   -4.0514 C   0  0  2  0  0  0  0  0  0  0  0  0
    2.1018    0.6870   -4.8752 N   0  0  0  0  0  0  0  0  0  0  0  0
   -3.0626    1.2887   -0.4131 O   0  0  0  0  0  0  0  0  0  0  0  0
    0.9535   -1.2293   -4.1773 N   0  0  0  0  0  0  0  0  0  0  0  0
    0.8110   -2.3149   -3.3814 C   0  0  2  0  0  0  0  0  0  0  0  0
    1.8358   -2.5938   -2.3667 C   0  0  2  0  0  0  0  0  0  0  0  0
    2.9708   -1.6501   -2.2817 C   0  0  0  0  0  0  0  0  0  0  0  0
    3.9661   -1.8271   -1.3780 O   0  0  0  0  0  0  0  0  0  0  0  0
    1.4553   -3.7218   -1.7348 N   0  0  0  0  0  0  0  0  0  0  0  0
    0.2787   -4.1288   -2.2978 C   0  0  0  0  0  0  0  0  0  0  0  0
   -0.1003   -3.2846   -3.2840 N   0  0  1  0  0  0  0  0  0  0  0  0
  1  3  1  6  0  0  0
  1  4  2  0  0  0  0
  1  6  1  0  0  0  0
  1 22  1  0  0  0  0
  2 28  1  0  0  0  0
  2 35  1  1  0  0  0
  2 38  2  0  0  0  0
  2 10  1  0  0  0  0
  5  6  1  0  0  0  0
  7  5  1  6  0  0  0
  7  8  1  0  0  0  0
  7  9  1  0  0  0  0
  9 10  1  1  0  0  0
  9 11  1  0  0  0  0
 11 12  1  1  0  0  0
 11 13  1  0  0  0  0
 13  8  1  6  0  0  0
 13 33  1  0  0  0  0
 14 46  1  0  0  0  0
 14 17  1  0  0  0  0
 14 25  1  1  0  0  0
 15 16  1  0  0  0  0
 15 29  1  0  0  0  0
 16 18  1  6  0  0  0
 16 21  1  0  0  0  0
 17 19  1  6  0  0  0
 17 20  1  0  0  0  0
 20 22  1  6  0  0  0
 20 24  1  0  0  0  0
 23 21  1  6  0  0  0
 23 26  1  0  0  0  0
 23 33  1  0  0  0  0
 24 25  1  1  0  0  0
 24 27  1  0  0  0  0
 26 29  1  1  0  0  0
 26 31  1  0  0  0  0
 27 28  1  0  0  0  0
 29 30  2  0  0  0  0
 31 32  1  0  0  0  0
 33 32  1  1  0  0  0
 34 36  1  0  0  0  0
 34 42  1  0  0  0  0
 36 37  1  1  0  0  0
 36 39  1  0  0  0  0
 40 39  1  6  0  0  0
 40 41  1  0  0  0  0
 40 46  1  0  0  0  0
 41 42  1  6  0  0  0
 41 44  1  0  0  0  0
 42 43  2  0  0  0  0
 44 45  1  0  0  0  0
 46 45  1  1  0  0  0
M  CHG  2   3  -1  35  -1
M  END
>  <CHROM.1>
82.38868125,-169.67737629,-2.20701908,-3.49147905,-0.95411583,2.33648110
-0.19385697,2.47108308

>  <Name>
ligand

>  <RI>
-1

>  <Rbt.Current_Directory>
/home/itssahil/PROJECTS/Mol_Feturizer/Test_systems_manuscript/rnas/3mum

>  <Rbt.Executable>
rbdock ($Id: //depot/dev/client3/rdock/2013.1/src/exe/rbdock.cxx#4 $)

>  <Rbt.Library>
libRbt.so (2013.1, Build901 2013/11/27)

>  <Rbt.Parameter_File>
/export/apps/rDock/src/rDock_2013.1_src/data/scripts/dock_solv.prm

>  <Rbt.Receptor>
prm/blind_docking_20.prm

>  <SCORE>
13.2212

>  <SCORE.INTER>
-5.74843

>  <SCORE.INTER.CONST>
1

>  <SCORE.INTER.POLAR>
0

>  <SCORE.INTER.ROT>
2

>  <SCORE.INTER.SOLV>
34.3992

>  <SCORE.INTER.VDW>
-20.232

>  <SCORE.INTER.norm>
-0.124966

>  <SCORE.INTRA>
18.5765

>  <SCORE.INTRA.DIHEDRAL>
0.0127265

>  <SCORE.INTRA.DIHEDRAL.0>
2.40424

>  <SCORE.INTRA.POLAR>
0

>  <SCORE.INTRA.POLAR.0>
0

>  <SCORE.INTRA.REPUL>
0

>  <SCORE.INTRA.REPUL.0>
0

>  <SCORE.INTRA.SOLV>
10.487

>  <SCORE.INTRA.SOLV.lig_0>
-134.169

>  <SCORE.INTRA.VDW>
13.3266

>  <SCORE.INTRA.VDW.0>
-2.18386

>  <SCORE.INTRA.norm>
0.403836

>  <SCORE.RESTR>
0.393173

>  <SCORE.RESTR.CAVITY>
0.393173

>  <SCORE.RESTR.norm>
0.00854724

>  <SCORE.SYSTEM>
0

>  <SCORE.SYSTEM.CONST>
0

>  <SCORE.SYSTEM.DIHEDRAL>
0

>  <SCORE.SYSTEM.SOLV>
0

>  <SCORE.SYSTEM.norm>
0

>  <SCORE.heavy>
46

>  <SCORE.norm>
0.287418

>  <RMSD>
19.528

$$$$
ligand
 OpenBabel02271912143D
libRbt.so/2013.1/901 2013/11/27
 46 52  0  0  0  0  0  0  0  0999 V2000
   -3.4247   -3.1850    2.5851 P   0  0  1  0  0  0  0  0  0  0  0  0
   -3.5070   -2.8182   -3.2915 P   0  0  2  0  0  0  0  0  0  0  0  0
   -3.4988   -4.8811    3.0948 O   0  5  0  0  0  0  0  0  0  0  0  0
   -3.2432   -2.0871    3.9783 O   0  0  0  0  0  0  0  0  0  0  0  0
   -1.9340   -1.7711    0.9112 C   0  0  0  0  0  0  0  0  0  0  0  0
   -2.1824   -3.0119    1.5723 O   0  0  0  0  0  0  0  0  0  0  0  0
   -1.0531   -2.0337   -0.2953 C   0  0  1  0  0  0  0  0  0  0  0  0
    0.1152   -2.7581    0.1149 O   0  0  0  0  0  0  0  0  0  0  0  0
   -1.7215   -2.9015   -1.3492 C   0  0  1  0  0  0  0  0  0  0  0  0
   -2.4181   -2.1252   -2.3214 O   0  0  0  0  0  0  0  0  0  0  0  0
   -0.5573   -3.6632   -1.9578 C   0  0  1  0  0  0  0  0  0  0  0  0
    0.0039   -2.9175   -3.0411 O   0  0  0  0  0  0  0  0  0  0  0  0
    0.4750   -3.7594   -0.8498 C   0  0  2  0  0  0  0  0  0  0  0  0
   -6.9571   -4.8968   -0.0737 C   0  0  1  0  0  0  0  0  0  0  0  0
    3.1786   -7.8492    1.1891 N   0  0  0  0  0  0  0  0  0  0  0  0
    3.6513   -6.6925    0.6496 C   0  0  1  0  0  0  0  0  0  0  0  0
   -5.9059   -4.7600    0.9911 C   0  0  2  0  0  0  0  0  0  0  0  0
    4.9911   -6.5102    0.6008 N   0  0  0  0  0  0  0  0  0  0  0  0
   -6.6015   -4.5520    2.2215 O   0  0  0  0  0  0  0  0  0  0  0  0
   -5.0971   -3.5452    0.5814 C   0  0  2  0  0  0  0  0  0  0  0  0
    2.8313   -5.7173    0.1564 N   0  0  0  0  0  0  0  0  0  0  0  0
   -4.7069   -2.7696    1.7064 O   0  0  0  0  0  0  0  0  0  0  0  0
    1.4812   -5.8512    0.1839 C   0  0  2  0  0  0  0  0  0  0  0  0
   -6.0257   -2.7413   -0.3073 C   0  0  2  0  0  0  0  0  0  0  0  0
   -7.0020   -3.6631   -0.7894 O   0  0  0  0  0  0  0  0  0  0  0  0
    0.9171   -7.0866    0.7549 C   0  0  1  0  0  0  0  0  0  0  0  0
   -5.3062   -2.0989   -1.4880 C   0  0  0  0  0  0  0  0  0  0  0  0
   -4.7436   -3.1258   -2.3071 O   0  0  0  0  0  0  0  0  0  0  0  0
    1.8523   -8.1018    1.2714 C   0  0  0  0  0  0  0  0  0  0  0  0
    1.3897   -9.2596    1.8076 O   0  0  0  0  0  0  0  0  0  0  0  0
   -0.4135   -6.9847    0.6638 N   0  0  0  0  0  0  0  0  0  0  0  0
   -0.6900   -5.7822    0.0799 C   0  0  0  0  0  0  0  0  0  0  0  0
    0.4388   -5.1012   -0.2098 N   0  0  1  0  0  0  0  0  0  0  0  0
   -7.3722   -6.7945   -4.9311 N   0  0  0  0  0  0  0  0  0  0  0  0
   -2.8805   -4.3298   -4.0009 O   0  5  0  0  0  0  0  0  0  0  0  0
   -7.8439   -5.6299   -4.4075 C   0  0  2  0  0  0  0  0  0  0  0  0
   -8.5327   -4.7741   -5.2070 N   0  0  0  0  0  0  0  0  0  0  0  0
   -4.0765   -1.7484   -4.5873 O   0  0  0  0  0  0  0  0  0  0  0  0
   -7.6467   -5.2929   -3.1038 N   0  0  0  0  0  0  0  0  0  0  0  0
   -6.9628   -6.1008   -2.2602 C   0  0  2  0  0  0  0  0  0  0  0  0
   -6.4315   -7.3733   -2.7665 C   0  0  2  0  0  0  0  0  0  0  0  0
   -6.6826   -7.6870   -4.1893 C   0  0  0  0  0  0  0  0  0  0  0  0
   -6.2332   -8.8393   -4.7452 O   0  0  0  0  0  0  0  0  0  0  0  0
   -5.8150   -7.9733   -1.7291 N   0  0  0  0  0  0  0  0  0  0  0  0
   -5.9386   -7.1482   -0.6470 C   0  0  0  0  0  0  0  0  0  0  0  0
   -6.6284   -6.0308   -0.9704 N   0  0  1  0  0  0  0  0  0  0  0  0
  1  3  1  1  0  0  0
  1  4  2  0  0  0  0
  1  6  1  0  0  0  0
  1 22  1  0  0  0  0
  2 28  1  0  0  0  0
  2 35  1  6  0  0  0
  2 38  2  0  0  0  0
  2 10  1  0  0  0  0
  5  6  1  0  0  0  0
  7  5  1  1  0  0  0
  7  8  1  0  0  0  0
  7  9  1  0  0  0  0
  9 10  1  6  0  0  0
  9 11  1  0  0  0  0
 11 12  1  6  0  0  0
 11 13  1  0  0  0  0
 13  8  1  1  0  0  0
 13 33  1  0  0  0  0
 14 46  1  0  0  0  0
 14 17  1  0  0  0  0
 14 25  1  6  0  0  0
 15 16  1  0  0  0  0
 15 29  1  0  0  0  0
 16 18  1  6  0  0  0
 16 21  1  0  0  0  0
 17 19  1  1  0  0  0
 17 20  1  0  0  0  0
 20 22  1  1  0  0  0
 20 24  1  0  0  0  0
 23 21  1  6  0  0  0
 23 26  1  0  0  0  0
 23 33  1  0  0  0  0
 24 25  1  6  0  0  0
 24 27  1  0  0  0  0
 26 29  1  1  0  0  0
 26 31  1  0  0  0  0
 27 28  1  0  0  0  0
 29 30  2  0  0  0  0
 31 32  1  0  0  0  0
 33 32  1  1  0  0  0
 34 36  1  0  0  0  0
 34 42  1  0  0  0  0
 36 37  1  6  0  0  0
 36 39  1  0  0  0  0
 40 39  1  1  0  0  0
 40 41  1  0  0  0  0
 40 46  1  0  0  0  0
 41 42  1  1  0  0  0
 41 44  1  0  0  0  0
 42 43  2  0  0  0  0
 44 45  1  0  0  0  0
 46 45  1  6  0  0  0
M  CHG  2   3  -1  35  -1
M  END
>  <CHROM.1>
-104.18261568,-150.15581282,-3.05568610,-4.71566736,-0.75911725,0.22948485
-0.33720115,0.78738900

>  <Name>
ligand

>  <RI>
-1

>  <Rbt.Current_Directory>
/home/itssahil/PROJECTS/Mol_Feturizer/Test_systems_manuscript/rnas/3mum

>  <Rbt.Executable>
rbdock ($Id: //depot/dev/client3/rdock/2013.1/src/exe/rbdock.cxx#4 $)

>  <Rbt.Library>
libRbt.so (2013.1, Build901 2013/11/27)

>  <Rbt.Parameter_File>
/export/apps/rDock/src/rDock_2013.1_src/data/scripts/dock_solv.prm

>  <Rbt.Receptor>
prm/blind_docking_40.prm

>  <SCORE>
17.1406

>  <SCORE.INTER>
15.6422

>  <SCORE.INTER.CONST>
1

>  <SCORE.INTER.POLAR>
0

>  <SCORE.INTER.ROT>
2

>  <SCORE.INTER.SOLV>
47.1839

>  <SCORE.INTER.VDW>
-10.2332

>  <SCORE.INTER.norm>
0.340048

>  <SCORE.INTRA>
0.25652

>  <SCORE.INTRA.DIHEDRAL>
0.0206625

>  <SCORE.INTRA.DIHEDRAL.0>
2.40424

>  <SCORE.INTRA.POLAR>
0

>  <SCORE.INTRA.POLAR.0>
0

>  <SCORE.INTRA.REPUL>
0

>  <SCORE.INTRA.REPUL.0>
0

>  <SCORE.INTRA.SOLV>
0.0265273

>  <SCORE.INTRA.SOLV.lig_0>
-134.169

>  <SCORE.INTRA.VDW>
0.232925

>  <SCORE.INTRA.VDW.0>
-2.18386

>  <SCORE.INTRA.norm>
0.00557652

>  <SCORE.RESTR>
1.24186

>  <SCORE.RESTR.CAVITY>
1.24186

>  <SCORE.RESTR.norm>
0.0269969

>  <SCORE.SYSTEM>
0

>  <SCORE.SYSTEM.CONST>
0

>  <SCORE.SYSTEM.DIHEDRAL>
0

>  <SCORE.SYSTEM.SOLV>
0

>  <SCORE.SYSTEM.norm>
0

>  <SCORE.heavy>
46

>  <SCORE.norm>
0.372621

>  <RMSD>
19.598

$$$$
ligand
 OpenBabel02271912143D
libRbt.so/2013.1/901 2013/11/27
 46 52  0  0  0  0  0  0  0  0999 V2000
   -3.3660   -3.2048    2.5328 P   0  0  1  0  0  0  0  0  0  0  0  0
   -3.5234   -2.8497   -3.3430 P   0  0  2  0  0  0  0  0  0  0  0  0
   -3.4405   -4.8994    3.0470 O   0  5  0  0  0  0  0  0  0  0  0  0
   -3.1616   -2.1047    3.9211 O   0  0  0  0  0  0  0  0  0  0  0  0
   -1.8913   -1.8006    0.8366 C   0  0  0  0  0  0  0  0  0  0  0  0
   -2.1362   -3.0390    1.5035 O   0  0  0  0  0  0  0  0  0  0  0  0
   -1.0274   -2.0694   -0.3808 C   0  0  1  0  0  0  0  0  0  0  0  0
    0.1431   -2.7980    0.0156 O   0  0  0  0  0  0  0  0  0  0  0  0
   -1.7131   -2.9365   -1.4240 C   0  0  1  0  0  0  0  0  0  0  0  0
   -2.4191   -2.1593   -2.3887 O   0  0  0  0  0  0  0  0  0  0  0  0
   -0.5602   -3.7044   -2.0462 C   0  0  1  0  0  0  0  0  0  0  0  0
   -0.0101   -2.9634   -3.1383 O   0  0  0  0  0  0  0  0  0  0  0  0
    0.4861   -3.8028   -0.9515 C   0  0  2  0  0  0  0  0  0  0  0  0
   -6.9399   -4.9070   -0.0761 C   0  0  1  0  0  0  0  0  0  0  0  0
    3.1857   -7.7989    1.2701 N   0  0  0  0  0  0  0  0  0  0  0  0
    3.6543   -6.6295    0.7549 C   0  0  1  0  0  0  0  0  0  0  0  0
   -5.8744   -4.7725    0.9746 C   0  0  2  0  0  0  0  0  0  0  0  0
    4.9882   -6.4051    0.7876 N   0  0  0  0  0  0  0  0  0  0  0  0
   -6.5530   -4.5590    2.2135 O   0  0  0  0  0  0  0  0  0  0  0  0
   -5.0659   -3.5620    0.5518 C   0  0  2  0  0  0  0  0  0  0  0  0
    2.8361   -5.6822    0.2074 N   0  0  0  0  0  0  0  0  0  0  0  0
   -4.6578   -2.7857    1.6700 O   0  0  0  0  0  0  0  0  0  0  0  0
    1.4917   -5.8586    0.1525 C   0  0  2  0  0  0  0  0  0  0  0  0
   -6.0027   -2.7559   -0.3264 C   0  0  2  0  0  0  0  0  0  0  0  0
   -6.9890   -3.6746   -0.7937 O   0  0  0  0  0  0  0  0  0  0  0  0
    0.9325   -7.1094    0.6939 C   0  0  1  0  0  0  0  0  0  0  0  0
   -5.2959   -2.1190   -1.5177 C   0  0  0  0  0  0  0  0  0  0  0  0
   -4.7484   -3.1500   -2.3420 O   0  0  0  0  0  0  0  0  0  0  0  0
    1.8655   -8.0930    1.2720 C   0  0  0  0  0  0  0  0  0  0  0  0
    1.4073   -9.2632    1.7845 O   0  0  0  0  0  0  0  0  0  0  0  0
   -0.3925   -7.0499    0.5207 N   0  0  0  0  0  0  0  0  0  0  0  0
   -0.6700   -5.8584   -0.0851 C   0  0  0  0  0  0  0  0  0  0  0  0
    0.4525   -5.1431   -0.3083 N   0  0  1  0  0  0  0  0  0  0  0  0
   -7.3919   -6.7954   -4.9338 N   0  0  0  0  0  0  0  0  0  0  0  0
   -2.9127   -4.3654   -4.0574 O   0  5  0  0  0  0  0  0  0  0  0  0
   -7.8478   -5.6255   -4.4080 C   0  0  2  0  0  0  0  0  0  0  0  0
   -8.5282   -4.7605   -5.2048 N   0  0  0  0  0  0  0  0  0  0  0  0
   -4.1054   -1.7801   -4.6336 O   0  0  0  0  0  0  0  0  0  0  0  0
   -7.6428   -5.2920   -3.1046 N   0  0  0  0  0  0  0  0  0  0  0  0
   -6.9666   -6.1090   -2.2635 C   0  0  2  0  0  0  0  0  0  0  0  0
   -6.4525   -7.3875   -2.7723 C   0  0  2  0  0  0  0  0  0  0  0  0
   -6.7114   -7.6969   -4.1947 C   0  0  0  0  0  0  0  0  0  0  0  0
   -6.2779   -8.8542   -4.7527 O   0  0  0  0  0  0  0  0  0  0  0  0
   -5.8406   -7.9960   -1.7371 N   0  0  0  0  0  0  0  0  0  0  0  0
   -5.9510   -7.1703   -0.6541 C   0  0  0  0  0  0  0  0  0  0  0  0
   -6.6278   -6.0442   -0.9746 N   0  0  1  0  0  0  0  0  0  0  0  0
  1  3  1  1  0  0  0
  1  4  2  0  0  0  0
  1  6  1  0  0  0  0
  1 22  1  0  0  0  0
  2 28  1  0  0  0  0
  2 35  1  6  0  0  0
  2 38  2  0  0  0  0
  2 10  1  0  0  0  0
  5  6  1  0  0  0  0
  7  5  1  1  0  0  0
  7  8  1  0  0  0  0
  7  9  1  0  0  0  0
  9 10  1  6  0  0  0
  9 11  1  0  0  0  0
 11 12  1  6  0  0  0
 11 13  1  0  0  0  0
 13  8  1  1  0  0  0
 13 33  1  0  0  0  0
 14 46  1  0  0  0  0
 14 17  1  0  0  0  0
 14 25  1  6  0  0  0
 15 16  1  0  0  0  0
 15 29  1  0  0  0  0
 16 18  1  6  0  0  0
 16 21  1  0  0  0  0
 17 19  1  1  0  0  0
 17 20  1  0  0  0  0
 20 22  1  1  0  0  0
 20 24  1  0  0  0  0
 23 21  1  6  0  0  0
 23 26  1  0  0  0  0
 23 33  1  0  0  0  0
 24 25  1  6  0  0  0
 24 27  1  0  0  0  0
 26 29  1  1  0  0  0
 26 31  1  0  0  0  0
 27 28  1  0  0  0  0
 29 30  2  0  0  0  0
 31 32  1  0  0  0  0
 33 32  1  1  0  0  0
 34 36  1  0  0  0  0
 34 42  1  0  0  0  0
 36 37  1  6  0  0  0
 36 39  1  0  0  0  0
 40 39  1  1  0  0  0
 40 41  1  0  0  0  0
 40 46  1  0  0  0  0
 41 42  1  1  0  0  0
 41 44  1  0  0  0  0
 42 43  2  0  0  0  0
 44 45  1  0  0  0  0
 46 45  1  6  0  0  0
M  CHG  2   3  -1  35  -1
M  END
>  <CHROM.1>
-99.44057192,-149.38732609,-3.04474313,-4.73101631,-0.79122668,0.23347036
-0.33962529,0.78113440

>  <Name>
ligand

>  <RI>
-1

>  <Rbt.Current_Directory>
/home/itssahil/PROJECTS/Mol_Feturizer/Test_systems_manuscript/rnas/3mum

>  <Rbt.Executable>
rbdock ($Id: //depot/dev/client3/rdock/2013.1/src/exe/rbdock.cxx#4 $)

>  <Rbt.Library>
libRbt.so (2013.1, Build901 2013/11/27)

>  <Rbt.Parameter_File>
/export/apps/rDock/src/rDock_2013.1_src/data/scripts/dock_solv.prm

>  <Rbt.Receptor>
prm/blind_docking_40.prm

>  <SCORE>
17.341

>  <SCORE.INTER>
15.8617

>  <SCORE.INTER.CONST>
1

>  <SCORE.INTER.POLAR>
0

>  <SCORE.INTER.ROT>
2

>  <SCORE.INTER.SOLV>
46.3142

>  <SCORE.INTER.VDW>
-9.79695

>  <SCORE.INTER.norm>
0.344819

>  <SCORE.INTRA>
0.2368

>  <SCORE.INTRA.DIHEDRAL>
0.0201536

>  <SCORE.INTRA.DIHEDRAL.0>
2.40424

>  <SCORE.INTRA.POLAR>
0

>  <SCORE.INTRA.POLAR.0>
0

>  <SCORE.INTRA.REPUL>
0

>  <SCORE.INTRA.REPUL.0>
0

>  <SCORE.INTRA.SOLV>
0.027538

>  <SCORE.INTRA.SOLV.lig_0>
-134.169

>  <SCORE.INTRA.VDW>
0.212954

>  <SCORE.INTRA.VDW.0>
-2.18386

>  <SCORE.INTRA.norm>
0.00514783

>  <SCORE.RESTR>
1.24253

>  <SCORE.RESTR.CAVITY>
1.24253

>  <SCORE.RESTR.norm>
0.0270115

>  <SCORE.SYSTEM>
0

>  <SCORE.SYSTEM.CONST>
0

>  <SCORE.SYSTEM.DIHEDRAL>
0

>  <SCORE.SYSTEM.SOLV>
0

>  <SCORE.SYSTEM.norm>
0

>  <SCORE.heavy>
46

>  <SCORE.norm>
0.376978

>  <RMSD>
19.631

$$$$
ligand
 OpenBabel02271912143D
libRbt.so/2013.1/901 2013/11/27
 46 52  0  0  0  0  0  0  0  0999 V2000
   -3.3531   -3.1757    2.4945 P   0  0  1  0  0  0  0  0  0  0  0  0
   -3.5492   -2.8807   -3.3835 P   0  0  2  0  0  0  0  0  0  0  0  0
   -3.4222   -4.8652    3.0264 O   0  5  0  0  0  0  0  0  0  0  0  0
   -3.1411   -2.0614    3.8702 O   0  0  0  0  0  0  0  0  0  0  0  0
   -1.8912   -1.7872    0.7745 C   0  0  0  0  0  0  0  0  0  0  0  0
   -2.1303   -3.0191    1.4556 O   0  0  0  0  0  0  0  0  0  0  0  0
   -1.0349   -2.0675   -0.4457 C   0  0  1  0  0  0  0  0  0  0  0  0
    0.1390   -2.7906   -0.0495 O   0  0  0  0  0  0  0  0  0  0  0  0
   -1.7263   -2.9459   -1.4755 C   0  0  1  0  0  0  0  0  0  0  0  0
   -2.4395   -2.1794   -2.4435 O   0  0  0  0  0  0  0  0  0  0  0  0
   -0.5765   -3.7188   -2.0973 C   0  0  1  0  0  0  0  0  0  0  0  0
   -0.0344   -2.9883   -3.2005 O   0  0  0  0  0  0  0  0  0  0  0  0
    0.4770   -3.8048   -1.0086 C   0  0  2  0  0  0  0  0  0  0  0  0
   -6.9419   -4.9085   -0.0735 C   0  0  1  0  0  0  0  0  0  0  0  0
    3.1976   -7.7840    1.2178 N   0  0  0  0  0  0  0  0  0  0  0  0
    3.6617   -6.6208    0.6849 C   0  0  1  0  0  0  0  0  0  0  0  0
   -5.8697   -4.7621    0.9687 C   0  0  2  0  0  0  0  0  0  0  0  0
    4.9963   -6.3988    0.6980 N   0  0  0  0  0  0  0  0  0  0  0  0
   -6.5405   -4.5368    2.2098 O   0  0  0  0  0  0  0  0  0  0  0  0
   -5.0655   -3.5551    0.5284 C   0  0  2  0  0  0  0  0  0  0  0  0
    2.8383   -5.6773    0.1385 N   0  0  0  0  0  0  0  0  0  0  0  0
   -4.6510   -2.7670    1.6359 O   0  0  0  0  0  0  0  0  0  0  0  0
    1.4929   -5.8515    0.1030 C   0  0  2  0  0  0  0  0  0  0  0  0
   -6.0089   -2.7591   -0.3518 C   0  0  2  0  0  0  0  0  0  0  0  0
   -6.9971   -3.6836   -0.8034 O   0  0  0  0  0  0  0  0  0  0  0  0
    0.9384   -7.0957    0.6641 C   0  0  1  0  0  0  0  0  0  0  0  0
   -5.3106   -2.1335   -1.5542 C   0  0  0  0  0  0  0  0  0  0  0  0
   -4.7672   -3.1722   -2.3714 O   0  0  0  0  0  0  0  0  0  0  0  0
    1.8770   -8.0753    1.2399 C   0  0  0  0  0  0  0  0  0  0  0  0
    1.4232   -9.2394    1.7700 O   0  0  0  0  0  0  0  0  0  0  0  0
   -0.3886   -7.0352    0.5075 N   0  0  0  0  0  0  0  0  0  0  0  0
   -0.6717   -5.8493   -0.1066 C   0  0  0  0  0  0  0  0  0  0  0  0
    0.4492   -5.1385   -0.3515 N   0  0  1  0  0  0  0  0  0  0  0  0
   -7.4105   -6.8405   -4.9126 N   0  0  0  0  0  0  0  0  0  0  0  0
   -2.9413   -4.4029   -4.0863 O   0  5  0  0  0  0  0  0  0  0  0  0
   -7.8628   -5.6650   -4.3963 C   0  0  2  0  0  0  0  0  0  0  0  0
   -8.5438   -4.8062   -5.1991 N   0  0  0  0  0  0  0  0  0  0  0  0
   -4.1408   -1.8251   -4.6810 O   0  0  0  0  0  0  0  0  0  0  0  0
   -7.6537   -5.3200   -3.0965 N   0  0  0  0  0  0  0  0  0  0  0  0
   -6.9767   -6.1305   -2.2498 C   0  0  2  0  0  0  0  0  0  0  0  0
   -6.4661   -7.4145   -2.7482 C   0  0  2  0  0  0  0  0  0  0  0  0
   -6.7295   -7.7365   -4.1671 C   0  0  0  0  0  0  0  0  0  0  0  0
   -6.2995   -8.8996   -4.7156 O   0  0  0  0  0  0  0  0  0  0  0  0
   -5.8525   -8.0146   -1.7092 N   0  0  0  0  0  0  0  0  0  0  0  0
   -5.9585   -7.1788   -0.6334 C   0  0  0  0  0  0  0  0  0  0  0  0
   -6.6342   -6.0545   -0.9624 N   0  0  1  0  0  0  0  0  0  0  0  0
  1  3  1  1  0  0  0
  1  4  2  0  0  0  0
  1  6  1  0  0  0  0
  1 22  1  0  0  0  0
  2 28  1  0  0  0  0
  2 35  1  6  0  0  0
  2 38  2  0  0  0  0
  2 10  1  0  0  0  0
  5  6  1  0  0  0  0
  7  5  1  1  0  0  0
  7  8  1  0  0  0  0
  7  9  1  0  0  0  0
  9 10  1  6  0  0  0
  9 11  1  0  0  0  0
 11 12  1  6  0  0  0
 11 13  1  0  0  0  0
 13  8  1  1  0  0  0
 13 33  1  0  0  0  0
 14 46  1  0  0  0  0
 14 17  1  0  0  0  0
 14 25  1  6  0  0  0
 15 16  1  0  0  0  0
 15 29  1  0  0  0  0
 16 18  1  6  0  0  0
 16 21  1  0  0  0  0
 17 19  1  1  0  0  0
 17 20  1  0  0  0  0
 20 22  1  1  0  0  0
 20 24  1  0  0  0  0
 23 21  1  6  0  0  0
 23 26  1  0  0  0  0
 23 33  1  0  0  0  0
 24 25  1  6  0  0  0
 24 27  1  0  0  0  0
 26 29  1  1  0  0  0
 26 31  1  0  0  0  0
 27 28  1  0  0  0  0
 29 30  2  0  0  0  0
 31 32  1  0  0  0  0
 33 32  1  1  0  0  0
 34 36  1  0  0  0  0
 34 42  1  0  0  0  0
 36 37  1  6  0  0  0
 36 39  1  0  0  0  0
 40 39  1  1  0  0  0
 40 41  1  0  0  0  0
 40 46  1  0  0  0  0
 41 42  1  1  0  0  0
 41 44  1  0  0  0  0
 42 43  2  0  0  0  0
 44 45  1  0  0  0  0
 46 45  1  6  0  0  0
M  CHG  2   3  -1  35  -1
M  END
>  <CHROM.1>
-99.85461286,-149.10477288,-3.05004781,-4.73568734,-0.81818800,0.22883638
-0.33350997,0.77312720

>  <Name>
ligand

>  <RI>
-1

>  <Rbt.Current_Directory>
/home/itssahil/PROJECTS/Mol_Feturizer/Test_systems_manuscript/rnas/3mum

>  <Rbt.Executable>
rbdock ($Id: //depot/dev/client3/rdock/2013.1/src/exe/rbdock.cxx#4 $)

>  <Rbt.Library>
libRbt.so (2013.1, Build901 2013/11/27)

>  <Rbt.Parameter_File>
/export/apps/rDock/src/rDock_2013.1_src/data/scripts/dock_solv.prm

>  <Rbt.Receptor>
prm/blind_docking_20.prm

>  <SCORE>
18.2728

>  <SCORE.INTER>
16.3829

>  <SCORE.INTER.CONST>
1

>  <SCORE.INTER.POLAR>
0

>  <SCORE.INTER.ROT>
2

>  <SCORE.INTER.SOLV>
46.3957

>  <SCORE.INTER.VDW>
-9.47664

>  <SCORE.INTER.norm>
0.356149

>  <SCORE.INTRA>
0.223106

>  <SCORE.INTRA.DIHEDRAL>
0.020185

>  <SCORE.INTRA.DIHEDRAL.0>
2.40424

>  <SCORE.INTRA.POLAR>
0

>  <SCORE.INTRA.POLAR.0>
0

>  <SCORE.INTRA.REPUL>
0

>  <SCORE.INTRA.REPUL.0>
0

>  <SCORE.INTRA.SOLV>
0.0271257

>  <SCORE.INTRA.SOLV.lig_0>
-134.169

>  <SCORE.INTRA.VDW>
0.199451

>  <SCORE.INTRA.VDW.0>
-2.18386

>  <SCORE.INTRA.norm>
0.00485014

>  <SCORE.RESTR>
1.66685

>  <SCORE.RESTR.CAVITY>
1.66685

>  <SCORE.RESTR.norm>
0.0362358

>  <SCORE.SYSTEM>
0

>  <SCORE.SYSTEM.CONST>
0

>  <SCORE.SYSTEM.DIHEDRAL>
0

>  <SCORE.SYSTEM.SOLV>
0

>  <SCORE.SYSTEM.norm>
0

>  <SCORE.heavy>
46

>  <SCORE.norm>
0.397235

>  <RMSD>
19.650

$$$$
ligand
 OpenBabel02271912143D
libRbt.so/2013.1/901 2013/11/27
 46 52  0  0  0  0  0  0  0  0999 V2000
   -3.5752   -2.6322   -3.3998 P   0  0  1  0  0  0  0  0  0  0  0  0
   -3.4065   -3.2847    2.4502 P   0  0  2  0  0  0  0  0  0  0  0  0
   -3.0294   -4.1175   -4.1985 O   0  5  0  0  0  0  0  0  0  0  0  0
   -4.1139   -1.4101   -4.5811 O   0  0  0  0  0  0  0  0  0  0  0  0
   -5.3551   -2.0275   -1.5317 C   0  0  0  0  0  0  0  0  0  0  0  0
   -4.7798   -3.0074   -2.3961 O   0  0  0  0  0  0  0  0  0  0  0  0
   -6.0812   -2.7409   -0.4072 C   0  0  1  0  0  0  0  0  0  0  0  0
   -7.0021   -3.6915   -0.9606 O   0  0  0  0  0  0  0  0  0  0  0  0
   -5.1550   -3.5457    0.4900 C   0  0  1  0  0  0  0  0  0  0  0  0
   -4.6814   -2.7815    1.5967 O   0  0  0  0  0  0  0  0  0  0  0  0
   -6.0272   -4.7072    0.9328 C   0  0  1  0  0  0  0  0  0  0  0  0
   -6.7440   -4.3576    2.1196 O   0  0  0  0  0  0  0  0  0  0  0  0
   -7.0236   -4.9059   -0.1942 C   0  0  2  0  0  0  0  0  0  0  0  0
    0.3886   -3.6754   -1.0171 C   0  0  1  0  0  0  0  0  0  0  0  0
   -7.1583   -7.1869   -4.9871 N   0  0  0  0  0  0  0  0  0  0  0  0
   -7.7202   -6.0166   -4.5784 C   0  0  1  0  0  0  0  0  0  0  0  0
   -0.6920   -3.6680   -2.0610 C   0  0  2  0  0  0  0  0  0  0  0  0
   -8.4238   -5.2952   -5.4813 N   0  0  0  0  0  0  0  0  0  0  0  0
   -0.1282   -3.0557   -3.2221 O   0  0  0  0  0  0  0  0  0  0  0  0
   -1.8042   -2.8321   -1.4593 C   0  0  2  0  0  0  0  0  0  0  0  0
   -7.6046   -5.5472   -3.3005 N   0  0  0  0  0  0  0  0  0  0  0  0
   -2.4400   -2.0206   -2.4374 O   0  0  0  0  0  0  0  0  0  0  0  0
   -6.9079   -6.2321   -2.3586 C   0  0  2  0  0  0  0  0  0  0  0  0
   -1.1196   -1.9597   -0.4255 C   0  0  2  0  0  0  0  0  0  0  0  0
    0.0977   -2.6262   -0.0947 O   0  0  0  0  0  0  0  0  0  0  0  0
   -6.2820   -7.5077   -2.7480 C   0  0  1  0  0  0  0  0  0  0  0  0
   -1.9547   -1.7703    0.8359 C   0  0  0  0  0  0  0  0  0  0  0  0
   -2.1675   -3.0426    1.4507 O   0  0  0  0  0  0  0  0  0  0  0  0
   -6.4414   -7.9614   -4.1411 C   0  0  0  0  0  0  0  0  0  0  0  0
   -5.8876   -9.1289   -4.5562 O   0  0  0  0  0  0  0  0  0  0  0  0
   -5.6681   -7.9873   -1.6607 N   0  0  0  0  0  0  0  0  0  0  0  0
   -5.8799   -7.0965   -0.6482 C   0  0  0  0  0  0  0  0  0  0  0  0
   -6.6211   -6.0463   -1.0596 N   0  0  1  0  0  0  0  0  0  0  0  0
    3.4999   -7.4126    0.9121 N   0  0  0  0  0  0  0  0  0  0  0  0
   -3.5435   -5.0125    2.8705 O   0  5  0  0  0  0  0  0  0  0  0  0
    3.8226   -6.2435    0.2939 C   0  0  2  0  0  0  0  0  0  0  0  0
    5.1317   -5.9247    0.1193 N   0  0  0  0  0  0  0  0  0  0  0  0
   -3.1288   -2.3377    3.9246 O   0  0  0  0  0  0  0  0  0  0  0  0
    2.8725   -5.3792   -0.1563 N   0  0  0  0  0  0  0  0  0  0  0  0
    1.5526   -5.6382   -0.0054 C   0  0  2  0  0  0  0  0  0  0  0  0
    1.1418   -6.8860    0.6517 C   0  0  2  0  0  0  0  0  0  0  0  0
    2.2189   -7.7873    1.1140 C   0  0  0  0  0  0  0  0  0  0  0  0
    1.9367   -8.9625    1.7289 O   0  0  0  0  0  0  0  0  0  0  0  0
   -0.2059   -6.8927    0.6578 N   0  0  0  0  0  0  0  0  0  0  0  0
   -0.6233   -5.7389    0.0565 C   0  0  0  0  0  0  0  0  0  0  0  0
    0.4332   -4.9938   -0.3404 N   0  0  1  0  0  0  0  0  0  0  0  0
  1  3  1  6  0  0  0
  1  4  2  0  0  0  0
  1  6  1  0  0  0  0
  1 22  1  0  0  0  0
  2 28  1  0  0  0  0
  2 35  1  1  0  0  0
  2 38  2  0  0  0  0
  2 10  1  0  0  0  0
  5  6  1  0  0  0  0
  7  5  1  6  0  0  0
  7  8  1  0  0  0  0
  7  9  1  0  0  0  0
  9 10  1  1  0  0  0
  9 11  1  0  0  0  0
 11 12  1  1  0  0  0
 11 13  1  0  0  0  0
 13  8  1  6  0  0  0
 13 33  1  0  0  0  0
 14 46  1  0  0  0  0
 14 17  1  0  0  0  0
 14 25  1  1  0  0  0
 15 16  1  0  0  0  0
 15 29  1  0  0  0  0
 16 18  1  1  0  0  0
 16 21  1  0  0  0  0
 17 19  1  6  0  0  0
 17 20  1  0  0  0  0
 20 22  1  6  0  0  0
 20 24  1  0  0  0  0
 23 21  1  1  0  0  0
 23 26  1  0  0  0  0
 23 33  1  0  0  0  0
 24 25  1  1  0  0  0
 24 27  1  0  0  0  0
 26 29  1  6  0  0  0
 26 31  1  0  0  0  0
 27 28  1  0  0  0  0
 29 30  2  0  0  0  0
 31 32  1  0  0  0  0
 33 32  1  6  0  0  0
 34 36  1  0  0  0  0
 34 42  1  0  0  0  0
 36 37  1  1  0  0  0
 36 39  1  0  0  0  0
 40 39  1  6  0  0  0
 40 41  1  0  0  0  0
 40 46  1  0  0  0  0
 41 42  1  6  0  0  0
 41 44  1  0  0  0  0
 42 43  2  0  0  0  0
 44 45  1  0  0  0  0
 46 45  1  1  0  0  0
M  CHG  2   3  -1  35  -1
M  END
>  <CHROM.1>
-36.48798076,139.22789244,-3.00894401,-4.67935337,-0.87854233,2.90285818
0.29414639,-2.35538406

>  <Name>
ligand

>  <RI>
-1

>  <Rbt.Current_Directory>
/home/itssahil/PROJECTS/Mol_Feturizer/Test_systems_manuscript/rnas/3mum

>  <Rbt.Executable>
rbdock ($Id: //depot/dev/client3/rdock/2013.1/src/exe/rbdock.cxx#4 $)

>  <Rbt.Library>
libRbt.so (2013.1, Build901 2013/11/27)

>  <Rbt.Parameter_File>
/export/apps/rDock/src/rDock_2013.1_src/data/scripts/dock_solv.prm

>  <Rbt.Receptor>
prm/blind_docking_100.prm

>  <SCORE>
23.2481

>  <SCORE.INTER>
21.0619

>  <SCORE.INTER.CONST>
1

>  <SCORE.INTER.POLAR>
0

>  <SCORE.INTER.ROT>
2

>  <SCORE.INTER.SOLV>
44.4505

>  <SCORE.INTER.VDW>
-5.70892

>  <SCORE.INTER.norm>
0.457867

>  <SCORE.INTRA>
0.249241

>  <SCORE.INTRA.DIHEDRAL>
-0.0237924

>  <SCORE.INTRA.DIHEDRAL.0>
2.40424

>  <SCORE.INTRA.POLAR>
0

>  <SCORE.INTRA.POLAR.0>
0

>  <SCORE.INTRA.REPUL>
0

>  <SCORE.INTRA.REPUL.0>
0

>  <SCORE.INTRA.SOLV>
0.0244212

>  <SCORE.INTRA.SOLV.lig_0>
-134.169

>  <SCORE.INTRA.VDW>
0.248927

>  <SCORE.INTRA.VDW.0>
-2.18386

>  <SCORE.INTRA.norm>
0.00541829

>  <SCORE.RESTR>
1.93695

>  <SCORE.RESTR.CAVITY>
1.93695

>  <SCORE.RESTR.norm>
0.0421076

>  <SCORE.SYSTEM>
0

>  <SCORE.SYSTEM.CONST>
0

>  <SCORE.SYSTEM.DIHEDRAL>
0

>  <SCORE.SYSTEM.SOLV>
0

>  <SCORE.SYSTEM.norm>
0

>  <SCORE.heavy>
46

>  <SCORE.norm>
0.505393

>  <RMSD>
19.696

$$$$
ligand
 OpenBabel02271912143D
libRbt.so/2013.1/901 2013/11/27
 46 52  0  0  0  0  0  0  0  0999 V2000
   -4.5962   -5.2059   -2.7482 P   0  0  1  0  0  0  0  0  0  0  0  0
   -2.6404   -0.2862   -0.1700 P   0  0  2  0  0  0  0  0  0  0  0  0
   -3.3207   -6.4366   -2.7681 O   0  5  0  0  0  0  0  0  0  0  0  0
   -6.1265   -5.8341   -3.4136 O   0  0  0  0  0  0  0  0  0  0  0  0
   -5.7017   -3.6498   -0.9098 C   0  0  0  0  0  0  0  0  0  0  0  0
   -4.8080   -4.7172   -1.2265 O   0  0  0  0  0  0  0  0  0  0  0  0
   -5.3382   -3.1043    0.4580 C   0  0  1  0  0  0  0  0  0  0  0  0
   -5.3015   -4.1797    1.4068 O   0  0  0  0  0  0  0  0  0  0  0  0
   -3.9564   -2.4727    0.5045 C   0  0  1  0  0  0  0  0  0  0  0  0
   -3.9940   -1.0765    0.2176 O   0  0  0  0  0  0  0  0  0  0  0  0
   -3.4986   -2.7488    1.9259 C   0  0  1  0  0  0  0  0  0  0  0  0
   -3.9237   -1.6934    2.7918 O   0  0  0  0  0  0  0  0  0  0  0  0
   -4.2128   -4.0250    2.3307 C   0  0  2  0  0  0  0  0  0  0  0  0
   -0.8473   -2.7656   -4.3190 C   0  0  1  0  0  0  0  0  0  0  0  0
   -2.9356   -8.5229   -0.1853 N   0  0  0  0  0  0  0  0  0  0  0  0
   -3.9571   -7.6596   -0.4377 C   0  0  1  0  0  0  0  0  0  0  0  0
   -1.7500   -3.8970   -3.9163 C   0  0  2  0  0  0  0  0  0  0  0  0
   -4.7947   -7.9419   -1.4621 N   0  0  0  0  0  0  0  0  0  0  0  0
   -2.1435   -4.5500   -5.1246 O   0  0  0  0  0  0  0  0  0  0  0  0
   -2.9205   -3.2288   -3.2226 C   0  0  2  0  0  0  0  0  0  0  0  0
   -4.1695   -6.5294    0.2999 N   0  0  0  0  0  0  0  0  0  0  0  0
   -4.1502   -3.8718   -3.5293 O   0  0  0  0  0  0  0  0  0  0  0  0
   -3.3568   -6.2008    1.3358 C   0  0  2  0  0  0  0  0  0  0  0  0
   -2.9294   -1.8093   -3.7549 C   0  0  2  0  0  0  0  0  0  0  0  0
   -1.6079   -1.5614   -4.2316 O   0  0  0  0  0  0  0  0  0  0  0  0
   -2.2369   -7.1036    1.6537 C   0  0  1  0  0  0  0  0  0  0  0  0
   -3.2871   -0.7796   -2.6890 C   0  0  0  0  0  0  0  0  0  0  0  0
   -2.3055   -0.8211   -1.6513 O   0  0  0  0  0  0  0  0  0  0  0  0
   -2.0589   -8.3071    0.8218 C   0  0  0  0  0  0  0  0  0  0  0  0
   -1.0452   -9.1752    1.0688 O   0  0  0  0  0  0  0  0  0  0  0  0
   -1.5964   -6.5744    2.7020 N   0  0  0  0  0  0  0  0  0  0  0  0
   -2.2487   -5.4232    3.0378 C   0  0  0  0  0  0  0  0  0  0  0  0
   -3.3020   -5.1957    2.2252 N   0  0  1  0  0  0  0  0  0  0  0  0
    3.6225   -0.2695   -3.2426 N   0  0  0  0  0  0  0  0  0  0  0  0
   -1.3114   -0.6786    0.9528 O   0  5  0  0  0  0  0  0  0  0  0  0
    2.7055   -0.0316   -4.2200 C   0  0  2  0  0  0  0  0  0  0  0  0
    2.9083    0.9973   -5.0837 N   0  0  0  0  0  0  0  0  0  0  0  0
   -2.8505    1.4740   -0.2453 O   0  0  0  0  0  0  0  0  0  0  0  0
    1.5866   -0.7937   -4.3605 N   0  0  0  0  0  0  0  0  0  0  0  0
    1.3262   -1.8279   -3.5270 C   0  0  2  0  0  0  0  0  0  0  0  0
    2.2807   -2.1358   -2.4538 C   0  0  2  0  0  0  0  0  0  0  0  0
    3.4800   -1.2766   -2.3550 C   0  0  0  0  0  0  0  0  0  0  0  0
    4.4179   -1.4858   -1.3984 O   0  0  0  0  0  0  0  0  0  0  0  0
    1.7872   -3.2019   -1.7934 N   0  0  0  0  0  0  0  0  0  0  0  0
    0.6089   -3.5454   -2.3939 C   0  0  0  0  0  0  0  0  0  0  0  0
    0.3398   -2.7214   -3.4319 N   0  0  1  0  0  0  0  0  0  0  0  0
  1  3  1  6  0  0  0
  1  4  2  0  0  0  0
  1  6  1  0  0  0  0
  1 22  1  0  0  0  0
  2 28  1  0  0  0  0
  2 35  1  1  0  0  0
  2 38  2  0  0  0  0
  2 10  1  0  0  0  0
  5  6  1  0  0  0  0
  7  5  1  6  0  0  0
  7  8  1  0  0  0  0
  7  9  1  0  0  0  0
  9 10  1  1  0  0  0
  9 11  1  0  0  0  0
 11 12  1  1  0  0  0
 11 13  1  0  0  0  0
 13  8  1  6  0  0  0
 13 33  1  0  0  0  0
 14 46  1  0  0  0  0
 14 17  1  0  0  0  0
 14 25  1  1  0  0  0
 15 16  1  0  0  0  0
 15 29  1  0  0  0  0
 16 18  1  1  0  0  0
 16 21  1  0  0  0  0
 17 19  1  6  0  0  0
 17 20  1  0  0  0  0
 20 22  1  6  0  0  0
 20 24  1  0  0  0  0
 23 21  1  1  0  0  0
 23 26  1  0  0  0  0
 23 33  1  0  0  0  0
 24 25  1  1  0  0  0
 24 27  1  0  0  0  0
 26 29  1  6  0  0  0
 26 31  1  0  0  0  0
 27 28  1  0  0  0  0
 29 30  2  0  0  0  0
 31 32  1  0  0  0  0
 33 32  1  6  0  0  0
 34 36  1  0  0  0  0
 34 42  1  0  0  0  0
 36 37  1  1  0  0  0
 36 39  1  0  0  0  0
 40 39  1  6  0  0  0
 40 41  1  0  0  0  0
 40 46  1  0  0  0  0
 41 42  1  6  0  0  0
 41 44  1  0  0  0  0
 42 43  2  0  0  0  0
 44 45  1  0  0  0  0
 46 45  1  1  0  0  0
M  CHG  2   3  -1  35  -1
M  END
>  <CHROM.1>
6.42074055,-179.72458557,-2.10878777,-3.46811451,-1.25115297,-2.59109272
0.69576278,0.20770458

>  <Name>
ligand

>  <RI>
0

>  <Rbt.Current_Directory>
/home/itssahil/PROJECTS/Mol_Feturizer/Test_systems_manuscript/rnas/3mum

>  <Rbt.Executable>
rbdock ($Id: //depot/dev/client3/rdock/2013.1/src/exe/rbdock.cxx#4 $)

>  <Rbt.Library>
libRbt.so (2013.1, Build901 2013/11/27)

>  <Rbt.Parameter_File>
/export/apps/rDock/src/rDock_2013.1_src/data/scripts/dock_solv.prm

>  <Rbt.Receptor>
prm/blind_docking_60.prm

>  <SCORE>
2.93266

>  <SCORE.INTER>
-3.50946

>  <SCORE.INTER.CONST>
1

>  <SCORE.INTER.POLAR>
0

>  <SCORE.INTER.ROT>
2

>  <SCORE.INTER.SOLV>
37.5657

>  <SCORE.INTER.VDW>
-19.7949

>  <SCORE.INTER.norm>
-0.0762927

>  <SCORE.INTRA>
5.37396

>  <SCORE.INTRA.DIHEDRAL>
-0.00565922

>  <SCORE.INTRA.DIHEDRAL.0>
2.40424

>  <SCORE.INTRA.POLAR>
0

>  <SCORE.INTRA.POLAR.0>
0

>  <SCORE.INTRA.REPUL>
0

>  <SCORE.INTRA.REPUL.0>
0

>  <SCORE.INTRA.SOLV>
9.59673

>  <SCORE.INTRA.SOLV.lig_0>
-134.169

>  <SCORE.INTRA.VDW>
0.578428

>  <SCORE.INTRA.VDW.0>
-2.18386

>  <SCORE.INTRA.norm>
0.116825

>  <SCORE.RESTR>
1.06816

>  <SCORE.RESTR.CAVITY>
1.06816

>  <SCORE.RESTR.norm>
0.0232208

>  <SCORE.SYSTEM>
0

>  <SCORE.SYSTEM.CONST>
0

>  <SCORE.SYSTEM.DIHEDRAL>
0

>  <SCORE.SYSTEM.SOLV>
0

>  <SCORE.SYSTEM.norm>
0

>  <SCORE.heavy>
46

>  <SCORE.norm>
0.0637535

>  <RMSD>
19.790

$$$$
ligand
 OpenBabel02271912143D
libRbt.so/2013.1/901 2013/11/27
 46 52  0  0  0  0  0  0  0  0999 V2000
   -2.5377   -0.4229   -0.0892 P   0  0  1  0  0  0  0  0  0  0  0  0
   -4.9398   -5.3260   -2.2950 P   0  0  2  0  0  0  0  0  0  0  0  0
   -0.9953   -0.7971    0.7001 O   0  5  0  0  0  0  0  0  0  0  0  0
   -2.8715    1.3286   -0.0832 O   0  0  0  0  0  0  0  0  0  0  0  0
   -3.6249   -0.9126   -2.4559 C   0  0  0  0  0  0  0  0  0  0  0  0
   -2.4818   -0.9754   -1.6027 O   0  0  0  0  0  0  0  0  0  0  0  0
   -3.4395   -1.9063   -3.5868 C   0  0  1  0  0  0  0  0  0  0  0  0
   -2.1781   -1.6704   -4.2280 O   0  0  0  0  0  0  0  0  0  0  0  0
   -3.3931   -3.3506   -3.1153 C   0  0  1  0  0  0  0  0  0  0  0  0
   -4.6842   -3.9556   -3.1096 O   0  0  0  0  0  0  0  0  0  0  0  0
   -2.4605   -4.0103   -4.1158 C   0  0  1  0  0  0  0  0  0  0  0  0
   -3.2046   -4.4843   -5.2410 O   0  0  0  0  0  0  0  0  0  0  0  0
   -1.5319   -2.9037   -4.5803 C   0  0  2  0  0  0  0  0  0  0  0  0
   -3.6370   -4.1955    2.5633 C   0  0  1  0  0  0  0  0  0  0  0  0
    3.7248   -2.1857   -4.7913 N   0  0  0  0  0  0  0  0  0  0  0  0
    2.7889   -1.9566   -5.7525 C   0  0  1  0  0  0  0  0  0  0  0  0
   -2.9070   -3.0129    1.9926 C   0  0  2  0  0  0  0  0  0  0  0  0
    3.2040   -1.4801   -6.9488 N   0  0  0  0  0  0  0  0  0  0  0  0
   -2.9565   -1.9887    2.9874 O   0  0  0  0  0  0  0  0  0  0  0  0
   -3.6904   -2.6384    0.7501 C   0  0  2  0  0  0  0  0  0  0  0  0
    1.4568   -2.1905   -5.5585 N   0  0  0  0  0  0  0  0  0  0  0  0
   -3.7600   -1.2296    0.5771 O   0  0  0  0  0  0  0  0  0  0  0  0
    0.9897   -2.6662   -4.3764 C   0  0  2  0  0  0  0  0  0  0  0  0
   -5.0785   -3.2029    0.9805 C   0  0  2  0  0  0  0  0  0  0  0  0
   -4.9241   -4.2393    1.9487 O   0  0  0  0  0  0  0  0  0  0  0  0
    1.9619   -2.9344   -3.3025 C   0  0  1  0  0  0  0  0  0  0  0  0
   -5.7011   -3.7791   -0.2863 C   0  0  0  0  0  0  0  0  0  0  0  0
   -4.8924   -4.8603   -0.7543 O   0  0  0  0  0  0  0  0  0  0  0  0
    3.3851   -2.6618   -3.5717 C   0  0  0  0  0  0  0  0  0  0  0  0
    4.3254   -2.8909   -2.6201 O   0  0  0  0  0  0  0  0  0  0  0  0
    1.2680   -3.3954   -2.2561 N   0  0  0  0  0  0  0  0  0  0  0  0
   -0.0469   -3.4254   -2.6219 C   0  0  0  0  0  0  0  0  0  0  0  0
   -0.2186   -2.9916   -3.8883 N   0  0  1  0  0  0  0  0  0  0  0  0
    0.7033   -6.2091    0.4477 N   0  0  0  0  0  0  0  0  0  0  0  0
   -3.6650   -6.5288   -2.6250 O   0  5  0  0  0  0  0  0  0  0  0  0
    0.2754   -4.9178    0.4950 C   0  0  2  0  0  0  0  0  0  0  0  0
    1.0399   -3.9446   -0.0658 N   0  0  0  0  0  0  0  0  0  0  0  0
   -6.5296   -6.0470   -2.6124 O   0  0  0  0  0  0  0  0  0  0  0  0
   -0.8981   -4.5678    1.0889 N   0  0  0  0  0  0  0  0  0  0  0  0
   -1.6992   -5.4910    1.6703 C   0  0  2  0  0  0  0  0  0  0  0  0
   -1.2923   -6.9023    1.6489 C   0  0  2  0  0  0  0  0  0  0  0  0
   -0.0107   -7.2214    0.9843 C   0  0  0  0  0  0  0  0  0  0  0  0
    0.4459   -8.4962    0.9126 O   0  0  0  0  0  0  0  0  0  0  0  0
   -2.2637   -7.5929    2.2780 N   0  0  0  0  0  0  0  0  0  0  0  0
   -3.2137   -6.6942    2.6739 C   0  0  0  0  0  0  0  0  0  0  0  0
   -2.8717   -5.4388    2.3052 N   0  0  1  0  0  0  0  0  0  0  0  0
  1  3  1  1  0  0  0
  1  4  2  0  0  0  0
  1  6  1  0  0  0  0
  1 22  1  0  0  0  0
  2 28  1  0  0  0  0
  2 35  1  6  0  0  0
  2 38  2  0  0  0  0
  2 10  1  0  0  0  0
  5  6  1  0  0  0  0
  7  5  1  1  0  0  0
  7  8  1  0  0  0  0
  7  9  1  0  0  0  0
  9 10  1  6  0  0  0
  9 11  1  0  0  0  0
 11 12  1  6  0  0  0
 11 13  1  0  0  0  0
 13  8  1  1  0  0  0
 13 33  1  0  0  0  0
 14 46  1  0  0  0  0
 14 17  1  0  0  0  0
 14 25  1  6  0  0  0
 15 16  1  0  0  0  0
 15 29  1  0  0  0  0
 16 18  1  6  0  0  0
 16 21  1  0  0  0  0
 17 19  1  1  0  0  0
 17 20  1  0  0  0  0
 20 22  1  1  0  0  0
 20 24  1  0  0  0  0
 23 21  1  6  0  0  0
 23 26  1  0  0  0  0
 23 33  1  0  0  0  0
 24 25  1  1  0  0  0
 24 27  1  0  0  0  0
 26 29  1  1  0  0  0
 26 31  1  0  0  0  0
 27 28  1  0  0  0  0
 29 30  2  0  0  0  0
 31 32  1  0  0  0  0
 33 32  1  1  0  0  0
 34 36  1  0  0  0  0
 34 42  1  0  0  0  0
 36 37  1  1  0  0  0
 36 39  1  0  0  0  0
 40 39  1  6  0  0  0
 40 41  1  0  0  0  0
 40 46  1  0  0  0  0
 41 42  1  6  0  0  0
 41 44  1  0  0  0  0
 42 43  2  0  0  0  0
 44 45  1  0  0  0  0
 46 45  1  1  0  0  0
M  CHG  2   3  -1  35  -1
M  END
>  <CHROM.1>
-96.29427344,0.64229075,-1.77921839,-3.56868679,-1.28620647,2.34707558,-0.22685199
2.19354189

>  <Name>
ligand

>  <RI>
-1

>  <Rbt.Current_Directory>
/home/itssahil/PROJECTS/Mol_Feturizer/Test_systems_manuscript/rnas/3mum

>  <Rbt.Executable>
rbdock ($Id: //depot/dev/client3/rdock/2013.1/src/exe/rbdock.cxx#4 $)

>  <Rbt.Library>
libRbt.so (2013.1, Build901 2013/11/27)

>  <Rbt.Parameter_File>
/export/apps/rDock/src/rDock_2013.1_src/data/scripts/dock_solv.prm

>  <Rbt.Receptor>
prm/blind_docking_20.prm

>  <SCORE>
11.0315

>  <SCORE.INTER>
3.97006

>  <SCORE.INTER.CONST>
1

>  <SCORE.INTER.POLAR>
0

>  <SCORE.INTER.ROT>
2

>  <SCORE.INTER.SOLV>
38.9571

>  <SCORE.INTER.VDW>
-15.2723

>  <SCORE.INTER.norm>
0.0863056

>  <SCORE.INTRA>
5.35395

>  <SCORE.INTRA.DIHEDRAL>
-0.00795033

>  <SCORE.INTRA.DIHEDRAL.0>
2.40424

>  <SCORE.INTRA.POLAR>
0

>  <SCORE.INTRA.POLAR.0>
0

>  <SCORE.INTRA.REPUL>
0

>  <SCORE.INTRA.REPUL.0>
0

>  <SCORE.INTRA.SOLV>
4.08101

>  <SCORE.INTRA.SOLV.lig_0>
-134.169

>  <SCORE.INTRA.VDW>
3.31742

>  <SCORE.INTRA.VDW.0>
-2.18386

>  <SCORE.INTRA.norm>
0.11639

>  <SCORE.RESTR>
1.70749

>  <SCORE.RESTR.CAVITY>
1.70749

>  <SCORE.RESTR.norm>
0.0371194

>  <SCORE.SYSTEM>
0

>  <SCORE.SYSTEM.CONST>
0

>  <SCORE.SYSTEM.DIHEDRAL>
0

>  <SCORE.SYSTEM.SOLV>
0

>  <SCORE.SYSTEM.norm>
0

>  <SCORE.heavy>
46

>  <SCORE.norm>
0.239815

>  <RMSD>
19.975

$$$$
ligand
 OpenBabel02271912143D
libRbt.so/2013.1/901 2013/11/27
 46 52  0  0  0  0  0  0  0  0999 V2000
   -2.5180   -0.4358   -0.0730 P   0  0  1  0  0  0  0  0  0  0  0  0
   -4.9331   -5.3224   -2.3012 P   0  0  2  0  0  0  0  0  0  0  0  0
   -0.9779   -0.8181    0.7167 O   0  5  0  0  0  0  0  0  0  0  0  0
   -2.8463    1.3167   -0.0605 O   0  0  0  0  0  0  0  0  0  0  0  0
   -3.6038   -0.9126   -2.4431 C   0  0  0  0  0  0  0  0  0  0  0  0
   -2.4621   -0.9825   -1.5887 O   0  0  0  0  0  0  0  0  0  0  0  0
   -3.4202   -1.9025   -3.5776 C   0  0  1  0  0  0  0  0  0  0  0  0
   -2.1572   -1.6681   -4.2162 O   0  0  0  0  0  0  0  0  0  0  0  0
   -3.3790   -3.3487   -3.1117 C   0  0  1  0  0  0  0  0  0  0  0  0
   -4.6721   -3.9497   -3.1101 O   0  0  0  0  0  0  0  0  0  0  0  0
   -2.4473   -4.0074   -4.1137 C   0  0  1  0  0  0  0  0  0  0  0  0
   -3.1914   -4.4746   -5.2417 O   0  0  0  0  0  0  0  0  0  0  0  0
   -1.5145   -2.9020   -4.5727 C   0  0  2  0  0  0  0  0  0  0  0  0
   -3.6328   -4.2154    2.5631 C   0  0  1  0  0  0  0  0  0  0  0  0
    3.7455   -2.2072   -4.7768 N   0  0  0  0  0  0  0  0  0  0  0  0
    2.8117   -1.9724   -5.7387 C   0  0  1  0  0  0  0  0  0  0  0  0
   -2.8983   -3.0328    1.9980 C   0  0  2  0  0  0  0  0  0  0  0  0
    3.2303   -1.4959   -6.9338 N   0  0  0  0  0  0  0  0  0  0  0  0
   -2.9457   -2.0124    2.9969 O   0  0  0  0  0  0  0  0  0  0  0  0
   -3.6789   -2.6509    0.7560 C   0  0  2  0  0  0  0  0  0  0  0  0
    1.4784   -2.2007   -5.5465 N   0  0  0  0  0  0  0  0  0  0  0  0
   -3.7438   -1.2413    0.5885 O   0  0  0  0  0  0  0  0  0  0  0  0
    1.0079   -2.6760   -4.3657 C   0  0  2  0  0  0  0  0  0  0  0  0
   -5.0691   -3.2119    0.9825 C   0  0  2  0  0  0  0  0  0  0  0  0
   -4.9192   -4.2526    1.9467 O   0  0  0  0  0  0  0  0  0  0  0  0
    1.9777   -2.9503   -3.2911 C   0  0  1  0  0  0  0  0  0  0  0  0
   -5.6919   -3.7810   -0.2874 C   0  0  0  0  0  0  0  0  0  0  0  0
   -4.8861   -4.8629   -0.7587 O   0  0  0  0  0  0  0  0  0  0  0  0
    3.4023   -2.6836   -3.5583 C   0  0  0  0  0  0  0  0  0  0  0  0
    4.3406   -2.9184   -2.6061 O   0  0  0  0  0  0  0  0  0  0  0  0
    1.2806   -3.4099   -2.2462 N   0  0  0  0  0  0  0  0  0  0  0  0
   -0.0340   -3.4334   -2.6135 C   0  0  0  0  0  0  0  0  0  0  0  0
   -0.2024   -2.9968   -3.8794 N   0  0  1  0  0  0  0  0  0  0  0  0
    0.7035   -6.2345    0.4447 N   0  0  0  0  0  0  0  0  0  0  0  0
   -3.6617   -6.5280   -2.6344 O   0  5  0  0  0  0  0  0  0  0  0  0
    0.2797   -4.9420    0.4965 C   0  0  2  0  0  0  0  0  0  0  0  0
    1.0479   -3.9691   -0.0596 N   0  0  0  0  0  0  0  0  0  0  0  0
   -6.5247   -6.0371   -2.6235 O   0  0  0  0  0  0  0  0  0  0  0  0
   -0.8934   -4.5906    1.0904 N   0  0  0  0  0  0  0  0  0  0  0  0
   -1.6981   -5.5135    1.6673 C   0  0  2  0  0  0  0  0  0  0  0  0
   -1.2956   -6.9260    1.6409 C   0  0  2  0  0  0  0  0  0  0  0  0
   -0.0142   -7.2466    0.9765 C   0  0  0  0  0  0  0  0  0  0  0  0
    0.4383   -8.5225    0.9003 O   0  0  0  0  0  0  0  0  0  0  0  0
   -2.2699   -7.6160    2.2661 N   0  0  0  0  0  0  0  0  0  0  0  0
   -3.2175   -6.7157    2.6644 C   0  0  0  0  0  0  0  0  0  0  0  0
   -2.8711   -5.4600    2.3011 N   0  0  1  0  0  0  0  0  0  0  0  0
  1  3  1  1  0  0  0
  1  4  2  0  0  0  0
  1  6  1  0  0  0  0
  1 22  1  0  0  0  0
  2 28  1  0  0  0  0
  2 35  1  6  0  0  0
  2 38  2  0  0  0  0
  2 10  1  0  0  0  0
  5  6  1  0  0  0  0
  7  5  1  1  0  0  0
  7  8  1  0  0  0  0
  7  9  1  0  0  0  0
  9 10  1  6  0  0  0
  9 11  1  0  0  0  0
 11 12  1  6  0  0  0
 11 13  1  0  0  0  0
 13  8  1  1  0  0  0
 13 33  1  0  0  0  0
 14 46  1  0  0  0  0
 14 17  1  0  0  0  0
 14 25  1  6  0  0  0
 15 16  1  0  0  0  0
 15 29  1  0  0  0  0
 16 18  1  6  0  0  0
 16 21  1  0  0  0  0
 17 19  1  1  0  0  0
 17 20  1  0  0  0  0
 20 22  1  1  0  0  0
 20 24  1  0  0  0  0
 23 21  1  6  0  0  0
 23 26  1  0  0  0  0
 23 33  1  0  0  0  0
 24 25  1  1  0  0  0
 24 27  1  0  0  0  0
 26 29  1  1  0  0  0
 26 31  1  0  0  0  0
 27 28  1  0  0  0  0
 29 30  2  0  0  0  0
 31 32  1  0  0  0  0
 33 32  1  1  0  0  0
 34 36  1  0  0  0  0
 34 42  1  0  0  0  0
 36 37  1  1  0  0  0
 36 39  1  0  0  0  0
 40 39  1  6  0  0  0
 40 41  1  0  0  0  0
 40 46  1  0  0  0  0
 41 42  1  6  0  0  0
 41 44  1  0  0  0  0
 42 43  2  0  0  0  0
 44 45  1  0  0  0  0
 46 45  1  1  0  0  0
M  CHG  2   3  -1  35  -1
M  END
>  <CHROM.1>
-96.44953530,0.63473852,-1.76806773,-3.58001593,-1.28186088,2.35046279,-0.22952554
2.19783300

>  <Name>
ligand

>  <RI>
-1

>  <Rbt.Current_Directory>
/home/itssahil/PROJECTS/Mol_Feturizer/Test_systems_manuscript/rnas/3mum

>  <Rbt.Executable>
rbdock ($Id: //depot/dev/client3/rdock/2013.1/src/exe/rbdock.cxx#4 $)

>  <Rbt.Library>
libRbt.so (2013.1, Build901 2013/11/27)

>  <Rbt.Parameter_File>
/export/apps/rDock/src/rDock_2013.1_src/data/scripts/dock_solv.prm

>  <Rbt.Receptor>
prm/blind_docking_20.prm

>  <SCORE>
11.0007

>  <SCORE.INTER>
3.90848

>  <SCORE.INTER.CONST>
1

>  <SCORE.INTER.POLAR>
0

>  <SCORE.INTER.ROT>
2

>  <SCORE.INTER.SOLV>
38.9129

>  <SCORE.INTER.VDW>
-15.2986

>  <SCORE.INTER.norm>
0.0849669

>  <SCORE.INTRA>
5.36529

>  <SCORE.INTRA.DIHEDRAL>
-0.00792972

>  <SCORE.INTRA.DIHEDRAL.0>
2.40424

>  <SCORE.INTRA.POLAR>
0

>  <SCORE.INTRA.POLAR.0>
0

>  <SCORE.INTRA.REPUL>
0

>  <SCORE.INTRA.REPUL.0>
0

>  <SCORE.INTRA.SOLV>
4.08207

>  <SCORE.INTRA.SOLV.lig_0>
-134.169

>  <SCORE.INTRA.VDW>
3.32822

>  <SCORE.INTRA.VDW.0>
-2.18386

>  <SCORE.INTRA.norm>
0.116637

>  <SCORE.RESTR>
1.72698

>  <SCORE.RESTR.CAVITY>
1.72698

>  <SCORE.RESTR.norm>
0.0375431

>  <SCORE.SYSTEM>
0

>  <SCORE.SYSTEM.CONST>
0

>  <SCORE.SYSTEM.DIHEDRAL>
0

>  <SCORE.SYSTEM.SOLV>
0

>  <SCORE.SYSTEM.norm>
0

>  <SCORE.heavy>
46

>  <SCORE.norm>
0.239147

>  <RMSD>
19.977

$$$$
ligand
 OpenBabel02271912143D
libRbt.so/2013.1/901 2013/11/27
 46 52  0  0  0  0  0  0  0  0999 V2000
   -4.6155   -5.3758   -2.3597 P   0  0  1  0  0  0  0  0  0  0  0  0
   -2.5916   -0.3010   -0.1627 P   0  0  2  0  0  0  0  0  0  0  0  0
   -3.3033   -6.5621   -2.4720 O   0  5  0  0  0  0  0  0  0  0  0  0
   -6.1815   -6.0798   -2.8408 O   0  0  0  0  0  0  0  0  0  0  0  0
   -5.5837   -3.7921   -0.4681 C   0  0  0  0  0  0  0  0  0  0  0  0
   -4.6876   -4.8392   -0.8411 O   0  0  0  0  0  0  0  0  0  0  0  0
   -5.1019   -3.1847    0.8356 C   0  0  1  0  0  0  0  0  0  0  0  0
   -4.9271   -4.2227    1.8103 O   0  0  0  0  0  0  0  0  0  0  0  0
   -3.7475   -2.5050    0.7169 C   0  0  1  0  0  0  0  0  0  0  0  0
   -3.8672   -1.1224    0.3897 O   0  0  0  0  0  0  0  0  0  0  0  0
   -3.1356   -2.7131    2.0911 C   0  0  1  0  0  0  0  0  0  0  0  0
   -3.5087   -1.6418    2.9614 O   0  0  0  0  0  0  0  0  0  0  0  0
   -3.7556   -3.9973    2.6099 C   0  0  2  0  0  0  0  0  0  0  0  0
   -1.1433   -2.8681   -4.3924 C   0  0  1  0  0  0  0  0  0  0  0  0
   -0.1996   -6.5069   -0.4314 N   0  0  0  0  0  0  0  0  0  0  0  0
   -0.9012   -5.3703   -0.6927 C   0  0  1  0  0  0  0  0  0  0  0  0
   -1.9564   -4.0141   -3.8607 C   0  0  2  0  0  0  0  0  0  0  0  0
   -0.7025   -4.7550   -1.8812 N   0  0  0  0  0  0  0  0  0  0  0  0
   -2.4474   -4.7240   -4.9992 O   0  0  0  0  0  0  0  0  0  0  0  0
   -3.0735   -3.3613   -3.0710 C   0  0  2  0  0  0  0  0  0  0  0  0
   -1.7939   -4.8326    0.1908 N   0  0  0  0  0  0  0  0  0  0  0  0
   -4.3031   -4.0567   -3.2264 O   0  0  0  0  0  0  0  0  0  0  0  0
   -2.0273   -5.4104    1.3964 C   0  0  2  0  0  0  0  0  0  0  0  0
   -3.1909   -1.9634   -3.6459 C   0  0  2  0  0  0  0  0  0  0  0  0
   -1.9358   -1.6881   -4.2658 O   0  0  0  0  0  0  0  0  0  0  0  0
   -1.2957   -6.6453    1.7282 C   0  0  1  0  0  0  0  0  0  0  0  0
   -3.4753   -0.9081   -2.5829 C   0  0  0  0  0  0  0  0  0  0  0  0
   -2.3912   -0.8781   -1.6525 O   0  0  0  0  0  0  0  0  0  0  0  0
   -0.3458   -7.1767    0.7345 C   0  0  0  0  0  0  0  0  0  0  0  0
    0.3552   -8.3115    0.9853 O   0  0  0  0  0  0  0  0  0  0  0  0
   -1.6970   -7.0190    2.9482 N   0  0  0  0  0  0  0  0  0  0  0  0
   -2.6152   -6.1022    3.3725 C   0  0  0  0  0  0  0  0  0  0  0  0
   -2.8170   -5.1393    2.4486 N   0  0  1  0  0  0  0  0  0  0  0  0
    4.0725   -2.6828   -4.7527 N   0  0  0  0  0  0  0  0  0  0  0  0
   -1.1401   -0.6065    0.8276 O   0  5  0  0  0  0  0  0  0  0  0  0
    3.1361   -2.8224   -5.7308 C   0  0  2  0  0  0  0  0  0  0  0  0
    3.5385   -2.9304   -7.0240 N   0  0  0  0  0  0  0  0  0  0  0  0
   -2.8747    1.4470   -0.2735 O   0  0  0  0  0  0  0  0  0  0  0  0
    1.8038   -2.8569   -5.4545 N   0  0  0  0  0  0  0  0  0  0  0  0
    1.3414   -2.7474   -4.1871 C   0  0  2  0  0  0  0  0  0  0  0  0
    2.3042   -2.5973   -3.0879 C   0  0  2  0  0  0  0  0  0  0  0  0
    3.7376   -2.5726   -3.4496 C   0  0  0  0  0  0  0  0  0  0  0  0
    4.6994   -2.4404   -2.5031 O   0  0  0  0  0  0  0  0  0  0  0  0
    1.5832   -2.5233   -1.9517 N   0  0  0  0  0  0  0  0  0  0  0  0
    0.2644   -2.6144   -2.2975 C   0  0  0  0  0  0  0  0  0  0  0  0
    0.1263   -2.7509   -3.6359 N   0  0  1  0  0  0  0  0  0  0  0  0
  1  3  1  6  0  0  0
  1  4  2  0  0  0  0
  1  6  1  0  0  0  0
  1 22  1  0  0  0  0
  2 28  1  0  0  0  0
  2 35  1  1  0  0  0
  2 38  2  0  0  0  0
  2 10  1  0  0  0  0
  5  6  1  0  0  0  0
  7  5  1  6  0  0  0
  7  8  1  0  0  0  0
  7  9  1  0  0  0  0
  9 10  1  1  0  0  0
  9 11  1  0  0  0  0
 11 12  1  1  0  0  0
 11 13  1  0  0  0  0
 13  8  1  6  0  0  0
 13 33  1  0  0  0  0
 14 46  1  0  0  0  0
 14 17  1  0  0  0  0
 14 25  1  1  0  0  0
 15 16  1  0  0  0  0
 15 29  1  0  0  0  0
 16 18  1  6  0  0  0
 16 21  1  0  0  0  0
 17 19  1  6  0  0  0
 17 20  1  0  0  0  0
 20 22  1  6  0  0  0
 20 24  1  0  0  0  0
 23 21  1  6  0  0  0
 23 26  1  0  0  0  0
 23 33  1  0  0  0  0
 24 25  1  1  0  0  0
 24 27  1  0  0  0  0
 26 29  1  1  0  0  0
 26 31  1  0  0  0  0
 27 28  1  0  0  0  0
 29 30  2  0  0  0  0
 31 32  1  0  0  0  0
 33 32  1  1  0  0  0
 34 36  1  0  0  0  0
 34 42  1  0  0  0  0
 36 37  1  6  0  0  0
 36 39  1  0  0  0  0
 40 39  1  1  0  0  0
 40 41  1  0  0  0  0
 40 46  1  0  0  0  0
 41 42  1  1  0  0  0
 41 44  1  0  0  0  0
 42 43  2  0  0  0  0
 44 45  1  0  0  0  0
 46 45  1  6  0  0  0
M  CHG  2   3  -1  35  -1
M  END
>  <CHROM.1>
75.06542092,125.24727457,-1.71493502,-3.55457351,-1.34514735,2.54385718,-0.51330734
2.47701156

>  <Name>
ligand

>  <RI>
-1

>  <Rbt.Current_Directory>
/home/itssahil/PROJECTS/Mol_Feturizer/Test_systems_manuscript/rnas/3mum

>  <Rbt.Executable>
rbdock ($Id: //depot/dev/client3/rdock/2013.1/src/exe/rbdock.cxx#4 $)

>  <Rbt.Library>
libRbt.so (2013.1, Build901 2013/11/27)

>  <Rbt.Parameter_File>
/export/apps/rDock/src/rDock_2013.1_src/data/scripts/dock_solv.prm

>  <Rbt.Receptor>
prm/blind_docking_20.prm

>  <SCORE>
3.06877

>  <SCORE.INTER>
-6.7513

>  <SCORE.INTER.CONST>
1

>  <SCORE.INTER.POLAR>
0

>  <SCORE.INTER.ROT>
2

>  <SCORE.INTER.SOLV>
42.9369

>  <SCORE.INTER.VDW>
-23.7465

>  <SCORE.INTER.norm>
-0.146767

>  <SCORE.INTRA>
8.7773

>  <SCORE.INTRA.DIHEDRAL>
-0.00855174

>  <SCORE.INTRA.DIHEDRAL.0>
2.40424

>  <SCORE.INTRA.POLAR>
0

>  <SCORE.INTRA.POLAR.0>
0

>  <SCORE.INTRA.REPUL>
0

>  <SCORE.INTRA.REPUL.0>
0

>  <SCORE.INTRA.SOLV>
12.6851

>  <SCORE.INTRA.SOLV.lig_0>
-134.169

>  <SCORE.INTRA.VDW>
2.43904

>  <SCORE.INTRA.VDW.0>
-2.18386

>  <SCORE.INTRA.norm>
0.190811

>  <SCORE.RESTR>
1.04276

>  <SCORE.RESTR.CAVITY>
1.04276

>  <SCORE.RESTR.norm>
0.0226686

>  <SCORE.SYSTEM>
0

>  <SCORE.SYSTEM.CONST>
0

>  <SCORE.SYSTEM.DIHEDRAL>
0

>  <SCORE.SYSTEM.SOLV>
0

>  <SCORE.SYSTEM.norm>
0

>  <SCORE.heavy>
46

>  <SCORE.norm>
0.0667123

>  <RMSD>
20.035

$$$$
ligand
 OpenBabel02271912143D
libRbt.so/2013.1/901 2013/11/27
 46 52  0  0  0  0  0  0  0  0999 V2000
   -4.9596   -5.4037   -2.3693 P   0  0  1  0  0  0  0  0  0  0  0  0
   -2.5359   -0.5607   -0.0568 P   0  0  2  0  0  0  0  0  0  0  0  0
   -3.7198   -6.6419   -2.6371 O   0  5  0  0  0  0  0  0  0  0  0  0
   -6.5884   -6.0055   -2.7744 O   0  0  0  0  0  0  0  0  0  0  0  0
   -5.7147   -3.8852   -0.3328 C   0  0  0  0  0  0  0  0  0  0  0  0
   -4.9004   -4.9505   -0.8232 O   0  0  0  0  0  0  0  0  0  0  0  0
   -5.1148   -3.3753    0.9637 C   0  0  1  0  0  0  0  0  0  0  0  0
   -4.9264   -4.4735    1.8673 O   0  0  0  0  0  0  0  0  0  0  0  0
   -3.7390   -2.7541    0.7851 C   0  0  1  0  0  0  0  0  0  0  0  0
   -3.8106   -1.3512    0.5407 O   0  0  0  0  0  0  0  0  0  0  0  0
   -3.0459   -3.0676    2.0994 C   0  0  1  0  0  0  0  0  0  0  0  0
   -3.3039   -2.0306    3.0494 O   0  0  0  0  0  0  0  0  0  0  0  0
   -3.6931   -4.3484    2.5924 C   0  0  2  0  0  0  0  0  0  0  0  0
   -1.5121   -2.9509   -4.5084 C   0  0  1  0  0  0  0  0  0  0  0  0
    0.7545   -6.2273    0.3829 N   0  0  0  0  0  0  0  0  0  0  0  0
    0.2899   -4.9486    0.4209 C   0  0  1  0  0  0  0  0  0  0  0  0
   -2.3439   -4.0857   -3.9816 C   0  0  2  0  0  0  0  0  0  0  0  0
    1.0266   -3.9824   -0.1745 N   0  0  0  0  0  0  0  0  0  0  0  0
   -2.9469   -4.7066   -5.1181 O   0  0  0  0  0  0  0  0  0  0  0  0
   -3.3699   -3.4268   -3.0811 C   0  0  2  0  0  0  0  0  0  0  0  0
   -0.8843   -4.6060    1.0297 N   0  0  0  0  0  0  0  0  0  0  0  0
   -4.6408   -4.0540   -3.1852 O   0  0  0  0  0  0  0  0  0  0  0  0
   -1.6581   -5.5373    1.6425 C   0  0  2  0  0  0  0  0  0  0  0  0
   -3.4554   -1.9948   -3.5715 C   0  0  2  0  0  0  0  0  0  0  0  0
   -2.2333   -1.7441   -4.2636 O   0  0  0  0  0  0  0  0  0  0  0  0
   -1.2024   -6.9382    1.6278 C   0  0  1  0  0  0  0  0  0  0  0  0
   -3.6127   -0.9888   -2.4368 C   0  0  0  0  0  0  0  0  0  0  0  0
   -2.4673   -1.0618   -1.5855 O   0  0  0  0  0  0  0  0  0  0  0  0
    0.0727   -7.2454    0.9557 C   0  0  0  0  0  0  0  0  0  0  0  0
    0.5415   -8.5183    0.9099 O   0  0  0  0  0  0  0  0  0  0  0  0
   -2.1248   -7.6539    2.2804 N   0  0  0  0  0  0  0  0  0  0  0  0
   -3.1001   -6.7883    2.6842 C   0  0  0  0  0  0  0  0  0  0  0  0
   -2.8267   -5.5223    2.3047 N   0  0  1  0  0  0  0  0  0  0  0  0
    3.6266   -2.2182   -5.1607 N   0  0  0  0  0  0  0  0  0  0  0  0
   -1.0374   -0.9890    0.8103 O   0  5  0  0  0  0  0  0  0  0  0  0
    2.6164   -2.1645   -6.0715 C   0  0  2  0  0  0  0  0  0  0  0  0
    2.9061   -1.8766   -7.3673 N   0  0  0  0  0  0  0  0  0  0  0  0
   -2.7371    1.2021   -0.0548 O   0  0  0  0  0  0  0  0  0  0  0  0
    1.3197   -2.3900   -5.7250 N   0  0  0  0  0  0  0  0  0  0  0  0
    0.9680   -2.6746   -4.4493 C   0  0  2  0  0  0  0  0  0  0  0  0
    2.0146   -2.7493   -3.4214 C   0  0  2  0  0  0  0  0  0  0  0  0
    3.4047   -2.5007   -3.8594 C   0  0  0  0  0  0  0  0  0  0  0  0
    4.4378   -2.5507   -2.9825 O   0  0  0  0  0  0  0  0  0  0  0  0
    1.3963   -3.0544   -2.2634 N   0  0  0  0  0  0  0  0  0  0  0  0
    0.0603   -3.1616   -2.5291 C   0  0  0  0  0  0  0  0  0  0  0  0
   -0.1894   -2.9359   -3.8389 N   0  0  1  0  0  0  0  0  0  0  0  0
  1  3  1  6  0  0  0
  1  4  2  0  0  0  0
  1  6  1  0  0  0  0
  1 22  1  0  0  0  0
  2 28  1  0  0  0  0
  2 35  1  1  0  0  0
  2 38  2  0  0  0  0
  2 10  1  0  0  0  0
  5  6  1  0  0  0  0
  7  5  1  6  0  0  0
  7  8  1  0  0  0  0
  7  9  1  0  0  0  0
  9 10  1  1  0  0  0
  9 11  1  0  0  0  0
 11 12  1  1  0  0  0
 11 13  1  0  0  0  0
 13  8  1  6  0  0  0
 13 33  1  0  0  0  0
 14 46  1  0  0  0  0
 14 17  1  0  0  0  0
 14 25  1  1  0  0  0
 15 16  1  0  0  0  0
 15 29  1  0  0  0  0
 16 18  1  6  0  0  0
 16 21  1  0  0  0  0
 17 19  1  6  0  0  0
 17 20  1  0  0  0  0
 20 22  1  6  0  0  0
 20 24  1  0  0  0  0
 23 21  1  6  0  0  0
 23 26  1  0  0  0  0
 23 33  1  0  0  0  0
 24 25  1  1  0  0  0
 24 27  1  0  0  0  0
 26 29  1  1  0  0  0
 26 31  1  0  0  0  0
 27 28  1  0  0  0  0
 29 30  2  0  0  0  0
 31 32  1  0  0  0  0
 33 32  1  1  0  0  0
 34 36  1  0  0  0  0
 34 42  1  0  0  0  0
 36 37  1  1  0  0  0
 36 39  1  0  0  0  0
 40 39  1  6  0  0  0
 40 41  1  0  0  0  0
 40 46  1  0  0  0  0
 41 42  1  6  0  0  0
 41 44  1  0  0  0  0
 42 43  2  0  0  0  0
 44 45  1  0  0  0  0
 46 45  1  1  0  0  0
M  CHG  2   3  -1  35  -1
M  END
>  <CHROM.1>
113.13747038,140.18900840,-1.77885721,-3.62870508,-1.33113669,2.32316450
-0.21267014,2.15541731

>  <Name>
ligand

>  <RI>
-1

>  <Rbt.Current_Directory>
/home/itssahil/PROJECTS/Mol_Feturizer/Test_systems_manuscript/rnas/3mum

>  <Rbt.Executable>
rbdock ($Id: //depot/dev/client3/rdock/2013.1/src/exe/rbdock.cxx#4 $)

>  <Rbt.Library>
libRbt.so (2013.1, Build901 2013/11/27)

>  <Rbt.Parameter_File>
/export/apps/rDock/src/rDock_2013.1_src/data/scripts/dock_solv.prm

>  <Rbt.Receptor>
prm/blind_docking_40.prm

>  <SCORE>
2.71701

>  <SCORE.INTER>
-2.79578

>  <SCORE.INTER.CONST>
1

>  <SCORE.INTER.POLAR>
0

>  <SCORE.INTER.ROT>
2

>  <SCORE.INTER.SOLV>
40.6851

>  <SCORE.INTER.VDW>
-20.3589

>  <SCORE.INTER.norm>
-0.0607778

>  <SCORE.INTRA>
3.9533

>  <SCORE.INTRA.DIHEDRAL>
-0.0266547

>  <SCORE.INTRA.DIHEDRAL.0>
2.40424

>  <SCORE.INTRA.POLAR>
0

>  <SCORE.INTRA.POLAR.0>
0

>  <SCORE.INTRA.REPUL>
0

>  <SCORE.INTRA.REPUL.0>
0

>  <SCORE.INTRA.SOLV>
4.13595

>  <SCORE.INTRA.SOLV.lig_0>
-134.169

>  <SCORE.INTRA.VDW>
1.89865

>  <SCORE.INTRA.VDW.0>
-2.18386

>  <SCORE.INTRA.norm>
0.0859413

>  <SCORE.RESTR>
1.55949

>  <SCORE.RESTR.CAVITY>
1.55949

>  <SCORE.RESTR.norm>
0.033902

>  <SCORE.SYSTEM>
0

>  <SCORE.SYSTEM.CONST>
0

>  <SCORE.SYSTEM.DIHEDRAL>
0

>  <SCORE.SYSTEM.SOLV>
0

>  <SCORE.SYSTEM.norm>
0

>  <SCORE.heavy>
46

>  <SCORE.norm>
0.0590655

>  <RMSD>
20.035

$$$$
ligand
 OpenBabel02271912143D
libRbt.so/2013.1/901 2013/11/27
 46 52  0  0  0  0  0  0  0  0999 V2000
   -4.6196   -5.3766   -2.3660 P   0  0  1  0  0  0  0  0  0  0  0  0
   -2.5832   -0.3044   -0.1748 P   0  0  2  0  0  0  0  0  0  0  0  0
   -3.3086   -6.5636   -2.4847 O   0  5  0  0  0  0  0  0  0  0  0  0
   -6.1880   -6.0794   -2.8407 O   0  0  0  0  0  0  0  0  0  0  0  0
   -5.5786   -3.7935   -0.4694 C   0  0  0  0  0  0  0  0  0  0  0  0
   -4.6848   -4.8409   -0.8468 O   0  0  0  0  0  0  0  0  0  0  0  0
   -5.0908   -3.1872    0.8326 C   0  0  1  0  0  0  0  0  0  0  0  0
   -4.9124   -4.2258    1.8059 O   0  0  0  0  0  0  0  0  0  0  0  0
   -3.7366   -2.5082    0.7085 C   0  0  1  0  0  0  0  0  0  0  0  0
   -3.8568   -1.1253    0.3826 O   0  0  0  0  0  0  0  0  0  0  0  0
   -3.1188   -2.7175    2.0798 C   0  0  1  0  0  0  0  0  0  0  0  0
   -3.4875   -1.6464    2.9524 O   0  0  0  0  0  0  0  0  0  0  0  0
   -3.7373   -4.0015    2.6006 C   0  0  2  0  0  0  0  0  0  0  0  0
   -1.1548   -2.8697   -4.4123 C   0  0  1  0  0  0  0  0  0  0  0  0
   -0.2061   -6.5189   -0.4631 N   0  0  0  0  0  0  0  0  0  0  0  0
   -0.9098   -5.3829   -0.7216 C   0  0  1  0  0  0  0  0  0  0  0  0
   -1.9662   -4.0156   -3.8778 C   0  0  2  0  0  0  0  0  0  0  0  0
   -0.7207   -4.7706   -1.9132 N   0  0  0  0  0  0  0  0  0  0  0  0
   -2.4625   -4.7245   -5.0145 O   0  0  0  0  0  0  0  0  0  0  0  0
   -3.0795   -3.3627   -3.0829 C   0  0  2  0  0  0  0  0  0  0  0  0
   -1.7953   -4.8430    0.1678 N   0  0  0  0  0  0  0  0  0  0  0  0
   -4.3101   -4.0572   -3.2334 O   0  0  0  0  0  0  0  0  0  0  0  0
   -2.0189   -5.4178    1.3766 C   0  0  2  0  0  0  0  0  0  0  0  0
   -3.1985   -1.9643   -3.6564 C   0  0  2  0  0  0  0  0  0  0  0  0
   -1.9459   -1.6894   -4.2816 O   0  0  0  0  0  0  0  0  0  0  0  0
   -1.2848   -6.6520    1.7056 C   0  0  1  0  0  0  0  0  0  0  0  0
   -3.4778   -0.9095   -2.5916 C   0  0  0  0  0  0  0  0  0  0  0  0
   -2.3895   -0.8806   -1.6658 O   0  0  0  0  0  0  0  0  0  0  0  0
   -0.3429   -7.1859    0.7057 C   0  0  0  0  0  0  0  0  0  0  0  0
    0.3600   -8.3201    0.9536 O   0  0  0  0  0  0  0  0  0  0  0  0
   -1.6762   -7.0226    2.9297 N   0  0  0  0  0  0  0  0  0  0  0  0
   -2.5909   -6.1046    3.3592 C   0  0  0  0  0  0  0  0  0  0  0  0
   -2.8001   -5.1440    2.4345 N   0  0  1  0  0  0  0  0  0  0  0  0
    4.0591   -2.6781   -4.7959 N   0  0  0  0  0  0  0  0  0  0  0  0
   -1.1276   -0.6113    0.8089 O   0  5  0  0  0  0  0  0  0  0  0  0
    3.1184   -2.8155   -5.7701 C   0  0  2  0  0  0  0  0  0  0  0  0
    3.5150   -2.9189   -7.0655 N   0  0  0  0  0  0  0  0  0  0  0  0
   -2.8657    1.4439   -0.2834 O   0  0  0  0  0  0  0  0  0  0  0  0
    1.7875   -2.8522   -5.4879 N   0  0  0  0  0  0  0  0  0  0  0  0
    1.3308   -2.7473   -4.2180 C   0  0  2  0  0  0  0  0  0  0  0  0
    2.2984   -2.5998   -3.1227 C   0  0  2  0  0  0  0  0  0  0  0  0
    3.7301   -2.5725   -3.4909 C   0  0  0  0  0  0  0  0  0  0  0  0
    4.6961   -2.4424   -2.5483 O   0  0  0  0  0  0  0  0  0  0  0  0
    1.5826   -2.5302   -1.9830 N   0  0  0  0  0  0  0  0  0  0  0  0
    0.2623   -2.6215   -2.3231 C   0  0  0  0  0  0  0  0  0  0  0  0
    0.1182   -2.7537   -3.6612 N   0  0  1  0  0  0  0  0  0  0  0  0
  1  3  1  6  0  0  0
  1  4  2  0  0  0  0
  1  6  1  0  0  0  0
  1 22  1  0  0  0  0
  2 28  1  0  0  0  0
  2 35  1  1  0  0  0
  2 38  2  0  0  0  0
  2 10  1  0  0  0  0
  5  6  1  0  0  0  0
  7  5  1  6  0  0  0
  7  8  1  0  0  0  0
  7  9  1  0  0  0  0
  9 10  1  1  0  0  0
  9 11  1  0  0  0  0
 11 12  1  1  0  0  0
 11 13  1  0  0  0  0
 13  8  1  6  0  0  0
 13 33  1  0  0  0  0
 14 46  1  0  0  0  0
 14 17  1  0  0  0  0
 14 25  1  1  0  0  0
 15 16  1  0  0  0  0
 15 29  1  0  0  0  0
 16 18  1  6  0  0  0
 16 21  1  0  0  0  0
 17 19  1  6  0  0  0
 17 20  1  0  0  0  0
 20 22  1  6  0  0  0
 20 24  1  0  0  0  0
 23 21  1  6  0  0  0
 23 26  1  0  0  0  0
 23 33  1  0  0  0  0
 24 25  1  1  0  0  0
 24 27  1  0  0  0  0
 26 29  1  1  0  0  0
 26 31  1  0  0  0  0
 27 28  1  0  0  0  0
 29 30  2  0  0  0  0
 31 32  1  0  0  0  0
 33 32  1  1  0  0  0
 34 36  1  0  0  0  0
 34 42  1  0  0  0  0
 36 37  1  6  0  0  0
 36 39  1  0  0  0  0
 40 39  1  1  0  0  0
 40 41  1  0  0  0  0
 40 46  1  0  0  0  0
 41 42  1  1  0  0  0
 41 44  1  0  0  0  0
 42 43  2  0  0  0  0
 44 45  1  0  0  0  0
 46 45  1  6  0  0  0
M  CHG  2   3  -1  35  -1
M  END
>  <CHROM.1>
74.78605113,125.42461606,-1.71469900,-3.55751310,-1.36368169,2.54183154,-0.51862381
2.47994412

>  <Name>
ligand

>  <RI>
-1

>  <Rbt.Current_Directory>
/home/itssahil/PROJECTS/Mol_Feturizer/Test_systems_manuscript/rnas/3mum

>  <Rbt.Executable>
rbdock ($Id: //depot/dev/client3/rdock/2013.1/src/exe/rbdock.cxx#4 $)

>  <Rbt.Library>
libRbt.so (2013.1, Build901 2013/11/27)

>  <Rbt.Parameter_File>
/export/apps/rDock/src/rDock_2013.1_src/data/scripts/dock_solv.prm

>  <Rbt.Receptor>
prm/blind_docking_20.prm

>  <SCORE>
3.00606

>  <SCORE.INTER>
-6.84617

>  <SCORE.INTER.CONST>
1

>  <SCORE.INTER.POLAR>
0

>  <SCORE.INTER.ROT>
2

>  <SCORE.INTER.SOLV>
43.0921

>  <SCORE.INTER.VDW>
-23.8615

>  <SCORE.INTER.norm>
-0.14883

>  <SCORE.INTRA>
8.81133

>  <SCORE.INTRA.DIHEDRAL>
-0.00883704

>  <SCORE.INTRA.DIHEDRAL.0>
2.40424

>  <SCORE.INTRA.POLAR>
0

>  <SCORE.INTRA.POLAR.0>
0

>  <SCORE.INTRA.REPUL>
0

>  <SCORE.INTRA.REPUL.0>
0

>  <SCORE.INTRA.SOLV>
12.7572

>  <SCORE.INTRA.SOLV.lig_0>
-134.169

>  <SCORE.INTRA.VDW>
2.43716

>  <SCORE.INTRA.VDW.0>
-2.18386

>  <SCORE.INTRA.norm>
0.191551

>  <SCORE.RESTR>
1.0409

>  <SCORE.RESTR.CAVITY>
1.0409

>  <SCORE.RESTR.norm>
0.0226282

>  <SCORE.SYSTEM>
0

>  <SCORE.SYSTEM.CONST>
0

>  <SCORE.SYSTEM.DIHEDRAL>
0

>  <SCORE.SYSTEM.SOLV>
0

>  <SCORE.SYSTEM.norm>
0

>  <SCORE.heavy>
46

>  <SCORE.norm>
0.0653491

>  <RMSD>
20.053

$$$$
ligand
 OpenBabel02271912143D
libRbt.so/2013.1/901 2013/11/27
 46 52  0  0  0  0  0  0  0  0999 V2000
   -5.5865   -4.2713    1.8881 P   0  0  1  0  0  0  0  0  0  0  0  0
   -0.4115   -4.1050   -0.9168 P   0  0  2  0  0  0  0  0  0  0  0  0
   -6.9190   -4.2083    0.7209 O   0  5  0  0  0  0  0  0  0  0  0  0
   -6.1827   -4.4701    3.5567 O   0  0  0  0  0  0  0  0  0  0  0  0
   -3.3980   -5.7349    2.1908 C   0  0  0  0  0  0  0  0  0  0  0  0
   -4.6197   -5.4988    1.4908 O   0  0  0  0  0  0  0  0  0  0  0  0
   -2.5028   -6.5993    1.3234 C   0  0  1  0  0  0  0  0  0  0  0  0
   -3.2193   -7.7749    0.9202 O   0  0  0  0  0  0  0  0  0  0  0  0
   -2.0785   -5.9180    0.0326 C   0  0  1  0  0  0  0  0  0  0  0  0
   -0.8519   -5.2059    0.1790 O   0  0  0  0  0  0  0  0  0  0  0  0
   -1.9512   -7.0752   -0.9425 C   0  0  1  0  0  0  0  0  0  0  0  0
   -0.6300   -7.6192   -0.8880 O   0  0  0  0  0  0  0  0  0  0  0  0
   -2.9278   -8.1233   -0.4423 C   0  0  2  0  0  0  0  0  0  0  0  0
   -4.2871   -0.7055   -0.9533 C   0  0  1  0  0  0  0  0  0  0  0  0
   -5.2298   -8.3763   -5.2203 N   0  0  0  0  0  0  0  0  0  0  0  0
   -3.9088   -8.4469   -4.9002 C   0  0  1  0  0  0  0  0  0  0  0  0
   -5.1033   -1.7713   -0.2786 C   0  0  2  0  0  0  0  0  0  0  0  0
   -3.0148   -8.6018   -5.9039 N   0  0  0  0  0  0  0  0  0  0  0  0
   -6.0451   -1.0928    0.5542 O   0  0  0  0  0  0  0  0  0  0  0  0
   -4.1011   -2.5715    0.5295 C   0  0  2  0  0  0  0  0  0  0  0  0
   -3.4541   -8.3649   -3.6144 N   0  0  0  0  0  0  0  0  0  0  0  0
   -4.6382   -2.9759    1.7815 O   0  0  0  0  0  0  0  0  0  0  0  0
   -4.3100   -8.2114   -2.5726 C   0  0  2  0  0  0  0  0  0  0  0  0
   -2.9336   -1.6286    0.7450 C   0  0  2  0  0  0  0  0  0  0  0  0
   -3.0267   -0.6477   -0.2867 O   0  0  0  0  0  0  0  0  0  0  0  0
   -5.7515   -8.1261   -2.8645 C   0  0  1  0  0  0  0  0  0  0  0  0
   -1.5826   -2.3299    0.6595 C   0  0  0  0  0  0  0  0  0  0  0  0
   -1.4254   -2.8831   -0.6486 O   0  0  0  0  0  0  0  0  0  0  0  0
   -6.1809   -8.2214   -4.2712 C   0  0  0  0  0  0  0  0  0  0  0  0
   -7.4958   -8.1482   -4.5997 O   0  0  0  0  0  0  0  0  0  0  0  0
   -6.3771   -7.9725   -1.6923 N   0  0  0  0  0  0  0  0  0  0  0  0
   -5.4195   -7.9577   -0.7195 C   0  0  0  0  0  0  0  0  0  0  0  0
   -4.1824   -8.0991   -1.2402 N   0  0  1  0  0  0  0  0  0  0  0  0
   -3.7375   -4.5387   -4.4709 N   0  0  0  0  0  0  0  0  0  0  0  0
   -0.6035   -4.7247   -2.5781 O   0  5  0  0  0  0  0  0  0  0  0  0
   -3.8553   -4.6094   -3.1166 C   0  0  2  0  0  0  0  0  0  0  0  0
   -3.8428   -5.8262   -2.5122 N   0  0  0  0  0  0  0  0  0  0  0  0
    1.2468   -3.5147   -0.6939 O   0  0  0  0  0  0  0  0  0  0  0  0
   -3.9865   -3.4962   -2.3447 N   0  0  0  0  0  0  0  0  0  0  0  0
   -4.0124   -2.2572   -2.8892 C   0  0  2  0  0  0  0  0  0  0  0  0
   -3.8866   -2.1163   -4.3459 C   0  0  2  0  0  0  0  0  0  0  0  0
   -3.7410   -3.3609   -5.1306 C   0  0  0  0  0  0  0  0  0  0  0  0
   -3.6158   -3.3305   -6.4804 O   0  0  0  0  0  0  0  0  0  0  0  0
   -3.9316   -0.7956   -4.6105 N   0  0  0  0  0  0  0  0  0  0  0  0
   -4.0789   -0.1445   -3.4183 C   0  0  0  0  0  0  0  0  0  0  0  0
   -4.1240   -1.0240   -2.3920 N   0  0  1  0  0  0  0  0  0  0  0  0
  1  3  1  6  0  0  0
  1  4  2  0  0  0  0
  1  6  1  0  0  0  0
  1 22  1  0  0  0  0
  2 28  1  0  0  0  0
  2 35  1  6  0  0  0
  2 38  2  0  0  0  0
  2 10  1  0  0  0  0
  5  6  1  0  0  0  0
  7  5  1  6  0  0  0
  7  8  1  0  0  0  0
  7  9  1  0  0  0  0
  9 10  1  1  0  0  0
  9 11  1  0  0  0  0
 11 12  1  1  0  0  0
 11 13  1  0  0  0  0
 13  8  1  1  0  0  0
 13 33  1  0  0  0  0
 14 46  1  0  0  0  0
 14 17  1  0  0  0  0
 14 25  1  1  0  0  0
 15 16  1  0  0  0  0
 15 29  1  0  0  0  0
 16 18  1  6  0  0  0
 16 21  1  0  0  0  0
 17 19  1  1  0  0  0
 17 20  1  0  0  0  0
 20 22  1  1  0  0  0
 20 24  1  0  0  0  0
 23 21  1  6  0  0  0
 23 26  1  0  0  0  0
 23 33  1  0  0  0  0
 24 25  1  6  0  0  0
 24 27  1  0  0  0  0
 26 29  1  1  0  0  0
 26 31  1  0  0  0  0
 27 28  1  0  0  0  0
 29 30  2  0  0  0  0
 31 32  1  0  0  0  0
 33 32  1  1  0  0  0
 34 36  1  0  0  0  0
 34 42  1  0  0  0  0
 36 37  1  6  0  0  0
 36 39  1  0  0  0  0
 40 39  1  1  0  0  0
 40 41  1  0  0  0  0
 40 46  1  0  0  0  0
 41 42  1  1  0  0  0
 41 44  1  0  0  0  0
 42 43  2  0  0  0  0
 44 45  1  0  0  0  0
 46 45  1  6  0  0  0
M  CHG  2   3  -1  35  -1
M  END
>  <CHROM.1>
171.52832328,-34.26172403,-3.67064700,-4.79939205,-1.36907543,0.68040034
1.40910605,1.48840213

>  <Name>
ligand

>  <RI>
-1

>  <Rbt.Current_Directory>
/home/itssahil/PROJECTS/Mol_Feturizer/Test_systems_manuscript/rnas/3mum

>  <Rbt.Executable>
rbdock ($Id: //depot/dev/client3/rdock/2013.1/src/exe/rbdock.cxx#4 $)

>  <Rbt.Library>
libRbt.so (2013.1, Build901 2013/11/27)

>  <Rbt.Parameter_File>
/export/apps/rDock/src/rDock_2013.1_src/data/scripts/dock_solv.prm

>  <Rbt.Receptor>
prm/blind_docking_20.prm

>  <SCORE>
50.1623

>  <SCORE.INTER>
42.3735

>  <SCORE.INTER.CONST>
1

>  <SCORE.INTER.POLAR>
0

>  <SCORE.INTER.ROT>
2

>  <SCORE.INTER.SOLV>
41.231

>  <SCORE.INTER.VDW>
9.572

>  <SCORE.INTER.norm>
0.921163

>  <SCORE.INTRA>
6.19577

>  <SCORE.INTRA.DIHEDRAL>
0.0209392

>  <SCORE.INTRA.DIHEDRAL.0>
2.40424

>  <SCORE.INTRA.POLAR>
0

>  <SCORE.INTRA.POLAR.0>
0

>  <SCORE.INTRA.REPUL>
0

>  <SCORE.INTRA.REPUL.0>
0

>  <SCORE.INTRA.SOLV>
13.2643

>  <SCORE.INTRA.SOLV.lig_0>
-134.169

>  <SCORE.INTRA.VDW>
-0.44687

>  <SCORE.INTRA.VDW.0>
-2.18386

>  <SCORE.INTRA.norm>
0.134691

>  <SCORE.RESTR>
1.59307

>  <SCORE.RESTR.CAVITY>
1.59307

>  <SCORE.RESTR.norm>
0.0346319

>  <SCORE.SYSTEM>
0

>  <SCORE.SYSTEM.CONST>
0

>  <SCORE.SYSTEM.DIHEDRAL>
0

>  <SCORE.SYSTEM.SOLV>
0

>  <SCORE.SYSTEM.norm>
0

>  <SCORE.heavy>
46

>  <SCORE.norm>
1.09049

>  <RMSD>
20.058

$$$$
ligand
 OpenBabel02271912143D
libRbt.so/2013.1/901 2013/11/27
 46 52  0  0  0  0  0  0  0  0999 V2000
   -5.3373   -4.3317    1.9401 P   0  0  1  0  0  0  0  0  0  0  0  0
   -0.2351   -3.9362   -0.9732 P   0  0  2  0  0  0  0  0  0  0  0  0
   -6.6961   -4.3178    0.8019 O   0  5  0  0  0  0  0  0  0  0  0  0
   -5.8888   -4.5638    3.6198 O   0  0  0  0  0  0  0  0  0  0  0  0
   -3.0842   -5.7049    2.1872 C   0  0  0  0  0  0  0  0  0  0  0  0
   -4.3294   -5.5159    1.5148 O   0  0  0  0  0  0  0  0  0  0  0  0
   -2.1730   -6.5268    1.2957 C   0  0  1  0  0  0  0  0  0  0  0  0
   -2.8488   -7.7289    0.9006 O   0  0  0  0  0  0  0  0  0  0  0  0
   -1.8050   -5.8217    0.0003 C   0  0  1  0  0  0  0  0  0  0  0  0
   -0.6060   -5.0602    0.1249 O   0  0  0  0  0  0  0  0  0  0  0  0
   -1.6510   -6.9675   -0.9843 C   0  0  1  0  0  0  0  0  0  0  0  0
   -0.3076   -7.4566   -0.9613 O   0  0  0  0  0  0  0  0  0  0  0  0
   -2.5725   -8.0578   -0.4699 C   0  0  2  0  0  0  0  0  0  0  0  0
   -4.2478   -0.7002   -0.9064 C   0  0  1  0  0  0  0  0  0  0  0  0
   -4.9676   -8.4633   -5.1913 N   0  0  0  0  0  0  0  0  0  0  0  0
   -3.6388   -8.4937   -4.8986 C   0  0  1  0  0  0  0  0  0  0  0  0
   -5.0046   -1.8024   -0.2210 C   0  0  2  0  0  0  0  0  0  0  0  0
   -2.7625   -8.6453   -5.9183 N   0  0  0  0  0  0  0  0  0  0  0  0
   -5.9555   -1.1679    0.6358 O   0  0  0  0  0  0  0  0  0  0  0  0
   -3.9530   -2.5646    0.5607 C   0  0  2  0  0  0  0  0  0  0  0  0
   -3.1592   -8.3749   -3.6248 N   0  0  0  0  0  0  0  0  0  0  0  0
   -4.4459   -2.9975    1.8213 O   0  0  0  0  0  0  0  0  0  0  0  0
   -3.9967   -8.2231   -2.5678 C   0  0  2  0  0  0  0  0  0  0  0  0
   -2.8212   -1.5753    0.7571 C   0  0  2  0  0  0  0  0  0  0  0  0
   -2.9769   -0.5936   -0.2664 O   0  0  0  0  0  0  0  0  0  0  0  0
   -5.4458   -8.1805   -2.8300 C   0  0  1  0  0  0  0  0  0  0  0  0
   -1.4444   -2.2195    0.6385 C   0  0  0  0  0  0  0  0  0  0  0  0
   -1.2926   -2.7589   -0.6760 O   0  0  0  0  0  0  0  0  0  0  0  0
   -5.9022   -8.3144   -4.2249 C   0  0  0  0  0  0  0  0  0  0  0  0
   -7.2251   -8.2814   -4.5262 O   0  0  0  0  0  0  0  0  0  0  0  0
   -6.0502   -8.0201   -1.6476 N   0  0  0  0  0  0  0  0  0  0  0  0
   -5.0730   -7.9617   -0.6962 C   0  0  0  0  0  0  0  0  0  0  0  0
   -3.8439   -8.0815   -1.2408 N   0  0  1  0  0  0  0  0  0  0  0  0
   -3.9517   -4.5004   -4.4896 N   0  0  0  0  0  0  0  0  0  0  0  0
   -0.4371   -4.5547   -2.6338 O   0  5  0  0  0  0  0  0  0  0  0  0
   -4.0780   -4.5863   -3.1370 C   0  0  2  0  0  0  0  0  0  0  0  0
   -4.1506   -5.8114   -2.5540 N   0  0  0  0  0  0  0  0  0  0  0  0
    1.4017   -3.2789   -0.7820 O   0  0  0  0  0  0  0  0  0  0  0  0
   -4.1349   -3.4803   -2.3459 N   0  0  0  0  0  0  0  0  0  0  0  0
   -4.0743   -2.2332   -2.8686 C   0  0  2  0  0  0  0  0  0  0  0  0
   -3.9349   -2.0761   -4.3224 C   0  0  2  0  0  0  0  0  0  0  0  0
   -3.8725   -3.3139   -5.1286 C   0  0  0  0  0  0  0  0  0  0  0  0
   -3.7416   -3.2687   -6.4774 O   0  0  0  0  0  0  0  0  0  0  0  0
   -3.8886   -0.7510   -4.5640 N   0  0  0  0  0  0  0  0  0  0  0  0
   -3.9945   -0.1120   -3.3608 C   0  0  0  0  0  0  0  0  0  0  0  0
   -4.1027   -1.0041   -2.3502 N   0  0  1  0  0  0  0  0  0  0  0  0
  1  3  1  6  0  0  0
  1  4  2  0  0  0  0
  1  6  1  0  0  0  0
  1 22  1  0  0  0  0
  2 28  1  0  0  0  0
  2 35  1  6  0  0  0
  2 38  2  0  0  0  0
  2 10  1  0  0  0  0
  5  6  1  0  0  0  0
  7  5  1  1  0  0  0
  7  8  1  0  0  0  0
  7  9  1  0  0  0  0
  9 10  1  1  0  0  0
  9 11  1  0  0  0  0
 11 12  1  1  0  0  0
 11 13  1  0  0  0  0
 13  8  1  1  0  0  0
 13 33  1  0  0  0  0
 14 46  1  0  0  0  0
 14 17  1  0  0  0  0
 14 25  1  1  0  0  0
 15 16  1  0  0  0  0
 15 29  1  0  0  0  0
 16 18  1  6  0  0  0
 16 21  1  0  0  0  0
 17 19  1  1  0  0  0
 17 20  1  0  0  0  0
 20 22  1  1  0  0  0
 20 24  1  0  0  0  0
 23 21  1  6  0  0  0
 23 26  1  0  0  0  0
 23 33  1  0  0  0  0
 24 25  1  6  0  0  0
 24 27  1  0  0  0  0
 26 29  1  1  0  0  0
 26 31  1  0  0  0  0
 27 28  1  0  0  0  0
 29 30  2  0  0  0  0
 31 32  1  0  0  0  0
 33 32  1  1  0  0  0
 34 36  1  0  0  0  0
 34 42  1  0  0  0  0
 36 37  1  6  0  0  0
 36 39  1  0  0  0  0
 40 39  1  1  0  0  0
 40 41  1  0  0  0  0
 40 46  1  0  0  0  0
 41 42  1  1  0  0  0
 41 44  1  0  0  0  0
 42 43  2  0  0  0  0
 44 45  1  0  0  0  0
 46 45  1  6  0  0  0
M  CHG  2   3  -1  35  -1
M  END
>  <CHROM.1>
173.21368043,-27.78152918,-3.50891395,-4.77287021,-1.36284503,0.14444028
1.45504441,2.02706583

>  <Name>
ligand

>  <RI>
-1

>  <Rbt.Current_Directory>
/home/itssahil/PROJECTS/Mol_Feturizer/Test_systems_manuscript/rnas/3mum

>  <Rbt.Executable>
rbdock ($Id: //depot/dev/client3/rdock/2013.1/src/exe/rbdock.cxx#4 $)

>  <Rbt.Library>
libRbt.so (2013.1, Build901 2013/11/27)

>  <Rbt.Parameter_File>
/export/apps/rDock/src/rDock_2013.1_src/data/scripts/dock_solv.prm

>  <Rbt.Receptor>
prm/blind_docking_20.prm

>  <SCORE>
51.8037

>  <SCORE.INTER>
44.2521

>  <SCORE.INTER.CONST>
1

>  <SCORE.INTER.POLAR>
0

>  <SCORE.INTER.ROT>
2

>  <SCORE.INTER.SOLV>
41.9785

>  <SCORE.INTER.VDW>
10.5752

>  <SCORE.INTER.norm>
0.962001

>  <SCORE.INTRA>
5.6566

>  <SCORE.INTRA.DIHEDRAL>
0.0219441

>  <SCORE.INTRA.DIHEDRAL.0>
2.40424

>  <SCORE.INTRA.POLAR>
0

>  <SCORE.INTRA.POLAR.0>
0

>  <SCORE.INTRA.REPUL>
0

>  <SCORE.INTRA.REPUL.0>
0

>  <SCORE.INTRA.SOLV>
11.1169

>  <SCORE.INTRA.SOLV.lig_0>
-134.169

>  <SCORE.INTRA.VDW>
0.0871682

>  <SCORE.INTRA.VDW.0>
-2.18386

>  <SCORE.INTRA.norm>
0.12297

>  <SCORE.RESTR>
1.89502

>  <SCORE.RESTR.CAVITY>
1.89502

>  <SCORE.RESTR.norm>
0.0411962

>  <SCORE.SYSTEM>
0

>  <SCORE.SYSTEM.CONST>
0

>  <SCORE.SYSTEM.DIHEDRAL>
0

>  <SCORE.SYSTEM.SOLV>
0

>  <SCORE.SYSTEM.norm>
0

>  <SCORE.heavy>
46

>  <SCORE.norm>
1.12617

>  <RMSD>
20.091

$$$$
ligand
 OpenBabel02271912143D
libRbt.so/2013.1/901 2013/11/27
 46 52  0  0  0  0  0  0  0  0999 V2000
    1.4711   -4.3167   -0.8391 P   0  0  1  0  0  0  0  0  0  0  0  0
   -3.5515   -3.7104   -3.8528 P   0  0  2  0  0  0  0  0  0  0  0  0
    1.5942   -3.0617    0.4065 O   0  5  0  0  0  0  0  0  0  0  0  0
    2.8384   -5.4583   -0.7598 O   0  0  0  0  0  0  0  0  0  0  0  0
   -0.3502   -6.1024   -1.5587 C   0  0  0  0  0  0  0  0  0  0  0  0
    0.0769   -5.1005   -0.6356 O   0  0  0  0  0  0  0  0  0  0  0  0
   -1.8461   -6.2985   -1.4018 C   0  0  1  0  0  0  0  0  0  0  0  0
   -2.1519   -6.5586   -0.0246 O   0  0  0  0  0  0  0  0  0  0  0  0
   -2.6552   -5.0664   -1.7731 C   0  0  1  0  0  0  0  0  0  0  0  0
   -3.0367   -5.0682   -3.1469 O   0  0  0  0  0  0  0  0  0  0  0  0
   -3.8573   -5.1520   -0.8491 C   0  0  1  0  0  0  0  0  0  0  0  0
   -4.8943   -5.9211   -1.4635 O   0  0  0  0  0  0  0  0  0  0  0  0
   -3.3622   -5.8975    0.3763 C   0  0  2  0  0  0  0  0  0  0  0  0
    0.3398   -0.3856   -3.2355 C   0  0  1  0  0  0  0  0  0  0  0  0
   -4.6808   -1.4635    2.9827 N   0  0  0  0  0  0  0  0  0  0  0  0
   -5.2817   -2.0343    1.9031 C   0  0  1  0  0  0  0  0  0  0  0  0
    0.8375   -1.3129   -2.1633 C   0  0  2  0  0  0  0  0  0  0  0  0
   -6.3714   -1.4253    1.3812 N   0  0  0  0  0  0  0  0  0  0  0  0
    2.2615   -1.1979   -2.1585 O   0  0  0  0  0  0  0  0  0  0  0  0
    0.3786   -2.6899   -2.6003 C   0  0  2  0  0  0  0  0  0  0  0  0
   -4.8285   -3.1881    1.3286 N   0  0  0  0  0  0  0  0  0  0  0  0
    1.3527   -3.6842   -2.3138 O   0  0  0  0  0  0  0  0  0  0  0  0
   -3.7413   -3.8381    1.8155 C   0  0  2  0  0  0  0  0  0  0  0  0
    0.1777   -2.5757   -4.0987 C   0  0  2  0  0  0  0  0  0  0  0  0
   -0.0079   -1.1864   -4.3643 O   0  0  0  0  0  0  0  0  0  0  0  0
   -3.0513   -3.2605    2.9821 C   0  0  1  0  0  0  0  0  0  0  0  0
   -1.0354   -3.3548   -4.5944 C   0  0  0  0  0  0  0  0  0  0  0  0
   -2.2130   -2.8249   -3.9823 O   0  0  0  0  0  0  0  0  0  0  0  0
   -3.5877   -2.0145    3.5581 C   0  0  0  0  0  0  0  0  0  0  0  0
   -2.9926   -1.4365    4.6322 O   0  0  0  0  0  0  0  0  0  0  0  0
   -2.0232   -4.0680    3.2647 N   0  0  0  0  0  0  0  0  0  0  0  0
   -2.0435   -5.0855    2.3548 C   0  0  0  0  0  0  0  0  0  0  0  0
   -3.0677   -4.9524    1.4859 N   0  0  1  0  0  0  0  0  0  0  0  0
   -2.8408    3.6636   -4.1614 N   0  0  0  0  0  0  0  0  0  0  0  0
   -4.7626   -2.8712   -2.8479 O   0  5  0  0  0  0  0  0  0  0  0  0
   -1.7753    3.2111   -4.8777 C   0  0  2  0  0  0  0  0  0  0  0  0
   -1.4253    3.8527   -6.0231 N   0  0  0  0  0  0  0  0  0  0  0  0
   -4.2102   -3.9694   -5.4798 O   0  0  0  0  0  0  0  0  0  0  0  0
   -1.0463    2.1319   -4.4827 N   0  0  0  0  0  0  0  0  0  0  0  0
   -1.3500    1.4478   -3.3549 C   0  0  2  0  0  0  0  0  0  0  0  0
   -2.4878    1.8901   -2.5379 C   0  0  2  0  0  0  0  0  0  0  0  0
   -3.2377    3.0717   -3.0149 C   0  0  0  0  0  0  0  0  0  0  0  0
   -4.3010    3.5548   -2.3260 O   0  0  0  0  0  0  0  0  0  0  0  0
   -2.5557    1.0510   -1.4854 N   0  0  0  0  0  0  0  0  0  0  0  0
   -1.5446    0.1420   -1.6213 C   0  0  0  0  0  0  0  0  0  0  0  0
   -0.8252    0.3861   -2.7402 N   0  0  1  0  0  0  0  0  0  0  0  0
  1  3  1  1  0  0  0
  1  4  2  0  0  0  0
  1  6  1  0  0  0  0
  1 22  1  0  0  0  0
  2 28  1  0  0  0  0
  2 35  1  1  0  0  0
  2 38  2  0  0  0  0
  2 10  1  0  0  0  0
  5  6  1  0  0  0  0
  7  5  1  1  0  0  0
  7  8  1  0  0  0  0
  7  9  1  0  0  0  0
  9 10  1  6  0  0  0
  9 11  1  0  0  0  0
 11 12  1  6  0  0  0
 11 13  1  0  0  0  0
 13  8  1  6  0  0  0
 13 33  1  0  0  0  0
 14 46  1  0  0  0  0
 14 17  1  0  0  0  0
 14 25  1  6  0  0  0
 15 16  1  0  0  0  0
 15 29  1  0  0  0  0
 16 18  1  6  0  0  0
 16 21  1  0  0  0  0
 17 19  1  6  0  0  0
 17 20  1  0  0  0  0
 20 22  1  6  0  0  0
 20 24  1  0  0  0  0
 23 21  1  6  0  0  0
 23 26  1  0  0  0  0
 23 33  1  0  0  0  0
 24 25  1  1  0  0  0
 24 27  1  0  0  0  0
 26 29  1  1  0  0  0
 26 31  1  0  0  0  0
 27 28  1  0  0  0  0
 29 30  2  0  0  0  0
 31 32  1  0  0  0  0
 33 32  1  1  0  0  0
 34 36  1  0  0  0  0
 34 42  1  0  0  0  0
 36 37  1  6  0  0  0
 36 39  1  0  0  0  0
 40 39  1  1  0  0  0
 40 41  1  0  0  0  0
 40 46  1  0  0  0  0
 41 42  1  1  0  0  0
 41 44  1  0  0  0  0
 42 43  2  0  0  0  0
 44 45  1  0  0  0  0
 46 45  1  6  0  0  0
M  CHG  2   3  -1  35  -1
M  END
>  <CHROM.1>
153.71484710,167.80903802,-1.90773026,-2.37969243,-1.44464880,-1.68385980
0.77538551,-0.56401668

>  <Name>
ligand

>  <RI>
-1

>  <Rbt.Current_Directory>
/home/itssahil/PROJECTS/Mol_Feturizer/Test_systems_manuscript/rnas/3mum

>  <Rbt.Executable>
rbdock ($Id: //depot/dev/client3/rdock/2013.1/src/exe/rbdock.cxx#4 $)

>  <Rbt.Library>
libRbt.so (2013.1, Build901 2013/11/27)

>  <Rbt.Parameter_File>
/export/apps/rDock/src/rDock_2013.1_src/data/scripts/dock_solv.prm

>  <Rbt.Receptor>
prm/blind_docking_20.prm

>  <SCORE>
66.4727

>  <SCORE.INTER>
65.5851

>  <SCORE.INTER.CONST>
1

>  <SCORE.INTER.POLAR>
0

>  <SCORE.INTER.ROT>
2

>  <SCORE.INTER.SOLV>
50.3914

>  <SCORE.INTER.VDW>
21.9929

>  <SCORE.INTER.norm>
1.42576

>  <SCORE.INTRA>
0.639766

>  <SCORE.INTRA.DIHEDRAL>
-0.0247229

>  <SCORE.INTRA.DIHEDRAL.0>
2.40424

>  <SCORE.INTRA.POLAR>
0

>  <SCORE.INTRA.POLAR.0>
0

>  <SCORE.INTRA.REPUL>
0

>  <SCORE.INTRA.REPUL.0>
0

>  <SCORE.INTRA.SOLV>
0.0258436

>  <SCORE.INTRA.SOLV.lig_0>
-134.169

>  <SCORE.INTRA.VDW>
0.639206

>  <SCORE.INTRA.VDW.0>
-2.18386

>  <SCORE.INTRA.norm>
0.013908

>  <SCORE.RESTR>
0.24781

>  <SCORE.RESTR.CAVITY>
0.24781

>  <SCORE.RESTR.norm>
0.00538718

>  <SCORE.SYSTEM>
0

>  <SCORE.SYSTEM.CONST>
0

>  <SCORE.SYSTEM.DIHEDRAL>
0

>  <SCORE.SYSTEM.SOLV>
0

>  <SCORE.SYSTEM.norm>
0

>  <SCORE.heavy>
46

>  <SCORE.norm>
1.44506

>  <RMSD>
20.117

$$$$
ligand
 OpenBabel02271912143D
libRbt.so/2013.1/901 2013/11/27
 46 52  0  0  0  0  0  0  0  0999 V2000
   -6.3018   -4.1225    0.2546 P   0  0  1  0  0  0  0  0  0  0  0  0
   -0.4298   -4.2497   -0.1703 P   0  0  2  0  0  0  0  0  0  0  0  0
   -7.0155   -3.5777   -1.2736 O   0  5  0  0  0  0  0  0  0  0  0  0
   -7.5538   -4.5726    1.4417 O   0  0  0  0  0  0  0  0  0  0  0  0
   -4.5470   -5.9732    0.9749 C   0  0  0  0  0  0  0  0  0  0  0  0
   -5.3442   -5.3828   -0.0518 O   0  0  0  0  0  0  0  0  0  0  0  0
   -3.4326   -6.7702    0.3240 C   0  0  1  0  0  0  0  0  0  0  0  0
   -3.9934   -7.6879   -0.6254 O   0  0  0  0  0  0  0  0  0  0  0  0
   -2.4613   -5.9089   -0.4666 C   0  0  1  0  0  0  0  0  0  0  0  0
   -1.3629   -5.4690    0.3291 O   0  0  0  0  0  0  0  0  0  0  0  0
   -2.0173   -6.8308   -1.5886 C   0  0  1  0  0  0  0  0  0  0  0  0
   -0.8810   -7.5941   -1.1754 O   0  0  0  0  0  0  0  0  0  0  0  0
   -3.1830   -7.7771   -1.8078 C   0  0  2  0  0  0  0  0  0  0  0  0
   -3.6910   -0.3050   -0.7881 C   0  0  1  0  0  0  0  0  0  0  0  0
   -7.8916   -6.2920   -3.7613 N   0  0  0  0  0  0  0  0  0  0  0  0
   -7.5574   -6.6151   -2.4821 C   0  0  1  0  0  0  0  0  0  0  0  0
   -4.7856   -1.3340   -0.7961 C   0  0  2  0  0  0  0  0  0  0  0  0
   -8.5246   -6.5687   -1.5371 N   0  0  0  0  0  0  0  0  0  0  0  0
   -5.9406   -0.6999   -0.2437 O   0  0  0  0  0  0  0  0  0  0  0  0
   -4.2712   -2.4518    0.0892 C   0  0  2  0  0  0  0  0  0  0  0  0
   -6.2932   -6.9847   -2.1189 N   0  0  0  0  0  0  0  0  0  0  0  0
   -5.3094   -3.0191    0.8764 O   0  0  0  0  0  0  0  0  0  0  0  0
   -5.2879   -7.0448   -3.0285 C   0  0  2  0  0  0  0  0  0  0  0  0
   -3.2395   -1.7949    0.9851 C   0  0  2  0  0  0  0  0  0  0  0  0
   -2.8247   -0.6124    0.3033 O   0  0  0  0  0  0  0  0  0  0  0  0
   -5.5969   -6.7078   -4.4290 C   0  0  1  0  0  0  0  0  0  0  0  0
   -2.0284   -2.6840    1.2441 C   0  0  0  0  0  0  0  0  0  0  0  0
   -1.3764   -2.9586    0.0025 O   0  0  0  0  0  0  0  0  0  0  0  0
   -6.9788   -6.3160   -4.7591 C   0  0  0  0  0  0  0  0  0  0  0  0
   -7.3216   -5.9958   -6.0327 O   0  0  0  0  0  0  0  0  0  0  0  0
   -4.4611   -6.8461   -5.1218 N   0  0  0  0  0  0  0  0  0  0  0  0
   -3.4946   -7.2421   -4.2429 C   0  0  0  0  0  0  0  0  0  0  0  0
   -3.9835   -7.3634   -2.9907 N   0  0  1  0  0  0  0  0  0  0  0  0
   -1.5920    2.6151   -4.5876 N   0  0  0  0  0  0  0  0  0  0  0  0
    0.0491   -4.4510   -1.8765 O   0  5  0  0  0  0  0  0  0  0  0  0
   -2.2526    2.9962   -3.4601 C   0  0  2  0  0  0  0  0  0  0  0  0
   -2.4289    4.3200   -3.2100 N   0  0  0  0  0  0  0  0  0  0  0  0
    1.0191   -4.0183    0.8272 O   0  0  0  0  0  0  0  0  0  0  0  0
   -2.7440    2.0907   -2.5708 N   0  0  0  0  0  0  0  0  0  0  0  0
   -2.5939    0.7591   -2.7617 C   0  0  2  0  0  0  0  0  0  0  0  0
   -1.8919    0.2860   -3.9621 C   0  0  2  0  0  0  0  0  0  0  0  0
   -1.3860    1.3166   -4.8938 C   0  0  0  0  0  0  0  0  0  0  0  0
   -0.7280    0.9757   -6.0294 O   0  0  0  0  0  0  0  0  0  0  0  0
   -1.8965   -1.0605   -3.9056 N   0  0  0  0  0  0  0  0  0  0  0  0
   -2.5458   -1.4194   -2.7582 C   0  0  0  0  0  0  0  0  0  0  0  0
   -2.9629   -0.3266   -2.0794 N   0  0  1  0  0  0  0  0  0  0  0  0
  1  3  1  6  0  0  0
  1  4  2  0  0  0  0
  1  6  1  0  0  0  0
  1 22  1  0  0  0  0
  2 28  1  0  0  0  0
  2 35  1  6  0  0  0
  2 38  2  0  0  0  0
  2 10  1  0  0  0  0
  5  6  1  0  0  0  0
  7  5  1  6  0  0  0
  7  8  1  0  0  0  0
  7  9  1  0  0  0  0
  9 10  1  1  0  0  0
  9 11  1  0  0  0  0
 11 12  1  1  0  0  0
 11 13  1  0  0  0  0
 13  8  1  1  0  0  0
 13 33  1  0  0  0  0
 14 46  1  0  0  0  0
 14 17  1  0  0  0  0
 14 25  1  1  0  0  0
 15 16  1  0  0  0  0
 15 29  1  0  0  0  0
 16 18  1  6  0  0  0
 16 21  1  0  0  0  0
 17 19  1  1  0  0  0
 17 20  1  0  0  0  0
 20 22  1  1  0  0  0
 20 24  1  0  0  0  0
 23 21  1  6  0  0  0
 23 26  1  0  0  0  0
 23 33  1  0  0  0  0
 24 25  1  6  0  0  0
 24 27  1  0  0  0  0
 26 29  1  1  0  0  0
 26 31  1  0  0  0  0
 27 28  1  0  0  0  0
 29 30  2  0  0  0  0
 31 32  1  0  0  0  0
 33 32  1  1  0  0  0
 34 36  1  0  0  0  0
 34 42  1  0  0  0  0
 36 37  1  1  0  0  0
 36 39  1  0  0  0  0
 40 39  1  6  0  0  0
 40 41  1  0  0  0  0
 40 46  1  0  0  0  0
 41 42  1  6  0  0  0
 41 44  1  0  0  0  0
 42 43  2  0  0  0  0
 44 45  1  0  0  0  0
 46 45  1  1  0  0  0
M  CHG  2   3  -1  35  -1
M  END
>  <CHROM.1>
-4.79717324,136.56380671,-3.69332781,-3.57322611,-1.65663706,2.04927092,0.53735506
2.75426854

>  <Name>
ligand

>  <RI>
-1

>  <Rbt.Current_Directory>
/home/itssahil/PROJECTS/Mol_Feturizer/Test_systems_manuscript/rnas/3mum

>  <Rbt.Executable>
rbdock ($Id: //depot/dev/client3/rdock/2013.1/src/exe/rbdock.cxx#4 $)

>  <Rbt.Library>
libRbt.so (2013.1, Build901 2013/11/27)

>  <Rbt.Parameter_File>
/export/apps/rDock/src/rDock_2013.1_src/data/scripts/dock_solv.prm

>  <Rbt.Receptor>
prm/blind_docking_20.prm

>  <SCORE>
16.3082

>  <SCORE.INTER>
14.6726

>  <SCORE.INTER.CONST>
1

>  <SCORE.INTER.POLAR>
0

>  <SCORE.INTER.ROT>
2

>  <SCORE.INTER.SOLV>
47.8915

>  <SCORE.INTER.VDW>
-11.1154

>  <SCORE.INTER.norm>
0.31897

>  <SCORE.INTRA>
1.29145

>  <SCORE.INTRA.DIHEDRAL>
-0.0239415

>  <SCORE.INTRA.DIHEDRAL.0>
2.40424

>  <SCORE.INTRA.POLAR>
0

>  <SCORE.INTRA.POLAR.0>
0

>  <SCORE.INTRA.REPUL>
0

>  <SCORE.INTRA.REPUL.0>
0

>  <SCORE.INTRA.SOLV>
5.3527

>  <SCORE.INTRA.SOLV.lig_0>
-134.169

>  <SCORE.INTRA.VDW>
-1.37293

>  <SCORE.INTRA.VDW.0>
-2.18386

>  <SCORE.INTRA.norm>
0.0280751

>  <SCORE.RESTR>
0.34415

>  <SCORE.RESTR.CAVITY>
0.34415

>  <SCORE.RESTR.norm>
0.00748152

>  <SCORE.SYSTEM>
0

>  <SCORE.SYSTEM.CONST>
0

>  <SCORE.SYSTEM.DIHEDRAL>
0

>  <SCORE.SYSTEM.SOLV>
0

>  <SCORE.SYSTEM.norm>
0

>  <SCORE.heavy>
46

>  <SCORE.norm>
0.354526

>  <RMSD>
20.150

$$$$
ligand
 OpenBabel02271912143D
libRbt.so/2013.1/901 2013/11/27
 46 52  0  0  0  0  0  0  0  0999 V2000
   -3.5005   -7.2961   -3.2524 P   0  0  1  0  0  0  0  0  0  0  0  0
   -3.5592   -5.7203    2.4212 P   0  0  2  0  0  0  0  0  0  0  0  0
   -2.6863   -6.0575   -4.2245 O   0  5  0  0  0  0  0  0  0  0  0  0
   -3.9742   -8.7020   -4.2414 O   0  0  0  0  0  0  0  0  0  0  0  0
   -2.9229   -8.6702   -1.0611 C   0  0  0  0  0  0  0  0  0  0  0  0
   -2.5021   -7.7545   -2.0725 O   0  0  0  0  0  0  0  0  0  0  0  0
   -1.9947   -8.5345    0.1307 C   0  0  1  0  0  0  0  0  0  0  0  0
   -0.6351   -8.6784   -0.3039 O   0  0  0  0  0  0  0  0  0  0  0  0
   -2.0674   -7.1698    0.7961 C   0  0  1  0  0  0  0  0  0  0  0  0
   -3.0344   -7.1336    1.8434 O   0  0  0  0  0  0  0  0  0  0  0  0
   -0.6562   -6.9649    1.3180 C   0  0  1  0  0  0  0  0  0  0  0  0
   -0.5355   -7.5122    2.6335 O   0  0  0  0  0  0  0  0  0  0  0  0
    0.2322   -7.7598    0.3792 C   0  0  2  0  0  0  0  0  0  0  0  0
   -5.5030   -3.2927   -1.6905 C   0  0  1  0  0  0  0  0  0  0  0  0
    3.1957   -3.4477   -0.5247 N   0  0  0  0  0  0  0  0  0  0  0  0
    2.7815   -3.9701    0.6618 C   0  0  1  0  0  0  0  0  0  0  0  0
   -4.7201   -4.2704   -2.5201 C   0  0  2  0  0  0  0  0  0  0  0  0
    3.1479   -3.3392    1.8012 N   0  0  0  0  0  0  0  0  0  0  0  0
   -5.4631   -4.4645   -3.7248 O   0  0  0  0  0  0  0  0  0  0  0  0
   -4.6602   -5.5298   -1.6786 C   0  0  2  0  0  0  0  0  0  0  0  0
    2.0131   -5.0967    0.7459 N   0  0  0  0  0  0  0  0  0  0  0  0
   -4.7774   -6.7006   -2.4753 O   0  0  0  0  0  0  0  0  0  0  0  0
    1.6210   -5.7670   -0.3670 C   0  0  2  0  0  0  0  0  0  0  0  0
   -5.8416   -5.4232   -0.7344 C   0  0  2  0  0  0  0  0  0  0  0  0
   -6.1671   -4.0358   -0.6693 O   0  0  0  0  0  0  0  0  0  0  0  0
    2.0399   -5.2417   -1.6781 C   0  0  1  0  0  0  0  0  0  0  0  0
   -5.5287   -5.9385    0.6659 C   0  0  0  0  0  0  0  0  0  0  0  0
   -4.4808   -5.1482    1.2312 O   0  0  0  0  0  0  0  0  0  0  0  0
    2.8683   -4.0231   -1.7043 C   0  0  0  0  0  0  0  0  0  0  0  0
    3.2827   -3.4933   -2.8831 O   0  0  0  0  0  0  0  0  0  0  0  0
    1.5310   -6.0603   -2.6055 N   0  0  0  0  0  0  0  0  0  0  0  0
    0.8373   -7.0361   -1.9496 C   0  0  0  0  0  0  0  0  0  0  0  0
    0.8870   -6.8650   -0.6117 N   0  0  1  0  0  0  0  0  0  0  0  0
   -0.8062   -2.4398    0.4498 N   0  0  0  0  0  0  0  0  0  0  0  0
   -2.2052   -4.6083    2.7543 O   0  5  0  0  0  0  0  0  0  0  0  0
   -1.3662   -3.6006    0.0119 C   0  0  2  0  0  0  0  0  0  0  0  0
   -0.6574   -4.7560    0.1059 N   0  0  0  0  0  0  0  0  0  0  0  0
   -4.5619   -5.8836    3.8758 O   0  0  0  0  0  0  0  0  0  0  0  0
   -2.6182   -3.6420   -0.5201 N   0  0  0  0  0  0  0  0  0  0  0  0
   -3.3703   -2.5237   -0.6461 C   0  0  2  0  0  0  0  0  0  0  0  0
   -2.8212   -1.2405   -0.1883 C   0  0  2  0  0  0  0  0  0  0  0  0
   -1.4588   -1.2598    0.3858 C   0  0  0  0  0  0  0  0  0  0  0  0
   -0.8699   -0.1249    0.8373 O   0  0  0  0  0  0  0  0  0  0  0  0
   -3.7699   -0.3114   -0.4184 N   0  0  0  0  0  0  0  0  0  0  0  0
   -4.8386   -0.9492   -0.9824 C   0  0  0  0  0  0  0  0  0  0  0  0
   -4.5946   -2.2729   -1.1137 N   0  0  1  0  0  0  0  0  0  0  0  0
  1  3  1  6  0  0  0
  1  4  2  0  0  0  0
  1  6  1  0  0  0  0
  1 22  1  0  0  0  0
  2 28  1  0  0  0  0
  2 35  1  1  0  0  0
  2 38  2  0  0  0  0
  2 10  1  0  0  0  0
  5  6  1  0  0  0  0
  7  5  1  6  0  0  0
  7  8  1  0  0  0  0
  7  9  1  0  0  0  0
  9 10  1  1  0  0  0
  9 11  1  0  0  0  0
 11 12  1  1  0  0  0
 11 13  1  0  0  0  0
 13  8  1  6  0  0  0
 13 33  1  0  0  0  0
 14 46  1  0  0  0  0
 14 17  1  0  0  0  0
 14 25  1  1  0  0  0
 15 16  1  0  0  0  0
 15 29  1  0  0  0  0
 16 18  1  6  0  0  0
 16 21  1  0  0  0  0
 17 19  1  6  0  0  0
 17 20  1  0  0  0  0
 20 22  1  6  0  0  0
 20 24  1  0  0  0  0
 23 21  1  6  0  0  0
 23 26  1  0  0  0  0
 23 33  1  0  0  0  0
 24 25  1  1  0  0  0
 24 27  1  0  0  0  0
 26 29  1  1  0  0  0
 26 31  1  0  0  0  0
 27 28  1  0  0  0  0
 29 30  2  0  0  0  0
 31 32  1  0  0  0  0
 33 32  1  1  0  0  0
 34 36  1  0  0  0  0
 34 42  1  0  0  0  0
 36 37  1  6  0  0  0
 36 39  1  0  0  0  0
 40 39  1  1  0  0  0
 40 41  1  0  0  0  0
 40 46  1  0  0  0  0
 41 42  1  1  0  0  0
 41 44  1  0  0  0  0
 42 43  2  0  0  0  0
 44 45  1  0  0  0  0
 46 45  1  6  0  0  0
M  CHG  2   3  -1  35  -1
M  END
>  <CHROM.1>
170.29719769,-38.73874926,-1.99186384,-5.14981226,-0.46778127,-3.02754255
-0.10965163,0.29317074

>  <Name>
ligand

>  <RI>
-1

>  <Rbt.Current_Directory>
/home/itssahil/PROJECTS/Mol_Feturizer/Test_systems_manuscript/rnas/3mum

>  <Rbt.Executable>
rbdock ($Id: //depot/dev/client3/rdock/2013.1/src/exe/rbdock.cxx#4 $)

>  <Rbt.Library>
libRbt.so (2013.1, Build901 2013/11/27)

>  <Rbt.Parameter_File>
/export/apps/rDock/src/rDock_2013.1_src/data/scripts/dock_solv.prm

>  <Rbt.Receptor>
prm/blind_docking_20.prm

>  <SCORE>
88.2462

>  <SCORE.INTER>
78.6056

>  <SCORE.INTER.CONST>
1

>  <SCORE.INTER.POLAR>
0

>  <SCORE.INTER.ROT>
2

>  <SCORE.INTER.SOLV>
44.4744

>  <SCORE.INTER.VDW>
32.6456

>  <SCORE.INTER.norm>
1.70882

>  <SCORE.INTRA>
7.01546

>  <SCORE.INTRA.DIHEDRAL>
0.0184405

>  <SCORE.INTRA.DIHEDRAL.0>
2.40424

>  <SCORE.INTRA.POLAR>
0

>  <SCORE.INTRA.POLAR.0>
0

>  <SCORE.INTRA.REPUL>
0

>  <SCORE.INTRA.REPUL.0>
0

>  <SCORE.INTRA.SOLV>
14.574

>  <SCORE.INTRA.SOLV.lig_0>
-134.169

>  <SCORE.INTRA.VDW>
-0.280744

>  <SCORE.INTRA.VDW.0>
-2.18386

>  <SCORE.INTRA.norm>
0.15251

>  <SCORE.RESTR>
2.62521

>  <SCORE.RESTR.CAVITY>
2.62521

>  <SCORE.RESTR.norm>
0.0570698

>  <SCORE.SYSTEM>
0

>  <SCORE.SYSTEM.CONST>
0

>  <SCORE.SYSTEM.DIHEDRAL>
0

>  <SCORE.SYSTEM.SOLV>
0

>  <SCORE.SYSTEM.norm>
0

>  <SCORE.heavy>
46

>  <SCORE.norm>
1.9184

>  <RMSD>
20.164

$$$$
ligand
 OpenBabel02271912143D
libRbt.so/2013.1/901 2013/11/27
 46 52  0  0  0  0  0  0  0  0999 V2000
   -5.5416   -4.2355    1.1170 P   0  0  1  0  0  0  0  0  0  0  0  0
    0.0215   -3.3553   -0.6015 P   0  0  2  0  0  0  0  0  0  0  0  0
   -6.6469   -4.0265   -0.2528 O   0  5  0  0  0  0  0  0  0  0  0  0
   -6.4077   -4.7497    2.5883 O   0  0  0  0  0  0  0  0  0  0  0  0
   -3.3381   -5.6332    1.5797 C   0  0  0  0  0  0  0  0  0  0  0  0
   -4.4305   -5.3311    0.7116 O   0  0  0  0  0  0  0  0  0  0  0  0
   -2.2411   -6.2923    0.7654 C   0  0  1  0  0  0  0  0  0  0  0  0
   -2.7847   -7.4089    0.0472 O   0  0  0  0  0  0  0  0  0  0  0  0
   -1.6469   -5.3774   -0.2930 C   0  0  1  0  0  0  0  0  0  0  0  0
   -0.5225   -4.6495    0.1960 O   0  0  0  0  0  0  0  0  0  0  0  0
   -1.2625   -6.3389   -1.4037 C   0  0  1  0  0  0  0  0  0  0  0  0
    0.0651   -6.8263   -1.1926 O   0  0  0  0  0  0  0  0  0  0  0  0
   -2.2310   -7.4998   -1.2749 C   0  0  2  0  0  0  0  0  0  0  0  0
   -4.0298   -0.1735   -0.8043 C   0  0  1  0  0  0  0  0  0  0  0  0
   -4.4450   -4.7421   -5.2354 N   0  0  0  0  0  0  0  0  0  0  0  0
   -3.3298   -4.4555   -4.5097 C   0  0  1  0  0  0  0  0  0  0  0  0
   -4.8705   -1.3755   -0.4794 C   0  0  2  0  0  0  0  0  0  0  0  0
   -2.6543   -3.3189   -4.7971 N   0  0  0  0  0  0  0  0  0  0  0  0
   -5.9932   -0.8951    0.2621 O   0  0  0  0  0  0  0  0  0  0  0  0
   -3.9704   -2.2609    0.3595 C   0  0  2  0  0  0  0  0  0  0  0  0
   -2.8715   -5.2634   -3.5078 N   0  0  0  0  0  0  0  0  0  0  0  0
   -4.6891   -2.9015    1.4046 O   0  0  0  0  0  0  0  0  0  0  0  0
   -3.5118   -6.4148   -3.1825 C   0  0  2  0  0  0  0  0  0  0  0  0
   -2.9336   -1.3207    0.9422 C   0  0  2  0  0  0  0  0  0  0  0  0
   -2.9155   -0.1789    0.0871 O   0  0  0  0  0  0  0  0  0  0  0  0
   -4.7269   -6.7708   -3.9356 C   0  0  1  0  0  0  0  0  0  0  0  0
   -1.5401   -1.9369    0.9974 C   0  0  0  0  0  0  0  0  0  0  0  0
   -1.1125   -2.2447   -0.3309 O   0  0  0  0  0  0  0  0  0  0  0  0
   -5.1716   -5.8595   -5.0051 C   0  0  0  0  0  0  0  0  0  0  0  0
   -6.2845   -6.1357   -5.7312 O   0  0  0  0  0  0  0  0  0  0  0  0
   -5.1715   -7.9274   -3.4321 N   0  0  0  0  0  0  0  0  0  0  0  0
   -4.3156   -8.2914   -2.4328 C   0  0  0  0  0  0  0  0  0  0  0  0
   -3.3225   -7.3904   -2.2789 N   0  0  1  0  0  0  0  0  0  0  0  0
   -2.8953    2.6471   -5.0618 N   0  0  0  0  0  0  0  0  0  0  0  0
    0.1740   -3.6817   -2.3482 O   0  5  0  0  0  0  0  0  0  0  0  0
   -3.3169    3.0549   -3.8334 C   0  0  2  0  0  0  0  0  0  0  0  0
   -3.4873    4.3820   -3.5974 N   0  0  0  0  0  0  0  0  0  0  0  0
    1.5650   -2.7420    0.0225 O   0  0  0  0  0  0  0  0  0  0  0  0
   -3.5740    2.1730   -2.8293 N   0  0  0  0  0  0  0  0  0  0  0  0
   -3.4164    0.8397   -3.0016 C   0  0  2  0  0  0  0  0  0  0  0  0
   -2.9663    0.3383   -4.3068 C   0  0  2  0  0  0  0  0  0  0  0  0
   -2.7088    1.3437   -5.3598 C   0  0  0  0  0  0  0  0  0  0  0  0
   -2.2931    0.9757   -6.5969 O   0  0  0  0  0  0  0  0  0  0  0  0
   -2.9070   -1.0042   -4.2042 N   0  0  0  0  0  0  0  0  0  0  0  0
   -3.2848   -1.3343   -2.9332 C   0  0  0  0  0  0  0  0  0  0  0  0
   -3.5908   -0.2272   -2.2194 N   0  0  1  0  0  0  0  0  0  0  0  0
  1  3  1  6  0  0  0
  1  4  2  0  0  0  0
  1  6  1  0  0  0  0
  1 22  1  0  0  0  0
  2 28  1  0  0  0  0
  2 35  1  6  0  0  0
  2 38  2  0  0  0  0
  2 10  1  0  0  0  0
  5  6  1  0  0  0  0
  7  5  1  6  0  0  0
  7  8  1  0  0  0  0
  7  9  1  0  0  0  0
  9 10  1  1  0  0  0
  9 11  1  0  0  0  0
 11 12  1  1  0  0  0
 11 13  1  0  0  0  0
 13  8  1  1  0  0  0
 13 33  1  0  0  0  0
 14 46  1  0  0  0  0
 14 17  1  0  0  0  0
 14 25  1  1  0  0  0
 15 16  1  0  0  0  0
 15 29  1  0  0  0  0
 16 18  1  1  0  0  0
 16 21  1  0  0  0  0
 17 19  1  1  0  0  0
 17 20  1  0  0  0  0
 20 22  1  1  0  0  0
 20 24  1  0  0  0  0
 23 21  1  1  0  0  0
 23 26  1  0  0  0  0
 23 33  1  0  0  0  0
 24 25  1  6  0  0  0
 24 27  1  0  0  0  0
 26 29  1  6  0  0  0
 26 31  1  0  0  0  0
 27 28  1  0  0  0  0
 29 30  2  0  0  0  0
 31 32  1  0  0  0  0
 33 32  1  6  0  0  0
 34 36  1  0  0  0  0
 34 42  1  0  0  0  0
 36 37  1  1  0  0  0
 36 39  1  0  0  0  0
 40 39  1  6  0  0  0
 40 41  1  0  0  0  0
 40 46  1  0  0  0  0
 41 42  1  6  0  0  0
 41 44  1  0  0  0  0
 42 43  2  0  0  0  0
 44 45  1  0  0  0  0
 46 45  1  1  0  0  0
M  CHG  2   3  -1  35  -1
M  END
>  <CHROM.1>
114.96578962,146.54126345,-3.16685341,-3.20398929,-1.67687524,-1.82251560
-1.43554240,-0.57732631

>  <Name>
ligand

>  <RI>
0

>  <Rbt.Current_Directory>
/home/itssahil/PROJECTS/Mol_Feturizer/Test_systems_manuscript/rnas/3mum

>  <Rbt.Executable>
rbdock ($Id: //depot/dev/client3/rdock/2013.1/src/exe/rbdock.cxx#4 $)

>  <Rbt.Library>
libRbt.so (2013.1, Build901 2013/11/27)

>  <Rbt.Parameter_File>
/export/apps/rDock/src/rDock_2013.1_src/data/scripts/dock_solv.prm

>  <Rbt.Receptor>
prm/blind_docking_60.prm

>  <SCORE>
30.4299

>  <SCORE.INTER>
27.0838

>  <SCORE.INTER.CONST>
1

>  <SCORE.INTER.POLAR>
0

>  <SCORE.INTER.ROT>
2

>  <SCORE.INTER.SOLV>
42.5038

>  <SCORE.INTER.VDW>
-1.04537

>  <SCORE.INTER.norm>
0.588779

>  <SCORE.INTRA>
2.87712

>  <SCORE.INTRA.DIHEDRAL>
-0.030288

>  <SCORE.INTRA.DIHEDRAL.0>
2.40424

>  <SCORE.INTRA.POLAR>
0

>  <SCORE.INTRA.POLAR.0>
0

>  <SCORE.INTRA.REPUL>
0

>  <SCORE.INTRA.REPUL.0>
0

>  <SCORE.INTRA.SOLV>
3.92742

>  <SCORE.INTRA.SOLV.lig_0>
-134.169

>  <SCORE.INTRA.VDW>
0.928558

>  <SCORE.INTRA.VDW.0>
-2.18386

>  <SCORE.INTRA.norm>
0.0625462

>  <SCORE.RESTR>
0.468958

>  <SCORE.RESTR.CAVITY>
0.468958

>  <SCORE.RESTR.norm>
0.0101947

>  <SCORE.SYSTEM>
0

>  <SCORE.SYSTEM.CONST>
0

>  <SCORE.SYSTEM.DIHEDRAL>
0

>  <SCORE.SYSTEM.SOLV>
0

>  <SCORE.SYSTEM.norm>
0

>  <SCORE.heavy>
46

>  <SCORE.norm>
0.66152

>  <RMSD>
20.270

$$$$
ligand
 OpenBabel02271912143D
libRbt.so/2013.1/901 2013/11/27
 46 52  0  0  0  0  0  0  0  0999 V2000
    2.6815   -2.2342   -3.0012 P   0  0  1  0  0  0  0  0  0  0  0  0
   -1.5247   -5.9432   -1.2045 P   0  0  2  0  0  0  0  0  0  0  0  0
    2.9833   -1.0028   -1.7625 O   0  5  0  0  0  0  0  0  0  0  0  0
    3.7972   -2.0655   -4.3817 O   0  0  0  0  0  0  0  0  0  0  0  0
    2.5599   -4.8811   -3.0542 C   0  0  0  0  0  0  0  0  0  0  0  0
    2.8467   -3.6881   -2.3242 O   0  0  0  0  0  0  0  0  0  0  0  0
    2.3311   -6.0092   -2.0665 C   0  0  1  0  0  0  0  0  0  0  0  0
    3.4456   -6.0900   -1.1670 O   0  0  0  0  0  0  0  0  0  0  0  0
    1.1108   -5.7973   -1.1853 C   0  0  1  0  0  0  0  0  0  0  0  0
   -0.0664   -6.3691   -1.7512 O   0  0  0  0  0  0  0  0  0  0  0  0
    1.5031   -6.4751    0.1158 C   0  0  1  0  0  0  0  0  0  0  0  0
    1.1381   -7.8570    0.0783 O   0  0  0  0  0  0  0  0  0  0  0  0
    3.0161   -6.3749    0.1736 C   0  0  2  0  0  0  0  0  0  0  0  0
   -1.7029   -0.8334   -1.8645 C   0  0  1  0  0  0  0  0  0  0  0  0
    5.2101   -4.9160    4.7834 N   0  0  0  0  0  0  0  0  0  0  0  0
    4.9875   -6.1678    4.2980 C   0  0  1  0  0  0  0  0  0  0  0  0
   -0.2063   -0.8914   -1.9835 C   0  0  2  0  0  0  0  0  0  0  0  0
    5.3576   -7.2239    5.0585 N   0  0  0  0  0  0  0  0  0  0  0  0
    0.1705    0.1677   -2.8652 O   0  0  0  0  0  0  0  0  0  0  0  0
    0.0812   -2.2562   -2.5770 C   0  0  2  0  0  0  0  0  0  0  0  0
    4.4063   -6.3974    3.0830 N   0  0  0  0  0  0  0  0  0  0  0  0
    1.1544   -2.2095   -3.5074 O   0  0  0  0  0  0  0  0  0  0  0  0
    4.0193   -5.3726    2.2820 C   0  0  2  0  0  0  0  0  0  0  0  0
   -1.2012   -2.6517   -3.2823 C   0  0  2  0  0  0  0  0  0  0  0  0
   -2.2360   -1.8790   -2.6761 O   0  0  0  0  0  0  0  0  0  0  0  0
    4.2347   -3.9964    2.7616 C   0  0  1  0  0  0  0  0  0  0  0  0
   -1.5231   -4.1349   -3.1378 C   0  0  0  0  0  0  0  0  0  0  0  0
   -1.7064   -4.4406   -1.7539 O   0  0  0  0  0  0  0  0  0  0  0  0
    4.8666   -3.8127    4.0803 C   0  0  0  0  0  0  0  0  0  0  0  0
    5.0889   -2.5680    4.5737 O   0  0  0  0  0  0  0  0  0  0  0  0
    3.7716   -3.1766    1.8116 N   0  0  0  0  0  0  0  0  0  0  0  0
    3.2932   -3.9573    0.7990 C   0  0  0  0  0  0  0  0  0  0  0  0
    3.4379   -5.2704    1.0755 N   0  0  1  0  0  0  0  0  0  0  0  0
   -5.0227   -3.1861    1.4237 N   0  0  0  0  0  0  0  0  0  0  0  0
   -1.5869   -5.9700    0.5777 O   0  5  0  0  0  0  0  0  0  0  0  0
   -4.9370   -3.2653    0.0675 C   0  0  2  0  0  0  0  0  0  0  0  0
   -5.8079   -4.0606   -0.6070 N   0  0  0  0  0  0  0  0  0  0  0  0
   -2.8394   -6.9400   -1.8572 O   0  0  0  0  0  0  0  0  0  0  0  0
   -4.0027   -2.5714   -0.6382 N   0  0  0  0  0  0  0  0  0  0  0  0
   -3.1039   -1.7684   -0.0223 C   0  0  2  0  0  0  0  0  0  0  0  0
   -3.1482   -1.6396    1.4403 C   0  0  2  0  0  0  0  0  0  0  0  0
   -4.1887   -2.4130    2.1511 C   0  0  0  0  0  0  0  0  0  0  0  0
   -4.3086   -2.3556    3.5005 O   0  0  0  0  0  0  0  0  0  0  0  0
   -2.1649   -0.7834    1.7816 N   0  0  0  0  0  0  0  0  0  0  0  0
   -1.5391   -0.3991    0.6293 C   0  0  0  0  0  0  0  0  0  0  0  0
   -2.1070   -0.9896   -0.4466 N   0  0  1  0  0  0  0  0  0  0  0  0
  1  3  1  1  0  0  0
  1  4  2  0  0  0  0
  1  6  1  0  0  0  0
  1 22  1  0  0  0  0
  2 28  1  0  0  0  0
  2 35  1  1  0  0  0
  2 38  2  0  0  0  0
  2 10  1  0  0  0  0
  5  6  1  0  0  0  0
  7  5  1  6  0  0  0
  7  8  1  0  0  0  0
  7  9  1  0  0  0  0
  9 10  1  6  0  0  0
  9 11  1  0  0  0  0
 11 12  1  6  0  0  0
 11 13  1  0  0  0  0
 13  8  1  6  0  0  0
 13 33  1  0  0  0  0
 14 46  1  0  0  0  0
 14 17  1  0  0  0  0
 14 25  1  6  0  0  0
 15 16  1  0  0  0  0
 15 29  1  0  0  0  0
 16 18  1  1  0  0  0
 16 21  1  0  0  0  0
 17 19  1  6  0  0  0
 17 20  1  0  0  0  0
 20 22  1  6  0  0  0
 20 24  1  0  0  0  0
 23 21  1  1  0  0  0
 23 26  1  0  0  0  0
 23 33  1  0  0  0  0
 24 25  1  1  0  0  0
 24 27  1  0  0  0  0
 26 29  1  6  0  0  0
 26 31  1  0  0  0  0
 27 28  1  0  0  0  0
 29 30  2  0  0  0  0
 31 32  1  0  0  0  0
 33 32  1  6  0  0  0
 34 36  1  0  0  0  0
 34 42  1  0  0  0  0
 36 37  1  1  0  0  0
 36 39  1  0  0  0  0
 40 39  1  6  0  0  0
 40 41  1  0  0  0  0
 40 46  1  0  0  0  0
 41 42  1  6  0  0  0
 41 44  1  0  0  0  0
 42 43  2  0  0  0  0
 44 45  1  0  0  0  0
 46 45  1  1  0  0  0
M  CHG  2   3  -1  35  -1
M  END
>  <CHROM.1>
-134.18328529,-135.57977844,0.49777993,-3.79397730,-0.23941905,-0.46620388
0.18724424,-1.24826019

>  <Name>
ligand

>  <RI>
-1

>  <Rbt.Current_Directory>
/home/itssahil/PROJECTS/Mol_Feturizer/Test_systems_manuscript/rnas/3mum

>  <Rbt.Executable>
rbdock ($Id: //depot/dev/client3/rdock/2013.1/src/exe/rbdock.cxx#4 $)

>  <Rbt.Library>
libRbt.so (2013.1, Build901 2013/11/27)

>  <Rbt.Parameter_File>
/export/apps/rDock/src/rDock_2013.1_src/data/scripts/dock_solv.prm

>  <Rbt.Receptor>
prm/blind_docking_20.prm

>  <SCORE>
47.6504

>  <SCORE.INTER>
46.7918

>  <SCORE.INTER.CONST>
1

>  <SCORE.INTER.POLAR>
0

>  <SCORE.INTER.ROT>
2

>  <SCORE.INTER.SOLV>
28.0576

>  <SCORE.INTER.VDW>
16.9087

>  <SCORE.INTER.norm>
1.01721

>  <SCORE.INTRA>
-0.587853

>  <SCORE.INTRA.DIHEDRAL>
0.0187203

>  <SCORE.INTRA.DIHEDRAL.0>
2.40424

>  <SCORE.INTRA.POLAR>
0

>  <SCORE.INTRA.POLAR.0>
0

>  <SCORE.INTRA.REPUL>
0

>  <SCORE.INTRA.REPUL.0>
0

>  <SCORE.INTRA.SOLV>
0.385588

>  <SCORE.INTRA.SOLV.lig_0>
-134.169

>  <SCORE.INTRA.VDW>
-0.790007

>  <SCORE.INTRA.VDW.0>
-2.18386

>  <SCORE.INTRA.norm>
-0.0127794

>  <SCORE.RESTR>
1.44643

>  <SCORE.RESTR.CAVITY>
1.44643

>  <SCORE.RESTR.norm>
0.031444

>  <SCORE.SYSTEM>
0

>  <SCORE.SYSTEM.CONST>
0

>  <SCORE.SYSTEM.DIHEDRAL>
0

>  <SCORE.SYSTEM.SOLV>
0

>  <SCORE.SYSTEM.norm>
0

>  <SCORE.heavy>
46

>  <SCORE.norm>
1.03588

>  <RMSD>
20.281

$$$$
ligand
 OpenBabel02271912143D
libRbt.so/2013.1/901 2013/11/27
 46 52  0  0  0  0  0  0  0  0999 V2000
    2.6953   -2.2191   -3.0025 P   0  0  1  0  0  0  0  0  0  0  0  0
   -1.5127   -5.9320   -1.2186 P   0  0  2  0  0  0  0  0  0  0  0  0
    2.9932   -0.9882   -1.7623 O   0  5  0  0  0  0  0  0  0  0  0  0
    3.8144   -2.0488   -4.3802 O   0  0  0  0  0  0  0  0  0  0  0  0
    2.5757   -4.8660   -3.0574 C   0  0  0  0  0  0  0  0  0  0  0  0
    2.8599   -3.6732   -2.3260 O   0  0  0  0  0  0  0  0  0  0  0  0
    2.3452   -5.9949   -2.0710 C   0  0  1  0  0  0  0  0  0  0  0  0
    3.4576   -6.0754   -1.1687 O   0  0  0  0  0  0  0  0  0  0  0  0
    1.1226   -5.7844   -1.1927 C   0  0  1  0  0  0  0  0  0  0  0  0
   -0.0528   -6.3566   -1.7619 O   0  0  0  0  0  0  0  0  0  0  0  0
    1.5121   -6.4626    0.1090 C   0  0  1  0  0  0  0  0  0  0  0  0
    1.1481   -7.8448    0.0698 O   0  0  0  0  0  0  0  0  0  0  0  0
    3.0249   -6.3615    0.1706 C   0  0  2  0  0  0  0  0  0  0  0  0
   -1.6928   -0.8219   -1.8759 C   0  0  1  0  0  0  0  0  0  0  0  0
    5.2190   -4.9036    4.7807 N   0  0  0  0  0  0  0  0  0  0  0  0
    5.0005   -6.1554    4.2930 C   0  0  1  0  0  0  0  0  0  0  0  0
   -0.1959   -0.8788   -1.9912 C   0  0  2  0  0  0  0  0  0  0  0  0
    5.3754   -7.2116    5.0509 N   0  0  0  0  0  0  0  0  0  0  0  0
    0.1824    0.1811   -2.8713 O   0  0  0  0  0  0  0  0  0  0  0  0
    0.0941   -2.2431   -2.5848 C   0  0  2  0  0  0  0  0  0  0  0  0
    4.4186   -6.3847    3.0783 N   0  0  0  0  0  0  0  0  0  0  0  0
    1.1695   -2.1951   -3.5125 O   0  0  0  0  0  0  0  0  0  0  0  0
    4.0269   -5.3597    2.2798 C   0  0  2  0  0  0  0  0  0  0  0  0
   -1.1863   -2.6391   -3.2935 C   0  0  2  0  0  0  0  0  0  0  0  0
   -2.2231   -1.8674   -2.6895 O   0  0  0  0  0  0  0  0  0  0  0  0
    4.2378   -3.9836    2.7619 C   0  0  1  0  0  0  0  0  0  0  0  0
   -1.5076   -4.1226   -3.1507 C   0  0  0  0  0  0  0  0  0  0  0  0
   -1.6941   -4.4292   -1.7675 O   0  0  0  0  0  0  0  0  0  0  0  0
    4.8706   -3.8002    4.0803 C   0  0  0  0  0  0  0  0  0  0  0  0
    5.0889   -2.5557    4.5758 O   0  0  0  0  0  0  0  0  0  0  0  0
    3.7705   -3.1637    1.8141 N   0  0  0  0  0  0  0  0  0  0  0  0
    3.2939   -3.9441    0.8005 C   0  0  0  0  0  0  0  0  0  0  0  0
    3.4437   -5.2572    1.0742 N   0  0  1  0  0  0  0  0  0  0  0  0
   -5.0929   -3.0870    1.3916 N   0  0  0  0  0  0  0  0  0  0  0  0
   -1.5793   -5.9599    0.5635 O   0  5  0  0  0  0  0  0  0  0  0  0
   -5.0123   -3.1539    0.0344 C   0  0  2  0  0  0  0  0  0  0  0  0
   -5.9133   -3.9084   -0.6474 N   0  0  0  0  0  0  0  0  0  0  0  0
   -2.8251   -6.9293   -1.8750 O   0  0  0  0  0  0  0  0  0  0  0  0
   -4.0539   -2.4872   -0.6651 N   0  0  0  0  0  0  0  0  0  0  0  0
   -3.1249   -1.7252   -0.0418 C   0  0  2  0  0  0  0  0  0  0  0  0
   -3.1621   -1.6117    1.4222 C   0  0  2  0  0  0  0  0  0  0  0  0
   -4.2296   -2.3540    2.1262 C   0  0  0  0  0  0  0  0  0  0  0  0
   -4.3453   -2.3076    3.4764 O   0  0  0  0  0  0  0  0  0  0  0  0
   -2.1471   -0.7967    1.7714 N   0  0  0  0  0  0  0  0  0  0  0  0
   -1.5092   -0.4227    0.6224 C   0  0  0  0  0  0  0  0  0  0  0  0
   -2.1003   -0.9792   -0.4591 N   0  0  1  0  0  0  0  0  0  0  0  0
  1  3  1  1  0  0  0
  1  4  2  0  0  0  0
  1  6  1  0  0  0  0
  1 22  1  0  0  0  0
  2 28  1  0  0  0  0
  2 35  1  1  0  0  0
  2 38  2  0  0  0  0
  2 10  1  0  0  0  0
  5  6  1  0  0  0  0
  7  5  1  6  0  0  0
  7  8  1  0  0  0  0
  7  9  1  0  0  0  0
  9 10  1  6  0  0  0
  9 11  1  0  0  0  0
 11 12  1  6  0  0  0
 11 13  1  0  0  0  0
 13  8  1  6  0  0  0
 13 33  1  0  0  0  0
 14 46  1  0  0  0  0
 14 17  1  0  0  0  0
 14 25  1  6  0  0  0
 15 16  1  0  0  0  0
 15 29  1  0  0  0  0
 16 18  1  1  0  0  0
 16 21  1  0  0  0  0
 17 19  1  6  0  0  0
 17 20  1  0  0  0  0
 20 22  1  6  0  0  0
 20 24  1  0  0  0  0
 23 21  1  1  0  0  0
 23 26  1  0  0  0  0
 23 33  1  0  0  0  0
 24 25  1  1  0  0  0
 24 27  1  0  0  0  0
 26 29  1  6  0  0  0
 26 31  1  0  0  0  0
 27 28  1  0  0  0  0
 29 30  2  0  0  0  0
 31 32  1  0  0  0  0
 33 32  1  6  0  0  0
 34 36  1  0  0  0  0
 34 42  1  0  0  0  0
 36 37  1  1  0  0  0
 36 39  1  0  0  0  0
 40 39  1  6  0  0  0
 40 41  1  0  0  0  0
 40 46  1  0  0  0  0
 41 42  1  6  0  0  0
 41 44  1  0  0  0  0
 42 43  2  0  0  0  0
 44 45  1  0  0  0  0
 46 45  1  1  0  0  0
M  CHG  2   3  -1  35  -1
M  END
>  <CHROM.1>
-133.89893865,-137.85180304,0.49912072,-3.77193620,-0.24898618,-0.46007996
0.19476974,-1.25630799

>  <Name>
ligand

>  <RI>
-1

>  <Rbt.Current_Directory>
/home/itssahil/PROJECTS/Mol_Feturizer/Test_systems_manuscript/rnas/3mum

>  <Rbt.Executable>
rbdock ($Id: //depot/dev/client3/rdock/2013.1/src/exe/rbdock.cxx#4 $)

>  <Rbt.Library>
libRbt.so (2013.1, Build901 2013/11/27)

>  <Rbt.Parameter_File>
/export/apps/rDock/src/rDock_2013.1_src/data/scripts/dock_solv.prm

>  <Rbt.Receptor>
prm/blind_docking_20.prm

>  <SCORE>
47.4077

>  <SCORE.INTER>
46.5408

>  <SCORE.INTER.CONST>
1

>  <SCORE.INTER.POLAR>
0

>  <SCORE.INTER.ROT>
2

>  <SCORE.INTER.SOLV>
29.0183

>  <SCORE.INTER.VDW>
16.4211

>  <SCORE.INTER.norm>
1.01176

>  <SCORE.INTRA>
-0.622454

>  <SCORE.INTRA.DIHEDRAL>
0.0207228

>  <SCORE.INTRA.DIHEDRAL.0>
2.40424

>  <SCORE.INTRA.POLAR>
0

>  <SCORE.INTRA.POLAR.0>
0

>  <SCORE.INTRA.REPUL>
0

>  <SCORE.INTRA.REPUL.0>
0

>  <SCORE.INTRA.SOLV>
0.0833708

>  <SCORE.INTRA.SOLV.lig_0>
-134.169

>  <SCORE.INTRA.VDW>
-0.674501

>  <SCORE.INTRA.VDW.0>
-2.18386

>  <SCORE.INTRA.norm>
-0.0135316

>  <SCORE.RESTR>
1.48935

>  <SCORE.RESTR.CAVITY>
1.48935

>  <SCORE.RESTR.norm>
0.0323772

>  <SCORE.SYSTEM>
0

>  <SCORE.SYSTEM.CONST>
0

>  <SCORE.SYSTEM.DIHEDRAL>
0

>  <SCORE.SYSTEM.SOLV>
0

>  <SCORE.SYSTEM.norm>
0

>  <SCORE.heavy>
46

>  <SCORE.norm>
1.0306

>  <RMSD>
20.287

$$$$
ligand
 OpenBabel02271912143D
libRbt.so/2013.1/901 2013/11/27
 46 52  0  0  0  0  0  0  0  0999 V2000
   -1.6626   -6.1114   -1.2819 P   0  0  1  0  0  0  0  0  0  0  0  0
    2.4981   -2.3727   -3.1223 P   0  0  2  0  0  0  0  0  0  0  0  0
   -1.8499   -6.0029    0.4773 O   0  5  0  0  0  0  0  0  0  0  0  0
   -2.8463   -7.2343   -2.0012 O   0  0  0  0  0  0  0  0  0  0  0  0
   -1.6412   -4.3900   -3.2967 C   0  0  0  0  0  0  0  0  0  0  0  0
   -1.8432   -4.6354   -1.9048 O   0  0  0  0  0  0  0  0  0  0  0  0
   -1.3994   -2.9059   -3.4961 C   0  0  1  0  0  0  0  0  0  0  0  0
   -2.4645   -2.1624   -2.8873 O   0  0  0  0  0  0  0  0  0  0  0  0
   -0.1252   -2.4107   -2.8315 C   0  0  1  0  0  0  0  0  0  0  0  0
    0.9971   -2.4719   -3.7089 O   0  0  0  0  0  0  0  0  0  0  0  0
   -0.4692   -0.9824   -2.4473 C   0  0  1  0  0  0  0  0  0  0  0  0
   -0.1577   -0.0960   -3.5251 O   0  0  0  0  0  0  0  0  0  0  0  0
   -1.9720   -0.9803   -2.2371 C   0  0  2  0  0  0  0  0  0  0  0  0
    2.8264   -6.2715    0.2347 C   0  0  1  0  0  0  0  0  0  0  0  0
   -5.0468   -2.9737    1.6054 N   0  0  0  0  0  0  0  0  0  0  0  0
   -5.0870   -3.2102    0.2657 C   0  0  1  0  0  0  0  0  0  0  0  0
    1.3244   -6.2962    0.2087 C   0  0  2  0  0  0  0  0  0  0  0  0
   -6.0247   -4.0645   -0.2051 N   0  0  0  0  0  0  0  0  0  0  0  0
    0.9383   -7.6527    0.4364 O   0  0  0  0  0  0  0  0  0  0  0  0
    0.9546   -5.8247   -1.1837 C   0  0  2  0  0  0  0  0  0  0  0  0
   -4.2258   -2.6202   -0.6157 N   0  0  0  0  0  0  0  0  0  0  0  0
   -0.1660   -6.5313   -1.6977 O   0  0  0  0  0  0  0  0  0  0  0  0
   -3.2667   -1.7579   -0.1936 C   0  0  2  0  0  0  0  0  0  0  0  0
    2.1806   -6.1090   -2.0291 C   0  0  2  0  0  0  0  0  0  0  0  0
    3.2750   -6.1893   -1.1174 O   0  0  0  0  0  0  0  0  0  0  0  0
   -3.1816   -1.4645    1.2476 C   0  0  1  0  0  0  0  0  0  0  0  0
    2.4555   -5.0187   -3.0588 C   0  0  0  0  0  0  0  0  0  0  0  0
    2.7040   -3.7864   -2.3794 O   0  0  0  0  0  0  0  0  0  0  0  0
   -4.1380   -2.1320    2.1487 C   0  0  0  0  0  0  0  0  0  0  0  0
   -4.1073   -1.8991    3.4854 O   0  0  0  0  0  0  0  0  0  0  0  0
   -2.1772   -0.5961    1.4089 N   0  0  0  0  0  0  0  0  0  0  0  0
   -1.6543   -0.3453    0.1731 C   0  0  0  0  0  0  0  0  0  0  0  0
   -2.3024   -1.0363   -0.7883 N   0  0  1  0  0  0  0  0  0  0  0  0
    5.1694   -4.7901    4.6714 N   0  0  0  0  0  0  0  0  0  0  0  0
    2.6580   -1.0270   -1.9629 O   0  5  0  0  0  0  0  0  0  0  0  0
    4.8496   -6.0373    4.2295 C   0  0  2  0  0  0  0  0  0  0  0  0
    5.1589   -7.1134    4.9991 N   0  0  0  0  0  0  0  0  0  0  0  0
    3.7372   -2.2178   -4.3827 O   0  0  0  0  0  0  0  0  0  0  0  0
    4.2280   -6.2426    3.0362 N   0  0  0  0  0  0  0  0  0  0  0  0
    3.9007   -5.2114    2.2228 C   0  0  2  0  0  0  0  0  0  0  0  0
    4.2177   -3.8411    2.6467 C   0  0  2  0  0  0  0  0  0  0  0  0
    4.8876   -3.6812    3.9550 C   0  0  0  0  0  0  0  0  0  0  0  0
    5.2169   -2.4550    4.4311 O   0  0  0  0  0  0  0  0  0  0  0  0
    3.7787   -3.0241    1.6689 N   0  0  0  0  0  0  0  0  0  0  0  0
    3.2289   -3.8098    0.6956 C   0  0  0  0  0  0  0  0  0  0  0  0
    3.3025   -5.1171    1.0338 N   0  0  1  0  0  0  0  0  0  0  0  0
  1  3  1  1  0  0  0
  1  4  2  0  0  0  0
  1  6  1  0  0  0  0
  1 22  1  0  0  0  0
  2 28  1  0  0  0  0
  2 35  1  1  0  0  0
  2 38  2  0  0  0  0
  2 10  1  0  0  0  0
  5  6  1  0  0  0  0
  7  5  1  1  0  0  0
  7  8  1  0  0  0  0
  7  9  1  0  0  0  0
  9 10  1  6  0  0  0
  9 11  1  0  0  0  0
 11 12  1  6  0  0  0
 11 13  1  0  0  0  0
 13  8  1  6  0  0  0
 13 33  1  0  0  0  0
 14 46  1  0  0  0  0
 14 17  1  0  0  0  0
 14 25  1  6  0  0  0
 15 16  1  0  0  0  0
 15 29  1  0  0  0  0
 16 18  1  6  0  0  0
 16 21  1  0  0  0  0
 17 19  1  6  0  0  0
 17 20  1  0  0  0  0
 20 22  1  6  0  0  0
 20 24  1  0  0  0  0
 23 21  1  6  0  0  0
 23 26  1  0  0  0  0
 23 33  1  0  0  0  0
 24 25  1  1  0  0  0
 24 27  1  0  0  0  0
 26 29  1  1  0  0  0
 26 31  1  0  0  0  0
 27 28  1  0  0  0  0
 29 30  2  0  0  0  0
 31 32  1  0  0  0  0
 33 32  1  1  0  0  0
 34 36  1  0  0  0  0
 34 42  1  0  0  0  0
 36 37  1  6  0  0  0
 36 39  1  0  0  0  0
 40 39  1  1  0  0  0
 40 41  1  0  0  0  0
 40 46  1  0  0  0  0
 41 42  1  1  0  0  0
 41 44  1  0  0  0  0
 42 43  2  0  0  0  0
 44 45  1  0  0  0  0
 46 45  1  6  0  0  0
M  CHG  2   3  -1  35  -1
M  END
>  <CHROM.1>
-21.97178712,110.23502751,0.36733597,-3.80770120,-0.33666764,2.67419259,0.20000659
-1.31708278

>  <Name>
ligand

>  <RI>
-1

>  <Rbt.Current_Directory>
/home/itssahil/PROJECTS/Mol_Feturizer/Test_systems_manuscript/rnas/3mum

>  <Rbt.Executable>
rbdock ($Id: //depot/dev/client3/rdock/2013.1/src/exe/rbdock.cxx#4 $)

>  <Rbt.Library>
libRbt.so (2013.1, Build901 2013/11/27)

>  <Rbt.Parameter_File>
/export/apps/rDock/src/rDock_2013.1_src/data/scripts/dock_solv.prm

>  <Rbt.Receptor>
prm/blind_docking_20.prm

>  <SCORE>
50.558

>  <SCORE.INTER>
50.0875

>  <SCORE.INTER.CONST>
1

>  <SCORE.INTER.POLAR>
0

>  <SCORE.INTER.ROT>
2

>  <SCORE.INTER.SOLV>
27.699

>  <SCORE.INTER.VDW>
19.2253

>  <SCORE.INTER.norm>
1.08886

>  <SCORE.INTRA>
-0.531826

>  <SCORE.INTRA.DIHEDRAL>
0.0131045

>  <SCORE.INTRA.DIHEDRAL.0>
2.40424

>  <SCORE.INTRA.POLAR>
0

>  <SCORE.INTRA.POLAR.0>
0

>  <SCORE.INTRA.REPUL>
0

>  <SCORE.INTRA.REPUL.0>
0

>  <SCORE.INTRA.SOLV>
0.0951748

>  <SCORE.INTRA.SOLV.lig_0>
-134.169

>  <SCORE.INTRA.VDW>
-0.585966

>  <SCORE.INTRA.VDW.0>
-2.18386

>  <SCORE.INTRA.norm>
-0.0115614

>  <SCORE.RESTR>
1.00235

>  <SCORE.RESTR.CAVITY>
1.00235

>  <SCORE.RESTR.norm>
0.0217903

>  <SCORE.SYSTEM>
0

>  <SCORE.SYSTEM.CONST>
0

>  <SCORE.SYSTEM.DIHEDRAL>
0

>  <SCORE.SYSTEM.SOLV>
0

>  <SCORE.SYSTEM.norm>
0

>  <SCORE.heavy>
46

>  <SCORE.norm>
1.09909

>  <RMSD>
20.336

$$$$
ligand
 OpenBabel02271912143D
libRbt.so/2013.1/901 2013/11/27
 46 52  0  0  0  0  0  0  0  0999 V2000
   -5.7658   -4.1460    0.6706 P   0  0  1  0  0  0  0  0  0  0  0  0
    0.0344   -4.4733   -0.2915 P   0  0  2  0  0  0  0  0  0  0  0  0
   -6.6299   -3.9230   -0.8609 O   0  5  0  0  0  0  0  0  0  0  0  0
   -6.8921   -4.3107    2.0432 O   0  0  0  0  0  0  0  0  0  0  0  0
   -3.9442   -5.8360    1.5918 C   0  0  0  0  0  0  0  0  0  0  0  0
   -4.8412   -5.4608    0.5463 O   0  0  0  0  0  0  0  0  0  0  0  0
   -2.8988   -6.7739    1.0188 C   0  0  1  0  0  0  0  0  0  0  0  0
   -3.5498   -7.8606    0.3455 O   0  0  0  0  0  0  0  0  0  0  0  0
   -2.0131   -6.1181   -0.0281 C   0  0  1  0  0  0  0  0  0  0  0  0
   -0.8416   -5.5412    0.5445 O   0  0  0  0  0  0  0  0  0  0  0  0
   -1.6816   -7.2648   -0.9668 C   0  0  1  0  0  0  0  0  0  0  0  0
   -0.5082   -7.9453   -0.5145 O   0  0  0  0  0  0  0  0  0  0  0  0
   -2.8615   -8.2135   -0.8646 C   0  0  2  0  0  0  0  0  0  0  0  0
   -3.2800   -0.6862   -1.4097 C   0  0  1  0  0  0  0  0  0  0  0  0
   -4.4401   -5.2165   -4.9535 N   0  0  0  0  0  0  0  0  0  0  0  0
   -3.4613   -4.9733   -4.0397 C   0  0  1  0  0  0  0  0  0  0  0  0
   -4.3679   -1.6724   -1.0916 C   0  0  2  0  0  0  0  0  0  0  0  0
   -2.7632   -3.8188   -4.1422 N   0  0  0  0  0  0  0  0  0  0  0  0
   -5.4632   -0.9137   -0.5759 O   0  0  0  0  0  0  0  0  0  0  0  0
   -3.7654   -2.5874   -0.0440 C   0  0  2  0  0  0  0  0  0  0  0  0
   -3.1609   -5.8418   -3.0287 N   0  0  0  0  0  0  0  0  0  0  0  0
   -4.7186   -2.9553    0.9436 O   0  0  0  0  0  0  0  0  0  0  0  0
   -3.8302   -7.0134   -2.8841 C   0  0  2  0  0  0  0  0  0  0  0  0
   -2.6506   -1.7760    0.5864 C   0  0  2  0  0  0  0  0  0  0  0  0
   -2.3084   -0.7726   -0.3683 O   0  0  0  0  0  0  0  0  0  0  0  0
   -4.9023   -7.3244   -3.8454 C   0  0  1  0  0  0  0  0  0  0  0  0
   -1.4179   -2.6134    0.9081 C   0  0  0  0  0  0  0  0  0  0  0  0
   -0.8927   -3.1569   -0.3048 O   0  0  0  0  0  0  0  0  0  0  0  0
   -5.1796   -6.3484   -4.9144 C   0  0  0  0  0  0  0  0  0  0  0  0
   -6.1563   -6.5813   -5.8276 O   0  0  0  0  0  0  0  0  0  0  0  0
   -5.4074   -8.5120   -3.4938 N   0  0  0  0  0  0  0  0  0  0  0  0
   -4.7201   -8.9361   -2.3932 C   0  0  0  0  0  0  0  0  0  0  0  0
   -3.7771   -8.0438   -2.0240 N   0  0  1  0  0  0  0  0  0  0  0  0
    0.9687   -2.4437   -3.9053 N   0  0  0  0  0  0  0  0  0  0  0  0
    0.3409   -5.0400   -1.9546 O   0  5  0  0  0  0  0  0  0  0  0  0
    0.7543   -2.2598   -2.5737 C   0  0  2  0  0  0  0  0  0  0  0  0
    1.7450   -2.5613   -1.6943 N   0  0  0  0  0  0  0  0  0  0  0  0
    1.5753   -4.0641    0.4871 O   0  0  0  0  0  0  0  0  0  0  0  0
   -0.4257   -1.7821   -2.0922 N   0  0  0  0  0  0  0  0  0  0  0  0
   -1.4520   -1.4703   -2.9178 C   0  0  2  0  0  0  0  0  0  0  0  0
   -1.2797   -1.6448   -4.3661 C   0  0  2  0  0  0  0  0  0  0  0  0
    0.0259   -2.1615   -4.8293 C   0  0  0  0  0  0  0  0  0  0  0  0
    0.2786   -2.3529   -6.1477 O   0  0  0  0  0  0  0  0  0  0  0  0
   -2.4342   -1.2544   -4.9413 N   0  0  0  0  0  0  0  0  0  0  0  0
   -3.2788   -0.8655   -3.9400 C   0  0  0  0  0  0  0  0  0  0  0  0
   -2.6847   -0.9945   -2.7321 N   0  0  1  0  0  0  0  0  0  0  0  0
  1  3  1  6  0  0  0
  1  4  2  0  0  0  0
  1  6  1  0  0  0  0
  1 22  1  0  0  0  0
  2 28  1  0  0  0  0
  2 35  1  6  0  0  0
  2 38  2  0  0  0  0
  2 10  1  0  0  0  0
  5  6  1  0  0  0  0
  7  5  1  6  0  0  0
  7  8  1  0  0  0  0
  7  9  1  0  0  0  0
  9 10  1  1  0  0  0
  9 11  1  0  0  0  0
 11 12  1  1  0  0  0
 11 13  1  0  0  0  0
 13  8  1  1  0  0  0
 13 33  1  0  0  0  0
 14 46  1  0  0  0  0
 14 17  1  0  0  0  0
 14 25  1  1  0  0  0
 15 16  1  0  0  0  0
 15 29  1  0  0  0  0
 16 18  1  1  0  0  0
 16 21  1  0  0  0  0
 17 19  1  1  0  0  0
 17 20  1  0  0  0  0
 20 22  1  1  0  0  0
 20 24  1  0  0  0  0
 23 21  1  1  0  0  0
 23 26  1  0  0  0  0
 23 33  1  0  0  0  0
 24 25  1  6  0  0  0
 24 27  1  0  0  0  0
 26 29  1  6  0  0  0
 26 31  1  0  0  0  0
 27 28  1  0  0  0  0
 29 30  2  0  0  0  0
 31 32  1  0  0  0  0
 33 32  1  6  0  0  0
 34 36  1  0  0  0  0
 34 42  1  0  0  0  0
 36 37  1  1  0  0  0
 36 39  1  0  0  0  0
 40 39  1  6  0  0  0
 40 41  1  0  0  0  0
 40 46  1  0  0  0  0
 41 42  1  6  0  0  0
 41 44  1  0  0  0  0
 42 43  2  0  0  0  0
 44 45  1  0  0  0  0
 46 45  1  1  0  0  0
M  CHG  2   3  -1  35  -1
M  END
>  <CHROM.1>
99.88256780,-110.38737379,-2.72771548,-4.27475036,-1.59084591,3.05018985
-0.86459938,-2.01521872

>  <Name>
ligand

>  <RI>
-1

>  <Rbt.Current_Directory>
/home/itssahil/PROJECTS/Mol_Feturizer/Test_systems_manuscript/rnas/3mum

>  <Rbt.Executable>
rbdock ($Id: //depot/dev/client3/rdock/2013.1/src/exe/rbdock.cxx#4 $)

>  <Rbt.Library>
libRbt.so (2013.1, Build901 2013/11/27)

>  <Rbt.Parameter_File>
/export/apps/rDock/src/rDock_2013.1_src/data/scripts/dock_solv.prm

>  <Rbt.Receptor>
prm/blind_docking_20.prm

>  <SCORE>
40.4728

>  <SCORE.INTER>
31.1498

>  <SCORE.INTER.CONST>
1

>  <SCORE.INTER.POLAR>
0

>  <SCORE.INTER.ROT>
2

>  <SCORE.INTER.SOLV>
38.2028

>  <SCORE.INTER.VDW>
3.09893

>  <SCORE.INTER.norm>
0.677169

>  <SCORE.INTRA>
8.74509

>  <SCORE.INTRA.DIHEDRAL>
-0.0138336

>  <SCORE.INTRA.DIHEDRAL.0>
2.40424

>  <SCORE.INTRA.POLAR>
0

>  <SCORE.INTRA.POLAR.0>
0

>  <SCORE.INTRA.REPUL>
0

>  <SCORE.INTRA.REPUL.0>
0

>  <SCORE.INTRA.SOLV>
18.0804

>  <SCORE.INTRA.SOLV.lig_0>
-134.169

>  <SCORE.INTRA.VDW>
-0.288207

>  <SCORE.INTRA.VDW.0>
-2.18386

>  <SCORE.INTRA.norm>
0.190111

>  <SCORE.RESTR>
0.577895

>  <SCORE.RESTR.CAVITY>
0.577895

>  <SCORE.RESTR.norm>
0.0125629

>  <SCORE.SYSTEM>
0

>  <SCORE.SYSTEM.CONST>
0

>  <SCORE.SYSTEM.DIHEDRAL>
0

>  <SCORE.SYSTEM.SOLV>
0

>  <SCORE.SYSTEM.norm>
0

>  <SCORE.heavy>
46

>  <SCORE.norm>
0.879843

>  <RMSD>
20.376

$$$$
ligand
 OpenBabel02271912143D
libRbt.so/2013.1/901 2013/11/27
 46 52  0  0  0  0  0  0  0  0999 V2000
   -5.7883   -4.1580    0.6504 P   0  0  1  0  0  0  0  0  0  0  0  0
    0.0149   -4.5000   -0.2889 P   0  0  2  0  0  0  0  0  0  0  0  0
   -6.6453   -3.9281   -0.8840 O   0  5  0  0  0  0  0  0  0  0  0  0
   -6.9206   -4.3233    2.0178 O   0  0  0  0  0  0  0  0  0  0  0  0
   -3.9754   -5.8562    1.5742 C   0  0  0  0  0  0  0  0  0  0  0  0
   -4.8670   -5.4753    0.5261 O   0  0  0  0  0  0  0  0  0  0  0  0
   -2.9306   -6.7956    1.0028 C   0  0  1  0  0  0  0  0  0  0  0  0
   -3.5820   -7.8784    0.3237 O   0  0  0  0  0  0  0  0  0  0  0  0
   -2.0386   -6.1394   -0.0385 C   0  0  1  0  0  0  0  0  0  0  0  0
   -0.8677   -5.5676    0.5405 O   0  0  0  0  0  0  0  0  0  0  0  0
   -1.7067   -7.2844   -0.9791 C   0  0  1  0  0  0  0  0  0  0  0  0
   -0.5372   -7.9696   -0.5240 O   0  0  0  0  0  0  0  0  0  0  0  0
   -2.8898   -8.2298   -0.8846 C   0  0  2  0  0  0  0  0  0  0  0  0
   -3.2836   -0.6998   -1.4098 C   0  0  1  0  0  0  0  0  0  0  0  0
   -4.4814   -5.1905   -4.9370 N   0  0  0  0  0  0  0  0  0  0  0  0
   -3.5118   -4.9487   -4.0131 C   0  0  1  0  0  0  0  0  0  0  0  0
   -4.3758   -1.6837   -1.0990 C   0  0  2  0  0  0  0  0  0  0  0  0
   -2.8283   -3.7837   -4.0930 N   0  0  0  0  0  0  0  0  0  0  0  0
   -5.4709   -0.9232   -0.5856 O   0  0  0  0  0  0  0  0  0  0  0  0
   -3.7803   -2.6034   -0.0516 C   0  0  2  0  0  0  0  0  0  0  0  0
   -3.2064   -5.8289   -3.0137 N   0  0  0  0  0  0  0  0  0  0  0  0
   -4.7386   -2.9713    0.9311 O   0  0  0  0  0  0  0  0  0  0  0  0
   -3.8612   -7.0113   -2.8916 C   0  0  2  0  0  0  0  0  0  0  0  0
   -2.6657   -1.7972    0.5857 C   0  0  2  0  0  0  0  0  0  0  0  0
   -2.3165   -0.7921   -0.3646 O   0  0  0  0  0  0  0  0  0  0  0  0
   -4.9229   -7.3212   -3.8647 C   0  0  1  0  0  0  0  0  0  0  0  0
   -1.4368   -2.6392    0.9101 C   0  0  0  0  0  0  0  0  0  0  0  0
   -0.9082   -3.1807   -0.3022 O   0  0  0  0  0  0  0  0  0  0  0  0
   -5.2062   -6.3324   -4.9202 C   0  0  0  0  0  0  0  0  0  0  0  0
   -6.1739   -6.5638   -5.8434 O   0  0  0  0  0  0  0  0  0  0  0  0
   -5.4146   -8.5206   -3.5349 N   0  0  0  0  0  0  0  0  0  0  0  0
   -4.7288   -8.9528   -2.4364 C   0  0  0  0  0  0  0  0  0  0  0  0
   -3.8000   -8.0541   -2.0473 N   0  0  1  0  0  0  0  0  0  0  0  0
    0.9741   -2.4522   -3.8936 N   0  0  0  0  0  0  0  0  0  0  0  0
    0.3265   -5.0628   -1.9523 O   0  5  0  0  0  0  0  0  0  0  0  0
    0.7552   -2.2700   -2.5625 C   0  0  2  0  0  0  0  0  0  0  0  0
    1.7432   -2.5723   -1.6802 N   0  0  0  0  0  0  0  0  0  0  0  0
    1.5538   -4.0976    0.4973 O   0  0  0  0  0  0  0  0  0  0  0  0
   -0.4265   -1.7935   -2.0842 N   0  0  0  0  0  0  0  0  0  0  0  0
   -1.4502   -1.4811   -2.9128 C   0  0  2  0  0  0  0  0  0  0  0  0
   -1.2730   -1.6537   -4.3608 C   0  0  2  0  0  0  0  0  0  0  0  0
    0.0343   -2.1692   -4.8204 C   0  0  0  0  0  0  0  0  0  0  0  0
    0.2915   -2.3587   -6.1381 O   0  0  0  0  0  0  0  0  0  0  0  0
   -2.4259   -1.2630   -4.9393 N   0  0  0  0  0  0  0  0  0  0  0  0
   -3.2739   -0.8758   -3.9404 C   0  0  0  0  0  0  0  0  0  0  0  0
   -2.6838   -1.0061   -2.7306 N   0  0  1  0  0  0  0  0  0  0  0  0
  1  3  1  6  0  0  0
  1  4  2  0  0  0  0
  1  6  1  0  0  0  0
  1 22  1  0  0  0  0
  2 28  1  0  0  0  0
  2 35  1  6  0  0  0
  2 38  2  0  0  0  0
  2 10  1  0  0  0  0
  5  6  1  0  0  0  0
  7  5  1  6  0  0  0
  7  8  1  0  0  0  0
  7  9  1  0  0  0  0
  9 10  1  1  0  0  0
  9 11  1  0  0  0  0
 11 12  1  1  0  0  0
 11 13  1  0  0  0  0
 13  8  1  1  0  0  0
 13 33  1  0  0  0  0
 14 46  1  0  0  0  0
 14 17  1  0  0  0  0
 14 25  1  1  0  0  0
 15 16  1  0  0  0  0
 15 29  1  0  0  0  0
 16 18  1  1  0  0  0
 16 21  1  0  0  0  0
 17 19  1  1  0  0  0
 17 20  1  0  0  0  0
 20 22  1  1  0  0  0
 20 24  1  0  0  0  0
 23 21  1  1  0  0  0
 23 26  1  0  0  0  0
 23 33  1  0  0  0  0
 24 25  1  6  0  0  0
 24 27  1  0  0  0  0
 26 29  1  6  0  0  0
 26 31  1  0  0  0  0
 27 28  1  0  0  0  0
 29 30  2  0  0  0  0
 31 32  1  0  0  0  0
 33 32  1  6  0  0  0
 34 36  1  0  0  0  0
 34 42  1  0  0  0  0
 36 37  1  1  0  0  0
 36 39  1  0  0  0  0
 40 39  1  6  0  0  0
 40 41  1  0  0  0  0
 40 46  1  0  0  0  0
 41 42  1  6  0  0  0
 41 44  1  0  0  0  0
 42 43  2  0  0  0  0
 44 45  1  0  0  0  0
 46 45  1  1  0  0  0
M  CHG  2   3  -1  35  -1
M  END
>  <CHROM.1>
98.70158679,-110.60761386,-2.74500368,-4.28547153,-1.59532171,3.05924940
-0.86018352,-1.99650983

>  <Name>
ligand

>  <RI>
-1

>  <Rbt.Current_Directory>
/home/itssahil/PROJECTS/Mol_Feturizer/Test_systems_manuscript/rnas/3mum

>  <Rbt.Executable>
rbdock ($Id: //depot/dev/client3/rdock/2013.1/src/exe/rbdock.cxx#4 $)

>  <Rbt.Library>
libRbt.so (2013.1, Build901 2013/11/27)

>  <Rbt.Parameter_File>
/export/apps/rDock/src/rDock_2013.1_src/data/scripts/dock_solv.prm

>  <Rbt.Receptor>
prm/blind_docking_20.prm

>  <SCORE>
40.3648

>  <SCORE.INTER>
31.1881

>  <SCORE.INTER.CONST>
1

>  <SCORE.INTER.POLAR>
0

>  <SCORE.INTER.ROT>
2

>  <SCORE.INTER.SOLV>
37.925

>  <SCORE.INTER.VDW>
3.21705

>  <SCORE.INTER.norm>
0.678001

>  <SCORE.INTRA>
8.56905

>  <SCORE.INTRA.DIHEDRAL>
-0.0134469

>  <SCORE.INTRA.DIHEDRAL.0>
2.40424

>  <SCORE.INTRA.POLAR>
0

>  <SCORE.INTRA.POLAR.0>
0

>  <SCORE.INTRA.REPUL>
0

>  <SCORE.INTRA.REPUL.0>
0

>  <SCORE.INTRA.SOLV>
18.1758

>  <SCORE.INTRA.SOLV.lig_0>
-134.169

>  <SCORE.INTRA.VDW>
-0.512119

>  <SCORE.INTRA.VDW.0>
-2.18386

>  <SCORE.INTRA.norm>
0.186284

>  <SCORE.RESTR>
0.60765

>  <SCORE.RESTR.CAVITY>
0.60765

>  <SCORE.RESTR.norm>
0.0132098

>  <SCORE.SYSTEM>
0

>  <SCORE.SYSTEM.CONST>
0

>  <SCORE.SYSTEM.DIHEDRAL>
0

>  <SCORE.SYSTEM.SOLV>
0

>  <SCORE.SYSTEM.norm>
0

>  <SCORE.heavy>
46

>  <SCORE.norm>
0.877495

>  <RMSD>
20.379

$$$$
ligand
 OpenBabel02271912143D
libRbt.so/2013.1/901 2013/11/27
 46 52  0  0  0  0  0  0  0  0999 V2000
   -5.1564   -3.2389   -0.0412 P   0  0  1  0  0  0  0  0  0  0  0  0
    0.5859   -4.5428   -0.0874 P   0  0  2  0  0  0  0  0  0  0  0  0
   -5.8159   -3.3158   -1.6846 O   0  5  0  0  0  0  0  0  0  0  0  0
   -6.4266   -2.8941    1.1617 O   0  0  0  0  0  0  0  0  0  0  0  0
   -3.7271   -4.8472    1.5059 C   0  0  0  0  0  0  0  0  0  0  0  0
   -4.4437   -4.6472    0.2874 O   0  0  0  0  0  0  0  0  0  0  0  0
   -2.7912   -6.0276    1.3284 C   0  0  1  0  0  0  0  0  0  0  0  0
   -3.5350   -7.1604    0.8577 O   0  0  0  0  0  0  0  0  0  0  0  0
   -1.7122   -5.7867    0.2852 C   0  0  1  0  0  0  0  0  0  0  0  0
   -0.5276   -5.2344    0.8552 O   0  0  0  0  0  0  0  0  0  0  0  0
   -1.4738   -7.1715   -0.2905 C   0  0  1  0  0  0  0  0  0  0  0  0
   -0.4743   -7.8538    0.4710 O   0  0  0  0  0  0  0  0  0  0  0  0
   -2.7932   -7.9020   -0.1233 C   0  0  2  0  0  0  0  0  0  0  0  0
   -1.9580   -0.7894   -2.5406 C   0  0  1  0  0  0  0  0  0  0  0  0
   -7.4988   -7.7287   -2.5769 N   0  0  0  0  0  0  0  0  0  0  0  0
   -7.2235   -7.6706   -1.2453 C   0  0  1  0  0  0  0  0  0  0  0  0
   -3.2146   -1.5111   -2.1442 C   0  0  2  0  0  0  0  0  0  0  0  0
   -8.2592   -7.5536   -0.3825 N   0  0  0  0  0  0  0  0  0  0  0  0
   -4.2222   -0.5108   -1.9849 O   0  0  0  0  0  0  0  0  0  0  0  0
   -2.8728   -2.1895   -0.8325 C   0  0  2  0  0  0  0  0  0  0  0  0
   -5.9516   -7.7287   -0.7498 N   0  0  0  0  0  0  0  0  0  0  0  0
   -3.9666   -2.1618    0.0744 O   0  0  0  0  0  0  0  0  0  0  0  0
   -4.8791   -7.8440   -1.5732 C   0  0  2  0  0  0  0  0  0  0  0  0
   -1.7127   -1.3904   -0.2720 C   0  0  2  0  0  0  0  0  0  0  0  0
   -1.1218   -0.7236   -1.3862 O   0  0  0  0  0  0  0  0  0  0  0  0
   -5.1219   -7.9142   -3.0246 C   0  0  1  0  0  0  0  0  0  0  0  0
   -0.6667   -2.2647    0.4107 C   0  0  0  0  0  0  0  0  0  0  0  0
   -0.1151   -3.1686   -0.5488 O   0  0  0  0  0  0  0  0  0  0  0  0
   -6.5157   -7.8461   -3.4985 C   0  0  0  0  0  0  0  0  0  0  0  0
   -6.7995   -7.9070   -4.8243 O   0  0  0  0  0  0  0  0  0  0  0  0
   -3.9266   -8.0300   -3.6136 N   0  0  0  0  0  0  0  0  0  0  0  0
   -2.9853   -8.0361   -2.6249 C   0  0  0  0  0  0  0  0  0  0  0  0
   -3.5492   -7.9261   -1.4036 N   0  0  1  0  0  0  0  0  0  0  0  0
    2.3091   -1.0121   -5.5591 N   0  0  0  0  0  0  0  0  0  0  0  0
    0.9643   -5.5588   -1.5035 O   0  5  0  0  0  0  0  0  0  0  0  0
    1.9924   -0.1423   -4.5611 C   0  0  2  0  0  0  0  0  0  0  0  0
    2.8699    0.8429   -4.2364 N   0  0  0  0  0  0  0  0  0  0  0  0
    2.0860   -4.1442    0.7721 O   0  0  0  0  0  0  0  0  0  0  0  0
    0.8206   -0.2279   -3.8742 N   0  0  0  0  0  0  0  0  0  0  0  0
   -0.0902   -1.1913   -4.1471 C   0  0  2  0  0  0  0  0  0  0  0  0
    0.1937   -2.1580   -5.2159 C   0  0  2  0  0  0  0  0  0  0  0  0
    1.4799   -2.0106   -5.9302 C   0  0  0  0  0  0  0  0  0  0  0  0
    1.8279   -2.8542   -6.9331 O   0  0  0  0  0  0  0  0  0  0  0  0
   -0.8691   -2.9842   -5.2805 N   0  0  0  0  0  0  0  0  0  0  0  0
   -1.7595   -2.5804   -4.3260 C   0  0  0  0  0  0  0  0  0  0  0  0
   -1.2891   -1.5058   -3.6530 N   0  0  1  0  0  0  0  0  0  0  0  0
  1  3  1  6  0  0  0
  1  4  2  0  0  0  0
  1  6  1  0  0  0  0
  1 22  1  0  0  0  0
  2 28  1  0  0  0  0
  2 35  1  6  0  0  0
  2 38  2  0  0  0  0
  2 10  1  0  0  0  0
  5  6  1  0  0  0  0
  7  5  1  6  0  0  0
  7  8  1  0  0  0  0
  7  9  1  0  0  0  0
  9 10  1  1  0  0  0
  9 11  1  0  0  0  0
 11 12  1  1  0  0  0
 11 13  1  0  0  0  0
 13  8  1  1  0  0  0
 13 33  1  0  0  0  0
 14 46  1  0  0  0  0
 14 17  1  0  0  0  0
 14 25  1  1  0  0  0
 15 16  1  0  0  0  0
 15 29  1  0  0  0  0
 16 18  1  1  0  0  0
 16 21  1  0  0  0  0
 17 19  1  1  0  0  0
 17 20  1  0  0  0  0
 20 22  1  1  0  0  0
 20 24  1  0  0  0  0
 23 21  1  1  0  0  0
 23 26  1  0  0  0  0
 23 33  1  0  0  0  0
 24 25  1  6  0  0  0
 24 27  1  0  0  0  0
 26 29  1  6  0  0  0
 26 31  1  0  0  0  0
 27 28  1  0  0  0  0
 29 30  2  0  0  0  0
 31 32  1  0  0  0  0
 33 32  1  6  0  0  0
 34 36  1  0  0  0  0
 34 42  1  0  0  0  0
 36 37  1  1  0  0  0
 36 39  1  0  0  0  0
 40 39  1  6  0  0  0
 40 41  1  0  0  0  0
 40 46  1  0  0  0  0
 41 42  1  6  0  0  0
 41 44  1  0  0  0  0
 42 43  2  0  0  0  0
 44 45  1  0  0  0  0
 46 45  1  1  0  0  0
M  CHG  2   3  -1  35  -1
M  END
>  <CHROM.1>
-27.68055525,-173.41444330,-2.38778539,-4.24726955,-1.68061650,-2.55798716
-0.54277785,-1.10156145

>  <Name>
ligand

>  <RI>
-1

>  <Rbt.Current_Directory>
/home/itssahil/PROJECTS/Mol_Feturizer/Test_systems_manuscript/rnas/3mum

>  <Rbt.Executable>
rbdock ($Id: //depot/dev/client3/rdock/2013.1/src/exe/rbdock.cxx#4 $)

>  <Rbt.Library>
libRbt.so (2013.1, Build901 2013/11/27)

>  <Rbt.Parameter_File>
/export/apps/rDock/src/rDock_2013.1_src/data/scripts/dock_solv.prm

>  <Rbt.Receptor>
prm/blind_docking_20.prm

>  <SCORE>
14.276

>  <SCORE.INTER>
13.2863

>  <SCORE.INTER.CONST>
1

>  <SCORE.INTER.POLAR>
0

>  <SCORE.INTER.ROT>
2

>  <SCORE.INTER.SOLV>
41.6173

>  <SCORE.INTER.VDW>
-9.94822

>  <SCORE.INTER.norm>
0.288833

>  <SCORE.INTRA>
0.4759

>  <SCORE.INTRA.DIHEDRAL>
0.00806969

>  <SCORE.INTRA.DIHEDRAL.0>
2.40424

>  <SCORE.INTRA.POLAR>
0

>  <SCORE.INTRA.POLAR.0>
0

>  <SCORE.INTRA.REPUL>
0

>  <SCORE.INTRA.REPUL.0>
0

>  <SCORE.INTRA.SOLV>
0.0636

>  <SCORE.INTRA.SOLV.lig_0>
-134.169

>  <SCORE.INTRA.VDW>
0.440065

>  <SCORE.INTRA.VDW.0>
-2.18386

>  <SCORE.INTRA.norm>
0.0103457

>  <SCORE.RESTR>
0.513757

>  <SCORE.RESTR.CAVITY>
0.513757

>  <SCORE.RESTR.norm>
0.0111686

>  <SCORE.SYSTEM>
0

>  <SCORE.SYSTEM.CONST>
0

>  <SCORE.SYSTEM.DIHEDRAL>
0

>  <SCORE.SYSTEM.SOLV>
0

>  <SCORE.SYSTEM.norm>
0

>  <SCORE.heavy>
46

>  <SCORE.norm>
0.310347

>  <RMSD>
20.385

$$$$
ligand
 OpenBabel02271912143D
libRbt.so/2013.1/901 2013/11/27
 46 52  0  0  0  0  0  0  0  0999 V2000
    0.5998   -4.4530    0.1253 P   0  0  1  0  0  0  0  0  0  0  0  0
   -5.2112   -3.5947   -0.2893 P   0  0  2  0  0  0  0  0  0  0  0  0
    1.1824   -5.3872   -1.2638 O   0  5  0  0  0  0  0  0  0  0  0  0
    1.9397   -3.9536    1.1904 O   0  0  0  0  0  0  0  0  0  0  0  0
   -0.8627   -2.2689    0.4631 C   0  0  0  0  0  0  0  0  0  0  0  0
   -0.1873   -3.1586   -0.4262 O   0  0  0  0  0  0  0  0  0  0  0  0
   -1.8793   -1.4709   -0.3309 C   0  0  1  0  0  0  0  0  0  0  0  0
   -1.2306   -0.8495   -1.4494 O   0  0  0  0  0  0  0  0  0  0  0  0
   -2.9840   -2.3289   -0.9257 C   0  0  1  0  0  0  0  0  0  0  0  0
   -4.1052   -2.4425   -0.0521 O   0  0  0  0  0  0  0  0  0  0  0  0
   -3.3353   -1.5977   -2.2094 C   0  0  1  0  0  0  0  0  0  0  0  0
   -4.3432   -0.6160   -1.9545 O   0  0  0  0  0  0  0  0  0  0  0  0
   -2.0597   -0.8867   -2.6215 C   0  0  2  0  0  0  0  0  0  0  0  0
   -2.5381   -7.9992   -0.1086 C   0  0  1  0  0  0  0  0  0  0  0  0
    2.3126   -1.5096   -5.5690 N   0  0  0  0  0  0  0  0  0  0  0  0
    2.0628   -0.6008   -4.5871 C   0  0  1  0  0  0  0  0  0  0  0  0
   -1.3147   -7.1558   -0.3304 C   0  0  2  0  0  0  0  0  0  0  0  0
    3.0314    0.2930   -4.2812 N   0  0  0  0  0  0  0  0  0  0  0  0
   -0.2391   -7.8214    0.3338 O   0  0  0  0  0  0  0  0  0  0  0  0
   -1.6432   -5.8227    0.3120 C   0  0  2  0  0  0  0  0  0  0  0  0
    0.8794   -0.5547   -3.9058 N   0  0  0  0  0  0  0  0  0  0  0  0
   -0.5122   -5.2598    0.9628 O   0  0  0  0  0  0  0  0  0  0  0  0
   -0.1225   -1.4300   -4.1735 C   0  0  2  0  0  0  0  0  0  0  0  0
   -2.7245   -6.1360    1.3273 C   0  0  2  0  0  0  0  0  0  0  0  0
   -3.3183   -7.3614    0.9017 O   0  0  0  0  0  0  0  0  0  0  0  0
    0.0952   -2.4330   -5.2304 C   0  0  1  0  0  0  0  0  0  0  0  0
   -3.7945   -5.0528    1.4060 C   0  0  0  0  0  0  0  0  0  0  0  0
   -4.4436   -4.9442    0.1376 O   0  0  0  0  0  0  0  0  0  0  0  0
    1.3925   -2.4331   -5.9296 C   0  0  0  0  0  0  0  0  0  0  0  0
    1.6488   -3.3333   -6.9124 O   0  0  0  0  0  0  0  0  0  0  0  0
   -1.0225   -3.1636   -5.3091 N   0  0  0  0  0  0  0  0  0  0  0  0
   -1.8946   -2.6735   -4.3802 C   0  0  0  0  0  0  0  0  0  0  0  0
   -1.3622   -1.6368   -3.6995 N   0  0  1  0  0  0  0  0  0  0  0  0
   -7.0825   -7.0393   -2.5159 N   0  0  0  0  0  0  0  0  0  0  0  0
   -5.7142   -3.6744   -1.9985 O   0  5  0  0  0  0  0  0  0  0  0  0
   -6.6999   -6.7698   -1.2377 C   0  0  2  0  0  0  0  0  0  0  0  0
   -7.5738   -6.1536   -0.3995 N   0  0  0  0  0  0  0  0  0  0  0  0
   -6.6445   -3.4168    0.7412 O   0  0  0  0  0  0  0  0  0  0  0  0
   -5.4647   -7.0980   -0.7699 N   0  0  0  0  0  0  0  0  0  0  0  0
   -4.5486   -7.7068   -1.5589 C   0  0  2  0  0  0  0  0  0  0  0  0
   -4.9042   -8.0262   -2.9478 C   0  0  2  0  0  0  0  0  0  0  0  0
   -6.2620   -7.6506   -3.3965 C   0  0  0  0  0  0  0  0  0  0  0  0
   -6.6811   -7.9074   -4.6602 O   0  0  0  0  0  0  0  0  0  0  0  0
   -3.8286   -8.6289   -3.4921 N   0  0  0  0  0  0  0  0  0  0  0  0
   -2.8610   -8.6861   -2.5290 C   0  0  0  0  0  0  0  0  0  0  0  0
   -3.2985   -8.1353   -1.3740 N   0  0  1  0  0  0  0  0  0  0  0  0
  1  3  1  6  0  0  0
  1  4  2  0  0  0  0
  1  6  1  0  0  0  0
  1 22  1  0  0  0  0
  2 28  1  0  0  0  0
  2 35  1  6  0  0  0
  2 38  2  0  0  0  0
  2 10  1  0  0  0  0
  5  6  1  0  0  0  0
  7  5  1  6  0  0  0
  7  8  1  0  0  0  0
  7  9  1  0  0  0  0
  9 10  1  1  0  0  0
  9 11  1  0  0  0  0
 11 12  1  1  0  0  0
 11 13  1  0  0  0  0
 13  8  1  1  0  0  0
 13 33  1  0  0  0  0
 14 46  1  0  0  0  0
 14 17  1  0  0  0  0
 14 25  1  1  0  0  0
 15 16  1  0  0  0  0
 15 29  1  0  0  0  0
 16 18  1  6  0  0  0
 16 21  1  0  0  0  0
 17 19  1  1  0  0  0
 17 20  1  0  0  0  0
 20 22  1  1  0  0  0
 20 24  1  0  0  0  0
 23 21  1  6  0  0  0
 23 26  1  0  0  0  0
 23 33  1  0  0  0  0
 24 25  1  6  0  0  0
 24 27  1  0  0  0  0
 26 29  1  1  0  0  0
 26 31  1  0  0  0  0
 27 28  1  0  0  0  0
 29 30  2  0  0  0  0
 31 32  1  0  0  0  0
 33 32  1  1  0  0  0
 34 36  1  0  0  0  0
 34 42  1  0  0  0  0
 36 37  1  6  0  0  0
 36 39  1  0  0  0  0
 40 39  1  1  0  0  0
 40 41  1  0  0  0  0
 40 46  1  0  0  0  0
 41 42  1  1  0  0  0
 41 44  1  0  0  0  0
 42 43  2  0  0  0  0
 44 45  1  0  0  0  0
 46 45  1  6  0  0  0
M  CHG  2   3  -1  35  -1
M  END
>  <CHROM.1>
-52.63384754,-118.36326894,-2.33539320,-4.33611210,-1.68703206,-0.69543335
0.32752346,2.29032146

>  <Name>
ligand

>  <RI>
-1

>  <Rbt.Current_Directory>
/home/itssahil/PROJECTS/Mol_Feturizer/Test_systems_manuscript/rnas/3mum

>  <Rbt.Executable>
rbdock ($Id: //depot/dev/client3/rdock/2013.1/src/exe/rbdock.cxx#4 $)

>  <Rbt.Library>
libRbt.so (2013.1, Build901 2013/11/27)

>  <Rbt.Parameter_File>
/export/apps/rDock/src/rDock_2013.1_src/data/scripts/dock_solv.prm

>  <Rbt.Receptor>
prm/blind_docking_80.prm

>  <SCORE>
1.77224

>  <SCORE.INTER>
-1.45356

>  <SCORE.INTER.CONST>
1

>  <SCORE.INTER.POLAR>
0

>  <SCORE.INTER.ROT>
2

>  <SCORE.INTER.SOLV>
36.0187

>  <SCORE.INTER.VDW>
-17.9086

>  <SCORE.INTER.norm>
-0.0315992

>  <SCORE.INTRA>
2.87283

>  <SCORE.INTRA.DIHEDRAL>
-0.00461857

>  <SCORE.INTRA.DIHEDRAL.0>
2.40424

>  <SCORE.INTRA.POLAR>
0

>  <SCORE.INTRA.POLAR.0>
0

>  <SCORE.INTRA.REPUL>
0

>  <SCORE.INTRA.REPUL.0>
0

>  <SCORE.INTRA.SOLV>
7.29488

>  <SCORE.INTRA.SOLV.lig_0>
-134.169

>  <SCORE.INTRA.VDW>
-0.772297

>  <SCORE.INTRA.VDW.0>
-2.18386

>  <SCORE.INTRA.norm>
0.0624529

>  <SCORE.RESTR>
0.352966

>  <SCORE.RESTR.CAVITY>
0.352966

>  <SCORE.RESTR.norm>
0.00767318

>  <SCORE.SYSTEM>
0

>  <SCORE.SYSTEM.CONST>
0

>  <SCORE.SYSTEM.DIHEDRAL>
0

>  <SCORE.SYSTEM.SOLV>
0

>  <SCORE.SYSTEM.norm>
0

>  <SCORE.heavy>
46

>  <SCORE.norm>
0.0385269

>  <RMSD>
20.420

$$$$
ligand
 OpenBabel02271912143D
libRbt.so/2013.1/901 2013/11/27
 46 52  0  0  0  0  0  0  0  0999 V2000
   -5.1686   -3.5318   -0.0126 P   0  0  1  0  0  0  0  0  0  0  0  0
    0.5994   -4.7036   -0.1956 P   0  0  2  0  0  0  0  0  0  0  0  0
   -5.8533   -3.5654   -1.6471 O   0  5  0  0  0  0  0  0  0  0  0  0
   -6.4260   -3.2586    1.2217 O   0  0  0  0  0  0  0  0  0  0  0  0
   -3.6789   -5.1613    1.4534 C   0  0  0  0  0  0  0  0  0  0  0  0
   -4.4198   -4.9345    0.2543 O   0  0  0  0  0  0  0  0  0  0  0  0
   -2.7204   -6.3133    1.2192 C   0  0  1  0  0  0  0  0  0  0  0  0
   -3.4468   -7.4452    0.7201 O   0  0  0  0  0  0  0  0  0  0  0  0
   -1.6643   -6.0114    0.1685 C   0  0  1  0  0  0  0  0  0  0  0  0
   -0.4829   -5.4530    0.7391 O   0  0  0  0  0  0  0  0  0  0  0  0
   -1.4051   -7.3692   -0.4601 C   0  0  1  0  0  0  0  0  0  0  0  0
   -0.3785   -8.0553    0.2608 O   0  0  0  0  0  0  0  0  0  0  0  0
   -2.7052   -8.1348   -0.2983 C   0  0  2  0  0  0  0  0  0  0  0  0
   -2.0664   -0.9240   -2.4729 C   0  0  1  0  0  0  0  0  0  0  0  0
   -7.3586   -7.3309   -2.7257 N   0  0  0  0  0  0  0  0  0  0  0  0
   -7.0481   -7.2117   -1.4060 C   0  0  1  0  0  0  0  0  0  0  0  0
   -3.3002   -1.6875   -2.0828 C   0  0  2  0  0  0  0  0  0  0  0  0
   -8.0275   -6.8401   -0.5495 N   0  0  0  0  0  0  0  0  0  0  0  0
   -4.3267   -0.7164   -1.8720 O   0  0  0  0  0  0  0  0  0  0  0  0
   -2.9220   -2.4039   -0.8016 C   0  0  2  0  0  0  0  0  0  0  0  0
   -5.7960   -7.4540   -0.9159 N   0  0  0  0  0  0  0  0  0  0  0  0
   -4.0010   -2.4330    0.1227 O   0  0  0  0  0  0  0  0  0  0  0  0
   -4.7793   -7.8271   -1.7337 C   0  0  2  0  0  0  0  0  0  0  0  0
   -1.7706   -1.5993   -0.2313 C   0  0  2  0  0  0  0  0  0  0  0  0
   -1.2130   -0.8803   -1.3301 O   0  0  0  0  0  0  0  0  0  0  0  0
   -5.0625   -7.9740   -3.1719 C   0  0  1  0  0  0  0  0  0  0  0  0
   -0.6946   -2.4733    0.4032 C   0  0  0  0  0  0  0  0  0  0  0  0
   -0.1391   -3.3301   -0.5965 O   0  0  0  0  0  0  0  0  0  0  0  0
   -6.4324   -7.6983   -3.6405 C   0  0  0  0  0  0  0  0  0  0  0  0
   -6.7516   -7.8182   -4.9541 O   0  0  0  0  0  0  0  0  0  0  0  0
   -3.9199   -8.3499   -3.7568 N   0  0  0  0  0  0  0  0  0  0  0  0
   -2.9730   -8.4410   -2.7777 C   0  0  0  0  0  0  0  0  0  0  0  0
   -3.4815   -8.1306   -1.5666 N   0  0  1  0  0  0  0  0  0  0  0  0
    2.1817   -0.9829   -5.5254 N   0  0  0  0  0  0  0  0  0  0  0  0
    0.9766   -5.6601   -1.6529 O   0  5  0  0  0  0  0  0  0  0  0  0
    1.8662   -0.1608   -4.4874 C   0  0  2  0  0  0  0  0  0  0  0  0
    2.7395    0.8147   -4.1245 N   0  0  0  0  0  0  0  0  0  0  0  0
    2.1044   -4.3019    0.6539 O   0  0  0  0  0  0  0  0  0  0  0  0
    0.6996   -0.2849   -3.7976 N   0  0  0  0  0  0  0  0  0  0  0  0
   -0.2069   -1.2411   -4.1076 C   0  0  2  0  0  0  0  0  0  0  0  0
    0.0760   -2.1571   -5.2205 C   0  0  2  0  0  0  0  0  0  0  0  0
    1.3564   -1.9692   -5.9357 C   0  0  0  0  0  0  0  0  0  0  0  0
    1.7031   -2.7647   -6.9776 O   0  0  0  0  0  0  0  0  0  0  0  0
   -0.9820   -2.9866   -5.3154 N   0  0  0  0  0  0  0  0  0  0  0  0
   -1.8685   -2.6319   -4.3380 C   0  0  0  0  0  0  0  0  0  0  0  0
   -1.4005   -1.5855   -3.6205 N   0  0  1  0  0  0  0  0  0  0  0  0
  1  3  1  6  0  0  0
  1  4  2  0  0  0  0
  1  6  1  0  0  0  0
  1 22  1  0  0  0  0
  2 28  1  0  0  0  0
  2 35  1  6  0  0  0
  2 38  2  0  0  0  0
  2 10  1  0  0  0  0
  5  6  1  0  0  0  0
  7  5  1  6  0  0  0
  7  8  1  0  0  0  0
  7  9  1  0  0  0  0
  9 10  1  1  0  0  0
  9 11  1  0  0  0  0
 11 12  1  1  0  0  0
 11 13  1  0  0  0  0
 13  8  1  1  0  0  0
 13 33  1  0  0  0  0
 14 46  1  0  0  0  0
 14 17  1  0  0  0  0
 14 25  1  1  0  0  0
 15 16  1  0  0  0  0
 15 29  1  0  0  0  0
 16 18  1  1  0  0  0
 16 21  1  0  0  0  0
 17 19  1  1  0  0  0
 17 20  1  0  0  0  0
 20 22  1  1  0  0  0
 20 24  1  0  0  0  0
 23 21  1  1  0  0  0
 23 26  1  0  0  0  0
 23 33  1  0  0  0  0
 24 25  1  6  0  0  0
 24 27  1  0  0  0  0
 26 29  1  6  0  0  0
 26 31  1  0  0  0  0
 27 28  1  0  0  0  0
 29 30  2  0  0  0  0
 31 32  1  0  0  0  0
 33 32  1  6  0  0  0
 34 36  1  0  0  0  0
 34 42  1  0  0  0  0
 36 37  1  1  0  0  0
 36 39  1  0  0  0  0
 40 39  1  6  0  0  0
 40 41  1  0  0  0  0
 40 46  1  0  0  0  0
 41 42  1  6  0  0  0
 41 44  1  0  0  0  0
 42 43  2  0  0  0  0
 44 45  1  0  0  0  0
 46 45  1  1  0  0  0
M  CHG  2   3  -1  35  -1
M  END
>  <CHROM.1>
-14.23237148,-172.23099635,-2.39270849,-4.35310651,-1.73207068,2.43214104
0.35836003,2.31681834

>  <Name>
ligand

>  <RI>
-1

>  <Rbt.Current_Directory>
/home/itssahil/PROJECTS/Mol_Feturizer/Test_systems_manuscript/rnas/3mum

>  <Rbt.Executable>
rbdock ($Id: //depot/dev/client3/rdock/2013.1/src/exe/rbdock.cxx#4 $)

>  <Rbt.Library>
libRbt.so (2013.1, Build901 2013/11/27)

>  <Rbt.Parameter_File>
/export/apps/rDock/src/rDock_2013.1_src/data/scripts/dock_solv.prm

>  <Rbt.Receptor>
prm/blind_docking_20.prm

>  <SCORE>
-0.247949

>  <SCORE.INTER>
-1.64946

>  <SCORE.INTER.CONST>
1

>  <SCORE.INTER.POLAR>
0

>  <SCORE.INTER.ROT>
2

>  <SCORE.INTER.SOLV>
37.0088

>  <SCORE.INTER.VDW>
-18.3693

>  <SCORE.INTER.norm>
-0.0358578

>  <SCORE.INTRA>
0.544072

>  <SCORE.INTRA.DIHEDRAL>
0.00854259

>  <SCORE.INTRA.DIHEDRAL.0>
2.40424

>  <SCORE.INTRA.POLAR>
0

>  <SCORE.INTRA.POLAR.0>
0

>  <SCORE.INTRA.REPUL>
0

>  <SCORE.INTRA.REPUL.0>
0

>  <SCORE.INTRA.SOLV>
1.5929

>  <SCORE.INTRA.SOLV.lig_0>
-134.169

>  <SCORE.INTRA.VDW>
-0.256647

>  <SCORE.INTRA.VDW.0>
-2.18386

>  <SCORE.INTRA.norm>
0.0118276

>  <SCORE.RESTR>
0.85744

>  <SCORE.RESTR.CAVITY>
0.85744

>  <SCORE.RESTR.norm>
0.01864

>  <SCORE.SYSTEM>
0

>  <SCORE.SYSTEM.CONST>
0

>  <SCORE.SYSTEM.DIHEDRAL>
0

>  <SCORE.SYSTEM.SOLV>
0

>  <SCORE.SYSTEM.norm>
0

>  <SCORE.heavy>
46

>  <SCORE.norm>
-0.0053902

>  <RMSD>
20.481

$$$$
ligand
 OpenBabel02271912143D
libRbt.so/2013.1/901 2013/11/27
 46 52  0  0  0  0  0  0  0  0999 V2000
   -5.1622   -3.5359   -0.0629 P   0  0  1  0  0  0  0  0  0  0  0  0
    0.6111   -4.6888   -0.1864 P   0  0  2  0  0  0  0  0  0  0  0  0
   -5.8313   -3.5783   -1.7037 O   0  5  0  0  0  0  0  0  0  0  0  0
   -6.4323   -3.2620    1.1583 O   0  0  0  0  0  0  0  0  0  0  0  0
   -3.6812   -5.1545    1.4237 C   0  0  0  0  0  0  0  0  0  0  0  0
   -4.4114   -4.9349    0.2167 O   0  0  0  0  0  0  0  0  0  0  0  0
   -2.7166   -6.3041    1.2032 C   0  0  1  0  0  0  0  0  0  0  0  0
   -3.4344   -7.4404    0.7018 O   0  0  0  0  0  0  0  0  0  0  0  0
   -1.6516   -6.0028    0.1614 C   0  0  1  0  0  0  0  0  0  0  0  0
   -0.4776   -5.4382    0.7410 O   0  0  0  0  0  0  0  0  0  0  0  0
   -1.3819   -7.3622   -0.4593 C   0  0  1  0  0  0  0  0  0  0  0  0
   -0.3598   -8.0420    0.2741 O   0  0  0  0  0  0  0  0  0  0  0  0
   -2.6809   -8.1315   -0.3068 C   0  0  2  0  0  0  0  0  0  0  0  0
   -2.0456   -0.9273   -2.5039 C   0  0  1  0  0  0  0  0  0  0  0  0
   -7.3045   -7.3172   -2.7871 N   0  0  0  0  0  0  0  0  0  0  0  0
   -7.0055   -7.1862   -1.4658 C   0  0  1  0  0  0  0  0  0  0  0  0
   -3.2805   -1.6934   -2.1226 C   0  0  2  0  0  0  0  0  0  0  0  0
   -7.9899   -6.7976   -0.6228 N   0  0  0  0  0  0  0  0  0  0  0  0
   -4.3122   -0.7250   -1.9254 O   0  0  0  0  0  0  0  0  0  0  0  0
   -2.9121   -2.4035   -0.8350 C   0  0  2  0  0  0  0  0  0  0  0  0
   -5.7601   -7.4331   -0.9612 N   0  0  0  0  0  0  0  0  0  0  0  0
   -3.9997   -2.4326    0.0791 O   0  0  0  0  0  0  0  0  0  0  0  0
   -4.7387   -7.8231   -1.7651 C   0  0  2  0  0  0  0  0  0  0  0  0
   -1.7689   -1.5927   -0.2570 C   0  0  2  0  0  0  0  0  0  0  0  0
   -1.2032   -0.8762   -1.3533 O   0  0  0  0  0  0  0  0  0  0  0  0
   -5.0095   -7.9833   -3.2044 C   0  0  1  0  0  0  0  0  0  0  0  0
   -0.6960   -2.4606    0.3912 C   0  0  0  0  0  0  0  0  0  0  0  0
   -0.1281   -3.3194   -0.5998 O   0  0  0  0  0  0  0  0  0  0  0  0
   -6.3726   -7.7019   -3.6889 C   0  0  0  0  0  0  0  0  0  0  0  0
   -6.6804   -7.8336   -5.0042 O   0  0  0  0  0  0  0  0  0  0  0  0
   -3.8644   -8.3746   -3.7742 N   0  0  0  0  0  0  0  0  0  0  0  0
   -2.9276   -8.4626   -2.7852 C   0  0  0  0  0  0  0  0  0  0  0  0
   -3.4451   -8.1350   -1.5824 N   0  0  1  0  0  0  0  0  0  0  0  0
    2.2182   -0.9646   -5.5350 N   0  0  0  0  0  0  0  0  0  0  0  0
    1.0053   -5.6498   -1.6362 O   0  5  0  0  0  0  0  0  0  0  0  0
    1.8883   -0.1372   -4.5056 C   0  0  2  0  0  0  0  0  0  0  0  0
    2.7488    0.8511   -4.1469 N   0  0  0  0  0  0  0  0  0  0  0  0
    2.1066   -4.2786    0.6758 O   0  0  0  0  0  0  0  0  0  0  0  0
    0.7197   -0.2685   -3.8205 N   0  0  0  0  0  0  0  0  0  0  0  0
   -0.1745   -1.2375   -4.1267 C   0  0  2  0  0  0  0  0  0  0  0  0
    0.1243   -2.1597   -5.2303 C   0  0  2  0  0  0  0  0  0  0  0  0
    1.4061   -1.9636   -5.9408 C   0  0  0  0  0  0  0  0  0  0  0  0
    1.7668   -2.7641   -6.9740 O   0  0  0  0  0  0  0  0  0  0  0  0
   -0.9239   -3.0018   -5.3232 N   0  0  0  0  0  0  0  0  0  0  0  0
   -1.8192   -2.6487   -4.3533 C   0  0  0  0  0  0  0  0  0  0  0  0
   -1.3665   -1.5911   -3.6425 N   0  0  1  0  0  0  0  0  0  0  0  0
  1  3  1  6  0  0  0
  1  4  2  0  0  0  0
  1  6  1  0  0  0  0
  1 22  1  0  0  0  0
  2 28  1  0  0  0  0
  2 35  1  6  0  0  0
  2 38  2  0  0  0  0
  2 10  1  0  0  0  0
  5  6  1  0  0  0  0
  7  5  1  6  0  0  0
  7  8  1  0  0  0  0
  7  9  1  0  0  0  0
  9 10  1  1  0  0  0
  9 11  1  0  0  0  0
 11 12  1  1  0  0  0
 11 13  1  0  0  0  0
 13  8  1  1  0  0  0
 13 33  1  0  0  0  0
 14 46  1  0  0  0  0
 14 17  1  0  0  0  0
 14 25  1  1  0  0  0
 15 16  1  0  0  0  0
 15 29  1  0  0  0  0
 16 18  1  1  0  0  0
 16 21  1  0  0  0  0
 17 19  1  1  0  0  0
 17 20  1  0  0  0  0
 20 22  1  1  0  0  0
 20 24  1  0  0  0  0
 23 21  1  1  0  0  0
 23 26  1  0  0  0  0
 23 33  1  0  0  0  0
 24 25  1  6  0  0  0
 24 27  1  0  0  0  0
 26 29  1  6  0  0  0
 26 31  1  0  0  0  0
 27 28  1  0  0  0  0
 29 30  2  0  0  0  0
 31 32  1  0  0  0  0
 33 32  1  6  0  0  0
 34 36  1  0  0  0  0
 34 42  1  0  0  0  0
 36 37  1  1  0  0  0
 36 39  1  0  0  0  0
 40 39  1  6  0  0  0
 40 41  1  0  0  0  0
 40 46  1  0  0  0  0
 41 42  1  6  0  0  0
 41 44  1  0  0  0  0
 42 43  2  0  0  0  0
 44 45  1  0  0  0  0
 46 45  1  1  0  0  0
M  CHG  2   3  -1  35  -1
M  END
>  <CHROM.1>
-13.47244343,-172.81397028,-2.36788632,-4.34855142,-1.75531562,2.43300379
0.36301966,2.31496493

>  <Name>
ligand

>  <RI>
-1

>  <Rbt.Current_Directory>
/home/itssahil/PROJECTS/Mol_Feturizer/Test_systems_manuscript/rnas/3mum

>  <Rbt.Executable>
rbdock ($Id: //depot/dev/client3/rdock/2013.1/src/exe/rbdock.cxx#4 $)

>  <Rbt.Library>
libRbt.so (2013.1, Build901 2013/11/27)

>  <Rbt.Parameter_File>
/export/apps/rDock/src/rDock_2013.1_src/data/scripts/dock_solv.prm

>  <Rbt.Receptor>
prm/blind_docking_20.prm

>  <SCORE>
-0.601935

>  <SCORE.INTER>
-2.2242

>  <SCORE.INTER.CONST>
1

>  <SCORE.INTER.POLAR>
0

>  <SCORE.INTER.ROT>
2

>  <SCORE.INTER.SOLV>
36.6326

>  <SCORE.INTER.VDW>
-18.627

>  <SCORE.INTER.norm>
-0.0483522

>  <SCORE.INTRA>
0.675193

>  <SCORE.INTRA.DIHEDRAL>
0.00765018

>  <SCORE.INTRA.DIHEDRAL.0>
2.40424

>  <SCORE.INTRA.POLAR>
0

>  <SCORE.INTRA.POLAR.0>
0

>  <SCORE.INTRA.REPUL>
0

>  <SCORE.INTRA.REPUL.0>
0

>  <SCORE.INTRA.SOLV>
1.89716

>  <SCORE.INTRA.SOLV.lig_0>
-134.169

>  <SCORE.INTRA.VDW>
-0.277213

>  <SCORE.INTRA.VDW.0>
-2.18386

>  <SCORE.INTRA.norm>
0.0146781

>  <SCORE.RESTR>
0.947075

>  <SCORE.RESTR.CAVITY>
0.947075

>  <SCORE.RESTR.norm>
0.0205886

>  <SCORE.SYSTEM>
0

>  <SCORE.SYSTEM.CONST>
0

>  <SCORE.SYSTEM.DIHEDRAL>
0

>  <SCORE.SYSTEM.SOLV>
0

>  <SCORE.SYSTEM.norm>
0

>  <SCORE.heavy>
46

>  <SCORE.norm>
-0.0130855

>  <RMSD>
20.508

$$$$
ligand
 OpenBabel02271912143D
libRbt.so/2013.1/901 2013/11/27
 46 52  0  0  0  0  0  0  0  0999 V2000
   -5.1606   -3.5586   -0.0712 P   0  0  1  0  0  0  0  0  0  0  0  0
    0.6144   -4.7034   -0.1926 P   0  0  2  0  0  0  0  0  0  0  0  0
   -5.8281   -3.5975   -1.7127 O   0  5  0  0  0  0  0  0  0  0  0  0
   -6.4321   -3.2897    1.1496 O   0  0  0  0  0  0  0  0  0  0  0  0
   -3.6787   -5.1791    1.4125 C   0  0  0  0  0  0  0  0  0  0  0  0
   -4.4081   -4.9574    0.2053 O   0  0  0  0  0  0  0  0  0  0  0  0
   -2.7123   -6.3269    1.1898 C   0  0  1  0  0  0  0  0  0  0  0  0
   -3.4282   -7.4628    0.6846 O   0  0  0  0  0  0  0  0  0  0  0  0
   -1.6468   -6.0213    0.1497 C   0  0  1  0  0  0  0  0  0  0  0  0
   -0.4741   -5.4567    0.7318 O   0  0  0  0  0  0  0  0  0  0  0  0
   -1.3747   -7.3787   -0.4743 C   0  0  1  0  0  0  0  0  0  0  0  0
   -0.3524   -8.0591    0.2581 O   0  0  0  0  0  0  0  0  0  0  0  0
   -2.6728   -8.1502   -0.3251 C   0  0  2  0  0  0  0  0  0  0  0  0
   -2.0453   -0.9394   -2.5025 C   0  0  1  0  0  0  0  0  0  0  0  0
   -7.2902   -7.3164   -2.8104 N   0  0  0  0  0  0  0  0  0  0  0  0
   -6.9918   -7.1854   -1.4889 C   0  0  1  0  0  0  0  0  0  0  0  0
   -3.2795   -1.7081   -2.1243 C   0  0  2  0  0  0  0  0  0  0  0  0
   -7.9751   -6.7913   -0.6472 N   0  0  0  0  0  0  0  0  0  0  0  0
   -4.3127   -0.7416   -1.9255 O   0  0  0  0  0  0  0  0  0  0  0  0
   -2.9113   -2.4211   -0.8383 C   0  0  2  0  0  0  0  0  0  0  0  0
   -5.7480   -7.4377   -0.9830 N   0  0  0  0  0  0  0  0  0  0  0  0
   -3.9997   -2.4541    0.0748 O   0  0  0  0  0  0  0  0  0  0  0  0
   -4.7278   -7.8334   -1.7856 C   0  0  2  0  0  0  0  0  0  0  0  0
   -1.7697   -1.6103   -0.2571 C   0  0  2  0  0  0  0  0  0  0  0  0
   -1.2040   -0.8901   -1.3510 O   0  0  0  0  0  0  0  0  0  0  0  0
   -4.9981   -7.9939   -3.2249 C   0  0  1  0  0  0  0  0  0  0  0  0
   -0.6962   -2.4784    0.3897 C   0  0  0  0  0  0  0  0  0  0  0  0
   -0.1263   -3.3339   -0.6030 O   0  0  0  0  0  0  0  0  0  0  0  0
   -6.3594   -7.7064   -3.7110 C   0  0  0  0  0  0  0  0  0  0  0  0
   -6.6666   -7.8380   -5.0264 O   0  0  0  0  0  0  0  0  0  0  0  0
   -3.8544   -8.3912   -3.7933 N   0  0  0  0  0  0  0  0  0  0  0  0
   -2.9189   -8.4826   -2.8033 C   0  0  0  0  0  0  0  0  0  0  0  0
   -3.4358   -8.1514   -1.6014 N   0  0  1  0  0  0  0  0  0  0  0  0
    2.2145   -0.9533   -5.5393 N   0  0  0  0  0  0  0  0  0  0  0  0
    1.0112   -5.6600   -1.6446 O   0  5  0  0  0  0  0  0  0  0  0  0
    1.8816   -0.1280   -4.5093 C   0  0  2  0  0  0  0  0  0  0  0  0
    2.7375    0.8647   -4.1513 N   0  0  0  0  0  0  0  0  0  0  0  0
    2.1086   -4.2935    0.6720 O   0  0  0  0  0  0  0  0  0  0  0  0
    0.7147   -0.2657   -3.8226 N   0  0  0  0  0  0  0  0  0  0  0  0
   -0.1748   -1.2392   -4.1279 C   0  0  2  0  0  0  0  0  0  0  0  0
    0.1273   -2.1595   -5.2323 C   0  0  2  0  0  0  0  0  0  0  0  0
    1.4070   -1.9564   -5.9443 C   0  0  0  0  0  0  0  0  0  0  0  0
    1.7706   -2.7546   -6.9784 O   0  0  0  0  0  0  0  0  0  0  0  0
   -0.9166   -3.0070   -5.3240 N   0  0  0  0  0  0  0  0  0  0  0  0
   -1.8125   -2.6589   -4.3528 C   0  0  0  0  0  0  0  0  0  0  0  0
   -1.3643   -1.5991   -3.6422 N   0  0  1  0  0  0  0  0  0  0  0  0
  1  3  1  6  0  0  0
  1  4  2  0  0  0  0
  1  6  1  0  0  0  0
  1 22  1  0  0  0  0
  2 28  1  0  0  0  0
  2 35  1  6  0  0  0
  2 38  2  0  0  0  0
  2 10  1  0  0  0  0
  5  6  1  0  0  0  0
  7  5  1  6  0  0  0
  7  8  1  0  0  0  0
  7  9  1  0  0  0  0
  9 10  1  1  0  0  0
  9 11  1  0  0  0  0
 11 12  1  1  0  0  0
 11 13  1  0  0  0  0
 13  8  1  1  0  0  0
 13 33  1  0  0  0  0
 14 46  1  0  0  0  0
 14 17  1  0  0  0  0
 14 25  1  1  0  0  0
 15 16  1  0  0  0  0
 15 29  1  0  0  0  0
 16 18  1  1  0  0  0
 16 21  1  0  0  0  0
 17 19  1  1  0  0  0
 17 20  1  0  0  0  0
 20 22  1  1  0  0  0
 20 24  1  0  0  0  0
 23 21  1  1  0  0  0
 23 26  1  0  0  0  0
 23 33  1  0  0  0  0
 24 25  1  6  0  0  0
 24 27  1  0  0  0  0
 26 29  1  6  0  0  0
 26 31  1  0  0  0  0
 27 28  1  0  0  0  0
 29 30  2  0  0  0  0
 31 32  1  0  0  0  0
 33 32  1  6  0  0  0
 34 36  1  0  0  0  0
 34 42  1  0  0  0  0
 36 37  1  1  0  0  0
 36 39  1  0  0  0  0
 40 39  1  6  0  0  0
 40 41  1  0  0  0  0
 40 46  1  0  0  0  0
 41 42  1  6  0  0  0
 41 44  1  0  0  0  0
 42 43  2  0  0  0  0
 44 45  1  0  0  0  0
 46 45  1  1  0  0  0
M  CHG  2   3  -1  35  -1
M  END
>  <CHROM.1>
-13.06290445,-173.10326141,-2.36382432,-4.35987587,-1.76462029,2.43055033
0.36225997,2.31987959

>  <Name>
ligand

>  <RI>
-1

>  <Rbt.Current_Directory>
/home/itssahil/PROJECTS/Mol_Feturizer/Test_systems_manuscript/rnas/3mum

>  <Rbt.Executable>
rbdock ($Id: //depot/dev/client3/rdock/2013.1/src/exe/rbdock.cxx#4 $)

>  <Rbt.Library>
libRbt.so (2013.1, Build901 2013/11/27)

>  <Rbt.Parameter_File>
/export/apps/rDock/src/rDock_2013.1_src/data/scripts/dock_solv.prm

>  <Rbt.Receptor>
prm/blind_docking_20.prm

>  <SCORE>
-0.819928

>  <SCORE.INTER>
-2.55613

>  <SCORE.INTER.CONST>
1

>  <SCORE.INTER.POLAR>
0

>  <SCORE.INTER.ROT>
2

>  <SCORE.INTER.SOLV>
36.4028

>  <SCORE.INTER.VDW>
-18.7717

>  <SCORE.INTER.norm>
-0.055568

>  <SCORE.INTRA>
0.735274

>  <SCORE.INTRA.DIHEDRAL>
0.00719785

>  <SCORE.INTRA.DIHEDRAL.0>
2.40424

>  <SCORE.INTRA.POLAR>
0

>  <SCORE.INTRA.POLAR.0>
0

>  <SCORE.INTRA.REPUL>
0

>  <SCORE.INTRA.REPUL.0>
0

>  <SCORE.INTRA.SOLV>
2.06028

>  <SCORE.INTRA.SOLV.lig_0>
-134.169

>  <SCORE.INTRA.VDW>
-0.298463

>  <SCORE.INTRA.VDW.0>
-2.18386

>  <SCORE.INTRA.norm>
0.0159842

>  <SCORE.RESTR>
1.00092

>  <SCORE.RESTR.CAVITY>
1.00092

>  <SCORE.RESTR.norm>
0.0217592

>  <SCORE.SYSTEM>
0

>  <SCORE.SYSTEM.CONST>
0

>  <SCORE.SYSTEM.DIHEDRAL>
0

>  <SCORE.SYSTEM.SOLV>
0

>  <SCORE.SYSTEM.norm>
0

>  <SCORE.heavy>
46

>  <SCORE.norm>
-0.0178245

>  <RMSD>
20.523

$$$$
ligand
 OpenBabel02271912143D
libRbt.so/2013.1/901 2013/11/27
 46 52  0  0  0  0  0  0  0  0999 V2000
   -6.2006   -4.0979    0.8813 P   0  0  1  0  0  0  0  0  0  0  0  0
   -0.5017   -3.9656   -0.5955 P   0  0  2  0  0  0  0  0  0  0  0  0
   -7.2052   -3.6559   -0.5105 O   0  5  0  0  0  0  0  0  0  0  0  0
   -7.1933   -4.5537    2.2906 O   0  0  0  0  0  0  0  0  0  0  0  0
   -4.2468   -5.8297    1.3364 C   0  0  0  0  0  0  0  0  0  0  0  0
   -5.2460   -5.3238    0.4509 O   0  0  0  0  0  0  0  0  0  0  0  0
   -3.2252   -6.6011    0.5228 C   0  0  1  0  0  0  0  0  0  0  0  0
   -3.8960   -7.5855   -0.2766 O   0  0  0  0  0  0  0  0  0  0  0  0
   -2.4597   -5.7306   -0.4605 C   0  0  1  0  0  0  0  0  0  0  0  0
   -1.2622   -5.2044    0.1072 O   0  0  0  0  0  0  0  0  0  0  0  0
   -2.1742   -6.6794   -1.6113 C   0  0  1  0  0  0  0  0  0  0  0  0
   -0.9423   -7.3689   -1.3842 O   0  0  0  0  0  0  0  0  0  0  0  0
   -3.3069   -7.6887   -1.5823 C   0  0  2  0  0  0  0  0  0  0  0  0
   -4.0311   -0.2111   -0.7504 C   0  0  1  0  0  0  0  0  0  0  0  0
   -4.9207   -8.1579   -6.6190 N   0  0  0  0  0  0  0  0  0  0  0  0
   -3.8046   -8.6627   -6.0257 C   0  0  1  0  0  0  0  0  0  0  0  0
   -5.0517   -1.2901   -0.5238 C   0  0  2  0  0  0  0  0  0  0  0  0
   -2.9529   -9.3930   -6.7819 N   0  0  0  0  0  0  0  0  0  0  0  0
   -6.1219   -0.6876    0.2060 O   0  0  0  0  0  0  0  0  0  0  0  0
   -4.3268   -2.3419    0.2923 C   0  0  2  0  0  0  0  0  0  0  0  0
   -3.5119   -8.4593   -4.7067 N   0  0  0  0  0  0  0  0  0  0  0  0
   -5.1747   -2.9222    1.2740 O   0  0  0  0  0  0  0  0  0  0  0  0
   -4.3347   -7.7362   -3.9057 C   0  0  2  0  0  0  0  0  0  0  0  0
   -3.1887   -1.5978    0.9629 C   0  0  2  0  0  0  0  0  0  0  0  0
   -2.9679   -0.4284    0.1762 O   0  0  0  0  0  0  0  0  0  0  0  0
   -5.5558   -7.1642   -4.4992 C   0  0  1  0  0  0  0  0  0  0  0  0
   -1.9041   -2.4162    1.0292 C   0  0  0  0  0  0  0  0  0  0  0  0
   -1.4710   -2.7144   -0.2995 O   0  0  0  0  0  0  0  0  0  0  0  0
   -5.8173   -7.4184   -5.9271 C   0  0  0  0  0  0  0  0  0  0  0  0
   -6.9258   -6.9158   -6.5277 O   0  0  0  0  0  0  0  0  0  0  0  0
   -6.1873   -6.5001   -3.5249 N   0  0  0  0  0  0  0  0  0  0  0  0
   -5.4364   -6.6293   -2.3922 C   0  0  0  0  0  0  0  0  0  0  0  0
   -4.3277   -7.3662   -2.6144 N   0  0  1  0  0  0  0  0  0  0  0  0
   -2.5369    2.6415   -4.8733 N   0  0  0  0  0  0  0  0  0  0  0  0
   -0.3258   -4.2195   -2.3520 O   0  5  0  0  0  0  0  0  0  0  0  0
   -2.9717    3.0433   -3.6476 C   0  0  2  0  0  0  0  0  0  0  0  0
   -3.0520    4.3718   -3.3747 N   0  0  0  0  0  0  0  0  0  0  0  0
    1.0876   -3.6218    0.1144 O   0  0  0  0  0  0  0  0  0  0  0  0
   -3.3296    2.1537   -2.6817 N   0  0  0  0  0  0  0  0  0  0  0  0
   -3.2649    0.8180   -2.8916 C   0  0  2  0  0  0  0  0  0  0  0  0
   -2.8058    0.3232   -4.1962 C   0  0  2  0  0  0  0  0  0  0  0  0
   -2.4365    1.3373   -5.2068 C   0  0  0  0  0  0  0  0  0  0  0  0
   -2.0043    0.9760   -6.4401 O   0  0  0  0  0  0  0  0  0  0  0  0
   -2.8496   -1.0224   -4.1350 N   0  0  0  0  0  0  0  0  0  0  0  0
   -3.2969   -1.3608   -2.8890 C   0  0  0  0  0  0  0  0  0  0  0  0
   -3.5460   -0.2555   -2.1507 N   0  0  1  0  0  0  0  0  0  0  0  0
  1  3  1  6  0  0  0
  1  4  2  0  0  0  0
  1  6  1  0  0  0  0
  1 22  1  0  0  0  0
  2 28  1  0  0  0  0
  2 35  1  6  0  0  0
  2 38  2  0  0  0  0
  2 10  1  0  0  0  0
  5  6  1  0  0  0  0
  7  5  1  6  0  0  0
  7  8  1  0  0  0  0
  7  9  1  0  0  0  0
  9 10  1  1  0  0  0
  9 11  1  0  0  0  0
 11 12  1  1  0  0  0
 11 13  1  0  0  0  0
 13  8  1  1  0  0  0
 13 33  1  0  0  0  0
 14 46  1  0  0  0  0
 14 17  1  0  0  0  0
 14 25  1  1  0  0  0
 15 16  1  0  0  0  0
 15 29  1  0  0  0  0
 16 18  1  6  0  0  0
 16 21  1  0  0  0  0
 17 19  1  1  0  0  0
 17 20  1  0  0  0  0
 20 22  1  1  0  0  0
 20 24  1  0  0  0  0
 23 21  1  6  0  0  0
 23 26  1  0  0  0  0
 23 33  1  0  0  0  0
 24 25  1  6  0  0  0
 24 27  1  0  0  0  0
 26 29  1  1  0  0  0
 26 31  1  0  0  0  0
 27 28  1  0  0  0  0
 29 30  2  0  0  0  0
 31 32  1  0  0  0  0
 33 32  1  1  0  0  0
 34 36  1  0  0  0  0
 34 42  1  0  0  0  0
 36 37  1  1  0  0  0
 36 39  1  0  0  0  0
 40 39  1  6  0  0  0
 40 41  1  0  0  0  0
 40 46  1  0  0  0  0
 41 42  1  6  0  0  0
 41 44  1  0  0  0  0
 42 43  2  0  0  0  0
 44 45  1  0  0  0  0
 46 45  1  1  0  0  0
M  CHG  2   3  -1  35  -1
M  END
>  <CHROM.1>
-157.14965309,142.09927109,-3.60901257,-3.68740870,-1.90158479,2.73259918
-1.41606149,-1.89962709

>  <Name>
ligand

>  <RI>
-1

>  <Rbt.Current_Directory>
/home/itssahil/PROJECTS/Mol_Feturizer/Test_systems_manuscript/rnas/3mum

>  <Rbt.Executable>
rbdock ($Id: //depot/dev/client3/rdock/2013.1/src/exe/rbdock.cxx#4 $)

>  <Rbt.Library>
libRbt.so (2013.1, Build901 2013/11/27)

>  <Rbt.Parameter_File>
/export/apps/rDock/src/rDock_2013.1_src/data/scripts/dock_solv.prm

>  <Rbt.Receptor>
prm/blind_docking_20.prm

>  <SCORE>
26.5728

>  <SCORE.INTER>
25.2352

>  <SCORE.INTER.CONST>
1

>  <SCORE.INTER.POLAR>
0

>  <SCORE.INTER.ROT>
2

>  <SCORE.INTER.SOLV>
40.2235

>  <SCORE.INTER.VDW>
-1.51767

>  <SCORE.INTER.norm>
0.548592

>  <SCORE.INTRA>
-0.145931

>  <SCORE.INTRA.DIHEDRAL>
-0.025865

>  <SCORE.INTRA.DIHEDRAL.0>
2.40424

>  <SCORE.INTRA.POLAR>
0

>  <SCORE.INTRA.POLAR.0>
0

>  <SCORE.INTRA.REPUL>
0

>  <SCORE.INTRA.REPUL.0>
0

>  <SCORE.INTRA.SOLV>
0.0293856

>  <SCORE.INTRA.SOLV.lig_0>
-134.169

>  <SCORE.INTRA.VDW>
-0.147691

>  <SCORE.INTRA.VDW.0>
-2.18386

>  <SCORE.INTRA.norm>
-0.00317242

>  <SCORE.RESTR>
1.48347

>  <SCORE.RESTR.CAVITY>
1.48347

>  <SCORE.RESTR.norm>
0.0322494

>  <SCORE.SYSTEM>
0

>  <SCORE.SYSTEM.CONST>
0

>  <SCORE.SYSTEM.DIHEDRAL>
0

>  <SCORE.SYSTEM.SOLV>
0

>  <SCORE.SYSTEM.norm>
0

>  <SCORE.heavy>
46

>  <SCORE.norm>
0.577669

>  <RMSD>
20.523

$$$$
ligand
 OpenBabel02271912143D
libRbt.so/2013.1/901 2013/11/27
 46 52  0  0  0  0  0  0  0  0999 V2000
   -6.1289   -4.1029    0.8756 P   0  0  1  0  0  0  0  0  0  0  0  0
   -0.4184   -3.8683   -0.5425 P   0  0  2  0  0  0  0  0  0  0  0  0
   -7.1274   -3.6957   -0.5312 O   0  5  0  0  0  0  0  0  0  0  0  0
   -7.1272   -4.5647    2.2790 O   0  0  0  0  0  0  0  0  0  0  0  0
   -4.1451   -5.7894    1.3690 C   0  0  0  0  0  0  0  0  0  0  0  0
   -5.1449   -5.3132    0.4679 O   0  0  0  0  0  0  0  0  0  0  0  0
   -3.0993   -6.5478    0.5742 C   0  0  1  0  0  0  0  0  0  0  0  0
   -3.7411   -7.5538   -0.2219 O   0  0  0  0  0  0  0  0  0  0  0  0
   -2.3412   -5.6717   -0.4099 C   0  0  1  0  0  0  0  0  0  0  0  0
   -1.1609   -5.1153    0.1649 O   0  0  0  0  0  0  0  0  0  0  0  0
   -2.0240   -6.6260   -1.5477 C   0  0  1  0  0  0  0  0  0  0  0  0
   -0.7808   -7.2877   -1.3007 O   0  0  0  0  0  0  0  0  0  0  0  0
   -3.1361   -7.6580   -1.5203 C   0  0  2  0  0  0  0  0  0  0  0  0
   -4.0221   -0.1889   -0.7733 C   0  0  1  0  0  0  0  0  0  0  0  0
   -4.6386   -8.1280   -6.5912 N   0  0  0  0  0  0  0  0  0  0  0  0
   -3.5115   -8.5906   -5.9845 C   0  0  1  0  0  0  0  0  0  0  0  0
   -5.0227   -1.2864   -0.5463 C   0  0  2  0  0  0  0  0  0  0  0  0
   -2.6145   -9.2711   -6.7348 N   0  0  0  0  0  0  0  0  0  0  0  0
   -6.1128   -0.6986    0.1660 O   0  0  0  0  0  0  0  0  0  0  0  0
   -4.2853   -2.3147    0.2882 C   0  0  2  0  0  0  0  0  0  0  0  0
   -3.2514   -8.3929   -4.6579 N   0  0  0  0  0  0  0  0  0  0  0  0
   -5.1316   -2.9024    1.2669 O   0  0  0  0  0  0  0  0  0  0  0  0
   -4.1198   -7.7187   -3.8623 C   0  0  2  0  0  0  0  0  0  0  0  0
   -3.1699   -1.5406    0.9630 C   0  0  2  0  0  0  0  0  0  0  0  0
   -2.9646   -0.3749    0.1666 O   0  0  0  0  0  0  0  0  0  0  0  0
   -5.3548   -7.1937   -4.4702 C   0  0  1  0  0  0  0  0  0  0  0  0
   -1.8696   -2.3317    1.0513 C   0  0  0  0  0  0  0  0  0  0  0  0
   -1.4163   -2.6344   -0.2697 O   0  0  0  0  0  0  0  0  0  0  0  0
   -5.5796   -7.4393   -5.9059 C   0  0  0  0  0  0  0  0  0  0  0  0
   -6.6989   -6.9784   -6.5197 O   0  0  0  0  0  0  0  0  0  0  0  0
   -6.0326   -6.5724   -3.4988 N   0  0  0  0  0  0  0  0  0  0  0  0
   -5.2966   -6.6838   -2.3545 C   0  0  0  0  0  0  0  0  0  0  0  0
   -4.1521   -7.3671   -2.5664 N   0  0  1  0  0  0  0  0  0  0  0  0
   -2.5303    2.6521   -4.9051 N   0  0  0  0  0  0  0  0  0  0  0  0
   -0.2185   -4.1362   -2.2944 O   0  5  0  0  0  0  0  0  0  0  0  0
   -2.9849    3.0572   -3.6877 C   0  0  2  0  0  0  0  0  0  0  0  0
   -3.0899    4.3866   -3.4275 N   0  0  0  0  0  0  0  0  0  0  0  0
    1.1558   -3.4846    0.1804 O   0  0  0  0  0  0  0  0  0  0  0  0
   -3.3387    2.1702   -2.7179 N   0  0  0  0  0  0  0  0  0  0  0  0
   -3.2497    0.8341   -2.9152 C   0  0  2  0  0  0  0  0  0  0  0  0
   -2.7685    0.3355   -4.2104 C   0  0  2  0  0  0  0  0  0  0  0  0
   -2.4050    1.3468   -5.2259 C   0  0  0  0  0  0  0  0  0  0  0  0
   -1.9535    0.9819   -6.4513 O   0  0  0  0  0  0  0  0  0  0  0  0
   -2.7909   -1.0100   -4.1377 N   0  0  0  0  0  0  0  0  0  0  0  0
   -3.2460   -1.3449   -2.8936 C   0  0  0  0  0  0  0  0  0  0  0  0
   -3.5212   -0.2375   -2.1678 N   0  0  1  0  0  0  0  0  0  0  0  0
  1  3  1  6  0  0  0
  1  4  2  0  0  0  0
  1  6  1  0  0  0  0
  1 22  1  0  0  0  0
  2 28  1  0  0  0  0
  2 35  1  6  0  0  0
  2 38  2  0  0  0  0
  2 10  1  0  0  0  0
  5  6  1  0  0  0  0
  7  5  1  6  0  0  0
  7  8  1  0  0  0  0
  7  9  1  0  0  0  0
  9 10  1  1  0  0  0
  9 11  1  0  0  0  0
 11 12  1  1  0  0  0
 11 13  1  0  0  0  0
 13  8  1  1  0  0  0
 13 33  1  0  0  0  0
 14 46  1  0  0  0  0
 14 17  1  0  0  0  0
 14 25  1  1  0  0  0
 15 16  1  0  0  0  0
 15 29  1  0  0  0  0
 16 18  1  6  0  0  0
 16 21  1  0  0  0  0
 17 19  1  1  0  0  0
 17 20  1  0  0  0  0
 20 22  1  1  0  0  0
 20 24  1  0  0  0  0
 23 21  1  6  0  0  0
 23 26  1  0  0  0  0
 23 33  1  0  0  0  0
 24 25  1  6  0  0  0
 24 27  1  0  0  0  0
 26 29  1  1  0  0  0
 26 31  1  0  0  0  0
 27 28  1  0  0  0  0
 29 30  2  0  0  0  0
 31 32  1  0  0  0  0
 33 32  1  1  0  0  0
 34 36  1  0  0  0  0
 34 42  1  0  0  0  0
 36 37  1  1  0  0  0
 36 39  1  0  0  0  0
 40 39  1  6  0  0  0
 40 41  1  0  0  0  0
 40 46  1  0  0  0  0
 41 42  1  6  0  0  0
 41 44  1  0  0  0  0
 42 43  2  0  0  0  0
 44 45  1  0  0  0  0
 46 45  1  1  0  0  0
M  CHG  2   3  -1  35  -1
M  END
>  <CHROM.1>
-159.15234830,142.34674963,-3.51016416,-3.65827249,-1.88598100,2.56663161
-1.42808534,-2.07812954

>  <Name>
ligand

>  <RI>
-1

>  <Rbt.Current_Directory>
/home/itssahil/PROJECTS/Mol_Feturizer/Test_systems_manuscript/rnas/3mum

>  <Rbt.Executable>
rbdock ($Id: //depot/dev/client3/rdock/2013.1/src/exe/rbdock.cxx#4 $)

>  <Rbt.Library>
libRbt.so (2013.1, Build901 2013/11/27)

>  <Rbt.Parameter_File>
/export/apps/rDock/src/rDock_2013.1_src/data/scripts/dock_solv.prm

>  <Rbt.Receptor>
prm/blind_docking_20.prm

>  <SCORE>
25.9996

>  <SCORE.INTER>
24.4398

>  <SCORE.INTER.CONST>
1

>  <SCORE.INTER.POLAR>
0

>  <SCORE.INTER.ROT>
2

>  <SCORE.INTER.SOLV>
42.2113

>  <SCORE.INTER.VDW>
-2.71058

>  <SCORE.INTER.norm>
0.531299

>  <SCORE.INTRA>
-0.131413

>  <SCORE.INTRA.DIHEDRAL>
-0.0261719

>  <SCORE.INTRA.DIHEDRAL.0>
2.40424

>  <SCORE.INTRA.POLAR>
0

>  <SCORE.INTRA.POLAR.0>
0

>  <SCORE.INTRA.REPUL>
0

>  <SCORE.INTRA.REPUL.0>
0

>  <SCORE.INTRA.SOLV>
0.026036

>  <SCORE.INTRA.SOLV.lig_0>
-134.169

>  <SCORE.INTRA.VDW>
-0.131345

>  <SCORE.INTRA.VDW.0>
-2.18386

>  <SCORE.INTRA.norm>
-0.0028568

>  <SCORE.RESTR>
1.69127

>  <SCORE.RESTR.CAVITY>
1.69127

>  <SCORE.RESTR.norm>
0.0367666

>  <SCORE.SYSTEM>
0

>  <SCORE.SYSTEM.CONST>
0

>  <SCORE.SYSTEM.DIHEDRAL>
0

>  <SCORE.SYSTEM.SOLV>
0

>  <SCORE.SYSTEM.norm>
0

>  <SCORE.heavy>
46

>  <SCORE.norm>
0.565209

>  <RMSD>
20.524

$$$$
ligand
 OpenBabel02271912143D
libRbt.so/2013.1/901 2013/11/27
 46 52  0  0  0  0  0  0  0  0999 V2000
   -6.0061   -4.0278    0.7173 P   0  0  1  0  0  0  0  0  0  0  0  0
   -0.2545   -3.7445   -0.5136 P   0  0  2  0  0  0  0  0  0  0  0  0
   -6.9614   -3.6188   -0.7186 O   0  5  0  0  0  0  0  0  0  0  0  0
   -7.0459   -4.5054    2.0848 O   0  0  0  0  0  0  0  0  0  0  0  0
   -4.0272   -5.7035    1.2646 C   0  0  0  0  0  0  0  0  0  0  0  0
   -5.0007   -5.2286    0.3345 O   0  0  0  0  0  0  0  0  0  0  0  0
   -2.9508   -6.4495    0.4995 C   0  0  1  0  0  0  0  0  0  0  0  0
   -3.5593   -7.4551   -0.3230 O   0  0  0  0  0  0  0  0  0  0  0  0
   -2.1676   -5.5621   -0.4541 C   0  0  1  0  0  0  0  0  0  0  0  0
   -1.0105   -5.0010    0.1619 O   0  0  0  0  0  0  0  0  0  0  0  0
   -1.8069   -6.5070   -1.5869 C   0  0  1  0  0  0  0  0  0  0  0  0
   -0.5676   -7.1615   -1.3036 O   0  0  0  0  0  0  0  0  0  0  0  0
   -2.9118   -7.5469   -1.6017 C   0  0  2  0  0  0  0  0  0  0  0  0
   -3.8751   -0.0889   -0.8388 C   0  0  1  0  0  0  0  0  0  0  0  0
   -4.8785   -8.8214   -6.3662 N   0  0  0  0  0  0  0  0  0  0  0  0
   -3.8673   -9.4097   -5.6707 C   0  0  1  0  0  0  0  0  0  0  0  0
   -4.8747   -1.1948   -0.6510 C   0  0  2  0  0  0  0  0  0  0  0  0
   -3.2411  -10.4718   -6.2279 N   0  0  0  0  0  0  0  0  0  0  0  0
   -5.9914   -0.6191    0.0291 O   0  0  0  0  0  0  0  0  0  0  0  0
   -4.1572   -2.2231    0.2008 C   0  0  2  0  0  0  0  0  0  0  0  0
   -3.4612   -8.9706   -4.4423 N   0  0  0  0  0  0  0  0  0  0  0  0
   -5.0305   -2.8229    1.1479 O   0  0  0  0  0  0  0  0  0  0  0  0
   -4.0581   -7.9111   -3.8399 C   0  0  2  0  0  0  0  0  0  0  0  0
   -3.0699   -1.4455    0.9160 C   0  0  2  0  0  0  0  0  0  0  0  0
   -2.8473   -0.2735    0.1337 O   0  0  0  0  0  0  0  0  0  0  0  0
   -5.1570   -7.2356   -4.5517 C   0  0  1  0  0  0  0  0  0  0  0  0
   -1.7675   -2.2280    1.0416 C   0  0  0  0  0  0  0  0  0  0  0  0
   -1.2695   -2.5193   -0.2658 O   0  0  0  0  0  0  0  0  0  0  0  0
   -5.5502   -7.7557   -5.8734 C   0  0  0  0  0  0  0  0  0  0  0  0
   -6.5549   -7.1728   -6.5754 O   0  0  0  0  0  0  0  0  0  0  0  0
   -5.5704   -6.2340   -3.7675 N   0  0  0  0  0  0  0  0  0  0  0  0
   -4.8015   -6.2569   -2.6398 C   0  0  0  0  0  0  0  0  0  0  0  0
   -3.8955   -7.2565   -2.6784 N   0  0  1  0  0  0  0  0  0  0  0  0
   -2.8997    2.7092   -5.1501 N   0  0  0  0  0  0  0  0  0  0  0  0
    0.0039   -4.0001   -2.2596 O   0  5  0  0  0  0  0  0  0  0  0  0
   -3.4724    3.0900   -3.9754 C   0  0  2  0  0  0  0  0  0  0  0  0
   -3.8731    4.3789   -3.8199 N   0  0  0  0  0  0  0  0  0  0  0  0
    1.2927   -3.3544    0.2623 O   0  0  0  0  0  0  0  0  0  0  0  0
   -3.6569    2.2183   -2.9467 N   0  0  0  0  0  0  0  0  0  0  0  0
   -3.2725    0.9237   -3.0393 C   0  0  2  0  0  0  0  0  0  0  0  0
   -2.6509    0.4524   -4.2839 C   0  0  2  0  0  0  0  0  0  0  0  0
   -2.4824    1.4440   -5.3676 C   0  0  0  0  0  0  0  0  0  0  0  0
   -1.9213    1.1010   -6.5534 O   0  0  0  0  0  0  0  0  0  0  0  0
   -2.3821   -0.8566   -4.1086 N   0  0  0  0  0  0  0  0  0  0  0  0
   -2.7950   -1.1939   -2.8505 C   0  0  0  0  0  0  0  0  0  0  0  0
   -3.3291   -0.1253   -2.2167 N   0  0  1  0  0  0  0  0  0  0  0  0
  1  3  1  6  0  0  0
  1  4  2  0  0  0  0
  1  6  1  0  0  0  0
  1 22  1  0  0  0  0
  2 28  1  0  0  0  0
  2 35  1  6  0  0  0
  2 38  2  0  0  0  0
  2 10  1  0  0  0  0
  5  6  1  0  0  0  0
  7  5  1  6  0  0  0
  7  8  1  0  0  0  0
  7  9  1  0  0  0  0
  9 10  1  1  0  0  0
  9 11  1  0  0  0  0
 11 12  1  1  0  0  0
 11 13  1  0  0  0  0
 13  8  1  1  0  0  0
 13 33  1  0  0  0  0
 14 46  1  0  0  0  0
 14 17  1  0  0  0  0
 14 25  1  1  0  0  0
 15 16  1  0  0  0  0
 15 29  1  0  0  0  0
 16 18  1  6  0  0  0
 16 21  1  0  0  0  0
 17 19  1  1  0  0  0
 17 20  1  0  0  0  0
 20 22  1  1  0  0  0
 20 24  1  0  0  0  0
 23 21  1  6  0  0  0
 23 26  1  0  0  0  0
 23 33  1  0  0  0  0
 24 25  1  6  0  0  0
 24 27  1  0  0  0  0
 26 29  1  1  0  0  0
 26 31  1  0  0  0  0
 27 28  1  0  0  0  0
 29 30  2  0  0  0  0
 31 32  1  0  0  0  0
 33 32  1  1  0  0  0
 34 36  1  0  0  0  0
 34 42  1  0  0  0  0
 36 37  1  1  0  0  0
 36 39  1  0  0  0  0
 40 39  1  6  0  0  0
 40 41  1  0  0  0  0
 40 46  1  0  0  0  0
 41 42  1  6  0  0  0
 41 44  1  0  0  0  0
 42 43  2  0  0  0  0
 44 45  1  0  0  0  0
 46 45  1  1  0  0  0
M  CHG  2   3  -1  35  -1
M  END
>  <CHROM.1>
-136.63847014,129.25325807,-3.43972017,-3.64536113,-1.94393626,-2.57097712
-1.45695220,-0.91896640

>  <Name>
ligand

>  <RI>
-1

>  <Rbt.Current_Directory>
/home/itssahil/PROJECTS/Mol_Feturizer/Test_systems_manuscript/rnas/3mum

>  <Rbt.Executable>
rbdock ($Id: //depot/dev/client3/rdock/2013.1/src/exe/rbdock.cxx#4 $)

>  <Rbt.Library>
libRbt.so (2013.1, Build901 2013/11/27)

>  <Rbt.Parameter_File>
/export/apps/rDock/src/rDock_2013.1_src/data/scripts/dock_solv.prm

>  <Rbt.Receptor>
prm/blind_docking_20.prm

>  <SCORE>
28.8953

>  <SCORE.INTER>
25.7049

>  <SCORE.INTER.CONST>
1

>  <SCORE.INTER.POLAR>
0

>  <SCORE.INTER.ROT>
2

>  <SCORE.INTER.SOLV>
34.6349

>  <SCORE.INTER.VDW>
0.658291

>  <SCORE.INTER.norm>
0.558802

>  <SCORE.INTRA>
-0.299723

>  <SCORE.INTRA.DIHEDRAL>
-0.0137455

>  <SCORE.INTRA.DIHEDRAL.0>
2.40424

>  <SCORE.INTRA.POLAR>
0

>  <SCORE.INTRA.POLAR.0>
0

>  <SCORE.INTRA.REPUL>
0

>  <SCORE.INTRA.REPUL.0>
0

>  <SCORE.INTRA.SOLV>
0.0603368

>  <SCORE.INTRA.SOLV.lig_0>
-134.169

>  <SCORE.INTRA.VDW>
-0.323019

>  <SCORE.INTRA.VDW.0>
-2.18386

>  <SCORE.INTRA.norm>
-0.00651572

>  <SCORE.RESTR>
3.49012

>  <SCORE.RESTR.CAVITY>
3.49012

>  <SCORE.RESTR.norm>
0.0758722

>  <SCORE.SYSTEM>
0

>  <SCORE.SYSTEM.CONST>
0

>  <SCORE.SYSTEM.DIHEDRAL>
0

>  <SCORE.SYSTEM.SOLV>
0

>  <SCORE.SYSTEM.norm>
0

>  <SCORE.heavy>
46

>  <SCORE.norm>
0.628159

>  <RMSD>
20.573

$$$$
ligand
 OpenBabel02271912143D
libRbt.so/2013.1/901 2013/11/27
 46 52  0  0  0  0  0  0  0  0999 V2000
   -5.3563   -2.2797    0.7177 P   0  0  1  0  0  0  0  0  0  0  0  0
   -1.2849   -6.3041   -0.6621 P   0  0  2  0  0  0  0  0  0  0  0  0
   -5.9378   -1.4685   -0.7471 O   0  5  0  0  0  0  0  0  0  0  0  0
   -6.2339   -1.7269    2.1680 O   0  0  0  0  0  0  0  0  0  0  0  0
   -5.0613   -4.7935    1.5034 C   0  0  0  0  0  0  0  0  0  0  0  0
   -5.5406   -3.8698    0.5259 O   0  0  0  0  0  0  0  0  0  0  0  0
   -4.9303   -6.1587    0.8556 C   0  0  1  0  0  0  0  0  0  0  0  0
   -6.1723   -6.5120    0.2306 O   0  0  0  0  0  0  0  0  0  0  0  0
   -3.8904   -6.2003   -0.2522 C   0  0  1  0  0  0  0  0  0  0  0  0
   -2.6015   -6.5679    0.2345 O   0  0  0  0  0  0  0  0  0  0  0  0
   -4.4512   -7.2337   -1.2131 C   0  0  1  0  0  0  0  0  0  0  0  0
   -3.9989   -8.5399   -0.8474 O   0  0  0  0  0  0  0  0  0  0  0  0
   -5.9559   -7.1720   -1.0265 C   0  0  2  0  0  0  0  0  0  0  0  0
   -1.3206   -1.2233   -1.5349 C   0  0  1  0  0  0  0  0  0  0  0  0
   -7.1200   -6.7575   -6.1904 N   0  0  0  0  0  0  0  0  0  0  0  0
   -6.4498   -7.7471   -5.5393 C   0  0  1  0  0  0  0  0  0  0  0  0
   -2.7696   -1.2609   -1.1395 C   0  0  2  0  0  0  0  0  0  0  0  0
   -5.9937   -8.7947   -6.2640 N   0  0  0  0  0  0  0  0  0  0  0  0
   -3.0595    0.0055   -0.5454 O   0  0  0  0  0  0  0  0  0  0  0  0
   -2.8674   -2.3954   -0.1389 C   0  0  2  0  0  0  0  0  0  0  0  0
   -6.2188   -7.7220   -4.1929 N   0  0  0  0  0  0  0  0  0  0  0  0
   -3.7707   -2.0905    0.9149 O   0  0  0  0  0  0  0  0  0  0  0  0
   -6.6572   -6.6950   -3.4217 C   0  0  2  0  0  0  0  0  0  0  0  0
   -1.4628   -2.5524    0.4097 C   0  0  2  0  0  0  0  0  0  0  0  0
   -0.5946   -1.9793   -0.5666 O   0  0  0  0  0  0  0  0  0  0  0  0
   -7.3862   -5.5956   -4.0776 C   0  0  1  0  0  0  0  0  0  0  0  0
   -1.0769   -4.0092    0.6407 C   0  0  0  0  0  0  0  0  0  0  0  0
   -1.1087   -4.7045   -0.6073 O   0  0  0  0  0  0  0  0  0  0  0  0
   -7.6047   -5.6795   -5.5327 C   0  0  0  0  0  0  0  0  0  0  0  0
   -8.2687   -4.6954   -6.1905 O   0  0  0  0  0  0  0  0  0  0  0  0
   -7.7030   -4.7147   -3.1222 N   0  0  0  0  0  0  0  0  0  0  0  0
   -7.2178   -5.2022   -1.9430 C   0  0  0  0  0  0  0  0  0  0  0  0
   -6.5911   -6.3849   -2.1165 N   0  0  1  0  0  0  0  0  0  0  0  0
    2.0812   -2.1862   -5.3909 N   0  0  0  0  0  0  0  0  0  0  0  0
   -1.5199   -6.8509   -2.3433 O   0  5  0  0  0  0  0  0  0  0  0  0
    2.2803   -1.5950   -4.1810 C   0  0  2  0  0  0  0  0  0  0  0  0
    3.5264   -1.1681   -3.8482 N   0  0  0  0  0  0  0  0  0  0  0  0
    0.1805   -7.0511    0.0032 O   0  0  0  0  0  0  0  0  0  0  0  0
    1.2674   -1.4174   -3.2894 N   0  0  0  0  0  0  0  0  0  0  0  0
    0.0064   -1.8275   -3.5609 C   0  0  2  0  0  0  0  0  0  0  0  0
   -0.2714   -2.4701   -4.8523 C   0  0  2  0  0  0  0  0  0  0  0  0
    0.8676   -2.6299   -5.7814 C   0  0  0  0  0  0  0  0  0  0  0  0
    0.7074   -3.2088   -6.9970 O   0  0  0  0  0  0  0  0  0  0  0  0
   -1.5870   -2.7623   -4.8621 N   0  0  0  0  0  0  0  0  0  0  0  0
   -2.1078   -2.3439   -3.6701 C   0  0  0  0  0  0  0  0  0  0  0  0
   -1.1502   -1.7832   -2.8970 N   0  0  1  0  0  0  0  0  0  0  0  0
  1  3  1  6  0  0  0
  1  4  2  0  0  0  0
  1  6  1  0  0  0  0
  1 22  1  0  0  0  0
  2 28  1  0  0  0  0
  2 35  1  6  0  0  0
  2 38  2  0  0  0  0
  2 10  1  0  0  0  0
  5  6  1  0  0  0  0
  7  5  1  6  0  0  0
  7  8  1  0  0  0  0
  7  9  1  0  0  0  0
  9 10  1  1  0  0  0
  9 11  1  0  0  0  0
 11 12  1  1  0  0  0
 11 13  1  0  0  0  0
 13  8  1  1  0  0  0
 13 33  1  0  0  0  0
 14 46  1  0  0  0  0
 14 17  1  0  0  0  0
 14 25  1  1  0  0  0
 15 16  1  0  0  0  0
 15 29  1  0  0  0  0
 16 18  1  6  0  0  0
 16 21  1  0  0  0  0
 17 19  1  1  0  0  0
 17 20  1  0  0  0  0
 20 22  1  1  0  0  0
 20 24  1  0  0  0  0
 23 21  1  6  0  0  0
 23 26  1  0  0  0  0
 23 33  1  0  0  0  0
 24 25  1  6  0  0  0
 24 27  1  0  0  0  0
 26 29  1  1  0  0  0
 26 31  1  0  0  0  0
 27 28  1  0  0  0  0
 29 30  2  0  0  0  0
 31 32  1  0  0  0  0
 33 32  1  1  0  0  0
 34 36  1  0  0  0  0
 34 42  1  0  0  0  0
 36 37  1  1  0  0  0
 36 39  1  0  0  0  0
 40 39  1  6  0  0  0
 40 41  1  0  0  0  0
 40 46  1  0  0  0  0
 41 42  1  6  0  0  0
 41 44  1  0  0  0  0
 42 43  2  0  0  0  0
 44 45  1  0  0  0  0
 46 45  1  1  0  0  0
M  CHG  2   3  -1  35  -1
M  END
>  <CHROM.1>
-177.08497452,176.42679951,-3.31161620,-4.27014574,-2.00342135,3.02670120
-0.52017040,-1.92921980

>  <Name>
ligand

>  <RI>
-1

>  <Rbt.Current_Directory>
/home/itssahil/PROJECTS/Mol_Feturizer/Test_systems_manuscript/rnas/3mum

>  <Rbt.Executable>
rbdock ($Id: //depot/dev/client3/rdock/2013.1/src/exe/rbdock.cxx#4 $)

>  <Rbt.Library>
libRbt.so (2013.1, Build901 2013/11/27)

>  <Rbt.Parameter_File>
/export/apps/rDock/src/rDock_2013.1_src/data/scripts/dock_solv.prm

>  <Rbt.Receptor>
prm/blind_docking_20.prm

>  <SCORE>
51.8718

>  <SCORE.INTER>
50.6863

>  <SCORE.INTER.CONST>
1

>  <SCORE.INTER.POLAR>
0

>  <SCORE.INTER.ROT>
2

>  <SCORE.INTER.SOLV>
37.4417

>  <SCORE.INTER.VDW>
16.377

>  <SCORE.INTER.norm>
1.10188

>  <SCORE.INTRA>
0.506066

>  <SCORE.INTRA.DIHEDRAL>
-0.00945206

>  <SCORE.INTRA.DIHEDRAL.0>
2.40424

>  <SCORE.INTRA.POLAR>
0

>  <SCORE.INTRA.POLAR.0>
0

>  <SCORE.INTRA.REPUL>
0

>  <SCORE.INTRA.REPUL.0>
0

>  <SCORE.INTRA.SOLV>
0.0192353

>  <SCORE.INTRA.SOLV.lig_0>
-134.169

>  <SCORE.INTRA.VDW>
0.501174

>  <SCORE.INTRA.VDW.0>
-2.18386

>  <SCORE.INTRA.norm>
0.0110014

>  <SCORE.RESTR>
0.679415

>  <SCORE.RESTR.CAVITY>
0.679415

>  <SCORE.RESTR.norm>
0.0147699

>  <SCORE.SYSTEM>
0

>  <SCORE.SYSTEM.CONST>
0

>  <SCORE.SYSTEM.DIHEDRAL>
0

>  <SCORE.SYSTEM.SOLV>
0

>  <SCORE.SYSTEM.norm>
0

>  <SCORE.heavy>
46

>  <SCORE.norm>
1.12765

>  <RMSD>
20.577

$$$$
ligand
 OpenBabel02271912143D
libRbt.so/2013.1/901 2013/11/27
 46 52  0  0  0  0  0  0  0  0999 V2000
   -5.1351   -5.4180   -2.6855 P   0  0  1  0  0  0  0  0  0  0  0  0
   -1.8524   -1.9504    0.7606 P   0  0  2  0  0  0  0  0  0  0  0  0
   -4.0973   -6.4823   -3.6509 O   0  5  0  0  0  0  0  0  0  0  0  0
   -6.8634   -5.7668   -2.9513 O   0  0  0  0  0  0  0  0  0  0  0  0
   -5.3589   -4.8085   -0.1161 C   0  0  0  0  0  0  0  0  0  0  0  0
   -4.7587   -5.6146   -1.1302 O   0  0  0  0  0  0  0  0  0  0  0  0
   -4.4910   -4.8689    1.1265 C   0  0  1  0  0  0  0  0  0  0  0  0
   -4.2625   -6.2394    1.4834 O   0  0  0  0  0  0  0  0  0  0  0  0
   -3.1109   -4.2648    0.9247 C   0  0  1  0  0  0  0  0  0  0  0  0
   -3.0778   -2.8781    1.2550 O   0  0  0  0  0  0  0  0  0  0  0  0
   -2.2343   -5.0907    1.8497 C   0  0  1  0  0  0  0  0  0  0  0  0
   -2.2123   -4.5071    3.1548 O   0  0  0  0  0  0  0  0  0  0  0  0
   -2.9148   -6.4442    1.9356 C   0  0  2  0  0  0  0  0  0  0  0  0
   -1.8800   -2.4129   -4.3739 C   0  0  1  0  0  0  0  0  0  0  0  0
    0.9072   -7.4334   -1.6150 N   0  0  0  0  0  0  0  0  0  0  0  0
    0.6003   -6.2646   -0.9887 C   0  0  1  0  0  0  0  0  0  0  0  0
   -2.7200   -3.6408   -4.1644 C   0  0  2  0  0  0  0  0  0  0  0  0
    1.3420   -5.1704   -1.2772 N   0  0  0  0  0  0  0  0  0  0  0  0
   -3.5744   -3.7456   -5.3046 O   0  0  0  0  0  0  0  0  0  0  0  0
   -3.4979   -3.3642   -2.8931 C   0  0  2  0  0  0  0  0  0  0  0  0
   -0.4221   -6.1538   -0.0892 N   0  0  0  0  0  0  0  0  0  0  0  0
   -4.8256   -3.8648   -2.9697 O   0  0  0  0  0  0  0  0  0  0  0  0
   -1.1938   -7.2218    0.2355 C   0  0  2  0  0  0  0  0  0  0  0  0
   -3.5185   -1.8532   -2.7707 C   0  0  2  0  0  0  0  0  0  0  0  0
   -2.4174   -1.3823   -3.5461 O   0  0  0  0  0  0  0  0  0  0  0  0
   -0.9058   -8.5111   -0.4166 C   0  0  1  0  0  0  0  0  0  0  0  0
   -3.3687   -1.3738   -1.3312 C   0  0  0  0  0  0  0  0  0  0  0  0
   -2.1056   -1.8081   -0.8232 O   0  0  0  0  0  0  0  0  0  0  0  0
    0.2101   -8.5679   -1.3776 C   0  0  0  0  0  0  0  0  0  0  0  0
    0.5207   -9.7283   -2.0093 O   0  0  0  0  0  0  0  0  0  0  0  0
   -1.7931   -9.3929    0.0568 N   0  0  0  0  0  0  0  0  0  0  0  0
   -2.5925   -8.7295    0.9424 C   0  0  0  0  0  0  0  0  0  0  0  0
   -2.2394   -7.4315    1.0523 N   0  0  1  0  0  0  0  0  0  0  0  0
    3.0668   -2.2613   -6.0693 N   0  0  0  0  0  0  0  0  0  0  0  0
   -0.2779   -2.7265    1.0757 O   0  5  0  0  0  0  0  0  0  0  0  0
    1.9169   -1.9046   -6.7045 C   0  0  2  0  0  0  0  0  0  0  0  0
    1.9820   -1.4210   -7.9724 N   0  0  0  0  0  0  0  0  0  0  0  0
   -1.8654   -0.3272    1.4769 O   0  0  0  0  0  0  0  0  0  0  0  0
    0.6987   -2.0164   -6.1080 N   0  0  0  0  0  0  0  0  0  0  0  0
    0.5703   -2.4849   -4.8446 C   0  0  2  0  0  0  0  0  0  0  0  0
    1.7756   -2.8888   -4.1085 C   0  0  2  0  0  0  0  0  0  0  0  0
    3.0692   -2.7499   -4.8109 C   0  0  0  0  0  0  0  0  0  0  0  0
    4.2350   -3.0996   -4.2131 O   0  0  0  0  0  0  0  0  0  0  0  0
    1.3628   -3.3197   -2.9001 N   0  0  0  0  0  0  0  0  0  0  0  0
    0.0024   -3.1969   -2.8650 C   0  0  0  0  0  0  0  0  0  0  0  0
   -0.4661   -2.6993   -4.0320 N   0  0  1  0  0  0  0  0  0  0  0  0
  1  3  1  6  0  0  0
  1  4  2  0  0  0  0
  1  6  1  0  0  0  0
  1 22  1  0  0  0  0
  2 28  1  0  0  0  0
  2 35  1  1  0  0  0
  2 38  2  0  0  0  0
  2 10  1  0  0  0  0
  5  6  1  0  0  0  0
  7  5  1  6  0  0  0
  7  8  1  0  0  0  0
  7  9  1  0  0  0  0
  9 10  1  1  0  0  0
  9 11  1  0  0  0  0
 11 12  1  1  0  0  0
 11 13  1  0  0  0  0
 13  8  1  6  0  0  0
 13 33  1  0  0  0  0
 14 46  1  0  0  0  0
 14 17  1  0  0  0  0
 14 25  1  1  0  0  0
 15 16  1  0  0  0  0
 15 29  1  0  0  0  0
 16 18  1  6  0  0  0
 16 21  1  0  0  0  0
 17 19  1  6  0  0  0
 17 20  1  0  0  0  0
 20 22  1  6  0  0  0
 20 24  1  0  0  0  0
 23 21  1  6  0  0  0
 23 26  1  0  0  0  0
 23 33  1  0  0  0  0
 24 25  1  6  0  0  0
 24 27  1  0  0  0  0
 26 29  1  1  0  0  0
 26 31  1  0  0  0  0
 27 28  1  0  0  0  0
 29 30  2  0  0  0  0
 31 32  1  0  0  0  0
 33 32  1  1  0  0  0
 34 36  1  0  0  0  0
 34 42  1  0  0  0  0
 36 37  1  1  0  0  0
 36 39  1  0  0  0  0
 40 39  1  6  0  0  0
 40 41  1  0  0  0  0
 40 46  1  0  0  0  0
 41 42  1  6  0  0  0
 41 44  1  0  0  0  0
 42 43  2  0  0  0  0
 44 45  1  0  0  0  0
 46 45  1  1  0  0  0
M  CHG  2   3  -1  35  -1
M  END
>  <CHROM.1>
114.77457246,126.11689221,-1.65370572,-4.35604458,-1.74599740,2.25875019
-0.45559226,2.48349625

>  <Name>
ligand

>  <RI>
-1

>  <Rbt.Current_Directory>
/home/itssahil/PROJECTS/Mol_Feturizer/Test_systems_manuscript/rnas/3mum

>  <Rbt.Executable>
rbdock ($Id: //depot/dev/client3/rdock/2013.1/src/exe/rbdock.cxx#4 $)

>  <Rbt.Library>
libRbt.so (2013.1, Build901 2013/11/27)

>  <Rbt.Parameter_File>
/export/apps/rDock/src/rDock_2013.1_src/data/scripts/dock_solv.prm

>  <Rbt.Receptor>
prm/blind_docking_20.prm

>  <SCORE>
28.7133

>  <SCORE.INTER>
24.3949

>  <SCORE.INTER.CONST>
1

>  <SCORE.INTER.POLAR>
0

>  <SCORE.INTER.ROT>
2

>  <SCORE.INTER.SOLV>
45.4007

>  <SCORE.INTER.VDW>
-3.80362

>  <SCORE.INTER.norm>
0.530324

>  <SCORE.INTRA>
2.17896

>  <SCORE.INTRA.DIHEDRAL>
-0.0113297

>  <SCORE.INTRA.DIHEDRAL.0>
2.40424

>  <SCORE.INTRA.POLAR>
0

>  <SCORE.INTRA.POLAR.0>
0

>  <SCORE.INTRA.REPUL>
0

>  <SCORE.INTRA.REPUL.0>
0

>  <SCORE.INTRA.SOLV>
3.89106

>  <SCORE.INTRA.SOLV.lig_0>
-134.169

>  <SCORE.INTRA.VDW>
0.239094

>  <SCORE.INTRA.VDW.0>
-2.18386

>  <SCORE.INTRA.norm>
0.0473687

>  <SCORE.RESTR>
2.13949

>  <SCORE.RESTR.CAVITY>
2.13949

>  <SCORE.RESTR.norm>
0.0465106

>  <SCORE.SYSTEM>
0

>  <SCORE.SYSTEM.CONST>
0

>  <SCORE.SYSTEM.DIHEDRAL>
0

>  <SCORE.SYSTEM.SOLV>
0

>  <SCORE.SYSTEM.norm>
0

>  <SCORE.heavy>
46

>  <SCORE.norm>
0.624203

>  <RMSD>
20.676

$$$$
ligand
 OpenBabel02271912143D
libRbt.so/2013.1/901 2013/11/27
 46 52  0  0  0  0  0  0  0  0999 V2000
   -5.1278   -5.4195   -2.6991 P   0  0  1  0  0  0  0  0  0  0  0  0
   -1.8553   -1.9564    0.7612 P   0  0  2  0  0  0  0  0  0  0  0  0
   -4.0871   -6.4818   -3.6636 O   0  5  0  0  0  0  0  0  0  0  0  0
   -6.8552   -5.7685   -2.9700 O   0  0  0  0  0  0  0  0  0  0  0  0
   -5.3584   -4.8144   -0.1293 C   0  0  0  0  0  0  0  0  0  0  0  0
   -4.7553   -5.6186   -1.1431 O   0  0  0  0  0  0  0  0  0  0  0  0
   -4.4937   -4.8764    1.1154 C   0  0  1  0  0  0  0  0  0  0  0  0
   -4.2656   -6.2475    1.4706 O   0  0  0  0  0  0  0  0  0  0  0  0
   -3.1133   -4.2716    0.9182 C   0  0  1  0  0  0  0  0  0  0  0  0
   -3.0816   -2.8854    1.2509 O   0  0  0  0  0  0  0  0  0  0  0  0
   -2.2389   -5.0986    1.8441 C   0  0  1  0  0  0  0  0  0  0  0  0
   -2.2204   -4.5172    3.1502 O   0  0  0  0  0  0  0  0  0  0  0  0
   -2.9190   -6.4526    1.9260 C   0  0  2  0  0  0  0  0  0  0  0  0
   -1.8695   -2.4104   -4.3741 C   0  0  1  0  0  0  0  0  0  0  0  0
    0.8840   -7.4241   -1.6498 N   0  0  0  0  0  0  0  0  0  0  0  0
    0.5706   -6.2548   -1.0276 C   0  0  1  0  0  0  0  0  0  0  0  0
   -2.7096   -3.6390   -4.1688 C   0  0  2  0  0  0  0  0  0  0  0  0
    1.2991   -5.1550   -1.3282 N   0  0  0  0  0  0  0  0  0  0  0  0
   -3.5610   -3.7422   -5.3114 O   0  0  0  0  0  0  0  0  0  0  0  0
   -3.4908   -3.3647   -2.8991 C   0  0  2  0  0  0  0  0  0  0  0  0
   -0.4457   -6.1490   -0.1205 N   0  0  0  0  0  0  0  0  0  0  0  0
   -4.8182   -3.8658   -2.9799 O   0  0  0  0  0  0  0  0  0  0  0  0
   -1.2041   -7.2227    0.2164 C   0  0  2  0  0  0  0  0  0  0  0  0
   -3.5123   -1.8540   -2.7742 C   0  0  2  0  0  0  0  0  0  0  0  0
   -2.4094   -1.3814   -3.5460 O   0  0  0  0  0  0  0  0  0  0  0  0
   -0.9085   -8.5128   -0.4307 C   0  0  1  0  0  0  0  0  0  0  0  0
   -3.3664   -1.3769   -1.3335 C   0  0  0  0  0  0  0  0  0  0  0  0
   -2.1045   -1.8116   -0.8230 O   0  0  0  0  0  0  0  0  0  0  0  0
    0.2001   -8.5641   -1.4004 C   0  0  0  0  0  0  0  0  0  0  0  0
    0.5171   -9.7249   -2.0281 O   0  0  0  0  0  0  0  0  0  0  0  0
   -1.7833   -9.4006    0.0546 N   0  0  0  0  0  0  0  0  0  0  0  0
   -2.5821   -8.7402    0.9430 C   0  0  0  0  0  0  0  0  0  0  0  0
   -2.2409   -7.4382    1.0427 N   0  0  1  0  0  0  0  0  0  0  0  0
    3.0812   -2.2579   -6.0581 N   0  0  0  0  0  0  0  0  0  0  0  0
   -0.2813   -2.7324    1.0790 O   0  5  0  0  0  0  0  0  0  0  0  0
    1.9328   -1.9010   -6.6957 C   0  0  2  0  0  0  0  0  0  0  0  0
    2.0007   -1.4169   -7.9634 N   0  0  0  0  0  0  0  0  0  0  0  0
   -1.8707   -0.3344    1.4802 O   0  0  0  0  0  0  0  0  0  0  0  0
    0.7132   -2.0131   -6.1021 N   0  0  0  0  0  0  0  0  0  0  0  0
    0.5819   -2.4821   -4.8392 C   0  0  2  0  0  0  0  0  0  0  0  0
    1.7855   -2.8862   -4.1005 C   0  0  2  0  0  0  0  0  0  0  0  0
    3.0808   -2.7469   -4.7998 C   0  0  0  0  0  0  0  0  0  0  0  0
    4.2451   -3.0968   -4.1995 O   0  0  0  0  0  0  0  0  0  0  0  0
    1.3699   -3.3176   -2.8932 N   0  0  0  0  0  0  0  0  0  0  0  0
    0.0095   -3.1948   -2.8612 C   0  0  0  0  0  0  0  0  0  0  0  0
   -0.4564   -2.6969   -4.0291 N   0  0  1  0  0  0  0  0  0  0  0  0
  1  3  1  6  0  0  0
  1  4  2  0  0  0  0
  1  6  1  0  0  0  0
  1 22  1  0  0  0  0
  2 28  1  0  0  0  0
  2 35  1  1  0  0  0
  2 38  2  0  0  0  0
  2 10  1  0  0  0  0
  5  6  1  0  0  0  0
  7  5  1  6  0  0  0
  7  8  1  0  0  0  0
  7  9  1  0  0  0  0
  9 10  1  1  0  0  0
  9 11  1  0  0  0  0
 11 12  1  1  0  0  0
 11 13  1  0  0  0  0
 13  8  1  6  0  0  0
 13 33  1  0  0  0  0
 14 46  1  0  0  0  0
 14 17  1  0  0  0  0
 14 25  1  1  0  0  0
 15 16  1  0  0  0  0
 15 29  1  0  0  0  0
 16 18  1  6  0  0  0
 16 21  1  0  0  0  0
 17 19  1  6  0  0  0
 17 20  1  0  0  0  0
 20 22  1  6  0  0  0
 20 24  1  0  0  0  0
 23 21  1  6  0  0  0
 23 26  1  0  0  0  0
 23 33  1  0  0  0  0
 24 25  1  6  0  0  0
 24 27  1  0  0  0  0
 26 29  1  1  0  0  0
 26 31  1  0  0  0  0
 27 28  1  0  0  0  0
 29 30  2  0  0  0  0
 31 32  1  0  0  0  0
 33 32  1  1  0  0  0
 34 36  1  0  0  0  0
 34 42  1  0  0  0  0
 36 37  1  1  0  0  0
 36 39  1  0  0  0  0
 40 39  1  6  0  0  0
 40 41  1  0  0  0  0
 40 46  1  0  0  0  0
 41 42  1  6  0  0  0
 41 44  1  0  0  0  0
 42 43  2  0  0  0  0
 44 45  1  0  0  0  0
 46 45  1  1  0  0  0
M  CHG  2   3  -1  35  -1
M  END
>  <CHROM.1>
113.85677640,126.03927146,-1.65235026,-4.35709402,-1.75266002,2.26389396
-0.46075096,2.49203333

>  <Name>
ligand

>  <RI>
-1

>  <Rbt.Current_Directory>
/home/itssahil/PROJECTS/Mol_Feturizer/Test_systems_manuscript/rnas/3mum

>  <Rbt.Executable>
rbdock ($Id: //depot/dev/client3/rdock/2013.1/src/exe/rbdock.cxx#4 $)

>  <Rbt.Library>
libRbt.so (2013.1, Build901 2013/11/27)

>  <Rbt.Parameter_File>
/export/apps/rDock/src/rDock_2013.1_src/data/scripts/dock_solv.prm

>  <Rbt.Receptor>
prm/blind_docking_20.prm

>  <SCORE>
28.6599

>  <SCORE.INTER>
24.0031

>  <SCORE.INTER.CONST>
1

>  <SCORE.INTER.POLAR>
0

>  <SCORE.INTER.ROT>
2

>  <SCORE.INTER.SOLV>
45.3974

>  <SCORE.INTER.VDW>
-4.06373

>  <SCORE.INTER.norm>
0.521807

>  <SCORE.INTRA>
2.51747

>  <SCORE.INTRA.DIHEDRAL>
-0.0110566

>  <SCORE.INTRA.DIHEDRAL.0>
2.40424

>  <SCORE.INTRA.POLAR>
0

>  <SCORE.INTRA.POLAR.0>
0

>  <SCORE.INTRA.REPUL>
0

>  <SCORE.INTRA.REPUL.0>
0

>  <SCORE.INTRA.SOLV>
4.00651

>  <SCORE.INTRA.SOLV.lig_0>
-134.169

>  <SCORE.INTRA.VDW>
0.519742

>  <SCORE.INTRA.VDW.0>
-2.18386

>  <SCORE.INTRA.norm>
0.0547276

>  <SCORE.RESTR>
2.1393

>  <SCORE.RESTR.CAVITY>
2.1393

>  <SCORE.RESTR.norm>
0.0465065

>  <SCORE.SYSTEM>
0

>  <SCORE.SYSTEM.CONST>
0

>  <SCORE.SYSTEM.DIHEDRAL>
0

>  <SCORE.SYSTEM.SOLV>
0

>  <SCORE.SYSTEM.norm>
0

>  <SCORE.heavy>
46

>  <SCORE.norm>
0.623041

>  <RMSD>
20.683

$$$$
ligand
 OpenBabel02271912143D
libRbt.so/2013.1/901 2013/11/27
 46 52  0  0  0  0  0  0  0  0999 V2000
   -1.4590   -6.0520   -1.0074 P   0  0  1  0  0  0  0  0  0  0  0  0
    2.1397   -2.2947   -3.7656 P   0  0  2  0  0  0  0  0  0  0  0  0
   -1.2919   -5.8837    0.7492 O   0  5  0  0  0  0  0  0  0  0  0  0
   -2.7310   -7.2252   -1.4376 O   0  0  0  0  0  0  0  0  0  0  0  0
   -1.8916   -4.4047   -3.0378 C   0  0  0  0  0  0  0  0  0  0  0  0
   -1.8027   -4.6038   -1.6268 O   0  0  0  0  0  0  0  0  0  0  0  0
   -1.7367   -2.9240   -3.3281 C   0  0  1  0  0  0  0  0  0  0  0  0
   -2.6782   -2.1818   -2.5404 O   0  0  0  0  0  0  0  0  0  0  0  0
   -0.3694   -2.3780   -2.9502 C   0  0  1  0  0  0  0  0  0  0  0  0
    0.5549   -2.4470   -4.0338 O   0  0  0  0  0  0  0  0  0  0  0  0
   -0.6693   -0.9444   -2.5493 C   0  0  1  0  0  0  0  0  0  0  0  0
   -0.6059   -0.0913   -3.6949 O   0  0  0  0  0  0  0  0  0  0  0  0
   -2.0986   -0.9667   -2.0402 C   0  0  2  0  0  0  0  0  0  0  0  0
    3.2459   -6.0614   -0.4240 C   0  0  1  0  0  0  0  0  0  0  0  0
   -4.0316   -3.1284    2.4077 N   0  0  0  0  0  0  0  0  0  0  0  0
   -4.2947   -3.4525    1.1122 C   0  0  1  0  0  0  0  0  0  0  0  0
    1.7706   -6.1189   -0.1455 C   0  0  2  0  0  0  0  0  0  0  0  0
   -5.1655   -4.4591    0.8689 N   0  0  0  0  0  0  0  0  0  0  0  0
    1.4766   -7.4742    0.1978 O   0  0  0  0  0  0  0  0  0  0  0  0
    1.1154   -5.7062   -1.4486 C   0  0  2  0  0  0  0  0  0  0  0  0
   -3.7202   -2.8034    0.0561 N   0  0  0  0  0  0  0  0  0  0  0  0
   -0.0654   -6.4548   -1.7035 O   0  0  0  0  0  0  0  0  0  0  0  0
   -2.8393   -1.7890    0.2471 C   0  0  2  0  0  0  0  0  0  0  0  0
    2.1539   -5.9948   -2.5147 C   0  0  2  0  0  0  0  0  0  0  0  0
    3.4110   -6.0187   -1.8407 O   0  0  0  0  0  0  0  0  0  0  0  0
   -2.5217   -1.3959    1.6310 C   0  0  1  0  0  0  0  0  0  0  0  0
    2.1854   -4.9370   -3.6122 C   0  0  0  0  0  0  0  0  0  0  0  0
    2.5305   -3.6758   -3.0358 O   0  0  0  0  0  0  0  0  0  0  0  0
   -3.1728   -2.1337    2.7281 C   0  0  0  0  0  0  0  0  0  0  0  0
   -2.9190   -1.8147    4.0227 O   0  0  0  0  0  0  0  0  0  0  0  0
   -1.6483   -0.3855    1.5574 N   0  0  0  0  0  0  0  0  0  0  0  0
   -1.4193   -0.1419    0.2338 C   0  0  0  0  0  0  0  0  0  0  0  0
   -2.1293   -0.9772   -0.5535 N   0  0  1  0  0  0  0  0  0  0  0  0
    7.5755   -4.0353    1.7017 N   0  0  0  0  0  0  0  0  0  0  0  0
    2.4915   -0.9047   -2.7050 O   0  5  0  0  0  0  0  0  0  0  0  0
    7.3613   -5.2704    1.1711 C   0  0  2  0  0  0  0  0  0  0  0  0
    8.3805   -6.1686    1.1484 N   0  0  0  0  0  0  0  0  0  0  0  0
    3.0953   -2.1592   -5.2544 O   0  0  0  0  0  0  0  0  0  0  0  0
    6.1544   -5.6366    0.6596 N   0  0  0  0  0  0  0  0  0  0  0  0
    5.1033   -4.7838    0.6478 C   0  0  2  0  0  0  0  0  0  0  0  0
    5.2722   -3.4370    1.2092 C   0  0  2  0  0  0  0  0  0  0  0  0
    6.6041   -3.0995    1.7554 C   0  0  0  0  0  0  0  0  0  0  0  0
    6.8540   -1.8816    2.2966 O   0  0  0  0  0  0  0  0  0  0  0  0
    4.0840   -2.8141    1.0803 N   0  0  0  0  0  0  0  0  0  0  0  0
    3.2254   -3.6914    0.4801 C   0  0  0  0  0  0  0  0  0  0  0  0
    3.8402   -4.8688    0.2261 N   0  0  1  0  0  0  0  0  0  0  0  0
  1  3  1  1  0  0  0
  1  4  2  0  0  0  0
  1  6  1  0  0  0  0
  1 22  1  0  0  0  0
  2 28  1  0  0  0  0
  2 35  1  1  0  0  0
  2 38  2  0  0  0  0
  2 10  1  0  0  0  0
  5  6  1  0  0  0  0
  7  5  1  1  0  0  0
  7  8  1  0  0  0  0
  7  9  1  0  0  0  0
  9 10  1  6  0  0  0
  9 11  1  0  0  0  0
 11 12  1  6  0  0  0
 11 13  1  0  0  0  0
 13  8  1  6  0  0  0
 13 33  1  0  0  0  0
 14 46  1  0  0  0  0
 14 17  1  0  0  0  0
 14 25  1  6  0  0  0
 15 16  1  0  0  0  0
 15 29  1  0  0  0  0
 16 18  1  6  0  0  0
 16 21  1  0  0  0  0
 17 19  1  6  0  0  0
 17 20  1  0  0  0  0
 20 22  1  6  0  0  0
 20 24  1  0  0  0  0
 23 21  1  6  0  0  0
 23 26  1  0  0  0  0
 23 33  1  0  0  0  0
 24 25  1  1  0  0  0
 24 27  1  0  0  0  0
 26 29  1  1  0  0  0
 26 31  1  0  0  0  0
 27 28  1  0  0  0  0
 29 30  2  0  0  0  0
 31 32  1  0  0  0  0
 33 32  1  1  0  0  0
 34 36  1  0  0  0  0
 34 42  1  0  0  0  0
 36 37  1  6  0  0  0
 36 39  1  0  0  0  0
 40 39  1  1  0  0  0
 40 41  1  0  0  0  0
 40 46  1  0  0  0  0
 41 42  1  1  0  0  0
 41 44  1  0  0  0  0
 42 43  2  0  0  0  0
 44 45  1  0  0  0  0
 46 45  1  6  0  0  0
M  CHG  2   3  -1  35  -1
M  END
>  <CHROM.1>
-14.87112700,151.40496777,0.81015681,-3.66226218,-0.74950578,3.03485784,0.17350076
-1.32827946

>  <Name>
ligand

>  <RI>
-1

>  <Rbt.Current_Directory>
/home/itssahil/PROJECTS/Mol_Feturizer/Test_systems_manuscript/rnas/3mum

>  <Rbt.Executable>
rbdock ($Id: //depot/dev/client3/rdock/2013.1/src/exe/rbdock.cxx#4 $)

>  <Rbt.Library>
libRbt.so (2013.1, Build901 2013/11/27)

>  <Rbt.Parameter_File>
/export/apps/rDock/src/rDock_2013.1_src/data/scripts/dock_solv.prm

>  <Rbt.Receptor>
prm/blind_docking_20.prm

>  <SCORE>
83.9712

>  <SCORE.INTER>
81.7479

>  <SCORE.INTER.CONST>
1

>  <SCORE.INTER.POLAR>
0

>  <SCORE.INTER.ROT>
2

>  <SCORE.INTER.SOLV>
35.6632

>  <SCORE.INTER.VDW>
37.6775

>  <SCORE.INTER.norm>
1.77713

>  <SCORE.INTRA>
0.111983

>  <SCORE.INTRA.DIHEDRAL>
-0.0292309

>  <SCORE.INTRA.DIHEDRAL.0>
2.40424

>  <SCORE.INTRA.POLAR>
0

>  <SCORE.INTRA.POLAR.0>
0

>  <SCORE.INTRA.REPUL>
0

>  <SCORE.INTRA.REPUL.0>
0

>  <SCORE.INTRA.SOLV>
1.29886

>  <SCORE.INTRA.SOLV.lig_0>
-134.169

>  <SCORE.INTRA.VDW>
-0.522832

>  <SCORE.INTRA.VDW.0>
-2.18386

>  <SCORE.INTRA.norm>
0.00243442

>  <SCORE.RESTR>
2.11135

>  <SCORE.RESTR.CAVITY>
2.11135

>  <SCORE.RESTR.norm>
0.0458989

>  <SCORE.SYSTEM>
0

>  <SCORE.SYSTEM.CONST>
0

>  <SCORE.SYSTEM.DIHEDRAL>
0

>  <SCORE.SYSTEM.SOLV>
0

>  <SCORE.SYSTEM.norm>
0

>  <SCORE.heavy>
46

>  <SCORE.norm>
1.82546

>  <RMSD>
20.773

$$$$
ligand
 OpenBabel02271912143D
libRbt.so/2013.1/901 2013/11/27
 46 52  0  0  0  0  0  0  0  0999 V2000
   -6.2991   -3.8748    0.8834 P   0  0  1  0  0  0  0  0  0  0  0  0
   -1.4036   -4.6916   -2.2857 P   0  0  2  0  0  0  0  0  0  0  0  0
   -7.4777   -2.9278   -0.0419 O   0  5  0  0  0  0  0  0  0  0  0  0
   -6.9618   -4.3952    2.4547 O   0  0  0  0  0  0  0  0  0  0  0  0
   -4.8548   -6.0535    0.4470 C   0  0  0  0  0  0  0  0  0  0  0  0
   -5.8744   -5.1576    0.0041 O   0  0  0  0  0  0  0  0  0  0  0  0
   -4.3454   -6.8357   -0.7486 C   0  0  1  0  0  0  0  0  0  0  0  0
   -5.4521   -7.4478   -1.4256 O   0  0  0  0  0  0  0  0  0  0  0  0
   -3.6626   -5.9637   -1.7897 C   0  0  1  0  0  0  0  0  0  0  0  0
   -2.2594   -5.8534   -1.5615 O   0  0  0  0  0  0  0  0  0  0  0  0
   -3.9720   -6.6775   -3.0939 C   0  0  1  0  0  0  0  0  0  0  0  0
   -2.9659   -7.6557   -3.3682 O   0  0  0  0  0  0  0  0  0  0  0  0
   -5.2888   -7.3915   -2.8514 C   0  0  2  0  0  0  0  0  0  0  0  0
   -3.6595   -0.3064   -0.7829 C   0  0  1  0  0  0  0  0  0  0  0  0
   -8.8189   -6.9388   -6.7918 N   0  0  0  0  0  0  0  0  0  0  0  0
   -7.8570   -7.8837   -6.6067 C   0  0  1  0  0  0  0  0  0  0  0  0
   -4.8390   -1.1548   -0.4004 C   0  0  2  0  0  0  0  0  0  0  0  0
   -7.7410   -8.8675   -7.5284 N   0  0  0  0  0  0  0  0  0  0  0  0
   -5.4626   -0.5040    0.7080 O   0  0  0  0  0  0  0  0  0  0  0  0
   -4.2424   -2.4933   -0.0131 C   0  0  2  0  0  0  0  0  0  0  0  0
   -7.0084   -7.8754   -5.5359 N   0  0  0  0  0  0  0  0  0  0  0  0
   -4.9212   -3.0710    1.0937 O   0  0  0  0  0  0  0  0  0  0  0  0
   -7.0852   -6.9120   -4.5833 C   0  0  2  0  0  0  0  0  0  0  0  0
   -2.8060   -2.1853    0.3614 C   0  0  2  0  0  0  0  0  0  0  0  0
   -2.4898   -0.9513   -0.2808 O   0  0  0  0  0  0  0  0  0  0  0  0
   -8.1077   -5.8626   -4.7374 C   0  0  1  0  0  0  0  0  0  0  0  0
   -1.8302   -3.2626   -0.0987 C   0  0  0  0  0  0  0  0  0  0  0  0
   -1.8711   -3.3521   -1.5243 O   0  0  0  0  0  0  0  0  0  0  0  0
   -8.9940   -5.9254   -5.9132 C   0  0  0  0  0  0  0  0  0  0  0  0
   -9.9534   -4.9853   -6.1075 O   0  0  0  0  0  0  0  0  0  0  0  0
   -7.9804   -5.0391   -3.6911 N   0  0  0  0  0  0  0  0  0  0  0  0
   -6.9577   -5.5146   -2.9219 C   0  0  0  0  0  0  0  0  0  0  0  0
   -6.4186   -6.6331   -3.4511 N   0  0  1  0  0  0  0  0  0  0  0  0
   -3.0769    3.0817   -4.7262 N   0  0  0  0  0  0  0  0  0  0  0  0
   -1.7845   -4.5884   -4.0250 O   0  5  0  0  0  0  0  0  0  0  0  0
   -3.0952    3.3028   -3.3832 C   0  0  2  0  0  0  0  0  0  0  0  0
   -2.9388    4.5694   -2.9172 N   0  0  0  0  0  0  0  0  0  0  0  0
    0.3487   -4.8727   -2.0738 O   0  0  0  0  0  0  0  0  0  0  0  0
   -3.2651    2.2920   -2.4878 N   0  0  0  0  0  0  0  0  0  0  0  0
   -3.4191    1.0090   -2.8907 C   0  0  2  0  0  0  0  0  0  0  0  0
   -3.4110    0.7077   -4.3283 C   0  0  2  0  0  0  0  0  0  0  0  0
   -3.2285    1.8477   -5.2521 C   0  0  0  0  0  0  0  0  0  0  0  0
   -3.2101    1.6677   -6.5959 O   0  0  0  0  0  0  0  0  0  0  0  0
   -3.5924   -0.6227   -4.4442 N   0  0  0  0  0  0  0  0  0  0  0  0
   -3.7032   -1.1319   -3.1811 C   0  0  0  0  0  0  0  0  0  0  0  0
   -3.6013   -0.1506   -2.2561 N   0  0  1  0  0  0  0  0  0  0  0  0
  1  3  1  6  0  0  0
  1  4  2  0  0  0  0
  1  6  1  0  0  0  0
  1 22  1  0  0  0  0
  2 28  1  0  0  0  0
  2 35  1  6  0  0  0
  2 38  2  0  0  0  0
  2 10  1  0  0  0  0
  5  6  1  0  0  0  0
  7  5  1  1  0  0  0
  7  8  1  0  0  0  0
  7  9  1  0  0  0  0
  9 10  1  1  0  0  0
  9 11  1  0  0  0  0
 11 12  1  1  0  0  0
 11 13  1  0  0  0  0
 13  8  1  1  0  0  0
 13 33  1  0  0  0  0
 14 46  1  0  0  0  0
 14 17  1  0  0  0  0
 14 25  1  6  0  0  0
 15 16  1  0  0  0  0
 15 29  1  0  0  0  0
 16 18  1  6  0  0  0
 16 21  1  0  0  0  0
 17 19  1  1  0  0  0
 17 20  1  0  0  0  0
 20 22  1  1  0  0  0
 20 24  1  0  0  0  0
 23 21  1  6  0  0  0
 23 26  1  0  0  0  0
 23 33  1  0  0  0  0
 24 25  1  6  0  0  0
 24 27  1  0  0  0  0
 26 29  1  1  0  0  0
 26 31  1  0  0  0  0
 27 28  1  0  0  0  0
 29 30  2  0  0  0  0
 31 32  1  0  0  0  0
 33 32  1  1  0  0  0
 34 36  1  0  0  0  0
 34 42  1  0  0  0  0
 36 37  1  1  0  0  0
 36 39  1  0  0  0  0
 40 39  1  6  0  0  0
 40 41  1  0  0  0  0
 40 46  1  0  0  0  0
 41 42  1  6  0  0  0
 41 44  1  0  0  0  0
 42 43  2  0  0  0  0
 44 45  1  0  0  0  0
 46 45  1  1  0  0  0
M  CHG  2   3  -1  35  -1
M  END
>  <CHROM.1>
-139.60130066,132.69402786,-4.65615797,-3.50073774,-2.45271113,-2.51597880
-1.02907569,-0.67649207

>  <Name>
ligand

>  <RI>
-1

>  <Rbt.Current_Directory>
/home/itssahil/PROJECTS/Mol_Feturizer/Test_systems_manuscript/rnas/3mum

>  <Rbt.Executable>
rbdock ($Id: //depot/dev/client3/rdock/2013.1/src/exe/rbdock.cxx#4 $)

>  <Rbt.Library>
libRbt.so (2013.1, Build901 2013/11/27)

>  <Rbt.Parameter_File>
/export/apps/rDock/src/rDock_2013.1_src/data/scripts/dock_solv.prm

>  <Rbt.Receptor>
prm/blind_docking_80.prm

>  <SCORE>
40.3466

>  <SCORE.INTER>
39.7444

>  <SCORE.INTER.CONST>
1

>  <SCORE.INTER.POLAR>
0

>  <SCORE.INTER.ROT>
2

>  <SCORE.INTER.SOLV>
43.0278

>  <SCORE.INTER.VDW>
7.22037

>  <SCORE.INTER.norm>
0.86401

>  <SCORE.INTRA>
-0.297647

>  <SCORE.INTRA.DIHEDRAL>
-0.0176455

>  <SCORE.INTRA.DIHEDRAL.0>
2.40424

>  <SCORE.INTRA.POLAR>
0

>  <SCORE.INTRA.POLAR.0>
0

>  <SCORE.INTRA.REPUL>
0

>  <SCORE.INTRA.REPUL.0>
0

>  <SCORE.INTRA.SOLV>
0.0534809

>  <SCORE.INTRA.SOLV.lig_0>
-134.169

>  <SCORE.INTRA.VDW>
-0.315565

>  <SCORE.INTRA.VDW.0>
-2.18386

>  <SCORE.INTRA.norm>
-0.00647059

>  <SCORE.RESTR>
0.899809

>  <SCORE.RESTR.CAVITY>
0.899809

>  <SCORE.RESTR.norm>
0.0195611

>  <SCORE.SYSTEM>
0

>  <SCORE.SYSTEM.CONST>
0

>  <SCORE.SYSTEM.DIHEDRAL>
0

>  <SCORE.SYSTEM.SOLV>
0

>  <SCORE.SYSTEM.norm>
0

>  <SCORE.heavy>
46

>  <SCORE.norm>
0.8771

>  <RMSD>
20.797

$$$$
ligand
 OpenBabel02271912143D
libRbt.so/2013.1/901 2013/11/27
 46 52  0  0  0  0  0  0  0  0999 V2000
   -2.6376   -1.9971   -3.4298 P   0  0  1  0  0  0  0  0  0  0  0  0
   -3.2855   -4.8794    1.6642 P   0  0  2  0  0  0  0  0  0  0  0  0
   -1.6425   -2.9455   -4.5488 O   0  5  0  0  0  0  0  0  0  0  0  0
   -3.2409   -0.5022   -4.1917 O   0  0  0  0  0  0  0  0  0  0  0  0
   -4.7903   -2.4537   -1.9531 C   0  0  0  0  0  0  0  0  0  0  0  0
   -3.8719   -2.9139   -2.9446 O   0  0  0  0  0  0  0  0  0  0  0  0
   -5.5078   -3.6535   -1.3644 C   0  0  1  0  0  0  0  0  0  0  0  0
   -6.0827   -4.4328   -2.4228 O   0  0  0  0  0  0  0  0  0  0  0  0
   -4.5817   -4.6001   -0.6182 C   0  0  1  0  0  0  0  0  0  0  0  0
   -4.4840   -4.2753    0.7668 O   0  0  0  0  0  0  0  0  0  0  0  0
   -5.2249   -5.9577   -0.8397 C   0  0  1  0  0  0  0  0  0  0  0  0
   -6.1874   -6.2176    0.1852 O   0  0  0  0  0  0  0  0  0  0  0  0
   -5.9505   -5.8399   -2.1672 C   0  0  2  0  0  0  0  0  0  0  0  0
    1.0139   -3.2957   -0.6991 C   0  0  1  0  0  0  0  0  0  0  0  0
   -5.9233   -8.1555   -6.9453 N   0  0  0  0  0  0  0  0  0  0  0  0
   -6.9776   -7.6743   -6.2316 C   0  0  1  0  0  0  0  0  0  0  0  0
    0.1466   -3.0365   -1.8982 C   0  0  2  0  0  0  0  0  0  0  0  0
   -8.2147   -7.7772   -6.7700 N   0  0  0  0  0  0  0  0  0  0  0  0
    0.7376   -1.9380   -2.5947 O   0  0  0  0  0  0  0  0  0  0  0  0
   -1.2108   -2.6829   -1.3237 C   0  0  2  0  0  0  0  0  0  0  0  0
   -6.8364   -7.0986   -5.0006 N   0  0  0  0  0  0  0  0  0  0  0  0
   -1.8465   -1.6550   -2.0712 O   0  0  0  0  0  0  0  0  0  0  0  0
   -5.6173   -6.9700   -4.4185 C   0  0  2  0  0  0  0  0  0  0  0  0
   -0.9235   -2.1998    0.0843 C   0  0  2  0  0  0  0  0  0  0  0  0
    0.3430   -2.7535    0.4376 O   0  0  0  0  0  0  0  0  0  0  0  0
   -4.4422   -7.4777   -5.1476 C   0  0  1  0  0  0  0  0  0  0  0  0
   -1.9750   -2.6519    1.0915 C   0  0  0  0  0  0  0  0  0  0  0  0
   -1.9883   -4.0799    1.1438 O   0  0  0  0  0  0  0  0  0  0  0  0
   -4.6581   -8.0880   -6.4716 C   0  0  0  0  0  0  0  0  0  0  0  0
   -3.6130   -8.5737   -7.1884 O   0  0  0  0  0  0  0  0  0  0  0  0
   -3.3750   -7.2441   -4.3758 N   0  0  0  0  0  0  0  0  0  0  0  0
   -3.8216   -6.6360   -3.2381 C   0  0  0  0  0  0  0  0  0  0  0  0
   -5.1610   -6.4707   -3.2581 N   0  0  1  0  0  0  0  0  0  0  0  0
    3.7891   -6.9627    1.7949 N   0  0  0  0  0  0  0  0  0  0  0  0
   -3.0897   -6.6319    1.3969 O   0  5  0  0  0  0  0  0  0  0  0  0
    3.8485   -5.6065    1.8955 C   0  0  2  0  0  0  0  0  0  0  0  0
    4.7344   -5.0434    2.7581 N   0  0  0  0  0  0  0  0  0  0  0  0
   -3.4779   -4.5638    3.3995 O   0  0  0  0  0  0  0  0  0  0  0  0
    3.0453   -4.7924    1.1576 N   0  0  0  0  0  0  0  0  0  0  0  0
    2.1388   -5.2942    0.2866 C   0  0  2  0  0  0  0  0  0  0  0  0
    2.0298   -6.7508    0.1319 C   0  0  2  0  0  0  0  0  0  0  0  0
    2.9325   -7.5829    0.9558 C   0  0  0  0  0  0  0  0  0  0  0  0
    2.9063   -8.9364    0.8794 O   0  0  0  0  0  0  0  0  0  0  0  0
    1.0732   -6.9696   -0.7920 N   0  0  0  0  0  0  0  0  0  0  0  0
    0.6049   -5.7501   -1.1925 C   0  0  0  0  0  0  0  0  0  0  0  0
    1.2480   -4.7516   -0.5456 N   0  0  1  0  0  0  0  0  0  0  0  0
  1  3  1  6  0  0  0
  1  4  2  0  0  0  0
  1  6  1  0  0  0  0
  1 22  1  0  0  0  0
  2 28  1  0  0  0  0
  2 35  1  6  0  0  0
  2 38  2  0  0  0  0
  2 10  1  0  0  0  0
  5  6  1  0  0  0  0
  7  5  1  6  0  0  0
  7  8  1  0  0  0  0
  7  9  1  0  0  0  0
  9 10  1  1  0  0  0
  9 11  1  0  0  0  0
 11 12  1  1  0  0  0
 11 13  1  0  0  0  0
 13  8  1  6  0  0  0
 13 33  1  0  0  0  0
 14 46  1  0  0  0  0
 14 17  1  0  0  0  0
 14 25  1  1  0  0  0
 15 16  1  0  0  0  0
 15 29  1  0  0  0  0
 16 18  1  1  0  0  0
 16 21  1  0  0  0  0
 17 19  1  1  0  0  0
 17 20  1  0  0  0  0
 20 22  1  6  0  0  0
 20 24  1  0  0  0  0
 23 21  1  1  0  0  0
 23 26  1  0  0  0  0
 23 33  1  0  0  0  0
 24 25  1  1  0  0  0
 24 27  1  0  0  0  0
 26 29  1  6  0  0  0
 26 31  1  0  0  0  0
 27 28  1  0  0  0  0
 29 30  2  0  0  0  0
 31 32  1  0  0  0  0
 33 32  1  6  0  0  0
 34 36  1  0  0  0  0
 34 42  1  0  0  0  0
 36 37  1  1  0  0  0
 36 39  1  0  0  0  0
 40 39  1  6  0  0  0
 40 41  1  0  0  0  0
 40 46  1  0  0  0  0
 41 42  1  6  0  0  0
 41 44  1  0  0  0  0
 42 43  2  0  0  0  0
 44 45  1  0  0  0  0
 46 45  1  1  0  0  0
M  CHG  2   3  -1  35  -1
M  END
>  <CHROM.1>
-88.08957080,168.96866535,-2.24518346,-4.99351175,-1.55525335,2.71287659
0.51572896,-2.60714446

>  <Name>
ligand

>  <RI>
-1

>  <Rbt.Current_Directory>
/home/itssahil/PROJECTS/Mol_Feturizer/Test_systems_manuscript/rnas/3mum

>  <Rbt.Executable>
rbdock ($Id: //depot/dev/client3/rdock/2013.1/src/exe/rbdock.cxx#4 $)

>  <Rbt.Library>
libRbt.so (2013.1, Build901 2013/11/27)

>  <Rbt.Parameter_File>
/export/apps/rDock/src/rDock_2013.1_src/data/scripts/dock_solv.prm

>  <Rbt.Receptor>
prm/blind_docking_20.prm

>  <SCORE>
22.4183

>  <SCORE.INTER>
20.602

>  <SCORE.INTER.CONST>
1

>  <SCORE.INTER.POLAR>
0

>  <SCORE.INTER.ROT>
2

>  <SCORE.INTER.SOLV>
35.8191

>  <SCORE.INTER.VDW>
-3.13834

>  <SCORE.INTER.norm>
0.447871

>  <SCORE.INTRA>
0.783627

>  <SCORE.INTRA.DIHEDRAL>
-0.0234204

>  <SCORE.INTRA.DIHEDRAL.0>
2.40424

>  <SCORE.INTRA.POLAR>
0

>  <SCORE.INTRA.POLAR.0>
0

>  <SCORE.INTRA.REPUL>
0

>  <SCORE.INTRA.REPUL.0>
0

>  <SCORE.INTRA.SOLV>
0.0240347

>  <SCORE.INTRA.SOLV.lig_0>
-134.169

>  <SCORE.INTRA.VDW>
0.78332

>  <SCORE.INTRA.VDW.0>
-2.18386

>  <SCORE.INTRA.norm>
0.0170354

>  <SCORE.RESTR>
1.03258

>  <SCORE.RESTR.CAVITY>
1.03258

>  <SCORE.RESTR.norm>
0.0224475

>  <SCORE.SYSTEM>
0

>  <SCORE.SYSTEM.CONST>
0

>  <SCORE.SYSTEM.DIHEDRAL>
0

>  <SCORE.SYSTEM.SOLV>
0

>  <SCORE.SYSTEM.norm>
0

>  <SCORE.heavy>
46

>  <SCORE.norm>
0.487353

>  <RMSD>
20.803

$$$$
ligand
 OpenBabel02271912143D
libRbt.so/2013.1/901 2013/11/27
 46 52  0  0  0  0  0  0  0  0999 V2000
   -2.6012   -1.9921   -3.4254 P   0  0  1  0  0  0  0  0  0  0  0  0
   -3.2897   -4.8772    1.6617 P   0  0  2  0  0  0  0  0  0  0  0  0
   -1.6144   -2.9490   -4.5444 O   0  5  0  0  0  0  0  0  0  0  0  0
   -3.1869   -0.4892   -4.1854 O   0  0  0  0  0  0  0  0  0  0  0  0
   -4.7615   -2.4281   -1.9535 C   0  0  0  0  0  0  0  0  0  0  0  0
   -3.8463   -2.8963   -2.9443 O   0  0  0  0  0  0  0  0  0  0  0  0
   -5.4930   -3.6212   -1.3685 C   0  0  1  0  0  0  0  0  0  0  0  0
   -6.0744   -4.3921   -2.4294 O   0  0  0  0  0  0  0  0  0  0  0  0
   -4.5787   -4.5792   -0.6224 C   0  0  1  0  0  0  0  0  0  0  0  0
   -4.4800   -4.2583    0.7633 O   0  0  0  0  0  0  0  0  0  0  0  0
   -5.2362   -5.9294   -0.8478 C   0  0  1  0  0  0  0  0  0  0  0  0
   -6.2033   -6.1807    0.1749 O   0  0  0  0  0  0  0  0  0  0  0  0
   -5.9580   -5.8011   -2.1764 C   0  0  2  0  0  0  0  0  0  0  0  0
    1.0309   -3.3357   -0.6906 C   0  0  1  0  0  0  0  0  0  0  0  0
   -5.9588   -8.1990   -6.9137 N   0  0  0  0  0  0  0  0  0  0  0  0
   -7.0109   -7.7221   -6.1939 C   0  0  1  0  0  0  0  0  0  0  0  0
    0.1687   -3.0647   -1.8908 C   0  0  2  0  0  0  0  0  0  0  0  0
   -8.2533   -7.8540   -6.7132 N   0  0  0  0  0  0  0  0  0  0  0  0
    0.7729   -1.9714   -2.5841 O   0  0  0  0  0  0  0  0  0  0  0  0
   -1.1859   -2.6975   -1.3181 C   0  0  2  0  0  0  0  0  0  0  0  0
   -6.8622   -7.1229   -4.9751 N   0  0  0  0  0  0  0  0  0  0  0  0
   -1.8089   -1.6612   -2.0646 O   0  0  0  0  0  0  0  0  0  0  0  0
   -5.6375   -6.9649   -4.4123 C   0  0  2  0  0  0  0  0  0  0  0  0
   -0.8958   -2.2203    0.0914 C   0  0  2  0  0  0  0  0  0  0  0  0
    0.3639   -2.7884    0.4459 O   0  0  0  0  0  0  0  0  0  0  0  0
   -4.4644   -7.4666   -5.1488 C   0  0  1  0  0  0  0  0  0  0  0  0
   -1.9541   -2.6629    1.0958 C   0  0  0  0  0  0  0  0  0  0  0  0
   -1.9830   -4.0908    1.1452 O   0  0  0  0  0  0  0  0  0  0  0  0
   -4.6885   -8.1033   -6.4589 C   0  0  0  0  0  0  0  0  0  0  0  0
   -3.6455   -8.5849   -7.1817 O   0  0  0  0  0  0  0  0  0  0  0  0
   -3.3907   -7.2028   -4.3960 N   0  0  0  0  0  0  0  0  0  0  0  0
   -3.8315   -6.5820   -3.2629 C   0  0  0  0  0  0  0  0  0  0  0  0
   -5.1734   -6.4383   -3.2671 N   0  0  1  0  0  0  0  0  0  0  0  0
    3.7761   -7.0369    1.7859 N   0  0  0  0  0  0  0  0  0  0  0  0
   -3.1125   -6.6311    1.3913 O   0  5  0  0  0  0  0  0  0  0  0  0
    3.8517   -5.6816    1.8874 C   0  0  2  0  0  0  0  0  0  0  0  0
    4.7485   -5.1296    2.7459 N   0  0  0  0  0  0  0  0  0  0  0  0
   -3.4819   -4.5628    3.3973 O   0  0  0  0  0  0  0  0  0  0  0  0
    3.0544   -4.8576    1.1543 N   0  0  0  0  0  0  0  0  0  0  0  0
    2.1375   -5.3480    0.2876 C   0  0  2  0  0  0  0  0  0  0  0  0
    2.0109   -6.8031    0.1321 C   0  0  2  0  0  0  0  0  0  0  0  0
    2.9081   -7.6463    0.9507 C   0  0  0  0  0  0  0  0  0  0  0  0
    2.8658   -8.9994    0.8732 O   0  0  0  0  0  0  0  0  0  0  0  0
    1.0471   -7.0099   -0.7870 N   0  0  0  0  0  0  0  0  0  0  0  0
    0.5910   -5.7847   -1.1840 C   0  0  0  0  0  0  0  0  0  0  0  0
    1.2489   -4.7943   -0.5396 N   0  0  1  0  0  0  0  0  0  0  0  0
  1  3  1  6  0  0  0
  1  4  2  0  0  0  0
  1  6  1  0  0  0  0
  1 22  1  0  0  0  0
  2 28  1  0  0  0  0
  2 35  1  6  0  0  0
  2 38  2  0  0  0  0
  2 10  1  0  0  0  0
  5  6  1  0  0  0  0
  7  5  1  6  0  0  0
  7  8  1  0  0  0  0
  7  9  1  0  0  0  0
  9 10  1  1  0  0  0
  9 11  1  0  0  0  0
 11 12  1  1  0  0  0
 11 13  1  0  0  0  0
 13  8  1  6  0  0  0
 13 33  1  0  0  0  0
 14 46  1  0  0  0  0
 14 17  1  0  0  0  0
 14 25  1  1  0  0  0
 15 16  1  0  0  0  0
 15 29  1  0  0  0  0
 16 18  1  1  0  0  0
 16 21  1  0  0  0  0
 17 19  1  1  0  0  0
 17 20  1  0  0  0  0
 20 22  1  6  0  0  0
 20 24  1  0  0  0  0
 23 21  1  1  0  0  0
 23 26  1  0  0  0  0
 23 33  1  0  0  0  0
 24 25  1  1  0  0  0
 24 27  1  0  0  0  0
 26 29  1  6  0  0  0
 26 31  1  0  0  0  0
 27 28  1  0  0  0  0
 29 30  2  0  0  0  0
 31 32  1  0  0  0  0
 33 32  1  6  0  0  0
 34 36  1  0  0  0  0
 34 42  1  0  0  0  0
 36 37  1  1  0  0  0
 36 39  1  0  0  0  0
 40 39  1  6  0  0  0
 40 41  1  0  0  0  0
 40 46  1  0  0  0  0
 41 42  1  6  0  0  0
 41 44  1  0  0  0  0
 42 43  2  0  0  0  0
 44 45  1  0  0  0  0
 46 45  1  1  0  0  0
M  CHG  2   3  -1  35  -1
M  END
>  <CHROM.1>
-90.18183620,168.56311130,-2.24450395,-5.00604908,-1.55283222,2.72665639
0.52159563,-2.62648742

>  <Name>
ligand

>  <RI>
-1

>  <Rbt.Current_Directory>
/home/itssahil/PROJECTS/Mol_Feturizer/Test_systems_manuscript/rnas/3mum

>  <Rbt.Executable>
rbdock ($Id: //depot/dev/client3/rdock/2013.1/src/exe/rbdock.cxx#4 $)

>  <Rbt.Library>
libRbt.so (2013.1, Build901 2013/11/27)

>  <Rbt.Parameter_File>
/export/apps/rDock/src/rDock_2013.1_src/data/scripts/dock_solv.prm

>  <Rbt.Receptor>
prm/blind_docking_20.prm

>  <SCORE>
22.1509

>  <SCORE.INTER>
20.3263

>  <SCORE.INTER.CONST>
1

>  <SCORE.INTER.POLAR>
0

>  <SCORE.INTER.ROT>
2

>  <SCORE.INTER.SOLV>
35.1857

>  <SCORE.INTER.VDW>
-3.11102

>  <SCORE.INTER.norm>
0.441877

>  <SCORE.INTRA>
0.741899

>  <SCORE.INTRA.DIHEDRAL>
-0.0239165

>  <SCORE.INTRA.DIHEDRAL.0>
2.40424

>  <SCORE.INTRA.POLAR>
0

>  <SCORE.INTRA.POLAR.0>
0

>  <SCORE.INTRA.REPUL>
0

>  <SCORE.INTRA.REPUL.0>
0

>  <SCORE.INTRA.SOLV>
0.0209233

>  <SCORE.INTRA.SOLV.lig_0>
-134.169

>  <SCORE.INTRA.VDW>
0.743396

>  <SCORE.INTRA.VDW.0>
-2.18386

>  <SCORE.INTRA.norm>
0.0161282

>  <SCORE.RESTR>
1.08269

>  <SCORE.RESTR.CAVITY>
1.08269

>  <SCORE.RESTR.norm>
0.0235368

>  <SCORE.SYSTEM>
0

>  <SCORE.SYSTEM.CONST>
0

>  <SCORE.SYSTEM.DIHEDRAL>
0

>  <SCORE.SYSTEM.SOLV>
0

>  <SCORE.SYSTEM.norm>
0

>  <SCORE.heavy>
46

>  <SCORE.norm>
0.481542

>  <RMSD>
20.803

$$$$
ligand
 OpenBabel02271912143D
libRbt.so/2013.1/901 2013/11/27
 46 52  0  0  0  0  0  0  0  0999 V2000
    0.5099   -5.3377   -0.3512 P   0  0  1  0  0  0  0  0  0  0  0  0
   -5.2588   -4.1554   -0.3411 P   0  0  2  0  0  0  0  0  0  0  0  0
    1.0023   -5.9760   -1.9298 O   0  5  0  0  0  0  0  0  0  0  0  0
    1.9046   -5.1384    0.7417 O   0  0  0  0  0  0  0  0  0  0  0  0
   -0.8275   -3.2151    0.5029 C   0  0  0  0  0  0  0  0  0  0  0  0
   -0.2253   -3.9215   -0.5819 O   0  0  0  0  0  0  0  0  0  0  0  0
   -1.8245   -2.2211   -0.0614 C   0  0  1  0  0  0  0  0  0  0  0  0
   -1.1780   -1.4029   -1.0465 O   0  0  0  0  0  0  0  0  0  0  0  0
   -2.9891   -2.8816   -0.7810 C   0  0  1  0  0  0  0  0  0  0  0  0
   -4.0884   -3.1310    0.0922 O   0  0  0  0  0  0  0  0  0  0  0  0
   -3.3400   -1.8767   -1.8641 C   0  0  1  0  0  0  0  0  0  0  0  0
   -4.2880   -0.9295   -1.3656 O   0  0  0  0  0  0  0  0  0  0  0  0
   -2.0422   -1.1506   -2.1656 C   0  0  2  0  0  0  0  0  0  0  0  0
   -2.8121   -8.6090   -1.2110 C   0  0  1  0  0  0  0  0  0  0  0  0
    2.0168   -0.9882   -5.5848 N   0  0  0  0  0  0  0  0  0  0  0  0
    1.8138   -0.2503   -4.4593 C   0  0  1  0  0  0  0  0  0  0  0  0
   -1.5539   -7.7924   -1.2963 C   0  0  2  0  0  0  0  0  0  0  0  0
    2.7469    0.6689   -4.1201 N   0  0  0  0  0  0  0  0  0  0  0  0
   -0.4948   -8.6318   -0.8329 O   0  0  0  0  0  0  0  0  0  0  0  0
   -1.7941   -6.6154   -0.3718 C   0  0  2  0  0  0  0  0  0  0  0  0
    0.7109   -0.3987   -3.6666 N   0  0  0  0  0  0  0  0  0  0  0  0
   -0.6170   -6.2560    0.3385 O   0  0  0  0  0  0  0  0  0  0  0  0
   -0.2523   -1.3078   -3.9623 C   0  0  2  0  0  0  0  0  0  0  0  0
   -2.8598   -7.0918    0.5956 C   0  0  2  0  0  0  0  0  0  0  0  0
   -3.5282   -8.1697   -0.0576 O   0  0  0  0  0  0  0  0  0  0  0  0
   -0.0829   -2.1308   -5.1724 C   0  0  1  0  0  0  0  0  0  0  0  0
   -3.8697   -6.0049    0.9462 C   0  0  0  0  0  0  0  0  0  0  0  0
   -4.5495   -5.5976   -0.2429 O   0  0  0  0  0  0  0  0  0  0  0  0
    1.1280   -1.9250   -5.9870 C   0  0  0  0  0  0  0  0  0  0  0  0
    1.3367   -2.6538   -7.1128 O   0  0  0  0  0  0  0  0  0  0  0  0
   -1.1502   -2.9333   -5.2494 N   0  0  0  0  0  0  0  0  0  0  0  0
   -1.9477   -2.6526   -4.1775 C   0  0  0  0  0  0  0  0  0  0  0  0
   -1.4163   -1.6813   -3.4058 N   0  0  1  0  0  0  0  0  0  0  0  0
   -7.4740   -7.2347   -3.1465 N   0  0  0  0  0  0  0  0  0  0  0  0
   -5.8154   -3.8435   -2.0065 O   0  5  0  0  0  0  0  0  0  0  0  0
   -7.0517   -7.2980   -1.8540 C   0  0  2  0  0  0  0  0  0  0  0  0
   -7.9125   -6.9630   -0.8576 N   0  0  0  0  0  0  0  0  0  0  0  0
   -6.6500   -4.1404    0.7599 O   0  0  0  0  0  0  0  0  0  0  0  0
   -5.7895   -7.6870   -1.5256 N   0  0  0  0  0  0  0  0  0  0  0  0
   -4.8850   -8.0263   -2.4737 C   0  0  2  0  0  0  0  0  0  0  0  0
   -5.2829   -7.9806   -3.8869 C   0  0  2  0  0  0  0  0  0  0  0  0
   -6.6684   -7.5561   -4.1808 C   0  0  0  0  0  0  0  0  0  0  0  0
   -7.1269   -7.4859   -5.4550 O   0  0  0  0  0  0  0  0  0  0  0  0
   -4.2099   -8.3722   -4.6022 N   0  0  0  0  0  0  0  0  0  0  0  0
   -3.2048   -8.6424   -3.7169 C   0  0  0  0  0  0  0  0  0  0  0  0
   -3.6155   -8.4362   -2.4450 N   0  0  1  0  0  0  0  0  0  0  0  0
  1  3  1  6  0  0  0
  1  4  2  0  0  0  0
  1  6  1  0  0  0  0
  1 22  1  0  0  0  0
  2 28  1  0  0  0  0
  2 35  1  6  0  0  0
  2 38  2  0  0  0  0
  2 10  1  0  0  0  0
  5  6  1  0  0  0  0
  7  5  1  6  0  0  0
  7  8  1  0  0  0  0
  7  9  1  0  0  0  0
  9 10  1  1  0  0  0
  9 11  1  0  0  0  0
 11 12  1  1  0  0  0
 11 13  1  0  0  0  0
 13  8  1  1  0  0  0
 13 33  1  0  0  0  0
 14 46  1  0  0  0  0
 14 17  1  0  0  0  0
 14 25  1  1  0  0  0
 15 16  1  0  0  0  0
 15 29  1  0  0  0  0
 16 18  1  6  0  0  0
 16 21  1  0  0  0  0
 17 19  1  1  0  0  0
 17 20  1  0  0  0  0
 20 22  1  1  0  0  0
 20 24  1  0  0  0  0
 23 21  1  6  0  0  0
 23 26  1  0  0  0  0
 23 33  1  0  0  0  0
 24 25  1  6  0  0  0
 24 27  1  0  0  0  0
 26 29  1  1  0  0  0
 26 31  1  0  0  0  0
 27 28  1  0  0  0  0
 29 30  2  0  0  0  0
 31 32  1  0  0  0  0
 33 32  1  1  0  0  0
 34 36  1  0  0  0  0
 34 42  1  0  0  0  0
 36 37  1  6  0  0  0
 36 39  1  0  0  0  0
 40 39  1  1  0  0  0
 40 41  1  0  0  0  0
 40 46  1  0  0  0  0
 41 42  1  1  0  0  0
 41 44  1  0  0  0  0
 42 43  2  0  0  0  0
 44 45  1  0  0  0  0
 46 45  1  6  0  0  0
M  CHG  2   3  -1  35  -1
M  END
>  <CHROM.1>
-61.69891836,-124.12562646,-2.49909008,-4.69986360,-2.00055503,-0.69818110
0.35560464,2.41682756

>  <Name>
ligand

>  <RI>
-1

>  <Rbt.Current_Directory>
/home/itssahil/PROJECTS/Mol_Feturizer/Test_systems_manuscript/rnas/3mum

>  <Rbt.Executable>
rbdock ($Id: //depot/dev/client3/rdock/2013.1/src/exe/rbdock.cxx#4 $)

>  <Rbt.Library>
libRbt.so (2013.1, Build901 2013/11/27)

>  <Rbt.Parameter_File>
/export/apps/rDock/src/rDock_2013.1_src/data/scripts/dock_solv.prm

>  <Rbt.Receptor>
prm/blind_docking_20.prm

>  <SCORE>
2.43543

>  <SCORE.INTER>
-0.598246

>  <SCORE.INTER.CONST>
1

>  <SCORE.INTER.POLAR>
0

>  <SCORE.INTER.ROT>
2

>  <SCORE.INTER.SOLV>
36.063

>  <SCORE.INTER.VDW>
-17.3532

>  <SCORE.INTER.norm>
-0.0130053

>  <SCORE.INTRA>
1.72198

>  <SCORE.INTRA.DIHEDRAL>
0.00195494

>  <SCORE.INTRA.DIHEDRAL.0>
2.40424

>  <SCORE.INTRA.POLAR>
0

>  <SCORE.INTRA.POLAR.0>
0

>  <SCORE.INTRA.REPUL>
0

>  <SCORE.INTRA.REPUL.0>
0

>  <SCORE.INTRA.SOLV>
4.66618

>  <SCORE.INTRA.SOLV.lig_0>
-134.169

>  <SCORE.INTRA.VDW>
-0.612094

>  <SCORE.INTRA.VDW.0>
-2.18386

>  <SCORE.INTRA.norm>
0.0374343

>  <SCORE.RESTR>
1.3117

>  <SCORE.RESTR.CAVITY>
1.3117

>  <SCORE.RESTR.norm>
0.0285151

>  <SCORE.SYSTEM>
0

>  <SCORE.SYSTEM.CONST>
0

>  <SCORE.SYSTEM.DIHEDRAL>
0

>  <SCORE.SYSTEM.SOLV>
0

>  <SCORE.SYSTEM.norm>
0

>  <SCORE.heavy>
46

>  <SCORE.norm>
0.052944

>  <RMSD>
20.852

$$$$
ligand
 OpenBabel02271912143D
libRbt.so/2013.1/901 2013/11/27
 46 52  0  0  0  0  0  0  0  0999 V2000
   -1.3359   -4.6755   -2.3467 P   0  0  1  0  0  0  0  0  0  0  0  0
   -6.3005   -3.8090    0.6993 P   0  0  2  0  0  0  0  0  0  0  0  0
   -1.6377   -4.4734   -4.0816 O   0  5  0  0  0  0  0  0  0  0  0  0
    0.3887   -4.9780   -2.0101 O   0  0  0  0  0  0  0  0  0  0  0  0
   -1.8079   -3.2527   -0.1612 C   0  0  0  0  0  0  0  0  0  0  0  0
   -1.8275   -3.3417   -1.5860 O   0  0  0  0  0  0  0  0  0  0  0  0
   -2.7452   -2.1396    0.2668 C   0  0  1  0  0  0  0  0  0  0  0  0
   -2.4043   -0.9334   -0.4309 O   0  0  0  0  0  0  0  0  0  0  0  0
   -4.1998   -2.4132   -0.0794 C   0  0  1  0  0  0  0  0  0  0  0  0
   -4.8874   -3.0792    0.9774 O   0  0  0  0  0  0  0  0  0  0  0  0
   -4.7601   -1.0254   -0.3364 C   0  0  1  0  0  0  0  0  0  0  0  0
   -5.2399   -0.4564    0.8844 O   0  0  0  0  0  0  0  0  0  0  0  0
   -3.5791   -0.2056   -0.8219 C   0  0  2  0  0  0  0  0  0  0  0  0
   -5.2671   -7.2424   -3.0050 C   0  0  1  0  0  0  0  0  0  0  0  0
   -3.0466    2.9544   -5.0555 N   0  0  0  0  0  0  0  0  0  0  0  0
   -2.9276    3.2625   -3.7352 C   0  0  1  0  0  0  0  0  0  0  0  0
   -4.0192   -6.4467   -3.2636 C   0  0  2  0  0  0  0  0  0  0  0  0
   -2.6346    4.5403   -3.4005 N   0  0  0  0  0  0  0  0  0  0  0  0
   -3.0377   -7.3741   -3.7301 O   0  0  0  0  0  0  0  0  0  0  0  0
   -3.6511   -5.8571   -1.9165 C   0  0  2  0  0  0  0  0  0  0  0  0
   -3.0943    2.3390   -2.7422 N   0  0  0  0  0  0  0  0  0  0  0  0
   -2.2445   -5.8436   -1.7152 O   0  0  0  0  0  0  0  0  0  0  0  0
   -3.3869    1.0445   -3.0257 C   0  0  2  0  0  0  0  0  0  0  0  0
   -4.3129   -6.7666   -0.8999 C   0  0  2  0  0  0  0  0  0  0  0  0
   -5.3720   -7.4243   -1.5936 O   0  0  0  0  0  0  0  0  0  0  0  0
   -3.5300    0.6582   -4.4402 C   0  0  1  0  0  0  0  0  0  0  0  0
   -4.8814   -6.0063    0.2931 C   0  0  0  0  0  0  0  0  0  0  0  0
   -5.8897   -5.1035   -0.1656 O   0  0  0  0  0  0  0  0  0  0  0  0
   -3.3381    1.6989   -5.4659 C   0  0  0  0  0  0  0  0  0  0  0  0
   -3.4586    1.4012   -6.7846 O   0  0  0  0  0  0  0  0  0  0  0  0
   -3.8207   -0.6472   -4.4591 N   0  0  0  0  0  0  0  0  0  0  0  0
   -3.8642   -1.0727   -3.1628 C   0  0  0  0  0  0  0  0  0  0  0  0
   -3.6067   -0.0655   -2.3021 N   0  0  1  0  0  0  0  0  0  0  0  0
   -8.7629   -7.0532   -6.8924 N   0  0  0  0  0  0  0  0  0  0  0  0
   -7.4048   -2.7605   -0.2292 O   0  5  0  0  0  0  0  0  0  0  0  0
   -7.7168   -7.9032   -6.7021 C   0  0  2  0  0  0  0  0  0  0  0  0
   -7.4832   -8.8824   -7.6145 N   0  0  0  0  0  0  0  0  0  0  0  0
   -7.1114   -4.3591    2.1784 O   0  0  0  0  0  0  0  0  0  0  0  0
   -6.8939   -7.8042   -5.6226 N   0  0  0  0  0  0  0  0  0  0  0  0
   -7.0797   -6.8540   -4.6766 C   0  0  2  0  0  0  0  0  0  0  0  0
   -8.1908   -5.9053   -4.8283 C   0  0  2  0  0  0  0  0  0  0  0  0
   -9.0465   -6.0592   -6.0242 C   0  0  0  0  0  0  0  0  0  0  0  0
  -10.0941   -5.2287   -6.2507 O   0  0  0  0  0  0  0  0  0  0  0  0
   -8.1361   -5.0752   -3.7679 N   0  0  0  0  0  0  0  0  0  0  0  0
   -7.0771   -5.4652   -2.9976 C   0  0  0  0  0  0  0  0  0  0  0  0
   -6.4475   -6.5282   -3.5477 N   0  0  1  0  0  0  0  0  0  0  0  0
  1  3  1  6  0  0  0
  1  4  2  0  0  0  0
  1  6  1  0  0  0  0
  1 22  1  0  0  0  0
  2 28  1  0  0  0  0
  2 35  1  6  0  0  0
  2 38  2  0  0  0  0
  2 10  1  0  0  0  0
  5  6  1  0  0  0  0
  7  5  1  6  0  0  0
  7  8  1  0  0  0  0
  7  9  1  0  0  0  0
  9 10  1  1  0  0  0
  9 11  1  0  0  0  0
 11 12  1  1  0  0  0
 11 13  1  0  0  0  0
 13  8  1  6  0  0  0
 13 33  1  0  0  0  0
 14 46  1  0  0  0  0
 14 17  1  0  0  0  0
 14 25  1  1  0  0  0
 15 16  1  0  0  0  0
 15 29  1  0  0  0  0
 16 18  1  1  0  0  0
 16 21  1  0  0  0  0
 17 19  1  1  0  0  0
 17 20  1  0  0  0  0
 20 22  1  1  0  0  0
 20 24  1  0  0  0  0
 23 21  1  1  0  0  0
 23 26  1  0  0  0  0
 23 33  1  0  0  0  0
 24 25  1  6  0  0  0
 24 27  1  0  0  0  0
 26 29  1  6  0  0  0
 26 31  1  0  0  0  0
 27 28  1  0  0  0  0
 29 30  2  0  0  0  0
 31 32  1  0  0  0  0
 33 32  1  6  0  0  0
 34 36  1  0  0  0  0
 34 42  1  0  0  0  0
 36 37  1  1  0  0  0
 36 39  1  0  0  0  0
 40 39  1  6  0  0  0
 40 41  1  0  0  0  0
 40 46  1  0  0  0  0
 41 42  1  6  0  0  0
 41 44  1  0  0  0  0
 42 43  2  0  0  0  0
 44 45  1  0  0  0  0
 46 45  1  1  0  0  0
M  CHG  2   3  -1  35  -1
M  END
>  <CHROM.1>
-107.75654551,103.62009043,-4.63977984,-3.47991874,-2.57966769,-0.58846419
1.02286557,2.44306092

>  <Name>
ligand

>  <RI>
-1

>  <Rbt.Current_Directory>
/home/itssahil/PROJECTS/Mol_Feturizer/Test_systems_manuscript/rnas/3mum

>  <Rbt.Executable>
rbdock ($Id: //depot/dev/client3/rdock/2013.1/src/exe/rbdock.cxx#4 $)

>  <Rbt.Library>
libRbt.so (2013.1, Build901 2013/11/27)

>  <Rbt.Parameter_File>
/export/apps/rDock/src/rDock_2013.1_src/data/scripts/dock_solv.prm

>  <Rbt.Receptor>
prm/blind_docking_20.prm

>  <SCORE>
48.876

>  <SCORE.INTER>
47.262

>  <SCORE.INTER.CONST>
1

>  <SCORE.INTER.POLAR>
0

>  <SCORE.INTER.ROT>
2

>  <SCORE.INTER.SOLV>
44.4697

>  <SCORE.INTER.VDW>
11.7514

>  <SCORE.INTER.norm>
1.02743

>  <SCORE.INTRA>
-0.194832

>  <SCORE.INTRA.DIHEDRAL>
0.0148687

>  <SCORE.INTRA.DIHEDRAL.0>
2.40424

>  <SCORE.INTRA.POLAR>
0

>  <SCORE.INTRA.POLAR.0>
0

>  <SCORE.INTRA.REPUL>
0

>  <SCORE.INTRA.REPUL.0>
0

>  <SCORE.INTRA.SOLV>
0.0685908

>  <SCORE.INTRA.SOLV.lig_0>
-134.169

>  <SCORE.INTRA.VDW>
-0.236562

>  <SCORE.INTRA.VDW.0>
-2.18386

>  <SCORE.INTRA.norm>
-0.00423548

>  <SCORE.RESTR>
1.80888

>  <SCORE.RESTR.CAVITY>
1.80888

>  <SCORE.RESTR.norm>
0.0393235

>  <SCORE.SYSTEM>
0

>  <SCORE.SYSTEM.CONST>
0

>  <SCORE.SYSTEM.DIHEDRAL>
0

>  <SCORE.SYSTEM.SOLV>
0

>  <SCORE.SYSTEM.norm>
0

>  <SCORE.heavy>
46

>  <SCORE.norm>
1.06252

>  <RMSD>
20.898

$$$$
ligand
 OpenBabel02271912143D
libRbt.so/2013.1/901 2013/11/27
 46 52  0  0  0  0  0  0  0  0999 V2000
   -5.1290   -4.2213   -0.4774 P   0  0  1  0  0  0  0  0  0  0  0  0
    0.5892   -5.6276   -0.5170 P   0  0  2  0  0  0  0  0  0  0  0  0
   -5.7068   -3.9566   -2.1321 O   0  5  0  0  0  0  0  0  0  0  0  0
   -6.4525   -4.0905    0.7102 O   0  0  0  0  0  0  0  0  0  0  0  0
   -3.8018   -6.1371    0.7842 C   0  0  0  0  0  0  0  0  0  0  0  0
   -4.4539   -5.6835   -0.4022 O   0  0  0  0  0  0  0  0  0  0  0  0
   -2.8752   -7.2813    0.4194 C   0  0  1  0  0  0  0  0  0  0  0  0
   -3.6109   -8.2808   -0.3003 O   0  0  0  0  0  0  0  0  0  0  0  0
   -1.7423   -6.8652   -0.5045 C   0  0  1  0  0  0  0  0  0  0  0  0
   -0.5798   -6.4647    0.2175 O   0  0  0  0  0  0  0  0  0  0  0  0
   -1.4954   -8.1144   -1.3319 C   0  0  1  0  0  0  0  0  0  0  0  0
   -0.5450   -8.9573   -0.6756 O   0  0  0  0  0  0  0  0  0  0  0  0
   -2.8318   -8.8318   -1.3737 C   0  0  2  0  0  0  0  0  0  0  0  0
   -1.7752   -1.4040   -2.2917 C   0  0  1  0  0  0  0  0  0  0  0  0
   -7.1963   -7.1684   -3.8990 N   0  0  0  0  0  0  0  0  0  0  0  0
   -6.9544   -7.2402   -2.5616 C   0  0  1  0  0  0  0  0  0  0  0  0
   -3.0603   -2.1595   -2.1045 C   0  0  2  0  0  0  0  0  0  0  0  0
   -7.9313   -6.8454   -1.7128 N   0  0  0  0  0  0  0  0  0  0  0  0
   -4.0600   -1.1865   -1.7965 O   0  0  0  0  0  0  0  0  0  0  0  0
   -2.7940   -3.0914   -0.9390 C   0  0  2  0  0  0  0  0  0  0  0  0
   -5.7732   -7.6949   -2.0470 N   0  0  0  0  0  0  0  0  0  0  0  0
   -3.9311   -3.2171   -0.0960 O   0  0  0  0  0  0  0  0  0  0  0  0
   -4.7618   -8.1003   -2.8558 C   0  0  2  0  0  0  0  0  0  0  0  0
   -1.6520   -2.4467   -0.1784 C   0  0  2  0  0  0  0  0  0  0  0  0
   -0.9967   -1.5874   -1.1098 O   0  0  0  0  0  0  0  0  0  0  0  0
   -4.9729   -8.0459   -4.3128 C   0  0  1  0  0  0  0  0  0  0  0  0
   -0.6539   -3.4632    0.3647 C   0  0  0  0  0  0  0  0  0  0  0  0
   -0.0682   -4.1729   -0.7285 O   0  0  0  0  0  0  0  0  0  0  0  0
   -6.2680   -7.5457   -4.8075 C   0  0  0  0  0  0  0  0  0  0  0  0
   -6.5190   -7.4742   -6.1394 O   0  0  0  0  0  0  0  0  0  0  0  0
   -3.8512   -8.4966   -4.8853 N   0  0  0  0  0  0  0  0  0  0  0  0
   -2.9838   -8.8186   -3.8816 C   0  0  0  0  0  0  0  0  0  0  0  0
   -3.5233   -8.5846   -2.6668 N   0  0  1  0  0  0  0  0  0  0  0  0
    2.7468   -1.3818   -4.9222 N   0  0  0  0  0  0  0  0  0  0  0  0
    1.0230   -6.3529   -2.0875 O   0  5  0  0  0  0  0  0  0  0  0  0
    2.4086   -0.7485   -3.7658 C   0  0  2  0  0  0  0  0  0  0  0  0
    3.3343    0.0208   -3.1355 N   0  0  0  0  0  0  0  0  0  0  0  0
    2.0501   -5.4424    0.4726 O   0  0  0  0  0  0  0  0  0  0  0  0
    1.1682   -0.8617   -3.2173 N   0  0  0  0  0  0  0  0  0  0  0  0
    0.2061   -1.6186   -3.7948 C   0  0  2  0  0  0  0  0  0  0  0  0
    0.5104   -2.3245   -5.0465 C   0  0  2  0  0  0  0  0  0  0  0  0
    1.8726   -2.1583   -5.5968 C   0  0  0  0  0  0  0  0  0  0  0  0
    2.2448   -2.7689   -6.7489 O   0  0  0  0  0  0  0  0  0  0  0  0
   -0.6115   -2.9820   -5.4006 N   0  0  0  0  0  0  0  0  0  0  0  0
   -1.5563   -2.7209   -4.4486 C   0  0  0  0  0  0  0  0  0  0  0  0
   -1.0620   -1.9027   -3.4920 N   0  0  1  0  0  0  0  0  0  0  0  0
  1  3  1  6  0  0  0
  1  4  2  0  0  0  0
  1  6  1  0  0  0  0
  1 22  1  0  0  0  0
  2 28  1  0  0  0  0
  2 35  1  6  0  0  0
  2 38  2  0  0  0  0
  2 10  1  0  0  0  0
  5  6  1  0  0  0  0
  7  5  1  6  0  0  0
  7  8  1  0  0  0  0
  7  9  1  0  0  0  0
  9 10  1  1  0  0  0
  9 11  1  0  0  0  0
 11 12  1  1  0  0  0
 11 13  1  0  0  0  0
 13  8  1  1  0  0  0
 13 33  1  0  0  0  0
 14 46  1  0  0  0  0
 14 17  1  0  0  0  0
 14 25  1  1  0  0  0
 15 16  1  0  0  0  0
 15 29  1  0  0  0  0
 16 18  1  1  0  0  0
 16 21  1  0  0  0  0
 17 19  1  1  0  0  0
 17 20  1  0  0  0  0
 20 22  1  1  0  0  0
 20 24  1  0  0  0  0
 23 21  1  1  0  0  0
 23 26  1  0  0  0  0
 23 33  1  0  0  0  0
 24 25  1  6  0  0  0
 24 27  1  0  0  0  0
 26 29  1  6  0  0  0
 26 31  1  0  0  0  0
 27 28  1  0  0  0  0
 29 30  2  0  0  0  0
 31 32  1  0  0  0  0
 33 32  1  6  0  0  0
 34 36  1  0  0  0  0
 34 42  1  0  0  0  0
 36 37  1  1  0  0  0
 36 39  1  0  0  0  0
 40 39  1  6  0  0  0
 40 41  1  0  0  0  0
 40 46  1  0  0  0  0
 41 42  1  6  0  0  0
 41 44  1  0  0  0  0
 42 43  2  0  0  0  0
 44 45  1  0  0  0  0
 46 45  1  1  0  0  0
M  CHG  2   3  -1  35  -1
M  END
>  <CHROM.1>
-8.81432646,-167.13786743,-2.26185477,-4.88323571,-2.12980624,2.50280063
0.28888383,2.55318356

>  <Name>
ligand

>  <RI>
-1

>  <Rbt.Current_Directory>
/home/itssahil/PROJECTS/Mol_Feturizer/Test_systems_manuscript/rnas/3mum

>  <Rbt.Executable>
rbdock ($Id: //depot/dev/client3/rdock/2013.1/src/exe/rbdock.cxx#4 $)

>  <Rbt.Library>
libRbt.so (2013.1, Build901 2013/11/27)

>  <Rbt.Parameter_File>
/export/apps/rDock/src/rDock_2013.1_src/data/scripts/dock_solv.prm

>  <Rbt.Receptor>
prm/blind_docking_20.prm

>  <SCORE>
0.870209

>  <SCORE.INTER>
-2.33539

>  <SCORE.INTER.CONST>
1

>  <SCORE.INTER.POLAR>
0

>  <SCORE.INTER.ROT>
2

>  <SCORE.INTER.SOLV>
34.3334

>  <SCORE.INTER.VDW>
-17.9347

>  <SCORE.INTER.norm>
-0.0507693

>  <SCORE.INTRA>
1.25914

>  <SCORE.INTRA.DIHEDRAL>
0.0140753

>  <SCORE.INTRA.DIHEDRAL.0>
2.40424

>  <SCORE.INTRA.POLAR>
0

>  <SCORE.INTRA.POLAR.0>
0

>  <SCORE.INTRA.REPUL>
0

>  <SCORE.INTRA.REPUL.0>
0

>  <SCORE.INTRA.SOLV>
3.80001

>  <SCORE.INTRA.SOLV.lig_0>
-134.169

>  <SCORE.INTRA.VDW>
-0.647904

>  <SCORE.INTRA.VDW.0>
-2.18386

>  <SCORE.INTRA.norm>
0.0273726

>  <SCORE.RESTR>
1.94646

>  <SCORE.RESTR.CAVITY>
1.94646

>  <SCORE.RESTR.norm>
0.0423143

>  <SCORE.SYSTEM>
0

>  <SCORE.SYSTEM.CONST>
0

>  <SCORE.SYSTEM.DIHEDRAL>
0

>  <SCORE.SYSTEM.SOLV>
0

>  <SCORE.SYSTEM.norm>
0

>  <SCORE.heavy>
46

>  <SCORE.norm>
0.0189176

>  <RMSD>
21.112

$$$$
ligand
 OpenBabel02271912143D
libRbt.so/2013.1/901 2013/11/27
 46 52  0  0  0  0  0  0  0  0999 V2000
   -5.0759   -4.2758   -0.4799 P   0  0  1  0  0  0  0  0  0  0  0  0
    0.6435   -5.6763   -0.5361 P   0  0  2  0  0  0  0  0  0  0  0  0
   -5.6558   -3.9995   -2.1319 O   0  5  0  0  0  0  0  0  0  0  0  0
   -6.3982   -4.1549    0.7101 O   0  0  0  0  0  0  0  0  0  0  0  0
   -3.7455   -6.1996    0.7662 C   0  0  0  0  0  0  0  0  0  0  0  0
   -4.3993   -5.7378   -0.4161 O   0  0  0  0  0  0  0  0  0  0  0  0
   -2.8183   -7.3402    0.3920 C   0  0  1  0  0  0  0  0  0  0  0  0
   -3.5537   -8.3350   -0.3342 O   0  0  0  0  0  0  0  0  0  0  0  0
   -1.6867   -6.9162   -0.5301 C   0  0  1  0  0  0  0  0  0  0  0  0
   -0.5238   -6.5199    0.1936 O   0  0  0  0  0  0  0  0  0  0  0  0
   -1.4395   -8.1591   -1.3668 C   0  0  1  0  0  0  0  0  0  0  0  0
   -0.4877   -9.0059   -0.7178 O   0  0  0  0  0  0  0  0  0  0  0  0
   -2.7754   -8.8774   -1.4124 C   0  0  2  0  0  0  0  0  0  0  0  0
   -1.7267   -1.4421   -2.2772 C   0  0  1  0  0  0  0  0  0  0  0  0
   -7.1015   -7.0957   -3.9230 N   0  0  0  0  0  0  0  0  0  0  0  0
   -6.8513   -7.1606   -2.5867 C   0  0  1  0  0  0  0  0  0  0  0  0
   -3.0109   -2.2001   -2.0941 C   0  0  2  0  0  0  0  0  0  0  0  0
   -7.8075   -6.7236   -1.7350 N   0  0  0  0  0  0  0  0  0  0  0  0
   -4.0112   -1.2304   -1.7779 O   0  0  0  0  0  0  0  0  0  0  0  0
   -2.7425   -3.1403   -0.9357 C   0  0  2  0  0  0  0  0  0  0  0  0
   -5.6821   -7.6493   -2.0760 N   0  0  0  0  0  0  0  0  0  0  0  0
   -3.8785   -3.2732   -0.0924 O   0  0  0  0  0  0  0  0  0  0  0  0
   -4.6914   -8.0977   -2.8879 C   0  0  2  0  0  0  0  0  0  0  0  0
   -1.6002   -2.5001   -0.1717 C   0  0  2  0  0  0  0  0  0  0  0  0
   -0.9468   -1.6334   -1.0976 O   0  0  0  0  0  0  0  0  0  0  0  0
   -4.9124   -8.0524   -4.3438 C   0  0  1  0  0  0  0  0  0  0  0  0
   -0.6006   -3.5196    0.3629 C   0  0  0  0  0  0  0  0  0  0  0  0
   -0.0154   -4.2208   -0.7362 O   0  0  0  0  0  0  0  0  0  0  0  0
   -6.1937   -7.5142   -4.8342 C   0  0  0  0  0  0  0  0  0  0  0  0
   -6.4529   -7.4492   -6.1649 O   0  0  0  0  0  0  0  0  0  0  0  0
   -3.8112   -8.5472   -4.9197 N   0  0  0  0  0  0  0  0  0  0  0  0
   -2.9470   -8.8871   -3.9191 C   0  0  0  0  0  0  0  0  0  0  0  0
   -3.4685   -8.6215   -2.7029 N   0  0  1  0  0  0  0  0  0  0  0  0
    2.8238   -1.4854   -4.8577 N   0  0  0  0  0  0  0  0  0  0  0  0
    1.0764   -6.3897   -2.1124 O   0  5  0  0  0  0  0  0  0  0  0  0
    2.4906   -0.8714   -3.6894 C   0  0  2  0  0  0  0  0  0  0  0  0
    3.4307   -0.1449   -3.0302 N   0  0  0  0  0  0  0  0  0  0  0  0
    2.1054   -5.4970    0.4532 O   0  0  0  0  0  0  0  0  0  0  0  0
    1.2413   -0.9623   -3.1573 N   0  0  0  0  0  0  0  0  0  0  0  0
    0.2646   -1.6766   -3.7639 C   0  0  2  0  0  0  0  0  0  0  0  0
    0.5629   -2.3597   -5.0296 C   0  0  2  0  0  0  0  0  0  0  0  0
    1.9355   -2.2194   -5.5609 C   0  0  0  0  0  0  0  0  0  0  0  0
    2.3033   -2.8118   -6.7239 O   0  0  0  0  0  0  0  0  0  0  0  0
   -0.5732   -2.9756   -5.4120 N   0  0  0  0  0  0  0  0  0  0  0  0
   -1.5209   -2.7109   -4.4640 C   0  0  0  0  0  0  0  0  0  0  0  0
   -1.0145   -1.9313   -3.4819 N   0  0  1  0  0  0  0  0  0  0  0  0
  1  3  1  6  0  0  0
  1  4  2  0  0  0  0
  1  6  1  0  0  0  0
  1 22  1  0  0  0  0
  2 28  1  0  0  0  0
  2 35  1  6  0  0  0
  2 38  2  0  0  0  0
  2 10  1  0  0  0  0
  5  6  1  0  0  0  0
  7  5  1  6  0  0  0
  7  8  1  0  0  0  0
  7  9  1  0  0  0  0
  9 10  1  1  0  0  0
  9 11  1  0  0  0  0
 11 12  1  1  0  0  0
 11 13  1  0  0  0  0
 13  8  1  1  0  0  0
 13 33  1  0  0  0  0
 14 46  1  0  0  0  0
 14 17  1  0  0  0  0
 14 25  1  1  0  0  0
 15 16  1  0  0  0  0
 15 29  1  0  0  0  0
 16 18  1  1  0  0  0
 16 21  1  0  0  0  0
 17 19  1  1  0  0  0
 17 20  1  0  0  0  0
 20 22  1  1  0  0  0
 20 24  1  0  0  0  0
 23 21  1  1  0  0  0
 23 26  1  0  0  0  0
 23 33  1  0  0  0  0
 24 25  1  6  0  0  0
 24 27  1  0  0  0  0
 26 29  1  6  0  0  0
 26 31  1  0  0  0  0
 27 28  1  0  0  0  0
 29 30  2  0  0  0  0
 31 32  1  0  0  0  0
 33 32  1  6  0  0  0
 34 36  1  0  0  0  0
 34 42  1  0  0  0  0
 36 37  1  1  0  0  0
 36 39  1  0  0  0  0
 40 39  1  6  0  0  0
 40 41  1  0  0  0  0
 40 46  1  0  0  0  0
 41 42  1  6  0  0  0
 41 44  1  0  0  0  0
 42 43  2  0  0  0  0
 44 45  1  0  0  0  0
 46 45  1  1  0  0  0
M  CHG  2   3  -1  35  -1
M  END
>  <CHROM.1>
-6.52341151,-165.04022651,-2.20191343,-4.92140887,-2.13450249,2.50111433
0.25647183,2.59915264

>  <Name>
ligand

>  <RI>
-1

>  <Rbt.Current_Directory>
/home/itssahil/PROJECTS/Mol_Feturizer/Test_systems_manuscript/rnas/3mum

>  <Rbt.Executable>
rbdock ($Id: //depot/dev/client3/rdock/2013.1/src/exe/rbdock.cxx#4 $)

>  <Rbt.Library>
libRbt.so (2013.1, Build901 2013/11/27)

>  <Rbt.Parameter_File>
/export/apps/rDock/src/rDock_2013.1_src/data/scripts/dock_solv.prm

>  <Rbt.Receptor>
prm/blind_docking_20.prm

>  <SCORE>
0.946452

>  <SCORE.INTER>
-2.56957

>  <SCORE.INTER.CONST>
1

>  <SCORE.INTER.POLAR>
0

>  <SCORE.INTER.ROT>
2

>  <SCORE.INTER.SOLV>
33.2744

>  <SCORE.INTER.VDW>
-17.7378

>  <SCORE.INTER.norm>
-0.0558602

>  <SCORE.INTRA>
1.57149

>  <SCORE.INTRA.DIHEDRAL>
0.0159814

>  <SCORE.INTRA.DIHEDRAL.0>
2.40424

>  <SCORE.INTRA.POLAR>
0

>  <SCORE.INTRA.POLAR.0>
0

>  <SCORE.INTRA.REPUL>
0

>  <SCORE.INTRA.REPUL.0>
0

>  <SCORE.INTRA.SOLV>
4.72691

>  <SCORE.INTRA.SOLV.lig_0>
-134.169

>  <SCORE.INTRA.VDW>
-0.799955

>  <SCORE.INTRA.VDW.0>
-2.18386

>  <SCORE.INTRA.norm>
0.0341629

>  <SCORE.RESTR>
1.94453

>  <SCORE.RESTR.CAVITY>
1.94453

>  <SCORE.RESTR.norm>
0.0422723

>  <SCORE.SYSTEM>
0

>  <SCORE.SYSTEM.CONST>
0

>  <SCORE.SYSTEM.DIHEDRAL>
0

>  <SCORE.SYSTEM.SOLV>
0

>  <SCORE.SYSTEM.norm>
0

>  <SCORE.heavy>
46

>  <SCORE.norm>
0.0205751

>  <RMSD>
21.146

$$$$
ligand
 OpenBabel02271912143D
libRbt.so/2013.1/901 2013/11/27
 46 52  0  0  0  0  0  0  0  0999 V2000
   -5.0276   -4.3770   -0.4445 P   0  0  1  0  0  0  0  0  0  0  0  0
    0.6822   -5.8143   -0.5369 P   0  0  2  0  0  0  0  0  0  0  0  0
   -5.6039   -4.0485   -2.0882 O   0  5  0  0  0  0  0  0  0  0  0  0
   -6.3503   -4.2820    0.7474 O   0  0  0  0  0  0  0  0  0  0  0  0
   -3.7116   -6.3454    0.7458 C   0  0  0  0  0  0  0  0  0  0  0  0
   -4.3611   -5.8449   -0.4229 O   0  0  0  0  0  0  0  0  0  0  0  0
   -2.7918   -7.4809    0.3392 C   0  0  1  0  0  0  0  0  0  0  0  0
   -3.5333   -8.4490   -0.4163 O   0  0  0  0  0  0  0  0  0  0  0  0
   -1.6564   -7.0379   -0.5691 C   0  0  1  0  0  0  0  0  0  0  0  0
   -0.4916   -6.6709    0.1668 O   0  0  0  0  0  0  0  0  0  0  0  0
   -1.4169   -8.2574   -1.4416 C   0  0  1  0  0  0  0  0  0  0  0  0
   -0.4714   -9.1293   -0.8168 O   0  0  0  0  0  0  0  0  0  0  0  0
   -2.7575   -8.9650   -1.5093 C   0  0  2  0  0  0  0  0  0  0  0  0
   -1.6574   -1.5149   -2.1553 C   0  0  1  0  0  0  0  0  0  0  0  0
   -7.0296   -6.9952   -3.9714 N   0  0  0  0  0  0  0  0  0  0  0  0
   -6.7752   -7.0874   -2.6376 C   0  0  1  0  0  0  0  0  0  0  0  0
   -2.9469   -2.2692   -1.9956 C   0  0  2  0  0  0  0  0  0  0  0  0
   -7.7107   -6.6282   -1.7747 N   0  0  0  0  0  0  0  0  0  0  0  0
   -3.9409   -1.3023   -1.6520 O   0  0  0  0  0  0  0  0  0  0  0  0
   -2.6861   -3.2446   -0.8650 C   0  0  2  0  0  0  0  0  0  0  0  0
   -5.6216   -7.6246   -2.1401 N   0  0  0  0  0  0  0  0  0  0  0  0
   -3.8239   -3.3944   -0.0269 O   0  0  0  0  0  0  0  0  0  0  0  0
   -4.6518   -8.0969   -2.9635 C   0  0  2  0  0  0  0  0  0  0  0  0
   -1.5402   -2.6348   -0.0816 C   0  0  2  0  0  0  0  0  0  0  0  0
   -0.8800   -1.7459   -0.9812 O   0  0  0  0  0  0  0  0  0  0  0  0
   -4.8784   -8.0238   -4.4174 C   0  0  1  0  0  0  0  0  0  0  0  0
   -0.5482   -3.6764    0.4237 C   0  0  0  0  0  0  0  0  0  0  0  0
    0.0334   -4.3491   -0.6949 O   0  0  0  0  0  0  0  0  0  0  0  0
   -6.1421   -7.4334   -4.8933 C   0  0  0  0  0  0  0  0  0  0  0  0
   -6.4055   -7.3408   -6.2215 O   0  0  0  0  0  0  0  0  0  0  0  0
   -3.7986   -8.5497   -5.0060 N   0  0  0  0  0  0  0  0  0  0  0  0
   -2.9421   -8.9340   -4.0149 C   0  0  0  0  0  0  0  0  0  0  0  0
   -3.4475   -8.6667   -2.7923 N   0  0  1  0  0  0  0  0  0  0  0  0
    3.0176   -2.4588   -4.3051 N   0  0  0  0  0  0  0  0  0  0  0  0
    1.1118   -6.4842   -2.1330 O   0  5  0  0  0  0  0  0  0  0  0  0
    2.7075   -1.9899   -3.0654 C   0  0  2  0  0  0  0  0  0  0  0  0
    3.7102   -1.7059   -2.1936 N   0  0  0  0  0  0  0  0  0  0  0  0
    2.1443   -5.6740    0.4585 O   0  0  0  0  0  0  0  0  0  0  0  0
    1.4202   -1.7959   -2.6685 N   0  0  0  0  0  0  0  0  0  0  0  0
    0.3787   -2.0669   -3.4896 C   0  0  2  0  0  0  0  0  0  0  0  0
    0.6502   -2.5729   -4.8416 C   0  0  2  0  0  0  0  0  0  0  0  0
    2.0683   -2.7575   -5.2172 C   0  0  0  0  0  0  0  0  0  0  0  0
    2.4165   -3.2173   -6.4443 O   0  0  0  0  0  0  0  0  0  0  0  0
   -0.5469   -2.7436   -5.4366 N   0  0  0  0  0  0  0  0  0  0  0  0
   -1.5072   -2.3798   -4.5352 C   0  0  0  0  0  0  0  0  0  0  0  0
   -0.9472   -1.9735   -3.3732 N   0  0  1  0  0  0  0  0  0  0  0  0
  1  3  1  6  0  0  0
  1  4  2  0  0  0  0
  1  6  1  0  0  0  0
  1 22  1  0  0  0  0
  2 28  1  0  0  0  0
  2 35  1  6  0  0  0
  2 38  2  0  0  0  0
  2 10  1  0  0  0  0
  5  6  1  0  0  0  0
  7  5  1  6  0  0  0
  7  8  1  0  0  0  0
  7  9  1  0  0  0  0
  9 10  1  1  0  0  0
  9 11  1  0  0  0  0
 11 12  1  1  0  0  0
 11 13  1  0  0  0  0
 13  8  1  1  0  0  0
 13 33  1  0  0  0  0
 14 46  1  0  0  0  0
 14 17  1  0  0  0  0
 14 25  1  1  0  0  0
 15 16  1  0  0  0  0
 15 29  1  0  0  0  0
 16 18  1  1  0  0  0
 16 21  1  0  0  0  0
 17 19  1  1  0  0  0
 17 20  1  0  0  0  0
 20 22  1  1  0  0  0
 20 24  1  0  0  0  0
 23 21  1  1  0  0  0
 23 26  1  0  0  0  0
 23 33  1  0  0  0  0
 24 25  1  6  0  0  0
 24 27  1  0  0  0  0
 26 29  1  6  0  0  0
 26 31  1  0  0  0  0
 27 28  1  0  0  0  0
 29 30  2  0  0  0  0
 31 32  1  0  0  0  0
 33 32  1  6  0  0  0
 34 36  1  0  0  0  0
 34 42  1  0  0  0  0
 36 37  1  1  0  0  0
 36 39  1  0  0  0  0
 40 39  1  6  0  0  0
 40 41  1  0  0  0  0
 40 46  1  0  0  0  0
 41 42  1  6  0  0  0
 41 44  1  0  0  0  0
 42 43  2  0  0  0  0
 44 45  1  0  0  0  0
 46 45  1  1  0  0  0
M  CHG  2   3  -1  35  -1
M  END
>  <CHROM.1>
-4.60229600,-144.88403476,-2.13892435,-5.08778977,-2.06832963,2.55590053
0.07796630,2.89190302

>  <Name>
ligand

>  <RI>
-1

>  <Rbt.Current_Directory>
/home/itssahil/PROJECTS/Mol_Feturizer/Test_systems_manuscript/rnas/3mum

>  <Rbt.Executable>
rbdock ($Id: //depot/dev/client3/rdock/2013.1/src/exe/rbdock.cxx#4 $)

>  <Rbt.Library>
libRbt.so (2013.1, Build901 2013/11/27)

>  <Rbt.Parameter_File>
/export/apps/rDock/src/rDock_2013.1_src/data/scripts/dock_solv.prm

>  <Rbt.Receptor>
prm/blind_docking_20.prm

>  <SCORE>
5.86191

>  <SCORE.INTER>
2.42528

>  <SCORE.INTER.CONST>
1

>  <SCORE.INTER.POLAR>
0

>  <SCORE.INTER.ROT>
2

>  <SCORE.INTER.SOLV>
32.0118

>  <SCORE.INTER.VDW>
-13.9871

>  <SCORE.INTER.norm>
0.0527235

>  <SCORE.INTRA>
1.307

>  <SCORE.INTRA.DIHEDRAL>
0.0233823

>  <SCORE.INTRA.DIHEDRAL.0>
2.40424

>  <SCORE.INTRA.POLAR>
0

>  <SCORE.INTRA.POLAR.0>
0

>  <SCORE.INTRA.REPUL>
0

>  <SCORE.INTRA.REPUL.0>
0

>  <SCORE.INTRA.SOLV>
5.47255

>  <SCORE.INTRA.SOLV.lig_0>
-134.169

>  <SCORE.INTRA.VDW>
-1.44097

>  <SCORE.INTRA.VDW.0>
-2.18386

>  <SCORE.INTRA.norm>
0.028413

>  <SCORE.RESTR>
2.12964

>  <SCORE.RESTR.CAVITY>
2.12964

>  <SCORE.RESTR.norm>
0.0462965

>  <SCORE.SYSTEM>
0

>  <SCORE.SYSTEM.CONST>
0

>  <SCORE.SYSTEM.DIHEDRAL>
0

>  <SCORE.SYSTEM.SOLV>
0

>  <SCORE.SYSTEM.norm>
0

>  <SCORE.heavy>
46

>  <SCORE.norm>
0.127433

>  <RMSD>
21.149

$$$$
ligand
 OpenBabel02271912143D
libRbt.so/2013.1/901 2013/11/27
 46 52  0  0  0  0  0  0  0  0999 V2000
   -4.4443   -3.7999    0.6286 P   0  0  1  0  0  0  0  0  0  0  0  0
    0.9381   -5.7859   -0.6986 P   0  0  2  0  0  0  0  0  0  0  0  0
   -5.3501   -3.4462   -0.8534 O   0  5  0  0  0  0  0  0  0  0  0  0
   -5.4443   -3.5560    2.0845 O   0  0  0  0  0  0  0  0  0  0  0  0
   -3.0740   -5.8655    1.5663 C   0  0  0  0  0  0  0  0  0  0  0  0
   -3.9262   -5.3249    0.5563 O   0  0  0  0  0  0  0  0  0  0  0  0
   -2.3785   -7.0918    1.0068 C   0  0  1  0  0  0  0  0  0  0  0  0
   -3.3579   -7.9966    0.4776 O   0  0  0  0  0  0  0  0  0  0  0  0
   -1.4464   -6.7771   -0.1519 C   0  0  1  0  0  0  0  0  0  0  0  0
   -0.1156   -6.5120    0.2859 O   0  0  0  0  0  0  0  0  0  0  0  0
   -1.5246   -8.0294   -1.0073 C   0  0  1  0  0  0  0  0  0  0  0  0
   -0.5439   -8.9778   -0.5792 O   0  0  0  0  0  0  0  0  0  0  0  0
   -2.9034   -8.6046   -0.7416 C   0  0  2  0  0  0  0  0  0  0  0  0
   -1.3116   -1.3090   -1.9127 C   0  0  1  0  0  0  0  0  0  0  0  0
   -3.8689   -8.5243   -5.9621 N   0  0  0  0  0  0  0  0  0  0  0  0
   -2.7649   -8.9679   -5.3010 C   0  0  1  0  0  0  0  0  0  0  0  0
   -2.5929   -1.9316   -1.4353 C   0  0  2  0  0  0  0  0  0  0  0  0
   -1.7402   -9.4668   -6.0301 N   0  0  0  0  0  0  0  0  0  0  0  0
   -3.3900   -0.8669   -0.9137 O   0  0  0  0  0  0  0  0  0  0  0  0
   -2.1691   -2.9077   -0.3558 C   0  0  2  0  0  0  0  0  0  0  0  0
   -2.6513   -8.9261   -3.9401 N   0  0  0  0  0  0  0  0  0  0  0  0
   -3.0931   -2.9316    0.7236 O   0  0  0  0  0  0  0  0  0  0  0  0
   -3.6515   -8.4371   -3.1641 C   0  0  2  0  0  0  0  0  0  0  0  0
   -0.8238   -2.3983    0.1229 C   0  0  2  0  0  0  0  0  0  0  0  0
   -0.3099   -1.5936   -0.9371 O   0  0  0  0  0  0  0  0  0  0  0  0
   -4.8682   -7.9408   -3.8301 C   0  0  1  0  0  0  0  0  0  0  0  0
    0.1593   -3.5221    0.4309 C   0  0  0  0  0  0  0  0  0  0  0  0
    0.4056   -4.2677   -0.7630 O   0  0  0  0  0  0  0  0  0  0  0  0
   -4.9320   -8.0125   -5.3008 C   0  0  0  0  0  0  0  0  0  0  0  0
   -6.0274   -7.5691   -5.9683 O   0  0  0  0  0  0  0  0  0  0  0  0
   -5.6910   -7.5114   -2.8669 N   0  0  0  0  0  0  0  0  0  0  0  0
   -5.0589   -7.7114   -1.6736 C   0  0  0  0  0  0  0  0  0  0  0  0
   -3.8394   -8.2634   -1.8455 N   0  0  1  0  0  0  0  0  0  0  0  0
    2.3970   -1.5207   -5.5964 N   0  0  0  0  0  0  0  0  0  0  0  0
    0.9278   -6.5224   -2.3229 O   0  5  0  0  0  0  0  0  0  0  0  0
    2.3860   -0.8562   -4.4085 C   0  0  2  0  0  0  0  0  0  0  0  0
    3.4693   -0.1181   -4.0512 N   0  0  0  0  0  0  0  0  0  0  0  0
    2.5960   -5.7706   -0.0668 O   0  0  0  0  0  0  0  0  0  0  0  0
    1.3209   -0.9077   -3.5628 N   0  0  0  0  0  0  0  0  0  0  0  0
    0.2162   -1.6311   -3.8602 C   0  0  2  0  0  0  0  0  0  0  0  0
    0.1676   -2.3680   -5.1299 C   0  0  2  0  0  0  0  0  0  0  0  0
    1.3520   -2.2689   -6.0094 C   0  0  0  0  0  0  0  0  0  0  0  0
    1.3978   -2.9120   -7.2022 O   0  0  0  0  0  0  0  0  0  0  0  0
   -1.0314   -2.9819   -5.1735 N   0  0  0  0  0  0  0  0  0  0  0  0
   -1.6945   -2.6661   -4.0213 C   0  0  0  0  0  0  0  0  0  0  0  0
   -0.9441   -1.8557   -3.2408 N   0  0  1  0  0  0  0  0  0  0  0  0
  1  3  1  6  0  0  0
  1  4  2  0  0  0  0
  1  6  1  0  0  0  0
  1 22  1  0  0  0  0
  2 28  1  0  0  0  0
  2 35  1  6  0  0  0
  2 38  2  0  0  0  0
  2 10  1  0  0  0  0
  5  6  1  0  0  0  0
  7  5  1  6  0  0  0
  7  8  1  0  0  0  0
  7  9  1  0  0  0  0
  9 10  1  1  0  0  0
  9 11  1  0  0  0  0
 11 12  1  1  0  0  0
 11 13  1  0  0  0  0
 13  8  1  1  0  0  0
 13 33  1  0  0  0  0
 14 46  1  0  0  0  0
 14 17  1  0  0  0  0
 14 25  1  1  0  0  0
 15 16  1  0  0  0  0
 15 29  1  0  0  0  0
 16 18  1  6  0  0  0
 16 21  1  0  0  0  0
 17 19  1  1  0  0  0
 17 20  1  0  0  0  0
 20 22  1  1  0  0  0
 20 24  1  0  0  0  0
 23 21  1  6  0  0  0
 23 26  1  0  0  0  0
 23 33  1  0  0  0  0
 24 25  1  6  0  0  0
 24 27  1  0  0  0  0
 26 29  1  1  0  0  0
 26 31  1  0  0  0  0
 27 28  1  0  0  0  0
 29 30  2  0  0  0  0
 31 32  1  0  0  0  0
 33 32  1  1  0  0  0
 34 36  1  0  0  0  0
 34 42  1  0  0  0  0
 36 37  1  1  0  0  0
 36 39  1  0  0  0  0
 40 39  1  6  0  0  0
 40 41  1  0  0  0  0
 40 46  1  0  0  0  0
 41 42  1  6  0  0  0
 41 44  1  0  0  0  0
 42 43  2  0  0  0  0
 44 45  1  0  0  0  0
 46 45  1  1  0  0  0
M  CHG  2   3  -1  35  -1
M  END
>  <CHROM.1>
167.45816986,-171.38073515,-1.72334628,-4.92563612,-2.04175705,2.85519987
-0.86916454,-2.18604429

>  <Name>
ligand

>  <RI>
-1

>  <Rbt.Current_Directory>
/home/itssahil/PROJECTS/Mol_Feturizer/Test_systems_manuscript/rnas/3mum

>  <Rbt.Executable>
rbdock ($Id: //depot/dev/client3/rdock/2013.1/src/exe/rbdock.cxx#4 $)

>  <Rbt.Library>
libRbt.so (2013.1, Build901 2013/11/27)

>  <Rbt.Parameter_File>
/export/apps/rDock/src/rDock_2013.1_src/data/scripts/dock_solv.prm

>  <Rbt.Receptor>
prm/blind_docking_20.prm

>  <SCORE>
25.8533

>  <SCORE.INTER>
21.4686

>  <SCORE.INTER.CONST>
1

>  <SCORE.INTER.POLAR>
0

>  <SCORE.INTER.ROT>
2

>  <SCORE.INTER.SOLV>
32.644

>  <SCORE.INTER.VDW>
-1.5023

>  <SCORE.INTER.norm>
0.466708

>  <SCORE.INTRA>
0.621762

>  <SCORE.INTRA.DIHEDRAL>
0.00499539

>  <SCORE.INTRA.DIHEDRAL.0>
2.40424

>  <SCORE.INTRA.POLAR>
0

>  <SCORE.INTRA.POLAR.0>
0

>  <SCORE.INTRA.REPUL>
0

>  <SCORE.INTRA.REPUL.0>
0

>  <SCORE.INTRA.SOLV>
0.0339962

>  <SCORE.INTRA.SOLV.lig_0>
-134.169

>  <SCORE.INTRA.VDW>
0.602266

>  <SCORE.INTRA.VDW.0>
-2.18386

>  <SCORE.INTRA.norm>
0.0135166

>  <SCORE.RESTR>
3.76294

>  <SCORE.RESTR.CAVITY>
3.76294

>  <SCORE.RESTR.norm>
0.081803

>  <SCORE.SYSTEM>
0

>  <SCORE.SYSTEM.CONST>
0

>  <SCORE.SYSTEM.DIHEDRAL>
0

>  <SCORE.SYSTEM.SOLV>
0

>  <SCORE.SYSTEM.norm>
0

>  <SCORE.heavy>
46

>  <SCORE.norm>
0.562027

>  <RMSD>
21.225

$$$$
ligand
 OpenBabel02271912143D
libRbt.so/2013.1/901 2013/11/27
 46 52  0  0  0  0  0  0  0  0999 V2000
    1.7554   -2.2351   -4.7697 P   0  0  1  0  0  0  0  0  0  0  0  0
   -0.7716   -5.7407   -0.7696 P   0  0  2  0  0  0  0  0  0  0  0  0
    2.0770   -0.6386   -4.0702 O   0  5  0  0  0  0  0  0  0  0  0  0
    2.3759   -2.3598   -6.4367 O   0  0  0  0  0  0  0  0  0  0  0  0
    2.2683   -4.7436   -4.0859 C   0  0  0  0  0  0  0  0  0  0  0  0
    2.4461   -3.3500   -3.8320 O   0  0  0  0  0  0  0  0  0  0  0  0
    2.5983   -5.5118   -2.8202 C   0  0  1  0  0  0  0  0  0  0  0  0
    3.9013   -5.1311   -2.3565 O   0  0  0  0  0  0  0  0  0  0  0  0
    1.6519   -5.2086   -1.6701 C   0  0  1  0  0  0  0  0  0  0  0  0
    0.5396   -6.1003   -1.6403 O   0  0  0  0  0  0  0  0  0  0  0  0
    2.5368   -5.3625   -0.4456 C   0  0  1  0  0  0  0  0  0  0  0  0
    2.5212   -6.7200    0.0032 O   0  0  0  0  0  0  0  0  0  0  0  0
    3.9369   -5.0266   -0.9246 C   0  0  2  0  0  0  0  0  0  0  0  0
   -2.3546   -1.2059   -2.6423 C   0  0  1  0  0  0  0  0  0  0  0  0
    5.6645   -0.2392   -2.4375 N   0  0  0  0  0  0  0  0  0  0  0  0
    5.4382   -1.3476   -3.1942 C   0  0  1  0  0  0  0  0  0  0  0  0
   -0.9798   -1.0774   -3.2346 C   0  0  2  0  0  0  0  0  0  0  0  0
    5.6721   -1.2725   -4.5247 N   0  0  0  0  0  0  0  0  0  0  0  0
   -1.1264   -0.3176   -4.4356 O   0  0  0  0  0  0  0  0  0  0  0  0
   -0.5441   -2.5026   -3.5117 C   0  0  2  0  0  0  0  0  0  0  0  0
    4.9904   -2.5252   -2.6655 N   0  0  0  0  0  0  0  0  0  0  0  0
    0.1893   -2.6017   -4.7248 O   0  0  0  0  0  0  0  0  0  0  0  0
    4.7390   -2.6513   -1.3379 C   0  0  2  0  0  0  0  0  0  0  0  0
   -1.8351   -3.2902   -3.6190 C   0  0  2  0  0  0  0  0  0  0  0  0
   -2.8197   -2.5246   -2.9264 O   0  0  0  0  0  0  0  0  0  0  0  0
    4.9707   -1.4815   -0.4728 C   0  0  1  0  0  0  0  0  0  0  0  0
   -1.7363   -4.6769   -2.9933 C   0  0  0  0  0  0  0  0  0  0  0  0
   -1.4547   -4.5414   -1.5989 O   0  0  0  0  0  0  0  0  0  0  0  0
    5.4537   -0.2391   -1.1014 C   0  0  0  0  0  0  0  0  0  0  0  0
    5.6855    0.8698   -0.3538 O   0  0  0  0  0  0  0  0  0  0  0  0
    4.6616   -1.8531    0.7744 N   0  0  0  0  0  0  0  0  0  0  0  0
    4.2635   -3.1578    0.7228 C   0  0  0  0  0  0  0  0  0  0  0  0
    4.3088   -3.6400   -0.5370 N   0  0  1  0  0  0  0  0  0  0  0  0
   -3.7277   -2.9934    2.0786 N   0  0  0  0  0  0  0  0  0  0  0  0
   -0.3358   -5.1976    0.8724 O   0  5  0  0  0  0  0  0  0  0  0  0
   -3.9702   -3.5154    0.8451 C   0  0  2  0  0  0  0  0  0  0  0  0
   -4.6635   -4.6793    0.7418 N   0  0  0  0  0  0  0  0  0  0  0  0
   -1.9328   -7.0779   -0.6614 O   0  0  0  0  0  0  0  0  0  0  0  0
   -3.5383   -2.9073   -0.2933 N   0  0  0  0  0  0  0  0  0  0  0  0
   -2.8374   -1.7500   -0.2546 C   0  0  2  0  0  0  0  0  0  0  0  0
   -2.5468   -1.1363    1.0480 C   0  0  2  0  0  0  0  0  0  0  0  0
   -3.0468   -1.8402    2.2482 C   0  0  0  0  0  0  0  0  0  0  0  0
   -2.8297   -1.3485    3.4931 O   0  0  0  0  0  0  0  0  0  0  0  0
   -1.8575   -0.0059    0.7961 N   0  0  0  0  0  0  0  0  0  0  0  0
   -1.7149    0.0926   -0.5592 C   0  0  0  0  0  0  0  0  0  0  0  0
   -2.3053   -0.9523   -1.1825 N   0  0  1  0  0  0  0  0  0  0  0  0
  1  3  1  1  0  0  0
  1  4  2  0  0  0  0
  1  6  1  0  0  0  0
  1 22  1  0  0  0  0
  2 28  1  0  0  0  0
  2 35  1  1  0  0  0
  2 38  2  0  0  0  0
  2 10  1  0  0  0  0
  5  6  1  0  0  0  0
  7  5  1  6  0  0  0
  7  8  1  0  0  0  0
  7  9  1  0  0  0  0
  9 10  1  1  0  0  0
  9 11  1  0  0  0  0
 11 12  1  6  0  0  0
 11 13  1  0  0  0  0
 13  8  1  6  0  0  0
 13 33  1  0  0  0  0
 14 46  1  0  0  0  0
 14 17  1  0  0  0  0
 14 25  1  1  0  0  0
 15 16  1  0  0  0  0
 15 29  1  0  0  0  0
 16 18  1  1  0  0  0
 16 21  1  0  0  0  0
 17 19  1  6  0  0  0
 17 20  1  0  0  0  0
 20 22  1  6  0  0  0
 20 24  1  0  0  0  0
 23 21  1  1  0  0  0
 23 26  1  0  0  0  0
 23 33  1  0  0  0  0
 24 25  1  1  0  0  0
 24 27  1  0  0  0  0
 26 29  1  6  0  0  0
 26 31  1  0  0  0  0
 27 28  1  0  0  0  0
 29 30  2  0  0  0  0
 31 32  1  0  0  0  0
 33 32  1  6  0  0  0
 34 36  1  0  0  0  0
 34 42  1  0  0  0  0
 36 37  1  1  0  0  0
 36 39  1  0  0  0  0
 40 39  1  6  0  0  0
 40 41  1  0  0  0  0
 40 46  1  0  0  0  0
 41 42  1  6  0  0  0
 41 44  1  0  0  0  0
 42 43  2  0  0  0  0
 44 45  1  0  0  0  0
 46 45  1  1  0  0  0
M  CHG  2   3  -1  35  -1
M  END
>  <CHROM.1>
-8.92724119,-129.84003318,0.75035388,-2.96518890,-1.62374778,0.32564023,0.18326480
-0.74336239

>  <Name>
ligand

>  <RI>
-1

>  <Rbt.Current_Directory>
/home/itssahil/PROJECTS/Mol_Feturizer/Test_systems_manuscript/rnas/3mum

>  <Rbt.Executable>
rbdock ($Id: //depot/dev/client3/rdock/2013.1/src/exe/rbdock.cxx#4 $)

>  <Rbt.Library>
libRbt.so (2013.1, Build901 2013/11/27)

>  <Rbt.Parameter_File>
/export/apps/rDock/src/rDock_2013.1_src/data/scripts/dock_solv.prm

>  <Rbt.Receptor>
prm/blind_docking_100.prm

>  <SCORE>
26.1137

>  <SCORE.INTER>
24.2289

>  <SCORE.INTER.CONST>
1

>  <SCORE.INTER.POLAR>
0

>  <SCORE.INTER.ROT>
2

>  <SCORE.INTER.SOLV>
28.6832

>  <SCORE.INTER.VDW>
1.65821

>  <SCORE.INTER.norm>
0.526715

>  <SCORE.INTRA>
0.826766

>  <SCORE.INTRA.DIHEDRAL>
0.0115317

>  <SCORE.INTRA.DIHEDRAL.0>
2.40424

>  <SCORE.INTRA.POLAR>
0

>  <SCORE.INTRA.POLAR.0>
0

>  <SCORE.INTRA.REPUL>
0

>  <SCORE.INTRA.REPUL.0>
0

>  <SCORE.INTRA.SOLV>
5.724

>  <SCORE.INTRA.SOLV.lig_0>
-134.169

>  <SCORE.INTRA.VDW>
-2.041

>  <SCORE.INTRA.VDW.0>
-2.18386

>  <SCORE.INTRA.norm>
0.0179732

>  <SCORE.RESTR>
1.05801

>  <SCORE.RESTR.CAVITY>
1.05801

>  <SCORE.RESTR.norm>
0.0230003

>  <SCORE.SYSTEM>
0

>  <SCORE.SYSTEM.CONST>
0

>  <SCORE.SYSTEM.DIHEDRAL>
0

>  <SCORE.SYSTEM.SOLV>
0

>  <SCORE.SYSTEM.norm>
0

>  <SCORE.heavy>
46

>  <SCORE.norm>
0.567689

>  <RMSD>
21.244

$$$$
ligand
 OpenBabel02271912143D
libRbt.so/2013.1/901 2013/11/27
 46 52  0  0  0  0  0  0  0  0999 V2000
   -2.8518   -2.8290   -3.5163 P   0  0  1  0  0  0  0  0  0  0  0  0
   -3.5470   -5.9585    1.4232 P   0  0  2  0  0  0  0  0  0  0  0  0
   -1.6249   -3.5810   -4.5512 O   0  5  0  0  0  0  0  0  0  0  0  0
   -3.5950   -1.4110   -4.3015 O   0  0  0  0  0  0  0  0  0  0  0  0
   -5.0437   -3.6476   -2.2718 C   0  0  0  0  0  0  0  0  0  0  0  0
   -3.9769   -3.9327   -3.1768 O   0  0  0  0  0  0  0  0  0  0  0  0
   -5.6279   -4.9597   -1.7840 C   0  0  1  0  0  0  0  0  0  0  0  0
   -5.9772   -5.7753   -2.9112 O   0  0  0  0  0  0  0  0  0  0  0  0
   -4.6469   -5.7879   -0.9702 C   0  0  1  0  0  0  0  0  0  0  0  0
   -4.7309   -5.5030    0.4244 O   0  0  0  0  0  0  0  0  0  0  0  0
   -5.0573   -7.2158   -1.2846 C   0  0  1  0  0  0  0  0  0  0  0  0
   -6.0638   -7.6501   -0.3665 O   0  0  0  0  0  0  0  0  0  0  0  0
   -5.6626   -7.1565   -2.6748 C   0  0  2  0  0  0  0  0  0  0  0  0
    0.6750   -3.6807   -0.4647 C   0  0  1  0  0  0  0  0  0  0  0  0
   -4.7448   -8.5648   -7.7113 N   0  0  0  0  0  0  0  0  0  0  0  0
   -5.9079   -8.1584   -7.1330 C   0  0  1  0  0  0  0  0  0  0  0  0
   -0.1029   -3.5070   -1.7382 C   0  0  2  0  0  0  0  0  0  0  0  0
   -7.0160   -8.0873   -7.9062 N   0  0  0  0  0  0  0  0  0  0  0  0
    0.3821   -2.3096   -2.3481 O   0  0  0  0  0  0  0  0  0  0  0  0
   -1.5463   -3.3760   -1.2942 C   0  0  2  0  0  0  0  0  0  0  0  0
   -5.9996   -7.8250   -5.8112 N   0  0  0  0  0  0  0  0  0  0  0  0
   -2.2533   -2.4250   -2.0784 O   0  0  0  0  0  0  0  0  0  0  0  0
   -4.9172   -7.8777   -4.9944 C   0  0  2  0  0  0  0  0  0  0  0  0
   -1.4693   -2.9078    0.1458 C   0  0  2  0  0  0  0  0  0  0  0  0
   -0.1742   -3.2837    0.6112 O   0  0  0  0  0  0  0  0  0  0  0  0
   -3.6332   -8.3146   -5.5698 C   0  0  1  0  0  0  0  0  0  0  0  0
   -2.5331   -3.5446    1.0330 C   0  0  0  0  0  0  0  0  0  0  0  0
   -2.3392   -4.9603    1.0523 O   0  0  0  0  0  0  0  0  0  0  0  0
   -3.5972   -8.6607   -7.0019 C   0  0  0  0  0  0  0  0  0  0  0  0
   -2.4426   -9.0705   -7.5859 O   0  0  0  0  0  0  0  0  0  0  0  0
   -2.7348   -8.2896   -4.5792 N   0  0  0  0  0  0  0  0  0  0  0  0
   -3.3832   -7.8721   -3.4528 C   0  0  0  0  0  0  0  0  0  0  0  0
   -4.6879   -7.6255   -3.6952 N   0  0  1  0  0  0  0  0  0  0  0  0
    4.1824   -6.9016    1.7017 N   0  0  0  0  0  0  0  0  0  0  0  0
   -3.0686   -7.6529    1.1383 O   0  5  0  0  0  0  0  0  0  0  0  0
    4.0841   -5.5458    1.7728 C   0  0  2  0  0  0  0  0  0  0  0  0
    4.9955   -4.8520    2.5036 N   0  0  0  0  0  0  0  0  0  0  0  0
   -3.9486   -5.7377    3.1372 O   0  0  0  0  0  0  0  0  0  0  0  0
    3.0979   -4.8593    1.1336 N   0  0  0  0  0  0  0  0  0  0  0  0
    2.1575   -5.4950    0.3963 C   0  0  2  0  0  0  0  0  0  0  0  0
    2.2126   -6.9583    0.2796 C   0  0  2  0  0  0  0  0  0  0  0  0
    3.3100   -7.6476    0.9913 C   0  0  0  0  0  0  0  0  0  0  0  0
    3.4437   -8.9960    0.9397 O   0  0  0  0  0  0  0  0  0  0  0  0
    1.1809   -7.3211   -0.5080 N   0  0  0  0  0  0  0  0  0  0  0  0
    0.5165   -6.1809   -0.8626 C   0  0  0  0  0  0  0  0  0  0  0  0
    1.1070   -5.0916   -0.3207 N   0  0  1  0  0  0  0  0  0  0  0  0
  1  3  1  6  0  0  0
  1  4  2  0  0  0  0
  1  6  1  0  0  0  0
  1 22  1  0  0  0  0
  2 28  1  0  0  0  0
  2 35  1  6  0  0  0
  2 38  2  0  0  0  0
  2 10  1  0  0  0  0
  5  6  1  0  0  0  0
  7  5  1  6  0  0  0
  7  8  1  0  0  0  0
  7  9  1  0  0  0  0
  9 10  1  1  0  0  0
  9 11  1  0  0  0  0
 11 12  1  1  0  0  0
 11 13  1  0  0  0  0
 13  8  1  6  0  0  0
 13 33  1  0  0  0  0
 14 46  1  0  0  0  0
 14 17  1  0  0  0  0
 14 25  1  1  0  0  0
 15 16  1  0  0  0  0
 15 29  1  0  0  0  0
 16 18  1  1  0  0  0
 16 21  1  0  0  0  0
 17 19  1  1  0  0  0
 17 20  1  0  0  0  0
 20 22  1  6  0  0  0
 20 24  1  0  0  0  0
 23 21  1  1  0  0  0
 23 26  1  0  0  0  0
 23 33  1  0  0  0  0
 24 25  1  1  0  0  0
 24 27  1  0  0  0  0
 26 29  1  6  0  0  0
 26 31  1  0  0  0  0
 27 28  1  0  0  0  0
 29 30  2  0  0  0  0
 31 32  1  0  0  0  0
 33 32  1  6  0  0  0
 34 36  1  0  0  0  0
 34 42  1  0  0  0  0
 36 37  1  1  0  0  0
 36 39  1  0  0  0  0
 40 39  1  6  0  0  0
 40 41  1  0  0  0  0
 40 46  1  0  0  0  0
 41 42  1  6  0  0  0
 41 44  1  0  0  0  0
 42 43  2  0  0  0  0
 44 45  1  0  0  0  0
 46 45  1  1  0  0  0
M  CHG  2   3  -1  35  -1
M  END
>  <CHROM.1>
-72.84182749,155.51167276,-2.13798557,-5.71661888,-1.75954897,2.47149399
0.35420272,-2.24231426

>  <Name>
ligand

>  <RI>
-1

>  <Rbt.Current_Directory>
/home/itssahil/PROJECTS/Mol_Feturizer/Test_systems_manuscript/rnas/3mum

>  <Rbt.Executable>
rbdock ($Id: //depot/dev/client3/rdock/2013.1/src/exe/rbdock.cxx#4 $)

>  <Rbt.Library>
libRbt.so (2013.1, Build901 2013/11/27)

>  <Rbt.Parameter_File>
/export/apps/rDock/src/rDock_2013.1_src/data/scripts/dock_solv.prm

>  <Rbt.Receptor>
prm/blind_docking_100.prm

>  <SCORE>
10.2936

>  <SCORE.INTER>
8.52286

>  <SCORE.INTER.CONST>
1

>  <SCORE.INTER.POLAR>
0

>  <SCORE.INTER.ROT>
2

>  <SCORE.INTER.SOLV>
38.3505

>  <SCORE.INTER.VDW>
-12.0349

>  <SCORE.INTER.norm>
0.18528

>  <SCORE.INTRA>
0.790823

>  <SCORE.INTRA.DIHEDRAL>
-0.033106

>  <SCORE.INTRA.DIHEDRAL.0>
2.40424

>  <SCORE.INTRA.POLAR>
0

>  <SCORE.INTRA.POLAR.0>
0

>  <SCORE.INTRA.REPUL>
0

>  <SCORE.INTRA.REPUL.0>
0

>  <SCORE.INTRA.SOLV>
0.0235588

>  <SCORE.INTRA.SOLV.lig_0>
-134.169

>  <SCORE.INTRA.VDW>
0.795597

>  <SCORE.INTRA.VDW.0>
-2.18386

>  <SCORE.INTRA.norm>
0.0171918

>  <SCORE.RESTR>
0.979938

>  <SCORE.RESTR.CAVITY>
0.979938

>  <SCORE.RESTR.norm>
0.021303

>  <SCORE.SYSTEM>
0

>  <SCORE.SYSTEM.CONST>
0

>  <SCORE.SYSTEM.DIHEDRAL>
0

>  <SCORE.SYSTEM.SOLV>
0

>  <SCORE.SYSTEM.norm>
0

>  <SCORE.heavy>
46

>  <SCORE.norm>
0.223774

>  <RMSD>
21.346

$$$$
ligand
 OpenBabel02271912143D
libRbt.so/2013.1/901 2013/11/27
 46 52  0  0  0  0  0  0  0  0999 V2000
    0.4019   -6.2149   -0.4925 P   0  0  1  0  0  0  0  0  0  0  0  0
   -5.1191   -4.1742   -0.3198 P   0  0  2  0  0  0  0  0  0  0  0  0
    0.8243   -6.7020   -2.1436 O   0  5  0  0  0  0  0  0  0  0  0  0
    1.7877   -6.3814    0.6172 O   0  0  0  0  0  0  0  0  0  0  0  0
   -0.6149   -4.0475    0.6440 C   0  0  0  0  0  0  0  0  0  0  0  0
   -0.1047   -4.6847   -0.5273 O   0  0  0  0  0  0  0  0  0  0  0  0
   -1.4374   -2.8452    0.2212 C   0  0  1  0  0  0  0  0  0  0  0  0
   -0.6537   -2.0104   -0.6430 O   0  0  0  0  0  0  0  0  0  0  0  0
   -2.6736   -3.2160   -0.5818 C   0  0  1  0  0  0  0  0  0  0  0  0
   -3.8160   -3.4095    0.2493 O   0  0  0  0  0  0  0  0  0  0  0  0
   -2.8451   -2.0322   -1.5173 C   0  0  1  0  0  0  0  0  0  0  0  0
   -3.6483   -1.0269   -0.8938 O   0  0  0  0  0  0  0  0  0  0  0  0
   -1.4460   -1.4797   -1.7169 C   0  0  2  0  0  0  0  0  0  0  0  0
   -3.3600   -8.7915   -1.7909 C   0  0  1  0  0  0  0  0  0  0  0  0
    2.8559   -2.7170   -4.5726 N   0  0  0  0  0  0  0  0  0  0  0  0
    2.7752   -2.3093   -3.2765 C   0  0  1  0  0  0  0  0  0  0  0  0
   -1.9908   -8.1735   -1.7640 C   0  0  2  0  0  0  0  0  0  0  0  0
    3.9240   -2.1842   -2.5726 N   0  0  0  0  0  0  0  0  0  0  0  0
   -1.0815   -9.2203   -1.4198 O   0  0  0  0  0  0  0  0  0  0  0  0
   -2.0686   -7.1095   -0.6871 C   0  0  2  0  0  0  0  0  0  0  0  0
    1.5883   -2.0207   -2.6646 N   0  0  0  0  0  0  0  0  0  0  0  0
   -0.8655   -7.0342    0.0654 O   0  0  0  0  0  0  0  0  0  0  0  0
    0.4088   -2.1323   -3.3263 C   0  0  2  0  0  0  0  0  0  0  0  0
   -3.2141   -7.5432    0.2063 C   0  0  2  0  0  0  0  0  0  0  0  0
   -4.0249   -8.4075   -0.5881 O   0  0  0  0  0  0  0  0  0  0  0  0
    0.4401   -2.5671   -4.7336 C   0  0  1  0  0  0  0  0  0  0  0  0
   -4.0543   -6.3716    0.7023 C   0  0  0  0  0  0  0  0  0  0  0  0
   -4.6394   -5.7081   -0.4199 O   0  0  0  0  0  0  0  0  0  0  0  0
    1.7508   -2.8644   -5.3384 C   0  0  0  0  0  0  0  0  0  0  0  0
    1.8408   -3.2679   -6.6311 O   0  0  0  0  0  0  0  0  0  0  0  0
   -0.8271   -2.5929   -5.1608 N   0  0  0  0  0  0  0  0  0  0  0  0
   -1.6160   -2.2049   -4.1165 C   0  0  0  0  0  0  0  0  0  0  0  0
   -0.8824   -1.9275   -3.0181 N   0  0  1  0  0  0  0  0  0  0  0  0
   -6.6556  -10.1947   -5.6038 N   0  0  0  0  0  0  0  0  0  0  0  0
   -5.5872   -3.5585   -1.9268 O   0  5  0  0  0  0  0  0  0  0  0  0
   -6.1247  -10.9374   -4.5942 C   0  0  2  0  0  0  0  0  0  0  0  0
   -6.4580  -12.2504   -4.4903 N   0  0  0  0  0  0  0  0  0  0  0  0
   -6.5145   -4.0950    0.7732 O   0  0  0  0  0  0  0  0  0  0  0  0
   -5.2675  -10.4052   -3.6807 N   0  0  0  0  0  0  0  0  0  0  0  0
   -4.9032   -9.1024   -3.7280 C   0  0  2  0  0  0  0  0  0  0  0  0
   -5.4413   -8.2505   -4.7968 C   0  0  2  0  0  0  0  0  0  0  0  0
   -6.3628   -8.8865   -5.7625 C   0  0  0  0  0  0  0  0  0  0  0  0
   -6.9074   -8.1807   -6.7842 O   0  0  0  0  0  0  0  0  0  0  0  0
   -4.9136   -7.0239   -4.6143 N   0  0  0  0  0  0  0  0  0  0  0  0
   -4.1061   -7.0858   -3.5138 C   0  0  0  0  0  0  0  0  0  0  0  0
   -4.1020   -8.3324   -2.9895 N   0  0  1  0  0  0  0  0  0  0  0  0
  1  3  1  6  0  0  0
  1  4  2  0  0  0  0
  1  6  1  0  0  0  0
  1 22  1  0  0  0  0
  2 28  1  0  0  0  0
  2 35  1  6  0  0  0
  2 38  2  0  0  0  0
  2 10  1  0  0  0  0
  5  6  1  0  0  0  0
  7  5  1  6  0  0  0
  7  8  1  0  0  0  0
  7  9  1  0  0  0  0
  9 10  1  1  0  0  0
  9 11  1  0  0  0  0
 11 12  1  1  0  0  0
 11 13  1  0  0  0  0
 13  8  1  1  0  0  0
 13 33  1  0  0  0  0
 14 46  1  0  0  0  0
 14 17  1  0  0  0  0
 14 25  1  1  0  0  0
 15 16  1  0  0  0  0
 15 29  1  0  0  0  0
 16 18  1  6  0  0  0
 16 21  1  0  0  0  0
 17 19  1  1  0  0  0
 17 20  1  0  0  0  0
 20 22  1  1  0  0  0
 20 24  1  0  0  0  0
 23 21  1  6  0  0  0
 23 26  1  0  0  0  0
 23 33  1  0  0  0  0
 24 25  1  6  0  0  0
 24 27  1  0  0  0  0
 26 29  1  1  0  0  0
 26 31  1  0  0  0  0
 27 28  1  0  0  0  0
 29 30  2  0  0  0  0
 31 32  1  0  0  0  0
 33 32  1  1  0  0  0
 34 36  1  0  0  0  0
 34 42  1  0  0  0  0
 36 37  1  1  0  0  0
 36 39  1  0  0  0  0
 40 39  1  6  0  0  0
 40 41  1  0  0  0  0
 40 46  1  0  0  0  0
 41 42  1  6  0  0  0
 41 44  1  0  0  0  0
 42 43  2  0  0  0  0
 44 45  1  0  0  0  0
 46 45  1  1  0  0  0
M  CHG  2   3  -1  35  -1
M  END
>  <CHROM.1>
-33.92967604,140.89091539,-2.30351843,-5.44776633,-2.21145764,-0.58480406
-0.58641387,-2.26983136

>  <Name>
ligand

>  <RI>
-1

>  <Rbt.Current_Directory>
/home/itssahil/PROJECTS/Mol_Feturizer/Test_systems_manuscript/rnas/3mum

>  <Rbt.Executable>
rbdock ($Id: //depot/dev/client3/rdock/2013.1/src/exe/rbdock.cxx#4 $)

>  <Rbt.Library>
libRbt.so (2013.1, Build901 2013/11/27)

>  <Rbt.Parameter_File>
/export/apps/rDock/src/rDock_2013.1_src/data/scripts/dock_solv.prm

>  <Rbt.Receptor>
prm/blind_docking_20.prm

>  <SCORE>
21.3829

>  <SCORE.INTER>
12.0937

>  <SCORE.INTER.CONST>
1

>  <SCORE.INTER.POLAR>
0

>  <SCORE.INTER.ROT>
2

>  <SCORE.INTER.SOLV>
27.6851

>  <SCORE.INTER.VDW>
-6.09923

>  <SCORE.INTER.norm>
0.262907

>  <SCORE.INTRA>
0.202257

>  <SCORE.INTRA.DIHEDRAL>
-0.0249018

>  <SCORE.INTRA.DIHEDRAL.0>
2.40424

>  <SCORE.INTRA.POLAR>
0

>  <SCORE.INTRA.POLAR.0>
0

>  <SCORE.INTRA.REPUL>
0

>  <SCORE.INTRA.REPUL.0>
0

>  <SCORE.INTRA.SOLV>
0.0230231

>  <SCORE.INTRA.SOLV.lig_0>
-134.169

>  <SCORE.INTRA.VDW>
0.203196

>  <SCORE.INTRA.VDW.0>
-2.18386

>  <SCORE.INTRA.norm>
0.00439689

>  <SCORE.RESTR>
9.08698

>  <SCORE.RESTR.CAVITY>
9.08698

>  <SCORE.RESTR.norm>
0.197543

>  <SCORE.SYSTEM>
0

>  <SCORE.SYSTEM.CONST>
0

>  <SCORE.SYSTEM.DIHEDRAL>
0

>  <SCORE.SYSTEM.SOLV>
0

>  <SCORE.SYSTEM.norm>
0

>  <SCORE.heavy>
46

>  <SCORE.norm>
0.464846

>  <RMSD>
21.392

$$$$
ligand
 OpenBabel02271912143D
libRbt.so/2013.1/901 2013/11/27
 46 52  0  0  0  0  0  0  0  0999 V2000
   -1.9116   -7.1059    0.1885 P   0  0  1  0  0  0  0  0  0  0  0  0
   -7.3598   -6.4476   -1.9468 P   0  0  2  0  0  0  0  0  0  0  0  0
   -0.7219   -6.9906   -1.1204 O   0  5  0  0  0  0  0  0  0  0  0  0
   -1.1247   -7.2826    1.7788 O   0  0  0  0  0  0  0  0  0  0  0  0
   -3.9450   -5.6339    1.0382 C   0  0  0  0  0  0  0  0  0  0  0  0
   -2.8265   -5.7786    0.1627 O   0  0  0  0  0  0  0  0  0  0  0  0
   -4.8657   -4.5685    0.4745 C   0  0  1  0  0  0  0  0  0  0  0  0
   -4.1159   -3.3703    0.2291 O   0  0  0  0  0  0  0  0  0  0  0  0
   -5.4752   -4.9492   -0.8649 C   0  0  1  0  0  0  0  0  0  0  0  0
   -6.7259   -5.6174   -0.7156 O   0  0  0  0  0  0  0  0  0  0  0  0
   -5.6256   -3.6116   -1.5680 C   0  0  1  0  0  0  0  0  0  0  0  0
   -6.8911   -3.0286   -1.2472 O   0  0  0  0  0  0  0  0  0  0  0  0
   -4.5286   -2.7360   -0.9916 C   0  0  2  0  0  0  0  0  0  0  0  0
   -3.7617   -9.9463   -3.1260 C   0  0  1  0  0  0  0  0  0  0  0  0
   -1.4826    0.2696   -4.1349 N   0  0  0  0  0  0  0  0  0  0  0  0
   -2.5546    0.6321   -3.3788 C   0  0  1  0  0  0  0  0  0  0  0  0
   -2.8035   -9.0816   -2.3569 C   0  0  2  0  0  0  0  0  0  0  0  0
   -2.9405    1.9288   -3.3963 N   0  0  0  0  0  0  0  0  0  0  0  0
   -1.8271   -9.9605   -1.7955 O   0  0  0  0  0  0  0  0  0  0  0  0
   -3.6527   -8.4181   -1.2908 C   0  0  2  0  0  0  0  0  0  0  0  0
   -3.2527   -0.2568   -2.6112 N   0  0  0  0  0  0  0  0  0  0  0  0
   -2.9552   -8.3055   -0.0578 O   0  0  0  0  0  0  0  0  0  0  0  0
   -2.9046   -1.5673   -2.5579 C   0  0  2  0  0  0  0  0  0  0  0  0
   -4.8535   -9.3290   -1.1272 C   0  0  2  0  0  0  0  0  0  0  0  0
   -4.9429  -10.0803   -2.3367 O   0  0  0  0  0  0  0  0  0  0  0  0
   -1.7525   -2.0134   -3.3605 C   0  0  1  0  0  0  0  0  0  0  0  0
   -6.1528   -8.5620   -0.9078 C   0  0  0  0  0  0  0  0  0  0  0  0
   -6.4119   -7.7450   -2.0512 O   0  0  0  0  0  0  0  0  0  0  0  0
   -1.0392   -1.0078   -4.1681 C   0  0  0  0  0  0  0  0  0  0  0  0
    0.0285   -1.3613   -4.9278 O   0  0  0  0  0  0  0  0  0  0  0  0
   -1.6155   -3.3267   -3.1475 N   0  0  0  0  0  0  0  0  0  0  0  0
   -2.5993   -3.7024   -2.2789 C   0  0  0  0  0  0  0  0  0  0  0  0
   -3.3731   -2.6550   -1.9242 N   0  0  1  0  0  0  0  0  0  0  0  0
   -7.5339   -8.6206   -6.4996 N   0  0  0  0  0  0  0  0  0  0  0  0
   -7.3063   -5.5095   -3.4626 O   0  5  0  0  0  0  0  0  0  0  0  0
   -7.6249   -9.2353   -5.2885 C   0  0  2  0  0  0  0  0  0  0  0  0
   -8.8485   -9.5838   -4.8117 N   0  0  0  0  0  0  0  0  0  0  0  0
   -9.0216   -6.9920   -1.6466 O   0  0  0  0  0  0  0  0  0  0  0  0
   -6.5255   -9.5129   -4.5359 N   0  0  0  0  0  0  0  0  0  0  0  0
   -5.2808   -9.1842   -4.9542 C   0  0  2  0  0  0  0  0  0  0  0  0
   -5.1182   -8.5212   -6.2548 C   0  0  2  0  0  0  0  0  0  0  0  0
   -6.3484   -8.2512   -7.0292 C   0  0  0  0  0  0  0  0  0  0  0  0
   -6.2975   -7.6457   -8.2414 O   0  0  0  0  0  0  0  0  0  0  0  0
   -3.7959   -8.3224   -6.4232 N   0  0  0  0  0  0  0  0  0  0  0  0
   -3.1640   -8.8151   -5.3164 C   0  0  0  0  0  0  0  0  0  0  0  0
   -4.0574   -9.3317   -4.4424 N   0  0  1  0  0  0  0  0  0  0  0  0
  1  3  1  6  0  0  0
  1  4  2  0  0  0  0
  1  6  1  0  0  0  0
  1 22  1  0  0  0  0
  2 28  1  0  0  0  0
  2 35  1  6  0  0  0
  2 38  2  0  0  0  0
  2 10  1  0  0  0  0
  5  6  1  0  0  0  0
  7  5  1  6  0  0  0
  7  8  1  0  0  0  0
  7  9  1  0  0  0  0
  9 10  1  1  0  0  0
  9 11  1  0  0  0  0
 11 12  1  1  0  0  0
 11 13  1  0  0  0  0
 13  8  1  1  0  0  0
 13 33  1  0  0  0  0
 14 46  1  0  0  0  0
 14 17  1  0  0  0  0
 14 25  1  1  0  0  0
 15 16  1  0  0  0  0
 15 29  1  0  0  0  0
 16 18  1  6  0  0  0
 16 21  1  0  0  0  0
 17 19  1  1  0  0  0
 17 20  1  0  0  0  0
 20 22  1  1  0  0  0
 20 24  1  0  0  0  0
 23 21  1  6  0  0  0
 23 26  1  0  0  0  0
 23 33  1  0  0  0  0
 24 25  1  6  0  0  0
 24 27  1  0  0  0  0
 26 29  1  1  0  0  0
 26 31  1  0  0  0  0
 27 28  1  0  0  0  0
 29 30  2  0  0  0  0
 31 32  1  0  0  0  0
 33 32  1  1  0  0  0
 34 36  1  0  0  0  0
 34 42  1  0  0  0  0
 36 37  1  1  0  0  0
 36 39  1  0  0  0  0
 40 39  1  6  0  0  0
 40 41  1  0  0  0  0
 40 46  1  0  0  0  0
 41 42  1  6  0  0  0
 41 44  1  0  0  0  0
 42 43  2  0  0  0  0
 44 45  1  0  0  0  0
 46 45  1  1  0  0  0
M  CHG  2   3  -1  35  -1
M  END
>  <CHROM.1>
-127.51552069,-132.54470385,-4.33328192,-5.97287418,-2.54096372,-0.77815996
0.96292732,2.63851699

>  <Name>
ligand

>  <RI>
-1

>  <Rbt.Current_Directory>
/home/itssahil/PROJECTS/Mol_Feturizer/Test_systems_manuscript/rnas/3mum

>  <Rbt.Executable>
rbdock ($Id: //depot/dev/client3/rdock/2013.1/src/exe/rbdock.cxx#4 $)

>  <Rbt.Library>
libRbt.so (2013.1, Build901 2013/11/27)

>  <Rbt.Parameter_File>
/export/apps/rDock/src/rDock_2013.1_src/data/scripts/dock_solv.prm

>  <Rbt.Receptor>
prm/blind_docking_100.prm

>  <SCORE>
4.48822

>  <SCORE.INTER>
1.03835

>  <SCORE.INTER.CONST>
1

>  <SCORE.INTER.POLAR>
0

>  <SCORE.INTER.ROT>
2

>  <SCORE.INTER.SOLV>
36.5857

>  <SCORE.INTER.VDW>
-16.4363

>  <SCORE.INTER.norm>
0.0225728

>  <SCORE.INTRA>
-0.399152

>  <SCORE.INTRA.DIHEDRAL>
0.0144893

>  <SCORE.INTRA.DIHEDRAL.0>
2.40424

>  <SCORE.INTRA.POLAR>
0

>  <SCORE.INTRA.POLAR.0>
0

>  <SCORE.INTRA.REPUL>
0

>  <SCORE.INTRA.REPUL.0>
0

>  <SCORE.INTRA.SOLV>
1.05353

>  <SCORE.INTRA.SOLV.lig_0>
-134.169

>  <SCORE.INTRA.VDW>
-0.933161

>  <SCORE.INTRA.VDW.0>
-2.18386

>  <SCORE.INTRA.norm>
-0.00867721

>  <SCORE.RESTR>
3.84903

>  <SCORE.RESTR.CAVITY>
3.84903

>  <SCORE.RESTR.norm>
0.0836745

>  <SCORE.SYSTEM>
0

>  <SCORE.SYSTEM.CONST>
0

>  <SCORE.SYSTEM.DIHEDRAL>
0

>  <SCORE.SYSTEM.SOLV>
0

>  <SCORE.SYSTEM.norm>
0

>  <SCORE.heavy>
46

>  <SCORE.norm>
0.0975701

>  <RMSD>
21.654

$$$$
ligand
 OpenBabel02271912143D
libRbt.so/2013.1/901 2013/11/27
 46 52  0  0  0  0  0  0  0  0999 V2000
   -4.9191   -3.8699   -1.6733 P   0  0  1  0  0  0  0  0  0  0  0  0
   -1.0479   -7.8414    0.3061 P   0  0  2  0  0  0  0  0  0  0  0  0
   -4.3624   -3.1839   -3.2099 O   0  5  0  0  0  0  0  0  0  0  0  0
   -6.5265   -3.2465   -1.2187 O   0  0  0  0  0  0  0  0  0  0  0  0
   -5.2751   -6.3108   -0.7043 C   0  0  0  0  0  0  0  0  0  0  0  0
   -4.9635   -5.4749   -1.8190 O   0  0  0  0  0  0  0  0  0  0  0  0
   -4.7762   -7.7130   -0.9967 C   0  0  1  0  0  0  0  0  0  0  0  0
   -5.2960   -8.1512   -2.2600 O   0  0  0  0  0  0  0  0  0  0  0  0
   -3.2641   -7.7972   -1.1270 C   0  0  1  0  0  0  0  0  0  0  0  0
   -2.6328   -8.0858    0.1184 O   0  0  0  0  0  0  0  0  0  0  0  0
   -3.0666   -8.9140   -2.1368 C   0  0  1  0  0  0  0  0  0  0  0  0
   -3.0000  -10.1752   -1.4664 O   0  0  0  0  0  0  0  0  0  0  0  0
   -4.3131   -8.8903   -3.0018 C   0  0  2  0  0  0  0  0  0  0  0  0
   -0.3850   -2.8387   -0.7481 C   0  0  1  0  0  0  0  0  0  0  0  0
   -3.6777   -9.2781   -8.2590 N   0  0  0  0  0  0  0  0  0  0  0  0
   -3.9344  -10.2595   -7.3517 C   0  0  1  0  0  0  0  0  0  0  0  0
   -1.7308   -2.8974   -1.4134 C   0  0  2  0  0  0  0  0  0  0  0  0
   -4.0522  -11.5305   -7.8004 N   0  0  0  0  0  0  0  0  0  0  0  0
   -2.3150   -1.6028   -1.2590 O   0  0  0  0  0  0  0  0  0  0  0  0
   -2.4933   -3.9613   -0.6489 C   0  0  2  0  0  0  0  0  0  0  0  0
   -4.0736  -10.0131   -6.0151 N   0  0  0  0  0  0  0  0  0  0  0  0
   -3.8618   -3.6138   -0.4877 O   0  0  0  0  0  0  0  0  0  0  0  0
   -3.9665   -8.7559   -5.5154 C   0  0  2  0  0  0  0  0  0  0  0  0
   -1.8122   -4.0318    0.7037 C   0  0  2  0  0  0  0  0  0  0  0  0
   -0.5026   -3.4997    0.5110 O   0  0  0  0  0  0  0  0  0  0  0  0
   -3.6858   -7.6564   -6.4550 C   0  0  1  0  0  0  0  0  0  0  0  0
   -1.7090   -5.4548    1.2411 C   0  0  0  0  0  0  0  0  0  0  0  0
   -0.9183   -6.2369    0.3438 O   0  0  0  0  0  0  0  0  0  0  0  0
   -3.5465   -7.9849   -7.8849 C   0  0  0  0  0  0  0  0  0  0  0  0
   -3.2868   -7.0130   -8.7960 O   0  0  0  0  0  0  0  0  0  0  0  0
   -3.6211   -6.5335   -5.7311 N   0  0  0  0  0  0  0  0  0  0  0  0
   -3.8403   -6.8767   -4.4282 C   0  0  0  0  0  0  0  0  0  0  0  0
   -4.0462   -8.2038   -4.2936 N   0  0  1  0  0  0  0  0  0  0  0  0
    3.2783   -2.0638   -4.4016 N   0  0  0  0  0  0  0  0  0  0  0  0
   -0.1179   -8.5127   -1.0597 O   0  5  0  0  0  0  0  0  0  0  0  0
    2.4491   -1.1702   -3.7961 C   0  0  2  0  0  0  0  0  0  0  0  0
    2.5285    0.1433   -4.1345 N   0  0  0  0  0  0  0  0  0  0  0  0
   -0.4117   -8.4897    1.8302 O   0  0  0  0  0  0  0  0  0  0  0  0
    1.5394   -1.5508   -2.8581 N   0  0  0  0  0  0  0  0  0  0  0  0
    1.4178   -2.8432   -2.4746 C   0  0  2  0  0  0  0  0  0  0  0  0
    2.2836   -3.8549   -3.0947 C   0  0  2  0  0  0  0  0  0  0  0  0
    3.2476   -3.3817   -4.1110 C   0  0  0  0  0  0  0  0  0  0  0  0
    4.0860   -4.2425   -4.7394 O   0  0  0  0  0  0  0  0  0  0  0  0
    1.9478   -5.0386   -2.5448 N   0  0  0  0  0  0  0  0  0  0  0  0
    0.9499   -4.8018   -1.6419 C   0  0  0  0  0  0  0  0  0  0  0  0
    0.6355   -3.4870   -1.6063 N   0  0  1  0  0  0  0  0  0  0  0  0
  1  3  1  6  0  0  0
  1  4  2  0  0  0  0
  1  6  1  0  0  0  0
  1 22  1  0  0  0  0
  2 28  1  0  0  0  0
  2 35  1  6  0  0  0
  2 38  2  0  0  0  0
  2 10  1  0  0  0  0
  5  6  1  0  0  0  0
  7  5  1  6  0  0  0
  7  8  1  0  0  0  0
  7  9  1  0  0  0  0
  9 10  1  1  0  0  0
  9 11  1  0  0  0  0
 11 12  1  1  0  0  0
 11 13  1  0  0  0  0
 13  8  1  1  0  0  0
 13 33  1  0  0  0  0
 14 46  1  0  0  0  0
 14 17  1  0  0  0  0
 14 25  1  1  0  0  0
 15 16  1  0  0  0  0
 15 29  1  0  0  0  0
 16 18  1  1  0  0  0
 16 21  1  0  0  0  0
 17 19  1  1  0  0  0
 17 20  1  0  0  0  0
 20 22  1  1  0  0  0
 20 24  1  0  0  0  0
 23 21  1  1  0  0  0
 23 26  1  0  0  0  0
 23 33  1  0  0  0  0
 24 25  1  6  0  0  0
 24 27  1  0  0  0  0
 26 29  1  6  0  0  0
 26 31  1  0  0  0  0
 27 28  1  0  0  0  0
 29 30  2  0  0  0  0
 31 32  1  0  0  0  0
 33 32  1  6  0  0  0
 34 36  1  0  0  0  0
 34 42  1  0  0  0  0
 36 37  1  1  0  0  0
 36 39  1  0  0  0  0
 40 39  1  6  0  0  0
 40 41  1  0  0  0  0
 40 46  1  0  0  0  0
 41 42  1  6  0  0  0
 41 44  1  0  0  0  0
 42 43  2  0  0  0  0
 44 45  1  0  0  0  0
 46 45  1  1  0  0  0
M  CHG  2   3  -1  35  -1
M  END
>  <CHROM.1>
-133.96887026,94.49711801,-1.99036592,-5.81209783,-2.59740244,2.51683957
-0.72018055,-1.94429749

>  <Name>
ligand

>  <RI>
-1

>  <Rbt.Current_Directory>
/home/itssahil/PROJECTS/Mol_Feturizer/Test_systems_manuscript/rnas/3mum

>  <Rbt.Executable>
rbdock ($Id: //depot/dev/client3/rdock/2013.1/src/exe/rbdock.cxx#4 $)

>  <Rbt.Library>
libRbt.so (2013.1, Build901 2013/11/27)

>  <Rbt.Parameter_File>
/export/apps/rDock/src/rDock_2013.1_src/data/scripts/dock_solv.prm

>  <Rbt.Receptor>
prm/blind_docking_100.prm

>  <SCORE>
1.08807

>  <SCORE.INTER>
-4.41415

>  <SCORE.INTER.CONST>
1

>  <SCORE.INTER.POLAR>
0

>  <SCORE.INTER.ROT>
2

>  <SCORE.INTER.SOLV>
25.0794

>  <SCORE.INTER.VDW>
-16.2359

>  <SCORE.INTER.norm>
-0.0959598

>  <SCORE.INTRA>
-0.444536

>  <SCORE.INTRA.DIHEDRAL>
0.025134

>  <SCORE.INTRA.DIHEDRAL.0>
2.40424

>  <SCORE.INTRA.POLAR>
0

>  <SCORE.INTRA.POLAR.0>
0

>  <SCORE.INTRA.REPUL>
0

>  <SCORE.INTRA.REPUL.0>
0

>  <SCORE.INTRA.SOLV>
0.117319

>  <SCORE.INTRA.SOLV.lig_0>
-134.169

>  <SCORE.INTRA.VDW>
-0.515763

>  <SCORE.INTRA.VDW.0>
-2.18386

>  <SCORE.INTRA.norm>
-0.00966383

>  <SCORE.RESTR>
5.94676

>  <SCORE.RESTR.CAVITY>
5.94676

>  <SCORE.RESTR.norm>
0.129277

>  <SCORE.SYSTEM>
0

>  <SCORE.SYSTEM.CONST>
0

>  <SCORE.SYSTEM.DIHEDRAL>
0

>  <SCORE.SYSTEM.SOLV>
0

>  <SCORE.SYSTEM.norm>
0

>  <SCORE.heavy>
46

>  <SCORE.norm>
0.0236537

>  <RMSD>
22.118

$$$$
