@<TRIPOS>MOLECULE
3mum_rdock.pdb
 1983 2219 0 0 0
SMALL
GASTEIGER

@<TRIPOS>ATOM
      1  PA       -18.5600  -11.1290   28.9140 P.3     8  GTP8        0.2189
      2  PB       -17.7460  -10.0390   31.3940 P.3     8  GTP8        0.2246
      3  PG       -19.9530  -10.3100   33.1100 P.3     8  GTP8        0.3052
      4  C5'      -17.7600  -13.5890   29.3760 C.3     8  GTP8        0.1812
      5  O5'      -18.6420  -12.5360   29.7000 O.3     8  GTP8       -0.3112
      6  C4'      -18.5400  -14.7920   28.8630 C.3     8  GTP8        0.1773
      7  O4'      -19.6480  -15.0730   29.7060 O.3     8  GTP8       -0.3307
      8  C3'      -19.1250  -14.5530   27.4820 C.3     8  GTP8        0.1860
      9  O3'      -18.2420  -14.8880   26.4360 O.3     8  GTP8       -0.3112
     10  C2'      -20.3700  -15.4070   27.4800 C.3     8  GTP8        0.2309
     11  O2'      -20.0920  -16.7150   27.0280 O.3     8  GTP8       -0.2156
     12  C1'      -20.7960  -15.4140   28.9430 C.3     8  GTP8        0.2408
     13  N1       -25.6290  -14.0160   27.5280 N.ar    8  GTP8       -0.1709
     14  O1A      -17.2260  -11.0030   28.2060 O.co2   8  GTP8       -0.5170
     15  O1B      -17.3500  -11.4480   31.7700 O.co2   8  GTP8       -0.5168
     16  O1G      -19.4960  -10.9310   34.4100 O.2     8  GTP8       -0.2719
     17  C2       -24.9340  -15.1650   27.1930 C.ar    8  GTP8        0.2606
     18  N2       -25.4910  -16.0840   26.4090 N.pl3   8  GTP8       -0.0859
     19  O2A      -19.7080  -10.9960   27.9380 O.3     8  GTP8       -0.4371
     20  O2B      -16.5200   -9.1710   31.2280 O.3     8  GTP8       -0.4369
     21  O2G      -20.3370  -11.4020   32.1360 O.co2   8  GTP8       -0.7576
     22  N3       -23.6550  -15.3610   27.6720 N.ar    8  GTP8       -0.1918
     23  O3A      -18.6720  -10.0150   30.0720 O.3     8  GTP8       -0.2701
     24  O3B      -18.7320   -9.4380   32.5180 O.3     8  GTP8       -0.2585
     25  O3G      -21.1420   -9.4110   33.3660 O.3     8  GTP8       -0.1531
     26  C4       -23.0740  -14.4320   28.4740 C.ar    8  GTP8        0.1723
     27  C5       -23.7510  -13.2730   28.8240 C.ar    8  GTP8        0.1748
     28  C6       -25.0390  -13.0660   28.3440 C.ar    8  GTP8        0.3023
     29  O6       -25.6500  -12.0420   28.6490 O.2     8  GTP8       -0.2633
     30  N7       -22.9420  -12.5370   29.6190 N.ar    8  GTP8       -0.2173
     31  C8       -21.7740  -13.2030   29.7770 C.ar    8  GTP8        0.1817
     32  N9       -21.8450  -14.3830   29.0780 N.ar    8  GTP8       -0.2693
     33  P        -18.2170  -14.0040   25.1000 P.3     9  G9          0.2141
     34  C5'      -19.5260  -15.8330   23.7370 C.3     9  G9          0.1812
     35  O5'      -19.5070  -14.5220   24.3020 O.3     9  G9         -0.3114
     36  C4'      -20.9220  -16.2100   23.2740 C.3     9  G9          0.1773
     37  O4'      -21.8820  -15.9520   24.3270 O.3     9  G9         -0.3307
     38  C3'      -21.4560  -15.3960   22.1090 C.3     9  G9          0.1860
     39  O3'      -20.9740  -15.9080   20.8840 O.3     9  G9         -0.3112
     40  C2'      -22.9620  -15.5860   22.2530 C.3     9  G9          0.2309
     41  O2'      -23.4170  -16.8300   21.7520 O.3     9  G9         -0.2156
     42  C1'      -23.1170  -15.5220   23.7710 C.3     9  G9          0.2408
     43  N1       -26.5130  -11.6660   23.8610 N.ar    9  G9         -0.1709
     44  C2       -26.5900  -12.8790   23.2090 C.ar    9  G9          0.2606
     45  N2       -27.6970  -13.1040   22.4930 N.pl3   9  G9         -0.0859
     46  N3       -25.6440  -13.8150   23.2570 N.ar    9  G9         -0.1918
     47  C4       -24.5830  -13.4410   24.0260 C.ar    9  G9          0.1723
     48  C5       -24.4140  -12.2540   24.7110 C.ar    9  G9          0.1748
     49  C6       -25.4310  -11.2650   24.6520 C.ar    9  G9          0.3023
     50  O6       -25.4420  -10.1530   25.2010 O.2     9  G9         -0.2633
     51  N7       -23.1970  -12.2390   25.3750 N.ar    9  G9         -0.2173
     52  C8       -22.6580  -13.3940   25.0870 C.ar    9  G9          0.1817
     53  N9       -23.4380  -14.1800   24.2710 N.ar    9  G9         -0.2693
     54  OP1      -16.9930  -14.3530   24.3450 O.2     9  G9         -0.5172
     55  OP2      -18.4640  -12.5930   25.4800 O.co2   9  G9         -0.4373
     56  P        -20.4600  -14.8840   19.7730 P.3    10  U10         0.2141
     57  C5'      -22.8110  -14.9340   18.5540 C.3    10  U10         0.1812
     58  O5'      -21.8040  -14.1890   19.2430 O.3    10  U10        -0.3114
     59  C4'      -24.1050  -14.1410   18.4840 C.3    10  U10         0.1773
     60  O4'      -24.5810  -13.8220   19.8190 O.3    10  U10        -0.3307
     61  C3'      -23.9880  -12.7820   17.8100 C.3    10  U10         0.1860
     62  O3'      -24.0200  -12.9230   16.3860 O.3    10  U10        -0.3112
     63  C2'      -25.2090  -12.0560   18.3790 C.3    10  U10         0.2309
     64  O2'      -26.4270  -12.3900   17.7450 O.3    10  U10        -0.2156
     65  C1'      -25.2280  -12.5550   19.8200 C.3    10  U10         0.2420
     66  N1       -24.5730  -11.6100   20.8090 N.ar   10  U10        -0.2534
     67  C2       -25.2330  -10.4490   21.1940 C.ar   10  U10         0.3546
     68  O2       -26.3340  -10.1230   20.7820 O.2    10  U10        -0.2443
     69  N3       -24.5530   -9.6620   22.0960 N.ar   10  U10        -0.1530
     70  C4       -23.3040   -9.9060   22.6460 C.ar   10  U10         0.2846
     71  O4       -22.8210   -9.1040   23.4470 O.2    10  U10        -0.2650
     72  C5       -22.6760  -11.1250   22.2000 C.ar   10  U10         0.0814
     73  C6       -23.3190  -11.9080   21.3220 C.ar   10  U10         0.0870
     74  OP1      -19.8710  -15.6860   18.6760 O.2    10  U10        -0.5172
     75  OP2      -19.6510  -13.8480   20.4600 O.co2  10  U10        -0.4373
     76  P        -23.1660  -11.9510   15.4360 P.3    11  C11         0.2141
     77  C5'      -25.2590  -10.5090   14.8750 C.3    11  C11         0.1812
     78  O5'      -23.9850  -10.5800   15.5060 O.3    11  C11        -0.3114
     79  C4'      -26.0240   -9.2870   15.3330 C.3    11  C11         0.1773
     80  O4'      -26.2200   -9.3460   16.7690 O.3    11  C11        -0.3307
     81  C3'      -25.3020   -7.9670   15.1190 C.3    11  C11         0.1860
     82  O3'      -25.4590   -7.5080   13.7830 O.3    11  C11        -0.3112
     83  C2'      -26.0090   -7.0820   16.1390 C.3    11  C11         0.2309
     84  O2'      -27.2950   -6.6710   15.7180 O.3    11  C11        -0.2156
     85  C1'      -26.1270   -8.0420   17.3200 C.3    11  C11         0.2420
     86  N1       -24.9770   -7.9500   18.3060 N.ar   11  C11        -0.2535
     87  C2       -24.9630   -6.9150   19.2580 C.ar   11  C11         0.3532
     88  O2       -25.8860   -6.0880   19.2800 O.2    11  C11        -0.2443
     89  N3       -23.9290   -6.8420   20.1370 N.ar   11  C11        -0.1739
     90  C4       -22.9430   -7.7390   20.0940 C.ar   11  C11         0.1759
     91  N4       -21.9540   -7.6130   20.9830 N.pl3  11  C11        -0.1070
     92  C5       -22.9290   -8.8010   19.1410 C.ar   11  C11         0.0566
     93  C6       -23.9540   -8.8640   18.2790 C.ar   11  C11         0.0850
     94  OP1      -23.2640  -12.4890   14.0620 O.2    11  C11        -0.5172
     95  OP2      -21.8280  -11.7390   16.0320 O.co2  11  C11        -0.4373
     96  P        -24.2210   -6.8410   13.0030 P.3    12  A12         0.2141
     97  C5'      -23.8330   -4.2660   13.3390 C.3    12  A12         0.1812
     98  O5'      -24.6910   -5.3090   12.9070 O.3    12  A12        -0.3114
     99  C4'      -24.4900   -3.4110   14.4030 C.3    12  A12         0.1773
    100  O4'      -24.7700   -4.1850   15.5980 O.3    12  A12        -0.3307
    101  C3'      -23.5970   -2.3010   14.9110 C.3    12  A12         0.1860
    102  O3'      -23.6330   -1.1990   14.0270 O.3    12  A12        -0.3112
    103  C2'      -24.2460   -1.9850   16.2510 C.3    12  A12         0.2309
    104  O2'      -25.4030   -1.1880   16.1220 O.3    12  A12        -0.2156
    105  C1'      -24.5870   -3.3850   16.7560 C.3    12  A12         0.2408
    106  N1       -21.5530   -2.8600   20.9500 N.ar   12  A12        -0.2040
    107  C2       -22.5080   -2.0710   20.4370 C.ar   12  A12         0.2016
    108  N3       -23.2610   -2.2640   19.3470 N.ar   12  A12        -0.2048
    109  C4       -22.9580   -3.4300   18.7350 C.ar   12  A12         0.1692
    110  C5       -21.9980   -4.3410   19.1450 C.ar   12  A12         0.1518
    111  C6       -21.2680   -4.0200   20.3170 C.ar   12  A12         0.1919
    112  N6       -20.3130   -4.8010   20.8280 N.pl3  12  A12        -0.1054
    113  N7       -21.9510   -5.4210   18.2780 N.ar   12  A12        -0.2193
    114  C8       -22.8710   -5.1490   17.3810 C.ar   12  A12         0.1816
    115  N9       -23.5240   -3.9640   17.5880 N.ar   12  A12        -0.2693
    116  OP1      -24.1970   -7.4270   11.6420 O.2    12  A12        -0.5172
    117  OP2      -23.0020   -6.9180   13.8500 O.co2  12  A12        -0.4373
    118  P        -22.2940   -0.3640   13.7810 P.3    13  C13         0.2141
    119  C5'      -22.7680    1.2920   15.7470 C.3    13  C13         0.1812
    120  O5'      -21.9720    0.2540   15.2100 O.3    13  C13        -0.3114
    121  C4'      -22.1210    1.7090   17.0390 C.3    13  C13         0.1773
    122  O4'      -22.0470    0.5440   17.8920 O.3    13  C13        -0.3307
    123  C3'      -20.6740    2.1140   16.8560 C.3    13  C13         0.1860
    124  O3'      -20.6050    3.4850   16.4940 O.3    13  C13        -0.3112
    125  C2'      -20.0790    1.8260   18.2280 C.3    13  C13         0.2309
    126  O2'      -20.3060    2.8760   19.1450 O.3    13  C13        -0.2156
    127  C1'      -20.8540    0.5830   18.6500 C.3    13  C13         0.2420
    128  N1       -20.1000   -0.6960   18.4700 N.ar   13  C13        -0.2535
    129  C2       -19.1740   -1.1000   19.4570 C.ar   13  C13         0.3532
    130  O2       -18.9920   -0.3910   20.4560 O.2    13  C13        -0.2443
    131  N3       -18.4920   -2.2660   19.2910 N.ar   13  C13        -0.1739
    132  C4       -18.7110   -3.0140   18.2030 C.ar   13  C13         0.1759
    133  N4       -18.0250   -4.1510   18.0880 N.pl3  13  C13        -0.1070
    134  C5       -19.6460   -2.6280   17.1910 C.ar   13  C13         0.0566
    135  C6       -20.3110   -1.4740   17.3640 C.ar   13  C13         0.0850
    136  OP1      -22.6250    0.7540   12.8680 O.2    13  C13        -0.5172
    137  OP2      -21.1990   -1.3070   13.4550 O.co2  13  C13        -0.4373
    138  P        -19.2620    4.0750   15.8450 P.3    14  G14         0.2141
    139  C5'      -18.3060    5.0740   18.0870 C.3    14  G14         0.1812
    140  O5'      -18.2570    4.0690   17.0800 O.3    14  G14        -0.3114
    141  C4'      -17.0690    4.9310   18.9450 C.3    14  G14         0.1773
    142  O4'      -16.9070    3.5330   19.3050 O.3    14  G14        -0.3307
    143  C3'      -15.7790    5.3430   18.2470 C.3    14  G14         0.1860
    144  O3'      -14.9600    6.0590   19.1600 O.3    14  G14        -0.3112
    145  C2'      -15.1780    4.0060   17.8140 C.3    14  G14         0.2309
    146  O2'      -13.7720    4.0250   17.7000 O.3    14  G14        -0.2156
    147  C1'      -15.6160    3.0810   18.9470 C.3    14  G14         0.2408
    148  N1       -13.8920   -1.6910   19.7590 N.ar   14  G14        -0.1709
    149  C2       -13.5270   -0.5250   20.3830 C.ar   14  G14         0.2606
    150  N2       -12.5850   -0.6450   21.3300 N.pl3  14  G14        -0.0859
    151  N3       -14.0450    0.6720   20.0910 N.ar   14  G14        -0.1918
    152  C4       -14.9810    0.6090   19.1050 C.ar   14  G14         0.1723
    153  C5       -15.4120   -0.5120   18.4300 C.ar   14  G14         0.1748
    154  C6       -14.8520   -1.7760   18.7500 C.ar   14  G14         0.3023
    155  O6       -15.1110   -2.8830   18.2520 O.2    14  G14        -0.2633
    156  N7       -16.3780   -0.1750   17.4950 N.ar   14  G14        -0.2173
    157  C8       -16.5180    1.1170   17.6190 C.ar   14  G14         0.1817
    158  N9       -15.6990    1.6660   18.5760 N.ar   14  G14        -0.2693
    159  OP1      -19.5180    5.4800   15.4430 O.3    14  G14        -0.4373
    160  OP2      -18.7400    3.1000   14.8610 O.co2  14  G14        -0.5172
    161  P        -15.1250    7.6490   19.3110 P.3    15  C15         0.2141
    162  C5'      -13.9230    9.2530   21.0050 C.3    15  C15         0.1812
    163  O5'      -13.9560    7.9940   20.3460 O.3    15  C15        -0.3114
    164  C4'      -13.5640    9.0850   22.4700 C.3    15  C15         0.1773
    165  O4'      -14.7840    8.9130   23.2290 O.3    15  C15        -0.3307
    166  C3'      -12.7030    7.8670   22.7770 C.3    15  C15         0.1860
    167  O3'      -11.3260    8.2240   22.7570 O.3    15  C15        -0.3112
    168  C2'      -13.1520    7.4410   24.1680 C.3    15  C15         0.2309
    169  O2'      -12.3870    8.0600   25.1820 O.3    15  C15        -0.2156
    170  C1'      -14.6060    7.9140   24.2180 C.3    15  C15         0.2420
    171  N1       -15.6200    6.8170   24.0130 N.ar   15  C15        -0.2535
    172  C2       -16.2220    6.2070   25.1280 C.ar   15  C15         0.3532
    173  O2       -15.9070    6.5690   26.2690 O.2    15  C15        -0.2443
    174  N3       -17.1320    5.2170   24.9280 N.ar   15  C15        -0.1739
    175  C4       -17.4550    4.8420   23.6880 C.ar   15  C15         0.1759
    176  N4       -18.3570    3.8720   23.5440 N.pl3  15  C15        -0.1070
    177  C5       -16.8650    5.4490   22.5400 C.ar   15  C15         0.0566
    178  C6       -15.9640    6.4180   22.7460 C.ar   15  C15         0.0850
    179  OP1      -16.4430    7.9390   19.9240 O.3    15  C15        -0.4373
    180  OP2      -14.7780    8.2760   18.0150 O.co2  15  C15        -0.5172
    181  P        -10.4200    7.8760   21.4870 P.3    16  A16         0.2141
    182  C5'       -9.2040    5.8340   22.5210 C.3    16  A16         0.1812
    183  O5'       -9.1420    7.1910   22.1480 O.3    16  A16        -0.3114
    184  C4'       -9.3770    5.6870   24.0170 C.3    16  A16         0.1773
    185  O4'      -10.6920    5.1430   24.3110 O.3    16  A16        -0.3307
    186  C3'       -8.3970    4.7040   24.6360 C.3    16  A16         0.1860
    187  O3'       -7.1850    5.3680   24.9710 O.3    16  A16        -0.3112
    188  C2'       -9.1580    4.2120   25.8650 C.3    16  A16         0.2309
    189  O2'       -9.0370    5.0790   26.9780 O.3    16  A16        -0.2156
    190  C1'      -10.6030    4.1990   25.3690 C.3    16  A16         0.2408
    191  N1       -11.5000   -0.7420   26.6660 N.ar   16  A16        -0.2040
    192  C2       -11.0040    0.2860   27.3650 C.ar   16  A16         0.2016
    193  N3       -10.7970    1.5420   26.9670 N.ar   16  A16        -0.2048
    194  C4       -11.1580    1.7200   25.6790 C.ar   16  A16         0.1692
    195  C5       -11.6820    0.7540   24.8330 C.ar   16  A16         0.1518
    196  C6       -11.8560   -0.5420   25.3770 C.ar   16  A16         0.1919
    197  N6       -12.3510   -1.5740   24.6870 N.pl3  16  A16        -0.1054
    198  N7       -11.9350    1.2880   23.5820 N.ar   16  A16        -0.2193
    199  C8       -11.5640    2.5420   23.6930 C.ar   16  A16         0.1816
    200  N9       -11.0840    2.8810   24.9290 N.ar   16  A16        -0.2693
    201  OP1      -10.0080    9.1550   20.8720 O.3    16  A16        -0.4373
    202  OP2      -11.1230    6.8550   20.6770 O.co2  16  A16        -0.5172
    203  P         -5.7770    4.6210   24.8190 P.3    17  C17         0.2141
    204  C5'       -6.0370    3.5790   27.2600 C.3    17  C17         0.1812
    205  O5'       -5.8570    3.3870   25.8470 O.3    17  C17        -0.3114
    206  C4'       -6.2650    2.2610   27.9860 C.3    17  C17         0.1773
    207  O4'       -7.5460    1.6750   27.6480 O.3    17  C17        -0.3307
    208  C3'       -5.2610    1.1890   27.6220 C.3    17  C17         0.1860
    209  O3'       -4.1230    1.3250   28.4230 O.3    17  C17        -0.3112
    210  C2'       -5.9880   -0.1190   27.9020 C.3    17  C17         0.2309
    211  O2'       -5.7890   -0.6040   29.2100 O.3    17  C17        -0.2156
    212  C1'       -7.4450    0.2550   27.6630 C.3    17  C17         0.2420
    213  N1        -7.9560   -0.3320   26.3680 N.ar   17  C17        -0.2535
    214  C2        -8.3860   -1.6760   26.3180 C.ar   17  C17         0.3532
    215  O2        -8.3580   -2.3840   27.3320 O.2    17  C17        -0.2443
    216  N3        -8.8380   -2.1710   25.1370 N.ar   17  C17        -0.1739
    217  C4        -8.8650   -1.4020   24.0420 C.ar   17  C17         0.1759
    218  N4        -9.3220   -1.9480   22.9120 N.pl3  17  C17        -0.1070
    219  C5        -8.4290   -0.0410   24.0640 C.ar   17  C17         0.0566
    220  C6        -7.9860    0.4440   25.2320 C.ar   17  C17         0.0850
    221  OP1       -4.7240    5.5630   25.2620 O.3    17  C17        -0.4373
    222  OP2       -5.7180    4.0470   23.4560 O.co2  17  C17        -0.5172
    223  P         -2.7080    1.0570   27.7500 P.3    18  A18         0.2141
    224  C5'       -2.6360   -1.4780   28.4630 C.3    18  A18         0.1812
    225  O5'       -2.7740   -0.5180   27.4350 O.3    18  A18        -0.3114
    226  C4'       -2.8180   -2.8760   27.9180 C.3    18  A18         0.1773
    227  O4'       -4.1810   -3.0290   27.4520 O.3    18  A18        -0.3307
    228  C3'       -1.9840   -3.1950   26.6920 C.3    18  A18         0.1860
    229  O3'       -0.6900   -3.6220   27.0320 O.3    18  A18        -0.3112
    230  C2'       -2.7920   -4.2990   26.0250 C.3    18  A18         0.2309
    231  O2'       -2.6090   -5.5650   26.6230 O.3    18  A18        -0.2156
    232  C1'       -4.2050   -3.7840   26.2460 C.3    18  A18         0.2408
    233  N1        -6.5320   -3.6340   21.6300 N.ar   18  A18        -0.2040
    234  C2        -6.2200   -4.6540   22.4400 C.ar   18  A18         0.2016
    235  N3        -5.6070   -4.6190   23.6270 N.ar   18  A18        -0.2048
    236  C4        -5.3040   -3.3580   23.9870 C.ar   18  A18         0.1692
    237  C5        -5.5630   -2.2080   23.2620 C.ar   18  A18         0.1518
    238  C6        -6.2140   -2.3770   22.0170 C.ar   18  A18         0.1919
    239  N6        -6.5270   -1.3610   21.2060 N.pl3  18  A18        -0.1054
    240  N7        -5.1090   -1.0870   23.9370 N.ar   18  A18        -0.2193
    241  C8        -4.5960   -1.5770   25.0380 C.ar   18  A18         0.1816
    242  N9        -4.6810   -2.9400   25.1420 N.ar   18  A18        -0.2693
    243  OP1       -1.6590    1.3450   28.7590 O.3    18  A18        -0.4373
    244  OP2       -2.6950    1.7960   26.4620 O.co2  18  A18        -0.5172
    245  P          0.4950   -3.2770   26.0160 P.3    19  G19         0.2141
    246  C5'        0.9880   -5.7210   25.2240 C.3    19  G19         0.1812
    247  O5'        0.4000   -4.4610   24.9440 O.3    19  G19        -0.3114
    248  C4'        0.3280   -6.8230   24.4240 C.3    19  G19         0.1773
    249  O4'       -1.1010   -6.6060   24.3900 O.3    19  G19        -0.3307
    250  C3'        0.7160   -6.8650   22.9580 C.3    19  G19         0.1860
    251  O3'        1.9160   -7.5860   22.7520 O.3    19  G19        -0.3112
    252  C2'       -0.4760   -7.5690   22.3270 C.3    19  G19         0.2309
    253  O2'       -0.4530   -8.9730   22.5140 O.3    19  G19        -0.2156
    254  C1'       -1.6100   -6.9170   23.1050 C.3    19  G19         0.2408
    255  N1        -4.4490   -4.9610   19.3590 N.ar   19  G19        -0.1709
    256  C2        -4.2100   -6.2810   19.6740 C.ar   19  G19         0.2606
    257  N2        -4.8020   -7.1970   18.8980 N.pl3  19  G19        -0.0859
    258  N3        -3.4410   -6.6760   20.6820 N.ar   19  G19        -0.1918
    259  C4        -2.9230   -5.6210   21.3680 C.ar   19  G19         0.1723
    260  C5        -3.1000   -4.2730   21.1300 C.ar   19  G19         0.1748
    261  C6        -3.9190   -3.8690   20.0480 C.ar   19  G19         0.3023
    262  O6        -4.1910   -2.7140   19.6850 O.2    19  G19        -0.2633
    263  N7        -2.3970   -3.5120   22.0530 N.ar   19  G19        -0.2173
    264  C8        -1.8200   -4.3950   22.8150 C.ar   19  G19         0.1817
    265  N9        -2.0950   -5.6960   22.4660 N.ar   19  G19        -0.2693
    266  OP1        1.7710   -3.4100   26.7510 O.3    19  G19        -0.4373
    267  OP2        0.1780   -1.9940   25.3440 O.co2  19  G19        -0.5172
    268  P          2.9450   -6.9800   21.6900 P.3    20  A20         0.2141
    269  C5'        2.2400   -6.7790   19.1510 C.3    20  A20         0.1812
    270  O5'        1.9660   -6.4770   20.5170 O.3    20  A20        -0.3114
    271  C4'        1.1390   -7.6030   18.5070 C.3    20  A20         0.1773
    272  O4'       -0.1610   -7.2060   19.0120 O.3    20  A20        -0.3307
    273  C3'        1.0120   -7.3710   17.0110 C.3    20  A20         0.1860
    274  O3'        1.9540   -8.1230   16.2740 O.3    20  A20        -0.3112
    275  C2'       -0.4250   -7.7900   16.7320 C.3    20  A20         0.2309
    276  O2'       -0.5990   -9.1890   16.6820 O.3    20  A20        -0.2156
    277  C1'       -1.1100   -7.1800   17.9500 C.3    20  A20         0.2408
    278  N1        -4.0940   -4.0050   15.1700 N.ar   20  A20        -0.2040
    279  C2        -3.9500   -5.3380   15.1460 C.ar   20  A20         0.2016
    280  N3        -3.1500   -6.1000   15.8960 N.ar   20  A20        -0.2048
    281  C4        -2.4410   -5.3570   16.7690 C.ar   20  A20         0.1692
    282  C5        -2.4890   -3.9820   16.9100 C.ar   20  A20         0.1518
    283  C6        -3.3720   -3.2860   16.0580 C.ar   20  A20         0.1919
    284  N6        -3.5270   -1.9620   16.0830 N.pl3  20  A20        -0.1054
    285  N7        -1.6280   -3.5600   17.9040 N.ar   20  A20        -0.2193
    286  C8        -1.0830   -4.6710   18.3420 C.ar   20  A20         0.1816
    287  N9        -1.5290   -5.7980   17.7040 N.ar   20  A20        -0.2693
    288  OP1        3.8000   -8.0880   21.1930 O.2    20  A20        -0.5172
    289  OP2        3.5560   -5.7850   22.3160 O.co2  20  A20        -0.4373
    290  P          2.6690   -7.4180   15.0260 P.3    21  G21         0.2141
    291  C5'        0.9250   -8.3540   13.3190 C.3    21  G21         0.1812
    292  O5'        1.4660   -7.2350   13.9960 O.3    21  G21        -0.3114
    293  C4'       -0.3280   -7.9370   12.5810 C.3    21  G21         0.1773
    294  O4'       -1.1040   -7.0370   13.4120 O.3    21  G21        -0.3307
    295  C3'       -0.0770   -7.0790   11.3580 C.3    21  G21         0.1860
    296  O3'        0.3800   -7.8640   10.2780 O.3    21  G21        -0.3112
    297  C2'       -1.4610   -6.4910   11.1360 C.3    21  G21         0.2309
    298  O2'       -2.3950   -7.4120   10.6110 O.3    21  G21        -0.2156
    299  C1'       -1.8400   -6.1550   12.5740 C.3    21  G21         0.2408
    300  N1        -3.0280   -1.2320   11.8340 N.ar   21  G21        -0.1709
    301  C2        -3.5250   -2.3500   11.2060 C.ar   21  G21         0.2606
    302  N2        -4.4580   -2.1310   10.2680 N.pl3  21  G21        -0.0859
    303  N3        -3.1420   -3.5920   11.4820 N.ar   21  G21        -0.1918
    304  C4        -2.1950   -3.6310   12.4560 C.ar   21  G21         0.1723
    305  C5        -1.6320   -2.5710   13.1390 C.ar   21  G21         0.1748
    306  C6        -2.0560   -1.2520   12.8360 C.ar   21  G21         0.3023
    307  O6        -1.6730   -0.1870   13.3430 O.2    21  G21        -0.2633
    308  N7        -0.6930   -3.0180   14.0610 N.ar   21  G21        -0.2173
    309  C8        -0.7060   -4.3180   13.9230 C.ar   21  G21         0.1817
    310  N9        -1.5870   -4.7650   12.9640 N.ar   21  G21        -0.2693
    311  OP1        3.6550   -8.3750   14.4690 O.2    21  G21        -0.5172
    312  OP2        3.1090   -6.0630   15.4400 O.co2  21  G21        -0.4373
    313  P          1.6440   -7.3600    9.4310 P.3    22  C22         0.2141
    314  C5'       -0.2530   -6.9300    7.6360 C.3    22  C22         0.1812
    315  O5'        0.9450   -6.5000    8.2790 O.3    22  C22        -0.3114
    316  C4'       -1.0100   -5.7140    7.1490 C.3    22  C22         0.1773
    317  O4'       -1.3680   -4.8820    8.2740 O.3    22  C22        -0.3307
    318  C3'       -0.2060   -4.7490    6.3050 C.3    22  C22         0.1860
    319  O3'       -0.1040   -5.2340    4.9930 O.3    22  C22        -0.3112
    320  C2'       -1.0700   -3.4950    6.3860 C.3    22  C22         0.2309
    321  O2'       -2.1920   -3.5150    5.5240 O.3    22  C22        -0.2156
    322  C1'       -1.5630   -3.5500    7.8260 C.3    22  C22         0.2420
    323  N1        -0.9020   -2.5620    8.7430 N.ar   22  C22        -0.2535
    324  C2        -1.1950   -1.1950    8.6040 C.ar   22  C22         0.3532
    325  O2        -1.9820   -0.8200    7.7270 O.2    22  C22        -0.2443
    326  N3        -0.6030   -0.3060    9.4460 N.ar   22  C22        -0.1739
    327  C4         0.2490   -0.7280   10.3900 C.ar   22  C22         0.1759
    328  N4         0.8060    0.1950   11.1850 N.pl3  22  C22        -0.1070
    329  C5         0.5580   -2.1170   10.5480 C.ar   22  C22         0.0566
    330  C6        -0.0360   -2.9840    9.7120 C.ar   22  C22         0.0850
    331  OP1        2.2850   -8.5430    8.8160 O.2    22  C22        -0.5172
    332  OP2        2.4390   -6.4150   10.2540 O.co2  22  C22        -0.4373
    333  P          1.2230   -4.9870    4.1420 P.3    23  A23         0.2141
    334  C5'        0.1240   -2.8730    3.0910 C.3    23  A23         0.1812
    335  O5'        1.1840   -3.4220    3.8520 O.3    23  A23        -0.3114
    336  C4'        0.2310   -1.3640    3.1250 C.3    23  A23         0.1773
    337  O4'        0.2610   -0.8980    4.5010 O.3    23  A23        -0.3307
    338  C3'        1.4930   -0.8520    2.4610 C.3    23  A23         0.1860
    339  O3'        1.1730    0.2710    1.7070 O.3    23  A23        -0.3112
    340  C2'        2.3910   -0.4610    3.6190 C.3    23  A23         0.2309
    341  O2'        3.2140    0.6430    3.3050 O.3    23  A23        -0.2156
    342  C1'        1.3990   -0.1010    4.7200 C.3    23  A23         0.2408
    343  N1         3.2290    1.6150    9.2350 N.ar   23  A23        -0.2040
    344  C2         2.6560    2.2590    8.2080 C.ar   23  A23         0.2016
    345  N3         2.1960    1.7500    7.0620 N.ar   23  A23        -0.2048
    346  C4         2.3600    0.4160    7.0120 C.ar   23  A23         0.1692
    347  C5         2.9270   -0.3790    7.9910 C.ar   23  A23         0.1518
    348  C6         3.3840    0.2740    9.1570 C.ar   23  A23         0.1919
    349  N6         3.9520   -0.3620   10.1830 N.pl3  23  A23        -0.1054
    350  N7         2.9320   -1.7040    7.5970 N.ar   23  A23        -0.2193
    351  C8         2.3760   -1.6870    6.4090 C.ar   23  A23         0.1816
    352  N9         2.0000   -0.4410    5.9990 N.ar   23  A23        -0.2693
    353  OP1        1.0140   -5.7150    2.8720 O.2    23  A23        -0.5172
    354  OP2        2.4230   -5.2510    4.9780 O.co2  23  A23        -0.4373
    355  P          1.7290    0.4150    0.2190 P.3    24  A24         0.2141
    356  C5'       -0.0840    2.2280   -0.0980 C.3    24  A24         0.1812
    357  O5'        1.2930    1.9190   -0.0850 O.3    24  A24        -0.3114
    358  C4'       -0.2890    3.7200   -0.1350 C.3    24  A24         0.1773
    359  O4'       -0.0210    4.2550    1.1780 O.3    24  A24        -0.3307
    360  C3'        0.6750    4.4710   -1.0290 C.3    24  A24         0.1860
    361  O3'        0.2260    4.4010   -2.3690 O.3    24  A24        -0.3112
    362  C2'        0.5550    5.8720   -0.4460 C.3    24  A24         0.2309
    363  O2'       -0.6210    6.5440   -0.8500 O.3    24  A24        -0.2156
    364  C1'        0.4790    5.5720    1.0440 C.3    24  A24         0.2408
    365  N1         4.3550    8.6090    2.5650 N.ar   24  A24        -0.2040
    366  C2         3.2290    8.8810    1.8930 C.ar   24  A24         0.2016
    367  N3         2.2550    8.0470    1.5200 N.ar   24  A24        -0.2048
    368  C4         2.5230    6.7910    1.9200 C.ar   24  A24         0.1692
    369  C5         3.6360    6.3650    2.6190 C.ar   24  A24         0.1518
    370  C6         4.5940    7.3390    2.9520 C.ar   24  A24         0.1919
    371  N6         5.7170    7.0560    3.6240 N.pl3  24  A24        -0.1054
    372  N7         3.5800    5.0050    2.8570 N.ar   24  A24        -0.2193
    373  C8         2.4470    4.6430    2.3100 C.ar   24  A24         0.1816
    374  N9         1.7620    5.6650    1.7270 N.ar   24  A24        -0.2693
    375  OP1        0.9250   -0.5200   -0.6070 O.2    24  A24        -0.5172
    376  OP2        3.2170    0.3680    0.2160 O.co2  24  A24        -0.4373
    377  P          1.2420    4.5640   -3.6020 P.3    25  A25         0.2141
    378  C5'        1.8630    7.0770   -3.5820 C.3    25  A25         0.1812
    379  O5'        2.1950    5.7680   -3.1620 O.3    25  A25        -0.3114
    380  C4'        2.8310    8.0710   -2.9910 C.3    25  A25         0.1773
    381  O4'        3.0820    7.7720   -1.6090 O.3    25  A25        -0.3307
    382  C3'        4.2250    7.9960   -3.5550 C.3    25  A25         0.1860
    383  O3'        4.2210    8.5540   -4.8530 O.3    25  A25        -0.3112
    384  C2'        4.9520    8.8520   -2.5310 C.3    25  A25         0.2309
    385  O2'        4.6040   10.2150   -2.6390 O.3    25  A25        -0.2156
    386  C1'        4.3400    8.3100   -1.2510 C.3    25  A25         0.2408
    387  N1         8.5890    7.0250    1.4260 N.ar   25  A25        -0.2040
    388  C2         8.1840    8.1950    0.9060 C.ar   25  A25         0.2016
    389  N3         7.0690    8.4690    0.2200 N.ar   25  A25        -0.2048
    390  C4         6.3060    7.3720    0.0780 C.ar   25  A25         0.1692
    391  C5         6.5920    6.1040    0.5550 C.ar   25  A25         0.1518
    392  C6         7.8020    5.9420    1.2700 C.ar   25  A25         0.1919
    393  N6         8.2050    4.7810    1.7930 N.pl3  25  A25        -0.1054
    394  N7         5.5790    5.2200    0.2240 N.ar   25  A25        -0.2193
    395  C8         4.7210    5.9560   -0.4420 C.ar   25  A25         0.1816
    396  N9         5.0970    7.2620   -0.5740 N.ar   25  A25        -0.2693
    397  OP1        0.3970    4.9910   -4.7460 O.2    25  A25        -0.5172
    398  OP2        2.1090    3.3630   -3.6880 O.co2  25  A25        -0.4373
    399  P          5.0260    7.7890   -5.9860 P.3    26  C26         0.2141
    400  C5'        7.2880    8.9500   -5.3760 C.3    26  C26         0.1812
    401  O5'        6.5030    7.7700   -5.3570 O.3    26  C26        -0.3114
    402  C4'        8.5880    8.7900   -4.6110 C.3    26  C26         0.1773
    403  O4'        8.3240    8.4220   -3.2320 O.3    26  C26        -0.3307
    404  C3'        9.5060    7.6990   -5.1290 C.3    26  C26         0.1860
    405  O3'       10.3150    8.1980   -6.1830 O.3    26  C26        -0.3112
    406  C2'       10.3240    7.3770   -3.8840 C.3    26  C26         0.2309
    407  O2'       11.3440    8.3250   -3.6490 O.3    26  C26        -0.2156
    408  C1'        9.2680    7.4600   -2.7880 C.3    26  C26         0.2420
    409  N1         8.5840    6.1420   -2.4950 N.ar   26  C26        -0.2535
    410  C2         9.2180    5.1760   -1.7020 C.ar   26  C26         0.3532
    411  O2        10.3360    5.4030   -1.2440 O.2    26  C26        -0.2443
    412  N3         8.5860    4.0010   -1.4530 N.ar   26  C26        -0.1739
    413  C4         7.3750    3.7730   -1.9600 C.ar   26  C26         0.1759
    414  N4         6.7920    2.6100   -1.6860 N.pl3  26  C26        -0.1070
    415  C5         6.7060    4.7280   -2.7760 C.ar   26  C26         0.0566
    416  C6         7.3390    5.8830   -3.0070 C.ar   26  C26         0.0850
    417  OP1        4.9930    8.6290   -7.2060 O.2    26  C26        -0.5172
    418  OP2        4.5250    6.4000   -6.0650 O.co2  26  C26        -0.4373
    419  P         10.7570    7.2540   -7.4030 P.3    27  C27         0.2141
    420  C5'       12.9750    6.7140   -6.1050 C.3    27  C27         0.1812
    421  O5'       11.8020    6.2230   -6.7520 O.3    27  C27        -0.3114
    422  C4'       13.7700    5.6170   -5.4090 C.3    27  C27         0.1773
    423  O4'       13.0850    5.1870   -4.2080 O.3    27  C27        -0.3307
    424  C3'       13.9680    4.3270   -6.1850 C.3    27  C27         0.1860
    425  O3'       15.0610    4.4370   -7.0630 O.3    27  C27        -0.3112
    426  C2'       14.2960    3.3580   -5.0640 C.3    27  C27         0.2309
    427  O2'       15.6320    3.5070   -4.6340 O.3    27  C27        -0.2156
    428  C1'       13.3260    3.8090   -3.9790 C.3    27  C27         0.2420
    429  N1        12.0230    3.0540   -3.9690 N.ar   27  C27        -0.2535
    430  C2        11.9650    1.7620   -3.4360 C.ar   27  C27         0.3532
    431  O2        12.9870    1.2510   -2.9780 O.2    27  C27        -0.2443
    432  N3        10.7830    1.0980   -3.4210 N.ar   27  C27        -0.1739
    433  C4         9.6930    1.6760   -3.9230 C.ar   27  C27         0.1759
    434  N4         8.5520    0.9850   -3.8960 N.pl3  27  C27        -0.1070
    435  C5         9.7220    2.9890   -4.4740 C.ar   27  C27         0.0566
    436  C6        10.8930    3.6310   -4.4690 C.ar   27  C27         0.0850
    437  OP1       11.4650    8.1590   -8.3250 O.2    27  C27        -0.5172
    438  OP2        9.5850    6.4910   -7.9070 O.co2  27  C27        -0.4373
    439  P         15.0480    3.6280   -8.4400 P.3    28  A28         0.2141
    440  C5'       16.5150    1.7310   -7.4360 C.3    28  A28         0.1812
    441  O5'       15.2480    2.1240   -7.9380 O.3    28  A28        -0.3114
    442  C4'       16.4920    0.2870   -6.9880 C.3    28  A28         0.1773
    443  O4'       15.6190    0.1400   -5.8410 O.3    28  A28        -0.3307
    444  C3'       15.9280   -0.7130   -7.9800 C.3    28  A28         0.1860
    445  O3'       16.9080   -1.0290   -8.9230 O.3    28  A28        -0.3112
    446  C2'       15.6770   -1.8860   -7.0480 C.3    28  A28         0.2309
    447  O2'       16.8800   -2.5420   -6.6930 O.3    28  A28        -0.2156
    448  C1'       15.0680   -1.1650   -5.8500 C.3    28  A28         0.2408
    449  N1        10.5430   -3.4330   -5.0300 N.ar   28  A28        -0.2040
    450  C2        11.8000   -3.8420   -4.8110 C.ar   28  A28         0.2016
    451  N3        12.9380   -3.1920   -5.0480 N.ar   28  A28        -0.2048
    452  C4        12.6940   -1.9820   -5.5740 C.ar   28  A28         0.1692
    453  C5        11.4590   -1.4250   -5.8590 C.ar   28  A28         0.1518
    454  C6        10.3360   -2.2080   -5.5570 C.ar   28  A28         0.1919
    455  N6         9.0870   -1.8040   -5.7760 N.pl3  28  A28        -0.1054
    456  N7        11.5930   -0.1630   -6.4100 N.ar   28  A28        -0.2193
    457  C8        12.8950    0.0190   -6.4370 C.ar   28  A28         0.1816
    458  N9        13.6170   -1.0410   -5.9470 N.ar   28  A28        -0.2693
    459  OP1       16.2520    4.0580   -9.1930 O.2    28  A28        -0.5172
    460  OP2       13.7070    3.7270   -9.0680 O.co2  28  A28        -0.4373
    461  P         16.5220   -1.4280  -10.4210 P.3    29  U29         0.2141
    462  C5'       16.5980   -4.0130  -10.0210 C.3    29  U29         0.1812
    463  O5'       15.8250   -2.8550  -10.2730 O.3    29  U29        -0.3114
    464  C4'       15.6720   -5.1400   -9.6340 C.3    29  U29         0.1773
    465  O4'       14.8520   -4.7070   -8.5180 O.3    29  U29        -0.3307
    466  C3'       14.6350   -5.4920  -10.6780 C.3    29  U29         0.1860
    467  O3'       15.1930   -6.2780  -11.7260 O.3    29  U29        -0.3112
    468  C2'       13.6380   -6.2480   -9.8000 C.3    29  U29         0.2309
    469  O2'       14.0720   -7.5480   -9.4420 O.3    29  U29        -0.2156
    470  C1'       13.5860   -5.3400   -8.5700 C.3    29  U29         0.2420
    471  N1        12.4720   -4.3200   -8.6470 N.ar   29  U29        -0.2534
    472  C2        11.1860   -4.6700   -8.2570 C.ar   29  U29         0.3546
    473  O2        10.8850   -5.7710   -7.8280 O.2    29  U29        -0.2443
    474  N3        10.2420   -3.6760   -8.3930 N.ar   29  U29        -0.1530
    475  C4        10.4390   -2.3890   -8.8630 C.ar   29  U29         0.2846
    476  O4         9.5000   -1.5990   -8.9220 O.2    29  U29        -0.2650
    477  C5        11.7940   -2.0950   -9.2460 C.ar   29  U29         0.0814
    478  C6        12.7310   -3.0490   -9.1330 C.ar   29  U29         0.0870
    479  OP1       17.8180   -1.5880  -11.1220 O.2    29  U29        -0.5172
    480  OP2       15.4790   -0.5120  -10.9330 O.co2  29  U29        -0.4373
    481  P         14.5160   -6.2840  -13.1820 P.3    30  U30         0.2141
    482  C5'       13.4380   -8.6450  -12.8160 C.3    30  U30         0.1812
    483  O5'       13.2500   -7.2510  -13.0320 O.3    30  U30        -0.3114
    484  C4'       12.1560   -9.3120  -12.3580 C.3    30  U30         0.1773
    485  O4'       11.6180   -8.5740  -11.2380 O.3    30  U30        -0.3307
    486  C3'       11.0280   -9.2440  -13.3630 C.3    30  U30         0.1860
    487  O3'       11.1630  -10.2420  -14.3570 O.3    30  U30        -0.3112
    488  C2'        9.8030   -9.4420  -12.4760 C.3    30  U30         0.2309
    489  O2'        9.5700  -10.7800  -12.1010 O.3    30  U30        -0.2156
    490  C1'       10.1990   -8.6430  -11.2440 C.3    30  U30         0.2420
    491  N1         9.5910   -7.2710  -11.2260 N.ar   30  U30        -0.2534
    492  C2         8.2220   -7.1380  -11.0330 C.ar   30  U30         0.3546
    493  O2         7.4570   -8.0790  -10.8650 O.2    30  U30        -0.2443
    494  N3         7.7670   -5.8410  -11.0440 N.ar   30  U30        -0.1530
    495  C4         8.5220   -4.6920  -11.2170 C.ar   30  U30         0.2846
    496  O4         7.9710   -3.5950  -11.1940 O.2    30  U30        -0.2650
    497  C5         9.9340   -4.9100  -11.4150 C.ar   30  U30         0.0814
    498  C6        10.4000   -6.1650  -11.4100 C.ar   30  U30         0.0870
    499  OP1       15.4960   -6.9060  -14.1000 O.2    30  U30        -0.5172
    500  OP2       13.9840   -4.9350  -13.4720 O.co2  30  U30        -0.4373
    501  P         10.6490   -9.9270  -15.8410 P.3    31  C31         0.2141
    502  C5'        8.2560  -11.0290  -15.6370 C.3    31  C31         0.1812
    503  O5'        9.0490   -9.8490  -15.7170 O.3    31  C31        -0.3114
    504  C4'        6.8040  -10.7090  -15.3110 C.3    31  C31         0.1773
    505  O4'        6.7310   -9.8510  -14.1430 O.3    31  C31        -0.3307
    506  C3'        6.0540   -9.8780  -16.3460 C.3    31  C31         0.1860
    507  O3'        5.6540  -10.6220  -17.4890 O.3    31  C31        -0.3112
    508  C2'        4.8790   -9.3450  -15.5350 C.3    31  C31         0.2309
    509  O2'        3.8550  -10.2890  -15.3160 O.3    31  C31        -0.2156
    510  C1'        5.5830   -9.0110  -14.2260 C.3    31  C31         0.2420
    511  N1         5.9700   -7.5680  -14.1750 N.ar   31  C31        -0.2535
    512  C2         5.0010   -6.5910  -13.8710 C.ar   31  C31         0.3532
    513  O2         3.8340   -6.9280  -13.6390 O.2    31  C31        -0.2443
    514  N3         5.3720   -5.2820  -13.8390 N.ar   31  C31        -0.1739
    515  C4         6.6420   -4.9450  -14.0960 C.ar   31  C31         0.1759
    516  N4         6.9660   -3.6500  -14.0560 N.pl3  31  C31        -0.1070
    517  C5         7.6410   -5.9180  -14.4100 C.ar   31  C31         0.0566
    518  C6         7.2630   -7.2010  -14.4390 C.ar   31  C31         0.0850
    519  OP1       11.0160  -11.0910  -16.6800 O.2    31  C31        -0.5172
    520  OP2       11.1440   -8.5780  -16.1980 O.co2  31  C31        -0.4373
    521  P          6.1570  -10.0950  -18.9160 P.3    32  G32         0.2141
    522  C5'        3.6270   -9.5540  -19.2290 C.3    32  G32         0.1812
    523  O5'        4.9720   -9.1450  -19.3970 O.3    32  G32        -0.3114
    524  C4'        2.7330   -8.3470  -19.0430 C.3    32  G32         0.1773
    525  O4'        3.0030   -7.7310  -17.7620 O.3    32  G32        -0.3307
    526  C3'        2.9770   -7.1850  -19.9910 C.3    32  G32         0.1860
    527  O3'        2.5020   -7.4370  -21.3100 O.3    32  G32        -0.3112
    528  C2'        2.1820   -6.1100  -19.2610 C.3    32  G32         0.2309
    529  O2'        0.7790   -6.2790  -19.3690 O.3    32  G32        -0.2156
    530  C1'        2.6560   -6.3590  -17.8290 C.3    32  G32         0.2408
    531  N1         4.2010   -1.6980  -16.4910 N.ar   32  G32        -0.1709
    532  C2         2.9270   -2.1720  -16.6990 C.ar   32  G32         0.2606
    533  N2         1.9220   -1.2980  -16.5360 N.pl3  32  G32        -0.0859
    534  N3         2.6530   -3.4210  -17.0470 N.ar   32  G32        -0.1918
    535  C4         3.7710   -4.1830  -17.1650 C.ar   32  G32         0.1723
    536  C5         5.0820   -3.8060  -16.9760 C.ar   32  G32         0.1748
    537  C6         5.3620   -2.4640  -16.6110 C.ar   32  G32         0.3023
    538  O6         6.4690   -1.9410  -16.4010 O.2    32  G32        -0.2633
    539  N7         5.9390   -4.8790  -17.2000 N.ar   32  G32        -0.2173
    540  C8         5.1420   -5.8650  -17.5120 C.ar   32  G32         0.1817
    541  N9         3.8090   -5.5180  -17.5070 N.ar   32  G32        -0.2693
    542  OP1        6.2310  -11.2690  -19.8150 O.2    32  G32        -0.5172
    543  OP2        7.3520   -9.2390  -18.7080 O.co2  32  G32        -0.4373
    544  P          3.3790   -6.9880  -22.5770 P.3    33  A33         0.2141
    545  C5'        4.4590   -4.6880  -23.2660 C.3    33  A33         0.1812
    546  O5'        3.8930   -5.5110  -22.2370 O.3    33  A33        -0.3114
    547  C4'        3.5080   -3.5750  -23.6810 C.3    33  A33         0.1773
    548  O4'        2.3110   -4.1480  -24.2470 O.3    33  A33        -0.3307
    549  C3'        2.9550   -2.7370  -22.5480 C.3    33  A33         0.1860
    550  O3'        3.8890   -1.7550  -22.1450 O.3    33  A33        -0.3112
    551  C2'        1.7040   -2.1300  -23.1650 C.3    33  A33         0.2309
    552  O2'        1.9830   -0.9900  -23.9490 O.3    33  A33        -0.2156
    553  C1'        1.2110   -3.2760  -24.0430 C.3    33  A33         0.2408
    554  N1        -3.6340   -3.1430  -22.2230 N.ar   33  A33        -0.2040
    555  C2        -2.8040   -2.1720  -22.6400 C.ar   33  A33         0.2016
    556  N3        -1.5530   -2.2790  -23.0980 N.ar   33  A33        -0.2048
    557  C4        -1.1520   -3.5620  -23.1090 C.ar   33  A33         0.1692
    558  C5        -1.8910   -4.6650  -22.7110 C.ar   33  A33         0.1518
    559  C6        -3.2000   -4.4200  -22.2440 C.ar   33  A33         0.1919
    560  N6        -4.0330   -5.3750  -21.8260 N.pl3  33  A33        -0.1054
    561  N7        -1.1570   -5.8280  -22.8620 N.ar   33  A33        -0.2193
    562  C8        -0.0070   -5.4060  -23.3400 C.ar   33  A33         0.1816
    563  N9         0.0720   -4.0460  -23.5140 N.ar   33  A33        -0.2693
    564  OP1        2.4480   -6.9110  -23.7240 O.2    33  A33        -0.5172
    565  OP2        4.5730   -7.8580  -22.6360 O.co2  33  A33        -0.4373
    566  P          4.1950   -1.6360  -20.5830 P.3    34  A34         0.2141
    567  C5'        2.7730    0.5240  -20.3080 C.3    34  A34         0.1812
    568  O5'        2.8720   -0.8850  -20.0890 O.3    34  A34        -0.3114
    569  C4'        1.3330    1.0020  -20.2700 C.3    34  A34         0.1773
    570  O4'        0.4950    0.0350  -20.9400 O.3    34  A34        -0.3307
    571  C3'        0.7400    1.1280  -18.8790 C.3    34  A34         0.1860
    572  O3'        0.9730    2.4350  -18.3880 O.3    34  A34        -0.3112
    573  C2'       -0.7460    0.8640  -19.1060 C.3    34  A34         0.2309
    574  O2'       -1.4570    2.0100  -19.5350 O.3    34  A34        -0.2156
    575  C1'       -0.7250   -0.1420  -20.2420 C.3    34  A34         0.2408
    576  N1        -3.8860   -3.9630  -18.8150 N.ar   34  A34        -0.2040
    577  C2        -4.1140   -2.6630  -19.0670 C.ar   34  A34         0.2016
    578  N3        -3.2390   -1.7190  -19.4270 N.ar   34  A34        -0.2048
    579  C4        -1.9970   -2.2220  -19.5280 C.ar   34  A34         0.1692
    580  C5        -1.6150   -3.5320  -19.3040 C.ar   34  A34         0.1518
    581  C6        -2.6250   -4.4330  -18.9240 C.ar   34  A34         0.1919
    582  N6        -2.3970   -5.7200  -18.6710 N.pl3  34  A34        -0.1054
    583  N7        -0.2600   -3.6900  -19.4990 N.ar   34  A34        -0.2193
    584  C8         0.1480   -2.4870  -19.8380 C.ar   34  A34         0.1816
    585  N9        -0.8490   -1.5500  -19.8720 N.ar   34  A34        -0.2693
    586  OP1        5.3500   -0.7340  -20.3580 O.2    34  A34        -0.5172
    587  OP2        4.2470   -3.0230  -20.0570 O.co2  34  A34        -0.4373
    588  P          1.2040    2.6880  -16.8230 P.3    35  A35         0.2141
    589  C5'       -1.1260    3.5620  -15.9460 C.3    35  A35         0.1812
    590  O5'       -0.2560    2.4590  -16.2070 O.3    35  A35        -0.3114
    591  C4'       -2.5390    3.0680  -15.6980 C.3    35  A35         0.1773
    592  O4'       -2.8380    2.0000  -16.6290 O.3    35  A35        -0.3307
    593  C3'       -2.7570    2.4220  -14.3430 C.3    35  A35         0.1860
    594  O3'       -3.0700    3.3880  -13.3920 O.3    35  A35        -0.3112
    595  C2'       -3.9370    1.4980  -14.6110 C.3    35  A35         0.2309
    596  O2'       -5.1720    2.1770  -14.6770 O.3    35  A35        -0.2156
    597  C1'       -3.5550    0.9640  -15.9820 C.3    35  A35         0.2408
    598  N1        -3.4700   -4.1560  -15.6490 N.ar   35  A35        -0.2040
    599  C2        -4.4880   -3.2790  -15.7030 C.ar   35  A35         0.2016
    600  N3        -4.4290   -1.9450  -15.7960 N.ar   35  A35        -0.2048
    601  C4        -3.1530   -1.5200  -15.8220 C.ar   35  A35         0.1692
    602  C5        -2.0110   -2.2980  -15.7710 C.ar   35  A35         0.1518
    603  C6        -2.1990   -3.6920  -15.6770 C.ar   35  A35         0.1919
    604  N6        -1.1890   -4.5720  -15.6270 N.pl3  35  A35        -0.1054
    605  N7        -0.8730   -1.5110  -15.8250 N.ar   35  A35        -0.2193
    606  C8        -1.3460   -0.2920  -15.9030 C.ar   35  A35         0.1816
    607  N9        -2.7150   -0.2270  -15.9090 N.ar   35  A35        -0.2693
    608  OP1        1.5740    4.1140  -16.6620 O.2    35  A35        -0.5172
    609  OP2        2.1150    1.6280  -16.3180 O.co2  35  A35        -0.4373
    610  P         -2.2400    3.4500  -12.0290 P.3    36  G36         0.2141
    611  C5'       -3.2050    1.2880  -10.8440 C.3    36  G36         0.1812
    612  O5'       -2.1590    1.9230  -11.5700 O.3    36  G36        -0.3114
    613  C4'       -3.1060   -0.2070  -11.0880 C.3    36  G36         0.1773
    614  O4'       -2.4270   -0.4300  -12.3520 O.3    36  G36        -0.3307
    615  C3'       -2.2250   -1.0060  -10.1400 C.3    36  G36         0.1860
    616  O3'       -2.8440   -1.2750   -8.9020 O.3    36  G36        -0.3112
    617  C2'       -2.0650   -2.2800  -10.9510 C.3    36  G36         0.2309
    618  O2'       -3.2590   -3.0430  -10.9880 O.3    36  G36        -0.2156
    619  C1'       -1.7580   -1.6760  -12.3160 C.3    36  G36         0.2408
    620  N1         2.6690   -3.9650  -13.3010 N.ar   36  G36        -0.1709
    621  C2         1.4130   -4.5110  -13.1360 C.ar   36  G36         0.2606
    622  N2         1.3160   -5.8440  -13.2410 N.pl3  36  G36        -0.0859
    623  N3         0.3230   -3.7940  -12.8810 N.ar   36  G36        -0.1918
    624  C4         0.5910   -2.4630  -12.8050 C.ar   36  G36         0.1723
    625  C5         1.8040   -1.8200  -12.9560 C.ar   36  G36         0.1748
    626  C6         2.9550   -2.6000  -13.2270 C.ar   36  G36         0.3023
    627  O6         4.1160   -2.2110  -13.3910 O.2    36  G36        -0.2633
    628  N7         1.6590   -0.4440  -12.7980 N.ar   36  G36        -0.2173
    629  C8         0.3790   -0.2880  -12.5580 C.ar   36  G36         0.1817
    630  N9        -0.3290   -1.4720  -12.5480 N.ar   36  G36        -0.2693
    631  OP1       -3.0610    4.2340  -11.0680 O.3    36  G36        -0.4373
    632  OP2       -0.8510    3.8660  -12.3490 O.co2  36  G36        -0.5172
    633  P         -1.9000   -1.4200   -7.6180 P.3    37  A37         0.2141
    634  C5'       -2.2580   -4.0380   -7.6160 C.3    37  A37         0.1812
    635  O5'       -1.3620   -2.9290   -7.7470 O.3    37  A37        -0.3114
    636  C4'       -1.6260   -5.3420   -8.0760 C.3    37  A37         0.1773
    637  O4'       -1.0460   -5.2070   -9.4060 O.3    37  A37        -0.3307
    638  C3'       -0.4520   -5.7980   -7.2330 C.3    37  A37         0.1860
    639  O3'       -0.9050   -6.4560   -6.0830 O.3    37  A37        -0.3112
    640  C2'        0.2280   -6.7610   -8.1960 C.3    37  A37         0.2309
    641  O2'       -0.4770   -7.9810   -8.3030 O.3    37  A37        -0.2156
    642  C1'        0.1490   -5.9680   -9.4940 C.3    37  A37         0.2408
    643  N1         5.2500   -5.6610  -10.3350 N.ar   37  A37        -0.2040
    644  C2         4.4250   -6.7070  -10.2100 C.ar   37  A37         0.2016
    645  N3         3.1020   -6.7100   -9.9920 N.ar   37  A37        -0.2048
    646  C4         2.6150   -5.4610   -9.9020 C.ar   37  A37         0.1692
    647  C5         3.3440   -4.2880  -10.0090 C.ar   37  A37         0.1518
    648  C6         4.7330   -4.4160  -10.2330 C.ar   37  A37         0.1919
    649  N6         5.5570   -3.3720  -10.3610 N.pl3  37  A37        -0.1054
    650  N7         2.5170   -3.1900   -9.8630 N.ar   37  A37        -0.2193
    651  C8         1.3210   -3.7130   -9.6700 C.ar   37  A37         0.1816
    652  N9         1.3050   -5.0830   -9.6820 N.ar   37  A37        -0.2693
    653  OP1       -2.7730   -1.3060   -6.4260 O.3    37  A37        -0.4373
    654  OP2       -0.7420   -0.5030   -7.7790 O.co2  37  A37        -0.5172
    655  P         -0.0140   -6.4390   -4.7550 P.3    38  G38         0.2141
    656  C5'        0.9550   -8.8000   -5.3520 C.3    38  G38         0.1812
    657  O5'        1.2060   -7.4280   -5.0710 O.3    38  G38        -0.3114
    658  C4'        2.2490   -9.5330   -5.6170 C.3    38  G38         0.1773
    659  O4'        2.8540   -9.0410   -6.8300 O.3    38  G38        -0.3307
    660  C3'        3.3170   -9.2750   -4.5770 C.3    38  G38         0.1860
    661  O3'        3.1080  -10.1140   -3.4630 O.3    38  G38        -0.3112
    662  C2'        4.5880   -9.6250   -5.3390 C.3    38  G38         0.2309
    663  O2'        4.8510  -11.0070   -5.3990 O.3    38  G38        -0.2156
    664  C1'        4.2650   -9.0900   -6.7200 C.3    38  G38         0.2408
    665  N1         8.4490   -6.3840   -7.7690 N.ar   38  G38        -0.1709
    666  C2         8.3040   -7.7400   -7.6330 C.ar   38  G38         0.2606
    667  N2         9.4200   -8.4560   -7.8060 N.pl3  38  G38        -0.0859
    668  N3         7.1550   -8.3470   -7.3570 N.ar   38  G38        -0.1918
    669  C4         6.1390   -7.4580   -7.2210 C.ar   38  G38         0.1723
    670  C5         6.1860   -6.0860   -7.3340 C.ar   38  G38         0.1748
    671  C6         7.4190   -5.4620   -7.6300 C.ar   38  G38         0.3023
    672  O6         7.6560   -4.2500   -7.7600 O.2    38  G38        -0.2633
    673  N7         4.9360   -5.5260   -7.1200 N.ar   38  G38        -0.2173
    674  C8         4.1640   -6.5550   -6.8810 C.ar   38  G38         0.1817
    675  N9         4.8260   -7.7600   -6.9310 N.ar   38  G38        -0.2693
    676  OP1       -0.8850   -7.0280   -3.7090 O.3    38  G38        -0.4373
    677  OP2        0.5690   -5.0870   -4.5730 O.co2  38  G38        -0.5172
    678  P          3.6200   -9.6610   -2.0220 P.3    39  U39         0.2141
    679  C5'        5.9530  -10.7580   -2.1940 C.3    39  U39         0.1812
    680  O5'        5.1970   -9.5770   -2.2070 O.3    39  U39        -0.3114
    681  C4'        7.3910  -10.4370   -2.5330 C.3    39  U39         0.1773
    682  O4'        7.4260   -9.7270   -3.7900 O.3    39  U39        -0.3307
    683  C3'        8.0730   -9.4790   -1.5760 C.3    39  U39         0.1860
    684  O3'        8.5090  -10.1610   -0.4120 O.3    39  U39        -0.3112
    685  C2'        9.2210   -8.9960   -2.4480 C.3    39  U39         0.2309
    686  O2'       10.2670   -9.9400   -2.5300 O.3    39  U39        -0.2156
    687  C1'        8.5310   -8.8500   -3.8050 C.3    39  U39         0.2420
    688  N1         8.0700   -7.4470   -4.0750 N.ar   39  U39        -0.2534
    689  C2         9.0050   -6.5170   -4.4900 C.ar   39  U39         0.3546
    690  O2        10.1770   -6.7780   -4.6590 O.2    39  U39        -0.2443
    691  N3         8.5210   -5.2550   -4.7060 N.ar   39  U39        -0.1530
    692  C4         7.2150   -4.8320   -4.5450 C.ar   39  U39         0.2846
    693  O4         6.9370   -3.6610   -4.7860 O.2    39  U39        -0.2650
    694  C5         6.2870   -5.8520   -4.1090 C.ar   39  U39         0.0814
    695  C6         6.7410   -7.0940   -3.8930 C.ar   39  U39         0.0870
    696  OP1        3.2770  -10.7660   -1.1020 O.3    39  U39        -0.4373
    697  OP2        3.1260   -8.2930   -1.7410 O.co2  39  U39        -0.5172
    698  P          8.3260   -9.4980    1.0360 P.3    40  G40         0.2141
    699  C5'       10.9150   -9.1050    0.9570 C.3    40  G40         0.1812
    700  O5'        9.6170   -8.5620    1.1570 O.3    40  G40        -0.3114
    701  C4'       11.9420   -8.0060    0.7540 C.3    40  G40         0.1773
    702  O4'       11.8400   -7.4720   -0.5940 O.3    40  G40        -0.3307
    703  C3'       11.7620   -6.7660    1.6140 C.3    40  G40         0.1860
    704  O3'       12.1920   -6.9590    2.9610 O.3    40  G40        -0.3112
    705  C2'       12.6440   -5.7920    0.8490 C.3    40  G40         0.2309
    706  O2'       14.0250   -6.0150    1.0540 O.3    40  G40        -0.2156
    707  C1'       12.2230   -6.1070   -0.5820 C.3    40  G40         0.2408
    708  N1        11.0160   -1.4880   -2.3230 N.ar   40  G40        -0.1709
    709  C2        12.2440   -2.0230   -2.0100 C.ar   40  G40         0.2606
    710  N2        13.3080   -1.2380   -2.1770 N.pl3  40  G40        -0.0859
    711  N3        12.4210   -3.2530   -1.5640 N.ar   40  G40        -0.1918
    712  C4        11.2510   -3.9300   -1.4440 C.ar   40  G40         0.1723
    713  C5         9.9770   -3.4900   -1.7320 C.ar   40  G40         0.1748
    714  C6         9.8030   -2.1660   -2.2100 C.ar   40  G40         0.3023
    715  O6         8.7530   -1.5860   -2.5190 O.2    40  G40        -0.2633
    716  N7         9.0490   -4.4930   -1.4810 N.ar   40  G40        -0.2173
    717  C8         9.7720   -5.5010   -1.0540 C.ar   40  G40         0.1817
    718  N9        11.1230   -5.2350   -1.0110 N.ar   40  G40        -0.2693
    719  OP1        8.4250  -10.5950    2.0250 O.3    40  G40        -0.4373
    720  OP2        7.1210   -8.6290    1.0510 O.co2  40  G40        -0.5172
    721  P         11.6090   -6.0130    4.1230 P.3    41  G41         0.2141
    722  C5'       13.5990   -4.3290    3.9380 C.3    41  G41         0.1812
    723  O5'       12.2180   -4.5800    3.7560 O.3    41  G41        -0.3114
    724  C4'       13.9590   -2.9480    3.4210 C.3    41  G41         0.1773
    725  O4'       13.4910   -2.7750    2.0620 O.3    41  G41        -0.3307
    726  C3'       13.3180   -1.7600    4.1210 C.3    41  G41         0.1860
    727  O3'       13.9140   -1.5030    5.3820 O.3    41  G41        -0.3112
    728  C2'       13.6490   -0.6690    3.1060 C.3    41  G41         0.2309
    729  O2'       15.0090   -0.2810    3.1390 O.3    41  G41        -0.2156
    730  C1'       13.3340   -1.3880    1.8010 C.3    41  G41         0.2408
    731  N1         9.9970    1.8760   -0.3540 N.ar   41  G41        -0.1709
    732  C2        11.3340    2.0750   -0.0760 C.ar   41  G41         0.2606
    733  N2        11.8290    3.2750   -0.4110 N.pl3  41  G41        -0.0859
    734  N3        12.1260    1.1580    0.4890 N.ar   41  G41        -0.1918
    735  C4        11.4560    0.0040    0.7660 C.ar   41  G41         0.1723
    736  C5        10.1280   -0.2790    0.5270 C.ar   41  G41         0.1748
    737  C6         9.3010    0.6960   -0.0770 C.ar   41  G41         0.3023
    738  O6         8.0970    0.5930   -0.3550 O.2    41  G41        -0.2633
    739  N7         9.8110   -1.5620    0.9350 N.ar   41  G41        -0.2173
    740  C8        10.9280   -2.0300    1.4100 C.ar   41  G41         0.1817
    741  N9        11.9700   -1.1420    1.3430 N.ar   41  G41        -0.2693
    742  OP1       12.1860   -6.5050    5.3930 O.3    41  G41        -0.4373
    743  OP2       10.1410   -5.8910    4.0050 O.co2  41  G41        -0.5172
    744  P         13.0500   -0.8530    6.5670 P.3    42  G42         0.2141
    745  C5'       13.0510    1.6460    5.7230 C.3    42  G42         0.1812
    746  O5'       12.3490    0.4150    5.8820 O.3    42  G42        -0.3114
    747  C4'       12.1680    2.6500    5.0130 C.3    42  G42         0.1773
    748  O4'       11.5420    2.0330    3.8630 O.3    42  G42        -0.3307
    749  C3'       11.0170    3.1380    5.8640 C.3    42  G42         0.1860
    750  O3'       11.4490    4.2550    6.6170 O.3    42  G42        -0.3112
    751  C2'        9.9590    3.5010    4.8250 C.3    42  G42         0.2309
    752  O2'       10.1290    4.7990    4.3010 O.3    42  G42        -0.2156
    753  C1'       10.2020    2.4670    3.7360 C.3    42  G42         0.2408
    754  N1         5.7020    0.5050    2.3470 N.ar   42  G42        -0.1709
    755  C2         6.2520    1.7310    2.0410 C.ar   42  G42         0.2606
    756  N2         5.5140    2.5440    1.2680 N.pl3  42  G42        -0.0859
    757  N3         7.4460    2.1300    2.4680 N.ar   42  G42        -0.1918
    758  C4         8.0600    1.1970    3.2340 C.ar   42  G42         0.1723
    759  C5         7.5950   -0.0500    3.5910 C.ar   42  G42         0.1748
    760  C6         6.3190   -0.4690    3.1340 C.ar   42  G42         0.3023
    761  O6         5.7410   -1.5450    3.3500 O.2    42  G42        -0.2633
    762  N7         8.5190   -0.7090    4.3870 N.ar   42  G42        -0.2173
    763  C8         9.5060    0.1400    4.4980 C.ar   42  G42         0.1817
    764  N9         9.3000    1.3170    3.8190 N.ar   42  G42        -0.2693
    765  OP1       14.0080   -0.3830    7.5990 O.3    42  G42        -0.4373
    766  OP2       11.9640   -1.7920    6.9350 O.co2  42  G42        -0.5172
    767  P         10.6650    4.6730    7.9380 P.3    43  A43         0.2141
    768  C5'        8.3310    5.8150    8.2650 C.3    43  A43         0.1812
    769  O5'        9.3950    5.4690    7.3900 O.3    43  A43        -0.3114
    770  C4'        7.1090    6.2900    7.4840 C.3    43  A43         0.1773
    771  O4'        6.7130    5.2860    6.5100 O.3    43  A43        -0.3307
    772  C3'        5.8590    6.5630    8.3120 C.3    43  A43         0.1860
    773  O3'        5.0710    7.5420    7.6780 O.3    43  A43        -0.3112
    774  C2'        5.1130    5.2350    8.2330 C.3    43  A43         0.2309
    775  O2'        3.7220    5.4140    8.4370 O.3    43  A43        -0.2156
    776  C1'        5.4010    4.8350    6.7850 C.3    43  A43         0.2408
    777  N1         6.8390   -0.0180    7.9780 N.ar   43  A43        -0.2040
    778  C2         7.1260    1.1600    8.5530 C.ar   43  A43         0.2016
    779  N3         6.7240    2.3880    8.2040 N.ar   43  A43        -0.2048
    780  C4         5.9310    2.3470    7.1220 C.ar   43  A43         0.1692
    781  C5         5.5500    1.2100    6.4240 C.ar   43  A43         0.1518
    782  C6         6.0380   -0.0240    6.8940 C.ar   43  A43         0.1919
    783  N6         5.7450   -1.1890    6.3180 N.pl3  43  A43        -0.1054
    784  N7         4.7310    1.5330    5.3590 N.ar   43  A43        -0.2193
    785  C8         4.6350    2.8400    5.4320 C.ar   43  A43         0.1816
    786  N9         5.3260    3.4030    6.4750 N.ar   43  A43        -0.2693
    787  OP1       11.5180    5.6410    8.6640 O.3    43  A43        -0.4373
    788  OP2       10.2170    3.4150    8.5870 O.co2  43  A43        -0.5172
    789  P          5.3000    9.1160    7.8190 P.3    44  C44         0.2141
    790  C5'        3.5210   10.6150    6.6170 C.3    44  C44         0.1812
    791  O5'        3.7980    9.5800    7.5160 O.3    44  C44        -0.3114
    792  C4'        2.2640   10.3280    5.8210 C.3    44  C44         0.1773
    793  O4'        2.3970    9.0870    5.0890 O.3    44  C44        -0.3307
    794  C3'        0.9870   10.0610    6.5950 C.3    44  C44         0.1860
    795  O3'        0.4820   11.2170    7.2440 O.3    44  C44        -0.3112
    796  C2'        0.1140    9.6080    5.4300 C.3    44  C44         0.2309
    797  O2'       -0.2930   10.6590    4.5720 O.3    44  C44        -0.2156
    798  C1'        1.0910    8.6840    4.7030 C.3    44  C44         0.2420
    799  N1         0.8790    7.2290    5.0020 N.ar   44  C44        -0.2535
    800  C2        -0.1780    6.5360    4.3800 C.ar   44  C44         0.3532
    801  O2        -0.9320    7.1250    3.5910 O.2    44  C44        -0.2443
    802  N3        -0.3560    5.2190    4.6650 N.ar   44  C44        -0.1739
    803  C4         0.4610    4.5990    5.5200 C.ar   44  C44         0.1759
    804  N4         0.2350    3.3050    5.7610 N.pl3  44  C44        -0.1070
    805  C5         1.5400    5.2790    6.1650 C.ar   44  C44         0.0566
    806  C6         1.7070    6.5780    5.8790 C.ar   44  C44         0.0850
    807  OP1        6.2380    9.5420    6.7510 O.2    44  C44        -0.5172
    808  OP2        5.6070    9.4580    9.2290 O.co2  44  C44        -0.4373
    809  P         -0.2690   11.0870    8.6640 P.3    45  G45         0.2141
    810  C5'       -2.6400   10.0760    8.8600 C.3    45  G45         0.1812
    811  O5'       -1.8170   11.0610    8.2800 O.3    45  G45        -0.3114
    812  C4'       -3.0660    9.0740    7.8080 C.3    45  G45         0.1773
    813  O4'       -1.9140    8.3450    7.3180 O.3    45  G45        -0.3307
    814  C3'       -4.0040    8.0030    8.3210 C.3    45  G45         0.1860
    815  O3'       -5.3300    8.4720    8.2510 O.3    45  G45        -0.3112
    816  C2'       -3.7510    6.8650    7.3460 C.3    45  G45         0.2309
    817  O2'       -4.4220    7.0630    6.1230 O.3    45  G45        -0.2156
    818  C1'       -2.2440    6.9800    7.1450 C.3    45  G45         0.2408
    819  N1        -1.1490    2.3620    9.0180 N.ar   45  G45        -0.1709
    820  C2        -2.0250    2.6990    8.0140 C.ar   45  G45         0.2606
    821  N2        -2.6970    1.7070    7.4240 N.pl3  45  G45        -0.0859
    822  N3        -2.2310    3.9400    7.6110 N.ar   45  G45        -0.1918
    823  C4        -1.4770    4.8440    8.2960 C.ar   45  G45         0.1723
    824  C5        -0.5820    4.6060    9.3100 C.ar   45  G45         0.1748
    825  C6        -0.3680    3.2750    9.7400 C.ar   45  G45         0.3023
    826  O6         0.4000    2.8810   10.6360 O.2    45  G45        -0.2633
    827  N7        -0.0170    5.7880    9.7550 N.ar   45  G45        -0.2173
    828  C8        -0.5680    6.7010    9.0160 C.ar   45  G45         0.1817
    829  N9        -1.4630    6.2080    8.1060 N.ar   45  G45        -0.2693
    830  OP1        0.0110   12.3520    9.3780 O.3    45  G45        -0.4373
    831  OP2        0.0550    9.7820    9.2920 O.co2  45  G45        -0.5172
    832  P         -6.3090    8.0960    9.4500 P.3    46  C46         0.2141
    833  C5'       -7.5060    6.1570    8.1830 C.3    46  C46         0.1812
    834  O5'       -6.5890    6.5540    9.1710 O.3    46  C46        -0.3114
    835  C4'       -7.4280    4.6510    8.0180 C.3    46  C46         0.1773
    836  O4'       -6.0380    4.2590    8.0420 O.3    46  C46        -0.3307
    837  C3'       -8.0250    3.8160    9.1390 C.3    46  C46         0.1860
    838  O3'       -9.4260    3.6970    9.0160 O.3    46  C46        -0.3112
    839  C2'       -7.3640    2.4810    8.8550 C.3    46  C46         0.2309
    840  O2'       -7.9620    1.8010    7.7720 O.3    46  C46        -0.2156
    841  C1'       -5.9560    2.9070    8.4650 C.3    46  C46         0.2420
    842  N1        -4.9710    2.7600    9.5780 N.ar   46  C46        -0.2535
    843  C2        -4.5680    1.4780    9.9770 C.ar   46  C46         0.3532
    844  O2        -5.0350    0.4870    9.3990 O.2    46  C46        -0.2443
    845  N3        -3.6660    1.3590   10.9930 N.ar   46  C46        -0.1739
    846  C4        -3.1820    2.4530   11.5930 C.ar   46  C46         0.1759
    847  N4        -2.3080    2.2900   12.5870 N.pl3  46  C46        -0.1070
    848  C5        -3.5760    3.7640   11.1950 C.ar   46  C46         0.0566
    849  C6        -4.4630    3.8670   10.1950 C.ar   46  C46         0.0850
    850  OP1       -7.5800    8.8480    9.3100 O.2    46  C46        -0.5172
    851  OP2       -5.4930    8.1850   10.6890 O.co2  46  C46        -0.4373
    852  P        -10.4360    4.3960   10.0490 P.3    47  A47         0.2141
    853  C5'      -10.5990    2.2560   11.5770 C.3    47  A47         0.1812
    854  O5'      -11.2290    3.1470   10.6710 O.3    47  A47        -0.3114
    855  C4'      -11.4840    1.0550   11.9060 C.3    47  A47         0.1773
    856  O4'      -10.7440    0.1280   12.7420 O.3    47  A47        -0.3307
    857  C3'      -12.7450    1.3090   12.7170 C.3    47  A47         0.1860
    858  O3'      -13.5980    0.1650   12.6320 O.3    47  A47        -0.3112
    859  C2'      -12.1370    1.4000   14.1140 C.3    47  A47         0.2309
    860  O2'      -13.1060    1.3200   15.1430 O.3    47  A47        -0.2156
    861  C1'      -11.2460    0.1610   14.0680 C.3    47  A47         0.2408
    862  N1        -7.6250   -2.8760   16.0300 N.ar   47  A47        -0.2040
    863  C2        -8.6640   -3.1160   15.2180 C.ar   47  A47         0.2016
    864  N3        -9.5710   -2.2600   14.7490 N.ar   47  A47        -0.2048
    865  C4        -9.3360   -1.0180   15.1990 C.ar   47  A47         0.1692
    866  C5        -8.3120   -0.6180   16.0350 C.ar   47  A47         0.1518
    867  C6        -7.4140   -1.6150   16.4600 C.ar   47  A47         0.1919
    868  N6        -6.3760   -1.3810   17.2660 N.pl3  47  A47        -0.1054
    869  N7        -8.3880    0.7410   16.2840 N.ar   47  A47        -0.2193
    870  C8        -9.4490    1.1260   15.6000 C.ar   47  A47         0.1816
    871  N9       -10.0730    0.1100   14.9320 N.ar   47  A47        -0.2693
    872  OP1      -11.4080    5.1860    9.2480 O.2    47  A47        -0.5172
    873  OP2       -9.6560    5.0530   11.1270 O.co2  47  A47        -0.4373
    874  P        -14.6980   -0.0580   11.4900 P.3    48  A48         0.2141
    875  C5'      -14.1340   -2.0190    9.8500 C.3    48  A48         0.1812
    876  O5'      -14.5100   -1.6010   11.1440 O.3    48  A48        -0.3114
    877  C4'      -12.6360   -2.2480    9.7790 C.3    48  A48         0.1773
    878  O4'      -12.2800   -3.5490   10.3380 O.3    48  A48        -0.3307
    879  C3'      -12.1100   -2.2800    8.3510 C.3    48  A48         0.1860
    880  O3'      -10.8080   -1.7230    8.2970 O.3    48  A48        -0.3112
    881  C2'      -12.0870   -3.7760    8.0770 C.3    48  A48         0.2309
    882  O2'      -11.2870   -4.1340    6.9700 O.3    48  A48        -0.2156
    883  C1'      -11.4690   -4.2230    9.3950 C.3    48  A48         0.2408
    884  N1        -8.7160   -8.5160   10.2350 N.ar   48  A48        -0.2040
    885  C2        -8.3470   -7.2280   10.1960 C.ar   48  A48         0.2016
    886  N3        -9.1190   -6.1570    9.9780 N.ar   48  A48        -0.2048
    887  C4       -10.4110   -6.5000    9.7890 C.ar   48  A48         0.1692
    888  C5       -10.9300   -7.7780    9.8030 C.ar   48  A48         0.1518
    889  C6       -10.0220   -8.8240   10.0450 C.ar   48  A48         0.1919
    890  N6       -10.4050  -10.1000   10.0920 N.pl3  48  A48        -0.1054
    891  N7       -12.2940   -7.7690    9.5740 N.ar   48  A48        -0.2193
    892  C8       -12.5740   -6.5010    9.4240 C.ar   48  A48         0.1816
    893  N9       -11.4860   -5.6750    9.5430 N.ar   48  A48        -0.2693
    894  OP1      -14.3640    0.7860   10.3210 O.2    48  A48        -0.5172
    895  OP2      -16.0320    0.0390   12.1090 O.co2  48  A48        -0.4373
    896  P        -10.5560   -0.4450    7.3860 P.3    49  A49         0.2141
    897  C5'       -9.0710   -2.0690    5.9740 C.3    49  A49         0.1812
    898  O5'       -9.2200   -0.8180    6.6090 O.3    49  A49        -0.3114
    899  C4'       -7.6530   -2.1610    5.4610 C.3    49  A49         0.1773
    900  O4'       -7.4350   -1.0550    4.5500 O.3    49  A49        -0.3307
    901  C3'       -6.5800   -2.0600    6.5300 C.3    49  A49         0.1860
    902  O3'       -5.5350   -2.9610    6.2220 O.3    49  A49        -0.3112
    903  C2'       -6.1210   -0.6010    6.4640 C.3    49  A49         0.2309
    904  O2'       -4.7400   -0.4810    6.7380 O.3    49  A49        -0.2156
    905  C1'       -6.4220   -0.1910    5.0210 C.3    49  A49         0.2408
    906  N1        -5.3710    4.9030    4.9190 N.ar   49  A49        -0.2040
    907  C2        -4.6050    3.8400    5.2250 C.ar   49  A49         0.2016
    908  N3        -4.9260    2.5370    5.2390 N.ar   49  A49        -0.2048
    909  C4        -6.2130    2.3640    4.8930 C.ar   49  A49         0.1692
    910  C5        -7.1210    3.3620    4.5610 C.ar   49  A49         0.1518
    911  C6        -6.6610    4.6890    4.5800 C.ar   49  A49         0.1919
    912  N6        -7.4360    5.7310    4.2850 N.pl3  49  A49        -0.1054
    913  N7        -8.3510    2.8330    4.2520 N.ar   49  A49        -0.2193
    914  C8        -8.1710    1.5370    4.3990 C.ar   49  A49         0.1816
    915  N9        -6.9060    1.1790    4.7960 N.ar   49  A49        -0.2693
    916  OP1      -10.2420    0.7000    8.2730 O.3    49  A49        -0.4373
    917  OP2      -11.6700   -0.3740    6.4040 O.co2  49  A49        -0.5172
    918  P         -5.3350   -4.3400    7.0250 P.3    50  G50         0.2141
    919  C5'       -6.7010   -5.9020    5.4960 C.3    50  G50         0.1812
    920  O5'       -6.6570   -5.1510    6.6700 O.3    50  G50        -0.3114
    921  C4'       -6.9330   -7.3560    5.8240 C.3    50  G50         0.1773
    922  O4'       -7.9390   -7.4780    6.8560 O.3    50  G50        -0.3307
    923  C3'       -7.5300   -8.1590    4.6890 C.3    50  G50         0.1860
    924  O3'       -6.5050   -8.4710    3.7430 O.3    50  G50        -0.3112
    925  C2'       -8.0440   -9.3710    5.4670 C.3    50  G50         0.2309
    926  O2'       -7.0060  -10.2320    5.8980 O.3    50  G50        -0.2156
    927  C1'       -8.6690   -8.6770    6.6750 C.3    50  G50         0.2408
    928  N1       -13.4690  -10.2350    5.8490 N.ar   50  G50        -0.1709
    929  C2       -12.3310  -10.9910    5.9650 C.ar   50  G50         0.2606
    930  N2       -12.4870  -12.3120    5.8460 N.pl3  50  G50        -0.0859
    931  N3       -11.1250  -10.4860    6.1850 N.ar   50  G50        -0.1918
    932  C4       -11.1470   -9.1320    6.2770 C.ar   50  G50         0.1723
    933  C5       -12.2330   -8.2930    6.1740 C.ar   50  G50         0.1748
    934  C6       -13.5060   -8.8470    5.9450 C.ar   50  G50         0.3023
    935  O6       -14.5770   -8.2450    5.8270 O.2    50  G50        -0.2633
    936  N7       -11.8630   -6.9680    6.3190 N.ar   50  G50        -0.2173
    937  C8       -10.5730   -7.0270    6.5090 C.ar   50  G50         0.1817
    938  N9       -10.0660   -8.3040    6.4970 N.ar   50  G50        -0.2693
    939  OP1       -5.3470   -4.0310    8.4700 O.3    50  G50        -0.4373
    940  OP2       -4.1650   -5.0540    6.4550 O.co2  50  G50        -0.5172
    941  P         -6.6710   -8.1180    2.1880 P.3    51  C51         0.2141
    942  C5'       -7.4500  -10.5990    1.8580 C.3    51  C51         0.1812
    943  O5'       -7.7200   -9.2160    1.6860 O.3    51  C51        -0.3114
    944  C4'       -8.7030  -11.4220    1.6470 C.3    51  C51         0.1773
    945  O4'       -9.5950  -11.2280    2.7710 O.3    51  C51        -0.3307
    946  C3'       -9.5640  -11.0370    0.4520 C.3    51  C51         0.1860
    947  O3'       -9.0370  -11.5540   -0.7650 O.3    51  C51        -0.3112
    948  C2'      -10.8720  -11.7030    0.8500 C.3    51  C51         0.2309
    949  O2'      -10.8200  -13.1120    0.7650 O.3    51  C51        -0.2156
    950  C1'      -10.9420  -11.2890    2.3140 C.3    51  C51         0.2420
    951  N1       -11.6530   -9.9760    2.5290 N.ar   51  C51        -0.2535
    952  C2       -13.0500   -9.9110    2.4530 C.ar   51  C51         0.3532
    953  O2       -13.6920  -10.9380    2.2110 O.2    51  C51        -0.2443
    954  N3       -13.6680   -8.7140    2.6460 N.ar   51  C51        -0.1739
    955  C4       -12.9480   -7.6200    2.9050 C.ar   51  C51         0.1759
    956  N4       -13.5830   -6.4640    3.0960 N.pl3  51  C51        -0.1070
    957  C5       -11.5340   -7.6650    2.9910 C.ar   51  C51         0.0566
    958  C6       -10.9380   -8.8470    2.7990 C.ar   51  C51         0.0850
    959  OP1       -5.3480   -8.3870    1.5960 O.2    51  C51        -0.5172
    960  OP2       -7.3140   -6.7940    2.0250 O.co2  51  C51        -0.4373
    961  P         -9.2040  -10.7470   -2.1430 P.3    52  C52         0.2141
    962  C5'      -11.1690  -12.2070   -3.0560 C.3    52  C52         0.1812
    963  O5'      -10.7540  -10.9750   -2.4870 O.3    52  C52        -0.3114
    964  C4'      -12.6810  -12.2950   -3.1110 C.3    52  C52         0.1773
    965  O4'      -13.2530  -11.7540   -1.8970 O.3    52  C52        -0.3307
    966  C3'      -13.3470  -11.4860   -4.2060 C.3    52  C52         0.1860
    967  O3'      -13.2810  -12.2090   -5.4150 O.3    52  C52        -0.3112
    968  C2'      -14.7720  -11.3800   -3.6770 C.3    52  C52         0.2309
    969  O2'      -15.5330  -12.5470   -3.9150 O.3    52  C52        -0.2156
    970  C1'      -14.5390  -11.2300   -2.1740 C.3    52  C52         0.2420
    971  N1       -14.6030   -9.8200   -1.6440 N.ar   52  C52        -0.2535
    972  C2       -15.8360   -9.1490   -1.5260 C.ar   52  C52         0.3532
    973  O2       -16.8890   -9.7070   -1.8690 O.2    52  C52        -0.2443
    974  N3       -15.8460   -7.8810   -1.0320 N.ar   52  C52        -0.1739
    975  C4       -14.7110   -7.2800   -0.6620 C.ar   52  C52         0.1759
    976  N4       -14.7890   -6.0310   -0.1840 N.pl3  52  C52        -0.1070
    977  C5       -13.4530   -7.9410   -0.7680 C.ar   52  C52         0.0566
    978  C6       -13.4490   -9.1920   -1.2550 C.ar   52  C52         0.0850
    979  OP1       -8.3630  -11.4360   -3.1440 O.2    52  C52        -0.5172
    980  OP2       -9.0040   -9.3030   -1.8870 O.co2  52  C52        -0.4373
    981  P        -12.6490  -11.5370   -6.7240 P.3    53  U53         0.2141
    982  C5'      -14.1290   -9.8920   -8.1250 C.3    53  U53         0.1812
    983  O5'      -13.9790  -11.1620   -7.5300 O.3    53  U53        -0.3114
    984  C4'      -15.5830   -9.4460   -8.1000 C.3    53  U53         0.1773
    985  O4'      -15.7250   -8.2410   -7.3020 O.3    53  U53        -0.3307
    986  C3'      -16.1570   -9.0560   -9.4530 C.3    53  U53         0.1860
    987  O3'      -17.5700   -9.1610   -9.3900 O.3    53  U53        -0.3112
    988  C2'      -15.7000   -7.6040   -9.5890 C.3    53  U53         0.2309
    989  O2'      -16.5360   -6.8600  -10.4430 O.3    53  U53        -0.2156
    990  C1'      -15.8230   -7.1020   -8.1460 C.3    53  U53         0.2420
    991  N1       -14.7720   -6.1250   -7.7050 N.ar   53  U53        -0.2534
    992  C2       -15.1530   -4.9340   -7.1020 C.ar   53  U53         0.3546
    993  O2       -16.3090   -4.6070   -6.9100 O.2    53  U53        -0.2443
    994  N3       -14.1210   -4.1100   -6.7220 N.ar   53  U53        -0.1530
    995  C4       -12.7670   -4.3530   -6.8770 C.ar   53  U53         0.2846
    996  O4       -11.9510   -3.5200   -6.4890 O.2    53  U53        -0.2650
    997  C5       -12.4460   -5.6120   -7.5070 C.ar   53  U53         0.0814
    998  C6       -13.4360   -6.4300   -7.8890 C.ar   53  U53         0.0870
    999  OP1      -11.9120  -12.5750   -7.4860 O.2    53  U53        -0.5172
   1000  OP2      -11.9430  -10.2970   -6.3260 O.co2  53  U53        -0.4373
   1001  P        -18.3590  -10.1490  -10.3650 P.3    54  C54         0.2141
   1002  C5'      -20.9620  -10.5700  -10.1770 C.3    54  C54         0.1812
   1003  O5'      -19.6950  -10.4340   -9.5260 O.3    54  C54        -0.3114
   1004  C4'      -22.0880   -9.9390   -9.3710 C.3    54  C54         0.1773
   1005  O4'      -21.8480  -10.0960   -7.9480 O.3    54  C54        -0.3307
   1006  C3'      -22.2510   -8.4390   -9.5570 C.3    54  C54         0.1860
   1007  O3'      -23.0130   -8.1680  -10.7250 O.3    54  C54        -0.3112
   1008  C2'      -22.9900   -8.0420   -8.2830 C.3    54  C54         0.2309
   1009  O2'      -24.3840   -8.2740   -8.3450 O.3    54  C54        -0.2156
   1010  C1'      -22.3510   -8.9680   -7.2490 C.3    54  C54         0.2420
   1011  N1       -21.2410   -8.3160   -6.4740 N.ar   54  C54        -0.2535
   1012  C2       -21.5400   -7.3290   -5.5100 C.ar   54  C54         0.3532
   1013  O2       -22.7190   -7.0000   -5.3010 O.2    54  C54        -0.2443
   1014  N3       -20.5130   -6.7530   -4.8230 N.ar   54  C54        -0.1739
   1015  C4       -19.2530   -7.1280   -5.0650 C.ar   54  C54         0.1759
   1016  N4       -18.2830   -6.5350   -4.3670 N.pl3  54  C54        -0.1070
   1017  C5       -18.9280   -8.1250   -6.0360 C.ar   54  C54         0.0566
   1018  C6       -19.9410   -8.6840   -6.7080 C.ar   54  C54         0.0850
   1019  OP1      -17.5960  -11.4100  -10.4870 O.3    54  C54        -0.4373
   1020  OP2      -18.7090   -9.3680  -11.5740 O.co2  54  C54        -0.5172
   1021  P        -22.4950   -7.0980  -11.8000 P.3    55  C55         0.2141
   1022  C5'      -24.4460   -5.6270  -10.7570 C.3    55  C55         0.1812
   1023  O5'      -23.1250   -5.7040  -11.3040 O.3    55  C55        -0.3114
   1024  C4'      -24.7050   -4.3100  -10.0390 C.3    55  C55         0.1773
   1025  O4'      -24.3270   -4.4010   -8.6380 O.3    55  C55        -0.3307
   1026  C3'      -23.9120   -3.1000  -10.5130 C.3    55  C55         0.1860
   1027  O3'      -24.3940   -2.5850  -11.7400 O.3    55  C55        -0.3112
   1028  C2'      -24.1680   -2.1520   -9.3470 C.3    55  C55         0.2309
   1029  O2'      -25.4640   -1.5810   -9.3600 O.3    55  C55        -0.2156
   1030  C1'      -23.9790   -3.1050   -8.1670 C.3    55  C55         0.2420
   1031  N1       -22.5540   -3.0580   -7.6480 N.ar   55  C55        -0.2535
   1032  C2       -22.1690   -2.0450   -6.7430 C.ar   55  C55         0.3532
   1033  O2       -22.9980   -1.2110   -6.3580 O.2    55  C55        -0.2443
   1034  N3       -20.8850   -2.0020   -6.2970 N.ar   55  C55        -0.1739
   1035  C4       -20.0000   -2.9100   -6.7180 C.ar   55  C55         0.1759
   1036  N4       -18.7540   -2.8270   -6.2440 N.pl3  55  C55        -0.1070
   1037  C5       -20.3590   -3.9430   -7.6410 C.ar   55  C55         0.0566
   1038  C6       -21.6280   -3.9760   -8.0750 C.ar   55  C55         0.0850
   1039  OP1      -23.0940   -7.4820  -13.0980 O.2    55  C55        -0.5172
   1040  OP2      -21.0190   -6.9800  -11.6760 O.co2  55  C55        -0.4373
   1041  P        -23.4930   -1.5770  -12.6040 P.3    56  G56         0.2141
   1042  C5'      -24.2460    0.7610  -11.6820 C.3    56  G56         0.1812
   1043  O5'      -23.3060   -0.3010  -11.6530 O.3    56  G56        -0.3114
   1044  C4'      -23.7630    1.9520  -10.8750 C.3    56  G56         0.1773
   1045  O4'      -23.4540    1.5560   -9.5100 O.3    56  G56        -0.3307
   1046  C3'      -22.4670    2.5830  -11.3520 C.3    56  G56         0.1860
   1047  O3'      -22.6540    3.4130  -12.4890 O.3    56  G56        -0.3112
   1048  C2'      -22.0820    3.3690  -10.1070 C.3    56  G56         0.2309
   1049  O2'      -22.8470    4.5430   -9.9340 O.3    56  G56        -0.2156
   1050  C1'      -22.3690    2.3330   -9.0230 C.3    56  G56         0.2408
   1051  N1       -17.6470    2.0410   -7.1010 N.ar   56  G56        -0.1709
   1052  C2       -18.5430    3.0820   -7.0560 C.ar   56  G56         0.2606
   1053  N2       -18.1340    4.1890   -6.4240 N.pl3  56  G56        -0.0859
   1054  N3       -19.7570    3.0400   -7.5940 N.ar   56  G56        -0.1918
   1055  C4       -20.0140    1.8500   -8.1930 C.ar   56  G56         0.1723
   1056  C5       -19.1880    0.7520   -8.2920 C.ar   56  G56         0.1748
   1057  C6       -17.8940    0.8120   -7.7150 C.ar   56  G56         0.3023
   1058  O6       -17.0230   -0.0680   -7.7060 O.2    56  G56        -0.2633
   1059  N7       -19.8100   -0.2770   -8.9860 N.ar   56  G56        -0.2173
   1060  C8       -20.9820    0.2070   -9.2850 C.ar   56  G56         0.1817
   1061  N9       -21.1840    1.4930   -8.8290 N.ar   56  G56        -0.2693
   1062  OP1      -24.2900   -1.2060  -13.7950 O.2    56  G56        -0.5172
   1063  OP2      -22.1550   -2.1830  -12.7910 O.co2  56  G56        -0.4373
   1064  P        -21.5060    3.4720  -13.6090 P.3    57  G57         0.2141
   1065  C5'      -20.5570    5.6320  -12.4040 C.3    57  G57         0.1812
   1066  O5'      -20.3300    4.3030  -12.8990 O.3    57  G57        -0.3114
   1067  C4'      -19.4810    6.0820  -11.4230 C.3    57  G57         0.1773
   1068  O4'      -19.2600    5.0960  -10.3780 O.3    57  G57        -0.3307
   1069  C3'      -18.0970    6.2700  -12.0230 C.3    57  G57         0.1860
   1070  O3'      -18.0090    7.5040  -12.7210 O.3    57  G57        -0.3112
   1071  C2'      -17.2230    6.2380  -10.7740 C.3    57  G57         0.2309
   1072  O2'      -17.2510    7.4480  -10.0420 O.3    57  G57        -0.2156
   1073  C1'      -17.8960    5.1220   -9.9780 C.3    57  G57         0.2408
   1074  N1       -13.7410    2.2080   -9.3420 N.ar   57  G57        -0.1709
   1075  C2       -13.9370    3.5330   -9.0150 C.ar   57  G57         0.2606
   1076  N2       -12.9080    4.1750   -8.4420 N.pl3  57  G57        -0.0859
   1077  N3       -15.0700    4.1870   -9.2340 N.ar   57  G57        -0.1918
   1078  C4       -16.0130    3.4040   -9.8170 C.ar   57  G57         0.1723
   1079  C5       -15.9110    2.0750  -10.1830 C.ar   57  G57         0.1748
   1080  C6       -14.6960    1.3830   -9.9420 C.ar   57  G57         0.3023
   1081  O6       -14.4170    0.2010  -10.2020 O.2    57  G57        -0.2633
   1082  N7       -17.0940    1.6300  -10.7550 N.ar   57  G57        -0.2173
   1083  C8       -17.8730    2.6790  -10.7220 C.ar   57  G57         0.1817
   1084  N9       -17.2890    3.7970  -10.1680 N.ar   57  G57        -0.2693
   1085  OP1      -22.0220    4.2590  -14.7520 O.2    57  G57        -0.5172
   1086  OP2      -21.0180    2.0910  -13.8270 O.co2  57  G57        -0.4373
   1087  P        -17.2900    7.5380  -14.1480 P.3    58  C58         0.2141
   1088  C5'      -15.1000    8.4250  -13.0520 C.3    58  C58         0.1812
   1089  O5'      -15.7500    7.3860  -13.7610 O.3    58  C58        -0.3114
   1090  C4'      -13.8180    7.9050  -12.4430 C.3    58  C58         0.1773
   1091  O4'      -14.0910    6.7200  -11.6560 O.3    58  C58        -0.3307
   1092  C3'      -12.7920    7.4200  -13.4490 C.3    58  C58         0.1860
   1093  O3'      -12.0960    8.5160  -14.0160 O.3    58  C58        -0.3112
   1094  C2'      -11.9130    6.5510  -12.5580 C.3    58  C58         0.2309
   1095  O2'      -11.0640    7.3090  -11.7180 O.3    58  C58        -0.2156
   1096  C1'      -12.9710    5.8500  -11.7140 C.3    58  C58         0.2420
   1097  N1       -13.3920    4.5060  -12.2360 N.ar   58  C58        -0.2535
   1098  C2       -12.5710    3.3890  -12.0230 C.ar   58  C58         0.3532
   1099  O2       -11.5080    3.5290  -11.4150 O.2    58  C58        -0.2443
   1100  N3       -12.9640    2.1750  -12.4880 N.ar   58  C58        -0.1739
   1101  C4       -14.1260    2.0510  -13.1420 C.ar   58  C58         0.1759
   1102  N4       -14.4770    0.8400  -13.5890 N.pl3  58  C58        -0.1070
   1103  C5       -14.9800    3.1740  -13.3680 C.ar   58  C58         0.0566
   1104  C6       -14.5780    4.3650  -12.9030 C.ar   58  C58         0.0850
   1105  OP1      -17.4990    8.8820  -14.7340 O.3    58  C58        -0.4373
   1106  OP2      -17.6760    6.3220  -14.9010 O.co2  58  C58        -0.5172
   1107  P        -11.6300    8.4330  -15.5440 P.3    59  C59         0.2141
   1108  C5'       -9.2220    7.7360  -14.8100 C.3    59  C59         0.1812
   1109  O5'      -10.4240    7.3830  -15.4790 O.3    59  C59        -0.3114
   1110  C4'       -8.3170    6.5310  -14.6730 C.3    59  C59         0.1773
   1111  O4'       -9.0230    5.4630  -14.0050 O.3    59  C59        -0.3307
   1112  C3'       -7.9050    5.8570  -15.9700 C.3    59  C59         0.1860
   1113  O3'       -6.9050    6.5940  -16.6460 O.3    59  C59        -0.3112
   1114  C2'       -7.3790    4.5350  -15.4360 C.3    59  C59         0.2309
   1115  O2'       -6.1190    4.6720  -14.8130 O.3    59  C59        -0.2156
   1116  C1'       -8.4400    4.2260  -14.3840 C.3    59  C59         0.2420
   1117  N1        -9.5210    3.3080  -14.8460 N.ar   59  C59        -0.2535
   1118  C2        -9.2420    1.9540  -15.1060 C.ar   59  C59         0.3532
   1119  O2        -8.0920    1.5170  -14.9620 O.2    59  C59        -0.2443
   1120  N3       -10.2560    1.1490  -15.5190 N.ar   59  C59        -0.1739
   1121  C4       -11.4890    1.6440  -15.6690 C.ar   59  C59         0.1759
   1122  N4       -12.4510    0.8100  -16.0710 N.pl3  59  C59        -0.1070
   1123  C5       -11.7940    3.0140  -15.4140 C.ar   59  C59         0.0566
   1124  C6       -10.7900    3.7970  -15.0050 C.ar   59  C59         0.0850
   1125  OP1      -11.1020    9.7660  -15.9220 O.3    59  C59        -0.4373
   1126  OP2      -12.7210    7.8200  -16.3410 O.co2  59  C59        -0.5172
   1127  P         -6.9390    6.6620  -18.2430 P.3    60  U60         0.2141
   1128  C5'       -5.0180    4.9040  -18.5120 C.3    60  U60         0.1812
   1129  O5'       -6.3960    5.2200  -18.6750 O.3    60  U60        -0.3114
   1130  C4'       -4.7770    3.4390  -18.8130 C.3    60  U60         0.1773
   1131  O4'       -5.7640    2.6280  -18.1380 O.3    60  U60        -0.3307
   1132  C3'       -4.9550    3.0260  -20.2630 C.3    60  U60         0.1860
   1133  O3'       -3.8110    3.4020  -21.0290 O.3    60  U60        -0.3112
   1134  C2'       -5.1160    1.5140  -20.1270 C.3    60  U60         0.2309
   1135  O2'       -3.8900    0.8510  -19.9210 O.3    60  U60        -0.2156
   1136  C1'       -5.9270    1.4120  -18.8490 C.3    60  U60         0.2420
   1137  N1        -7.3820    1.1340  -19.0250 N.ar   60  U60        -0.2534
   1138  C2        -7.7940   -0.1560  -19.3200 C.ar   60  U60         0.3546
   1139  O2        -7.0310   -1.1000  -19.4790 O.2    60  U60        -0.2443
   1140  N3        -9.1530   -0.3100  -19.4360 N.ar   60  U60        -0.1530
   1141  C4       -10.1190    0.6700  -19.2880 C.ar   60  U60         0.2846
   1142  O4       -11.3040    0.3730  -19.4250 O.2    60  U60        -0.2650
   1143  C5        -9.6160    1.9860  -18.9730 C.ar   60  U60         0.0814
   1144  C6        -8.2940    2.1620  -18.8540 C.ar   60  U60         0.0870
   1145  OP1       -5.9630    7.6970  -18.6550 O.3    60  U60        -0.4373
   1146  OP2       -8.3520    6.7600  -18.6850 O.co2  60  U60        -0.5172
   1147  P         -3.9840    4.0320  -22.4960 P.3    61  A61         0.2141
   1148  C5'       -3.5510    1.7130  -23.6110 C.3    61  A61         0.1812
   1149  O5'       -4.4510    2.7770  -23.3570 O.3    61  A61        -0.3114
   1150  C4'       -4.3470    0.5480  -24.1520 C.3    61  A61         0.1773
   1151  O4'       -5.5100    0.3520  -23.3130 O.3    61  A61        -0.3307
   1152  C3'       -4.8720    0.7750  -25.5660 C.3    61  A61         0.1860
   1153  O3'       -4.1910   -0.0780  -26.4690 O.3    61  A61        -0.3112
   1154  C2'       -6.3680    0.4690  -25.5030 C.3    61  A61         0.2309
   1155  O2'       -6.7780   -0.4410  -26.5080 O.3    61  A61        -0.2156
   1156  C1'       -6.5550   -0.1420  -24.1140 C.3    61  A61         0.2408
   1157  N1       -11.3130   -1.6790  -22.9410 N.ar   61  A61        -0.2040
   1158  C2       -10.2830   -2.3240  -23.5100 C.ar   61  A61         0.2016
   1159  N3        -9.0610   -1.8600  -23.7810 N.ar   61  A61        -0.2048
   1160  C4        -8.9430   -0.5700  -23.4050 C.ar   61  A61         0.1692
   1161  C5        -9.9120    0.2220  -22.8110 C.ar   61  A61         0.1518
   1162  C6       -11.1600   -0.3860  -22.5720 C.ar   61  A61         0.1919
   1163  N6       -12.1860    0.2550  -22.0070 N.pl3  61  A61        -0.1054
   1164  N7        -9.4330    1.4980  -22.5640 N.ar   61  A61        -0.2193
   1165  C8        -8.1970    1.4510  -23.0100 C.ar   61  A61         0.1816
   1166  N9        -7.8360    0.2330  -23.5260 N.ar   61  A61        -0.2693
   1167  OP1       -2.6400    4.4640  -22.9440 O.2    61  A61        -0.5172
   1168  OP2       -5.1070    4.9970  -22.4780 O.co2  61  A61        -0.4373
   1169  P         -2.9640    0.5120  -27.3080 P.3    62  A62         0.2141
   1170  C5'       -1.5110   -1.1850  -28.6510 C.3    62  A62         0.1812
   1171  O5'       -2.7840   -0.5900  -28.4530 O.3    62  A62        -0.3114
   1172  C4'       -1.4480   -2.5740  -28.0500 C.3    62  A62         0.1773
   1173  O4'       -2.0540   -2.6200  -26.7390 O.3    62  A62        -0.3307
   1174  C3'       -2.2840   -3.6290  -28.7420 C.3    62  A62         0.1860
   1175  O3'       -1.8120   -3.9290  -30.0480 O.3    62  A62        -0.3112
   1176  C2'       -2.1460   -4.7740  -27.7410 C.3    62  A62         0.2309
   1177  O2'       -0.9040   -5.4470  -27.7670 O.3    62  A62        -0.2156
   1178  C1'       -2.2630   -3.9950  -26.4340 C.3    62  A62         0.2408
   1179  N1        -5.4870   -7.4170  -24.3480 N.ar   62  A62        -0.2040
   1180  C2        -4.2780   -7.5590  -24.9120 C.ar   62  A62         0.2016
   1181  N3        -3.4920   -6.6150  -25.4370 N.ar   62  A62        -0.2048
   1182  C4        -4.0650   -5.3980  -25.3470 C.ar   62  A62         0.1692
   1183  C5        -5.2960   -5.0980  -24.7960 C.ar   62  A62         0.1518
   1184  C6        -6.0340   -6.1810  -24.2710 C.ar   62  A62         0.1919
   1185  N6        -7.2350   -6.0400  -23.7060 N.pl3  62  A62        -0.1054
   1186  N7        -5.5540   -3.7410  -24.8760 N.ar   62  A62        -0.2193
   1187  C8        -4.4910   -3.2540  -25.4700 C.ar   62  A62         0.1816
   1188  N9        -3.5530   -4.1970  -25.7800 N.ar   62  A62        -0.2693
   1189  OP1       -1.7570    0.5020  -26.4440 O.3    62  A62        -0.4373
   1190  OP2       -3.4180    1.7780  -27.9350 O.co2  62  A62        -0.5172
   1191  P         -2.8850   -3.9820  -31.2370 P.3    63  A63         0.2141
   1192  C5'       -2.8220   -6.5950  -31.0630 C.3    63  A63         0.1812
   1193  O5'       -3.5810   -5.3950  -30.9710 O.3    63  A63        -0.3114
   1194  C4'       -3.6460   -7.7610  -30.5570 C.3    63  A63         0.1773
   1195  O4'       -3.9320   -7.5570  -29.1510 O.3    63  A63        -0.3307
   1196  C3'       -5.0170   -7.9030  -31.2040 C.3    63  A63         0.1860
   1197  O3'       -4.9300   -8.6280  -32.4230 O.3    63  A63        -0.3112
   1198  C2'       -5.7940   -8.6550  -30.1290 C.3    63  A63         0.2309
   1199  O2'       -5.5540  -10.0490  -30.1450 O.3    63  A63        -0.2156
   1200  C1'       -5.2390   -8.0190  -28.8550 C.3    63  A63         0.2408
   1201  N1        -9.3420   -6.5780  -26.0930 N.ar   63  A63        -0.2040
   1202  C2        -8.8150   -7.7840  -26.3450 C.ar   63  A63         0.2016
   1203  N3        -7.7390   -8.0830  -27.0750 N.ar   63  A63        -0.2048
   1204  C4        -7.1710   -6.9760  -27.5870 C.ar   63  A63         0.1692
   1205  C5        -7.5970   -5.6710  -27.4160 C.ar   63  A63         0.1518
   1206  C6        -8.7470   -5.4820  -26.6190 C.ar   63  A63         0.1919
   1207  N6        -9.2710   -4.2760  -26.3680 N.pl3  63  A63        -0.1054
   1208  N7        -6.7690   -4.7880  -28.0890 N.ar   63  A63        -0.2193
   1209  C8        -5.8720   -5.5670  -28.6470 C.ar   63  A63         0.1816
   1210  N9        -6.0530   -6.9000  -28.3830 N.ar   63  A63        -0.2693
   1211  OP1       -2.1430   -4.0220  -32.5190 O.2    63  A63        -0.5172
   1212  OP2       -3.9090   -2.9330  -31.0110 O.co2  63  A63        -0.4373
   1213  P         -5.9070   -8.2830  -33.6480 P.3    64  C64         0.2141
   1214  C5'       -7.5200  -10.3130  -33.3350 C.3    64  C64         0.1812
   1215  O5'       -7.2990   -8.9170  -33.1730 O.3    64  C64        -0.3114
   1216  C4'       -8.8120  -10.7630  -32.6830 C.3    64  C64         0.1773
   1217  O4'       -8.8020  -10.4060  -31.2780 O.3    64  C64        -0.3307
   1218  C3'      -10.0800  -10.1190  -33.2240 C.3    64  C64         0.1860
   1219  O3'      -10.5080  -10.7840  -34.3940 O.3    64  C64        -0.3112
   1220  C2'      -11.0340  -10.3160  -32.0510 C.3    64  C64         0.2309
   1221  O2'      -11.5610  -11.6280  -31.9650 O.3    64  C64        -0.2156
   1222  C1'      -10.1040  -10.0180  -30.8740 C.3    64  C64         0.2420
   1223  N1       -10.0940   -8.5670  -30.4730 N.ar   64  C64        -0.2535
   1224  C2       -11.1250   -8.0670  -29.6670 C.ar   64  C64         0.3532
   1225  O2       -12.0260   -8.8280  -29.2900 O.2    64  C64        -0.2443
   1226  N3       -11.1080   -6.7500  -29.3190 N.ar   64  C64        -0.1739
   1227  C4       -10.1190   -5.9530  -29.7390 C.ar   64  C64         0.1759
   1228  N4       -10.1450   -4.6720  -29.3670 N.pl3  64  C64        -0.1070
   1229  C5        -9.0600   -6.4360  -30.5600 C.ar   64  C64         0.0566
   1230  C6        -9.0930   -7.7300  -30.8970 C.ar   64  C64         0.0850
   1231  OP1       -5.4040   -9.0260  -34.8280 O.2    64  C64        -0.5172
   1232  OP2       -6.0780   -6.8140  -33.7320 O.co2  64  C64        -0.4373
   1233  P        -10.8340   -9.9380  -35.7120 P.3    65  C65         0.2141
   1234  C5'      -13.3760  -10.2920  -35.2850 C.3    65  C65         0.1812
   1235  O5'      -12.2900   -9.3780  -35.3580 O.3    65  C65        -0.3114
   1236  C4'      -14.4990   -9.7810  -34.4030 C.3    65  C65         0.1773
   1237  O4'      -14.0090   -9.4540  -33.0760 O.3    65  C65        -0.3307
   1238  C3'      -15.1500   -8.4730  -34.8230 C.3    65  C65         0.1860
   1239  O3'      -15.9560   -8.5960  -35.9870 O.3    65  C65        -0.3112
   1240  C2'      -15.9350   -8.1800  -33.5510 C.3    65  C65         0.2309
   1241  O2'      -17.0100   -9.0750  -33.3440 O.3    65  C65        -0.2156
   1242  C1'      -14.8250   -8.4260  -32.5280 C.3    65  C65         0.2420
   1243  N1       -14.0200   -7.1740  -32.2550 N.ar   65  C65        -0.2535
   1244  C2       -14.4600   -6.2710  -31.2730 C.ar   65  C65         0.3532
   1245  O2       -15.4870   -6.5160  -30.6320 O.2    65  C65        -0.2443
   1246  N3       -13.7390   -5.1440  -31.0410 N.ar   65  C65        -0.1739
   1247  C4       -12.6300   -4.8980  -31.7450 C.ar   65  C65         0.1759
   1248  N4       -11.9610   -3.7730  -31.4810 N.pl3  65  C65        -0.1070
   1249  C5       -12.1600   -5.7940  -32.7540 C.ar   65  C65         0.0566
   1250  C6       -12.8800   -6.9030  -32.9720 C.ar   65  C65         0.0850
   1251  OP1      -10.9190  -10.8860  -36.8460 O.2    65  C65        -0.5172
   1252  OP2       -9.9040   -8.7920  -35.8100 O.co2  65  C65        -0.4373
   1253  P        -16.5490    4.8730  -25.6170 P.3    75  G75         0.2141
   1254  C5'      -18.7580    3.4660  -25.8910 C.3    75  G75         0.1812
   1255  O5'      -17.3430    3.4830  -25.7170 O.3    75  G75        -0.3114
   1256  C4'      -19.2440    2.2310  -26.6240 C.3    75  G75         0.1773
   1257  O4'      -18.6230    2.1600  -27.9320 O.3    75  G75        -0.3307
   1258  C3'      -18.8900    0.9110  -25.9600 C.3    75  G75         0.1860
   1259  O3'      -19.8370    0.5740  -24.9620 O.3    75  G75        -0.3112
   1260  C2'      -18.9380   -0.0510  -27.1400 C.3    75  G75         0.2309
   1261  O2'      -20.2400   -0.5010  -27.4610 O.3    75  G75        -0.2156
   1262  C1'      -18.3570    0.8060  -28.2590 C.3    75  G75         0.2408
   1263  N1       -14.6150   -2.3630  -29.7070 N.ar   75  G75        -0.1709
   1264  C2       -15.9790   -2.5540  -29.7500 C.ar   75  G75         0.2606
   1265  N2       -16.4090   -3.7270  -30.2350 N.pl3  75  G75        -0.0859
   1266  N3       -16.8640   -1.6500  -29.3440 N.ar   75  G75        -0.1918
   1267  C4       -16.2730   -0.5160  -28.8800 C.ar   75  G75         0.1723
   1268  C5       -14.9280   -0.2350  -28.7940 C.ar   75  G75         0.1748
   1269  C6       -13.9940   -1.2040  -29.2320 C.ar   75  G75         0.3023
   1270  O6       -12.7590   -1.1160  -29.2290 O.2    75  G75        -0.2633
   1271  N7       -14.7200    1.0300  -28.2620 N.ar   75  G75        -0.2173
   1272  C8       -15.9190    1.4860  -28.0390 C.ar   75  G75         0.1817
   1273  N9       -16.9140    0.6060  -28.3920 N.ar   75  G75        -0.2693
   1274  OP1      -15.1310    4.5830  -25.3050 O.3    75  G75        -0.4373
   1275  OP2      -16.8860    5.7020  -26.8010 O.co2  75  G75        -0.5172
   1276  P        -19.4080   -0.4000  -23.7630 P.3    76  G76         0.2141
   1277  C5'      -20.3400   -2.6600  -24.7430 C.3    76  G76         0.1812
   1278  O5'      -19.2170   -1.8240  -24.4780 O.3    76  G76        -0.3114
   1279  C4'      -19.9710   -3.8110  -25.6600 C.3    76  G76         0.1773
   1280  O4'      -19.1910   -3.3280  -26.7850 O.3    76  G76        -0.3307
   1281  C3'      -19.0840   -4.8850  -25.0460 C.3    76  G76         0.1860
   1282  O3'      -19.8230   -5.8030  -24.2470 O.3    76  G76        -0.3112
   1283  C2'      -18.5150   -5.5340  -26.3010 C.3    76  G76         0.2309
   1284  O2'      -19.4400   -6.3670  -26.9760 O.3    76  G76        -0.2156
   1285  C1'      -18.2000   -4.2860  -27.1220 C.3    76  G76         0.2408
   1286  N1       -13.1340   -5.0030  -27.3280 N.ar   76  G76        -0.1709
   1287  C2       -14.1470   -5.8290  -27.7600 C.ar   76  G76         0.2606
   1288  N2       -13.7800   -6.9930  -28.3080 N.pl3  76  G76        -0.0859
   1289  N3       -15.4390   -5.5390  -27.6530 N.ar   76  G76        -0.1918
   1290  C4       -15.6490   -4.3290  -27.0720 C.ar   76  G76         0.1723
   1291  C5       -14.7060   -3.4330  -26.6130 C.ar   76  G76         0.1748
   1292  C6       -13.3310   -3.7560  -26.7310 C.ar   76  G76         0.3023
   1293  O6       -12.3580   -3.0770  -26.3740 O.2    76  G76        -0.2633
   1294  N7       -15.3130   -2.3030  -26.0840 N.ar   76  G76        -0.2173
   1295  C8       -16.5890   -2.5320  -26.2290 C.ar   76  G76         0.1817
   1296  N9       -16.8740   -3.7380  -26.8260 N.ar   76  G76        -0.2693
   1297  OP1      -20.5540   -0.4690  -22.8290 O.3    76  G76        -0.4373
   1298  OP2      -18.0790    0.0310  -23.2640 O.co2  76  G76        -0.5172
   1299  P        -19.3660   -6.0920  -22.7340 P.3    77  U77         0.2141
   1300  C5'      -18.0250   -8.1880  -23.6540 C.3    77  U77         0.1812
   1301  O5'      -18.0380   -6.9780  -22.8880 O.3    77  U77        -0.3114
   1302  C4'      -16.6260   -8.5230  -24.1510 C.3    77  U77         0.1773
   1303  O4'      -16.1250   -7.4630  -25.0100 O.3    77  U77        -0.3307
   1304  C3'      -15.5610   -8.6400  -23.0690 C.3    77  U77         0.1860
   1305  O3'      -15.5520   -9.9190  -22.4650 O.3    77  U77        -0.3112
   1306  C2'      -14.2850   -8.3570  -23.8480 C.3    77  U77         0.2309
   1307  O2'      -13.8600   -9.4460  -24.6410 O.3    77  U77        -0.2156
   1308  C1'      -14.7600   -7.1990  -24.7160 C.3    77  U77         0.2420
   1309  N1       -14.6140   -5.8460  -24.0480 N.ar   77  U77        -0.2534
   1310  C2       -13.3480   -5.3350  -23.7800 C.ar   77  U77         0.3546
   1311  O2       -12.3040   -5.9100  -24.0520 O.2    77  U77        -0.2443
   1312  N3       -13.3460   -4.1000  -23.1650 N.ar   77  U77        -0.1530
   1313  C4       -14.4490   -3.3390  -22.7960 C.ar   77  U77         0.2846
   1314  O4       -14.2890   -2.2520  -22.2510 O.2    77  U77        -0.2650
   1315  C5       -15.7250   -3.9330  -23.1040 C.ar   77  U77         0.0814
   1316  C6       -15.7520   -5.1300  -23.7020 C.ar   77  U77         0.0870
   1317  OP1      -20.4200   -6.9140  -22.1010 O.3    77  U77        -0.4373
   1318  OP2      -18.9880   -4.8020  -22.1130 O.co2  77  U77        -0.5172
   1319  P        -15.3790   -9.9990  -20.8750 P.3    78  A78         0.2141
   1320  C5'      -12.8690  -10.6020  -21.2640 C.3    78  A78         0.1812
   1321  O5'      -13.8200   -9.7400  -20.6630 O.3    78  A78        -0.3114
   1322  C4'      -11.5260   -9.9140  -21.2340 C.3    78  A78         0.1773
   1323  O4'      -11.5810   -8.6570  -21.9550 O.3    78  A78        -0.3307
   1324  C3'      -11.1060   -9.4870  -19.8450 C.3    78  A78         0.1860
   1325  O3'      -10.6500  -10.6140  -19.1070 O.3    78  A78        -0.3112
   1326  C2'      -10.0190   -8.4710  -20.1860 C.3    78  A78         0.2309
   1327  O2'       -8.7850   -9.0580  -20.5570 O.3    78  A78        -0.2156
   1328  C1'      -10.6520   -7.7530  -21.3790 C.3    78  A78         0.2408
   1329  N1       -10.0930   -2.7640  -20.1340 N.ar   78  A78        -0.2040
   1330  C2        -9.2030   -3.7150  -20.4540 C.ar   78  A78         0.2016
   1331  N3        -9.4230   -4.9970  -20.7680 N.ar   78  A78        -0.2048
   1332  C4       -10.7370   -5.2910  -20.7370 C.ar   78  A78         0.1692
   1333  C5       -11.7700   -4.4220  -20.4240 C.ar   78  A78         0.1518
   1334  C6       -11.4100   -3.0870  -20.1080 C.ar   78  A78         0.1919
   1335  N6       -12.2950   -2.1320  -19.7910 N.pl3  78  A78        -0.1054
   1336  N7       -12.9910   -5.0760  -20.4950 N.ar   78  A78        -0.2193
   1337  C8       -12.6740   -6.3070  -20.8380 C.ar   78  A78         0.1816
   1338  N9       -11.3300   -6.5070  -21.0060 N.ar   78  A78        -0.2693
   1339  OP1      -15.6890  -11.3870  -20.4610 O.2    78  A78        -0.5172
   1340  OP2      -16.1060   -8.8570  -20.2700 O.co2  78  A78        -0.4373
   1341  P        -10.8520  -10.6640  -17.5170 P.3    79  G79         0.2141
   1342  C5'       -8.3810   -9.8510  -17.1860 C.3    79  G79         0.1812
   1343  O5'       -9.7710   -9.5960  -17.0080 O.3    79  G79        -0.3114
   1344  C4'       -7.5710   -8.5750  -17.0620 C.3    79  G79         0.1773
   1345  O4'       -8.1260   -7.5180  -17.8800 O.3    79  G79        -0.3307
   1346  C3'       -7.5820   -7.9170  -15.6960 C.3    79  G79         0.1860
   1347  O3'       -6.7860   -8.6280  -14.7670 O.3    79  G79        -0.3112
   1348  C2'       -6.9650   -6.5730  -16.0590 C.3    79  G79         0.2309
   1349  O2'       -5.5710   -6.6560  -16.2860 O.3    79  G79        -0.2156
   1350  C1'       -7.7070   -6.2660  -17.3550 C.3    79  G79         0.2408
   1351  N1        -9.3090   -1.5440  -16.2260 N.ar   79  G79        -0.1709
   1352  C2        -8.0150   -2.0120  -16.3400 C.ar   79  G79         0.2606
   1353  N2        -7.0310   -1.1150  -16.1290 N.pl3  79  G79        -0.0859
   1354  N3        -7.7160   -3.2760  -16.6420 N.ar   79  G79        -0.1918
   1355  C4        -8.8310   -4.0430  -16.8220 C.ar   79  G79         0.1723
   1356  C5       -10.1520   -3.6590  -16.7240 C.ar   79  G79         0.1748
   1357  C6       -10.4580   -2.3170  -16.4060 C.ar   79  G79         0.3023
   1358  O6       -11.5780   -1.8000  -16.2780 O.2    79  G79        -0.2633
   1359  N7       -11.0000   -4.7250  -16.9760 N.ar   79  G79        -0.2173
   1360  C8       -10.1920   -5.7230  -17.2160 C.ar   79  G79         0.1817
   1361  N9        -8.8590   -5.3870  -17.1430 N.ar   79  G79        -0.2693
   1362  OP1      -10.4380  -12.0040  -17.0410 O.3    79  G79        -0.4373
   1363  OP2      -12.2060  -10.1450  -17.1960 O.co2  79  G79        -0.5172
   1364  P         -7.1690   -8.5790  -13.2150 P.3    80  G80         0.2141
   1365  C5'       -5.9310   -6.4100  -12.6030 C.3    80  G80         0.1812
   1366  O5'       -7.1770   -7.0180  -12.8710 O.3    80  G80        -0.3114
   1367  C4'       -6.0550   -4.9100  -12.4660 C.3    80  G80         0.1773
   1368  O4'       -6.9420   -4.3550  -13.4570 O.3    80  G80        -0.3307
   1369  C3'       -6.7040   -4.4300  -11.1920 C.3    80  G80         0.1860
   1370  O3'       -5.8260   -4.6320  -10.1030 O.3    80  G80        -0.3112
   1371  C2'       -6.8750   -2.9630  -11.5540 C.3    80  G80         0.2309
   1372  O2'       -5.6520   -2.2630  -11.6180 O.3    80  G80        -0.2156
   1373  C1'       -7.4120   -3.1110  -12.9670 C.3    80  G80         0.2408
   1374  N1       -11.6160   -0.2560  -12.5590 N.ar   80  G80        -0.1709
   1375  C2       -10.3040    0.0920  -12.3390 C.ar   80  G80         0.2606
   1376  N2       -10.0750    1.3570  -11.9660 N.pl3  80  G80        -0.0859
   1377  N3        -9.2820   -0.7460  -12.4750 N.ar   80  G80        -0.1918
   1378  C4        -9.6830   -1.9840  -12.8550 C.ar   80  G80         0.1723
   1379  C5       -10.9600   -2.4290  -13.0970 C.ar   80  G80         0.1748
   1380  C6       -12.0430   -1.5240  -12.9520 C.ar   80  G80         0.3023
   1381  O6       -13.2520   -1.7460  -13.1260 O.2    80  G80        -0.2633
   1382  N7       -10.9530   -3.7710  -13.4660 N.ar   80  G80        -0.2173
   1383  C8        -9.6950   -4.1070  -13.4410 C.ar   80  G80         0.1817
   1384  N9        -8.8680   -3.0720  -13.0760 N.ar   80  G80        -0.2693
   1385  OP1       -6.0480   -9.2200  -12.4860 O.3    80  G80        -0.4373
   1386  OP2       -8.5520   -9.0930  -13.0570 O.co2  80  G80        -0.5172
   1387  P         -6.4290   -4.9590   -8.6620 P.3    81  U81         0.2141
   1388  C5'       -5.8970   -2.5080   -7.9180 C.3    81  U81         0.1812
   1389  O5'       -6.8800   -3.5040   -8.1740 O.3    81  U81        -0.3114
   1390  C4'       -6.5820   -1.1990   -7.6020 C.3    81  U81         0.1773
   1391  O4'       -7.4060   -0.8490   -8.7340 O.3    81  U81        -0.3307
   1392  C3'       -7.5530   -1.2630   -6.4350 C.3    81  U81         0.1860
   1393  O3'       -6.8720   -0.9780   -5.2250 O.3    81  U81        -0.3112
   1394  C2'       -8.5780   -0.1890   -6.7790 C.3    81  U81         0.2309
   1395  O2'       -8.1780    1.0980   -6.3530 O.3    81  U81        -0.2156
   1396  C1'       -8.6190   -0.2610   -8.3030 C.3    81  U81         0.2420
   1397  N1        -9.7630   -1.0650   -8.8410 N.ar   81  U81        -0.2534
   1398  C2       -10.9880   -0.4480   -9.0260 C.ar   81  U81         0.3546
   1399  O2       -11.1840    0.7280   -8.7730 O.2    81  U81        -0.2443
   1400  N3       -11.9830   -1.2640   -9.5200 N.ar   81  U81        -0.1530
   1401  C4       -11.8620   -2.6070   -9.8380 C.ar   81  U81         0.2846
   1402  O4       -12.8280   -3.2200  -10.2760 O.2    81  U81        -0.2650
   1403  C5       -10.5610   -3.1790   -9.6210 C.ar   81  U81         0.0814
   1404  C6        -9.5840   -2.4040   -9.1420 C.ar   81  U81         0.0870
   1405  OP1       -5.3080   -5.4640   -7.8340 O.3    81  U81        -0.4373
   1406  OP2       -7.6550   -5.7730   -8.8190 O.co2  81  U81        -0.5172
   1407  P         -6.9590   -2.0300   -4.0180 P.3    82  A82         0.2141
   1408  C5'       -9.2590   -1.0430   -3.2830 C.3    82  A82         0.1812
   1409  O5'       -8.5360   -2.1620   -3.7910 O.3    82  A82        -0.3114
   1410  C4'      -10.2780   -1.4530   -2.2400 C.3    82  A82         0.1773
   1411  O4'      -11.2320   -2.3960   -2.8000 O.3    82  A82        -0.3307
   1412  C3'       -9.6900   -2.1260   -1.0090 C.3    82  A82         0.1860
   1413  O3'      -10.4290   -1.7300    0.1320 O.3    82  A82        -0.3112
   1414  C2'       -9.9040   -3.5940   -1.2990 C.3    82  A82         0.2309
   1415  O2'       -9.9890   -4.3410   -0.1120 O.3    82  A82        -0.2156
   1416  C1'      -11.2610   -3.5460   -1.9900 C.3    82  A82         0.2408
   1417  N1       -14.7750   -6.5700   -4.2560 N.ar   82  A82        -0.2040
   1418  C2       -14.9130   -5.4680   -3.5170 C.ar   82  A82         0.2016
   1419  N3       -13.9570   -4.7240   -2.9580 N.ar   82  A82        -0.2048
   1420  C4       -12.7340   -5.2120   -3.2210 C.ar   82  A82         0.1692
   1421  C5       -12.4430   -6.3320   -3.9710 C.ar   82  A82         0.1518
   1422  C6       -13.5300   -7.0340   -4.5080 C.ar   82  A82         0.1919
   1423  N6       -13.3710   -8.1340   -5.2490 N.pl3  82  A82        -0.1054
   1424  N7       -11.0820   -6.5480   -4.0410 N.ar   82  A82        -0.2193
   1425  C8       -10.5800   -5.5600   -3.3420 C.ar   82  A82         0.1816
   1426  N9       -11.5170   -4.7150   -2.8190 N.ar   82  A82        -0.2693
   1427  OP1       -6.3290   -1.3830   -2.8360 O.3    82  A82        -0.4373
   1428  OP2       -6.4540   -3.3410   -4.4900 O.co2  82  A82        -0.5172
   1429  P         -9.6500   -1.2760    1.4400 P.3    83  G83         0.2141
   1430  C5'       -9.5810    1.2150    0.6350 C.3    83  G83         0.1812
   1431  O5'       -8.8630    0.0330    0.9690 O.3    83  G83        -0.3114
   1432  C4'       -8.6310    2.2720    0.1100 C.3    83  G83         0.1773
   1433  O4'       -7.5120    2.4140    1.0180 O.3    83  G83        -0.3307
   1434  C3'       -8.0150    1.9840   -1.2540 C.3    83  G83         0.1860
   1435  O3'       -7.9600    3.1920   -1.9610 O.3    83  G83        -0.3112
   1436  C2'       -6.5970    1.5600   -0.9230 C.3    83  G83         0.2309
   1437  O2'       -5.7160    1.8650   -1.9810 O.3    83  G83        -0.2156
   1438  C1'       -6.3360    2.4860    0.2560 C.3    83  G83         0.2408
   1439  N1        -2.3630    4.2320    2.9180 N.ar   83  G83        -0.1709
   1440  C2        -3.2910    4.9280    2.1770 C.ar   83  G83         0.2606
   1441  N2        -3.1270    6.2560    2.1440 N.pl3  83  G83        -0.0859
   1442  N3        -4.3050    4.3630    1.5180 N.ar   83  G83        -0.1918
   1443  C4        -4.3080    3.0110    1.6610 C.ar   83  G83         0.1723
   1444  C5        -3.4260    2.2300    2.3750 C.ar   83  G83         0.1748
   1445  C6        -2.3610    2.8500    3.0750 C.ar   83  G83         0.3023
   1446  O6        -1.4870    2.3160    3.7690 O.2    83  G83        -0.2633
   1447  N7        -3.7680    0.8900    2.2760 N.ar   83  G83        -0.2173
   1448  C8        -4.8280    0.8860    1.5180 C.ar   83  G83         0.1817
   1449  N9        -5.2090    2.1360    1.1060 N.ar   83  G83        -0.2693
   1450  OP1       -8.6580   -2.3230    1.7740 O.2    83  G83        -0.5172
   1451  OP2      -10.6650   -0.8580    2.4320 O.co2  83  G83        -0.4373
   1452  P         -8.6760    3.3610   -3.3650 P.3    84  C84         0.2141
   1453  C5'      -10.1520    5.4100   -2.5870 C.3    84  C84         0.1812
   1454  O5'      -10.0660    4.0440   -2.9770 O.3    84  C84        -0.3114
   1455  C4'      -11.5790    5.8940   -2.7680 C.3    84  C84         0.1773
   1456  O4'      -11.9520    5.7390   -4.1630 O.3    84  C84        -0.3307
   1457  C3'      -12.6550    5.0760   -2.0660 C.3    84  C84         0.1860
   1458  O3'      -12.7640    5.3520   -0.6760 O.3    84  C84        -0.3112
   1459  C2'      -13.8970    5.4930   -2.8470 C.3    84  C84         0.2309
   1460  O2'      -14.3470    6.7950   -2.5240 O.3    84  C84        -0.2156
   1461  C1'      -13.3410    5.4570   -4.2660 C.3    84  C84         0.2420
   1462  N1       -13.5820    4.1300   -4.9390 N.ar   84  C84        -0.2535
   1463  C2       -14.8450    3.8610   -5.5030 C.ar   84  C84         0.3532
   1464  O2       -15.7370    4.7230   -5.4490 O.2    84  C84        -0.2443
   1465  N3       -15.0560    2.6540   -6.1000 N.ar   84  C84        -0.1739
   1466  C4       -14.0800    1.7430   -6.1390 C.ar   84  C84         0.1759
   1467  N4       -14.3380    0.5780   -6.7350 N.pl3  84  C84        -0.1070
   1468  C5       -12.7940    1.9910   -5.5700 C.ar   84  C84         0.0566
   1469  C6       -12.5920    3.1810   -4.9890 C.ar   84  C84         0.0850
   1470  OP1       -8.9630    2.0250   -3.9230 O.3    84  C84        -0.4373
   1471  OP2       -7.8560    4.3260   -4.1290 O.co2  84  C84        -0.5172
   1472  P        -13.5410    4.3080    0.2650 P.3    85  G85         0.2141
   1473  C5'      -16.1370    4.0940    0.5230 C.3    85  G85         0.1812
   1474  O5'      -15.0160    4.9280    0.3200 O.3    85  G85        -0.3114
   1475  C4'      -17.3510    4.6600   -0.1820 C.3    85  G85         0.1773
   1476  O4'      -17.0710    4.8360   -1.5960 O.3    85  G85        -0.3307
   1477  C3'      -18.5590    3.7410   -0.1600 C.3    85  G85         0.1860
   1478  O3'      -19.2900    3.8920    1.0420 O.3    85  G85        -0.3112
   1479  C2'      -19.3110    4.1570   -1.4190 C.3    85  G85         0.2309
   1480  O2'      -19.9750    5.3940   -1.3100 O.3    85  G85        -0.2156
   1481  C1'      -18.1210    4.2700   -2.3670 C.3    85  G85         0.2408
   1482  N1       -19.3250   -0.0010   -4.9270 N.ar   85  G85        -0.1709
   1483  C2       -20.1030    1.1110   -4.6920 C.ar   85  G85         0.2606
   1484  N2       -21.3450    1.0750   -5.1950 N.pl3  85  G85        -0.0859
   1485  N3       -19.6880    2.1770   -4.0110 N.ar   85  G85        -0.1918
   1486  C4       -18.4080    2.0400   -3.5750 C.ar   85  G85         0.1723
   1487  C5       -17.5570    0.9750   -3.7600 C.ar   85  G85         0.1748
   1488  C6       -18.0070   -0.1510   -4.4860 C.ar   85  G85         0.3023
   1489  O6       -17.3790   -1.1870   -4.7390 O.2    85  G85        -0.2633
   1490  N7       -16.3280    1.2050   -3.1640 N.ar   85  G85        -0.2173
   1491  C8       -16.4460    2.3860   -2.6370 C.ar   85  G85         0.1817
   1492  N9       -17.6790    2.9590   -2.8480 N.ar   85  G85        -0.2693
   1493  OP1      -12.9190    4.3790    1.6060 O.3    85  G85        -0.4373
   1494  OP2      -13.6210    2.9950   -0.4190 O.co2  85  G85        -0.5172
   1495  P        -19.4420    2.6160    2.0020 P.3    86  G86         0.2141
   1496  C5'      -21.8410    2.4360    0.9840 C.3    86  G86         0.1812
   1497  O5'      -20.6120    1.7880    1.2870 O.3    86  G86        -0.3114
   1498  C4'      -22.6520    1.6220    0.0000 C.3    86  G86         0.1773
   1499  O4'      -21.9220    1.4670   -1.2420 O.3    86  G86        -0.3307
   1500  C3'      -22.9060    0.1850    0.4120 C.3    86  G86         0.1860
   1501  O3'      -23.9040    0.0930    1.4090 O.3    86  G86        -0.3112
   1502  C2'      -23.3270   -0.4110   -0.9230 C.3    86  G86         0.2309
   1503  O2'      -24.6360   -0.0590   -1.3280 O.3    86  G86        -0.2156
   1504  C1'      -22.2700    0.2200   -1.8310 C.3    86  G86         0.2408
   1505  N1       -20.3330   -4.1310   -3.6890 N.ar   86  G86        -0.1709
   1506  C2       -21.6120   -3.6310   -3.7860 C.ar   86  G86         0.2606
   1507  N2       -22.4970   -4.3720   -4.4700 N.pl3  86  G86        -0.0859
   1508  N3       -21.9960   -2.4740   -3.2580 N.ar   86  G86        -0.1918
   1509  C4       -20.9910   -1.8400   -2.6080 C.ar   86  G86         0.1723
   1510  C5       -19.6890   -2.2550   -2.4540 C.ar   86  G86         0.1748
   1511  C6       -19.2880   -3.4880   -3.0240 C.ar   86  G86         0.3023
   1512  O6       -18.1700   -4.0160   -2.9810 O.2    86  G86        -0.2633
   1513  N7       -18.9600   -1.3340   -1.7170 N.ar   86  G86        -0.2173
   1514  C8       -19.8210   -0.3910   -1.4490 C.ar   86  G86         0.1817
   1515  N9       -21.0770   -0.6280   -1.9590 N.ar   86  G86        -0.2693
   1516  OP1      -19.9160    3.1040    3.3170 O.3    86  G86        -0.4373
   1517  OP2      -18.1980    1.8100    1.9320 O.co2  86  G86        -0.5172
   1518  P        -23.5880   -0.7280    2.7470 P.3    87  G87         0.2141
   1519  C5'      -24.9960   -2.6980    1.7150 C.3    87  G87         0.1812
   1520  O5'      -23.7630   -2.2510    2.2840 O.3    87  G87        -0.3114
   1521  C4'      -24.7740   -3.8920    0.8070 C.3    87  G87         0.1773
   1522  O4'      -23.8310   -3.5430   -0.2350 O.3    87  G87        -0.3307
   1523  C3'      -24.1340   -5.1060    1.4600 C.3    87  G87         0.1860
   1524  O3'      -25.0900   -5.8910    2.1550 O.3    87  G87        -0.3112
   1525  C2'      -23.5850   -5.8330    0.2390 C.3    87  G87         0.2309
   1526  O2'      -24.5870   -6.4830   -0.5180 O.3    87  G87        -0.2156
   1527  C1'      -23.0100   -4.6580   -0.5410 C.3    87  G87         0.2408
   1528  N1       -18.1400   -6.2260   -0.5960 N.ar   87  G87        -0.1709
   1529  C2       -19.2610   -6.8740   -1.0530 C.ar   87  G87         0.2606
   1530  N2       -19.0630   -8.0860   -1.5930 N.pl3  87  G87        -0.0859
   1531  N3       -20.4860   -6.3620   -0.9870 N.ar   87  G87        -0.1918
   1532  C4       -20.5050   -5.1320   -0.4080 C.ar   87  G87         0.1723
   1533  C5       -19.4350   -4.4090    0.0810 C.ar   87  G87         0.1748
   1534  C6       -18.1300   -4.9650   -0.0050 C.ar   87  G87         0.3023
   1535  O6       -17.0500   -4.4800    0.3720 O.2    87  G87        -0.2633
   1536  N7       -19.8630   -3.1900    0.5950 N.ar   87  G87        -0.2173
   1537  C8       -21.1570   -3.1970    0.4120 C.ar   87  G87         0.1817
   1538  N9       -21.6210   -4.3420   -0.1960 N.ar   87  G87        -0.2693
   1539  OP1      -24.6360   -0.3980    3.7380 O.3    87  G87        -0.4373
   1540  OP2      -22.1680   -0.5100    3.1000 O.co2  87  G87        -0.5172
   1541  P        -24.6830   -6.6100    3.5270 P.3    88  G88         0.2141
   1542  C5'      -24.5440   -8.8300    2.1570 C.3    88  G88         0.1812
   1543  O5'      -23.8850   -7.9010    3.0220 O.3    88  G88        -0.3114
   1544  C4'      -23.5850   -9.8640    1.5900 C.3    88  G88         0.1773
   1545  O4'      -22.5830   -9.2290    0.7500 O.3    88  G88        -0.3307
   1546  C3'      -22.7810  -10.6300    2.6280 C.3    88  G88         0.1860
   1547  O3'      -23.5330  -11.7210    3.1220 O.3    88  G88        -0.3112
   1548  C2'      -21.5730  -11.0870    1.8190 C.3    88  G88         0.2309
   1549  O2'      -21.8320  -12.2400    1.0390 O.3    88  G88        -0.2156
   1550  C1'      -21.3260   -9.8630    0.9350 C.3    88  G88         0.2408
   1551  N1       -16.4400   -8.9990    2.1100 N.ar   88  G88        -0.1709
   1552  C2       -17.0180  -10.0890    1.5040 C.ar   88  G88         0.2606
   1553  N2       -16.1970  -11.0900    1.1600 N.pl3  88  G88        -0.0859
   1554  N3       -18.3170  -10.1910    1.2490 N.ar   88  G88        -0.1918
   1555  C4       -19.0110   -9.1010    1.6550 C.ar   88  G88         0.1723
   1556  C5       -18.5310   -7.9640    2.2650 C.ar   88  G88         0.1748
   1557  C6       -17.1390   -7.8650    2.5290 C.ar   88  G88         0.3023
   1558  O6       -16.5230   -6.9310    3.0660 O.2    88  G88        -0.2633
   1559  N7       -19.5630   -7.0710    2.5190 N.ar   88  G88        -0.2173
   1560  C8       -20.6290   -7.6790    2.0710 C.ar   88  G88         0.1817
   1561  N9       -20.3700   -8.9180    1.5270 N.ar   88  G88        -0.2693
   1562  OP1      -25.9260   -7.0700    4.1830 O.2    88  G88        -0.5172
   1563  OP2      -23.7550   -5.7040    4.2440 O.co2  88  G88        -0.4373
   1564  P        -23.4610  -12.0840    4.6800 P.3    89  U89         0.2141
   1565  C5'      -21.4690  -13.8250    4.4080 C.3    89  U89         0.1812
   1566  O5'      -21.9390  -12.5540    4.8930 O.3    89  U89        -0.3114
   1567  C4'      -19.9560  -13.9320    4.5190 C.3    89  U89         0.1773
   1568  O4'      -19.3170  -12.8500    3.7910 O.3    89  U89        -0.3307
   1569  C3'      -19.3990  -13.7470    5.9200 C.3    89  U89         0.1860
   1570  O3'      -19.5440  -14.9100    6.7060 O.3    89  U89        -0.3112
   1571  C2'      -17.9390  -13.4090    5.6360 C.3    89  U89         0.2309
   1572  O2'      -17.1540  -14.5370    5.3180 O.3    89  U89        -0.2156
   1573  C1'      -18.0960  -12.4940    4.4290 C.3    89  U89         0.2420
   1574  N1       -18.1160  -11.0550    4.8410 N.ar   89  U89        -0.2534
   1575  C2       -16.9140  -10.4010    5.0580 C.ar   89  U89         0.3546
   1576  O2       -15.8210  -10.9170    4.9250 O.2    89  U89        -0.2443
   1577  N3       -17.0270   -9.0900    5.4450 N.ar   89  U89        -0.1530
   1578  C4       -18.1870   -8.3670    5.6380 C.ar   89  U89         0.2846
   1579  O4       -18.1090   -7.1910    5.9820 O.2    89  U89        -0.2650
   1580  C5       -19.4030   -9.1050    5.3950 C.ar   89  U89         0.0814
   1581  C6       -19.3230  -10.3910    5.0150 C.ar   89  U89         0.0870
   1582  OP1      -24.3580  -13.2510    4.8850 O.2    89  U89        -0.5172
   1583  OP2      -23.6520  -10.8320    5.4580 O.co2  89  U89        -0.4373
   1584  P        -19.6910  -14.7180    8.2870 P.3    90  U90         0.2141
   1585  C5'      -17.2760  -15.5550    8.7330 C.3    90  U90         0.1812
   1586  O5'      -18.1850  -14.4820    8.7870 O.3    90  U90        -0.3114
   1587  C4'      -15.8620  -15.0800    8.9590 C.3    90  U90         0.1773
   1588  O4'      -15.5060  -14.0520    8.0020 O.3    90  U90        -0.3307
   1589  C3'      -15.6180  -14.3880   10.2810 C.3    90  U90         0.1860
   1590  O3'      -15.5570  -15.3300   11.3410 O.3    90  U90        -0.3112
   1591  C2'      -14.2600  -13.7680    9.9790 C.3    90  U90         0.2309
   1592  O2'      -13.2060  -14.7040   10.0290 O.3    90  U90        -0.2156
   1593  C1'      -14.4790  -13.2470    8.5590 C.3    90  U90         0.2420
   1594  N1       -14.9100  -11.8190    8.6080 N.ar   90  U90        -0.2534
   1595  C2       -13.9920  -10.8360    8.9450 C.ar   90  U90         0.3546
   1596  O2       -12.8150  -11.0460    9.1800 O.2    90  U90        -0.2443
   1597  N3       -14.5070   -9.5650    8.9920 N.ar   90  U90        -0.1530
   1598  C4       -15.8130   -9.1820    8.7450 C.ar   90  U90         0.2846
   1599  O4       -16.1190   -7.9980    8.8180 O.2    90  U90        -0.2650
   1600  C5       -16.7130  -10.2530    8.4110 C.ar   90  U90         0.0814
   1601  C6       -16.2370  -11.5020    8.3590 C.ar   90  U90         0.0870
   1602  OP1      -20.2060  -16.0040    8.8220 O.3    90  U90        -0.4373
   1603  OP2      -20.4210  -13.4500    8.5300 O.co2  90  U90        -0.5172
   1604  P        -15.9580  -14.8960   12.8290 P.3    91  A91         0.2141
   1605  C5'      -13.4350  -14.4320   13.4390 C.3    91  A91         0.1812
   1606  O5'      -14.7500  -13.9280   13.2510 O.3    91  A91        -0.3114
   1607  C4'      -12.4400  -13.3020   13.6650 C.3    91  A91         0.1773
   1608  O4'      -12.4690  -12.3380   12.5810 O.3    91  A91        -0.3307
   1609  C3'      -12.6830  -12.4430   14.8910 C.3    91  A91         0.1860
   1610  O3'      -12.1990  -13.1230   16.0380 O.3    91  A91        -0.3112
   1611  C2'      -11.8250  -11.2320   14.5550 C.3    91  A91         0.2309
   1612  O2'      -10.4620  -11.4990   14.8080 O.3    91  A91        -0.2156
   1613  C1'      -12.0840  -11.0640   13.0600 C.3    91  A91         0.2408
   1614  N1       -13.6190   -6.1350   12.6130 N.ar   91  A91        -0.2040
   1615  C2       -12.4200   -6.6670   12.9030 C.ar   91  A91         0.2016
   1616  N3       -12.0760   -7.9580   13.0050 N.ar   91  A91        -0.2048
   1617  C4       -13.1320   -8.7590   12.7690 C.ar   91  A91         0.1692
   1618  C5       -14.4190   -8.3510   12.4590 C.ar   91  A91         0.1518
   1619  C6       -14.6570   -6.9690   12.3840 C.ar   91  A91         0.1919
   1620  N6       -15.8620   -6.4620   12.1000 N.pl3  91  A91        -0.1054
   1621  N7       -15.2520   -9.4330   12.2770 N.ar   91  A91        -0.2193
   1622  C8       -14.4650  -10.4660   12.4840 C.ar   91  A91         0.1816
   1623  N9       -13.1720  -10.1370   12.7810 N.ar   91  A91        -0.2693
   1624  OP1      -15.9670  -16.1260   13.6470 O.3    91  A91        -0.4373
   1625  OP2      -17.1850  -14.0660   12.7800 O.co2  91  A91        -0.5172
   1626  P        -12.5490  -12.6220   17.5140 P.3    92  C92         0.2141
   1627  C5'      -10.0640  -12.0840   18.0720 C.3    92  C92         0.1812
   1628  O5'      -11.3720  -11.5830   17.8240 O.3    92  C92        -0.3114
   1629  C4'       -9.1140  -11.0040   18.5610 C.3    92  C92         0.1773
   1630  O4'       -8.9280  -10.0070   17.5250 O.3    92  C92        -0.3307
   1631  C3'       -9.5980  -10.2040   19.7570 C.3    92  C92         0.1860
   1632  O3'       -9.2920  -10.8820   20.9730 O.3    92  C92        -0.3112
   1633  C2'       -8.7950   -8.9200   19.6070 C.3    92  C92         0.2309
   1634  O2'       -7.4600   -9.0880   20.0400 O.3    92  C92        -0.2156
   1635  C1'       -8.8230   -8.7150   18.1010 C.3    92  C92         0.2420
   1636  N1        -9.9380   -7.8340   17.5920 N.ar   92  C92        -0.2535
   1637  C2        -9.9050   -6.4370   17.7970 C.ar   92  C92         0.3532
   1638  O2        -8.9700   -5.9130   18.4090 O.2    92  C92        -0.2443
   1639  N3       -10.9220   -5.6770   17.3110 N.ar   92  C92        -0.1739
   1640  C4       -11.9370   -6.2470   16.6450 C.ar   92  C92         0.1759
   1641  N4       -12.9130   -5.4490   16.1900 N.pl3  92  C92        -0.1070
   1642  C5       -11.9910   -7.6580   16.4210 C.ar   92  C92         0.0566
   1643  C6       -10.9830   -8.3990   16.9020 C.ar   92  C92         0.0850
   1644  OP1      -12.3830  -13.8070   18.3830 O.3    92  C92        -0.4373
   1645  OP2      -13.8400  -11.8890   17.4940 O.co2  92  C92        -0.5172
   1646  P        -10.2600  -10.7190   22.2400 P.3    93  C93         0.2141
   1647  C5'       -8.8680   -8.6930   23.1160 C.3    93  C93         0.1812
   1648  O5'      -10.1130   -9.1800   22.6370 O.3    93  C93        -0.3114
   1649  C4'       -8.9570   -7.2000   23.3370 C.3    93  C93         0.1773
   1650  O4'       -9.2040   -6.5100   22.0870 O.3    93  C93        -0.3307
   1651  C3'      -10.1360   -6.8120   24.1970 C.3    93  C93         0.1860
   1652  O3'       -9.7620   -6.9910   25.5540 O.3    93  C93        -0.3112
   1653  C2'      -10.3290   -5.3550   23.8150 C.3    93  C93         0.2309
   1654  O2'       -9.3950   -4.5260   24.4650 O.3    93  C93        -0.2156
   1655  C1'      -10.0310   -5.3820   22.3220 C.3    93  C93         0.2420
   1656  N1       -11.2490   -5.4300   21.4290 N.ar   93  C93        -0.2535
   1657  C2       -11.9780   -4.2550   21.1420 C.ar   93  C93         0.3532
   1658  O2       -11.6360   -3.1630   21.6250 O.2    93  C93        -0.2443
   1659  N3       -13.0650   -4.3400   20.3290 N.ar   93  C93        -0.1739
   1660  C4       -13.4230   -5.5150   19.8070 C.ar   93  C93         0.1759
   1661  N4       -14.4930   -5.5380   19.0120 N.pl3  93  C93        -0.1070
   1662  C5       -12.7030   -6.7140   20.0750 C.ar   93  C93         0.0566
   1663  C6       -11.6360   -6.6220   20.8800 C.ar   93  C93         0.0850
   1664  OP1       -9.6830  -11.5480   23.3220 O.3    93  C93        -0.4373
   1665  OP2      -11.6600  -10.9270   21.7980 O.co2  93  C93        -0.5172
   1666  P        -10.7390   -7.7120   26.6060 P.3    94  G94         0.2141
   1667  C5'      -11.2050   -5.2540   27.3430 C.3    94  G94         0.1812
   1668  O5'      -11.7290   -6.5340   27.0250 O.3    94  G94        -0.3114
   1669  C4'      -12.2550   -4.2080   27.0450 C.3    94  G94         0.1773
   1670  O4'      -12.6740   -4.3020   25.6570 O.3    94  G94        -0.3307
   1671  C3'      -13.5190   -4.3760   27.8790 C.3    94  G94         0.1860
   1672  O3'      -13.9660   -3.1030   28.3020 O.3    94  G94        -0.3112
   1673  C2'      -14.4920   -5.0180   26.9000 C.3    94  G94         0.2309
   1674  O2'      -15.8390   -4.7500   27.2170 O.3    94  G94        -0.2156
   1675  C1'      -14.0840   -4.3040   25.6170 C.3    94  G94         0.2408
   1676  N1       -16.6710   -3.5910   21.3000 N.ar   94  G94        -0.1709
   1677  C2       -16.3030   -2.6780   22.2580 C.ar   94  G94         0.2606
   1678  N2       -16.6790   -1.4040   22.0540 N.pl3  94  G94        -0.0859
   1679  N3       -15.6160   -2.9970   23.3490 N.ar   94  G94        -0.1918
   1680  C4       -15.3210   -4.3170   23.4070 C.ar   94  G94         0.1723
   1681  C5       -15.6420   -5.3030   22.5030 C.ar   94  G94         0.1748
   1682  C6       -16.3770   -4.9540   21.3450 C.ar   94  G94         0.3023
   1683  O6       -16.7520   -5.6940   20.4230 O.2    94  G94        -0.2633
   1684  N7       -15.1560   -6.5340   22.9190 N.ar   94  G94        -0.2173
   1685  C8       -14.5630   -6.2700   24.0510 C.ar   94  G94         0.1817
   1686  N9       -14.6150   -4.9400   24.4080 N.ar   94  G94        -0.2693
   1687  OP1       -9.8900   -8.0790   27.7630 O.3    94  G94        -0.4373
   1688  OP2      -11.5500   -8.7450   25.9230 O.co2  94  G94        -0.5172
   1689  P        -14.5700   -2.9210   29.7660 P.3    95  A95         0.2141
   1690  C5'      -13.4200   -0.6050   30.0580 C.3    95  A95         0.1812
   1691  O5'      -14.6230   -1.3340   29.9210 O.3    95  A95        -0.3114
   1692  C4'      -13.6820    0.8810   29.9390 C.3    95  A95         0.1773
   1693  O4'      -13.4980    1.2960   28.5680 O.3    95  A95        -0.3307
   1694  C3'      -15.0900    1.3330   30.3180 C.3    95  A95         0.1860
   1695  O3'      -15.0140    2.1120   31.5130 O.3    95  A95        -0.3112
   1696  C2'      -15.5740    2.1340   29.1010 C.3    95  A95         0.2309
   1697  O2'      -16.2950    3.3030   29.4410 O.3    95  A95        -0.2156
   1698  C1'      -14.2540    2.4690   28.4140 C.3    95  A95         0.2408
   1699  N1       -15.3730    0.9620   23.5730 N.ar   95  A95        -0.2040
   1700  C2       -15.4280    0.3020   24.7400 C.ar   95  A95         0.2016
   1701  N3       -15.1260    0.7400   25.9650 N.ar   95  A95        -0.2048
   1702  C4       -14.7230    2.0230   25.9360 C.ar   95  A95         0.1692
   1703  C5       -14.6200    2.8290   24.8140 C.ar   95  A95         0.1518
   1704  C6       -14.9670    2.2530   23.5730 C.ar   95  A95         0.1919
   1705  N6       -14.9080    2.9220   22.4140 N.pl3  95  A95        -0.1054
   1706  N7       -14.1720    4.0910   25.1550 N.ar   95  A95        -0.2193
   1707  C8       -14.0210    4.0270   26.4540 C.ar   95  A95         0.1816
   1708  N9       -14.3350    2.8150   26.9950 N.ar   95  A95        -0.2693
   1709  OP1      -13.5990   -3.4930   30.7300 O.3    95  A95        -0.4373
   1710  OP2      -15.9670   -3.4060   29.7400 O.co2  95  A95        -0.5172
   1711  P        -16.1770    2.0720   32.6190 P.3    96  U96         0.2141
   1712  C5'      -15.6150   -0.2800   33.7230 C.3    96  U96         0.1812
   1713  O5'      -16.4570    0.5130   32.8850 O.3    96  U96        -0.3114
   1714  C4'      -16.3990   -0.9390   34.8510 C.3    96  U96         0.1773
   1715  O4'      -16.7160    0.0480   35.8810 O.3    96  U96        -0.3307
   1716  C3'      -17.7640   -1.5350   34.5010 C.3    96  U96         0.1860
   1717  O3'      -17.6870   -2.8130   33.8550 O.3    96  U96        -0.3112
   1718  C2'      -18.3780   -1.6100   35.8960 C.3    96  U96         0.2309
   1719  O2'      -17.8090   -2.6270   36.6980 O.3    96  U96        -0.2156
   1720  C1'      -18.0040   -0.2210   36.4190 C.3    96  U96         0.2420
   1721  N1       -18.9970    0.8610   36.0110 N.ar   96  U96        -0.2534
   1722  C2       -20.2750    0.8700   36.5570 C.ar   96  U96         0.3546
   1723  O2       -20.6660    0.0570   37.3760 O.2    96  U96        -0.2443
   1724  N3       -21.0970    1.8840   36.1120 N.ar   96  U96        -0.1530
   1725  C4       -20.7880    2.8730   35.1900 C.ar   96  U96         0.2846
   1726  O4       -21.6280    3.7150   34.8880 O.2    96  U96        -0.2650
   1727  C5       -19.4490    2.8000   34.6590 C.ar   96  U96         0.0814
   1728  C6       -18.6310    1.8240   35.0810 C.ar   96  U96         0.0870
   1729  OP1      -17.3980    2.6660   32.0210 O.2    96  U96        -0.5172
   1730  OP2      -15.6040    2.6740   33.8420 O.co2  96  U96        -0.4373
   1731  P        -18.8890   -3.3260   32.9110 P.3    97  G97         0.2141
   1732  C5'      -18.8850   -1.9440   30.6410 C.3    97  G97         0.1812
   1733  O5'      -19.2580   -2.0380   32.0220 O.3    97  G97        -0.3114
   1734  C4'      -19.0390   -0.5260   30.1140 C.3    97  G97         0.1773
   1735  O4'      -17.9000   -0.2040   29.2700 O.3    97  G97        -0.3307
   1736  C3'      -20.2400   -0.2970   29.2030 C.3    97  G97         0.1860
   1737  O3'      -21.4020    0.0940   29.9180 O.3    97  G97        -0.3112
   1738  C2'      -19.7300    0.7820   28.2510 C.3    97  G97         0.2309
   1739  O2'      -19.6130    2.0620   28.8390 O.3    97  G97        -0.2156
   1740  C1'      -18.3470    0.2070   27.9830 C.3    97  G97         0.2408
   1741  N1       -19.8580   -1.7580   23.4500 N.ar   97  G97        -0.1709
   1742  C2       -20.1240   -0.5160   23.9810 C.ar   97  G97         0.2606
   1743  N2       -20.8800    0.2980   23.2290 N.pl3  97  G97        -0.0859
   1744  N3       -19.6820   -0.1050   25.1680 N.ar   97  G97        -0.1918
   1745  C4       -18.9330   -1.0490   25.8040 C.ar   97  G97         0.1723
   1746  C5       -18.6150   -2.3140   25.3500 C.ar   97  G97         0.1748
   1747  C6       -19.0950   -2.7380   24.0840 C.ar   97  G97         0.3023
   1748  O6       -18.9100   -3.8270   23.5260 O.2    97  G97        -0.2633
   1749  N7       -17.8300   -2.9910   26.2740 N.ar   97  G97        -0.2173
   1750  C8       -17.6890   -2.1430   27.2530 C.ar   97  G97         0.1817
   1751  N9       -18.3270   -0.9390   27.0500 N.ar   97  G97        -0.2693
   1752  OP1      -20.0440   -3.6450   33.7810 O.3    97  G97        -0.4373
   1753  OP2      -18.3450   -4.3770   32.0160 O.co2  97  G97        -0.5172
   1754  P        -22.7830   -0.6730   29.6360 P.3    98  G98         0.2141
   1755  C5'      -24.1410    0.9590   28.0310 C.3    98  G98         0.1813
   1756  O5'      -23.2260   -0.1410   28.1830 O.3    98  G98        -0.3114
   1757  C4'      -24.4250    1.3030   26.5720 C.3    98  G98         0.1801
   1758  O4'      -23.5030    0.6180   25.6830 O.3    98  G98        -0.3306
   1759  C3'      -25.8330    0.9770   26.0850 C.3    98  G98         0.2161
   1760  O3'      -26.3680    2.1140   25.4200 O.3    98  G98        -0.2175
   1761  C2'      -25.6720   -0.2180   25.1340 C.3    98  G98         0.2337
   1762  O2'      -26.4280   -0.0680   23.9440 O.3    98  G98        -0.2155
   1763  C1'      -24.1820   -0.2430   24.7820 C.3    98  G98         0.2409
   1764  N1       -23.8190   -4.9320   22.6730 N.ar   98  G98        -0.1709
   1765  C2       -24.6370   -3.8860   22.3140 C.ar   98  G98         0.2606
   1766  N2       -25.4490   -4.1090   21.2720 N.pl3  98  G98        -0.0859
   1767  N3       -24.6560   -2.7060   22.9320 N.ar   98  G98        -0.1918
   1768  C4       -23.7700   -2.6510   23.9640 C.ar   98  G98         0.1723
   1769  C5       -22.9130   -3.6500   24.3950 C.ar   98  G98         0.1748
   1770  C6       -22.9060   -4.9000   23.7290 C.ar   98  G98         0.3023
   1771  O6       -22.2110   -5.8990   23.9790 O.2    98  G98        -0.2633
   1772  N7       -22.1580   -3.2240   25.4740 N.ar   98  G98        -0.2173
   1773  C8       -22.5650   -2.0000   25.6760 C.ar   98  G98         0.1817
   1774  N9       -23.5440   -1.5740   24.8060 N.ar   98  G98        -0.2693
   1775  OP1      -23.7560   -0.2090   30.6520 O.3    98  G98        -0.4373
   1776  OP2      -22.4880   -2.1240   29.5370 O.co2  98  G98        -0.5172
   1777  P        -15.7880   -7.5140  -37.1600 P.3   660  A660        0.2141
   1778  C5'      -18.0370   -6.5170  -36.2250 C.3   660  A660        0.1812
   1779  O5'      -16.7050   -6.2920  -36.6760 O.3   660  A660       -0.3114
   1780  C4'      -18.5080   -5.4000  -35.3110 C.3   660  A660        0.1773
   1781  O4'      -17.6840   -5.3340  -34.1170 O.3   660  A660       -0.3307
   1782  C3'      -18.4000   -4.0020  -35.8930 C.3   660  A660        0.1860
   1783  O3'      -19.4700   -3.7320  -36.7890 O.3   660  A660       -0.3112
   1784  C2'      -18.4430   -3.1570  -34.6230 C.3   660  A660        0.2309
   1785  O2'      -19.7390   -3.0370  -34.0710 O.3   660  A660       -0.2156
   1786  C1'      -17.5360   -3.9810  -33.7080 C.3   660  A660        0.2408
   1787  N1       -13.9830   -0.3560  -32.7020 N.ar  660  A660       -0.2040
   1788  C2       -15.2940   -0.4180  -32.4350 C.ar  660  A660        0.2016
   1789  N3       -16.1600   -1.3940  -32.7260 N.ar  660  A660       -0.2048
   1790  C4       -15.5570   -2.4120  -33.3670 C.ar  660  A660        0.1692
   1791  C5       -14.2180   -2.4900  -33.7100 C.ar  660  A660        0.1518
   1792  C6       -13.4040   -1.3920  -33.3480 C.ar  660  A660        0.1919
   1793  N6       -12.0990   -1.3230  -33.6140 N.pl3 660  A660       -0.1054
   1794  N7       -13.9520   -3.6760  -34.3670 N.ar  660  A660       -0.2193
   1795  C8       -15.1110   -4.2860  -34.4020 C.ar  660  A660        0.1816
   1796  N9       -16.1280   -3.5830  -33.8160 N.ar  660  A660       -0.2693
   1797  OP1      -16.3640   -8.0970  -38.3930 O.2   660  A660       -0.5172
   1798  OP2      -14.3830   -7.0430  -37.1700 O.co2 660  A660       -0.4373
   1799  P        -19.1490   -3.0640  -38.2090 P.3   661  U661        0.2141
   1800  C5'      -19.8220   -0.7400  -37.1410 C.3   661  U661        0.1812
   1801  O5'      -18.8460   -1.5390  -37.8190 O.3   661  U661       -0.3114
   1802  C4'      -19.1940    0.5250  -36.5830 C.3   661  U661        0.1773
   1803  O4'      -18.1210    0.1770  -35.6700 O.3   661  U661       -0.3307
   1804  C3'      -18.5110    1.4080  -37.6150 C.3   661  U661        0.1860
   1805  O3'      -19.4550    2.2390  -38.2840 O.3   661  U661       -0.3112
   1806  C2'      -17.5320    2.2060  -36.7540 C.3   661  U661        0.2309
   1807  O2'      -18.1260    3.3160  -36.1050 O.3   661  U661       -0.2156
   1808  C1'      -17.0990    1.1650  -35.7220 C.3   661  U661        0.2420
   1809  N1       -15.7470    0.5450  -36.0210 N.ar  661  U661       -0.2534
   1810  C2       -14.5880    1.2240  -35.6700 C.ar  661  U661        0.3546
   1811  O2       -14.5790    2.3120  -35.1210 O.2   661  U661       -0.2443
   1812  N3       -13.4140    0.5800  -35.9860 N.ar  661  U661       -0.1530
   1813  C4       -13.2750   -0.6500  -36.6050 C.ar  661  U661        0.2846
   1814  O4       -12.1540   -1.0980  -36.8190 O.2   661  U661       -0.2650
   1815  C5       -14.5180   -1.3010  -36.9420 C.ar  661  U661        0.0814
   1816  C6       -15.6770   -0.6920  -36.6450 C.ar  661  U661        0.0870
   1817  OP1      -20.3810   -3.1240  -39.0220 O.2   661  U661       -0.5172
   1818  OP2      -17.9010   -3.6570  -38.7450 O.co2 661  U661       -0.4373
   1819  P        -19.2030    2.6530  -39.8110 P.3   662  U662        0.2141
   1820  C5'      -18.6930    5.1720  -39.3750 C.3   662  U662        0.1812
   1821  O5'      -18.1910    3.8820  -39.6890 O.3   662  U662       -0.3114
   1822  C4'      -18.1520    6.2220  -40.3310 C.3   662  U662        0.1773
   1823  O4'      -16.7090    6.1650  -40.3720 O.3   662  U662       -0.3307
   1824  C3'      -18.6220    6.1540  -41.7800 C.3   662  U662        0.1860
   1825  O3'      -18.8180    7.4810  -42.2620 O.3   662  U662       -0.3112
   1826  C2'      -17.4480    5.4840  -42.4900 C.3   662  U662        0.2309
   1827  O2'      -17.3460    5.8620  -43.8490 O.3   662  U662       -0.2156
   1828  C1'      -16.2670    6.0400  -41.7020 C.3   662  U662        0.2420
   1829  N1       -15.0600    5.1770  -41.6580 N.ar  662  U662       -0.2534
   1830  C2       -13.9800    5.4800  -42.4640 C.ar  662  U662        0.3546
   1831  O2       -13.9610    6.4210  -43.2350 O.2   662  U662       -0.2443
   1832  N3       -12.9100    4.6240  -42.3360 N.ar  662  U662       -0.1530
   1833  C4       -12.8130    3.5250  -41.4980 C.ar  662  U662        0.2846
   1834  O4       -11.7890    2.8500  -41.4950 O.2   662  U662       -0.2650
   1835  C5       -13.9760    3.2770  -40.6830 C.ar  662  U662        0.0814
   1836  C6       -15.0310    4.0960  -40.7910 C.ar  662  U662        0.0870
   1837  OP1      -20.4870    3.1440  -40.3600 O.3   662  U662       -0.4373
   1838  OP2      -18.4810    1.5470  -40.4840 O.co2 662  U662       -0.5172
   1839  P        -20.0460    8.3980  -41.7920 P.3   663  G663        0.2141
   1840  C5'      -20.7180    8.9710  -39.3170 C.3   663  G663        0.1812
   1841  O5'      -19.6870    8.8410  -40.2950 O.3   663  G663       -0.3114
   1842  C4'      -20.1360    9.0590  -37.9190 C.3   663  G663        0.1773
   1843  O4'      -19.0830    8.0750  -37.7580 O.3   663  G663       -0.3307
   1844  C3'      -19.4870   10.3930  -37.5930 C.3   663  G663        0.1860
   1845  O3'      -20.4450   11.2820  -37.0380 O.3   663  G663       -0.3112
   1846  C2'      -18.4220   10.0070  -36.5710 C.3   663  G663        0.2309
   1847  O2'      -18.9450    9.9030  -35.2620 O.3   663  G663       -0.2156
   1848  C1'      -17.9820    8.6310  -37.0610 C.3   663  G663        0.2408
   1849  N1       -13.7660    6.1050  -38.4160 N.ar  663  G663       -0.1709
   1850  C2       -14.7080    5.7980  -37.4570 C.ar  663  G663        0.2606
   1851  N2       -14.5170    4.6700  -36.7570 N.pl3 663  G663       -0.0859
   1852  N3       -15.7730    6.5480  -37.1960 N.ar  663  G663       -0.1918
   1853  C4       -15.8290    7.6550  -37.9800 C.ar  663  G663        0.1723
   1854  C5       -14.9420    8.0500  -38.9610 C.ar  663  G663        0.1748
   1855  C6       -13.8060    7.2350  -39.2340 C.ar  663  G663        0.3023
   1856  O6       -12.9030    7.4130  -40.0660 O.2   663  G663       -0.2633
   1857  N7       -15.3620    9.2440  -39.5350 N.ar  663  G663       -0.2173
   1858  C8       -16.4650    9.5390  -38.9080 C.ar  663  G663        0.1817
   1859  N9       -16.8120    8.6190  -37.9450 N.ar  663  G663       -0.2693
   1860  OP1      -21.2620    7.5530  -41.7720 O.3   663  G663       -0.4373
   1861  OP2      -19.9950    9.6220  -42.6230 O.co2 663  G663       -0.5172
   1862  P        -20.5790   12.7780  -37.5930 P.3   664  C664        0.2141
   1863  C5'      -18.7740   13.5520  -35.8260 C.3   664  C664        0.1812
   1864  O5'      -19.1840   13.4610  -37.1920 O.3   664  C664       -0.3114
   1865  C4'      -18.5770   14.9960  -35.3910 C.3   664  C664        0.1773
   1866  O4'      -17.7400   15.7060  -36.3420 O.3   664  C664       -0.3307
   1867  C3'      -19.8490   15.8210  -35.2520 C.3   664  C664        0.1860
   1868  O3'      -19.6790   16.6960  -34.1440 O.3   664  C664       -0.3112
   1869  C2'      -19.9200   16.5710  -36.5840 C.3   664  C664        0.2309
   1870  O2'      -20.6290   17.7910  -36.4870 O.3   664  C664       -0.2156
   1871  C1'      -18.4380   16.8100  -36.8850 C.3   664  C664        0.2420
   1872  N1       -18.0840   16.9250  -38.3460 N.ar  664  C664       -0.2535
   1873  C2       -17.5040   18.1140  -38.8430 C.ar  664  C664        0.3532
   1874  O2       -17.2920   19.0630  -38.0770 O.2   664  C664       -0.2443
   1875  N3       -17.1920   18.1960  -40.1670 N.ar  664  C664       -0.1739
   1876  C4       -17.4310   17.1560  -40.9790 C.ar  664  C664        0.1759
   1877  N4       -17.1070   17.2800  -42.2710 N.pl3 664  C664       -0.1070
   1878  C5       -18.0140   15.9390  -40.4970 C.ar  664  C664        0.0566
   1879  C6       -18.3190   15.8670  -39.1910 C.ar  664  C664        0.0850
   1880  OP1      -21.6800   13.4250  -36.8440 O.3   664  C664       -0.4373
   1881  OP2      -20.6420   12.7180  -39.0720 O.co2 664  C664       -0.5172
   1882  P        -20.8490   16.9940  -33.0950 P.3   665  A665        0.2141
   1883  C5'      -19.3250   15.5500  -31.4790 C.3   665  A665        0.1812
   1884  O5'      -20.2110   16.6490  -31.6650 O.3   665  A665       -0.3114
   1885  C4'      -17.9320   16.0500  -31.1480 C.3   665  A665        0.1773
   1886  O4'      -17.2810   16.5070  -32.3540 O.3   665  A665       -0.3307
   1887  C3'      -17.8890   17.2520  -30.2180 C.3   665  A665        0.1860
   1888  O3'      -17.9480   16.7890  -28.8670 O.3   665  A665       -0.3112
   1889  C2'      -16.5540   17.9120  -30.5760 C.3   665  A665        0.2309
   1890  O2'      -15.4780   17.4390  -29.7870 O.3   665  A665       -0.2156
   1891  C1'      -16.3330   17.5100  -32.0330 C.3   665  A665        0.2408
   1892  N1       -14.0880   21.7360  -34.0240 N.ar  665  A665       -0.2040
   1893  C2       -13.7020   20.8970  -33.0530 C.ar  665  A665        0.2016
   1894  N3       -14.3360   19.8190  -32.5820 N.ar  665  A665       -0.2048
   1895  C4       -15.5040   19.6160  -33.2210 C.ar  665  A665        0.1692
   1896  C5       -16.0290   20.3920  -34.2400 C.ar  665  A665        0.1518
   1897  C6       -15.2630   21.5060  -34.6520 C.ar  665  A665        0.1919
   1898  N6       -15.6490   22.3410  -35.6200 N.pl3 665  A665       -0.1054
   1899  N7       -17.2470   19.8920  -34.6620 N.ar  665  A665       -0.2193
   1900  C8       -17.4310   18.8400  -33.9020 C.ar  665  A665        0.1816
   1901  N9       -16.4240   18.6090  -33.0040 N.ar  665  A665       -0.2693
   1902  OP1      -21.9670   16.0570  -33.3580 O.2   665  A665       -0.5172
   1903  OP2      -21.0740   18.4570  -33.1160 O.co2 665  A665       -0.4373
   1904  P        -18.0260   17.8010  -27.6290 P.3   666  C666        0.2141
   1905  C5'      -16.0260   18.7620  -26.2020 C.3   666  C666        0.1812
   1906  O5'      -16.4850   18.1880  -27.4190 O.3   666  C666       -0.3114
   1907  C4'      -15.3560   20.1050  -26.4210 C.3   666  C666        0.1773
   1908  O4'      -14.9170   20.2630  -27.7930 O.3   666  C666       -0.3307
   1909  C3'      -16.2500   21.3200  -26.2360 C.3   666  C666        0.1860
   1910  O3'      -16.5790   21.5320  -24.8570 O.3   666  C666       -0.3112
   1911  C2'      -15.3500   22.3990  -26.8420 C.3   666  C666        0.2309
   1912  O2'      -14.2960   22.8030  -25.9860 O.3   666  C666       -0.2156
   1913  C1'      -14.7840   21.6530  -28.0570 C.3   666  C666        0.2420
   1914  N1       -15.4490   22.0240  -29.3660 N.ar  666  C666       -0.2535
   1915  C2       -14.7920   22.9000  -30.2560 C.ar  666  C666        0.3532
   1916  O2       -13.6770   23.3510  -29.9640 O.2   666  C666       -0.2443
   1917  N3       -15.4000   23.2330  -31.4280 N.ar  666  C666       -0.1739
   1918  C4       -16.6040   22.7350  -31.7280 C.ar  666  C666        0.1759
   1919  N4       -17.1530   23.0990  -32.8890 N.pl3 666  C666       -0.1070
   1920  C5       -17.2940   21.8470  -30.8440 C.ar  666  C666        0.0566
   1921  C6       -16.6870   21.5240  -29.6910 C.ar  666  C666        0.0850
   1922  OP1      -18.4940   17.0220  -26.4600 O.3   666  C666       -0.4373
   1923  OP2      -18.7510   19.0240  -28.0530 O.co2 666  C666       -0.5172
   1924  P        -18.0960   21.3910  -24.3320 P.3   667  U667        0.2141
   1925  C5'      -17.1400   19.5660  -22.7370 C.3   667  U667        0.1812
   1926  O5'      -17.9050   20.7460  -22.8820 O.3   667  U667       -0.3114
   1927  C4'      -17.6620   18.7020  -21.6090 C.3   667  U667        0.1773
   1928  O4'      -19.1050   18.7600  -21.5030 O.3   667  U667       -0.3307
   1929  C3'      -17.4300   17.2200  -21.8010 C.3   667  U667        0.1860
   1930  O3'      -16.0540   16.9050  -21.6220 O.3   667  U667       -0.3112
   1931  C2'      -18.3340   16.6690  -20.7040 C.3   667  U667        0.2309
   1932  O2'      -17.7610   16.7720  -19.4130 O.3   667  U667       -0.2156
   1933  C1'      -19.5500   17.5950  -20.8190 C.3   667  U667        0.2420
   1934  N1       -20.7770   17.0080  -21.5130 N.ar  667  U667       -0.2534
   1935  C2       -21.4140   15.8650  -21.0210 C.ar  667  U667        0.3546
   1936  O2       -21.0550   15.2400  -20.0350 O.2   667  U667       -0.2443
   1937  N3       -22.5160   15.4540  -21.7410 N.ar  667  U667       -0.1530
   1938  C4       -23.0500   16.0510  -22.8730 C.ar  667  U667        0.2846
   1939  O4       -24.0440   15.5660  -23.4100 O.2   667  U667       -0.2650
   1940  C5       -22.3460   17.2270  -23.3230 C.ar  667  U667        0.0814
   1941  C6       -21.2690   17.6490  -22.6410 C.ar  667  U667        0.0870
   1942  OP1      -18.8270   20.4320  -25.1980 O.2   667  U667       -0.5172
   1943  OP2      -18.6370   22.7550  -24.1360 O.co2 667  U667       -0.4373
   1944  P        -15.1990   16.2750  -22.8270 P.3   668  C668        0.2141
   1945  C5'      -15.0030   14.0860  -21.4260 C.3   668  C668        0.1812
   1946  O5'      -15.4290   14.7080  -22.6230 O.3   668  C668       -0.3114
   1947  C4'      -15.9860   13.0160  -21.0030 C.3   668  C668        0.1773
   1948  O4'      -17.2920   13.6000  -20.7710 O.3   668  C668       -0.3307
   1949  C3'      -16.3090   11.9640  -22.0470 C.3   668  C668        0.1860
   1950  O3'      -15.2460   11.0450  -22.2480 O.3   668  C668       -0.3112
   1951  C2'      -17.5290   11.3410  -21.3820 C.3   668  C668        0.2309
   1952  O2'      -17.2120   10.6200  -20.2060 O.3   668  C668       -0.2156
   1953  C1'      -18.2860   12.6190  -21.0360 C.3   668  C668        0.2420
   1954  N1       -19.2060   13.0680  -22.1470 N.ar  668  C668       -0.2535
   1955  C2       -20.4690   12.4660  -22.2810 C.ar  668  C668        0.3532
   1956  O2       -20.8130   11.5860  -21.4850 O.2   668  C668       -0.2443
   1957  N3       -21.2910   12.8680  -23.2830 N.ar  668  C668       -0.1739
   1958  C4       -20.8910   13.8220  -24.1270 C.ar  668  C668        0.1759
   1959  N4       -21.7340   14.1810  -25.0960 N.pl3 668  C668       -0.1070
   1960  C5       -19.6120   14.4480  -24.0180 C.ar  668  C668        0.0566
   1961  C6       -18.8120   14.0420  -23.0270 C.ar  668  C668        0.0850
   1962  OP1      -13.7710   16.5910  -22.5850 O.3   668  C668       -0.4373
   1963  OP2      -15.8230   16.6400  -24.1200 O.co2 668  C668       -0.5172
   1964  P        -15.0330   10.4380  -23.7140 P.3   669  C669        0.2141
   1965  C5'      -16.3490    8.2960  -22.9130 C.3   669  C669        0.1812
   1966  O5'      -16.2280    9.3800  -23.8310 O.3   669  C669       -0.3114
   1967  C4'      -17.6770    7.5860  -23.1000 C.3   669  C669        0.1773
   1968  O4'      -18.7540    8.5490  -23.1830 O.3   669  C669       -0.3307
   1969  C3'      -17.8160    6.8180  -24.4030 C.3   669  C669        0.1860
   1970  O3'      -17.1720    5.5620  -24.3150 O.3   669  C669       -0.3112
   1971  C2'      -19.3260    6.6550  -24.4970 C.3   669  C669        0.2309
   1972  O2'      -19.8110    5.5640  -23.7370 O.3   669  C669       -0.2156
   1973  C1'      -19.8320    7.9640  -23.8980 C.3   669  C669        0.2420
   1974  N1       -20.3680    8.9310  -24.9130 N.ar  669  C669       -0.2535
   1975  C2       -21.5060    8.6170  -25.6880 C.ar  669  C669        0.3532
   1976  O2       -22.0790    7.5300  -25.5470 O.2   669  C669       -0.2443
   1977  N3       -21.9590    9.5270  -26.5920 N.ar  669  C669       -0.1739
   1978  C4       -21.3340   10.7000  -26.7340 C.ar  669  C669        0.1759
   1979  N4       -21.8140   11.5650  -27.6330 N.pl3 669  C669       -0.1070
   1980  C5       -20.1830   11.0400  -25.9610 C.ar  669  C669        0.0566
   1981  C6       -19.7440   10.1370  -25.0730 C.ar  669  C669        0.0850
   1982  OP1      -13.7480    9.7050  -23.7330 O.3   669  C669       -0.4373
   1983  OP2      -15.2840   11.5190  -24.6970 O.co2 669  C669       -0.5172
@<TRIPOS>BOND
     1     1     5    1
     2     1    14    2
     3     1    19    1
     4     1    23    1
     5     2    15    2
     6     2    20    1
     7     2    23    1
     8     2    24    1
     9     3    16    2
    10     3    21    1
    11     3    24    1
    12     3    25    1
    13     4     6    1
    14     4     5    1
    15     6     7    1
    16     6     8    1
    17     7    12    1
    18     8     9    1
    19     8    10    1
    20     9    33    1
    21    10    11    1
    22    10    12    1
    23    12    32    1
    24    13    17   ar
    25    13    28   ar
    26    17    18    1
    27    17    22   ar
    28    22    26   ar
    29    26    27   ar
    30    26    32   ar
    31    27    28   ar
    32    27    30   ar
    33    28    29    2
    34    30    31   ar
    35    31    32   ar
    36  1827  1826    1
    37  1831  1830    2
    38  1861  1839    2
    39  1826  1824    1
    40  1826  1828    1
    41  1830  1832   ar
    42  1830  1829   ar
    43  1832  1833   ar
    44  1877  1876    1
    45  1825  1839    1
    46  1825  1824    1
    47  1839  1860    1
    48  1839  1841    1
    49  1824  1822    1
    50  1828  1829    1
    51  1828  1823    1
    52  1829  1836   ar
    53  1833  1834    2
    54  1833  1835   ar
    55  1876  1878   ar
    56  1876  1875   ar
    57  1836  1835   ar
    58  1878  1879   ar
    59  1838  1819    2
    60  1823  1822    1
    61  1837  1819    1
    62  1822  1820    1
    63  1841  1840    1
    64  1875  1873   ar
    65  1856  1855    2
    66  1819  1821    1
    67  1819  1805    1
    68  1821  1820    1
    69  1857  1854   ar
    70  1857  1858   ar
    71  1840  1842    1
    72  1855  1854   ar
    73  1855  1849   ar
    74  1879  1872   ar
    75  1881  1862    2
    76  1817  1799    2
    77  1854  1853   ar
    78  1858  1859   ar
    79  1873  1872   ar
    80  1873  1874    2
    81  1818  1799    1
    82  1849  1850   ar
    83  1797  1777    2
    84  1872  1871    1
    85  1805  1804    1
    86  1799  1801    1
    87  1799  1783    1
    88  1853  1859   ar
    89  1853  1852   ar
    90  1859  1848    1
    91  1842  1843    1
    92  1842  1844    1
    93  1801  1800    1
    94  1843  1848    1
    95  1804  1806    1
    96  1804  1802    1
    97  1844  1845    1
    98  1844  1846    1
    99  1862  1864    1
   100  1862  1845    1
   101  1862  1880    1
   102  1850  1852   ar
   103  1850  1851    1
   104  1864  1863    1
   105  1798  1777    1
   106  1777  1779    1
   107  1777  1239    1
   108  1800  1802    1
   109  1848  1846    1
   110  1815  1816   ar
   111  1815  1813   ar
   112  1871  1869    1
   113  1871  1866    1
   114  1251  1233    2
   115  1814  1813    2
   116  1783  1782    1
   117  1806  1807    1
   118  1806  1808    1
   119  1779  1778    1
   120  1816  1809   ar
   121  1813  1812   ar
   122  1869  1870    1
   123  1869  1867    1
   124  1802  1803    1
   125  1846  1847    1
   126  1866  1865    1
   127  1778  1780    1
   128  1809  1808    1
   129  1809  1810   ar
   130  1239  1238    1
   131  1812  1810   ar
   132  1782  1780    1
   133  1782  1784    1
   134  1863  1865    1
   135  1252  1233    1
   136  1808  1803    1
   137  1233  1235    1
   138  1233  1219    1
   139  1810  1811    2
   140  1898  1897    1
   141  1865  1867    1
   142  1235  1234    1
   143  1780  1781    1
   144  1234  1236    1
   145  1867  1868    1
   146  1231  1213    2
   147  1238  1236    1
   148  1238  1240    1
   149  1899  1896   ar
   150  1899  1900   ar
   151  1897  1896   ar
   152  1897  1892   ar
   153  1784  1785    1
   154  1784  1786    1
   155  1236  1237    1
   156  1795  1794   ar
   157  1795  1796   ar
   158  1219  1218    1
   159  1794  1791   ar
   160  1896  1895   ar
   161  1868  1882    1
   162  1781  1786    1
   163  1892  1893   ar
   164  1900  1901   ar
   165  1796  1786    1
   166  1796  1790   ar
   167  1232  1213    1
   168  1791  1790   ar
   169  1791  1792   ar
   170  1213  1215    1
   171  1213  1197    1
   172  1793  1792    1
   173  1240  1241    1
   174  1240  1242    1
   175  1790  1789   ar
   176  1902  1882    2
   177  1792  1787   ar
   178  1214  1215    1
   179  1214  1216    1
   180  1218  1216    1
   181  1218  1220    1
   182  1895  1901   ar
   183  1895  1894   ar
   184  1903  1882    1
   185  1882  1884    1
   186  1237  1242    1
   187  1893  1894   ar
   188  1901  1891    1
   189  1250  1249   ar
   190  1250  1243   ar
   191  1919  1918    1
   192  1249  1247   ar
   193  1789  1788   ar
   194  1787  1788   ar
   195  1216  1217    1
   196  1242  1243    1
   197  1211  1191    2
   198  1197  1196    1
   199  1886  1891    1
   200  1886  1885    1
   201  1243  1244   ar
   202  1220  1221    1
   203  1220  1222    1
   204  1891  1889    1
   205  1247  1248    1
   206  1247  1246   ar
   207  1918  1917   ar
   208  1918  1920   ar
   209  1884  1883    1
   210  1883  1885    1
   211  1917  1915   ar
   212  1217  1222    1
   213  1244  1246   ar
   214  1244  1245    2
   215  1191  1212    1
   216  1191  1193    1
   217  1191  1175    1
   218  1196  1194    1
   219  1196  1198    1
   220  1885  1887    1
   221  1192  1193    1
   222  1192  1194    1
   223  1230  1229   ar
   224  1230  1223   ar
   225  1222  1223    1
   226  1920  1921   ar
   227  1889  1887    1
   228  1889  1890    1
   229  1229  1227   ar
   230  1194  1195    1
   231  1223  1224   ar
   232  1915  1916    2
   233  1915  1914   ar
   234  1265  1264    1
   235  1887  1888    1
   236  1199  1198    1
   237  1198  1200    1
   238  1175  1174    1
   239  1264  1263   ar
   240  1264  1266   ar
   241  1227  1228    1
   242  1227  1226   ar
   243  1263  1269   ar
   244  1921  1914   ar
   245  1224  1226   ar
   246  1224  1225    2
   247  1914  1913    1
   248  1266  1267   ar
   249  1269  1270    2
   250  1269  1268   ar
   251  1195  1200    1
   252  1267  1268   ar
   253  1267  1273   ar
   254  1888  1904    1
   255  1200  1210    1
   256  1268  1271   ar
   257  1174  1172    1
   258  1174  1176    1
   259  1170  1171    1
   260  1170  1172    1
   261  1209  1210   ar
   262  1209  1208   ar
   263  1171  1169    1
   264  1273  1262    1
   265  1273  1272   ar
   266  1210  1204   ar
   267  1288  1287    1
   268  1271  1272   ar
   269  1262  1257    1
   270  1262  1260    1
   271  1208  1205   ar
   272  1913  1908    1
   273  1913  1911    1
   274  1923  1904    2
   275  1172  1173    1
   276  1190  1169    2
   277  1257  1256    1
   278  1908  1907    1
   279  1177  1176    1
   280  1287  1289   ar
   281  1287  1286   ar
   282  1176  1178    1
   283  1289  1290   ar
   284  1979  1978    1
   285  1904  1906    1
   286  1904  1922    1
   287  1204  1205   ar
   288  1204  1203   ar
   289  1261  1260    1
   290  1906  1905    1
   291  1205  1206   ar
   292  1286  1292   ar
   293  1169  1153    1
   294  1169  1189    1
   295  1260  1258    1
   296  1285  1296    1
   297  1285  1280    1
   298  1285  1283    1
   299  1203  1202   ar
   300  1290  1296   ar
   301  1290  1291   ar
   302  1284  1283    1
   303  1911  1909    1
   304  1911  1912    1
   305  1296  1295   ar
   306  1275  1253    2
   307  1280  1279    1
   308  1173  1178    1
   309  1978  1977   ar
   310  1978  1980   ar
   311  1292  1291   ar
   312  1292  1293    2
   313  1256  1258    1
   314  1256  1254    1
   315  1206  1207    1
   316  1206  1201   ar
   317  1291  1294   ar
   318  1977  1975   ar
   319  1155  1154    1
   320  1153  1152    1
   321  1178  1188    1
   322  1907  1909    1
   323  1907  1905    1
   324  1202  1201   ar
   325  1283  1281    1
   326  1909  1910    1
   327  1295  1294   ar
   328  1980  1981   ar
   329  1258  1259    1
   330  1254  1255    1
   331  1188  1187   ar
   332  1188  1182   ar
   333  1255  1253    1
   334  1975  1976    2
   335  1975  1974   ar
   336  1279  1281    1
   337  1279  1277    1
   338  1253  1274    1
   339  1253  1970    1
   340  1152  1154    1
   341  1152  1150    1
   342  1154  1156    1
   343  1187  1186   ar
   344  1181  1182   ar
   345  1181  1180   ar
   346  1182  1183   ar
   347  1942  1924    2
   348  1959  1958    1
   349  1981  1974   ar
   350  1281  1282    1
   351  1303  1308    1
   352  1303  1302    1
   353  1259  1276    1
   354  1974  1973    1
   355  1180  1179   ar
   356  1186  1183   ar
   357  1910  1924    1
   358  1183  1184   ar
   359  1277  1278    1
   360  1308  1309    1
   361  1308  1306    1
   362  1983  1964    2
   363  1307  1306    1
   364  1971  1969    1
   365  1971  1973    1
   366  1971  1972    1
   367  1278  1276    1
   368  1969  1970    1
   369  1969  1967    1
   370  1179  1184   ar
   371  1924  1943    1
   372  1924  1926    1
   373  1184  1185    1
   374  1282  1299    1
   375   548   553    1
   376   548   547    1
   377  1150  1148    1
   378  1150  1151    1
   379  1302  1300    1
   380  1302  1304    1
   381  1958  1960   ar
   382  1958  1957   ar
   383  1963  1944    2
   384  1156  1166    1
   385  1156  1151    1
   386  1311  1310    2
   387  1309  1310   ar
   388  1309  1316   ar
   389   553   563    1
   390   553   551    1
   391  1960  1961   ar
   392   552   551    1
   393  1973  1968    1
   394  1306  1304    1
   395  1966  1964    1
   396  1966  1965    1
   397  1159  1158   ar
   398  1159  1160   ar
   399  1310  1312   ar
   400  1276  1298    2
   401  1276  1297    1
   402  1982  1964    1
   403   564   544    2
   404  1964  1950    1
   405  1316  1315   ar
   406   547   545    1
   407   547   549    1
   408  1300  1301    1
   409  1148  1149    1
   410  1166  1160   ar
   411  1166  1165   ar
   412   563   562   ar
   413   563   557   ar
   414  1158  1157   ar
   415  1939  1938    2
   416  1160  1161   ar
   417  1149  1147    1
   418   562   561   ar
   419  1940  1938   ar
   420  1940  1941   ar
   421  1957  1955   ar
   422   545   546    1
   423  1968  1967    1
   424  1312  1313   ar
   425   551   549    1
   426   557   556   ar
   427   557   558   ar
   428  1315  1313   ar
   429  1967  1965    1
   430   556   555   ar
   431  1304  1305    1
   432  1961  1954   ar
   433  1165  1164   ar
   434  1167  1147    2
   435  1157  1162   ar
   436  1301  1299    1
   437  1926  1925    1
   438  1938  1937   ar
   439   561   558   ar
   440  1944  1946    1
   441  1944  1962    1
   442  1944  1930    1
   443  1161  1162   ar
   444  1161  1164   ar
   445  1313  1314    2
   446  1925  1927    1
   447  1299  1318    2
   448  1299  1317    1
   449   558   559   ar
   450  1941  1934   ar
   451   555   554   ar
   452   565   544    1
   453  1946  1945    1
   454   544   546    1
   455   544   527    1
   456  1162  1163    1
   457   549   550    1
   458  1147  1168    1
   459  1147  1133    1
   460  1305  1319    1
   461  1955  1954   ar
   462  1955  1956    2
   463  1950  1949    1
   464   559   554   ar
   465   559   560    1
   466  1954  1953    1
   467   550   566    1
   468  1949  1951    1
   469  1949  1947    1
   470  1323  1328    1
   471  1323  1322    1
   472  1929  1930    1
   473  1929  1927    1
   474  1929  1931    1
   475  1937  1935   ar
   476  1927  1928    1
   477  1934  1935   ar
   478  1934  1933    1
   479  1928  1933    1
   480  1945  1947    1
   481  1951  1953    1
   482  1951  1952    1
   483  1328  1338    1
   484  1328  1326    1
   485   527   526    1
   486  1320  1322    1
   487  1320  1321    1
   488  1322  1324    1
   489  1953  1948    1
   490  1133  1132    1
   491  1935  1936    2
   492  1338  1337   ar
   493  1338  1332   ar
   494  1947  1948    1
   495   570   569    1
   496   570   575    1
   497  1319  1321    1
   498  1319  1339    2
   499  1319  1340    1
   500  1337  1336   ar
   501  1933  1931    1
   502  1331  1332   ar
   503  1331  1330   ar
   504  1332  1333   ar
   505  1931  1932    1
   506   566   586    2
   507   566   568    1
   508   566   587    1
   509  1327  1326    1
   510  1336  1333   ar
   511  1330  1329   ar
   512  1333  1334   ar
   513   567   569    1
   514   567   568    1
   515   569   571    1
   516  1132  1134    1
   517  1132  1130    1
   518   575   585    1
   519   575   573    1
   520  1326  1324    1
   521  1329  1334   ar
   522  1134  1135    1
   523  1134  1136    1
   524  1334  1335    1
   525   526   528    1
   526   526   524    1
   527   585   584   ar
   528   585   579   ar
   529  1324  1325    1
   530   584   583   ar
   531   542   521    2
   532   574   573    1
   533   579   578   ar
   534   579   580   ar
   535   583   580   ar
   536  1139  1138    2
   537  1140  1138   ar
   538  1140  1141   ar
   539   578   577   ar
   540  1142  1141    2
   541   523   522    1
   542   523   521    1
   543   529   528    1
   544  1138  1137   ar
   545   580   581   ar
   546  1141  1143   ar
   547   528   530    1
   548   522   524    1
   549  1325  1341    1
   550   573   571    1
   551   577   576   ar
   552   524   525    1
   553  1137  1144   ar
   554  1137  1136    1
   555  1143  1144   ar
   556   581   576   ar
   557   581   582    1
   558   521   543    1
   559   521   507    1
   560   571   572    1
   561  1136  1131    1
   562  1130  1128    1
   563  1130  1131    1
   564  1146  1127    2
   565  1129  1128    1
   566  1129  1127    1
   567  1145  1127    1
   568   572   588    1
   569  1127  1113    1
   570  1345  1350    1
   571  1345  1344    1
   572   530   525    1
   573   530   541    1
   574  1341  1363    2
   575  1341  1362    1
   576  1341  1343    1
   577   540   541   ar
   578   540   539   ar
   579   541   535   ar
   580   507   506    1
   581  1350  1361    1
   582  1350  1348    1
   583  1360  1361   ar
   584  1360  1359   ar
   585   539   536   ar
   586  1342  1344    1
   587  1342  1343    1
   588   535   534   ar
   589   535   536   ar
   590  1361  1355   ar
   591  1344  1346    1
   592   534   532   ar
   593   536   537   ar
   594  1359  1356   ar
   595   588   608    2
   596   588   609    1
   597   588   590    1
   598  1355  1356   ar
   599  1355  1354   ar
   600  1356  1357   ar
   601   532   533    1
   602   532   531   ar
   603   519   501    2
   604  1113  1112    1
   605  1354  1352   ar
   606   592   597    1
   607   592   591    1
   608   537   531   ar
   609   537   538    2
   610  1357  1358    2
   611  1357  1351   ar
   612   506   508    1
   613   506   504    1
   614  1126  1107    2
   615  1352  1351   ar
   616  1352  1353    1
   617  1349  1348    1
   618   590   589    1
   619   520   501    1
   620  1122  1121    1
   621  1348  1346    1
   622   597   607    1
   623   597   595    1
   624  1112  1114    1
   625  1112  1110    1
   626   589   591    1
   627  1125  1107    1
   628   607   606   ar
   629   607   601   ar
   630   606   605   ar
   631   501   503    1
   632   501   487    1
   633   605   602   ar
   634   601   600   ar
   635   601   602   ar
   636   600   599   ar
   637   602   603   ar
   638   503   502    1
   639   599   598   ar
   640   591   593    1
   641  1346  1347    1
   642   603   598   ar
   643   603   604    1
   644  1121  1120   ar
   645  1121  1123   ar
   646   502   504    1
   647  1107  1109    1
   648  1107  1093    1
   649   508   509    1
   650   508   510    1
   651  1120  1118   ar
   652  1109  1108    1
   653  1114  1115    1
   654  1114  1116    1
   655  1123  1124   ar
   656   504   505    1
   657  1118  1119    2
   658  1118  1117   ar
   659  1124  1117   ar
   660  1106  1087    2
   661  1117  1116    1
   662  1108  1110    1
   663  1347  1364    1
   664  1085  1064    2
   665  1105  1087    1
   666   596   595    1
   667  1110  1111    1
   668   595   593    1
   669   518   517   ar
   670   518   511   ar
   671   517   515   ar
   672  1116  1111    1
   673   487   486    1
   674   593   594    1
   675   510   511    1
   676   510   505    1
   677   511   512   ar
   678  1087  1089    1
   679  1087  1070    1
   680   499   481    2
   681   515   516    1
   682   515   514   ar
   683  1093  1092    1
   684   512   514   ar
   685   512   513    2
   686  1086  1064    1
   687  1062  1041    2
   688  1089  1088    1
   689  1064  1066    1
   690  1064  1047    1
   691  1102  1101    1
   692   500   481    1
   693  1382  1383   ar
   694  1382  1379   ar
   695  1368  1373    1
   696  1368  1367    1
   697  1092  1094    1
   698  1092  1090    1
   699  1383  1384   ar
   700   594   610    1
   701   627   626    2
   702  1103  1101   ar
   703  1103  1104   ar
   704   486   488    1
   705   486   484    1
   706   620   626   ar
   707   620   621   ar
   708   622   621    1
   709   626   625   ar
   710  1364  1386    2
   711  1364  1366    1
   712  1364  1385    1
   713   481   483    1
   714   481   467    1
   715  1101  1100   ar
   716   621   623   ar
   717  1381  1380    2
   718  1039  1021    2
   719  1379  1380   ar
   720  1379  1378   ar
   721  1384  1373    1
   722  1384  1378   ar
   723  1088  1090    1
   724   483   482    1
   725  1373  1371    1
   726   625   624   ar
   727   625   628   ar
   728  1380  1374   ar
   729  1104  1097   ar
   730  1066  1065    1
   731   623   624   ar
   732  1366  1365    1
   733  1378  1377   ar
   734   482   484    1
   735   624   630   ar
   736   628   629   ar
   737  1063  1041    1
   738  1070  1069    1
   739  1041  1027    1
   740  1041  1043    1
   741  1365  1367    1
   742  1374  1375   ar
   743  1094  1095    1
   744  1094  1096    1
   745   629   630   ar
   746   630   619    1
   747  1047  1046    1
   748  1100  1098   ar
   749   488   489    1
   750   488   490    1
   751  1377  1375   ar
   752  1367  1369    1
   753  1090  1091    1
   754  1065  1067    1
   755   484   485    1
   756   614   619    1
   757   614   613    1
   758   632   610    2
   759  1375  1376    1
   760   619   617    1
   761  1097  1098   ar
   762  1097  1096    1
   763   610   612    1
   764   610   631    1
   765  1098  1099    2
   766  1069  1067    1
   767  1069  1071    1
   768  1021  1040    1
   769  1021  1023    1
   770  1021  1007    1
   771  1027  1026    1
   772   467   466    1
   773  1096  1091    1
   774  1042  1043    1
   775  1042  1044    1
   776  1372  1371    1
   777  1020  1001    2
   778   612   611    1
   779  1371  1369    1
   780  1067  1068    1
   781   497   498   ar
   782   497   495   ar
   783   498   491   ar
   784  1046  1044    1
   785  1046  1048    1
   786  1023  1022    1
   787   490   485    1
   788   490   491    1
   789   491   492   ar
   790   495   496    2
   791   495   494   ar
   792  1369  1370    1
   793   479   461    2
   794   613   611    1
   795   613   615    1
   796   494   492   ar
   797   492   493    2
   798   618   617    1
   799   617   615    1
   800   480   461    1
   801  1044  1045    1
   802  1071  1072    1
   803  1071  1073    1
   804  1022  1024    1
   805  1082  1083   ar
   806  1082  1079   ar
   807  1007  1006    1
   808  1083  1084   ar
   809   466   468    1
   810   466   464    1
   811  1026  1024    1
   812  1026  1028    1
   813  1019  1001    1
   814   989   988    1
   815   461   463    1
   816   461   445    1
   817  1068  1073    1
   818  1001  1003    1
   819  1001   987    1
   820   649   648    1
   821   643   648   ar
   822   643   644   ar
   823  1402  1401    2
   824   463   462    1
   825   648   647   ar
   826   644   645   ar
   827  1081  1080    2
   828  1079  1080   ar
   829  1079  1078   ar
   830  1002  1003    1
   831  1002  1004    1
   832  1084  1073    1
   833  1084  1078   ar
   834   615   616    1
   835  1048  1049    1
   836  1048  1050    1
   837  1370  1387    1
   838  1024  1025    1
   839   462   464    1
   840   647   646   ar
   841   647   650   ar
   842   645   646   ar
   843  1080  1074   ar
   844   646   652   ar
   845   650   651   ar
   846  1401  1403   ar
   847  1401  1400   ar
   848  1078  1077   ar
   849   468   469    1
   850   468   470    1
   851   652   651   ar
   852   652   642    1
   853   464   465    1
   854  1403  1404   ar
   855   988   986    1
   856   988   990    1
   857  1006  1004    1
   858  1006  1008    1
   859  1400  1398   ar
   860  1045  1050    1
   861   642   637    1
   862   642   640    1
   863   986   987    1
   864   986   984    1
   865   637   636    1
   866  1004  1005    1
   867  1029  1028    1
   868  1028  1030    1
   869  1074  1075   ar
   870  1060  1059   ar
   871  1060  1061   ar
   872   477   478   ar
   873   477   475   ar
   874  1077  1075   ar
   875   459   439    2
   876  1404  1397   ar
   877   478   471   ar
   878   460   439    1
   879  1398  1397   ar
   880  1398  1399    2
   881  1050  1061    1
   882  1075  1076    1
   883  1059  1056   ar
   884   445   444    1
   885   476   475    2
   886   616   633    1
   887   475   474   ar
   888  1397  1396    1
   889  1061  1055   ar
   890  1406  1387    2
   891  1391  1396    1
   892  1391  1390    1
   893  1387  1389    1
   894  1387  1405    1
   895   471   470    1
   896   471   472   ar
   897  1025  1030    1
   898   470   465    1
   899   439   441    1
   900   439   425    1
   901   474   472   ar
   902  1009  1008    1
   903   437   419    2
   904  1396  1394    1
   905   641   640    1
   906  1056  1055   ar
   907  1056  1057   ar
   908  1008  1010    1
   909   472   473    2
   910   640   638    1
   911  1055  1054   ar
   912  1389  1388    1
   913  1030  1031    1
   914   990   991    1
   915   990   985    1
   916   982   984    1
   917   982   983    1
   918   984   985    1
   919   636   634    1
   920   636   638    1
   921  1038  1031   ar
   922  1038  1037   ar
   923   444   446    1
   924   444   442    1
   925  1005  1010    1
   926   441   440    1
   927  1388  1390    1
   928   438   419    1
   929   998   991   ar
   930   998   997   ar
   931   667   666    1
   932   654   633    2
   933   665   666   ar
   934   665   671   ar
   935   672   671    2
   936   635   633    1
   937   635   634    1
   938  1057  1058    2
   939  1057  1051   ar
   940   991   992   ar
   941  1031  1032   ar
   942  1037  1035   ar
   943   666   668   ar
   944   671   670   ar
   945   633   653    1
   946  1390  1392    1
   947  1054  1052   ar
   948   983   981    1
   949   997   995   ar
   950   999   981    2
   951   440   442    1
   952   419   421    1
   953   419   405    1
   954   668   669   ar
   955   670   669   ar
   956   670   673   ar
   957  1010  1011    1
   958   638   639    1
   959   669   675   ar
   960   417   399    2
   961   673   674   ar
   962   992   993    2
   963   992   994   ar
   964  1051  1052   ar
   965   425   424    1
   966  1052  1053    1
   967   446   447    1
   968   446   448    1
   969   442   443    1
   970   675   674   ar
   971   675   664    1
   972   995   994   ar
   973   995   996    2
   974   659   664    1
   975   659   658    1
   976  1394  1392    1
   977  1394  1395    1
   978   421   420    1
   979  1032  1033    2
   980  1032  1034   ar
   981  1467  1466    1
   982   981  1000    1
   983   981   967    1
   984   664   662    1
   985  1035  1034   ar
   986  1035  1036    1
   987  1018  1011   ar
   988  1018  1017   ar
   989  1011  1012   ar
   990   457   456   ar
   991   457   458   ar
   992  1392  1393    1
   993   456   453   ar
   994   424   422    1
   995   424   426    1
   996   405   404    1
   997  1466  1465   ar
   998  1466  1468   ar
   999   420   422    1
  1000  1465  1463   ar
  1001   639   655    1
  1002   418   399    1
  1003  1017  1015   ar
  1004   399   401    1
  1005   399   383    1
  1006   458   448    1
  1007   458   452   ar
  1008   453   452   ar
  1009   453   454   ar
  1010   448   443    1
  1011   455   454    1
  1012   658   656    1
  1013   658   660    1
  1014   452   451   ar
  1015  1468  1469   ar
  1016   454   449   ar
  1017  1012  1013    2
  1018  1012  1014   ar
  1019  1463  1464    2
  1020  1463  1462   ar
  1021   967   966    1
  1022   422   423    1
  1023   663   662    1
  1024   400   401    1
  1025   400   402    1
  1026   656   657    1
  1027   662   660    1
  1028  1423  1422    1
  1029  1393  1407    1
  1030  1484  1483    1
  1031   404   402    1
  1032   404   406    1
  1033   657   655    1
  1034  1015  1014   ar
  1035  1015  1016    1
  1036   426   427    1
  1037   426   428    1
  1038   451   450   ar
  1039   449   450   ar
  1040  1469  1462   ar
  1041  1462  1461    1
  1042  1482  1483   ar
  1043  1482  1488   ar
  1044   383   382    1
  1045   693   692    2
  1046   655   677    2
  1047   655   676    1
  1048   397   377    2
  1049  1489  1488    2
  1050   691   692   ar
  1051   691   689   ar
  1052  1483  1485   ar
  1053   690   689    2
  1054   402   403    1
  1055   660   661    1
  1056   692   694   ar
  1057  1422  1417   ar
  1058  1422  1421   ar
  1059   689   688   ar
  1060  1428  1407    2
  1061  1488  1487   ar
  1062   435   436   ar
  1063   435   433   ar
  1064  1507  1506    1
  1065   436   429   ar
  1066  1461  1456    1
  1067  1461  1459    1
  1068  1417  1418   ar
  1069   423   428    1
  1070   966   968    1
  1071   966   964    1
  1072  1456  1455    1
  1073  1471  1452    2
  1074   694   695   ar
  1075   688   695   ar
  1076   688   687    1
  1077  1424  1421   ar
  1078  1424  1425   ar
  1079  1407  1409    1
  1080  1407  1427    1
  1081  1485  1486   ar
  1082   428   429    1
  1083  1421  1420   ar
  1084   429   430   ar
  1085   433   434    1
  1086   433   432   ar
  1087  1470  1452    1
  1088   969   968    1
  1089   406   407    1
  1090   406   408    1
  1091   687   682    1
  1092   687   685    1
  1093  1409  1408    1
  1094   682   681    1
  1095  1506  1505   ar
  1096  1506  1508   ar
  1097  1487  1486   ar
  1098  1487  1490   ar
  1099  1505  1511   ar
  1100   398   377    1
  1101   968   970    1
  1102   377   379    1
  1103   377   361    1
  1104   378   379    1
  1105   378   380    1
  1106  1486  1492   ar
  1107   382   380    1
  1108   382   384    1
  1109  1418  1419   ar
  1110   661   678    1
  1111   430   432   ar
  1112   430   431    2
  1113  1452  1454    1
  1114  1452  1435    1
  1115  1425  1426   ar
  1116  1408  1410    1
  1117  1508  1509   ar
  1118   403   408    1
  1119  1420  1419   ar
  1120  1420  1426   ar
  1121  1490  1491   ar
  1122   979   961    2
  1123   964   962    1
  1124   964   965    1
  1125   962   963    1
  1126  1511  1512    2
  1127  1511  1510   ar
  1128   416   415   ar
  1129   416   409   ar
  1130   380   381    1
  1131  1454  1453    1
  1132  1492  1491   ar
  1133  1492  1481    1
  1134  1459  1460    1
  1135  1459  1457    1
  1136  1426  1416    1
  1137  1411  1410    1
  1138  1411  1416    1
  1139   408   409    1
  1140   415   413   ar
  1141  1455  1453    1
  1142  1455  1457    1
  1143   385   384    1
  1144  1509  1510   ar
  1145  1509  1515   ar
  1146   681   679    1
  1147   681   683    1
  1148   384   386    1
  1149   686   685    1
  1150   715   714    2
  1151   409   410   ar
  1152   963   961    1
  1153  1510  1513   ar
  1154   685   683    1
  1155   361   360    1
  1156  1481  1476    1
  1157  1481  1479    1
  1158   708   714   ar
  1159   708   709   ar
  1160  1410  1412    1
  1161   714   713   ar
  1162   680   679    1
  1163   680   678    1
  1164   710   709    1
  1165   970   965    1
  1166   970   971    1
  1167   961   980    1
  1168   961   947    1
  1169  1457  1458    1
  1170   678   697    2
  1171   678   696    1
  1172   709   711   ar
  1173  1416  1414    1
  1174  1437  1436    1
  1175  1435  1434    1
  1176   413   414    1
  1177   413   412   ar
  1178  1515  1504    1
  1179  1515  1514   ar
  1180   973   972    2
  1181  1504  1499    1
  1182  1504  1502    1
  1183   713   716   ar
  1184   713   712   ar
  1185  1513  1514   ar
  1186   410   412   ar
  1187   410   411    2
  1188   971   972   ar
  1189   971   978   ar
  1190   381   386    1
  1191  1476  1475    1
  1192  1530  1529    1
  1193   683   684    1
  1194   711   712   ar
  1195   972   974   ar
  1196   716   717   ar
  1197   712   718   ar
  1198  1479  1480    1
  1199  1479  1477    1
  1200  1503  1502    1
  1201  1414  1412    1
  1202  1414  1415    1
  1203   978   977   ar
  1204  1434  1436    1
  1205  1434  1432    1
  1206   386   396    1
  1207  1499  1498    1
  1208   717   718   ar
  1209  1529  1531   ar
  1210  1529  1528   ar
  1211   974   975   ar
  1212   360   362    1
  1213   360   358    1
  1214   718   707    1
  1215  1412  1413    1
  1216  1531  1532   ar
  1217  1502  1500    1
  1218  1436  1438    1
  1219   363   362    1
  1220   977   975   ar
  1221   947   946    1
  1222  1458  1472    1
  1223   975   976    1
  1224   375   355    2
  1225  1528  1534   ar
  1226   702   707    1
  1227   702   701    1
  1228   707   705    1
  1229   396   395   ar
  1230   396   390   ar
  1231  1527  1522    1
  1232  1527  1538    1
  1233  1527  1525    1
  1234  1526  1525    1
  1235   362   364    1
  1236   395   394   ar
  1237  1494  1472    2
  1238   684   698    1
  1239   733   732    1
  1240  1532  1538   ar
  1241  1532  1533   ar
  1242   738   737    2
  1243   731   737   ar
  1244   731   732   ar
  1245  1522  1521    1
  1246  1538  1537   ar
  1247  1475  1477    1
  1248  1475  1473    1
  1249  1477  1478    1
  1250   358   356    1
  1251   358   359    1
  1252   356   357    1
  1253   357   355    1
  1254   737   736   ar
  1255   732   734   ar
  1256  1534  1533   ar
  1257  1534  1535    2
  1258  1498  1500    1
  1259  1498  1496    1
  1260   390   389   ar
  1261   390   391   ar
  1262  1533  1536   ar
  1263  1432  1430    1
  1264  1432  1433    1
  1265  1413  1429    1
  1266   376   355    1
  1267   355   339    1
  1268   389   388   ar
  1269   394   391   ar
  1270  1525  1523    1
  1271  1438  1433    1
  1272  1438  1449    1
  1273  1472  1474    1
  1274  1472  1493    1
  1275  1474  1473    1
  1276  1500  1501    1
  1277  1537  1536   ar
  1278   946   948    1
  1279   946   944    1
  1280   734   735   ar
  1281   736   735   ar
  1282   736   739   ar
  1283   391   392   ar
  1284  1430  1431    1
  1285  1545  1550    1
  1286  1545  1544    1
  1287   701   699    1
  1288   701   703    1
  1289   949   948    1
  1290   735   741   ar
  1291  1521  1523    1
  1292  1521  1519    1
  1293   705   706    1
  1294   705   703    1
  1295   948   950    1
  1296   388   387   ar
  1297  1550  1561    1
  1298  1550  1548    1
  1299   739   740   ar
  1300   699   700    1
  1301  1431  1429    1
  1302  1496  1497    1
  1303   698   720    2
  1304   698   700    1
  1305   698   719    1
  1306  1549  1548    1
  1307  1478  1495    1
  1308   364   359    1
  1309   364   374    1
  1310  1449  1448   ar
  1311  1449  1443   ar
  1312  1553  1552    1
  1313  1554  1552   ar
  1314  1554  1555   ar
  1315   756   755    1
  1316   392   387   ar
  1317   392   393    1
  1318  1497  1495    1
  1319   741   740   ar
  1320   741   730    1
  1321  1501  1518    1
  1322  1429  1450    2
  1323  1429  1451    1
  1324  1523  1524    1
  1325  1552  1551   ar
  1326  1448  1447   ar
  1327  1442  1443   ar
  1328  1442  1440   ar
  1329   367   366   ar
  1330   367   368   ar
  1331  1561  1555   ar
  1332  1561  1560   ar
  1333  1544  1542    1
  1334  1544  1546    1
  1335   959   941    2
  1336   703   704    1
  1337   944   942    1
  1338   944   945    1
  1339  1555  1556   ar
  1340  1443  1444   ar
  1341   943   942    1
  1342   943   941    1
  1343   339   338    1
  1344  1519  1520    1
  1345   374   368   ar
  1346   374   373   ar
  1347   730   725    1
  1348   730   728    1
  1349  1548  1546    1
  1350   366   365   ar
  1351   368   369   ar
  1352  1517  1495    2
  1353  1495  1516    1
  1354   960   941    1
  1355   755   754   ar
  1356   755   757   ar
  1357   725   724    1
  1358  1560  1559   ar
  1359  1551  1557   ar
  1360  1441  1440    1
  1361  1524  1541    1
  1362  1542  1543    1
  1363  1440  1439   ar
  1364   941   924    1
  1365   953   952    2
  1366  1556  1559   ar
  1367  1556  1557   ar
  1368  1447  1444   ar
  1369  1520  1518    1
  1370   373   372   ar
  1371   950   951    1
  1372   950   945    1
  1373   754   760   ar
  1374  1444  1445   ar
  1375   952   951   ar
  1376   952   954   ar
  1377   338   336    1
  1378   338   340    1
  1379   757   758   ar
  1380   951   958   ar
  1381  1557  1558    2
  1382   365   370   ar
  1383   369   372   ar
  1384   369   370   ar
  1385  1546  1547    1
  1386   954   955   ar
  1387  1518  1540    2
  1388  1518  1539    1
  1389   958   957   ar
  1390   353   333    2
  1391   955   957   ar
  1392   955   956    1
  1393  1439  1445   ar
  1394   370   371    1
  1395   704   721    1
  1396  1543  1541    1
  1397  1445  1446    2
  1398   334   336    1
  1399   334   335    1
  1400   728   729    1
  1401   728   726    1
  1402  1547  1564    1
  1403   336   337    1
  1404   760   761    2
  1405   760   759   ar
  1406   758   759   ar
  1407   758   764   ar
  1408   341   340    1
  1409   724   722    1
  1410   724   726    1
  1411  1541  1562    2
  1412  1541  1563    1
  1413   801   800    2
  1414   759   762   ar
  1415   340   342    1
  1416   753   764    1
  1417   753   748    1
  1418   753   751    1
  1419   924   923    1
  1420   723   722    1
  1421   723   721    1
  1422  1568  1573    1
  1423  1568  1567    1
  1424   764   763   ar
  1425   335   333    1
  1426   748   747    1
  1427   743   721    2
  1428   726   727    1
  1429   721   742    1
  1430   333   354    1
  1431   333   319    1
  1432   913   914   ar
  1433   913   910   ar
  1434   912   911    1
  1435   752   751    1
  1436   800   802   ar
  1437   800   799   ar
  1438   762   763   ar
  1439   914   915   ar
  1440  1565  1567    1
  1441  1565  1566    1
  1442  1573  1574    1
  1443  1573  1571    1
  1444   337   342    1
  1445  1567  1569    1
  1446   900   905    1
  1447   900   899    1
  1448   910   911   ar
  1449   910   909   ar
  1450   797   796    1
  1451   911   906   ar
  1452   802   803   ar
  1453  1564  1582    2
  1454  1564  1566    1
  1455  1564  1583    1
  1456   923   925    1
  1457   923   921    1
  1458   798   799    1
  1459   798   793    1
  1460   798   796    1
  1461   342   352    1
  1462   915   909   ar
  1463   915   905    1
  1464   751   749    1
  1465  1574  1581   ar
  1466  1574  1575   ar
  1467   909   908   ar
  1468   906   907   ar
  1469  1576  1575    2
  1470   319   318    1
  1471   799   806   ar
  1472   747   745    1
  1473   747   749    1
  1474  1581  1580   ar
  1475   905   903    1
  1476  1575  1577   ar
  1477   793   792    1
  1478   907   908   ar
  1479  1572  1571    1
  1480   784   785   ar
  1481   784   781   ar
  1482   727   744    1
  1483  1580  1578   ar
  1484   796   794    1
  1485   785   786   ar
  1486  1577  1578   ar
  1487   899   897    1
  1488   899   901    1
  1489   925   926    1
  1490   925   927    1
  1491   919   921    1
  1492   919   920    1
  1493   803   804    1
  1494   803   805   ar
  1495   321   320    1
  1496  1571  1569    1
  1497  1578  1579    2
  1498   745   746    1
  1499   792   794    1
  1500   792   790    1
  1501   921   922    1
  1502   935   934    2
  1503   930   929    1
  1504   928   934   ar
  1505   928   929   ar
  1506   749   750    1
  1507   806   805   ar
  1508   746   744    1
  1509  1569  1570    1
  1510   934   933   ar
  1511   929   931   ar
  1512   897   898    1
  1513   352   351   ar
  1514   352   346   ar
  1515   817   816    1
  1516   933   932   ar
  1517   933   936   ar
  1518   931   932   ar
  1519   902   901    1
  1520   902   918    1
  1521   932   938   ar
  1522   318   320    1
  1523   318   316    1
  1524   783   782    1
  1525   936   937   ar
  1526   320   322    1
  1527   917   896    2
  1528   351   350   ar
  1529   781   782   ar
  1530   781   780   ar
  1531   940   918    2
  1532   903   901    1
  1533   903   904    1
  1534   786   776    1
  1535   786   780   ar
  1536   938   937   ar
  1537   938   927    1
  1538   771   776    1
  1539   771   770    1
  1540   744   766    2
  1541   744   765    1
  1542   794   795    1
  1543   898   896    1
  1544   790   791    1
  1545   750   767    1
  1546   920   918    1
  1547   927   922    1
  1548  1570  1584    1
  1549   807   789    2
  1550   776   774    1
  1551   782   777   ar
  1552   882   881    1
  1553   346   345   ar
  1554   346   347   ar
  1555   918   939    1
  1556   345   344   ar
  1557   780   779   ar
  1558   818   813    1
  1559   818   816    1
  1560   818   829    1
  1561   316   314    1
  1562   316   317    1
  1563   795   809    1
  1564   813   812    1
  1565   816   814    1
  1566   896   916    1
  1567   896   880    1
  1568   769   767    1
  1569   769   768    1
  1570   821   820    1
  1571   770   768    1
  1572   770   772    1
  1573   791   789    1
  1574   350   347   ar
  1575   822   820   ar
  1576   822   823   ar
  1577   314   315    1
  1578   773   789    1
  1579   773   772    1
  1580   325   324    2
  1581   840   839    1
  1582   812   814    1
  1583   812   810    1
  1584   789   808    1
  1585   322   317    1
  1586   322   323    1
  1587   767   788    2
  1588   767   787    1
  1589   777   778   ar
  1590   347   348   ar
  1591  1588  1593    1
  1592  1588  1587    1
  1593   820   819   ar
  1594   835   836    1
  1595   835   833    1
  1596   835   837    1
  1597   836   841    1
  1598   881   879    1
  1599   881   883    1
  1600   829   823   ar
  1601   829   828   ar
  1602   833   834    1
  1603   779   778   ar
  1604   344   343   ar
  1605   774   772    1
  1606   774   775    1
  1607   815   814    1
  1608   815   832    1
  1609   315   313    1
  1610   811   809    1
  1611   811   810    1
  1612  1584  1603    2
  1613  1584  1586    1
  1614  1584  1602    1
  1615   823   824   ar
  1616   880   879    1
  1617   879   877    1
  1618  1601  1600   ar
  1619  1601  1594   ar
  1620  1600  1598   ar
  1621   841   839    1
  1622   841   842    1
  1623  1593  1594    1
  1624  1593  1591    1
  1625   324   323   ar
  1626   324   326   ar
  1627  1594  1595   ar
  1628   809   831    2
  1629   809   830    1
  1630  1585  1586    1
  1631  1585  1587    1
  1632   323   330   ar
  1633  1598  1599    2
  1634  1598  1597   ar
  1635   331   313    2
  1636   839   837    1
  1637  1595  1597   ar
  1638  1595  1596    2
  1639  1587  1589    1
  1640   828   827   ar
  1641   838   837    1
  1642   838   852    1
  1643   819   825   ar
  1644   348   343   ar
  1645   348   349    1
  1646   834   832    1
  1647   872   852    2
  1648   850   832    2
  1649   824   825   ar
  1650   824   827   ar
  1651   883   893    1
  1652   883   878    1
  1653   844   843    2
  1654   892   893   ar
  1655   892   891   ar
  1656   313   332    1
  1657   313   296    1
  1658   326   327   ar
  1659   832   851    1
  1660   893   887   ar
  1661   891   888   ar
  1662   842   843   ar
  1663   842   849   ar
  1664   330   329   ar
  1665   825   826    2
  1666   877   875    1
  1667   877   878    1
  1668   887   888   ar
  1669   887   886   ar
  1670   888   889   ar
  1671   875   876    1
  1672   843   845   ar
  1673   886   885   ar
  1674  1591  1592    1
  1675  1591  1589    1
  1676   889   890    1
  1677   889   884   ar
  1678   852   854    1
  1679   852   873    1
  1680   849   848   ar
  1681   885   884   ar
  1682   302   301    1
  1683   296   295    1
  1684  1589  1590    1
  1685   894   874    2
  1686   327   329   ar
  1687   327   328    1
  1688   298   297    1
  1689   854   853    1
  1690   845   846   ar
  1691   297   295    1
  1692   297   299    1
  1693   876   874    1
  1694   848   846   ar
  1695   301   303   ar
  1696   301   300   ar
  1697  1590  1604    1
  1698   295   293    1
  1699   303   304   ar
  1700   874   895    1
  1701   874   858    1
  1702   853   855    1
  1703   846   847    1
  1704   116    96    2
  1705   300   306   ar
  1706   855   857    1
  1707   855   856    1
  1708  1620  1619    1
  1709  1621  1618   ar
  1710  1621  1622   ar
  1711  1619  1618   ar
  1712  1619  1614   ar
  1713   304   310   ar
  1714   304   305   ar
  1715  1618  1617   ar
  1716  1622  1623   ar
  1717   299   310    1
  1718   299   294    1
  1719   293   291    1
  1720   293   294    1
  1721  1608  1613    1
  1722  1608  1607    1
  1723  1614  1615   ar
  1724   858   857    1
  1725   857   859    1
  1726   856   861    1
  1727  1617  1623   ar
  1728  1617  1616   ar
  1729  1625  1604    2
  1730  1623  1613    1
  1731  1604  1606    1
  1732  1604  1624    1
  1733   306   305   ar
  1734   306   307    2
  1735   136   118    2
  1736  1615  1616   ar
  1737    98    96    1
  1738    98    97    1
  1739   310   309   ar
  1740    96    82    1
  1741    96   117    1
  1742  1613  1611    1
  1743   305   308   ar
  1744  1606  1605    1
  1745   291   292    1
  1746    97    99    1
  1747  1605  1607    1
  1748   137   118    1
  1749  1607  1609    1
  1750   118   102    1
  1751   118   120    1
  1752    82    81    1
  1753   309   308   ar
  1754   292   290    1
  1755   102   101    1
  1756    94    76    2
  1757   861   859    1
  1758   861   871    1
  1759   859   860    1
  1760    99   101    1
  1761    99   100    1
  1762   311   290    2
  1763  1611  1612    1
  1764  1611  1609    1
  1765   864   865   ar
  1766   864   863   ar
  1767   160   138    2
  1768    77    79    1
  1769    77    78    1
  1770  1609  1610    1
  1771   101   103    1
  1772   871   865   ar
  1773   871   870   ar
  1774   290   312    1
  1775   290   274    1
  1776    81    79    1
  1777    81    83    1
  1778   279   278   ar
  1779   279   280   ar
  1780   278   283   ar
  1781   865   866   ar
  1782   120   119    1
  1783   863   862   ar
  1784    79    80    1
  1785    76    78    1
  1786    76    95    1
  1787    76    62    1
  1788   159   138    1
  1789   100   105    1
  1790   870   869   ar
  1791    84    83    1
  1792   119   121    1
  1793   138   124    1
  1794   138   140    1
  1795   280   281   ar
  1796   862   867   ar
  1797   866   869   ar
  1798   866   867   ar
  1799  1610  1626    1
  1800   283   284    1
  1801   283   282   ar
  1802   104   103    1
  1803    83    85    1
  1804  1641  1640    1
  1805   103   105    1
  1806   274   273    1
  1807    62    61    1
  1808  1642  1640   ar
  1809  1642  1643   ar
  1810   867   868    1
  1811   124   123    1
  1812  1640  1639   ar
  1813   276   275    1
  1814   275   273    1
  1815   275   277    1
  1816   105   115    1
  1817   281   282   ar
  1818   281   287   ar
  1819    80    85    1
  1820   123   121    1
  1821   123   125    1
  1822  1643  1636   ar
  1823   282   285   ar
  1824   273   271    1
  1825   121   122    1
  1826   140   139    1
  1827   134   135   ar
  1828   134   132   ar
  1829  1639  1637   ar
  1830    85    86    1
  1831   135   128   ar
  1832   114   115   ar
  1833   114   113   ar
  1834  1645  1626    2
  1835   156   157   ar
  1836   156   153   ar
  1837  1626  1628    1
  1838  1626  1644    1
  1839  1630  1635    1
  1840  1630  1629    1
  1841   115   109   ar
  1842  1636  1637   ar
  1843  1636  1635    1
  1844   157   158   ar
  1845   146   145    1
  1846   287   277    1
  1847   287   286   ar
  1848    64    63    1
  1849  1637  1638    2
  1850    61    63    1
  1851    61    59    1
  1852   145   143    1
  1853   145   147    1
  1854  1628  1627    1
  1855   122   127    1
  1856   285   286   ar
  1857   277   272    1
  1858   180   161    2
  1859  1627  1629    1
  1860   139   141    1
  1861   133   132    1
  1862  1635  1633    1
  1863   132   131   ar
  1864   125   127    1
  1865   125   126    1
  1866   143   141    1
  1867   143   144    1
  1868   155   154    2
  1869   113   110   ar
  1870    93    86   ar
  1871    93    92   ar
  1872    86    87   ar
  1873    63    65    1
  1874   153   154   ar
  1875   153   152   ar
  1876   128   127    1
  1877   128   129   ar
  1878    59    57    1
  1879    59    60    1
  1880   271   272    1
  1881   271   269    1
  1882    57    58    1
  1883  1629  1631    1
  1884   158   147    1
  1885   158   152   ar
  1886    74    56    2
  1887   109   110   ar
  1888   109   108   ar
  1889   154   148   ar
  1890   257   256    1
  1891   141   142    1
  1892   147   142    1
  1893  1661  1660    1
  1894   152   151   ar
  1895    92    90   ar
  1896   110   111   ar
  1897   269   270    1
  1898   144   161    1
  1899    58    56    1
  1900    87    88    2
  1901    87    89   ar
  1902   131   129   ar
  1903   161   179    1
  1904   161   163    1
  1905   108   107   ar
  1906   255   256   ar
  1907   255   261   ar
  1908   129   130    2
  1909  1633  1631    1
  1910  1633  1634    1
  1911   256   258   ar
  1912   262   261    2
  1913  1631  1632    1
  1914   148   149   ar
  1915    56    75    1
  1916    56    39    1
  1917  1660  1662   ar
  1918  1660  1659   ar
  1919    60    65    1
  1920    65    66    1
  1921   261   260   ar
  1922  1662  1663   ar
  1923   151   149   ar
  1924    90    89   ar
  1925    90    91    1
  1926   111   112    1
  1927   111   106   ar
  1928  1659  1657   ar
  1929   163   162    1
  1930   149   150    1
  1931  1683  1682    2
  1932   107   106   ar
  1933   270   268    1
  1934   202   181    2
  1935   258   259   ar
  1936    68    67    2
  1937    66    67   ar
  1938    66    73   ar
  1939   201   181    1
  1940  1663  1656   ar
  1941    39    38    1
  1942  1632  1646    1
  1943   162   164    1
  1944   260   259   ar
  1945   260   263   ar
  1946  1657  1656   ar
  1947  1657  1658    2
  1948   288   268    2
  1949    67    69   ar
  1950   239   238    1
  1951  1766  1765    1
  1952  1676  1682   ar
  1953  1676  1677   ar
  1954    73    72   ar
  1955  1682  1681   ar
  1956   259   265   ar
  1957  1656  1655    1
  1958   181   183    1
  1959   181   167    1
  1960   233   238   ar
  1961   233   234   ar
  1962   268   289    1
  1963   268   251    1
  1964    41    40    1
  1965  1665  1646    2
  1966   238   237   ar
  1967   263   264   ar
  1968  1678  1677    1
  1969  1650  1655    1
  1970  1650  1649    1
  1971    69    70   ar
  1972    38    40    1
  1973    38    36    1
  1974   183   182    1
  1975    72    70   ar
  1976  1646  1648    1
  1977  1646  1664    1
  1978    40    42    1
  1979  1677  1679   ar
  1980  1765  1764   ar
  1981  1765  1767   ar
  1982  1655  1653    1
  1983   252   253    1
  1984   252   250    1
  1985   252   254    1
  1986  1705  1704    1
  1987   234   235   ar
  1988   265   264   ar
  1989   265   254    1
  1990   164   166    1
  1991   164   165    1
  1992    45    44    1
  1993  1681  1684   ar
  1994  1681  1680   ar
  1995   182   184    1
  1996   177   178   ar
  1997   177   175   ar
  1998  1648  1647    1
  1999    70    71    2
  2000  1764  1770   ar
  2001   178   171   ar
  2002   251   250    1
  2003   167   166    1
  2004   166   168    1
  2005   218   217    1
  2006  1684  1685   ar
  2007  1767  1768   ar
  2008   250   248    1
  2009   254   249    1
  2010  1647  1649    1
  2011    44    46   ar
  2012    44    43   ar
  2013   165   170    1
  2014  1743  1742    1
  2015    46    47   ar
  2016   237   240   ar
  2017   237   236   ar
  2018    36    34    1
  2019    36    37    1
  2020  1649  1651    1
  2021  1679  1680   ar
  2022  1680  1686   ar
  2023  1741  1742   ar
  2024  1741  1747   ar
  2025   222   203    2
  2026  1748  1747    2
  2027   176   175    1
  2028  1699  1704   ar
  2029  1699  1700   ar
  2030  1704  1703   ar
  2031   198   199   ar
  2032   198   195   ar
  2033   235   236   ar
  2034   175   174   ar
  2035   199   200   ar
  2036  1770  1771    2
  2037  1770  1769   ar
  2038    34    35    1
  2039    42    53    1
  2040    42    37    1
  2041  1653  1651    1
  2042  1653  1654    1
  2043    43    49   ar
  2044   240   241   ar
  2045  1762  1761    1
  2046  1768  1769   ar
  2047  1768  1774   ar
  2048  1742  1744   ar
  2049   236   242   ar
  2050   171   170    1
  2051   171   172   ar
  2052   184   185    1
  2053   184   186    1
  2054    47    53   ar
  2055    47    48   ar
  2056   217   219   ar
  2057   217   216   ar
  2058  1685  1686   ar
  2059   219   220   ar
  2060  1747  1746   ar
  2061   168   170    1
  2062   168   169    1
  2063  1651  1652    1
  2064    53    52   ar
  2065    35    33    1
  2066   185   190    1
  2067    54    33    2
  2068   249   248    1
  2069  1769  1772   ar
  2070  1686  1675    1
  2071   248   246    1
  2072   186   187    1
  2073   186   188    1
  2074    49    48   ar
  2075    49    50    2
  2076   197   196    1
  2077    48    51   ar
  2078  1700  1701   ar
  2079  1763  1774    1
  2080  1763  1761    1
  2081  1763  1758    1
  2082  1774  1773   ar
  2083  1703  1706   ar
  2084  1703  1702   ar
  2085   203   187    1
  2086   203   221    1
  2087   203   205    1
  2088   195   196   ar
  2089   195   194   ar
  2090   174   172   ar
  2091   200   190    1
  2092   200   194   ar
  2093   247   246    1
  2094   247   245    1
  2095   241   242   ar
  2096    52    51   ar
  2097    33    55    1
  2098   172   173    2
  2099  1761  1759    1
  2100   216   214   ar
  2101   242   232    1
  2102  1706  1707   ar
  2103  1744  1745   ar
  2104   220   213   ar
  2105   267   245    2
  2106  1746  1745   ar
  2107  1746  1749   ar
  2108   190   188    1
  2109   196   191   ar
  2110  1760  1759    1
  2111  1772  1773   ar
  2112  1652  1666    1
  2113  1675  1670    1
  2114  1675  1673    1
  2115  1670  1669    1
  2116   194   193   ar
  2117  1758  1757    1
  2118  1745  1751   ar
  2119   205   204    1
  2120   188   189    1
  2121  1688  1666    2
  2122  1702  1701   ar
  2123  1702  1708   ar
  2124   245   266    1
  2125   245   229    1
  2126   230   232    1
  2127   230   231    1
  2128   230   228    1
  2129  1759  1757    1
  2130   232   227    1
  2131  1749  1750   ar
  2132   214   213   ar
  2133   214   215    2
  2134   213   212    1
  2135  1707  1708   ar
  2136   244   223    2
  2137  1757  1755    1
  2138  1666  1668    1
  2139  1666  1687    1
  2140   191   192   ar
  2141   228   229    1
  2142   228   226    1
  2143  1673  1674    1
  2144  1673  1671    1
  2145   193   192   ar
  2146  1708  1698    1
  2147  1668  1667    1
  2148  1669  1667    1
  2149  1669  1671    1
  2150  1751  1750   ar
  2151  1751  1740    1
  2152   204   206    1
  2153   225   223    1
  2154   225   224    1
  2155   227   226    1
  2156   208   210    1
  2157   208   206    1
  2158   208   209    1
  2159   207   212    1
  2160   207   206    1
  2161   212   210    1
  2162   223   209    1
  2163   223   243    1
  2164  1671  1672    1
  2165   210   211    1
  2166   226   224    1
  2167  1740  1738    1
  2168  1740  1735    1
  2169  1755  1756    1
  2170  1756  1754    1
  2171  1738  1739    1
  2172  1738  1736    1
  2173  1672  1689    1
  2174  1698  1693    1
  2175  1698  1696    1
  2176  1693  1692    1
  2177  1696  1697    1
  2178  1696  1694    1
  2179  1736  1737    1
  2180  1736  1734    1
  2181  1735  1734    1
  2182  1776  1754    2
  2183  1754  1737    1
  2184  1754  1775    1
  2185  1710  1689    2
  2186  1689  1691    1
  2187  1689  1709    1
  2188  1691  1690    1
  2189  1692  1690    1
  2190  1692  1694    1
  2191  1734  1732    1
  2192  1694  1695    1
  2193  1732  1733    1
  2194  1695  1711    1
  2195  1753  1731    2
  2196  1729  1711    2
  2197  1733  1731    1
  2198  1711  1713    1
  2199  1711  1730    1
  2200  1713  1712    1
  2201  1731  1752    1
  2202  1731  1717    1
  2203  1712  1714    1
  2204  1717  1716    1
  2205  1716  1714    1
  2206  1716  1718    1
  2207  1727  1728   ar
  2208  1727  1725   ar
  2209  1714  1715    1
  2210  1726  1725    2
  2211  1728  1721   ar
  2212  1725  1724   ar
  2213  1715  1720    1
  2214  1718  1720    1
  2215  1718  1719    1
  2216  1721  1720    1
  2217  1721  1722   ar
  2218  1724  1722   ar
  2219  1722  1723    2
